
#######################################################################
#
#                 Cambridge Crystallographic Data Centre
#                                CCDC 
#
#######################################################################
#
# If this CIF has been generated from an entry in the Cambridge 
# Structural Database, then it will include bibliographic, chemical, 
# crystal, experimental, refinement or atomic coordinate data resulting 
# from the CCDC's data processing and validation procedures.
#
#######################################################################

data_YAZTAX
_chemical_formula_moiety         'C21 H25 N3 O8'
_chemical_name_systematic        
'5-ethyl 2-methyl 3-carbamoyl-3-cyano-2-(2-methoxy-2-oxoethyl)-4-(4-methoxyphenyl)pyrrolidine-2,5-dicarboxylate'
_symmetry_cell_setting           triclinic
_symmetry_space_group_name_H-M   'P -1'
_symmetry_Int_Tables_number      2
_space_group_name_Hall           '-P 1'
loop_
_symmetry_equiv_pos_site_id
_symmetry_equiv_pos_as_xyz
1 x,y,z
2 -x,-y,-z
_cell_length_a                   10.3301(13)
_cell_length_b                   10.6104(13)
_cell_length_c                   12.2479(15)
_cell_angle_alpha                68.368(3)
_cell_angle_beta                 82.297(3)
_cell_angle_gamma                61.873(3)
_cell_volume                     1099.24
_exptl_crystal_colour            colorless
_exptl_crystal_description       block
_cell_formula_units_Z            2
loop_
_atom_site_label
_atom_site_type_symbol
_atom_site_fract_x
_atom_site_fract_y
_atom_site_fract_z
C1 C 0.45032(16) 0.65465(17) 0.68205(13)
H1 H 0.4593 0.5825 0.7564
C2 C 0.57492(16) 0.66072(18) 0.62893(13)
H2 H 0.6667 0.5930 0.6674
C3 C 0.56329(15) 0.76789(17) 0.51800(13)
C4 C 0.68563(19) 0.8803(2) 0.36344(15)
H3 H 0.6461 0.8702 0.3023
H4 H 0.7823 0.8709 0.3447
H5 H 0.6231 0.9784 0.3701
C5 C 0.42623(16) 0.86865(17) 0.46105(13)
H6 H 0.4175 0.9408 0.3868
C6 C 0.30201(15) 0.86097(17) 0.51595(13)
H7 H 0.2103 0.9291 0.4775
C7 C 0.31101(14) 0.75471(15) 0.62636(12)
C8 C 0.17176(14) 0.74908(15) 0.67929(11)
H8 H 0.0893 0.8492 0.6409
C9 C 0.14037(14) 0.62794(15) 0.66237(11)
C10 C 0.27455(15) 0.48029(16) 0.69276(12)
C11 C 0.07979(14) 0.68174(16) 0.53543(11)
C12 C 0.02613(14) 0.61199(15) 0.76084(11)
C13 C 0.03956(15) 0.45186(16) 0.79581(12)
C14 C 0.1351(2) 0.20374(19) 0.93560(16)
H9 H 0.0416 0.2035 0.9421
H10 H 0.1878 0.1465 1.0107
H11 H 0.1907 0.1581 0.8791
C15 C -0.13430(15) 0.72992(17) 0.71956(12)
H12 H -0.1447 0.8323 0.6959
H13 H -0.1619 0.7185 0.6524
C16 C -0.23299(16) 0.70531(19) 0.81921(13)
C17 C -0.4556(3) 0.8210(4) 0.9058(2)
H14 H -0.5106 0.7808 0.8846
H15 H -0.5214 0.9195 0.9104
H16 H -0.4048 0.7533 0.9807
C18 C 0.16249(15) 0.71542(16) 0.81344(11)
H17 H 0.2609 0.6460 0.8513
C19 C 0.10310(17) 0.86342(17) 0.83671(12)
C20 C -0.1024(2) 1.10244(19) 0.81570(17)
H18 H -0.0521 1.1612 0.7700
H19 H -0.0938 1.0880 0.8978
C21 C -0.2588(3) 1.1842(3) 0.7757(3)
H20 H -0.2664 1.1970 0.6947
H21 H -0.3036 1.2825 0.7840
H22 H -0.3081 1.1264 0.8225
N1 N 0.37503(16) 0.36363(17) 0.72061(15)
N2 N 0.11481(17) 0.57378(18) 0.49055(12)
N3 N 0.06849(13) 0.64013(14) 0.85515(10)
O1 O 0.69351(11) 0.76353(13) 0.47229(10)
O2 O 0.00246(12) 0.81703(12) 0.48371(9)
O3 O -0.00508(14) 0.41522(14) 0.73267(9)
O4 O 0.11291(12) 0.35860(11) 0.89784(9)
O5 O -0.21124(13) 0.58337(15) 0.89151(10)
O6 O -0.34947(14) 0.83517(16) 0.81713(12)
O7 O 0.17576(15) 0.89462(17) 0.88063(14)
O8 O -0.03692(12) 0.95559(12) 0.80037(10)
H23 H 0.110(2) 0.556(2) 0.9163(16)
H24 H 0.076(2) 0.603(3) 0.421(2)
H25 H 0.174(2) 0.476(2) 0.5296(18)
loop_
_geom_bond_atom_site_label_1
_geom_bond_atom_site_label_2
_geom_bond_site_symmetry_1
_geom_bond_site_symmetry_2
C1 H1 1_555 1_555
C2 C1 1_555 1_555
H2 C2 1_555 1_555
C3 C2 1_555 1_555
C4 H3 1_555 1_555
H4 C4 1_555 1_555
H5 C4 1_555 1_555
C5 C3 1_555 1_555
H6 C5 1_555 1_555
C6 C5 1_555 1_555
H7 C6 1_555 1_555
C7 C1 1_555 1_555
C8 C7 1_555 1_555
H8 C8 1_555 1_555
C9 C8 1_555 1_555
C10 C9 1_555 1_555
C11 C9 1_555 1_555
C12 C9 1_555 1_555
C13 C12 1_555 1_555
C14 H9 1_555 1_555
H10 C14 1_555 1_555
H11 C14 1_555 1_555
C15 C12 1_555 1_555
H12 C15 1_555 1_555
H13 C15 1_555 1_555
C16 C15 1_555 1_555
C17 H14 1_555 1_555
H15 C17 1_555 1_555
H16 C17 1_555 1_555
C18 C8 1_555 1_555
H17 C18 1_555 1_555
C19 C18 1_555 1_555
C20 H18 1_555 1_555
H19 C20 1_555 1_555
C21 C20 1_555 1_555
H20 C21 1_555 1_555
H21 C21 1_555 1_555
H22 C21 1_555 1_555
N1 C10 1_555 1_555
N2 C11 1_555 1_555
N3 C12 1_555 1_555
O1 C3 1_555 1_555
O2 C11 1_555 1_555
O3 C13 1_555 1_555
O4 C13 1_555 1_555
O5 C16 1_555 1_555
O6 C16 1_555 1_555
O7 C19 1_555 1_555
O8 C19 1_555 1_555
H23 N3 1_555 1_555
H24 N2 1_555 1_555
H25 N2 1_555 1_555
C4 O1 1_555 1_555
C6 C7 1_555 1_555
C14 O4 1_555 1_555
C17 O6 1_555 1_555
C18 N3 1_555 1_555
C20 O8 1_555 1_555

#END
