
#######################################################################
#
#                 Cambridge Crystallographic Data Centre
#                                CCDC 
#
#######################################################################
#
# If this CIF has been generated from an entry in the Cambridge 
# Structural Database, then it will include bibliographic, chemical, 
# crystal, experimental, refinement or atomic coordinate data resulting 
# from the CCDC's data processing and validation procedures.
#
#######################################################################

data_YAZZII
_chemical_formula_moiety         'C3 H8 N1 1+,Cl1 O4 1-'
_chemical_name_systematic        'Azetidinium perchlorate'
_symmetry_cell_setting           orthorhombic
_symmetry_space_group_name_H-M   'I b a 2'
_symmetry_Int_Tables_number      45
_space_group_name_Hall           'I 2 -2c'
loop_
_symmetry_equiv_pos_site_id
_symmetry_equiv_pos_as_xyz
1 x,y,z
2 1/2+x,1/2+y,1/2+z
3 1/2-x,1/2+y,z
4 -x,y,1/2+z
5 1/2+x,1/2-y,z
6 x,-y,1/2+z
7 -x,-y,z
8 1/2-x,1/2-y,1/2+z
_cell_length_a                   9.358(2)
_cell_length_b                   18.746(6)
_cell_length_c                   7.768(2)
_cell_angle_alpha                90
_cell_angle_beta                 90
_cell_angle_gamma                90
_cell_volume                     1362.7
_exptl_crystal_colour            white
_chemical_melting_point          230-232deg.C
_cell_formula_units_Z            8
loop_
_atom_site_label
_atom_site_type_symbol
_atom_site_fract_x
_atom_site_fract_y
_atom_site_fract_z
N1 N 0.1993(5) 0.0984(3) 0.5115(14)
H1 H 0.1514 0.0771 0.6080
H2 H 0.1600 0.0798 0.4066
C1 C 0.2067(7) 0.1776(4) 0.5163(14)
H3 H 0.1624 0.2009 0.6125
H4 H 0.1709 0.1977 0.4111
C2 C 0.3677(8) 0.1747(5) 0.5057(17)
H5 H 0.4153 0.1989 0.4132
H6 H 0.4064 0.1905 0.6137
C3 C 0.3602(7) 0.0960(4) 0.5056(17)
H7 H 0.4078 0.0700 0.5958
H8 H 0.3928 0.0789 0.3959
Cl1 Cl 0.1993(2) 0.1020(1) 0.0000
O1 O 0.1246 0.0595 0.1146
O2 O 0.3115 0.0636 -0.0671
O3 O 0.1089 0.1225 -0.1308
O4 O 0.2502 0.1612 0.0845
O5? O 0.1331 0.0628 -0.1278
O6? O 0.0994 0.1443 0.0810
O7? O 0.2598 0.0562 0.1179
O8? O 0.3038 0.1443 -0.0718
loop_
_geom_bond_atom_site_label_1
_geom_bond_atom_site_label_2
_geom_bond_site_symmetry_1
_geom_bond_site_symmetry_2
N1 H1 1_555 1_555
H2 N1 1_555 1_555
C1 N1 1_555 1_555
H3 C1 1_555 1_555
H4 C1 1_555 1_555
C2 C1 1_555 1_555
H5 C2 1_555 1_555
H6 C2 1_555 1_555
C3 N1 1_555 1_555
H7 C3 1_555 1_555
H8 C3 1_555 1_555
Cl1 O1 1_555 1_555
O2 Cl1 1_555 1_555
O3 Cl1 1_555 1_555
O4 Cl1 1_555 1_555
C2 C3 1_555 1_555

#END
