
#######################################################################
#
#                 Cambridge Crystallographic Data Centre
#                                CCDC 
#
#######################################################################
#
# If this CIF has been generated from an entry in the Cambridge 
# Structural Database, then it will include bibliographic, chemical, 
# crystal, experimental, refinement or atomic coordinate data resulting 
# from the CCDC's data processing and validation procedures.
#
#######################################################################

data_YEBDIS
_chemical_formula_moiety         'C24 H20 N1 P2 S2 1-,K1 1+'
_chemical_name_systematic        
'Potassium bis(diphenyl-thiophosphoranyl)-amine'
_symmetry_cell_setting           monoclinic
_symmetry_space_group_name_H-M   'I 2/a'
_symmetry_Int_Tables_number      15
_space_group_name_Hall           '-I 2ya'
loop_
_symmetry_equiv_pos_site_id
_symmetry_equiv_pos_as_xyz
1 x,y,z
2 1/2+x,1/2+y,1/2+z
3 1/2-x,y,-z
4 -x,1/2+y,1/2-z
5 -x,-y,-z
6 1/2-x,1/2-y,1/2-z
7 1/2+x,-y,z
8 x,1/2-y,1/2+z
_cell_length_a                   8.355(2)
_cell_length_b                   27.639(7)
_cell_length_c                   10.221(2)
_cell_angle_alpha                90
_cell_angle_beta                 92.87(2)
_cell_angle_gamma                90
_cell_volume                     2357.31
_cell_formula_units_Z            4
loop_
_atom_site_label
_atom_site_type_symbol
_atom_site_fract_x
_atom_site_fract_y
_atom_site_fract_z
K1 K 0.2500 0.5387(1) 0.5000
P1 P 0.2155(1) 0.3913(1) 0.3611(1)
S1 S 0.0818(1) 0.4502(1) 0.3443(1)
N1 N 0.2500 0.3663(1) 0.5000
C1 C 0.4065(3) 0.4017(1) 0.2882(3)
C2 C 0.4275(4) 0.4376(1) 0.1961(3)
C3 C 0.5738(4) 0.4434(1) 0.1410(3)
C4 C 0.6990(4) 0.4137(1) 0.1752(3)
C5 C 0.6801(4) 0.3780(1) 0.2660(3)
C6 C 0.5343(4) 0.3718(1) 0.3228(3)
C7 C 0.1246(3) 0.3440(1) 0.2598(3)
C8 C 0.0825(4) 0.3526(1) 0.1292(3)
C9 C 0.0057(5) 0.3178(1) 0.0535(3)
C10 C -0.0304(5) 0.2742(1) 0.1068(4)
C11 C 0.0109(5) 0.2649(1) 0.2355(4)
C12 C 0.0887(4) 0.2995(1) 0.3122(3)
H1 H 0.3394 0.4586 0.1715
H2 H 0.5874 0.4686 0.0778
H3 H 0.7999 0.4177 0.1356
H4 H 0.7688 0.3573 0.2904
H5 H 0.5209 0.3466 0.3861
H6 H 0.1081 0.3833 0.0917
H7 H -0.0235 0.3243 -0.0368
H8 H -0.0847 0.2499 0.0539
H9 H -0.0137 0.2341 0.2729
H10 H 0.1185 0.2931 0.4024
P1B P 0.2845(1) 0.3913(1) 0.6389(1)
S1B S 0.4182(1) 0.4502(1) 0.6557(1)
C1B C 0.0935(3) 0.4017(1) 0.7118(3)
C7B C 0.3754(3) 0.3440(1) 0.7402(3)
C2B C 0.0725(4) 0.4376(1) 0.8039(3)
C6B C -0.0343(4) 0.3718(1) 0.6772(3)
C8B C 0.4175(4) 0.3526(1) 0.8708(3)
C12B C 0.4113(4) 0.2995(1) 0.6878(3)
C3B C -0.0738(4) 0.4434(1) 0.8590(3)
H1B H 0.1606 0.4586 0.8285
C5B C -0.1801(4) 0.3780(1) 0.7340(3)
H5B H -0.0209 0.3466 0.6139
C9B C 0.4943(5) 0.3178(1) 0.9465(3)
H6B H 0.3919 0.3833 0.9083
C11B C 0.4891(5) 0.2649(1) 0.7645(4)
H10B H 0.3815 0.2931 0.5976
C4B C -0.1990(4) 0.4137(1) 0.8248(3)
H2B H -0.0874 0.4686 0.9222
H4B H -0.2688 0.3573 0.7096
C10B C 0.5304(5) 0.2742(1) 0.8932(4)
H7B H 0.5235 0.3243 1.0368
H9B H 0.5137 0.2341 0.7271
H3B H -0.2999 0.4177 0.8644
H8B H 0.5847 0.2499 0.9461
loop_
_geom_bond_atom_site_label_1
_geom_bond_atom_site_label_2
_geom_bond_site_symmetry_1
_geom_bond_site_symmetry_2
P1 S1 1_555 1_555
N1 P1 1_555 1_555
C1 P1 1_555 1_555
C2 C1 1_555 1_555
C3 C2 1_555 1_555
C4 C3 1_555 1_555
C5 C4 1_555 1_555
C6 C1 1_555 1_555
C7 P1 1_555 1_555
C8 C7 1_555 1_555
C9 C8 1_555 1_555
C10 C9 1_555 1_555
C11 C10 1_555 1_555
C12 C7 1_555 1_555
H1 C2 1_555 1_555
H2 C3 1_555 1_555
H3 C4 1_555 1_555
H4 C5 1_555 1_555
H5 C6 1_555 1_555
H6 C8 1_555 1_555
H7 C9 1_555 1_555
H8 C10 1_555 1_555
H9 C11 1_555 1_555
H10 C12 1_555 1_555
P1B N1 1_555 1_555
S1B P1B 1_555 1_555
C1B P1B 1_555 1_555
C7B P1B 1_555 1_555
C2B C1B 1_555 1_555
C6B C1B 1_555 1_555
C8B C7B 1_555 1_555
C12B C7B 1_555 1_555
C3B C2B 1_555 1_555
H1B C2B 1_555 1_555
C5B C6B 1_555 1_555
H5B C6B 1_555 1_555
C9B C8B 1_555 1_555
H6B C8B 1_555 1_555
C11B C12B 1_555 1_555
H10B C12B 1_555 1_555
C4B C3B 1_555 1_555
H2B C3B 1_555 1_555
H4B C5B 1_555 1_555
C10B C9B 1_555 1_555
H7B C9B 1_555 1_555
H9B C11B 1_555 1_555
H3B C4B 1_555 1_555
H8B C10B 1_555 1_555
C5 C6 1_555 1_555
C11 C12 1_555 1_555
C5B C4B 1_555 1_555
C11B C10B 1_555 1_555

#END
