
#######################################################################
#
#                 Cambridge Crystallographic Data Centre
#                                CCDC 
#
#######################################################################
#
# If this CIF has been generated from an entry in the Cambridge 
# Structural Database, then it will include bibliographic, chemical, 
# crystal, experimental, refinement or atomic coordinate data resulting 
# from the CCDC's data processing and validation procedures.
#
#######################################################################

data_YEBDAM
_chemical_compound_source        'Chrysanthemum indicum'
_chemical_formula_moiety         'C32 H40 O9,2(C1 H4 O1),H2 O1'
_chemical_name_systematic        
"2',6,8-Trihydroxy-2',6,11'-trimethyl-6',9-bis(methylene)-2,7'-dioxo-3a,4,5,6,6a,7,8,9,9a,9b-decahydrospiro[azuleno[4,5-b]furan-3,12'-[8]oxatetracyclo[9.2.2.0^1,10^.0^5,9^]pentadec[14]en]-4-yl acetate methanol solvate monohydrate"
_symmetry_cell_setting           monoclinic
_symmetry_space_group_name_H-M   'P 21'
_symmetry_Int_Tables_number      4
_space_group_name_Hall           'P 2yb'
loop_
_symmetry_equiv_pos_site_id
_symmetry_equiv_pos_as_xyz
1 x,y,z
2 -x,1/2+y,-z
_cell_length_a                   8.1136(1)
_cell_length_b                   23.6160(3)
_cell_length_c                   9.1913(1)
_cell_angle_alpha                90
_cell_angle_beta                 106.668(1)
_cell_angle_gamma                90
_cell_volume                     1687.15
_cell_formula_units_Z            2
_exptl_crystal_recrystallization_method methanol/water
loop_
_atom_site_label
_atom_site_type_symbol
_atom_site_fract_x
_atom_site_fract_y
_atom_site_fract_z
O1 O 0.96371(15) 0.12511(5) 0.24693(14)
O2 O 0.48772(16) 0.01362(6) 0.27364(17)
O3 O 1.07342(16) 0.00050(6) 0.28509(15)
H1 H 1.1442 0.0255 0.2874
O4 O 0.8980(2) 0.25013(6) 0.42851(18)
H2 H 0.9195 0.2834 0.4157
O5 O 1.09964(19) 0.10193(6) 0.78662(17)
O6 O 0.8841(2) 0.19086(7) 0.06349(19)
O7 O 0.34830(17) 0.07895(7) 0.3632(2)
O8 O 1.3692(3) 0.08569(10) 0.9275(3)
C1 C 0.7548(2) 0.06012(7) 0.28916(19)
H3 H 0.8544 0.0432 0.3631
O9 O 0.5278(4) -0.15379(10) -0.0486(3)
H4 H 0.4365 -0.1650 -0.0377
C2 C 0.6330(2) 0.01184(8) 0.2119(2)
H5 H 0.5920 0.0194 0.1025
C3 C 0.6368(2) 0.15945(8) 0.3563(2)
H6 H 0.5173 0.1711 0.3211
H7 H 0.6950 0.1717 0.2831
C4 C 0.6512(2) 0.09450(7) 0.3784(2)
C5 C 0.7154(2) -0.04667(8) 0.2364(2)
H8 H 0.7741 -0.0528 0.3443
C6 C 0.8423(3) -0.05545(8) 0.1402(2)
H9 H 0.9143 -0.0878 0.1859
C7 C 0.8670(2) 0.13879(7) 0.57661(19)
H10 H 0.9341 0.1337 0.5042
C8 C 0.8802(2) 0.04876(8) 0.0649(2)
H11 H 0.9603 0.0695 0.0241
H12 H 0.7817 0.0394 -0.0202
C9 C 1.0823(3) -0.02725(10) 0.0346(3)
H13 H 1.1354 -0.0626 0.0733
H14 H 1.1697 0.0006 0.0387
H15 H 1.0137 -0.0321 -0.0687
C10 C 0.9681(2) -0.00758(8) 0.1306(2)
C11 C 0.5842(3) -0.09317(9) 0.1763(3)
C12 C 0.7367(2) 0.08953(8) 0.5602(2)
C13 C 0.9864(2) 0.15116(8) 0.7327(2)
H16 H 0.9196 0.1595 0.8036
C14 C 0.7985(3) 0.03095(9) 0.6187(2)
H17 H 0.7092 0.0038 0.5773
H18 H 0.8265 0.0306 0.7275
H19 H 0.8988 0.0214 0.5883
C15 C 0.8180(2) 0.08941(7) 0.16839(19)
H20 H 0.7259 0.1133 0.1060
C16 C 0.7259(2) 0.18479(8) 0.5165(2)
C17 C 0.4794(2) 0.06398(9) 0.3385(2)
C18 C 0.7766(3) 0.24721(9) 0.5151(2)
C19 C 1.2730(3) 0.18088(10) 0.8474(2)
C20 C 0.6096(3) 0.11569(10) 0.6342(2)
H21 H 0.5457 0.0960 0.6870
C21 C 0.5060(5) -0.12394(13) 0.2555(4)
H22 H 0.4286 -0.1519 0.2078
H23 H 0.5280 -0.1178 0.3593
C22 C 0.9859(3) 0.17353(8) 0.1784(2)
C23 C 0.5606(3) -0.09870(10) 0.0094(3)
H24 H 0.4657 -0.0740 -0.0450
C24 C 1.1503(3) 0.20187(10) 0.2593(3)
H25 H 1.1925 0.1866 0.3600
H26 H 1.1311 0.2418 0.2653
H27 H 1.2335 0.1955 0.2049
C25 C 0.6177(3) 0.28283(10) 0.4367(3)
H28 H 0.5654 0.2682 0.3367
H29 H 0.6517 0.3214 0.4296
H30 H 0.5367 0.2812 0.4949
C26 C 0.6046(3) 0.17063(10) 0.6114(2)
H31 H 0.5387 0.1965 0.6470
C27 C 1.2598(3) 0.11865(11) 0.8617(2)
C28 C 1.0464(3) 0.25888(10) 0.7553(3)
H32 H 1.1145 0.2866 0.7201
H33 H 1.0672 0.2647 0.8635
C29 C 0.7275(4) -0.07654(12) -0.0149(3)
H34 H 0.7033 -0.0458 -0.0878
H35 H 0.7853 -0.1065 -0.0534
C30 C 0.8559(3) 0.27086(10) 0.6767(3)
H36 H 0.8403 0.3116 0.6723
H37 H 0.7898 0.2561 0.7410
C31 C 1.1114(3) 0.20023(9) 0.7315(2)
H38 H 1.1338 0.2001 0.6323
C32 C 1.4061(4) 0.21056(14) 0.9269(4)
H39 H 1.4976 0.1925 0.9958
H40 H 1.4086 0.2496 0.9140
O10 O 1.1671(4) -0.06449(13) 0.5379(3)
H41 H 1.1464 -0.0528 0.4505
C34 C 1.2965(7) -0.0330(3) 0.6306(6)
H45 H 1.4041 -0.0434 0.6139
H46 H 1.3017 -0.0400 0.7347
H47 H 1.2747 0.0065 0.6082
O11 O 0.9864(5) 0.35740(12) 0.3361(4)
C33 C 1.1586(7) 0.3644(2) 0.3691(6)
H42 H 1.1839 0.4035 0.3566
H43 H 1.2020 0.3415 0.3020
H44 H 1.2121 0.3531 0.4722
H50 H 0.946(4) 0.3902(6) 0.352(6)
O12 O 0.8066(5) 0.31230(14) 0.0513(4)
H48 H 0.866(8) 0.326(2) 0.137(4)
H49 H 0.828(9) 0.2752(7) 0.063(7)
loop_
_geom_bond_atom_site_label_1
_geom_bond_atom_site_label_2
_geom_bond_site_symmetry_1
_geom_bond_site_symmetry_2
O1 C15 1_555 1_555
O2 C2 1_555 1_555
O3 H1 1_555 1_555
O4 H2 1_555 1_555
O5 C13 1_555 1_555
O6 C22 1_555 1_555
O7 C17 1_555 1_555
O8 C27 1_555 1_555
C1 H3 1_555 1_555
O9 H4 1_555 1_555
C2 C1 1_555 1_555
H5 C2 1_555 1_555
C3 H6 1_555 1_555
H7 C3 1_555 1_555
C4 C1 1_555 1_555
C5 C2 1_555 1_555
H8 C5 1_555 1_555
C6 C5 1_555 1_555
H9 C6 1_555 1_555
C7 H10 1_555 1_555
C8 H11 1_555 1_555
H12 C8 1_555 1_555
C9 H13 1_555 1_555
H14 C9 1_555 1_555
H15 C9 1_555 1_555
C10 O3 1_555 1_555
C11 C5 1_555 1_555
C12 C4 1_555 1_555
C13 C7 1_555 1_555
H16 C13 1_555 1_555
C14 C12 1_555 1_555
H17 C14 1_555 1_555
H18 C14 1_555 1_555
H19 C14 1_555 1_555
C15 C1 1_555 1_555
H20 C15 1_555 1_555
C16 C3 1_555 1_555
C17 O2 1_555 1_555
C18 O4 1_555 1_555
C19 C27 1_555 1_555
C20 C12 1_555 1_555
H21 C20 1_555 1_555
C21 C11 1_555 1_555
H22 C21 1_555 1_555
H23 C21 1_555 1_555
C22 O1 1_555 1_555
C23 O9 1_555 1_555
H24 C23 1_555 1_555
C24 C22 1_555 1_555
H25 C24 1_555 1_555
H26 C24 1_555 1_555
H27 C24 1_555 1_555
C25 C18 1_555 1_555
H28 C25 1_555 1_555
H29 C25 1_555 1_555
H30 C25 1_555 1_555
C26 C16 1_555 1_555
H31 C26 1_555 1_555
C27 O5 1_555 1_555
C28 H32 1_555 1_555
H33 C28 1_555 1_555
C29 C6 1_555 1_555
H34 C29 1_555 1_555
H35 C29 1_555 1_555
C30 C18 1_555 1_555
H36 C30 1_555 1_555
H37 C30 1_555 1_555
C31 C13 1_555 1_555
H38 C31 1_555 1_555
C32 C19 1_555 1_555
H39 C32 1_555 1_555
H40 C32 1_555 1_555
O10 H41 1_555 1_555
O11 C33 1_555 1_555
C33 H42 1_555 1_555
H43 C33 1_555 1_555
H44 C33 1_555 1_555
C34 O10 1_555 1_555
H45 C34 1_555 1_555
H46 C34 1_555 1_555
H47 C34 1_555 1_555
O12 H48 1_555 1_555
H49 O12 1_555 1_555
H50 O11 1_555 1_555
C3 C4 1_555 1_555
C4 C17 1_555 1_555
C6 C10 1_555 1_555
C7 C12 1_555 1_555
C7 C16 1_555 1_555
C8 C10 1_555 1_555
C8 C15 1_555 1_555
C9 C10 1_555 1_555
C11 C23 1_555 1_555
C16 C18 1_555 1_555
C19 C31 1_555 1_555
C20 C26 1_555 1_555
C23 C29 1_555 1_555
C28 C30 1_555 1_555
C28 C31 1_555 1_555

#END
