
#######################################################################
#
#                 Cambridge Crystallographic Data Centre
#                                CCDC 
#
#######################################################################
#
# If this CIF has been generated from an entry in the Cambridge 
# Structural Database, then it will include bibliographic, chemical, 
# crystal, experimental, refinement or atomic coordinate data resulting 
# from the CCDC's data processing and validation procedures.
#
#######################################################################

data_YEBJEW
_chemical_formula_moiety         'C38 H41 Cl4 N2 S6'
_chemical_name_systematic        
24-(4,5-dimethyl-1,3-dithiolan-2-ylidene)-11-((ethylsulfanyl)carbonothioyl)-2,2,7,7,15,15,20,20-octamethyl-12\l^3^-chlora-10,27,29-trichloronia-23,25-dithia-28,30-diazaheptacyclo-(19.5.1.1^3,6^.1^8,14^.1^16,19^.0^9,13^.0^22,26^)-triaconta-1(26),4,6(30),8,11,13,16,18,21-nonaene
_symmetry_cell_setting           triclinic
_symmetry_space_group_name_H-M   'P -1'
_symmetry_Int_Tables_number      2
_space_group_name_Hall           '-P 1'
loop_
_symmetry_equiv_pos_site_id
_symmetry_equiv_pos_as_xyz
1 x,y,z
2 -x,-y,-z
_cell_length_a                   15.166(3)
_cell_length_b                   21.095(4)
_cell_length_c                   22.813(5)
_cell_angle_alpha                62.73(3)
_cell_angle_beta                 77.03(3)
_cell_angle_gamma                71.79(3)
_cell_volume                     6133.81
_cell_formula_units_Z            8
loop_
_atom_site_label
_atom_site_type_symbol
_atom_site_fract_x
_atom_site_fract_y
_atom_site_fract_z
Cl2 Cl 0.9784(17) 0.8036(15) 0.3534(13)
Cl4 Cl 1.2295(19) 0.6379(17) 0.3907(15)
Cl6 Cl 0.9514(17) 0.9727(15) 0.1409(13)
Cl7 Cl 1.2406(19) 0.7564(17) 0.4264(15)
S1 S 1.220(2) 1.0144(19) 0.0966(17)
S4 S 1.229(2) 0.8926(18) 0.0650(16)
S5 S 1.461(2) 0.691(2) 0.4296(19)
S7 S 1.449(2) 0.840(2) 0.069(2)
S10 S 1.447(2) 0.5667(19) 0.4083(17)
S12 S 1.445(2) 0.968(2) 0.0938(19)
N1 N 1.016(5) 0.763(5) 0.220(4)
N2 N 1.019(5) 0.975(5) 0.284(4)
C6 C 1.115(6) 0.931(6) 0.097(5)
C7 C 0.969(7) 1.033(6) 0.238(6)
C11 C 0.879(6) 0.741(5) 0.255(5)
C12 C 0.970(7) 0.954(6) 0.343(5)
C13 C 1.122(7) 0.994(6) 0.118(6)
C14 C 1.031(7) 1.018(6) 0.140(5)
C15 C 0.957(6) 0.806(6) 0.167(5)
C19 C 1.130(7) 0.775(6) 0.388(5)
C20 C 1.025(6) 0.917(5) 0.107(5)
C21 C 1.095(7) 0.816(6) 0.062(5)
C24 C 0.996(6) 0.870(5) 0.092(5)
C26 C 0.881(6) 0.995(6) 0.347(5)
C28 C 1.122(7) 0.917(6) 0.400(6)
C32 C 0.946(6) 0.875(5) 0.457(5)
C33 C 1.028(6) 0.889(5) 0.397(4)
C36 C 1.620(10) 0.618(9) 0.452(8)
C38 C 1.140(7) 0.707(6) 0.379(5)
C39 C 1.049(6) 0.815(6) 0.386(5)
C40 C 0.968(6) 0.726(6) 0.272(5)
C42 C 1.051(6) 0.724(5) 0.360(4)
C44 C 0.914(6) 1.144(6) 0.119(5)
C45 C 1.087(10) 1.106(8) 0.152(7)
C46 C 1.290(8) 0.926(7) 0.088(6)
C48 C 0.881(8) 1.058(7) 0.272(6)
C51 C 0.873(7) 0.792(6) 0.189(5)
C52 C 1.014(7) 0.665(6) 0.343(5)
C54 C 1.109(5) 0.616(5) 0.317(4)
C55 C 1.396(6) 0.659(5) 0.401(5)
C58 C 0.922(8) 0.910(7) 0.046(7)
C59 C 1.298(6) 0.682(6) 0.408(5)
C61 C 0.944(6) 0.641(5) 0.387(5)
C66 C 0.997(6) 1.066(6) 0.172(5)
C67 C 1.551(4) 0.579(4) 0.414(3)
C70 C 1.559(8) 0.885(7) 0.101(6)
C73 C 1.379(8) 0.907(7) 0.090(6)
Cl1 Cl 0.9777(17) 0.3041(15) 0.3532(13)
Cl3 Cl 1.2299(19) 0.1367(17) 0.3928(15)
Cl5 Cl 0.9516(17) 0.4728(15) 0.1401(13)
Cl8 Cl 1.235(2) 0.2533(19) 0.4348(17)
S2 S 1.223(2) 0.5139(17) 0.0962(15)
S3 S 1.228(2) 0.3895(19) 0.0676(16)
S6 S 1.456(2) 0.194(2) 0.4337(19)
S8 S 1.450(2) 0.3385(19) 0.0688(17)
S9 S 1.448(2) 0.0676(19) 0.4127(17)
S11 S 1.447(2) 0.4653(19) 0.0918(17)
C1 C 1.654(4) 0.424(4) 0.104(3)
C2 C 1.654(4) 0.267(4) 0.096(3)
C3 C 1.672(4) 0.146(4) 0.425(3)
N3 N 1.016(5) 0.267(5) 0.219(4)
C4 C 0.958(6) 0.538(6) 0.237(5)
N4 N 1.018(5) 0.479(5) 0.278(4)
C5 C 1.121(6) 0.428(6) 0.097(5)
C8 C 1.140(6) 0.271(5) 0.391(5)
C9 C 1.118(6) 0.489(6) 0.114(5)
C10 C 0.956(6) 0.310(6) 0.162(5)
C16 C 0.875(6) 0.248(5) 0.250(5)
C17 C 1.045(6) 0.423(5) 0.105(4)
C18 C 0.978(6) 0.456(5) 0.339(5)
C22 C 1.000(7) 0.364(6) 0.099(5)
C23 C 1.039(6) 0.521(6) 0.135(5)
C25 C 0.902(6) 0.641(5) 0.125(5)
C27 C 0.968(8) 0.227(7) 0.267(6)
C29 C 1.053(7) 0.314(6) 0.382(5)
C30 C 1.085(7) 0.606(6) 0.158(5)
C31 C 0.957(6) 0.374(6) 0.462(5)
C34 C 0.879(8) 0.489(7) 0.346(6)
C35 C 0.927(10) 0.418(8) 0.049(7)
C37 C 1.011(6) 0.379(6) 0.410(5)
C41 C 1.098(6) 0.411(5) 0.417(5)
C43 C 1.091(6) 0.107(6) 0.332(5)
C47 C 1.567(9) 0.404(7) 0.108(7)
C49 C 1.375(6) 0.411(6) 0.084(5)
C50 C 1.083(6) 0.319(5) 0.062(5)
C53 C 0.874(7) 0.295(6) 0.189(6)
C56 C 1.046(6) 0.231(5) 0.355(4)
C57 C 1.136(7) 0.203(6) 0.383(5)
C60 C 1.296(7) 0.175(6) 0.416(6)
C62 C 1.000(8) 0.161(7) 0.341(6)
C63 C 1.288(8) 0.434(7) 0.085(6)
C64 C 0.871(8) 0.558(7) 0.274(6)
C65 C 1.568(6) 0.129(5) 0.422(4)
C68 C 1.391(5) 0.148(5) 0.428(4)
C69 C 1.002(6) 0.579(5) 0.163(4)
C71 C 0.952(10) 0.124(8) 0.402(8)
C72 C 1.554(4) 0.346(4) 0.089(3)
loop_
_geom_bond_atom_site_label_1
_geom_bond_atom_site_label_2
_geom_bond_site_symmetry_1
_geom_bond_site_symmetry_2
Cl1 C29 1_555 1_555
Cl2 C39 1_555 1_555
Cl3 C57 1_555 1_555
Cl4 C38 1_555 1_555
Cl5 C17 1_555 1_555
Cl6 C14 1_555 1_555
Cl7 C19 1_555 1_555
Cl8 C8 1_555 1_555
S1 C13 1_555 1_555
S2 C9 1_555 1_555
S3 C5 1_555 1_555
S4 C6 1_555 1_555
S5 C36 1_555 1_555
S6 C65 1_555 1_555
S7 C73 1_555 1_555
S8 C49 1_555 1_555
S9 C68 1_555 1_555
S10 C55 1_555 1_555
S11 C47 1_555 1_555
C1 C47 1_555 1_555
S12 C70 1_555 1_555
C2 C72 1_555 1_555
C3 C65 1_555 1_555
N1 C15 1_555 1_555
N2 C7 1_555 1_555
N3 C10 1_555 1_555
C4 N4 1_555 1_555
N4 C18 1_555 1_555
C5 C9 1_555 1_555
C6 C13 1_555 1_555
C7 C48 1_555 1_555
C8 C29 1_555 1_555
C9 C23 1_555 1_555
C10 C22 1_555 1_555
C11 C40 1_555 1_555
C12 N2 1_555 1_555
C13 C14 1_555 1_555
C14 C66 1_555 1_555
C15 C24 1_555 1_555
C16 C27 1_555 1_555
C17 C5 1_555 1_555
C18 C34 1_555 1_555
C19 C38 1_555 1_555
C20 Cl6 1_555 1_555
C21 C24 1_555 1_555
C22 C17 1_555 1_555
C23 Cl5 1_555 1_555
C24 C20 1_555 1_555
C25 C69 1_555 1_555
C26 C12 1_555 1_555
C27 N3 1_555 1_555
C28 C33 1_555 1_555
C29 C37 1_555 1_555
C30 C69 1_555 1_555
C31 C37 1_555 1_555
C32 C33 1_555 1_555
C33 C12 1_555 1_555
C34 C64 1_555 1_555
C35 C22 1_555 1_555
C36 C67 1_555 1_555
C37 C18 1_555 1_555
C38 C42 1_555 1_555
C39 C19 1_555 1_555
C40 N1 1_555 1_555
C41 C37 1_555 1_555
C42 Cl2 1_555 1_555
C43 C62 1_555 1_555
C44 C66 1_555 1_555
C45 C66 1_555 1_555
C46 S1 1_555 1_555
C47 C72 1_555 1_555
C48 C26 1_555 1_555
C49 S11 1_555 1_555
C50 C22 1_555 1_555
C51 C11 1_555 1_555
C52 C40 1_555 1_555
C53 C10 1_555 1_555
C54 C52 1_555 1_555
C55 S5 1_555 1_555
C56 Cl1 1_555 1_555
C57 C8 1_555 1_555
C58 C24 1_555 1_555
C59 Cl4 1_555 1_555
C60 Cl3 1_555 1_555
C61 C52 1_555 1_555
C62 C27 1_555 1_555
C63 S2 1_555 1_555
C64 C4 1_555 1_555
C66 C7 1_555 1_555
C67 S10 1_555 1_555
C68 S6 1_555 1_555
C69 C4 1_555 1_555
C71 C62 1_555 1_555
C72 S8 1_555 1_555
C73 S12 1_555 1_555
Cl7 C59 1_555 1_555
Cl8 C60 1_555 1_555
S3 C63 1_555 1_555
S4 C46 1_555 1_555
C6 C20 1_555 1_555
C15 C51 1_555 1_555
C16 C53 1_555 1_555
C23 C69 1_555 1_555
C33 C39 1_555 1_555
C42 C52 1_555 1_555
C46 C73 1_555 1_555
C49 C63 1_555 1_555
C55 C59 1_555 1_555
C56 C57 1_555 1_555
C56 C62 1_555 1_555
C60 C68 1_555 1_555

#END
