
#######################################################################
#
#                 Cambridge Crystallographic Data Centre
#                                CCDC 
#
#######################################################################
#
# If this CIF has been generated from an entry in the Cambridge 
# Structural Database, then it will include bibliographic, chemical, 
# crystal, experimental, refinement or atomic coordinate data resulting 
# from the CCDC's data processing and validation procedures.
#
#######################################################################

data_YEBQON
_chemical_formula_moiety         'C20 H19 N3 O5'
_chemical_name_systematic        
3-(3-Furyl)-3a-methyl-7-(2-nitrobenzenecarbohydrazonoyl)-3a,4,5,6-tetrahydro-2-benzofuran-1(3H)-one
_symmetry_cell_setting           monoclinic
_symmetry_space_group_name_H-M   'P 21'
_symmetry_Int_Tables_number      4
_space_group_name_Hall           'P 2yb'
loop_
_symmetry_equiv_pos_site_id
_symmetry_equiv_pos_as_xyz
1 x,y,z
2 -x,1/2+y,-z
_cell_length_a                   11.085(3)
_cell_length_b                   7.784(2)
_cell_length_c                   11.110(3)
_cell_angle_alpha                90
_cell_angle_beta                 109.832(2)
_cell_angle_gamma                90
_cell_volume                     901.778
_exptl_crystal_colour            colorless
_exptl_crystal_description       block
_cell_formula_units_Z            2
loop_
_atom_site_label
_atom_site_type_symbol
_atom_site_fract_x
_atom_site_fract_y
_atom_site_fract_z
C1 C -0.3651(2) -0.1145(4) 0.1341(2)
H1 H -0.3828 0.0005 0.1126
C2 C -0.3850(3) -0.3928(4) 0.1418(3)
H2 H -0.4185 -0.5034 0.1261
C3 C -0.2706(3) -0.3523(4) 0.2249(3)
H3 H -0.2114 -0.4293 0.2767
C4 C -0.25440(19) -0.1763(3) 0.2215(2)
C5 C -0.14185(18) -0.0716(3) 0.30112(19)
H4 H -0.1684 -0.0014 0.3610
C6 C -0.07593(18) 0.0457(3) 0.22987(19)
C7 C -0.1327(2) 0.2257(3) 0.2026(2)
H5 H -0.1558 0.2657 0.2745
H6 H -0.2096 0.2235 0.1275
C8 C -0.0344(2) 0.3479(3) 0.1800(2)
H7 H -0.0118 0.3071 0.1079
H8 H -0.0723 0.4610 0.1587
C9 C 0.0862(2) 0.3612(3) 0.2967(2)
H9 H 0.1538 0.4120 0.2714
H10 H 0.0697 0.4376 0.3584
C10 C 0.13207(19) 0.1907(3) 0.3604(2)
C11 C 0.05615(19) 0.0517(3) 0.3303(2)
C12 C 0.0750(2) -0.1125(3) 0.3996(2)
C13 C 0.2578(2) 0.1856(3) 0.4586(2)
H11 H 0.2942 0.0809 0.4924
C14 C 0.50038(19) 0.4483(3) 0.6533(2)
C15 C 0.4445(2) 0.6108(3) 0.6265(2)
H12 H 0.3664 0.6240 0.5607
C16 C 0.5036(3) 0.7508(4) 0.6960(3)
H13 H 0.4646 0.8578 0.6764
C17 C 0.6193(3) 0.7379(4) 0.7944(3)
H14 H 0.6575 0.8345 0.8410
C18 C 0.6770(2) 0.5808(3) 0.8223(2)
H15 H 0.7548 0.5702 0.8887
C19 C 0.6198(2) 0.4365(3) 0.7517(2)
C20 C -0.0699(2) -0.0433(4) 0.1088(2)
H16 H -0.0164 0.0223 0.0736
H17 H -0.1547 -0.0515 0.0470
H18 H -0.0347 -0.1565 0.1301
N1 N 0.31842(16) 0.3258(3) 0.49864(16)
N2 N 0.43773(16) 0.3075(3) 0.58783(17)
H19 H 0.4733 0.2079 0.6028
N3 N 0.68637(18) 0.2761(3) 0.7869(2)
O1 O -0.44534(18) -0.2490(3) 0.0834(2)
O2 O -0.04141(14) -0.1896(2) 0.37418(15)
O3 O 0.17014(17) -0.1814(3) 0.47074(19)
O4 O 0.63934(18) 0.1431(3) 0.7304(2)
O5 O 0.78937(19) 0.2740(3) 0.8730(2)
loop_
_geom_bond_atom_site_label_1
_geom_bond_atom_site_label_2
_geom_bond_site_symmetry_1
_geom_bond_site_symmetry_2
C1 H1 1_555 1_555
C2 H2 1_555 1_555
C3 C2 1_555 1_555
H3 C3 1_555 1_555
C4 C1 1_555 1_555
C5 C4 1_555 1_555
H4 C5 1_555 1_555
C6 C5 1_555 1_555
C7 C6 1_555 1_555
H5 C7 1_555 1_555
H6 C7 1_555 1_555
C8 C7 1_555 1_555
H7 C8 1_555 1_555
H8 C8 1_555 1_555
C9 C8 1_555 1_555
H9 C9 1_555 1_555
H10 C9 1_555 1_555
C10 C9 1_555 1_555
C11 C6 1_555 1_555
C12 C11 1_555 1_555
C13 C10 1_555 1_555
H11 C13 1_555 1_555
C14 C15 1_555 1_555
C15 H12 1_555 1_555
C16 C15 1_555 1_555
H13 C16 1_555 1_555
C17 C16 1_555 1_555
H14 C17 1_555 1_555
C18 C17 1_555 1_555
H15 C18 1_555 1_555
C19 C14 1_555 1_555
C20 C6 1_555 1_555
H16 C20 1_555 1_555
H17 C20 1_555 1_555
H18 C20 1_555 1_555
N1 C13 1_555 1_555
N2 C14 1_555 1_555
H19 N2 1_555 1_555
N3 C19 1_555 1_555
O1 C1 1_555 1_555
O2 C5 1_555 1_555
O3 C12 1_555 1_555
O4 N3 1_555 1_555
O5 N3 1_555 1_555
C2 O1 1_555 1_555
C3 C4 1_555 1_555
C10 C11 1_555 1_555
C12 O2 1_555 1_555
C18 C19 1_555 1_555
N1 N2 1_555 1_555

#END
