
#######################################################################
#
#                 Cambridge Crystallographic Data Centre
#                                CCDC 
#
#######################################################################
#
# If this CIF has been generated from an entry in the Cambridge 
# Structural Database, then it will include bibliographic, chemical, 
# crystal, experimental, refinement or atomic coordinate data resulting 
# from the CCDC's data processing and validation procedures.
#
#######################################################################

data_YEBRII
_chemical_formula_moiety         'C20 H26 O7'
_chemical_name_systematic        
'11-Hydroxy-6-(hydroxymethyl)-1,10-dimethyl-5-oxo-4,14-dioxatricyclo[9.2.1.0^3,7^]tetradeca-2,6-dien-8-yl 2-methylbut-2-enoate'
_symmetry_cell_setting           orthorhombic
_symmetry_space_group_name_H-M   'P 21 21 21'
_symmetry_Int_Tables_number      19
_space_group_name_Hall           'P 2ac 2ab'
loop_
_symmetry_equiv_pos_site_id
_symmetry_equiv_pos_as_xyz
1 x,y,z
2 1/2+x,1/2-y,-z
3 -x,1/2+y,1/2-z
4 1/2-x,-y,1/2+z
_cell_length_a                   6.8259(1)
_cell_length_b                   15.1697(3)
_cell_length_c                   18.7843(4)
_cell_angle_alpha                90
_cell_angle_beta                 90
_cell_angle_gamma                90
_cell_volume                     1945.06
_exptl_crystal_colour            colorless
_exptl_crystal_description       sphere
_cell_formula_units_Z            4
loop_
_atom_site_label
_atom_site_type_symbol
_atom_site_fract_x
_atom_site_fract_y
_atom_site_fract_z
O1 O 0.65296(18) -0.14731(8) 0.18369(6)
O2 O 0.84447(15) -0.03817(6) 0.13819(5)
O3 O 1.26068(15) -0.01063(7) -0.03534(5)
O4 O 1.30380(19) -0.02268(8) -0.15329(6)
O5 O 0.7991(2) 0.06153(8) -0.18420(6)
O6 O 0.66160(15) 0.04374(6) 0.03721(5)
O7 O 0.64882(19) 0.13496(8) -0.05781(6)
C1 C 0.8220(2) -0.13180(9) 0.14342(7)
C2 C 1.0132(3) -0.16647(10) 0.17770(9)
C3 C 1.1240(3) -0.08371(10) 0.20029(8)
C4 C 1.0431(2) -0.01259(9) 0.14954(7)
C5 C 1.1571(2) -0.00984(9) 0.08123(7)
C6 C 1.10197(19) -0.01546(9) 0.01261(7)
C7 C 0.92337(18) -0.02484(8) -0.03038(7)
C8 C 0.70989(19) -0.02931(9) -0.00899(7)
C9 C 0.6435(2) -0.11709(9) 0.02405(7)
C10 C 0.7872(2) -0.17068(8) 0.06909(7)
C11 C 0.7165(3) -0.26616(10) 0.07465(8)
C12 C 1.0441(3) 0.07951(10) 0.18273(8)
C13 C 1.1931(3) -0.01987(9) -0.10336(7)
C14 C 0.9787(2) -0.02625(9) -0.09989(7)
C15 C 0.8545(3) -0.02648(10) -0.16564(7)
C16 C 0.6398(2) 0.12292(9) 0.00625(8)
C17 C 0.6081(3) 0.19473(10) 0.05886(9)
C18 C 0.6091(3) 0.28671(11) 0.02838(12)
C19 C 0.5888(3) 0.17452(11) 0.12788(9)
C20 C 0.5647(4) 0.23865(14) 0.18785(12)
H1 H 0.978(4) -0.2052(17) 0.2179(13)
H2 H 1.090(4) -0.2014(16) 0.1434(13)
H3 H 1.090(4) -0.0649(13) 0.2499(11)
H4 H 1.259(4) -0.0893(15) 0.1969(12)
H5 H 1.294(4) 0.0016(14) 0.0877(11)
H6 H 0.634(3) -0.0225(12) -0.0520(10)
H7 H 0.525(4) -0.1053(15) 0.0509(12)
H8 H 0.604(4) -0.1554(15) -0.0209(11)
H9 H 0.913(4) -0.1704(14) 0.0466(11)
H10 H 0.799(4) -0.2986(14) 0.1069(11)
H11 H 0.582(4) -0.2680(14) 0.0927(12)
H12 H 0.714(4) -0.2930(16) 0.0277(14)
H13 H 0.669(4) -0.1242(17) 0.2215(14)
H14 H 0.968(4) 0.0772(15) 0.2274(12)
H15 H 1.173(4) 0.0972(15) 0.1925(12)
H16 H 0.985(4) 0.1230(16) 0.1490(12)
H17 H 0.737(4) -0.0612(15) -0.1600(12)
H18 H 0.932(4) -0.0513(15) -0.2049(12)
H19 H 0.740(5) 0.0855(18) -0.1501(15)
H20 H 0.678(7) 0.233(3) 0.223(3)
H21 H 0.445(6) 0.221(3) 0.2177(19)
H22 H 0.559(5) 0.296(3) 0.1715(16)
H23 H 0.599(4) 0.1133(16) 0.1406(13)
H24 H 0.521(6) 0.329(3) 0.0615(16)
H25 H 0.543(6) 0.288(2) -0.0194(18)
H26 H 0.734(6) 0.312(3) 0.026(2)
loop_
_geom_bond_atom_site_label_1
_geom_bond_atom_site_label_2
_geom_bond_site_symmetry_1
_geom_bond_site_symmetry_2
O1 C1 1_555 1_555
O2 C1 1_555 1_555
O3 C6 1_555 1_555
O4 C13 1_555 1_555
O5 C15 1_555 1_555
O6 C8 1_555 1_555
O7 C16 1_555 1_555
C1 C2 1_555 1_555
C2 C3 1_555 1_555
C3 C4 1_555 1_555
C4 O2 1_555 1_555
C5 C4 1_555 1_555
C6 C5 1_555 1_555
C7 C6 1_555 1_555
C8 C7 1_555 1_555
C9 C8 1_555 1_555
C10 C1 1_555 1_555
C11 C10 1_555 1_555
C12 C4 1_555 1_555
C13 O3 1_555 1_555
C14 C7 1_555 1_555
C15 C14 1_555 1_555
C16 O6 1_555 1_555
C17 C16 1_555 1_555
C18 C17 1_555 1_555
C19 C17 1_555 1_555
C20 C19 1_555 1_555
H1 C2 1_555 1_555
H2 C2 1_555 1_555
H3 C3 1_555 1_555
H4 C3 1_555 1_555
H5 C5 1_555 1_555
H6 C8 1_555 1_555
H7 C9 1_555 1_555
H8 C9 1_555 1_555
H9 C10 1_555 1_555
H10 C11 1_555 1_555
H11 C11 1_555 1_555
H12 C11 1_555 1_555
H13 O1 1_555 1_555
H14 C12 1_555 1_555
H15 C12 1_555 1_555
H16 C12 1_555 1_555
H17 C15 1_555 1_555
H18 C15 1_555 1_555
H19 O5 1_555 1_555
H20 C20 1_555 1_555
H21 C20 1_555 1_555
H22 C20 1_555 1_555
H23 C19 1_555 1_555
H24 C18 1_555 1_555
H25 C18 1_555 1_555
H26 C18 1_555 1_555
C9 C10 1_555 1_555
C13 C14 1_555 1_555

#END
