
#######################################################################
#
#                 Cambridge Crystallographic Data Centre
#                                CCDC 
#
#######################################################################
#
# If this CIF has been generated from an entry in the Cambridge 
# Structural Database, then it will include bibliographic, chemical, 
# crystal, experimental, refinement or atomic coordinate data resulting 
# from the CCDC's data processing and validation procedures.
#
#######################################################################

data_YEBTIK
_chemical_formula_moiety         'C17 H23 F1 N5 O6 P1'
_chemical_name_systematic        
9-(2-(Cyclopentoxy)-7-fluoro-7-methyl-2-oxidotetrahydro-4H-furo[3,2-d][1,3,2]dioxaphosphinin-6-yl)-6-methoxy-9H-purin-2-amine
_symmetry_cell_setting           orthorhombic
_symmetry_space_group_name_H-M   'P 21 21 21'
_symmetry_Int_Tables_number      19
_space_group_name_Hall           'P 2ac 2ab'
loop_
_symmetry_equiv_pos_site_id
_symmetry_equiv_pos_as_xyz
1 x,y,z
2 1/2+x,1/2-y,-z
3 -x,1/2+y,1/2-z
4 1/2-x,-y,1/2+z
_cell_length_a                   11.7725(3)
_cell_length_b                   12.1571(4)
_cell_length_c                   13.9754(4)
_cell_angle_alpha                90
_cell_angle_beta                 90
_cell_angle_gamma                90
_cell_volume                     2000.15
_cell_formula_units_Z            4
loop_
_atom_site_label
_atom_site_type_symbol
_atom_site_fract_x
_atom_site_fract_y
_atom_site_fract_z
C1 C 0.67354(14) 0.07201(12) 0.10925(12)
H1 H 0.7018 0.0106 0.0775
C2 C 0.56373(13) 0.19843(11) 0.15927(10)
C3 C 0.47790(13) 0.27400(12) 0.18243(11)
C4 C 0.60255(13) 0.36207(12) 0.28370(10)
C5 C 0.66668(13) 0.21613(12) 0.20509(11)
C6 C 0.28998(14) 0.34324(16) 0.16573(14)
H2 H 0.2773 0.3407 0.2336
H3 H 0.2206 0.3258 0.1329
H4 H 0.3145 0.4157 0.1478
C7 C 0.85417(13) 0.10995(12) 0.19696(12)
H5 H 0.8797 0.0481 0.1574
C8 C 0.94151(13) 0.20549(12) 0.18509(11)
C9 C 0.95487(12) 0.23872(11) 0.28863(10)
H6 H 0.8884 0.2815 0.3085
C10 C 0.95314(13) 0.12779(11) 0.33867(11)
H7 H 1.0227 0.0868 0.3239
C11 C 0.91508(16) 0.29436(15) 0.11361(11)
H8 H 0.9777 0.3448 0.1102
H9 H 0.8479 0.3331 0.1332
H10 H 0.9027 0.2619 0.0519
C12 C 0.94184(13) 0.14272(12) 0.44525(11)
H11 H 0.8716 0.1804 0.4607
H12 H 0.9425 0.0721 0.4775
C13 C 0.96722(14) 0.47249(11) 0.52925(10)
H13 H 1.0293 0.5262 0.5278
C14 C 0.96930(16) 0.40451(13) 0.62104(12)
H14 H 1.0191 0.3414 0.6142
H15 H 0.9952 0.4486 0.6746
C15 C 0.84658(18) 0.36785(15) 0.63582(13)
H16 H 0.8375 0.2913 0.6177
H17 H 0.8250 0.3759 0.7024
C16 C 0.77396(18) 0.44078(19) 0.57313(19)
H18 H 0.7146 0.4753 0.6107
H19 H 0.7387 0.3978 0.5227
C17 C 0.85257(14) 0.52852(12) 0.53003(12)
H20 H 0.8289 0.5481 0.4658
H21 H 0.8539 0.5943 0.5693
N1 N 0.73834(11) 0.13467(10) 0.17105(9)
N2 N 0.56949(12) 0.10644(10) 0.09933(9)
N3 N 0.49672(11) 0.35385(10) 0.24445(9)
N4 N 0.69172(11) 0.29613(10) 0.26721(9)
N5 N 0.61920(12) 0.44755(11) 0.34308(10)
H22 H 0.6848 0.4579 0.3686
H23 H 0.5642 0.4919 0.3556
O1 O 0.37679(9) 0.26384(9) 0.13990(9)
O2 O 0.85775(10) 0.07584(9) 0.29509(9)
O3 O 1.05629(9) 0.29906(8) 0.31149(7)
O4 O 1.03989(9) 0.20880(8) 0.47384(7)
O5 O 0.96804(9) 0.40155(8) 0.44320(7)
O6 O 1.18187(10) 0.36149(9) 0.44905(9)
F1 F 1.04314(8) 0.15388(8) 0.15634(7)
P1 P 1.06939(3) 0.32123(3) 0.42304(3)
loop_
_geom_bond_atom_site_label_1
_geom_bond_atom_site_label_2
_geom_bond_site_symmetry_1
_geom_bond_site_symmetry_2
C1 H1 1_555 1_555
C2 C3 1_555 1_555
C3 N3 1_555 1_555
C4 N3 1_555 1_555
C5 C2 1_555 1_555
C6 H2 1_555 1_555
H3 C6 1_555 1_555
H4 C6 1_555 1_555
C7 H5 1_555 1_555
C8 C7 1_555 1_555
C9 C8 1_555 1_555
H6 C9 1_555 1_555
C10 C9 1_555 1_555
H7 C10 1_555 1_555
C11 C8 1_555 1_555
H8 C11 1_555 1_555
H9 C11 1_555 1_555
H10 C11 1_555 1_555
C12 C10 1_555 1_555
H11 C12 1_555 1_555
H12 C12 1_555 1_555
C13 H13 1_555 1_555
C14 C13 1_555 1_555
H14 C14 1_555 1_555
H15 C14 1_555 1_555
C15 C14 1_555 1_555
H16 C15 1_555 1_555
H17 C15 1_555 1_555
C16 C15 1_555 1_555
H18 C16 1_555 1_555
H19 C16 1_555 1_555
C17 C13 1_555 1_555
H20 C17 1_555 1_555
H21 C17 1_555 1_555
N1 C1 1_555 1_555
N2 C1 1_555 1_555
N4 C4 1_555 1_555
N5 C4 1_555 1_555
H22 N5 1_555 1_555
H23 N5 1_555 1_555
O1 C3 1_555 1_555
O2 C7 1_555 1_555
O3 C9 1_555 1_555
O4 C12 1_555 1_555
O5 C13 1_555 1_555
O6 P1 1_555 1_555
F1 C8 1_555 1_555
P1 O3 1_555 1_555
C2 N2 1_555 1_555
C5 N1 1_555 1_555
C5 N4 1_555 1_555
C6 O1 1_555 1_555
C7 N1 1_555 1_555
C10 O2 1_555 1_555
C16 C17 1_555 1_555
O4 P1 1_555 1_555
O5 P1 1_555 1_555

#END
