
#######################################################################
#
#                 Cambridge Crystallographic Data Centre
#                                CCDC 
#
#######################################################################
#
# If this CIF has been generated from an entry in the Cambridge 
# Structural Database, then it will include bibliographic, chemical, 
# crystal, experimental, refinement or atomic coordinate data resulting 
# from the CCDC's data processing and validation procedures.
#
#######################################################################

data_YEBXAG
_chemical_compound_source        'Isodon eriocalyx var. laxiflora'
_chemical_formula_moiety         'C18 H20 O6'
_chemical_name_systematic        'Neolaxiflorin D'
_symmetry_cell_setting           orthorhombic
_symmetry_space_group_name_H-M   'P 21 21 21'
_symmetry_Int_Tables_number      19
_space_group_name_Hall           'P 2ac 2ab'
loop_
_symmetry_equiv_pos_site_id
_symmetry_equiv_pos_as_xyz
1 x,y,z
2 1/2+x,1/2-y,-z
3 -x,1/2+y,1/2-z
4 1/2-x,-y,1/2+z
_cell_length_a                   7.7570(2)
_cell_length_b                   9.5976(2)
_cell_length_c                   41.8418(8)
_cell_angle_alpha                90
_cell_angle_beta                 90
_cell_angle_gamma                90
_cell_volume                     3115.06
_exptl_crystal_colour            colorless
_cell_formula_units_Z            8
loop_
_atom_site_label
_atom_site_type_symbol
_atom_site_fract_x
_atom_site_fract_y
_atom_site_fract_z
O1 O -0.0504(4) 0.3109(3) 0.10454(8)
O2 O 0.1632(3) 0.6900(2) 0.01498(5)
O3 O 0.1791(3) 0.8517(2) 0.09304(5)
O4 O -0.3977(2) 0.8974(2) 0.06442(6)
O5 O 0.3648(3) 0.6909(2) 0.07320(7)
H1 H 0.4405 0.7472 0.0687
O6 O 0.0569(3) 0.4761(2) 0.02184(6)
C1 C 0.0733(5) 1.0742(4) -0.01012(8)
H3 H -0.0296 1.0419 -0.0205
H4 H 0.1698 1.0197 -0.0172
H5 H 0.0923 1.1703 -0.0154
C2 C 0.0532(3) 1.0596(3) 0.02635(6)
C3 C 0.0201(3) 0.9018(2) 0.03355(6)
H6 H -0.0472 0.8662 0.0155
C4 C -0.0881(3) 0.8704(3) 0.06404(5)
C5 C -0.1142(3) 0.7118(3) 0.06822(5)
H7 H -0.1821 0.6784 0.0500
C6 C -0.2083(4) 0.6672(3) 0.09900(6)
H8 H -0.1421 0.6963 0.1175
H9 H -0.3202 0.7122 0.1000
C7 C -0.2314(4) 0.5098(4) 0.09955(8)
H10 H -0.2939 0.4834 0.1187
H11 H -0.2994 0.4814 0.0812
C8 C -0.0616(4) 0.4353(3) 0.09891(7)
C9 C 0.0665(3) 0.6379(3) 0.06691(6)
C10 C 0.0928(4) 0.5868(3) 0.03296(7)
C11 C 0.1836(3) 0.8140(3) 0.03479(6)
H12 H 0.2851 0.8682 0.0285
C12 C 0.2052(3) 0.7513(3) 0.06867(7)
C13 C 0.0141(4) 0.9210(3) 0.09279(6)
H13 H 0.0305 1.0211 0.0915
H14 H -0.0482 0.9003 0.1123
C14 C -0.1016(4) 1.1437(3) 0.03610(8)
H15 H -0.0997 1.2380 0.0311
C15 C -0.2396(4) 1.0974(3) 0.05100(8)
H16 H -0.3287 1.1589 0.0557
C16 C -0.2557(3) 0.9492(3) 0.06047(6)
C17 C 0.2158(4) 1.1226(3) 0.04184(9)
H17 H 0.2229 1.2199 0.0366
H18 H 0.3162 1.0755 0.0339
H19 H 0.2095 1.1118 0.0646
C18 C 0.0942(4) 0.5216(3) 0.09137(7)
H20 H 0.1840 0.4603 0.0835
H21 H 0.1357 0.5631 0.1111
O7 O 0.1482(3) 0.3427(2) 0.23200(5)
O8 O 0.4053(2) 0.8682(2) 0.23372(4)
O9 O 0.6114(2) 0.7035(2) 0.22842(5)
H2 H 0.6860 0.7608 0.2329
O10 O 0.5537(2) 0.70882(19) 0.16076(5)
O11 O 0.4550(4) 0.4901(2) 0.16088(6)
O12 O -0.0778(3) 0.9478(3) 0.17944(10)
C19 C 0.1612(3) 0.4558(3) 0.21894(6)
C20 C 0.0249(3) 0.5130(3) 0.19704(7)
H22 H -0.0867 0.4761 0.2032
H23 H 0.0482 0.4832 0.1753
C21 C 0.0199(3) 0.6726(3) 0.19836(7)
H24 H 0.0048 0.7029 0.2203
H25 H -0.0769 0.7066 0.1860
C22 C 0.1887(3) 0.7329(2) 0.18491(5)
H26 H 0.1905 0.7099 0.1621
C23 C 0.2187(3) 0.8925(2) 0.18733(5)
C24 C 0.0702(3) 0.9818(3) 0.17559(7)
C25 C 0.1094(4) 1.1175(3) 0.16182(7)
H27 H 0.0188 1.1760 0.1562
C26 C 0.2727(4) 1.1614(3) 0.15693(7)
H28 H 0.2866 1.2514 0.1491
C27 C 0.3107(3) 0.5498(3) 0.22578(6)
H29 H 0.4123 0.4925 0.2289
H30 H 0.2885 0.5978 0.2458
C28 C 0.3513(3) 0.6586(2) 0.20034(5)
C29 C 0.2466(3) 0.9282(3) 0.22273(6)
H31 H 0.2502 1.0285 0.2254
H32 H 0.1514 0.8923 0.2353
C30 C 0.4758(3) 0.7701(3) 0.21279(6)
C31 C 0.5308(3) 0.8343(3) 0.18064(6)
H33 H 0.6383 0.8872 0.1826
C32 C 0.4555(3) 0.6043(3) 0.17246(6)
C33 C 0.3847(3) 0.9242(2) 0.16735(5)
H34 H 0.3615 0.8882 0.1458
C34 C 0.4320(3) 1.0797(3) 0.16286(6)
C35 C 0.5313(4) 1.1480(3) 0.19099(7)
H35 H 0.5494 1.2450 0.1865
H36 H 0.6406 1.1026 0.1936
H37 H 0.4652 1.1388 0.2103
C36 C 0.5467(4) 1.0908(3) 0.13275(7)
H38 H 0.4900 1.0462 0.1151
H39 H 0.6552 1.0459 0.1367
H40 H 0.5660 1.1872 0.1278
loop_
_geom_bond_atom_site_label_1
_geom_bond_atom_site_label_2
_geom_bond_site_symmetry_1
_geom_bond_site_symmetry_2
O1 C8 1_555 1_555
O2 C10 1_555 1_555
O3 C12 1_555 1_555
O4 C16 1_555 1_555
O5 H1 1_555 1_555
O6 C10 1_555 1_555
O7 C19 1_555 1_555
O8 C29 1_555 1_555
O9 H2 1_555 1_555
O10 C31 1_555 1_555
O11 C32 1_555 1_555
O12 C24 1_555 1_555
C1 H3 1_555 1_555
H4 C1 1_555 1_555
H5 C1 1_555 1_555
C2 C1 1_555 1_555
C3 C2 1_555 1_555
H6 C3 1_555 1_555
C4 C3 1_555 1_555
C5 C4 1_555 1_555
H7 C5 1_555 1_555
C6 C5 1_555 1_555
H8 C6 1_555 1_555
H9 C6 1_555 1_555
C7 C6 1_555 1_555
H10 C7 1_555 1_555
H11 C7 1_555 1_555
C8 C7 1_555 1_555
C9 C5 1_555 1_555
C10 C9 1_555 1_555
C11 O2 1_555 1_555
H12 C11 1_555 1_555
C12 O5 1_555 1_555
C13 O3 1_555 1_555
H13 C13 1_555 1_555
H14 C13 1_555 1_555
C14 C2 1_555 1_555
H15 C14 1_555 1_555
C15 C14 1_555 1_555
H16 C15 1_555 1_555
C16 C4 1_555 1_555
C17 C2 1_555 1_555
H17 C17 1_555 1_555
H18 C17 1_555 1_555
H19 C17 1_555 1_555
C18 C8 1_555 1_555
H20 C18 1_555 1_555
H21 C18 1_555 1_555
C19 C20 1_555 1_555
C20 H22 1_555 1_555
H23 C20 1_555 1_555
C21 C20 1_555 1_555
H24 C21 1_555 1_555
H25 C21 1_555 1_555
C22 C21 1_555 1_555
H26 C22 1_555 1_555
C23 C22 1_555 1_555
C24 C23 1_555 1_555
C25 C24 1_555 1_555
H27 C25 1_555 1_555
C26 C25 1_555 1_555
H28 C26 1_555 1_555
C27 C19 1_555 1_555
H29 C27 1_555 1_555
H30 C27 1_555 1_555
C28 C22 1_555 1_555
C29 C23 1_555 1_555
H31 C29 1_555 1_555
H32 C29 1_555 1_555
C30 O8 1_555 1_555
C31 C30 1_555 1_555
H33 C31 1_555 1_555
C32 O10 1_555 1_555
C33 C23 1_555 1_555
H34 C33 1_555 1_555
C34 C26 1_555 1_555
C35 C34 1_555 1_555
H35 C35 1_555 1_555
H36 C35 1_555 1_555
H37 C35 1_555 1_555
C36 C34 1_555 1_555
H38 C36 1_555 1_555
H39 C36 1_555 1_555
H40 C36 1_555 1_555
O9 C30 1_555 1_555
C3 C11 1_555 1_555
C4 C13 1_555 1_555
C9 C12 1_555 1_555
C9 C18 1_555 1_555
C11 C12 1_555 1_555
C15 C16 1_555 1_555
C27 C28 1_555 1_555
C28 C30 1_555 1_555
C28 C32 1_555 1_555
C31 C33 1_555 1_555
C33 C34 1_555 1_555

#END
