
#######################################################################
#
#                 Cambridge Crystallographic Data Centre
#                                CCDC 
#
#######################################################################
#
# If this CIF has been generated from an entry in the Cambridge 
# Structural Database, then it will include bibliographic, chemical, 
# crystal, experimental, refinement or atomic coordinate data resulting 
# from the CCDC's data processing and validation procedures.
#
#######################################################################

data_YECCAK
_chemical_formula_moiety         'C17 H21 N1 O1 S1'
_chemical_name_systematic        
(S)-(4-(2-Propyl)phenyl)-(4-(N,N-dimethylamino)phenyl)-sulfoxide
_symmetry_cell_setting           monoclinic
_symmetry_space_group_name_H-M   'P 21'
_symmetry_Int_Tables_number      4
_space_group_name_Hall           'P 2yb'
loop_
_symmetry_equiv_pos_site_id
_symmetry_equiv_pos_as_xyz
1 x,y,z
2 -x,1/2+y,-z
_cell_length_a                   7.8030(6)
_cell_length_b                   6.0355(6)
_cell_length_c                   17.037(2)
_cell_angle_alpha                90
_cell_angle_beta                 96.899(7)
_cell_angle_gamma                90
_cell_volume                     796.548
_cell_formula_units_Z            2
loop_
_atom_site_label
_atom_site_type_symbol
_atom_site_fract_x
_atom_site_fract_y
_atom_site_fract_z
S1 S 0.1400(1) -0.0039 0.7475(1)
O1 O -0.0205(3) -0.1336(9) 0.7508(2)
N1 N 0.2889(4) 0.0154(9) 0.4128(2)
C1 C 0.3144(5) -0.1787(9) 0.7904(2)
C2 C 0.4816(5) -0.1025(10) 0.7981(2)
C3 C 0.6107(6) -0.2336(12) 0.8381(3)
C4 C 0.5729(7) -0.4364(11) 0.8705(2)
C5 C 0.4034(7) -0.5058(14) 0.8589(3)
C6 C 0.2760(6) -0.3826(10) 0.8194(3)
C7 C 0.7122(9) -0.5770(16) 0.9180(3)
C8 C 0.8526(7) -0.6417(19) 0.8786(4)
C9 C 0.7451(9) -0.5056(25) 0.9995(3)
C10 C 0.1868(4) -0.0019(9) 0.6477(2)
C11 C 0.1294(4) -0.1713(8) 0.5962(2)
C12 C 0.1608(4) -0.1642(8) 0.5188(2)
C13 C 0.2541(4) 0.0115(9) 0.4901(2)
C14 C 0.3092(5) 0.1807(8) 0.5431(2)
C15 C 0.2743(5) 0.1736(8) 0.6202(3)
C16 C 0.2229(6) -0.1476(11) 0.3574(3)
C17 C 0.3756(6) 0.2040(11) 0.3829(3)
H1 H 0.5096(5) 0.0385(10) 0.7769(2)
H2 H 0.7285(6) -0.1843(12) 0.8431(3)
H3 H 0.3739(7) -0.6456(14) 0.8806(3)
H4 H 0.1599(6) -0.4377(10) 0.8110(3)
H5 H 0.6512(9) -0.7142(16) 0.9214(3)
H6 H 0.9315(7) -0.7324(19) 0.9122(4)
H7 H 0.8090(7) -0.7242(19) 0.8323(4)
H8 H 0.9116(7) -0.5120(19) 0.8632(4)
H9 H 0.8309(9) -0.6003(25) 1.0272(3)
H10 H 0.7852(9) -0.3551(25) 1.0025(3)
H11 H 0.6399(9) -0.5166(25) 1.0232(3)
H12 H 0.0672(4) -0.2944(8) 0.6146(2)
H13 H 0.1191(4) -0.2814(8) 0.4835(2)
H14 H 0.3716(5) 0.3044(8) 0.5254(2)
H15 H 0.3125(5) 0.2927(8) 0.6554(3)
H16 H 0.1696(6) -0.2627(11) 0.3849(3)
H17 H 0.1390(6) -0.0830(11) 0.3182(3)
H18 H 0.3158(6) -0.2090(11) 0.3322(3)
H19 H 0.4146(6) 0.3050(11) 0.4248(3)
H20 H 0.4726(6) 0.1525(11) 0.3583(3)
H21 H 0.2959(6) 0.2785(11) 0.3443(3)
loop_
_geom_bond_atom_site_label_1
_geom_bond_atom_site_label_2
_geom_bond_site_symmetry_1
_geom_bond_site_symmetry_2
S1 O1 1_555 1_555
N1 C13 1_555 1_555
C1 S1 1_555 1_555
C2 C1 1_555 1_555
C3 C2 1_555 1_555
C4 C3 1_555 1_555
C5 C4 1_555 1_555
C6 C1 1_555 1_555
C7 C4 1_555 1_555
C8 C7 1_555 1_555
C9 C7 1_555 1_555
C10 S1 1_555 1_555
C11 C10 1_555 1_555
C12 C11 1_555 1_555
C13 C12 1_555 1_555
C14 C13 1_555 1_555
C15 C10 1_555 1_555
C16 N1 1_555 1_555
C17 N1 1_555 1_555
H1 C2 1_555 1_555
H2 C3 1_555 1_555
H3 C5 1_555 1_555
H4 C6 1_555 1_555
H5 C7 1_555 1_555
H6 C8 1_555 1_555
H7 C8 1_555 1_555
H8 C8 1_555 1_555
H9 C9 1_555 1_555
H10 C9 1_555 1_555
H11 C9 1_555 1_555
H12 C11 1_555 1_555
H13 C12 1_555 1_555
H14 C14 1_555 1_555
H15 C15 1_555 1_555
H16 C16 1_555 1_555
H17 C16 1_555 1_555
H18 C16 1_555 1_555
H19 C17 1_555 1_555
H20 C17 1_555 1_555
H21 C17 1_555 1_555
C5 C6 1_555 1_555
C14 C15 1_555 1_555

#END
