
#######################################################################
#
#                 Cambridge Crystallographic Data Centre
#                                CCDC 
#
#######################################################################
#
# If this CIF has been generated from an entry in the Cambridge 
# Structural Database, then it will include bibliographic, chemical, 
# crystal, experimental, refinement or atomic coordinate data resulting 
# from the CCDC's data processing and validation procedures.
#
#######################################################################

data_YECHOE
_chemical_formula_moiety         'C12 H10 N4 O2,C8 H14 O4'
_chemical_name_systematic        "N,N'-bis(Picolinoyl)hydrazine suberic acid"
_symmetry_cell_setting           triclinic
_symmetry_space_group_name_H-M   'P -1'
_symmetry_Int_Tables_number      2
_space_group_name_Hall           '-P 1'
loop_
_symmetry_equiv_pos_site_id
_symmetry_equiv_pos_as_xyz
1 x,y,z
2 -x,-y,-z
_cell_length_a                   4.8911(14)
_cell_length_b                   8.073(2)
_cell_length_c                   13.274(4)
_cell_angle_alpha                94.337(5)
_cell_angle_beta                 93.437(5)
_cell_angle_gamma                104.298(5)
_cell_volume                     504.766
_exptl_crystal_colour            orange
_exptl_crystal_description       Needle
_chemical_melting_point          187-191deg.C
_cell_formula_units_Z            1
loop_
_atom_site_label
_atom_site_type_symbol
_atom_site_fract_x
_atom_site_fract_y
_atom_site_fract_z
N1 N 0.5274(3) 0.4823(2) 0.95008(10)
H1 H 0.6986 0.4989 0.9334
N2 N 0.5052(4) 0.3186(2) 0.57713(12)
O1 O 0.0639(3) 0.4020(2) 0.90225(10)
C1 C 0.2720(4) 0.2285(3) 0.61294(15)
H2 H 0.1506 0.1409 0.5704
C2 C 0.2018(4) 0.2594(3) 0.71087(14)
H3 H 0.0350 0.1953 0.7331
C3 C 0.3846(4) 0.3874(2) 0.77487(13)
C4 C 0.6256(4) 0.4826(3) 0.73755(13)
H4 H 0.7517 0.5706 0.7785
C5 C 0.6753(4) 0.4446(3) 0.63838(14)
H5 H 0.8361 0.5104 0.6131
C6 C 0.3090(4) 0.4221(2) 0.88051(13)
N1A N 0.4726(3) 0.5177(2) 1.04992(10)
H1A H 0.3014 0.5011 1.0666
N2A N 0.4948(4) 0.6814(2) 1.42287(12)
O1A O 0.9361(3) 0.5980(2) 1.09775(10)
C1A C 0.7280(4) 0.7715(3) 1.38706(15)
H2A H 0.8494 0.8591 1.4296
C2A C 0.7982(4) 0.7406(3) 1.28913(14)
H3A H 0.9650 0.8047 1.2669
C3A C 0.6154(4) 0.6126(2) 1.22513(13)
C4A C 0.3744(4) 0.5174(3) 1.26245(13)
H4A H 0.2483 0.4294 1.2215
C5A C 0.3247(4) 0.5554(3) 1.36162(14)
H5A H 0.1639 0.4896 1.3869
C6A C 0.6910(4) 0.5779(2) 1.11949(13)
O2 O 0.7105(3) 0.2618(2) 0.40050(10)
H6 H 0.6288 0.2691 0.4522
O3 O 0.3036(3) 0.0795(2) 0.34561(11)
C7 C 0.5380(4) 0.1566(3) 0.33077(13)
C8 C 0.6666(4) 0.1474(3) 0.23133(13)
H7 H 0.8208 0.0923 0.2392
H8 H 0.7467 0.2635 0.2146
C9 C 0.4633(4) 0.0516(3) 0.14365(14)
H9 H 0.3114 0.1080 0.1342
H10 H 0.3803 -0.0641 0.1604
C10 C 0.6021(4) 0.0417(3) 0.04523(14)
H11 H 0.7442 -0.0224 0.0534
H12 H 0.6982 0.1571 0.0315
O2A O 0.2895(3) -0.2618(2) -0.40050(10)
H6A H 0.3712 -0.2691 -0.4522
O3A O 0.6964(3) -0.0795(2) -0.34561(11)
C7A C 0.4620(4) -0.1566(3) -0.33077(13)
C8A C 0.3334(4) -0.1474(3) -0.23133(13)
H7A H 0.1792 -0.0923 -0.2392
H8A H 0.2533 -0.2635 -0.2146
C9A C 0.5367(4) -0.0516(3) -0.14365(14)
H9A H 0.6886 -0.1080 -0.1342
H10A H 0.6197 0.0641 -0.1604
C10A C 0.3979(4) -0.0417(3) -0.04523(14)
H11A H 0.2558 0.0224 -0.0534
H12A H 0.3018 -0.1571 -0.0315
loop_
_geom_bond_atom_site_label_1
_geom_bond_atom_site_label_2
_geom_bond_site_symmetry_1
_geom_bond_site_symmetry_2
N1 H1 1_555 1_555
N2 C1 1_555 1_555
O1 C6 1_555 1_555
C1 H2 1_555 1_555
C2 C1 1_555 1_555
H3 C2 1_555 1_555
C3 C2 1_555 1_555
C4 C3 1_555 1_555
H4 C4 1_555 1_555
C5 N2 1_555 1_555
H5 C5 1_555 1_555
C6 N1 1_555 1_555
O2 H6 1_555 1_555
O3 C7 1_555 1_555
C7 O2 1_555 1_555
C8 C7 1_555 1_555
H7 C8 1_555 1_555
H8 C8 1_555 1_555
C9 C8 1_555 1_555
H9 C9 1_555 1_555
H10 C9 1_555 1_555
C10 C9 1_555 1_555
H11 C10 1_555 1_555
H12 C10 1_555 1_555
N1A N1 1_555 1_555
H1A N1A 1_555 1_555
N2A C1A 1_555 1_555
O1A C6A 1_555 1_555
C1A H2A 1_555 1_555
C2A C1A 1_555 1_555
H3A C2A 1_555 1_555
C3A C2A 1_555 1_555
C4A C3A 1_555 1_555
H4A C4A 1_555 1_555
C5A N2A 1_555 1_555
H5A C5A 1_555 1_555
C6A N1A 1_555 1_555
O2A H6A 1_555 1_555
O3A C7A 1_555 1_555
C7A O2A 1_555 1_555
C8A C7A 1_555 1_555
H7A C8A 1_555 1_555
H8A C8A 1_555 1_555
C9A C8A 1_555 1_555
H9A C9A 1_555 1_555
H10A C9A 1_555 1_555
C10A C10 1_555 1_555
H11A C10A 1_555 1_555
H12A C10A 1_555 1_555
C3 C6 1_555 1_555
C4 C5 1_555 1_555
C3A C6A 1_555 1_555
C4A C5A 1_555 1_555
C9A C10A 1_555 1_555

#END
