
#######################################################################
#
#                 Cambridge Crystallographic Data Centre
#                                CCDC 
#
#######################################################################
#
# If this CIF has been generated from an entry in the Cambridge 
# Structural Database, then it will include bibliographic, chemical, 
# crystal, experimental, refinement or atomic coordinate data resulting 
# from the CCDC's data processing and validation procedures.
#
#######################################################################

data_YECHUK
_chemical_formula_moiety         'C12 H8 N4 O1,C10 H10 O6'
_chemical_name_systematic        
'2,5-bis(3-Pyridyl)-1,3,4-oxadiazole benzene-1,4-bis(oxyacetic acid)'
_symmetry_cell_setting           monoclinic
_symmetry_space_group_name_H-M   'C 2/c'
_symmetry_Int_Tables_number      15
_space_group_name_Hall           '-C 2yn'
loop_
_symmetry_equiv_pos_site_id
_symmetry_equiv_pos_as_xyz
1 x,y,z
2 1/2+x,1/2+y,z
3 -x,y,1/2-z
4 1/2-x,1/2+y,1/2-z
5 -x,-y,-z
6 1/2-x,1/2-y,-z
7 x,-y,1/2+z
8 1/2+x,1/2-y,1/2+z
_cell_length_a                   19.521(2)
_cell_length_b                   6.6365(8)
_cell_length_c                   17.255(2)
_cell_angle_alpha                90
_cell_angle_beta                 115.3010(10)
_cell_angle_gamma                90
_cell_volume                     2020.97
_exptl_crystal_colour            colorless
_exptl_crystal_description       BLOCK
_chemical_melting_point          254-256deg.C
_cell_formula_units_Z            4
loop_
_atom_site_label
_atom_site_type_symbol
_atom_site_fract_x
_atom_site_fract_y
_atom_site_fract_z
O1 O 0.5000 0.39817(19) 0.2500
N1 N 0.48455(7) 0.71258(19) 0.20498(7)
N2 N 0.39737(7) 0.5318(2) -0.05333(7)
C1 C 0.47642(7) 0.5265(2) 0.18194(8)
C2 C 0.44647(7) 0.4485(2) 0.09530(8)
C3 C 0.43811(8) 0.2450(2) 0.07552(9)
H2 H 0.4519 0.1480 0.1185
C4 C 0.40878(9) 0.1904(2) -0.00951(10)
H3 H 0.4021 0.0550 -0.0248
C5 C 0.38942(9) 0.3360(3) -0.07147(9)
H4 H 0.3699 0.2964 -0.1286
C6 C 0.42483(8) 0.5848(2) 0.02830(9)
H5 H 0.4299 0.7214 0.0414
N1B N 0.51545(7) 0.71258(19) 0.29502(7)
N2B N 0.60263(7) 0.5318(2) 0.55333(7)
C1B C 0.52358(7) 0.5265(2) 0.31806(8)
C2B C 0.55353(7) 0.4485(2) 0.40470(8)
C3B C 0.56189(8) 0.2450(2) 0.42448(9)
H2B H 0.5481 0.1480 0.3815
C4B C 0.59122(9) 0.1904(2) 0.50951(10)
H3B H 0.5979 0.0550 0.5248
C5B C 0.61058(9) 0.3360(3) 0.57147(9)
H4B H 0.6301 0.2964 0.6286
C6B C 0.57517(8) 0.5848(2) 0.47170(9)
H5B H 0.5701 0.7214 0.4586
O2 O 0.29769(6) 1.05964(14) 0.11850(5)
O3 O 0.37154(7) 1.16126(17) 0.33962(6)
H1 H 0.3773 1.2658 0.3670
O4 O 0.32575(9) 1.36741(19) 0.22994(7)
C7 C 0.34016(8) 1.2022(2) 0.25763(8)
C8 C 0.32510(8) 1.0132(2) 0.20602(8)
H6 H 0.3715 0.9356 0.2240
H7 H 0.2881 0.9321 0.2156
C9 C 0.27507(7) 0.90001(19) 0.06179(8)
C10 C 0.27701(7) 0.7002(2) 0.08571(8)
H8 H 0.2952 0.6664 0.1434
C11 C 0.24800(7) 0.9490(2) -0.02399(8)
H9 H 0.2466 1.0831 -0.0403
O2E O 0.20231(6) 0.44036(14) -0.11850(5)
O3E O 0.12846(7) 0.33874(17) -0.33962(6)
H1E H 0.1227 0.2342 -0.3670
O4E O 0.17425(9) 0.13259(19) -0.22994(7)
C7E C 0.15984(8) 0.2978(2) -0.25763(8)
C8E C 0.17490(8) 0.4868(2) -0.20602(8)
H6E H 0.1285 0.5644 -0.2240
H7E H 0.2119 0.5679 -0.2156
C9E C 0.22493(7) 0.59999(19) -0.06179(8)
C10E C 0.22299(7) 0.7998(2) -0.08571(8)
H8E H 0.2048 0.8336 -0.1434
C11E C 0.25200(7) 0.5510(2) 0.02399(8)
H9E H 0.2534 0.4169 0.0403
loop_
_geom_bond_atom_site_label_1
_geom_bond_atom_site_label_2
_geom_bond_site_symmetry_1
_geom_bond_site_symmetry_2
O1 C1 1_555 1_555
O2 C8 1_555 1_555
O3 H1 1_555 1_555
O4 C7 1_555 1_555
N1 C1 1_555 1_555
N2 C5 1_555 1_555
C1 C2 1_555 1_555
C2 C3 1_555 1_555
C3 H2 1_555 1_555
C4 C3 1_555 1_555
H3 C4 1_555 1_555
C5 C4 1_555 1_555
H4 C5 1_555 1_555
C6 N2 1_555 1_555
H5 C6 1_555 1_555
C7 O3 1_555 1_555
C8 C7 1_555 1_555
H6 C8 1_555 1_555
H7 C8 1_555 1_555
C9 O2 1_555 1_555
C10 C9 1_555 1_555
H8 C10 1_555 1_555
C11 C9 1_555 1_555
H9 C11 1_555 1_555
O2E C8E 1_555 1_555
O3E H1E 1_555 1_555
O4E C7E 1_555 1_555
N1B N1 1_555 1_555
N2B C5B 1_555 1_555
C1B O1 1_555 1_555
C2B C1B 1_555 1_555
C3B C2B 1_555 1_555
H2B C3B 1_555 1_555
C4B C3B 1_555 1_555
H3B C4B 1_555 1_555
C5B C4B 1_555 1_555
H4B C5B 1_555 1_555
C6B N2B 1_555 1_555
H5B C6B 1_555 1_555
C7E O3E 1_555 1_555
C8E C7E 1_555 1_555
H6E C8E 1_555 1_555
H7E C8E 1_555 1_555
C9E O2E 1_555 1_555
C10E C11 1_555 1_555
H8E C10E 1_555 1_555
C11E C10 1_555 1_555
H9E C11E 1_555 1_555
C2 C6 1_555 1_555
N1B C1B 1_555 1_555
C2B C6B 1_555 1_555
C9E C10E 1_555 1_555
C9E C11E 1_555 1_555

#END
