
#######################################################################
#
#                 Cambridge Crystallographic Data Centre
#                                CCDC 
#
#######################################################################
#
# If this CIF has been generated from an entry in the Cambridge 
# Structural Database, then it will include bibliographic, chemical, 
# crystal, experimental, refinement or atomic coordinate data resulting 
# from the CCDC's data processing and validation procedures.
#
#######################################################################

data_YECJAS
_chemical_formula_moiety         'C12 H8 N4 O1,C10 H10 O6'
_chemical_name_systematic        
'2,5-bis(4-Pyridyl)-1,3,4-oxadiazole benzene-1,4-bis(oxyacetic acid)'
_symmetry_cell_setting           triclinic
_symmetry_space_group_name_H-M   'P -1'
_symmetry_Int_Tables_number      2
_space_group_name_Hall           '-P 1'
loop_
_symmetry_equiv_pos_site_id
_symmetry_equiv_pos_as_xyz
1 x,y,z
2 -x,-y,-z
_cell_length_a                   8.395(7)
_cell_length_b                   11.051(9)
_cell_length_c                   11.518(9)
_cell_angle_alpha                107.226(10)
_cell_angle_beta                 93.103(11)
_cell_angle_gamma                93.958(11)
_cell_volume                     1015.07
_exptl_crystal_colour            colorless
_exptl_crystal_description       Prism
_chemical_melting_point          234deg.C
_cell_formula_units_Z            2
loop_
_atom_site_label
_atom_site_type_symbol
_atom_site_fract_x
_atom_site_fract_y
_atom_site_fract_z
O1 O 0.48016(13) 0.12580(10) 0.70297(9)
N1 N 0.09501(17) -0.02317(15) 0.31880(13)
N2 N 0.36547(19) -0.05611(14) 0.71225(14)
N3 N 0.47300(19) -0.00452(14) 0.81499(14)
N4 N 0.87232(17) 0.35354(14) 1.06902(13)
C1 C 0.2803(2) 0.10550(17) 0.47987(15)
H3 H 0.3429 0.1820 0.5139
C2 C 0.1853(2) 0.08476(18) 0.37282(17)
H4 H 0.1844 0.1497 0.3367
C3 C 0.0962(2) -0.11431(17) 0.37301(16)
H5 H 0.0338 -0.1904 0.3362
C4 C 0.1849(2) -0.10156(16) 0.48044(16)
H6 H 0.1807 -0.1671 0.5158
C5 C 0.28067(19) 0.01047(15) 0.53551(15)
C6 C 0.3727(2) 0.02289(15) 0.64976(15)
C7 C 0.5365(2) 0.10171(16) 0.80615(15)
C8 C 0.65432(18) 0.18983(15) 0.89381(14)
C9 C 0.7012(2) 0.16206(17) 0.99966(16)
H7 H 0.6593 0.0880 1.0137
C10 C 0.8105(2) 0.24575(17) 1.08349(16)
H8 H 0.8427 0.2258 1.1537
C11 C 0.8251(2) 0.38036(17) 0.96761(16)
H9 H 0.8665 0.4564 0.9573
C12 C 0.7184(2) 0.30161(16) 0.87726(16)
H10 H 0.6902 0.3231 0.8071
O2 O 0.06327(16) 0.50159(12) 0.25652(11)
H1 H 0.0036 0.4559 0.1993
O3 O 0.03692(16) 0.33445(12) 0.32739(11)
O4 O 0.22796(15) 0.45426(11) 0.52637(10)
O5 O 0.64030(14) 0.65826(11) 0.94091(10)
O6 O 0.81027(18) 0.75412(14) 1.15599(12)
O7 O 0.91649(17) 0.91655(13) 1.10112(12)
H2 H 0.9683 0.9337 1.1672
C13 C 0.0915(2) 0.44049(17) 0.33620(15)
C14 C 0.2029(2) 0.52160(17) 0.44113(15)
H11 H 0.3043 0.5424 0.4118
H12 H 0.1567 0.6003 0.4797
C15 C 0.3343(2) 0.51335(16) 0.62627(15)
C16 C 0.3455(2) 0.45206(16) 0.71487(15)
H13 H 0.2829 0.3763 0.7046
C17 C 0.4481(2) 0.50209(16) 0.81804(15)
H14 H 0.4541 0.4604 0.8772
C18 C 0.5424(2) 0.61460(16) 0.83377(15)
C19 C 0.5307(2) 0.67606(17) 0.74624(16)
H15 H 0.5932 0.7519 0.7567
C20 C 0.4263(2) 0.62599(17) 0.64232(16)
H16 H 0.4187 0.6685 0.5838
C21 C 0.7355(2) 0.77338(17) 0.95904(15)
H17 H 0.6683 0.8395 0.9529
H18 H 0.8113 0.7630 0.8969
C22 C 0.8237(2) 0.81047(18) 1.08311(16)
loop_
_geom_bond_atom_site_label_1
_geom_bond_atom_site_label_2
_geom_bond_site_symmetry_1
_geom_bond_site_symmetry_2
O1 C6 1_555 1_555
O2 H1 1_555 1_555
O3 C13 1_555 1_555
O4 C14 1_555 1_555
O5 C18 1_555 1_555
O6 C22 1_555 1_555
O7 H2 1_555 1_555
N1 C2 1_555 1_555
N2 N3 1_555 1_555
N3 C7 1_555 1_555
N4 C10 1_555 1_555
C1 H3 1_555 1_555
C2 C1 1_555 1_555
H4 C2 1_555 1_555
C3 N1 1_555 1_555
H5 C3 1_555 1_555
C4 C3 1_555 1_555
H6 C4 1_555 1_555
C5 C1 1_555 1_555
C6 N2 1_555 1_555
C7 O1 1_555 1_555
C8 C7 1_555 1_555
C9 C8 1_555 1_555
H7 C9 1_555 1_555
C10 C9 1_555 1_555
H8 C10 1_555 1_555
C11 N4 1_555 1_555
H9 C11 1_555 1_555
C12 C8 1_555 1_555
H10 C12 1_555 1_555
C13 O2 1_555 1_555
C14 C13 1_555 1_555
H11 C14 1_555 1_555
H12 C14 1_555 1_555
C15 O4 1_555 1_555
C16 C15 1_555 1_555
H13 C16 1_555 1_555
C17 C16 1_555 1_555
H14 C17 1_555 1_555
C18 C17 1_555 1_555
C19 C18 1_555 1_555
H15 C19 1_555 1_555
C20 C15 1_555 1_555
H16 C20 1_555 1_555
C21 O5 1_555 1_555
H17 C21 1_555 1_555
H18 C21 1_555 1_555
C22 O7 1_555 1_555
C4 C5 1_555 1_555
C5 C6 1_555 1_555
C11 C12 1_555 1_555
C19 C20 1_555 1_555
C21 C22 1_555 1_555

#END
