
#######################################################################
#
#                 Cambridge Crystallographic Data Centre
#                                CCDC 
#
#######################################################################
#
# If this CIF has been generated from an entry in the Cambridge 
# Structural Database, then it will include bibliographic, chemical, 
# crystal, experimental, refinement or atomic coordinate data resulting 
# from the CCDC's data processing and validation procedures.
#
#######################################################################

data_YECMEB
_chemical_formula_moiety         'C31 H25 N1 O3'
_chemical_name_systematic        
6,8-diphenyl-3-[(3,4,5-trimethoxyphenyl)ethynyl]indolizine
_symmetry_cell_setting           monoclinic
_symmetry_space_group_name_H-M   'P 21'
_symmetry_Int_Tables_number      4
_space_group_name_Hall           'P 2yb'
loop_
_symmetry_equiv_pos_site_id
_symmetry_equiv_pos_as_xyz
1 x,y,z
2 -x,1/2+y,-z
_cell_length_a                   17.427(3)
_cell_length_b                   7.3463(11)
_cell_length_c                   18.485(3)
_cell_angle_alpha                90
_cell_angle_beta                 95.213(4)
_cell_angle_gamma                90
_cell_volume                     2356.73
_exptl_crystal_colour            colorless
_exptl_crystal_description       prismatic
_cell_formula_units_Z            4
loop_
_atom_site_label
_atom_site_type_symbol
_atom_site_fract_x
_atom_site_fract_y
_atom_site_fract_z
N1 N 0.7294(4) 0.2875(14) 0.6157(4)
O1 O 0.7732(4) 0.3543(13) 1.0653(3)
O2 O 0.6203(5) 0.3593(15) 1.0635(5)
O3 O 0.5303(4) 0.3068(18) 0.9399(5)
C1 C 0.7665(5) 0.3277(16) 0.9355(5)
H1 H 0.8195 0.3418 0.9354
C2 C 0.7327(5) 0.3379(14) 0.9990(5)
C3 C 0.6540(6) 0.3373(17) 1.0003(5)
C4 C 0.6079(6) 0.307(2) 0.9345(7)
C5 C 0.6412(6) 0.2902(19) 0.8710(6)
H2 H 0.6104 0.2748 0.8276
C6 C 0.7210(6) 0.2960(14) 0.8705(5)
C7 C 0.7540(5) 0.2922(17) 0.8030(5)
C8 C 0.7763(4) 0.2840(16) 0.7432(5)
C9 C 0.7904(5) 0.2738(17) 0.6684(5)
C10 C 0.8560(5) 0.2554(18) 0.6332(5)
H3 H 0.9060 0.2475 0.6552
C11 C 0.8349(5) 0.2508(14) 0.5596(5)
H4 H 0.8688 0.2394 0.5238
C12 C 0.7566(5) 0.2656(14) 0.5472(5)
C13 C 0.7015(5) 0.2729(15) 0.4858(5)
C14 C 0.6248(5) 0.2909(16) 0.4993(5)
H5 H 0.5879 0.2914 0.4596
C15 C 0.5993(5) 0.3084(13) 0.5690(5)
C16 C 0.6529(5) 0.3091(14) 0.6263(5)
H6 H 0.6381 0.3242 0.6730
C17 C 0.5163(5) 0.3244(11) 0.5808(4)
C18 C 0.4603(5) 0.2410(16) 0.5332(6)
H7 H 0.4746 0.1817 0.4921
C19 C 0.3845(6) 0.246(2) 0.5467(7)
H8 H 0.3478 0.1915 0.5140
C20 C 0.3619(5) 0.3284(14) 0.6064(6)
H9 H 0.3103 0.3277 0.6155
C21 C 0.4157(8) 0.4129(19) 0.6534(7)
H10 H 0.4005 0.4734 0.6939
C22 C 0.4941(6) 0.4084(15) 0.6405(6)
H11 H 0.5307 0.4635 0.6732
C23 C 0.7220(5) 0.2626(16) 0.4108(5)
C24 C 0.7817(5) 0.1523(14) 0.3909(5)
H12 H 0.8117 0.0874 0.4262
C25 C 0.7965(6) 0.1389(18) 0.3175(6)
H13 H 0.8358 0.0636 0.3043
C26 C 0.7536(5) 0.2356(17) 0.2658(5)
H14 H 0.7630 0.2259 0.2173
C27 C 0.6968(5) 0.3463(14) 0.2857(5)
H15 H 0.6681 0.4158 0.2510
C28 C 0.6823(5) 0.3552(17) 0.3555(5)
H16 H 0.6422 0.4300 0.3672
C29 C 0.8554(6) 0.357(2) 1.0677(6)
H17 H 0.8734 0.2422 1.0513
H18 H 0.8767 0.3788 1.1167
H19 H 0.8712 0.4524 1.0368
C30 C 0.5967(9) 0.202(2) 1.0946(7)
H20 H 0.5657 0.1327 1.0590
H21 H 0.5668 0.2319 1.1342
H22 H 0.6409 0.1322 1.1124
C31 C 0.4813(7) 0.238(3) 0.8778(9)
H23 H 0.4751 0.3306 0.8411
H24 H 0.4319 0.2058 0.8929
H25 H 0.5049 0.1327 0.8585
N2 N 0.0986(4) 0.3206(10) 0.2745(3)
O4 O 0.0539(5) 0.3643(16) -0.1754(4)
O5 O 0.2076(5) 0.3762(16) -0.1678(4)
O6 O 0.2920(4) 0.3470(13) -0.0405(4)
C32 C 0.0555(6) 0.3534(17) -0.0446(5)
H26 H 0.0019 0.3557 -0.0469
C33 C 0.0932(7) 0.3586(16) -0.1074(5)
C34 C 0.1726(6) 0.3546(17) -0.1045(5)
C35 C 0.2163(5) 0.3489(14) -0.0371(5)
C36 C 0.1799(5) 0.3429(16) 0.0249(5)
H27 H 0.2087 0.3375 0.0697
C37 C 0.0992(6) 0.3448(15) 0.0215(5)
C38 C 0.0668(5) 0.3447(17) 0.0903(5)
C39 C 0.0455(4) 0.3439(14) 0.1502(4)
C40 C 0.0343(4) 0.3325(15) 0.2248(4)
C41 C -0.0284(4) 0.3256(15) 0.2636(4)
H28 H -0.0793 0.3289 0.2437
C42 C -0.0057(5) 0.3131(13) 0.3364(4)
H29 H -0.0381 0.3087 0.3736
C43 C 0.0740(4) 0.3081(14) 0.3448(4)
C44 C 0.1325(5) 0.2906(15) 0.4026(5)
C45 C 0.2072(5) 0.2791(18) 0.3882(5)
H30 H 0.2447 0.2617 0.4267
C46 C 0.2311(5) 0.2926(16) 0.3152(5)
C47 C 0.1747(5) 0.3163(14) 0.2611(4)
H31 H 0.1877 0.3300 0.2137
C48 C 0.3115(5) 0.3003(13) 0.2996(5)
C49 C 0.3681(5) 0.3666(17) 0.3491(5)
H32 H 0.3560 0.4013 0.3951
C50 C 0.4435(6) 0.382(2) 0.3309(6)
H33 H 0.4806 0.4314 0.3646
C51 C 0.4641(5) 0.3279(17) 0.2664(5)
H34 H 0.5147 0.3421 0.2551
C52 C 0.4091(5) 0.250(2) 0.2163(5)
H35 H 0.4225 0.2131 0.1709
C53 C 0.3347(6) 0.2280(17) 0.2344(6)
H36 H 0.2993 0.1647 0.2032
C54 C 0.1114(5) 0.2791(16) 0.4786(5)
C55 C 0.0525(5) 0.3781(17) 0.5033(5)
H37 H 0.0226 0.4509 0.4706
C56 C 0.0364(5) 0.374(2) 0.5740(5)
H38 H -0.0041 0.4435 0.5884
C57 C 0.0773(6) 0.2712(19) 0.6230(5)
H39 H 0.0674 0.2727 0.6716
C58 C 0.1345(6) 0.1630(16) 0.5995(5)
H40 H 0.1620 0.0862 0.6324
C59 C 0.1517(6) 0.1660(16) 0.5294(5)
H41 H 0.1907 0.0917 0.5150
C60 C -0.0271(6) 0.358(3) -0.1812(6)
H42 H -0.0436 0.2450 -0.1614
H43 H -0.0464 0.3662 -0.2314
H44 H -0.0465 0.4576 -0.1548
C61 C 0.2328(8) 0.222(2) -0.1979(7)
H45 H 0.2584 0.1467 -0.1606
H46 H 0.2681 0.2520 -0.2329
H47 H 0.1897 0.1566 -0.2213
C62 C 0.3387(5) 0.3290(19) 0.0260(6)
H48 H 0.3231 0.4169 0.0602
H49 H 0.3917 0.3492 0.0179
H50 H 0.3330 0.2086 0.0451
loop_
_geom_bond_atom_site_label_1
_geom_bond_atom_site_label_2
_geom_bond_site_symmetry_1
_geom_bond_site_symmetry_2
N1 C9 1_555 1_555
O1 C2 1_555 1_555
O2 C3 1_555 1_555
O3 C4 1_555 1_555
C1 H1 1_555 1_555
C2 C1 1_555 1_555
C3 C2 1_555 1_555
C4 C3 1_555 1_555
C5 C4 1_555 1_555
H2 C5 1_555 1_555
C6 C1 1_555 1_555
C7 C6 1_555 1_555
C8 C7 1_555 1_555
C9 C8 1_555 1_555
C10 C9 1_555 1_555
H3 C10 1_555 1_555
C11 C10 1_555 1_555
H4 C11 1_555 1_555
C12 N1 1_555 1_555
C13 C12 1_555 1_555
C14 C13 1_555 1_555
H5 C14 1_555 1_555
C15 C14 1_555 1_555
C16 N1 1_555 1_555
H6 C16 1_555 1_555
C17 C15 1_555 1_555
C18 C17 1_555 1_555
H7 C18 1_555 1_555
C19 C18 1_555 1_555
H8 C19 1_555 1_555
C20 C19 1_555 1_555
H9 C20 1_555 1_555
C21 C20 1_555 1_555
H10 C21 1_555 1_555
C22 C17 1_555 1_555
H11 C22 1_555 1_555
C23 C13 1_555 1_555
C24 C23 1_555 1_555
H12 C24 1_555 1_555
C25 C24 1_555 1_555
H13 C25 1_555 1_555
C26 C25 1_555 1_555
H14 C26 1_555 1_555
C27 C26 1_555 1_555
H15 C27 1_555 1_555
C28 C23 1_555 1_555
H16 C28 1_555 1_555
C29 O1 1_555 1_555
H17 C29 1_555 1_555
H18 C29 1_555 1_555
H19 C29 1_555 1_555
C30 O2 1_555 1_555
H20 C30 1_555 1_555
H21 C30 1_555 1_555
H22 C30 1_555 1_555
C31 O3 1_555 1_555
H23 C31 1_555 1_555
H24 C31 1_555 1_555
H25 C31 1_555 1_555
N2 C40 1_555 1_555
O4 C33 1_555 1_555
O5 C34 1_555 1_555
O6 C35 1_555 1_555
C32 H26 1_555 1_555
C33 C32 1_555 1_555
C34 C33 1_555 1_555
C35 C34 1_555 1_555
C36 C35 1_555 1_555
H27 C36 1_555 1_555
C37 C32 1_555 1_555
C38 C37 1_555 1_555
C39 C38 1_555 1_555
C40 C39 1_555 1_555
C41 C40 1_555 1_555
H28 C41 1_555 1_555
C42 C41 1_555 1_555
H29 C42 1_555 1_555
C43 N2 1_555 1_555
C44 C43 1_555 1_555
C45 C44 1_555 1_555
H30 C45 1_555 1_555
C46 C45 1_555 1_555
C47 N2 1_555 1_555
H31 C47 1_555 1_555
C48 C46 1_555 1_555
C49 C48 1_555 1_555
H32 C49 1_555 1_555
C50 C49 1_555 1_555
H33 C50 1_555 1_555
C51 C50 1_555 1_555
H34 C51 1_555 1_555
C52 C51 1_555 1_555
H35 C52 1_555 1_555
C53 C48 1_555 1_555
H36 C53 1_555 1_555
C54 C44 1_555 1_555
C55 C54 1_555 1_555
H37 C55 1_555 1_555
C56 C55 1_555 1_555
H38 C56 1_555 1_555
C57 C56 1_555 1_555
H39 C57 1_555 1_555
C58 C57 1_555 1_555
H40 C58 1_555 1_555
C59 C54 1_555 1_555
H41 C59 1_555 1_555
C60 O4 1_555 1_555
H42 C60 1_555 1_555
H43 C60 1_555 1_555
H44 C60 1_555 1_555
C61 O5 1_555 1_555
H45 C61 1_555 1_555
H46 C61 1_555 1_555
H47 C61 1_555 1_555
C62 O6 1_555 1_555
H48 C62 1_555 1_555
H49 C62 1_555 1_555
H50 C62 1_555 1_555
C5 C6 1_555 1_555
C11 C12 1_555 1_555
C15 C16 1_555 1_555
C21 C22 1_555 1_555
C27 C28 1_555 1_555
C36 C37 1_555 1_555
C42 C43 1_555 1_555
C46 C47 1_555 1_555
C52 C53 1_555 1_555
C58 C59 1_555 1_555

#END
