
#######################################################################
#
#                 Cambridge Crystallographic Data Centre
#                                CCDC 
#
#######################################################################
#
# If this CIF has been generated from an entry in the Cambridge 
# Structural Database, then it will include bibliographic, chemical, 
# crystal, experimental, refinement or atomic coordinate data resulting 
# from the CCDC's data processing and validation procedures.
#
#######################################################################

data_YECPED
_chemical_formula_moiety         'C33 H38 O10,C2 H3 N1'
_chemical_name_systematic        
'8,10,14,14,18,20-hexamethyl-3,7,12,16,21,25-hexaoxahexacyclo[25.2.2.1^8,10^.1^18,20^.0^4,9^.0^19,24^]tritriaconta-1(29),4,23,27,30-pentaene-6,11,17,22-tetrone acetonitrile solvate'
_symmetry_cell_setting           monoclinic
_symmetry_space_group_name_H-M   'C 2/c'
_symmetry_Int_Tables_number      15
_space_group_name_Hall           '-C 2yn'
loop_
_symmetry_equiv_pos_site_id
_symmetry_equiv_pos_as_xyz
1 x,y,z
2 -x,y,1/2-z
3 1/2+x,1/2+y,z
4 1/2-x,1/2+y,1/2-z
5 -x,-y,-z
6 x,-y,1/2+z
7 1/2-x,1/2-y,-z
8 1/2+x,1/2-y,1/2+z
_cell_length_a                   33.161(10)
_cell_length_b                   9.219(3)
_cell_length_c                   11.998(4)
_cell_angle_alpha                90
_cell_angle_beta                 108.6990(19)
_cell_angle_gamma                90
_cell_volume                     3474.32
_exptl_crystal_colour            colorless
_exptl_crystal_description       prism
_cell_formula_units_Z            4
loop_
_atom_site_label
_atom_site_type_symbol
_atom_site_fract_x
_atom_site_fract_y
_atom_site_fract_z
O1 O 0.43024(3) 1.15873(10) 0.60878(9)
O2 O 0.27850(3) 0.96065(11) 0.41667(9)
O3 O 0.39908(3) 0.81539(11) 0.61272(9)
O4 O 0.25978(4) 0.73967(12) 0.35198(10)
O5 O 0.39835(4) 1.35045(11) 0.49983(10)
C1 C 0.28652(5) 0.81672(17) 0.41841(14)
C2 C 0.32775(5) 0.76342(16) 0.49189(13)
C3 C 0.35882(5) 0.85305(15) 0.55191(12)
C4 C 0.35076(5) 1.01152(15) 0.55682(12)
C5 C 0.30396(5) 1.05715(16) 0.50864(13)
C6 C 0.36213(5) 1.12002(16) 0.47238(12)
C7 C 0.31713(5) 1.18724(16) 0.44778(13)
C8 C 0.27954(5) 1.08259(19) 0.59291(15)
C9 C 0.36976(5) 1.05228(17) 0.36503(13)
C10 C 0.41100(5) 0.66404(15) 0.61069(15)
C11 C 0.45700(5) 0.65287(15) 0.68255(14)
C12 C 0.46894(5) 0.64823(16) 0.80427(14)
C13 C 0.51172(5) 0.65087(17) 0.87099(14)
C14 C 0.39819(5) 1.22425(16) 0.52798(13)
C15 C 0.46551(4) 1.24920(16) 0.67537(13)
C16 C 0.5000 1.1498(2) 0.7500
C17 C 0.48242(5) 1.05565(18) 0.82922(14)
H1 H 0.3326 0.6618 0.4981
H2 H 0.3627 1.0445 0.6356
H3 H 0.3014 1.1958 0.3666
H4 H 0.3171 1.2777 0.4857
H5 H 0.2617 1.1650 0.5685
H6 H 0.2990 1.0992 0.6694
H7 H 0.2626 1.0000 0.5945
H8 H 0.3991 1.0291 0.3834
H9 H 0.3617 1.1186 0.3011
H10 H 0.3533 0.9664 0.3439
H11 H 0.3941 0.6045 0.6428
H12 H 0.4072 0.6352 0.5320
H13 H 0.4478 0.6452 0.8420
H14 H 0.5197 0.6504 0.9544
H15 H 0.4760 1.3026 0.6228
H16 H 0.4565 1.3145 0.7240
H17 H 0.4863 1.1039 0.9019
H18 H 0.4971 0.9656 0.8435
H19 H 0.4529 1.0389 0.7911
O1A O 0.56976(3) 1.15873(10) 0.89122(9)
O2A O 0.72150(3) 0.96065(11) 1.08333(9)
O3A O 0.60092(3) 0.81539(11) 0.88728(9)
O4A O 0.74022(4) 0.73967(12) 1.14802(10)
O5A O 0.60165(4) 1.35045(11) 1.00017(10)
C1A C 0.71348(5) 0.81672(17) 1.08159(14)
C2A C 0.67225(5) 0.76342(16) 1.00811(13)
C3A C 0.64118(5) 0.85305(15) 0.94809(12)
C4A C 0.64924(5) 1.01152(15) 0.94318(12)
C5A C 0.69604(5) 1.05715(16) 0.99136(13)
C6A C 0.63787(5) 1.12002(16) 1.02762(12)
C7A C 0.68287(5) 1.18724(16) 1.05222(13)
C8A C 0.72046(5) 1.08259(19) 0.90709(15)
C9A C 0.63024(5) 1.05228(17) 1.13497(13)
C10A C 0.58900(5) 0.66404(15) 0.88931(15)
C11A C 0.54300(5) 0.65287(15) 0.81745(14)
C12A C 0.53106(5) 0.64823(16) 0.69573(14)
C13A C 0.48828(5) 0.65087(17) 0.62901(14)
C14A C 0.60181(5) 1.22425(16) 0.97202(13)
C15A C 0.53449(4) 1.24920(16) 0.82463(13)
C17A C 0.51758(5) 1.05565(18) 0.67078(14)
H1A H 0.6674 0.6618 1.0019
H2A H 0.6373 1.0445 0.8644
H3A H 0.6986 1.1958 1.1334
H4A H 0.6829 1.2777 1.0143
H5A H 0.7383 1.1650 0.9315
H6A H 0.7010 1.0992 0.8306
H7A H 0.7374 1.0000 0.9055
H8A H 0.6009 1.0291 1.1166
H9A H 0.6383 1.1186 1.1989
H10A H 0.6467 0.9664 1.1561
H11A H 0.6059 0.6045 0.8572
H12A H 0.5928 0.6352 0.9680
H13A H 0.5522 0.6452 0.6580
H14A H 0.4803 0.6504 0.5456
H15A H 0.5240 1.3026 0.8772
H16A H 0.5435 1.3145 0.7760
H17A H 0.5137 1.1039 0.5981
H18A H 0.5029 0.9656 0.6565
H19A H 0.5471 1.0389 0.7089
N1 N 0.37533(6) 0.68504(18) 0.25095(17)
C18 C 0.35113(6) 0.59882(19) 0.25428(14)
C19 C 0.32087(6) 0.4894(2) 0.26067(16)
H20 H 0.3322 0.3956 0.2568
H21 H 0.2952 0.5014 0.1970
H22 H 0.3151 0.4995 0.3330
loop_
_geom_bond_atom_site_label_1
_geom_bond_atom_site_label_2
_geom_bond_site_symmetry_1
_geom_bond_site_symmetry_2
O1 C14 1_555 1_555
O2 C1 1_555 1_555
O3 C3 1_555 1_555
O4 C1 1_555 1_555
O5 C14 1_555 1_555
N1 C18 1_555 1_555
C1 C2 1_555 1_555
C2 C3 1_555 1_555
C3 C4 1_555 1_555
C4 C5 1_555 1_555
C5 O2 1_555 1_555
C6 C4 1_555 1_555
C7 C5 1_555 1_555
C8 C5 1_555 1_555
C9 C6 1_555 1_555
C10 O3 1_555 1_555
C11 C10 1_555 1_555
C12 C11 1_555 1_555
C13 C12 1_555 1_555
C14 C6 1_555 1_555
C15 O1 1_555 1_555
C16 C15 1_555 1_555
C17 C16 1_555 1_555
C18 C19 1_555 1_555
C19 H20 1_555 1_555
H1 C2 1_555 1_555
H2 C4 1_555 1_555
H3 C7 1_555 1_555
H4 C7 1_555 1_555
H5 C8 1_555 1_555
H6 C8 1_555 1_555
H7 C8 1_555 1_555
H8 C9 1_555 1_555
H9 C9 1_555 1_555
H10 C9 1_555 1_555
H11 C10 1_555 1_555
H12 C10 1_555 1_555
H13 C12 1_555 1_555
H14 C13 1_555 1_555
H15 C15 1_555 1_555
H16 C15 1_555 1_555
H17 C17 1_555 1_555
H18 C17 1_555 1_555
H19 C17 1_555 1_555
H21 C19 1_555 1_555
H22 C19 1_555 1_555
O1A C14A 1_555 1_555
O2A C1A 1_555 1_555
O3A C3A 1_555 1_555
O4A C1A 1_555 1_555
O5A C14A 1_555 1_555
C1A C2A 1_555 1_555
C2A C3A 1_555 1_555
C3A C4A 1_555 1_555
C4A C5A 1_555 1_555
C5A O2A 1_555 1_555
C6A C4A 1_555 1_555
C7A C5A 1_555 1_555
C8A C5A 1_555 1_555
C9A C6A 1_555 1_555
C10A O3A 1_555 1_555
C11A C13 1_555 1_555
C12A C11A 1_555 1_555
C13A C11 1_555 1_555
C14A C6A 1_555 1_555
C15A C16 1_555 1_555
C17A C16 1_555 1_555
H1A C2A 1_555 1_555
H2A C4A 1_555 1_555
H3A C7A 1_555 1_555
H4A C7A 1_555 1_555
H5A C8A 1_555 1_555
H6A C8A 1_555 1_555
H7A C8A 1_555 1_555
H8A C9A 1_555 1_555
H9A C9A 1_555 1_555
H10A C9A 1_555 1_555
H11A C10A 1_555 1_555
H12A C10A 1_555 1_555
H13A C12A 1_555 1_555
H14A C13A 1_555 1_555
H15A C15A 1_555 1_555
H16A C15A 1_555 1_555
H17A C17A 1_555 1_555
H18A C17A 1_555 1_555
H19A C17A 1_555 1_555
C6 C7 1_555 1_555
O1A C15A 1_555 1_555
C6A C7A 1_555 1_555
C10A C11A 1_555 1_555
C12A C13A 1_555 1_555

#END
