
#######################################################################
#
#                 Cambridge Crystallographic Data Centre
#                                CCDC 
#
#######################################################################
#
# If this CIF has been generated from an entry in the Cambridge 
# Structural Database, then it will include bibliographic, chemical, 
# crystal, experimental, refinement or atomic coordinate data resulting 
# from the CCDC's data processing and validation procedures.
#
#######################################################################

data_YEDPAZ01
_chemical_formula_moiety         'C6 H8 Cl1 N5 O2 S1'
_chemical_name_systematic        
1-((2-chloro-1,3-thiazol-5-yl)methyl)-3-methyl-2-nitroguanidine
_symmetry_cell_setting           triclinic
_symmetry_space_group_name_H-M   'P -1'
_symmetry_Int_Tables_number      2
_space_group_name_Hall           '-P 1'
loop_
_symmetry_equiv_pos_site_id
_symmetry_equiv_pos_as_xyz
1 x,y,z
2 -x,-y,-z
_cell_length_a                   7.2424(3)
_cell_length_b                   7.9943(3)
_cell_length_c                   9.2677(4)
_cell_angle_alpha                86.667(2)
_cell_angle_beta                 79.259(2)
_cell_angle_gamma                73.175(2)
_cell_volume                     504.608
_cell_formula_units_Z            2
loop_
_atom_site_label
_atom_site_type_symbol
_atom_site_fract_x
_atom_site_fract_y
_atom_site_fract_z
S1 S 0.83199(5) 0.29258(5) 0.93404(4)
Cl1 Cl 0.62217(5) 0.52096(5) 1.19067(4)
O1 O 0.62017(15) 0.12478(15) 0.65345(12)
O2 O 0.74727(16) 0.24947(16) 0.46224(12)
N1 N 0.91655(16) 0.13956(16) 0.64748(13)
N2 N 1.21727(17) 0.15456(16) 0.66239(12)
H1 H 1.3251 0.1848 0.6293
N3 N 0.75943(17) 0.17458(16) 0.58275(13)
N4 N 1.10096(17) 0.27426(16) 0.45429(13)
H2 H 1.0058 0.3004 0.4027
C1 C 0.8308(2) 0.37700(19) 1.10096(15)
C2 C 1.2000(2) 0.06417(19) 0.80370(15)
H3 H 1.3328 0.0117 0.8269
H4 H 1.1423 -0.0322 0.7952
N5 N 0.99229(18) 0.32750(17) 1.15248(13)
C3 C 1.07554(19) 0.19317(18) 0.58119(14)
C4 C 1.07657(19) 0.18044(18) 0.92830(15)
C5 C 1.2797(2) 0.3224(2) 0.39575(16)
H5 H 1.3028 0.3979 0.4660
H6 H 1.2659 0.3851 0.3025
H7 H 1.3907 0.2166 0.3793
C6 C 1.1325(2) 0.2145(2) 1.05279(16)
H8 H 1.2620 0.1632 1.0707
loop_
_geom_bond_atom_site_label_1
_geom_bond_atom_site_label_2
_geom_bond_site_symmetry_1
_geom_bond_site_symmetry_2
S1 C1 1_555 1_555
Cl1 C1 1_555 1_555
O1 N3 1_555 1_555
O2 N3 1_555 1_555
N1 N3 1_555 1_555
N2 H1 1_555 1_555
N4 H2 1_555 1_555
C1 N5 1_555 1_555
C2 N2 1_555 1_555
H3 C2 1_555 1_555
H4 C2 1_555 1_555
N5 C6 1_555 1_555
C3 N1 1_555 1_555
C4 S1 1_555 1_555
C5 N4 1_555 1_555
H5 C5 1_555 1_555
H6 C5 1_555 1_555
H7 C5 1_555 1_555
C6 C4 1_555 1_555
H8 C6 1_555 1_555
N2 C3 1_555 1_555
N4 C3 1_555 1_555
C2 C4 1_555 1_555

#END
