
#######################################################################
#
#                 Cambridge Crystallographic Data Centre
#                                CCDC 
#
#######################################################################
#
# If this CIF has been generated from an entry in the Cambridge 
# Structural Database, then it will include bibliographic, chemical, 
# crystal, experimental, refinement or atomic coordinate data resulting 
# from the CCDC's data processing and validation procedures.
#
#######################################################################

data_YEDSEH
_chemical_formula_moiety         'C39 H57 Mg1 N3 O1'
_chemical_name_systematic        
(2,6-bis(2-(2,6-diisopropylphenylamido)prop-2-yl)pyridine)-(tetrahydrofuran)-magnesium
_symmetry_cell_setting           monoclinic
_symmetry_space_group_name_H-M   'C 2/c'
_symmetry_Int_Tables_number      15
_space_group_name_Hall           '-C 2yn'
loop_
_symmetry_equiv_pos_site_id
_symmetry_equiv_pos_as_xyz
1 x,y,z
2 -x,y,1/2-z
3 1/2+x,1/2+y,z
4 1/2-x,1/2+y,1/2-z
5 -x,-y,-z
6 x,-y,1/2+z
7 1/2-x,1/2-y,-z
8 1/2+x,1/2-y,1/2+z
_cell_length_a                   9.4750(19)
_cell_length_b                   16.603(3)
_cell_length_c                   22.150(4)
_cell_angle_alpha                90
_cell_angle_beta                 95.26(3)
_cell_angle_gamma                90
_cell_volume                     3469.82
_exptl_crystal_colour            yellow
_exptl_crystal_description       block
_cell_formula_units_Z            4
loop_
_atom_site_label
_atom_site_type_symbol
_atom_site_fract_x
_atom_site_fract_y
_atom_site_fract_z
C1 C 0.0000 0.50227(12) 0.2500
H1 H 0.0000 0.5583 0.2500
C2 C -0.02383(15) 0.46074(8) 0.30289(6)
H2 H -0.0429 0.4883 0.3378
C3 C -0.01831(14) 0.37717(8) 0.30208(6)
C4 C -0.04144(14) 0.32058(8) 0.35568(6)
C5 C 0.03334(16) 0.35329(9) 0.41549(6)
H3 H 0.0256 0.3146 0.4472
H4 H -0.0106 0.4028 0.4259
H5 H 0.1316 0.3628 0.4105
C6 C -0.20329(15) 0.32334(9) 0.36204(7)
H6 H -0.2537 0.3028 0.3257
H7 H -0.2317 0.3780 0.3683
H8 H -0.2244 0.2910 0.3960
C7 C 0.07943(14) 0.18753(8) 0.38124(6)
C8 C 0.22998(14) 0.19221(8) 0.39078(6)
C9 C 0.30706(15) 0.13172(9) 0.42271(6)
H9 H 0.4053 0.1358 0.4286
C10 C 0.24085(16) 0.06588(9) 0.44583(6)
H10 H 0.2938 0.0252 0.4660
C11 C 0.09394(15) 0.06147(9) 0.43850(6)
H11 H 0.0489 0.0175 0.4543
C12 C 0.01212(15) 0.12139(8) 0.40807(6)
C13 C -0.14862(15) 0.11611(9) 0.40564(6)
H12 H -0.1887 0.1506 0.3725
C14 C -0.20804(19) 0.03121(10) 0.39497(7)
H13 H -0.1735 0.0090 0.3591
H14 H -0.3097 0.0335 0.3899
H15 H -0.1783 -0.0022 0.4292
C15 C -0.19802(16) 0.14886(10) 0.46535(7)
H16 H -0.1629 0.1147 0.4983
H17 H -0.2997 0.1498 0.4626
H18 H -0.1622 0.2025 0.4723
C16 C 0.31190(15) 0.25943(9) 0.36306(6)
H19 H 0.2435 0.2998 0.3466
C17 C 0.39204(19) 0.22823(11) 0.31094(8)
H20 H 0.4579 0.1873 0.3258
H21 H 0.4427 0.2718 0.2944
H22 H 0.3259 0.2060 0.2800
C18 C 0.41499(16) 0.30078(10) 0.41070(8)
H23 H 0.3652 0.3164 0.4447
H24 H 0.4545 0.3477 0.3933
H25 H 0.4898 0.2641 0.4240
C19 C 0.12208(16) 0.04338(9) 0.26949(7)
H26 H 0.1644 0.0607 0.3089
H27 H 0.1929 0.0467 0.2406
C20 C 0.0658(2) -0.04140(10) 0.27272(10)
H28 H 0.0413 -0.0538 0.3132
H29 H 0.1350 -0.0803 0.2613
Mg1 Mg 0.0000 0.21492(4) 0.2500
N1 N 0.0000 0.33909(10) 0.2500
N2 N 0.00193(12) 0.23881(7) 0.33935(5)
O1 O 0.0000 0.09282(8) 0.2500
C2A C 0.02383(15) 0.46074(8) 0.19711(6)
H2A H 0.0429 0.4883 0.1622
C3A C 0.01831(14) 0.37717(8) 0.19792(6)
C4A C 0.04144(14) 0.32058(8) 0.14432(6)
C5A C -0.03334(16) 0.35329(9) 0.08451(6)
H3A H -0.0256 0.3146 0.0528
H4A H 0.0106 0.4028 0.0741
H5A H -0.1316 0.3628 0.0895
C6A C 0.20329(15) 0.32334(9) 0.13796(7)
H6A H 0.2537 0.3028 0.1743
H7A H 0.2317 0.3780 0.1317
H8A H 0.2244 0.2910 0.1040
C7A C -0.07943(14) 0.18753(8) 0.11876(6)
C8A C -0.22998(14) 0.19221(8) 0.10922(6)
C9A C -0.30706(15) 0.13172(9) 0.07729(6)
H9A H -0.4053 0.1358 0.0714
C10A C -0.24085(16) 0.06588(9) 0.05417(6)
H10A H -0.2938 0.0252 0.0340
C11A C -0.09394(15) 0.06147(9) 0.06150(6)
H11A H -0.0489 0.0175 0.0457
C12A C -0.01212(15) 0.12139(8) 0.09193(6)
C13A C 0.14862(15) 0.11611(9) 0.09436(6)
H12A H 0.1887 0.1506 0.1275
C14A C 0.20804(19) 0.03121(10) 0.10503(7)
H13A H 0.1735 0.0090 0.1409
H14A H 0.3097 0.0335 0.1101
H15A H 0.1783 -0.0022 0.0708
C15A C 0.19802(16) 0.14886(10) 0.03465(7)
H16A H 0.1629 0.1147 0.0017
H17A H 0.2997 0.1498 0.0374
H18A H 0.1622 0.2025 0.0277
C16A C -0.31190(15) 0.25943(9) 0.13694(6)
H19A H -0.2435 0.2998 0.1534
C17A C -0.39204(19) 0.22823(11) 0.18906(8)
H20A H -0.4579 0.1873 0.1742
H21A H -0.4427 0.2718 0.2056
H22A H -0.3259 0.2060 0.2200
C18A C -0.41499(16) 0.30078(10) 0.08930(8)
H23A H -0.3652 0.3164 0.0553
H24A H -0.4545 0.3477 0.1067
H25A H -0.4898 0.2641 0.0760
C19A C -0.12208(16) 0.04338(9) 0.23051(7)
H26A H -0.1644 0.0607 0.1911
H27A H -0.1929 0.0467 0.2594
C20A C -0.0658(2) -0.04140(10) 0.22728(10)
H28A H -0.0413 -0.0538 0.1868
H29A H -0.1350 -0.0803 0.2387
N2A N -0.00193(12) 0.23881(7) 0.16065(5)
loop_
_geom_bond_atom_site_label_1
_geom_bond_atom_site_label_2
_geom_bond_site_symmetry_1
_geom_bond_site_symmetry_2
C1 H1 1_555 1_555
C2 C1 1_555 1_555
H2 C2 1_555 1_555
C3 C2 1_555 1_555
C4 C3 1_555 1_555
C5 C4 1_555 1_555
H3 C5 1_555 1_555
H4 C5 1_555 1_555
H5 C5 1_555 1_555
C6 C4 1_555 1_555
H6 C6 1_555 1_555
H7 C6 1_555 1_555
H8 C6 1_555 1_555
C7 C8 1_555 1_555
C8 C9 1_555 1_555
C9 H9 1_555 1_555
C10 C9 1_555 1_555
H10 C10 1_555 1_555
C11 C10 1_555 1_555
H11 C11 1_555 1_555
C12 C7 1_555 1_555
C13 C12 1_555 1_555
H12 C13 1_555 1_555
C14 C13 1_555 1_555
H13 C14 1_555 1_555
H14 C14 1_555 1_555
H15 C14 1_555 1_555
C15 C13 1_555 1_555
H16 C15 1_555 1_555
H17 C15 1_555 1_555
H18 C15 1_555 1_555
C16 C8 1_555 1_555
H19 C16 1_555 1_555
C17 C16 1_555 1_555
H20 C17 1_555 1_555
H21 C17 1_555 1_555
H22 C17 1_555 1_555
C18 C16 1_555 1_555
H23 C18 1_555 1_555
H24 C18 1_555 1_555
H25 C18 1_555 1_555
C19 H26 1_555 1_555
H27 C19 1_555 1_555
C20 C19 1_555 1_555
H28 C20 1_555 1_555
H29 C20 1_555 1_555
Mg1 N1 1_555 1_555
N1 C3 1_555 1_555
N2 C4 1_555 1_555
O1 C19 1_555 1_555
C2A C1 1_555 1_555
H2A C2A 1_555 1_555
C3A N1 1_555 1_555
C4A C3A 1_555 1_555
C5A C4A 1_555 1_555
H3A C5A 1_555 1_555
H4A C5A 1_555 1_555
H5A C5A 1_555 1_555
C6A C4A 1_555 1_555
H6A C6A 1_555 1_555
H7A C6A 1_555 1_555
H8A C6A 1_555 1_555
C7A C8A 1_555 1_555
C8A C9A 1_555 1_555
C9A H9A 1_555 1_555
C10A C9A 1_555 1_555
H10A C10A 1_555 1_555
C11A C10A 1_555 1_555
H11A C11A 1_555 1_555
C12A C7A 1_555 1_555
C13A C12A 1_555 1_555
H12A C13A 1_555 1_555
C14A C13A 1_555 1_555
H13A C14A 1_555 1_555
H14A C14A 1_555 1_555
H15A C14A 1_555 1_555
C15A C13A 1_555 1_555
H16A C15A 1_555 1_555
H17A C15A 1_555 1_555
H18A C15A 1_555 1_555
C16A C8A 1_555 1_555
H19A C16A 1_555 1_555
C17A C16A 1_555 1_555
H20A C17A 1_555 1_555
H21A C17A 1_555 1_555
H22A C17A 1_555 1_555
C18A C16A 1_555 1_555
H23A C18A 1_555 1_555
H24A C18A 1_555 1_555
H25A C18A 1_555 1_555
C19A O1 1_555 1_555
H26A C19A 1_555 1_555
H27A C19A 1_555 1_555
C20A C20 1_555 1_555
H28A C20A 1_555 1_555
H29A C20A 1_555 1_555
N2A Mg1 1_555 1_555
C7 N2 1_555 1_555
C11 C12 1_555 1_555
Mg1 N2 1_555 1_555
Mg1 O1 1_555 1_555
C2A C3A 1_555 1_555
C4A N2A 1_555 1_555
C7A N2A 1_555 1_555
C11A C12A 1_555 1_555
C19A C20A 1_555 1_555

#END
