
#######################################################################
#
#                 Cambridge Crystallographic Data Centre
#                                CCDC 
#
#######################################################################
#
# If this CIF has been generated from an entry in the Cambridge 
# Structural Database, then it will include bibliographic, chemical, 
# crystal, experimental, refinement or atomic coordinate data resulting 
# from the CCDC's data processing and validation procedures.
#
#######################################################################

data_YEDTUX
_chemical_formula_moiety         'C19 H19 N3 O1'
_chemical_name_systematic        
4-Benzylidene-1-phenyl-2-propylamino-1H-imidazol-5(4H)-one
_symmetry_cell_setting           monoclinic
_symmetry_space_group_name_H-M   'P 21/c'
_symmetry_Int_Tables_number      14
_space_group_name_Hall           '-P 2ybc'
loop_
_symmetry_equiv_pos_site_id
_symmetry_equiv_pos_as_xyz
1 x,y,z
2 -x,1/2+y,1/2-z
3 -x,-y,-z
4 x,1/2-y,1/2+z
_cell_length_a                   11.6442(11)
_cell_length_b                   11.3675(10)
_cell_length_c                   12.8149(12)
_cell_angle_alpha                90
_cell_angle_beta                 99.058(2)
_cell_angle_gamma                90
_cell_volume                     1675.1
_exptl_crystal_colour            yellow
_exptl_crystal_description       block
_chemical_melting_point          '456 K'
_cell_formula_units_Z            4
_exptl_crystal_recrystallization_method dichloromethane/ethanol
loop_
_atom_site_label
_atom_site_type_symbol
_atom_site_fract_x
_atom_site_fract_y
_atom_site_fract_z
C1 C 0.57101(16) 0.64388(18) 0.48758(16)
H1 H 0.5794 0.5936 0.5455
C2 C 0.51449(17) 0.7491(2) 0.4926(2)
H2 H 0.4844 0.7691 0.5533
C3 C 0.50227(16) 0.8246(2) 0.4086(2)
H3 H 0.4650 0.8964 0.4124
C4 C 0.54536(18) 0.79380(19) 0.31845(18)
H4 H 0.5363 0.8448 0.2610
C5 C 0.60175(17) 0.68828(17) 0.31256(15)
H5 H 0.6306 0.6687 0.2511
C6 C 0.61617(14) 0.61059(15) 0.39740(14)
C7 C 0.67356(14) 0.49719(15) 0.39604(13)
H6 H 0.6799 0.4540 0.4583
C8 C 0.71876(13) 0.44624(14) 0.31669(12)
C9 C 0.77018(14) 0.32682(14) 0.32689(12)
C10 C 0.77025(13) 0.40570(13) 0.16682(12)
C11 C 0.85257(14) 0.19992(14) 0.19744(12)
C12 C 0.79449(19) 0.09528(16) 0.20022(15)
H7 H 0.7214 0.0930 0.2209
C13 C 0.8467(2) -0.00735(18) 0.17165(18)
H8 H 0.8091 -0.0792 0.1744
C14 C 0.9531(3) -0.0028(2) 0.13959(18)
H9 H 0.9872 -0.0717 0.1200
C15 C 1.0095(2) 0.1013(2) 0.13603(17)
H10 H 1.0814 0.1037 0.1132
C16 C 0.96009(16) 0.20362(17) 0.16628(14)
H11 H 0.9994 0.2748 0.1656
C17 C 0.74573(16) 0.50487(15) -0.00410(13)
H12 H 0.6908 0.5512 0.0281
H13 H 0.7044 0.4722 -0.0693
C18 C 0.84051(18) 0.58471(17) -0.03000(15)
H14 H 0.8972 0.5381 -0.0597
H15 H 0.8071 0.6409 -0.0833
C19 C 0.9008(2) 0.6501(2) 0.06400(19)
H16 H 0.8460 0.7001 0.0912
H17 H 0.9621 0.6971 0.0437
H18 H 0.9330 0.5950 0.1175
N1 N 0.72326(11) 0.48920(11) 0.21578(10)
N2 N 0.80131(11) 0.30561(11) 0.22856(10)
N3 N 0.78801(12) 0.40849(11) 0.06689(10)
H19 H 0.8088(14) 0.3436(10) 0.0389(13)
O1 O 0.78467(12) 0.25914(11) 0.40157(10)
loop_
_geom_bond_atom_site_label_1
_geom_bond_atom_site_label_2
_geom_bond_site_symmetry_1
_geom_bond_site_symmetry_2
C1 H1 1_555 1_555
C2 C1 1_555 1_555
H2 C2 1_555 1_555
C3 C2 1_555 1_555
H3 C3 1_555 1_555
C4 C3 1_555 1_555
H4 C4 1_555 1_555
C5 C4 1_555 1_555
H5 C5 1_555 1_555
C6 C1 1_555 1_555
C7 C6 1_555 1_555
H6 C7 1_555 1_555
C8 C7 1_555 1_555
C9 C8 1_555 1_555
C10 N1 1_555 1_555
C11 C12 1_555 1_555
C12 H7 1_555 1_555
C13 C12 1_555 1_555
H8 C13 1_555 1_555
C14 C13 1_555 1_555
H9 C14 1_555 1_555
C15 C14 1_555 1_555
H10 C15 1_555 1_555
C16 C11 1_555 1_555
H11 C16 1_555 1_555
C17 H12 1_555 1_555
H13 C17 1_555 1_555
C18 C17 1_555 1_555
H14 C18 1_555 1_555
H15 C18 1_555 1_555
C19 C18 1_555 1_555
H16 C19 1_555 1_555
H17 C19 1_555 1_555
H18 C19 1_555 1_555
N1 C8 1_555 1_555
N2 C9 1_555 1_555
N3 C10 1_555 1_555
H19 N3 1_555 1_555
O1 C9 1_555 1_555
C5 C6 1_555 1_555
C10 N2 1_555 1_555
C11 N2 1_555 1_555
C15 C16 1_555 1_555
C17 N3 1_555 1_555

#END
