
#######################################################################
#
#                 Cambridge Crystallographic Data Centre
#                                CCDC 
#
#######################################################################
#
# If this CIF has been generated from an entry in the Cambridge 
# Structural Database, then it will include bibliographic, chemical, 
# crystal, experimental, refinement or atomic coordinate data resulting 
# from the CCDC's data processing and validation procedures.
#
#######################################################################

data_YEFDOE
_chemical_name_common            4HTMPP
_chemical_formula_moiety         'C8 H19 N2 O1 1+,C6 H2 N3 O7 1-'
_chemical_name_systematic        
'4-Hydroxy-2,2,6,6-tetramethylpiperazin-1-ium 2,4,6-trinitrophenolate'
_symmetry_cell_setting           monoclinic
_symmetry_space_group_name_H-M   'P 21/c'
_symmetry_Int_Tables_number      14
_space_group_name_Hall           '-P 2ybc'
loop_
_symmetry_equiv_pos_site_id
_symmetry_equiv_pos_as_xyz
1 x,y,z
2 -x,1/2+y,1/2-z
3 -x,-y,-z
4 x,1/2-y,1/2+z
_cell_length_a                   6.9513(8)
_cell_length_b                   11.8016(14)
_cell_length_c                   22.018(2)
_cell_angle_alpha                90
_cell_angle_beta                 92.575(9)
_cell_angle_gamma                90
_cell_volume                     1804.45
_exptl_crystal_colour            yellow
_exptl_crystal_description       needle
_cell_formula_units_Z            4
_chemical_properties_physical    air-sensitive
_exptl_crystal_preparation       luminescent
loop_
_atom_site_label
_atom_site_type_symbol
_atom_site_fract_x
_atom_site_fract_y
_atom_site_fract_z
O1 O 0.3092(4) 0.6986(2) 0.41922(12)
O2 O 0.4053(8) 0.5370(4) 0.33897(19)
O3 O 0.2248(10) 0.3959(5) 0.3435(2)
O4 O 0.1524(5) 0.2321(3) 0.54149(18)
O5 O 0.1591(5) 0.3405(3) 0.61912(15)
O6 O 0.2074(9) 0.7498(4) 0.5895(2)
O7 O 0.4309(6) 0.7894(3) 0.52919(17)
N1 N 0.3015(6) 0.4747(3) 0.36691(16)
N2 N 0.1726(4) 0.3259(3) 0.56488(18)
N3 N 0.3035(6) 0.7262(3) 0.54745(16)
C1 C 0.2911(4) 0.6128(3) 0.45195(15)
C2 C 0.2734(5) 0.4978(3) 0.43010(15)
C3 C 0.2329(5) 0.4066(3) 0.46575(17)
H1 H 0.2191 0.3348 0.4487
C4 C 0.2128(4) 0.4223(3) 0.52720(16)
C5 C 0.2330(5) 0.5279(3) 0.55276(15)
H2 H 0.2187 0.5374 0.5942
C6 C 0.2738(5) 0.6186(3) 0.51751(15)
O8 O 0.7826(4) 0.9000(4) 0.3366(2)
H3 H 0.8006 0.8352 0.3248
N4 N 0.1862(3) 0.8929(2) 0.34305(11)
H4 H 0.1887 0.8316 0.3674
H5 H 0.0617 0.9121 0.3365
N5 N 0.5824(5) 0.9316(4) 0.3235(2)
C7 C 0.2616(5) 0.8560(4) 0.28222(15)
C8 C 0.2138(8) 0.9461(5) 0.23350(19)
H6 H 0.0768 0.9566 0.2297
H7 H 0.2602 0.9216 0.1952
H8 H 0.2743 1.0164 0.2451
C9 C 0.1535(8) 0.7460(4) 0.2661(2)
H9 H 0.1823 0.6901 0.2969
H10 H 0.1931 0.7185 0.2276
H11 H 0.0174 0.7604 0.2638
C10 C 0.4772(6) 0.8346(4) 0.2930(2)
H12 H 0.4951 0.7673 0.3179
H13 H 0.5334 0.8199 0.2542
C11 C 0.4979(6) 0.9598(4) 0.3834(2)
H14 H 0.5680 1.0233 0.4015
H15 H 0.5161 0.8955 0.4105
C12 C 0.2841(5) 0.9894(3) 0.37858(17)
C13 C 0.1947(8) 0.9888(4) 0.43995(19)
H16 H 0.0606 1.0079 0.4350
H17 H 0.2588 1.0434 0.4661
H18 H 0.2078 0.9148 0.4577
C14 C 0.2436(7) 1.1042(4) 0.3486(2)
H19 H 0.1072 1.1175 0.3460
H20 H 0.2923 1.1043 0.3085
H21 H 0.3057 1.1628 0.3724
loop_
_geom_bond_atom_site_label_1
_geom_bond_atom_site_label_2
_geom_bond_site_symmetry_1
_geom_bond_site_symmetry_2
O1 C1 1_555 1_555
O2 N1 1_555 1_555
O3 N1 1_555 1_555
O4 N2 1_555 1_555
O5 N2 1_555 1_555
O6 N3 1_555 1_555
O7 N3 1_555 1_555
N1 C2 1_555 1_555
N2 C4 1_555 1_555
N3 C6 1_555 1_555
C1 C2 1_555 1_555
C2 C3 1_555 1_555
C3 H1 1_555 1_555
C4 C3 1_555 1_555
C5 C4 1_555 1_555
H2 C5 1_555 1_555
C6 C1 1_555 1_555
O8 H3 1_555 1_555
N4 H4 1_555 1_555
H5 N4 1_555 1_555
N5 O8 1_555 1_555
C7 N4 1_555 1_555
C8 C7 1_555 1_555
H6 C8 1_555 1_555
H7 C8 1_555 1_555
H8 C8 1_555 1_555
C9 C7 1_555 1_555
H9 C9 1_555 1_555
H10 C9 1_555 1_555
H11 C9 1_555 1_555
C10 N5 1_555 1_555
H12 C10 1_555 1_555
H13 C10 1_555 1_555
C11 N5 1_555 1_555
H14 C11 1_555 1_555
H15 C11 1_555 1_555
C12 N4 1_555 1_555
C13 C12 1_555 1_555
H16 C13 1_555 1_555
H17 C13 1_555 1_555
H18 C13 1_555 1_555
C14 C12 1_555 1_555
H19 C14 1_555 1_555
H20 C14 1_555 1_555
H21 C14 1_555 1_555
C5 C6 1_555 1_555
C7 C10 1_555 1_555
C11 C12 1_555 1_555

#END
