
#######################################################################
#
#                 Cambridge Crystallographic Data Centre
#                                CCDC 
#
#######################################################################
#
# If this CIF has been generated from an entry in the Cambridge 
# Structural Database, then it will include bibliographic, chemical, 
# crystal, experimental, refinement or atomic coordinate data resulting 
# from the CCDC's data processing and validation procedures.
#
#######################################################################

data_YEFFIZ
_chemical_formula_moiety         'C7 H7 F1 N2 O4'
_chemical_name_systematic        '5-Fluorouracil-1-propionic acid'
_chemical_properties_biological  
'biological activity; 5-fluorouracil has antitumour activity, but with toxic side effects'
_symmetry_cell_setting           monoclinic
_symmetry_space_group_name_H-M   'C 2/c'
_symmetry_Int_Tables_number      15
_space_group_name_Hall           '-C 2yn'
loop_
_symmetry_equiv_pos_site_id
_symmetry_equiv_pos_as_xyz
1 x,y,z
2 1/2+x,1/2+y,z
3 -x,y,1/2-z
4 1/2-x,1/2+y,1/2-z
5 -x,-y,-z
6 1/2-x,1/2-y,-z
7 x,-y,1/2+z
8 1/2+x,1/2-y,1/2+z
_cell_length_a                   20.279(6)
_cell_length_b                   8.137(2)
_cell_length_c                   13.222(4)
_cell_angle_alpha                90
_cell_angle_beta                 128.673(4)
_cell_angle_gamma                90
_cell_volume                     1703.36
_exptl_crystal_colour            colorless
_exptl_crystal_description       block
_chemical_melting_point          '457-458 K'
_cell_formula_units_Z            8
_exptl_crystal_recrystallization_method ethanol
loop_
_atom_site_label
_atom_site_type_symbol
_atom_site_fract_x
_atom_site_fract_y
_atom_site_fract_z
F1 F -0.11918(9) 0.74550(19) -0.00859(18)
O1 O 0.09860(12) 0.3482(2) 0.23697(17)
O2 O 0.16000(17) 0.3696(3) 0.4480(3)
H1 H 0.130(4) 0.291(6) 0.439(8)
O3 O 0.19940(10) 0.9631(2) 0.30681(17)
O4 O -0.08222(10) 1.0748(2) 0.04855(17)
N1 N 0.10767(11) 0.7502(2) 0.19657(18)
N2 N 0.05845(12) 1.0148(2) 0.18074(19)
H3 H 0.0676(17) 1.110(4) 0.201(3)
C1 C 0.15073(15) 0.4128(3) 0.3432(2)
C2 C 0.20949(14) 0.5458(3) 0.3625(2)
H4 H 0.2185 0.6243 0.4252
H5 H 0.2637 0.4969 0.3982
C3 C 0.17716(14) 0.6360(3) 0.2399(2)
H6 H 0.2233 0.6972 0.2539
H7 H 0.1577 0.5564 0.1718
C4 C 0.12708(14) 0.9128(3) 0.2337(2)
C5 C -0.02572(14) 0.9731(3) 0.0961(2)
C6 C -0.03845(14) 0.7997(3) 0.0698(2)
C7 C 0.02560(14) 0.6967(3) 0.1174(2)
H8 H 0.0145 0.5857 0.0965
H2? H 0.199(3) 0.411(10) 0.520(4)
loop_
_geom_bond_atom_site_label_1
_geom_bond_atom_site_label_2
_geom_bond_site_symmetry_1
_geom_bond_site_symmetry_2
F1 C6 1_555 1_555
O1 C1 1_555 1_555
O2 H1 1_555 1_555
O3 C4 1_555 1_555
O4 C5 1_555 1_555
N1 C3 1_555 1_555
N2 H3 1_555 1_555
C1 O2 1_555 1_555
C2 C1 1_555 1_555
H4 C2 1_555 1_555
H5 C2 1_555 1_555
C3 C2 1_555 1_555
H6 C3 1_555 1_555
H7 C3 1_555 1_555
C4 N1 1_555 1_555
C5 N2 1_555 1_555
C6 C5 1_555 1_555
C7 N1 1_555 1_555
H8 C7 1_555 1_555
N2 C4 1_555 1_555
C6 C7 1_555 1_555

#END
