
#######################################################################
#
#                 Cambridge Crystallographic Data Centre
#                                CCDC 
#
#######################################################################
#
# If this CIF has been generated from an entry in the Cambridge 
# Structural Database, then it will include bibliographic, chemical, 
# crystal, experimental, refinement or atomic coordinate data resulting 
# from the CCDC's data processing and validation procedures.
#
#######################################################################

data_YEFGIC
_chemical_formula_moiety         'C21 H15 Cl1 N4 O5'
_chemical_name_systematic        
2-(3-(3-chlorophenyl)-1-nitro-4-oxo-4-(1H-pyrazol-1-yl)butan-2-yl)-1H-isoindole-1,3(2H)-dione
_symmetry_cell_setting           orthorhombic
_symmetry_space_group_name_H-M   'P 21 21 21'
_symmetry_Int_Tables_number      19
_space_group_name_Hall           'P 2ac 2ab'
loop_
_symmetry_equiv_pos_site_id
_symmetry_equiv_pos_as_xyz
1 x,y,z
2 1/2-x,-y,1/2+z
3 -x,1/2+y,1/2-z
4 1/2+x,1/2-y,-z
_cell_length_a                   10.25900(10)
_cell_length_b                   10.92990(10)
_cell_length_c                   17.7725(2)
_cell_angle_alpha                90
_cell_angle_beta                 90
_cell_angle_gamma                90
_cell_volume                     1992.83
_exptl_crystal_description       block
_chemical_melting_point          '160.1-162.9 deg.C'
_cell_formula_units_Z            4
loop_
_atom_site_label
_atom_site_type_symbol
_atom_site_fract_x
_atom_site_fract_y
_atom_site_fract_z
Cl1 Cl 0.95649(6) 0.51031(9) 0.61763(5)
O1 O 0.2229(2) 0.73903(15) 0.79907(12)
N1 N 0.28872(18) 0.54644(16) 0.76379(10)
O2 O 0.26569(17) 0.59280(16) 0.59842(11)
O3 O 0.5901(2) 0.40310(18) 0.80277(12)
N2 N 0.33150(17) 0.40584(17) 0.56146(10)
N3 N 0.53623(19) 0.48740(18) 0.83422(11)
N4 N 0.4163(2) 0.30948(18) 0.56613(11)
O4 O 0.2902(2) 0.33699(16) 0.74308(14)
O5 O 0.4983(3) 0.4825(2) 0.89880(11)
C1 C 0.4116(2) 0.58874(18) 0.73076(12)
H1 H 0.3945 0.6714 0.7118
C2 C 0.2024(2) 0.6309(2) 0.79577(13)
C3 C 0.5737(2) 0.57030(19) 0.62461(11)
C4 C 0.6953(2) 0.5174(2) 0.63469(12)
H2 H 0.7044 0.4464 0.6630
C5 C 0.34293(19) 0.5101(2) 0.60617(12)
C6 C 0.2379(2) 0.4272(2) 0.76672(13)
C7 C 0.1088(2) 0.4387(2) 0.80423(13)
C8 C 0.0883(2) 0.5597(2) 0.82239(13)
C9 C 0.8028(2) 0.5721(2) 0.60196(14)
C10 C 0.2325(2) 0.3822(3) 0.51187(14)
H3 H 0.1640 0.4343 0.4997
C11 C 0.5157(2) 0.6029(2) 0.79159(13)
H4 H 0.5972 0.6275 0.7684
H5 H 0.4896 0.6670 0.8262
C12 C 0.45451(19) 0.51267(18) 0.66183(11)
H6 H 0.4753 0.4291 0.6777
C13 C 0.5619(3) 0.6773(2) 0.58265(13)
H7 H 0.4807 0.7140 0.5768
C14 C 0.3678(3) 0.2293(2) 0.51901(15)
H8 H 0.4055 0.1534 0.5097
C15 C 0.6704(3) 0.7287(3) 0.54974(16)
H9 H 0.6618 0.7997 0.5213
C16 C 0.7914(3) 0.6764(3) 0.55835(16)
H10 H 0.8642 0.7105 0.5353
C17 C 0.2531(3) 0.2697(3) 0.48406(15)
H11 H 0.2023 0.2278 0.4492
C18 C 0.0179(3) 0.3495(3) 0.82058(15)
H12 H 0.0315 0.2680 0.8076
C19 C -0.0941(3) 0.3868(3) 0.85720(18)
H13 H -0.1578 0.3293 0.8689
C20 C -0.0230(3) 0.5972(3) 0.85890(19)
H14 H -0.0367 0.6789 0.8710
C21 C -0.1135(3) 0.5079(4) 0.8768(2)
H15 H -0.1890 0.5298 0.9025
loop_
_geom_bond_atom_site_label_1
_geom_bond_atom_site_label_2
_geom_bond_site_symmetry_1
_geom_bond_site_symmetry_2
Cl1 C9 1_555 1_555
O1 C2 1_555 1_555
N1 C1 1_555 1_555
O2 C5 1_555 1_555
O3 N3 1_555 1_555
N2 N4 1_555 1_555
N3 O5 1_555 1_555
N4 C14 1_555 1_555
O4 C6 1_555 1_555
C1 H1 1_555 1_555
C2 N1 1_555 1_555
C3 C4 1_555 1_555
C4 H2 1_555 1_555
C5 N2 1_555 1_555
C6 N1 1_555 1_555
C7 C6 1_555 1_555
C8 C2 1_555 1_555
C9 C4 1_555 1_555
C10 N2 1_555 1_555
H3 C10 1_555 1_555
C11 N3 1_555 1_555
H4 C11 1_555 1_555
H5 C11 1_555 1_555
C12 C1 1_555 1_555
H6 C12 1_555 1_555
C13 C3 1_555 1_555
H7 C13 1_555 1_555
C14 H8 1_555 1_555
C15 C13 1_555 1_555
H9 C15 1_555 1_555
C16 C9 1_555 1_555
H10 C16 1_555 1_555
C17 C10 1_555 1_555
H11 C17 1_555 1_555
C18 C7 1_555 1_555
H12 C18 1_555 1_555
C19 C18 1_555 1_555
H13 C19 1_555 1_555
C20 C8 1_555 1_555
H14 C20 1_555 1_555
C21 C19 1_555 1_555
H15 C21 1_555 1_555
C1 C11 1_555 1_555
C3 C12 1_555 1_555
C5 C12 1_555 1_555
C7 C8 1_555 1_555
C14 C17 1_555 1_555
C15 C16 1_555 1_555
C20 C21 1_555 1_555

#END
