
#######################################################################
#
#                 Cambridge Crystallographic Data Centre
#                                CCDC 
#
#######################################################################
#
# If this CIF has been generated from an entry in the Cambridge 
# Structural Database, then it will include bibliographic, chemical, 
# crystal, experimental, refinement or atomic coordinate data resulting 
# from the CCDC's data processing and validation procedures.
#
#######################################################################

data_YEFHAV
_chemical_compound_source        
'culture of endophytic fungus Nectria pseudotrichia 120-1NP'
_chemical_name_common            'Nectrianolin A'
_chemical_formula_moiety         'C22 H32 O5'
_chemical_name_systematic        
5-hydroxy-4-(hydroxymethyl)-1-[1-hydroxy-3-methyl-5-(1,2,6-trimethylcyclohex-2-en-1-yl)pent-2-en-1-yl]-7-oxabicyclo[4.1.0]hept-3-en-2-one
_chemical_properties_biological  'cytotoxic activity'
_symmetry_cell_setting           orthorhombic
_symmetry_space_group_name_H-M   'P 21 21 21'
_symmetry_Int_Tables_number      19
_space_group_name_Hall           'P 2ac 2ab'
loop_
_symmetry_equiv_pos_site_id
_symmetry_equiv_pos_as_xyz
1 x,y,z
2 1/2-x,-y,1/2+z
3 1/2+x,1/2-y,-z
4 -x,1/2+y,1/2-z
_cell_length_a                   8.4487(7)
_cell_length_b                   9.8313(9)
_cell_length_c                   24.200(2)
_cell_angle_alpha                90
_cell_angle_beta                 90
_cell_angle_gamma                90
_cell_volume                     2010.09
_exptl_crystal_colour            colorless
_exptl_crystal_description       platelet
_cell_formula_units_Z            4
_exptl_crystal_recrystallization_method methanol
loop_
_atom_site_label
_atom_site_type_symbol
_atom_site_fract_x
_atom_site_fract_y
_atom_site_fract_z
O1 O 0.7816(3) 0.3080(2) 0.47641(9)
H1 H 0.8181 0.2742 0.4472
O2 O 0.9086(3) 0.0731(2) 0.42903(9)
O3 O 0.6497(3) 0.0493(2) 0.53972(9)
O4 O 0.9625(3) -0.1781(2) 0.59483(10)
H2 H 0.9669 -0.1424 0.6263
O5 O 0.7322(4) -0.4130(2) 0.46352(11)
H3 H 0.6482 -0.3757 0.4528
C1 C 0.8063(3) 0.0876(3) 0.52005(11)
C2 C 0.8483(4) 0.2377(3) 0.52372(12)
H4 H 0.9660 0.2485 0.5237
C3 C 0.7808(4) 0.3008(3) 0.57507(12)
H5 H 0.6689 0.2983 0.5787
C4 C 0.8210(4) -0.1358(3) 0.46725(14)
H6 H 0.8148 -0.1809 0.4326
C5 C 0.5466(3) 0.5742(3) 0.74128(11)
H7 H 0.5488 0.4728 0.7385
C6 C 0.7730(4) 0.4115(3) 0.66639(12)
H8 H 0.8228 0.3731 0.7000
H9 H 0.6625 0.3780 0.6649
C7 C 0.7166(4) 0.6248(3) 0.72782(12)
C8 C 0.7224(4) 0.7811(3) 0.72316(15)
H10 H 0.6513 0.8111 0.6936
H11 H 0.8308 0.8100 0.7147
H12 H 0.6889 0.8217 0.7582
C9 C 0.8148(4) -0.1471(3) 0.57000(13)
H13 H 0.7308 -0.1899 0.5934
C10 C 0.7850(4) 0.0041(3) 0.57020(12)
H14 H 0.8045 0.0515 0.6061
C11 C 0.7706(4) 0.5670(3) 0.67126(12)
H15 H 0.6995 0.6034 0.6423
H16 H 0.8784 0.6014 0.6634
C12 C 0.8609(4) 0.3600(3) 0.61620(12)
C13 C 0.8511(3) 0.0124(3) 0.46790(12)
C14 C 0.8020(4) -0.2091(3) 0.51321(14)
C15 C 0.8282(4) 0.5814(3) 0.77414(15)
C16 C 0.7747(6) -0.3607(3) 0.51508(15)
H17 H 0.8725 -0.4063 0.5279
H18 H 0.6898 -0.3809 0.5420
C17 C 0.4191(4) 0.6236(4) 0.70123(16)
H19 H 0.4499 0.6005 0.6633
H20 H 0.4075 0.7224 0.7046
H21 H 0.3182 0.5795 0.7101
C18 C 0.6084(5) 0.5356(4) 0.84133(14)
H22 H 0.5972 0.5777 0.8783
H23 H 0.5752 0.4393 0.8443
C19 C 1.0034(5) 0.5901(5) 0.76237(19)
H24 H 1.0198 0.6208 0.7243
H25 H 1.0516 0.5002 0.7673
H26 H 1.0526 0.6548 0.7879
C20 C 0.5018(4) 0.6083(4) 0.80088(14)
H27 H 0.5103 0.7078 0.8067
H28 H 0.3906 0.5815 0.8076
C21 C 0.7783(5) 0.5418(4) 0.82377(15)
H29 H 0.8562 0.5154 0.8500
C22 C 1.0373(4) 0.3787(4) 0.61672(16)
H30 H 1.0690 0.4238 0.6511
H31 H 1.0690 0.4347 0.5851
H32 H 1.0890 0.2896 0.6143
loop_
_geom_bond_atom_site_label_1
_geom_bond_atom_site_label_2
_geom_bond_site_symmetry_1
_geom_bond_site_symmetry_2
O1 H1 1_555 1_555
O2 C13 1_555 1_555
O3 C1 1_555 1_555
O4 H2 1_555 1_555
O5 H3 1_555 1_555
C1 C2 1_555 1_555
C2 O1 1_555 1_555
H4 C2 1_555 1_555
C3 C2 1_555 1_555
H5 C3 1_555 1_555
C4 H6 1_555 1_555
C5 H7 1_555 1_555
C6 H8 1_555 1_555
H9 C6 1_555 1_555
C7 C5 1_555 1_555
C8 C7 1_555 1_555
H10 C8 1_555 1_555
H11 C8 1_555 1_555
H12 C8 1_555 1_555
C9 O4 1_555 1_555
H13 C9 1_555 1_555
C10 O3 1_555 1_555
H14 C10 1_555 1_555
C11 C6 1_555 1_555
H15 C11 1_555 1_555
H16 C11 1_555 1_555
C12 C3 1_555 1_555
C13 C1 1_555 1_555
C14 C4 1_555 1_555
C15 C7 1_555 1_555
C16 O5 1_555 1_555
H17 C16 1_555 1_555
H18 C16 1_555 1_555
C17 C5 1_555 1_555
H19 C17 1_555 1_555
H20 C17 1_555 1_555
H21 C17 1_555 1_555
C18 H22 1_555 1_555
H23 C18 1_555 1_555
C19 C15 1_555 1_555
H24 C19 1_555 1_555
H25 C19 1_555 1_555
H26 C19 1_555 1_555
C20 C5 1_555 1_555
H27 C20 1_555 1_555
H28 C20 1_555 1_555
C21 C15 1_555 1_555
H29 C21 1_555 1_555
C22 C12 1_555 1_555
H30 C22 1_555 1_555
H31 C22 1_555 1_555
H32 C22 1_555 1_555
C1 C10 1_555 1_555
C4 C13 1_555 1_555
C6 C12 1_555 1_555
C7 C11 1_555 1_555
C9 C10 1_555 1_555
C9 C14 1_555 1_555
C14 C16 1_555 1_555
C18 C20 1_555 1_555
C18 C21 1_555 1_555

#END
