
#######################################################################
#
#                 Cambridge Crystallographic Data Centre
#                                CCDC 
#
#######################################################################
#
# If this CIF has been generated from an entry in the Cambridge 
# Structural Database, then it will include bibliographic, chemical, 
# crystal, experimental, refinement or atomic coordinate data resulting 
# from the CCDC's data processing and validation procedures.
#
#######################################################################

data_YEFKOL
_chemical_formula_moiety         'C26 H24 Ca1 N4 O10,H2 O1'
_chemical_name_systematic        
"Tetra-aqua-(3,3'-diazene-1,2-diylbis(6-hydroxybenzoato))-(1,10-phenanthroline)-calcium monohydrate"
_symmetry_cell_setting           triclinic
_symmetry_space_group_name_H-M   'P -1'
_symmetry_Int_Tables_number      2
_space_group_name_Hall           '-P 1'
loop_
_symmetry_equiv_pos_site_id
_symmetry_equiv_pos_as_xyz
1 x,y,z
2 -x,-y,-z
_cell_length_a                   8.001(3)
_cell_length_b                   11.245(4)
_cell_length_c                   15.129(6)
_cell_angle_alpha                89.450(6)
_cell_angle_beta                 86.297(6)
_cell_angle_gamma                77.633(6)
_cell_volume                     1326.8
_cell_formula_units_Z            2
loop_
_atom_site_label
_atom_site_type_symbol
_atom_site_fract_x
_atom_site_fract_y
_atom_site_fract_z
Ca1 Ca -0.03015(7) 0.73847(5) 0.42191(3)
O1 O 0.6262(3) 1.29657(18) 0.36907(15)
O2 O -0.2526(3) 0.89515(19) 0.48395(15)
H1 H -0.2872 0.9662 0.4624
H2 H -0.3380 0.8773 0.5150
O3 O 0.5700(3) 1.32078(19) 0.20837(18)
H3 H 0.5982 1.3376 0.2571
O4 O 0.0635(3) 0.6917(2) 0.56347(13)
H4 H 0.0056 0.6609 0.6030
H5 H 0.1617 0.6913 0.5812
O5 O 0.1175(3) 0.40512(18) 0.12323(15)
H6 H 0.1060 0.3742 0.1720
O6 O 0.2394(3) 0.80733(19) 0.41939(14)
H7 H 0.3060 0.8185 0.4594
H8 H 0.2673 0.8405 0.3713
O7 O 0.1195(3) 0.38588(17) 0.29234(13)
O8 O -0.2253(3) 0.6229(2) 0.48658(14)
H9 H -0.1474 0.5582 0.4829
H10 H -0.3300 0.6454 0.5045
O9 O 0.1449(3) 0.54491(16) 0.37274(12)
O10 O 0.5817(3) 1.13374(17) 0.44454(13)
N1 N 0.3389(3) 0.8392(2) 0.14710(15)
N2 N -0.1770(3) 0.7094(2) 0.28051(15)
N3 N 0.3709(3) 0.87688(19) 0.22098(14)
N4 N -0.0532(3) 0.9151(2) 0.30667(14)
C1 C -0.2028(4) 0.8456(3) 0.0563(2)
H11 H -0.2292 0.8275 -0.0003
C2 C -0.0025(4) 1.1071(3) 0.2546(2)
H12 H 0.0312 1.1790 0.2671
C3 C -0.1542(4) 0.9499(3) 0.0706(2)
H13 H -0.1528 1.0046 0.0242
C4 C -0.2767(4) 0.6563(3) 0.1147(2)
H14 H -0.3091 0.6376 0.0594
C5 C -0.0507(4) 1.0869(3) 0.1729(2)
H15 H -0.0479 1.1442 0.1284
C6 C -0.2893(4) 0.5802(3) 0.1848(2)
H16 H -0.3310 0.5099 0.1783
C7 C -0.2378(4) 0.6110(3) 0.2656(2)
H17 H -0.2468 0.5589 0.3129
C8 C 0.4267(4) 1.0568(2) 0.13673(19)
H18 H 0.3960 1.0262 0.0847
C9 C 0.4742(4) 1.1665(3) 0.1361(2)
H19 H 0.4750 1.2101 0.0836
C10 C 0.5793(4) 1.1949(2) 0.3747(2)
C11 C 0.1910(4) 0.5799(3) 0.05757(19)
H20 H 0.1673 0.5542 0.0024
C12 C 0.4243(3) 0.9898(2) 0.21520(17)
C13 C 0.2475(4) 0.6866(3) 0.06562(19)
H21 H 0.2624 0.7323 0.0153
C14 C -0.0040(4) 1.0184(2) 0.3201(2)
H22 H 0.0312 1.0326 0.3757
C15 C -0.1044(4) 0.9796(2) 0.15541(18)
C16 C 0.1701(4) 0.5104(2) 0.13291(19)
C17 C -0.1673(3) 0.7857(2) 0.21120(17)
C18 C 0.4723(3) 1.0360(2) 0.29160(18)
H23 H 0.4707 0.9918 0.3438
C19 C 0.2822(3) 0.7275(2) 0.14729(17)
C20 C -0.2150(4) 0.7617(2) 0.12634(18)
C21 C 0.5231(3) 1.1476(2) 0.29239(18)
C22 C 0.5212(4) 1.2136(2) 0.2128(2)
C23 C 0.1980(3) 0.5530(2) 0.21672(17)
C24 C 0.1526(4) 0.4893(2) 0.29992(18)
C25 C -0.1062(3) 0.8955(2) 0.22583(17)
C26 C 0.2576(3) 0.6592(2) 0.22212(17)
H24 H 0.2819 0.6854 0.2770
O11 O 0.4991(6) 0.5554(4) 0.4166(3)
H25 H 0.4759 0.5401 0.4736
H26 H 0.4703 0.6464 0.4132
loop_
_geom_bond_atom_site_label_1
_geom_bond_atom_site_label_2
_geom_bond_site_symmetry_1
_geom_bond_site_symmetry_2
Ca1 O2 1_555 1_555
O1 C10 1_555 1_555
O2 H1 1_555 1_555
H2 O2 1_555 1_555
O3 H3 1_555 1_555
O4 Ca1 1_555 1_555
H4 O4 1_555 1_555
H5 O4 1_555 1_555
O5 H6 1_555 1_555
O6 Ca1 1_555 1_555
H7 O6 1_555 1_555
H8 O6 1_555 1_555
O7 C24 1_555 1_555
O8 Ca1 1_555 1_555
H9 O8 1_555 1_555
H10 O8 1_555 1_555
O9 Ca1 1_555 1_555
O10 C10 1_555 1_555
N1 N3 1_555 1_555
N2 Ca1 1_555 1_555
N3 C12 1_555 1_555
N4 Ca1 1_555 1_555
C1 H11 1_555 1_555
C2 H12 1_555 1_555
C3 C1 1_555 1_555
H13 C3 1_555 1_555
C4 H14 1_555 1_555
C5 C2 1_555 1_555
H15 C5 1_555 1_555
C6 C4 1_555 1_555
H16 C6 1_555 1_555
C7 N2 1_555 1_555
H17 C7 1_555 1_555
C8 H18 1_555 1_555
C9 C8 1_555 1_555
H19 C9 1_555 1_555
C10 C21 1_555 1_555
C11 H20 1_555 1_555
C12 C8 1_555 1_555
C13 C11 1_555 1_555
H21 C13 1_555 1_555
C14 N4 1_555 1_555
H22 C14 1_555 1_555
C15 C3 1_555 1_555
C16 O5 1_555 1_555
C17 N2 1_555 1_555
C18 C12 1_555 1_555
H23 C18 1_555 1_555
C19 N1 1_555 1_555
C20 C1 1_555 1_555
C21 C18 1_555 1_555
C22 O3 1_555 1_555
C23 C16 1_555 1_555
C24 O9 1_555 1_555
C25 N4 1_555 1_555
C26 C19 1_555 1_555
H24 C26 1_555 1_555
O11 H25 1_555 1_555
H26 O11 1_555 1_555
C2 C14 1_555 1_555
C4 C20 1_555 1_555
C5 C15 1_555 1_555
C6 C7 1_555 1_555
C9 C22 1_555 1_555
C11 C16 1_555 1_555
C13 C19 1_555 1_555
C15 C25 1_555 1_555
C17 C20 1_555 1_555
C17 C25 1_555 1_555
C21 C22 1_555 1_555
C23 C24 1_555 1_555
C23 C26 1_555 1_555

#END
