
#######################################################################
#
#                 Cambridge Crystallographic Data Centre
#                                CCDC 
#
#######################################################################
#
# If this CIF has been generated from an entry in the Cambridge 
# Structural Database, then it will include bibliographic, chemical, 
# crystal, experimental, refinement or atomic coordinate data resulting 
# from the CCDC's data processing and validation procedures.
#
#######################################################################

data_YEFNEE01
_chemical_formula_moiety         'C96 Cl22'
_chemical_name_systematic        Docosachloro-C96fullerene
_symmetry_cell_setting           monoclinic
_symmetry_space_group_name_H-M   'P 21/c'
_symmetry_Int_Tables_number      14
_space_group_name_Hall           '-P 2ybc'
loop_
_symmetry_equiv_pos_site_id
_symmetry_equiv_pos_as_xyz
1 x,y,z
2 -x,1/2+y,1/2-z
3 -x,-y,-z
4 x,1/2-y,1/2+z
_cell_length_a                   20.2920(10)
_cell_length_b                   14.5560(10)
_cell_length_c                   22.9140(10)
_cell_angle_alpha                90
_cell_angle_beta                 99.041(9)
_cell_angle_gamma                90
_cell_volume                     6684.03
_exptl_crystal_colour            orange
_exptl_crystal_description       block
_cell_formula_units_Z            4
loop_
_atom_site_label
_atom_site_type_symbol
_atom_site_fract_x
_atom_site_fract_y
_atom_site_fract_z
Cl1 Cl 0.01544(6) 0.59859(10) 0.74502(6)
Cl2 Cl 0.00202(6) 0.77827(10) 0.68065(6)
Cl3 Cl 0.05496(7) 0.77589(10) 0.37103(5)
Cl4 Cl 0.08735(7) 0.59536(10) 0.32056(5)
Cl5 Cl 0.07130(6) 0.20734(9) 0.53775(6)
Cl6 Cl 0.11603(7) 0.41838(10) 0.80868(5)
Cl7 Cl 0.06839(7) 0.96204(10) 0.61947(6)
Cl8 Cl 0.09442(7) 0.96007(10) 0.46041(6)
Cl9 Cl 0.19784(7) 0.40943(10) 0.31633(5)
Cl10 Cl 0.18841(6) 0.20231(9) 0.42372(6)
Cl11 Cl 0.13886(7) 0.20526(9) 0.70294(6)
Cl12 Cl 0.31707(7) 0.44400(10) 0.85808(5)
Cl13 Cl 0.25978(7) 1.03783(9) 0.67707(6)
Cl14 Cl 0.28784(7) 1.03681(10) 0.50356(6)
Cl15 Cl 0.39220(6) 0.43390(10) 0.36802(5)
Cl16 Cl 0.38344(6) 0.21449(9) 0.47324(6)
Cl17 Cl 0.33510(7) 0.21729(10) 0.75805(6)
Cl18 Cl 0.36713(7) 0.85900(10) 0.80616(5)
Cl19 Cl 0.43340(7) 0.96586(10) 0.71674(6)
Cl20 Cl 0.46085(7) 0.96347(10) 0.55460(6)
Cl21 Cl 0.42558(7) 0.85824(10) 0.43867(6)
Cl22 Cl 0.45242(7) 0.22136(10) 0.64220(7)
C1 C 0.0639(2) 0.6257(4) 0.5684(2)
C2 C 0.0742(2) 0.6247(4) 0.5070(2)
C3 C 0.0846(2) 0.5375(4) 0.4785(2)
C4 C 0.0790(2) 0.4573(4) 0.5095(2)
C5 C 0.0691(2) 0.4576(4) 0.5700(2)
C6 C 0.0644(2) 0.5391(4) 0.6007(2)
C7 C 0.0821(3) 0.5347(4) 0.6633(2)
C8 C 0.0806(2) 0.6191(4) 0.7017(2)
C9 C 0.0737(2) 0.7138(4) 0.6673(2)
C10 C 0.0708(2) 0.7084(4) 0.6001(2)
C11 C 0.0896(2) 0.7881(4) 0.5729(2)
C12 C 0.0993(2) 0.7873(4) 0.5146(2)
C13 C 0.0909(2) 0.7070(4) 0.4810(2)
C14 C 0.1148(2) 0.7113(4) 0.4208(2)
C15 C 0.1318(2) 0.6154(4) 0.3939(2)
C16 C 0.1203(3) 0.5314(4) 0.4301(2)
C17 C 0.1552(3) 0.4525(4) 0.4219(2)
C18 C 0.1526(3) 0.3723(4) 0.4577(2)
C19 C 0.1104(3) 0.3750(4) 0.4989(2)
C20 C 0.1183(2) 0.3136(3) 0.5517(2)
C21 C 0.0941(3) 0.3756(4) 0.5969(2)
C22 C 0.1202(3) 0.3762(4) 0.6560(2)
C23 C 0.1121(3) 0.4554(4) 0.6893(2)
C24 C 0.1577(3) 0.4561(4) 0.7489(2)
C25 C 0.1859(3) 0.5510(5) 0.7599(3)
C26 C 0.1479(3) 0.6257(4) 0.7395(2)
C27 C 0.1793(2) 0.7082(4) 0.7312(2)
C28 C 0.1383(2) 0.7643(4) 0.6906(2)
C29 C 0.1653(2) 0.8349(4) 0.6625(2)
C30 C 0.1245(2) 0.8694(4) 0.6061(2)
C31 C 0.1681(3) 0.9003(3) 0.5626(2)
C32 C 0.1419(3) 0.8684(4) 0.5014(2)
C33 C 0.1963(3) 0.8331(4) 0.4703(2)
C34 C 0.1809(2) 0.7606(4) 0.4321(2)
C35 C 0.2319(3) 0.7044(4) 0.4163(2)
C36 C 0.2055(3) 0.6210(4) 0.3937(2)
C37 C 0.2461(3) 0.5455(4) 0.3945(3)
C38 C 0.2168(3) 0.4528(4) 0.3907(2)
C39 C 0.2488(5) 0.3713(8) 0.4287(4)
C40 C 0.2101(3) 0.3076(4) 0.4643(3)
C41 C 0.2340(3) 0.2887(4) 0.5295(3)
C42 C 0.1914(3) 0.2908(4) 0.5714(3)
C43 C 0.2173(3) 0.2914(4) 0.6310(3)
C44 C 0.1744(3) 0.3102(4) 0.6784(2)
C45 C 0.2361(6) 0.3428(8) 0.7207(5)
C46 C 0.2295(7) 0.4153(8) 0.7551(5)
C47 C 0.2925(3) 0.4697(4) 0.7802(2)
C48 C 0.2559(3) 0.5591(5) 0.7723(2)
C49 C 0.2887(3) 0.6421(4) 0.7643(2)
C50 C 0.2493(2) 0.7201(4) 0.7433(2)
C51 C 0.2760(2) 0.7990(4) 0.7179(2)
C52 C 0.2345(2) 0.8541(4) 0.6784(2)
C53 C 0.2645(3) 0.9258(4) 0.6424(2)
C54 C 0.2308(3) 0.9257(3) 0.5793(2)
C55 C 0.2814(3) 0.9253(4) 0.5376(2)
C56 C 0.2658(3) 0.8525(4) 0.4907(2)
C57 C 0.3162(3) 0.7965(4) 0.4758(2)
C58 C 0.2994(3) 0.7166(4) 0.4398(2)
C59 C 0.3419(3) 0.6375(4) 0.4412(2)
C60 C 0.3146(3) 0.5548(5) 0.4180(3)
C61 C 0.3496(3) 0.4651(4) 0.4306(3)
C62 C 0.3150(6) 0.3778(9) 0.4469(4)
C63 C 0.3445(3) 0.3158(4) 0.4997(3)
C64 C 0.3029(3) 0.2924(4) 0.5475(3)
C65 C 0.3290(3) 0.2957(4) 0.6071(3)
C66 C 0.2857(3) 0.2935(4) 0.6493(3)
C67 C 0.3082(3) 0.3178(4) 0.7136(3)
C68 C 0.3628(3) 0.3882(4) 0.7190(2)
C69 C 0.3527(3) 0.4700(4) 0.7490(2)
C70 C 0.3854(3) 0.5523(4) 0.7385(2)
C71 C 0.3576(2) 0.6396(4) 0.7529(2)
C72 C 0.3840(2) 0.7182(4) 0.7333(2)
C73 C 0.3511(2) 0.8111(4) 0.7326(2)
C74 C 0.3845(3) 0.8684(4) 0.6853(2)
C75 C 0.3340(2) 0.9025(3) 0.6359(2)
C76 C 0.3435(3) 0.9019(4) 0.5790(2)
C77 C 0.4050(3) 0.8676(4) 0.5587(2)
C78 C 0.3894(3) 0.8094(4) 0.4995(2)
C79 C 0.4206(2) 0.7163(4) 0.5161(2)
C80 C 0.4021(2) 0.6366(4) 0.4857(2)
C81 C 0.4227(3) 0.5495(4) 0.5133(2)
C82 C 0.3968(3) 0.4663(4) 0.4882(2)
C83 C 0.3957(3) 0.3855(4) 0.5215(2)
C84 C 0.4240(3) 0.3857(4) 0.5803(2)
C85 C 0.4012(2) 0.3231(4) 0.6265(2)
C86 C 0.4074(3) 0.3867(4) 0.6793(2)
C87 C 0.4395(2) 0.4677(4) 0.6674(2)
C88 C 0.4308(2) 0.5512(4) 0.6962(2)
C89 C 0.4485(2) 0.6327(4) 0.6693(2)
C90 C 0.4299(2) 0.7170(4) 0.6922(2)
C91 C 0.4277(2) 0.7994(4) 0.6615(2)
C92 C 0.4372(2) 0.7992(4) 0.6031(2)
C93 C 0.4489(2) 0.7152(4) 0.5764(2)
C94 C 0.4583(2) 0.6327(4) 0.6078(2)
C95 C 0.4506(2) 0.5491(4) 0.5746(2)
C96 C 0.4496(2) 0.4669(4) 0.6064(2)
C97? C 0.2845(7) 0.4102(10) 0.4235(5)
C98? C 0.1997(6) 0.3767(9) 0.7320(5)
C99? C 0.2642(6) 0.3810(9) 0.7472(5)
C100? C 0.2810(7) 0.3419(8) 0.4558(5)
loop_
_geom_bond_atom_site_label_1
_geom_bond_atom_site_label_2
_geom_bond_site_symmetry_1
_geom_bond_site_symmetry_2
Cl1 C8 1_555 1_555
Cl2 C9 1_555 1_555
Cl3 C14 1_555 1_555
Cl4 C15 1_555 1_555
Cl5 C20 1_555 1_555
Cl6 C24 1_555 1_555
Cl7 C30 1_555 1_555
Cl8 C32 1_555 1_555
Cl9 C38 1_555 1_555
Cl10 C40 1_555 1_555
Cl11 C44 1_555 1_555
Cl12 C47 1_555 1_555
Cl13 C53 1_555 1_555
Cl14 C55 1_555 1_555
Cl15 C61 1_555 1_555
Cl16 C63 1_555 1_555
Cl17 C67 1_555 1_555
Cl18 C73 1_555 1_555
Cl19 C74 1_555 1_555
Cl20 C77 1_555 1_555
Cl21 C78 1_555 1_555
Cl22 C85 1_555 1_555
C1 C2 1_555 1_555
C2 C3 1_555 1_555
C3 C4 1_555 1_555
C4 C5 1_555 1_555
C5 C6 1_555 1_555
C6 C1 1_555 1_555
C7 C6 1_555 1_555
C8 C7 1_555 1_555
C9 C8 1_555 1_555
C10 C1 1_555 1_555
C11 C10 1_555 1_555
C12 C11 1_555 1_555
C13 C2 1_555 1_555
C14 C13 1_555 1_555
C15 C14 1_555 1_555
C16 C3 1_555 1_555
C17 C16 1_555 1_555
C18 C17 1_555 1_555
C19 C4 1_555 1_555
C20 C19 1_555 1_555
C21 C5 1_555 1_555
C22 C21 1_555 1_555
C23 C7 1_555 1_555
C24 C23 1_555 1_555
C25 C24 1_555 1_555
C26 C8 1_555 1_555
C27 C26 1_555 1_555
C28 C9 1_555 1_555
C29 C28 1_555 1_555
C30 C11 1_555 1_555
C31 C30 1_555 1_555
C32 C12 1_555 1_555
C33 C32 1_555 1_555
C34 C14 1_555 1_555
C35 C34 1_555 1_555
C36 C15 1_555 1_555
C37 C36 1_555 1_555
C38 C17 1_555 1_555
C39 C38 1_555 1_555
C40 C18 1_555 1_555
C41 C40 1_555 1_555
C42 C20 1_555 1_555
C43 C42 1_555 1_555
C44 C22 1_555 1_555
C45 C44 1_555 1_555
C46 C24 1_555 1_555
C47 C46 1_555 1_555
C48 C25 1_555 1_555
C49 C48 1_555 1_555
C50 C27 1_555 1_555
C51 C50 1_555 1_555
C52 C29 1_555 1_555
C53 C52 1_555 1_555
C54 C31 1_555 1_555
C55 C54 1_555 1_555
C56 C33 1_555 1_555
C57 C56 1_555 1_555
C58 C35 1_555 1_555
C59 C58 1_555 1_555
C60 C37 1_555 1_555
C61 C60 1_555 1_555
C62 C39 1_555 1_555
C63 C62 1_555 1_555
C64 C41 1_555 1_555
C65 C64 1_555 1_555
C66 C43 1_555 1_555
C67 C45 1_555 1_555
C68 C67 1_555 1_555
C69 C47 1_555 1_555
C70 C69 1_555 1_555
C71 C49 1_555 1_555
C72 C71 1_555 1_555
C73 C51 1_555 1_555
C74 C73 1_555 1_555
C75 C53 1_555 1_555
C76 C55 1_555 1_555
C77 C76 1_555 1_555
C78 C57 1_555 1_555
C79 C78 1_555 1_555
C80 C59 1_555 1_555
C81 C80 1_555 1_555
C82 C61 1_555 1_555
C83 C63 1_555 1_555
C84 C83 1_555 1_555
C85 C65 1_555 1_555
C86 C68 1_555 1_555
C87 C86 1_555 1_555
C88 C70 1_555 1_555
C89 C88 1_555 1_555
C90 C72 1_555 1_555
C91 C74 1_555 1_555
C92 C77 1_555 1_555
C93 C79 1_555 1_555
C94 C89 1_555 1_555
C95 C81 1_555 1_555
C96 C84 1_555 1_555
C9 C10 1_555 1_555
C12 C13 1_555 1_555
C15 C16 1_555 1_555
C18 C19 1_555 1_555
C20 C21 1_555 1_555
C22 C23 1_555 1_555
C25 C26 1_555 1_555
C27 C28 1_555 1_555
C29 C30 1_555 1_555
C31 C32 1_555 1_555
C33 C34 1_555 1_555
C35 C36 1_555 1_555
C37 C38 1_555 1_555
C39 C40 1_555 1_555
C41 C42 1_555 1_555
C43 C44 1_555 1_555
C45 C46 1_555 1_555
C47 C48 1_555 1_555
C49 C50 1_555 1_555
C51 C52 1_555 1_555
C53 C54 1_555 1_555
C55 C56 1_555 1_555
C57 C58 1_555 1_555
C59 C60 1_555 1_555
C61 C62 1_555 1_555
C63 C64 1_555 1_555
C65 C66 1_555 1_555
C66 C67 1_555 1_555
C68 C69 1_555 1_555
C70 C71 1_555 1_555
C72 C73 1_555 1_555
C74 C75 1_555 1_555
C75 C76 1_555 1_555
C77 C78 1_555 1_555
C79 C80 1_555 1_555
C81 C82 1_555 1_555
C82 C83 1_555 1_555
C84 C85 1_555 1_555
C85 C86 1_555 1_555
C87 C88 1_555 1_555
C87 C96 1_555 1_555
C89 C90 1_555 1_555
C90 C91 1_555 1_555
C91 C92 1_555 1_555
C92 C93 1_555 1_555
C93 C94 1_555 1_555
C94 C95 1_555 1_555
C95 C96 1_555 1_555

#END
