
#######################################################################
#
#                 Cambridge Crystallographic Data Centre
#                                CCDC 
#
#######################################################################
#
# If this CIF has been generated from an entry in the Cambridge 
# Structural Database, then it will include bibliographic, chemical, 
# crystal, experimental, refinement or atomic coordinate data resulting 
# from the CCDC's data processing and validation procedures.
#
#######################################################################

data_YEFSOU
_chemical_formula_moiety         'C17 H12 O4'
_chemical_name_systematic        '4-methyl-2-oxo-2H-chromen-6-yl benzoate'
_symmetry_cell_setting           monoclinic
_symmetry_space_group_name_H-M   'P c'
_symmetry_Int_Tables_number      7
_space_group_name_Hall           'P -2yc'
loop_
_symmetry_equiv_pos_site_id
_symmetry_equiv_pos_as_xyz
1 x,y,z
2 x,-y,1/2+z
_cell_length_a                   13.1267(4)
_cell_length_b                   3.86890(10)
_cell_length_c                   12.7810(4)
_cell_angle_alpha                90
_cell_angle_beta                 93.9450(10)
_cell_angle_gamma                90
_cell_volume                     647.556
_exptl_crystal_colour            colorless
_exptl_crystal_description       block
_cell_formula_units_Z            2
loop_
_atom_site_label
_atom_site_type_symbol
_atom_site_fract_x
_atom_site_fract_y
_atom_site_fract_z
O1 O 0.41966(11) 0.2350(4) 0.62586(12)
O2 O 0.39313(10) 0.4590(4) 0.46263(11)
O3 O 0.75676(10) 0.0374(4) 0.31227(10)
O4 O 0.92507(11) 0.0162(4) 0.31398(11)
C1 C 0.26519(14) 0.5447(5) 0.58054(15)
C2 C 0.23221(16) 0.5316(5) 0.68184(17)
H1 H 0.2745 0.4302 0.7369
C3 C 0.13758(16) 0.6668(5) 0.70232(18)
H2 H 0.1152 0.6600 0.7714
C4 C 0.07567(15) 0.8125(5) 0.62083(19)
H3 H 0.0111 0.9061 0.6347
C5 C 0.10751(15) 0.8218(6) 0.52006(18)
H4 H 0.0645 0.9188 0.4649
C6 C 0.20241(15) 0.6896(5) 0.49942(17)
H5 H 0.2246 0.6977 0.4303
C7 C 0.36663(14) 0.3955(5) 0.56256(16)
C8 C 0.48813(15) 0.3427(5) 0.43261(16)
C9 C 0.48644(14) 0.1713(5) 0.33684(15)
H6 H 0.4233 0.1223 0.2989
C10 C 0.57776(15) 0.0724(5) 0.29722(15)
H7 H 0.5782 -0.0433 0.2317
C11 C 0.66847(15) 0.1458(5) 0.35517(16)
C12 C 0.67114(15) 0.3178(5) 0.45138(15)
C13 C 0.57783(16) 0.4179(5) 0.48988(16)
H8 H 0.5768 0.5365 0.5549
C14 C 0.85221(15) 0.1115(5) 0.35916(16)
C15 C 0.85511(15) 0.2920(5) 0.45850(15)
H9 H 0.9198 0.3467 0.4924
C16 C 0.77042(14) 0.3863(5) 0.50514(14)
C17 C 0.77574(15) 0.5552(5) 0.61086(16)
H10 H 0.7064 0.6033 0.6310
H11 H 0.8140 0.7722 0.6081
H12 H 0.8103 0.4005 0.6626
loop_
_geom_bond_atom_site_label_1
_geom_bond_atom_site_label_2
_geom_bond_site_symmetry_1
_geom_bond_site_symmetry_2
O1 C7 1_555 1_555
O2 C7 1_555 1_555
O3 C11 1_555 1_555
O4 C14 1_555 1_555
C1 C2 1_555 1_555
C2 H1 1_555 1_555
C3 C2 1_555 1_555
H2 C3 1_555 1_555
C4 C3 1_555 1_555
H3 C4 1_555 1_555
C5 C4 1_555 1_555
H4 C5 1_555 1_555
C6 C1 1_555 1_555
H5 C6 1_555 1_555
C7 C1 1_555 1_555
C8 O2 1_555 1_555
C9 C8 1_555 1_555
H6 C9 1_555 1_555
C10 C9 1_555 1_555
H7 C10 1_555 1_555
C11 C10 1_555 1_555
C12 C11 1_555 1_555
C13 C8 1_555 1_555
H8 C13 1_555 1_555
C14 O3 1_555 1_555
C15 C14 1_555 1_555
H9 C15 1_555 1_555
C16 C12 1_555 1_555
C17 C16 1_555 1_555
H10 C17 1_555 1_555
H11 C17 1_555 1_555
H12 C17 1_555 1_555
C5 C6 1_555 1_555
C12 C13 1_555 1_555
C15 C16 1_555 1_555

#END
