
#######################################################################
#
#                 Cambridge Crystallographic Data Centre
#                                CCDC 
#
#######################################################################
#
# If this CIF has been generated from an entry in the Cambridge 
# Structural Database, then it will include bibliographic, chemical, 
# crystal, experimental, refinement or atomic coordinate data resulting 
# from the CCDC's data processing and validation procedures.
#
#######################################################################

data_YEFSUA
_chemical_formula_moiety         'C14 H8 O10 S2 2-,2(H3 O1 1+),2(H2 O1)'
_chemical_name_systematic        
"bis(oxonium) 4,4'-dicarboxybiphenyl-2,2'-disulfonate dihydrate"
_symmetry_cell_setting           monoclinic
_symmetry_space_group_name_H-M   'C 2/c'
_symmetry_Int_Tables_number      15
_space_group_name_Hall           '-C 2yn'
loop_
_symmetry_equiv_pos_site_id
_symmetry_equiv_pos_as_xyz
1 x,y,z
2 -x,y,1/2-z
3 1/2+x,1/2+y,z
4 1/2-x,1/2+y,1/2-z
5 -x,-y,-z
6 x,-y,1/2+z
7 1/2-x,1/2-y,-z
8 1/2+x,1/2-y,1/2+z
_cell_length_a                   13.668(7)
_cell_length_b                   11.352(6)
_cell_length_c                   12.374(7)
_cell_angle_alpha                90
_cell_angle_beta                 99.115(6)
_cell_angle_gamma                90
_cell_volume                     1895.69
_exptl_crystal_colour            colorless
_exptl_crystal_description       block
_cell_formula_units_Z            4
loop_
_atom_site_label
_atom_site_type_symbol
_atom_site_fract_x
_atom_site_fract_y
_atom_site_fract_z
S1 S 0.57676(4) 0.25941(5) 0.09432(4)
O1 O 0.14524(14) 0.45355(19) -0.06717(18)
O2 O 0.24052(11) 0.34241(16) -0.15416(12)
H1 H 0.1850 0.3420 -0.2040
O3 O 0.55600(12) 0.20317(15) -0.01236(12)
O4 O 0.66113(11) 0.33869(15) 0.10430(14)
O5 O 0.58645(11) 0.17406(14) 0.18276(12)
C1 C 0.22331(17) 0.4072(2) -0.07086(18)
C2 C 0.30926(15) 0.41320(18) 0.01957(16)
C3 C 0.39464(15) 0.34805(18) 0.01609(16)
H2 H 0.4011 0.3049 -0.0463
C4 C 0.47054(15) 0.34692(18) 0.10528(16)
C5 C 0.46127(15) 0.41121(17) 0.19989(16)
C6 C 0.37802(16) 0.4819(2) 0.19846(17)
H3 H 0.3730 0.5295 0.2585
C7 C 0.30258(16) 0.4831(2) 0.10958(18)
H4 H 0.2474 0.5309 0.1104
S1A S 0.42324(4) 0.25941(5) 0.40568(4)
O1A O 0.85476(14) 0.45355(19) 0.56717(18)
O2A O 0.75948(11) 0.34241(16) 0.65416(12)
H1A H 0.8150 0.3420 0.7040
O3A O 0.44400(12) 0.20317(15) 0.51236(12)
O4A O 0.33887(11) 0.33869(15) 0.39570(14)
O5A O 0.41355(11) 0.17406(14) 0.31724(12)
C1A C 0.77669(17) 0.4072(2) 0.57086(18)
C2A C 0.69074(15) 0.41320(18) 0.48043(16)
C3A C 0.60536(15) 0.34805(18) 0.48391(16)
H2A H 0.5989 0.3049 0.5463
C4A C 0.52946(15) 0.34692(18) 0.39472(16)
C5A C 0.53873(15) 0.41121(17) 0.30011(16)
C6A C 0.62198(16) 0.4819(2) 0.30154(17)
H3A H 0.6270 0.5295 0.2415
C7A C 0.69742(16) 0.4831(2) 0.39042(18)
H4A H 0.7526 0.5309 0.3896
O6 O 0.15128(14) 0.30317(19) 0.31837(16)
H5 H 0.122(2) 0.305(3) 0.3774(18)
H6 H 0.2167(14) 0.318(3) 0.338(2)
H7 H 0.126(2) 0.350(2) 0.2595(19)
O7 O 0.07336(15) 0.43007(17) 0.16745(15)
H8 H 0.063(2) 0.5033(16) 0.176(2)
H9 H 0.061(2) 0.410(2) 0.0998(15)
loop_
_geom_bond_atom_site_label_1
_geom_bond_atom_site_label_2
_geom_bond_site_symmetry_1
_geom_bond_site_symmetry_2
S1 O3 1_555 1_555
O1 C1 1_555 1_555
O2 H1 1_555 1_555
O4 S1 1_555 1_555
O5 S1 1_555 1_555
C1 O2 1_555 1_555
C2 C1 1_555 1_555
C3 C2 1_555 1_555
H2 C3 1_555 1_555
C4 S1 1_555 1_555
C5 C4 1_555 1_555
C6 C5 1_555 1_555
H3 C6 1_555 1_555
C7 C2 1_555 1_555
H4 C7 1_555 1_555
O6 H5 1_555 1_555
H6 O6 1_555 1_555
H7 O6 1_555 1_555
O7 H8 1_555 1_555
H9 O7 1_555 1_555
S1A O3A 1_555 1_555
O1A C1A 1_555 1_555
O2A H1A 1_555 1_555
O4A S1A 1_555 1_555
O5A S1A 1_555 1_555
C1A O2A 1_555 1_555
C2A C1A 1_555 1_555
C3A C2A 1_555 1_555
H2A C3A 1_555 1_555
C4A S1A 1_555 1_555
C5A C5 1_555 1_555
C6A C5A 1_555 1_555
H3A C6A 1_555 1_555
C7A C2A 1_555 1_555
H4A C7A 1_555 1_555
C3 C4 1_555 1_555
C6 C7 1_555 1_555
C3A C4A 1_555 1_555
C4A C5A 1_555 1_555
C6A C7A 1_555 1_555

#END
