
#######################################################################
#
#                 Cambridge Crystallographic Data Centre
#                                CCDC 
#
#######################################################################
#
# If this CIF has been generated from an entry in the Cambridge 
# Structural Database, then it will include bibliographic, chemical, 
# crystal, experimental, refinement or atomic coordinate data resulting 
# from the CCDC's data processing and validation procedures.
#
#######################################################################

data_YEGVAI
_chemical_name_common            
'4-Chloro-2-nitrophenyl-alpha-methylbenzyl camphanate'
_chemical_formula_moiety         'C18 H20 Cl1 N1 O6'
_chemical_name_systematic        
'1-(4-Chloro-2-nitrophenyl)ethyl 4,7,7-trimethyl-3-oxo-2-oxabicyclo(2.2.1)heptane-1-carboxylate'
_symmetry_cell_setting           orthorhombic
_symmetry_space_group_name_H-M   'P 21 21 21'
_symmetry_Int_Tables_number      19
_space_group_name_Hall           'P 2ac 2ab'
loop_
_symmetry_equiv_pos_site_id
_symmetry_equiv_pos_as_xyz
1 x,y,z
2 1/2-x,-y,1/2+z
3 -x,1/2+y,1/2-z
4 1/2+x,1/2-y,-z
_cell_length_a                   10.350(2)
_cell_length_b                   12.580(3)
_cell_length_c                   13.810(3)
_cell_angle_alpha                90
_cell_angle_beta                 90
_cell_angle_gamma                90
_cell_volume                     1798.1
_cell_formula_units_Z            4
loop_
_atom_site_label
_atom_site_type_symbol
_atom_site_fract_x
_atom_site_fract_y
_atom_site_fract_z
H1 H 0.9178(18) 1.0752(14) 0.1704(12)
H2 H 0.7184(18) 0.7545(12) 0.5557(12)
Cl1 Cl 0.79643(4) 1.21391(3) 0.30380(3)
O1 O 0.83722(9) 0.59888(8) 0.47140(7)
O2 O 0.66718(9) 0.70076(8) 0.26673(7)
O3 O 0.87593(9) 0.71170(9) 0.31071(8)
O4 O 0.85840(11) 0.54262(10) 0.62488(8)
O5 O 1.02072(11) 0.90578(10) 0.10112(9)
C1 C 0.81946(14) 0.93687(12) 0.16745(10)
O6 O 0.85408(11) 0.84093(10) 0.02699(8)
C2 C 0.71889(13) 0.87609(11) 0.20487(11)
C3 C 0.69741(15) 0.76019(11) 0.17855(10)
C4 C 0.72668(13) 0.60834(11) 0.40622(11)
C5 C 0.66210(15) 1.02916(12) 0.30254(12)
C6 C 0.64554(14) 0.54674(12) 0.54419(11)
C7 C 0.64016(17) 0.75041(12) 0.52370(13)
N1 N 0.90437(13) 0.89120(10) 0.09292(10)
C8 C 0.61699(13) 0.64300(12) 0.47558(11)
C9 C 0.64002(15) 0.92576(12) 0.27292(11)
C10 C 0.63654(18) 0.45097(14) 0.47340(13)
C11 C 0.76834(13) 0.67969(11) 0.32469(11)
C12 C 0.58605(17) 0.74138(14) 0.11058(13)
C13 C 0.68985(17) 0.49436(12) 0.37686(12)
C14 C 0.84594(15) 1.04009(12) 0.19667(11)
C15 C 0.57049(18) 0.53679(17) 0.63716(13)
C16 C 0.78951(15) 0.56125(12) 0.55672(11)
C17 C 0.76571(15) 1.08508(12) 0.26453(11)
C18 C 0.48083(15) 0.64201(15) 0.43302(13)
H3 H 0.6410(17) 0.8032(17) 0.4790(15)
H4 H 0.6014(16) 0.7790(15) 0.0507(14)
H5 H 0.7781(14) 0.7295(11) 0.1517(10)
H6 H 0.7611(17) 0.4558(14) 0.3526(13)
H7 H 0.5725(17) 0.8908(13) 0.2995(12)
H8 H 0.6280(17) 0.4943(14) 0.3234(13)
H9 H 0.5091(18) 0.7712(15) 0.1374(13)
H10 H 0.4211(19) 0.6481(15) 0.4867(14)
H11 H 0.5716(18) 0.7649(14) 0.5720(14)
H12 H 0.6081(18) 1.0627(16) 0.3490(13)
H13 H 0.547(2) 0.4350(14) 0.4706(13)
H14 H 0.479(2) 0.5319(16) 0.6224(13)
H15 H 0.605(2) 0.4734(19) 0.6724(15)
H16 H 0.6818(19) 0.3938(16) 0.4962(13)
H17 H 0.5780(18) 0.6014(16) 0.6784(14)
H18 H 0.4693(16) 0.7036(16) 0.3908(12)
H19 H 0.5798(16) 0.6672(16) 0.0974(12)
H20 H 0.4618(17) 0.5764(16) 0.3971(13)
loop_
_geom_bond_atom_site_label_1
_geom_bond_atom_site_label_2
_geom_bond_site_symmetry_1
_geom_bond_site_symmetry_2
H1 C14 1_555 1_555
H2 C7 1_555 1_555
Cl1 C17 1_555 1_555
O1 C4 1_555 1_555
O2 C3 1_555 1_555
O3 C11 1_555 1_555
O4 C16 1_555 1_555
O5 N1 1_555 1_555
C1 C2 1_555 1_555
O6 N1 1_555 1_555
C2 C3 1_555 1_555
C3 C12 1_555 1_555
C4 C8 1_555 1_555
C5 C9 1_555 1_555
C6 C8 1_555 1_555
C7 C8 1_555 1_555
N1 C1 1_555 1_555
C8 C18 1_555 1_555
C9 C2 1_555 1_555
C10 C6 1_555 1_555
C11 O2 1_555 1_555
C12 H4 1_555 1_555
C13 C4 1_555 1_555
C14 C1 1_555 1_555
C15 C6 1_555 1_555
C16 O1 1_555 1_555
C17 C5 1_555 1_555
C18 H10 1_555 1_555
H3 C7 1_555 1_555
H5 C3 1_555 1_555
H6 C13 1_555 1_555
H7 C9 1_555 1_555
H8 C13 1_555 1_555
H9 C12 1_555 1_555
H11 C7 1_555 1_555
H12 C5 1_555 1_555
H13 C10 1_555 1_555
H14 C15 1_555 1_555
H15 C15 1_555 1_555
H16 C10 1_555 1_555
H17 C15 1_555 1_555
H18 C18 1_555 1_555
H19 C12 1_555 1_555
H20 C18 1_555 1_555
C4 C11 1_555 1_555
C6 C16 1_555 1_555
C10 C13 1_555 1_555
C14 C17 1_555 1_555

#END
