
#######################################################################
#
#                 Cambridge Crystallographic Data Centre
#                                CCDC 
#
#######################################################################
#
# If this CIF has been generated from an entry in the Cambridge 
# Structural Database, then it will include bibliographic, chemical, 
# crystal, experimental, refinement or atomic coordinate data resulting 
# from the CCDC's data processing and validation procedures.
#
#######################################################################

data_YEGVIS
_chemical_name_common            'dexmethylphenidate hydrochloride'
_chemical_formula_moiety         'C14 H20 N1 O2 1+,Cl1 1-'
_chemical_name_systematic        
'2-(2-methoxy-2-oxo-1-phenylethyl)piperidinium chloride'
_chemical_properties_biological  'mild nervous system stimulant'
_symmetry_cell_setting           monoclinic
_symmetry_space_group_name_H-M   'P 21'
_symmetry_Int_Tables_number      4
_space_group_name_Hall           'P 2yb'
loop_
_symmetry_equiv_pos_site_id
_symmetry_equiv_pos_as_xyz
1 x,y,z
2 -x,1/2+y,-z
_cell_length_a                   9.3944(19)
_cell_length_b                   7.3071(15)
_cell_length_c                   11.128(2)
_cell_angle_alpha                90
_cell_angle_beta                 109.25(3)
_cell_angle_gamma                90
_cell_volume                     721.181
_exptl_crystal_colour            colorless
_exptl_crystal_description       block
_cell_formula_units_Z            2
loop_
_atom_site_label
_atom_site_type_symbol
_atom_site_fract_x
_atom_site_fract_y
_atom_site_fract_z
Cl1 Cl 0.81023(6) 0.67674(9) 0.50906(7)
O1 O 0.1286(3) 0.8355(3) 0.7406(3)
O2 O 0.1123(2) 0.5533(3) 0.8093(2)
N1 N 0.1169(2) 0.6044(3) 0.4689(2)
C1 C 0.2792(3) 0.5959(4) 0.6931(3)
H1 H 0.2631 0.4634 0.6842
C2 C 0.1639(3) 0.6784(5) 0.7471(2)
C3 C -0.0006(4) 0.6157(6) 0.8621(4)
H2 H -0.0305 0.5158 0.9045
H3 H -0.0867 0.6603 0.7949
H4 H 0.0405 0.7123 0.9220
C4 C 0.4338(3) 0.6327(4) 0.7905(3)
C5 C 0.4878(4) 0.8104(6) 0.8180(4)
H5 H 0.4315 0.9088 0.7740
C6 C 0.6278(5) 0.8402(10) 0.9126(4)
H6 H 0.6640 0.9592 0.9295
C7 C 0.7095(4) 0.7043(16) 0.9782(4)
H7 H 0.8006 0.7285 1.0418
C8 C 0.6591(6) 0.5227(13) 0.9520(4)
H8 H 0.7172 0.4264 0.9972
C9 C 0.5179(4) 0.4874(7) 0.8555(4)
H9 H 0.4833 0.3680 0.8367
C10 C 0.2611(2) 0.6781(5) 0.5617(2)
H10 H 0.2535 0.8116 0.5662
C11 C 0.3878(3) 0.6303(4) 0.5113(3)
H11 H 0.3980 0.4983 0.5099
H12 H 0.4817 0.6797 0.5682
C12 C 0.3602(3) 0.7051(5) 0.3783(3)
H13 H 0.4406 0.6657 0.3475
H14 H 0.3605 0.8378 0.3806
C13 C 0.2090(4) 0.6373(5) 0.2881(3)
H15 H 0.1892 0.6934 0.2052
H16 H 0.2132 0.5058 0.2780
C14 C 0.0842(3) 0.6835(5) 0.3385(2)
H17 H -0.0102 0.6347 0.2821
H18 H 0.0742 0.8154 0.3420
H19 H 0.027(4) 0.631(4) 0.495(3)
H20 H 0.135(5) 0.482(6) 0.478(4)
loop_
_geom_bond_atom_site_label_1
_geom_bond_atom_site_label_2
_geom_bond_site_symmetry_1
_geom_bond_site_symmetry_2
O1 C2 1_555 1_555
O2 C2 1_555 1_555
N1 C10 1_555 1_555
C1 H1 1_555 1_555
C2 C1 1_555 1_555
C3 O2 1_555 1_555
H2 C3 1_555 1_555
H3 C3 1_555 1_555
H4 C3 1_555 1_555
C4 C1 1_555 1_555
C5 C4 1_555 1_555
H5 C5 1_555 1_555
C6 C5 1_555 1_555
H6 C6 1_555 1_555
C7 C6 1_555 1_555
H7 C7 1_555 1_555
C8 C7 1_555 1_555
H8 C8 1_555 1_555
C9 C4 1_555 1_555
H9 C9 1_555 1_555
C10 C1 1_555 1_555
H10 C10 1_555 1_555
C11 C10 1_555 1_555
H11 C11 1_555 1_555
H12 C11 1_555 1_555
C12 C11 1_555 1_555
H13 C12 1_555 1_555
H14 C12 1_555 1_555
C13 C12 1_555 1_555
H15 C13 1_555 1_555
H16 C13 1_555 1_555
C14 N1 1_555 1_555
H17 C14 1_555 1_555
H18 C14 1_555 1_555
H19 N1 1_555 1_555
H20 N1 1_555 1_555
C8 C9 1_555 1_555
C13 C14 1_555 1_555

#END
