
#######################################################################
#
#                 Cambridge Crystallographic Data Centre
#                                CCDC 
#
#######################################################################
#
# If this CIF has been generated from an entry in the Cambridge 
# Structural Database, then it will include bibliographic, chemical, 
# crystal, experimental, refinement or atomic coordinate data resulting 
# from the CCDC's data processing and validation procedures.
#
#######################################################################

data_YEGWIR
_chemical_formula_moiety         'C76 H37 Cl1 O9,1.5(C7 H8)'
_chemical_name_systematic        
'1-Chloro-2-hydroxy-4,11,15,30-tetra(t-butylperoxy)-1,2,4,11,15,30-hexahydroC60fullerene toluene solvate'
_symmetry_cell_setting           monoclinic
_symmetry_space_group_name_H-M   'P 21/c'
_symmetry_Int_Tables_number      14
_space_group_name_Hall           '-P 2ybc'
loop_
_symmetry_equiv_pos_site_id
_symmetry_equiv_pos_as_xyz
1 x,y,z
2 -x,1/2+y,1/2-z
3 -x,-y,-z
4 x,1/2-y,1/2+z
_cell_length_a                   12.749(3)
_cell_length_b                   13.984(3)
_cell_length_c                   33.372(7)
_cell_angle_alpha                90
_cell_angle_beta                 97.35(3)
_cell_angle_gamma                90
_cell_volume                     5900.74
_exptl_crystal_colour            red
_exptl_crystal_description       block
_cell_formula_units_Z            4
loop_
_atom_site_label
_atom_site_type_symbol
_atom_site_fract_x
_atom_site_fract_y
_atom_site_fract_z
Cl1 Cl 0.79472(10) 0.17624(9) 0.20240(4)
O1 O 0.7256(3) 0.1030(3) 0.06399(11)
O2 O 0.8058(3) 0.1382(3) 0.09107(11)
O3 O 0.6637(2) -0.1931(2) 0.05033(8)
O4 O 0.7454(2) -0.1258(2) 0.04048(8)
O5 O 0.6832(2) -0.31394(19) 0.15738(9)
O6 O 0.6272(2) -0.4042(2) 0.16142(10)
O7 O 0.7405(2) -0.1345(2) 0.25218(9)
O8 O 0.8284(2) -0.0700(3) 0.25024(9)
O9 O 0.8395(2) 0.0051(2) 0.16364(9)
H1 H 0.8710 0.0733 0.1516
C1 C 0.1839(4) 0.1057(4) 0.13963(14)
C2 C 0.2565(4) 0.1778(4) 0.13471(14)
C3 C 0.3353(4) 0.2050(3) 0.16829(15)
C4 C 0.3383(4) 0.1570(3) 0.20479(14)
C5 C 0.2630(4) 0.0829(4) 0.20968(13)
C6 C 0.1870(3) 0.0561(4) 0.17805(14)
C7 C 0.1646(3) -0.0428(4) 0.17021(14)
C8 C 0.1457(3) -0.0562(4) 0.12655(15)
C9 C 0.1576(3) 0.0350(4) 0.10801(16)
C10 C 0.2063(4) 0.0408(4) 0.07322(15)
C11 C 0.2804(4) 0.1157(4) 0.06815(14)
C12 C 0.3039(4) 0.1825(4) 0.09775(15)
C13 C 0.4133(4) 0.2123(3) 0.10800(14)
C14 C 0.4327(4) 0.2249(3) 0.15190(14)
C15 C 0.5284(4) 0.1965(3) 0.17222(13)
C16 C 0.5323(3) 0.1483(3) 0.21041(12)
C17 C 0.4387(3) 0.1299(3) 0.22690(13)
C18 C 0.4255(3) 0.0391(3) 0.24608(12)
C19 C 0.3177(3) 0.0096(3) 0.23549(13)
C20 C 0.2940(3) -0.0866(3) 0.22782(13)
C21 C 0.2160(3) -0.1130(4) 0.19453(14)
C22 C 0.2526(3) -0.2007(3) 0.17702(14)
C23 C 0.2365(3) -0.2124(3) 0.13580(15)
C24 C 0.1804(3) -0.1386(4) 0.10992(14)
C25 C 0.2306(3) -0.1343(4) 0.07349(14)
C26 C 0.2428(4) -0.0465(4) 0.05499(14)
C27 C 0.3393(4) -0.0232(4) 0.03932(13)
C28 C 0.3626(4) 0.0764(4) 0.04684(13)
C29 C 0.4677(4) 0.1043(3) 0.05703(12)
C30 C 0.4940(4) 0.1736(3) 0.08914(14)
C31 C 0.5950(4) 0.1493(3) 0.11087(14)
C32 C 0.6117(3) 0.1596(3) 0.15143(13)
C33 C 0.6859(3) 0.0992(3) 0.18127(13)
C34 C 0.6171(3) 0.0798(3) 0.21396(12)
C35 C 0.6063(3) -0.0058(3) 0.23260(12)
C36 C 0.5074(3) -0.0270(3) 0.24771(11)
C37 C 0.4834(3) -0.1283(3) 0.24006(11)
C38 C 0.3795(3) -0.1563(3) 0.23076(12)
C39 C 0.3527(3) -0.2258(3) 0.19921(14)
C40 C 0.4343(3) -0.2621(3) 0.17906(13)
C41 C 0.4161(3) -0.2732(3) 0.13563(13)
C42 C 0.3200(3) -0.2512(3) 0.11466(14)
C43 C 0.3164(3) -0.2032(3) 0.07685(13)
C44 C 0.4114(3) -0.1797(3) 0.06221(12)
C45 C 0.4227(3) -0.0892(3) 0.04267(12)
C46 C 0.5318(3) -0.0583(3) 0.05098(12)
C47 C 0.5525(3) 0.0363(3) 0.05830(12)
C48 C 0.6472(3) 0.0710(3) 0.08769(13)
C49 C 0.6812(3) -0.0070(3) 0.11713(12)
C50 C 0.7276(3) 0.0066(3) 0.16180(13)
C51 C 0.6907(3) -0.0877(3) 0.18030(12)
C52 C 0.6599(3) -0.0988(3) 0.22168(12)
C53 C 0.5668(3) -0.1698(3) 0.22108(12)
C54 C 0.5422(3) -0.2354(3) 0.19078(12)
C55 C 0.6032(3) -0.2418(3) 0.15505(12)
C56 C 0.5132(3) -0.2522(3) 0.12020(12)
C57 C 0.5102(3) -0.2068(3) 0.08356(12)
C58 C 0.5960(3) -0.1388(3) 0.07328(11)
C59 C 0.6531(3) -0.0986(3) 0.11150(12)
C60 C 0.6580(3) -0.1484(3) 0.15031(11)
C61 C 0.8526(4) 0.2246(4) 0.07180(19)
C62 C 0.9110(5) 0.1877(5) 0.0403(2)
H3 H 0.9576 0.1376 0.0512
H4 H 0.9515 0.2383 0.0304
H5 H 0.8621 0.1628 0.0185
C63 C 0.7778(6) 0.2998(5) 0.0631(4)
H6 H 0.7474 0.3158 0.0871
H7 H 0.7230 0.2794 0.0425
H8 H 0.8126 0.3550 0.0539
C64 C 0.9281(7) 0.2556(6) 0.1072(2)
H9 H 0.9789 0.2059 0.1144
H10 H 0.8900 0.2685 0.1297
H11 H 0.9641 0.3126 0.1005
C65 C 0.8480(3) -0.1708(3) 0.04834(13)
C66 C 0.8494(4) -0.2591(4) 0.02200(16)
H12 H 0.8043 -0.3071 0.0312
H13 H 0.9203 -0.2833 0.0237
H14 H 0.8246 -0.2427 -0.0055
C67 C 0.9186(4) -0.0922(4) 0.03648(16)
H15 H 0.9157 -0.0388 0.0543
H16 H 0.8952 -0.0726 0.0092
H17 H 0.9900 -0.1152 0.0383
C68 C 0.8750(4) -0.1954(4) 0.09301(14)
H18 H 0.8745 -0.1381 0.1089
H19 H 0.9439 -0.2240 0.0975
H20 H 0.8236 -0.2395 0.1008
C69 C 0.6763(4) -0.4763(3) 0.13967(15)
C70 C 0.7894(5) -0.4888(4) 0.1576(2)
H21 H 0.7925 -0.5048 0.1857
H22 H 0.8274 -0.4304 0.1548
H23 H 0.8208 -0.5393 0.1437
C71 C 0.6674(5) -0.4504(4) 0.09558(16)
H24 H 0.5942 -0.4437 0.0849
H25 H 0.6989 -0.4998 0.0811
H26 H 0.7035 -0.3910 0.0926
C72 C 0.6110(5) -0.5635(4) 0.1471(2)
H27 H 0.6187 -0.5771 0.1755
H28 H 0.6351 -0.6173 0.1329
H29 H 0.5380 -0.5513 0.1376
C73 C 0.9262(4) -0.1285(6) 0.25639(17)
C74 C 0.9322(4) -0.1785(5) 0.29711(18)
H30 H 0.9311 -0.1317 0.3181
H31 H 0.9966 -0.2148 0.3018
H32 H 0.8728 -0.2207 0.2971
C75 C 1.0070(5) -0.0484(7) 0.2562(2)
H33 H 1.0012 -0.0203 0.2297
H34 H 1.0769 -0.0739 0.2631
H35 H 0.9938 -0.0005 0.2755
C76 C 0.9294(5) -0.1967(6) 0.2225(2)
H36 H 0.9254 -0.1619 0.1975
H37 H 0.8705 -0.2398 0.2214
H38 H 0.9942 -0.2323 0.2265
C77 C 0.2021(4) -0.5139(3) 0.12578(17)
C78 C 0.1322(6) -0.4361(4) 0.1482(2)
H39 H 0.1393 -0.4053 0.1731
C79 C 0.0631(5) -0.4363(4) 0.1162(2)
H40 H 0.0125 -0.3918 0.1217
C80 C 0.0283(4) -0.4689(5) 0.0790(2)
H41 H -0.0373 -0.4503 0.0660
C81 C 0.0977(3) -0.5363(5) 0.0587(2)
H42 H 0.0859 -0.5615 0.0328
C82 C 0.1964(4) -0.5537(3) 0.09262(18)
H43 H 0.2504 -0.5945 0.0872
C83 C 0.2792(5) -0.5086(5) 0.15823(16)
H44 H 0.2545 -0.4704 0.1790
H45 H 0.3415 -0.4799 0.1500
H46 H 0.2957 -0.5717 0.1684
H2? H 0.8618 0.0028 0.1939
C84? C 0.4842(5) -0.5517(4) 0.0051(2)
C85? C 0.4378(3) -0.4425(4) 0.01076(14)
C86? C 0.4948(4) -0.3629(4) -0.00650(16)
C87? C 0.5762(4) -0.3917(5) -0.02194(18)
C88? C 0.6128(5) -0.4961(5) -0.0259(2)
loop_
_geom_bond_atom_site_label_1
_geom_bond_atom_site_label_2
_geom_bond_site_symmetry_1
_geom_bond_site_symmetry_2
Cl1 C33 1_555 1_555
O1 O2 1_555 1_555
O2 C61 1_555 1_555
O3 O4 1_555 1_555
O4 C65 1_555 1_555
O5 O6 1_555 1_555
O6 C69 1_555 1_555
O7 O8 1_555 1_555
O8 C73 1_555 1_555
O9 H1 1_555 1_555
C1 C2 1_555 1_555
C2 C3 1_555 1_555
C3 C4 1_555 1_555
C4 C5 1_555 1_555
C5 C6 1_555 1_555
C6 C1 1_555 1_555
C7 C6 1_555 1_555
C8 C7 1_555 1_555
C9 C1 1_555 1_555
C10 C9 1_555 1_555
C11 C10 1_555 1_555
C12 C2 1_555 1_555
C13 C12 1_555 1_555
C14 C3 1_555 1_555
C15 C14 1_555 1_555
C16 C15 1_555 1_555
C17 C4 1_555 1_555
C18 C17 1_555 1_555
C19 C5 1_555 1_555
C20 C19 1_555 1_555
C21 C7 1_555 1_555
C22 C21 1_555 1_555
C23 C22 1_555 1_555
C24 C8 1_555 1_555
C25 C24 1_555 1_555
C26 C10 1_555 1_555
C27 C26 1_555 1_555
C28 C11 1_555 1_555
C29 C28 1_555 1_555
C30 C13 1_555 1_555
C31 C30 1_555 1_555
C32 C15 1_555 1_555
C33 C32 1_555 1_555
C34 C16 1_555 1_555
C35 C34 1_555 1_555
C36 C18 1_555 1_555
C37 C36 1_555 1_555
C38 C20 1_555 1_555
C39 C22 1_555 1_555
C40 C39 1_555 1_555
C41 C40 1_555 1_555
C42 C23 1_555 1_555
C43 C25 1_555 1_555
C44 C43 1_555 1_555
C45 C27 1_555 1_555
C46 C45 1_555 1_555
C47 C29 1_555 1_555
C48 O1 1_555 1_555
C49 C48 1_555 1_555
C50 O9 1_555 1_555
C51 C50 1_555 1_555
C52 O7 1_555 1_555
C53 C37 1_555 1_555
C54 C40 1_555 1_555
C55 O5 1_555 1_555
C56 C41 1_555 1_555
C57 C44 1_555 1_555
C58 O3 1_555 1_555
C59 C49 1_555 1_555
C60 C51 1_555 1_555
C61 C62 1_555 1_555
C62 H3 1_555 1_555
H4 C62 1_555 1_555
H5 C62 1_555 1_555
C63 C61 1_555 1_555
H6 C63 1_555 1_555
H7 C63 1_555 1_555
H8 C63 1_555 1_555
C64 C61 1_555 1_555
H9 C64 1_555 1_555
H10 C64 1_555 1_555
H11 C64 1_555 1_555
C65 C66 1_555 1_555
C66 H12 1_555 1_555
H13 C66 1_555 1_555
H14 C66 1_555 1_555
C67 C65 1_555 1_555
H15 C67 1_555 1_555
H16 C67 1_555 1_555
H17 C67 1_555 1_555
C68 C65 1_555 1_555
H18 C68 1_555 1_555
H19 C68 1_555 1_555
H20 C68 1_555 1_555
C69 C70 1_555 1_555
C70 H21 1_555 1_555
H22 C70 1_555 1_555
H23 C70 1_555 1_555
C71 C69 1_555 1_555
H24 C71 1_555 1_555
H25 C71 1_555 1_555
H26 C71 1_555 1_555
C72 C69 1_555 1_555
H27 C72 1_555 1_555
H28 C72 1_555 1_555
H29 C72 1_555 1_555
C73 C74 1_555 1_555
C74 H30 1_555 1_555
H31 C74 1_555 1_555
H32 C74 1_555 1_555
C75 C73 1_555 1_555
H33 C75 1_555 1_555
H34 C75 1_555 1_555
H35 C75 1_555 1_555
C76 C73 1_555 1_555
H36 C76 1_555 1_555
H37 C76 1_555 1_555
H38 C76 1_555 1_555
C77 C78 1_555 1_555
C78 H39 1_555 1_555
C79 C78 1_555 1_555
H40 C79 1_555 1_555
C80 C79 1_555 1_555
H41 C80 1_555 1_555
C81 C80 1_555 1_555
H42 C81 1_555 1_555
C82 C77 1_555 1_555
H43 C82 1_555 1_555
C83 C77 1_555 1_555
H44 C83 1_555 1_555
H45 C83 1_555 1_555
H46 C83 1_555 1_555
C8 C9 1_555 1_555
C11 C12 1_555 1_555
C13 C14 1_555 1_555
C16 C17 1_555 1_555
C18 C19 1_555 1_555
C20 C21 1_555 1_555
C23 C24 1_555 1_555
C25 C26 1_555 1_555
C27 C28 1_555 1_555
C29 C30 1_555 1_555
C31 C32 1_555 1_555
C31 C48 1_555 1_555
C33 C34 1_555 1_555
C33 C50 1_555 1_555
C35 C36 1_555 1_555
C35 C52 1_555 1_555
C37 C38 1_555 1_555
C38 C39 1_555 1_555
C41 C42 1_555 1_555
C42 C43 1_555 1_555
C44 C45 1_555 1_555
C46 C47 1_555 1_555
C46 C58 1_555 1_555
C47 C48 1_555 1_555
C49 C50 1_555 1_555
C51 C52 1_555 1_555
C52 C53 1_555 1_555
C53 C54 1_555 1_555
C54 C55 1_555 1_555
C55 C56 1_555 1_555
C55 C60 1_555 1_555
C56 C57 1_555 1_555
C57 C58 1_555 1_555
C58 C59 1_555 1_555
C59 C60 1_555 1_555
C81 C82 1_555 1_555

#END
