
#######################################################################
#
#                 Cambridge Crystallographic Data Centre
#                                CCDC 
#
#######################################################################
#
# If this CIF has been generated from an entry in the Cambridge 
# Structural Database, then it will include bibliographic, chemical, 
# crystal, experimental, refinement or atomic coordinate data resulting 
# from the CCDC's data processing and validation procedures.
#
#######################################################################

data_YEGWEN
_chemical_formula_moiety         'C19 H18 Br1 N1 O6'
_chemical_name_systematic        
'3-(Acetoxy)-2-benzyl-2-nitropropyl 4-bromobenzoate'
_symmetry_cell_setting           monoclinic
_symmetry_space_group_name_H-M   'P 21'
_symmetry_Int_Tables_number      4
_space_group_name_Hall           'P 2yb'
loop_
_symmetry_equiv_pos_site_id
_symmetry_equiv_pos_as_xyz
1 x,y,z
2 -x,1/2+y,-z
_cell_length_a                   11.786(4)
_cell_length_b                   5.7720(17)
_cell_length_c                   15.276(5)
_cell_angle_alpha                90
_cell_angle_beta                 110.218(5)
_cell_angle_gamma                90
_cell_volume                     975.177
_cell_formula_units_Z            2
loop_
_atom_site_label
_atom_site_type_symbol
_atom_site_fract_x
_atom_site_fract_y
_atom_site_fract_z
Br1 Br 0.34705(13) 0.3182(3) -0.26152(10)
O1 O 0.9271(7) 0.2564(11) 0.3033(5)
O2 O 0.9500(9) 0.6041(18) 0.3703(7)
O3 O 1.0900(11) 0.418(2) 0.1201(9)
O4 O 1.1350(11) 0.083(2) 0.1025(8)
O5 O 0.8548(8) 0.0299(12) 0.0948(5)
O6 O 0.7670(8) -0.3179(14) 0.0773(6)
N1 N 1.0902(11) 0.219(2) 0.1370(9)
C1 C 1.0419(10) 0.1265(17) 0.2132(8)
C2 C 0.9809(9) 0.344(3) 0.2412(8)
H1 H 1.0409 0.4607 0.2713
H2 H 0.9206 0.4117 0.1868
C3 C 0.9136(11) 0.406(3) 0.3639(9)
C4 C 0.8525(12) 0.292(3) 0.4231(9)
H3 H 0.9109 0.2591 0.4835
H4 H 0.8161 0.1494 0.3942
H5 H 0.7912 0.3923 0.4297
C5 C 1.1492(11) 0.036(2) 0.2910(9)
H6 H 1.1852 -0.0870 0.2661
H7 H 1.1202 -0.0329 0.3373
C6 C 1.2478(10) 0.2072(19) 0.3404(8)
C7 C 1.3413(13) 0.233(4) 0.3054(13)
H8 H 1.3444 0.1424 0.2560
C8 C 1.4310(15) 0.399(4) 0.3459(12)
H9 H 1.4921 0.4236 0.3214
C9 C 1.4291(16) 0.521(3) 0.4184(11)
H10 H 1.4904 0.6274 0.4458
C10 C 1.3363(14) 0.492(3) 0.4546(14)
H11 H 1.3323 0.5837 0.5035
C11 C 1.2493(11) 0.321(3) 0.4150(9)
H12 H 1.1916 0.2876 0.4421
C12 C 0.9538(10) -0.0659(16) 0.1714(8)
H13 H 0.9932 -0.1883 0.1490
H14 H 0.9241 -0.1306 0.2179
C13 C 0.7647(11) -0.118(2) 0.0570(9)
C14 C 0.6677(11) -0.011(2) -0.0232(8)
C15 C 0.6786(10) 0.2083(18) -0.0577(8)
H15 H 0.7504 0.2909 -0.0326
C16 C 0.5845(11) 0.302(3) -0.1282(7)
H16 H 0.5934 0.4454 -0.1528
C17 C 0.4768(11) 0.186(2) -0.1630(8)
C18 C 0.4625(11) -0.025(2) -0.1336(8)
H17 H 0.3902 -0.1040 -0.1616
C19 C 0.5572(10) -0.131(2) -0.0594(7)
H18 H 0.5464 -0.2746 -0.0356
loop_
_geom_bond_atom_site_label_1
_geom_bond_atom_site_label_2
_geom_bond_site_symmetry_1
_geom_bond_site_symmetry_2
Br1 C17 1_555 1_555
O1 C2 1_555 1_555
O2 C3 1_555 1_555
O3 N1 1_555 1_555
O4 N1 1_555 1_555
O5 C12 1_555 1_555
O6 C13 1_555 1_555
N1 C1 1_555 1_555
C1 C2 1_555 1_555
C2 H1 1_555 1_555
H2 C2 1_555 1_555
C3 O1 1_555 1_555
C4 C3 1_555 1_555
H3 C4 1_555 1_555
H4 C4 1_555 1_555
H5 C4 1_555 1_555
C5 C1 1_555 1_555
H6 C5 1_555 1_555
H7 C5 1_555 1_555
C6 C5 1_555 1_555
C7 C6 1_555 1_555
H8 C7 1_555 1_555
C8 C7 1_555 1_555
H9 C8 1_555 1_555
C9 C8 1_555 1_555
H10 C9 1_555 1_555
C10 C9 1_555 1_555
H11 C10 1_555 1_555
C11 C6 1_555 1_555
H12 C11 1_555 1_555
C12 C1 1_555 1_555
H13 C12 1_555 1_555
H14 C12 1_555 1_555
C13 O5 1_555 1_555
C14 C13 1_555 1_555
C15 C14 1_555 1_555
H15 C15 1_555 1_555
C16 C15 1_555 1_555
H16 C16 1_555 1_555
C17 C16 1_555 1_555
C18 C17 1_555 1_555
H17 C18 1_555 1_555
C19 C14 1_555 1_555
H18 C19 1_555 1_555
C10 C11 1_555 1_555
C18 C19 1_555 1_555

#END
