
#######################################################################
#
#                 Cambridge Crystallographic Data Centre
#                                CCDC 
#
#######################################################################
#
# If this CIF has been generated from an entry in the Cambridge 
# Structural Database, then it will include bibliographic, chemical, 
# crystal, experimental, refinement or atomic coordinate data resulting 
# from the CCDC's data processing and validation procedures.
#
#######################################################################

data_YEGZIW
_chemical_formula_moiety         'C16 H14 N4 O4'
_chemical_name_systematic        
'4-(2-(5-cyano-1-ethyl-4-methyl-2,6-dioxo-1,6-dihydropyridin-3(2H)-ylidene)hydrazino)benzoic acid'
_symmetry_cell_setting           monoclinic
_symmetry_space_group_name_H-M   'P 21/n'
_symmetry_Int_Tables_number      14
_space_group_name_Hall           '-P 2yn'
loop_
_symmetry_equiv_pos_site_id
_symmetry_equiv_pos_as_xyz
1 x,y,z
2 1/2-x,1/2+y,1/2-z
3 -x,-y,-z
4 1/2+x,1/2-y,1/2+z
_cell_length_a                   7.7647(18)
_cell_length_b                   9.114(2)
_cell_length_c                   22.439(5)
_cell_angle_alpha                90
_cell_angle_beta                 97.081(4)
_cell_angle_gamma                90
_cell_volume                     1575.84
_exptl_crystal_colour            yellow
_exptl_crystal_description       block
_cell_formula_units_Z            4
loop_
_atom_site_label
_atom_site_type_symbol
_atom_site_fract_x
_atom_site_fract_y
_atom_site_fract_z
C1 C -0.2718(5) 0.0436(5) 0.03671(18)
C2 C -0.0933(4) 0.0791(4) 0.06454(16)
C3 C -0.0242(5) 0.0072(4) 0.11602(17)
H1 H -0.0893 -0.0641 0.1327
C4 C 0.1406(5) 0.0399(4) 0.14302(17)
H2 H 0.1867 -0.0095 0.1776
C5 C 0.2366(5) 0.1460(4) 0.11856(17)
C6 C 0.1705(5) 0.2174(4) 0.06618(18)
H3 H 0.2363 0.2878 0.0492
C7 C 0.0051(5) 0.1824(4) 0.03933(17)
H4 H -0.0398 0.2292 0.0040
C8 C 0.6591(4) 0.3045(4) 0.15096(16)
C9 C 0.7365(5) 0.2347(5) 0.2064(2)
C10 C 0.9969(5) 0.3831(5) 0.20361(18)
C11 C 0.9170(5) 0.4473(4) 0.14761(16)
C12 C 0.7552(5) 0.4104(4) 0.12108(16)
C13 C 1.0046(7) 0.1781(6) 0.2832(2)
H5 H 0.9627 0.0778 0.2830
H6 H 1.1293 0.1789 0.2826
C14 C 0.9550(8) 0.2585(7) 0.3303(3)
H7 H 0.9828 0.3600 0.3252
H8 H 1.0154 0.2232 0.3674
H9 H 0.8322 0.2483 0.3310
C15 C 1.0226(6) 0.5481(5) 0.1203(2)
C16 C 0.6778(6) 0.4747(5) 0.06221(19)
H10 H 0.7431 0.5596 0.0533
H11 H 0.5596 0.5025 0.0647
H12 H 0.6810 0.4031 0.0310
N1 N 0.4040(4) 0.1781(4) 0.14765(15)
N2 N 0.5013(4) 0.2729(4) 0.12438(14)
N3 N 0.9027(5) 0.2760(4) 0.22937(16)
N4 N 1.1068(6) 0.6261(5) 0.0968(2)
O1 O -0.3317(3) 0.1205(3) -0.00902(13)
H13 H -0.4298 0.0924 -0.0216
O2 O -0.3553(3) -0.0559(4) 0.05796(13)
O3 O 0.6586(4) 0.1405(4) 0.23269(14)
O4 O 1.1421(4) 0.4179(3) 0.22709(13)
H14 H 0.441(5) 0.125(4) 0.1809(11)
loop_
_geom_bond_atom_site_label_1
_geom_bond_atom_site_label_2
_geom_bond_site_symmetry_1
_geom_bond_site_symmetry_2
C1 C2 1_555 1_555
C2 C3 1_555 1_555
C3 H1 1_555 1_555
C4 C3 1_555 1_555
H2 C4 1_555 1_555
C5 C4 1_555 1_555
C6 C5 1_555 1_555
H3 C6 1_555 1_555
C7 C2 1_555 1_555
H4 C7 1_555 1_555
C8 C9 1_555 1_555
C9 N3 1_555 1_555
C10 C11 1_555 1_555
C11 C12 1_555 1_555
C12 C8 1_555 1_555
C13 H5 1_555 1_555
H6 C13 1_555 1_555
C14 C13 1_555 1_555
H7 C14 1_555 1_555
H8 C14 1_555 1_555
H9 C14 1_555 1_555
C15 C11 1_555 1_555
C16 C12 1_555 1_555
H10 C16 1_555 1_555
H11 C16 1_555 1_555
H12 C16 1_555 1_555
N1 C5 1_555 1_555
N2 C8 1_555 1_555
N3 C10 1_555 1_555
N4 C15 1_555 1_555
O1 C1 1_555 1_555
H13 O1 1_555 1_555
O2 C1 1_555 1_555
O3 C9 1_555 1_555
O4 C10 1_555 1_555
H14 N1 1_555 1_555
C6 C7 1_555 1_555
C13 N3 1_555 1_555
N1 N2 1_555 1_555

#END
