
#######################################################################
#
#                 Cambridge Crystallographic Data Centre
#                                CCDC 
#
#######################################################################
#
# If this CIF has been generated from an entry in the Cambridge 
# Structural Database, then it will include bibliographic, chemical, 
# crystal, experimental, refinement or atomic coordinate data resulting 
# from the CCDC's data processing and validation procedures.
#
#######################################################################

data_YEHNEH
_chemical_formula_moiety         'C50 H54 B2 N4'
_chemical_name_systematic        
2,5-diphenyl-1,3,4,6-tetrakis(2,4,6-trimethylphenyl)-1,2,3,4,5,6-hexahydro[1,3,2]diazaborolo[4,5-d][1,3,2]diazaborole
_symmetry_cell_setting           monoclinic
_symmetry_space_group_name_H-M   'C 2/c'
_symmetry_Int_Tables_number      15
_space_group_name_Hall           '-C 2yn'
loop_
_symmetry_equiv_pos_site_id
_symmetry_equiv_pos_as_xyz
1 x,y,z
2 -x,y,1/2-z
3 1/2+x,1/2+y,z
4 1/2-x,1/2+y,1/2-z
5 -x,-y,-z
6 x,-y,1/2+z
7 1/2-x,1/2-y,-z
8 1/2+x,1/2-y,1/2+z
_cell_length_a                   15.662(3)
_cell_length_b                   17.724(3)
_cell_length_c                   16.037(3)
_cell_angle_alpha                90
_cell_angle_beta                 109.914(5)
_cell_angle_gamma                90
_cell_volume                     4185.57
_exptl_crystal_colour            yellow
_exptl_crystal_description       block
_cell_formula_units_Z            4
loop_
_atom_site_label
_atom_site_type_symbol
_atom_site_fract_x
_atom_site_fract_y
_atom_site_fract_z
B1 B 0.1481(3) 0.9139(3) 0.8050(3)
C1 C 0.2534(3) 0.9141(2) 0.8419(2)
C2 C 0.3041(3) 0.8505(2) 0.8360(3)
H1 H 0.2728 0.8054 0.8115
C3 C 0.3977(3) 0.8508(2) 0.8643(3)
H2 H 0.4295 0.8063 0.8593
C4 C 0.4453(3) 0.9148(2) 0.8996(3)
H3 H 0.5097 0.9152 0.9182
C5 C 0.3987(3) 0.9790(2) 0.9081(3)
H4 H 0.4312 1.0234 0.9334
C6 C 0.3047(3) 0.9785(2) 0.8795(2)
H5 H 0.2737 1.0231 0.8856
C7 C 0.1083(3) 0.7690(2) 0.8008(2)
C8 C 0.1203(3) 0.7423(2) 0.8863(2)
C9 C 0.1238(3) 0.7951(2) 0.9609(2)
H6 H 0.1818 0.8221 0.9802
H7 H 0.1179 0.7661 1.0107
H8 H 0.0738 0.8315 0.9404
C10 C 0.1315(3) 0.6647(2) 0.9022(3)
H9 H 0.1393 0.646 0.9599
C11 C 0.1314(3) 0.6141(2) 0.8361(3)
C12 C 0.1381(3) 0.5297(2) 0.8518(3)
H10 H 0.1697 0.5196 0.9149
H11 H 0.172 0.5068 0.8169
H12 H 0.077 0.5079 0.8337
C13 C 0.1240(3) 0.6429(2) 0.7532(3)
H13 H 0.1266 0.6092 0.7081
C14 C 0.1127(3) 0.7199(2) 0.7344(3)
C15 C 0.1083(3) 0.7484(2) 0.6437(3)
H14 H 0.0593 0.7224 0.5977
H15 H 0.1663 0.7384 0.635
H16 H 0.0965 0.8028 0.6399
C16 C 0.000 0.8757(3) 0.750
C17 C 0.000 0.9503(3) 0.750
C18 C 0.1069(3) 1.0566(2) 0.8106(2)
C19 C 0.1077(3) 1.0770(2) 0.8955(3)
C20 C 0.0970(3) 1.0180(2) 0.9591(3)
H17 H 0.0436 0.9868 0.9292
H18 H 0.089 1.0429 1.0105
H19 H 0.1513 0.9861 0.9788
C21 C 0.1217(3) 1.1526(2) 0.9209(3)
H20 H 0.1206 1.1672 0.9775
C22 C 0.1371(3) 1.2067(2) 0.8656(3)
C23 C 0.1512(3) 1.2894(2) 0.8937(3)
H21 H 0.0995 1.3192 0.8566
H22 H 0.2072 1.308 0.8864
H23 H 0.1559 1.294 0.956
C24 C 0.1415(3) 1.1838(2) 0.7843(3)
H24 H 0.1556 1.2202 0.7474
C25 C 0.1261(3) 1.1096(2) 0.7550(2)
C26 C 0.1312(3) 1.0880(2) 0.6656(3)
H25 H 0.0709 1.0925 0.6203
H26 H 0.1525 1.0358 0.6677
H27 H 0.1736 1.1217 0.6508
N1 N 0.0887(2) 0.84798(17) 0.78227(19)
N2 N 0.0881(2) 0.97940(17) 0.78314(19)
B1A B -0.1481(3) 0.9139(3) 0.6950(3)
C1A C -0.2534(3) 0.9141(2) 0.6581(2)
C2A C -0.3041(3) 0.8505(2) 0.6640(3)
H1A H -0.2728 0.8054 0.6885
C3A C -0.3977(3) 0.8508(2) 0.6357(3)
H2A H -0.4295 0.8063 0.6407
C4A C -0.4453(3) 0.9148(2) 0.6004(3)
H3A H -0.5097 0.9152 0.5818
C5A C -0.3987(3) 0.9790(2) 0.5919(3)
H4A H -0.4312 1.0234 0.5666
C6A C -0.3047(3) 0.9785(2) 0.6205(2)
H5A H -0.2737 1.0231 0.6144
C7A C -0.1083(3) 0.7690(2) 0.6992(2)
C8A C -0.1203(3) 0.7423(2) 0.6137(2)
C9A C -0.1238(3) 0.7951(2) 0.5391(2)
H6A H -0.1818 0.8221 0.5198
H7A H -0.1179 0.7661 0.4893
H8A H -0.0738 0.8315 0.5596
C10A C -0.1315(3) 0.6647(2) 0.5978(3)
H9A H -0.1393 0.646 0.5401
C11A C -0.1314(3) 0.6141(2) 0.6639(3)
C12A C -0.1381(3) 0.5297(2) 0.6482(3)
H10A H -0.1697 0.5196 0.5851
H11A H -0.172 0.5068 0.6831
H12A H -0.077 0.5079 0.6663
C13A C -0.1240(3) 0.6429(2) 0.7468(3)
H13A H -0.1266 0.6092 0.7919
C14A C -0.1127(3) 0.7199(2) 0.7656(3)
C15A C -0.1083(3) 0.7484(2) 0.8563(3)
H14A H -0.0593 0.7224 0.9023
H15A H -0.1663 0.7384 0.865
H16A H -0.0965 0.8028 0.8601
C18A C -0.1069(3) 1.0566(2) 0.6894(2)
C19A C -0.1077(3) 1.0770(2) 0.6045(3)
C20A C -0.0970(3) 1.0180(2) 0.5409(3)
H17A H -0.0436 0.9868 0.5708
H18A H -0.089 1.0429 0.4895
H19A H -0.1513 0.9861 0.5212
C21A C -0.1217(3) 1.1526(2) 0.5791(3)
H20A H -0.1206 1.1672 0.5225
C22A C -0.1371(3) 1.2067(2) 0.6344(3)
C23A C -0.1512(3) 1.2894(2) 0.6063(3)
H21A H -0.0995 1.3192 0.6434
H22A H -0.2072 1.308 0.6136
H23A H -0.1559 1.294 0.544
C24A C -0.1415(3) 1.1838(2) 0.7157(3)
H24A H -0.1556 1.2202 0.7526
C25A C -0.1261(3) 1.1096(2) 0.7450(2)
C26A C -0.1312(3) 1.0880(2) 0.8344(3)
H25A H -0.0709 1.0925 0.8797
H26A H -0.1525 1.0358 0.8323
H27A H -0.1736 1.1217 0.8492
N1A N -0.0887(2) 0.84798(17) 0.71773(19)
N2A N -0.0881(2) 0.97940(17) 0.71686(19)
loop_
_geom_bond_atom_site_label_1
_geom_bond_atom_site_label_2
_geom_bond_site_symmetry_1
_geom_bond_site_symmetry_2
B1 C1 1_555 1_555
C1 C2 1_555 1_555
C2 H1 1_555 1_555
C3 C2 1_555 1_555
H2 C3 1_555 1_555
C4 C3 1_555 1_555
H3 C4 1_555 1_555
C5 C4 1_555 1_555
H4 C5 1_555 1_555
C6 C1 1_555 1_555
H5 C6 1_555 1_555
C7 C8 1_555 1_555
C8 C9 1_555 1_555
C9 H6 1_555 1_555
H7 C9 1_555 1_555
H8 C9 1_555 1_555
C10 C8 1_555 1_555
H9 C10 1_555 1_555
C11 C10 1_555 1_555
C12 C11 1_555 1_555
H10 C12 1_555 1_555
H11 C12 1_555 1_555
H12 C12 1_555 1_555
C13 C11 1_555 1_555
H13 C13 1_555 1_555
C14 C7 1_555 1_555
C15 C14 1_555 1_555
H14 C15 1_555 1_555
H15 C15 1_555 1_555
H16 C15 1_555 1_555
C16 C17 1_555 1_555
C17 N2 1_555 1_555
C18 C19 1_555 1_555
C19 C20 1_555 1_555
C20 H17 1_555 1_555
H18 C20 1_555 1_555
H19 C20 1_555 1_555
C21 C19 1_555 1_555
H20 C21 1_555 1_555
C22 C21 1_555 1_555
C23 C22 1_555 1_555
H21 C23 1_555 1_555
H22 C23 1_555 1_555
H23 C23 1_555 1_555
C24 C22 1_555 1_555
H24 C24 1_555 1_555
C25 C18 1_555 1_555
C26 C25 1_555 1_555
H25 C26 1_555 1_555
H26 C26 1_555 1_555
H27 C26 1_555 1_555
N1 B1 1_555 1_555
N2 B1 1_555 1_555
B1A C1A 1_555 1_555
C1A C2A 1_555 1_555
C2A H1A 1_555 1_555
C3A C2A 1_555 1_555
H2A C3A 1_555 1_555
C4A C3A 1_555 1_555
H3A C4A 1_555 1_555
C5A C4A 1_555 1_555
H4A C5A 1_555 1_555
C6A C1A 1_555 1_555
H5A C6A 1_555 1_555
C7A C8A 1_555 1_555
C8A C9A 1_555 1_555
C9A H6A 1_555 1_555
H7A C9A 1_555 1_555
H8A C9A 1_555 1_555
C10A C8A 1_555 1_555
H9A C10A 1_555 1_555
C11A C10A 1_555 1_555
C12A C11A 1_555 1_555
H10A C12A 1_555 1_555
H11A C12A 1_555 1_555
H12A C12A 1_555 1_555
C13A C11A 1_555 1_555
H13A C13A 1_555 1_555
C14A C7A 1_555 1_555
C15A C14A 1_555 1_555
H14A C15A 1_555 1_555
H15A C15A 1_555 1_555
H16A C15A 1_555 1_555
C18A C19A 1_555 1_555
C19A C20A 1_555 1_555
C20A H17A 1_555 1_555
H18A C20A 1_555 1_555
H19A C20A 1_555 1_555
C21A C19A 1_555 1_555
H20A C21A 1_555 1_555
C22A C21A 1_555 1_555
C23A C22A 1_555 1_555
H21A C23A 1_555 1_555
H22A C23A 1_555 1_555
H23A C23A 1_555 1_555
C24A C22A 1_555 1_555
H24A C24A 1_555 1_555
C25A C18A 1_555 1_555
C26A C25A 1_555 1_555
H25A C26A 1_555 1_555
H26A C26A 1_555 1_555
H27A C26A 1_555 1_555
N1A C16 1_555 1_555
N2A C17 1_555 1_555
C5 C6 1_555 1_555
C7 N1 1_555 1_555
C13 C14 1_555 1_555
C16 N1 1_555 1_555
C18 N2 1_555 1_555
C24 C25 1_555 1_555
B1A N1A 1_555 1_555
B1A N2A 1_555 1_555
C5A C6A 1_555 1_555
C7A N1A 1_555 1_555
C13A C14A 1_555 1_555
C18A N2A 1_555 1_555
C24A C25A 1_555 1_555

#END
