
#######################################################################
#
#                 Cambridge Crystallographic Data Centre
#                                CCDC 
#
#######################################################################
#
# If this CIF has been generated from an entry in the Cambridge 
# Structural Database, then it will include bibliographic, chemical, 
# crystal, experimental, refinement or atomic coordinate data resulting 
# from the CCDC's data processing and validation procedures.
#
#######################################################################

data_YEHNIL
_chemical_formula_moiety         'C50 H52 B2 F2 N4'
_chemical_name_systematic        
2,5-bis(4-fluorophenyl)-1,3,4,6-tetrakis(2,4,6-trimethylphenyl)-1,2,3,4,5,6-hexahydro[1,3,2]diazaborolo[4,5-d][1,3,2]diazaborole
_symmetry_cell_setting           monoclinic
_symmetry_space_group_name_H-M   'C 2/c'
_symmetry_Int_Tables_number      15
_space_group_name_Hall           '-C 2yn'
loop_
_symmetry_equiv_pos_site_id
_symmetry_equiv_pos_as_xyz
1 x,y,z
2 -x,y,1/2-z
3 1/2+x,1/2+y,z
4 1/2-x,1/2+y,1/2-z
5 -x,-y,-z
6 x,-y,1/2+z
7 1/2-x,1/2-y,-z
8 1/2+x,1/2-y,1/2+z
_cell_length_a                   16.2212(12)
_cell_length_b                   17.6789(12)
_cell_length_c                   15.9340(13)
_cell_angle_alpha                90
_cell_angle_beta                 109.755(4)
_cell_angle_gamma                90
_cell_volume                     4300.51
_exptl_crystal_colour            yellow
_exptl_crystal_description       block
_cell_formula_units_Z            4
loop_
_atom_site_label
_atom_site_type_symbol
_atom_site_fract_x
_atom_site_fract_y
_atom_site_fract_z
B1 B 0.14192(18) 0.41096(15) 0.30119(19)
C1 C 0.29344(15) 0.47290(13) 0.38287(17)
H1 H 0.2638 0.5162 0.3938
C2 C 0.38432(16) 0.47275(14) 0.41261(17)
H2 H 0.4168 0.5152 0.4431
C3 C 0.42569(15) 0.41012(14) 0.39681(17)
C4 C 0.38214(16) 0.34775(15) 0.35349(19)
H3 H 0.413 0.3048 0.344
C5 C 0.29104(15) 0.34914(14) 0.32374(18)
H4 H 0.2598 0.3063 0.2931
C6 C 0.24396(15) 0.41127(13) 0.33726(16)
C7 C 0.10581(14) 0.26625(13) 0.29774(17)
C8 C 0.12249(15) 0.23915(13) 0.38453(16)
C9 C 0.12847(17) 0.29210(14) 0.46051(17)
H5 H 0.1841 0.3197 0.4774
H6 H 0.1255 0.2629 0.5117
H7 H 0.0797 0.3281 0.4418
C10 C 0.13583(15) 0.16211(13) 0.39969(17)
H8 H 0.1464 0.1431 0.4582
C11 C 0.13418(16) 0.11182(13) 0.33213(18)
C12 C 0.14476(19) 0.02787(14) 0.3490(2)
H9 H 0.0886 0.006 0.3469
H10 H 0.1885 0.0188 0.4079
H11 H 0.1641 0.0042 0.3032
C13 C 0.12154(15) 0.14120(13) 0.24810(17)
H12 H 0.1224 0.1078 0.2017
C14 C 0.10756(15) 0.21789(13) 0.22946(17)
C15 C 0.09771(17) 0.24643(14) 0.13767(17)
H13 H 0.0835 0.3005 0.1338
H14 H 0.0505 0.2187 0.0933
H15 H 0.1527 0.2387 0.126
C16 C 0.000 0.37293(19) 0.250
C17 C 0.000 0.44825(19) 0.250
C18 C 0.10555(14) 0.55345(13) 0.30828(16)
C19 C 0.10389(15) 0.57556(13) 0.39224(16)
C20 C 0.08871(17) 0.51765(14) 0.45481(17)
H16 H 0.1393 0.4837 0.4755
H17 H 0.036 0.4883 0.4235
H18 H 0.0809 0.5433 0.5061
C21 C 0.12138(15) 0.65032(14) 0.41796(17)
H19 H 0.1181 0.6659 0.4738
C22 C 0.14355(15) 0.70320(13) 0.36512(17)
C23 C 0.16102(18) 0.78486(14) 0.3934(2)
H20 H 0.1125 0.8164 0.3567
H21 H 0.2156 0.8014 0.3855
H22 H 0.1663 0.7899 0.4562
C24 C 0.14912(15) 0.67860(13) 0.28449(17)
H23 H 0.1673 0.7135 0.2489
C25 C 0.12913(15) 0.60485(13) 0.25371(16)
C26 C 0.13458(17) 0.58218(14) 0.16498(16)
H24 H 0.078 0.5912 0.1183
H25 H 0.1494 0.5284 0.1662
H26 H 0.1799 0.6122 0.1525
F1 F 0.51526(9) 0.40851(8) 0.42663(11)
N1 N 0.08575(12) 0.34512(10) 0.28009(13)
N2 N 0.08528(12) 0.47650(10) 0.28090(13)
B1A B -0.14192(18) 0.41096(15) 0.19881(19)
C1A C -0.29344(15) 0.47290(13) 0.11713(17)
H1A H -0.2638 0.5162 0.1062
C2A C -0.38432(16) 0.47275(14) 0.08739(17)
H2A H -0.4168 0.5152 0.0569
C3A C -0.42569(15) 0.41012(14) 0.10319(17)
C4A C -0.38214(16) 0.34775(15) 0.14651(19)
H3A H -0.413 0.3048 0.156
C5A C -0.29104(15) 0.34914(14) 0.17626(18)
H4A H -0.2598 0.3063 0.2069
C6A C -0.24396(15) 0.41127(13) 0.16274(16)
C7A C -0.10581(14) 0.26625(13) 0.20226(17)
C8A C -0.12249(15) 0.23915(13) 0.11547(16)
C9A C -0.12847(17) 0.29210(14) 0.03949(17)
H5A H -0.1841 0.3197 0.0226
H6A H -0.1255 0.2629 -0.0117
H7A H -0.0797 0.3281 0.0582
C10A C -0.13583(15) 0.16211(13) 0.10031(17)
H8A H -0.1464 0.1431 0.0418
C11A C -0.13418(16) 0.11182(13) 0.16787(18)
C12A C -0.14476(19) 0.02787(14) 0.1510(2)
H9A H -0.0886 0.006 0.1531
H10A H -0.1885 0.0188 0.0921
H11A H -0.1641 0.0042 0.1968
C13A C -0.12154(15) 0.14120(13) 0.25190(17)
H12A H -0.1224 0.1078 0.2983
C14A C -0.10756(15) 0.21789(13) 0.27054(17)
C15A C -0.09771(17) 0.24643(14) 0.36233(17)
H13A H -0.0835 0.3005 0.3662
H14A H -0.0505 0.2187 0.4067
H15A H -0.1527 0.2387 0.374
C18A C -0.10555(14) 0.55345(13) 0.19172(16)
C19A C -0.10389(15) 0.57556(13) 0.10776(16)
C20A C -0.08871(17) 0.51765(14) 0.04519(17)
H16A H -0.1393 0.4837 0.0245
H17A H -0.036 0.4883 0.0765
H18A H -0.0809 0.5433 -0.0061
C21A C -0.12138(15) 0.65032(14) 0.08204(17)
H19A H -0.1181 0.6659 0.0262
C22A C -0.14355(15) 0.70320(13) 0.13488(17)
C23A C -0.16102(18) 0.78486(14) 0.1066(2)
H20A H -0.1125 0.8164 0.1433
H21A H -0.2156 0.8014 0.1145
H22A H -0.1663 0.7899 0.0438
C24A C -0.14912(15) 0.67860(13) 0.21551(17)
H23A H -0.1673 0.7135 0.2511
C25A C -0.12913(15) 0.60485(13) 0.24629(16)
C26A C -0.13458(17) 0.58218(14) 0.33502(16)
H24A H -0.078 0.5912 0.3817
H25A H -0.1494 0.5284 0.3338
H26A H -0.1799 0.6122 0.3475
F1A F -0.51526(9) 0.40851(8) 0.07337(11)
N1A N -0.08575(12) 0.34512(10) 0.21991(13)
N2A N -0.08528(12) 0.47650(10) 0.21910(13)
loop_
_geom_bond_atom_site_label_1
_geom_bond_atom_site_label_2
_geom_bond_site_symmetry_1
_geom_bond_site_symmetry_2
B1 C6 1_555 1_555
C1 H1 1_555 1_555
C2 C1 1_555 1_555
H2 C2 1_555 1_555
C3 C2 1_555 1_555
C4 C3 1_555 1_555
H3 C4 1_555 1_555
C5 C4 1_555 1_555
H4 C5 1_555 1_555
C6 C1 1_555 1_555
C7 C8 1_555 1_555
C8 C9 1_555 1_555
C9 H5 1_555 1_555
H6 C9 1_555 1_555
H7 C9 1_555 1_555
C10 C8 1_555 1_555
H8 C10 1_555 1_555
C11 C10 1_555 1_555
C12 C11 1_555 1_555
H9 C12 1_555 1_555
H10 C12 1_555 1_555
H11 C12 1_555 1_555
C13 C11 1_555 1_555
H12 C13 1_555 1_555
C14 C7 1_555 1_555
C15 C14 1_555 1_555
H13 C15 1_555 1_555
H14 C15 1_555 1_555
H15 C15 1_555 1_555
C16 C17 1_555 1_555
C17 N2 1_555 1_555
C18 C19 1_555 1_555
C19 C20 1_555 1_555
C20 H16 1_555 1_555
H17 C20 1_555 1_555
H18 C20 1_555 1_555
C21 C19 1_555 1_555
H19 C21 1_555 1_555
C22 C21 1_555 1_555
C23 C22 1_555 1_555
H20 C23 1_555 1_555
H21 C23 1_555 1_555
H22 C23 1_555 1_555
C24 C22 1_555 1_555
H23 C24 1_555 1_555
C25 C18 1_555 1_555
C26 C25 1_555 1_555
H24 C26 1_555 1_555
H25 C26 1_555 1_555
H26 C26 1_555 1_555
F1 C3 1_555 1_555
N1 B1 1_555 1_555
N2 B1 1_555 1_555
B1A C6A 1_555 1_555
C1A H1A 1_555 1_555
C2A C1A 1_555 1_555
H2A C2A 1_555 1_555
C3A C2A 1_555 1_555
C4A C3A 1_555 1_555
H3A C4A 1_555 1_555
C5A C4A 1_555 1_555
H4A C5A 1_555 1_555
C6A C1A 1_555 1_555
C7A C8A 1_555 1_555
C8A C9A 1_555 1_555
C9A H5A 1_555 1_555
H6A C9A 1_555 1_555
H7A C9A 1_555 1_555
C10A C8A 1_555 1_555
H8A C10A 1_555 1_555
C11A C10A 1_555 1_555
C12A C11A 1_555 1_555
H9A C12A 1_555 1_555
H10A C12A 1_555 1_555
H11A C12A 1_555 1_555
C13A C11A 1_555 1_555
H12A C13A 1_555 1_555
C14A C7A 1_555 1_555
C15A C14A 1_555 1_555
H13A C15A 1_555 1_555
H14A C15A 1_555 1_555
H15A C15A 1_555 1_555
C18A C19A 1_555 1_555
C19A C20A 1_555 1_555
C20A H16A 1_555 1_555
H17A C20A 1_555 1_555
H18A C20A 1_555 1_555
C21A C19A 1_555 1_555
H19A C21A 1_555 1_555
C22A C21A 1_555 1_555
C23A C22A 1_555 1_555
H20A C23A 1_555 1_555
H21A C23A 1_555 1_555
H22A C23A 1_555 1_555
C24A C22A 1_555 1_555
H23A C24A 1_555 1_555
C25A C18A 1_555 1_555
C26A C25A 1_555 1_555
H24A C26A 1_555 1_555
H25A C26A 1_555 1_555
H26A C26A 1_555 1_555
F1A C3A 1_555 1_555
N1A C16 1_555 1_555
N2A C17 1_555 1_555
C5 C6 1_555 1_555
C7 N1 1_555 1_555
C13 C14 1_555 1_555
C16 N1 1_555 1_555
C18 N2 1_555 1_555
C24 C25 1_555 1_555
B1A N1A 1_555 1_555
B1A N2A 1_555 1_555
C5A C6A 1_555 1_555
C7A N1A 1_555 1_555
C13A C14A 1_555 1_555
C18A N2A 1_555 1_555
C24A C25A 1_555 1_555

#END
