
#######################################################################
#
#                 Cambridge Crystallographic Data Centre
#                                CCDC 
#
#######################################################################
#
# If this CIF has been generated from an entry in the Cambridge 
# Structural Database, then it will include bibliographic, chemical, 
# crystal, experimental, refinement or atomic coordinate data resulting 
# from the CCDC's data processing and validation procedures.
#
#######################################################################

data_YEHPAF
_chemical_formula_moiety         'C50 H52 B2 F2 N4 1+,C24 B1 F20 1-,C7 H8'
_chemical_name_systematic        
'2,5-bis(4-fluorophenyl)-1,3,4,6-tetrakis(2,4,6-trimethylphenyl)-1,2,3,4,5,6-hexahydro[1,3,2]diazaborolo[4,5-d][1,3,2]diazaborol-2-ium radical cation tetrakis(pentafluorophenyl)borate toluene solvate'
_symmetry_cell_setting           monoclinic
_symmetry_space_group_name_H-M   'P 21/n'
_symmetry_Int_Tables_number      14
_space_group_name_Hall           '-P 2yn'
loop_
_symmetry_equiv_pos_site_id
_symmetry_equiv_pos_as_xyz
1 x,y,z
2 1/2-x,1/2+y,1/2-z
3 -x,-y,-z
4 1/2+x,1/2-y,1/2+z
_cell_length_a                   17.2104(7)
_cell_length_b                   19.0002(8)
_cell_length_c                   22.3578(10)
_cell_angle_alpha                90
_cell_angle_beta                 96.600(3)
_cell_angle_gamma                90
_cell_volume                     7262.57
_exptl_crystal_colour            black
_exptl_crystal_description       block
_cell_formula_units_Z            4
loop_
_atom_site_label
_atom_site_type_symbol
_atom_site_fract_x
_atom_site_fract_y
_atom_site_fract_z
B1 B 0.5064(3) 0.8237(2) 0.7125(2)
B2 B 0.5018(3) 0.6339(2) 0.8180(2)
C1 C 0.5099(2) 0.8921(2) 0.67599(18)
C2 C 0.4740(2) 0.8967(2) 0.61657(19)
H1 H 0.4477 0.8567 0.5987
C3 C 0.4759(3) 0.9580(2) 0.5832(2)
H2 H 0.4516 0.9605 0.5429
C4 C 0.5145(3) 1.0154(2) 0.6107(2)
C5 C 0.5496(3) 1.0143(2) 0.6685(2)
H3 H 0.5747 1.0551 0.6861
C6 C 0.5480(3) 0.9519(2) 0.7012(2)
H4 H 0.5731 0.95 0.7413
C7 C 0.3603(2) 0.78485(19) 0.68818(18)
C8 C 0.3138(2) 0.8387(2) 0.70820(18)
C9 C 0.3464(3) 0.8936(2) 0.75275(19)
H5 H 0.3637 0.9344 0.7311
H6 H 0.3909 0.8739 0.7787
H7 H 0.3058 0.9081 0.7775
C10 C 0.2348(3) 0.8404(2) 0.68473(19)
H8 H 0.2021 0.8764 0.6976
C11 C 0.1168(3) 0.7926(2) 0.6206(2)
H9 H 0.109 0.8176 0.5821
H10 H 0.0882 0.8169 0.65
H11 H 0.0974 0.7443 0.6152
C12 C 0.2525(3) 0.7414(2) 0.62216(19)
H12 H 0.2314 0.7088 0.5924
C13 C 0.3310(2) 0.7377(2) 0.64304(18)
C14 C 0.3839(3) 0.6855(2) 0.61670(19)
H13 H 0.4221 0.7109 0.5956
H14 H 0.3525 0.6547 0.5883
H15 H 0.4113 0.6572 0.6491
C15 C 0.4652(2) 0.7238(2) 0.75369(18)
C16 C 0.5440(2) 0.7330(2) 0.77486(17)
C17 C 0.6524(2) 0.8158(2) 0.75894(18)
C18 C 0.6845(2) 0.8519(2) 0.81039(19)
C19 C 0.6344(3) 0.8729(2) 0.85832(19)
H16 H 0.6623 0.8628 0.8981
H17 H 0.5853 0.8463 0.853
H18 H 0.623 0.9234 0.8551
C20 C 0.2030(2) 0.7913(2) 0.6432(2)
C21 C 0.7627(3) 0.8702(2) 0.8145(2)
H19 H 0.7853 0.8945 0.8494
C22 C 0.8095(3) 0.8544(2) 0.7698(2)
C23 C 0.8957(3) 0.8733(3) 0.7756(3)
H20 H 0.9016 0.9222 0.7629
H21 H 0.9228 0.8421 0.750
H22 H 0.9182 0.8679 0.8176
C24 C 0.7748(3) 0.8211(2) 0.7180(2)
H23 H 0.8056 0.8116 0.6863
C25 C 0.6972(2) 0.8014(2) 0.71120(18)
C26 C 0.6613(3) 0.7668(2) 0.65415(18)
H24 H 0.6281 0.8007 0.6302
H25 H 0.6297 0.7265 0.6641
H26 H 0.7029 0.7506 0.631
C27 C 0.6428(2) 0.68387(19) 0.85347(19)
C28 C 0.7128(2) 0.6632(2) 0.83241(18)
C29 C 0.7151(3) 0.6313(2) 0.77102(19)
H27 H 0.6616 0.6239 0.7519
H28 H 0.7426 0.5861 0.775
H29 H 0.7427 0.6632 0.7462
C30 C 0.7809(3) 0.6729(2) 0.8707(2)
H30 H 0.8294 0.6604 0.8572
C31 C 0.7808(3) 0.7002(2) 0.9283(2)
C32 C 0.8559(3) 0.7114(3) 0.9694(2)
H31 H 0.8939 0.675 0.9616
H32 H 0.8452 0.7085 1.0115
H33 H 0.8774 0.7579 0.9618
C33 C 0.7093(3) 0.7166(2) 0.9480(2)
H34 H 0.7087 0.7339 0.9878
C34 C 0.6390(2) 0.7087(2) 0.91190(18)
C35 C 0.5620(2) 0.7259(2) 0.93463(19)
H35 H 0.5349 0.6822 0.9426
H36 H 0.5296 0.7534 0.9042
H37 H 0.5716 0.7534 0.9719
C36 C 0.3552(2) 0.64261(19) 0.76753(18)
C37 C 0.2984(2) 0.6829(2) 0.79215(18)
C38 C 0.3203(3) 0.7398(2) 0.83783(19)
H38 H 0.2819 0.778 0.8322
H39 H 0.3723 0.7581 0.8325
H40 H 0.3208 0.7203 0.8785
C39 C 0.2207(2) 0.6653(2) 0.77624(18)
H41 H 0.1815 0.6923 0.7921
C40 C 0.1979(2) 0.6093(2) 0.73776(19)
C41 C 0.1126(2) 0.5942(2) 0.7202(2)
H42 H 0.1068 0.5485 0.6999
H43 H 0.0899 0.6311 0.693
H44 H 0.0854 0.5933 0.7564
C42 C 0.2566(2) 0.5688(2) 0.71759(18)
H45 H 0.2418 0.5293 0.6928
C43 C 0.3360(2) 0.58292(19) 0.73172(18)
C44 C 0.3964(2) 0.5347(2) 0.71118(18)
H46 H 0.4453 0.5607 0.7094
H47 H 0.3779 0.5164 0.6711
H48 H 0.4057 0.4955 0.7396
C45 C 0.4998(2) 0.56908(19) 0.85897(18)
C46 C 0.4304(2) 0.5458(2) 0.88012(18)
H49 H 0.3827 0.5696 0.8675
C47 C 0.4297(3) 0.4889(2) 0.91908(19)
H50 H 0.3827 0.4739 0.9338
C48 C 0.4993(3) 0.4550(2) 0.93554(19)
C49 C 0.5686(3) 0.4736(2) 0.9159(2)
H51 H 0.6152 0.4479 0.9278
C50 C 0.5688(3) 0.5312(2) 0.87789(19)
H52 H 0.6167 0.5456 0.8643
F1 F 0.51754(16) 1.07529(13) 0.57787(13)
F2 F 0.49844(15) 0.39914(11) 0.97382(11)
N1 N 0.43985(19) 0.77688(16) 0.71530(14)
N2 N 0.57204(19) 0.79310(15) 0.75212(14)
N3 N 0.56933(19) 0.68044(16) 0.81353(14)
N4 N 0.43642(19) 0.66482(15) 0.77871(14)
B3 B 0.7403(3) 0.5905(2) 0.5036(2)
C51 C 0.8069(2) 0.54133(19) 0.47546(17)
C52 C 0.8212(2) 0.4702(2) 0.48403(18)
C53 C 0.8839(3) 0.4349(2) 0.4652(2)
C54 C 0.9374(3) 0.4708(2) 0.4358(2)
C55 C 0.9258(2) 0.5415(2) 0.42526(19)
C56 C 0.8624(2) 0.5746(2) 0.44466(18)
C57 C 0.6871(2) 0.6391(2) 0.45338(18)
C58 C 0.6785(2) 0.6325(2) 0.39125(19)
C59 C 0.6292(2) 0.6717(2) 0.35213(19)
C60 C 0.5827(2) 0.7225(2) 0.3738(2)
C61 C 0.5878(2) 0.7318(2) 0.4354(2)
C62 C 0.6371(2) 0.6904(2) 0.47226(18)
C63 C 0.6729(2) 0.54431(19) 0.53359(17)
C64 C 0.6306(2) 0.4917(2) 0.50016(18)
C65 C 0.5734(2) 0.4517(2) 0.5207(2)
C66 C 0.5515(2) 0.4642(2) 0.57627(19)
C67 C 0.5880(2) 0.5173(2) 0.61057(18)
C68 C 0.6475(2) 0.55429(19) 0.58919(18)
C69 C 0.7964(2) 0.6366(2) 0.55457(18)
C70 C 0.8192(2) 0.7062(2) 0.55030(19)
C71 C 0.8720(3) 0.7391(2) 0.5930(2)
C72 C 0.9038(2) 0.7028(2) 0.6426(2)
C73 C 0.8838(2) 0.6342(2) 0.64875(19)
C74 C 0.8324(2) 0.6029(2) 0.60553(19)
F3 F 0.77345(14) 0.42932(11) 0.51363(10)
F4 F 0.89446(15) 0.36561(12) 0.47539(11)
F5 F 1.00019(15) 0.43792(14) 0.41764(12)
F6 F 0.97745(14) 0.57867(13) 0.39624(12)
F7 F 0.85631(13) 0.64460(11) 0.43387(10)
F8 F 0.72211(13) 0.58374(11) 0.36489(10)
F9 F 0.62459(15) 0.66083(12) 0.29211(10)
F10 F 0.53480(15) 0.76219(13) 0.33614(11)
F11 F 0.54326(14) 0.78118(12) 0.45829(11)
F12 F 0.63769(13) 0.70172(11) 0.53223(10)
F13 F 0.64766(13) 0.47843(11) 0.44330(10)
F14 F 0.53671(13) 0.40046(11) 0.48567(10)
F15 F 0.49279(14) 0.42727(12) 0.59679(11)
F16 F 0.56629(14) 0.53207(12) 0.66564(10)
F17 F 0.67987(13) 0.60481(11) 0.62751(10)
F18 F 0.79008(14) 0.74696(11) 0.50340(11)
F19 F 0.89009(14) 0.80795(12) 0.58638(12)
F20 F 0.95424(14) 0.73479(13) 0.68490(11)
F21 F 0.91527(14) 0.59679(12) 0.69747(11)
F22 F 0.81745(13) 0.53354(11) 0.61372(10)
C75 C 0.7132(3) 0.9498(3) 0.5908(2)
H53 H 0.7165 0.9949 0.6121
H54 H 0.758 0.9204 0.6058
H55 H 0.6646 0.9258 0.5977
C76 C 0.7138(3) 0.9622(2) 0.5252(2)
C77 C 0.7271(3) 1.0268(2) 0.5022(2)
H56 H 0.7369 1.0656 0.5289
C78 C 0.7268(3) 1.0377(3) 0.4406(3)
H57 H 0.7359 1.0833 0.4255
C79 C 0.7131(3) 0.9814(4) 0.4018(3)
H58 H 0.7134 0.988 0.3597
C80 C 0.6991(4) 0.9156(4) 0.4243(3)
H59 H 0.6901 0.8765 0.398
C81 C 0.6984(3) 0.9072(3) 0.4847(3)
H60 H 0.6868 0.8621 0.4996
loop_
_geom_bond_atom_site_label_1
_geom_bond_atom_site_label_2
_geom_bond_site_symmetry_1
_geom_bond_site_symmetry_2
B1 C1 1_555 1_555
B2 C45 1_555 1_555
C1 C2 1_555 1_555
C2 H1 1_555 1_555
C3 C2 1_555 1_555
H2 C3 1_555 1_555
C4 C3 1_555 1_555
C5 C4 1_555 1_555
H3 C5 1_555 1_555
C6 C1 1_555 1_555
H4 C6 1_555 1_555
C7 C8 1_555 1_555
C8 C9 1_555 1_555
C9 H5 1_555 1_555
H6 C9 1_555 1_555
H7 C9 1_555 1_555
C10 C8 1_555 1_555
H8 C10 1_555 1_555
C11 H9 1_555 1_555
H10 C11 1_555 1_555
H11 C11 1_555 1_555
C12 H12 1_555 1_555
C13 C7 1_555 1_555
C14 C13 1_555 1_555
H13 C14 1_555 1_555
H14 C14 1_555 1_555
H15 C14 1_555 1_555
C15 C16 1_555 1_555
C16 N2 1_555 1_555
C17 C18 1_555 1_555
C18 C19 1_555 1_555
C19 H16 1_555 1_555
H17 C19 1_555 1_555
H18 C19 1_555 1_555
C20 C10 1_555 1_555
C21 C18 1_555 1_555
H19 C21 1_555 1_555
C22 C21 1_555 1_555
C23 C22 1_555 1_555
H20 C23 1_555 1_555
H21 C23 1_555 1_555
H22 C23 1_555 1_555
C24 C22 1_555 1_555
H23 C24 1_555 1_555
C25 C17 1_555 1_555
C26 C25 1_555 1_555
H24 C26 1_555 1_555
H25 C26 1_555 1_555
H26 C26 1_555 1_555
C27 C28 1_555 1_555
C28 C29 1_555 1_555
C29 H27 1_555 1_555
H28 C29 1_555 1_555
H29 C29 1_555 1_555
C30 C28 1_555 1_555
H30 C30 1_555 1_555
C31 C30 1_555 1_555
C32 C31 1_555 1_555
H31 C32 1_555 1_555
H32 C32 1_555 1_555
H33 C32 1_555 1_555
C33 C31 1_555 1_555
H34 C33 1_555 1_555
C34 C27 1_555 1_555
C35 C34 1_555 1_555
H35 C35 1_555 1_555
H36 C35 1_555 1_555
H37 C35 1_555 1_555
C36 C37 1_555 1_555
C37 C38 1_555 1_555
C38 H38 1_555 1_555
H39 C38 1_555 1_555
H40 C38 1_555 1_555
C39 C37 1_555 1_555
H41 C39 1_555 1_555
C40 C39 1_555 1_555
C41 C40 1_555 1_555
H42 C41 1_555 1_555
H43 C41 1_555 1_555
H44 C41 1_555 1_555
C42 C40 1_555 1_555
H45 C42 1_555 1_555
C43 C36 1_555 1_555
C44 C43 1_555 1_555
H46 C44 1_555 1_555
H47 C44 1_555 1_555
H48 C44 1_555 1_555
C45 C46 1_555 1_555
C46 H49 1_555 1_555
C47 C46 1_555 1_555
H50 C47 1_555 1_555
C48 C47 1_555 1_555
C49 C48 1_555 1_555
H51 C49 1_555 1_555
C50 C45 1_555 1_555
H52 C50 1_555 1_555
F1 C4 1_555 1_555
F2 C48 1_555 1_555
N1 B1 1_555 1_555
N2 B1 1_555 1_555
N3 B2 1_555 1_555
N4 B2 1_555 1_555
B3 C51 1_555 1_555
C51 C52 1_555 1_555
C52 C53 1_555 1_555
C53 C54 1_555 1_555
C54 C55 1_555 1_555
C55 C56 1_555 1_555
C56 C51 1_555 1_555
C57 B3 1_555 1_555
C58 C57 1_555 1_555
C59 C58 1_555 1_555
C60 C59 1_555 1_555
C61 C60 1_555 1_555
C62 C57 1_555 1_555
C63 B3 1_555 1_555
C64 C63 1_555 1_555
C65 C64 1_555 1_555
C66 C65 1_555 1_555
C67 C66 1_555 1_555
C68 C63 1_555 1_555
C69 B3 1_555 1_555
C70 C69 1_555 1_555
C71 C70 1_555 1_555
C72 C71 1_555 1_555
C73 C72 1_555 1_555
C74 C69 1_555 1_555
F3 C52 1_555 1_555
F4 C53 1_555 1_555
F5 C54 1_555 1_555
F6 C55 1_555 1_555
F7 C56 1_555 1_555
F8 C58 1_555 1_555
F9 C59 1_555 1_555
F10 C60 1_555 1_555
F11 C61 1_555 1_555
F12 C62 1_555 1_555
F13 C64 1_555 1_555
F14 C65 1_555 1_555
F15 C66 1_555 1_555
F16 C67 1_555 1_555
F17 C68 1_555 1_555
F18 C70 1_555 1_555
F19 C71 1_555 1_555
F20 C72 1_555 1_555
F21 C73 1_555 1_555
F22 C74 1_555 1_555
C75 H53 1_555 1_555
H54 C75 1_555 1_555
H55 C75 1_555 1_555
C76 C75 1_555 1_555
C77 C76 1_555 1_555
H56 C77 1_555 1_555
C78 C77 1_555 1_555
H57 C78 1_555 1_555
C79 C78 1_555 1_555
H58 C79 1_555 1_555
C80 C79 1_555 1_555
H59 C80 1_555 1_555
C81 C76 1_555 1_555
H60 C81 1_555 1_555
C5 C6 1_555 1_555
C7 N1 1_555 1_555
C11 C20 1_555 1_555
C12 C13 1_555 1_555
C12 C20 1_555 1_555
C15 N1 1_555 1_555
C15 N4 1_555 1_555
C16 N3 1_555 1_555
C17 N2 1_555 1_555
C24 C25 1_555 1_555
C27 N3 1_555 1_555
C33 C34 1_555 1_555
C36 N4 1_555 1_555
C42 C43 1_555 1_555
C49 C50 1_555 1_555
C61 C62 1_555 1_555
C67 C68 1_555 1_555
C73 C74 1_555 1_555
C80 C81 1_555 1_555

#END
