
#######################################################################
#
#                 Cambridge Crystallographic Data Centre
#                                CCDC 
#
#######################################################################
#
# If this CIF has been generated from an entry in the Cambridge 
# Structural Database, then it will include bibliographic, chemical, 
# crystal, experimental, refinement or atomic coordinate data resulting 
# from the CCDC's data processing and validation procedures.
#
#######################################################################

data_YEHQEH
_chemical_formula_moiety         'C6 H4 F1 N1 O2'
_chemical_name_systematic        '6-Fluoronicotinic acid'
_symmetry_cell_setting           triclinic
_symmetry_space_group_name_H-M   'P -1'
_symmetry_Int_Tables_number      2
_space_group_name_Hall           '-P 1'
loop_
_symmetry_equiv_pos_site_id
_symmetry_equiv_pos_as_xyz
1 x,y,z
2 -x,-y,-z
_cell_length_a                   3.7498(11)
_cell_length_b                   5.3657(11)
_cell_length_c                   15.240(4)
_cell_angle_alpha                80.944(18)
_cell_angle_beta                 87.551(16)
_cell_angle_gamma                83.473(17)
_cell_volume                     300.752
_exptl_crystal_colour            colorless
_exptl_crystal_description       plate
_cell_formula_units_Z            2
loop_
_atom_site_label
_atom_site_type_symbol
_atom_site_fract_x
_atom_site_fract_y
_atom_site_fract_z
C1 C 0.3114(11) 0.8210(8) 0.2940(3)
C2 C 0.1167(13) 1.0587(9) 0.2827(3)
H1 H 0.0365 1.1291 0.3329
N1 N 0.0388(11) 1.1915(8) 0.2026(3)
C3 C 0.1558(14) 1.0845(10) 0.1347(4)
C4 C 0.3510(14) 0.8496(10) 0.1368(4)
H2 H 0.4260 0.7858 0.0850
C5 C 0.4282(12) 0.7163(8) 0.2185(3)
H3 H 0.5580 0.5566 0.2239
C6 C 0.3928(12) 0.6791(9) 0.3832(3)
O1 O 0.5711(10) 0.4732(7) 0.3941(2)
O2 O 0.2639(11) 0.7961(8) 0.4489(3)
H4 H 0.350(10) 0.703(11) 0.504(6)
F1 F 0.0740(11) 1.2224(7) 0.0547(2)
loop_
_geom_bond_atom_site_label_1
_geom_bond_atom_site_label_2
_geom_bond_site_symmetry_1
_geom_bond_site_symmetry_2
C1 C2 1_555 1_555
C2 H1 1_555 1_555
N1 C2 1_555 1_555
C3 N1 1_555 1_555
C4 C3 1_555 1_555
H2 C4 1_555 1_555
C5 C1 1_555 1_555
H3 C5 1_555 1_555
C6 C1 1_555 1_555
O1 C6 1_555 1_555
O2 C6 1_555 1_555
H4 O2 1_555 1_555
F1 C3 1_555 1_555
C4 C5 1_555 1_555

#END
