
#######################################################################
#
#                 Cambridge Crystallographic Data Centre
#                                CCDC 
#
#######################################################################
#
# If this CIF has been generated from an entry in the Cambridge 
# Structural Database, then it will include bibliographic, chemical, 
# crystal, experimental, refinement or atomic coordinate data resulting 
# from the CCDC's data processing and validation procedures.
#
#######################################################################

data_YEHTIQ
_chemical_compound_source        'leaves of Isodon flavida (Rabdosia, Labiatae)'
_chemical_formula_moiety         'C20 H32 O3'
_chemical_name_systematic        '13-Hydroxyabiet-8-en-20-oic acid'
_symmetry_cell_setting           trigonal
_symmetry_space_group_name_H-M   'P 31 2 1'
_symmetry_Int_Tables_number      152
_space_group_name_Hall           'P 31 2"'
loop_
_symmetry_equiv_pos_site_id
_symmetry_equiv_pos_as_xyz
1 x,y,z
2 -y,x-y,1/3+z
3 -x+y,-x,2/3+z
4 y,x,-z
5 -x,-x+y,1/3-z
6 x-y,-y,2/3-z
_cell_length_a                   14.4204(16)
_cell_length_b                   14.4204(16)
_cell_length_c                   31.927(6)
_cell_angle_alpha                90
_cell_angle_beta                 90
_cell_angle_gamma                120
_cell_volume                     5749.68
_cell_formula_units_Z            12
loop_
_atom_site_label
_atom_site_type_symbol
_atom_site_fract_x
_atom_site_fract_y
_atom_site_fract_z
C1 C 0.1043(3) -0.1410(3) 0.11087(9)
H1 H 0.1247 -0.1052 0.1378
H2 H 0.0335 -0.2032 0.1138
C3 C 0.1833(3) -0.1778(3) 0.09889(11)
H5 H 0.1843 -0.2242 0.1207
H6 H 0.1599 -0.2187 0.0731
C5 C 0.2961(3) -0.0829(3) 0.09296(12)
H9 H 0.3228 -0.0483 0.1198
H10 H 0.3426 -0.1093 0.0835
C7 C 0.3025(3) 0.0001(3) 0.06174(12)
C9 C 0.2168(3) 0.0308(3) 0.07323(10)
H13 H 0.2368 0.0602 0.1016
C11 C 0.2200(3) 0.1220(3) 0.04817(10)
H15 H 0.2937 0.1789 0.0449
H16 H 0.1903 0.0966 0.0205
C13 C 0.1564(2) 0.1652(2) 0.07031(9)
H19 H 0.1985 0.2099 0.0935
H20 H 0.1443 0.2099 0.0510
C15 C 0.0508(3) 0.0796(3) 0.08666(9)
C17 C 0.0253(2) -0.0222(3) 0.09177(8)
C19 C 0.1000(2) -0.0644(2) 0.07840(9)
C21 C -0.0828(3) -0.1033(3) 0.10788(9)
H23 H -0.0744 -0.1507 0.1271
H24 H -0.1260 -0.1462 0.0845
C23 C -0.1427(3) -0.0558(2) 0.13030(9)
H27 H -0.2164 -0.1115 0.1347
H28 H -0.1104 -0.0294 0.1575
C25 C -0.1411(3) 0.0349(2) 0.10575(9)
C27 C -0.0251(3) 0.1192(2) 0.09770(10)
H31 H -0.0237 0.1648 0.0751
H32 H 0.0021 0.1635 0.1225
C29 C -0.2021(3) 0.0828(3) 0.12776(11)
H35 H -0.1671 0.1103 0.1548
C31 C -0.3191(3) 0.0013(3) 0.13689(12)
H37 H -0.3520 0.0361 0.1512
H38 H -0.3228 -0.0549 0.1542
H39 H -0.3561 -0.0284 0.1110
C33 C -0.1951(3) 0.1775(3) 0.10376(13)
H43 H -0.2379 0.2021 0.1176
H44 H -0.2209 0.1557 0.0757
H45 H -0.1219 0.2344 0.1029
C35 C 0.4149(3) 0.0993(3) 0.06628(13)
H49 H 0.4281 0.1471 0.0432
H50 H 0.4677 0.0773 0.0663
H51 H 0.4190 0.1352 0.0921
C37 C 0.2927(3) -0.0414(3) 0.01662(10)
H55 H 0.2876 0.0074 -0.0024
H56 H 0.2298 -0.1107 0.0143
H57 H 0.3548 -0.0467 0.0099
C39 C 0.0458(3) -0.1303(3) 0.03911(10)
O1 O -0.01306(18) -0.22667(18) 0.03991(6)
O3 O 0.06231(17) -0.07359(16) 0.00476(6)
H62 H 0.0311 -0.1138 -0.0149
O5 O -0.18690(16) -0.00451(15) 0.06473(6)
H63 H -0.2501 -0.0505 0.0673
C2 C 0.5182(3) 0.6819(3) 0.13818(9)
H3 H 0.5053 0.6346 0.1618
H4 H 0.5906 0.7419 0.1406
C4 C 0.4396(3) 0.7233(3) 0.13989(10)
H7 H 0.4475 0.7593 0.1664
H8 H 0.4564 0.7752 0.1177
C6 C 0.3246(3) 0.6336(3) 0.13515(12)
H11 H 0.2781 0.6642 0.1350
H12 H 0.3056 0.5865 0.1592
C8 C 0.3047(3) 0.5672(3) 0.09508(11)
C10 C 0.3895(3) 0.5312(3) 0.09317(11)
H14 H 0.3765 0.4886 0.1187
C12 C 0.3735(3) 0.4532(3) 0.05782(11)
H17 H 0.2986 0.3981 0.0565
H18 H 0.3926 0.4912 0.0313
C14 C 0.4410(2) 0.4021(3) 0.06471(10)
H21 H 0.4453 0.3700 0.0386
H22 H 0.4058 0.3451 0.0851
C16 C 0.5533(3) 0.4786(3) 0.07976(9)
C18 C 0.5823(2) 0.5733(3) 0.09668(9)
C20 C 0.5080(2) 0.6209(2) 0.09713(9)
C22 C 0.6951(3) 0.6443(3) 0.11158(10)
H25 H 0.6932 0.6768 0.1379
H26 H 0.7324 0.7016 0.0914
C24 C 0.7581(3) 0.5868(3) 0.11767(10)
H29 H 0.8330 0.6392 0.1220
H30 H 0.7322 0.5422 0.1425
C26 C 0.7477(3) 0.5176(3) 0.08017(10)
C28 C 0.6303(3) 0.4371(2) 0.07411(10)
H33 H 0.6107 0.3787 0.0937
H34 H 0.6208 0.4076 0.0461
C30 C 0.8142(3) 0.4614(3) 0.08450(11)
H36 H 0.7844 0.4124 0.1083
C32 C 0.9301(3) 0.5352(4) 0.09393(15)
H40 H 0.9669 0.4952 0.0944
H41 H 0.9370 0.5682 0.1207
H42 H 0.9608 0.5895 0.0727
C34 C 0.8034(4) 0.3932(3) 0.04642(12)
H46 H 0.7290 0.3432 0.0415
H47 H 0.8409 0.3550 0.0514
H48 H 0.8334 0.4386 0.0224
C36 C 0.1917(3) 0.4686(4) 0.09896(14)
H52 H 0.1729 0.4291 0.0732
H53 H 0.1410 0.4915 0.1048
H54 H 0.1908 0.4236 0.1213
C38 C 0.3065(3) 0.6328(3) 0.05650(11)
H58 H 0.3021 0.5941 0.0314
H59 H 0.3719 0.7005 0.0564
H60 H 0.2467 0.6446 0.0578
C40 C 0.5534(3) 0.7038(3) 0.06157(10)
O2 O 0.52906(17) 0.65943(16) 0.02361(6)
H61 H 0.5546 0.7066 0.0058
O4 O 0.61158(19) 0.79841(18) 0.06656(7)
O6 O 0.78076(16) 0.58439(16) 0.04300(6)
H64 H 0.8444 0.6296 0.0449
loop_
_geom_bond_atom_site_label_1
_geom_bond_atom_site_label_2
_geom_bond_site_symmetry_1
_geom_bond_site_symmetry_2
C1 H1 1_555 1_555
H2 C1 1_555 1_555
C2 H3 1_555 1_555
H4 C2 1_555 1_555
C3 C1 1_555 1_555
H5 C3 1_555 1_555
H6 C3 1_555 1_555
C4 C2 1_555 1_555
H7 C4 1_555 1_555
H8 C4 1_555 1_555
C5 C3 1_555 1_555
H9 C5 1_555 1_555
H10 C5 1_555 1_555
C6 C4 1_555 1_555
H11 C6 1_555 1_555
H12 C6 1_555 1_555
C7 C5 1_555 1_555
C8 C6 1_555 1_555
C9 C7 1_555 1_555
H13 C9 1_555 1_555
C10 C8 1_555 1_555
H14 C10 1_555 1_555
C11 C9 1_555 1_555
H15 C11 1_555 1_555
H16 C11 1_555 1_555
C12 C10 1_555 1_555
H17 C12 1_555 1_555
H18 C12 1_555 1_555
C13 C11 1_555 1_555
H19 C13 1_555 1_555
H20 C13 1_555 1_555
C14 C12 1_555 1_555
H21 C14 1_555 1_555
H22 C14 1_555 1_555
C15 C13 1_555 1_555
C16 C14 1_555 1_555
C17 C15 1_555 1_555
C18 C16 1_555 1_555
C19 C1 1_555 1_555
C20 C2 1_555 1_555
C21 C17 1_555 1_555
H23 C21 1_555 1_555
H24 C21 1_555 1_555
C22 C18 1_555 1_555
H25 C22 1_555 1_555
H26 C22 1_555 1_555
C23 C21 1_555 1_555
H27 C23 1_555 1_555
H28 C23 1_555 1_555
C24 C22 1_555 1_555
H29 C24 1_555 1_555
H30 C24 1_555 1_555
C25 C23 1_555 1_555
C26 C24 1_555 1_555
C27 C15 1_555 1_555
H31 C27 1_555 1_555
H32 C27 1_555 1_555
C28 C16 1_555 1_555
H33 C28 1_555 1_555
H34 C28 1_555 1_555
C29 C25 1_555 1_555
H35 C29 1_555 1_555
C30 C26 1_555 1_555
H36 C30 1_555 1_555
C31 C29 1_555 1_555
H37 C31 1_555 1_555
H38 C31 1_555 1_555
H39 C31 1_555 1_555
C32 C30 1_555 1_555
H40 C32 1_555 1_555
H41 C32 1_555 1_555
H42 C32 1_555 1_555
C33 C29 1_555 1_555
H43 C33 1_555 1_555
H44 C33 1_555 1_555
H45 C33 1_555 1_555
C34 C30 1_555 1_555
H46 C34 1_555 1_555
H47 C34 1_555 1_555
H48 C34 1_555 1_555
C35 C7 1_555 1_555
H49 C35 1_555 1_555
H50 C35 1_555 1_555
H51 C35 1_555 1_555
C36 C8 1_555 1_555
H52 C36 1_555 1_555
H53 C36 1_555 1_555
H54 C36 1_555 1_555
C37 C7 1_555 1_555
H55 C37 1_555 1_555
H56 C37 1_555 1_555
H57 C37 1_555 1_555
C38 C8 1_555 1_555
H58 C38 1_555 1_555
H59 C38 1_555 1_555
H60 C38 1_555 1_555
C39 C19 1_555 1_555
C40 C20 1_555 1_555
O1 C39 1_555 1_555
O2 C40 1_555 1_555
H61 O2 1_555 1_555
O3 C39 1_555 1_555
H62 O3 1_555 1_555
O4 C40 1_555 1_555
O5 C25 1_555 1_555
H63 O5 1_555 1_555
O6 C26 1_555 1_555
H64 O6 1_555 1_555
C9 C19 1_555 1_555
C10 C20 1_555 1_555
C17 C19 1_555 1_555
C18 C20 1_555 1_555
C25 C27 1_555 1_555
C26 C28 1_555 1_555

#END
