
#######################################################################
#
#                 Cambridge Crystallographic Data Centre
#                                CCDC 
#
#######################################################################
#
# If this CIF has been generated from an entry in the Cambridge 
# Structural Database, then it will include bibliographic, chemical, 
# crystal, experimental, refinement or atomic coordinate data resulting 
# from the CCDC's data processing and validation procedures.
#
#######################################################################

data_YEHVAL
_chemical_formula_moiety         'C13 H17 N3 O1'
_chemical_name_systematic        
2-(3-pentyl-1H-imidazol-3-ium-1-yl)pyridin-3-olate
_symmetry_cell_setting           monoclinic
_symmetry_space_group_name_H-M   'P 21/c'
_symmetry_Int_Tables_number      14
_space_group_name_Hall           '-P 2ybc'
loop_
_symmetry_equiv_pos_site_id
_symmetry_equiv_pos_as_xyz
1 x,y,z
2 -x,1/2+y,1/2-z
3 -x,-y,-z
4 x,1/2-y,1/2+z
_cell_length_a                   12.3454(15)
_cell_length_b                   9.9573(11)
_cell_length_c                   10.7557(13)
_cell_angle_alpha                90
_cell_angle_beta                 111.633(4)
_cell_angle_gamma                90
_cell_volume                     1229.04
_exptl_crystal_colour            colorless
_exptl_crystal_description       platelet
_cell_formula_units_Z            4
_exptl_crystal_recrystallization_method acetonitrile
_exptl_crystal_preparation       ', Luminescent'
loop_
_atom_site_label
_atom_site_type_symbol
_atom_site_fract_x
_atom_site_fract_y
_atom_site_fract_z
O1 O 0.64228(13) -0.04357(16) 0.56880(15)
N1 N 0.66347(16) 0.19793(18) 0.71963(18)
N2 N 0.50096(17) 0.22409(19) 0.74993(18)
N3 N 0.84663(17) 0.2269(2) 0.71345(19)
C1 C 0.5527(2) 0.1564(2) 0.6805(2)
C2 C 0.5809(2) 0.3099(2) 0.8371(2)
C3 C 0.6817(2) 0.2942(2) 0.8185(2)
C4 C 0.7535(2) 0.1487(2) 0.6763(2)
C5 C 0.7387(2) 0.0243(3) 0.6079(2)
C6 C 0.8401(2) -0.0167(3) 0.5863(2)
C7 C 0.9382(2) 0.0632(3) 0.6255(3)
C8 C 0.9380(2) 0.1850(3) 0.6863(3)
C9 C 0.3833(2) 0.1985(3) 0.7472(2)
C10 C 0.3859(2) 0.1160(3) 0.8667(2)
C11 C 0.2652(2) 0.0996(3) 0.8710(2)
C12 C 0.2634(2) 0.0201(3) 0.9901(2)
C13 C 0.1449(2) 0.0216(3) 1.0020(3)
H1 H 0.51714 0.09013 0.61448
H2 H 0.56717 0.36907 0.89899
H3 H 0.75253 0.34041 0.86443
H4 H 0.84059 -0.10049 0.54428
H5 H 1.00579 0.0344 0.61061
H6 H 1.00506 0.24066 0.70958
H7 H 0.33776 0.14997 0.6639
H8 H 0.34387 0.28512 0.74695
H9 H 0.4189 0.02632 0.86252
H10 H 0.43717 0.16056 0.94987
H11 H 0.23194 0.18969 0.87269
H12 H 0.21471 0.05408 0.78801
H13 H 0.28574 -0.07404 0.98177
H14 H 0.32187 0.05793 1.07271
H15 H 0.08596 -0.01125 0.91858
H16 H 0.12566 0.11361 1.01894
H17 H 0.14646 -0.03645 1.0762
loop_
_geom_bond_atom_site_label_1
_geom_bond_atom_site_label_2
_geom_bond_site_symmetry_1
_geom_bond_site_symmetry_2
O1 C5 1_555 1_555
N1 C1 1_555 1_555
N2 C1 1_555 1_555
N3 C4 1_555 1_555
C1 H1 1_555 1_555
C2 N2 1_555 1_555
C3 N1 1_555 1_555
C4 N1 1_555 1_555
C5 C4 1_555 1_555
C6 C5 1_555 1_555
C7 C6 1_555 1_555
C8 N3 1_555 1_555
C9 N2 1_555 1_555
C10 C9 1_555 1_555
C11 C10 1_555 1_555
C12 C11 1_555 1_555
C13 C12 1_555 1_555
H2 C2 1_555 1_555
H3 C3 1_555 1_555
H4 C6 1_555 1_555
H5 C7 1_555 1_555
H6 C8 1_555 1_555
H7 C9 1_555 1_555
H8 C9 1_555 1_555
H9 C10 1_555 1_555
H10 C10 1_555 1_555
H11 C11 1_555 1_555
H12 C11 1_555 1_555
H13 C12 1_555 1_555
H14 C12 1_555 1_555
H15 C13 1_555 1_555
H16 C13 1_555 1_555
H17 C13 1_555 1_555
C2 C3 1_555 1_555
C7 C8 1_555 1_555

#END
