
#######################################################################
#
#                 Cambridge Crystallographic Data Centre
#                                CCDC 
#
#######################################################################
#
# If this CIF has been generated from an entry in the Cambridge 
# Structural Database, then it will include bibliographic, chemical, 
# crystal, experimental, refinement or atomic coordinate data resulting 
# from the CCDC's data processing and validation procedures.
#
#######################################################################

data_YEHWUD
_chemical_formula_moiety         'C21 H26 O2'
_chemical_name_systematic        
'(2.2)(1,3)Adamantanoparacyclophane-15-carboxylic acid'
_symmetry_cell_setting           monoclinic
_symmetry_space_group_name_H-M   'P 21/n'
_symmetry_Int_Tables_number      14
_space_group_name_Hall           '-P 2yn'
loop_
_symmetry_equiv_pos_site_id
_symmetry_equiv_pos_as_xyz
1 x,y,z
2 1/2-x,1/2+y,1/2-z
3 -x,-y,-z
4 1/2+x,1/2-y,1/2+z
_cell_length_a                   6.507(1)
_cell_length_b                   15.834(1)
_cell_length_c                   15.660(1)
_cell_angle_alpha                90
_cell_angle_beta                 93.41(1)
_cell_angle_gamma                90
_cell_volume                     1610.62
_exptl_crystal_colour            colorless
_chemical_melting_point          264deg.C
_cell_formula_units_Z            4
loop_
_atom_site_label
_atom_site_type_symbol
_atom_site_fract_x
_atom_site_fract_y
_atom_site_fract_z
C1 C 0.6025(4) 0.7996(1) 0.6649(2)
C2 C 0.4517(4) 0.7988(1) 0.7389(2)
C3 C 0.4656(3) 0.7294(1) 0.8091(1)
C4 C 0.6776(3) 0.7246(1) 0.8563(1)
C5 C 0.6859(3) 0.6510(1) 0.9199(1)
C6 C 0.5222(4) 0.6622(2) 0.9846(1)
C7 C 0.3107(4) 0.6650(2) 0.9369(2)
C8 C 0.2726(3) 0.5802(2) 0.8900(1)
C9 C 0.4356(3) 0.5678(1) 0.8241(1)
C10 C 0.4178(3) 0.6446(1) 0.7665(1)
C11 C 0.6492(3) 0.5678(1) 0.8714(1)
C12 C 0.3022(4) 0.7407(2) 0.8749(2)
C13 C 0.3970(3) 0.4879(1) 0.7683(1)
C14 C 0.5420(3) 0.4651(1) 0.6955(1)
C15 C 0.4476(3) 0.5845(1) 0.5852(1)
C16 C 0.4693(3) 0.6721(1) 0.5789(1)
C17 C 0.6311(4) 0.7139(1) 0.6237(1)
C18 C 0.8019(3) 0.6649(2) 0.6465(1)
C19 C 0.7824(3) 0.5781(2) 0.6538(1)
C20 C 0.5916(3) 0.5390(1) 0.6388(1)
C21 C 0.2544(3) 0.5467(1) 0.5488(1)
O1 O 0.1488(2) 0.5919(1) 0.4931(1)
O2 O 0.1961(2) 0.4752(1) 0.5702(1)
H1 H 0.7341 0.8199 0.6871
H2 H 0.5516 0.8385 0.6217
H3 H 0.3145 0.7962 0.7129
H4 H 0.4648 0.8523 0.7677
H5 H 0.7044 0.7766 0.8864
H6 H 0.7814 0.7176 0.8157
H7 H 0.8191 0.6498 0.9497
H8 H 0.5444 0.7150 1.0138
H9 H 0.5293 0.6177 1.0263
H10 H 0.2073 0.6723 0.9775
H11 H 0.1375 0.5790 0.8619
H12 H 0.2815 0.5352 0.9313
H13 H 0.5078 0.6369 0.7207
H14 H 0.2795 0.6472 0.7416
H15 H 0.6608 0.5215 0.9108
H16 H 0.7516 0.5608 0.8303
H17 H 0.1683 0.7453 0.8461
H18 H 0.3289 0.7915 0.9072
H19 H 0.2601 0.4926 0.7423
H20 H 0.3969 0.4404 0.8064
H21 H 0.4779 0.4217 0.6604
H22 H 0.6683 0.4426 0.7209
H23 H 0.3730 0.7040 0.5431
H24 H 0.9337 0.6914 0.6573
H25 H 0.9023 0.5447 0.6689
H26 H -0.0083(38) 0.5599(15) 0.4676(15)
loop_
_geom_bond_atom_site_label_1
_geom_bond_atom_site_label_2
_geom_bond_site_symmetry_1
_geom_bond_site_symmetry_2
C1 C2 1_555 1_555
C2 C3 1_555 1_555
C3 C4 1_555 1_555
C4 C5 1_555 1_555
C5 C6 1_555 1_555
C6 C7 1_555 1_555
C7 C8 1_555 1_555
C8 C9 1_555 1_555
C9 C10 1_555 1_555
C10 C3 1_555 1_555
C11 C5 1_555 1_555
C12 C3 1_555 1_555
C13 C9 1_555 1_555
C14 C13 1_555 1_555
C15 C16 1_555 1_555
C16 C17 1_555 1_555
C17 C1 1_555 1_555
C18 C17 1_555 1_555
C19 C18 1_555 1_555
C20 C14 1_555 1_555
C21 C15 1_555 1_555
O1 C21 1_555 1_555
O2 C21 1_555 1_555
H1 C1 1_555 1_555
H2 C1 1_555 1_555
H3 C2 1_555 1_555
H4 C2 1_555 1_555
H5 C4 1_555 1_555
H6 C4 1_555 1_555
H7 C5 1_555 1_555
H8 C6 1_555 1_555
H9 C6 1_555 1_555
H10 C7 1_555 1_555
H11 C8 1_555 1_555
H12 C8 1_555 1_555
H13 C10 1_555 1_555
H14 C10 1_555 1_555
H15 C11 1_555 1_555
H16 C11 1_555 1_555
H17 C12 1_555 1_555
H18 C12 1_555 1_555
H19 C13 1_555 1_555
H20 C13 1_555 1_555
H21 C14 1_555 1_555
H22 C14 1_555 1_555
H23 C16 1_555 1_555
H24 C18 1_555 1_555
H25 C19 1_555 1_555
H26 O1 1_555 1_555
C7 C12 1_555 1_555
C9 C11 1_555 1_555
C15 C20 1_555 1_555
C19 C20 1_555 1_555

#END
