
#######################################################################
#
#                 Cambridge Crystallographic Data Centre
#                                CCDC 
#
#######################################################################
#
# If this CIF has been generated from an entry in the Cambridge 
# Structural Database, then it will include bibliographic, chemical, 
# crystal, experimental, refinement or atomic coordinate data resulting 
# from the CCDC's data processing and validation procedures.
#
#######################################################################

data_YEHWOX
_chemical_formula_moiety         'C22 H28 O2 S2'
_chemical_name_systematic        
'Methyl 2,15-dithia-(3.3)(1,3)adamantoparacyclophane-21-carboxylate'
_symmetry_cell_setting           monoclinic
_symmetry_space_group_name_H-M   'P 21/c'
_symmetry_Int_Tables_number      14
_space_group_name_Hall           '-P 2ybc'
loop_
_symmetry_equiv_pos_site_id
_symmetry_equiv_pos_as_xyz
1 x,y,z
2 -x,1/2+y,1/2-z
3 -x,-y,-z
4 x,1/2-y,1/2+z
_cell_length_a                   8.612(1)
_cell_length_b                   18.845(3)
_cell_length_c                   13.099(1)
_cell_angle_alpha                90
_cell_angle_beta                 105.15(1)
_cell_angle_gamma                90
_cell_volume                     2051.99
_exptl_crystal_colour            colorless
_chemical_melting_point          123deg.C
_cell_formula_units_Z            4
loop_
_atom_site_label
_atom_site_type_symbol
_atom_site_fract_x
_atom_site_fract_y
_atom_site_fract_z
C1 C 0.1913(4) 0.2520(2) 0.4221(2)
S1 S 0.0742(1) 0.3100(1) 0.4844(1)
C2 C 0.1709(4) 0.3959(2) 0.4852(3)
C3 C 0.2518(4) 0.4285(2) 0.5936(3)
C4 C 0.1372(4) 0.4304(2) 0.6657(3)
C5 C 0.2177(5) 0.4651(2) 0.7709(3)
C6 C 0.2702(5) 0.5409(2) 0.7541(4)
C7 C 0.3860(5) 0.5385(2) 0.6841(3)
C8 C 0.5358(5) 0.4954(2) 0.7392(3)
C9 C 0.4881(4) 0.4193(2) 0.7571(3)
C10 C 0.4026(3) 0.3865(2) 0.6511(3)
C11 C 0.3031(5) 0.5044(2) 0.5778(3)
C12 C 0.3673(5) 0.4217(2) 0.8262(3)
C13 C 0.6329(4) 0.3742(2) 0.8145(3)
S2 S 0.8027(1) 0.3718(1) 0.7563(1)
C14 C 0.8123(4) 0.2793(2) 0.7176(3)
C15 C 0.6644(3) 0.2574(2) 0.6327(3)
C16 C 0.6346(4) 0.2841(2) 0.5306(3)
C17 C 0.4839(4) 0.2764(2) 0.4624(3)
C18 C 0.3594(4) 0.2417(2) 0.4906(2)
C19 C 0.3952(4) 0.2075(2) 0.5884(2)
C20 C 0.5473(4) 0.2165(2) 0.6582(3)
C21 C 0.2771(4) 0.1674(2) 0.6306(3)
O1 O 0.2831(3) 0.1616(2) 0.7221(2)
O2 O 0.1660(3) 0.1348(2) 0.5559(2)
C22 C 0.0307(7) 0.1008(3) 0.5889(4)
H1 H 0.1965 0.2728 0.3562
H2 H 0.1387 0.2068 0.4072
H3 H 0.0911 0.4289 0.4478
H4 H 0.2503 0.3914 0.4460
H5 H 0.1075 0.3827 0.6783
H6 H 0.0413 0.4559 0.6313
H7 H 0.1446 0.4663 0.8151
H8 H 0.3230 0.5619 0.8209
H9 H 0.1780 0.5693 0.7216
H10 H 0.4173 0.5861 0.6725
H11 H 0.5905 0.5169 0.8053
H12 H 0.6079 0.4944 0.6944
H13 H 0.4762 0.3838 0.6073
H14 H 0.3709 0.3390 0.6631
H15 H 0.2103 0.5314 0.5420
H16 H 0.3773 0.5037 0.5344
H17 H 0.3358 0.3741 0.8377
H18 H 0.4183 0.4422 0.8937
H19 H 0.5946 0.3264 0.8145
H20 H 0.6697 0.3893 0.8868
H21 H 0.8221 0.2496 0.7786
H22 H 0.9058 0.2722 0.6919
H23 H 0.7192 0.3073 0.5081
H24 H 0.4638 0.2958 0.3924
H25 H 0.5712 0.1938 0.7262
H26 H -0.0435 0.0798 0.5288
H27 H 0.0746 0.0646 0.6398
H28 H -0.0245 0.1353 0.6204
loop_
_geom_bond_atom_site_label_1
_geom_bond_atom_site_label_2
_geom_bond_site_symmetry_1
_geom_bond_site_symmetry_2
C1 S1 1_555 1_555
S1 C2 1_555 1_555
C2 C3 1_555 1_555
C3 C4 1_555 1_555
C4 C5 1_555 1_555
C5 C6 1_555 1_555
C6 C7 1_555 1_555
C7 C8 1_555 1_555
C8 C9 1_555 1_555
C9 C10 1_555 1_555
C10 C3 1_555 1_555
C11 C3 1_555 1_555
C12 C5 1_555 1_555
C13 C9 1_555 1_555
S2 C13 1_555 1_555
C14 S2 1_555 1_555
C15 C14 1_555 1_555
C16 C15 1_555 1_555
C17 C16 1_555 1_555
C18 C1 1_555 1_555
C19 C18 1_555 1_555
C20 C15 1_555 1_555
C21 C19 1_555 1_555
O1 C21 1_555 1_555
O2 C21 1_555 1_555
C22 O2 1_555 1_555
H1 C1 1_555 1_555
H2 C1 1_555 1_555
H3 C2 1_555 1_555
H4 C2 1_555 1_555
H5 C4 1_555 1_555
H6 C4 1_555 1_555
H7 C5 1_555 1_555
H8 C6 1_555 1_555
H9 C6 1_555 1_555
H10 C7 1_555 1_555
H11 C8 1_555 1_555
H12 C8 1_555 1_555
H13 C10 1_555 1_555
H14 C10 1_555 1_555
H15 C11 1_555 1_555
H16 C11 1_555 1_555
H17 C12 1_555 1_555
H18 C12 1_555 1_555
H19 C13 1_555 1_555
H20 C13 1_555 1_555
H21 C14 1_555 1_555
H22 C14 1_555 1_555
H23 C16 1_555 1_555
H24 C17 1_555 1_555
H25 C20 1_555 1_555
H26 C22 1_555 1_555
H27 C22 1_555 1_555
H28 C22 1_555 1_555
C7 C11 1_555 1_555
C9 C12 1_555 1_555
C17 C18 1_555 1_555
C19 C20 1_555 1_555

#END
