
#######################################################################
#
#                 Cambridge Crystallographic Data Centre
#                                CCDC 
#
#######################################################################
#
# If this CIF has been generated from an entry in the Cambridge 
# Structural Database, then it will include bibliographic, chemical, 
# crystal, experimental, refinement or atomic coordinate data resulting 
# from the CCDC's data processing and validation procedures.
#
#######################################################################

data_YEHXOY
_chemical_formula_moiety         'C24 H36 S2'
_chemical_name_systematic        2,15-Dithia(3.3)(1,3)adamantanophane
_symmetry_cell_setting           orthorhombic
_symmetry_space_group_name_H-M   'P n a 21'
_symmetry_Int_Tables_number      33
_space_group_name_Hall           'P 2c -2n'
loop_
_symmetry_equiv_pos_site_id
_symmetry_equiv_pos_as_xyz
1 x,y,z
2 -x,-y,1/2+z
3 1/2-x,1/2+y,1/2+z
4 1/2+x,1/2-y,z
_cell_length_a                   11.835(3)
_cell_length_b                   7.890(2)
_cell_length_c                   22.858(8)
_cell_angle_alpha                90
_cell_angle_beta                 90
_cell_angle_gamma                90
_cell_volume                     2134.44
_exptl_crystal_colour            colorless
_chemical_melting_point          211deg.C
_cell_formula_units_Z            4
loop_
_atom_site_label
_atom_site_type_symbol
_atom_site_fract_x
_atom_site_fract_y
_atom_site_fract_z
C1 C 0.4698(4) 0.7352(8) 0.4366(2)
S1 S 0.3899(1) 0.8119(1) 0.5000
C2 C 0.4534(4) 0.7119(6) 0.5642(2)
C3 C 0.3769(3) 0.5972(5) 0.6008(2)
C4 C 0.4439(4) 0.5221(6) 0.6519(2)
C5 C 0.3695(4) 0.3992(6) 0.6870(2)
C6 C 0.2688(4) 0.4944(6) 0.7109(2)
C7 C 0.2000(4) 0.5678(6) 0.6604(2)
C8 C 0.1594(3) 0.4229(5) 0.6210(2)
C9 C 0.2612(3) 0.3259(5) 0.5963(2)
C10 C 0.3343(3) 0.4510(5) 0.5640(1)
C11 C 0.3299(3) 0.2550(6) 0.6474(2)
C12 C 0.2737(4) 0.6897(5) 0.6253(2)
C13 C 0.2273(4) 0.1823(5) 0.5550(2)
S2 S 0.1572(1) 0.2410(2) 0.4861(1)
C14 C 0.2612(4) 0.1901(6) 0.4286(2)
C15 C 0.3022(3) 0.3370(5) 0.3902(2)
C16 C 0.2066(3) 0.4247(6) 0.3569(2)
C17 C 0.2544(4) 0.5729(6) 0.3209(2)
C18 C 0.3397(4) 0.5057(7) 0.2768(2)
C19 C 0.4351(4) 0.4172(6) 0.3098(2)
C20 C 0.4938(3) 0.5461(6) 0.3492(2)
C21 C 0.4096(3) 0.6150(5) 0.3941(2)
C22 C 0.3603(3) 0.4680(5) 0.4282(2)
C23 C 0.3892(4) 0.2705(6) 0.3459(2)
C24 C 0.3118(4) 0.7014(6) 0.3608(2)
H1 H 0.5370 0.6808 0.4508
H2 H 0.4932 0.8324 0.4145
H3 H 0.4844 0.7993 0.5887
H4 H 0.5152 0.6429 0.5511
H5 H 0.4689 0.6112 0.6774
H6 H 0.5093 0.4646 0.6370
H7 H 0.4126 0.3532 0.7189
H8 H 0.2942 0.5832 0.7364
H9 H 0.2229 0.4179 0.7333
H10 H 0.1360 0.6279 0.6756
H11 H 0.1169 0.4684 0.5888
H12 H 0.1113 0.3470 0.6423
H13 H 0.3984 0.3917 0.5483
H14 H 0.2917 0.4952 0.5318
H15 H 0.2841 0.1776 0.6695
H16 H 0.3939 0.1942 0.6325
H17 H 0.2312 0.7354 0.5932
H18 H 0.2973 0.7825 0.6496
H19 H 0.1781 0.1069 0.5759
H20 H 0.2946 0.1202 0.5455
H21 H 0.2284 0.1055 0.4036
H22 H 0.3263 0.1408 0.4469
H23 H 0.1513 0.4654 0.3843
H24 H 0.1705 0.3453 0.3312
H25 H 0.1936 0.6265 0.3001
H26 H 0.3690 0.5987 0.2543
H27 H 0.3045 0.4272 0.2504
H28 H 0.4892 0.3752 0.2821
H29 H 0.5227 0.6382 0.3262
H30 H 0.5562 0.4930 0.3687
H31 H 0.4194 0.4125 0.4497
H32 H 0.3070 0.5122 0.4559
H33 H 0.3543 0.1899 0.3201
H34 H 0.4493 0.2147 0.3664
H35 H 0.2587 0.7491 0.3879
H36 H 0.3414 0.7913 0.3370
loop_
_geom_bond_atom_site_label_1
_geom_bond_atom_site_label_2
_geom_bond_site_symmetry_1
_geom_bond_site_symmetry_2
C1 S1 1_555 1_555
S1 C2 1_555 1_555
C2 C3 1_555 1_555
C3 C4 1_555 1_555
C4 C5 1_555 1_555
C5 C6 1_555 1_555
C6 C7 1_555 1_555
C7 C8 1_555 1_555
C8 C9 1_555 1_555
C9 C10 1_555 1_555
C10 C3 1_555 1_555
C11 C5 1_555 1_555
C12 C3 1_555 1_555
C13 C9 1_555 1_555
S2 C13 1_555 1_555
C14 S2 1_555 1_555
C15 C14 1_555 1_555
C16 C15 1_555 1_555
C17 C16 1_555 1_555
C18 C17 1_555 1_555
C19 C18 1_555 1_555
C20 C19 1_555 1_555
C21 C1 1_555 1_555
C22 C15 1_555 1_555
C23 C15 1_555 1_555
C24 C17 1_555 1_555
H1 C1 1_555 1_555
H2 C1 1_555 1_555
H3 C2 1_555 1_555
H4 C2 1_555 1_555
H5 C4 1_555 1_555
H6 C4 1_555 1_555
H7 C5 1_555 1_555
H8 C6 1_555 1_555
H9 C6 1_555 1_555
H10 C7 1_555 1_555
H11 C8 1_555 1_555
H12 C8 1_555 1_555
H13 C10 1_555 1_555
H14 C10 1_555 1_555
H15 C11 1_555 1_555
H16 C11 1_555 1_555
H17 C12 1_555 1_555
H18 C12 1_555 1_555
H19 C13 1_555 1_555
H20 C13 1_555 1_555
H21 C14 1_555 1_555
H22 C14 1_555 1_555
H23 C16 1_555 1_555
H24 C16 1_555 1_555
H25 C17 1_555 1_555
H26 C18 1_555 1_555
H27 C18 1_555 1_555
H28 C19 1_555 1_555
H29 C20 1_555 1_555
H30 C20 1_555 1_555
H31 C22 1_555 1_555
H32 C22 1_555 1_555
H33 C23 1_555 1_555
H34 C23 1_555 1_555
H35 C24 1_555 1_555
H36 C24 1_555 1_555
C7 C12 1_555 1_555
C9 C11 1_555 1_555
C19 C23 1_555 1_555
C20 C21 1_555 1_555
C21 C22 1_555 1_555
C21 C24 1_555 1_555

#END
