
#######################################################################
#
#                 Cambridge Crystallographic Data Centre
#                                CCDC 
#
#######################################################################
#
# If this CIF has been generated from an entry in the Cambridge 
# Structural Database, then it will include bibliographic, chemical, 
# crystal, experimental, refinement or atomic coordinate data resulting 
# from the CCDC's data processing and validation procedures.
#
#######################################################################

data_YEHXEO
_chemical_formula_moiety         'C19 H25 N1 S2'
_chemical_name_systematic        2,15-Dithia(3.3)adamantano-2,6-pyridinophane
_symmetry_cell_setting           triclinic
_symmetry_space_group_name_H-M   'P -1'
_symmetry_Int_Tables_number      2
_space_group_name_Hall           '-P 1'
loop_
_symmetry_equiv_pos_site_id
_symmetry_equiv_pos_as_xyz
1 x,y,z
2 -x,-y,-z
_cell_length_a                   6.532(1)
_cell_length_b                   8.483(1)
_cell_length_c                   17.076(3)
_cell_angle_alpha                90.65(1)
_cell_angle_beta                 98.12(1)
_cell_angle_gamma                112.84(1)
_cell_volume                     860.993
_exptl_crystal_colour            colorless
_chemical_melting_point          212deg.C
_cell_formula_units_Z            2
loop_
_atom_site_label
_atom_site_type_symbol
_atom_site_fract_x
_atom_site_fract_y
_atom_site_fract_z
C1 C 0.0725(3) 0.0250(2) 0.4072(1)
S1 S 0.1875(1) -0.0139(1) 0.3209(1)
C2 C -0.0099(3) -0.0052(3) 0.2361(1)
C3 C 0.0823(3) 0.1490(3) 0.1866(1)
C4 C 0.2844(4) 0.1481(3) 0.1499(1)
C5 C 0.3719(4) 0.3046(3) 0.1013(1)
C6 C 0.1861(4) 0.2995(4) 0.0345(1)
C7 C -0.0154(4) 0.3016(3) 0.0708(1)
C8 C 0.0599(4) 0.4653(3) 0.1238(1)
C9 C 0.2478(3) 0.4740(3) 0.1913(1)
C10 C 0.1573(3) 0.3156(2) 0.2376(1)
C11 C -0.1030(3) 0.1449(3) 0.1193(1)
C12 C 0.4472(4) 0.4677(3) 0.1547(1)
C13 C 0.3163(4) 0.6376(3) 0.2449(1)
S2 S 0.5273(1) 0.6631(1) 0.3314(1)
C14 C 0.3775(3) 0.6430(2) 0.4153(1)
C15 C 0.1734(3) 0.4798(2) 0.4116(1)
C16 C -0.0409(3) 0.4799(3) 0.3973(1)
C17 C -0.2255(3) 0.3263(3) 0.3895(1)
C18 C -0.1896(3) 0.1763(3) 0.3942(1)
C19 C 0.0299(3) 0.1859(2) 0.4080(1)
N1 N 0.2092(2) 0.3347(2) 0.4191(1)
H1 H 0.1792 0.0314 0.4540
H2 H -0.0627 -0.0713 0.4000
H3 H -0.1403 -0.0029 0.2551
H4 H -0.0573 -0.1082 0.2023
H5 H 0.2389 0.0451 0.1162
H6 H 0.4016 0.1503 0.1913
H7 H 0.4983 0.3039 0.0789
H8 H 0.1402 0.1969 0.0005
H9 H 0.2408 0.3963 0.0033
H10 H -0.1333 0.2986 0.0295
H11 H -0.0650 0.4691 0.1462
H12 H 0.1135 0.5630 0.0930
H13 H 0.2722 0.3188 0.2802
H14 H 0.0323 0.3175 0.2606
H15 H -0.2321 0.1422 0.1409
H16 H -0.1473 0.0424 0.0853
H17 H 0.5069 0.5664 0.1251
H18 H 0.5638 0.4704 0.1965
H19 H 0.1838 0.6390 0.2625
H20 H 0.3727 0.7344 0.2138
H21 H 0.3343 0.7386 0.4189
H22 H 0.4782 0.6485 0.4629
H23 H -0.0601 0.5863 0.3936
H24 H -0.3750 0.3242 0.3813
H25 H -0.3142 0.0669 0.3875
loop_
_geom_bond_atom_site_label_1
_geom_bond_atom_site_label_2
_geom_bond_site_symmetry_1
_geom_bond_site_symmetry_2
C1 S1 1_555 1_555
S1 C2 1_555 1_555
C2 C3 1_555 1_555
C3 C4 1_555 1_555
C4 C5 1_555 1_555
C5 C6 1_555 1_555
C6 C7 1_555 1_555
C7 C8 1_555 1_555
C8 C9 1_555 1_555
C9 C10 1_555 1_555
C10 C3 1_555 1_555
C11 C3 1_555 1_555
C12 C5 1_555 1_555
C13 C9 1_555 1_555
S2 C13 1_555 1_555
C14 S2 1_555 1_555
C15 C14 1_555 1_555
C16 C15 1_555 1_555
C17 C16 1_555 1_555
C18 C17 1_555 1_555
C19 C1 1_555 1_555
N1 C15 1_555 1_555
H1 C1 1_555 1_555
H2 C1 1_555 1_555
H3 C2 1_555 1_555
H4 C2 1_555 1_555
H5 C4 1_555 1_555
H6 C4 1_555 1_555
H7 C5 1_555 1_555
H8 C6 1_555 1_555
H9 C6 1_555 1_555
H10 C7 1_555 1_555
H11 C8 1_555 1_555
H12 C8 1_555 1_555
H13 C10 1_555 1_555
H14 C10 1_555 1_555
H15 C11 1_555 1_555
H16 C11 1_555 1_555
H17 C12 1_555 1_555
H18 C12 1_555 1_555
H19 C13 1_555 1_555
H20 C13 1_555 1_555
H21 C14 1_555 1_555
H22 C14 1_555 1_555
H23 C16 1_555 1_555
H24 C17 1_555 1_555
H25 C18 1_555 1_555
C7 C11 1_555 1_555
C9 C12 1_555 1_555
C18 C19 1_555 1_555
C19 N1 1_555 1_555

#END
