
#######################################################################
#
#                 Cambridge Crystallographic Data Centre
#                                CCDC 
#
#######################################################################
#
# If this CIF has been generated from an entry in the Cambridge 
# Structural Database, then it will include bibliographic, chemical, 
# crystal, experimental, refinement or atomic coordinate data resulting 
# from the CCDC's data processing and validation procedures.
#
#######################################################################

data_YEHXAK
_chemical_formula_moiety         'C28 H31 N3 O2'
_chemical_name_systematic        
16,19-(4-Phenyl-1,2,4-triazoline-3,5-dione-1,2-diyl)-(2.2)(1,3)-adamantano-16,19-dihydroparacyclophane
_symmetry_cell_setting           triclinic
_symmetry_space_group_name_H-M   'P -1'
_symmetry_Int_Tables_number      2
_space_group_name_Hall           '-P 1'
loop_
_symmetry_equiv_pos_site_id
_symmetry_equiv_pos_as_xyz
1 x,y,z
2 -x,-y,-z
_cell_length_a                   11.820(1)
_cell_length_b                   12.673(1)
_cell_length_c                   15.288(1)
_cell_angle_alpha                79.38(1)
_cell_angle_beta                 87.49(1)
_cell_angle_gamma                85.90(1)
_cell_volume                     2243.98
_exptl_crystal_colour            colorless
_cell_formula_units_Z            4
loop_
_atom_site_label
_atom_site_type_symbol
_atom_site_fract_x
_atom_site_fract_y
_atom_site_fract_z
C1 C 0.4191(2) 0.7041(2) 0.7818(2)
C2 C 0.3333(2) 0.7954(2) 0.8040(2)
C3 C 0.2496(2) 0.8514(2) 0.7323(2)
C4 C 0.3092(2) 0.8973(2) 0.6440(2)
C5 C 0.2226(3) 0.9449(2) 0.5736(2)
C6 C 0.1470(3) 1.0334(3) 0.6052(2)
C7 C 0.0847(3) 0.9857(2) 0.6911(2)
C8 C 0.0105(2) 0.8980(2) 0.6725(2)
C9 C 0.0872(2) 0.8070(2) 0.6415(2)
C10 C 0.1698(2) 0.7697(2) 0.7154(2)
C11 C 0.1733(2) 0.9423(2) 0.7626(2)
C12 C 0.1512(2) 0.8564(2) 0.5564(2)
C13 C 0.0253(2) 0.7077(2) 0.6305(2)
C14 C 0.0954(2) 0.6122(2) 0.5974(2)
C15 C 0.2076(2) 0.5732(2) 0.6401(2)
C16 C 0.3092(2) 0.6005(2) 0.6060(1)
C17 C 0.4042(2) 0.5676(2) 0.6702(1)
C18 C 0.3699(2) 0.6067(2) 0.7574(1)
C19 C 0.2775(2) 0.5603(2) 0.7938(2)
C20 C 0.2199(2) 0.5010(2) 0.7340(2)
N1 N 0.4113(2) 0.4453(2) 0.6911(1)
N2 N 0.3001(2) 0.4085(2) 0.7186(1)
C21 C 0.2682(2) 0.3474(2) 0.6586(2)
N3 N 0.3636(2) 0.3316(2) 0.6046(1)
C22 C 0.4477(2) 0.3960(2) 0.6185(2)
C23 C 0.3595(2) 0.2818(2) 0.5278(2)
C24 C 0.4179(2) 0.1854(2) 0.5239(2)
C25 C 0.4103(3) 0.1398(2) 0.4488(2)
C26 C 0.3447(3) 0.1891(3) 0.3804(2)
C27 C 0.2870(3) 0.2858(3) 0.3847(2)
C28 C 0.2944(3) 0.3328(2) 0.4581(2)
O1 O 0.1770(2) 0.3113(2) 0.6567(1)
O2 O 0.5374(1) 0.4070(1) 0.5788(1)
H1 H 0.4661 0.6801 0.8321
H2 H 0.4672 0.7349 0.7330
H3 H 0.3758 0.8503 0.8202
H4 H 0.2898 0.7653 0.8559
H5 H 0.3559 0.8412 0.6234
H6 H 0.3573 0.9519 0.6533
H7 H 0.2621 0.9743 0.5194
H8 H 0.0932 1.0629 0.5605
H9 H 0.1919 1.0901 0.6150
H10 H 0.0364 1.0412 0.7111
H11 H -0.0431 0.9274 0.6276
H12 H -0.0309 0.8686 0.7258
H13 H 0.1271 0.7459 0.7695
H14 H 0.2147 0.7085 0.7014
H15 H 0.2195 0.9991 0.7702
H16 H 0.1361 0.9161 0.8187
H17 H 0.1995 0.8011 0.5360
H18 H 0.0978 0.8848 0.5111
H19 H -0.0350 0.7316 0.5901
H20 H -0.0090 0.6792 0.6873
H21 H 0.1100 0.6339 0.5346
H22 H 0.0494 0.5515 0.6051
H23 H 0.3211 0.6368 0.5457
H24 H 0.4749 0.5947 0.6458
H25 H 0.2505 0.5642 0.8534
H26 H 0.1481 0.4773 0.7589
H27 H 0.4635 0.1507 0.5728
H28 H 0.4514 0.0725 0.4451
H29 H 0.3391 0.1569 0.3288
H30 H 0.2416 0.3214 0.3360
H31 H 0.2538 0.4004 0.4615
C29 C 0.5921(2) 0.3583(2) 0.9461(2)
C30 C 0.5216(2) 0.2808(2) 0.9076(2)
C31 C 0.5839(2) 0.1832(2) 0.8735(2)
C32 C 0.6522(2) 0.1035(3) 0.9398(2)
C33 C 0.7166(3) 0.0194(2) 0.8940(2)
C34 C 0.6341(4) -0.0403(3) 0.8536(3)
C35 C 0.5656(3) 0.0385(3) 0.7845(2)
C36 C 0.6483(3) 0.0916(3) 0.7107(2)
C37 C 0.7320(2) 0.1525(2) 0.7519(2)
C38 C 0.6628(2) 0.2306(2) 0.7983(2)
C39 C 0.5010(3) 0.1217(3) 0.8315(2)
C40 C 0.7979(3) 0.0740(2) 0.8218(2)
C41 C 0.8090(2) 0.2170(2) 0.6794(2)
C42 C 0.8935(2) 0.2915(2) 0.7081(2)
C43 C 0.8418(2) 0.3845(2) 0.7500(1)
C44 C 0.7429(2) 0.4390(2) 0.7318(1)
C45 C 0.6907(2) 0.4893(2) 0.8087(1)
C46 C 0.6958(2) 0.4035(2) 0.8946(1)
C47 C 0.8026(2) 0.3689(2) 0.9114(1)
C48 C 0.8870(2) 0.4072(2) 0.8369(1)
N4 N 0.7689(2) 0.5716(2) 0.8219(1)
N5 N 0.8844(2) 0.5276(2) 0.8262(1)
C49 C 0.9366(2) 0.5726(2) 0.8891(1)
N6 N 0.8544(2) 0.6428(2) 0.9203(1)
C50 C 0.7483(2) 0.6328(2) 0.8872(2)
C51 C 0.8753(2) 0.7146(2) 0.9787(1)
C52 C 0.9628(2) 0.7823(2) 0.9574(2)
C53 C 0.9825(2) 0.8527(2) 1.0129(2)
C54 C 0.9157(2) 0.8556(2) 1.0884(2)
C55 C 0.8289(2) 0.7883(2) 1.1090(2)
C56 C 0.8083(2) 0.7163(2) 1.0551(2)
O3 O 1.0349(1) 0.5576(1) 0.9088(1)
O4 O 0.6579(2) 0.6740(2) 0.9082(1)
H32 H 0.6171 0.3202 1.0029
H33 H 0.5424 0.4180 0.9574
H34 H 0.4813 0.3232 0.8587
H35 H 0.4659 0.2534 0.9521
H36 H 0.6019 0.0692 0.9857
H37 H 0.7047 0.1408 0.9672
H38 H 0.7587 -0.0304 0.9377
H39 H 0.5834 -0.0755 0.8987
H40 H 0.6742 -0.0940 0.8253
H41 H 0.5122 0.0006 0.7586
H42 H 0.6063 0.1403 0.6661
H43 H 0.6884 0.0374 0.6830
H44 H 0.7141 0.2729 0.8218
H45 H 0.6184 0.2786 0.7550
H46 H 0.4565 0.1714 0.7893
H47 H 0.4507 0.0868 0.8770
H48 H 0.8395 0.0205 0.7940
H49 H 0.8512 0.1120 0.8478
H50 H 0.7607 0.2611 0.6364
H51 H 0.8514 0.1660 0.6495
H52 H 0.9395 0.3198 0.6571
H53 H 0.9429 0.2479 0.7506
H54 H 0.7079 0.4465 0.6753
H55 H 0.6150 0.5199 0.7972
H56 H 0.8249 0.3237 0.9662
H57 H 0.9620 0.3745 0.8483
H58 H 1.0082 0.7808 0.9040
H59 H 1.0436 0.8996 0.9990
H60 H 0.9307 0.9039 1.1275
H61 H 0.7817 0.7910 1.1614
H62 H 0.7476 0.6690 1.0692
loop_
_geom_bond_atom_site_label_1
_geom_bond_atom_site_label_2
_geom_bond_site_symmetry_1
_geom_bond_site_symmetry_2
C1 C2 1_555 1_555
C2 C3 1_555 1_555
C3 C4 1_555 1_555
C4 C5 1_555 1_555
C5 C6 1_555 1_555
C6 C7 1_555 1_555
C7 C8 1_555 1_555
C8 C9 1_555 1_555
C9 C10 1_555 1_555
C10 C3 1_555 1_555
C11 C3 1_555 1_555
C12 C5 1_555 1_555
C13 C9 1_555 1_555
C14 C13 1_555 1_555
C15 C14 1_555 1_555
C16 C15 1_555 1_555
C17 C16 1_555 1_555
C18 C1 1_555 1_555
C19 C18 1_555 1_555
C20 C15 1_555 1_555
N1 C17 1_555 1_555
N2 C20 1_555 1_555
C21 N2 1_555 1_555
N3 C21 1_555 1_555
C22 N1 1_555 1_555
C23 N3 1_555 1_555
C24 C23 1_555 1_555
C25 C24 1_555 1_555
C26 C25 1_555 1_555
C27 C26 1_555 1_555
C28 C23 1_555 1_555
O1 C21 1_555 1_555
O2 C22 1_555 1_555
H1 C1 1_555 1_555
H2 C1 1_555 1_555
H3 C2 1_555 1_555
H4 C2 1_555 1_555
H5 C4 1_555 1_555
H6 C4 1_555 1_555
H7 C5 1_555 1_555
H8 C6 1_555 1_555
H9 C6 1_555 1_555
H10 C7 1_555 1_555
H11 C8 1_555 1_555
H12 C8 1_555 1_555
H13 C10 1_555 1_555
H14 C10 1_555 1_555
H15 C11 1_555 1_555
H16 C11 1_555 1_555
H17 C12 1_555 1_555
H18 C12 1_555 1_555
H19 C13 1_555 1_555
H20 C13 1_555 1_555
H21 C14 1_555 1_555
H22 C14 1_555 1_555
H23 C16 1_555 1_555
H24 C17 1_555 1_555
H25 C19 1_555 1_555
H26 C20 1_555 1_555
H27 C24 1_555 1_555
H28 C25 1_555 1_555
H29 C26 1_555 1_555
H30 C27 1_555 1_555
H31 C28 1_555 1_555
C29 C30 1_555 1_555
C30 C31 1_555 1_555
C31 C32 1_555 1_555
C32 C33 1_555 1_555
C33 C34 1_555 1_555
C34 C35 1_555 1_555
C35 C36 1_555 1_555
C36 C37 1_555 1_555
C37 C38 1_555 1_555
C38 C31 1_555 1_555
C39 C31 1_555 1_555
C40 C33 1_555 1_555
C41 C37 1_555 1_555
C42 C41 1_555 1_555
C43 C42 1_555 1_555
C44 C43 1_555 1_555
C45 C44 1_555 1_555
C46 C29 1_555 1_555
C47 C46 1_555 1_555
C48 C43 1_555 1_555
N4 C45 1_555 1_555
N5 C48 1_555 1_555
C49 N5 1_555 1_555
N6 C49 1_555 1_555
C50 N4 1_555 1_555
C51 N6 1_555 1_555
C52 C51 1_555 1_555
C53 C52 1_555 1_555
C54 C53 1_555 1_555
C55 C54 1_555 1_555
C56 C51 1_555 1_555
O3 C49 1_555 1_555
O4 C50 1_555 1_555
H32 C29 1_555 1_555
H33 C29 1_555 1_555
H34 C30 1_555 1_555
H35 C30 1_555 1_555
H36 C32 1_555 1_555
H37 C32 1_555 1_555
H38 C33 1_555 1_555
H39 C34 1_555 1_555
H40 C34 1_555 1_555
H41 C35 1_555 1_555
H42 C36 1_555 1_555
H43 C36 1_555 1_555
H44 C38 1_555 1_555
H45 C38 1_555 1_555
H46 C39 1_555 1_555
H47 C39 1_555 1_555
H48 C40 1_555 1_555
H49 C40 1_555 1_555
H50 C41 1_555 1_555
H51 C41 1_555 1_555
H52 C42 1_555 1_555
H53 C42 1_555 1_555
H54 C44 1_555 1_555
H55 C45 1_555 1_555
H56 C47 1_555 1_555
H57 C48 1_555 1_555
H58 C52 1_555 1_555
H59 C53 1_555 1_555
H60 C54 1_555 1_555
H61 C55 1_555 1_555
H62 C56 1_555 1_555
C7 C11 1_555 1_555
C9 C12 1_555 1_555
C17 C18 1_555 1_555
C19 C20 1_555 1_555
N1 N2 1_555 1_555
N3 C22 1_555 1_555
C27 C28 1_555 1_555
C35 C39 1_555 1_555
C37 C40 1_555 1_555
C45 C46 1_555 1_555
C47 C48 1_555 1_555
N4 N5 1_555 1_555
N6 C50 1_555 1_555
C55 C56 1_555 1_555

#END
