
#######################################################################
#
#                 Cambridge Crystallographic Data Centre
#                                CCDC 
#
#######################################################################
#
# If this CIF has been generated from an entry in the Cambridge 
# Structural Database, then it will include bibliographic, chemical, 
# crystal, experimental, refinement or atomic coordinate data resulting 
# from the CCDC's data processing and validation procedures.
#
#######################################################################

data_YEHYAN
_chemical_formula_moiety         'C13 H9 Br1 Cl1 N1 O1'
_chemical_name_systematic        
2-(((3-Bromophenyl)imino)methyl)-4-chlorophenol
_symmetry_cell_setting           monoclinic
_symmetry_space_group_name_H-M   'P c'
_symmetry_Int_Tables_number      7
_space_group_name_Hall           'P -2yc'
loop_
_symmetry_equiv_pos_site_id
_symmetry_equiv_pos_as_xyz
1 x,y,z
2 x,-y,1/2+z
_cell_length_a                   10.929(4)
_cell_length_b                   4.3884(16)
_cell_length_c                   12.267(5)
_cell_angle_alpha                90
_cell_angle_beta                 95.920(7)
_cell_angle_gamma                90
_cell_volume                     585.198
_exptl_crystal_colour            orange
_exptl_crystal_description       platelet
_cell_formula_units_Z            2
loop_
_atom_site_label
_atom_site_type_symbol
_atom_site_fract_x
_atom_site_fract_y
_atom_site_fract_z
Br1 Br -0.09539(5) 1.46589(9) 0.44113(5)
Cl1 Cl 0.75168(10) 0.0015(3) 0.73278(10)
O1 O 0.3730(4) 0.4758(8) 0.4049(3)
H1 H 0.3252 0.5938 0.4340
N1 N 0.2887(4) 0.7980(8) 0.5621(3)
C1 C 0.4582(6) 0.3727(13) 0.4810(5)
C2 C 0.5458(5) 0.1657(11) 0.4517(4)
H2 H 0.5428 0.0998 0.3778
C3 C 0.6370(4) 0.0540(11) 0.5277(4)
H3 H 0.6978 -0.0813 0.5059
C4 C 0.6382(4) 0.1428(11) 0.6364(4)
C5 C 0.5514(4) 0.3395(10) 0.6685(4)
H4 H 0.5541 0.3968 0.7434
C6 C 0.4593(4) 0.4571(10) 0.5930(4)
C7 C 0.3708(4) 0.6678(10) 0.6284(4)
H5 H 0.3733 0.7127 0.7043
C8 C 0.2025(4) 1.0079(9) 0.5976(4)
C9 C 0.2051(5) 1.1057(11) 0.7074(4)
H6 H 0.2661 1.0318 0.7618
C10 C 0.1164(5) 1.3131(11) 0.7345(4)
H7 H 0.1176 1.3827 0.8079
C11 C 0.0268(4) 1.4186(11) 0.6559(4)
H8 H -0.0340 1.5574 0.6752
C12 C 0.0266(4) 1.3213(10) 0.5499(4)
C13 C 0.1136(4) 1.1179(10) 0.5202(4)
H9 H 0.1121 1.0539 0.4461
loop_
_geom_bond_atom_site_label_1
_geom_bond_atom_site_label_2
_geom_bond_site_symmetry_1
_geom_bond_site_symmetry_2
Br1 C12 1_555 1_555
Cl1 C4 1_555 1_555
O1 H1 1_555 1_555
N1 C7 1_555 1_555
C1 O1 1_555 1_555
C2 C1 1_555 1_555
H2 C2 1_555 1_555
C3 C2 1_555 1_555
H3 C3 1_555 1_555
C4 C3 1_555 1_555
C5 C4 1_555 1_555
H4 C5 1_555 1_555
C6 C1 1_555 1_555
C7 C6 1_555 1_555
H5 C7 1_555 1_555
C8 N1 1_555 1_555
C9 C8 1_555 1_555
H6 C9 1_555 1_555
C10 C9 1_555 1_555
H7 C10 1_555 1_555
C11 C10 1_555 1_555
H8 C11 1_555 1_555
C12 C11 1_555 1_555
C13 C8 1_555 1_555
H9 C13 1_555 1_555
C5 C6 1_555 1_555
C12 C13 1_555 1_555

#END
