
#######################################################################
#
#                 Cambridge Crystallographic Data Centre
#                                CCDC 
#
#######################################################################
#
# If this CIF has been generated from an entry in the Cambridge 
# Structural Database, then it will include bibliographic, chemical, 
# crystal, experimental, refinement or atomic coordinate data resulting 
# from the CCDC's data processing and validation procedures.
#
#######################################################################

data_YEJCAT
_chemical_formula_moiety         'C20 H12 Cl2 F3 N5 O1 S1'
_chemical_name_systematic        
N-((3-Cyano-1-(2,6-dichloro-4-(trifluoromethyl)phenyl)-1H-pyrazol-5-yl)carbamothioyl)-2-phenylacetamide
_symmetry_cell_setting           triclinic
_symmetry_space_group_name_H-M   'P -1'
_symmetry_Int_Tables_number      2
_space_group_name_Hall           '-P 1'
loop_
_symmetry_equiv_pos_site_id
_symmetry_equiv_pos_as_xyz
1 x,y,z
2 -x,-y,-z
_cell_length_a                   12.300(3)
_cell_length_b                   14.379(3)
_cell_length_c                   14.496(3)
_cell_angle_alpha                69.511(4)
_cell_angle_beta                 72.163(4)
_cell_angle_gamma                70.491(4)
_cell_volume                     2211.02
_exptl_crystal_colour            colorless
_exptl_crystal_description       block
_chemical_melting_point          '160-162 deg.C'
_cell_formula_units_Z            4
loop_
_atom_site_label
_atom_site_type_symbol
_atom_site_fract_x
_atom_site_fract_y
_atom_site_fract_z
Cl1 Cl 0.85596(9) 0.62736(8) -0.07905(7)
Cl2 Cl 0.59710(9) 0.74260(11) 0.25369(9)
S1 S 0.39952(8) 0.50434(8) 0.14608(8)
F1 F 1.1108(2) 0.5253(2) 0.2085(2)
F2 F 1.1233(3) 0.6752(3) 0.1300(3)
F3 F 1.0322(3) 0.6418(3) 0.2794(3)
O1 O 0.7964(2) 0.38970(18) 0.1089(2)
N1 N 0.3556(3) 0.9776(3) -0.0986(3)
N2 N 0.5881(2) 0.8131(2) 0.0101(2)
N3 N 0.6349(2) 0.7126(2) 0.0525(2)
N4 N 0.6097(2) 0.5456(2) 0.0946(2)
H1 H 0.6840 0.5219 0.0939
N5 N 0.6079(2) 0.3754(2) 0.1557(2)
H2 H 0.5661 0.3314 0.1835
C1 C 1.1348(4) 0.0951(3) 0.0733(4)
H5 H 1.2154 0.0696 0.0513
C2 C 1.0944(4) 0.1304(3) 0.1566(3)
H6 H 1.1473 0.1277 0.1922
C3 C 0.9756(3) 0.1699(3) 0.1881(3)
H7 H 0.9491 0.1941 0.2448
C4 C 0.8950(3) 0.1745(2) 0.1376(2)
C5 C 0.9365(4) 0.1373(3) 0.0544(3)
H8 H 0.8838 0.1388 0.0193
C6 C 1.0574(4) 0.0971(3) 0.0223(3)
H9 H 1.0849 0.0719 -0.0338
C7 C 0.7652(3) 0.2193(3) 0.1722(3)
H10 H 0.7211 0.1943 0.1450
H11 H 0.7443 0.1948 0.2452
C8 C 0.7281(3) 0.3348(3) 0.1418(2)
C9 C 0.5445(3) 0.4773(2) 0.1312(2)
C10 C 0.5691(3) 0.6512(2) 0.0577(2)
C11 C 0.4737(3) 0.7138(3) 0.0180(3)
H12 H 0.4115 0.6953 0.0114
C12 C 0.4910(3) 0.8118(3) -0.0103(3)
C13 C 0.4170(3) 0.9061(3) -0.0594(3)
C14 C 0.7392(3) 0.6855(2) 0.0896(3)
C15 C 0.8486(3) 0.6482(2) 0.0333(3)
C16 C 0.9502(3) 0.6277(3) 0.0664(3)
H13 H 1.0238 0.6040 0.0279
C17 C 0.9411(3) 0.6430(3) 0.1574(3)
C18 C 0.8335(3) 0.6780(3) 0.2161(3)
H14 H 0.8288 0.6869 0.2778
C19 C 0.7332(3) 0.6995(3) 0.1813(3)
C20 C 1.0525(4) 0.6215(3) 0.1911(4)
Cl3 Cl 0.79400(9) 0.94745(8) 0.25513(7)
Cl4 Cl 0.93805(10) 0.89550(9) 0.58720(8)
S2 S 0.55002(12) 0.80941(9) 0.73012(9)
F4 F 1.2481(3) 0.8207(4) 0.1745(4)
F5 F 1.2994(3) 0.8622(4) 0.2635(5)
F6 F 1.2795(3) 0.7181(3) 0.3022(4)
O2 O 0.7889(3) 0.67363(19) 0.47646(19)
N6 N 0.5264(4) 1.2919(3) 0.4844(3)
N7 N 0.7401(3) 1.0804(2) 0.4354(2)
N8 N 0.7671(2) 0.9771(2) 0.45605(19)
N9 N 0.6975(3) 0.8306(2) 0.5505(2)
H3 H 0.7463 0.8010 0.5062
N10 N 0.6764(3) 0.6683(2) 0.6346(2)
H4 H 0.6532 0.6263 0.6909
C21 C 0.8738(8) 0.3952(4) 0.3262(4)
H15 H 0.9029 0.3700 0.2700
C22 C 0.7581(7) 0.4399(5) 0.3501(4)
H16 H 0.7076 0.4445 0.3114
C23 C 0.7141(5) 0.4793(4) 0.4336(4)
H17 H 0.6341 0.5106 0.4505
C24 C 0.7892(4) 0.4719(3) 0.4907(3)
C25 C 0.9058(4) 0.4248(3) 0.4651(4)
H18 H 0.9571 0.4184 0.5038
C26 C 0.9488(5) 0.3860(4) 0.3817(5)
H19 H 1.0285 0.3540 0.3645
C27 C 0.7406(4) 0.5147(3) 0.5804(3)
H20 H 0.6606 0.5077 0.6096
H21 H 0.7875 0.4742 0.6308
C28 C 0.7396(3) 0.6253(3) 0.5564(3)
C29 C 0.6453(3) 0.7702(3) 0.6343(3)
C30 C 0.6815(3) 0.9359(3) 0.5274(2)
C31 C 0.5944(3) 1.0155(3) 0.5556(3)
H22 H 0.5243 1.0125 0.6036
C32 C 0.6347(3) 1.1023(3) 0.4961(3)
C33 C 0.5748(4) 1.2085(3) 0.4903(3)
C34 C 0.8818(3) 0.9243(2) 0.4130(2)
C35 C 0.9715(3) 0.8880(3) 0.4651(3)
C36 C 1.0857(3) 0.8479(3) 0.4204(3)
H23 H 1.1456 0.8231 0.4561
C37 C 1.1100(3) 0.8451(3) 0.3222(3)
C38 C 1.0216(3) 0.8762(3) 0.2701(3)
H24 H 1.0391 0.8717 0.2045
C39 C 0.9064(3) 0.9144(2) 0.3163(2)
C40 C 1.2353(4) 0.8073(4) 0.2731(4)
loop_
_geom_bond_atom_site_label_1
_geom_bond_atom_site_label_2
_geom_bond_site_symmetry_1
_geom_bond_site_symmetry_2
Cl1 C15 1_555 1_555
Cl2 C19 1_555 1_555
Cl3 C39 1_555 1_555
Cl4 C35 1_555 1_555
S1 C9 1_555 1_555
S2 C29 1_555 1_555
F1 C20 1_555 1_555
F2 C20 1_555 1_555
F3 C20 1_555 1_555
F4 C40 1_555 1_555
F5 C40 1_555 1_555
F6 C40 1_555 1_555
O1 C8 1_555 1_555
O2 C28 1_555 1_555
N1 C13 1_555 1_555
N2 N3 1_555 1_555
N3 C10 1_555 1_555
N4 H1 1_555 1_555
N5 H2 1_555 1_555
N6 C33 1_555 1_555
N7 N8 1_555 1_555
N8 C30 1_555 1_555
N9 H3 1_555 1_555
N10 H4 1_555 1_555
C1 H5 1_555 1_555
C2 C1 1_555 1_555
H6 C2 1_555 1_555
C3 C2 1_555 1_555
H7 C3 1_555 1_555
C4 C3 1_555 1_555
C5 C4 1_555 1_555
H8 C5 1_555 1_555
C6 C1 1_555 1_555
H9 C6 1_555 1_555
C7 C4 1_555 1_555
H10 C7 1_555 1_555
H11 C7 1_555 1_555
C8 N5 1_555 1_555
C9 N4 1_555 1_555
C10 N4 1_555 1_555
C11 C10 1_555 1_555
H12 C11 1_555 1_555
C12 N2 1_555 1_555
C13 C12 1_555 1_555
C14 N3 1_555 1_555
C15 C14 1_555 1_555
C16 C15 1_555 1_555
H13 C16 1_555 1_555
C17 C16 1_555 1_555
C18 C17 1_555 1_555
H14 C18 1_555 1_555
C19 C14 1_555 1_555
C20 C17 1_555 1_555
C21 H15 1_555 1_555
C22 C21 1_555 1_555
H16 C22 1_555 1_555
C23 C22 1_555 1_555
H17 C23 1_555 1_555
C24 C23 1_555 1_555
C25 C24 1_555 1_555
H18 C25 1_555 1_555
C26 C21 1_555 1_555
H19 C26 1_555 1_555
C27 C24 1_555 1_555
H20 C27 1_555 1_555
H21 C27 1_555 1_555
C28 N10 1_555 1_555
C29 N9 1_555 1_555
C30 N9 1_555 1_555
C31 C30 1_555 1_555
H22 C31 1_555 1_555
C32 N7 1_555 1_555
C33 C32 1_555 1_555
C34 N8 1_555 1_555
C35 C34 1_555 1_555
C36 C35 1_555 1_555
H23 C36 1_555 1_555
C37 C36 1_555 1_555
C38 C37 1_555 1_555
H24 C38 1_555 1_555
C39 C34 1_555 1_555
C40 C37 1_555 1_555
N5 C9 1_555 1_555
N10 C29 1_555 1_555
C5 C6 1_555 1_555
C7 C8 1_555 1_555
C11 C12 1_555 1_555
C18 C19 1_555 1_555
C25 C26 1_555 1_555
C27 C28 1_555 1_555
C31 C32 1_555 1_555
C38 C39 1_555 1_555

#END
