
#######################################################################
#
#                 Cambridge Crystallographic Data Centre
#                                CCDC 
#
#######################################################################
#
# If this CIF has been generated from an entry in the Cambridge 
# Structural Database, then it will include bibliographic, chemical, 
# crystal, experimental, refinement or atomic coordinate data resulting 
# from the CCDC's data processing and validation procedures.
#
#######################################################################

data_YEJCEX
_chemical_formula_moiety         'C20 H23 Br2 N1 O2'
_chemical_name_systematic        
2,3-Dibromo-4-(((2,6-diisopropylphenyl)imino)methyl)-6-methoxyphenol
_symmetry_cell_setting           triclinic
_symmetry_space_group_name_H-M   'P -1'
_symmetry_Int_Tables_number      2
_space_group_name_Hall           '-P 1'
loop_
_symmetry_equiv_pos_site_id
_symmetry_equiv_pos_as_xyz
1 x,y,z
2 -x,-y,-z
_cell_length_a                   12.629(8)
_cell_length_b                   12.653(8)
_cell_length_c                   14.032(9)
_cell_angle_alpha                71.268(6)
_cell_angle_beta                 81.172(7)
_cell_angle_gamma                76.448(6)
_cell_volume                     2056.88
_cell_formula_units_Z            4
loop_
_atom_site_label
_atom_site_type_symbol
_atom_site_fract_x
_atom_site_fract_y
_atom_site_fract_z
Br1 Br 0.44347(4) 0.72474(4) 0.04927(4)
Br2 Br 0.29353(4) 0.55144(4) 0.03134(4)
C1 C 0.4040(3) 0.4978(4) 0.1210(3)
C2 C 0.4673(3) 0.5713(3) 0.1267(3)
C3 C 0.5490(3) 0.5337(3) 0.1922(3)
C4 C 0.5692(3) 0.4195(3) 0.2483(3)
C5 C 0.5065(3) 0.3472(3) 0.2424(3)
H1 H 0.5206 0.2713 0.2814
C6 C 0.4225(3) 0.3853(3) 0.1795(3)
C7 C 0.3476(3) 0.3090(4) 0.1882(3)
H2 H 0.2778 0.3413 0.1672
C8 C 0.2871(3) 0.1401(3) 0.2453(3)
C9 C 0.2386(3) 0.1243(3) 0.1692(3)
C10 C 0.1560(4) 0.0630(4) 0.1989(4)
H3 H 0.1218 0.0518 0.1498
C11 C 0.1231(4) 0.0183(4) 0.2981(4)
H4 H 0.0658 -0.0209 0.3159
C12 C 0.1745(4) 0.0313(4) 0.3716(4)
H5 H 0.1531 -0.0018 0.4392
C13 C 0.2572(3) 0.0922(3) 0.3476(3)
C14 C 0.6734(4) 0.2777(4) 0.3729(4)
H6 H 0.6088 0.2601 0.4153
H7 H 0.7309 0.2685 0.4141
H8 H 0.6958 0.2271 0.3318
C15 C 0.2784(4) 0.1673(4) 0.0594(3)
H9 H 0.3334 0.2123 0.0554
C16 C 0.1901(5) 0.2436(6) -0.0066(4)
H10 H 0.1345 0.2022 -0.0039
H11 H 0.2211 0.2687 -0.0750
H12 H 0.1586 0.3084 0.0170
C17 C 0.3345(5) 0.0686(5) 0.0193(4)
H13 H 0.3909 0.0212 0.0617
H14 H 0.3663 0.0973 -0.0483
H15 H 0.2820 0.0249 0.0190
C18 C 0.3161(5) 0.1059(4) 0.4276(3)
H16 H 0.3892 0.1156 0.3955
C19 C 0.2675(5) 0.2131(5) 0.4549(5)
H17 H 0.2583 0.2761 0.3944
H18 H 0.3152 0.2254 0.4956
H19 H 0.1977 0.2066 0.4921
C20 C 0.3345(7) 0.0042(6) 0.5157(5)
H20 H 0.2675 -0.0017 0.5580
H21 H 0.3891 0.0103 0.5533
H22 H 0.3590 -0.0623 0.4933
N1 N 0.3728(3) 0.2025(3) 0.2225(2)
O1 O 0.6064(3) 0.6064(2) 0.1999(2)
H45 H 0.6496 0.5735 0.2432
O2 O 0.6510(2) 0.3913(2) 0.3100(2)
Br3 Br 0.02566(4) 0.16892(4) 0.79106(5)
Br4 Br 0.16835(5) -0.09609(4) 0.85154(6)
C21 C 0.1792(3) 0.1389(3) 0.7654(3)
C22 C 0.2371(4) 0.0284(3) 0.7934(3)
C23 C 0.3493(4) 0.0056(3) 0.7793(3)
C24 C 0.4044(3) 0.0957(3) 0.7395(3)
C25 C 0.3462(3) 0.2050(3) 0.7107(3)
H23 H 0.3835 0.2647 0.6828
C26 C 0.2330(3) 0.2288(3) 0.7222(3)
C27 C 0.1753(3) 0.3470(3) 0.6834(3)
H24 H 0.1035 0.3603 0.6677
C28 C 0.1564(3) 0.5414(3) 0.6236(3)
C29 C 0.1675(3) 0.5845(4) 0.5182(3)
C30 C 0.1105(4) 0.6942(4) 0.4764(4)
H25 H 0.1165 0.7258 0.4066
C31 C 0.0464(4) 0.7572(4) 0.5335(4)
H26 H 0.0085 0.8301 0.5032
C32 C 0.0384(4) 0.7119(4) 0.6362(4)
H27 H -0.0056 0.7550 0.6753
C33 C 0.0934(3) 0.6048(3) 0.6835(3)
C34 C 0.5765(4) 0.1515(4) 0.7050(4)
H28 H 0.5664 0.1969 0.6364
H29 H 0.6525 0.1179 0.7115
H30 H 0.5523 0.1988 0.7488
C35 C 0.2416(4) 0.5175(4) 0.4534(3)
H31 H 0.2439 0.4369 0.4901
C36 C 0.1989(8) 0.5379(7) 0.3545(5)
H32 H 0.1226 0.5349 0.3649
H33 H 0.2381 0.4803 0.3242
H34 H 0.2085 0.6114 0.3107
C37 C 0.3549(6) 0.5358(8) 0.4427(7)
H35 H 0.3598 0.6091 0.3955
H36 H 0.4039 0.4776 0.4186
H37 H 0.3747 0.5325 0.5072
C38 C 0.0835(4) 0.5573(4) 0.7974(3)
H38 H 0.1445 0.4926 0.8159
C39 C -0.0200(5) 0.5126(5) 0.8353(4)
H39 H -0.0818 0.5739 0.8187
H40 H -0.0220 0.4792 0.9073
H41 H -0.0225 0.4559 0.8042
C40 C 0.0931(4) 0.6425(5) 0.8497(4)
H42 H 0.1612 0.6675 0.8264
H43 H 0.0906 0.6070 0.9214
H44 H 0.0337 0.7067 0.8342
N2 N 0.2183(3) 0.4308(3) 0.6706(2)
O3 O 0.4033(2) -0.1028(2) 0.8051(3)
H46 H 0.4686 -0.1050 0.7877
O4 O 0.5147(2) 0.0644(2) 0.7322(2)
loop_
_geom_bond_atom_site_label_1
_geom_bond_atom_site_label_2
_geom_bond_site_symmetry_1
_geom_bond_site_symmetry_2
Br1 C2 1_555 1_555
Br2 C1 1_555 1_555
Br3 C21 1_555 1_555
Br4 C22 1_555 1_555
C1 C2 1_555 1_555
C2 C3 1_555 1_555
C3 C4 1_555 1_555
C4 C5 1_555 1_555
C5 H1 1_555 1_555
C6 C1 1_555 1_555
C7 C6 1_555 1_555
H2 C7 1_555 1_555
C8 C9 1_555 1_555
C9 C10 1_555 1_555
C10 H3 1_555 1_555
C11 C10 1_555 1_555
H4 C11 1_555 1_555
C12 C11 1_555 1_555
H5 C12 1_555 1_555
C13 C8 1_555 1_555
C14 H6 1_555 1_555
H7 C14 1_555 1_555
H8 C14 1_555 1_555
C15 C9 1_555 1_555
H9 C15 1_555 1_555
C16 C15 1_555 1_555
H10 C16 1_555 1_555
H11 C16 1_555 1_555
H12 C16 1_555 1_555
C17 C15 1_555 1_555
H13 C17 1_555 1_555
H14 C17 1_555 1_555
H15 C17 1_555 1_555
C18 C13 1_555 1_555
H16 C18 1_555 1_555
C19 C18 1_555 1_555
H17 C19 1_555 1_555
H18 C19 1_555 1_555
H19 C19 1_555 1_555
C20 C18 1_555 1_555
H20 C20 1_555 1_555
H21 C20 1_555 1_555
H22 C20 1_555 1_555
C21 C22 1_555 1_555
C22 C23 1_555 1_555
C23 C24 1_555 1_555
C24 C25 1_555 1_555
C25 H23 1_555 1_555
C26 C21 1_555 1_555
C27 C26 1_555 1_555
H24 C27 1_555 1_555
C28 C29 1_555 1_555
C29 C30 1_555 1_555
C30 H25 1_555 1_555
C31 C30 1_555 1_555
H26 C31 1_555 1_555
C32 C31 1_555 1_555
H27 C32 1_555 1_555
C33 C28 1_555 1_555
C34 H28 1_555 1_555
H29 C34 1_555 1_555
H30 C34 1_555 1_555
C35 C29 1_555 1_555
H31 C35 1_555 1_555
C36 C35 1_555 1_555
H32 C36 1_555 1_555
H33 C36 1_555 1_555
H34 C36 1_555 1_555
C37 C35 1_555 1_555
H35 C37 1_555 1_555
H36 C37 1_555 1_555
H37 C37 1_555 1_555
C38 C33 1_555 1_555
H38 C38 1_555 1_555
C39 C38 1_555 1_555
H39 C39 1_555 1_555
H40 C39 1_555 1_555
H41 C39 1_555 1_555
C40 C38 1_555 1_555
H42 C40 1_555 1_555
H43 C40 1_555 1_555
H44 C40 1_555 1_555
N1 C7 1_555 1_555
N2 C27 1_555 1_555
O1 C3 1_555 1_555
H45 O1 1_555 1_555
O2 C4 1_555 1_555
O3 C23 1_555 1_555
H46 O3 1_555 1_555
O4 C24 1_555 1_555
C5 C6 1_555 1_555
C8 N1 1_555 1_555
C12 C13 1_555 1_555
C14 O2 1_555 1_555
C25 C26 1_555 1_555
C28 N2 1_555 1_555
C32 C33 1_555 1_555
C34 O4 1_555 1_555

#END
