
#######################################################################
#
#                 Cambridge Crystallographic Data Centre
#                                CCDC 
#
#######################################################################
#
# If this CIF has been generated from an entry in the Cambridge 
# Structural Database, then it will include bibliographic, chemical, 
# crystal, experimental, refinement or atomic coordinate data resulting 
# from the CCDC's data processing and validation procedures.
#
#######################################################################

data_YEJDUO
_chemical_formula_moiety         'C10 H15 N3 O1'
_chemical_name_systematic        
N'-Isopropylidene-3,4-dimethyl-1H-pyrrole-2-carbohydrazide
_symmetry_cell_setting           triclinic
_symmetry_space_group_name_H-M   'P -1'
_symmetry_Int_Tables_number      2
_space_group_name_Hall           '-P 1'
loop_
_symmetry_equiv_pos_site_id
_symmetry_equiv_pos_as_xyz
1 x,y,z
2 -x,-y,-z
_cell_length_a                   6.6624(13)
_cell_length_b                   7.4136(14)
_cell_length_c                   12.022(2)
_cell_angle_alpha                74.567(3)
_cell_angle_beta                 86.791(3)
_cell_angle_gamma                68.256(3)
_cell_volume                     531.056
_exptl_crystal_colour            colorless
_exptl_crystal_description       block
_cell_formula_units_Z            2
loop_
_atom_site_label
_atom_site_type_symbol
_atom_site_fract_x
_atom_site_fract_y
_atom_site_fract_z
N1 N 0.1833(3) 0.6596(3) 0.48340(14)
H1 H 0.2864 0.6227 0.5343
N2 N -0.0284(3) 0.7454(2) 0.51388(14)
N3 N -0.1500(3) 0.7710(3) 0.29787(15)
H2 H -0.2098 0.7863 0.3617
O1 O 0.4285(2) 0.5518(3) 0.35820(13)
C1 C 0.2345(3) 0.6313(3) 0.37642(16)
C2 C 0.0703(3) 0.6957(3) 0.28373(16)
C3 C 0.0997(3) 0.6940(3) 0.16841(16)
C4 C -0.0580(3) 0.7835(3) 0.61263(17)
C5 C 0.3073(4) 0.6251(4) 0.10906(19)
H3 H 0.4271 0.5770 0.1639
H4 H 0.3165 0.7357 0.0484
H5 H 0.3113 0.5184 0.0768
C6 C -0.2569(3) 0.8168(3) 0.19559(18)
H6 H -0.4064 0.8700 0.1832
C7 C -0.2884(4) 0.8705(4) 0.6443(2)
H7 H -0.3834 0.8855 0.5826
H8 H -0.3162 0.9998 0.6574
H9 H -0.3130 0.7820 0.7134
C8 C -0.1097(3) 0.7724(3) 0.11330(17)
C9 C -0.1605(4) 0.8017(4) -0.01205(19)
H10 H -0.3144 0.8583 -0.0268
H11 H -0.1022 0.6742 -0.0303
H12 H -0.0971 0.8914 -0.0591
C10 C 0.1150(4) 0.7479(4) 0.6981(2)
H13 H 0.2541 0.6922 0.6677
H14 H 0.1026 0.6555 0.7687
H15 H 0.0999 0.8732 0.7130
loop_
_geom_bond_atom_site_label_1
_geom_bond_atom_site_label_2
_geom_bond_site_symmetry_1
_geom_bond_site_symmetry_2
N1 H1 1_555 1_555
N2 N1 1_555 1_555
N3 H2 1_555 1_555
O1 C1 1_555 1_555
C1 N1 1_555 1_555
C2 N3 1_555 1_555
C3 C2 1_555 1_555
C4 N2 1_555 1_555
C5 C3 1_555 1_555
H3 C5 1_555 1_555
H4 C5 1_555 1_555
H5 C5 1_555 1_555
C6 N3 1_555 1_555
H6 C6 1_555 1_555
C7 C4 1_555 1_555
H7 C7 1_555 1_555
H8 C7 1_555 1_555
H9 C7 1_555 1_555
C8 C3 1_555 1_555
C9 C8 1_555 1_555
H10 C9 1_555 1_555
H11 C9 1_555 1_555
H12 C9 1_555 1_555
C10 C4 1_555 1_555
H13 C10 1_555 1_555
H14 C10 1_555 1_555
H15 C10 1_555 1_555
C1 C2 1_555 1_555
C6 C8 1_555 1_555

#END
