
#######################################################################
#
#                 Cambridge Crystallographic Data Centre
#                                CCDC 
#
#######################################################################
#
# If this CIF has been generated from an entry in the Cambridge 
# Structural Database, then it will include bibliographic, chemical, 
# crystal, experimental, refinement or atomic coordinate data resulting 
# from the CCDC's data processing and validation procedures.
#
#######################################################################

data_YEJJEE
_chemical_formula_moiety         'C12 H10 N2 O1 S2'
_chemical_name_systematic        
1H-Indol-2-yl(2-thioxo-1,3-thiazolidin-3-yl)methanone
_symmetry_cell_setting           monoclinic
_symmetry_space_group_name_H-M   'P 21/c'
_symmetry_Int_Tables_number      14
_space_group_name_Hall           '-P 2ybc'
loop_
_symmetry_equiv_pos_site_id
_symmetry_equiv_pos_as_xyz
1 x,y,z
2 -x,1/2+y,1/2-z
3 -x,-y,-z
4 x,1/2-y,1/2+z
_cell_length_a                   10.572(2)
_cell_length_b                   10.449(2)
_cell_length_c                   11.348(2)
_cell_angle_alpha                90
_cell_angle_beta                 111.202(2)
_cell_angle_gamma                90
_cell_volume                     1168.72
_cell_formula_units_Z            4
loop_
_atom_site_label
_atom_site_type_symbol
_atom_site_fract_x
_atom_site_fract_y
_atom_site_fract_z
C1 C 0.5692(2) 0.23297(19) 0.44161(18)
C2 C 0.6663(2) 0.3195(2) 0.4413(2)
H1 H 0.6567 0.3830 0.3812
C3 C 0.7835(2) 0.2952(2) 0.5488(2)
C4 C 0.9137(2) 0.3499(2) 0.5996(2)
H2 H 0.9378 0.4174 0.5585
C5 C 1.0038(2) 0.3026(2) 0.7096(2)
H3 H 1.0899 0.3387 0.7439
C6 C 0.9694(2) 0.2004(2) 0.7725(2)
H4 H 1.0331 0.1709 0.8479
C7 C 0.8450(2) 0.1430(2) 0.7259(2)
H5 H 0.8232 0.0745 0.7674
C8 C 0.7521(2) 0.19158(19) 0.61357(19)
C9 C 0.4372(2) 0.20297(19) 0.34761(19)
C10 C 0.2961(2) 0.2753(2) 0.1351(2)
C11 C 0.2498(3) 0.4958(2) 0.2092(2)
H6 H 0.2595 0.5866 0.1968
H7 H 0.1813 0.4837 0.2465
C12 C 0.3827(3) 0.4381(2) 0.2908(2)
H8 H 0.4571 0.4772 0.2731
H9 H 0.3975 0.4503 0.3795
N1 N 0.62173(17) 0.15513(16) 0.54672(16)
H10 H 0.5792 0.0937 0.5667
N2 N 0.37299(18) 0.30022(15) 0.25921(16)
O1 O 0.38480(16) 0.09851(14) 0.34239(15)
S1 S 0.20620(7) 0.40990(6) 0.06220(6)
S2 S 0.29158(7) 0.14393(6) 0.05758(6)
loop_
_geom_bond_atom_site_label_1
_geom_bond_atom_site_label_2
_geom_bond_site_symmetry_1
_geom_bond_site_symmetry_2
C1 C2 1_555 1_555
C2 H1 1_555 1_555
C3 C2 1_555 1_555
C4 C3 1_555 1_555
H2 C4 1_555 1_555
C5 C4 1_555 1_555
H3 C5 1_555 1_555
C6 C5 1_555 1_555
H4 C6 1_555 1_555
C7 C6 1_555 1_555
H5 C7 1_555 1_555
C8 C3 1_555 1_555
C9 C1 1_555 1_555
C10 N2 1_555 1_555
C11 H6 1_555 1_555
H7 C11 1_555 1_555
C12 C11 1_555 1_555
H8 C12 1_555 1_555
H9 C12 1_555 1_555
N1 C1 1_555 1_555
H10 N1 1_555 1_555
N2 C9 1_555 1_555
O1 C9 1_555 1_555
S1 C10 1_555 1_555
S2 C10 1_555 1_555
C7 C8 1_555 1_555
C8 N1 1_555 1_555
C11 S1 1_555 1_555
C12 N2 1_555 1_555

#END
