
#######################################################################
#
#                 Cambridge Crystallographic Data Centre
#                                CCDC 
#
#######################################################################
#
# If this CIF has been generated from an entry in the Cambridge 
# Structural Database, then it will include bibliographic, chemical, 
# crystal, experimental, refinement or atomic coordinate data resulting 
# from the CCDC's data processing and validation procedures.
#
#######################################################################

data_YEJLUU
_chemical_formula_moiety         'C10 H20 N2 O8'
_chemical_name_systematic        
N,N'-bis(tris(Hydroxymethyl)methyl)ethanediamide
_symmetry_cell_setting           orthorhombic
_symmetry_space_group_name_H-M   'P n a 21'
_symmetry_Int_Tables_number      33
_space_group_name_Hall           'P 2c -2n'
loop_
_symmetry_equiv_pos_site_id
_symmetry_equiv_pos_as_xyz
1 x,y,z
2 -x,-y,1/2+z
3 1/2-x,1/2+y,1/2+z
4 1/2+x,1/2-y,z
_cell_length_a                   21.4097(3)
_cell_length_b                   6.1559(6)
_cell_length_c                   10.0605(13)
_cell_angle_alpha                90
_cell_angle_beta                 90
_cell_angle_gamma                90
_cell_volume                     1325.93
_exptl_crystal_colour            colorless
_exptl_crystal_description       needle
_cell_formula_units_Z            4
_exptl_crystal_recrystallization_method ethanol
loop_
_atom_site_label
_atom_site_type_symbol
_atom_site_fract_x
_atom_site_fract_y
_atom_site_fract_z
C1 C 0.35599(14) 0.3989(5) 0.2429(4)
O1 O 0.37908(11) 0.2156(3) 0.2587(4)
N1 N 0.29955(12) 0.4639(4) 0.2785(3)
C2 C 0.24894(13) 0.3321(4) 0.3355(4)
C3 C 0.22009(14) 0.1975(5) 0.2239(4)
O2 O 0.16741(10) 0.0787(3) 0.2706(3)
C4 C 0.20187(15) 0.4947(5) 0.3908(4)
O3 O 0.18617(9) 0.6547(3) 0.2946(3)
C5 C 0.27109(15) 0.1848(5) 0.4504(4)
O4 O 0.29531(11) -0.0194(4) 0.4106(3)
C6 C 0.39443(13) 0.5817(4) 0.1789(4)
O5 O 0.37160(10) 0.7631(3) 0.1637(4)
N2 N 0.45178(12) 0.5185(4) 0.1451(3)
C7 C 0.50150(13) 0.6557(4) 0.0900(4)
C8 C 0.53100(15) 0.7838(5) 0.2040(4)
O6 O 0.58211(9) 0.9099(3) 0.1575(3)
C9 C 0.54960(15) 0.4980(5) 0.0314(4)
O7 O 0.56664(9) 0.3349(3) 0.1241(3)
C10 C 0.47878(15) 0.8090(5) -0.0215(4)
O8 O 0.45581(11) 1.0118(3) 0.0231(3)
H1 H 0.2913 0.6026 0.2667
H2 H 0.2071 0.2949 0.1506
H3 H 0.2517 0.0953 0.1885
H4 H 0.1789 -0.0454 0.2953
H5 H 0.1636 0.4168 0.4186
H6 H 0.2198 0.5665 0.4702
H7 H 0.1546 0.6139 0.2517
H8 H 0.3037 0.2628 0.5011
H9 H 0.2355 0.1596 0.5112
H10 H 0.3272 -0.0003 0.3632
H11 H 0.4608 0.3804 0.1570
H12 H 0.4993 0.8807 0.2442
H13 H 0.5457 0.6820 0.2735
H14 H 0.5700 1.0373 0.1421
H15 H 0.5319 0.4286 -0.0490
H16 H 0.5873 0.5799 0.0045
H17 H 0.5980 0.3761 0.1673
H18 H 0.5139 0.8354 -0.0835
H19 H 0.4453 0.7347 -0.0720
H20 H 0.4246 0.9918 0.0722
C11? C 0.3544(10) 1.0900(4) 0.247(2)
O9? O 0.3772(12) 1.2689(9) 0.2611(15)
N3? N 0.2994(9) 1.0298(4) 0.279(2)
C12? C 0.2505(12) 1.165(4) 0.338(4)
C13? C 0.221(2) 1.300(8) 0.227(4)
O10? O 0.1675(16) 1.413(6) 0.272(7)
C14? C 0.204(3) 0.997(7) 0.392(5)
O11? O 0.1869(18) 0.844(6) 0.294(6)
C15? C 0.273(3) 1.312(6) 0.451(5)
O12? O 0.294(2) 1.516(5) 0.405(5)
C16? C 0.3933(19) 0.910(6) 0.182(6)
O13? O 0.3710 0.7295 0.1602
N4? N 0.4517(19) 0.963(7) 0.153(6)
C17? C 0.5022(15) 0.841(4) 0.090(5)
C18? C 0.530(2) 0.709(8) 0.203(5)
O14? O 0.5832(17) 0.589(6) 0.161(7)
C19? C 0.549(3) 1.002(7) 0.032(5)
O15? O 0.5676(17) 1.165(6) 0.123(6)
C20? C 0.478(3) 0.698(7) -0.021(5)
O16? O 0.453(2) 0.498(5) 0.022(6)
H21? H 0.2898 0.8932 0.2631
H22? H 0.2523 1.4052 0.1931
H23? H 0.2093 1.2026 0.1528
H24? H 0.1521 1.4847 0.2094
H25? H 0.2234 0.9203 0.4683
H26? H 0.1664 1.0729 0.4249
H27? H 0.1860 0.7197 0.3279
H28? H 0.2387 1.3353 0.5152
H29? H 0.3077 1.2387 0.4992
H30? H 0.2653 1.5791 0.3644
H31? H 0.4619 1.0961 0.1752
H32? H 0.5427 0.8086 0.2757
H33? H 0.4985 0.6082 0.2381
H34? H 0.5972 0.5166 0.2253
H35? H 0.5864 0.9208 0.0025
H36? H 0.5302 1.0715 -0.0470
H37? H 0.5637 1.2878 0.0867
H38? H 0.4451 0.7782 -0.0704
H39? H 0.5124 0.6688 -0.0843
H40? H 0.4357 0.5146 0.0965
loop_
_geom_bond_atom_site_label_1
_geom_bond_atom_site_label_2
_geom_bond_site_symmetry_1
_geom_bond_site_symmetry_2
C1 O1 1_555 1_555
N1 C1 1_555 1_555
C2 N1 1_555 1_555
C3 C2 1_555 1_555
O2 C3 1_555 1_555
C4 C2 1_555 1_555
O3 C4 1_555 1_555
C5 C2 1_555 1_555
O4 C5 1_555 1_555
C6 C1 1_555 1_555
O5 C6 1_555 1_555
N2 C6 1_555 1_555
C7 N2 1_555 1_555
C8 C7 1_555 1_555
O6 C8 1_555 1_555
C9 C7 1_555 1_555
O7 C9 1_555 1_555
C10 C7 1_555 1_555
O8 C10 1_555 1_555
H1 N1 1_555 1_555
H2 C3 1_555 1_555
H3 C3 1_555 1_555
H4 O2 1_555 1_555
H5 C4 1_555 1_555
H6 C4 1_555 1_555
H7 O3 1_555 1_555
H8 C5 1_555 1_555
H9 C5 1_555 1_555
H10 O4 1_555 1_555
H11 N2 1_555 1_555
H12 C8 1_555 1_555
H13 C8 1_555 1_555
H14 O6 1_555 1_555
H15 C9 1_555 1_555
H16 C9 1_555 1_555
H17 O7 1_555 1_555
H18 C10 1_555 1_555
H19 C10 1_555 1_555
H20 O8 1_555 1_555

#END
