
#######################################################################
#
#                 Cambridge Crystallographic Data Centre
#                                CCDC 
#
#######################################################################
#
# If this CIF has been generated from an entry in the Cambridge 
# Structural Database, then it will include bibliographic, chemical, 
# crystal, experimental, refinement or atomic coordinate data resulting 
# from the CCDC's data processing and validation procedures.
#
#######################################################################

data_YEJLOO
_chemical_formula_moiety         'C12 H10 N2 O2'
_chemical_name_systematic        2-Nitrodiphenylamine
_symmetry_cell_setting           orthorhombic
_symmetry_space_group_name_H-M   'P c a 21'
_symmetry_Int_Tables_number      29
_space_group_name_Hall           'P 2c -2ac'
loop_
_symmetry_equiv_pos_site_id
_symmetry_equiv_pos_as_xyz
1 x,y,z
2 -x,-y,1/2+z
3 1/2+x,-y,z
4 1/2-x,y,1/2+z
_cell_length_a                   14.7077(5)
_cell_length_b                   10.1602(4)
_cell_length_c                   6.7878(2)
_cell_angle_alpha                90
_cell_angle_beta                 90
_cell_angle_gamma                90
_cell_volume                     1014.32
_exptl_crystal_colour            orange
_exptl_crystal_description       plate
_cell_formula_units_Z            4
_exptl_crystal_recrystallization_method ethanol
loop_
_atom_site_label
_atom_site_type_symbol
_atom_site_fract_x
_atom_site_fract_y
_atom_site_fract_z
C1 C 0.10776(15) 0.6247(2) 0.2121(4)
N1 N 0.08211(14) 0.74980(18) 0.2639(4)
C2 C 0.19915(16) 0.5831(2) 0.2064(4)
N2 N 0.27326(12) 0.6698(2) 0.2587(3)
O1 O 0.25536(13) 0.77348(15) 0.3512(3)
O2 O 0.35155(11) 0.63978(18) 0.2152(3)
C3 C 0.22414(16) 0.4559(2) 0.1465(4)
C4 C 0.15829(16) 0.3664(2) 0.0961(4)
C5 C 0.06768(16) 0.4027(2) 0.1096(4)
C6 C 0.04220(16) 0.5275(2) 0.1662(4)
C7 C -0.00247(15) 0.8114(2) 0.2271(4)
C8 C -0.05434(12) 0.78654(16) 0.0613(3)
C9 C -0.13509(12) 0.85409(16) 0.0307(3)
C10 C -0.16349(17) 0.9484(2) 0.1644(5)
C11 C -0.11106(17) 0.9761(2) 0.3274(5)
C12 C -0.03084(17) 0.9069(2) 0.3609(4)
H1 H 0.1229 0.7971 0.3271
H2 H 0.2865 0.4318 0.1409
H3 H 0.1746 0.2807 0.0525
H4 H 0.0220 0.3398 0.0791
H5 H -0.0206 0.5487 0.1746
H6 H -0.0346 0.7230 -0.0320
H7 H -0.1710 0.8356 -0.0824
H8 H -0.2191 0.9939 0.1439
H9 H -0.1297 1.0426 0.4171
H10 H 0.0045 0.9249 0.4748
loop_
_geom_bond_atom_site_label_1
_geom_bond_atom_site_label_2
_geom_bond_site_symmetry_1
_geom_bond_site_symmetry_2
C1 N1 1_555 1_555
N1 C7 1_555 1_555
C2 C1 1_555 1_555
N2 C2 1_555 1_555
O1 N2 1_555 1_555
O2 N2 1_555 1_555
C3 C2 1_555 1_555
C4 C3 1_555 1_555
C5 C4 1_555 1_555
C6 C1 1_555 1_555
C7 C8 1_555 1_555
C8 C9 1_555 1_555
C9 C10 1_555 1_555
C10 C11 1_555 1_555
C11 C12 1_555 1_555
C12 C7 1_555 1_555
H1 N1 1_555 1_555
H2 C3 1_555 1_555
H3 C4 1_555 1_555
H4 C5 1_555 1_555
H5 C6 1_555 1_555
H6 C8 1_555 1_555
H7 C9 1_555 1_555
H8 C10 1_555 1_555
H9 C11 1_555 1_555
H10 C12 1_555 1_555
C5 C6 1_555 1_555

#END
