
#######################################################################
#
#                 Cambridge Crystallographic Data Centre
#                                CCDC 
#
#######################################################################
#
# If this CIF has been generated from an entry in the Cambridge 
# Structural Database, then it will include bibliographic, chemical, 
# crystal, experimental, refinement or atomic coordinate data resulting 
# from the CCDC's data processing and validation procedures.
#
#######################################################################

data_YEJMOQ
_chemical_formula_moiety         'C10 H11 N2 O2 1+,C8 H5 O4 1-'
_chemical_name_systematic        
'Hydrogen bis(pyridin-4-ium-1-olate) hydrogen o-phthalate'
_symmetry_cell_setting           monoclinic
_symmetry_space_group_name_H-M   'P 21/m'
_symmetry_Int_Tables_number      11
_space_group_name_Hall           '-P 2yb'
loop_
_symmetry_equiv_pos_site_id
_symmetry_equiv_pos_as_xyz
1 x,y,z
2 -x,1/2+y,-z
3 -x,-y,-z
4 x,1/2-y,z
_cell_length_a                   4.0010(4)
_cell_length_b                   29.881(5)
_cell_length_c                   6.8747(10)
_cell_angle_alpha                90
_cell_angle_beta                 93.815(11)
_cell_angle_gamma                90
_cell_volume                     820.076
_exptl_crystal_colour            'dark brown'
_exptl_crystal_description       prism
_cell_formula_units_Z            2
loop_
_atom_site_label
_atom_site_type_symbol
_atom_site_fract_x
_atom_site_fract_y
_atom_site_fract_z
O1 O 0.2279(8) 0.34558(10) 0.6768(4)
O2 O 0.3331(8) 0.28999(9) 0.4839(4)
H1 H 0.3633 0.2500 0.5009
C1 C 0.2223(11) 0.30490(15) 0.6431(6)
C2 C 0.0835(10) 0.27351(12) 0.7883(5)
C3 C -0.0527(10) 0.29543(14) 0.9429(6)
H4 H -0.0556 0.3266 0.9434
C4 C -0.1835(10) 0.27294(13) 1.0954(5)
H5 H -0.2739 0.2891 1.2005
O1C O 0.2279(8) 0.15442(10) 0.6768(4)
O2C O 0.3331(8) 0.21001(9) 0.4839(4)
C1C C 0.2223(11) 0.19510(15) 0.6431(6)
C2C C 0.0835(10) 0.22649(12) 0.7883(5)
C3C C -0.0527(10) 0.20457(14) 0.9429(6)
H4C H -0.0556 0.1734 0.9434
C4C C -0.1835(10) 0.22706(13) 1.0954(5)
H5C H -0.2739 0.2109 1.2005
O3 O 0.8259(8) 0.46737(10) -0.0460(4)
H2 H 1.0000 0.5000 0.0000
N1 N 0.5132(10) 0.39535(12) 0.4092(5)
H3 H 0.4310 0.3774 0.5525
C5 C 0.6751(12) 0.43441(15) 0.4439(7)
H6 H 0.7168 0.4442 0.5717
C6 C 0.7784(12) 0.45976(15) 0.2944(6)
H7 H 0.8873 0.4868 0.3210
C7 C 0.7220(12) 0.44544(14) 0.1014(6)
C8 C 0.5491(13) 0.40507(14) 0.0718(7)
H8 H 0.5017 0.3944 -0.0541
C9 C 0.4504(12) 0.38142(15) 0.2260(7)
H9 H 0.3355 0.3547 0.2036
O3B O 1.1741(8) 0.53263(10) 0.0460(4)
N1B N 1.4868(10) 0.60465(12) -0.4092(5)
H3B H 1.5690 0.6226 -0.5525
C5B C 1.3249(12) 0.56559(15) -0.4439(7)
H6B H 1.2832 0.5558 -0.5717
C6B C 1.2216(12) 0.54024(15) -0.2944(6)
H7B H 1.1127 0.5132 -0.3210
C7B C 1.2780(12) 0.55456(14) -0.1014(6)
C8B C 1.4509(13) 0.59493(14) -0.0718(7)
H8B H 1.4983 0.6056 0.0541
C9B C 1.5496(12) 0.61858(15) -0.2260(7)
H9B H 1.6645 0.6453 -0.2036
loop_
_geom_bond_atom_site_label_1
_geom_bond_atom_site_label_2
_geom_bond_site_symmetry_1
_geom_bond_site_symmetry_2
O1 C1 1_555 1_555
O2 H1 1_555 1_555
H1 O2C 1_555 1_555
O3 H2 1_555 1_555
H2 O3B 1_555 1_555
N1 H3 1_555 1_555
C1 O2 1_555 1_555
C2 C1 1_555 1_555
C3 C2 1_555 1_555
H4 C3 1_555 1_555
C4 C3 1_555 1_555
H5 C4 1_555 1_555
C5 N1 1_555 1_555
H6 C5 1_555 1_555
C6 C5 1_555 1_555
H7 C6 1_555 1_555
C7 O3 1_555 1_555
C8 C7 1_555 1_555
H8 C8 1_555 1_555
C9 N1 1_555 1_555
H9 C9 1_555 1_555
O1C C1C 1_555 1_555
O2C C1C 1_555 1_555
O3B C7B 1_555 1_555
N1B H3B 1_555 1_555
C1C C2C 1_555 1_555
C2C C2 1_555 1_555
C3C C2C 1_555 1_555
H4C C3C 1_555 1_555
C4C C4 1_555 1_555
H5C C4C 1_555 1_555
C5B N1B 1_555 1_555
H6B C5B 1_555 1_555
C6B C5B 1_555 1_555
H7B C6B 1_555 1_555
C7B C6B 1_555 1_555
C8B C7B 1_555 1_555
H8B C8B 1_555 1_555
C9B N1B 1_555 1_555
H9B C9B 1_555 1_555
C6 C7 1_555 1_555
C8 C9 1_555 1_555
C3C C4C 1_555 1_555
C8B C9B 1_555 1_555

#END
