
#######################################################################
#
#                 Cambridge Crystallographic Data Centre
#                                CCDC 
#
#######################################################################
#
# If this CIF has been generated from an entry in the Cambridge 
# Structural Database, then it will include bibliographic, chemical, 
# crystal, experimental, refinement or atomic coordinate data resulting 
# from the CCDC's data processing and validation procedures.
#
#######################################################################

data_YEJRUD
_chemical_formula_moiety         'C18 H22 N1 O1 P1'
_chemical_name_systematic        1-(diphenylphosphoryl)-4-methylpiperidine
_symmetry_cell_setting           triclinic
_symmetry_space_group_name_H-M   'P -1'
_symmetry_Int_Tables_number      2
_space_group_name_Hall           '-P 1'
loop_
_symmetry_equiv_pos_site_id
_symmetry_equiv_pos_as_xyz
1 x,y,z
2 -x,-y,-z
_cell_length_a                   8.8111(7)
_cell_length_b                   8.8406(6)
_cell_length_c                   11.0875(8)
_cell_angle_alpha                71.938(6)
_cell_angle_beta                 83.952(6)
_cell_angle_gamma                85.034(6)
_cell_volume                     815.207
_exptl_crystal_colour            yellow
_exptl_crystal_description       block
_cell_formula_units_Z            2
loop_
_atom_site_label
_atom_site_type_symbol
_atom_site_fract_x
_atom_site_fract_y
_atom_site_fract_z
P1 P 0.21318(6) 0.65768(7) 0.74350(6)
O1 O 0.1020(2) 0.7244(2) 0.82483(18)
N1 N 0.2161(2) 0.7343(2) 0.58699(19)
C1 C 0.4072(3) 0.6717(3) 0.7767(2)
C2 C 0.1894(2) 0.4483(3) 0.7703(2)
C3 C 0.0996(3) 0.3678(3) 0.8779(2)
H1 H 0.0481 0.4232 0.9302
C4 C 0.4302(3) 0.7081(3) 0.8869(2)
H2 H 0.3466 0.7278 0.9396
C5 C 0.0938(3) 0.7046(3) 0.5176(3)
H3 H 0.0122 0.7869 0.5114
H4 H 0.0518 0.6027 0.5635
C6 C 0.1573(3) 0.7039(3) 0.3860(3)
H5 H 0.0752 0.6879 0.3400
H6 H 0.2324 0.6153 0.3930
C7 C 0.5336(3) 0.6413(3) 0.7004(3)
H7 H 0.5201 0.6156 0.6272
C8 C 0.2640(3) 0.3636(3) 0.6926(3)
H8 H 0.3252 0.4159 0.6207
C9 C 0.2785(3) 0.8915(3) 0.5216(3)
H9 H 0.3565 0.9106 0.5699
H10 H 0.1977 0.9747 0.5155
C10 C 0.3464(3) 0.8953(3) 0.3903(3)
H11 H 0.4328 0.8180 0.3978
H12 H 0.3841 0.9999 0.3469
C11 C 0.0863(3) 0.2042(3) 0.9076(3)
H13 H 0.0269 0.1507 0.9803
C12 C 0.2318(3) 0.8586(3) 0.3104(3)
H14 H 0.1518 0.9450 0.2943
C13 C 0.1598(3) 0.1222(3) 0.8309(3)
H15 H 0.1513 0.0128 0.8518
C14 C 0.5772(4) 0.7151(4) 0.9183(3)
H16 H 0.5915 0.7405 0.9915
C15 C 0.2476(3) 0.2017(4) 0.7217(3)
H17 H 0.2953 0.1461 0.6681
C16 C 0.7012(3) 0.6851(4) 0.8423(3)
H18 H 0.7994 0.6890 0.8643
C17 C 0.6807(3) 0.6488(4) 0.7326(3)
H19 H 0.7651 0.6295 0.6804
C18 C 0.3066(5) 0.8489(5) 0.1827(3)
H20 H 0.3871 0.7664 0.1965
H21 H 0.3482 0.9491 0.1356
H22 H 0.2316 0.8249 0.1354
loop_
_geom_bond_atom_site_label_1
_geom_bond_atom_site_label_2
_geom_bond_site_symmetry_1
_geom_bond_site_symmetry_2
P1 O1 1_555 1_555
N1 P1 1_555 1_555
C1 P1 1_555 1_555
C2 P1 1_555 1_555
C3 C2 1_555 1_555
H1 C3 1_555 1_555
C4 C1 1_555 1_555
H2 C4 1_555 1_555
C5 N1 1_555 1_555
H3 C5 1_555 1_555
H4 C5 1_555 1_555
C6 C5 1_555 1_555
H5 C6 1_555 1_555
H6 C6 1_555 1_555
C7 C1 1_555 1_555
H7 C7 1_555 1_555
C8 C2 1_555 1_555
H8 C8 1_555 1_555
C9 N1 1_555 1_555
H9 C9 1_555 1_555
H10 C9 1_555 1_555
C10 C9 1_555 1_555
H11 C10 1_555 1_555
H12 C10 1_555 1_555
C11 C3 1_555 1_555
H13 C11 1_555 1_555
C12 C6 1_555 1_555
H14 C12 1_555 1_555
C13 C11 1_555 1_555
H15 C13 1_555 1_555
C14 C4 1_555 1_555
H16 C14 1_555 1_555
C15 C8 1_555 1_555
H17 C15 1_555 1_555
C16 C14 1_555 1_555
H18 C16 1_555 1_555
C17 C7 1_555 1_555
H19 C17 1_555 1_555
C18 C12 1_555 1_555
H20 C18 1_555 1_555
H21 C18 1_555 1_555
H22 C18 1_555 1_555
C10 C12 1_555 1_555
C13 C15 1_555 1_555
C16 C17 1_555 1_555

#END
