
#######################################################################
#
#                 Cambridge Crystallographic Data Centre
#                                CCDC 
#
#######################################################################
#
# If this CIF has been generated from an entry in the Cambridge 
# Structural Database, then it will include bibliographic, chemical, 
# crystal, experimental, refinement or atomic coordinate data resulting 
# from the CCDC's data processing and validation procedures.
#
#######################################################################

data_YEJVUE
_chemical_formula_moiety         'C26 H22 N2 O1'
_chemical_name_systematic        
N(6)-Acetyl-5,7-diphenyl-5,6,7,8-tetrahydrobenzo(b)-1,6-naphthyridine
_symmetry_cell_setting           triclinic
_symmetry_space_group_name_H-M   'P -1'
_symmetry_Int_Tables_number      2
_space_group_name_Hall           '-P 1'
loop_
_symmetry_equiv_pos_site_id
_symmetry_equiv_pos_as_xyz
1 x,y,z
2 -x,-y,-z
_cell_length_a                   10.394(2)
_cell_length_b                   10.493(3)
_cell_length_c                   20.265(4)
_cell_angle_alpha                76.03(2)
_cell_angle_beta                 79.83(2)
_cell_angle_gamma                72.21(2)
_cell_volume                     2029.57
_exptl_crystal_colour            colorless
_exptl_crystal_description       'rectangular block'
_cell_formula_units_Z            4
_exptl_crystal_recrystallization_method 'benzene/petroleum ether'
loop_
_atom_site_label
_atom_site_type_symbol
_atom_site_fract_x
_atom_site_fract_y
_atom_site_fract_z
N1 N 0.2866(2) 0.2928(2) 0.87272(10)
C1 C 0.1617(3) 0.3530(2) 0.84974(11)
C2 C 0.0925(2) 0.2839(2) 0.82231(11)
C3 C 0.1571(3) 0.1458(2) 0.81954(12)
H1 H 0.1144(13) 0.0948(15) 0.8008(6)
C4 C 0.3545(2) -0.0612(2) 0.84244(12)
H2 H 0.3206(10) -0.0852(7) 0.8066(10)
N2 N 0.50087(19) -0.07346(19) 0.82033(9)
C5 C 0.5725(2) 0.0041(2) 0.84586(12)
H3 H 0.6033(9) 0.0663(19) 0.8066(12)
C6 C 0.4752(2) 0.0910(2) 0.89515(13)
H4 H 0.4609(3) 0.0304(11) 0.9407(8)
H5 H 0.5181(8) 0.1596(12) 0.90203(19)
C7 C 0.1002(3) 0.4916(3) 0.85329(14)
H6 H 0.1458(14) 0.5407(15) 0.8727(6)
C8 C -0.0223(3) 0.5564(3) 0.82981(14)
H7 H -0.0636(13) 0.651(3) 0.83219(16)
C9 C -0.0895(3) 0.4880(3) 0.80218(15)
H8 H -0.178(3) 0.5375(14) 0.7854(5)
C10 C -0.0342(3) 0.3545(3) 0.79808(13)
H9 H -0.0814(14) 0.3085(14) 0.7787(6)
C11 C 0.2793(2) 0.0853(2) 0.84331(11)
C12 C 0.3408(2) 0.1640(2) 0.86932(11)
C13 C 0.5576(3) -0.1361(2) 0.76624(12)
C14 C 0.6991(3) -0.1318(3) 0.73460(13)
H10 H 0.7611(12) -0.174(2) 0.7682(7)
H11 H 0.7008(6) -0.0390(16) 0.7180(10)
H12 H 0.7250(10) -0.179(2) 0.6975(9)
O1 O 0.4949(2) -0.19456(19) 0.74316(9)
C15 C 0.3291(2) -0.1627(2) 0.90780(13)
C16 C 0.3726(3) -0.3005(3) 0.90644(17)
H13 H 0.4198(14) -0.3291(9) 0.8654(12)
C17 C 0.3493(4) -0.3976(3) 0.9630(2)
H14 H 0.3788(10) -0.489(3) 0.9607(2)
C18 C 0.2834(4) -0.3588(4) 1.0218(2)
H15 H 0.2683(6) -0.423(2) 1.0595(13)
C19 C 0.2396(4) -0.2238(4) 1.02477(17)
H16 H 0.1952(15) -0.1975(9) 1.0645(13)
C20 C 0.2621(3) -0.1261(3) 0.96777(14)
H17 H 0.2309(10) -0.033(3) 0.97032(16)
C21 C 0.6952(2) -0.0828(2) 0.88142(12)
C22 C 0.8124(3) -0.0404(3) 0.86945(15)
H18 H 0.8178(3) 0.040(2) 0.8355(10)
C23 C 0.9216(3) -0.1128(4) 0.90581(18)
H19 H 0.998(2) -0.0835(10) 0.8979(3)
C24 C 0.9158(3) -0.2281(3) 0.95365(17)
H20 H 0.997(2) -0.2813(16) 0.9806(8)
C25 C 0.8002(3) -0.2721(3) 0.96529(14)
H21 H 0.7964(3) -0.354(2) 0.9986(10)
C26 C 0.6904(3) -0.2001(3) 0.92976(13)
H22 H 0.609(2) -0.2317(10) 0.9387(3)
N3 N 0.5157(2) 0.1691(2) 0.65608(10)
C27 C 0.5050(3) 0.2768(2) 0.68556(12)
C28 C 0.3821(3) 0.3787(2) 0.69328(12)
C29 C 0.2676(3) 0.3667(2) 0.66891(12)
H23 H 0.183(3) 0.432(2) 0.67391(19)
C30 C 0.1633(2) 0.2383(2) 0.61174(12)
H24 H 0.082(2) 0.2850(14) 0.6353(7)
N4 N 0.16922(19) 0.09069(19) 0.63110(9)
C31 C 0.3002(2) -0.0130(2) 0.62050(13)
H25 H 0.3194(6) -0.0743(17) 0.6666(13)
C32 C 0.4171(2) 0.0541(2) 0.59562(13)
H26 H 0.5031(16) -0.0152(13) 0.60223(16)
H27 H 0.4164(2) 0.0922(7) 0.5469(9)
C33 C 0.6222(3) 0.2863(3) 0.70794(14)
H28 H 0.714(2) 0.212(2) 0.7021(2)
C34 C 0.6150(4) 0.3924(3) 0.73710(17)
H29 H 0.695(3) 0.3979(4) 0.7524(5)
C35 C 0.4942(4) 0.4926(4) 0.74516(16)
H30 H 0.4914(4) 0.565(2) 0.7653(6)
C36 C 0.3796(3) 0.4864(3) 0.72392(14)
H31 H 0.296(2) 0.556(2) 0.7299(2)
C37 C 0.2795(2) 0.2611(2) 0.63834(11)
C38 C 0.4073(2) 0.1644(2) 0.63236(12)
C39 C 0.0602(3) 0.0544(3) 0.67013(13)
C40 C 0.0707(3) -0.0945(3) 0.69625(17)
H32 H -0.0069(18) -0.1041(4) 0.7257(11)
H33 H 0.1471(19) -0.1354(10) 0.7198(11)
H34 H 0.079(2) -0.1363(10) 0.6595(7)
O2 O -0.04550(19) 0.1394(2) 0.68440(11)
C41 C 0.1524(2) 0.2950(2) 0.53592(12)
C42 C 0.2509(3) 0.3453(3) 0.49173(14)
H35 H 0.329(2) 0.3452(3) 0.5081(5)
C43 C 0.2339(4) 0.3954(4) 0.42356(16)
H36 H 0.302(2) 0.4293(11) 0.3935(9)
C44 C 0.1192(4) 0.3970(3) 0.39869(17)
H37 H 0.1086(5) 0.4308(11) 0.3515(15)
C45 C 0.0198(4) 0.3498(3) 0.44211(16)
H38 H -0.061(2) 0.3517(3) 0.4251(5)
C46 C 0.0356(3) 0.2996(3) 0.51003(15)
H39 H -0.036(2) 0.2669(10) 0.5404(9)
C47 C 0.2994(2) -0.1035(2) 0.57260(12)
C48 C 0.2334(3) -0.0564(3) 0.51458(14)
H40 H 0.1815(15) 0.038(3) 0.5037(3)
C49 C 0.2405(3) -0.1431(4) 0.47193(17)
H41 H 0.1959(15) -0.1095(12) 0.4325(13)
C50 C 0.3118(3) -0.2767(4) 0.48640(17)
H42 H 0.3150(3) -0.3341(19) 0.4581(9)
C51 C 0.3787(3) -0.3248(3) 0.54367(17)
H43 H 0.4304(15) -0.420(3) 0.5541(4)
C52 C 0.3727(3) -0.2386(3) 0.58650(15)
H44 H 0.4226(14) -0.2749(11) 0.6284(12)
loop_
_geom_bond_atom_site_label_1
_geom_bond_atom_site_label_2
_geom_bond_site_symmetry_1
_geom_bond_site_symmetry_2
N1 C1 1_555 1_555
C1 C2 1_555 1_555
C2 C3 1_555 1_555
C3 H1 1_555 1_555
C4 H2 1_555 1_555
N2 C4 1_555 1_555
C5 N2 1_555 1_555
H3 C5 1_555 1_555
C6 C5 1_555 1_555
H4 C6 1_555 1_555
H5 C6 1_555 1_555
C7 C1 1_555 1_555
H6 C7 1_555 1_555
C8 C7 1_555 1_555
H7 C8 1_555 1_555
C9 C8 1_555 1_555
H8 C9 1_555 1_555
C10 C2 1_555 1_555
H9 C10 1_555 1_555
C11 C3 1_555 1_555
C12 N1 1_555 1_555
C13 N2 1_555 1_555
C14 C13 1_555 1_555
H10 C14 1_555 1_555
H11 C14 1_555 1_555
H12 C14 1_555 1_555
O1 C13 1_555 1_555
C15 C4 1_555 1_555
C16 C15 1_555 1_555
H13 C16 1_555 1_555
C17 C16 1_555 1_555
H14 C17 1_555 1_555
C18 C17 1_555 1_555
H15 C18 1_555 1_555
C19 C18 1_555 1_555
H16 C19 1_555 1_555
C20 C15 1_555 1_555
H17 C20 1_555 1_555
C21 C5 1_555 1_555
C22 C21 1_555 1_555
H18 C22 1_555 1_555
C23 C22 1_555 1_555
H19 C23 1_555 1_555
C24 C23 1_555 1_555
H20 C24 1_555 1_555
C25 C24 1_555 1_555
H21 C25 1_555 1_555
C26 C21 1_555 1_555
H22 C26 1_555 1_555
N3 C27 1_555 1_555
C27 C28 1_555 1_555
C28 C29 1_555 1_555
C29 H23 1_555 1_555
C30 H24 1_555 1_555
N4 C30 1_555 1_555
C31 N4 1_555 1_555
H25 C31 1_555 1_555
C32 C31 1_555 1_555
H26 C32 1_555 1_555
H27 C32 1_555 1_555
C33 C27 1_555 1_555
H28 C33 1_555 1_555
C34 C33 1_555 1_555
H29 C34 1_555 1_555
C35 C34 1_555 1_555
H30 C35 1_555 1_555
C36 C28 1_555 1_555
H31 C36 1_555 1_555
C37 C29 1_555 1_555
C38 N3 1_555 1_555
C39 N4 1_555 1_555
C40 C39 1_555 1_555
H32 C40 1_555 1_555
H33 C40 1_555 1_555
H34 C40 1_555 1_555
O2 C39 1_555 1_555
C41 C30 1_555 1_555
C42 C41 1_555 1_555
H35 C42 1_555 1_555
C43 C42 1_555 1_555
H36 C43 1_555 1_555
C44 C43 1_555 1_555
H37 C44 1_555 1_555
C45 C44 1_555 1_555
H38 C45 1_555 1_555
C46 C41 1_555 1_555
H39 C46 1_555 1_555
C47 C31 1_555 1_555
C48 C47 1_555 1_555
H40 C48 1_555 1_555
C49 C48 1_555 1_555
H41 C49 1_555 1_555
C50 C49 1_555 1_555
H42 C50 1_555 1_555
C51 C50 1_555 1_555
H43 C51 1_555 1_555
C52 C47 1_555 1_555
H44 C52 1_555 1_555
C4 C11 1_555 1_555
C6 C12 1_555 1_555
C9 C10 1_555 1_555
C11 C12 1_555 1_555
C19 C20 1_555 1_555
C25 C26 1_555 1_555
C30 C37 1_555 1_555
C32 C38 1_555 1_555
C35 C36 1_555 1_555
C37 C38 1_555 1_555
C45 C46 1_555 1_555
C51 C52 1_555 1_555

#END
