
#######################################################################
#
#                 Cambridge Crystallographic Data Centre
#                                CCDC 
#
#######################################################################
#
# If this CIF has been generated from an entry in the Cambridge 
# Structural Database, then it will include bibliographic, chemical, 
# crystal, experimental, refinement or atomic coordinate data resulting 
# from the CCDC's data processing and validation procedures.
#
#######################################################################

data_YEJZES
_chemical_formula_moiety         'C12 H11 F1 O3'
_chemical_name_systematic        
'2-(6-Fluoro-5-hydroxy-2-methyl-1H-3-indenyl)acetic acid'
_symmetry_cell_setting           monoclinic
_symmetry_space_group_name_H-M   'P 21/n'
_symmetry_Int_Tables_number      14
_space_group_name_Hall           '-P 2yn'
loop_
_symmetry_equiv_pos_site_id
_symmetry_equiv_pos_as_xyz
1 x,y,z
2 1/2+x,1/2-y,1/2+z
3 -x,-y,-z
4 1/2-x,1/2+y,1/2-z
_cell_length_a                   11.662(3)
_cell_length_b                   7.579(2)
_cell_length_c                   12.038(6)
_cell_angle_alpha                90
_cell_angle_beta                 106.89(3)
_cell_angle_gamma                90
_cell_volume                     1018.1
_exptl_crystal_colour            'pale yellow'
_exptl_crystal_description       block
_chemical_melting_point          443-445K(dec.)
_cell_formula_units_Z            4
_exptl_crystal_recrystallization_method 'ethyl acetate/hexane'
loop_
_atom_site_label
_atom_site_type_symbol
_atom_site_fract_x
_atom_site_fract_y
_atom_site_fract_z
F1 F 0.36000(12) 0.1145(2) 0.00284(12)
O1 O 0.23937(13) -0.1620(2) 0.06247(13)
H1 H 0.3176 -0.1684 0.0695
O2 O 0.04052(12) 0.15289(19) 0.41985(11)
O3 O -0.11619(12) -0.0296(2) 0.36502(11)
H2 H -0.0842 -0.0760 0.4423
C1 C 0.09856(18) 0.5251(3) 0.14278(17)
H3 H 0.0662 0.5975 0.0722
H4 H 0.1597 0.5944 0.2006
C2 C 0.00044(18) 0.4654(3) 0.19153(16)
C3 C 0.08575(15) 0.2142(3) 0.14264(15)
C4 C -0.00712(16) 0.2884(3) 0.18979(16)
C5 C 0.11510(16) 0.0408(3) 0.12578(16)
H5 H 0.0714 -0.0539 0.1455
C6 C 0.20955(17) 0.0074(3) 0.07958(16)
C7 C 0.26941(17) 0.1515(3) 0.05030(16)
C8 C 0.14990(17) 0.3558(3) 0.11480(15)
C9 C 0.24293(18) 0.3237(3) 0.06758(16)
H6 H 0.2870 0.4180 0.0478
C10 C -0.0742(2) 0.5945(3) 0.2344(2)
H7 H -0.0481 0.7148 0.2245
H8 H -0.0649 0.5726 0.3168
H9 H -0.1586 0.5804 0.1899
C11 C -0.09584(17) 0.1772(3) 0.22691(17)
H10 H -0.1671 0.2501 0.2238
H11 H -0.1221 0.0795 0.1706
C12 C -0.04910(17) 0.1002(2) 0.34646(16)
loop_
_geom_bond_atom_site_label_1
_geom_bond_atom_site_label_2
_geom_bond_site_symmetry_1
_geom_bond_site_symmetry_2
F1 C7 1_555 1_555
O1 H1 1_555 1_555
O2 C12 1_555 1_555
O3 H2 1_555 1_555
C1 H3 1_555 1_555
H4 C1 1_555 1_555
C2 C1 1_555 1_555
C3 C4 1_555 1_555
C4 C2 1_555 1_555
C5 C3 1_555 1_555
H5 C5 1_555 1_555
C6 O1 1_555 1_555
C7 C6 1_555 1_555
C8 C1 1_555 1_555
C9 C7 1_555 1_555
H6 C9 1_555 1_555
C10 C2 1_555 1_555
H7 C10 1_555 1_555
H8 C10 1_555 1_555
H9 C10 1_555 1_555
C11 C4 1_555 1_555
H10 C11 1_555 1_555
H11 C11 1_555 1_555
C12 O3 1_555 1_555
C3 C8 1_555 1_555
C5 C6 1_555 1_555
C8 C9 1_555 1_555
C11 C12 1_555 1_555

#END
