
#######################################################################
#
#                 Cambridge Crystallographic Data Centre
#                                CCDC 
#
#######################################################################
#
# If this CIF has been generated from an entry in the Cambridge 
# Structural Database, then it will include bibliographic, chemical, 
# crystal, experimental, refinement or atomic coordinate data resulting 
# from the CCDC's data processing and validation procedures.
#
#######################################################################

data_YEKRIS
_chemical_name_common            
'( )-(M,M)-2,5-bis(14-ethynylhexahelicen-11-yl)thiophene dichloromethane solvate'
_chemical_formula_moiety         'C60 H32 S1,0.5(C1 H2 Cl2)'
_chemical_name_systematic        
'2,5-bis(15-ethynylhexahelicen-2-yl)thiophene dichloromethane solvate'
_symmetry_cell_setting           orthorhombic
_symmetry_space_group_name_H-M   'C 2 2 21'
_symmetry_Int_Tables_number      20
_space_group_name_Hall           'C 2n 2'
loop_
_symmetry_equiv_pos_site_id
_symmetry_equiv_pos_as_xyz
1 x,y,z
2 -x,-y,1/2+z
3 -x,y,1/2-z
4 x,-y,-z
5 1/2+x,1/2+y,z
6 1/2-x,1/2-y,1/2+z
7 1/2-x,1/2+y,1/2-z
8 1/2+x,1/2-y,-z
_cell_length_a                   9.53920(10)
_cell_length_b                   17.3284(2)
_cell_length_c                   49.2332(5)
_cell_angle_alpha                90
_cell_angle_beta                 90
_cell_angle_gamma                90
_cell_volume                     8138.2
_exptl_crystal_colour            yellow
_exptl_crystal_description       plate
_cell_formula_units_Z            8
loop_
_atom_site_label
_atom_site_type_symbol
_atom_site_fract_x
_atom_site_fract_y
_atom_site_fract_z
Cl1 Cl 0.64189(13) 0.49936(6) 0.76185(2)
C1 C 0.5000 0.4449(3) 0.7500
H1 H 0.5325 0.4119 0.7354
H1B H 0.4675 0.4119 0.7646
Cl1B Cl 0.35811(13) 0.49936(6) 0.73815(2)
S1 S 0.0000 0.19693(6) 0.7500
C2 C 0.5220(3) 0.20895(19) 0.70734(6)
C3 C 0.2783(3) 0.36507(19) 0.65621(6)
C4 C 0.4090(4) 0.5659(2) 0.66905(7)
H3 H 0.3746 0.6161 0.6683
C5 C 0.7017(3) 0.3301(2) 0.69136(6)
C6 C 0.7941(3) 0.3935(2) 0.68777(7)
H4 H 0.8904 0.3854 0.6883
C7 C 0.1141(3) 0.26621(19) 0.73731(6)
C8 C 0.3658(3) 0.42606(19) 0.66733(6)
C9 C 0.5039(4) 0.41399(17) 0.67875(6)
C10 C 0.3304(3) 0.29131(19) 0.64934(6)
H5 H 0.4243 0.2802 0.6526
C11 C 0.4330(4) 0.1511(2) 0.71777(7)
H6 H 0.4661 0.1008 0.7192
C12 C 0.1369(3) 0.3813(2) 0.64936(7)
C13 C 0.2481(3) 0.24416(19) 0.72458(6)
C14 C 0.2464(4) 0.2356(2) 0.63802(7)
C15 C 0.5552(3) 0.34219(19) 0.69007(6)
C16 C 0.3295(3) 0.29951(19) 0.71192(6)
H7 H 0.2931 0.3488 0.7096
C17 C 0.5983(3) 0.47777(19) 0.67873(7)
C18 C 0.4664(3) 0.28358(18) 0.70240(6)
C19 C 0.7549(4) 0.2553(2) 0.69747(7)
H8 H 0.8512 0.2470 0.6972
C20 C 0.3157(3) 0.5027(2) 0.66510(7)
C21 C 0.6689(3) 0.1963(2) 0.70367(6)
H9 H 0.7053 0.1468 0.7056
C22 C 0.1718(4) 0.5168(2) 0.65810(7)
H10 H 0.1378 0.5671 0.6580
C23 C 0.0642(3) 0.3382(2) 0.74286(7)
H11 H 0.1105 0.3832 0.7377
C24 C 0.2986(3) 0.16773(19) 0.72582(7)
H12 H 0.2406 0.1285 0.7321
C25 C 0.7435(4) 0.4657(2) 0.68353(7)
H13 H 0.8044 0.5076 0.6838
C26 C 0.1029(4) 0.2503(2) 0.63337(7)
H14 H 0.0447 0.2116 0.6267
C27 C 0.3077(4) 0.1628(2) 0.62990(7)
C28 C 0.0507(4) 0.3221(2) 0.63877(7)
H15 H -0.0435 0.3323 0.6354
C29 C 0.0856(4) 0.4579(2) 0.65174(7)
H16 H -0.0092 0.4676 0.6489
C30 C 0.5468(4) 0.5540(2) 0.67381(7)
H17 H 0.6084 0.5955 0.6739
C31 C 0.3605(4) 0.1055(2) 0.62259(8)
H18 H 0.4025 0.0600 0.6168
C2B C -0.5220(3) 0.20895(19) 0.79266(6)
C3B C -0.2783(3) 0.36507(19) 0.84379(6)
C4B C -0.4090(4) 0.5659(2) 0.83095(7)
H3B H -0.3746 0.6161 0.8317
C5B C -0.7017(3) 0.3301(2) 0.80864(6)
C6B C -0.7941(3) 0.3935(2) 0.81223(7)
H4B H -0.8904 0.3854 0.8117
C7B C -0.1141(3) 0.26621(19) 0.76269(6)
C8B C -0.3658(3) 0.42606(19) 0.83267(6)
C9B C -0.5039(4) 0.41399(17) 0.82125(6)
C10B C -0.3304(3) 0.29131(19) 0.85066(6)
H5B H -0.4243 0.2802 0.8474
C11B C -0.4330(4) 0.1511(2) 0.78223(7)
H6B H -0.4661 0.1008 0.7808
C12B C -0.1369(3) 0.3813(2) 0.85064(7)
C13B C -0.2481(3) 0.24416(19) 0.77542(6)
C14B C -0.2464(4) 0.2356(2) 0.86198(7)
C15B C -0.5552(3) 0.34219(19) 0.80993(6)
C16B C -0.3295(3) 0.29951(19) 0.78808(6)
H7B H -0.2931 0.3488 0.7904
C17B C -0.5983(3) 0.47777(19) 0.82127(7)
C18B C -0.4664(3) 0.28358(18) 0.79760(6)
C19B C -0.7549(4) 0.2553(2) 0.80253(7)
H8B H -0.8512 0.2470 0.8028
C20B C -0.3157(3) 0.5027(2) 0.83490(7)
C21B C -0.6689(3) 0.1963(2) 0.79633(6)
H9B H -0.7053 0.1468 0.7944
C22B C -0.1718(4) 0.5168(2) 0.84190(7)
H10B H -0.1378 0.5671 0.8420
C23B C -0.0642(3) 0.3382(2) 0.75714(7)
H11B H -0.1105 0.3832 0.7623
C24B C -0.2986(3) 0.16773(19) 0.77418(7)
H12B H -0.2406 0.1285 0.7679
C25B C -0.7435(4) 0.4657(2) 0.81647(7)
H13B H -0.8044 0.5076 0.8162
C26B C -0.1029(4) 0.2503(2) 0.86663(7)
H14B H -0.0447 0.2116 0.8733
C27B C -0.3077(4) 0.1628(2) 0.87010(7)
C28B C -0.0507(4) 0.3221(2) 0.86123(7)
H15B H 0.0435 0.3323 0.8646
C29B C -0.0856(4) 0.4579(2) 0.84826(7)
H16B H 0.0092 0.4676 0.8511
C30B C -0.5468(4) 0.5540(2) 0.82619(7)
H17B H -0.6084 0.5955 0.8261
C31B C -0.3605(4) 0.1055(2) 0.87741(8)
H18B H -0.4025 0.0600 0.8832
S2 S 0.49168(13) 0.5000 0.5000
C32 C 0.3654(4) 0.4070(2) 0.58630(6)
C33 C 0.5823(4) 0.3562(2) 0.60547(7)
C34 C 0.2623(4) 0.2628(2) 0.55338(7)
C35 C 0.4118(4) 0.4826(2) 0.59268(7)
C36 C 0.4522(3) 0.3450(2) 0.59376(6)
H19 H 0.4211 0.2949 0.5907
C37 C 0.1751(3) 0.3240(2) 0.56388(7)
C38 C 0.0624(4) 0.1748(2) 0.55779(7)
H20 H 0.0273 0.1248 0.5584
C39 C 0.5745(4) 0.3572(2) 0.51986(6)
C40 C 0.6604(4) 0.2901(2) 0.61425(7)
C41 C 0.5476(3) 0.4933(2) 0.60353(7)
H21 H 0.5803 0.5432 0.6065
C42 C -0.0256(4) 0.2350(2) 0.56076(7)
H22 H -0.1219 0.2268 0.5606
C43 C 0.1311(4) 0.4589(2) 0.57644(7)
C44 C 0.3981(4) 0.2738(2) 0.54068(7)
C45 C 0.2262(3) 0.3965(2) 0.57473(7)
C46 C 0.4341(4) 0.1339(2) 0.54100(7)
H23 H 0.4934 0.0915 0.5394
C47 C 0.4440(4) 0.3463(2) 0.53154(7)
H24 H 0.3846 0.3886 0.5334
C48 C 0.1826(4) 0.5343(2) 0.58319(7)
H25 H 0.1213 0.5760 0.5829
C49 C 0.6649(4) 0.2933(2) 0.51695(7)
H26 H 0.7549 0.3002 0.5101
C50 C 0.6317(4) 0.4319(2) 0.60973(7)
H27 H 0.7211 0.4401 0.6167
C51 C 0.4864(4) 0.2092(2) 0.53566(7)
C52 C 0.6200(4) 0.2211(2) 0.52424(7)
H28 H 0.6790 0.1790 0.5216
C53 C 0.3173(4) 0.5459(2) 0.58986(7)
H29 H 0.3496 0.5959 0.5927
C54 C 0.0282(4) 0.3112(2) 0.56416(7)
C55 C -0.0144(4) 0.4454(2) 0.57231(7)
H30 H -0.0761 0.4869 0.5725
C56 C 0.7178(4) 0.2343(2) 0.62224(8)
H31 H 0.7631 0.1903 0.6285
C57 C 0.6172(4) 0.4333(2) 0.50987(7)
C58 C -0.0645(4) 0.3741(2) 0.56819(7)
H32 H -0.1608 0.3659 0.5680
C59 C 0.2080(4) 0.1867(2) 0.55373(7)
C60 C 0.2983(4) 0.1231(2) 0.54845(7)
H33 H 0.2637 0.0731 0.5501
C61 C 0.7483(4) 0.4626(2) 0.50562(7)
H34 H 0.8299 0.4356 0.5097
C32C C 0.3654(4) 0.5930(2) 0.41370(6)
C33C C 0.5823(4) 0.6438(2) 0.39453(7)
C34C C 0.2623(4) 0.7372(2) 0.44662(7)
C35C C 0.4118(4) 0.5174(2) 0.40732(7)
C36C C 0.4522(3) 0.6550(2) 0.40624(6)
H19C H 0.4211 0.7051 0.4093
C37C C 0.1751(3) 0.6760(2) 0.43612(7)
C38C C 0.0624(4) 0.8252(2) 0.44221(7)
H20C H 0.0273 0.8752 0.4416
C39C C 0.5745(4) 0.6428(2) 0.48014(6)
C40C C 0.6604(4) 0.7099(2) 0.38575(7)
C41C C 0.5476(3) 0.5067(2) 0.39647(7)
H21C H 0.5803 0.4568 0.3935
C42C C -0.0256(4) 0.7650(2) 0.43924(7)
H22C H -0.1219 0.7732 0.4394
C43C C 0.1311(4) 0.5411(2) 0.42356(7)
C44C C 0.3981(4) 0.7262(2) 0.45932(7)
C45C C 0.2262(3) 0.6035(2) 0.42527(7)
C46C C 0.4341(4) 0.8661(2) 0.45900(7)
H23C H 0.4934 0.9085 0.4606
C47C C 0.4440(4) 0.6537(2) 0.46846(7)
H24C H 0.3846 0.6114 0.4666
C48C C 0.1826(4) 0.4657(2) 0.41681(7)
H25C H 0.1213 0.4240 0.4171
C49C C 0.6649(4) 0.7067(2) 0.48305(7)
H26C H 0.7549 0.6998 0.4899
C50C C 0.6317(4) 0.5681(2) 0.39027(7)
H27C H 0.7211 0.5599 0.3833
C51C C 0.4864(4) 0.7908(2) 0.46434(7)
C52C C 0.6200(4) 0.7789(2) 0.47576(7)
H28C H 0.6790 0.8210 0.4784
C53C C 0.3173(4) 0.4541(2) 0.41014(7)
H29C H 0.3496 0.4041 0.4073
C54C C 0.0282(4) 0.6888(2) 0.43584(7)
C55C C -0.0144(4) 0.5546(2) 0.42769(7)
H30C H -0.0761 0.5131 0.4275
C56C C 0.7178(4) 0.7657(2) 0.37776(8)
H31C H 0.7631 0.8097 0.3715
C57C C 0.6172(4) 0.5667(2) 0.49013(7)
C58C C -0.0645(4) 0.6259(2) 0.43181(7)
H32C H -0.1608 0.6341 0.4320
C59C C 0.2080(4) 0.8133(2) 0.44627(7)
C60C C 0.2983(4) 0.8769(2) 0.45155(7)
H33C H 0.2637 0.9269 0.4499
C61C C 0.7483(4) 0.5374(2) 0.49438(7)
H34C H 0.8299 0.5644 0.4903
H2? H 0.5325 0.4118 0.7354
loop_
_geom_bond_atom_site_label_1
_geom_bond_atom_site_label_2
_geom_bond_site_symmetry_1
_geom_bond_site_symmetry_2
Cl1 C1 1_555 1_555
C1 H1 1_555 1_555
S1 C7 1_555 1_555
C2 C11 1_555 1_555
C3 C8 1_555 1_555
C4 H3 1_555 1_555
C5 C6 1_555 1_555
C6 H4 1_555 1_555
C7 C13 1_555 1_555
C8 C9 1_555 1_555
C9 C15 1_555 1_555
C10 C3 1_555 1_555
H5 C10 1_555 1_555
C11 H6 1_555 1_555
C12 C3 1_555 1_555
C13 C16 1_555 1_555
C14 C10 1_555 1_555
C15 C5 1_555 1_555
C16 H7 1_555 1_555
C17 C9 1_555 1_555
C18 C2 1_555 1_555
C19 C5 1_555 1_555
H8 C19 1_555 1_555
C20 C4 1_555 1_555
C21 C2 1_555 1_555
H9 C21 1_555 1_555
C22 C20 1_555 1_555
H10 C22 1_555 1_555
C23 C7 1_555 1_555
H11 C23 1_555 1_555
C24 C11 1_555 1_555
H12 C24 1_555 1_555
C25 C6 1_555 1_555
H13 C25 1_555 1_555
C26 C14 1_555 1_555
H14 C26 1_555 1_555
C27 C14 1_555 1_555
C28 C12 1_555 1_555
H15 C28 1_555 1_555
C29 C12 1_555 1_555
H16 C29 1_555 1_555
C30 C4 1_555 1_555
H17 C30 1_555 1_555
C31 C27 1_555 1_555
H18 C31 1_555 1_555
S2 C57 1_555 1_555
C32 C35 1_555 1_555
C33 C36 1_555 1_555
C34 C37 1_555 1_555
C35 C41 1_555 1_555
C36 C32 1_555 1_555
H19 C36 1_555 1_555
C37 C45 1_555 1_555
C38 H20 1_555 1_555
C39 C47 1_555 1_555
C40 C33 1_555 1_555
C41 H21 1_555 1_555
C42 C38 1_555 1_555
H22 C42 1_555 1_555
C43 C45 1_555 1_555
C44 C34 1_555 1_555
C45 C32 1_555 1_555
C46 H23 1_555 1_555
C47 C44 1_555 1_555
H24 C47 1_555 1_555
C48 C43 1_555 1_555
H25 C48 1_555 1_555
C49 C39 1_555 1_555
H26 C49 1_555 1_555
C50 C33 1_555 1_555
H27 C50 1_555 1_555
C51 C44 1_555 1_555
C52 C49 1_555 1_555
H28 C52 1_555 1_555
C53 C35 1_555 1_555
H29 C53 1_555 1_555
C54 C37 1_555 1_555
C55 C43 1_555 1_555
H30 C55 1_555 1_555
C56 C40 1_555 1_555
H31 C56 1_555 1_555
C57 C39 1_555 1_555
C58 C54 1_555 1_555
H32 C58 1_555 1_555
C59 C34 1_555 1_555
C60 C46 1_555 1_555
H33 C60 1_555 1_555
C61 C57 1_555 1_555
H34 C61 1_555 1_555
H1B C1 1_555 1_555
Cl1B C1 1_555 1_555
C2B C11B 1_555 1_555
C3B C8B 1_555 1_555
C4B H3B 1_555 1_555
C5B C6B 1_555 1_555
C6B H4B 1_555 1_555
C7B S1 1_555 1_555
C8B C9B 1_555 1_555
C9B C15B 1_555 1_555
C10B C3B 1_555 1_555
H5B C10B 1_555 1_555
C11B H6B 1_555 1_555
C12B C3B 1_555 1_555
C13B C7B 1_555 1_555
C14B C10B 1_555 1_555
C15B C5B 1_555 1_555
C16B C13B 1_555 1_555
H7B C16B 1_555 1_555
C17B C9B 1_555 1_555
C18B C2B 1_555 1_555
C19B C5B 1_555 1_555
H8B C19B 1_555 1_555
C20B C4B 1_555 1_555
C21B C2B 1_555 1_555
H9B C21B 1_555 1_555
C22B C20B 1_555 1_555
H10B C22B 1_555 1_555
C23B C23 1_555 1_555
H11B C23B 1_555 1_555
C24B C11B 1_555 1_555
H12B C24B 1_555 1_555
C25B C6B 1_555 1_555
H13B C25B 1_555 1_555
C26B C14B 1_555 1_555
H14B C26B 1_555 1_555
C27B C14B 1_555 1_555
C28B C12B 1_555 1_555
H15B C28B 1_555 1_555
C29B C12B 1_555 1_555
H16B C29B 1_555 1_555
C30B C4B 1_555 1_555
H17B C30B 1_555 1_555
C31B C27B 1_555 1_555
H18B C31B 1_555 1_555
C32C C35C 1_555 1_555
C33C C36C 1_555 1_555
C34C C37C 1_555 1_555
C35C C41C 1_555 1_555
C36C C32C 1_555 1_555
H19C C36C 1_555 1_555
C37C C45C 1_555 1_555
C38C H20C 1_555 1_555
C39C C47C 1_555 1_555
C40C C33C 1_555 1_555
C41C H21C 1_555 1_555
C42C C38C 1_555 1_555
H22C C42C 1_555 1_555
C43C C45C 1_555 1_555
C44C C34C 1_555 1_555
C45C C32C 1_555 1_555
C46C H23C 1_555 1_555
C47C C44C 1_555 1_555
H24C C47C 1_555 1_555
C48C C43C 1_555 1_555
H25C C48C 1_555 1_555
C49C C39C 1_555 1_555
H26C C49C 1_555 1_555
C50C C33C 1_555 1_555
H27C C50C 1_555 1_555
C51C C44C 1_555 1_555
C52C C49C 1_555 1_555
H28C C52C 1_555 1_555
C53C C35C 1_555 1_555
H29C C53C 1_555 1_555
C54C C37C 1_555 1_555
C55C C43C 1_555 1_555
H30C C55C 1_555 1_555
C56C C40C 1_555 1_555
H31C C56C 1_555 1_555
C57C S2 1_555 1_555
C58C C54C 1_555 1_555
H32C C58C 1_555 1_555
C59C C34C 1_555 1_555
C60C C46C 1_555 1_555
H33C C60C 1_555 1_555
C61C C61 1_555 1_555
H34C C61C 1_555 1_555
C8 C20 1_555 1_555
C13 C24 1_555 1_555
C15 C18 1_555 1_555
C16 C18 1_555 1_555
C17 C25 1_555 1_555
C17 C30 1_555 1_555
C19 C21 1_555 1_555
C22 C29 1_555 1_555
C26 C28 1_555 1_555
C38 C59 1_555 1_555
C41 C50 1_555 1_555
C42 C54 1_555 1_555
C46 C51 1_555 1_555
C48 C53 1_555 1_555
C51 C52 1_555 1_555
C55 C58 1_555 1_555
C59 C60 1_555 1_555
C7B C23B 1_555 1_555
C8B C20B 1_555 1_555
C13B C24B 1_555 1_555
C15B C18B 1_555 1_555
C16B C18B 1_555 1_555
C17B C25B 1_555 1_555
C17B C30B 1_555 1_555
C19B C21B 1_555 1_555
C22B C29B 1_555 1_555
C26B C28B 1_555 1_555
C38C C59C 1_555 1_555
C39C C57C 1_555 1_555
C41C C50C 1_555 1_555
C42C C54C 1_555 1_555
C46C C51C 1_555 1_555
C48C C53C 1_555 1_555
C51C C52C 1_555 1_555
C55C C58C 1_555 1_555
C57C C61C 1_555 1_555
C59C C60C 1_555 1_555

#END
