
#######################################################################
#
#                 Cambridge Crystallographic Data Centre
#                                CCDC 
#
#######################################################################
#
# If this CIF has been generated from an entry in the Cambridge 
# Structural Database, then it will include bibliographic, chemical, 
# crystal, experimental, refinement or atomic coordinate data resulting 
# from the CCDC's data processing and validation procedures.
#
#######################################################################

data_YEKSOY
_chemical_formula_moiety         'C24 H25 N1 O2'
_chemical_name_systematic        
6-(Diphenylmethyl)-4,9-dimethyl-3,5,6,7-tetrahydrofuro[3,4-d]azocin-8(1H)-one
_symmetry_cell_setting           monoclinic
_symmetry_space_group_name_H-M   'P 21/a'
_symmetry_Int_Tables_number      14
_space_group_name_Hall           '-P 2yab'
loop_
_symmetry_equiv_pos_site_id
_symmetry_equiv_pos_as_xyz
1 x,y,z
2 1/2-x,1/2+y,-z
3 -x,-y,-z
4 1/2+x,1/2-y,z
_cell_length_a                   8.77710(10)
_cell_length_b                   17.2725(5)
_cell_length_c                   12.5333(3)
_cell_angle_alpha                90
_cell_angle_beta                 92.7903(16)
_cell_angle_gamma                90
_cell_volume                     1897.83
_exptl_crystal_colour            yellow
_exptl_crystal_description       prism
_cell_formula_units_Z            4
loop_
_atom_site_label
_atom_site_type_symbol
_atom_site_fract_x
_atom_site_fract_y
_atom_site_fract_z
O1 O 0.76005(15) 0.00084(7) 0.03898(10)
O2 O 0.71068(13) 0.28742(7) -0.20538(9)
N1 N 0.69806(14) 0.14612(8) 0.18881(10)
C1 C 0.72795(18) 0.06889(9) 0.02112(13)
C2 C 0.78809(17) 0.10751(9) -0.07408(12)
C3 C 0.78064(16) 0.18471(9) -0.09254(12)
C4 C 0.74701(16) 0.25150(9) -0.02500(12)
C5 C 0.76680(16) 0.25895(9) 0.08177(13)
C6 C 0.82499(17) 0.19413(10) 0.15232(13)
C7 C 0.61997(17) 0.11025(10) 0.09368(13)
C8 C 0.8071(2) 0.22046(10) -0.20074(13)
C9 C 0.7129(2) 0.31883(10) -0.09965(13)
C10 C 0.75458(17) 0.08837(9) 0.26801(12)
C11 C 0.62410(17) 0.03794(9) 0.30472(12)
C12 C 0.6344(2) -0.04214(10) 0.29648(14)
C13 C 0.5208(2) -0.08944(12) 0.33376(15)
C14 C 0.3958(2) -0.05725(13) 0.37964(14)
C15 C 0.3839(2) 0.02228(13) 0.38693(14)
C16 C 0.49706(18) 0.06970(11) 0.34982(13)
C17 C 0.83368(17) 0.12699(9) 0.36520(12)
C18 C 0.95797(19) 0.09045(11) 0.41557(14)
C19 C 1.0292(2) 0.12163(12) 0.50692(14)
C20 C 0.97939(18) 0.19059(11) 0.54842(14)
C21 C 0.85599(19) 0.22817(11) 0.49891(14)
C22 C 0.78246(18) 0.19642(10) 0.40826(13)
C23 C 0.8565(2) 0.05273(11) -0.15225(15)
C24 C 0.7380(2) 0.33397(10) 0.13817(15)
H1 H 0.8783(18) 0.2164(10) 0.2173(13)
H2 H 0.8997(17) 0.1608(9) 0.1132(12)
H3 H 0.5473(18) 0.0713(10) 0.1187(13)
H4 H 0.5624(18) 0.1529(10) 0.0526(13)
H5 H 0.919(2) 0.2368(10) -0.2054(13)
H6 H 0.7731(19) 0.1862(11) -0.2629(14)
H7 H 0.797(2) 0.3605(11) -0.0912(15)
H8 H 0.610(2) 0.3429(10) -0.0897(15)
H9 H 0.8342(18) 0.0515(10) 0.2354(13)
H10 H 0.722(2) -0.0654(11) 0.2646(15)
H11 H 0.529(2) -0.1454(14) 0.3312(18)
H12 H 0.315(2) -0.0905(12) 0.4100(16)
H13 H 0.301(2) 0.0455(12) 0.4161(16)
H14 H 0.4872(18) 0.1263(11) 0.3572(13)
H15 H 0.993(2) 0.0401(12) 0.3844(15)
H16 H 1.117(2) 0.0933(12) 0.5404(16)
H17 H 1.031(2) 0.2116(11) 0.6129(16)
H18 H 0.820(2) 0.2771(12) 0.5279(15)
H19 H 0.695(2) 0.2238(11) 0.3728(15)
H20 H 0.943(2) 0.0244(13) -0.1164(17)
H21 H 0.778(2) 0.0132(13) -0.1781(17)
H22 H 0.896(2) 0.0806(12) -0.2156(17)
H23 H 0.668(2) 0.3228(12) 0.1975(17)
H24 H 0.699(2) 0.3762(12) 0.0870(17)
H25 H 0.831(2) 0.3546(11) 0.1773(16)
loop_
_geom_bond_atom_site_label_1
_geom_bond_atom_site_label_2
_geom_bond_site_symmetry_1
_geom_bond_site_symmetry_2
O1 C1 1_555 1_555
O2 C8 1_555 1_555
N1 C6 1_555 1_555
C1 C2 1_555 1_555
C2 C3 1_555 1_555
C3 C4 1_555 1_555
C4 C5 1_555 1_555
C5 C6 1_555 1_555
C6 H1 1_555 1_555
C7 N1 1_555 1_555
C8 C3 1_555 1_555
C9 O2 1_555 1_555
C10 N1 1_555 1_555
C11 C10 1_555 1_555
C12 C11 1_555 1_555
C13 C12 1_555 1_555
C14 C13 1_555 1_555
C15 C14 1_555 1_555
C16 C11 1_555 1_555
C17 C10 1_555 1_555
C18 C17 1_555 1_555
C19 C18 1_555 1_555
C20 C19 1_555 1_555
C21 C20 1_555 1_555
C22 C17 1_555 1_555
C23 C2 1_555 1_555
C24 C5 1_555 1_555
H2 C6 1_555 1_555
H3 C7 1_555 1_555
H4 C7 1_555 1_555
H5 C8 1_555 1_555
H6 C8 1_555 1_555
H7 C9 1_555 1_555
H8 C9 1_555 1_555
H9 C10 1_555 1_555
H10 C12 1_555 1_555
H11 C13 1_555 1_555
H12 C14 1_555 1_555
H13 C15 1_555 1_555
H14 C16 1_555 1_555
H15 C18 1_555 1_555
H16 C19 1_555 1_555
H17 C20 1_555 1_555
H18 C21 1_555 1_555
H19 C22 1_555 1_555
H20 C23 1_555 1_555
H21 C23 1_555 1_555
H22 C23 1_555 1_555
H23 C24 1_555 1_555
H24 C24 1_555 1_555
H25 C24 1_555 1_555
C1 C7 1_555 1_555
C4 C9 1_555 1_555
C15 C16 1_555 1_555
C21 C22 1_555 1_555

#END
