
#######################################################################
#
#                 Cambridge Crystallographic Data Centre
#                                CCDC 
#
#######################################################################
#
# If this CIF has been generated from an entry in the Cambridge 
# Structural Database, then it will include bibliographic, chemical, 
# crystal, experimental, refinement or atomic coordinate data resulting 
# from the CCDC's data processing and validation procedures.
#
#######################################################################

data_YEKTEO
_chemical_name_common            
'(methyl cholan-24-oate-3,12-diyl) benzene-1,4-diylbis(3-methyl-1H-imidazol-3-ium-1-ylacetate) dibromide sesquihydrate'
_chemical_formula_moiety         'C43 H58 N4 O6 2+,2(Br1 1-),1.5(H2 O1)'
_chemical_name_systematic        
"3\a,12\a-O,O'-(3,3'-(benzene-1,4-dimethylene)bis(1-imidazole)diacetyl)deoxycholate bis(hydrogen bromide) sesquihydrate"
_symmetry_cell_setting           monoclinic
_symmetry_space_group_name_H-M   'C 2'
_symmetry_Int_Tables_number      5
_space_group_name_Hall           'C 2y'
loop_
_symmetry_equiv_pos_site_id
_symmetry_equiv_pos_as_xyz
1 x,y,z
2 -x,y,-z
3 1/2+x,1/2+y,z
4 1/2-x,1/2+y,-z
_cell_length_a                   27.172(5)
_cell_length_b                   8.5342(16)
_cell_length_c                   23.688(4)
_cell_angle_alpha                90
_cell_angle_beta                 121.809(3)
_cell_angle_gamma                90
_cell_volume                     4668.04
_exptl_crystal_colour            colorless
_exptl_crystal_description       block
_chemical_melting_point          'decomposes at 218 deg.C'
_cell_formula_units_Z            4
_exptl_crystal_recrystallization_method chloroform/methanol
loop_
_atom_site_label
_atom_site_type_symbol
_atom_site_fract_x
_atom_site_fract_y
_atom_site_fract_z
Br1 Br 0.90603(3) 0.31223(8) 0.62742(5)
Br2 Br 0.67321(4) 0.96476(11) 0.63907(5)
O1 O 0.1091(3) 0.6113(7) 0.7880(4)
O2 O 0.12087(17) 0.3531(5) 0.7932(2)
O3 O -0.1569(2) 0.3252(10) 0.7951(3)
O4 O -0.10156(18) 0.1523(6) 0.7827(2)
O5 O 0.3497(4) 0.159(2) 0.7196(5)
O6 O 0.4358(3) 0.2015(10) 0.8033(4)
N1 N -0.2655(2) 0.5473(7) 0.5977(3)
N2 N -0.23037(19) 0.3386(7) 0.6556(3)
N3 N -0.0215(3) 0.7875(9) 0.5955(5)
N4 N 0.0367(3) 0.6029(9) 0.6530(4)
C1 C -0.2763(3) 0.6791(10) 0.5530(5)
H1 H -0.2896 0.7681 0.5669
H2 H -0.3070 0.6507 0.5084
C2 C -0.2235(3) 0.7270(8) 0.5515(4)
C3 C -0.2123(4) 0.6661(11) 0.5069(4)
H3 H -0.2371 0.5912 0.4769
C4 C -0.1656(6) 0.7125(15) 0.5053(5)
H4 H -0.1595 0.6724 0.4729
C5 C -0.1257(4) 0.8214(16) 0.5523(8)
C6 C -0.1376(5) 0.8778(11) 0.5954(8)
H5 H -0.1122 0.9493 0.6270
C7 C -0.1860(4) 0.8350(11) 0.5954(5)
H6 H -0.1934 0.8803 0.6259
C8 C -0.0749(5) 0.8787(15) 0.5488(8)
H7 H -0.0833 0.8673 0.5038
H8 H -0.0684 0.9889 0.5604
C9 C -0.0172(3) 0.6510(10) 0.6217(5)
H9 H -0.0479 0.5953 0.6188
C10 C 0.0675(5) 0.7187(16) 0.6448(9)
H10 H 0.1073 0.7207 0.6628
C11 C 0.0305(5) 0.8246(18) 0.6072(9)
H11 H 0.0390 0.9130 0.5910
C12 C 0.0600(3) 0.4605(10) 0.6898(4)
H12 H 0.0808 0.4057 0.6729
H13 H 0.0282 0.3939 0.6826
C13 C 0.0989(3) 0.4852(10) 0.7612(5)
C14 C -0.2247(3) 0.4399(9) 0.6191(3)
H14 H -0.1958 0.4374 0.6092
C15 C -0.2985(3) 0.5114(9) 0.6246(4)
H15 H -0.3300 0.5683 0.6190
C16 C -0.2773(3) 0.3819(11) 0.6596(4)
H16 H -0.2914 0.3295 0.6826
C17 C -0.1926(3) 0.2053(8) 0.6875(3)
H17 H -0.1715 0.1827 0.6658
H18 H -0.2156 0.1140 0.6831
C18 C -0.1493(3) 0.2397(10) 0.7619(4)
C19 C -0.0523(3) 0.1794(12) 0.8504(4)
H19 H -0.0656 0.1822 0.8815
C20 C -0.0130(3) 0.0413(10) 0.8654(4)
H20 H -0.0043 0.0320 0.8307
H21 H -0.0332 -0.0531 0.8646
C21 C 0.0441(3) 0.0524(14) 0.9328(4)
H22 H 0.0339 0.0507 0.9668
C22 C 0.0760(3) 0.2077(14) 0.9417(4)
C23 C 0.0338(3) 0.3390(14) 0.9250(4)
H23 H 0.0528 0.4373 0.9278
H24 H 0.0230 0.3417 0.9581
C24 C -0.0227(3) 0.3257(12) 0.8544(4)
H25 H -0.0480 0.4139 0.8469
H26 H -0.0129 0.3274 0.8205
C25 C 0.1233(4) 0.2294(17) 1.0165(4)
H27 H 0.1076 0.2008 1.0432
H28 H 0.1354 0.3370 1.0247
H29 H 0.1559 0.1638 1.0278
C26 C 0.0810(3) -0.0896(13) 0.9447(5)
H30 H 0.0574 -0.1829 0.9346
H31 H 0.1114 -0.0938 0.9913
C27 C 0.1084(3) -0.0890(10) 0.9022(4)
H32 H 0.1340 -0.1784 0.9138
H33 H 0.0782 -0.0978 0.8556
C28 C 0.1422(3) 0.0603(10) 0.9133(4)
H34 H 0.1743 0.0631 0.9598
C29 C 0.1035(2) 0.2061(9) 0.9000(3)
H35 H 0.0712 0.1960 0.8538
C30 C 0.1670(2) 0.0649(8) 0.8693(3)
H36 H 0.1342 0.0681 0.8233
C31 C 0.2039(2) 0.2133(8) 0.8804(3)
C32 C 0.1649(3) 0.3539(9) 0.8642(3)
H37 H 0.1883 0.4492 0.8745
C33 C 0.1334(3) 0.3582(9) 0.9028(3)
H38 H 0.1614 0.3831 0.9489
H39 H 0.1049 0.4415 0.8849
C34 C 0.2549(3) 0.2293(11) 0.9528(3)
H40 H 0.2702 0.3337 0.9601
H41 H 0.2846 0.1556 0.9609
H42 H 0.2416 0.2085 0.9824
C35 C 0.2068(3) -0.0679(10) 0.8739(4)
H43 H 0.2338 -0.0971 0.9198
H44 H 0.1845 -0.1595 0.8496
C36 C 0.2385(3) 0.0003(9) 0.8425(4)
H45 H 0.2243 -0.0470 0.7994
H46 H 0.2796 -0.0215 0.8704
C37 C 0.2281(3) 0.1815(9) 0.8349(3)
H47 H 0.1964 0.2007 0.7891
C38 C 0.2802(3) 0.2720(9) 0.8451(3)
H48 H 0.3124 0.2525 0.8906
C39 C 0.2690(4) 0.4486(12) 0.8373(4)
H49 H 0.2364 0.4704 0.7936
H50 H 0.3026 0.5016 0.8433
H51 H 0.2609 0.4846 0.8700
C40 C 0.2990(3) 0.2162(12) 0.7973(4)
H52 H 0.2912 0.1050 0.7890
H53 H 0.2762 0.2705 0.7552
C41 C 0.3627(3) 0.2457(13) 0.8248(5)
H54 H 0.3712 0.3557 0.8361
H55 H 0.3857 0.1850 0.8651
C42 C 0.3787(5) 0.2018(16) 0.7757(7)
C43 C 0.4594(6) 0.1737(18) 0.7601(7)
H56 H 0.4305 0.1235 0.7198
H57 H 0.4930 0.1078 0.7828
H58 H 0.4699 0.2721 0.7496
H59 H 0.9001 0.3980 0.4662
H60 H 0.9114 0.2420 0.4912
O7 O 0.9281(5) 0.333(3) 0.5072(6)
O8 O 0.0000 0.1200(17) 0.5000
loop_
_geom_bond_atom_site_label_1
_geom_bond_atom_site_label_2
_geom_bond_site_symmetry_1
_geom_bond_site_symmetry_2
O1 C13 1_555 1_555
O2 C13 1_555 1_555
O3 C18 1_555 1_555
O4 C18 1_555 1_555
O5 C42 1_555 1_555
O6 C42 1_555 1_555
N1 C1 1_555 1_555
N2 C14 1_555 1_555
N3 C8 1_555 1_555
N4 C9 1_555 1_555
C1 H1 1_555 1_555
H2 C1 1_555 1_555
C2 C1 1_555 1_555
C3 C2 1_555 1_555
H3 C3 1_555 1_555
C4 C3 1_555 1_555
H4 C4 1_555 1_555
C5 C4 1_555 1_555
C6 C5 1_555 1_555
H5 C6 1_555 1_555
C7 C2 1_555 1_555
H6 C7 1_555 1_555
C8 C5 1_555 1_555
H7 C8 1_555 1_555
H8 C8 1_555 1_555
C9 N3 1_555 1_555
H9 C9 1_555 1_555
C10 N4 1_555 1_555
H10 C10 1_555 1_555
C11 N3 1_555 1_555
H11 C11 1_555 1_555
C12 N4 1_555 1_555
H12 C12 1_555 1_555
H13 C12 1_555 1_555
C13 C12 1_555 1_555
C14 N1 1_555 1_555
H14 C14 1_555 1_555
C15 N1 1_555 1_555
H15 C15 1_555 1_555
C16 N2 1_555 1_555
H16 C16 1_555 1_555
C17 N2 1_555 1_555
H17 C17 1_555 1_555
H18 C17 1_555 1_555
C18 C17 1_555 1_555
C19 O4 1_555 1_555
H19 C19 1_555 1_555
C20 C19 1_555 1_555
H20 C20 1_555 1_555
H21 C20 1_555 1_555
C21 C20 1_555 1_555
H22 C21 1_555 1_555
C22 C21 1_555 1_555
C23 C22 1_555 1_555
H23 C23 1_555 1_555
H24 C23 1_555 1_555
C24 C19 1_555 1_555
H25 C24 1_555 1_555
H26 C24 1_555 1_555
C25 C22 1_555 1_555
H27 C25 1_555 1_555
H28 C25 1_555 1_555
H29 C25 1_555 1_555
C26 C21 1_555 1_555
H30 C26 1_555 1_555
H31 C26 1_555 1_555
C27 C26 1_555 1_555
H32 C27 1_555 1_555
H33 C27 1_555 1_555
C28 C27 1_555 1_555
H34 C28 1_555 1_555
C29 C22 1_555 1_555
H35 C29 1_555 1_555
C30 C28 1_555 1_555
H36 C30 1_555 1_555
C31 C30 1_555 1_555
C32 O2 1_555 1_555
H37 C32 1_555 1_555
C33 C29 1_555 1_555
H38 C33 1_555 1_555
H39 C33 1_555 1_555
C34 C31 1_555 1_555
H40 C34 1_555 1_555
H41 C34 1_555 1_555
H42 C34 1_555 1_555
C35 C30 1_555 1_555
H43 C35 1_555 1_555
H44 C35 1_555 1_555
C36 C35 1_555 1_555
H45 C36 1_555 1_555
H46 C36 1_555 1_555
C37 C31 1_555 1_555
H47 C37 1_555 1_555
C38 C37 1_555 1_555
H48 C38 1_555 1_555
C39 C38 1_555 1_555
H49 C39 1_555 1_555
H50 C39 1_555 1_555
H51 C39 1_555 1_555
C40 C38 1_555 1_555
H52 C40 1_555 1_555
H53 C40 1_555 1_555
C41 C40 1_555 1_555
H54 C41 1_555 1_555
H55 C41 1_555 1_555
C42 C41 1_555 1_555
C43 O6 1_555 1_555
H56 C43 1_555 1_555
H57 C43 1_555 1_555
H58 C43 1_555 1_555
H59 O7 1_555 1_555
H60 O7 1_555 1_555
C6 C7 1_555 1_555
C10 C11 1_555 1_555
C15 C16 1_555 1_555
C23 C24 1_555 1_555
C28 C29 1_555 1_555
C31 C32 1_555 1_555
C32 C33 1_555 1_555
C36 C37 1_555 1_555

#END
