
#######################################################################
#
#                 Cambridge Crystallographic Data Centre
#                                CCDC 
#
#######################################################################
#
# If this CIF has been generated from an entry in the Cambridge 
# Structural Database, then it will include bibliographic, chemical, 
# crystal, experimental, refinement or atomic coordinate data resulting 
# from the CCDC's data processing and validation procedures.
#
#######################################################################

data_YEKWOB
_chemical_compound_source        'fronds of Dicranopteris dichotoma'
_chemical_formula_moiety         'C23 H26 O13,4(H2 O1)'
_chemical_name_systematic        'dichotomain A tetrahydrate'
_chemical_properties_biological  
'no activity against the A549 and C8166 cell lines or HIV'
_symmetry_cell_setting           monoclinic
_symmetry_space_group_name_H-M   'P 21'
_symmetry_Int_Tables_number      4
_space_group_name_Hall           'P 2yb'
loop_
_symmetry_equiv_pos_site_id
_symmetry_equiv_pos_as_xyz
1 x,y,z
2 -x,1/2+y,-z
_cell_length_a                   11.594(2)
_cell_length_b                   9.7400(19)
_cell_length_c                   13.117(3)
_cell_angle_alpha                90
_cell_angle_beta                 111.10(3)
_cell_angle_gamma                90
_cell_volume                     1381.93
_exptl_crystal_colour            colorless
_exptl_crystal_description       sheet
_chemical_melting_point          '170-171 deg.C'
_cell_formula_units_Z            2
loop_
_atom_site_label
_atom_site_type_symbol
_atom_site_fract_x
_atom_site_fract_y
_atom_site_fract_z
O1 O 0.2506(4) 0.4243(6) 0.5870(4)
O2 O 0.3246(4) 0.2840(7) 0.8039(4)
O3 O 0.1363(5) 0.2758(7) 0.8112(4)
O4 O 0.0495(4) 0.2939(6) 0.5788(4)
O5 O -0.1513(5) 0.2492(7) 0.5250(5)
O6 O 0.4555(6) -0.2763(9) 0.9592(6)
H1 H 0.5007 -0.2313 1.0111
O7 O 0.5732(5) 0.3937(7) 0.7297(5)
H2 H 0.6165 0.4600 0.7580
O8 O 0.3079(4) 0.2125(6) 0.5339(4)
O9 O 0.1253(4) 0.1644(6) 0.3969(4)
O10 O 0.4190(5) 0.2655(8) 0.3762(5)
H3 H 0.4589 0.2347 0.3410
O11 O 0.2999(6) 0.1220(8) 0.1748(5)
H4 H 0.3354 0.0541 0.2086
O12 O 0.1202(6) -0.0196(7) 0.2186(5)
O13 O 0.0237(11) -0.0464(12) 0.0366(7)
C1 C 0.2713(6) 0.2850(8) 0.6118(6)
C2 C 0.3818(6) 0.2795(10) 0.7209(6)
H5 H 0.4349 0.1990 0.7275
C3 C 0.4497(7) 0.4168(9) 0.7258(7)
H6 H 0.4513 0.4696 0.7899
C4 C 0.3696(8) 0.4911(11) 0.6203(8)
H7 H 0.3621 0.5879 0.6342
H8 H 0.4055 0.4822 0.5643
C5 C 0.1636(6) 0.2257(8) 0.6392(6)
C6 C 0.2017(7) 0.2665(9) 0.7591(6)
C7 C -0.0475(6) 0.2086(10) 0.5648(6)
C8 C 0.0001(7) 0.0663(9) 0.6053(7)
H9 H -0.0408 -0.0022 0.5506
H10 H -0.0150 0.0451 0.6717
C9 C 0.1390(6) 0.0683(8) 0.6275(5)
H11 H 0.1504 0.0387 0.5603
C10 C 0.2187(7) -0.0201(8) 0.7176(6)
C11 C 0.1993(8) -0.0425(9) 0.8152(7)
H12 H 0.1323 -0.0008 0.8258
C12 C 0.2777(8) -0.1259(11) 0.8973(7)
H13 H 0.2630 -0.1390 0.9618
C13 C 0.3785(7) -0.1898(10) 0.8825(7)
C14 C 0.4004(8) -0.1692(10) 0.7865(7)
H14 H 0.4671 -0.2118 0.7762
C15 C 0.3213(7) -0.0835(9) 0.7046(6)
H15 H 0.3373 -0.0687 0.6409
C16 C 0.2368(7) 0.2396(9) 0.4225(6)
H16 H 0.2207 0.3381 0.4096
C17 C 0.3119(7) 0.1838(9) 0.3576(6)
H17 H 0.3362 0.0887 0.3792
C18 C 0.2356(8) 0.1900(10) 0.2351(6)
H18 H 0.2263 0.2868 0.2132
C19 C 0.1059(8) 0.1293(10) 0.2073(6)
H19 H 0.0546 0.1526 0.1319
C20 C 0.0446(7) 0.1820(9) 0.2852(6)
H20 H 0.0286 0.2804 0.2717
C21 C -0.0760(8) 0.1126(11) 0.2717(7)
H21 H -0.1084 0.1494 0.3238
H22 H -0.0625 0.0157 0.2836
H23 H -0.1339 0.1283 0.1990
C22 C 0.0784(10) -0.0947(13) 0.1246(9)
C23 C 0.1143(10) -0.2411(13) 0.1467(10)
H24 H 0.0834 -0.2922 0.0796
H25 H 0.0798 -0.2776 0.1975
H26 H 0.2027 -0.2483 0.1772
O14 O 0.3098(7) 0.3039(10) 0.0277(6)
H30 H 0.250(9) 0.30(2) -0.030(7)
H33 H 0.32(2) 0.231(13) 0.061(16)
O15 O 0.6209(6) 0.2539(9) 0.5652(6)
H28 H 0.673(13) 0.27(3) 0.539(15)
H31 H 0.617(13) 0.314(11) 0.608(9)
O16 O 0.3500(10) -0.4107(10) 1.0786(8)
H27 H 0.348(10) -0.431(12) 1.138(4)
H32 H 0.394(13) -0.431(19) 1.044(12)
O17 O 0.3814(13) 0.5357(10) 0.2963(8)
H29 H 0.327(19) 0.57(3) 0.32(2)
H34 H 0.42(4) 0.48(5) 0.346(17)
loop_
_geom_bond_atom_site_label_1
_geom_bond_atom_site_label_2
_geom_bond_site_symmetry_1
_geom_bond_site_symmetry_2
O1 C1 1_555 1_555
O2 C2 1_555 1_555
O3 C6 1_555 1_555
O4 C5 1_555 1_555
O5 C7 1_555 1_555
O6 H1 1_555 1_555
O7 H2 1_555 1_555
O8 C1 1_555 1_555
O9 C16 1_555 1_555
O10 H3 1_555 1_555
O11 H4 1_555 1_555
O12 C19 1_555 1_555
O13 C22 1_555 1_555
C1 C2 1_555 1_555
C2 H5 1_555 1_555
C3 O7 1_555 1_555
H6 C3 1_555 1_555
C4 O1 1_555 1_555
H7 C4 1_555 1_555
H8 C4 1_555 1_555
C5 C1 1_555 1_555
C6 O2 1_555 1_555
C7 O4 1_555 1_555
C8 C7 1_555 1_555
H9 C8 1_555 1_555
H10 C8 1_555 1_555
C9 C5 1_555 1_555
H11 C9 1_555 1_555
C10 C9 1_555 1_555
C11 C10 1_555 1_555
H12 C11 1_555 1_555
C12 C11 1_555 1_555
H13 C12 1_555 1_555
C13 O6 1_555 1_555
C14 C13 1_555 1_555
H14 C14 1_555 1_555
C15 C10 1_555 1_555
H15 C15 1_555 1_555
C16 O8 1_555 1_555
H16 C16 1_555 1_555
C17 O10 1_555 1_555
H17 C17 1_555 1_555
C18 O11 1_555 1_555
H18 C18 1_555 1_555
C19 C18 1_555 1_555
H19 C19 1_555 1_555
C20 O9 1_555 1_555
H20 C20 1_555 1_555
C21 C20 1_555 1_555
H21 C21 1_555 1_555
H22 C21 1_555 1_555
H23 C21 1_555 1_555
C22 O12 1_555 1_555
C23 C22 1_555 1_555
H24 C23 1_555 1_555
H25 C23 1_555 1_555
H26 C23 1_555 1_555
O14 H30 1_555 1_555
O15 H28 1_555 1_555
O16 H27 1_555 1_555
O17 H29 1_555 1_555
H31 O15 1_555 1_555
H32 O16 1_555 1_555
H33 O14 1_555 1_555
H34 O17 1_555 1_555
C2 C3 1_555 1_555
C3 C4 1_555 1_555
C5 C6 1_555 1_555
C8 C9 1_555 1_555
C12 C13 1_555 1_555
C14 C15 1_555 1_555
C16 C17 1_555 1_555
C17 C18 1_555 1_555
C19 C20 1_555 1_555

#END
