
#######################################################################
#
#                 Cambridge Crystallographic Data Centre
#                                CCDC 
#
#######################################################################
#
# If this CIF has been generated from an entry in the Cambridge 
# Structural Database, then it will include bibliographic, chemical, 
# crystal, experimental, refinement or atomic coordinate data resulting 
# from the CCDC's data processing and validation procedures.
#
#######################################################################

data_YEKYET
_chemical_formula_moiety         'C15 H29 B10 N1'
_chemical_name_systematic        
1-(2,6-Diisopropylphenyliminomethyl)-1,2-dicarba-closo-dodecaborane
_symmetry_cell_setting           triclinic
_symmetry_space_group_name_H-M   'P -1'
_symmetry_Int_Tables_number      2
_space_group_name_Hall           '-P 1'
loop_
_symmetry_equiv_pos_site_id
_symmetry_equiv_pos_as_xyz
1 x,y,z
2 -x,-y,-z
_cell_length_a                   10.2351(14)
_cell_length_b                   10.9324(15)
_cell_length_c                   10.9999(15)
_cell_angle_alpha                114.942(2)
_cell_angle_beta                 100.506(2)
_cell_angle_gamma                103.881(2)
_cell_volume                     1025.71
_exptl_crystal_colour            colorless
_exptl_crystal_description       block
_chemical_melting_point          116-118deg.C
_cell_formula_units_Z            2
_exptl_crystal_recrystallization_method dichloromethane/hexane
loop_
_atom_site_label
_atom_site_type_symbol
_atom_site_fract_x
_atom_site_fract_y
_atom_site_fract_z
N1 N 0.58884(19) 0.86741(18) 0.06023(18)
B1 B 0.6017(3) 1.0862(3) 0.3878(3)
H1 H 0.4866 1.0277 0.3528
B2 B 0.7279(4) 1.0353(3) 0.4675(3)
H2 H 0.6946 0.9427 0.4855
B3 B 0.8817(4) 1.0757(4) 0.4181(3)
H3 H 0.9485 1.0088 0.4039
B4 B 0.8517(3) 1.1519(3) 0.3079(3)
H4 H 0.8970 1.1351 0.2213
B5 B 0.6750(4) 1.2750(3) 0.4564(3)
H5 H 0.6066 1.3402 0.4667
B6 B 0.7059(4) 1.1987(3) 0.5668(3)
H6 H 0.6584 1.2148 0.6519
B7 B 0.8786(4) 1.1914(4) 0.5858(3)
H7 H 0.9445 1.2017 0.6830
B8 B 0.9538(4) 1.2638(4) 0.4870(3)
H8 H 1.0686 1.3219 0.5192
B9 B 0.8275(4) 1.3155(3) 0.4080(3)
H9 H 0.8573 1.4067 0.3873
B10 B 0.8467(4) 1.3399(3) 0.5810(3)
H10 H 0.8916 1.4475 0.6754
C1 C 0.7174(2) 1.0233(2) 0.3072(2)
C2 C 0.6880(3) 1.1592(2) 0.3022(2)
H11 H 0.6224 1.1454 0.2030
C3 C 0.6548(3) 0.8802(2) 0.1747(2)
H12 H 0.6652 0.7992 0.1777
C4 C 0.5353(2) 0.7271(2) -0.0628(2)
C5 C 0.4080(2) 0.6243(2) -0.0852(2)
C6 C 0.3605(3) 0.4921(3) -0.2084(3)
H13 H 0.2762 0.4213 -0.2275
C7 C 0.4355(3) 0.4634(3) -0.3030(3)
H14 H 0.4026 0.3733 -0.3836
C8 C 0.5580(3) 0.5673(3) -0.2788(3)
H15 H 0.6071 0.5468 -0.3439
C9 C 0.6107(3) 0.7026(2) -0.1589(2)
C10 C 0.3241(3) 0.6583(2) 0.0181(2)
H16 H 0.3938 0.7132 0.1135
C11 C 0.2472(4) 0.7555(4) 0.0030(3)
H17 H 0.1737 0.7039 -0.0873
H18 H 0.3133 0.8387 0.0095
H19 H 0.2056 0.7858 0.0771
C12 C 0.2256(4) 0.5247(3) 0.0096(3)
H20 H 0.1825 0.5530 0.0827
H21 H 0.2790 0.4673 0.0219
H22 H 0.1528 0.4694 -0.0813
C13 C 0.7479(3) 0.8167(3) -0.1309(2)
H23 H 0.7474 0.9105 -0.0640
C14 C 0.8760(3) 0.7945(3) -0.0615(3)
H24 H 0.8689 0.7970 0.0253
H25 H 0.9612 0.8698 -0.0416
H26 H 0.8788 0.7027 -0.1242
C15 C 0.7640(3) 0.8238(4) -0.2643(3)
H27 H 0.8456 0.9061 -0.2379
H28 H 0.6805 0.8323 -0.3110
H29 H 0.7761 0.7375 -0.3273
loop_
_geom_bond_atom_site_label_1
_geom_bond_atom_site_label_2
_geom_bond_site_symmetry_1
_geom_bond_site_symmetry_2
N1 C3 1_555 1_555
B1 H1 1_555 1_555
B2 B1 1_555 1_555
H2 B2 1_555 1_555
B3 B2 1_555 1_555
H3 B3 1_555 1_555
B4 B3 1_555 1_555
H4 B4 1_555 1_555
B5 B1 1_555 1_555
H5 B5 1_555 1_555
B6 B1 1_555 1_555
H6 B6 1_555 1_555
B7 B2 1_555 1_555
H7 B7 1_555 1_555
B8 B3 1_555 1_555
H8 B8 1_555 1_555
B9 B4 1_555 1_555
H9 B9 1_555 1_555
B10 B5 1_555 1_555
H10 B10 1_555 1_555
C1 B1 1_555 1_555
C2 B1 1_555 1_555
H11 C2 1_555 1_555
C3 C1 1_555 1_555
H12 C3 1_555 1_555
C4 N1 1_555 1_555
C5 C4 1_555 1_555
C6 C5 1_555 1_555
H13 C6 1_555 1_555
C7 C6 1_555 1_555
H14 C7 1_555 1_555
C8 C7 1_555 1_555
H15 C8 1_555 1_555
C9 C4 1_555 1_555
C10 C5 1_555 1_555
H16 C10 1_555 1_555
C11 C10 1_555 1_555
H17 C11 1_555 1_555
H18 C11 1_555 1_555
H19 C11 1_555 1_555
C12 C10 1_555 1_555
H20 C12 1_555 1_555
H21 C12 1_555 1_555
H22 C12 1_555 1_555
C13 C9 1_555 1_555
H23 C13 1_555 1_555
C14 C13 1_555 1_555
H24 C14 1_555 1_555
H25 C14 1_555 1_555
H26 C14 1_555 1_555
C15 C13 1_555 1_555
H27 C15 1_555 1_555
H28 C15 1_555 1_555
H29 C15 1_555 1_555
B2 B6 1_555 1_555
B2 C1 1_555 1_555
B3 B7 1_555 1_555
B3 C1 1_555 1_555
B4 B8 1_555 1_555
B4 C1 1_555 1_555
B4 C2 1_555 1_555
B5 B6 1_555 1_555
B5 B9 1_555 1_555
B5 C2 1_555 1_555
B6 B7 1_555 1_555
B6 B10 1_555 1_555
B7 B8 1_555 1_555
B7 B10 1_555 1_555
B8 B9 1_555 1_555
B8 B10 1_555 1_555
B9 B10 1_555 1_555
B9 C2 1_555 1_555
C1 C2 1_555 1_555
C8 C9 1_555 1_555

#END
