
#######################################################################
#
#                 Cambridge Crystallographic Data Centre
#                                CCDC 
#
#######################################################################
#
# If this CIF has been generated from an entry in the Cambridge 
# Structural Database, then it will include bibliographic, chemical, 
# crystal, experimental, refinement or atomic coordinate data resulting 
# from the CCDC's data processing and validation procedures.
#
#######################################################################

data_YEKZIA
_chemical_formula_moiety         'C23 H21 N1 O3'
_chemical_name_systematic        
'ethyl 3-amino-1-(3-methylphenyl)-1H-naphtho[2,1-b]pyran-2-carboxylate'
_symmetry_cell_setting           monoclinic
_symmetry_space_group_name_H-M   'P 21/n'
_symmetry_Int_Tables_number      14
_space_group_name_Hall           '-P 2yn'
loop_
_symmetry_equiv_pos_site_id
_symmetry_equiv_pos_as_xyz
1 x,y,z
2 1/2-x,1/2+y,1/2-z
3 -x,-y,-z
4 1/2+x,1/2-y,1/2+z
_cell_length_a                   14.581(4)
_cell_length_b                   8.726(2)
_cell_length_c                   14.884(4)
_cell_angle_alpha                90
_cell_angle_beta                 91.077(7)
_cell_angle_gamma                90
_cell_volume                     1893.41
_exptl_crystal_colour            white
_exptl_crystal_description       block
_cell_formula_units_Z            4
loop_
_atom_site_label
_atom_site_type_symbol
_atom_site_fract_x
_atom_site_fract_y
_atom_site_fract_z
O1 O 0.25362(13) 0.1395(2) 0.01585(12)
O2 O 0.28446(15) 0.1206(2) -0.13120(13)
O3 O 0.18875(13) 0.5725(2) -0.15787(12)
C1 C 0.14413(18) 0.5669(3) -0.00243(18)
C2 C 0.08616(18) 0.6266(3) 0.06553(19)
C3 C 0.30399(18) 0.5143(3) 0.05673(17)
C4 C 0.23460(18) 0.3577(3) -0.07009(17)
C5 C 0.21587(18) 0.4445(3) 0.01588(17)
H1 H 0.1910 0.3721 0.0594
C6 C 0.36032(19) 0.6065(3) 0.00482(19)
H2 H 0.3434 0.6248 -0.0548
C7 C 0.02216(19) 0.7436(3) 0.0436(2)
C8 C 0.26039(18) 0.1986(3) -0.06718(18)
N1 N 0.24881(19) 0.3778(3) -0.23187(15)
H3 H 0.2729 0.2884 -0.2374
H4 H 0.2397 0.4343 -0.2786
C9 C 0.13462(19) 0.6240(3) -0.08733(19)
C10 C 0.0900(2) 0.5739(4) 0.1556(2)
H5 H 0.1304 0.4956 0.1716
C11 C 0.4404(2) 0.6721(3) 0.0383(2)
C12 C 0.0151(2) 0.7955(4) -0.0466(2)
H6 H -0.0279 0.8701 -0.0620
C13 C 0.2257(2) 0.4290(3) -0.15096(18)
C14 C 0.2731(2) -0.0219(3) 0.0268(2)
H7 H 0.3365 -0.0432 0.0124
H8 H 0.2336 -0.0823 -0.0126
C15 C 0.3303(2) 0.4872(4) 0.1450(2)
H9 H 0.2947 0.4246 0.1809
C16 C -0.0330(2) 0.8058(4) 0.1119(3)
H10 H -0.0745 0.8833 0.0976
C17 C 0.0701(2) 0.7383(3) -0.1108(2)
H11 H 0.0654 0.7738 -0.1696
C18 C -0.0264(2) 0.7546(5) 0.1980(3)
H12 H -0.0624 0.7976 0.2423
C19 C 0.4098(3) 0.5535(5) 0.1801(2)
H13 H 0.4268 0.5359 0.2398
C20 C 0.0352(2) 0.6366(4) 0.2194(2)
H14 H 0.0388 0.6002 0.2780
C21 C 0.2559(3) -0.0601(4) 0.1222(2)
H15 H 0.2933 0.0039 0.1605
H16 H 0.2709 -0.1656 0.1330
H17 H 0.1924 -0.0431 0.1348
C22 C 0.4637(2) 0.6451(5) 0.1274(2)
H18 H 0.5165 0.6893 0.1519
C23 C 0.5006(2) 0.7680(4) -0.0205(3)
H19 H 0.5325 0.8428 0.0157
H20 H 0.4635 0.8191 -0.0652
H21 H 0.5444 0.7032 -0.0494
loop_
_geom_bond_atom_site_label_1
_geom_bond_atom_site_label_2
_geom_bond_site_symmetry_1
_geom_bond_site_symmetry_2
O1 C8 1_555 1_555
O2 C8 1_555 1_555
O3 C9 1_555 1_555
C1 C2 1_555 1_555
C2 C7 1_555 1_555
C3 C5 1_555 1_555
C4 C5 1_555 1_555
C5 C1 1_555 1_555
H1 C5 1_555 1_555
C6 C3 1_555 1_555
H2 C6 1_555 1_555
C7 C12 1_555 1_555
C8 C4 1_555 1_555
N1 H3 1_555 1_555
H4 N1 1_555 1_555
C9 C1 1_555 1_555
C10 C2 1_555 1_555
H5 C10 1_555 1_555
C11 C6 1_555 1_555
C12 H6 1_555 1_555
C13 O3 1_555 1_555
C14 O1 1_555 1_555
H7 C14 1_555 1_555
H8 C14 1_555 1_555
C15 C3 1_555 1_555
H9 C15 1_555 1_555
C16 C7 1_555 1_555
H10 C16 1_555 1_555
C17 C9 1_555 1_555
H11 C17 1_555 1_555
C18 C16 1_555 1_555
H12 C18 1_555 1_555
C19 C15 1_555 1_555
H13 C19 1_555 1_555
C20 C10 1_555 1_555
H14 C20 1_555 1_555
C21 C14 1_555 1_555
H15 C21 1_555 1_555
H16 C21 1_555 1_555
H17 C21 1_555 1_555
C22 C11 1_555 1_555
H18 C22 1_555 1_555
C23 C11 1_555 1_555
H19 C23 1_555 1_555
H20 C23 1_555 1_555
H21 C23 1_555 1_555
C4 C13 1_555 1_555
N1 C13 1_555 1_555
C12 C17 1_555 1_555
C18 C20 1_555 1_555
C19 C22 1_555 1_555

#END
