
#######################################################################
#
#                 Cambridge Crystallographic Data Centre
#                                CCDC 
#
#######################################################################
#
# If this CIF has been generated from an entry in the Cambridge 
# Structural Database, then it will include bibliographic, chemical, 
# crystal, experimental, refinement or atomic coordinate data resulting 
# from the CCDC's data processing and validation procedures.
#
#######################################################################

data_YEKZAS
_chemical_formula_moiety         'C48 H38 N2 O2'
_chemical_name_systematic        
2,7-di-t-butyl-9,18-diphenyldibenzo[10',11':6',7']tetraceno[2',3':5,6][1,4]dioxino[2,3-b]pyrazine
_symmetry_cell_setting           orthorhombic
_symmetry_space_group_name_H-M   'I b c a'
_symmetry_Int_Tables_number      73
_space_group_name_Hall           '-I 2b 2c'
loop_
_symmetry_equiv_pos_site_id
_symmetry_equiv_pos_as_xyz
1 x,y,z
2 -x,1/2-y,z
3 x,-y,1/2-z
4 -x,1/2+y,1/2-z
5 1/2+x,1/2+y,1/2+z
6 1/2-x,-y,1/2+z
7 1/2+x,1/2-y,-z
8 1/2-x,y,-z
9 -x,-y,-z
10 x,1/2+y,-z
11 -x,y,1/2+z
12 x,1/2-y,1/2+z
13 1/2-x,1/2-y,1/2-z
14 1/2+x,y,1/2-z
15 1/2-x,1/2+y,z
16 1/2+x,-y,z
_cell_length_a                   7.2740(7)
_cell_length_b                   27.354(2)
_cell_length_c                   36.960(3)
_cell_angle_alpha                90
_cell_angle_beta                 90
_cell_angle_gamma                90
_cell_volume                     7354.04
_cell_formula_units_Z            8
loop_
_atom_site_label
_atom_site_type_symbol
_atom_site_fract_x
_atom_site_fract_y
_atom_site_fract_z
N1 N 1.0371(4) 0.19994(10) -0.11576(8)
O1 O 1.0329(3) 0.19857(7) -0.05459(6)
C1 C 1.0191(6) 0.22590(11) -0.14663(10)
H1 H 1.0336 0.2100 -0.1687
C2 C 1.0178(5) 0.22528(10) -0.08592(9)
C3 C 1.0128(5) 0.22473(10) -0.02256(9)
C4 C 1.0186(4) 0.19995(11) 0.00907(9)
H2 H 1.0334 0.1662 0.0086
C5 C 1.0027(4) 0.22405(9) 0.04291(9)
C6 C 0.9892(5) 0.19821(10) 0.07618(9)
C7 C 0.9815(4) 0.22379(10) 0.10916(9)
C8 C 0.9338(5) 0.20010(13) 0.14376(9)
C9 C 0.9628(4) 0.22573(10) 0.17658(11)
C10 C 0.9189(6) 0.20281(15) 0.20994(10)
C11 C 0.8339(6) 0.15699(14) 0.20986(10)
H3 H 0.8052 0.1424 0.2319
C12 C 0.7910(5) 0.13258(12) 0.17837(12)
C13 C 0.8434(5) 0.15486(12) 0.14603(9)
H4 H 0.8168 0.1387 0.1245
C14 C 0.9605(6) 0.22777(12) 0.24261(10)
H5 H 0.9325 0.2130 0.2646
C15 C 0.9908(6) 0.14294(11) 0.07284(9)
C16 C 1.1394(6) 0.11662(13) 0.08544(9)
H6 H 1.2350 0.1326 0.0972
C17 C 1.1467(7) 0.06641(16) 0.08060(11)
H7 H 1.2463 0.0487 0.0893
C18 C 1.0050(9) 0.04270(14) 0.06269(13)
H8 H 1.0100 0.0091 0.0592
C19 C 0.8592(7) 0.06846(15) 0.05022(10)
H9 H 0.7649 0.0525 0.0380
C20 C 0.8500(6) 0.11823(13) 0.05552(9)
H10 H 0.7479 0.1355 0.0474
C21 C 0.6889(8) 0.08390(14) 0.17902(14)
C22 C 0.657(3) 0.0621(4) 0.1403(3)
H11 H 0.5874 0.0848 0.1261
H12 H 0.5913 0.0318 0.1423
H13 H 0.7740 0.0564 0.1289
C23 C 0.489(2) 0.0931(4) 0.1931(6)
H14 H 0.4379 0.1210 0.1809
H15 H 0.4920 0.0992 0.2186
H16 H 0.4145 0.0649 0.1882
C24 C 0.785(3) 0.0476(4) 0.2010(6)
H17 H 0.7193 0.0172 0.2001
H18 H 0.7916 0.0588 0.2255
H19 H 0.9069 0.0430 0.1917
N1A N 0.9629(4) 0.30006(10) -0.11576(8)
O1A O 0.9671(3) 0.30143(7) -0.05459(6)
C1A C 0.9809(6) 0.27410(11) -0.14663(10)
H1A H 0.9664 0.2900 -0.1687
C2A C 0.9822(5) 0.27472(10) -0.08592(9)
C3A C 0.9872(5) 0.27527(10) -0.02256(9)
C4A C 0.9814(4) 0.30005(11) 0.00907(9)
H2A H 0.9666 0.3338 0.0086
C5A C 0.9973(4) 0.27595(9) 0.04291(9)
C6A C 1.0108(5) 0.30179(10) 0.07618(9)
C7A C 1.0185(4) 0.27621(10) 0.10916(9)
C8A C 1.0662(5) 0.29990(13) 0.14376(9)
C9A C 1.0372(4) 0.27427(10) 0.17658(11)
C10A C 1.0811(6) 0.29719(15) 0.20994(10)
C11A C 1.1661(6) 0.34301(14) 0.20986(10)
H3A H 1.1948 0.3576 0.2319
C12A C 1.2090(5) 0.36742(12) 0.17837(12)
C13A C 1.1566(5) 0.34514(12) 0.14603(9)
H4A H 1.1832 0.3613 0.1245
C14A C 1.0395(6) 0.27223(12) 0.24261(10)
H5A H 1.0675 0.2870 0.2646
C15A C 1.0092(6) 0.35706(11) 0.07284(9)
C16A C 0.8606(6) 0.38338(13) 0.08544(9)
H6A H 0.7650 0.3674 0.0972
C17A C 0.8533(7) 0.43359(16) 0.08060(11)
H7A H 0.7537 0.4513 0.0893
C18A C 0.9950(9) 0.45730(14) 0.06269(13)
H8A H 0.9900 0.4909 0.0592
C19A C 1.1408(7) 0.43154(15) 0.05022(10)
H9A H 1.2351 0.4475 0.0380
C20A C 1.1500(6) 0.38177(13) 0.05552(9)
H10A H 1.2521 0.3645 0.0474
C21A C 1.3111(8) 0.41610(14) 0.17902(14)
C22A C 1.343(3) 0.4379(4) 0.1403(3)
H11A H 1.4126 0.4152 0.1261
H12A H 1.4087 0.4682 0.1423
H13A H 1.2260 0.4436 0.1289
C23A C 1.511(2) 0.4069(4) 0.1931(6)
H14A H 1.5621 0.3790 0.1809
H15A H 1.5080 0.4008 0.2186
H16A H 1.5855 0.4351 0.1882
C24A C 1.215(3) 0.4524(4) 0.2010(6)
H17A H 1.2807 0.4828 0.2001
H18A H 1.2084 0.4412 0.2255
H19A H 1.0931 0.4570 0.1917
C25? C 0.660(3) 0.0645(6) 0.2184(4)
H20? H 0.6095 0.0900 0.2331
H21? H 0.7756 0.0541 0.2282
H22? H 0.5763 0.0373 0.2179
C26? C 0.811(3) 0.0460(4) 0.1603(6)
H23? H 0.7563 0.0142 0.1626
H24? H 0.9303 0.0459 0.1714
H25? H 0.8230 0.0542 0.1351
C27? C 0.514(3) 0.0895(6) 0.1623(7)
H26? H 0.5244 0.1114 0.1422
H27? H 0.4283 0.1025 0.1796
H28? H 0.4713 0.0582 0.1540
loop_
_geom_bond_atom_site_label_1
_geom_bond_atom_site_label_2
_geom_bond_site_symmetry_1
_geom_bond_site_symmetry_2
N1 C1 1_555 1_555
O1 C2 1_555 1_555
C1 H1 1_555 1_555
C2 N1 1_555 1_555
C3 O1 1_555 1_555
C4 C3 1_555 1_555
H2 C4 1_555 1_555
C5 C4 1_555 1_555
C6 C5 1_555 1_555
C7 C6 1_555 1_555
C8 C7 1_555 1_555
C9 C8 1_555 1_555
C10 C9 1_555 1_555
C11 C10 1_555 1_555
H3 C11 1_555 1_555
C12 C11 1_555 1_555
C13 C8 1_555 1_555
H4 C13 1_555 1_555
C14 C10 1_555 1_555
H5 C14 1_555 1_555
C15 C6 1_555 1_555
C16 C15 1_555 1_555
H6 C16 1_555 1_555
C17 C16 1_555 1_555
H7 C17 1_555 1_555
C18 C17 1_555 1_555
H8 C18 1_555 1_555
C19 C18 1_555 1_555
H9 C19 1_555 1_555
C20 C15 1_555 1_555
H10 C20 1_555 1_555
C21 C12 1_555 1_555
C22 C21 1_555 1_555
H11 C22 1_555 1_555
H12 C22 1_555 1_555
H13 C22 1_555 1_555
C23 C21 1_555 1_555
H14 C23 1_555 1_555
H15 C23 1_555 1_555
H16 C23 1_555 1_555
C24 C21 1_555 1_555
H17 C24 1_555 1_555
H18 C24 1_555 1_555
H19 C24 1_555 1_555
N1A C1A 1_555 1_555
O1A C2A 1_555 1_555
C1A C1 1_555 1_555
H1A C1A 1_555 1_555
C2A C2 1_555 1_555
C3A C3 1_555 1_555
C4A C3A 1_555 1_555
H2A C4A 1_555 1_555
C5A C5 1_555 1_555
C6A C5A 1_555 1_555
C7A C7 1_555 1_555
C8A C7A 1_555 1_555
C9A C9 1_555 1_555
C10A C9A 1_555 1_555
C11A C10A 1_555 1_555
H3A C11A 1_555 1_555
C12A C11A 1_555 1_555
C13A C8A 1_555 1_555
H4A C13A 1_555 1_555
C14A C14 1_555 1_555
H5A C14A 1_555 1_555
C15A C6A 1_555 1_555
C16A C15A 1_555 1_555
H6A C16A 1_555 1_555
C17A C16A 1_555 1_555
H7A C17A 1_555 1_555
C18A C17A 1_555 1_555
H8A C18A 1_555 1_555
C19A C18A 1_555 1_555
H9A C19A 1_555 1_555
C20A C15A 1_555 1_555
H10A C20A 1_555 1_555
C21A C12A 1_555 1_555
C22A C21A 1_555 1_555
H11A C22A 1_555 1_555
H12A C22A 1_555 1_555
H13A C22A 1_555 1_555
C23A C21A 1_555 1_555
H14A C23A 1_555 1_555
H15A C23A 1_555 1_555
H16A C23A 1_555 1_555
C24A C21A 1_555 1_555
H17A C24A 1_555 1_555
H18A C24A 1_555 1_555
H19A C24A 1_555 1_555
C12 C13 1_555 1_555
C19 C20 1_555 1_555
N1A C2A 1_555 1_555
O1A C3A 1_555 1_555
C4A C5A 1_555 1_555
C6A C7A 1_555 1_555
C8A C9A 1_555 1_555
C10A C14A 1_555 1_555
C12A C13A 1_555 1_555
C19A C20A 1_555 1_555

#END
