
#######################################################################
#
#                 Cambridge Crystallographic Data Centre
#                                CCDC 
#
#######################################################################
#
# If this CIF has been generated from an entry in the Cambridge 
# Structural Database, then it will include bibliographic, chemical, 
# crystal, experimental, refinement or atomic coordinate data resulting 
# from the CCDC's data processing and validation procedures.
#
#######################################################################

data_YELDUR
_chemical_formula_moiety         'C7 H2 Cl3 N1 O2'
_chemical_name_systematic        '4-chloropyridine-2,6-dicarbonyl dichloride'
_symmetry_cell_setting           monoclinic
_symmetry_space_group_name_H-M   'C 2/c'
_symmetry_Int_Tables_number      15
_space_group_name_Hall           '-C 2yn'
loop_
_symmetry_equiv_pos_site_id
_symmetry_equiv_pos_as_xyz
1 x,y,z
2 -x,y,1/2-z
3 1/2+x,1/2+y,z
4 1/2-x,1/2+y,1/2-z
5 -x,-y,-z
6 x,-y,1/2+z
7 1/2-x,1/2-y,-z
8 1/2+x,1/2-y,1/2+z
_cell_length_a                   12.8620(5)
_cell_length_b                   9.0134(4)
_cell_length_c                   7.5854(3)
_cell_angle_alpha                90
_cell_angle_beta                 95.464(2)
_cell_angle_gamma                90
_cell_volume                     875.382
_exptl_crystal_colour            colorless
_exptl_crystal_description       prisms
_cell_formula_units_Z            4
loop_
_atom_site_label
_atom_site_type_symbol
_atom_site_fract_x
_atom_site_fract_y
_atom_site_fract_z
N1 N 0.0000 0.52749(15) 0.2500
C1 C 0.07567(9) 0.60493(13) 0.18427(14)
C2 C 0.07922(9) 0.75924(13) 0.17714(15)
H1 H 0.1333 0.8099 0.1249
C3 C 0.0000 0.83543(18) 0.2500
C4 C 0.16294(9) 0.51854(14) 0.11554(16)
Cl1 Cl 0.15248(2) 0.32442(3) 0.13854(4)
O1 O 0.23472(7) 0.57146(11) 0.05105(13)
Cl2 Cl 0.0000 1.02653(5) 0.2500
C1A C -0.07567(9) 0.60493(13) 0.31573(14)
C2A C -0.07922(9) 0.75924(13) 0.32286(15)
H1A H -0.1333 0.8099 0.3751
C4A C -0.16294(9) 0.51854(14) 0.38446(16)
Cl1A Cl -0.15248(2) 0.32442(3) 0.36146(4)
O1A O -0.23472(7) 0.57146(11) 0.44895(13)
loop_
_geom_bond_atom_site_label_1
_geom_bond_atom_site_label_2
_geom_bond_site_symmetry_1
_geom_bond_site_symmetry_2
N1 C1 1_555 1_555
C1 C2 1_555 1_555
C2 H1 1_555 1_555
C3 C2 1_555 1_555
C4 C1 1_555 1_555
Cl1 C4 1_555 1_555
O1 C4 1_555 1_555
Cl2 C3 1_555 1_555
C1A N1 1_555 1_555
C2A C3 1_555 1_555
H1A C2A 1_555 1_555
C4A C1A 1_555 1_555
Cl1A C4A 1_555 1_555
O1A C4A 1_555 1_555
C1A C2A 1_555 1_555

#END
