
#######################################################################
#
#                 Cambridge Crystallographic Data Centre
#                                CCDC 
#
#######################################################################
#
# If this CIF has been generated from an entry in the Cambridge 
# Structural Database, then it will include bibliographic, chemical, 
# crystal, experimental, refinement or atomic coordinate data resulting 
# from the CCDC's data processing and validation procedures.
#
#######################################################################

data_YELVUJ
_chemical_formula_moiety         'C18 H23 Br1 N4 O2'
_chemical_name_systematic        
5-bromo-N-(2-(3-methoxyphenyl)ethyl)-4-methyl-6-(morpholin-4-yl)pyrimidin-2-amine
_symmetry_cell_setting           monoclinic
_symmetry_space_group_name_H-M   'P 21/n'
_symmetry_Int_Tables_number      14
_space_group_name_Hall           '-P 2yn'
loop_
_symmetry_equiv_pos_site_id
_symmetry_equiv_pos_as_xyz
1 x,y,z
2 1/2-x,1/2+y,1/2-z
3 -x,-y,-z
4 1/2+x,1/2-y,1/2+z
_cell_length_a                   18.8570(6)
_cell_length_b                   4.98220(10)
_cell_length_c                   21.8645(7)
_cell_angle_alpha                90
_cell_angle_beta                 115.2770(10)
_cell_angle_gamma                90
_cell_volume                     1857.48
_exptl_crystal_colour            colorless
_exptl_crystal_description       block
_cell_formula_units_Z            4
loop_
_atom_site_label
_atom_site_type_symbol
_atom_site_fract_x
_atom_site_fract_y
_atom_site_fract_z
Br1 Br 0.75599(2) -0.24671(4) 0.31115(2)
N1 N 0.79764(10) 0.3516(4) 0.45332(9)
N2 N 0.91691(12) 0.2757(4) 0.44207(11)
N3 N 0.91055(11) 0.5802(4) 0.51832(9)
H1 H 0.9604 0.6005 0.5327
N4 N 0.68071(11) 0.1414(5) 0.38753(10)
C1 C 0.87389(12) 0.3962(4) 0.47006(10)
C2 C 0.80084(12) 0.0372(4) 0.37330(10)
C3 C 0.87958(13) 0.0922(5) 0.39421(11)
O1 O 0.62955(13) 1.0898(6) 0.58660(13)
C4 C 0.75998(13) 0.1790(5) 0.40408(11)
O2 O 0.51782(13) 0.2108(6) 0.34930(15)
C5 C 0.86912(15) 0.7457(4) 0.54704(13)
H2 H 0.8169 0.7821 0.5123
H3 H 0.8962 0.9161 0.5608
C6 C 0.82304(16) 0.8124(5) 0.63678(13)
C7 C 0.86211(16) 0.6194(5) 0.60753(12)
H4 H 0.8315 0.4557 0.5936
H5 H 0.9139 0.5735 0.6417
C8 C 0.74393(16) 0.8640(6) 0.60212(13)
H6 H 0.7144 0.7709 0.5625
C9 C 0.62426(16) 0.1852(7) 0.31688(15)
H7 H 0.6420 0.0935 0.2868
H8 H 0.6206 0.3754 0.3065
C10 C 0.86571(16) 0.9528(6) 0.69585(13)
H9 H 0.9191 0.9197 0.7200
C11 C 0.92923(16) -0.0486(7) 0.36582(16)
H10 H 0.9814 0.0234 0.3861
H11 H 0.9072 -0.0221 0.3178
H12 H 0.9309 -0.2370 0.3755
C12 C 0.82971(19) 1.1413(7) 0.71918(14)
H13 H 0.8592 1.2346 0.7588
C13 C 0.70786(16) 1.0544(6) 0.62602(14)
C14 C 0.7517(2) 1.1930(7) 0.68511(16)
H14 H 0.7279 1.3203 0.7014
C15 C 0.65126(18) 0.2690(7) 0.43264(17)
H15 H 0.6494 0.4620 0.4264
H16 H 0.6866 0.2307 0.4793
C16 C 0.54508(17) 0.0795(8) 0.30627(17)
H17 H 0.5081 0.1071 0.2595
H18 H 0.5487 -0.1118 0.3153
C17 C 0.57133(19) 0.1669(10) 0.4180(2)
H19 H 0.5742 -0.0238 0.4277
H20 H 0.5521 0.2566 0.4473
C18 C 0.5903(3) 1.2925(9) 0.6062(3)
H21 H 0.5368 1.3044 0.5732
H22 H 0.6159 1.4618 0.6092
H23 H 0.5918 1.2481 0.6495
loop_
_geom_bond_atom_site_label_1
_geom_bond_atom_site_label_2
_geom_bond_site_symmetry_1
_geom_bond_site_symmetry_2
Br1 C2 1_555 1_555
N1 C1 1_555 1_555
N2 C1 1_555 1_555
N3 H1 1_555 1_555
N4 C4 1_555 1_555
C1 N3 1_555 1_555
C2 C3 1_555 1_555
C3 N2 1_555 1_555
O1 C13 1_555 1_555
C4 N1 1_555 1_555
O2 C16 1_555 1_555
C5 N3 1_555 1_555
H2 C5 1_555 1_555
H3 C5 1_555 1_555
C6 C7 1_555 1_555
C7 C5 1_555 1_555
H4 C7 1_555 1_555
H5 C7 1_555 1_555
C8 C6 1_555 1_555
H6 C8 1_555 1_555
C9 N4 1_555 1_555
H7 C9 1_555 1_555
H8 C9 1_555 1_555
C10 C6 1_555 1_555
H9 C10 1_555 1_555
C11 C3 1_555 1_555
H10 C11 1_555 1_555
H11 C11 1_555 1_555
H12 C11 1_555 1_555
C12 C10 1_555 1_555
H13 C12 1_555 1_555
C13 C8 1_555 1_555
C14 C12 1_555 1_555
H14 C14 1_555 1_555
C15 N4 1_555 1_555
H15 C15 1_555 1_555
H16 C15 1_555 1_555
C16 C9 1_555 1_555
H17 C16 1_555 1_555
H18 C16 1_555 1_555
C17 O2 1_555 1_555
H19 C17 1_555 1_555
H20 C17 1_555 1_555
C18 O1 1_555 1_555
H21 C18 1_555 1_555
H22 C18 1_555 1_555
H23 C18 1_555 1_555
C2 C4 1_555 1_555
C13 C14 1_555 1_555
C15 C17 1_555 1_555

#END
