
#######################################################################
#
#                 Cambridge Crystallographic Data Centre
#                                CCDC 
#
#######################################################################
#
# If this CIF has been generated from an entry in the Cambridge 
# Structural Database, then it will include bibliographic, chemical, 
# crystal, experimental, refinement or atomic coordinate data resulting 
# from the CCDC's data processing and validation procedures.
#
#######################################################################

data_YEMCUO01
_chemical_formula_moiety         'C10 H8 S8 1+,C10 H8 S8,C1 Br2 N1 Se1 1-'
_chemical_name_systematic        
'bis((Ethylenedithio)tetrathiafulvalene) dibromoselenocyanide'
_symmetry_cell_setting           triclinic
_symmetry_space_group_name_H-M   'P 1'
_symmetry_Int_Tables_number      1
_space_group_name_Hall           'P 1'
loop_
_symmetry_equiv_pos_site_id
_symmetry_equiv_pos_as_xyz
1 x,y,z
_cell_length_a                   5.9304(6)
_cell_length_b                   8.8042(9)
_cell_length_c                   16.509(2)
_cell_angle_alpha                95.723(8)
_cell_angle_beta                 98.767(8)
_cell_angle_gamma                92.192(8)
_cell_volume                     846.405
_cell_formula_units_Z            1
loop_
_atom_site_label
_atom_site_type_symbol
_atom_site_fract_x
_atom_site_fract_y
_atom_site_fract_z
Se1 Se 0.0000 0.0000 0.0000
Br1 Br -0.0013(5) 0.2779(3) -0.0381(2)
Br2 Br 0.0040(5) -0.2766(4) 0.0360(2)
N1 N 0.506(4) -0.012(3) 0.0065(12)
C1 C 0.2924(15) 0.0053(11) -0.0015(5)
S1 S 0.2623(8) 0.1443(6) 0.5182(3)
S2 S 0.7028(9) 0.3019(6) 0.5904(3)
S3 S 0.3180(8) 0.2527(6) 0.3408(3)
S4 S 0.7638(8) 0.4017(5) 0.4107(3)
S5 S 0.1605(10) 0.0232(7) 0.6681(3)
S6 S 0.6879(9) 0.2144(8) 0.7585(3)
S7 S 0.3318(9) 0.3106(6) 0.1699(3)
S8 S 0.8686(8) 0.4861(6) 0.2504(3)
C2 C 0.507(2) 0.255(2) 0.5047(10)
C3 C 0.523(2) 0.2963(14) 0.4255(7)
C4 C 0.348(2) 0.124(2) 0.6200(9)
C5 C 0.571(2) 0.202(2) 0.6553(10)
C6 C 0.477(3) 0.335(2) 0.2741(8)
C7 C 0.673(2) 0.397(2) 0.3024(9)
C8 C 0.268(3) 0.123(2) 0.7796(10)
C10 C 0.526(4) 0.090(2) 0.8046(13)
C12 C 0.596(3) 0.323(2) 0.1228(12)
C14 C 0.770(5) 0.451(5) 0.149(2)
S9 S 0.7492(9) 0.8552(6) 0.4811(3)
S10 S 0.3073(8) 0.7020(5) 0.4070(3)
S11 S 0.6915(8) 0.7477(6) 0.6554(3)
S12 S 0.2415(8) 0.5974(6) 0.5877(3)
S13 S 0.8363(9) 0.9753(7) 0.3290(3)
S14 S 0.3206(10) 0.7814(8) 0.2401(3)
S15 S 0.6753(8) 0.6881(6) 0.8265(3)
S16 S 0.1336(9) 0.5117(6) 0.7446(3)
C16 C 0.515(2) 0.752(2) 0.4970(7)
C17 C 0.478(3) 0.703(2) 0.5665(10)
C18 C 0.647(3) 0.863(2) 0.3745(10)
C19 C 0.468(2) 0.7991(14) 0.3415(9)
C20 C 0.544(2) 0.664(2) 0.7254(9)
C21 C 0.331(3) 0.593(2) 0.6908(9)
C22 C 0.737(5) 0.997(5) 0.231(2)
C24 C 0.502(5) 0.885(4) 0.1922(14)
C25 C 0.484(4) 0.592(3) 0.8832(12)
C26 C 0.306(5) 0.521(3) 0.8491(14)
C9? C 0.315(3) 0.053(3) 0.7765(11)
C11? C 0.426(3) 0.165(2) 0.8034(13)
C13? C 0.526(3) 0.417(2) 0.1204(12)
C15? C 0.795(3) 0.379(2) 0.1466(12)
C23? C 0.758(3) 0.922(3) 0.2246(11)
C27? C 0.252(3) 0.599(2) 0.8507(11)
loop_
_geom_bond_atom_site_label_1
_geom_bond_atom_site_label_2
_geom_bond_site_symmetry_1
_geom_bond_site_symmetry_2
Se1 Br1 1_555 1_555
Br2 Se1 1_555 1_555
N1 C1 1_555 1_555
C1 Se1 1_555 1_555
S1 C2 1_555 1_555
S2 C2 1_555 1_555
S3 C3 1_555 1_555
S4 C3 1_555 1_555
S5 C4 1_555 1_555
S6 C5 1_555 1_555
S7 C6 1_555 1_555
S8 C7 1_555 1_555
C2 C3 1_555 1_555
C4 S1 1_555 1_555
C5 S2 1_555 1_555
C6 S3 1_555 1_555
C7 S4 1_555 1_555
C8 S5 1_555 1_555
C10 S6 1_555 1_555
C12 S7 1_555 1_555
C14 S8 1_555 1_555
S9 C16 1_555 1_555
S10 C16 1_555 1_555
S11 C17 1_555 1_555
S12 C17 1_555 1_555
S13 C18 1_555 1_555
S14 C19 1_555 1_555
S15 C20 1_555 1_555
S16 C21 1_555 1_555
C16 C17 1_555 1_555
C18 S9 1_555 1_555
C19 S10 1_555 1_555
C20 S11 1_555 1_555
C21 S12 1_555 1_555
C22 S13 1_555 1_555
C24 S14 1_555 1_555
C25 S15 1_555 1_555
C26 S16 1_555 1_555
C4 C5 1_555 1_555
C6 C7 1_555 1_555
C8 C10 1_555 1_555
C12 C14 1_555 1_555
C18 C19 1_555 1_555
C20 C21 1_555 1_555
C22 C24 1_555 1_555
C25 C26 1_555 1_555

#END
