
#######################################################################
#
#                 Cambridge Crystallographic Data Centre
#                                CCDC 
#
#######################################################################
#
# If this CIF has been generated from an entry in the Cambridge 
# Structural Database, then it will include bibliographic, chemical, 
# crystal, experimental, refinement or atomic coordinate data resulting 
# from the CCDC's data processing and validation procedures.
#
#######################################################################

data_YEMCUO
_chemical_formula_moiety         'C10 H8 S8 1+,C10 H8 S8,C1 Br2 N1 Se1 1-'
_chemical_name_systematic        
'(bis(Ethylenedithio)tetrathiafulvalene) dibromoselenocyanide'
_symmetry_cell_setting           triclinic
_symmetry_space_group_name_H-M   'P 1'
_symmetry_Int_Tables_number      1
_space_group_name_Hall           'P 1'
loop_
_symmetry_equiv_pos_site_id
_symmetry_equiv_pos_as_xyz
1 x,y,z
_cell_length_a                   5.8131(12)
_cell_length_b                   8.666(2)
_cell_length_c                   16.626(4)
_cell_angle_alpha                93.75(2)
_cell_angle_beta                 100.62(2)
_cell_angle_gamma                89.75(2)
_cell_volume                     821.423
_cell_formula_units_Z            1
loop_
_atom_site_label
_atom_site_type_symbol
_atom_site_fract_x
_atom_site_fract_y
_atom_site_fract_z
Se1 Se 0.0000 0.0000 0.0000
Br1 Br -0.0526(6) 0.2868(3) -0.0316(2)
Br2 Br 0.0538(6) -0.2882(3) 0.0315(2)
N1 N 0.4853(14) 0.0210(8) -0.0059(5)
C1 C 0.2891(13) 0.0167(8) -0.0035(4)
S1 S 0.2640(8) 0.1396(5) 0.5149(2)
S2 S 0.7101(8) 0.2953(5) 0.5873(3)
S3 S 0.2991(9) 0.2583(5) 0.3396(2)
S4 S 0.7563(8) 0.4035(5) 0.4065(2)
S5 S 0.1780(8) 0.0187(5) 0.6674(2)
S6 S 0.6951(8) 0.2232(5) 0.7578(3)
S7 S 0.2874(8) 0.3342(5) 0.1682(2)
S8 S 0.8465(8) 0.4969(5) 0.2490(2)
C2 C 0.506(2) 0.254(2) 0.4998(8)
C3 C 0.521(2) 0.2946(15) 0.4263(8)
C4 C 0.353(2) 0.1290(12) 0.6196(6)
C5 C 0.575(2) 0.2014(13) 0.6558(7)
C6 C 0.436(2) 0.3454(11) 0.2690(6)
C7 C 0.649(2) 0.411(2) 0.2991(8)
C8 C 0.271(2) 0.0845(12) 0.7838(7)
C9 C 0.546(3) 0.071(2) 0.7986(8)
C10 C 0.535(3) 0.352(2) 0.1150(8)
C11 C 0.683(3) 0.493(2) 0.1443(8)
S9 S 0.7479(8) 0.8586(5) 0.4850(3)
S10 S 0.3042(8) 0.7000(5) 0.4113(2)
S11 S 0.7131(7) 0.7406(5) 0.6607(2)
S12 S 0.2559(7) 0.5948(5) 0.5936(2)
S13 S 0.8332(8) 0.9817(5) 0.3322(3)
S14 S 0.3119(8) 0.7751(5) 0.2427(2)
S15 S 0.7167(8) 0.6680(5) 0.8318(2)
S16 S 0.1622(8) 0.5037(5) 0.7522(3)
C12 C 0.517(2) 0.7501(13) 0.4990(7)
C13 C 0.497(2) 0.6959(12) 0.5761(6)
C14 C 0.641(2) 0.8725(14) 0.3781(8)
C15 C 0.460(2) 0.7962(13) 0.3468(7)
C16 C 0.566(2) 0.650(2) 0.7288(9)
C17 C 0.357(2) 0.5868(14) 0.6981(7)
C18 C 0.720(2) 0.9253(13) 0.2252(7)
C19 C 0.466(3) 0.917(2) 0.1984(9)
C20 C 0.465(2) 0.658(2) 0.8798(8)
C21 C 0.327(2) 0.507(2) 0.8555(9)
loop_
_geom_bond_atom_site_label_1
_geom_bond_atom_site_label_2
_geom_bond_site_symmetry_1
_geom_bond_site_symmetry_2
Se1 Br1 1_555 1_555
Br2 Se1 1_555 1_555
N1 C1 1_555 1_555
C1 Se1 1_555 1_555
S1 C2 1_555 1_555
S2 C2 1_555 1_555
S3 C3 1_555 1_555
S4 C3 1_555 1_555
S5 C4 1_555 1_555
S6 C5 1_555 1_555
S7 C6 1_555 1_555
S8 C7 1_555 1_555
C2 C3 1_555 1_555
C4 S1 1_555 1_555
C5 S2 1_555 1_555
C6 S3 1_555 1_555
C7 S4 1_555 1_555
C8 S5 1_555 1_555
C9 S6 1_555 1_555
C10 S7 1_555 1_555
S9 C12 1_555 1_555
C11 S8 1_555 1_555
S10 C12 1_555 1_555
S11 C13 1_555 1_555
S12 C13 1_555 1_555
S13 C14 1_555 1_555
S14 C15 1_555 1_555
S15 C16 1_555 1_555
S16 C17 1_555 1_555
C12 C13 1_555 1_555
C14 S9 1_555 1_555
C15 S10 1_555 1_555
C16 S11 1_555 1_555
C17 S12 1_555 1_555
C18 S13 1_555 1_555
C19 S14 1_555 1_555
C20 S15 1_555 1_555
C21 S16 1_555 1_555
C4 C5 1_555 1_555
C6 C7 1_555 1_555
C8 C9 1_555 1_555
C10 C11 1_555 1_555
C14 C15 1_555 1_555
C16 C17 1_555 1_555
C18 C19 1_555 1_555
C20 C21 1_555 1_555

#END
