
#######################################################################
#
#                 Cambridge Crystallographic Data Centre
#                                CCDC 
#
#######################################################################
#
# If this CIF has been generated from an entry in the Cambridge 
# Structural Database, then it will include bibliographic, chemical, 
# crystal, experimental, refinement or atomic coordinate data resulting 
# from the CCDC's data processing and validation procedures.
#
#######################################################################

data_YEMJOS
_chemical_formula_moiety         'C25 H14 Cl1 N1 O4'
_chemical_name_systematic        
4-chloro-11'-phenyl-2H,4'H,5H-spiro[cyclohex-3-ene-1,6'-furo[2',3':4,5]pyrido[2,1-a]isoindole]-2,4',5-trione
_symmetry_cell_setting           monoclinic
_symmetry_space_group_name_H-M   'P 21/n'
_symmetry_Int_Tables_number      14
_space_group_name_Hall           '-P 2yn'
loop_
_symmetry_equiv_pos_site_id
_symmetry_equiv_pos_as_xyz
1 x,y,z
2 1/2-x,1/2+y,1/2-z
3 -x,-y,-z
4 1/2+x,1/2-y,1/2+z
_cell_length_a                   7.0601(12)
_cell_length_b                   14.953(3)
_cell_length_c                   18.170(3)
_cell_angle_alpha                90
_cell_angle_beta                 90.678(6)
_cell_angle_gamma                90
_cell_volume                     1918.07
_exptl_crystal_colour            yellow
_exptl_crystal_description       plate
_cell_formula_units_Z            4
loop_
_atom_site_label
_atom_site_type_symbol
_atom_site_fract_x
_atom_site_fract_y
_atom_site_fract_z
Cl1 Cl 0.96525(13) 0.45355(5) 1.26854(4)
O1 O 0.5624(3) 0.73954(11) 0.85723(9)
O2 O 0.7090(3) 0.58250(11) 1.07062(9)
C1 C 0.6341(3) 0.66073(14) 0.95875(12)
C2 C 0.9600(3) 0.75995(14) 0.98281(12)
N1 N 0.9054(3) 0.69131(12) 1.02991(9)
C3 C 0.7437(4) 0.63970(14) 1.02309(12)
C4 C 0.8512(4) 0.78352(14) 0.92332(12)
O3 O 0.8860(3) 0.76331(12) 1.17591(10)
C5 C 1.0327(4) 0.50667(16) 1.12845(14)
C6 C 0.9625(4) 0.62211(17) 1.22109(13)
H1 H 0.9459 0.6383 1.2700
O4 O 1.0072(3) 0.43076(12) 1.10844(12)
C7 C 1.4360(4) 0.87065(17) 1.01779(16)
H2 H 1.5194 0.9134 0.9999
C8 C 0.6886(4) 0.72957(14) 0.91373(12)
C9 C 0.4646(4) 0.62468(16) 0.92752(13)
H3 H 0.3941 0.5769 0.9452
C10 C 1.0465(4) 0.67269(15) 1.08855(12)
C11 C 0.8836(4) 0.94675(17) 0.89862(16)
H4 H 0.8463 0.9577 0.9467
C12 C 1.3651(4) 0.75787(17) 1.10724(14)
H5 H 1.3987 0.7252 1.1490
C13 C 0.9524(4) 0.84468(19) 0.80186(14)
H6 H 0.9623 0.7865 0.7841
C14 C 1.1951(4) 0.74210(15) 1.07147(13)
C15 C 0.8962(4) 0.85954(15) 0.87354(13)
C16 C 0.9893(4) 0.53687(17) 1.20457(13)
C17 C 1.1258(4) 0.57674(15) 1.08154(13)
H7 H 1.1144 0.5585 1.0305
H8 H 1.2598 0.5781 1.0940
C18 C 1.2663(4) 0.85634(16) 0.98166(15)
H9 H 1.2343 0.8890 0.9398
C19 C 1.1431(4) 0.79167(15) 1.00922(12)
C20 C 0.9582(4) 0.69187(16) 1.16420(12)
C21 C 1.4848(4) 0.82265(18) 1.08034(16)
H10 H 1.5992 0.8342 1.1044
C22 C 0.9790(5) 1.0020(2) 0.78217(18)
H11 H 1.0053 1.0499 0.7513
C23 C 0.9937(5) 0.9165(2) 0.75638(15)
H12 H 1.0316 0.9064 0.7082
C24 C 0.4278(4) 0.67381(17) 0.86761(14)
H13 H 0.3238 0.6648 0.8366
C25 C 0.9259(5) 1.01739(19) 0.8531(2)
H14 H 0.9182 1.0757 0.8706
loop_
_geom_bond_atom_site_label_1
_geom_bond_atom_site_label_2
_geom_bond_site_symmetry_1
_geom_bond_site_symmetry_2
Cl1 C16 1_555 1_555
O1 C8 1_555 1_555
O2 C3 1_555 1_555
C1 C3 1_555 1_555
C2 N1 1_555 1_555
N1 C3 1_555 1_555
C4 C2 1_555 1_555
O3 C20 1_555 1_555
C5 O4 1_555 1_555
C6 H1 1_555 1_555
C7 H2 1_555 1_555
C8 C1 1_555 1_555
C9 C1 1_555 1_555
H3 C9 1_555 1_555
C10 N1 1_555 1_555
C11 H4 1_555 1_555
C12 H5 1_555 1_555
C13 H6 1_555 1_555
C14 C10 1_555 1_555
C15 C4 1_555 1_555
C16 C5 1_555 1_555
C17 C5 1_555 1_555
H7 C17 1_555 1_555
H8 C17 1_555 1_555
C18 C7 1_555 1_555
H9 C18 1_555 1_555
C19 C2 1_555 1_555
C20 C6 1_555 1_555
C21 C7 1_555 1_555
H10 C21 1_555 1_555
C22 H11 1_555 1_555
C23 C13 1_555 1_555
H12 C23 1_555 1_555
C24 O1 1_555 1_555
H13 C24 1_555 1_555
C25 C11 1_555 1_555
H14 C25 1_555 1_555
C4 C8 1_555 1_555
C6 C16 1_555 1_555
C9 C24 1_555 1_555
C10 C17 1_555 1_555
C10 C20 1_555 1_555
C11 C15 1_555 1_555
C12 C14 1_555 1_555
C12 C21 1_555 1_555
C13 C15 1_555 1_555
C14 C19 1_555 1_555
C18 C19 1_555 1_555
C22 C23 1_555 1_555
C22 C25 1_555 1_555

#END
