
#######################################################################
#
#                 Cambridge Crystallographic Data Centre
#                                CCDC 
#
#######################################################################
#
# If this CIF has been generated from an entry in the Cambridge 
# Structural Database, then it will include bibliographic, chemical, 
# crystal, experimental, refinement or atomic coordinate data resulting 
# from the CCDC's data processing and validation procedures.
#
#######################################################################

data_YEMZOI
_chemical_formula_moiety         'C18 H19 N1 O6'
_chemical_name_systematic        
'methyl 7-[2-(methoxycarbonyl)prop-2-en-1-yl]-7,8-dihydro-2H,6H-[1,3]dioxolo[4,5-g][2]benzazepine-9-carboxylate'
_symmetry_cell_setting           triclinic
_symmetry_space_group_name_H-M   'P -1'
_symmetry_Int_Tables_number      2
_space_group_name_Hall           '-P 1'
loop_
_symmetry_equiv_pos_site_id
_symmetry_equiv_pos_as_xyz
1 x,y,z
2 -x,-y,-z
_cell_length_a                   8.0098(2)
_cell_length_b                   9.3732(2)
_cell_length_c                   11.2762(3)
_cell_angle_alpha                94.0002(11)
_cell_angle_beta                 91.5416(12)
_cell_angle_gamma                105.9140(11)
_cell_volume                     811.224
_exptl_crystal_colour            colorless
_exptl_crystal_description       block
_cell_formula_units_Z            2
loop_
_atom_site_label
_atom_site_type_symbol
_atom_site_fract_x
_atom_site_fract_y
_atom_site_fract_z
C1 C -0.03336(14) 0.16713(12) 0.63872(10)
H1 H -0.1319 0.1979 0.668
H2 H -0.0788 0.0802 0.5833
C2 C 0.07496(14) 0.29091(12) 0.57062(10)
C3 C 0.18181(13) 0.42416(11) 0.63167(9)
C4 C 0.20769(14) 0.46125(12) 0.75993(9)
H3 H 0.2688 0.5596 0.7818
C5 C 0.15864(14) 0.37805(12) 0.85223(9)
C6 C 0.06012(15) 0.21451(12) 0.84957(10)
H4 H 0.1109 0.1713 0.9121
H5 H -0.0586 0.208 0.8695
C7 C 0.22086(13) 0.09625(11) 0.71215(9)
H6 H 0.3122 0.1887 0.7276
H7 H 0.2191 0.065 0.6282
C8 C 0.26237(13) -0.02110(11) 0.78439(9)
C9 C 0.15175(15) -0.10877(13) 0.85171(11)
H8 H 0.1845 -0.1826 0.8895
H9 H 0.0415 -0.0963 0.8611
C10 C 0.43982(14) -0.03855(11) 0.76784(10)
C11 C 0.65196(18) -0.15130(18) 0.83083(15)
H10 H 0.6533 -0.1978 0.7524
H11 H 0.6707 -0.2162 0.8889
H12 H 0.7424 -0.0592 0.8405
C12 C 0.06499(15) 0.27531(13) 0.44693(10)
H13 H -0.0039 0.1865 0.4091
C13 C 0.15383(16) 0.38695(13) 0.37606(10)
H14 H 0.1435 0.375 0.2934
C14 C 0.25636(15) 0.51406(13) 0.43596(10)
C15 C 0.44330(18) 0.73520(14) 0.49057(10)
H15 H 0.4265 0.8336 0.4882
H16 H 0.5669 0.7446 0.4894
C16 C 0.26893(14) 0.53180(12) 0.55933(9)
C17 C 0.20339(15) 0.44928(13) 0.97561(10)
C18 C 0.3686(2) 0.65531(17) 1.09916(12)
H17 H 0.2677 0.6555 1.1431
H18 H 0.4374 0.7559 1.0936
H19 H 0.4363 0.6015 1.1392
N1 N 0.05445(11) 0.12267(10) 0.73935(8)
O1 O 0.53163(11) 0.01702(10) 0.69069(9)
O2 O 0.48597(11) -0.12235(10) 0.84686(8)
O3 O 0.35438(13) 0.64098(10) 0.39028(7)
O4 O 0.37442(12) 0.67021(9) 0.59647(7)
O5 O 0.14620(14) 0.38881(11) 1.06292(8)
O6 O 0.31533(13) 0.58497(10) 0.98142(7)
loop_
_geom_bond_atom_site_label_1
_geom_bond_atom_site_label_2
_geom_bond_site_symmetry_1
_geom_bond_site_symmetry_2
C1 H1 1_555 1_555
H2 C1 1_555 1_555
C2 C1 1_555 1_555
C3 C2 1_555 1_555
C4 C3 1_555 1_555
H3 C4 1_555 1_555
C5 C4 1_555 1_555
C6 C5 1_555 1_555
H4 C6 1_555 1_555
H5 C6 1_555 1_555
C7 H6 1_555 1_555
H7 C7 1_555 1_555
C8 C7 1_555 1_555
C9 C8 1_555 1_555
H8 C9 1_555 1_555
H9 C9 1_555 1_555
C10 C8 1_555 1_555
C11 H10 1_555 1_555
H11 C11 1_555 1_555
H12 C11 1_555 1_555
C12 C2 1_555 1_555
H13 C12 1_555 1_555
C13 C12 1_555 1_555
H14 C13 1_555 1_555
C14 C13 1_555 1_555
C15 H15 1_555 1_555
H16 C15 1_555 1_555
C16 C3 1_555 1_555
C17 C5 1_555 1_555
C18 H17 1_555 1_555
H18 C18 1_555 1_555
H19 C18 1_555 1_555
N1 C1 1_555 1_555
O1 C10 1_555 1_555
O2 C10 1_555 1_555
O3 C14 1_555 1_555
O4 C15 1_555 1_555
O5 C17 1_555 1_555
O6 C17 1_555 1_555
C6 N1 1_555 1_555
C7 N1 1_555 1_555
C11 O2 1_555 1_555
C14 C16 1_555 1_555
C15 O3 1_555 1_555
C16 O4 1_555 1_555
C18 O6 1_555 1_555

#END
