
#######################################################################
#
#                 Cambridge Crystallographic Data Centre
#                                CCDC 
#
#######################################################################
#
# If this CIF has been generated from an entry in the Cambridge 
# Structural Database, then it will include bibliographic, chemical, 
# crystal, experimental, refinement or atomic coordinate data resulting 
# from the CCDC's data processing and validation procedures.
#
#######################################################################

data_YEMZIB
_chemical_formula_moiety         'C17 H19 Cl1 N2 O3'
_chemical_name_systematic        
1-(2-(3-Chlorophenyl)ethyl)-3-cyclopentylpyrimidine-2,4,6(1H,3H,5H)-trione
_symmetry_cell_setting           monoclinic
_symmetry_space_group_name_H-M   'P n'
_symmetry_Int_Tables_number      7
_space_group_name_Hall           'P -2yac'
loop_
_symmetry_equiv_pos_site_id
_symmetry_equiv_pos_as_xyz
1 x,y,z
2 1/2+x,-y,1/2+z
_cell_length_a                   6.9749(2)
_cell_length_b                   30.6660(8)
_cell_length_c                   7.3929(2)
_cell_angle_alpha                90
_cell_angle_beta                 92.0160(10)
_cell_angle_gamma                90
_cell_volume                     1580.31
_exptl_crystal_colour            colorless
_exptl_crystal_description       plate
_cell_formula_units_Z            4
loop_
_atom_site_label
_atom_site_type_symbol
_atom_site_fract_x
_atom_site_fract_y
_atom_site_fract_z
Cl1 Cl 0.19983(8) -0.110606(19) 0.19266(7)
O1 O 1.2034(2) 0.02820(5) 0.3417(2)
O2 O 1.1690(2) 0.18110(5) 0.3023(2)
O3 O 0.6441(2) 0.09697(5) 0.2027(2)
N1 N 0.9261(3) 0.06245(6) 0.2641(2)
N2 N 0.8976(3) 0.14007(6) 0.2884(2)
C1 C 0.4314(3) -0.09788(7) 0.2736(3)
C2 C 0.5577(3) -0.13157(7) 0.3156(3)
H1 H 0.5196 -0.1611 0.3004
C3 C 0.7406(4) -0.12114(8) 0.3800(3)
H2 H 0.8298 -0.1437 0.4091
C4 C 0.7945(3) -0.07769(7) 0.4023(3)
H3 H 0.9207 -0.0709 0.4461
C5 C 0.6670(3) -0.04425(7) 0.3615(3)
C6 C 0.4817(3) -0.05471(7) 0.2966(3)
H4 H 0.3915 -0.0323 0.2688
C7 C 0.7275(3) 0.00276(7) 0.3863(3)
H5 H 0.8136 0.0052 0.4953
H6 H 0.6126 0.0208 0.4065
C8 C 0.8308(3) 0.02031(7) 0.2229(3)
H7 H 0.9278 -0.0012 0.1859
H8 H 0.7370 0.0242 0.1205
C9 C 1.1148(3) 0.06213(7) 0.3219(3)
C10 C 1.2086(3) 0.10539(7) 0.3596(3)
H9 H 1.2441 0.1067 0.4903
H10 H 1.3292 0.1065 0.2930
C11 C 1.0938(3) 0.14539(7) 0.3116(3)
C12 C 0.8119(3) 0.09984(7) 0.2486(3)
C13 C 0.7676(3) 0.17854(7) 0.2875(3)
H11 H 0.6344 0.1674 0.3030
C14 C 0.8107(4) 0.21146(8) 0.4421(3)
H12 H 0.7056 0.2117 0.5287
H13 H 0.9321 0.2040 0.5082
C15 C 0.8268(5) 0.25580(8) 0.3476(4)
H14 H 0.7753 0.2794 0.4231
H15 H 0.9619 0.2625 0.3216
C16 C 0.7079(5) 0.25041(8) 0.1752(4)
H16 H 0.7398 0.2729 0.0852
H17 H 0.5691 0.2519 0.1982
C17 C 0.7654(4) 0.20487(8) 0.1114(3)
H18 H 0.6704 0.1931 0.0217
H19 H 0.8936 0.2052 0.0580
Cl2 Cl 0.17936(8) 0.39060(2) 0.15900(8)
O4 O 1.1704(2) 0.52838(5) 0.3098(2)
O5 O 1.1484(3) 0.68192(5) 0.3119(2)
O6 O 0.6235(2) 0.60050(5) 0.1542(2)
N3 N 0.8990(3) 0.56448(5) 0.2245(2)
N4 N 0.8822(3) 0.64261(5) 0.2363(3)
C18 C 0.4104(3) 0.40359(7) 0.2409(3)
C19 C 0.5386(4) 0.37033(7) 0.2812(3)
H20 H 0.5027 0.3407 0.2652
C20 C 0.7203(4) 0.38145(8) 0.3454(3)
H21 H 0.8107 0.3592 0.3750
C21 C 0.7724(3) 0.42507(7) 0.3672(3)
H22 H 0.8985 0.4322 0.4101
C22 C 0.6426(3) 0.45804(7) 0.3270(3)
C23 C 0.4581(3) 0.44694(7) 0.2635(3)
H23 H 0.3662 0.4691 0.2361
C24 C 0.7000(3) 0.50533(7) 0.3510(3)
H24 H 0.7872 0.5082 0.4589
H25 H 0.5842 0.5231 0.3716
C25 C 0.8000(3) 0.52256(7) 0.1853(3)
H26 H 0.8947 0.5008 0.1461
H27 H 0.7041 0.5268 0.0850
C26 C 1.0874(3) 0.56290(7) 0.2873(3)
C27 C 1.1840(3) 0.60546(7) 0.3283(3)
H28 H 1.3023 0.6067 0.2583
H29 H 1.2241 0.6054 0.4581
C28 C 1.0738(3) 0.64655(7) 0.2913(3)
C29 C 0.7902(4) 0.60258(7) 0.2029(3)
C30 C 0.7625(4) 0.68267(8) 0.2151(3)
H30 H 0.6344 0.6735 0.1633
C31 C 0.7283(4) 0.70557(8) 0.3960(3)
H31 H 0.6114 0.6943 0.4520
H32 H 0.8392 0.7016 0.4817
C32 C 0.7043(5) 0.75330(8) 0.3430(4)
H33 H 0.5736 0.7590 0.2917
H34 H 0.7287 0.7727 0.4485
C33 C 0.8518(4) 0.75980(8) 0.2036(4)
H35 H 0.9810 0.7634 0.2615
H36 H 0.8217 0.7858 0.1286
C34 C 0.8418(4) 0.71787(8) 0.0880(3)
H37 H 0.9706 0.7097 0.0474
H38 H 0.7551 0.7219 -0.0196
loop_
_geom_bond_atom_site_label_1
_geom_bond_atom_site_label_2
_geom_bond_site_symmetry_1
_geom_bond_site_symmetry_2
Cl1 C1 1_555 1_555
Cl2 C18 1_555 1_555
O1 C9 1_555 1_555
O2 C11 1_555 1_555
O3 C12 1_555 1_555
O4 C26 1_555 1_555
O5 C28 1_555 1_555
O6 C29 1_555 1_555
N1 C8 1_555 1_555
N2 C11 1_555 1_555
N3 C25 1_555 1_555
N4 C28 1_555 1_555
C1 C2 1_555 1_555
C2 H1 1_555 1_555
C3 C2 1_555 1_555
H2 C3 1_555 1_555
C4 C3 1_555 1_555
H3 C4 1_555 1_555
C5 C4 1_555 1_555
C6 C1 1_555 1_555
H4 C6 1_555 1_555
C7 C5 1_555 1_555
H5 C7 1_555 1_555
H6 C7 1_555 1_555
C8 C7 1_555 1_555
H7 C8 1_555 1_555
H8 C8 1_555 1_555
C9 N1 1_555 1_555
C10 C9 1_555 1_555
H9 C10 1_555 1_555
H10 C10 1_555 1_555
C11 C10 1_555 1_555
C12 N1 1_555 1_555
C13 N2 1_555 1_555
H11 C13 1_555 1_555
C14 C13 1_555 1_555
H12 C14 1_555 1_555
H13 C14 1_555 1_555
C15 C14 1_555 1_555
H14 C15 1_555 1_555
H15 C15 1_555 1_555
C16 C15 1_555 1_555
H16 C16 1_555 1_555
H17 C16 1_555 1_555
C17 C13 1_555 1_555
H18 C17 1_555 1_555
H19 C17 1_555 1_555
C18 C19 1_555 1_555
C19 H20 1_555 1_555
C20 C19 1_555 1_555
H21 C20 1_555 1_555
C21 C20 1_555 1_555
H22 C21 1_555 1_555
C22 C21 1_555 1_555
C23 C18 1_555 1_555
H23 C23 1_555 1_555
C24 C22 1_555 1_555
H24 C24 1_555 1_555
H25 C24 1_555 1_555
C25 C24 1_555 1_555
H26 C25 1_555 1_555
H27 C25 1_555 1_555
C26 N3 1_555 1_555
C27 C26 1_555 1_555
H28 C27 1_555 1_555
H29 C27 1_555 1_555
C28 C27 1_555 1_555
C29 N3 1_555 1_555
C30 N4 1_555 1_555
H30 C30 1_555 1_555
C31 C30 1_555 1_555
H31 C31 1_555 1_555
H32 C31 1_555 1_555
C32 C31 1_555 1_555
H33 C32 1_555 1_555
H34 C32 1_555 1_555
C33 C32 1_555 1_555
H35 C33 1_555 1_555
H36 C33 1_555 1_555
C34 C30 1_555 1_555
H37 C34 1_555 1_555
H38 C34 1_555 1_555
N2 C12 1_555 1_555
N4 C29 1_555 1_555
C5 C6 1_555 1_555
C16 C17 1_555 1_555
C22 C23 1_555 1_555
C33 C34 1_555 1_555

#END
