
#######################################################################
#
#                 Cambridge Crystallographic Data Centre
#                                CCDC 
#
#######################################################################
#
# If this CIF has been generated from an entry in the Cambridge 
# Structural Database, then it will include bibliographic, chemical, 
# crystal, experimental, refinement or atomic coordinate data resulting 
# from the CCDC's data processing and validation procedures.
#
#######################################################################

data_YENBAX
_chemical_formula_moiety         'C24 H22 N1 O2 1+,H2 O1,Br1 1-'
_chemical_name_systematic        
'1-{4-[(anthracen-9-yl)methoxy]-4-oxobutyl}pyridin-1-ium bromide monohydrate'
_symmetry_cell_setting           monoclinic
_symmetry_space_group_name_H-M   'P 21/c'
_symmetry_Int_Tables_number      14
_space_group_name_Hall           '-P 2ybc'
loop_
_symmetry_equiv_pos_site_id
_symmetry_equiv_pos_as_xyz
1 x,y,z
2 -x,1/2+y,1/2-z
3 -x,-y,-z
4 x,1/2-y,1/2+z
_cell_length_a                   14.307(2)
_cell_length_b                   8.1706(12)
_cell_length_c                   18.108(3)
_cell_angle_alpha                90
_cell_angle_beta                 106.179(3)
_cell_angle_gamma                90
_cell_volume                     2032.93
_cell_formula_units_Z            4
loop_
_atom_site_label
_atom_site_type_symbol
_atom_site_fract_x
_atom_site_fract_y
_atom_site_fract_z
Br1 Br 0.061587(14) 0.63707(2) 0.363209(10)
O1 O 0.42832(9) 0.38200(16) 0.32277(7)
O2 O 0.36929(8) 0.45731(15) 0.19902(6)
N1 N 0.14828(11) 0.13787(17) 0.40605(8)
C1 C 0.36245(12) 0.3871(2) 0.26468(10)
C2 C 0.26185(12) 0.3200(2) 0.25635(10)
C3 C 0.25474(12) 0.2522(2) 0.33302(9)
C4 C 0.15337(13) 0.1893(2) 0.32828(10)
C5 C 0.09608(13) 0.2265(2) 0.44328(11)
C6 C 0.09203(15) 0.1793(3) 0.51546(11)
C7 C 0.14203(14) 0.0412(3) 0.54942(11)
C8 C 0.19498(15) -0.0471(3) 0.51005(11)
C9 C 0.19620(14) 0.0031(2) 0.43782(10)
C10 C 0.45779(12) 0.5527(2) 0.20557(10)
C11 C 0.54673(12) 0.4512(2) 0.20716(9)
C12 C 0.62868(12) 0.4488(2) 0.27233(9)
C13 C 0.63258(13) 0.5303(2) 0.34341(10)
C14 C 0.71404(13) 0.5264(2) 0.40402(10)
C15 C 0.79916(14) 0.4417(2) 0.39959(10)
C16 C 0.79888(14) 0.3613(2) 0.33371(11)
C17 C 0.71442(13) 0.36045(19) 0.26876(10)
C18 C 0.71514(12) 0.2758(2) 0.20208(10)
C19 C 0.63401(12) 0.2753(2) 0.13766(9)
C20 C 0.63570(13) 0.1901(2) 0.0687(1)
C21 C 0.55710(14) 0.1908(2) 0.00627(10)
C22 C 0.47209(14) 0.2764(2) 0.00865(10)
C23 C 0.46721(13) 0.3605(2) 0.07246(10)
C24 C 0.54858(13) 0.36441(19) 0.1400(1)
H1 H 0.2476 0.2321 0.2172
H2 H 0.2131 0.4080 0.2388
H3 H 0.3021 0.1619 0.3493
H4 H 0.2721 0.3394 0.3725
H5 H 0.1049 0.2765 0.3082
H6 H 0.1378 0.0951 0.2925
H7 H 0.0621 0.3214 0.4198
H8 H 0.0551 0.2412 0.5418
H9 H 0.1399 0.0078 0.5992
H10 H 0.2302 -0.1417 0.5326
H11 H 0.2315 -0.0586 0.4101
H12 H 0.4716 0.6189 0.2532
H13 H 0.4458 0.6295 0.1616
H14 H 0.5770 0.5882 0.3482
H15 H 0.7141 0.5814 0.4502
H16 H 0.8557 0.4412 0.4422
H17 H 0.8557 0.3047 0.3307
H18 H 0.7719 0.2173 0.2004
H19 H 0.6927 0.1326 0.0668
H20 H 0.5591 0.1338 -0.0390
H21 H 0.4171 0.2752 -0.0352
H22 H 0.4092 0.4174 0.0722
O3 O 0.04505(11) 0.5071(2) 0.18684(9)
H23 H 0.0450(20) 0.5290(40) 0.2287(18)
H24 H 0.0178(18) 0.4220(40) 0.1780(14)
loop_
_geom_bond_atom_site_label_1
_geom_bond_atom_site_label_2
_geom_bond_site_symmetry_1
_geom_bond_site_symmetry_2
O1 C1 1_555 1_555
O2 C1 1_555 1_555
N1 C4 1_555 1_555
C1 C2 1_555 1_555
C2 C3 1_555 1_555
C3 C4 1_555 1_555
C4 H5 1_555 1_555
C5 N1 1_555 1_555
C6 C5 1_555 1_555
C7 C6 1_555 1_555
C8 C7 1_555 1_555
C9 N1 1_555 1_555
C10 O2 1_555 1_555
C11 C10 1_555 1_555
C12 C11 1_555 1_555
C13 C12 1_555 1_555
C14 C13 1_555 1_555
C15 C14 1_555 1_555
C16 C15 1_555 1_555
C17 C12 1_555 1_555
C18 C17 1_555 1_555
C19 C18 1_555 1_555
C20 C19 1_555 1_555
C21 C20 1_555 1_555
C22 C21 1_555 1_555
C23 C22 1_555 1_555
C24 C11 1_555 1_555
H1 C2 1_555 1_555
H2 C2 1_555 1_555
H3 C3 1_555 1_555
H4 C3 1_555 1_555
H6 C4 1_555 1_555
H7 C5 1_555 1_555
H8 C6 1_555 1_555
H9 C7 1_555 1_555
H10 C8 1_555 1_555
H11 C9 1_555 1_555
H12 C10 1_555 1_555
H13 C10 1_555 1_555
H14 C13 1_555 1_555
H15 C14 1_555 1_555
H16 C15 1_555 1_555
H17 C16 1_555 1_555
H18 C18 1_555 1_555
H19 C20 1_555 1_555
H20 C21 1_555 1_555
H21 C22 1_555 1_555
H22 C23 1_555 1_555
O3 H23 1_555 1_555
H24 O3 1_555 1_555
C8 C9 1_555 1_555
C16 C17 1_555 1_555
C19 C24 1_555 1_555
C23 C24 1_555 1_555

#END
