
#######################################################################
#
#                 Cambridge Crystallographic Data Centre
#                                CCDC 
#
#######################################################################
#
# If this CIF has been generated from an entry in the Cambridge 
# Structural Database, then it will include bibliographic, chemical, 
# crystal, experimental, refinement or atomic coordinate data resulting 
# from the CCDC's data processing and validation procedures.
#
#######################################################################

data_YENDOM
_chemical_formula_moiety         'C8 H16 N2 O4'
_chemical_name_systematic        
(R,S)-2,3-Dihydroxy-N,N,N',N'-tetramethylsuccinamide
_symmetry_cell_setting           triclinic
_symmetry_space_group_name_H-M   'P -1'
_symmetry_Int_Tables_number      2
_space_group_name_Hall           '-P 1'
loop_
_symmetry_equiv_pos_site_id
_symmetry_equiv_pos_as_xyz
1 x,y,z
2 -x,-y,-z
_cell_length_a                   5.8659(3)
_cell_length_b                   6.8565(3)
_cell_length_c                   7.4752(3)
_cell_angle_alpha                67.548(4)
_cell_angle_beta                 68.162(4)
_cell_angle_gamma                72.757(4)
_cell_volume                     253.711
_exptl_crystal_colour            colorless
_exptl_crystal_description       needle
_cell_formula_units_Z            1
loop_
_atom_site_label
_atom_site_type_symbol
_atom_site_fract_x
_atom_site_fract_y
_atom_site_fract_z
C1 C 0.4310(3) 0.8377(2) 0.3693(2)
O1 O 0.2218(2) 0.9026(2) 0.34663(19)
N1 N 0.6130(2) 0.7292(2) 0.25414(19)
C2 C 0.5638(4) 0.6896(3) 0.0945(3)
H1 H 0.6391 0.7845 -0.0349
H2 H 0.3866 0.7149 0.1165
H3 H 0.6331 0.5434 0.0954
C3 C 0.8681(3) 0.6530(3) 0.2620(3)
H4 H 0.9800 0.6635 0.1275
H5 H 0.8878 0.5054 0.3455
H6 H 0.9094 0.7385 0.3183
C4 C 0.4706(3) 0.8860(2) 0.5395(2)
H7 H 0.6114 0.7821 0.5813
O2 O 0.2528(2) 0.86834(18) 0.70715(15)
H8 H 0.130(4) 0.927(4) 0.667(3)
C1A C 0.5690(3) 1.1623(2) 0.6307(2)
O1A O 0.7782(2) 1.0974(2) 0.65337(19)
N1A N 0.3870(2) 1.2708(2) 0.74586(19)
C2A C 0.4362(4) 1.3104(3) 0.9055(3)
H1A H 0.3609 1.2155 1.0349
H2A H 0.6134 1.2851 0.8835
H3A H 0.3669 1.4566 0.9046
C3A C 0.1319(3) 1.3470(3) 0.7380(3)
H4A H 0.0200 1.3365 0.8725
H5A H 0.1122 1.4946 0.6545
H6A H 0.0906 1.2615 0.6817
C4A C 0.5294(3) 1.1140(2) 0.4605(2)
H7A H 0.3886 1.2179 0.4187
O2A O 0.7472(2) 1.13166(18) 0.29285(15)
H8A H 0.870(4) 1.073(4) 0.333(3)
H9? H 0.4268 0.7954 0.0561
H10? H 0.4774 1.4507 0.8568
H11? H 0.2902 1.3019 1.0208
H12? H 0.0709 1.4833 0.7630
H13? H 0.1258 1.3626 0.6066
H14? H 0.0297 1.2458 0.8392
loop_
_geom_bond_atom_site_label_1
_geom_bond_atom_site_label_2
_geom_bond_site_symmetry_1
_geom_bond_site_symmetry_2
C1 O1 1_555 1_555
N1 C1 1_555 1_555
C2 N1 1_555 1_555
H1 C2 1_555 1_555
H2 C2 1_555 1_555
H3 C2 1_555 1_555
C3 N1 1_555 1_555
H4 C3 1_555 1_555
H5 C3 1_555 1_555
H6 C3 1_555 1_555
C4 C1 1_555 1_555
H7 C4 1_555 1_555
O2 C4 1_555 1_555
H8 O2 1_555 1_555
C1A O1A 1_555 1_555
N1A C1A 1_555 1_555
C2A N1A 1_555 1_555
H1A C2A 1_555 1_555
H2A C2A 1_555 1_555
H3A C2A 1_555 1_555
C3A N1A 1_555 1_555
H4A C3A 1_555 1_555
H5A C3A 1_555 1_555
H6A C3A 1_555 1_555
C4A C4 1_555 1_555
H7A C4A 1_555 1_555
O2A C4A 1_555 1_555
H8A O2A 1_555 1_555
C1A C4A 1_555 1_555

#END
