
#######################################################################
#
#                 Cambridge Crystallographic Data Centre
#                                CCDC 
#
#######################################################################
#
# If this CIF has been generated from an entry in the Cambridge 
# Structural Database, then it will include bibliographic, chemical, 
# crystal, experimental, refinement or atomic coordinate data resulting 
# from the CCDC's data processing and validation procedures.
#
#######################################################################

data_YENMIP
_chemical_formula_moiety         'C8 H12 Li1 N4 1+,C24 B1 F20 1-'
_chemical_name_systematic        
'tetrakis(acetonitrile)-lithium tetrakis(pentafluorophenyl)borate'
_symmetry_cell_setting           monoclinic
_symmetry_space_group_name_H-M   'P 21/n'
_symmetry_Int_Tables_number      14
_space_group_name_Hall           '-P 2yn'
loop_
_symmetry_equiv_pos_site_id
_symmetry_equiv_pos_as_xyz
1 x,y,z
2 1/2-x,1/2+y,1/2-z
3 -x,-y,-z
4 1/2+x,1/2-y,1/2+z
_cell_length_a                   11.4260(5)
_cell_length_b                   16.3172(7)
_cell_length_c                   19.1740(9)
_cell_angle_alpha                90
_cell_angle_beta                 106.537(2)
_cell_angle_gamma                90
_cell_volume                     3426.94
_exptl_crystal_colour            colorless
_cell_formula_units_Z            4
loop_
_atom_site_label
_atom_site_type_symbol
_atom_site_fract_x
_atom_site_fract_y
_atom_site_fract_z
F1 F 0.97736(7) 0.61985(4) 0.17988(4)
F2 F 1.10815(7) 0.54094(5) 0.10623(4)
F3 F 1.08493(8) 0.57974(5) -0.03522(5)
F4 F 0.92148(8) 0.69723(6) -0.10210(4)
F5 F 0.78642(7) 0.77447(5) -0.03078(4)
F6 F 0.90218(7) 0.88934(5) 0.07429(4)
F7 F 1.10139(7) 0.97499(5) 0.13688(5)
F8 F 1.22974(8) 0.94622(6) 0.27850(5)
F9 F 1.15276(8) 0.82496(5) 0.35340(5)
F10 F 0.96142(7) 0.73478(5) 0.29111(4)
F11 F 0.60478(7) 0.68411(5) 0.01615(5)
F12 F 0.39183(9) 0.75441(8) -0.05036(6)
F13 F 0.34338(8) 0.91036(8) -0.01455(7)
F14 F 0.51433(9) 0.99284(6) 0.08990(6)
F15 F 0.72982(8) 0.92746(5) 0.15253(5)
F16 F 0.73927(7) 0.56537(5) 0.11649(4)
F17 F 0.62330(8) 0.48540(5) 0.19618(5)
F18 F 0.56302(9) 0.56117(5) 0.30815(5)
F19 F 0.62243(9) 0.72179(5) 0.33715(5)
F20 F 0.73343(7) 0.80502(4) 0.25549(4)
C1 C 0.87115(11) 0.69938(7) 0.07842(7)
C2 C 0.95793(11) 0.64004(8) 0.10892(7)
C3 C 1.02780(12) 0.59888(8) 0.07263(7)
C4 C 1.01517(12) 0.61778(8) 0.00082(8)
C5 C 0.93205(12) 0.67651(9) -0.03259(7)
C6 C 0.86296(11) 0.71581(8) 0.00613(7)
C7 C 0.91793(11) 0.80781(7) 0.17874(7)
C8 C 0.96198(11) 0.87065(8) 0.14431(7)
C9 C 1.06481(12) 0.91613(8) 0.17550(8)
C10 C 1.13017(12) 0.90159(8) 0.24647(8)
C11 C 1.09081(12) 0.84073(8) 0.28398(7)
C12 C 0.98838(12) 0.79513(8) 0.24973(7)
C13 C 0.68124(11) 0.80227(8) 0.08636(7)
C14 C 0.58825(13) 0.76235(9) 0.03449(8)
C15 C 0.47621(13) 0.79685(12) -0.00018(9)
C16 C 0.45175(13) 0.87493(12) 0.01774(10)
C17 C 0.53878(14) 0.91706(10) 0.06964(10)
C18 C 0.65083(12) 0.88090(9) 0.10215(8)
C19 C 0.74575(11) 0.69027(8) 0.18246(7)
C20 C 0.71378(11) 0.60843(8) 0.17091(7)
C21 C 0.65396(12) 0.56441(8) 0.21213(7)
C22 C 0.62284(13) 0.60217(9) 0.26826(8)
C23 C 0.65220(13) 0.68351(8) 0.28239(7)
C24 C 0.71035(12) 0.72492(8) 0.23948(7)
B1 B 0.80384(12) 0.75008(8) 0.13101(7)
N1 N 0.36826(13) 0.63535(9) 0.11012(8)
N2 N 0.18804(12) 0.79133(8) 0.07510(8)
N3 N 0.42623(12) 0.82249(8) 0.20608(8)
N4 N 0.25579(13) 0.67903(9) 0.23994(9)
C25 C 0.36801(14) 0.57342(10) 0.08340(8)
C26 C 0.36491(19) 0.49321(12) 0.04964(10)
C27 C 0.13470(13) 0.83155(10) 0.02810(8)
C28 C 0.06635(15) 0.88323(11) -0.03140(8)
C29 C 0.48525(13) 0.87096(9) 0.24174(8)
C30 C 0.56102(16) 0.93284(10) 0.28759(9)
C31 C 0.22312(14) 0.64480(10) 0.28264(9)
C32 C 0.17892(15) 0.60141(10) 0.33608(9)
Li1 Li 0.3111(2) 0.73249(16) 0.15824(16)
H1 H 0.29710 0.46120 0.05730
H2 H 0.44200 0.46450 0.07160
H3 H 0.35360 0.50000 -0.00270
H4 H -0.00070 0.90990 -0.01770
H5 H 0.03300 0.84950 -0.07480
H6 H 0.12070 0.92500 -0.04180
H7 H 0.62410 0.90610 0.32650
H8 H 0.51030 0.96750 0.30900
H9 H 0.59980 0.96670 0.25820
H10 H 0.09950 0.62380 0.33650
H11 H 0.23720 0.60800 0.38430
H12 H 0.17010 0.54310 0.32350
H13? H -0.01870 0.86460 -0.04770
H14? H 0.06900 0.94010 -0.01470
H15? H 0.10270 0.87970 -0.07190
loop_
_geom_bond_atom_site_label_1
_geom_bond_atom_site_label_2
_geom_bond_site_symmetry_1
_geom_bond_site_symmetry_2
F1 C2 1_555 1_555
F2 C3 1_555 1_555
F3 C4 1_555 1_555
F4 C5 1_555 1_555
F5 C6 1_555 1_555
F6 C8 1_555 1_555
F7 C9 1_555 1_555
F8 C10 1_555 1_555
F9 C11 1_555 1_555
F10 C12 1_555 1_555
F11 C14 1_555 1_555
F12 C15 1_555 1_555
F13 C16 1_555 1_555
F14 C17 1_555 1_555
F15 C18 1_555 1_555
F16 C20 1_555 1_555
F17 C21 1_555 1_555
F18 C22 1_555 1_555
F19 C23 1_555 1_555
F20 C24 1_555 1_555
C1 C2 1_555 1_555
C2 C3 1_555 1_555
C3 C4 1_555 1_555
C4 C5 1_555 1_555
C5 C6 1_555 1_555
C6 C1 1_555 1_555
C7 C8 1_555 1_555
C8 C9 1_555 1_555
C9 C10 1_555 1_555
C10 C11 1_555 1_555
C11 C12 1_555 1_555
C12 C7 1_555 1_555
C13 C14 1_555 1_555
C14 C15 1_555 1_555
C15 C16 1_555 1_555
C16 C17 1_555 1_555
C17 C18 1_555 1_555
C18 C13 1_555 1_555
C19 C20 1_555 1_555
C20 C21 1_555 1_555
C21 C22 1_555 1_555
C22 C23 1_555 1_555
C23 C24 1_555 1_555
C24 C19 1_555 1_555
B1 C1 1_555 1_555
N1 C25 1_555 1_555
N2 C27 1_555 1_555
N3 C29 1_555 1_555
N4 C31 1_555 1_555
C25 C26 1_555 1_555
C26 H1 1_555 1_555
C27 C28 1_555 1_555
C28 H4 1_555 1_555
C29 C30 1_555 1_555
C30 H7 1_555 1_555
C31 C32 1_555 1_555
C32 H10 1_555 1_555
Li1 N1 1_555 1_555
H2 C26 1_555 1_555
H3 C26 1_555 1_555
H5 C28 1_555 1_555
H6 C28 1_555 1_555
H8 C30 1_555 1_555
H9 C30 1_555 1_555
H11 C32 1_555 1_555
H12 C32 1_555 1_555
C7 B1 1_555 1_555
C13 B1 1_555 1_555
C19 B1 1_555 1_555
N2 Li1 1_555 1_555
N3 Li1 1_555 1_555
N4 Li1 1_555 1_555

#END
