
#######################################################################
#
#                 Cambridge Crystallographic Data Centre
#                                CCDC 
#
#######################################################################
#
# If this CIF has been generated from an entry in the Cambridge 
# Structural Database, then it will include bibliographic, chemical, 
# crystal, experimental, refinement or atomic coordinate data resulting 
# from the CCDC's data processing and validation procedures.
#
#######################################################################

data_YENQUE
_chemical_formula_moiety         'C24 H21 N1 O3 S1'
_chemical_name_systematic        
trans-7-(2',5'-Dimethoxyphenyl)-6H-6a,7-dihydro(1)benzopyrano(3,4-c)(1,5)benzothiazepine
_symmetry_cell_setting           triclinic
_symmetry_space_group_name_H-M   'P -1'
_symmetry_Int_Tables_number      2
_space_group_name_Hall           '-P 1'
loop_
_symmetry_equiv_pos_site_id
_symmetry_equiv_pos_as_xyz
1 x,y,z
2 -x,-y,-z
_cell_length_a                   9.0849(6)
_cell_length_b                   10.6003(7)
_cell_length_c                   11.3585(8)
_cell_angle_alpha                105.009(1)
_cell_angle_beta                 105.719(1)
_cell_angle_gamma                95.398(1)
_cell_volume                     1001.03
_exptl_crystal_colour            colorless
_exptl_crystal_description       plates
_chemical_melting_point          '180-183 deg.C'
_cell_formula_units_Z            2
loop_
_atom_site_label
_atom_site_type_symbol
_atom_site_fract_x
_atom_site_fract_y
_atom_site_fract_z
C1 C 0.8790(2) 0.53894(18) 0.78934(17)
H1 H 0.8009 0.5846 0.7607
C2 C 1.0275(2) 0.6078(2) 0.85617(19)
H2 H 1.0495 0.6991 0.8715
C3 C 1.1434(2) 0.5406(2) 0.90021(19)
H3 H 1.2436 0.5871 0.9447
C4 C 1.1126(2) 0.4066(2) 0.87917(18)
H4 H 1.1911 0.3625 0.9104
C5 C 0.96352(19) 0.33632(18) 0.81088(16)
O1 O 0.94056(13) 0.20290(13) 0.79411(13)
C6 C 0.8083(2) 0.12848(17) 0.68928(19)
H5 H 0.7942 0.0369 0.6900
H6 H 0.8272 0.1300 0.6096
C7 C 0.66072(17) 0.18287(15) 0.69488(15)
H7 H 0.5776 0.1338 0.6161
C8 C 0.61041(17) 0.16500(15) 0.80915(15)
H8 H 0.7007 0.2014 0.8859
S1 S 0.45791(5) 0.26319(4) 0.83113(4)
C9 C 0.35458(18) 0.25372(15) 0.67168(15)
C10 C 0.19973(19) 0.19154(18) 0.62013(18)
H9 H 0.1534 0.1516 0.6682
C11 C 0.1143(2) 0.1885(2) 0.4987(2)
H10 H 0.0108 0.1470 0.4652
C12 C 0.1833(2) 0.2474(2) 0.42687(19)
H11 H 0.1261 0.2440 0.3443
C13 C 0.3355(2) 0.31090(18) 0.47652(18)
H12 H 0.3799 0.3518 0.4280
C14 C 0.42422(18) 0.31446(15) 0.59931(16)
N1 N 0.57762(16) 0.38548(13) 0.64884(14)
C15 C 0.68491(18) 0.32762(15) 0.69892(15)
C16 C 0.84426(18) 0.40155(16) 0.76412(15)
C17 C 0.56170(18) 0.02065(15) 0.79785(15)
C18 C 0.4345(2) -0.05653(17) 0.69951(17)
H13 H 0.3813 -0.0194 0.6385
C19 C 0.3836(2) -0.18743(17) 0.68870(18)
C20 C 0.4645(2) -0.24391(19) 0.7779(2)
H14 H 0.4325 -0.3320 0.7717
C21 C 0.5932(2) -0.1683(2) 0.8763(2)
H15 H 0.6476 -0.2065 0.9359
C22 C 0.6427(2) -0.03665(18) 0.88810(17)
O2 O 0.25320(18) -0.25029(13) 0.58760(15)
C23 C 0.1991(3) -0.3856(2) 0.5684(2)
H16 H 0.2802 -0.4354 0.5584
H17 H 0.1109 -0.4182 0.4927
H18 H 0.1695 -0.3952 0.6410
O3 O 0.76847(16) 0.04424(14) 0.98384(14)
C24 C 0.8451(3) -0.0076(3) 1.0823(3)
H19 H 0.7726 -0.0336 1.1231
H20 H 0.9284 0.0590 1.1444
H21 H 0.8862 -0.0834 1.0462
loop_
_geom_bond_atom_site_label_1
_geom_bond_atom_site_label_2
_geom_bond_site_symmetry_1
_geom_bond_site_symmetry_2
C1 H1 1_555 1_555
C2 C1 1_555 1_555
H2 C2 1_555 1_555
C3 C2 1_555 1_555
H3 C3 1_555 1_555
C4 C3 1_555 1_555
H4 C4 1_555 1_555
C5 C4 1_555 1_555
O1 C5 1_555 1_555
C6 O1 1_555 1_555
H5 C6 1_555 1_555
H6 C6 1_555 1_555
C7 C6 1_555 1_555
H7 C7 1_555 1_555
C8 C7 1_555 1_555
H8 C8 1_555 1_555
S1 C8 1_555 1_555
C9 S1 1_555 1_555
C10 C9 1_555 1_555
H9 C10 1_555 1_555
C11 C10 1_555 1_555
H10 C11 1_555 1_555
C12 C11 1_555 1_555
H11 C12 1_555 1_555
C13 C12 1_555 1_555
H12 C13 1_555 1_555
C14 C9 1_555 1_555
N1 C14 1_555 1_555
C15 C7 1_555 1_555
C16 C1 1_555 1_555
C17 C8 1_555 1_555
C18 C17 1_555 1_555
H13 C18 1_555 1_555
C19 C18 1_555 1_555
C20 C19 1_555 1_555
H14 C20 1_555 1_555
C21 C20 1_555 1_555
H15 C21 1_555 1_555
C22 C17 1_555 1_555
O2 C19 1_555 1_555
C23 O2 1_555 1_555
H16 C23 1_555 1_555
H17 C23 1_555 1_555
H18 C23 1_555 1_555
O3 C22 1_555 1_555
C24 O3 1_555 1_555
H19 C24 1_555 1_555
H20 C24 1_555 1_555
H21 C24 1_555 1_555
C5 C16 1_555 1_555
C13 C14 1_555 1_555
N1 C15 1_555 1_555
C15 C16 1_555 1_555
C21 C22 1_555 1_555

#END
