
#######################################################################
#
#                 Cambridge Crystallographic Data Centre
#                                CCDC 
#
#######################################################################
#
# If this CIF has been generated from an entry in the Cambridge 
# Structural Database, then it will include bibliographic, chemical, 
# crystal, experimental, refinement or atomic coordinate data resulting 
# from the CCDC's data processing and validation procedures.
#
#######################################################################

data_YENRAL
_chemical_formula_moiety         'C22 H17 N1 O1 S1'
_chemical_name_systematic        
trans-7-Phenyl-6H-6a,7-dihydro(1)benzopyrano(3,4-c)(1,5)benzothiazepine
_symmetry_cell_setting           monoclinic
_symmetry_space_group_name_H-M   'P 21/n'
_symmetry_Int_Tables_number      14
_space_group_name_Hall           '-P 2yn'
loop_
_symmetry_equiv_pos_site_id
_symmetry_equiv_pos_as_xyz
1 x,y,z
2 1/2-x,1/2+y,1/2-z
3 -x,-y,-z
4 1/2+x,1/2-y,1/2+z
_cell_length_a                   16.8127(13)
_cell_length_b                   5.0858(4)
_cell_length_c                   20.3917(16)
_cell_angle_alpha                90
_cell_angle_beta                 96.903(2)
_cell_angle_gamma                90
_cell_volume                     1730.97
_exptl_crystal_colour            colorless
_exptl_crystal_description       rods
_chemical_melting_point          '170-172 deg.C'
_cell_formula_units_Z            4
loop_
_atom_site_label
_atom_site_type_symbol
_atom_site_fract_x
_atom_site_fract_y
_atom_site_fract_z
C1 C 0.89661(19) 1.0585(6) 1.09789(15)
H1 H 0.9409 1.0628 1.0747
C2 C 0.8976(2) 1.2008(8) 1.15543(17)
H2 H 0.9425 1.2989 1.1713
C3 C 0.8315(3) 1.1966(8) 1.18927(17)
H3 H 0.8322 1.2928 1.2281
C4 C 0.7650(2) 1.0535(7) 1.16675(16)
H4 H 0.7206 1.0530 1.1899
C5 C 0.76421(18) 0.9089(6) 1.10893(14)
O1 O 0.69449(13) 0.7761(4) 1.08822(10)
C6 C 0.70263(19) 0.5712(6) 1.04147(15)
H5 H 0.6498 0.5061 1.0248
H6 H 0.7325 0.4269 1.0636
C7 C 0.74488(15) 0.6617(5) 0.98398(13)
H7 H 0.7528 0.5081 0.9565
C8 C 0.69683(14) 0.8672(5) 0.94040(12)
H8 H 0.6856 1.0118 0.9697
S1 S 0.75927(4) 1.00450(13) 0.88089(3)
C9 C 0.82504(14) 0.7430(5) 0.86670(12)
C10 C 0.82418(16) 0.6492(6) 0.80253(13)
H9 H 0.7877 0.7176 0.7690
C11 C 0.87680(18) 0.4561(6) 0.78821(15)
H10 H 0.8756 0.3935 0.7452
C12 C 0.93121(17) 0.3561(6) 0.83779(15)
H11 H 0.9661 0.2234 0.8282
C13 C 0.93475(16) 0.4495(6) 0.90135(14)
H12 H 0.9725 0.3824 0.9342
C14 C 0.88169(14) 0.6452(5) 0.91655(13)
N1 N 0.88969(13) 0.7466(4) 0.98153(10)
C15 C 0.82664(15) 0.7687(5) 1.01031(12)
C16 C 0.83011(17) 0.9082(5) 1.07398(13)
C17 C 0.61677(15) 0.7677(5) 0.90874(13)
C18 C 0.61090(18) 0.5603(5) 0.86387(15)
H13 H 0.6572 0.4774 0.8538
C19 C 0.5373(2) 0.4760(7) 0.83419(17)
H14 H 0.5340 0.3379 0.8041
C20 C 0.4687(2) 0.5975(8) 0.8493(2)
H15 H 0.4191 0.5401 0.8295
C21 C 0.47282(19) 0.8007(8) 0.89294(19)
H16 H 0.4262 0.8818 0.9029
C22 C 0.54710(17) 0.8867(6) 0.92268(16)
H17 H 0.5498 1.0263 0.9523
loop_
_geom_bond_atom_site_label_1
_geom_bond_atom_site_label_2
_geom_bond_site_symmetry_1
_geom_bond_site_symmetry_2
C1 H1 1_555 1_555
C2 C1 1_555 1_555
H2 C2 1_555 1_555
C3 C2 1_555 1_555
H3 C3 1_555 1_555
C4 C3 1_555 1_555
H4 C4 1_555 1_555
C5 C4 1_555 1_555
O1 C5 1_555 1_555
C6 O1 1_555 1_555
H5 C6 1_555 1_555
H6 C6 1_555 1_555
C7 C6 1_555 1_555
H7 C7 1_555 1_555
C8 C7 1_555 1_555
H8 C8 1_555 1_555
S1 C8 1_555 1_555
C9 S1 1_555 1_555
C10 C9 1_555 1_555
H9 C10 1_555 1_555
C11 C10 1_555 1_555
H10 C11 1_555 1_555
C12 C11 1_555 1_555
H11 C12 1_555 1_555
C13 C12 1_555 1_555
H12 C13 1_555 1_555
C14 C9 1_555 1_555
N1 C14 1_555 1_555
C15 C7 1_555 1_555
C16 C1 1_555 1_555
C17 C8 1_555 1_555
C18 C17 1_555 1_555
H13 C18 1_555 1_555
C19 C18 1_555 1_555
H14 C19 1_555 1_555
C20 C19 1_555 1_555
H15 C20 1_555 1_555
C21 C20 1_555 1_555
H16 C21 1_555 1_555
C22 C17 1_555 1_555
H17 C22 1_555 1_555
C5 C16 1_555 1_555
C13 C14 1_555 1_555
N1 C15 1_555 1_555
C15 C16 1_555 1_555
C21 C22 1_555 1_555

#END
