
#######################################################################
#
#                 Cambridge Crystallographic Data Centre
#                                CCDC 
#
#######################################################################
#
# If this CIF has been generated from an entry in the Cambridge 
# Structural Database, then it will include bibliographic, chemical, 
# crystal, experimental, refinement or atomic coordinate data resulting 
# from the CCDC's data processing and validation procedures.
#
#######################################################################

data_YENSES
_chemical_formula_moiety         'C12 H20 N4 2+,2(F6 P1 1-)'
_chemical_name_systematic        
"1,1'-(butane-1,4-diyl)bis(3-methyl-1H-imidazol-3-ium) bis(hexafluorophosphate)"
_symmetry_cell_setting           triclinic
_symmetry_space_group_name_H-M   'P -1'
_symmetry_Int_Tables_number      2
_space_group_name_Hall           '-P 1'
loop_
_symmetry_equiv_pos_site_id
_symmetry_equiv_pos_as_xyz
1 x,y,z
2 -x,-y,-z
_cell_length_a                   7.388(4)
_cell_length_b                   8.499(4)
_cell_length_c                   9.347(4)
_cell_angle_alpha                90.198(5)
_cell_angle_beta                 106.496(5)
_cell_angle_gamma                113.042(5)
_cell_volume                     513.464
_exptl_crystal_colour            colorless
_exptl_crystal_description       block
_cell_formula_units_Z            1
loop_
_atom_site_label
_atom_site_type_symbol
_atom_site_fract_x
_atom_site_fract_y
_atom_site_fract_z
P1 P 0.41723(14) 0.25954(11) 0.71920(9)
F1 F 0.4215(6) 0.1032(4) 0.8039(4)
F2 F 0.4080(7) 0.4167(4) 0.6365(4)
F3 F 0.4754(6) 0.3674(4) 0.8758(3)
F4 F 0.3621(5) 0.1575(4) 0.5596(3)
F5 F 0.6543(5) 0.3271(6) 0.7406(4)
F6 F 0.1799(5) 0.1942(7) 0.6945(4)
N1 N 1.0245(4) 0.2575(4) 0.1802(3)
N2 N 0.8571(4) 0.2861(4) 0.3243(3)
C1 C 1.0056(5) 0.2416(4) 0.3156(4)
H1 H 1.0845 0.2048 0.3929
C2 C 0.8804(6) 0.3131(5) 0.0986(4)
H2 H 0.8590 0.3344 -0.0010
C3 C 0.7763(6) 0.3310(5) 0.1886(4)
H3 H 0.6689 0.3673 0.1635
C4 C 0.7815(8) 0.2785(6) 0.4550(5)
H4 H 0.6591 0.1744 0.4402
H5 H 0.7496 0.3763 0.4658
H6 H 0.8864 0.2801 0.5443
C5 C 1.1740(6) 0.2197(5) 0.1257(5)
H7 H 1.3022 0.2521 0.2075
H8 H 1.2038 0.2894 0.0465
C6 C 1.0968(6) 0.0327(5) 0.0662(5)
H9 H 1.2048 0.0159 0.0375
H10 H 1.0710 -0.0361 0.1467
N1A N 0.9755(4) -0.2575(4) -0.1802(3)
N2A N 1.1429(4) -0.2861(4) -0.3243(3)
C1A C 0.9944(5) -0.2416(4) -0.3156(4)
H1A H 0.9155 -0.2048 -0.3929
C2A C 1.1196(6) -0.3131(5) -0.0986(4)
H2A H 1.1410 -0.3344 0.0010
C3A C 1.2237(6) -0.3310(5) -0.1886(4)
H3A H 1.3311 -0.3673 -0.1635
C4A C 1.2185(8) -0.2785(6) -0.4550(5)
H4A H 1.3409 -0.1744 -0.4402
H5A H 1.2504 -0.3763 -0.4658
H6A H 1.1136 -0.2801 -0.5443
C5A C 0.8260(6) -0.2197(5) -0.1257(5)
H7A H 0.6978 -0.2521 -0.2075
H8A H 0.7962 -0.2894 -0.0465
C6A C 0.9032(6) -0.0327(5) -0.0662(5)
H9A H 0.7952 -0.0159 -0.0375
H10A H 0.9290 0.0361 -0.1467
loop_
_geom_bond_atom_site_label_1
_geom_bond_atom_site_label_2
_geom_bond_site_symmetry_1
_geom_bond_site_symmetry_2
P1 F1 1_555 1_555
F2 P1 1_555 1_555
F3 P1 1_555 1_555
F4 P1 1_555 1_555
F5 P1 1_555 1_555
F6 P1 1_555 1_555
N1 C1 1_555 1_555
N2 C1 1_555 1_555
C1 H1 1_555 1_555
C2 N1 1_555 1_555
H2 C2 1_555 1_555
C3 N2 1_555 1_555
H3 C3 1_555 1_555
C4 N2 1_555 1_555
H4 C4 1_555 1_555
H5 C4 1_555 1_555
H6 C4 1_555 1_555
C5 N1 1_555 1_555
H7 C5 1_555 1_555
H8 C5 1_555 1_555
C6 C5 1_555 1_555
H9 C6 1_555 1_555
H10 C6 1_555 1_555
N1A C1A 1_555 1_555
N2A C1A 1_555 1_555
C1A H1A 1_555 1_555
C2A N1A 1_555 1_555
H2A C2A 1_555 1_555
C3A N2A 1_555 1_555
H3A C3A 1_555 1_555
C4A N2A 1_555 1_555
H4A C4A 1_555 1_555
H5A C4A 1_555 1_555
H6A C4A 1_555 1_555
C5A N1A 1_555 1_555
H7A C5A 1_555 1_555
H8A C5A 1_555 1_555
C6A C6 1_555 1_555
H9A C6A 1_555 1_555
H10A C6A 1_555 1_555
C2 C3 1_555 1_555
C2A C3A 1_555 1_555
C5A C6A 1_555 1_555

#END
