
#######################################################################
#
#                 Cambridge Crystallographic Data Centre
#                                CCDC 
#
#######################################################################
#
# If this CIF has been generated from an entry in the Cambridge 
# Structural Database, then it will include bibliographic, chemical, 
# crystal, experimental, refinement or atomic coordinate data resulting 
# from the CCDC's data processing and validation procedures.
#
#######################################################################

data_YENXEX
_chemical_formula_moiety         'C17 H12 Cl1 N3 O4'
_chemical_name_systematic        
'(Z)-2-(3-(2-(4-chlorobenzoyl)hydrazono)-2-oxoindolin-1-yl)acetic acid'
_symmetry_cell_setting           monoclinic
_symmetry_space_group_name_H-M   'P 21/c'
_symmetry_Int_Tables_number      14
_space_group_name_Hall           '-P 2ybc'
loop_
_symmetry_equiv_pos_site_id
_symmetry_equiv_pos_as_xyz
1 x,y,z
2 -x,1/2+y,1/2-z
3 -x,-y,-z
4 x,1/2-y,1/2+z
_cell_length_a                   6.8425(7)
_cell_length_b                   14.1931(16)
_cell_length_c                   17.0132(17)
_cell_angle_alpha                90
_cell_angle_beta                 101.144(3)
_cell_angle_gamma                90
_cell_volume                     1621.1
_exptl_crystal_colour            colorless
_exptl_crystal_description       block
_cell_formula_units_Z            4
loop_
_atom_site_label
_atom_site_type_symbol
_atom_site_fract_x
_atom_site_fract_y
_atom_site_fract_z
Cl1 Cl 1.28395(9) 0.00012(5) 0.43180(4)
N1 N 0.2120(2) 0.25468(11) 0.31215(9)
N2 N -0.0960(2) 0.15407(11) 0.14138(10)
O1 O 0.5192(2) 0.29076(10) 0.43043(9)
C1 C -0.1187(3) 0.27454(13) 0.22948(11)
C2 C 0.5326(3) 0.22531(13) 0.38477(11)
O2 O 0.2173(2) 0.09554(10) 0.19296(9)
N3 N 0.3818(2) 0.20241(11) 0.32385(10)
H1 H 0.3932 0.1555 0.2930
C3 C 0.0763(3) 0.23082(13) 0.25198(11)
C4 C 1.0647(3) 0.06428(16) 0.41666(13)
C5 C 0.7156(3) 0.16680(13) 0.39347(11)
O3 O -0.2618(3) -0.07061(11) 0.05616(10)
H2 H -0.3259 -0.1140 0.0706
C6 C 0.0817(3) 0.15154(14) 0.19373(12)
C7 C 0.9090(3) 0.03775(16) 0.35745(13)
H3 H 0.9207 -0.0142 0.3254
C8 C -0.2217(3) 0.22477(13) 0.16341(11)
C9 C -0.1504(3) 0.08332(14) 0.07943(11)
H4 H -0.0327 0.0648 0.0593
H5 H -0.2448 0.1102 0.0352
C10 C 1.0517(3) 0.14175(18) 0.46310(14)
H6 H 1.1597 0.1600 0.5021
C11 C 0.8770(3) 0.19258(17) 0.45154(13)
H7 H 0.8676 0.2451 0.4833
C12 C -0.2103(3) 0.34700(14) 0.26253(13)
H8 H -0.1420 0.3808 0.3061
C13 C -0.2412(3) -0.00254(14) 0.11004(12)
C14 C -0.5054(3) 0.31775(18) 0.16452(14)
H9 H -0.6369 0.3333 0.1431
C15 C 0.7347(3) 0.08918(15) 0.34606(12)
H10 H 0.6284 0.0715 0.3060
O4 O -0.2863(3) -0.00781(12) 0.17362(10)
C16 C -0.4168(3) 0.24494(16) 0.13005(12)
H11 H -0.4858 0.2113 0.0865
C17 C -0.4060(3) 0.36814(16) 0.22934(14)
H12 H -0.4709 0.4165 0.2508
loop_
_geom_bond_atom_site_label_1
_geom_bond_atom_site_label_2
_geom_bond_site_symmetry_1
_geom_bond_site_symmetry_2
Cl1 C4 1_555 1_555
N1 N3 1_555 1_555
N2 C6 1_555 1_555
O1 C2 1_555 1_555
C1 C3 1_555 1_555
C2 N3 1_555 1_555
O2 C6 1_555 1_555
N3 H1 1_555 1_555
C3 N1 1_555 1_555
C4 C7 1_555 1_555
C5 C2 1_555 1_555
O3 H2 1_555 1_555
C6 C3 1_555 1_555
C7 H3 1_555 1_555
C8 N2 1_555 1_555
C9 N2 1_555 1_555
H4 C9 1_555 1_555
H5 C9 1_555 1_555
C10 C4 1_555 1_555
H6 C10 1_555 1_555
C11 C5 1_555 1_555
H7 C11 1_555 1_555
C12 C1 1_555 1_555
H8 C12 1_555 1_555
C13 O3 1_555 1_555
C14 H9 1_555 1_555
C15 C5 1_555 1_555
H10 C15 1_555 1_555
O4 C13 1_555 1_555
C16 C8 1_555 1_555
H11 C16 1_555 1_555
C17 C12 1_555 1_555
H12 C17 1_555 1_555
C1 C8 1_555 1_555
C7 C15 1_555 1_555
C9 C13 1_555 1_555
C10 C11 1_555 1_555
C14 C16 1_555 1_555
C14 C17 1_555 1_555

#END
