
#######################################################################
#
#                 Cambridge Crystallographic Data Centre
#                                CCDC 
#
#######################################################################
#
# If this CIF has been generated from an entry in the Cambridge 
# Structural Database, then it will include bibliographic, chemical, 
# crystal, experimental, refinement or atomic coordinate data resulting 
# from the CCDC's data processing and validation procedures.
#
#######################################################################

data_YENZUN
_chemical_formula_moiety         'C19 H22 N2 O3 S1'
_chemical_name_systematic        
'Propyl 2-(3-cyano-4-(2-methylpropoxy)phenyl)-4-methylthiazole-5-carboxylate'
_symmetry_cell_setting           orthorhombic
_symmetry_space_group_name_H-M   'C m c a'
_symmetry_Int_Tables_number      64
_space_group_name_Hall           '-C 2ac 2'
loop_
_symmetry_equiv_pos_site_id
_symmetry_equiv_pos_as_xyz
1 x,y,z
2 1/2+x,1/2+y,z
3 x,-y,-z
4 -x,1/2+y,1/2-z
5 -x,1/2-y,1/2+z
6 1/2+x,1/2-y,-z
7 1/2-x,y,1/2-z
8 1/2-x,-y,1/2+z
9 -x,-y,-z
10 1/2-x,1/2-y,-z
11 -x,y,z
12 x,1/2-y,1/2+z
13 x,1/2+y,1/2-z
14 1/2-x,1/2+y,z
15 1/2+x,-y,1/2+z
16 1/2+x,y,1/2-z
_cell_length_a                   7.1146(8)
_cell_length_b                   33.901(13)
_cell_length_c                   16.253(3)
_cell_angle_alpha                90
_cell_angle_beta                 90
_cell_angle_gamma                90
_cell_volume                     3920.09
_exptl_crystal_colour            colorless
_exptl_crystal_description       prism
_cell_formula_units_Z            8
_exptl_crystal_recrystallization_method ethanol
loop_
_atom_site_label
_atom_site_type_symbol
_atom_site_fract_x
_atom_site_fract_y
_atom_site_fract_z
S1 S 0.5000 0.07272(11) 0.1906(2)
O1 O 0.5000 0.2698(3) 0.1891(5)
O2 O 0.5000 -0.0146(4) 0.1818(9)
O3 O 0.5000 -0.0263(4) 0.3021(9)
N1 N 0.5000 0.2664(3) 0.3970(7)
N2 N 0.5000 0.0985(3) 0.3360(6)
C1 C 0.5000 0.2286(4) 0.1982(10)
C2 C 0.5000 0.2476(5) 0.3423(10)
C3 C 0.5000 0.2156(4) 0.2833(8)
C4 C 0.5000 0.1511(4) 0.2361(9)
C5 C 0.5000 0.1100(3) 0.2610(8)
C6 C 0.5000 0.0593(5) 0.3385(10)
C7 C 0.5000 0.0395(5) 0.2687(10)
C8 C 0.5000 -0.0023(8) 0.2552(16)
C9 C 0.5000 0.0403(4) 0.4276(8)
C10 C 0.5000 -0.0584(8) 0.0751(18)
C11 C 0.5000 0.1765(4) 0.3011(7)
C12 C 0.5000 0.2032(4) 0.1405(7)
C13 C 0.5000 -0.0494(10) 0.142(2)
C15 C 0.5000 0.1615(4) 0.1536(8)
C16 C 0.5000 0.2825(5) 0.1035(10)
C17 C 0.659(3) 0.3436(6) 0.1489(12)
C18 C 0.5000 -0.0898(9) 0.0489(17)
C19 C 0.5000 0.3250(7) 0.1246(12)
C17J C 0.341(3) 0.3436(6) 0.1489(12)
C14? C 0.5000 0.3506(4) 0.0296(9)
loop_
_geom_bond_atom_site_label_1
_geom_bond_atom_site_label_2
_geom_bond_site_symmetry_1
_geom_bond_site_symmetry_2
S1 C5 1_555 1_555
O1 C1 1_555 1_555
O2 C8 1_555 1_555
O3 C8 1_555 1_555
N1 C2 1_555 1_555
N2 C5 1_555 1_555
C1 C3 1_555 1_555
C2 C3 1_555 1_555
C3 C11 1_555 1_555
C4 C5 1_555 1_555
C6 N2 1_555 1_555
C7 S1 1_555 1_555
C8 C7 1_555 1_555
C9 C6 1_555 1_555
C10 C13 1_555 1_555
C11 C4 1_555 1_555
C12 C1 1_555 1_555
C13 O2 1_555 1_555
C15 C4 1_555 1_555
C16 O1 1_555 1_555
C17 C19 1_555 1_555
C18 C10 1_555 1_555
C19 C16 1_555 1_555
C17J C19 1_555 1_555
C6 C7 1_555 1_555
C12 C15 1_555 1_555

#END
