
#######################################################################
#
#                 Cambridge Crystallographic Data Centre
#                                CCDC 
#
#######################################################################
#
# If this CIF has been generated from an entry in the Cambridge 
# Structural Database, then it will include bibliographic, chemical, 
# crystal, experimental, refinement or atomic coordinate data resulting 
# from the CCDC's data processing and validation procedures.
#
#######################################################################

data_YEPCAY01
_chemical_formula_moiety         'C12 H12 N4 O2 2+,C10 H4 O8 2-'
_chemical_name_systematic        
"N,N'-bis(4-Picoliniocarbonyl)hydrazine dihydrogen benzene-1,2,4,5-tetracarboxylate"
_symmetry_cell_setting           triclinic
_symmetry_space_group_name_H-M   'P -1'
_symmetry_Int_Tables_number      2
_space_group_name_Hall           '-P 1'
loop_
_symmetry_equiv_pos_site_id
_symmetry_equiv_pos_as_xyz
1 x,y,z
2 -x,-y,-z
_cell_length_a                   6.3859(7)
_cell_length_b                   9.1945(10)
_cell_length_c                   9.3630(10)
_cell_angle_alpha                86.2490(10)
_cell_angle_beta                 75.8860(10)
_cell_angle_gamma                70.8310(10)
_cell_volume                     503.529
_exptl_crystal_colour            colorless
_exptl_crystal_description       Block
_cell_formula_units_Z            1
loop_
_atom_site_label
_atom_site_type_symbol
_atom_site_fract_x
_atom_site_fract_y
_atom_site_fract_z
O1 O 0.2756(2) 0.56313(14) 0.73928(13)
N1 N -0.22544(19) 0.25594(13) 0.72860(13)
H2 H -0.3285 0.2117 0.7473
N2 N 0.4203(2) 0.46136(14) 0.51238(14)
H3 H 0.4160 0.4039 0.4451
C1 C -0.0744(2) 0.43620(16) 0.79429(16)
H4 H -0.0831 0.5115 0.8592
C2 C -0.2363(2) 0.36286(17) 0.82132(16)
H5 H -0.3547 0.3885 0.9055
C3 C -0.0584(2) 0.21579(17) 0.60732(16)
H6 H -0.0551 0.1409 0.5439
C4 C 0.1095(2) 0.28395(17) 0.57475(16)
H7 H 0.2268 0.2549 0.4903
C5 C 0.1014(2) 0.39602(15) 0.66903(15)
C6 C 0.2737(2) 0.47937(15) 0.64469(16)
O1A O 0.7244(2) 0.43687(14) 0.26072(13)
N1A N 1.22544(19) 0.74406(13) 0.27140(13)
H2A H 1.3285 0.7883 0.2527
N2A N 0.5797(2) 0.53864(14) 0.48762(14)
H3A H 0.5840 0.5961 0.5549
C1A C 1.0744(2) 0.56380(16) 0.20571(16)
H4A H 1.0831 0.4885 0.1408
C2A C 1.2363(2) 0.63714(17) 0.17868(16)
H5A H 1.3547 0.6115 0.0945
C3A C 1.0584(2) 0.78421(17) 0.39268(16)
H6A H 1.0551 0.8591 0.4561
C4A C 0.8905(2) 0.71605(17) 0.42525(16)
H7A H 0.7732 0.7451 0.5097
C5A C 0.8986(2) 0.60398(15) 0.33097(15)
C6A C 0.7263(2) 0.52063(15) 0.35531(16)
O2 O 0.29890(19) -0.11651(13) 0.61623(11)
O3 O 0.55024(16) -0.21086(12) 0.74739(11)
H1 H 0.5601 -0.2045 0.8323
O4 O 0.47394(17) 0.11583(12) 0.77831(11)
O5 O 0.37046(17) 0.23377(11) 0.99462(11)
C7 C 0.3458(2) -0.12482(15) 0.73382(14)
C8 C 0.1700(2) -0.05432(15) 0.87191(14)
C9 C 0.1765(2) 0.06392(14) 0.95566(14)
C10 C 0.3546(2) 0.14327(14) 0.90745(14)
C11 C -0.0069(2) -0.11591(15) 0.91711(14)
H8 H -0.0118 -0.1938 0.8607
O2A O -0.29890(19) 0.11651(13) 1.38377(11)
O3A O -0.55024(16) 0.21086(12) 1.25261(11)
H1A H -0.5601 0.2045 1.1677
O4A O -0.47394(17) -0.11583(12) 1.22169(11)
O5A O -0.37046(17) -0.23377(11) 1.00538(11)
C7A C -0.3458(2) 0.12482(15) 1.26618(14)
C8A C -0.1700(2) 0.05432(15) 1.12809(14)
C9A C -0.1765(2) -0.06392(14) 1.04434(14)
C10A C -0.3546(2) -0.14327(14) 1.09255(14)
C11A C 0.0069(2) 0.11591(15) 1.08289(14)
H8A H 0.0118 0.1938 1.1393
loop_
_geom_bond_atom_site_label_1
_geom_bond_atom_site_label_2
_geom_bond_site_symmetry_1
_geom_bond_site_symmetry_2
O1 C6 1_555 1_555
O2 C7 1_555 1_555
O3 H1 1_555 1_555
O4 C10 1_555 1_555
O5 C10 1_555 1_555
N1 H2 1_555 1_555
N2 H3 1_555 1_555
C1 H4 1_555 1_555
C2 N1 1_555 1_555
H5 C2 1_555 1_555
C3 N1 1_555 1_555
H6 C3 1_555 1_555
C4 C3 1_555 1_555
H7 C4 1_555 1_555
C5 C1 1_555 1_555
C6 N2 1_555 1_555
C7 O3 1_555 1_555
C8 C7 1_555 1_555
C9 C8 1_555 1_555
C10 C9 1_555 1_555
C11 C8 1_555 1_555
H8 C11 1_555 1_555
O1A C6A 1_555 1_555
O2A C7A 1_555 1_555
O3A H1A 1_555 1_555
O4A C10A 1_555 1_555
O5A C10A 1_555 1_555
N1A H2A 1_555 1_555
N2A N2 1_555 1_555
H3A N2A 1_555 1_555
C1A H4A 1_555 1_555
C2A N1A 1_555 1_555
H5A C2A 1_555 1_555
C3A N1A 1_555 1_555
H6A C3A 1_555 1_555
C4A C3A 1_555 1_555
H7A C4A 1_555 1_555
C5A C1A 1_555 1_555
C6A N2A 1_555 1_555
C7A O3A 1_555 1_555
C8A C7A 1_555 1_555
C9A C11 1_555 1_555
C10A C9A 1_555 1_555
C11A C9 1_555 1_555
H8A C11A 1_555 1_555
C1 C2 1_555 1_555
C4 C5 1_555 1_555
C5 C6 1_555 1_555
C1A C2A 1_555 1_555
C4A C5A 1_555 1_555
C5A C6A 1_555 1_555
C8A C9A 1_555 1_555
C8A C11A 1_555 1_555

#END
