
#######################################################################
#
#                 Cambridge Crystallographic Data Centre
#                                CCDC 
#
#######################################################################
#
# If this CIF has been generated from an entry in the Cambridge 
# Structural Database, then it will include bibliographic, chemical, 
# crystal, experimental, refinement or atomic coordinate data resulting 
# from the CCDC's data processing and validation procedures.
#
#######################################################################

data_YEPCOM
_chemical_formula_moiety         'C12 H10 N4 O2,C4 H4 O4'
_chemical_name_systematic        "N,N'-bis(3-Picolinoyl)hydrazine fumaric acid"
_symmetry_cell_setting           triclinic
_symmetry_space_group_name_H-M   'P -1'
_symmetry_Int_Tables_number      2
_space_group_name_Hall           '-P 1'
loop_
_symmetry_equiv_pos_site_id
_symmetry_equiv_pos_as_xyz
1 x,y,z
2 -x,-y,-z
_cell_length_a                   4.8091(15)
_cell_length_b                   6.593(2)
_cell_length_c                   12.534(4)
_cell_angle_alpha                88.539(4)
_cell_angle_beta                 87.822(5)
_cell_angle_gamma                87.816(4)
_cell_volume                     396.717
_exptl_crystal_colour            'light yellow'
_exptl_crystal_description       needle
_cell_formula_units_Z            1
loop_
_atom_site_label
_atom_site_type_symbol
_atom_site_fract_x
_atom_site_fract_y
_atom_site_fract_z
O1 O -0.3763(3) 0.2950(2) 0.96642(13)
N1 N 0.3005(4) 0.0393(3) 0.71572(14)
N2 N 0.0467(3) 0.4271(2) 0.96462(13)
H2 H 0.2167 0.4234 0.9407
C1 C 0.1995(4) 0.1749(3) 0.78496(16)
H3 H 0.2792 0.3012 0.7849
C2 C 0.1851(5) -0.1411(3) 0.71632(18)
H4 H 0.2594 -0.2389 0.6701
C3 C -0.0390(5) -0.1894(3) 0.78225(18)
H5 H -0.1180 -0.3154 0.7787
C4 C -0.1445(4) -0.0480(3) 0.85360(18)
H6 H -0.2973 -0.0763 0.8985
C5 C -0.0183(4) 0.1375(3) 0.85717(16)
C6 C -0.1321(4) 0.2906(3) 0.93361(16)
O1A O 0.3763(3) 0.7050(2) 1.03358(13)
N1A N -0.3005(4) 0.9607(3) 1.28428(14)
N2A N -0.0467(3) 0.5729(2) 1.03538(13)
H2A H -0.2167 0.5766 1.0593
C1A C -0.1995(4) 0.8251(3) 1.21504(16)
H3A H -0.2792 0.6988 1.2151
C2A C -0.1851(5) 1.1411(3) 1.28368(18)
H4A H -0.2594 1.2389 1.3299
C3A C 0.0390(5) 1.1894(3) 1.21775(18)
H5A H 0.1180 1.3154 1.2213
C4A C 0.1445(4) 1.0480(3) 1.14640(18)
H6A H 0.2973 1.0763 1.1015
C5A C 0.0183(4) 0.8625(3) 1.14283(16)
C6A C 0.1321(4) 0.7094(3) 1.06639(16)
O2 O 0.2973(4) 0.8540(2) 0.42245(14)
H1 H 0.4190 0.8856 0.3782
O3 O 0.3703(4) 0.5497(3) 0.35204(14)
C7 C 0.0189(5) 0.5956(3) 0.48833(18)
H7 H -0.1002 0.6935 0.5195
C8 C 0.2459(5) 0.6614(4) 0.41368(18)
O2A O -0.2973(4) 0.1460(2) 0.57755(14)
H1A H -0.4190 0.1144 0.6218
O3A O -0.3703(4) 0.4503(3) 0.64796(14)
C7A C -0.0189(5) 0.4044(3) 0.51167(18)
H7A H 0.1002 0.3065 0.4805
C8A C -0.2459(5) 0.3386(4) 0.58632(18)
loop_
_geom_bond_atom_site_label_1
_geom_bond_atom_site_label_2
_geom_bond_site_symmetry_1
_geom_bond_site_symmetry_2
O1 C6 1_555 1_555
O2 H1 1_555 1_555
O3 C8 1_555 1_555
N1 C1 1_555 1_555
N2 H2 1_555 1_555
C1 H3 1_555 1_555
C2 N1 1_555 1_555
H4 C2 1_555 1_555
C3 C2 1_555 1_555
H5 C3 1_555 1_555
C4 C3 1_555 1_555
H6 C4 1_555 1_555
C5 C1 1_555 1_555
C6 N2 1_555 1_555
C7 H7 1_555 1_555
C8 O2 1_555 1_555
O1A C6A 1_555 1_555
O2A H1A 1_555 1_555
O3A C8A 1_555 1_555
N1A C1A 1_555 1_555
N2A N2 1_555 1_555
H2A N2A 1_555 1_555
C1A H3A 1_555 1_555
C2A N1A 1_555 1_555
H4A C2A 1_555 1_555
C3A C2A 1_555 1_555
H5A C3A 1_555 1_555
C4A C3A 1_555 1_555
H6A C4A 1_555 1_555
C5A C1A 1_555 1_555
C6A N2A 1_555 1_555
C7A C7 1_555 1_555
H7A C7A 1_555 1_555
C8A O2A 1_555 1_555
C4 C5 1_555 1_555
C5 C6 1_555 1_555
C7 C8 1_555 1_555
C4A C5A 1_555 1_555
C5A C6A 1_555 1_555
C7A C8A 1_555 1_555

#END
