
#######################################################################
#
#                 Cambridge Crystallographic Data Centre
#                                CCDC 
#
#######################################################################
#
# If this CIF has been generated from an entry in the Cambridge 
# Structural Database, then it will include bibliographic, chemical, 
# crystal, experimental, refinement or atomic coordinate data resulting 
# from the CCDC's data processing and validation procedures.
#
#######################################################################

data_YEPDUV
_chemical_formula_moiety         'C19 H26 N2 O7'
_chemical_name_systematic        
'diethyl {2-[(2-methoxyphenyl)amino]-2-(2-oxo-1,3-oxazolidin-3-yl)ethyl}propanedioate'
_symmetry_cell_setting           orthorhombic
_symmetry_space_group_name_H-M   'P b c a'
_symmetry_Int_Tables_number      61
_space_group_name_Hall           '-P 2ac 2ab'
loop_
_symmetry_equiv_pos_site_id
_symmetry_equiv_pos_as_xyz
1 x,y,z
2 1/2-x,-y,1/2+z
3 -x,1/2+y,1/2-z
4 1/2+x,1/2-y,-z
5 -x,-y,-z
6 1/2+x,y,1/2-z
7 x,1/2-y,1/2+z
8 1/2-x,1/2+y,z
_cell_length_a                   11.682(3)
_cell_length_b                   16.179(4)
_cell_length_c                   20.998(5)
_cell_angle_alpha                90
_cell_angle_beta                 90
_cell_angle_gamma                90
_cell_volume                     3968.69
_exptl_crystal_colour            colorless
_exptl_crystal_description       tablet
_cell_formula_units_Z            8
_exptl_crystal_recrystallization_method 
'Re-crystallisation from solvent: dichloromethane/hexane'
loop_
_atom_site_label
_atom_site_type_symbol
_atom_site_fract_x
_atom_site_fract_y
_atom_site_fract_z
N1 N 0.6846(2) 0.61631(13) 0.22846(10)
H1 H 0.619(3) 0.6277(19) 0.2443(16)
C1 C 0.6857(2) 0.58751(14) 0.16565(12)
C2 C 0.5868(2) 0.54751(14) 0.14211(12)
C3 C 0.5854(3) 0.51361(16) 0.08188(13)
H2 H 0.518536 0.486519 0.066810
C4 C 0.6818(3) 0.51899(17) 0.04309(13)
H3 H 0.680765 0.495748 0.001550
C5 C 0.7785(3) 0.55819(17) 0.06525(13)
H4 H 0.844169 0.562042 0.038695
C6 C 0.7813(3) 0.59219(15) 0.12609(13)
H5 H 0.848812 0.618801 0.140768
O1 O 0.49650(17) 0.54493(11) 0.18446(9)
C7 C 0.4078(2) 0.48644(15) 0.17099(14)
H6 H 0.368112 0.502479 0.131766
H7 H 0.353087 0.485415 0.206370
H8 H 0.441402 0.431385 0.165609
C8 C 0.7787(2) 0.66363(14) 0.25377(12)
H9 H 0.850024 0.630221 0.248257
N2 N 0.79489(18) 0.74258(12) 0.21986(10)
C9 C 0.8951(2) 0.76373(15) 0.19257(12)
O2 O 0.98610(17) 0.72736(12) 0.19595(10)
O3 O 0.88210(17) 0.83466(11) 0.15886(9)
C10 C 0.7666(3) 0.86518(19) 0.16805(17)
H10 H 0.731911 0.880788 0.126752
H11 H 0.766708 0.914163 0.196302
C11 C 0.7008(2) 0.79463(15) 0.19834(13)
H12 H 0.653100 0.813885 0.234392
H13 H 0.651825 0.765722 0.166953
C12 C 0.7620(2) 0.67830(15) 0.32440(11)
H14 H 0.754256 0.624497 0.346445
H15 H 0.690405 0.709866 0.331239
C13 C 0.8623(2) 0.72592(14) 0.35274(11)
H16 H 0.933073 0.709202 0.329290
C14 C 0.8479(2) 0.81904(15) 0.34519(11)
O4 O 0.75746(17) 0.85430(11) 0.34905(9)
O5 O 0.94734(16) 0.85700(10) 0.33354(9)
C15 C 0.9434(3) 0.94706(16) 0.33017(14)
H17 H 0.877819 0.964202 0.303418
H18 H 1.014359 0.967694 0.309840
C16 C 0.9317(3) 0.98474(19) 0.39518(16)
H19 H 0.856763 0.970448 0.413021
H20 H 0.938496 1.044966 0.391942
H21 H 0.992221 0.963398 0.423010
C17 C 0.8791(3) 0.70445(16) 0.42297(13)
O6 O 0.8421(3) 0.64509(15) 0.44810(11)
O7 O 0.9441(3) 0.75910(17) 0.45181(11)
C18 C 0.9729(4) 0.7430(3) 0.51853(18)
H22 H 0.959563 0.793669 0.543833
H23 H 0.921996 0.699157 0.535281
C19 C 1.0846(10) 0.7187(11) 0.5256(4)
H24 H 1.100465 0.708567 0.570751
H25 H 1.097780 0.667931 0.501281
H26 H 1.135333 0.762407 0.509830
H27? H 0.921090 0.773774 0.547278
H28? H 0.966679 0.683224 0.528165
C20? C 1.0905(14) 0.7711(19) 0.5262(7)
H29? H 1.115157 0.761906 0.570207
H30? H 1.140449 0.740161 0.497202
H31? H 1.095123 0.830188 0.516203
loop_
_geom_bond_atom_site_label_1
_geom_bond_atom_site_label_2
_geom_bond_site_symmetry_1
_geom_bond_site_symmetry_2
N1 H1 1_555 1_555
C1 N1 1_555 1_555
C2 C1 1_555 1_555
C3 C2 1_555 1_555
H2 C3 1_555 1_555
C4 C3 1_555 1_555
H3 C4 1_555 1_555
C5 C4 1_555 1_555
H4 C5 1_555 1_555
C6 C1 1_555 1_555
H5 C6 1_555 1_555
O1 C2 1_555 1_555
C7 O1 1_555 1_555
H6 C7 1_555 1_555
H7 C7 1_555 1_555
H8 C7 1_555 1_555
C8 N1 1_555 1_555
H9 C8 1_555 1_555
N2 C8 1_555 1_555
C9 N2 1_555 1_555
O2 C9 1_555 1_555
O3 C9 1_555 1_555
C10 O3 1_555 1_555
H10 C10 1_555 1_555
H11 C10 1_555 1_555
C11 N2 1_555 1_555
H12 C11 1_555 1_555
H13 C11 1_555 1_555
C12 C8 1_555 1_555
H14 C12 1_555 1_555
H15 C12 1_555 1_555
C13 C12 1_555 1_555
H16 C13 1_555 1_555
C14 C13 1_555 1_555
O4 C14 1_555 1_555
O5 C14 1_555 1_555
C15 O5 1_555 1_555
H17 C15 1_555 1_555
H18 C15 1_555 1_555
C16 C15 1_555 1_555
H19 C16 1_555 1_555
H20 C16 1_555 1_555
H21 C16 1_555 1_555
C17 C13 1_555 1_555
O6 C17 1_555 1_555
O7 C17 1_555 1_555
C18 O7 1_555 1_555
H22 C18 1_555 1_555
H23 C18 1_555 1_555
C19 C18 1_555 1_555
H24 C19 1_555 1_555
H25 C19 1_555 1_555
H26 C19 1_555 1_555
C5 C6 1_555 1_555
C10 C11 1_555 1_555

#END
