
#######################################################################
#
#                 Cambridge Crystallographic Data Centre
#                                CCDC 
#
#######################################################################
#
# If this CIF has been generated from an entry in the Cambridge 
# Structural Database, then it will include bibliographic, chemical, 
# crystal, experimental, refinement or atomic coordinate data resulting 
# from the CCDC's data processing and validation procedures.
#
#######################################################################

data_YEPFUX
_chemical_formula_moiety         'C18 H17 N1 O3'
_chemical_name_systematic        
4-(7a-methyl-5-oxo-2,3,3a,4,5,7a-hexahydro-1-benzofuran-3-yl)isoquinolin-1(2H)-one
_symmetry_cell_setting           triclinic
_symmetry_space_group_name_H-M   'P -1'
_symmetry_Int_Tables_number      2
_space_group_name_Hall           '-P 1'
loop_
_symmetry_equiv_pos_site_id
_symmetry_equiv_pos_as_xyz
1 x,y,z
2 -x,-y,-z
_cell_length_a                   6.833(3)
_cell_length_b                   10.270(4)
_cell_length_c                   10.914(4)
_cell_angle_alpha                99.435(8)
_cell_angle_beta                 101.756(7)
_cell_angle_gamma                95.909(7)
_cell_volume                     732.272
_exptl_crystal_colour            colorless
_exptl_crystal_description       prismatic
_cell_formula_units_Z            2
loop_
_atom_site_label
_atom_site_type_symbol
_atom_site_fract_x
_atom_site_fract_y
_atom_site_fract_z
N1 N -0.2412(4) 0.5599(3) 0.5828(3)
O1 O -0.4213(3) 0.6089(3) 0.4018(2)
O2 O 0.3957(4) 0.6249(2) 0.9944(2)
O3 O -0.2229(4) 0.8600(3) 0.8160(3)
C1 C -0.0796(5) 0.7130(3) 0.4798(3)
C2 C -0.0877(6) 0.7811(4) 0.3784(3)
H1 H -0.2068 0.7710 0.3165
C3 C 0.0776(7) 0.8620(5) 0.3696(4)
H2 H 0.0717 0.9086 0.3031
C4 C 0.2552(7) 0.8738(5) 0.4617(4)
H3 H 0.3697 0.9266 0.4543
C5 C 0.2661(5) 0.8098(4) 0.5629(4)
H4 H 0.3860 0.8224 0.6244
C6 C 0.0987(5) 0.7254(3) 0.5752(3)
C7 C 0.1020(4) 0.6528(3) 0.6790(3)
C8 C -0.0683(5) 0.5725(3) 0.6764(3)
H5 H -0.0688 0.5235 0.7409
C9 C -0.2599(5) 0.6249(3) 0.4839(3)
C10 C 0.2872(5) 0.6742(3) 0.7877(3)
H6 H 0.4057 0.6870 0.7511
C11 C 0.3157(6) 0.5613(3) 0.8639(3)
H7 H 0.1876 0.5063 0.8550
H8 H 0.4087 0.5055 0.8335
C12 C 0.3030(5) 0.7437(3) 1.0159(3)
C13 C 0.3000(4) 0.8003(3) 0.8940(3)
H9 H 0.4310 0.8546 0.9045
C14 C 0.1371(5) 0.8901(3) 0.8700(3)
H10 H 0.1762 0.9723 0.9327
H11 H 0.1303 0.9129 0.7866
C15 C -0.0693(5) 0.8289(3) 0.8761(3)
C16 C -0.0758(5) 0.7378(4) 0.9663(3)
H12 H -0.2001 0.7037 0.9789
C17 C 0.0918(5) 0.7028(4) 1.0303(3)
H13 H 0.0774 0.6484 1.0890
C18 C 0.4287(6) 0.8311(4) 1.1373(3)
H14 H 0.4238 0.7867 1.2077
H15 H 0.3761 0.9141 1.1517
H16 H 0.5660 0.8481 1.1295
H17 H -0.342(6) 0.508(4) 0.589(4)
loop_
_geom_bond_atom_site_label_1
_geom_bond_atom_site_label_2
_geom_bond_site_symmetry_1
_geom_bond_site_symmetry_2
N1 C8 1_555 1_555
O1 C9 1_555 1_555
O2 C11 1_555 1_555
O3 C15 1_555 1_555
C1 C2 1_555 1_555
C2 H1 1_555 1_555
C3 C2 1_555 1_555
H2 C3 1_555 1_555
C4 C3 1_555 1_555
H3 C4 1_555 1_555
C5 C4 1_555 1_555
H4 C5 1_555 1_555
C6 C1 1_555 1_555
C7 C6 1_555 1_555
C8 C7 1_555 1_555
H5 C8 1_555 1_555
C9 N1 1_555 1_555
C10 C7 1_555 1_555
H6 C10 1_555 1_555
C11 C10 1_555 1_555
H7 C11 1_555 1_555
H8 C11 1_555 1_555
C12 O2 1_555 1_555
C13 C10 1_555 1_555
H9 C13 1_555 1_555
C14 C13 1_555 1_555
H10 C14 1_555 1_555
H11 C14 1_555 1_555
C15 C14 1_555 1_555
C16 C15 1_555 1_555
H12 C16 1_555 1_555
C17 C12 1_555 1_555
H13 C17 1_555 1_555
C18 C12 1_555 1_555
H14 C18 1_555 1_555
H15 C18 1_555 1_555
H16 C18 1_555 1_555
H17 N1 1_555 1_555
C1 C9 1_555 1_555
C5 C6 1_555 1_555
C12 C13 1_555 1_555
C16 C17 1_555 1_555

#END
