
#######################################################################
#
#                 Cambridge Crystallographic Data Centre
#                                CCDC 
#
#######################################################################
#
# If this CIF has been generated from an entry in the Cambridge 
# Structural Database, then it will include bibliographic, chemical, 
# crystal, experimental, refinement or atomic coordinate data resulting 
# from the CCDC's data processing and validation procedures.
#
#######################################################################

data_YEPQOC
_chemical_formula_moiety         'C14 H20 O6'
_chemical_name_systematic        
5,11-dihydroxy-6,14-dimethyl-1,7-dioxacyclotetradeca-3,9-diene-2,8-dione
_symmetry_cell_setting           monoclinic
_symmetry_space_group_name_H-M   'P 21'
_symmetry_Int_Tables_number      4
_space_group_name_Hall           'P 2yb'
loop_
_symmetry_equiv_pos_site_id
_symmetry_equiv_pos_as_xyz
1 x,y,z
2 -x,1/2+y,-z
_cell_length_a                   11.1840(16)
_cell_length_b                   5.0236(8)
_cell_length_c                   12.9801(18)
_cell_angle_alpha                90
_cell_angle_beta                 107.716(6)
_cell_angle_gamma                90
_cell_volume                     694.689
_exptl_crystal_colour            colorless
_exptl_crystal_description       block
_cell_formula_units_Z            2
loop_
_atom_site_label
_atom_site_type_symbol
_atom_site_fract_x
_atom_site_fract_y
_atom_site_fract_z
C1 C 0.8746(2) 0.8655(6) 0.9172(2)
H1 H 0.9089 0.9181 0.8591
H2 H 0.9410 0.7840 0.9763
H3 H 0.8420 1.0230 0.9443
C2 C 0.7698(2) 0.6675(5) 0.87407(18)
H4 H 0.8019 0.5042 0.8472
C3 C 0.7049(2) 0.5929(5) 0.95942(19)
H5 H 0.6804 0.7599 0.9898
C4 C 0.5897(2) 0.4270(5) 0.91161(18)
H6 H 0.5993 0.2425 0.9002
C5 C 0.4738(2) 0.5299(6) 0.88448(18)
H7 H 0.4625 0.7104 0.9013
C6 C 0.3636(2) 0.3663(6) 0.82877(19)
C7 C 0.1490(2) 0.4085(6) 0.71894(19)
H8 H 0.1409 0.2161 0.7354
C8 C 0.1701(2) 0.4351(6) 0.60845(19)
H9 H 0.2441 0.3272 0.6083
H10 H 0.0964 0.3613 0.5526
C9 C 0.1909(2) 0.7213(6) 0.5783(2)
H11 H 0.2283 0.8244 0.6453
H12 H 0.1085 0.8021 0.5402
C10 C 0.2762(2) 0.7436(6) 0.50626(18)
H13 H 0.2827 0.9346 0.4870
C11 C 0.4050(2) 0.6396(6) 0.56551(19)
H14 H 0.4246 0.4628 0.5501
C12 C 0.4940(2) 0.7776(6) 0.63826(18)
H15 H 0.4836 0.9627 0.6478
C13 C 0.6085(2) 0.6390(6) 0.70355(19)
C14 C 0.0366(2) 0.5607(7) 0.7306(2)
H16 H 0.0323 0.5402 0.8045
H17 H -0.0404 0.4903 0.6792
H18 H 0.0452 0.7497 0.7156
O1 O 0.79632(16) 0.4558(4) 1.04316(13)
H19 H 0.7680 0.4291 1.0953
O2 O 0.67414(15) 0.7964(4) 0.78630(13)
O3 O 0.63795(17) 0.4153(4) 0.68967(14)
O4 O 0.22081(17) 0.5946(4) 0.40996(14)
H20 H 0.2480 0.6509 0.3604
O5 O 0.25955(15) 0.5219(4) 0.79917(13)
O6 O 0.36345(17) 0.1326(4) 0.80929(14)
loop_
_geom_bond_atom_site_label_1
_geom_bond_atom_site_label_2
_geom_bond_site_symmetry_1
_geom_bond_site_symmetry_2
C1 H1 1_555 1_555
H2 C1 1_555 1_555
H3 C1 1_555 1_555
C2 C1 1_555 1_555
H4 C2 1_555 1_555
C3 C2 1_555 1_555
H5 C3 1_555 1_555
C4 C3 1_555 1_555
H6 C4 1_555 1_555
C5 C4 1_555 1_555
H7 C5 1_555 1_555
C6 C5 1_555 1_555
C7 H8 1_555 1_555
C8 C7 1_555 1_555
H9 C8 1_555 1_555
H10 C8 1_555 1_555
C9 C8 1_555 1_555
H11 C9 1_555 1_555
H12 C9 1_555 1_555
C10 C9 1_555 1_555
H13 C10 1_555 1_555
C11 C10 1_555 1_555
H14 C11 1_555 1_555
C12 C11 1_555 1_555
H15 C12 1_555 1_555
C13 C12 1_555 1_555
C14 C7 1_555 1_555
H16 C14 1_555 1_555
H17 C14 1_555 1_555
H18 C14 1_555 1_555
O1 C3 1_555 1_555
H19 O1 1_555 1_555
O2 C2 1_555 1_555
O3 C13 1_555 1_555
O4 C10 1_555 1_555
H20 O4 1_555 1_555
O5 C6 1_555 1_555
O6 C6 1_555 1_555
C7 O5 1_555 1_555
C13 O2 1_555 1_555

#END
