
#######################################################################
#
#                 Cambridge Crystallographic Data Centre
#                                CCDC 
#
#######################################################################
#
# If this CIF has been generated from an entry in the Cambridge 
# Structural Database, then it will include bibliographic, chemical, 
# crystal, experimental, refinement or atomic coordinate data resulting 
# from the CCDC's data processing and validation procedures.
#
#######################################################################

data_YEPQIW
_chemical_formula_moiety         'C19 H26 O7'
_chemical_name_systematic        
5-hydroxy-6,14-dimethyl-9-(2-oxopent-3-en-1-yl)-1,7-dioxacyclotetradec-3-ene-2,8,11-trione
_symmetry_cell_setting           orthorhombic
_symmetry_space_group_name_H-M   'P 21 21 21'
_symmetry_Int_Tables_number      19
_space_group_name_Hall           'P 2ac 2ab'
loop_
_symmetry_equiv_pos_site_id
_symmetry_equiv_pos_as_xyz
1 x,y,z
2 1/2-x,-y,1/2+z
3 -x,1/2+y,1/2-z
4 1/2+x,1/2-y,-z
_cell_length_a                   7.9302(2)
_cell_length_b                   10.1237(3)
_cell_length_c                   24.0386(7)
_cell_angle_alpha                90
_cell_angle_beta                 90
_cell_angle_gamma                90
_cell_volume                     1929.89
_exptl_crystal_colour            colorless
_exptl_crystal_description       block
_cell_formula_units_Z            4
loop_
_atom_site_label
_atom_site_type_symbol
_atom_site_fract_x
_atom_site_fract_y
_atom_site_fract_z
C1 C 0.2809(6) 0.6918(5) 0.54886(18)
H1 H 0.209859 0.768749 0.541001
H2 H 0.374831 0.718197 0.572889
H3 H 0.213603 0.623938 0.567669
C2 C 0.3485(5) 0.6375(4) 0.49553(15)
H4 H 0.409807 0.557040 0.497903
C3 C 0.3320(5) 0.6893(3) 0.44567(16)
H5 H 0.262480 0.765023 0.441486
C4 C 0.4170(4) 0.6350(3) 0.39555(14)
C5 C 0.3903(4) 0.7033(3) 0.34113(14)
H6 H 0.428767 0.795941 0.344701
H7 H 0.267971 0.705030 0.333018
C6 C 0.4817(3) 0.6398(3) 0.29184(12)
H8 H 0.443141 0.546322 0.287639
C7 C 0.4429(4) 0.7157(3) 0.23859(13)
H9 H 0.321751 0.739364 0.238893
H10 H 0.507767 0.799268 0.239275
C8 C 0.4807(3) 0.6456(3) 0.18426(13)
C9 C 0.4873(5) 0.7331(3) 0.13446(15)
H11 H 0.583972 0.794158 0.138817
H12 H 0.383528 0.787419 0.133819
C10 C 0.5042(5) 0.6632(4) 0.07778(15)
H13 H 0.454904 0.573657 0.081019
H14 H 0.436555 0.712447 0.050056
C11 C 0.6827(5) 0.6503(3) 0.05598(13)
H15 H 0.731557 0.740318 0.050295
C12 C 0.6917(6) 0.5741(4) 0.00209(15)
H16 H 0.809967 0.561912 -0.008550
H17 H 0.632727 0.623264 -0.027142
H18 H 0.638190 0.487588 0.006974
C13 C 0.9429(4) 0.6019(3) 0.10256(13)
C14 C 1.0173(4) 0.5444(3) 0.15341(12)
H19 H 1.136510 0.545581 0.157314
C15 C 0.9267(3) 0.4913(3) 0.19376(11)
H20 H 0.808545 0.484111 0.188020
C16 C 0.9958(3) 0.4415(3) 0.24784(12)
H21 H 0.962533 0.346950 0.252820
C17 C 0.9286(3) 0.5224(3) 0.29662(11)
H22 H 0.974178 0.614293 0.293940
C18 C 0.9716(4) 0.4669(4) 0.35287(13)
H23 H 0.924522 0.523993 0.381894
H24 H 1.094428 0.462542 0.356983
H25 H 0.923933 0.377984 0.356381
C19 C 0.6707(3) 0.6418(2) 0.30194(11)
O1 O 0.5094(4) 0.5400(2) 0.39837(11)
O2 O 0.7461(3) 0.73868(18) 0.31706(9)
O3 O 0.7455(2) 0.52705(16) 0.29046(8)
O4 O 1.1733(2) 0.4526(2) 0.25187(9)
H26 H 1.218760 0.404920 0.227501
O5 O 1.0250(3) 0.6623(3) 0.06826(10)
O6 O 0.7767(3) 0.5824(2) 0.09945(9)
O7 O 0.4947(2) 0.52590(19) 0.18252(9)
loop_
_geom_bond_atom_site_label_1
_geom_bond_atom_site_label_2
_geom_bond_site_symmetry_1
_geom_bond_site_symmetry_2
C1 H1 1_555 1_555
H2 C1 1_555 1_555
H3 C1 1_555 1_555
C2 C1 1_555 1_555
H4 C2 1_555 1_555
C3 C2 1_555 1_555
H5 C3 1_555 1_555
C4 C3 1_555 1_555
C5 C4 1_555 1_555
H6 C5 1_555 1_555
H7 C5 1_555 1_555
C6 C5 1_555 1_555
H8 C6 1_555 1_555
C7 C6 1_555 1_555
H9 C7 1_555 1_555
H10 C7 1_555 1_555
C8 C7 1_555 1_555
C9 C8 1_555 1_555
H11 C9 1_555 1_555
H12 C9 1_555 1_555
C10 C9 1_555 1_555
H13 C10 1_555 1_555
H14 C10 1_555 1_555
C11 C10 1_555 1_555
H15 C11 1_555 1_555
C12 C11 1_555 1_555
H16 C12 1_555 1_555
H17 C12 1_555 1_555
H18 C12 1_555 1_555
C13 C14 1_555 1_555
C14 H19 1_555 1_555
C15 C14 1_555 1_555
H20 C15 1_555 1_555
C16 C15 1_555 1_555
H21 C16 1_555 1_555
C17 C16 1_555 1_555
H22 C17 1_555 1_555
C18 C17 1_555 1_555
H23 C18 1_555 1_555
H24 C18 1_555 1_555
H25 C18 1_555 1_555
C19 C6 1_555 1_555
O1 C4 1_555 1_555
O2 C19 1_555 1_555
O3 C17 1_555 1_555
O4 C16 1_555 1_555
H26 O4 1_555 1_555
O5 C13 1_555 1_555
O6 C11 1_555 1_555
O7 C8 1_555 1_555
C13 O6 1_555 1_555
C19 O3 1_555 1_555

#END
