
#######################################################################
#
#                 Cambridge Crystallographic Data Centre
#                                CCDC 
#
#######################################################################
#
# If this CIF has been generated from an entry in the Cambridge 
# Structural Database, then it will include bibliographic, chemical, 
# crystal, experimental, refinement or atomic coordinate data resulting 
# from the CCDC's data processing and validation procedures.
#
#######################################################################

data_YEQBOO
_chemical_formula_moiety         'C23 H23 N1 O3 S1'
_chemical_name_systematic        
5-(4-ethoxyphenyl)-2-[(4-methylphenyl)sulfonyl]-2,3-dihydro-1H-isoindole
_symmetry_cell_setting           orthorhombic
_symmetry_space_group_name_H-M   'P 21 21 21'
_symmetry_Int_Tables_number      19
_space_group_name_Hall           'P 2ac 2ab'
loop_
_symmetry_equiv_pos_site_id
_symmetry_equiv_pos_as_xyz
1 x,y,z
2 1/2-x,-y,1/2+z
3 -x,1/2+y,1/2-z
4 1/2+x,1/2-y,-z
_cell_length_a                   8.4634(2)
_cell_length_b                   9.3587(2)
_cell_length_c                   25.6617(7)
_cell_angle_alpha                90
_cell_angle_beta                 90
_cell_angle_gamma                90
_cell_volume                     2032.57
_exptl_crystal_colour            colorless
_exptl_crystal_description       prism
_cell_formula_units_Z            4
loop_
_atom_site_label
_atom_site_type_symbol
_atom_site_fract_x
_atom_site_fract_y
_atom_site_fract_z
C1 C -0.0432(2) 0.9084(3) 0.63083(8)
H1 H -0.0142 1.0070 0.6241
H2 H -0.0058 0.8487 0.6025
C2 C 0.0194(2) 0.85796(19) 0.68279(7)
C3 C -0.0996(2) 0.7899(2) 0.71041(8)
C4 C -0.2526(2) 0.7912(2) 0.68087(8)
H3 H -0.2781 0.6973 0.6673
H4 H -0.3391 0.8249 0.7024
C5 C 0.1699(2) 0.87195(19) 0.70324(7)
H5 H 0.2491 0.9165 0.6841
C6 C 0.2016(2) 0.81805(19) 0.75322(7)
C7 C 0.0808(2) 0.7480(2) 0.77988(8)
H6 H 0.1016 0.7103 0.8127
C8 C -0.0697(2) 0.7328(2) 0.75893(8)
H7 H -0.1486 0.6851 0.7772
C9 C 0.3571(2) 0.83748(19) 0.77934(7)
C10 C 0.4486(2) 0.9591(2) 0.77213(7)
H8 H 0.4149 1.0281 0.7486
C11 C 0.5890(2) 0.9808(2) 0.79909(7)
H9 H 0.6483 1.0630 0.7934
C12 C 0.6401(2) 0.8790(2) 0.83456(7)
C13 C 0.5521(2) 0.7550(2) 0.84159(8)
H10 H 0.5871 0.6852 0.8646
C14 C 0.4135(2) 0.7354(2) 0.81459(7)
H11 H 0.3557 0.6522 0.8199
C15 C 0.8695(3) 1.0131(3) 0.86019(10)
H12 H 0.8089 1.0985 0.8680
H13 H 0.9117 1.0213 0.8252
C16 C 1.0008(4) 0.9940(3) 0.89905(13)
H14 H 0.9576 0.9922 0.9336
H15 H 1.0740 1.0719 0.8961
H16 H 1.0547 0.9057 0.8923
C17 C -0.3453(2) 0.7471(2) 0.55649(7)
C18 C -0.2521(3) 0.7286(3) 0.51256(8)
H17 H -0.1887 0.8024 0.5003
C19 C -0.2554(3) 0.5974(3) 0.48731(8)
H18 H -0.1945 0.5847 0.4575
C20 C -0.3458(3) 0.4863(3) 0.50501(8)
C21 C -0.4393(3) 0.5087(2) 0.54902(8)
H19 H -0.5026 0.4349 0.5614
C22 C -0.4393(3) 0.6377(2) 0.57423(8)
H20 H -0.5029 0.6512 0.6034
C23 C -0.3474(5) 0.3428(3) 0.47779(12)
H21 H -0.4541 0.3177 0.4690
H22 H -0.3039 0.2715 0.5005
H23 H -0.2852 0.3482 0.4466
N1 N -0.2162(2) 0.8930(2) 0.63857(7)
O1 O 0.77253(18) 0.88844(16) 0.86477(6)
O2 O -0.2781(3) 1.01862(18) 0.55750(8)
O3 O -0.49235(19) 0.9277(2) 0.61504(7)
S1 S -0.34033(7) 0.91053(6) 0.59094(2)
loop_
_geom_bond_atom_site_label_1
_geom_bond_atom_site_label_2
_geom_bond_site_symmetry_1
_geom_bond_site_symmetry_2
C1 H1 1_555 1_555
H2 C1 1_555 1_555
C2 C1 1_555 1_555
C3 C2 1_555 1_555
C4 C3 1_555 1_555
H3 C4 1_555 1_555
H4 C4 1_555 1_555
C5 C2 1_555 1_555
H5 C5 1_555 1_555
C6 C5 1_555 1_555
C7 C6 1_555 1_555
H6 C7 1_555 1_555
C8 C3 1_555 1_555
H7 C8 1_555 1_555
C9 C6 1_555 1_555
C10 C9 1_555 1_555
H8 C10 1_555 1_555
C11 C10 1_555 1_555
H9 C11 1_555 1_555
C12 C11 1_555 1_555
C13 C12 1_555 1_555
H10 C13 1_555 1_555
C14 C9 1_555 1_555
H11 C14 1_555 1_555
C15 H12 1_555 1_555
H13 C15 1_555 1_555
C16 C15 1_555 1_555
H14 C16 1_555 1_555
H15 C16 1_555 1_555
H16 C16 1_555 1_555
C17 C18 1_555 1_555
C18 H17 1_555 1_555
C19 C18 1_555 1_555
H18 C19 1_555 1_555
C20 C19 1_555 1_555
C21 C20 1_555 1_555
H19 C21 1_555 1_555
C22 C17 1_555 1_555
H20 C22 1_555 1_555
C23 C20 1_555 1_555
H21 C23 1_555 1_555
H22 C23 1_555 1_555
H23 C23 1_555 1_555
N1 C1 1_555 1_555
O1 C12 1_555 1_555
O2 S1 1_555 1_555
O3 S1 1_555 1_555
S1 C17 1_555 1_555
C4 N1 1_555 1_555
C7 C8 1_555 1_555
C13 C14 1_555 1_555
C15 O1 1_555 1_555
C21 C22 1_555 1_555
N1 S1 1_555 1_555

#END
