
#######################################################################
#
#                 Cambridge Crystallographic Data Centre
#                                CCDC 
#
#######################################################################
#
# If this CIF has been generated from an entry in the Cambridge 
# Structural Database, then it will include bibliographic, chemical, 
# crystal, experimental, refinement or atomic coordinate data resulting 
# from the CCDC's data processing and validation procedures.
#
#######################################################################

data_YEQBEC
_chemical_formula_moiety         'C60 H64 N8,0.5(C3 H6 O1)'
_chemical_name_systematic        
'3,11,19,27-tetrakis(1-phenylethyl)-3,11,19,27,33,34,35,36-octaazapentacyclo(27.3.1.1^5,9^.1^13,17^.1^21,25^)hexatriaconta-1(33),5(36),6,8,13(35),14,16,21(34),22,24,29,31-dodecaene acetone solvate'
_symmetry_cell_setting           triclinic
_symmetry_space_group_name_H-M   'P 1'
_symmetry_Int_Tables_number      1
_space_group_name_Hall           'P 1'
loop_
_symmetry_equiv_pos_site_id
_symmetry_equiv_pos_as_xyz
1 x,y,z
_cell_length_a                   9.3905(15)
_cell_length_b                   10.6258(17)
_cell_length_c                   14.849(2)
_cell_angle_alpha                103.108(3)
_cell_angle_beta                 103.754(3)
_cell_angle_gamma                90.249(3)
_cell_volume                     1399.01
_cell_formula_units_Z            1
loop_
_atom_site_label
_atom_site_type_symbol
_atom_site_fract_x
_atom_site_fract_y
_atom_site_fract_z
N1 N -0.1047(4) -0.1522(4) 0.7070(3)
N2 N -0.2380(4) 0.0024(4) 0.9155(3)
N3 N 0.0022(4) 0.2624(4) 1.0040(3)
N4 N 0.2346(4) 0.5458(4) 1.0523(3)
N5 N 0.4480(4) 0.5706(4) 0.8884(3)
N6 N 0.4837(4) 0.4383(4) 0.6668(3)
N7 N 0.2898(4) 0.1235(4) 0.6328(3)
N8 N 0.0423(4) -0.1698(4) 0.5245(3)
C1 C -0.1458(5) -0.1875(4) 0.6117(3)
C2 C -0.2795(5) -0.1606(5) 0.5599(4)
H1 H -0.3045 -0.1867 0.4936
C3 C -0.3763(6) -0.0942(6) 0.6079(4)
H2 H -0.4682 -0.0767 0.5745
C4 C -0.3345(6) -0.0544(5) 0.7059(4)
H3 H -0.3972 -0.0086 0.7396
C5 C -0.1970(5) -0.0839(5) 0.7537(4)
C6 C -0.1322(5) -0.0361(6) 0.8586(4)
H4 H -0.0764 -0.1039 0.8818
H5 H -0.0640 0.0374 0.8686
C7 C -0.3247(5) -0.1086(5) 0.9270(4)
H6 H -0.3643 -0.1625 0.8626
C8 C -0.2349(7) -0.1950(6) 0.9836(6)
H7 H -0.1929 -0.1462 1.0475
H8 H -0.1578 -0.2277 0.9540
H9 H -0.2970 -0.2661 0.9852
C9 C -0.4563(5) -0.0558(5) 0.9630(4)
C10 C -0.5560(6) 0.0120(5) 0.9110(4)
H10 H -0.5421 0.0246 0.8537
C11 C -0.6754(6) 0.0612(6) 0.9424(5)
H11 H -0.7405 0.1072 0.9064
C12 C -0.6990(8) 0.0433(7) 1.0254(6)
H12 H -0.7803 0.0765 1.0460
C13 C -0.6023(9) -0.0241(8) 1.0791(6)
H13 H -0.6179 -0.0371 1.1360
C14 C -0.4810(7) -0.0726(6) 1.0473(5)
H14 H -0.4152 -0.1175 1.0840
C15 C -0.1658(5) 0.0899(4) 1.0079(3)
H15 H -0.0733 0.0565 1.0347
H16 H -0.2278 0.0942 1.0521
C16 C -0.1383(5) 0.2228(4) 0.9944(3)
C17 C -0.2539(5) 0.2993(5) 0.9716(3)
H17 H -0.3499 0.2689 0.9643
C18 C -0.2255(6) 0.4209(5) 0.9597(4)
H18 H -0.3011 0.4752 0.9468
C19 C -0.0826(6) 0.4599(5) 0.9676(4)
H19 H -0.0607 0.5405 0.9580
C20 C 0.0272(5) 0.3799(5) 0.9894(3)
C21 C 0.1856(5) 0.4167(5) 0.9950(4)
H20 H 0.2479 0.3549 1.0217
H21 H 0.1970 0.4108 0.9310
C22 C 0.2422(6) 0.5599(5) 1.1551(4)
H22 H 0.1467 0.5253 1.1578
C23 C 0.3562(8) 0.4785(8) 1.2036(5)
H23 H 0.3482 0.4853 1.2678
H24 H 0.4529 0.5096 1.2046
H25 H 0.3391 0.3897 1.1690
C24 C 0.2528(6) 0.7002(6) 1.2048(4)
C25 C 0.1370(7) 0.7757(6) 1.1769(5)
H26 H 0.0572 0.7392 1.1269
C26 C 0.1406(9) 0.9048(8) 1.2232(6)
H27 H 0.0619 0.9537 1.2043
C27 C 0.2570(13) 0.9624(8) 1.2961(7)
H28 H 0.2581 1.0495 1.3260
C28 C 0.3692(12) 0.8915(9) 1.3237(6)
H29 H 0.4485 0.9297 1.3736
C29 C 0.3692(7) 0.7598(8) 1.2784(5)
H30 H 0.4487 0.7123 1.2984
C30 C 0.3726(5) 0.5883(5) 1.0352(4)
H31 H 0.4416 0.5211 1.0403
H32 H 0.4147 0.6653 1.0838
C31 C 0.3498(4) 0.6174(4) 0.9380(3)
C32 C 0.2399(5) 0.6933(5) 0.9056(3)
H33 H 0.1740 0.7244 0.9421
C33 C 0.2289(5) 0.7224(5) 0.8185(4)
H34 H 0.1562 0.7741 0.7952
C34 C 0.3281(6) 0.6732(5) 0.7668(4)
H35 H 0.3220 0.6906 0.7074
C35 C 0.4363(5) 0.5984(4) 0.8027(3)
C36 C 0.5469(5) 0.5428(5) 0.7485(4)
H36 H 0.5887 0.6110 0.7271
H37 H 0.6260 0.5109 0.7910
C37 C 0.5778(6) 0.4033(5) 0.5982(4)
H38 H 0.5299 0.3249 0.5516
C38 C 0.5769(8) 0.5071(7) 0.5423(5)
H39 H 0.6171 0.5878 0.5854
H40 H 0.4779 0.5167 0.5094
H41 H 0.6352 0.4822 0.4968
C39 C 0.7314(6) 0.3682(5) 0.6420(4)
C40 C 0.8486(7) 0.4586(6) 0.6838(5)
H42 H 0.8359 0.5457 0.6854
C41 C 0.9852(7) 0.4189(8) 0.7235(6)
H43 H 1.0635 0.4804 0.7501
C42 C 1.0079(8) 0.2941(8) 0.7246(5)
H44 H 1.0995 0.2700 0.7535
C43 C 0.8952(8) 0.2050(7) 0.6831(5)
H45 H 0.9098 0.1182 0.6821
C44 C 0.7587(6) 0.2405(6) 0.6420(5)
H46 H 0.6829 0.1769 0.6136
C45 C 0.4371(6) 0.3249(5) 0.6957(4)
H47 H 0.4044 0.3536 0.7538
H48 H 0.5206 0.2728 0.7094
C46 C 0.3144(5) 0.2419(5) 0.6201(4)
C47 C 0.2275(6) 0.2868(6) 0.5469(5)
H49 H 0.2464 0.3695 0.5397
C48 C 0.1123(7) 0.2079(6) 0.4843(5)
H50 H 0.0551 0.2350 0.4326
C49 C 0.0832(6) 0.0889(6) 0.4993(4)
H51 H 0.0032 0.0358 0.4597
C50 C 0.1736(5) 0.0487(5) 0.5736(4)
C51 C 0.1454(5) -0.0765(5) 0.5985(3)
H52 H 0.2382 -0.1161 0.6138
H53 H 0.1084 -0.0577 0.6555
C52 C 0.1082(5) -0.2384(5) 0.4479(3)
H54 H 0.1583 -0.1717 0.4286
C53 C 0.2239(7) -0.3290(6) 0.4784(4)
H55 H 0.1791 -0.3992 0.4948
H56 H 0.2973 -0.2827 0.5328
H57 H 0.2689 -0.3627 0.4269
C54 C -0.0126(6) -0.3029(6) 0.3612(4)
C55 C -0.0118(7) -0.4262(7) 0.3097(5)
H58 H 0.0624 -0.4780 0.3308
C56 C -0.1194(9) -0.4772(9) 0.2259(6)
H59 H -0.1144 -0.5609 0.1909
C57 C -0.2318(10) -0.4041(11) 0.1956(6)
H60 H -0.3050 -0.4379 0.1407
C58 C -0.2353(7) -0.2838(10) 0.2454(5)
H61 H -0.3122 -0.2341 0.2248
C59 C -0.1279(7) -0.2303(7) 0.3271(4)
H62 H -0.1324 -0.1451 0.3595
C60 C -0.0350(6) -0.2572(5) 0.5634(3)
H63 H 0.0358 -0.2923 0.6090
H64 H -0.0845 -0.3289 0.5122
O1 O 0.8187(17) 0.1161(16) 0.2676(9)
C61 C 0.647(3) 0.247(2) 0.241(2)
H65 H 0.6257 0.2051 0.1740
H66 H 0.7043 0.3263 0.2522
H67 H 0.5563 0.2650 0.2591
C62 C 0.7240(16) 0.1664(15) 0.2932(11)
C63 C 0.682(2) 0.128(2) 0.3633(17)
H68 H 0.7575 0.1542 0.4214
H69 H 0.6669 0.0351 0.3469
H70 H 0.5927 0.1661 0.3718
loop_
_geom_bond_atom_site_label_1
_geom_bond_atom_site_label_2
_geom_bond_site_symmetry_1
_geom_bond_site_symmetry_2
N1 C1 1_555 1_555
N2 C6 1_555 1_555
N3 C16 1_555 1_555
N4 C21 1_555 1_555
N5 C31 1_555 1_555
N6 C36 1_555 1_555
N7 C46 1_555 1_555
N8 C51 1_555 1_555
C1 C2 1_555 1_555
C2 H1 1_555 1_555
C3 C2 1_555 1_555
H2 C3 1_555 1_555
C4 C3 1_555 1_555
H3 C4 1_555 1_555
C5 N1 1_555 1_555
C6 C5 1_555 1_555
H4 C6 1_555 1_555
H5 C6 1_555 1_555
C7 N2 1_555 1_555
H6 C7 1_555 1_555
C8 C7 1_555 1_555
H7 C8 1_555 1_555
H8 C8 1_555 1_555
H9 C8 1_555 1_555
C9 C7 1_555 1_555
C10 C9 1_555 1_555
H10 C10 1_555 1_555
C11 C10 1_555 1_555
H11 C11 1_555 1_555
C12 C11 1_555 1_555
H12 C12 1_555 1_555
C13 C12 1_555 1_555
H13 C13 1_555 1_555
C14 C9 1_555 1_555
H14 C14 1_555 1_555
C15 N2 1_555 1_555
H15 C15 1_555 1_555
H16 C15 1_555 1_555
C16 C15 1_555 1_555
C17 C16 1_555 1_555
H17 C17 1_555 1_555
C18 C17 1_555 1_555
H18 C18 1_555 1_555
C19 C18 1_555 1_555
H19 C19 1_555 1_555
C20 N3 1_555 1_555
C21 C20 1_555 1_555
H20 C21 1_555 1_555
H21 C21 1_555 1_555
C22 N4 1_555 1_555
H22 C22 1_555 1_555
C23 C22 1_555 1_555
H23 C23 1_555 1_555
H24 C23 1_555 1_555
H25 C23 1_555 1_555
C24 C22 1_555 1_555
C25 C24 1_555 1_555
H26 C25 1_555 1_555
C26 C25 1_555 1_555
H27 C26 1_555 1_555
C27 C26 1_555 1_555
H28 C27 1_555 1_555
C28 C27 1_555 1_555
H29 C28 1_555 1_555
C29 C24 1_555 1_555
H30 C29 1_555 1_555
C30 N4 1_555 1_555
H31 C30 1_555 1_555
H32 C30 1_555 1_555
C31 C30 1_555 1_555
C32 C31 1_555 1_555
H33 C32 1_555 1_555
C33 C32 1_555 1_555
H34 C33 1_555 1_555
C34 C33 1_555 1_555
H35 C34 1_555 1_555
C35 N5 1_555 1_555
C36 C35 1_555 1_555
H36 C36 1_555 1_555
H37 C36 1_555 1_555
C37 N6 1_555 1_555
H38 C37 1_555 1_555
C38 C37 1_555 1_555
H39 C38 1_555 1_555
H40 C38 1_555 1_555
H41 C38 1_555 1_555
C39 C37 1_555 1_555
C40 C39 1_555 1_555
H42 C40 1_555 1_555
C41 C40 1_555 1_555
H43 C41 1_555 1_555
C42 C41 1_555 1_555
H44 C42 1_555 1_555
C43 C42 1_555 1_555
H45 C43 1_555 1_555
C44 C39 1_555 1_555
H46 C44 1_555 1_555
C45 N6 1_555 1_555
H47 C45 1_555 1_555
H48 C45 1_555 1_555
C46 C45 1_555 1_555
C47 C46 1_555 1_555
H49 C47 1_555 1_555
C48 C47 1_555 1_555
H50 C48 1_555 1_555
C49 C48 1_555 1_555
H51 C49 1_555 1_555
C50 N7 1_555 1_555
C51 C50 1_555 1_555
H52 C51 1_555 1_555
H53 C51 1_555 1_555
C52 N8 1_555 1_555
H54 C52 1_555 1_555
C53 C52 1_555 1_555
H55 C53 1_555 1_555
H56 C53 1_555 1_555
H57 C53 1_555 1_555
C54 C52 1_555 1_555
C55 C54 1_555 1_555
H58 C55 1_555 1_555
C56 C55 1_555 1_555
H59 C56 1_555 1_555
C57 C56 1_555 1_555
H60 C57 1_555 1_555
C58 C57 1_555 1_555
H61 C58 1_555 1_555
C59 C54 1_555 1_555
H62 C59 1_555 1_555
C60 N8 1_555 1_555
H63 C60 1_555 1_555
H64 C60 1_555 1_555
O1 C62 1_555 1_555
C61 H65 1_555 1_555
H66 C61 1_555 1_555
H67 C61 1_555 1_555
C62 C61 1_555 1_555
C63 C62 1_555 1_555
H68 C63 1_555 1_555
H69 C63 1_555 1_555
H70 C63 1_555 1_555
C1 C60 1_555 1_555
C4 C5 1_555 1_555
C13 C14 1_555 1_555
C19 C20 1_555 1_555
C28 C29 1_555 1_555
C34 C35 1_555 1_555
C43 C44 1_555 1_555
C49 C50 1_555 1_555
C58 C59 1_555 1_555

#END
