
#######################################################################
#
#                 Cambridge Crystallographic Data Centre
#                                CCDC 
#
#######################################################################
#
# If this CIF has been generated from an entry in the Cambridge 
# Structural Database, then it will include bibliographic, chemical, 
# crystal, experimental, refinement or atomic coordinate data resulting 
# from the CCDC's data processing and validation procedures.
#
#######################################################################

data_YEQCIJ
_chemical_formula_moiety         'C21 H18 F1 N1 O2 S1'
_chemical_name_systematic        
5-(4-fluorophenyl)-2-[(4-methylphenyl)sulfonyl]-2,3-dihydro-1H-isoindole
_symmetry_cell_setting           monoclinic
_symmetry_space_group_name_H-M   'P 21/c'
_symmetry_Int_Tables_number      14
_space_group_name_Hall           '-P 2ybc'
loop_
_symmetry_equiv_pos_site_id
_symmetry_equiv_pos_as_xyz
1 x,y,z
2 -x,1/2+y,1/2-z
3 -x,-y,-z
4 x,1/2-y,1/2+z
_cell_length_a                   20.5689(8)
_cell_length_b                   10.9975(6)
_cell_length_c                   7.9534(3)
_cell_angle_alpha                90
_cell_angle_beta                 91.984(4)
_cell_angle_gamma                90
_cell_volume                     1798.03
_exptl_crystal_colour            colorless
_exptl_crystal_description       prism
_cell_formula_units_Z            4
loop_
_atom_site_label
_atom_site_type_symbol
_atom_site_fract_x
_atom_site_fract_y
_atom_site_fract_z
C1 C 0.29098(11) 0.7811(2) 0.2929(3)
H1 H 0.3067 0.8187 0.1917
H2 H 0.3229 0.7925 0.3842
C2 C 0.22561(10) 0.8306(2) 0.3370(3)
C3 C 0.18198(10) 0.7373(2) 0.3626(3)
C4 C 0.21311(11) 0.6162(2) 0.3360(3)
H3 H 0.2193 0.5722 0.4411
H4 H 0.1876 0.5668 0.2571
C5 C 0.20735(10) 0.9512(2) 0.3527(3)
H5 H 0.2371 1.0131 0.3345
C6 C 0.14371(10) 0.9792(2) 0.3961(3)
C7 C 0.10051(11) 0.8838(2) 0.4238(3)
H6 H 0.0582 0.9016 0.4535
C8 C 0.11912(11) 0.7633(2) 0.4082(3)
H7 H 0.0899 0.7009 0.4281
C9 C 0.12308(10) 1.1078(2) 0.4099(3)
C10 C 0.16485(11) 1.1950(2) 0.4804(3)
H8 H 0.2055 1.1715 0.5238
C11 C 0.14686(13) 1.3163(2) 0.4868(4)
H9 H 0.1749 1.3743 0.5338
C12 C 0.08702(13) 1.3487(2) 0.4226(4)
C13 C 0.04343(12) 1.2664(3) 0.3557(4)
H10 H 0.0025 1.2912 0.3156
C14 C 0.06171(11) 1.1460(2) 0.3493(3)
H11 H 0.0327 1.0889 0.3039
C15 C 0.36275(10) 0.5046(2) 0.4407(3)
C16 C 0.41448(12) 0.5651(3) 0.5194(3)
H12 H 0.4322 0.6338 0.4705
C17 C 0.43946(12) 0.5216(3) 0.6718(4)
H13 H 0.4742 0.5622 0.7245
C18 C 0.41442(12) 0.4202(3) 0.7478(3)
C19 C 0.36137(13) 0.3637(3) 0.6694(4)
H14 H 0.3426 0.2969 0.7205
C20 C 0.33559(12) 0.4047(3) 0.5164(4)
H15 H 0.3002 0.3652 0.4650
C21 C 0.44499(16) 0.3690(4) 0.9081(4)
H16 H 0.4908 0.3858 0.9118
H17 H 0.4382 0.2827 0.9112
H18 H 0.4254 0.4060 1.0033
F1 F 0.06940(10) 1.46814(16) 0.4270(3)
N1 N 0.27613(9) 0.65179(19) 0.2660(3)
O1 O 0.38394(9) 0.6149(2) 0.1590(2)
O2 O 0.30241(10) 0.44774(18) 0.1641(3)
S1 S 0.33262(3) 0.55225(6) 0.24089(8)
loop_
_geom_bond_atom_site_label_1
_geom_bond_atom_site_label_2
_geom_bond_site_symmetry_1
_geom_bond_site_symmetry_2
C1 H1 1_555 1_555
H2 C1 1_555 1_555
C2 C1 1_555 1_555
C3 C2 1_555 1_555
C4 C3 1_555 1_555
H3 C4 1_555 1_555
H4 C4 1_555 1_555
C5 C2 1_555 1_555
H5 C5 1_555 1_555
C6 C5 1_555 1_555
C7 C6 1_555 1_555
H6 C7 1_555 1_555
C8 C3 1_555 1_555
H7 C8 1_555 1_555
C9 C6 1_555 1_555
C10 C9 1_555 1_555
H8 C10 1_555 1_555
C11 C10 1_555 1_555
H9 C11 1_555 1_555
C12 C11 1_555 1_555
C13 C12 1_555 1_555
H10 C13 1_555 1_555
C14 C9 1_555 1_555
H11 C14 1_555 1_555
C15 C16 1_555 1_555
C16 H12 1_555 1_555
C17 C16 1_555 1_555
H13 C17 1_555 1_555
C18 C17 1_555 1_555
C19 C18 1_555 1_555
H14 C19 1_555 1_555
C20 C15 1_555 1_555
H15 C20 1_555 1_555
C21 C18 1_555 1_555
H16 C21 1_555 1_555
H17 C21 1_555 1_555
H18 C21 1_555 1_555
F1 C12 1_555 1_555
N1 C1 1_555 1_555
O1 S1 1_555 1_555
O2 S1 1_555 1_555
S1 C15 1_555 1_555
C4 N1 1_555 1_555
C7 C8 1_555 1_555
C13 C14 1_555 1_555
C19 C20 1_555 1_555
N1 S1 1_555 1_555

#END
