
#######################################################################
#
#                 Cambridge Crystallographic Data Centre
#                                CCDC 
#
#######################################################################
#
# If this CIF has been generated from an entry in the Cambridge 
# Structural Database, then it will include bibliographic, chemical, 
# crystal, experimental, refinement or atomic coordinate data resulting 
# from the CCDC's data processing and validation procedures.
#
#######################################################################

data_YEQHEK
_chemical_formula_moiety         'C36 H22 O1,0.5(C6 H14)'
_chemical_name_systematic        
'4b,10-diphenylindeno[1,2,3-fg]tetracen-9(4bH)-one hexane solvate'
_symmetry_cell_setting           triclinic
_symmetry_space_group_name_H-M   'P -1'
_symmetry_Int_Tables_number      2
_space_group_name_Hall           '-P 1'
loop_
_symmetry_equiv_pos_site_id
_symmetry_equiv_pos_as_xyz
1 x,y,z
2 -x,-y,-z
_cell_length_a                   9.6112(1)
_cell_length_b                   11.7137(2)
_cell_length_c                   13.9270(2)
_cell_angle_alpha                107.9737(8)
_cell_angle_beta                 106.6706(7)
_cell_angle_gamma                100.7463(8)
_cell_volume                     1362.13
_exptl_crystal_colour            yellow
_exptl_crystal_description       'cut rod'
_cell_formula_units_Z            2
loop_
_atom_site_label
_atom_site_type_symbol
_atom_site_fract_x
_atom_site_fract_y
_atom_site_fract_z
O1 O 0.36139(11) 0.54501(9) 0.29645(8)
C1 C 0.45732(15) 0.56305(12) 0.25676(11)
C2 C 0.42445(15) 0.59456(12) 0.15776(11)
C3 C 0.27637(16) 0.54738(13) 0.08131(11)
H1 H 0.1967 0.5018 0.0951
C4 C 0.24516(17) 0.56702(13) -0.01511(11)
H2 H 0.1438 0.5368 -0.0666
C5 C 0.36241(17) 0.63079(13) -0.03565(11)
H3 H 0.3417 0.6412 -0.1028
C6 C 0.51033(17) 0.67988(13) 0.04092(11)
H4 H 0.5894 0.7244 0.0260
C7 C 0.54296(15) 0.66412(12) 0.13882(11)
C8 C 0.69595(15) 0.72458(12) 0.23321(11)
C9 C 0.72505(15) 0.62612(12) 0.27881(10)
C10 C 0.86617(15) 0.61045(12) 0.28897(10)
C11 C 0.90511(15) 0.51472(12) 0.32461(10)
C12 C 1.04674(16) 0.49063(13) 0.33703(11)
H5 H 1.1213 0.5410 0.3225
C13 C 1.07879(17) 0.39660(14) 0.36950(12)
H6 H 1.1752 0.3829 0.3780
C14 C 0.96962(17) 0.32014(14) 0.39037(11)
H7 H 0.9926 0.2550 0.4131
C15 C 0.82987(16) 0.33897(13) 0.37809(11)
H8 H 0.7567 0.2859 0.3917
C16 C 0.79278(15) 0.43655(12) 0.34545(10)
C17 C 0.64374(15) 0.45277(12) 0.32878(10)
C18 C 0.61201(15) 0.54797(12) 0.29522(10)
C19 C 0.69138(15) 0.84415(12) 0.31888(11)
C20 C 0.58926(17) 0.90873(14) 0.29085(13)
H9 H 0.5170 0.8771 0.2187
C21 C 0.59163(19) 1.01914(15) 0.36718(14)
H10 H 0.5214 1.0626 0.3467
C22 C 0.69500(19) 1.06616(14) 0.47232(13)
H11 H 0.6955 1.1412 0.5244
C23 C 0.79848(18) 1.00306(14) 0.50164(12)
H12 H 0.8705 1.0352 0.5739
C24 C 0.79636(17) 0.89288(13) 0.42509(11)
H13 H 0.8675 0.8502 0.4455
C25 C 0.84049(16) 0.75846(12) 0.20954(11)
C26 C 0.88052(17) 0.84481(13) 0.16569(12)
H14 H 0.8134 0.8902 0.1443
C27 C 1.02078(18) 0.86405(14) 0.15343(13)
H15 H 1.0482 0.9207 0.1210
C28 C 1.12013(18) 0.80112(14) 0.18815(13)
H16 H 1.2154 0.8152 0.1792
C29 C 1.08339(16) 0.71756(13) 0.23594(12)
H17 H 1.1535 0.6761 0.2607
C30 C 0.94197(15) 0.69544(12) 0.24698(11)
C31 C 0.52162(15) 0.35908(12) 0.33545(11)
C32 C 0.52234(16) 0.35285(13) 0.43391(11)
H18 H 0.6017 0.4103 0.4998
C33 C 0.40738(16) 0.26292(13) 0.43609(12)
H19 H 0.4088 0.2590 0.5035
C34 C 0.29096(17) 0.17920(13) 0.34051(12)
H20 H 0.2127 0.1177 0.3421
C35 C 0.28913(17) 0.18552(14) 0.24238(12)
H21 H 0.2089 0.1286 0.1767
C36 C 0.40346(16) 0.27430(13) 0.23961(12)
H22 H 0.4016 0.2776 0.1720
C37 C 0.8576(8) 0.1495(10) 0.1002(9)
H23 H 0.8442 0.2322 0.1312
H24 H 0.9388 0.1581 0.0712
H25 H 0.8850 0.1157 0.1568
C38 C 0.7087(3) 0.0598(3) 0.0087(2)
H26 H 0.6845 0.0926 -0.0496
H27 H 0.7233 -0.0233 -0.0222
C39 C 0.5751(3) 0.0428(3) 0.0453(3)
H28 H 0.5632 0.1264 0.0786
H29 H 0.5984 0.0075 0.1021
C37A C 0.1424(8) -0.1495(10) -0.1002(9)
H23A H 0.1558 -0.2322 -0.1312
H24A H 0.0612 -0.1581 -0.0712
H25A H 0.1150 -0.1157 -0.1568
C38A C 0.2913(3) -0.0598(3) -0.0087(2)
H26A H 0.3155 -0.0926 0.0496
H27A H 0.2767 0.0233 0.0222
C39A C 0.4249(3) -0.0428(3) -0.0453(3)
H28A H 0.4368 -0.1264 -0.0786
H29A H 0.4016 -0.0075 -0.1021
C40? C 0.8601(15) 0.131(2) 0.0913(19)
H30? H 0.9396 0.1846 0.1624
H31? H 0.8849 0.0537 0.0609
H32? H 0.8541 0.1763 0.0423
C41? C 0.7063(6) 0.0979(4) 0.1044(4)
H33? H 0.7133 0.0537 0.1550
H34? H 0.6825 0.1764 0.1364
C42? C 0.5786(7) 0.0149(6) -0.0035(5)
H35? H 0.6006 -0.0652 -0.0332
H36? H 0.5769 0.0572 -0.0552
loop_
_geom_bond_atom_site_label_1
_geom_bond_atom_site_label_2
_geom_bond_site_symmetry_1
_geom_bond_site_symmetry_2
O1 C1 1_555 1_555
C1 C2 1_555 1_555
C2 C3 1_555 1_555
C3 H1 1_555 1_555
C4 C3 1_555 1_555
H2 C4 1_555 1_555
C5 C4 1_555 1_555
H3 C5 1_555 1_555
C6 C5 1_555 1_555
H4 C6 1_555 1_555
C7 C2 1_555 1_555
C8 C7 1_555 1_555
C9 C8 1_555 1_555
C10 C9 1_555 1_555
C11 C10 1_555 1_555
C12 C11 1_555 1_555
H5 C12 1_555 1_555
C13 C12 1_555 1_555
H6 C13 1_555 1_555
C14 C13 1_555 1_555
H7 C14 1_555 1_555
C15 C14 1_555 1_555
H8 C15 1_555 1_555
C16 C11 1_555 1_555
C17 C16 1_555 1_555
C18 C1 1_555 1_555
C19 C8 1_555 1_555
C20 C19 1_555 1_555
H9 C20 1_555 1_555
C21 C20 1_555 1_555
H10 C21 1_555 1_555
C22 C21 1_555 1_555
H11 C22 1_555 1_555
C23 C22 1_555 1_555
H12 C23 1_555 1_555
C24 C19 1_555 1_555
H13 C24 1_555 1_555
C25 C8 1_555 1_555
C26 C25 1_555 1_555
H14 C26 1_555 1_555
C27 C26 1_555 1_555
H15 C27 1_555 1_555
C28 C27 1_555 1_555
H16 C28 1_555 1_555
C29 C28 1_555 1_555
H17 C29 1_555 1_555
C30 C10 1_555 1_555
C31 C17 1_555 1_555
C32 C31 1_555 1_555
H18 C32 1_555 1_555
C33 C32 1_555 1_555
H19 C33 1_555 1_555
C34 C33 1_555 1_555
H20 C34 1_555 1_555
C35 C34 1_555 1_555
H21 C35 1_555 1_555
C36 C31 1_555 1_555
H22 C36 1_555 1_555
C37 H23 1_555 1_555
H24 C37 1_555 1_555
H25 C37 1_555 1_555
C38 C37 1_555 1_555
H26 C38 1_555 1_555
H27 C38 1_555 1_555
C39 C38 1_555 1_555
H28 C39 1_555 1_555
H29 C39 1_555 1_555
C37A H23A 1_555 1_555
H24A C37A 1_555 1_555
H25A C37A 1_555 1_555
C38A C37A 1_555 1_555
H26A C38A 1_555 1_555
H27A C38A 1_555 1_555
C39A C39 1_555 1_555
H28A C39A 1_555 1_555
H29A C39A 1_555 1_555
C6 C7 1_555 1_555
C9 C18 1_555 1_555
C15 C16 1_555 1_555
C17 C18 1_555 1_555
C23 C24 1_555 1_555
C25 C30 1_555 1_555
C29 C30 1_555 1_555
C35 C36 1_555 1_555
C38A C39A 1_555 1_555

#END
