
#######################################################################
#
#                 Cambridge Crystallographic Data Centre
#                                CCDC 
#
#######################################################################
#
# If this CIF has been generated from an entry in the Cambridge 
# Structural Database, then it will include bibliographic, chemical, 
# crystal, experimental, refinement or atomic coordinate data resulting 
# from the CCDC's data processing and validation procedures.
#
#######################################################################

data_YERHEJ
_chemical_formula_moiety         'C17 H12 O3 S2'
_chemical_name_systematic        
2,3-bis(methyloxy)-8H-benzo[3,4]thieno[3',2':5,6]cyclohepta[1,2-b]thiophen-8-one
_symmetry_cell_setting           orthorhombic
_symmetry_space_group_name_H-M   'P b c a'
_symmetry_Int_Tables_number      61
_space_group_name_Hall           '-P 2ac 2ab'
loop_
_symmetry_equiv_pos_site_id
_symmetry_equiv_pos_as_xyz
1 x,y,z
2 1/2-x,-y,1/2+z
3 -x,1/2+y,1/2-z
4 1/2+x,1/2-y,-z
5 -x,-y,-z
6 1/2+x,y,1/2-z
7 x,1/2-y,1/2+z
8 1/2-x,1/2+y,z
_cell_length_a                   11.2885(5)
_cell_length_b                   14.1230(6)
_cell_length_c                   17.4374(7)
_cell_angle_alpha                90
_cell_angle_beta                 90
_cell_angle_gamma                90
_cell_volume                     2780
_exptl_crystal_colour            yellow
_exptl_crystal_description       block
_chemical_melting_point          '241-243 deg.C'
_cell_formula_units_Z            8
loop_
_atom_site_label
_atom_site_type_symbol
_atom_site_fract_x
_atom_site_fract_y
_atom_site_fract_z
S1 S 0.29755(2) 0.019356(19) 0.438214(16)
O1 O 0.18471(8) -0.13191(6) 0.36395(5)
C1 C 0.14034(10) -0.12074(8) 0.42891(6)
S2 S 0.00693(2) -0.26626(2) 0.385839(15)
O2 O -0.04613(9) 0.01604(6) 0.79815(5)
C2 C 0.18432(9) -0.04668(8) 0.47863(6)
O3 O -0.17686(8) -0.13108(6) 0.77809(5)
C3 C 0.15731(10) -0.01918(7) 0.55369(6)
C4 C 0.06641(9) -0.05701(7) 0.60597(6)
C5 C 0.05320(10) -0.00714(8) 0.67609(6)
H1 H 0.1028 0.0460 0.6851
C6 C -0.02752(10) -0.03155(8) 0.73179(6)
C7 C -0.09963(10) -0.11209(8) 0.72028(6)
C8 C -0.08902(10) -0.16198(7) 0.65285(6)
H2 H -0.1378 -0.2161 0.6456
C9 C -0.00846(9) -0.13651(7) 0.59329(6)
C10 C -0.01499(9) -0.19412(7) 0.52327(6)
C11 C 0.04760(10) -0.18393(8) 0.45465(6)
C12 C 0.23463(11) 0.05717(8) 0.57594(7)
H3 H 0.2321 0.0860 0.6252
C13 C 0.31171(11) 0.08435(9) 0.52006(7)
H4 H 0.3674 0.1342 0.5261
C14 C -0.09558(10) -0.27314(8) 0.51646(6)
H5 H -0.1462 -0.2928 0.5570
C15 C -0.09264(10) -0.31703(8) 0.44680(6)
H6 H -0.1406 -0.3699 0.4337
C16 C 0.00976(12) 0.10669(8) 0.80525(7)
H7 H 0.0959 0.0984 0.8074
H8 H -0.0175 0.1377 0.8523
H9 H -0.0108 0.1460 0.7609
C17 C -0.25713(11) -0.20829(9) 0.76726(7)
H10 H -0.3048 -0.1971 0.7212
H11 H -0.3094 -0.2135 0.8119
H12 H -0.2122 -0.2672 0.7612
loop_
_geom_bond_atom_site_label_1
_geom_bond_atom_site_label_2
_geom_bond_site_symmetry_1
_geom_bond_site_symmetry_2
S1 C2 1_555 1_555
O1 C1 1_555 1_555
C1 C2 1_555 1_555
S2 C11 1_555 1_555
O2 C6 1_555 1_555
C2 C3 1_555 1_555
O3 C7 1_555 1_555
C3 C4 1_555 1_555
C4 C5 1_555 1_555
C5 H1 1_555 1_555
C6 C5 1_555 1_555
C7 C6 1_555 1_555
C8 C7 1_555 1_555
H2 C8 1_555 1_555
C9 C4 1_555 1_555
C10 C9 1_555 1_555
C11 C1 1_555 1_555
C12 C3 1_555 1_555
H3 C12 1_555 1_555
C13 S1 1_555 1_555
H4 C13 1_555 1_555
C14 C10 1_555 1_555
H5 C14 1_555 1_555
C15 S2 1_555 1_555
H6 C15 1_555 1_555
C16 O2 1_555 1_555
H7 C16 1_555 1_555
H8 C16 1_555 1_555
H9 C16 1_555 1_555
C17 O3 1_555 1_555
H10 C17 1_555 1_555
H11 C17 1_555 1_555
H12 C17 1_555 1_555
C8 C9 1_555 1_555
C10 C11 1_555 1_555
C12 C13 1_555 1_555
C14 C15 1_555 1_555

#END
