
#######################################################################
#
#                 Cambridge Crystallographic Data Centre
#                                CCDC 
#
#######################################################################
#
# If this CIF has been generated from an entry in the Cambridge 
# Structural Database, then it will include bibliographic, chemical, 
# crystal, experimental, refinement or atomic coordinate data resulting 
# from the CCDC's data processing and validation procedures.
#
#######################################################################

data_YERJIO
_chemical_formula_moiety         'C6 H8 N2 O2'
_chemical_name_systematic        (+-)-2,5-Diazabicyclo(2.2.2)octane-3,6-dione
_symmetry_cell_setting           orthorhombic
_symmetry_space_group_name_H-M   'P c c n'
_symmetry_Int_Tables_number      56
_space_group_name_Hall           '-P 2ab 2ac'
loop_
_symmetry_equiv_pos_site_id
_symmetry_equiv_pos_as_xyz
1 x,y,z
2 1/2-x,1/2-y,z
3 1/2+x,-y,1/2-z
4 -x,1/2+y,1/2-z
5 -x,-y,-z
6 1/2+x,1/2+y,-z
7 1/2-x,y,1/2+z
8 x,1/2-y,1/2+z
_cell_length_a                   6.793(3)
_cell_length_b                   8.362(6)
_cell_length_c                   11.156(9)
_cell_angle_alpha                90
_cell_angle_beta                 90
_cell_angle_gamma                90
_cell_volume                     633.695
_exptl_crystal_colour            colorless
_cell_formula_units_Z            4
loop_
_atom_site_label
_atom_site_type_symbol
_atom_site_fract_x
_atom_site_fract_y
_atom_site_fract_z
N1 N 0.0747(3) 0.6727(3) 0.5909(2)
O1 O 0.2534(3) 0.4492(2) 0.5436(2)
C1 C 0.2406(4) 0.5832(3) 0.5883(2)
C2 C 0.0929(4) 0.8280(3) 0.6480(3)
C3 C 0.1549(5) 0.7986(4) 0.7795(3)
H1 H -0.062 0.640 0.555
H2 H -0.033 0.887 0.638
H3 H 0.048 0.737 0.806
H4 H 0.189 0.893 0.812
C2A C 0.4071(4) 0.6720(3) 0.6480(3)
C1A C 0.2594(4) 0.9168(3) 0.5883(2)
C3A C 0.3451(5) 0.7014(4) 0.7795(3)
N1A N 0.4253(3) 0.8273(3) 0.5909(2)
H2A H 0.533 0.613 0.638
O1A O 0.2466(3) 1.0508(2) 0.5436(2)
H3A H 0.452 0.763 0.806
H4A H 0.311 0.607 0.812
H1A H 0.562 0.860 0.555
loop_
_geom_bond_atom_site_label_1
_geom_bond_atom_site_label_2
_geom_bond_site_symmetry_1
_geom_bond_site_symmetry_2
N1 C1 1_555 1_555
O1 C1 1_555 1_555
C1 C2A 1_555 1_555
C2 N1 1_555 1_555
C3 C2 1_555 1_555
H1 N1 1_555 1_555
H2 C2 1_555 1_555
H3 C3 1_555 1_555
H4 C3 1_555 1_555
C2A C3A 1_555 1_555
C1A C2 1_555 1_555
C3A C3 1_555 1_555
N1A C2A 1_555 1_555
H2A C2A 1_555 1_555
O1A C1A 1_555 1_555
H3A C3A 1_555 1_555
H4A C3A 1_555 1_555
H1A N1A 1_555 1_555
C1A N1A 1_555 1_555

#END
