
#######################################################################
#
#                 Cambridge Crystallographic Data Centre
#                                CCDC 
#
#######################################################################
#
# If this CIF has been generated from an entry in the Cambridge 
# Structural Database, then it will include bibliographic, chemical, 
# crystal, experimental, refinement or atomic coordinate data resulting 
# from the CCDC's data processing and validation procedures.
#
#######################################################################

data_YERJOU
_chemical_formula_moiety         'C6 H8 N2 O2'
_chemical_name_systematic        (-)-2,5-Diazabicyclo(2.2.2)octane-3,6-dione
_symmetry_cell_setting           orthorhombic
_symmetry_space_group_name_H-M   'P 21 21 2'
_symmetry_Int_Tables_number      18
_space_group_name_Hall           'P 2 2ab'
loop_
_symmetry_equiv_pos_site_id
_symmetry_equiv_pos_as_xyz
1 x,y,z
2 -x,-y,z
3 1/2+x,1/2-y,-z
4 1/2-x,1/2+y,-z
_cell_length_a                   8.314(2)
_cell_length_b                   6.864(2)
_cell_length_c                   5.556
_cell_angle_alpha                90
_cell_angle_beta                 90
_cell_angle_gamma                90
_cell_volume                     317.066
_exptl_crystal_colour            colorless
_chemical_melting_point          300-305deg.C
_cell_formula_units_Z            2
loop_
_atom_site_label
_atom_site_type_symbol
_atom_site_fract_x
_atom_site_fract_y
_atom_site_fract_z
N1 N 0.4257(2) 0.1750(3) 0.8260(4)
O1 O 0.1967(2) 0.0081(2) 0.9190(3)
C1 C 0.3321(2) 0.0164(3) 0.8312(3)
C2 C 0.5823(3) 0.1520(3) 0.7090(4)
C3 C 0.5531(3) 0.0922(4) 0.4440(3)
H1 H 0.399 0.282 0.903
H2 H 0.650 0.272 0.735
H3 H 0.490 0.197 0.351
H4 H 0.660 0.070 0.373
C2A C 0.4177(3) -0.1520(3) 0.7090(4)
C1A C 0.6679(2) -0.0164(3) 0.8312(3)
C3A C 0.4469(3) -0.0922(4) 0.4440(3)
N1A N 0.5743(2) -0.1750(3) 0.8260(4)
H2A H 0.350 -0.272 0.735
O1A O 0.8033(2) -0.0081(2) 0.9190(3)
H3A H 0.510 -0.197 0.351
H4A H 0.340 -0.070 0.373
H1A H 0.601 -0.282 0.903
loop_
_geom_bond_atom_site_label_1
_geom_bond_atom_site_label_2
_geom_bond_site_symmetry_1
_geom_bond_site_symmetry_2
N1 C1 1_555 1_555
O1 C1 1_555 1_555
C1 C2A 1_555 1_555
C2 N1 1_555 1_555
C3 C2 1_555 1_555
H1 N1 1_555 1_555
H2 C2 1_555 1_555
H3 C3 1_555 1_555
H4 C3 1_555 1_555
C2A C3A 1_555 1_555
C1A C2 1_555 1_555
C3A C3 1_555 1_555
N1A C2A 1_555 1_555
H2A C2A 1_555 1_555
O1A C1A 1_555 1_555
H3A C3A 1_555 1_555
H4A C3A 1_555 1_555
H1A N1A 1_555 1_555
C1A N1A 1_555 1_555

#END
