
#######################################################################
#
#                 Cambridge Crystallographic Data Centre
#                                CCDC 
#
#######################################################################
#
# If this CIF has been generated from an entry in the Cambridge 
# Structural Database, then it will include bibliographic, chemical, 
# crystal, experimental, refinement or atomic coordinate data resulting 
# from the CCDC's data processing and validation procedures.
#
#######################################################################

data_YERMIU
_chemical_name_common            
'4,9,14,19,24-pentamethoxy-26,28,30,32,34-pentakis[(prop-2-en-1-yl)oxy]hexacyclo[21.2.2.2$3,6!.2$8,11!.2$13,16!.2$18,21!]pentatriaconta-1(25),3,5,8,10,13,15,18,20,23,26,28,30,32,34-pentadecaene n-hexane solvate'
_chemical_formula_moiety         'C55 H60 O10,C6 H14'
_chemical_name_systematic        
'1-((prop-2-en-1-yl)oxy)-4-methoxypillar(5)arene n-hexane solvate'
_symmetry_cell_setting           triclinic
_symmetry_space_group_name_H-M   'P -1'
_symmetry_Int_Tables_number      2
_space_group_name_Hall           '-P 1'
loop_
_symmetry_equiv_pos_site_id
_symmetry_equiv_pos_as_xyz
1 x,y,z
2 -x,-y,-z
_cell_length_a                   11.8432(12)
_cell_length_b                   12.2389(16)
_cell_length_c                   21.236(3)
_cell_angle_alpha                81.873(13)
_cell_angle_beta                 76.172(12)
_cell_angle_gamma                64.056(10)
_cell_volume                     2685.3
_exptl_crystal_colour            'light yellow'
_exptl_crystal_description       Prism
_cell_formula_units_Z            2
loop_
_atom_site_label
_atom_site_type_symbol
_atom_site_fract_x
_atom_site_fract_y
_atom_site_fract_z
O1 O 0.08204(17) 0.51573(15) 0.37344(8)
O2 O 0.2049(2) -0.12042(18) 0.09498(9)
O3 O 0.10153(17) 0.11931(15) 0.47110(8)
O4 O 0.40601(18) -0.20161(17) 0.31551(8)
O5 O -0.18771(17) 0.62115(16) 0.18926(8)
O6 O -0.31276(18) 0.39059(17) 0.37190(9)
O7 O -0.08856(18) -0.06804(16) 0.32059(9)
O8 O 0.55458(18) 0.04180(16) 0.10483(9)
O9 O 0.33489(17) 0.48456(17) 0.13133(9)
O10 O 0.10072(19) 0.30454(16) 0.01899(9)
C1 C 0.0910(4) -0.1281(4) 0.09927(18)
H1 H 0.0693 -0.1122 0.0571
H2 H 0.0246 -0.0692 0.1286
H3 H 0.0994 -0.2082 0.1151
C2 C 0.2515(3) -0.1390(2) 0.15125(12)
C3 C 0.3663(3) -0.1290(2) 0.14475(12)
C4 C 0.4176(3) -0.1496(2) 0.19953(12)
H4 H 0.4950 -0.1444 0.1960
C5 C 0.3568(3) -0.1779(2) 0.25955(12)
C6 C 0.2403(3) -0.1845(2) 0.26665(12)
C7 C 0.1892(3) -0.1656(2) 0.21131(12)
H5 H 0.1120 -0.1709 0.2147
C8 C 0.5095(3) -0.1722(3) 0.31342(15)
C9 C 0.5409(3) -0.1937(3) 0.37929(15)
H6 H 0.6022 -0.1694 0.3846
C10 C 0.4915(4) -0.2426(3) 0.42989(16)
C11 C 0.1666(3) -0.2049(2) 0.33280(12)
H7 H 0.1141 -0.2443 0.3278
H8 H 0.2267 -0.2585 0.3596
C12 C 0.0819(3) -0.0863(2) 0.36635(11)
C13 C -0.2184(3) -0.0034(3) 0.31507(15)
H9 H -0.2393 -0.0473 0.2890
H10 H -0.2319 0.0755 0.2949
H11 H -0.2722 0.0056 0.3575
C14 C -0.0449(3) -0.0193(2) 0.35924(12)
C15 C -0.1190(3) 0.0893(2) 0.39014(12)
H12 H -0.2041 0.1321 0.3859
C16 C -0.0696(3) 0.1358(2) 0.42735(11)
C17 C 0.0570(3) 0.0694(2) 0.43362(11)
C18 C 0.1306(3) -0.0402(2) 0.40381(12)
H13 H 0.2149 -0.0840 0.4091
C19 C 0.2335(3) 0.0633(3) 0.47154(14)
C20 C 0.2640(3) 0.1361(3) 0.51007(14)
H14 H 0.3502 0.1159 0.5078
C21 C 0.1810(4) 0.2254(3) 0.54672(14)
C22 C -0.1513(3) 0.2565(2) 0.45865(12)
H15 H -0.1274 0.2546 0.4996
H16 H -0.2405 0.2700 0.4678
C23 C -0.1354(2) 0.3611(2) 0.41498(12)
C24 C -0.3828(3) 0.4419(3) 0.32170(15)
H17 H -0.3246 0.4278 0.2805
H18 H -0.4310 0.5278 0.3269
H19 H -0.4402 0.4049 0.3236
C25 C -0.2163(3) 0.4250(2) 0.37224(12)
C26 C -0.1992(3) 0.5193(2) 0.33252(12)
H20 H -0.2561 0.5632 0.3051
C27 C -0.0997(3) 0.5491(2) 0.33288(12)
C28 C -0.0172(2) 0.4842(2) 0.37500(12)
C29 C -0.0366(3) 0.3923(2) 0.41609(12)
H21 H 0.0179 0.3509 0.4450
C30 C 0.1705(3) 0.4435(2) 0.41422(13)
H22 H 0.2015 0.3580 0.4063
H23 H 0.1282 0.4562 0.4594
C31 C 0.2799(3) 0.4784(2) 0.40018(14)
H24 H 0.3112 0.4949 0.3571
C32 C 0.3347(3) 0.4873(3) 0.44466(16)
C33 C -0.0813(3) 0.6494(2) 0.28652(12)
H25 H -0.1643 0.7122 0.2810
H26 H -0.0391 0.6858 0.3051
C34 C -0.2451(3) 0.6051(3) 0.14213(14)
H27 H -0.2285 0.6496 0.1027
H28 H -0.3359 0.6344 0.1579
H29 H -0.2098 0.5202 0.1337
C35 C -0.0571(3) 0.5842(2) 0.17420(12)
C36 C -0.0016(3) 0.6012(2) 0.22076(12)
C37 C 0.0187(3) 0.5331(2) 0.11584(12)
H30 H -0.0194 0.5217 0.0853
C38 C 0.1494(3) 0.4989(2) 0.10217(12)
C39 C 0.2045(2) 0.5183(2) 0.14814(12)
C40 C 0.1292(3) 0.5687(2) 0.20671(12)
H31 H 0.1672 0.5809 0.2371
C41 C 0.3958(3) 0.5058(3) 0.17546(14)
H32 H 0.3819 0.4638 0.2168
H33 H 0.3597 0.5921 0.1826
C42 C 0.5338(3) 0.4613(3) 0.14818(18)
H34 H 0.5829 0.4643 0.1756
C43 C 0.5935(5) 0.4211(4) 0.0953(2)
H35 H 0.5509 0.4153 0.0652
H36 H 0.6818 0.3962 0.0848
C44 C 0.2306(3) 0.4361(2) 0.03980(12)
H37 H 0.1793 0.4634 0.0065
H38 H 0.3018 0.4588 0.0252
C45 C 0.2816(3) 0.2995(2) 0.04890(11)
C46 C 0.2158(3) 0.2357(2) 0.03841(12)
C47 C 0.0305(3) 0.2417(3) 0.00959(15)
H39 H 0.0801 0.1852 -0.0242
H40 H -0.0483 0.2990 -0.0026
H41 H 0.0122 0.1984 0.0492
C48 C 0.2657(3) 0.1107(2) 0.04729(12)
H42 H 0.2221 0.0693 0.0382
C49 C 0.3794(3) 0.0452(2) 0.06938(12)
C50 C 0.4432(2) 0.1093(2) 0.08182(12)
C51 C 0.3957(3) 0.2341(2) 0.07047(12)
H43 H 0.4414 0.2751 0.0775
C52 C 0.6270(3) 0.1031(3) 0.11190(19)
C53 C 0.7395(3) 0.0180(3) 0.13861(16)
H44 H 0.7929 0.0497 0.1467
C54 C 0.7714(4) -0.0978(3) 0.15205(17)
C55 C 0.4303(3) -0.0917(2) 0.07999(12)
H45 H 0.5219 -0.1254 0.0781
H46 H 0.4165 -0.1253 0.0453
H47 H 0.412(3) 0.505(3) 0.4347(14)
H48 H 0.210(3) 0.268(3) 0.5691(14)
H49 H 0.096(3) 0.249(3) 0.5486(14)
H50 H 0.304(3) 0.474(3) 0.4903(16)
H51 H 0.515(3) -0.254(3) 0.4713(16)
H52 H 0.849(3) -0.149(3) 0.1702(14)
H53 H 0.429(3) -0.273(3) 0.4279(15)
H54 H 0.716(3) -0.134(3) 0.1456(15)
H55 H 0.283(3) 0.061(2) 0.4289(14)
H56 H 0.257(2) -0.017(3) 0.4917(12)
H57 H 0.484(3) -0.083(3) 0.2984(13)
H58 H 0.587(3) -0.220(3) 0.2802(14)
H59 H 0.577(3) 0.167(3) 0.1423(15)
H60 H 0.655(3) 0.133(3) 0.0710(17)
C56 C 0.1447(4) 0.2382(4) 0.23544(17)
H61 H 0.0881 0.3148 0.2558
H62 H 0.1753 0.2579 0.1907
C57 C -0.0456(4) 0.2325(4) 0.2042(2)
H63 H -0.0248 0.2701 0.1629
H64 H -0.1142 0.2930 0.2319
H65 H -0.0718 0.1715 0.1980
C58 C 0.2553(4) 0.1824(3) 0.26674(19)
H66 H 0.2240 0.1688 0.3124
H67 H 0.3089 0.1030 0.2488
C59 C 0.4463(4) 0.1868(4) 0.2950(2)
H68 H 0.5087 0.1149 0.2730
H69 H 0.4183 0.1653 0.3393
H70 H 0.4839 0.2426 0.2938
C60 C 0.3368(5) 0.2441(5) 0.2629(2)
H71 H 0.2834 0.3237 0.2806
H72 H 0.3690 0.2570 0.2173
C61 C 0.0684(4) 0.1755(4) 0.2346(2)
H73 H 0.0395 0.1541 0.2794
H74 H 0.1247 0.0998 0.2133
loop_
_geom_bond_atom_site_label_1
_geom_bond_atom_site_label_2
_geom_bond_site_symmetry_1
_geom_bond_site_symmetry_2
O1 C28 1_555 1_555
O2 C1 1_555 1_555
O3 C17 1_555 1_555
O4 C5 1_555 1_555
O5 C34 1_555 1_555
O6 C24 1_555 1_555
O7 C13 1_555 1_555
O8 C50 1_555 1_555
O9 C39 1_555 1_555
O10 C46 1_555 1_555
C1 H1 1_555 1_555
H2 C1 1_555 1_555
H3 C1 1_555 1_555
C2 O2 1_555 1_555
C3 C2 1_555 1_555
C4 C3 1_555 1_555
H4 C4 1_555 1_555
C5 C4 1_555 1_555
C6 C5 1_555 1_555
C7 C2 1_555 1_555
H5 C7 1_555 1_555
C8 O4 1_555 1_555
C9 C8 1_555 1_555
H6 C9 1_555 1_555
C10 C9 1_555 1_555
C11 C6 1_555 1_555
H7 C11 1_555 1_555
H8 C11 1_555 1_555
C12 C11 1_555 1_555
C13 H9 1_555 1_555
H10 C13 1_555 1_555
H11 C13 1_555 1_555
C14 O7 1_555 1_555
C15 C14 1_555 1_555
H12 C15 1_555 1_555
C16 C15 1_555 1_555
C17 C16 1_555 1_555
C18 C12 1_555 1_555
H13 C18 1_555 1_555
C19 O3 1_555 1_555
C20 C19 1_555 1_555
H14 C20 1_555 1_555
C21 C20 1_555 1_555
C22 C16 1_555 1_555
H15 C22 1_555 1_555
H16 C22 1_555 1_555
C23 C22 1_555 1_555
C24 H17 1_555 1_555
H18 C24 1_555 1_555
H19 C24 1_555 1_555
C25 O6 1_555 1_555
C26 C25 1_555 1_555
H20 C26 1_555 1_555
C27 C26 1_555 1_555
C28 C27 1_555 1_555
C29 C23 1_555 1_555
H21 C29 1_555 1_555
C30 O1 1_555 1_555
H22 C30 1_555 1_555
H23 C30 1_555 1_555
C31 C30 1_555 1_555
H24 C31 1_555 1_555
C32 C31 1_555 1_555
C33 C27 1_555 1_555
H25 C33 1_555 1_555
H26 C33 1_555 1_555
C34 H27 1_555 1_555
H28 C34 1_555 1_555
H29 C34 1_555 1_555
C35 O5 1_555 1_555
C36 C33 1_555 1_555
C37 C35 1_555 1_555
H30 C37 1_555 1_555
C38 C37 1_555 1_555
C39 C38 1_555 1_555
C40 C36 1_555 1_555
H31 C40 1_555 1_555
C41 O9 1_555 1_555
H32 C41 1_555 1_555
H33 C41 1_555 1_555
C42 C41 1_555 1_555
H34 C42 1_555 1_555
C43 C42 1_555 1_555
H35 C43 1_555 1_555
H36 C43 1_555 1_555
C44 C38 1_555 1_555
H37 C44 1_555 1_555
H38 C44 1_555 1_555
C45 C44 1_555 1_555
C46 C45 1_555 1_555
C47 O10 1_555 1_555
H39 C47 1_555 1_555
H40 C47 1_555 1_555
H41 C47 1_555 1_555
C48 C46 1_555 1_555
H42 C48 1_555 1_555
C49 C48 1_555 1_555
C50 C49 1_555 1_555
C51 C45 1_555 1_555
H43 C51 1_555 1_555
C52 O8 1_555 1_555
C53 C52 1_555 1_555
H44 C53 1_555 1_555
C54 C53 1_555 1_555
C55 C3 1_555 1_555
H45 C55 1_555 1_555
H46 C55 1_555 1_555
H47 C32 1_555 1_555
H48 C21 1_555 1_555
H49 C21 1_555 1_555
H50 C32 1_555 1_555
H51 C10 1_555 1_555
H52 C54 1_555 1_555
H53 C10 1_555 1_555
H54 C54 1_555 1_555
H55 C19 1_555 1_555
H56 C19 1_555 1_555
H57 C8 1_555 1_555
H58 C8 1_555 1_555
H59 C52 1_555 1_555
H60 C52 1_555 1_555
C56 H61 1_555 1_555
H62 C56 1_555 1_555
C57 H63 1_555 1_555
H64 C57 1_555 1_555
H65 C57 1_555 1_555
C58 C56 1_555 1_555
H66 C58 1_555 1_555
H67 C58 1_555 1_555
C59 H68 1_555 1_555
H69 C59 1_555 1_555
H70 C59 1_555 1_555
C60 C58 1_555 1_555
H71 C60 1_555 1_555
H72 C60 1_555 1_555
C61 C56 1_555 1_555
H73 C61 1_555 1_555
H74 C61 1_555 1_555
C6 C7 1_555 1_555
C12 C14 1_555 1_555
C17 C18 1_555 1_555
C23 C25 1_555 1_555
C28 C29 1_555 1_555
C35 C36 1_555 1_555
C39 C40 1_555 1_555
C49 C55 1_555 1_555
C50 C51 1_555 1_555
C57 C61 1_555 1_555
C59 C60 1_555 1_555

#END
