
#######################################################################
#
#                 Cambridge Crystallographic Data Centre
#                                CCDC 
#
#######################################################################
#
# If this CIF has been generated from an entry in the Cambridge 
# Structural Database, then it will include bibliographic, chemical, 
# crystal, experimental, refinement or atomic coordinate data resulting 
# from the CCDC's data processing and validation procedures.
#
#######################################################################

data_YERMUG
_chemical_name_common            
'4,9,14,19,24-pentakis[(but-3-en-1-yl)oxy]-26,28,30,32,34-pentamethoxyhexacyclo[21.2.2.2$3,6!.2$8,11!.2$13,16!.2$18,21!]pentatriaconta-1(25),3,5,8,10,13,15,18,20,23,26,28,30,32,34-pentadecaene hexane solvate'
_chemical_formula_moiety         'C60 H70 O10,C6 H14'
_chemical_name_systematic        
'1-((but-3-en-1-yl)oxy)-4-methoxypillar(5)arene n-hexane solvate'
_symmetry_cell_setting           orthorhombic
_symmetry_space_group_name_H-M   'P 21 21 21'
_symmetry_Int_Tables_number      19
_space_group_name_Hall           'P 2ac 2ab'
loop_
_symmetry_equiv_pos_site_id
_symmetry_equiv_pos_as_xyz
1 x,y,z
2 1/2-x,-y,1/2+z
3 1/2+x,1/2-y,-z
4 -x,1/2+y,1/2-z
_cell_length_a                   12.3445(10)
_cell_length_b                   20.6410(15)
_cell_length_c                   23.2546(18)
_cell_angle_alpha                90
_cell_angle_beta                 90
_cell_angle_gamma                90
_cell_volume                     5925.34
_exptl_crystal_colour            colorless
_exptl_crystal_description       prism
_cell_formula_units_Z            4
loop_
_atom_site_label
_atom_site_type_symbol
_atom_site_fract_x
_atom_site_fract_y
_atom_site_fract_z
O1 O -0.39255(17) -0.00382(9) -0.25719(7)
O2 O -0.13476(15) 0.17999(10) -0.27368(8)
O3 O 0.24427(15) 0.10210(10) -0.35216(8)
O4 O 0.23517(16) -0.13525(9) -0.37482(8)
O5 O -0.15240(16) -0.19440(10) -0.30985(8)
O6 O -0.43177(17) -0.11991(9) -0.47044(8)
O7 O -0.41801(14) 0.12792(9) -0.45244(7)
O8 O -0.04980(15) 0.21966(9) -0.49819(8)
O9 O 0.17294(19) 0.02352(10) -0.56357(9)
O10 O -0.05649(15) -0.18948(10) -0.54258(8)
C1 C -0.34725(19) 0.14278(12) -0.40835(11)
C2 C -0.3981(2) -0.03391(12) -0.31034(10)
C3 C -0.44224(19) 0.00330(12) -0.35475(10)
C4 C -0.45432(19) -0.02588(12) -0.40817(11)
H1 H -0.485690 -0.001840 -0.438764
C5 C -0.42174(19) -0.08923(12) -0.41799(11)
C6 C -0.37324(19) -0.12504(12) -0.37414(11)
C7 C -0.3635(2) -0.09670(12) -0.32036(11)
H2 H -0.332420 -0.120850 -0.289750
C8 C -0.3369(3) -0.03643(18) -0.21300(14)
H3 H -0.332157 -0.008337 -0.179118
H4 H -0.263766 -0.047481 -0.226136
H5 H -0.376026 -0.076164 -0.202974
C9 C -0.5001(3) -0.09156(15) -0.51194(13)
H6 H -0.471802 -0.048477 -0.523079
H7 H -0.573726 -0.085753 -0.495836
C10 C -0.5047(3) -0.13513(15) -0.56370(13)
H8 H -0.429769 -0.143946 -0.576740
H9 H -0.537299 -0.176973 -0.552174
C11 C -0.5667(4) -0.10869(19) -0.61220(15)
H10 H -0.540364 -0.068212 -0.625707
C12 C -0.6458(4) -0.1287(2) -0.63864(17)
H11 H -0.677972 -0.168798 -0.628304
H12 H -0.674854 -0.103994 -0.669478
C13 C -0.47030(19) 0.07404(12) -0.34542(11)
H13 H -0.498261 0.079982 -0.305870
H14 H -0.528093 0.086926 -0.372627
C14 C -0.37169(19) 0.11726(11) -0.35429(11)
C15 C -0.3018(2) 0.13039(13) -0.30918(11)
H15 H -0.317958 0.113975 -0.271993
C16 C -0.2087(2) 0.16697(12) -0.31707(11)
C17 C -0.18535(19) 0.19384(12) -0.37083(11)
C18 C -0.2563(2) 0.18142(12) -0.41586(11)
H16 H -0.242373 0.199786 -0.452575
C19 C -0.1520(3) 0.1501(2) -0.22005(14)
H17 H -0.153282 0.102914 -0.225048
H18 H -0.221322 0.164540 -0.204089
H19 H -0.093250 0.161856 -0.193691
C20 C -0.3830(2) 0.14277(13) -0.50957(11)
H20 H -0.310731 0.123717 -0.516895
H21 H -0.378244 0.190267 -0.514914
C21 C -0.4655(2) 0.11436(15) -0.55020(12)
H22 H -0.472404 0.067284 -0.542919
H23 H -0.536991 0.134601 -0.543035
C22 C -0.4336(3) 0.12519(17) -0.61155(13)
H24 H -0.414024 0.168098 -0.622038
C23 C -0.4301(4) 0.0826(2) -0.65098(18)
H25 H -0.448976 0.038989 -0.642644
H26 H -0.408684 0.094410 -0.688788
C24 C -0.0861(2) 0.23566(12) -0.38037(12)
H27 H -0.065006 0.255973 -0.343467
H28 H -0.104353 0.270776 -0.407704
C25 C 0.0094(2) 0.19731(12) -0.40381(11)
C26 C 0.0832(2) 0.16860(11) -0.36647(11)
H29 H 0.074875 0.174518 -0.326202
C27 C 0.1686(2) 0.13152(12) -0.38684(11)
C28 C 0.18283(19) 0.12243(11) -0.44590(11)
C29 C 0.11022(19) 0.15198(12) -0.48338(11)
H30 H 0.119400 0.146768 -0.523672
C30 C 0.02441(19) 0.18903(12) -0.46288(11)
C31 C 0.2289(3) 0.10651(16) -0.29174(12)
H31 H 0.284524 0.080894 -0.272073
H32 H 0.157028 0.089772 -0.281729
H33 H 0.234499 0.151897 -0.279744
C32 C -0.0352(2) 0.21246(14) -0.55860(11)
H34 H -0.041575 0.166270 -0.569548
H35 H 0.037553 0.228054 -0.569964
C33 C -0.1217(3) 0.25184(15) -0.58836(12)
H36 H -0.193850 0.233245 -0.579746
H37 H -0.120275 0.296865 -0.573700
C34 C -0.1037(3) 0.25210(18) -0.65243(16)
H38 H -0.042687 0.275575 -0.666098
C35 C -0.1605(4) 0.2247(2) -0.68913(19)
H39 H -0.222387 0.200637 -0.677669
H40 H -0.142063 0.227869 -0.728701
C36 C 0.27205(19) 0.07966(13) -0.46916(12)
H41 H 0.337716 0.084970 -0.445177
H42 H 0.290147 0.093405 -0.508802
C37 C 0.23908(19) 0.00900(12) -0.46959(11)
C38 C 0.25650(19) -0.03052(12) -0.42237(11)
H43 H 0.293935 -0.013617 -0.389980
C39 C 0.2205(2) -0.09441(13) -0.42122(12)
C40 C 0.16544(19) -0.12003(13) -0.46817(12)
C41 C 0.1497(2) -0.08107(13) -0.51654(12)
H44 H 0.113519 -0.098292 -0.549200
C42 C 0.1862(2) -0.01758(13) -0.51746(12)
C43 C 0.2937(3) -0.11080(16) -0.32718(14)
H45 H 0.299393 -0.144436 -0.297596
H46 H 0.255776 -0.073089 -0.311354
H47 H 0.366437 -0.097935 -0.339616
C44 C 0.1193(2) -0.18791(13) -0.46683(13)
H48 H 0.164213 -0.215117 -0.441147
H49 H 0.122981 -0.206708 -0.505947
C45 C 0.0029(2) -0.18966(12) -0.44615(12)
C46 C -0.0199(2) -0.19087(12) -0.38754(12)
H50 H 0.038154 -0.190829 -0.360692
C47 C -0.1257(2) -0.19214(12) -0.36764(12)
C48 C -0.2123(2) -0.19184(12) -0.40617(12)
C49 C -0.1895(2) -0.19091(12) -0.46465(12)
H51 H -0.247623 -0.190832 -0.491422
C50 C -0.0831(2) -0.19009(12) -0.48498(12)
C51 C -0.0683(3) -0.20964(18) -0.27087(14)
H52 H -0.035660 -0.251185 -0.281614
H53 H -0.097994 -0.212695 -0.231876
H54 H -0.013026 -0.175601 -0.272094
C52 C -0.1372(2) -0.21294(16) -0.58133(13)
H55 H -0.199187 -0.182575 -0.582530
H56 H -0.163905 -0.255722 -0.568325
C53 C -0.0871(3) -0.21883(17) -0.64025(14)
H57 H -0.140486 -0.238337 -0.666862
H58 H -0.023854 -0.248254 -0.638138
C54 C -0.0504(3) -0.1532(2) -0.66436(14)
H59 H -0.099132 -0.117875 -0.660101
C55 C 0.0385(4) -0.1415(2) -0.68936(16)
H60 H 0.089976 -0.175212 -0.694655
H61 H 0.053875 -0.099031 -0.702847
C56 C -0.3290(2) -0.19248(12) -0.38510(12)
H62 H -0.374887 -0.214311 -0.414137
H63 H -0.333152 -0.217935 -0.349083
C57 C 0.1288(16) 0.0002(8) -0.6175(7)
H64 H 0.177660 -0.033007 -0.633892
H65 H 0.057439 -0.020239 -0.610488
C58 C 0.1171(8) 0.0498(4) -0.6557(4)
H66 H 0.073504 0.084977 -0.638272
H67 H 0.079130 0.034334 -0.690575
C59 C 0.2244(8) 0.0741(6) -0.6710(3)
H68 H 0.277993 0.043410 -0.681780
C60 C 0.2517(13) 0.1356(7) -0.6707(5)
H69 H 0.200094 0.167573 -0.660143
H70 H 0.323134 0.148115 -0.681176
C65 C 0.690(2) 0.0012(11) -0.0595(8)
H78 H 0.759970 0.003106 -0.079095
H79 H 0.643780 0.036801 -0.072998
H80 H 0.654562 -0.040254 -0.067970
C66 C 0.7065(10) 0.0073(6) 0.0038(6)
H81 H 0.765809 -0.022320 0.015235
H82 H 0.730781 0.052026 0.012216
C67 C 0.6128(16) -0.0067(11) 0.0394(8)
H83 H 0.592117 -0.052466 0.033291
H84 H 0.551814 0.020508 0.025937
C68 C 0.6267(9) 0.0043(5) 0.1035(6)
H85 H 0.664563 0.046126 0.108944
H86 H 0.674939 -0.030080 0.118559
C69 C 0.5243(10) 0.0052(7) 0.1404(8)
H87 H 0.480572 0.043096 0.128464
H88 H 0.481746 -0.034015 0.130891
C70 C 0.5367(15) 0.0079(13) 0.2050(7)
H89 H 0.598838 -0.018645 0.216613
H90 H 0.470832 -0.008884 0.223212
H91 H 0.548499 0.052802 0.217025
C61? C 0.1271(15) -0.0050(10) -0.6122(8)
H71? H 0.046976 -0.004573 -0.610012
H72? H 0.152033 -0.050321 -0.616777
C62? C 0.1727(10) 0.0430(5) -0.6684(4)
H73? H 0.252832 0.043997 -0.668250
H74? H 0.148686 0.024145 -0.705442
C63? C 0.1305(8) 0.1091(4) -0.6630(3)
H75? H 0.054988 0.112877 -0.655754
C64? C 0.1826(12) 0.1620(6) -0.6667(5)
H76? H 0.258315 0.161492 -0.673864
H77? H 0.145746 0.202161 -0.662340
C71? C 0.699(3) 0.0197(12) -0.0428(10)
H92? H 0.700800 -0.005295 -0.078637
H93? H 0.772769 0.025230 -0.028216
H94? H 0.666680 0.062286 -0.050182
C72? C 0.6319(11) -0.0159(10) 0.0011(10)
H95? H 0.557857 -0.020400 -0.014786
H96? H 0.662080 -0.060124 0.004676
C73? C 0.622(2) 0.0101(5) 0.0579(9)
H97? H 0.698161 0.017764 0.069186
H98? H 0.591412 0.053753 0.050943
C74? C 0.5736(13) -0.0078(7) 0.1097(11)
H99? H 0.592027 -0.054375 0.112981
H100? H 0.495295 -0.006858 0.100522
C75? C 0.5771(17) 0.0141(7) 0.1679(10)
H101? H 0.629421 -0.013662 0.188764
H102? H 0.607327 0.058508 0.167733
C76? C 0.481(2) 0.0156(16) 0.2003(19)
H103? H 0.427300 -0.013004 0.182570
H104? H 0.453059 0.059948 0.201440
H105? H 0.496199 0.000782 0.239566
loop_
_geom_bond_atom_site_label_1
_geom_bond_atom_site_label_2
_geom_bond_site_symmetry_1
_geom_bond_site_symmetry_2
O1 C2 1_555 1_555
O2 C16 1_555 1_555
O3 C27 1_555 1_555
O4 C39 1_555 1_555
O5 C47 1_555 1_555
O6 C5 1_555 1_555
O7 C1 1_555 1_555
O8 C30 1_555 1_555
O9 C42 1_555 1_555
O10 C50 1_555 1_555
C1 C14 1_555 1_555
C2 C3 1_555 1_555
C3 C4 1_555 1_555
C4 H1 1_555 1_555
C5 C4 1_555 1_555
C6 C5 1_555 1_555
C7 C2 1_555 1_555
H2 C7 1_555 1_555
C8 O1 1_555 1_555
H3 C8 1_555 1_555
H4 C8 1_555 1_555
H5 C8 1_555 1_555
C9 O6 1_555 1_555
H6 C9 1_555 1_555
H7 C9 1_555 1_555
C10 C9 1_555 1_555
H8 C10 1_555 1_555
H9 C10 1_555 1_555
C11 C10 1_555 1_555
H10 C11 1_555 1_555
C12 C11 1_555 1_555
H11 C12 1_555 1_555
H12 C12 1_555 1_555
C13 C3 1_555 1_555
H13 C13 1_555 1_555
H14 C13 1_555 1_555
C14 C13 1_555 1_555
C15 C14 1_555 1_555
H15 C15 1_555 1_555
C16 C15 1_555 1_555
C17 C16 1_555 1_555
C18 C1 1_555 1_555
H16 C18 1_555 1_555
C19 O2 1_555 1_555
H17 C19 1_555 1_555
H18 C19 1_555 1_555
H19 C19 1_555 1_555
C20 O7 1_555 1_555
H20 C20 1_555 1_555
H21 C20 1_555 1_555
C21 C20 1_555 1_555
H22 C21 1_555 1_555
H23 C21 1_555 1_555
C22 C21 1_555 1_555
H24 C22 1_555 1_555
C23 C22 1_555 1_555
H25 C23 1_555 1_555
H26 C23 1_555 1_555
C24 C17 1_555 1_555
H27 C24 1_555 1_555
H28 C24 1_555 1_555
C25 C24 1_555 1_555
C26 C25 1_555 1_555
H29 C26 1_555 1_555
C27 C26 1_555 1_555
C28 C27 1_555 1_555
C29 C28 1_555 1_555
H30 C29 1_555 1_555
C30 C25 1_555 1_555
C31 O3 1_555 1_555
H31 C31 1_555 1_555
H32 C31 1_555 1_555
H33 C31 1_555 1_555
C32 O8 1_555 1_555
H34 C32 1_555 1_555
H35 C32 1_555 1_555
C33 C32 1_555 1_555
H36 C33 1_555 1_555
H37 C33 1_555 1_555
C34 C33 1_555 1_555
H38 C34 1_555 1_555
C35 C34 1_555 1_555
H39 C35 1_555 1_555
H40 C35 1_555 1_555
C36 C28 1_555 1_555
H41 C36 1_555 1_555
H42 C36 1_555 1_555
C37 C36 1_555 1_555
C38 C37 1_555 1_555
H43 C38 1_555 1_555
C39 C38 1_555 1_555
C40 C39 1_555 1_555
C41 C40 1_555 1_555
H44 C41 1_555 1_555
C42 C37 1_555 1_555
C43 O4 1_555 1_555
H45 C43 1_555 1_555
H46 C43 1_555 1_555
H47 C43 1_555 1_555
C44 C40 1_555 1_555
H48 C44 1_555 1_555
H49 C44 1_555 1_555
C45 C44 1_555 1_555
C46 C45 1_555 1_555
H50 C46 1_555 1_555
C47 C46 1_555 1_555
C48 C47 1_555 1_555
C49 C48 1_555 1_555
H51 C49 1_555 1_555
C50 C45 1_555 1_555
C51 O5 1_555 1_555
H52 C51 1_555 1_555
H53 C51 1_555 1_555
H54 C51 1_555 1_555
C52 O10 1_555 1_555
H55 C52 1_555 1_555
H56 C52 1_555 1_555
C53 C52 1_555 1_555
H57 C53 1_555 1_555
H58 C53 1_555 1_555
C54 C53 1_555 1_555
H59 C54 1_555 1_555
C55 C54 1_555 1_555
H60 C55 1_555 1_555
H61 C55 1_555 1_555
C56 C6 1_555 1_555
H62 C56 1_555 1_555
H63 C56 1_555 1_555
C57 O9 1_555 1_555
H64 C57 1_555 1_555
H65 C57 1_555 1_555
C58 C57 1_555 1_555
H66 C58 1_555 1_555
H67 C58 1_555 1_555
C59 C58 1_555 1_555
H68 C59 1_555 1_555
C60 C59 1_555 1_555
H69 C60 1_555 1_555
H70 C60 1_555 1_555
C65 H78 1_555 1_555
H79 C65 1_555 1_555
H80 C65 1_555 1_555
C66 C65 1_555 1_555
H81 C66 1_555 1_555
H82 C66 1_555 1_555
C67 C66 1_555 1_555
H83 C67 1_555 1_555
H84 C67 1_555 1_555
C68 C67 1_555 1_555
H85 C68 1_555 1_555
H86 C68 1_555 1_555
C69 C68 1_555 1_555
H87 C69 1_555 1_555
H88 C69 1_555 1_555
C70 C69 1_555 1_555
H89 C70 1_555 1_555
H90 C70 1_555 1_555
H91 C70 1_555 1_555
C6 C7 1_555 1_555
C17 C18 1_555 1_555
C29 C30 1_555 1_555
C41 C42 1_555 1_555
C48 C56 1_555 1_555
C49 C50 1_555 1_555

#END
