
#######################################################################
#
#                 Cambridge Crystallographic Data Centre
#                                CCDC 
#
#######################################################################
#
# If this CIF has been generated from an entry in the Cambridge 
# Structural Database, then it will include bibliographic, chemical, 
# crystal, experimental, refinement or atomic coordinate data resulting 
# from the CCDC's data processing and validation procedures.
#
#######################################################################

data_YERMEN
_chemical_formula_moiety         'C25 H22 N1 O1 1+,Cl1 O4 1-'
_chemical_name_systematic        
'1-Methyl-4-(4-methoxyphenyl)-2,6-diphenylpyridinium perchlorate'
_symmetry_cell_setting           tetragonal
_symmetry_space_group_name_H-M   'I 41/a'
_symmetry_Int_Tables_number      88
_space_group_name_Hall           '-I 4ad'
loop_
_symmetry_equiv_pos_site_id
_symmetry_equiv_pos_as_xyz
1 x,y,z
2 1/2+x,1/2+y,1/2+z
3 3/4-y,1/4+x,1/4+z
4 1/4-y,3/4+x,3/4+z
5 1/2-x,-y,1/2+z
6 -x,1/2-y,z
7 3/4+y,3/4-x,3/4+z
8 1/4+y,1/4-x,1/4+z
9 -x,-y,-z
10 1/2-x,1/2-y,1/2-z
11 1/4+y,3/4-x,3/4-z
12 3/4+y,1/4-x,1/4-z
13 1/2+x,y,1/2-z
14 x,1/2+y,-z
15 1/4-y,1/4+x,1/4-z
16 3/4-y,3/4+x,3/4-z
_cell_length_a                   22.600(4)
_cell_length_b                   22.600(4)
_cell_length_c                   18.660(3)
_cell_angle_alpha                90
_cell_angle_beta                 90
_cell_angle_gamma                90
_cell_volume                     9530.78
_chemical_melting_point          206-211deg.C
_cell_formula_units_Z            16
loop_
_atom_site_label
_atom_site_type_symbol
_atom_site_fract_x
_atom_site_fract_y
_atom_site_fract_z
Cl1 Cl 0.2047(1) 0.7098(1) 0.0233(1)
O1 O 0.2124(2) 0.6901(2) 0.0937(2)
O2 O 0.2597(2) 0.7193(3) -0.0106(3)
O3 O 0.1536(5) 0.6950(7) -0.0043(6)
O4 O 0.1873(4) 0.7699(3) 0.0238(4)
N1 N 0.1132(1) 0.5983(1) 0.1486(2)
C1 C 0.1570(2) 0.5898(2) 0.1974(2)
C2 C 0.2000(2) 0.5487(2) 0.1848(2)
C3 C 0.2005(2) 0.5143(2) 0.1225(2)
C4 C 0.1542(2) 0.5246(2) 0.0750(2)
C5 C 0.1107(2) 0.5650(2) 0.0877(2)
C6 C 0.0702(2) 0.6466(2) 0.1611(3)
C7 C 0.1573(2) 0.6249(2) 0.2651(2)
C8 C 0.1921(2) 0.6737(2) 0.2711(2)
C9 C 0.1926(3) 0.7060(2) 0.3351(3)
C10 C 0.1607(2) 0.6873(2) 0.3919(3)
C11 C 0.1265(2) 0.6376(3) 0.3861(3)
C12 C 0.1244(2) 0.6059(2) 0.3227(2)
C13 C 0.2463(2) 0.4698(2) 0.1089(2)
C14 C 0.3039(2) 0.4776(2) 0.1338(2)
C15 C 0.3477(2) 0.4366(2) 0.1213(2)
C16 C 0.3345(2) 0.3854(2) 0.0837(2)
C17 C 0.2770(2) 0.3759(2) 0.0595(2)
C18 C 0.2341(2) 0.4177(2) 0.0723(2)
C19 C 0.0616(2) 0.5737(2) 0.0361(2)
C20 C 0.0032(2) 0.5681(2) 0.0568(2)
C21 C -0.0416(2) 0.5749(2) 0.0073(3)
C22 C -0.0285(2) 0.5859(2) -0.0632(3)
C23 C 0.0301(2) 0.5903(2) -0.0851(2)
C24 C 0.0746(2) 0.5841(2) -0.0359(2)
O5 O 0.3740(1) 0.3419(1) 0.0682(2)
C25 C 0.4330(2) 0.3494(3) 0.0909(4)
H1 H 0.2299(2) 0.5434(2) 0.2186(2)
H2 H 0.1528(2) 0.5028(2) 0.0327(2)
H3 H 0.0420(2) 0.6475(2) 0.1227(3)
H4 H 0.0907(2) 0.6838(2) 0.1632(3)
H5 H 0.0499(2) 0.6399(2) 0.2056(3)
H6 H 0.2155(2) 0.6856(2) 0.2328(2)
H7 H 0.2150(3) 0.7404(2) 0.3385(3)
H8 H 0.1619(2) 0.7081(2) 0.4349(3)
H9 H 0.1044(2) 0.6250(3) 0.4252(3)
H10 H 0.1010(2) 0.5722(2) 0.3191(2)
H11 H 0.3130(2) 0.5116(2) 0.1597(2)
H12 H 0.3859(2) 0.4432(2) 0.1379(2)
H13 H 0.2677(2) 0.3414(2) 0.0347(2)
H14 H 0.1959(2) 0.4109(2) 0.0560(2)
H15 H -0.0060(2) 0.5598(2) 0.1043(2)
H16 H -0.0809(2) 0.5720(2) 0.0218(3)
H17 H -0.0589(2) 0.5903(2) -0.0964(3)
H18 H 0.0391(2) 0.5975(2) -0.1329(2)
H19 H 0.1138(2) 0.5868(2) -0.0506(2)
H20 H 0.4560(2) 0.3157(3) 0.0766(4)
H21 H 0.4340(2) 0.3531(3) 0.1422(4)
H22 H 0.4491(2) 0.3845(3) 0.0695(4)
loop_
_geom_bond_atom_site_label_1
_geom_bond_atom_site_label_2
_geom_bond_site_symmetry_1
_geom_bond_site_symmetry_2
Cl1 O1 1_555 1_555
O2 Cl1 1_555 1_555
O3 Cl1 1_555 1_555
O4 Cl1 1_555 1_555
N1 C1 1_555 1_555
C1 C2 1_555 1_555
C2 C3 1_555 1_555
C3 C4 1_555 1_555
C4 C5 1_555 1_555
C5 N1 1_555 1_555
C6 N1 1_555 1_555
C7 C1 1_555 1_555
C8 C7 1_555 1_555
C9 C8 1_555 1_555
C10 C9 1_555 1_555
C11 C10 1_555 1_555
C12 C7 1_555 1_555
C13 C3 1_555 1_555
C14 C13 1_555 1_555
C15 C14 1_555 1_555
C16 C15 1_555 1_555
C17 C16 1_555 1_555
C18 C13 1_555 1_555
C19 C5 1_555 1_555
C20 C19 1_555 1_555
C21 C20 1_555 1_555
C22 C21 1_555 1_555
C23 C22 1_555 1_555
C24 C19 1_555 1_555
O5 C16 1_555 1_555
C25 O5 1_555 1_555
H1 C2 1_555 1_555
H2 C4 1_555 1_555
H3 C6 1_555 1_555
H4 C6 1_555 1_555
H5 C6 1_555 1_555
H6 C8 1_555 1_555
H7 C9 1_555 1_555
H8 C10 1_555 1_555
H9 C11 1_555 1_555
H10 C12 1_555 1_555
H11 C14 1_555 1_555
H12 C15 1_555 1_555
H13 C17 1_555 1_555
H14 C18 1_555 1_555
H15 C20 1_555 1_555
H16 C21 1_555 1_555
H17 C22 1_555 1_555
H18 C23 1_555 1_555
H19 C24 1_555 1_555
H20 C25 1_555 1_555
H21 C25 1_555 1_555
H22 C25 1_555 1_555
C11 C12 1_555 1_555
C17 C18 1_555 1_555
C23 C24 1_555 1_555

#END
