
#######################################################################
#
#                 Cambridge Crystallographic Data Centre
#                                CCDC 
#
#######################################################################
#
# If this CIF has been generated from an entry in the Cambridge 
# Structural Database, then it will include bibliographic, chemical, 
# crystal, experimental, refinement or atomic coordinate data resulting 
# from the CCDC's data processing and validation procedures.
#
#######################################################################

data_YERMOA
_chemical_name_common            
'4,9,14,19,24-pentakis(2-bromoethoxy)-26,28,30,32,34-pentamethoxyhexacyclo[21.2.2.2$3,6!.2$8,11!.2$13,16!.2$18,21!]pentatriaconta-1(25),3,5,8,10,13,15,18,20,23,26,28,30,32,34-pentadecaene hexane solvate'
_chemical_formula_moiety         'C50 H55 Br5 O10,C6 H14'
_chemical_name_systematic        
'1-(2-bromoethoxy)-4-methoxypillar(5)arene n-hexane solvate'
_symmetry_cell_setting           triclinic
_symmetry_space_group_name_H-M   'P -1'
_symmetry_Int_Tables_number      2
_space_group_name_Hall           '-P 1'
loop_
_symmetry_equiv_pos_site_id
_symmetry_equiv_pos_as_xyz
1 x,y,z
2 -x,-y,-z
_cell_length_a                   12.2345(13)
_cell_length_b                   14.0997(17)
_cell_length_c                   16.955(2)
_cell_angle_alpha                86.437(6)
_cell_angle_beta                 79.558(6)
_cell_angle_gamma                78.681(6)
_cell_volume                     2819.33
_exptl_crystal_colour            colorless
_exptl_crystal_description       Prism
_cell_formula_units_Z            2
loop_
_atom_site_label
_atom_site_type_symbol
_atom_site_fract_x
_atom_site_fract_y
_atom_site_fract_z
Br1 Br 0.47390(6) 0.25040(5) 0.33177(4)
Br2 Br 0.62477(6) 0.75318(5) -0.03420(4)
Br3 Br 0.72848(6) 0.53337(5) 0.15742(4)
Br4 Br 0.04798(6) 0.38207(5) 0.11864(5)
Br5 Br 0.15689(8) 0.78022(6) -0.13183(6)
C1 C 0.5790(4) 0.7442(3) 0.4129(3)
H1 H 0.6520 0.7050 0.3924
H2 H 0.5865 0.7758 0.4604
C2 C 0.1583(4) 0.4791(4) 0.3748(3)
C3 C -0.1168(4) 0.7976(4) 0.2612(3)
H3 H -0.1682 0.8087 0.3089
C4 C 0.5880(4) 0.8061(3) 0.2693(3)
H4 H 0.6388 0.7495 0.2537
C5 C 0.5464(4) 0.8207(3) 0.3499(3)
C6 C -0.0123(4) 0.5835(3) 0.3477(3)
C7 C 0.2415(4) 0.4972(4) 0.4986(3)
H5 H 0.2776 0.4300 0.4908
H6 H 0.2060 0.5041 0.5545
C8 C -0.0684(4) 0.7036(4) 0.2396(3)
C9 C 0.3984(4) 0.7068(4) 0.4944(3)
H7 H 0.3889 0.7651 0.5198
C10 C 0.4777(4) 0.9586(3) 0.2327(3)
C11 C 0.4339(4) 1.0307(4) 0.1705(3)
H8 H 0.4196 1.0953 0.1913
H9 H 0.4916 1.0283 0.1228
C12 C 0.5055(4) 0.5905(3) 0.4000(3)
C13 C 0.1527(4) 0.5245(3) 0.4462(3)
C14 C 0.3171(4) 0.6485(4) 0.5157(3)
C15 C 0.5555(4) 0.8742(4) 0.2114(3)
C16 C -0.0961(4) 0.6172(4) 0.2923(3)
H10 H -0.1712 0.6347 0.3239
H11 H -0.0968 0.5644 0.2584
C17 C 0.6137(4) 0.4728(3) 0.3079(3)
H12 H 0.5531 0.4731 0.2781
H13 H 0.6096 0.4232 0.3500
C18 C -0.0899(4) 0.8749(4) 0.2129(3)
C19 C 0.3301(4) 0.5607(3) 0.4792(3)
C20 C -0.0132(4) 0.8602(4) 0.1421(3)
C21 C -0.0194(4) 0.6291(3) 0.4188(3)
C22 C 0.4247(4) 0.5329(3) 0.4219(3)
H14 H 0.4345 0.4740 0.3973
C23 C 0.2211(4) 1.0550(4) 0.1868(3)
C24 C 0.4933(4) 0.6796(3) 0.4358(3)
C25 C 0.4707(4) 0.9070(4) 0.3720(3)
C26 C 0.1294(4) 0.9692(4) 0.1074(3)
C27 C 0.0765(4) 0.5071(4) 0.3273(3)
H15 H 0.0813 0.4741 0.2806
C28 C 0.0346(4) 0.7662(4) 0.1206(3)
H16 H 0.0849 0.7550 0.0725
C29 C 0.2067(5) 0.7626(4) 0.6122(4)
H17 H 0.2695 0.7625 0.6389
H18 H 0.1378 0.7712 0.6507
H19 H 0.2027 0.8145 0.5728
C30 C 0.0608(4) 0.5998(3) 0.4675(3)
H20 H 0.0535 0.6308 0.5155
C31 C 0.0094(4) 0.6898(4) 0.1685(3)
C32 C 0.7288(5) 0.8061(4) 0.0166(3)
H21 H 0.8052 0.7706 0.0001
H22 H 0.7270 0.8732 -0.0005
C33 C 0.4370(4) 0.9743(3) 0.3136(3)
H23 H 0.3862 1.0309 0.3290
C34 C 0.3264(4) 1.0115(4) 0.1477(3)
C35 C 0.7246(5) 0.4514(4) 0.2536(3)
H24 H 0.7397 0.3842 0.2386
H25 H 0.7838 0.4606 0.2818
C36 C 0.0216(4) 0.9435(4) 0.0894(3)
H26 H -0.0390 0.9996 0.0976
H27 H 0.0333 0.9263 0.0336
C37 C 0.2347(5) 0.9268(4) 0.0686(3)
C38 C 0.3326(4) 0.9470(4) 0.0881(3)
H28 H 0.4028 0.9171 0.0611
C39 C 0.6975(4) 0.7996(4) 0.1056(3)
H29 H 0.6898 0.7339 0.1225
H30 H 0.7564 0.8166 0.1303
C40 C 0.1241(4) 1.0335(4) 0.1672(3)
H31 H 0.0538 1.0628 0.1946
C41 C 0.3771(6) 0.3039(6) 0.2567(4)
H32 H 0.4244 0.3139 0.2056
H33 H 0.3327 0.2564 0.2491
C42 C -0.2171(5) 0.9884(4) 0.3019(4)
H34 H -0.2798 0.9580 0.2988
H35 H -0.2431 1.0569 0.3069
H36 H -0.1842 0.9628 0.3479
C43 C 0.3605(6) 1.0090(5) 0.4763(4)
H37 H 0.291(6) 1.012(5) 0.460(4)
H38 H 0.349(6) 1.007(5) 0.521(5)
C44 C -0.1229(5) 0.7518(4) 0.5097(3)
H39 H -0.1301 0.7063 0.5540
H40 H -0.1894 0.8018 0.5149
H41 H -0.0576 0.7800 0.5096
C45 C 0.1126(5) 1.1671(5) 0.2848(4)
H42 H 0.0711 1.2022 0.2459
H43 H 0.1233 1.2113 0.3223
H44 H 0.0711 1.1204 0.3129
C46 C 0.3012(6) 0.3930(5) 0.2775(3)
H45 H 0.2909 0.4440 0.2405
C47 C 0.1479(8) 0.4662(5) 0.0689(4)
H46 H 0.2134 0.4559 0.0954
H47 H 0.1744 0.4487 0.0133
C48 C 0.0958(8) 0.5703(5) 0.0715(4)
H48 H 0.1503 0.6089 0.0455
H49 H 0.0314 0.5827 0.0438
C49 C 0.3036(7) 0.8772(8) -0.0656(4)
C50 C 0.2996(7) 0.8084(13) -0.1229(6)
H50 H 0.3403 0.8245 -0.1757
O1 O 0.2406(3) 0.8585(3) 0.0102(2)
O2 O 0.0613(3) 0.5941(3) 0.1515(2)
O3 O 0.5943(3) 0.8635(3) 0.1300(2)
O4 O 0.2444(3) 0.3991(3) 0.3553(2)
O5 O -0.1348(3) 0.9699(3) 0.2315(2)
O6 O 0.2200(3) 1.1185(3) 0.2453(2)
O7 O -0.1107(3) 0.7034(3) 0.4366(2)
O8 O 0.4339(3) 0.9199(3) 0.4531(2)
O9 O 0.2215(3) 0.6732(3) 0.5739(2)
O10 O 0.6009(3) 0.5648(2) 0.3423(2)
Br6? Br 0.3266(6) 0.6950(4) -0.1049(3)
C51? C 0.0181(15) 0.9791(12) 0.4632(9)
C52? C 0.0482(16) 0.9182(16) 0.3902(13)
C53? C 0.3199(9) 0.6792(8) 0.2094(6)
C54? C 0.4243(18) 0.5691(15) 0.0878(12)
C55? C 0.412(2) 0.647(2) 0.1511(16)
C56? C 0.4663(11) 0.4549(9) 0.1031(8)
H51? H 0.0946 0.9901 0.4597
H52? H -0.0178 1.0351 0.4349
H53? H -0.0081 0.8775 0.3944
H54? H 0.0388 0.9617 0.3443
H55? H 0.2609 0.6469 0.2081
H56? H 0.4745 0.6264 0.1797
H57? H 0.4272 0.7052 0.1204
H58? H 0.5272 0.4305 0.0609
H59? H 0.4046 0.4218 0.1038
H60? H 0.4921 0.4444 0.1537
C57? C 0.1555(7) 0.8572(7) 0.3713(5)
H61? H 0.2107 0.8605 0.4017
C58? C 0.1823(9) 0.7905(9) 0.3069(7)
H62? H 0.1223 0.7741 0.2875
C59? C 0.2906(9) 0.7488(10) 0.2716(8)
H63? H 0.3501 0.7677 0.2900
loop_
_geom_bond_atom_site_label_1
_geom_bond_atom_site_label_2
_geom_bond_site_symmetry_1
_geom_bond_site_symmetry_2
Br1 C41 1_555 1_555
Br2 C32 1_555 1_555
Br3 C35 1_555 1_555
Br4 C47 1_555 1_555
Br5 C50 1_555 1_555
C1 H1 1_555 1_555
H2 C1 1_555 1_555
C2 C13 1_555 1_555
C3 H3 1_555 1_555
C4 H4 1_555 1_555
C5 C1 1_555 1_555
C6 C16 1_555 1_555
C7 H5 1_555 1_555
H6 C7 1_555 1_555
C8 C3 1_555 1_555
C9 H7 1_555 1_555
C10 C11 1_555 1_555
C11 H8 1_555 1_555
H9 C11 1_555 1_555
C12 C22 1_555 1_555
C13 C7 1_555 1_555
C14 C9 1_555 1_555
C15 C4 1_555 1_555
C16 C8 1_555 1_555
H10 C16 1_555 1_555
H11 C16 1_555 1_555
C17 H12 1_555 1_555
H13 C17 1_555 1_555
C18 C3 1_555 1_555
C19 C7 1_555 1_555
C20 C18 1_555 1_555
C21 C6 1_555 1_555
C22 C19 1_555 1_555
H14 C22 1_555 1_555
C23 C34 1_555 1_555
C24 C1 1_555 1_555
C25 C5 1_555 1_555
C26 C36 1_555 1_555
C27 C2 1_555 1_555
H15 C27 1_555 1_555
C28 C20 1_555 1_555
H16 C28 1_555 1_555
C29 H17 1_555 1_555
H18 C29 1_555 1_555
H19 C29 1_555 1_555
C30 C13 1_555 1_555
H20 C30 1_555 1_555
C31 C8 1_555 1_555
C32 H21 1_555 1_555
H22 C32 1_555 1_555
C33 C10 1_555 1_555
H23 C33 1_555 1_555
C34 C11 1_555 1_555
C35 C17 1_555 1_555
H24 C35 1_555 1_555
H25 C35 1_555 1_555
C36 C20 1_555 1_555
H26 C36 1_555 1_555
H27 C36 1_555 1_555
C37 C26 1_555 1_555
C38 C34 1_555 1_555
H28 C38 1_555 1_555
C39 C32 1_555 1_555
H29 C39 1_555 1_555
H30 C39 1_555 1_555
C40 C23 1_555 1_555
H31 C40 1_555 1_555
C41 H32 1_555 1_555
H33 C41 1_555 1_555
C42 H34 1_555 1_555
H35 C42 1_555 1_555
H36 C42 1_555 1_555
C43 H37 1_555 1_555
H38 C43 1_555 1_555
C44 H39 1_555 1_555
H40 C44 1_555 1_555
H41 C44 1_555 1_555
C45 H42 1_555 1_555
H43 C45 1_555 1_555
H44 C45 1_555 1_555
C46 C41 1_555 1_555
H45 C46 1_555 1_555
C47 H46 1_555 1_555
H47 C47 1_555 1_555
C48 C47 1_555 1_555
H48 C48 1_555 1_555
H49 C48 1_555 1_555
C49 C50 1_555 1_555
C50 H50 1_555 1_555
O1 C37 1_555 1_555
O2 C31 1_555 1_555
O3 C15 1_555 1_555
O4 C2 1_555 1_555
O5 C18 1_555 1_555
O6 C23 1_555 1_555
O7 C21 1_555 1_555
O8 C25 1_555 1_555
O9 C14 1_555 1_555
O10 C12 1_555 1_555
C4 C5 1_555 1_555
C6 C27 1_555 1_555
C9 C24 1_555 1_555
C10 C15 1_555 1_555
C12 C24 1_555 1_555
C14 C19 1_555 1_555
C17 O10 1_555 1_555
C21 C30 1_555 1_555
C25 C33 1_555 1_555
C26 C40 1_555 1_555
C28 C31 1_555 1_555
C29 O9 1_555 1_555
C37 C38 1_555 1_555
C39 O3 1_555 1_555
C42 O5 1_555 1_555
C43 O8 1_555 1_555
C44 O7 1_555 1_555
C45 O6 1_555 1_555
C46 O4 1_555 1_555
C48 O2 1_555 1_555
C49 O1 1_555 1_555

#END
