
#######################################################################
#
#                 Cambridge Crystallographic Data Centre
#                                CCDC 
#
#######################################################################
#
# If this CIF has been generated from an entry in the Cambridge 
# Structural Database, then it will include bibliographic, chemical, 
# crystal, experimental, refinement or atomic coordinate data resulting 
# from the CCDC's data processing and validation procedures.
#
#######################################################################

data_YERROF
_chemical_formula_moiety         'C29 H32 B1 N1 O5'
_chemical_name_systematic        
7-methoxy-2-phenyl-11-(4,4,5,5-tetramethyl-1,3,2-dioxaborolan-2-yl)-3a,3b,4,5,11,11a-hexahydro-1H-naphtho[2,1-e]isoindole-1,3(2H)-dione
_symmetry_cell_setting           monoclinic
_symmetry_space_group_name_H-M   'P 21/c'
_symmetry_Int_Tables_number      14
_space_group_name_Hall           '-P 2ybc'
loop_
_symmetry_equiv_pos_site_id
_symmetry_equiv_pos_as_xyz
1 x,y,z
2 -x,1/2+y,1/2-z
3 -x,-y,-z
4 x,1/2-y,1/2+z
_cell_length_a                   13.381(4)
_cell_length_b                   14.344(6)
_cell_length_c                   13.503(4)
_cell_angle_alpha                90
_cell_angle_beta                 103.20(2)
_cell_angle_gamma                90
_cell_volume                     2523.25
_exptl_crystal_colour            colorless
_cell_formula_units_Z            4
loop_
_atom_site_label
_atom_site_type_symbol
_atom_site_fract_x
_atom_site_fract_y
_atom_site_fract_z
O1 O 0.04077(13) 0.08665(14) 0.36980(12)
O2 O 0.14792(13) 0.08492(14) 0.26063(13)
O3 O 0.16777(15) 0.29683(15) 0.37838(14)
O4 O 0.39545(15) 0.34722(14) 0.67792(14)
O5 O 0.81803(15) 0.16310(16) 0.45227(14)
N1 N 0.28836(16) 0.34115(16) 0.52084(15)
C1 C -0.0274(2) 0.0835(2) 0.2686(2)
C2 C 0.0476(2) 0.0550(2) 0.20068(19)
C3 C -0.0705(2) 0.1819(2) 0.2481(2)
H1 H -0.1064 0.1995 0.3009
H2 H -0.1186 0.1838 0.1814
H3 H -0.0141 0.2257 0.2487
C4 C -0.1125(2) 0.0142(2) 0.2698(2)
H4 H -0.0826 -0.0463 0.2940
H5 H -0.1553 0.0073 0.2008
H6 H -0.1548 0.0368 0.3153
C5 C 0.0290(2) 0.1044(2) 0.0990(2)
H7 H 0.0381 0.1717 0.1101
H8 H -0.0412 0.0918 0.0606
H9 H 0.0779 0.0817 0.0606
C6 C 0.0545(2) -0.0498(2) 0.1867(2)
H10 H 0.1103 -0.0636 0.1529
H11 H -0.0105 -0.0728 0.1449
H12 H 0.0683 -0.0804 0.2533
C7 C 0.2184(2) 0.2800(2) 0.4624(2)
C8 C 0.2177(2) 0.1907(2) 0.52245(19)
H13 H 0.1511 0.1849 0.5438
C9 C 0.2304(2) 0.1077(2) 0.4535(2)
H14 H 0.2309 0.0503 0.4956
C10 C 0.3349(2) 0.11473(19) 0.4322(2)
H15 H 0.3432 0.1086 0.3645
C11 C 0.4166(2) 0.12967(19) 0.50837(19)
C12 C 0.3965(2) 0.1335(2) 0.61463(19)
H16 H 0.3729 0.0699 0.6292
C13 C 0.3063(2) 0.2012(2) 0.61685(19)
H17 H 0.2803 0.1896 0.6795
C14 C 0.3373(2) 0.3026(2) 0.6137(2)
C15 C 0.3120(2) 0.4323(2) 0.4889(2)
C16 C 0.3638(2) 0.4407(2) 0.4125(2)
H18 H 0.3813 0.3868 0.3792
C17 C 0.3902(3) 0.5284(3) 0.3846(3)
H19 H 0.4255 0.5347 0.3314
C18 C 0.3659(3) 0.6065(3) 0.4331(3)
H20 H 0.3843 0.6667 0.4139
C19 C 0.3145(3) 0.5963(3) 0.5097(3)
H21 H 0.2972 0.6500 0.5433
C20 C 0.2877(2) 0.5094(2) 0.5383(2)
H22 H 0.2527 0.5031 0.5918
C21 C 0.4938(2) 0.1535(2) 0.69621(18)
H23 H 0.5116 0.2204 0.6945
H24 H 0.4814 0.1394 0.7642
C22 C 0.5826(2) 0.0946(2) 0.67861(19)
H25 H 0.6442 0.1057 0.7338
H26 H 0.5647 0.0277 0.6789
C23 C 0.6046(2) 0.1205(2) 0.57765(19)
C24 C 0.5220(2) 0.1379(2) 0.49612(19)
C25 C 0.5434(2) 0.1617(2) 0.4025(2)
H27 H 0.4881 0.1742 0.3461
C26 C 0.6414(2) 0.1673(2) 0.3901(2)
H28 H 0.6538 0.1822 0.3254
C27 C 0.7230(2) 0.1513(2) 0.4723(2)
C28 C 0.7042(2) 0.12793(19) 0.56557(19)
H29 H 0.7601 0.1169 0.6219
C29 C 0.9052(2) 0.1435(2) 0.5309(2)
H30 H 0.9058 0.1849 0.5888
H31 H 0.9676 0.1535 0.5058
H32 H 0.9026 0.0785 0.5525
B1 B 0.1389(3) 0.0958(2) 0.3583(3)
loop_
_geom_bond_atom_site_label_1
_geom_bond_atom_site_label_2
_geom_bond_site_symmetry_1
_geom_bond_site_symmetry_2
O1 C1 1_555 1_555
O2 C2 1_555 1_555
O3 C7 1_555 1_555
O4 C14 1_555 1_555
O5 C27 1_555 1_555
N1 C7 1_555 1_555
C1 C2 1_555 1_555
C2 C5 1_555 1_555
C3 C1 1_555 1_555
H1 C3 1_555 1_555
H2 C3 1_555 1_555
H3 C3 1_555 1_555
C4 C1 1_555 1_555
H4 C4 1_555 1_555
H5 C4 1_555 1_555
H6 C4 1_555 1_555
C5 H7 1_555 1_555
H8 C5 1_555 1_555
H9 C5 1_555 1_555
C6 C2 1_555 1_555
H10 C6 1_555 1_555
H11 C6 1_555 1_555
H12 C6 1_555 1_555
C7 C8 1_555 1_555
C8 H13 1_555 1_555
C9 C8 1_555 1_555
H14 C9 1_555 1_555
C10 C9 1_555 1_555
H15 C10 1_555 1_555
C11 C10 1_555 1_555
C12 C11 1_555 1_555
H16 C12 1_555 1_555
C13 C8 1_555 1_555
H17 C13 1_555 1_555
C14 N1 1_555 1_555
C15 N1 1_555 1_555
C16 C15 1_555 1_555
H18 C16 1_555 1_555
C17 C16 1_555 1_555
H19 C17 1_555 1_555
C18 C17 1_555 1_555
H20 C18 1_555 1_555
C19 C18 1_555 1_555
H21 C19 1_555 1_555
C20 C15 1_555 1_555
H22 C20 1_555 1_555
C21 C12 1_555 1_555
H23 C21 1_555 1_555
H24 C21 1_555 1_555
C22 C21 1_555 1_555
H25 C22 1_555 1_555
H26 C22 1_555 1_555
C23 C22 1_555 1_555
C24 C11 1_555 1_555
C25 C24 1_555 1_555
H27 C25 1_555 1_555
C26 C25 1_555 1_555
H28 C26 1_555 1_555
C27 C26 1_555 1_555
C28 C23 1_555 1_555
H29 C28 1_555 1_555
C29 O5 1_555 1_555
H30 C29 1_555 1_555
H31 C29 1_555 1_555
H32 C29 1_555 1_555
B1 O1 1_555 1_555
O2 B1 1_555 1_555
C9 B1 1_555 1_555
C12 C13 1_555 1_555
C13 C14 1_555 1_555
C19 C20 1_555 1_555
C23 C24 1_555 1_555
C27 C28 1_555 1_555

#END
