
#######################################################################
#
#                 Cambridge Crystallographic Data Centre
#                                CCDC 
#
#######################################################################
#
# If this CIF has been generated from an entry in the Cambridge 
# Structural Database, then it will include bibliographic, chemical, 
# crystal, experimental, refinement or atomic coordinate data resulting 
# from the CCDC's data processing and validation procedures.
#
#######################################################################

data_YERRIZ
_chemical_formula_moiety         'C17 H18 O3'
_chemical_name_systematic        
7-methoxy-3a,4,5,10,11,11a-hexahydrophenanthro[1,2-c]furan-3(1H)-one
_symmetry_cell_setting           monoclinic
_symmetry_space_group_name_H-M   'P 21/n'
_symmetry_Int_Tables_number      14
_space_group_name_Hall           '-P 2yn'
loop_
_symmetry_equiv_pos_site_id
_symmetry_equiv_pos_as_xyz
1 x,y,z
2 1/2-x,1/2+y,1/2-z
3 -x,-y,-z
4 1/2+x,1/2-y,1/2+z
_cell_length_a                   12.8554(8)
_cell_length_b                   8.6634(3)
_cell_length_c                   13.3612(8)
_cell_angle_alpha                90
_cell_angle_beta                 118.093(8)
_cell_angle_gamma                90
_cell_volume                     1312.74
_exptl_crystal_colour            colorless
_exptl_crystal_description       'large tablet'
_cell_formula_units_Z            4
loop_
_atom_site_label
_atom_site_type_symbol
_atom_site_fract_x
_atom_site_fract_y
_atom_site_fract_z
O1 O 0.87965(10) 0.10393(12) 0.66246(9)
O2 O 0.76024(9) 0.27221(12) 0.68288(9)
O3 O 0.97488(9) 0.30084(13) 0.06100(8)
C1 C 0.83961(13) 0.23207(16) 0.64801(11)
C2 C 0.72553(14) 0.43328(18) 0.65510(13)
H1 H 0.7692 0.5002 0.7221
H2 H 0.6399 0.4462 0.6281
C3 C 0.75698(13) 0.47256(16) 0.56127(12)
H3 H 0.7775 0.5843 0.5638
C4 C 0.86536(12) 0.37093(15) 0.59299(11)
H4 H 0.9352 0.4259 0.6532
C5 C 0.89259(11) 0.33388(14) 0.49747(11)
C6 C 0.82071(12) 0.37737(15) 0.39021(11)
C7 C 0.70221(12) 0.45138(17) 0.35566(12)
H5 H 0.6434 0.4069 0.2825
H6 H 0.7078 0.5634 0.3443
C8 C 0.66014(12) 0.42775(18) 0.44384(12)
H7 H 0.6384 0.3182 0.4441
H8 H 0.5892 0.4917 0.4240
C9 C 1.01227(12) 0.26575(15) 0.53060(11)
H9 H 1.0337 0.1940 0.5950
H10 H 1.0716 0.3495 0.5561
C10 C 1.01501(12) 0.17946(15) 0.43268(11)
H11 H 1.0979 0.1565 0.4523
H12 H 0.9729 0.0800 0.4211
C11 C 0.95875(11) 0.27114(15) 0.32400(11)
C12 C 0.86027(11) 0.36398(15) 0.30295(11)
C13 C 0.80467(12) 0.44331(16) 0.20008(12)
H13 H 0.7404 0.5097 0.1860
C14 C 0.84103(12) 0.42772(17) 0.11740(12)
H14 H 0.8015 0.4821 0.0476
C15 C 0.93555(12) 0.33196(16) 0.13808(12)
C16 C 0.99577(12) 0.25660(15) 0.24241(11)
H15 H 1.0626 0.1949 0.2575
C17 C 0.90197(14) 0.3507(2) -0.05315(12)
H16 H 0.8217 0.3114 -0.0799
H17 H 0.9339 0.3111 -0.1018
H18 H 0.9003 0.4637 -0.0559
loop_
_geom_bond_atom_site_label_1
_geom_bond_atom_site_label_2
_geom_bond_site_symmetry_1
_geom_bond_site_symmetry_2
O1 C1 1_555 1_555
O2 C1 1_555 1_555
O3 C15 1_555 1_555
C1 C4 1_555 1_555
C2 O2 1_555 1_555
H1 C2 1_555 1_555
H2 C2 1_555 1_555
C3 C2 1_555 1_555
H3 C3 1_555 1_555
C4 C3 1_555 1_555
H4 C4 1_555 1_555
C5 C4 1_555 1_555
C6 C5 1_555 1_555
C7 C6 1_555 1_555
H5 C7 1_555 1_555
H6 C7 1_555 1_555
C8 C3 1_555 1_555
H7 C8 1_555 1_555
H8 C8 1_555 1_555
C9 C5 1_555 1_555
H9 C9 1_555 1_555
H10 C9 1_555 1_555
C10 C9 1_555 1_555
H11 C10 1_555 1_555
H12 C10 1_555 1_555
C11 C10 1_555 1_555
C12 C6 1_555 1_555
C13 C12 1_555 1_555
H13 C13 1_555 1_555
C14 C13 1_555 1_555
H14 C14 1_555 1_555
C15 C14 1_555 1_555
C16 C11 1_555 1_555
H15 C16 1_555 1_555
C17 O3 1_555 1_555
H16 C17 1_555 1_555
H17 C17 1_555 1_555
H18 C17 1_555 1_555
C7 C8 1_555 1_555
C11 C12 1_555 1_555
C15 C16 1_555 1_555

#END
