
#######################################################################
#
#                 Cambridge Crystallographic Data Centre
#                                CCDC 
#
#######################################################################
#
# If this CIF has been generated from an entry in the Cambridge 
# Structural Database, then it will include bibliographic, chemical, 
# crystal, experimental, refinement or atomic coordinate data resulting 
# from the CCDC's data processing and validation procedures.
#
#######################################################################

data_YERSIA
_chemical_name_common            
'4,9,14,19,24-pentakis(3-azidopropoxy)-26,28,30,32,34-pentamethoxyhexacyclo[21.2.2.2$3,6!.2$8,11!.2$13,16!.2$18,21!]pentatriaconta-1(25),3,5,8,10,13,15,18,20,23,26,28,30,32,34-pentadecaene unknown solvate'
_chemical_formula_moiety         'C55 H65 N15 O10'
_chemical_name_systematic        1-(3-azidopropoxy)-4-methoxypillar(5)arene
_symmetry_cell_setting           triclinic
_symmetry_space_group_name_H-M   'P -1'
_symmetry_Int_Tables_number      2
_space_group_name_Hall           '-P 1'
loop_
_symmetry_equiv_pos_site_id
_symmetry_equiv_pos_as_xyz
1 x,y,z
2 -x,-y,-z
_cell_length_a                   12.6260(3)
_cell_length_b                   14.7182(2)
_cell_length_c                   17.3130(4)
_cell_angle_alpha                77.3250(16)
_cell_angle_beta                 80.6606(18)
_cell_angle_gamma                80.0120(16)
_cell_volume                     3065.39
_exptl_crystal_colour            colorless
_exptl_crystal_description       prism
_cell_formula_units_Z            2
loop_
_atom_site_label
_atom_site_type_symbol
_atom_site_fract_x
_atom_site_fract_y
_atom_site_fract_z
O1 O 0.56050(14) 0.60959(11) 0.38542(10)
O2 O 0.41516(14) 0.92168(12) 0.48921(10)
O3 O 0.59841(14) 0.90650(12) 0.17810(10)
O4 O 0.25952(14) 0.92220(12) 0.03793(10)
O5 O -0.13327(15) 0.72094(13) 0.43439(12)
O6 O -0.08828(15) 1.01399(12) 0.22958(10)
O7 O 0.24380(14) 1.15087(13) 0.25515(11)
C1 C 0.45797(19) 0.91994(16) 0.41102(14)
C2 C 0.34720(19) 1.05199(16) 0.17167(13)
O8 O 0.18866(15) 0.67121(13) 0.59779(11)
C3 C 0.52841(18) 0.83874(15) 0.39784(13)
C4 C 0.55274(19) 0.90755(16) 0.25654(13)
C5 C 0.00955(19) 0.92372(16) 0.13768(14)
C6 C 0.48139(18) 0.98726(15) 0.26924(14)
C7 C 0.2597(2) 0.97942(16) 0.09115(13)
C8 C -0.0605(2) 0.92728(16) 0.20844(14)
C9 C 0.15793(19) 1.02434(15) 0.11841(13)
C10 C 0.45984(19) 0.69393(15) 0.48079(13)
O9 O 0.02744(18) 0.66933(13) 0.13780(13)
O10 O 0.23105(16) 0.46732(14) 0.37138(13)
C11 C 0.1230(2) 0.55844(17) 0.45798(15)
C12 C 0.46810(19) 0.62157(16) 0.43891(14)
C13 C -0.0417(2) 0.65771(16) 0.42046(16)
C14 C 0.57533(18) 0.83363(16) 0.32033(14)
H1 H 0.6225 0.7802 0.3107
C15 C 0.15203(19) 1.08208(16) 0.17321(14)
H2 H 0.0849 1.1121 0.1922
C16 C 0.43527(19) 0.99304(16) 0.34734(14)
H3 H 0.3885 1.0468 0.3569
C17 C 0.2455(2) 1.09549(16) 0.20007(14)
C18 C 0.2922(2) 0.58280(16) 0.50556(15)
C19 C 0.2829(2) 0.65643(17) 0.54589(15)
C20 C -0.0253(2) 0.63012(17) 0.34707(15)
C21 C 0.1393(2) 0.53090(17) 0.38468(17)
C22 C 0.6740(2) 0.53951(19) 0.28509(16)
H4 H 0.7330 0.5295 0.3170
H5 H 0.6751 0.6003 0.2495
C23 C 0.0385(2) 0.83759(17) 0.11353(15)
H6 H 0.0833 0.8342 0.0657
C24 C 0.35284(19) 0.99450(16) 0.11707(13)
H7 H 0.4201 0.9655 0.0974
C25 C 0.5673(2) 0.53916(17) 0.33923(16)
H8 H 0.5075 0.5529 0.3078
H9 H 0.5643 0.4780 0.3739
C26 C -0.0658(2) 0.75940(17) 0.23117(16)
C27 C 0.0014(2) 0.75616(18) 0.15992(16)
C28 C 0.6648(2) 0.82308(17) 0.16159(15)
H10 H 0.6212 0.7730 0.1685
H11 H 0.7195 0.8030 0.1976
C29 C 0.0317(2) 0.62171(17) 0.47516(15)
H12 H 0.0194 0.6404 0.5242
C30 C 0.0651(2) 0.56573(17) 0.33033(16)
H13 H 0.0762 0.5455 0.2820
C31 C -0.0977(2) 0.84626(18) 0.25457(15)
H14 H -0.1444 0.8499 0.3016
C32 C 0.3855(2) 0.56584(16) 0.45247(15)
H15 H 0.3929 0.5165 0.4256
C33 C 0.3605(2) 0.8827(2) 0.00113(16)
H16 H 0.4053 0.8476 0.0413
H17 H 0.3987 0.9321 -0.0323
C34 C 0.3465(2) 1.00432(19) 0.50470(16)
H18 H 0.2819 1.0117 0.4801
H19 H 0.3836 1.0579 0.4832
H20 H 0.3276 0.9995 0.5613
C35 C 0.7180(2) 0.8449(2) 0.07624(16)
H21 H 0.7640 0.8928 0.0712
H22 H 0.6622 0.8704 0.0417
C36 C 0.54793(19) 0.75621(16) 0.46614(14)
H23 H 0.5495 0.7794 0.5142
H24 H 0.6178 0.7195 0.4537
C37 C 0.3668(2) 0.71025(16) 0.53427(14)
H25 H 0.3606 0.7580 0.5628
C38 C 0.44908(19) 1.06550(16) 0.20052(14)
H26 H 0.4373 1.1254 0.2176
H27 H 0.5078 1.0673 0.1567
C39 C -0.1631(3) 1.0188(2) 0.29976(17)
H28 H -0.2291 0.9983 0.2941
H29 H -0.1782 1.0825 0.3078
H30 H -0.1325 0.9788 0.3448
C40 C 0.05630(19) 1.01043(16) 0.08955(13)
H31 H 0.0728 1.0048 0.0340
H32 H 0.0022 1.0655 0.0928
C41 C 0.3367(2) 0.8180(2) -0.04900(17)
H33 H 0.4048 0.7892 -0.0740
H34 H 0.3008 0.7681 -0.0142
N1 N 0.1615(3) 0.77655(18) -0.15057(15)
N2 N 0.8762(2) 0.43637(18) 0.21808(16)
N3 N 0.7948(3) 0.4594(3) 0.18388(18)
C42 C 0.1711(3) 0.7545(2) 0.6294(2)
H35 H 0.1759 0.8080 0.5865
H36 H 0.2252 0.7514 0.6634
H37 H 0.1005 0.7605 0.6598
C43 C 0.2025(2) 0.52200(18) 0.51847(16)
H38 H 0.2344 0.4581 0.5144
H39 H 0.1638 0.5207 0.5718
C44 C -0.1018(2) 0.67115(18) 0.28513(17)
H40 H -0.1745 0.6861 0.3117
H41 H -0.1034 0.6250 0.2532
C45 C -0.1544(2) 0.7484(2) 0.50931(19)
H42 H -0.2180 0.7948 0.5103
H43 H -0.0936 0.7746 0.5177
H44 H -0.1660 0.6946 0.5508
C46 C 0.1412(3) 1.1970(3) 0.2834(2)
H45 H 0.1073 1.2348 0.2389
H46 H 0.1507 1.2366 0.3183
H47 H 0.0962 1.1510 0.3120
C47 C 0.2562(3) 0.4420(3) 0.2964(2)
H48 H 0.2613 0.4974 0.2544
H49 H 0.2011 0.4086 0.2872
C48 C 0.7858(3) 0.7595(2) 0.04824(19)
H50 H 0.8264 0.7798 -0.0035
H51 H 0.8376 0.7307 0.0854
N4 N 0.6643(3) 0.7138(2) -0.01265(19)
N5 N 0.9578(2) 0.4154(2) 0.24189(18)
C49 C 0.6901(3) 0.4631(3) 0.2364(2)
H52 H 0.6867 0.4027 0.2723
H53 H 0.6316 0.4741 0.2040
N6 N 0.5433(3) 0.2375(3) 0.2729(2)
N7 N 0.7197(3) 0.6883(2) 0.04181(18)
N8 N 0.2496(3) 0.8008(2) -0.16134(19)
C50 C 0.2667(2) 0.8670(2) -0.11291(19)
H54 H 0.1972 0.8938 -0.0883
H55 H 0.3012 0.9180 -0.1473
N9 N 0.5821(3) 0.1763(3) 0.3175(2)
N10 N 0.5146(3) 0.3008(3) 0.2142(3)
C51 C 0.3655(3) 0.3785(3) 0.2987(3)
H56 H 0.4193 0.4128 0.3087
H57 H 0.3593 0.3245 0.3421
C52 C 0.4013(4) 0.3457(3) 0.2220(3)
H58 H 0.3551 0.3013 0.2176
H59 H 0.3922 0.3991 0.1782
C53 C 0.0867(4) 0.5694(3) 0.0440(4)
H60 H 0.0126 0.5560 0.0543
H61 H 0.1105 0.5714 -0.0124
N11 N 0.0816(3) 0.7496(2) -0.1466(2)
N12 N 0.3805(6) 0.5281(4) -0.0417(3)
C54 C 0.0848(3) 0.6668(3) 0.0594(3)
H62 H 0.1581 0.6800 0.0565
H63 H 0.0483 0.7136 0.0198
N13 N 0.6100(3) 0.7300(3) -0.0610(3)
N14 N 0.3144(6) 0.5211(3) 0.0135(3)
N15 N 0.2676(5) 0.5071(4) 0.0768(4)
C55 C 0.1473(5) 0.4964(4) 0.0843(4)
H64 H 0.1420 0.4402 0.0655
H65 H 0.1178 0.4875 0.1403
loop_
_geom_bond_atom_site_label_1
_geom_bond_atom_site_label_2
_geom_bond_site_symmetry_1
_geom_bond_site_symmetry_2
O1 C12 1_555 1_555
O2 C1 1_555 1_555
O3 C4 1_555 1_555
O4 C7 1_555 1_555
O5 C13 1_555 1_555
O6 C8 1_555 1_555
O7 C17 1_555 1_555
C1 C3 1_555 1_555
C2 C17 1_555 1_555
O8 C19 1_555 1_555
C3 C14 1_555 1_555
C4 C6 1_555 1_555
C5 C8 1_555 1_555
C6 C16 1_555 1_555
C7 C9 1_555 1_555
C8 C31 1_555 1_555
C9 C15 1_555 1_555
C10 C12 1_555 1_555
O9 C27 1_555 1_555
O10 C21 1_555 1_555
C11 C21 1_555 1_555
C12 C32 1_555 1_555
C13 C20 1_555 1_555
C14 C4 1_555 1_555
H1 C14 1_555 1_555
C15 H2 1_555 1_555
C16 C1 1_555 1_555
H3 C16 1_555 1_555
C17 C15 1_555 1_555
C18 C19 1_555 1_555
C19 C37 1_555 1_555
C20 C30 1_555 1_555
C21 C30 1_555 1_555
C22 H4 1_555 1_555
H5 C22 1_555 1_555
C23 C5 1_555 1_555
H6 C23 1_555 1_555
C24 C2 1_555 1_555
H7 C24 1_555 1_555
C25 O1 1_555 1_555
H8 C25 1_555 1_555
H9 C25 1_555 1_555
C26 C27 1_555 1_555
C27 C23 1_555 1_555
C28 O3 1_555 1_555
H10 C28 1_555 1_555
H11 C28 1_555 1_555
C29 C11 1_555 1_555
H12 C29 1_555 1_555
C30 H13 1_555 1_555
C31 C26 1_555 1_555
H14 C31 1_555 1_555
C32 C18 1_555 1_555
H15 C32 1_555 1_555
C33 O4 1_555 1_555
H16 C33 1_555 1_555
H17 C33 1_555 1_555
C34 O2 1_555 1_555
H18 C34 1_555 1_555
H19 C34 1_555 1_555
H20 C34 1_555 1_555
C35 C28 1_555 1_555
H21 C35 1_555 1_555
H22 C35 1_555 1_555
C36 C3 1_555 1_555
H23 C36 1_555 1_555
H24 C36 1_555 1_555
C37 C10 1_555 1_555
H25 C37 1_555 1_555
C38 C2 1_555 1_555
H26 C38 1_555 1_555
H27 C38 1_555 1_555
C39 O6 1_555 1_555
H28 C39 1_555 1_555
H29 C39 1_555 1_555
H30 C39 1_555 1_555
C40 C5 1_555 1_555
H31 C40 1_555 1_555
H32 C40 1_555 1_555
C41 C33 1_555 1_555
H33 C41 1_555 1_555
H34 C41 1_555 1_555
N1 N8 1_555 1_555
N2 N3 1_555 1_555
N3 C49 1_555 1_555
C42 O8 1_555 1_555
H35 C42 1_555 1_555
H36 C42 1_555 1_555
H37 C42 1_555 1_555
C43 C11 1_555 1_555
H38 C43 1_555 1_555
H39 C43 1_555 1_555
C44 C20 1_555 1_555
H40 C44 1_555 1_555
H41 C44 1_555 1_555
C45 O5 1_555 1_555
H42 C45 1_555 1_555
H43 C45 1_555 1_555
H44 C45 1_555 1_555
C46 O7 1_555 1_555
H45 C46 1_555 1_555
H46 C46 1_555 1_555
H47 C46 1_555 1_555
C47 O10 1_555 1_555
H48 C47 1_555 1_555
H49 C47 1_555 1_555
C48 C35 1_555 1_555
H50 C48 1_555 1_555
H51 C48 1_555 1_555
N4 N7 1_555 1_555
N5 N2 1_555 1_555
C49 C22 1_555 1_555
H52 C49 1_555 1_555
H53 C49 1_555 1_555
N6 N9 1_555 1_555
N7 C48 1_555 1_555
N8 C50 1_555 1_555
C50 C41 1_555 1_555
H54 C50 1_555 1_555
H55 C50 1_555 1_555
N10 N6 1_555 1_555
C51 C47 1_555 1_555
H56 C51 1_555 1_555
H57 C51 1_555 1_555
C52 N10 1_555 1_555
H58 C52 1_555 1_555
H59 C52 1_555 1_555
C53 H60 1_555 1_555
H61 C53 1_555 1_555
N11 N1 1_555 1_555
N12 N14 1_555 1_555
C54 O9 1_555 1_555
H62 C54 1_555 1_555
H63 C54 1_555 1_555
N13 N4 1_555 1_555
N14 N15 1_555 1_555
N15 C55 1_555 1_555
C55 C53 1_555 1_555
H64 C55 1_555 1_555
H65 C55 1_555 1_555
C6 C38 1_555 1_555
C7 C24 1_555 1_555
C9 C40 1_555 1_555
C10 C36 1_555 1_555
C13 C29 1_555 1_555
C18 C43 1_555 1_555
C22 C25 1_555 1_555
C26 C44 1_555 1_555
C51 C52 1_555 1_555
C53 C54 1_555 1_555

#END
