
#######################################################################
#
#                 Cambridge Crystallographic Data Centre
#                                CCDC 
#
#######################################################################
#
# If this CIF has been generated from an entry in the Cambridge 
# Structural Database, then it will include bibliographic, chemical, 
# crystal, experimental, refinement or atomic coordinate data resulting 
# from the CCDC's data processing and validation procedures.
#
#######################################################################

data_YERTAT
_chemical_name_common            
'4,9,14,19,24-pentamethoxy-27,29,31,33,35-pentakis[(prop-2-yn-1-yl)oxy]pillar[5]arene hexane solvate'
_chemical_formula_moiety         'C55 H40 O10,C6 H14'
_chemical_name_systematic        
'4,9,14,19,24-pentamethoxy-27,29,31,33,35-pentakis[(prop-2-yn-1-yl)oxy]hexacyclo[21.2.2.2^3,6^.2^8,11^.2^13,16^.2^18,21^]pentatriaconta-1(25),3,5,8,10,13,15,18,20,23,26,28,30,32,34-pentadecaene hexane solvate'
_symmetry_cell_setting           monoclinic
_symmetry_space_group_name_H-M   'C 2/c'
_symmetry_Int_Tables_number      15
_space_group_name_Hall           '-C 2yn'
loop_
_symmetry_equiv_pos_site_id
_symmetry_equiv_pos_as_xyz
1 x,y,z
2 -x,y,1/2-z
3 1/2+x,1/2+y,z
4 1/2-x,1/2+y,1/2-z
5 -x,-y,-z
6 x,-y,1/2+z
7 1/2-x,1/2-y,-z
8 1/2+x,1/2-y,1/2+z
_cell_length_a                   19.719(2)
_cell_length_b                   14.849(2)
_cell_length_c                   35.106(3)
_cell_angle_alpha                90
_cell_angle_beta                 90.104(5)
_cell_angle_gamma                90
_cell_volume                     10279.3
_exptl_crystal_colour            colorless
_exptl_crystal_description       Prism
_cell_formula_units_Z            8
_exptl_crystal_preparation       Fiber
loop_
_atom_site_label
_atom_site_type_symbol
_atom_site_fract_x
_atom_site_fract_y
_atom_site_fract_z
O1 O 0.18436(16) 0.21899(18) 0.67439(8)
O2 O 0.03215(14) 0.43320(19) 0.59611(8)
O3 O 0.17445(13) 0.64380(17) 0.52216(7)
O4 O 0.42891(16) 0.57909(18) 0.54206(8)
O5 O 0.42716(15) 0.31200(19) 0.63732(9)
C1 C 0.18659(12) 0.33054(13) 0.72140(6)
C2 C 0.15530(11) 0.29534(13) 0.68898(6)
C3 C 0.09912(11) 0.33653(14) 0.67301(6)
C4 C 0.07140(11) 0.41422(13) 0.68962(6)
C5 C 0.10219(12) 0.44883(14) 0.72220(6)
C6 C 0.15903(12) 0.40863(13) 0.73754(6)
C7 C 0.01092(11) 0.46053(15) 0.67186(6)
H1 H -0.0181 0.4855 0.6923
H2 H -0.0161 0.4158 0.6575
C8 C 0.03213(10) 0.53630(14) 0.64513(6)
C9 C 0.04137(10) 0.52044(14) 0.60635(6)
C10 C 0.06228(10) 0.58927(13) 0.58223(6)
C11 C 0.07601(9) 0.67530(13) 0.59631(6)
C12 C 0.06773(10) 0.69054(13) 0.63528(6)
C13 C 0.04524(10) 0.62233(14) 0.65917(6)
C14 C 0.10166(10) 0.74914(13) 0.57044(6)
H3 H 0.0842 0.8079 0.5795
H4 H 0.0842 0.7391 0.5443
C15 C 0.17844(10) 0.75182(12) 0.56956(5)
C16 C 0.21487(10) 0.69753(12) 0.54448(5)
C17 C 0.28501(10) 0.69753(12) 0.54448(5)
C18 C 0.32163(10) 0.75189(12) 0.56959(5)
C19 C 0.28524(10) 0.80623(12) 0.59483(5)
C20 C 0.21478(10) 0.80626(12) 0.59479(5)
C21 C 0.39820(10) 0.74943(13) 0.57047(6)
H5 H 0.4156 0.8082 0.5795
H6 H 0.4155 0.7394 0.5444
C22 C 0.42395(9) 0.67542(13) 0.59640(6)
C23 C 0.43777(10) 0.58937(13) 0.58231(6)
C24 C 0.45863(10) 0.52047(14) 0.60640(6)
C25 C 0.46785(9) 0.53637(14) 0.64520(6)
C26 C 0.45476(10) 0.62242(14) 0.65924(6)
C27 C 0.43232(10) 0.69043(13) 0.63534(6)
C28 C 0.48907(11) 0.46064(15) 0.67183(6)
H7 H 0.5160 0.4159 0.6574
H8 H 0.5183 0.4854 0.6922
C29 C 0.42856(11) 0.41419(13) 0.68966(6)
C30 C 0.40085(11) 0.33665(14) 0.67303(6)
C31 C 0.34461(11) 0.29535(13) 0.68900(6)
C32 C 0.31340(12) 0.33053(13) 0.72140(6)
C33 C 0.34102(12) 0.40867(13) 0.73754(5)
C34 C 0.39782(12) 0.44894(14) 0.72223(6)
C35 C 0.24998(12) 0.28869(14) 0.73759(6)
H9 H 0.2499 0.2234 0.7320
H10 H 0.2501 0.2961 0.7656
C36 C 0.1581(2) 0.1871(3) 0.63899(12)
H11 H 0.1487 0.2386 0.6218
H12 H 0.1151 0.1542 0.6433
C37 C 0.2081(3) 0.1274(3) 0.62168(13)
C38 C 0.0554(2) 0.4097(3) 0.55916(11)
H13 H 0.0993 0.4396 0.5540
H14 H 0.0223 0.4300 0.5397
C39 C 0.0636(2) 0.3115(3) 0.55708(12)
C40 C 0.25000(16) 0.0818(2) 0.60635(9)
H15 H 0.2833 0.0456 0.5942
C41 C 0.07077(15) 0.2380(2) 0.55041(10)
H16 H 0.0768 0.1759 0.5448
C42 C 0.11841(15) 0.49772(19) 0.45836(8)
H17 H 0.0859 0.4678 0.4429
C43 C 0.38150(14) 0.49803(19) 0.45837(8)
H18 H 0.3666 0.4990 0.4326
C44 C 0.42934(15) 0.2382(2) 0.55043(11)
H19 H 0.4409 0.2348 0.5242
C45 C 0.2085(2) 0.5851(3) 0.49616(11)
H20 H 0.2397 0.5446 0.5101
H21 H 0.2353 0.6206 0.4776
C46 C 0.1562(2) 0.5325(3) 0.47632(12)
C47 C 0.4245(2) 0.4901(3) 0.52739(12)
H22 H 0.3934 0.4534 0.5431
H23 H 0.4698 0.4612 0.5276
C48 C 0.3988(2) 0.4969(3) 0.48831(13)
C49 C 0.3972(2) 0.2370(3) 0.61758(13)
H24 H 0.3472 0.2395 0.6197
H25 H 0.4131 0.1797 0.6289
C50 C 0.4173(2) 0.2417(3) 0.57774(16)
O6 O 0.18930(18) 0.44304(19) 0.76818(8)
O7 O 0.03667(15) 0.63514(19) 0.69561(8)
O8 O 0.17600(15) 0.85993(19) 0.61756(8)
O9 O 0.41475(15) 0.77269(18) 0.65046(8)
O10 O 0.42320(16) 0.5261(2) 0.73832(8)
C51 C 0.1724(3) 0.5334(3) 0.78001(14)
H26 H 0.1750 0.5740 0.7581
H27 H 0.2044 0.5533 0.7997
H28 H 0.1262 0.5342 0.7903
C52 C 0.0607(2) 0.7167(3) 0.71236(12)
H29 H 0.1078 0.7269 0.7047
H30 H 0.0582 0.7120 0.7402
H31 H 0.0326 0.7671 0.7037
C53 C 0.2021(3) 0.8802(4) 0.65404(13)
H32 H 0.2375 0.9263 0.6518
H33 H 0.2214 0.8257 0.6654
H34 H 0.1655 0.9029 0.6703
C54 C 0.4093(3) 0.7845(3) 0.69091(13)
H35 H 0.3896 0.8437 0.6964
H36 H 0.4545 0.7806 0.7025
H37 H 0.3802 0.7374 0.7015
C55 C 0.3832(3) 0.5759(3) 0.76506(13)
H38 H 0.3383 0.5876 0.7542
H39 H 0.4056 0.6332 0.7708
H40 H 0.3784 0.5409 0.7886
C71 C 0.25006(15) 0.6114(2) 0.68053(8)
H71 H 0.2492 0.6774 0.6806
H72 H 0.2911 0.5903 0.6935
H73 H 0.2100 0.5884 0.6938
C72 C 0.2499(2) 0.5785(2) 0.64071(9)
H74 H 0.2095 0.6048 0.6281
H75 H 0.2901 0.6050 0.6281
C73 C 0.2500(2) 0.4864(2) 0.63221(11)
H76 H 0.2096 0.4591 0.6443
H77 H 0.2904 0.4593 0.6444
C74 C 0.25001(19) 0.4588(2) 0.58961(12)
H78 H 0.2097 0.4871 0.5777
H79 H 0.2903 0.4870 0.5778
C75 C 0.24997(18) 0.3446(3) 0.54008(13)
H80 H 0.2092 0.3683 0.5276
H81 H 0.2504 0.2788 0.5381
H82 H 0.2903 0.3691 0.5276
C76 C 0.2500(4) 0.3701(3) 0.57911(18)
H83 H 0.2097 0.3419 0.5909
H84 H 0.2903 0.3419 0.5910
O11? O 0.07290(15) 0.31204(19) 0.63727(9)
O12? O 0.07114(16) 0.57899(18) 0.54198(8)
O13? O 0.32560(14) 0.64388(18) 0.52206(7)
O14? O 0.46780(14) 0.43330(19) 0.59617(8)
O15? O 0.31560(16) 0.21918(18) 0.67438(8)
C56? C 0.3420(2) 0.1872(3) 0.63899(12)
H41? H 0.3849 0.1541 0.6434
H42? H 0.3515 0.2386 0.6219
C57? C 0.2917(3) 0.1276(3) 0.62160(13)
C58? C 0.1028(2) 0.2370(3) 0.61757(13)
H43? H 0.0871 0.1797 0.6290
H44? H 0.1528 0.2397 0.6197
C59? C 0.0825(2) 0.2415(3) 0.57777(16)
H45? H 0.2168 0.0453 0.5942
H46? H 0.0595 0.2346 0.5241
H47? H 0.1335 0.4986 0.4327
H48? H 0.4141 0.4683 0.4429
H49? H 0.4235 0.1762 0.5447
C60? C 0.0754(2) 0.4899(3) 0.52736(12)
H50? H 0.0302 0.4609 0.5276
H51? H 0.1068 0.4533 0.5431
C61? C 0.1008(2) 0.4967(3) 0.48822(13)
C62? C 0.2915(2) 0.5850(3) 0.49617(11)
H52? H 0.2645 0.6204 0.4776
H53? H 0.2606 0.5444 0.5102
C63? C 0.3437(2) 0.5324(3) 0.47628(12)
C64? C 0.4446(2) 0.4100(3) 0.55909(12)
H54? H 0.4778 0.4300 0.5398
H55? H 0.4007 0.4401 0.5538
C65? C 0.4362(2) 0.3114(3) 0.55720(12)
O16? O 0.07668(16) 0.52583(19) 0.73840(8)
O17? O 0.08517(15) 0.77278(18) 0.65049(8)
O18? O 0.32405(15) 0.85992(19) 0.61764(8)
O19? O 0.46313(15) 0.63521(19) 0.69573(8)
O20? O 0.31066(18) 0.44291(19) 0.76821(8)
C66? C 0.1167(2) 0.5757(3) 0.76522(13)
H56? H 0.1614 0.5881 0.7542
H57? H 0.1222 0.5404 0.7886
H58? H 0.0940 0.6326 0.7712
C67? C 0.0908(3) 0.7842(3) 0.69074(13)
H59? H 0.1097 0.8438 0.6963
H60? H 0.1207 0.7377 0.7012
H61? H 0.0458 0.7790 0.7023
C68? C 0.2978(3) 0.8802(4) 0.65413(13)
H62? H 0.2613 0.9246 0.6517
H63? H 0.3340 0.9048 0.6702
H64? H 0.2799 0.8251 0.6658
C69? C 0.4394(2) 0.7165(3) 0.71254(12)
H65? H 0.3927 0.7280 0.7042
H66? H 0.4685 0.7666 0.7046
H67? H 0.4407 0.7109 0.7403
C70? C 0.3277(3) 0.5334(3) 0.77996(13)
H68? H 0.3246 0.5740 0.7580
H69? H 0.3740 0.5344 0.7901
H70? H 0.2960 0.5532 0.7997
loop_
_geom_bond_atom_site_label_1
_geom_bond_atom_site_label_2
_geom_bond_site_symmetry_1
_geom_bond_site_symmetry_2
O1 C2 1_555 1_555
O2 C9 1_555 1_555
O3 C16 1_555 1_555
O4 C23 1_555 1_555
O5 C30 1_555 1_555
C1 C2 1_555 1_555
C2 C3 1_555 1_555
C3 C4 1_555 1_555
C4 C5 1_555 1_555
C5 C6 1_555 1_555
C6 C1 1_555 1_555
C7 C4 1_555 1_555
H1 C7 1_555 1_555
H2 C7 1_555 1_555
C8 C7 1_555 1_555
C9 C8 1_555 1_555
C10 C9 1_555 1_555
C11 C10 1_555 1_555
C12 C11 1_555 1_555
C13 C8 1_555 1_555
C14 C11 1_555 1_555
H3 C14 1_555 1_555
H4 C14 1_555 1_555
C15 C14 1_555 1_555
C16 C15 1_555 1_555
C17 C16 1_555 1_555
C18 C17 1_555 1_555
C19 C18 1_555 1_555
C20 C15 1_555 1_555
C21 C18 1_555 1_555
H5 C21 1_555 1_555
H6 C21 1_555 1_555
C22 C21 1_555 1_555
C23 C22 1_555 1_555
C24 C23 1_555 1_555
C25 C24 1_555 1_555
C26 C25 1_555 1_555
C27 C22 1_555 1_555
C28 C25 1_555 1_555
H7 C28 1_555 1_555
H8 C28 1_555 1_555
C29 C28 1_555 1_555
C30 C29 1_555 1_555
C31 C30 1_555 1_555
C32 C31 1_555 1_555
C33 C32 1_555 1_555
C34 C29 1_555 1_555
C35 C1 1_555 1_555
H9 C35 1_555 1_555
H10 C35 1_555 1_555
C36 O1 1_555 1_555
H11 C36 1_555 1_555
H12 C36 1_555 1_555
C37 C36 1_555 1_555
C38 O2 1_555 1_555
H13 C38 1_555 1_555
H14 C38 1_555 1_555
C39 C38 1_555 1_555
C40 C37 1_555 1_555
H15 C40 1_555 1_555
C41 C39 1_555 1_555
H16 C41 1_555 1_555
C42 H17 1_555 1_555
C43 H18 1_555 1_555
C44 H19 1_555 1_555
C45 O3 1_555 1_555
H20 C45 1_555 1_555
H21 C45 1_555 1_555
C46 C42 1_555 1_555
C47 O4 1_555 1_555
H22 C47 1_555 1_555
H23 C47 1_555 1_555
C48 C43 1_555 1_555
C49 O5 1_555 1_555
H24 C49 1_555 1_555
H25 C49 1_555 1_555
C50 C44 1_555 1_555
O6 C6 1_555 1_555
O7 C13 1_555 1_555
O8 C20 1_555 1_555
O9 C27 1_555 1_555
O10 C34 1_555 1_555
C51 O6 1_555 1_555
H26 C51 1_555 1_555
H27 C51 1_555 1_555
H28 C51 1_555 1_555
C52 O7 1_555 1_555
H29 C52 1_555 1_555
H30 C52 1_555 1_555
H31 C52 1_555 1_555
C53 O8 1_555 1_555
H32 C53 1_555 1_555
H33 C53 1_555 1_555
H34 C53 1_555 1_555
C54 O9 1_555 1_555
H35 C54 1_555 1_555
H36 C54 1_555 1_555
H37 C54 1_555 1_555
C55 O10 1_555 1_555
H38 C55 1_555 1_555
H39 C55 1_555 1_555
H40 C55 1_555 1_555
C71 H71 1_555 1_555
H72 C71 1_555 1_555
H73 C71 1_555 1_555
C72 C71 1_555 1_555
H74 C72 1_555 1_555
H75 C72 1_555 1_555
C73 C72 1_555 1_555
H76 C73 1_555 1_555
H77 C73 1_555 1_555
C74 C73 1_555 1_555
H78 C74 1_555 1_555
H79 C74 1_555 1_555
C75 H80 1_555 1_555
H81 C75 1_555 1_555
H82 C75 1_555 1_555
C76 C74 1_555 1_555
H83 C76 1_555 1_555
H84 C76 1_555 1_555
C12 C13 1_555 1_555
C19 C20 1_555 1_555
C26 C27 1_555 1_555
C32 C35 1_555 1_555
C33 C34 1_555 1_555
C45 C46 1_555 1_555
C47 C48 1_555 1_555
C49 C50 1_555 1_555
C75 C76 1_555 1_555

#END
