
#######################################################################
#
#                 Cambridge Crystallographic Data Centre
#                                CCDC 
#
#######################################################################
#
# If this CIF has been generated from an entry in the Cambridge 
# Structural Database, then it will include bibliographic, chemical, 
# crystal, experimental, refinement or atomic coordinate data resulting 
# from the CCDC's data processing and validation procedures.
#
#######################################################################

data_YERTIZ
_chemical_formula_moiety         'C20 H15 N3 O2'
_chemical_name_systematic        
N-(Quinolin-8-yl)-2-(quinolin-8-yloxy)acetamide
_symmetry_cell_setting           triclinic
_symmetry_space_group_name_H-M   'P -1'
_symmetry_Int_Tables_number      2
_space_group_name_Hall           '-P 1'
loop_
_symmetry_equiv_pos_site_id
_symmetry_equiv_pos_as_xyz
1 x,y,z
2 -x,-y,-z
_cell_length_a                   8.256(3)
_cell_length_b                   10.017(4)
_cell_length_c                   10.181(4)
_cell_angle_alpha                85.629(7)
_cell_angle_beta                 85.187(7)
_cell_angle_gamma                77.572(8)
_cell_volume                     817.879
_exptl_crystal_colour            colorless
_exptl_crystal_description       column
_cell_formula_units_Z            2
_exptl_crystal_recrystallization_method 'ethyl acetate'
loop_
_atom_site_label
_atom_site_type_symbol
_atom_site_fract_x
_atom_site_fract_y
_atom_site_fract_z
O1 O 0.39488(16) 0.89037(13) 0.52247(14)
N1 N 0.3033(2) 1.08242(17) 0.70349(17)
H1 H 0.3995 1.0309 0.6868
N2 N 0.5816(2) 1.07681(18) 0.81858(18)
C1 C 0.2876(3) 1.1557(2) 0.8163(2)
C2 C 0.3639(3) 0.7742(2) 0.5908(2)
O2 O 0.04515(18) 1.14197(16) 0.62718(17)
C3 C 0.4384(3) 1.1511(2) 0.8762(2)
N3 N 0.6591(2) 0.69281(17) 0.56127(18)
C4 C 0.5075(3) 0.6687(2) 0.6078(2)
C5 C 0.1898(2) 1.0808(2) 0.6172(2)
C6 C 0.4872(3) 0.5426(2) 0.6726(2)
C7 C 0.2116(3) 0.7553(2) 0.6403(2)
H2 H 0.1184 0.8254 0.6307
C8 C 0.2547(2) 0.99819(19) 0.4978(2)
H3 H 0.1662 0.9592 0.4700
H4 H 0.2856 1.0591 0.4259
C9 C 0.4357(3) 1.2231(2) 0.9899(2)
C10 C 0.1953(3) 0.6302(3) 0.7058(2)
H5 H 0.0907 0.6185 0.7394
C11 C 0.1411(3) 1.2285(2) 0.8697(2)
H6 H 0.0424 1.2313 0.8307
C12 C 0.7297(3) 1.1415(3) 0.9866(3)
H7 H 0.8313 1.1357 1.0221
C13 C 0.7210(3) 1.0742(3) 0.8743(3)
H8 H 0.8194 1.0241 0.8358
C14 C 0.3279(3) 0.5264(3) 0.7210(3)
H9 H 0.3138 0.4439 0.7637
C15 C 0.7883(3) 0.5923(2) 0.5769(2)
H10 H 0.8922 0.6079 0.5458
C16 C 0.6324(4) 0.4395(2) 0.6847(3)
H11 H 0.6253 0.3546 0.7259
C17 C 0.7810(4) 0.4636(3) 0.6368(3)
H12 H 0.8770 0.3958 0.6435
C18 C 0.5895(4) 1.2154(3) 1.0437(3)
H13 H 0.5940 1.2615 1.1188
C19 C 0.1401(4) 1.2991(3) 0.9838(3)
H14 H 0.0398 1.3484 1.0198
C20 C 0.2817(4) 1.2970(3) 1.0429(3)
H15 H 0.2775 1.3445 1.1185
loop_
_geom_bond_atom_site_label_1
_geom_bond_atom_site_label_2
_geom_bond_site_symmetry_1
_geom_bond_site_symmetry_2
O1 C2 1_555 1_555
N1 H1 1_555 1_555
N2 C3 1_555 1_555
C1 N1 1_555 1_555
C2 C4 1_555 1_555
O2 C5 1_555 1_555
C3 C1 1_555 1_555
N3 C4 1_555 1_555
C4 C6 1_555 1_555
C5 N1 1_555 1_555
C6 C14 1_555 1_555
C7 C2 1_555 1_555
H2 C7 1_555 1_555
C8 O1 1_555 1_555
H3 C8 1_555 1_555
H4 C8 1_555 1_555
C9 C3 1_555 1_555
C10 C7 1_555 1_555
H5 C10 1_555 1_555
C11 C1 1_555 1_555
H6 C11 1_555 1_555
C12 H7 1_555 1_555
C13 N2 1_555 1_555
H8 C13 1_555 1_555
C14 C10 1_555 1_555
H9 C14 1_555 1_555
C15 N3 1_555 1_555
H10 C15 1_555 1_555
C16 C6 1_555 1_555
H11 C16 1_555 1_555
C17 C15 1_555 1_555
H12 C17 1_555 1_555
C18 C9 1_555 1_555
H13 C18 1_555 1_555
C19 C11 1_555 1_555
H14 C19 1_555 1_555
C20 C9 1_555 1_555
H15 C20 1_555 1_555
C5 C8 1_555 1_555
C12 C13 1_555 1_555
C12 C18 1_555 1_555
C16 C17 1_555 1_555
C19 C20 1_555 1_555

#END
