
#######################################################################
#
#                 Cambridge Crystallographic Data Centre
#                                CCDC 
#
#######################################################################
#
# If this CIF has been generated from an entry in the Cambridge 
# Structural Database, then it will include bibliographic, chemical, 
# crystal, experimental, refinement or atomic coordinate data resulting 
# from the CCDC's data processing and validation procedures.
#
#######################################################################

data_YERYEA
_chemical_formula_moiety         'C5 H6 N1 1+,C6 H3 N2 O4 1-'
_chemical_name_systematic        'Pyridinium 5-carboxypyrazine-2-carboxylate'
_symmetry_cell_setting           monoclinic
_symmetry_space_group_name_H-M   'P 21/m'
_symmetry_Int_Tables_number      11
_space_group_name_Hall           '-P 2yb'
loop_
_symmetry_equiv_pos_site_id
_symmetry_equiv_pos_as_xyz
1 x,y,z
2 -x,1/2+y,-z
3 -x,-y,-z
4 x,1/2-y,z
_cell_length_a                   9.237(2)
_cell_length_b                   6.7553(18)
_cell_length_c                   9.529(3)
_cell_angle_alpha                90
_cell_angle_beta                 115.905(4)
_cell_angle_gamma                90
_cell_volume                     534.852
_exptl_crystal_colour            colorless
_exptl_crystal_description       block
_cell_formula_units_Z            2
loop_
_atom_site_label
_atom_site_type_symbol
_atom_site_fract_x
_atom_site_fract_y
_atom_site_fract_z
O1 O 0.72292(16) 0.2500 0.55050(16)
O2 O 0.46005(16) 0.2500 0.39199(15)
H1 H 0.491(3) 0.2500 0.319(2)
O3 O 0.25524(17) 0.2500 0.99500(16)
O4 O 0.51718(17) 0.2500 1.15898(15)
N1 N 0.65329(17) 0.2500 0.80481(17)
N2 N 0.32829(17) 0.2500 0.74574(17)
C1 C 0.5840(2) 0.2500 0.5279(2)
C2 C 0.5351(2) 0.2500 0.65984(19)
C3 C 0.3748(2) 0.2500 0.6315(2)
H2 H 0.2964 0.2500 0.5287
C4 C 0.4456(2) 0.2500 0.89071(19)
C5 C 0.6061(2) 0.2500 0.9187(2)
H3 H 0.6844 0.2500 1.0216
C6 C 0.4004(2) 0.2500 1.0260(2)
C7 C 0.06181(18) 0.0778(2) 0.21219(16)
H4 H 0.0958 -0.0401 0.1858
C8 C -0.03312(18) 0.0743(3) 0.28930(17)
H5 H -0.0647 -0.0456 0.3152
C9 C -0.0810(2) 0.2500 0.3278(2)
H6 H -0.1459 0.2500 0.3799
N3 N 0.10531(19) 0.2500 0.17522(19)
H7 H 0.170(3) 0.2500 0.121(3)
C7C C 0.06181(18) 0.4222(2) 0.21219(16)
H4C H 0.0958 0.5401 0.1858
C8C C -0.03312(18) 0.4257(3) 0.28930(17)
H5C H -0.0647 0.5456 0.3152
loop_
_geom_bond_atom_site_label_1
_geom_bond_atom_site_label_2
_geom_bond_site_symmetry_1
_geom_bond_site_symmetry_2
O1 C1 1_555 1_555
O2 H1 1_555 1_555
O3 C6 1_555 1_555
O4 C6 1_555 1_555
N1 C2 1_555 1_555
N2 C3 1_555 1_555
C1 O2 1_555 1_555
C2 C1 1_555 1_555
C3 C2 1_555 1_555
H2 C3 1_555 1_555
C4 N2 1_555 1_555
C5 N1 1_555 1_555
H3 C5 1_555 1_555
C6 C4 1_555 1_555
C7 H4 1_555 1_555
C8 C7 1_555 1_555
H5 C8 1_555 1_555
C9 C8 1_555 1_555
H6 C9 1_555 1_555
N3 C7 1_555 1_555
H7 N3 1_555 1_555
C7C N3 1_555 1_555
H4C C7C 1_555 1_555
C8C C9 1_555 1_555
H5C C8C 1_555 1_555
C4 C5 1_555 1_555
C7C C8C 1_555 1_555

#END
