
#######################################################################
#
#                 Cambridge Crystallographic Data Centre
#                                CCDC 
#
#######################################################################
#
# If this CIF has been generated from an entry in the Cambridge 
# Structural Database, then it will include bibliographic, chemical, 
# crystal, experimental, refinement or atomic coordinate data resulting 
# from the CCDC's data processing and validation procedures.
#
#######################################################################

data_YERZAZ
_chemical_formula_moiety         'C11 H12 N2 O2 S1,C6 H6 N2 O1'
_chemical_name_systematic        
'pyridine-4-carboxamide N-[1-(1-benzothiophen-2-yl)ethyl]-N-hydroxyurea'
_symmetry_cell_setting           triclinic
_symmetry_space_group_name_H-M   'P -1'
_symmetry_Int_Tables_number      2
_space_group_name_Hall           '-P 1'
loop_
_symmetry_equiv_pos_site_id
_symmetry_equiv_pos_as_xyz
1 x,y,z
2 -x,-y,-z
_cell_length_a                   10.2301(19)
_cell_length_b                   10.609(2)
_cell_length_c                   17.283(3)
_cell_angle_alpha                75.429(15)
_cell_angle_beta                 74.117(15)
_cell_angle_gamma                79.223(16)
_cell_volume                     1731.99
_exptl_crystal_colour            'light colorless'
_exptl_crystal_description       block
_cell_formula_units_Z            4
loop_
_atom_site_label
_atom_site_type_symbol
_atom_site_fract_x
_atom_site_fract_y
_atom_site_fract_z
S1 S 0.64024(18) 0.53882(16) 0.22556(11)
O1 O 0.5705(5) 0.8195(5) 0.2352(3)
H1 H 0.535(8) 0.876(8) 0.256(5)
O2 O 0.3838(4) 0.9017(4) 0.0838(3)
C1 C 0.6761(7) 0.4233(6) 0.1643(4)
C2 C 0.7951(7) 0.3326(7) 0.1535(4)
H2 H 0.8637 0.3267 0.1815
C3 C 0.8061(9) 0.2534(7) 0.1002(5)
H3 H 0.8847 0.1918 0.0913
C4 C 0.7045(9) 0.2608(8) 0.0584(5)
H4 H 0.7167 0.2050 0.0218
C5 C 0.5889(8) 0.3471(7) 0.0699(4)
H5 H 0.5201 0.3504 0.0425
C6 C 0.5735(7) 0.4324(7) 0.1238(4)
C7 C 0.4653(7) 0.5323(7) 0.1448(4)
H6 H 0.3865 0.5510 0.1239
C8 C 0.4847(6) 0.5977(6) 0.1970(4)
C9 C 0.3901(6) 0.7113(6) 0.2290(4)
H7 H 0.3095 0.7278 0.2049
C10 C 0.3370(7) 0.6812(7) 0.3232(4)
H8 H 0.2884 0.6048 0.3402
H9 H 0.2754 0.7560 0.3400
H10 H 0.4137 0.6638 0.3488
C11 C 0.4720(6) 0.8973(6) 0.1193(4)
N1 N 0.4529(5) 0.8341(5) 0.2042(3)
N2 N 0.5863(5) 0.9531(5) 0.0859(3)
H11 H 0.6017 0.9965 0.0350
H12 H 0.6457 0.9462 0.1149
S2 S 0.0601(2) 0.4840(2) 0.26689(13)
O3 O 0.0821(5) 0.8283(4) 0.2326(3)
H13 H 0.083(7) 0.916(7) 0.250(4)
O4 O -0.1208(4) 0.9163(4) 0.0889(3)
C12 C 0.1377(8) 0.3998(8) 0.1877(5)
C13 C 0.2145(9) 0.2768(8) 0.1947(6)
H14 H 0.2338 0.2307 0.2452
C14 C 0.2614(9) 0.2246(9) 0.1258(7)
H15 H 0.3115 0.1403 0.1292
C15 C 0.2353(9) 0.2960(10) 0.0505(6)
H16 H 0.2705 0.2595 0.0035
C16 C 0.1602(9) 0.4169(8) 0.0435(5)
H17 H 0.1436 0.4629 -0.0077
C17 C 0.1073(8) 0.4729(7) 0.1138(4)
C18 C 0.0196(7) 0.5953(6) 0.1195(4)
H18 H -0.0101 0.6546 0.0754
C19 C -0.0148(6) 0.6128(6) 0.2017(4)
C20 C -0.1098(7) 0.7282(6) 0.2329(4)
H19 H -0.1895 0.7459 0.2080
C21 C -0.1650(7) 0.7039(7) 0.3270(4)
H20 H -0.2141 0.6277 0.3455
H21 H -0.2265 0.7802 0.3416
H22 H -0.0891 0.6883 0.3531
C22 C -0.0254(7) 0.9092(6) 0.1206(4)
N3 N -0.0408(5) 0.8474(5) 0.2056(3)
N4 N 0.0902(5) 0.9624(5) 0.0853(3)
H23 H 0.1034 1.0072 0.0348
H24 H 0.1527 0.9522 0.1126
O5 O 0.6982(5) 0.3725(5) 0.4623(3)
C23 C 0.8200(7) 0.3324(6) 0.4537(4)
C24 C 0.8851(7) 0.2184(7) 0.4118(4)
C25 C 1.0090(9) 0.1452(9) 0.4209(6)
H25 H 1.0574 0.1634 0.4550
C26 C 1.0601(10) 0.0452(10) 0.3789(6)
H26 H 1.1473 0.0001 0.3822
C27 C 0.8741(9) 0.0801(9) 0.3272(5)
H27 H 0.8272 0.0582 0.2935
C28 C 0.8120(9) 0.1843(8) 0.3652(5)
H28 H 0.7255 0.2289 0.3596
N5 N 0.9920(7) 0.0090(6) 0.3338(4)
N6 N 0.9041(5) 0.3839(6) 0.4810(3)
H29 H 0.8725 0.4488 0.5061
H30 H 0.9904 0.3525 0.4737
O6 O 0.1998(5) 0.3609(5) 0.4666(3)
C29 C 0.3259(7) 0.3267(6) 0.4519(4)
C30 C 0.3858(6) 0.2145(6) 0.4098(4)
C31 C 0.3637(8) 0.0863(7) 0.4511(4)
H31 H 0.3127 0.0689 0.5060
C32 C 0.4177(9) -0.0136(8) 0.4101(5)
H32 H 0.4034 -0.0996 0.4388
C33 C 0.5071(9) 0.1279(8) 0.2933(5)
H33 H 0.5552 0.1429 0.2378
C34 C 0.4598(8) 0.2346(7) 0.3291(4)
H34 H 0.4775 0.3194 0.2992
N7 N 0.4893(7) 0.0039(6) 0.3321(4)
N8 N 0.4103(6) 0.3887(5) 0.4687(3)
H35 H 0.3790 0.4567 0.4909
H36 H 0.4978 0.3620 0.4576
loop_
_geom_bond_atom_site_label_1
_geom_bond_atom_site_label_2
_geom_bond_site_symmetry_1
_geom_bond_site_symmetry_2
S1 C1 1_555 1_555
O1 H1 1_555 1_555
O2 C11 1_555 1_555
C1 C2 1_555 1_555
C2 H2 1_555 1_555
C3 C2 1_555 1_555
H3 C3 1_555 1_555
C4 C3 1_555 1_555
H4 C4 1_555 1_555
C5 C4 1_555 1_555
H5 C5 1_555 1_555
C6 C1 1_555 1_555
C7 C6 1_555 1_555
H6 C7 1_555 1_555
C8 S1 1_555 1_555
C9 C8 1_555 1_555
H7 C9 1_555 1_555
C10 C9 1_555 1_555
H8 C10 1_555 1_555
H9 C10 1_555 1_555
H10 C10 1_555 1_555
C11 N1 1_555 1_555
N1 O1 1_555 1_555
N2 C11 1_555 1_555
H11 N2 1_555 1_555
H12 N2 1_555 1_555
S2 C12 1_555 1_555
O3 H13 1_555 1_555
O4 C22 1_555 1_555
C12 C13 1_555 1_555
C13 H14 1_555 1_555
C14 C13 1_555 1_555
H15 C14 1_555 1_555
C15 C14 1_555 1_555
H16 C15 1_555 1_555
C16 C15 1_555 1_555
H17 C16 1_555 1_555
C17 C12 1_555 1_555
C18 C17 1_555 1_555
H18 C18 1_555 1_555
C19 S2 1_555 1_555
C20 C19 1_555 1_555
H19 C20 1_555 1_555
C21 C20 1_555 1_555
H20 C21 1_555 1_555
H21 C21 1_555 1_555
H22 C21 1_555 1_555
C22 N3 1_555 1_555
N3 O3 1_555 1_555
N4 C22 1_555 1_555
H23 N4 1_555 1_555
H24 N4 1_555 1_555
O5 C23 1_555 1_555
C23 C24 1_555 1_555
C24 C25 1_555 1_555
C25 H25 1_555 1_555
C26 C25 1_555 1_555
H26 C26 1_555 1_555
C27 H27 1_555 1_555
C28 C24 1_555 1_555
H28 C28 1_555 1_555
N5 C26 1_555 1_555
N6 C23 1_555 1_555
H29 N6 1_555 1_555
H30 N6 1_555 1_555
O6 C29 1_555 1_555
C29 C30 1_555 1_555
C30 C31 1_555 1_555
C31 H31 1_555 1_555
C32 C31 1_555 1_555
H32 C32 1_555 1_555
C33 H33 1_555 1_555
C34 C30 1_555 1_555
H34 C34 1_555 1_555
N7 C32 1_555 1_555
N8 C29 1_555 1_555
H35 N8 1_555 1_555
H36 N8 1_555 1_555
C5 C6 1_555 1_555
C7 C8 1_555 1_555
C9 N1 1_555 1_555
C16 C17 1_555 1_555
C18 C19 1_555 1_555
C20 N3 1_555 1_555
C27 C28 1_555 1_555
C27 N5 1_555 1_555
C33 C34 1_555 1_555
C33 N7 1_555 1_555

#END
