
#######################################################################
#
#                 Cambridge Crystallographic Data Centre
#                                CCDC 
#
#######################################################################
#
# If this CIF has been generated from an entry in the Cambridge 
# Structural Database, then it will include bibliographic, chemical, 
# crystal, experimental, refinement or atomic coordinate data resulting 
# from the CCDC's data processing and validation procedures.
#
#######################################################################

data_YESBOQ
_chemical_formula_moiety         'C30 H23 Cl1 N4 O1'
_chemical_name_systematic        
1-benzyl-3-[5-benzyl-3-(3-chlorophenyl)-1H-1,2,4-triazol-1-yl]-1,3-dihydro-2H-indol-2-one
_symmetry_cell_setting           monoclinic
_symmetry_space_group_name_H-M   'P 21/c'
_symmetry_Int_Tables_number      14
_space_group_name_Hall           '-P 2ybc'
loop_
_symmetry_equiv_pos_site_id
_symmetry_equiv_pos_as_xyz
1 x,y,z
2 -x,1/2+y,1/2-z
3 -x,-y,-z
4 x,1/2-y,1/2+z
_cell_length_a                   11.322(2)
_cell_length_b                   25.287(4)
_cell_length_c                   8.5913(16)
_cell_angle_alpha                90
_cell_angle_beta                 101.872(4)
_cell_angle_gamma                90
_cell_volume                     2407.07
_exptl_crystal_colour            colorless
_exptl_crystal_description       Prism
_cell_formula_units_Z            4
loop_
_atom_site_label
_atom_site_type_symbol
_atom_site_fract_x
_atom_site_fract_y
_atom_site_fract_z
Cl1 Cl 0.82174(7) 0.18717(2) 0.12153(11)
O1 O 0.47346(9) 0.42749(4) 0.00685(12)
N1 N 0.47858(11) 0.41111(5) 0.27144(15)
N2 N 0.73031(10) 0.44893(5) 0.15663(14)
N3 N 0.74879(11) 0.39551(5) 0.15983(15)
N4 N 0.89461(11) 0.43823(5) 0.06350(15)
C1 C 0.51729(12) 0.43382(6) 0.14751(17)
C2 C 0.62709(12) 0.46886(5) 0.21643(16)
H1 H 0.6106 0.5066 0.1850
C3 C 0.63925(13) 0.46205(6) 0.39346(17)
C4 C 0.71894(14) 0.48378(6) 0.51974(18)
H2 H 0.7793 0.5080 0.5028
C5 C 0.70894(16) 0.46940(7) 0.67375(19)
H3 H 0.7633 0.4838 0.7627
C6 C 0.62033(16) 0.43427(8) 0.6977(2)
H4 H 0.6151 0.4249 0.8032
C7 C 0.53876(15) 0.41243(7) 0.5701(2)
H5 H 0.4780 0.3884 0.5865
C8 C 0.54983(13) 0.42721(6) 0.41905(18)
C9 C 0.38000(14) 0.37325(7) 0.2517(2)
H6 H 0.3349 0.3746 0.1401
H7 H 0.3240 0.3839 0.3206
C10 C 0.42015(15) 0.31681(7) 0.29163(19)
C11 C 0.3369(2) 0.28029(8) 0.3232(3)
H8 H 0.2566 0.2912 0.3233
C12 C 0.3700(2) 0.22785(8) 0.3546(3)
H9 H 0.3122 0.2032 0.3766
C13 C 0.4850(2) 0.21136(8) 0.3542(3)
H10 H 0.5071 0.1754 0.3751
C14 C 0.5680(2) 0.24730(8) 0.3234(3)
H11 H 0.6481 0.2362 0.3231
C15 C 0.53577(18) 0.29996(8) 0.2926(3)
H12 H 0.5942 0.3245 0.2720
C16 C 0.84786(13) 0.39120(6) 0.10170(17)
C17 C 0.90124(14) 0.33955(6) 0.07870(19)
C18 C 0.84457(18) 0.29340(7) 0.1110(2)
H13 H 0.7719 0.2949 0.1497
C19 C 0.8950(2) 0.24511(7) 0.0861(3)
C20 C 1.0005(2) 0.24198(9) 0.0315(4)
H14 H 1.0342 0.2086 0.0150
C21 C 1.0561(2) 0.28745(10) 0.0014(4)
H15 H 1.1298 0.2855 -0.0350
C22 C 1.00716(19) 0.33659(8) 0.0230(3)
H16 H 1.0463 0.3680 -0.0003
C23 C 0.81817(12) 0.47366(6) 0.09900(16)
C24 C 0.82686(13) 0.53217(6) 0.07831(17)
H17 H 0.7497 0.5453 0.0140
H18 H 0.8912 0.5398 0.0191
C25 C 0.85405(13) 0.56155(5) 0.23547(17)
C26 C 0.77217(13) 0.59757(6) 0.27486(18)
H19 H 0.6991 0.6048 0.2013
C27 C 0.79675(15) 0.62301(6) 0.42128(19)
H20 H 0.7409 0.6480 0.4467
C28 C 0.90219(15) 0.61224(6) 0.53035(19)
H21 H 0.9172 0.6286 0.6320
C29 C 0.98576(15) 0.57739(6) 0.4902(2)
H22 H 1.0594 0.5707 0.5634
C30 C 0.96212(14) 0.55231(6) 0.34364(19)
H23 H 1.0199 0.5287 0.3166
loop_
_geom_bond_atom_site_label_1
_geom_bond_atom_site_label_2
_geom_bond_site_symmetry_1
_geom_bond_site_symmetry_2
Cl1 C19 1_555 1_555
O1 C1 1_555 1_555
N1 C1 1_555 1_555
N2 N3 1_555 1_555
N3 C16 1_555 1_555
N4 C16 1_555 1_555
C1 C2 1_555 1_555
C2 N2 1_555 1_555
H1 C2 1_555 1_555
C3 C2 1_555 1_555
C4 C3 1_555 1_555
H2 C4 1_555 1_555
C5 C4 1_555 1_555
H3 C5 1_555 1_555
C6 C5 1_555 1_555
H4 C6 1_555 1_555
C7 C6 1_555 1_555
H5 C7 1_555 1_555
C8 N1 1_555 1_555
C9 N1 1_555 1_555
H6 C9 1_555 1_555
H7 C9 1_555 1_555
C10 C9 1_555 1_555
C11 C10 1_555 1_555
H8 C11 1_555 1_555
C12 C11 1_555 1_555
H9 C12 1_555 1_555
C13 C12 1_555 1_555
H10 C13 1_555 1_555
C14 C13 1_555 1_555
H11 C14 1_555 1_555
C15 C10 1_555 1_555
H12 C15 1_555 1_555
C16 C17 1_555 1_555
C17 C18 1_555 1_555
C18 H13 1_555 1_555
C19 C18 1_555 1_555
C20 C19 1_555 1_555
H14 C20 1_555 1_555
C21 C20 1_555 1_555
H15 C21 1_555 1_555
C22 C17 1_555 1_555
H16 C22 1_555 1_555
C23 N2 1_555 1_555
C24 C23 1_555 1_555
H17 C24 1_555 1_555
H18 C24 1_555 1_555
C25 C24 1_555 1_555
C26 C25 1_555 1_555
H19 C26 1_555 1_555
C27 C26 1_555 1_555
H20 C27 1_555 1_555
C28 C27 1_555 1_555
H21 C28 1_555 1_555
C29 C28 1_555 1_555
H22 C29 1_555 1_555
C30 C25 1_555 1_555
H23 C30 1_555 1_555
N4 C23 1_555 1_555
C3 C8 1_555 1_555
C7 C8 1_555 1_555
C14 C15 1_555 1_555
C21 C22 1_555 1_555
C29 C30 1_555 1_555

#END
