
#######################################################################
#
#                 Cambridge Crystallographic Data Centre
#                                CCDC 
#
#######################################################################
#
# If this CIF has been generated from an entry in the Cambridge 
# Structural Database, then it will include bibliographic, chemical, 
# crystal, experimental, refinement or atomic coordinate data resulting 
# from the CCDC's data processing and validation procedures.
#
#######################################################################

data_YESCIJ
_chemical_compound_source        'Osmanthus armatus'
_chemical_formula_moiety         'C27 H34 O11,1.5(H2 O1)'
_chemical_name_systematic        'Phillyrin sesquihydrate'
_symmetry_cell_setting           monoclinic
_symmetry_space_group_name_H-M   'P 21'
_symmetry_Int_Tables_number      4
_space_group_name_Hall           'P 2yb'
loop_
_symmetry_equiv_pos_site_id
_symmetry_equiv_pos_as_xyz
1 x,y,z
2 -x,1/2+y,-z
_cell_length_a                   11.745(3)
_cell_length_b                   10.343(2)
_cell_length_c                   22.722(5)
_cell_angle_alpha                90
_cell_angle_beta                 102.838(4)
_cell_angle_gamma                90
_cell_volume                     2691.24
_exptl_crystal_colour            colorless
_exptl_crystal_description       prism
_chemical_melting_point          421-423K
_cell_formula_units_Z            4
_exptl_crystal_recrystallization_method methanol/water
loop_
_atom_site_label
_atom_site_type_symbol
_atom_site_fract_x
_atom_site_fract_y
_atom_site_fract_z
O1 O 0.4926(4) 0.7960(6) 0.53702(19)
O2 O 0.2054(4) 0.9489(5) 0.45133(19)
O3 O 0.5403(4) 1.0809(5) 0.7228(2)
O4 O 0.4112(4) 0.9886(6) 0.7887(2)
O5 O 0.3352(4) 1.0392(5) 0.22149(19)
O6 O 0.1521(3) 0.9081(4) 0.16889(18)
O7 O 0.0069(4) 1.0916(5) 0.0952(2)
H1 H 0.0743 1.1181 0.1017
O8 O -0.1458(4) 0.9858(5) -0.00729(19)
H2 H -0.2148 1.0073 -0.0148
O9 O -0.2522(4) 0.7469(5) 0.0209(2)
H3 H -0.2777 0.7760 -0.0130
O10 O 0.0294(3) 0.7459(4) 0.12693(17)
O11 O -0.0900(5) 0.4832(6) 0.1372(2)
H4 H -0.0272 0.4864 0.1616
C1 C 0.4005(6) 0.7514(8) 0.5638(3)
H15 H 0.4084 0.6578 0.5701
C2 C 0.2898(6) 0.7785(7) 0.5148(3)
H16 H 0.2289 0.7144 0.5159
C3 C 0.2421(6) 0.9151(8) 0.5136(3)
H17 H 0.1767 0.9184 0.5332
H18 H 0.3021 0.9741 0.5343
C4 C 0.2962(6) 0.9022(7) 0.4240(3)
H19 H 0.3631 0.9611 0.4344
C5 C 0.3312(5) 0.7702(7) 0.4551(3)
H20 H 0.2937 0.6982 0.4301
C6 C 0.4635(6) 0.7488(10) 0.4761(3)
H21 H 0.4826 0.6578 0.4747
H22 H 0.5054 0.7965 0.4509
C7 C 0.4044(5) 0.8159(7) 0.6237(3)
C8 C 0.4744(5) 0.9217(7) 0.6441(3)
H23 H 0.5220 0.9562 0.6203
C9 C 0.4739(5) 0.9759(7) 0.6991(3)
C10 C 0.4029(6) 0.9272(8) 0.7355(3)
C11 C 0.3341(6) 0.8229(8) 0.7155(3)
H24 H 0.2868 0.7883 0.7394
C12 C 0.3339(6) 0.7673(8) 0.6593(3)
H25 H 0.2857 0.6970 0.6459
C13 C 0.6091(7) 1.1401(8) 0.6871(3)
H26 H 0.6507 1.2116 0.7088
H27 H 0.5598 1.1706 0.6503
H28 H 0.6639 1.0784 0.6780
C14 C 0.3328(7) 0.9505(12) 0.8258(3)
H29 H 0.3479 1.0013 0.8620
H30 H 0.3442 0.8607 0.8360
H31 H 0.2537 0.9641 0.8041
C15 C 0.2549(6) 0.8993(7) 0.3566(3)
C16 C 0.3156(6) 0.9712(7) 0.3212(3)
H32 H 0.3802 1.0196 0.3400
C17 C 0.2814(6) 0.9716(7) 0.2594(3)
C18 C 0.1830(5) 0.9004(7) 0.2308(3)
C19 C 0.1242(5) 0.8282(7) 0.2661(3)
H33 H 0.0600 0.7789 0.2476
C20 C 0.1598(5) 0.8284(7) 0.3284(3)
H34 H 0.1188 0.7800 0.3513
C21 C 0.4348(6) 1.1177(7) 0.2483(3)
H35 H 0.4641 1.1598 0.2170
H36 H 0.4947 1.0638 0.2717
H37 H 0.4118 1.1816 0.2740
C22 C 0.0346(5) 0.8819(7) 0.1399(3)
H38 H -0.0185 0.9048 0.1660
C23 C 0.0049(5) 0.9557(6) 0.0814(3)
H39 H 0.0603 0.9355 0.0562
C24 C -0.1182(5) 0.9214(7) 0.0492(3)
H40 H -0.1724 0.9497 0.0738
C25 C -0.1284(6) 0.7796(7) 0.0406(3)
H41 H -0.0853 0.7513 0.0106
C26 C -0.0882(6) 0.7053(7) 0.0990(3)
H42 H -0.1408 0.7217 0.1262
C27 C -0.0840(6) 0.5590(7) 0.0856(3)
H43 H -0.1489 0.5367 0.0526
H44 H -0.0122 0.5394 0.0731
O12 O 0.0090(4) 0.2976(6) 0.46792(18)
O13 O 0.2899(4) 0.4525(5) 0.55830(18)
O14 O -0.0377(4) 0.5604(5) 0.2757(2)
O15 O 0.1230(4) 0.4898(6) 0.2229(2)
O16 O 0.1312(4) 0.5528(5) 0.78016(18)
O17 O 0.3131(3) 0.4294(4) 0.83830(16)
O18 O 0.4205(4) 0.6415(5) 0.9121(2)
H5 H 0.3513 0.6536 0.9116
O19 O 0.5849(4) 0.5528(5) 1.01860(17)
H6 H 0.6323 0.6123 1.0242
O20 O 0.7469(4) 0.3678(5) 0.98447(19)
H7 H 0.7643 0.3293 1.0168
O21 O 0.4720(3) 0.3032(4) 0.87769(16)
O22 O 0.6200(4) 0.0823(5) 0.9419(2)
H8 H 0.5527 0.0910 0.9459
C28 C 0.1045(6) 0.2531(8) 0.4445(3)
H45 H 0.0974 0.1594 0.4385
C29 C 0.2115(6) 0.2813(7) 0.4954(3)
H46 H 0.2728 0.2167 0.4962
C30 C 0.2596(6) 0.4166(7) 0.4958(3)
H47 H 0.3278 0.4180 0.4784
H48 H 0.2013 0.4749 0.4732
C31 C 0.1945(6) 0.4075(7) 0.5823(3)
H49 H 0.1281 0.4658 0.5687
C32 C 0.1625(5) 0.2731(7) 0.5528(3)
H50 H 0.1984 0.2025 0.5793
C33 C 0.0332(6) 0.2519(9) 0.5291(3)
H51 H 0.0138 0.1610 0.5305
H52 H -0.0115 0.3003 0.5528
C34 C 0.1085(5) 0.3166(7) 0.3848(3)
C35 C 0.0294(5) 0.4118(7) 0.3585(3)
H53 H -0.0288 0.4380 0.3778
C36 C 0.0364(6) 0.4668(6) 0.3052(3)
C37 C 0.1237(6) 0.4285(7) 0.2762(3)
C38 C 0.2010(6) 0.3349(8) 0.3019(3)
H54 H 0.2589 0.3083 0.2824
C39 C 0.1943(6) 0.2794(8) 0.3561(3)
H55 H 0.2482 0.2166 0.3734
C40 C -0.1207(6) 0.6144(8) 0.3046(4)
H56 H -0.1659 0.6780 0.2787
H57 H -0.0813 0.6546 0.3416
H58 H -0.1713 0.5476 0.3132
C41 C 0.2011(7) 0.4436(12) 0.1876(3)
H59 H 0.1921 0.4946 0.1515
H60 H 0.1836 0.3548 0.1769
H61 H 0.2800 0.4504 0.2105
C42 C 0.2271(5) 0.4100(7) 0.6504(3)
C43 C 0.1600(6) 0.4789(7) 0.6823(3)
H62 H 0.0939 0.5224 0.6615
C44 C 0.1894(5) 0.4842(7) 0.7445(3)
C45 C 0.2884(5) 0.4193(7) 0.7757(3)
C46 C 0.3536(5) 0.3482(7) 0.7444(3)
H63 H 0.4181 0.3020 0.7650
C47 C 0.3233(6) 0.3450(7) 0.6818(3)
H64 H 0.3691 0.2981 0.6608
C48 C 0.0380(6) 0.6358(8) 0.7516(3)
H65 H 0.0054 0.6776 0.7818
H66 H -0.0213 0.5857 0.7255
H67 H 0.0674 0.7000 0.7283
C49 C 0.4330(5) 0.4333(7) 0.8660(3)
H68 H 0.4765 0.4752 0.8391
C50 C 0.4484(5) 0.5083(6) 0.9244(3)
H69 H 0.3976 0.4722 0.9491
C51 C 0.5748(5) 0.5013(6) 0.9587(3)
H70 H 0.6218 0.5550 0.9376
C52 C 0.6228(5) 0.3654(7) 0.9628(3)
H71 H 0.5870 0.3137 0.9899
C53 C 0.5975(5) 0.3036(7) 0.8997(3)
H72 H 0.6321 0.3580 0.8729
C54 C 0.6399(7) 0.1669(7) 0.8962(3)
H73 H 0.6021 0.1311 0.8573
H74 H 0.7232 0.1693 0.8980
O23 O 0.8074(4) 0.2377(5) 0.0942(2)
H9 H 0.8296 0.3038 0.1168
H10 H 0.8683 0.2133 0.0820
O24 O 0.6086(4) 0.8172(5) 0.9091(2)
H11 H 0.5479 0.7823 0.9178
H12 H 0.5815 0.8850 0.8889
O25 O 0.2229(7) 0.1654(9) 0.1158(3)
H13 H 0.2337 0.1068 0.1433
H14 H 0.2902 0.2010 0.1188
loop_
_geom_bond_atom_site_label_1
_geom_bond_atom_site_label_2
_geom_bond_site_symmetry_1
_geom_bond_site_symmetry_2
O1 C1 1_555 1_555
O2 C3 1_555 1_555
O3 C9 1_555 1_555
O4 C10 1_555 1_555
O5 C17 1_555 1_555
O6 C18 1_555 1_555
O7 H1 1_555 1_555
O8 H2 1_555 1_555
O9 H3 1_555 1_555
O10 C22 1_555 1_555
O11 H4 1_555 1_555
O12 C28 1_555 1_555
O13 C30 1_555 1_555
O14 C36 1_555 1_555
O15 C37 1_555 1_555
O16 C44 1_555 1_555
O17 C45 1_555 1_555
O18 H5 1_555 1_555
O19 H6 1_555 1_555
O20 H7 1_555 1_555
O21 C49 1_555 1_555
O22 H8 1_555 1_555
O23 H9 1_555 1_555
H10 O23 1_555 1_555
O24 H11 1_555 1_555
H12 O24 1_555 1_555
O25 H13 1_555 1_555
H14 O25 1_555 1_555
C1 H15 1_555 1_555
C2 C1 1_555 1_555
H16 C2 1_555 1_555
C3 C2 1_555 1_555
H17 C3 1_555 1_555
H18 C3 1_555 1_555
C4 O2 1_555 1_555
H19 C4 1_555 1_555
C5 C2 1_555 1_555
H20 C5 1_555 1_555
C6 O1 1_555 1_555
H21 C6 1_555 1_555
H22 C6 1_555 1_555
C7 C1 1_555 1_555
C8 C7 1_555 1_555
H23 C8 1_555 1_555
C9 C8 1_555 1_555
C10 C9 1_555 1_555
C11 C10 1_555 1_555
H24 C11 1_555 1_555
C12 C7 1_555 1_555
H25 C12 1_555 1_555
C13 O3 1_555 1_555
H26 C13 1_555 1_555
H27 C13 1_555 1_555
H28 C13 1_555 1_555
C14 O4 1_555 1_555
H29 C14 1_555 1_555
H30 C14 1_555 1_555
H31 C14 1_555 1_555
C15 C4 1_555 1_555
C16 C15 1_555 1_555
H32 C16 1_555 1_555
C17 C16 1_555 1_555
C18 C17 1_555 1_555
C19 C18 1_555 1_555
H33 C19 1_555 1_555
C20 C15 1_555 1_555
H34 C20 1_555 1_555
C21 O5 1_555 1_555
H35 C21 1_555 1_555
H36 C21 1_555 1_555
H37 C21 1_555 1_555
C22 O6 1_555 1_555
H38 C22 1_555 1_555
C23 O7 1_555 1_555
H39 C23 1_555 1_555
C24 O8 1_555 1_555
H40 C24 1_555 1_555
C25 O9 1_555 1_555
H41 C25 1_555 1_555
C26 O10 1_555 1_555
H42 C26 1_555 1_555
C27 O11 1_555 1_555
H43 C27 1_555 1_555
H44 C27 1_555 1_555
C28 H45 1_555 1_555
C29 C28 1_555 1_555
H46 C29 1_555 1_555
C30 C29 1_555 1_555
H47 C30 1_555 1_555
H48 C30 1_555 1_555
C31 O13 1_555 1_555
H49 C31 1_555 1_555
C32 C29 1_555 1_555
H50 C32 1_555 1_555
C33 O12 1_555 1_555
H51 C33 1_555 1_555
H52 C33 1_555 1_555
C34 C28 1_555 1_555
C35 C34 1_555 1_555
H53 C35 1_555 1_555
C36 C35 1_555 1_555
C37 C36 1_555 1_555
C38 C37 1_555 1_555
H54 C38 1_555 1_555
C39 C34 1_555 1_555
H55 C39 1_555 1_555
C40 O14 1_555 1_555
H56 C40 1_555 1_555
H57 C40 1_555 1_555
H58 C40 1_555 1_555
C41 O15 1_555 1_555
H59 C41 1_555 1_555
H60 C41 1_555 1_555
H61 C41 1_555 1_555
C42 C31 1_555 1_555
C43 C42 1_555 1_555
H62 C43 1_555 1_555
C44 C43 1_555 1_555
C45 C44 1_555 1_555
C46 C45 1_555 1_555
H63 C46 1_555 1_555
C47 C42 1_555 1_555
H64 C47 1_555 1_555
C48 O16 1_555 1_555
H65 C48 1_555 1_555
H66 C48 1_555 1_555
H67 C48 1_555 1_555
C49 O17 1_555 1_555
H68 C49 1_555 1_555
C50 O18 1_555 1_555
H69 C50 1_555 1_555
C51 O19 1_555 1_555
H70 C51 1_555 1_555
C52 O20 1_555 1_555
H71 C52 1_555 1_555
C53 O21 1_555 1_555
H72 C53 1_555 1_555
C54 O22 1_555 1_555
H73 C54 1_555 1_555
H74 C54 1_555 1_555
C4 C5 1_555 1_555
C5 C6 1_555 1_555
C11 C12 1_555 1_555
C19 C20 1_555 1_555
C22 C23 1_555 1_555
C23 C24 1_555 1_555
C24 C25 1_555 1_555
C25 C26 1_555 1_555
C26 C27 1_555 1_555
C31 C32 1_555 1_555
C32 C33 1_555 1_555
C38 C39 1_555 1_555
C46 C47 1_555 1_555
C49 C50 1_555 1_555
C50 C51 1_555 1_555
C51 C52 1_555 1_555
C52 C53 1_555 1_555
C53 C54 1_555 1_555

#END
