
#######################################################################
#
#                 Cambridge Crystallographic Data Centre
#                                CCDC 
#
#######################################################################
#
# If this CIF has been generated from an entry in the Cambridge 
# Structural Database, then it will include bibliographic, chemical, 
# crystal, experimental, refinement or atomic coordinate data resulting 
# from the CCDC's data processing and validation procedures.
#
#######################################################################

data_YESDIK
_chemical_formula_moiety         'C9 H11 N1 O2'
_chemical_name_systematic        N-Formyl-4-methoxy-2-methylaniline
_symmetry_cell_setting           monoclinic
_symmetry_space_group_name_H-M   'P 21/c'
_symmetry_Int_Tables_number      14
_space_group_name_Hall           '-P 2ybc'
loop_
_symmetry_equiv_pos_site_id
_symmetry_equiv_pos_as_xyz
1 x,y,z
2 -x,1/2+y,1/2-z
3 -x,-y,-z
4 x,1/2-y,1/2+z
_cell_length_a                   14.694(3)
_cell_length_b                   8.9004(14)
_cell_length_c                   7.1127(12)
_cell_angle_alpha                90
_cell_angle_beta                 100.645(8)
_cell_angle_gamma                90
_cell_volume                     914.208
_exptl_crystal_colour            colorless
_exptl_crystal_description       block
_chemical_melting_point          '377 K'
_cell_formula_units_Z            4
_exptl_crystal_recrystallization_method water/ethanol
loop_
_atom_site_label
_atom_site_type_symbol
_atom_site_fract_x
_atom_site_fract_y
_atom_site_fract_z
O1 O 0.05171(8) 0.43052(14) 0.28037(17)
O2 O 0.48533(9) 0.24428(14) 0.63253(18)
N1 N 0.42352(9) 0.47884(17) 0.6802(2)
C1 C 0.14526(11) 0.43739(18) 0.3687(2)
C2 C 0.16444(11) 0.52199(17) 0.5397(2)
H1 H 0.1160 0.5695 0.5836
C3 C 0.25530(11) 0.53618(17) 0.6457(2)
C4 C 0.32943(10) 0.46350(16) 0.5755(2)
C5 C 0.31031(11) 0.38001(18) 0.4043(2)
H2 H 0.3586 0.3337 0.3586
C6 C 0.21842(12) 0.36546(19) 0.3004(2)
H3 H 0.2065 0.3091 0.1885
C7 C 0.02781(14) 0.3304(2) 0.1186(3)
H4 H 0.0585 0.3626 0.0176
H5 H -0.0380 0.3321 0.0742
H6 H 0.0470 0.2301 0.1566
C8 C 0.27293(14) 0.6251(3) 0.8345(3)
H7 H 0.2151 0.6616 0.8610
H8 H 0.3130 0.7085 0.8234
H9 H 0.3016 0.5608 0.9367
C9 C 0.49150(11) 0.3730(2) 0.7007(2)
H10 H 0.5485 0.3999 0.7733
H11 H 0.4384(14) 0.563(2) 0.741(3)
loop_
_geom_bond_atom_site_label_1
_geom_bond_atom_site_label_2
_geom_bond_site_symmetry_1
_geom_bond_site_symmetry_2
O1 C1 1_555 1_555
O2 C9 1_555 1_555
N1 C4 1_555 1_555
C1 C2 1_555 1_555
C2 H1 1_555 1_555
C3 C2 1_555 1_555
C4 C3 1_555 1_555
C5 C4 1_555 1_555
H2 C5 1_555 1_555
C6 C1 1_555 1_555
H3 C6 1_555 1_555
C7 O1 1_555 1_555
H4 C7 1_555 1_555
H5 C7 1_555 1_555
H6 C7 1_555 1_555
C8 C3 1_555 1_555
H7 C8 1_555 1_555
H8 C8 1_555 1_555
H9 C8 1_555 1_555
C9 N1 1_555 1_555
H10 C9 1_555 1_555
H11 N1 1_555 1_555
C5 C6 1_555 1_555

#END
