
#######################################################################
#
#                 Cambridge Crystallographic Data Centre
#                                CCDC 
#
#######################################################################
#
# If this CIF has been generated from an entry in the Cambridge 
# Structural Database, then it will include bibliographic, chemical, 
# crystal, experimental, refinement or atomic coordinate data resulting 
# from the CCDC's data processing and validation procedures.
#
#######################################################################

data_YESGIN
_chemical_name_common            
'Ethyl (E)-(1-(2-hydroxyethyl)-2-imidazolidinylidene)cyanoacetate'
_chemical_formula_moiety         'C10 H15 N3 O3'
_chemical_name_systematic        
'Ethyl 2-cyano-2-((E)-1-(2-hydroxyethyl)imidazolidin-2-ylidene)acetate'
_symmetry_cell_setting           monoclinic
_symmetry_space_group_name_H-M   'P 21/n'
_symmetry_Int_Tables_number      14
_space_group_name_Hall           '-P 2yn'
loop_
_symmetry_equiv_pos_site_id
_symmetry_equiv_pos_as_xyz
1 x,y,z
2 1/2-x,1/2+y,1/2-z
3 -x,-y,-z
4 1/2+x,1/2-y,1/2+z
_cell_length_a                   5.2273(10)
_cell_length_b                   14.201(3)
_cell_length_c                   15.165(3)
_cell_angle_alpha                90
_cell_angle_beta                 91.80(3)
_cell_angle_gamma                90
_cell_volume                     1125.19
_exptl_crystal_colour            colorless
_exptl_crystal_description       slab
_chemical_melting_point          '376 K'
_cell_formula_units_Z            4
_exptl_crystal_recrystallization_method ethanol
loop_
_atom_site_label
_atom_site_type_symbol
_atom_site_fract_x
_atom_site_fract_y
_atom_site_fract_z
O1 O -0.1495(2) 1.01468(9) 0.69399(8)
H1 H -0.0636 1.0358 0.6542
O2 O -0.0256(2) 0.61014(7) 0.60937(7)
O3 O 0.1473(2) 0.68323(7) 0.49424(7)
N1 N -0.0507(3) 0.89109(9) 0.45690(9)
N2 N -0.3688(3) 0.70946(9) 0.69840(8)
H2 H -0.2822 0.6580 0.7015
N3 N -0.4780(2) 0.85061(8) 0.65645(7)
C1 C -0.0984(3) 0.83675(9) 0.50963(8)
C2 C -0.1489(2) 0.76652(8) 0.57201(8)
C3 C -0.3280(2) 0.77724(9) 0.63956(8)
C4 C -0.5745(3) 0.73207(12) 0.75635(10)
H3 H -0.5204 0.7254 0.8178
H4 H -0.7225 0.6923 0.7445
C5 C -0.6316(3) 0.83328(12) 0.73376(10)
H5 H -0.8124 0.8422 0.7199
H6 H -0.5809 0.8747 0.7821
C6 C -0.5016(3) 0.94121(10) 0.61285(9)
H7 H -0.6795 0.9515 0.5955
H8 H -0.4032 0.9401 0.5597
C7 C -0.4107(3) 1.02157(11) 0.66992(11)
H9 H -0.4405 1.0802 0.6385
H10 H -0.5100 1.0231 0.7229
C8 C -0.0097(3) 0.67965(9) 0.56289(9)
C9 C 0.3059(3) 0.60200(11) 0.48052(11)
H11 H 0.2005 0.5468 0.4695
H12 H 0.4151 0.5904 0.5323
C10 C 0.4646(3) 0.62239(13) 0.40237(11)
H13 H 0.5719 0.5692 0.3909
H14 H 0.5694 0.6767 0.4143
H15 H 0.3544 0.6343 0.3518
loop_
_geom_bond_atom_site_label_1
_geom_bond_atom_site_label_2
_geom_bond_site_symmetry_1
_geom_bond_site_symmetry_2
O1 H1 1_555 1_555
O2 C8 1_555 1_555
O3 C8 1_555 1_555
N1 C1 1_555 1_555
N2 H2 1_555 1_555
N3 C3 1_555 1_555
C1 C2 1_555 1_555
C2 C3 1_555 1_555
C3 N2 1_555 1_555
C4 N2 1_555 1_555
H3 C4 1_555 1_555
H4 C4 1_555 1_555
C5 N3 1_555 1_555
H5 C5 1_555 1_555
H6 C5 1_555 1_555
C6 N3 1_555 1_555
H7 C6 1_555 1_555
H8 C6 1_555 1_555
C7 O1 1_555 1_555
H9 C7 1_555 1_555
H10 C7 1_555 1_555
C8 C2 1_555 1_555
C9 O3 1_555 1_555
H11 C9 1_555 1_555
H12 C9 1_555 1_555
C10 C9 1_555 1_555
H13 C10 1_555 1_555
H14 C10 1_555 1_555
H15 C10 1_555 1_555
C4 C5 1_555 1_555
C6 C7 1_555 1_555

#END
