
#######################################################################
#
#                 Cambridge Crystallographic Data Centre
#                                CCDC 
#
#######################################################################
#
# If this CIF has been generated from an entry in the Cambridge 
# Structural Database, then it will include bibliographic, chemical, 
# crystal, experimental, refinement or atomic coordinate data resulting 
# from the CCDC's data processing and validation procedures.
#
#######################################################################

data_YESHUA
_chemical_formula_moiety         'C22 H19 Cl4 N1 O11'
_chemical_name_systematic        
1,3,4,6-Tetra-O-acetyl-2-deoxy-2-tetrachlorophthalimido-\a-D-glucopyranoside
_symmetry_cell_setting           orthorhombic
_symmetry_space_group_name_H-M   'P 21 21 21'
_symmetry_Int_Tables_number      19
_space_group_name_Hall           'P 2ac 2ab'
loop_
_symmetry_equiv_pos_site_id
_symmetry_equiv_pos_as_xyz
1 x,y,z
2 1/2+x,1/2-y,-z
3 -x,1/2+y,1/2-z
4 1/2-x,-y,1/2+z
_cell_length_a                   5.5347(13)
_cell_length_b                   18.7090(17)
_cell_length_c                   25.559(2)
_cell_angle_alpha                90
_cell_angle_beta                 90
_cell_angle_gamma                90
_cell_volume                     2646.6
_exptl_crystal_colour            colorless
_exptl_crystal_description       Prism
_chemical_melting_point          467K
_cell_formula_units_Z            4
_exptl_crystal_recrystallization_method ethanol
loop_
_atom_site_label
_atom_site_type_symbol
_atom_site_fract_x
_atom_site_fract_y
_atom_site_fract_z
Cl1 Cl 0.0999(2) 0.25960(6) 0.26558(4)
Cl2 Cl 0.2216(2) 0.28690(6) 0.14682(4)
Cl3 Cl 0.6488(2) 0.20728(6) 0.09421(4)
Cl4 Cl 0.9602(2) 0.09856(6) 0.15824(4)
O1 O 0.6193(5) 0.16352(13) 0.43770(10)
O2 O 0.7329(6) 0.25975(16) 0.39067(14)
O3 O 0.3013(5) 0.15479(15) 0.35018(11)
O4 O 0.9773(5) 0.05538(15) 0.27726(11)
O5 O 0.5260(5) -0.03406(13) 0.35507(10)
O6 O 0.1435(6) -0.05813(15) 0.37933(11)
O7 O 0.4809(5) -0.06025(14) 0.47074(11)
O8 O 0.7232(6) -0.15695(14) 0.47500(11)
O9 O 0.9213(7) 0.04926(15) 0.57087(12)
O10 O 1.1163(7) -0.0364(2) 0.61413(13)
O11 O 0.9218(5) 0.08564(14) 0.46071(10)
N1 N 0.6675(6) 0.10302(17) 0.32719(12)
C1 C 0.8212(8) 0.1228(2) 0.41837(15)
H1 H 0.9447 0.1561 0.4035
C2 C 0.7440(8) 0.06957(19) 0.37625(14)
H2 H 0.8913 0.0409 0.3676
C3 C 0.5594(8) 0.0166(2) 0.39729(15)
H3 H 0.4042 0.0410 0.4063
C4 C 0.6689(8) -0.0199(2) 0.44505(15)
H4 H 0.8043 -0.0522 0.4344
C5 C 0.7575(9) 0.0355(2) 0.48487(14)
H5 H 0.6167 0.0616 0.5003
C6 C 0.9002(9) -0.0006(2) 0.52757(16)
H6 H 0.8166 -0.0447 0.5391
H7 H 1.0626 -0.0139 0.5145
C7 C 0.5968(9) 0.2323(2) 0.42147(17)
C8 C 0.3796(9) 0.2658(2) 0.44545(18)
H8 H 0.4237 0.3123 0.4604
H9 H 0.3168 0.2347 0.4731
H10 H 0.2553 0.2726 0.4186
C9 C 0.4579(9) 0.1434(2) 0.31868(16)
C10 C 0.4734(8) 0.1661(2) 0.26232(15)
C11 C 0.3306(8) 0.2143(2) 0.23529(16)
C12 C 0.3884(8) 0.2271(2) 0.18257(16)
C13 C 0.5812(8) 0.1909(2) 0.15856(16)
C14 C 0.7239(8) 0.1428(2) 0.18696(16)
C15 C 0.6681(8) 0.1325(2) 0.23965(16)
C16 C 0.7999(8) 0.0913(2) 0.28044(15)
C17 C 0.3083(8) -0.0649(2) 0.34911(16)
C18 C 0.2952(9) -0.1062(2) 0.29893(17)
H11 H 0.2317 -0.1542 0.3059
H12 H 0.4572 -0.1101 0.2837
H13 H 0.1882 -0.0815 0.2743
C19 C 0.5306(9) -0.1297(2) 0.48354(15)
C20 C 0.3194(8) -0.1621(2) 0.51029(16)
H14 H 0.3530 -0.2126 0.5176
H15 H 0.1769 -0.1584 0.4877
H16 H 0.2889 -0.1368 0.5432
C21 C 1.0344(12) 0.0227(3) 0.61315(18)
C22 C 1.006(5) 0.0757(6) 0.6585(4)
H17 H 0.8365 0.0776 0.6693
H18 H 1.0588 0.1233 0.6472
H19 H 1.1058 0.0600 0.6881
C23? C 1.116(8) 0.0776(12) 0.6527(11)
H20? H 1.2196 0.0547 0.6789
H21? H 0.9745 0.0984 0.6701
H22? H 1.2068 0.1155 0.6349
loop_
_geom_bond_atom_site_label_1
_geom_bond_atom_site_label_2
_geom_bond_site_symmetry_1
_geom_bond_site_symmetry_2
Cl1 C11 1_555 1_555
Cl2 C12 1_555 1_555
Cl3 C13 1_555 1_555
Cl4 C14 1_555 1_555
O1 C1 1_555 1_555
O2 C7 1_555 1_555
O3 C9 1_555 1_555
O4 C16 1_555 1_555
O5 C3 1_555 1_555
O6 C17 1_555 1_555
O7 C4 1_555 1_555
O8 C19 1_555 1_555
O9 C6 1_555 1_555
O10 C21 1_555 1_555
O11 C1 1_555 1_555
N1 C2 1_555 1_555
C1 H1 1_555 1_555
C2 C1 1_555 1_555
H2 C2 1_555 1_555
C3 C2 1_555 1_555
H3 C3 1_555 1_555
C4 C3 1_555 1_555
H4 C4 1_555 1_555
C5 O11 1_555 1_555
H5 C5 1_555 1_555
C6 C5 1_555 1_555
H6 C6 1_555 1_555
H7 C6 1_555 1_555
C7 O1 1_555 1_555
C8 C7 1_555 1_555
H8 C8 1_555 1_555
H9 C8 1_555 1_555
H10 C8 1_555 1_555
C9 N1 1_555 1_555
C10 C9 1_555 1_555
C11 C10 1_555 1_555
C12 C11 1_555 1_555
C13 C12 1_555 1_555
C14 C13 1_555 1_555
C15 C10 1_555 1_555
C16 N1 1_555 1_555
C17 O5 1_555 1_555
C18 C17 1_555 1_555
H11 C18 1_555 1_555
H12 C18 1_555 1_555
H13 C18 1_555 1_555
C19 O7 1_555 1_555
C20 C19 1_555 1_555
H14 C20 1_555 1_555
H15 C20 1_555 1_555
H16 C20 1_555 1_555
C21 O9 1_555 1_555
C22 C21 1_555 1_555
H17 C22 1_555 1_555
H18 C22 1_555 1_555
H19 C22 1_555 1_555
C4 C5 1_555 1_555
C14 C15 1_555 1_555
C15 C16 1_555 1_555

#END
