
#######################################################################
#
#                 Cambridge Crystallographic Data Centre
#                                CCDC 
#
#######################################################################
#
# If this CIF has been generated from an entry in the Cambridge 
# Structural Database, then it will include bibliographic, chemical, 
# crystal, experimental, refinement or atomic coordinate data resulting 
# from the CCDC's data processing and validation procedures.
#
#######################################################################

data_YESMUH
_chemical_formula_moiety         'C16 H12 N6 O2'
_chemical_name_systematic        
3,3'-[ethane-1,2-diylbis(1,2,4-oxadiazole-5,3-diyl)]dipyridine
_symmetry_cell_setting           monoclinic
_symmetry_space_group_name_H-M   'P 21/c'
_symmetry_Int_Tables_number      14
_space_group_name_Hall           '-P 2ybc'
loop_
_symmetry_equiv_pos_site_id
_symmetry_equiv_pos_as_xyz
1 x,y,z
2 -x,1/2+y,1/2-z
3 -x,-y,-z
4 x,1/2-y,1/2+z
_cell_length_a                   4.791(5)
_cell_length_b                   28.156(5)
_cell_length_c                   5.747(5)
_cell_angle_alpha                90
_cell_angle_beta                 109.941(5)
_cell_angle_gamma                90
_cell_volume                     728.764
_exptl_crystal_colour            colorless
_exptl_crystal_description       block
_cell_formula_units_Z            2
loop_
_atom_site_label
_atom_site_type_symbol
_atom_site_fract_x
_atom_site_fract_y
_atom_site_fract_z
C1 C 0.6328(4) 0.00856(6) 0.6068(3)
H1 H 0.729441 -0.018384 0.707226
H2 H 0.774324 0.023395 0.542616
C2 C 0.5429(4) 0.04303(6) 0.7622(3)
C3 C 0.3589(4) 0.09646(6) 0.9171(3)
C4 C 0.1596(4) 0.13453(6) 0.9348(3)
C5 C 0.1986(4) 0.15872(7) 1.1536(4)
H3 H 0.352728 0.150724 1.297690
C6 C 0.0056(5) 0.19465(7) 1.1536(4)
H4 H 0.028922 0.211711 1.297540
C7 C -0.2214(5) 0.20515(7) 0.9400(4)
H5 H -0.351553 0.229392 0.943878
C8 C -0.0752(4) 0.14794(6) 0.7284(3)
H6 H -0.102227 0.131856 0.580920
N1 N 0.3221(3) 0.07196(5) 0.7006(3)
N2 N 0.5881(3) 0.08333(5) 1.1033(3)
N3 N -0.2663(4) 0.18266(5) 0.7273(3)
O1 O 0.7156(3) 0.04690(4) 1.0016(2)
C1B C 0.3672(4) -0.00856(6) 0.3932(3)
H1B H 0.270559 0.018384 0.292774
H2B H 0.225676 -0.023395 0.457384
C2B C 0.4571(4) -0.04303(6) 0.2378(3)
C3B C 0.6411(4) -0.09646(6) 0.0829(3)
C4B C 0.8404(4) -0.13453(6) 0.0652(3)
C5B C 0.8014(4) -0.15872(7) -0.1536(4)
H3B H 0.647272 -0.150724 -0.297690
C6B C 0.9944(5) -0.19465(7) -0.1536(4)
H4B H 0.971078 -0.211711 -0.297540
C7B C 1.2214(5) -0.20515(7) 0.0600(4)
H5B H 1.351553 -0.229392 0.056122
C8B C 1.0752(4) -0.14794(6) 0.2716(3)
H6B H 1.102227 -0.131856 0.419080
N1B N 0.6779(3) -0.07196(5) 0.2994(3)
N2B N 0.4119(3) -0.08333(5) -0.1033(3)
N3B N 1.2663(4) -0.18266(5) 0.2727(3)
O1B O 0.2844(3) -0.04690(4) -0.0016(2)
loop_
_geom_bond_atom_site_label_1
_geom_bond_atom_site_label_2
_geom_bond_site_symmetry_1
_geom_bond_site_symmetry_2
C1 H1 1_555 1_555
H2 C1 1_555 1_555
C2 C1 1_555 1_555
C3 C4 1_555 1_555
C4 C5 1_555 1_555
C5 H3 1_555 1_555
C6 C5 1_555 1_555
H4 C6 1_555 1_555
C7 C6 1_555 1_555
H5 C7 1_555 1_555
C8 C4 1_555 1_555
H6 C8 1_555 1_555
N1 C2 1_555 1_555
N2 C3 1_555 1_555
N3 C7 1_555 1_555
O1 C2 1_555 1_555
C1B C1 1_555 1_555
H1B C1B 1_555 1_555
H2B C1B 1_555 1_555
C2B C1B 1_555 1_555
C3B C4B 1_555 1_555
C4B C5B 1_555 1_555
C5B H3B 1_555 1_555
C6B C5B 1_555 1_555
H4B C6B 1_555 1_555
C7B C6B 1_555 1_555
H5B C7B 1_555 1_555
C8B C4B 1_555 1_555
H6B C8B 1_555 1_555
N1B C2B 1_555 1_555
N2B C3B 1_555 1_555
N3B C7B 1_555 1_555
O1B C2B 1_555 1_555
C3 N1 1_555 1_555
C8 N3 1_555 1_555
N2 O1 1_555 1_555
C3B N1B 1_555 1_555
C8B N3B 1_555 1_555
N2B O1B 1_555 1_555

#END
