
#######################################################################
#
#                 Cambridge Crystallographic Data Centre
#                                CCDC 
#
#######################################################################
#
# If this CIF has been generated from an entry in the Cambridge 
# Structural Database, then it will include bibliographic, chemical, 
# crystal, experimental, refinement or atomic coordinate data resulting 
# from the CCDC's data processing and validation procedures.
#
#######################################################################

data_YESRIY
_chemical_formula_moiety         'C32 H24 Cl2 N10 O2,0.5(C3 H7 N1 O1)'
_chemical_name_systematic        
'5,17-Dichloro-2,20-bis(p-methoxyphenyl)-2,4,6,8,14,16,18,20,26,28-decaazapentacyclo(19.3.1.1^3,7^.1^9,13^.1^15,19^)octacosa-1(25),3(28),4,6,9(27),10,12,15(26),16,18,21,23-dodecaene dimethylformamide solvate'
_symmetry_cell_setting           triclinic
_symmetry_space_group_name_H-M   'P -1'
_symmetry_Int_Tables_number      2
_space_group_name_Hall           '-P 1'
loop_
_symmetry_equiv_pos_site_id
_symmetry_equiv_pos_as_xyz
1 x,y,z
2 -x,-y,-z
_cell_length_a                   13.477(3)
_cell_length_b                   15.305(3)
_cell_length_c                   16.878(3)
_cell_angle_alpha                76.66(3)
_cell_angle_beta                 89.07(3)
_cell_angle_gamma                88.22(3)
_cell_volume                     3385.63
_exptl_crystal_colour            colorless
_chemical_melting_point          'above 300 deg.C'
_cell_formula_units_Z            4
_exptl_crystal_recrystallization_method methanol/dimethylformamide
loop_
_atom_site_label
_atom_site_type_symbol
_atom_site_fract_x
_atom_site_fract_y
_atom_site_fract_z
Cl1 Cl 0.92083(16) 0.72879(16) 0.18054(11)
Cl2 Cl 0.93599(16) 0.73262(16) -0.56863(12)
O1 O 1.4292(4) 0.8891(5) 0.0392(5)
O2 O 1.4327(4) 0.8908(5) -0.4958(5)
N1 N 0.8818(4) 0.8507(4) -0.0796(3)
N2 N 0.8178(5) 0.7722(5) 0.0491(4)
N3 N 0.9867(4) 0.8143(4) 0.0390(3)
N4 N 1.0440(4) 0.8977(4) -0.0839(3)
N5 N 1.0469(4) 0.9002(4) -0.3734(4)
N6 N 0.8854(4) 0.8483(4) -0.3563(3)
N7 N 0.9948(4) 0.8168(4) -0.4617(4)
N8 N 0.8265(4) 0.7708(5) -0.4541(3)
N9 N 0.7246(5) 0.7950(5) -0.3524(4)
H1 H 0.6844 0.7686 -0.3777
N10 N 0.7194(4) 0.8001(5) -0.0623(3)
H2 H 0.6771 0.7758 -0.0257
C1 C 0.8091(5) 0.8088(5) -0.0326(4)
C2 C 0.9079(5) 0.7769(5) 0.0774(4)
C3 C 0.9666(5) 0.8523(5) -0.0404(4)
C4 C 1.0406(5) 0.8992(5) -0.2284(4)
H5 H 1.0545 0.8377 -0.2164
C5 C 1.0298(5) 0.9445(5) -0.1663(4)
C6 C 1.0089(5) 1.0360(5) -0.1844(4)
H6 H 1.0013 1.0664 -0.1429
C7 C 0.9995(6) 1.0818(6) -0.2650(5)
H7 H 0.9863 1.1435 -0.2774
C8 C 1.0094(6) 1.0375(5) -0.3270(5)
H8 H 1.0018 1.0688 -0.3809
C9 C 1.0305(5) 0.9468(5) -0.3090(4)
C10 C 0.9740(5) 0.8528(5) -0.3981(4)
C11 C 0.9164(5) 0.7787(5) -0.4849(4)
C12 C 0.8161(5) 0.8057(5) -0.3866(4)
C13 C 0.7339(5) 0.8123(5) -0.2106(4)
H9 H 0.8021 0.8009 -0.2079
C14 C 0.6829(5) 0.8190(6) -0.2832(5)
C15 C 0.5817(6) 0.8399(7) -0.2876(6)
H10 H 0.5483 0.8442 -0.3362
C16 C 0.5314(6) 0.8543(7) -0.2210(5)
H11 H 0.4643 0.8709 -0.2250
C17 C 0.5789(6) 0.8445(6) -0.1479(5)
H12 H 0.5435 0.8521 -0.1021
C18 C 0.6800(5) 0.8232(5) -0.1427(4)
C19 C 1.1432(5) 0.8969(5) -0.0500(4)
C20 C 1.1636(5) 0.9528(6) -0.0012(5)
H13 H 1.1141 0.9915 0.0111
C21 C 1.2599(6) 0.9526(6) 0.0311(5)
H14 H 1.2742 0.9904 0.0650
C22 C 1.3320(6) 0.8953(6) 0.0112(5)
C23 C 1.3113(6) 0.8396(7) -0.0402(6)
H15 H 1.3608 0.8024 -0.0548
C24 C 1.2158(6) 0.8400(6) -0.0694(5)
H16 H 1.2006 0.8014 -0.1025
C25 C 1.4527(8) 0.9379(8) 0.0976(8)
H17 H 1.5214 0.9274 0.1119
H18 H 1.4121 0.9186 0.1453
H19 H 1.4405 1.0009 0.0753
C26 C 1.1457(5) 0.9008(5) -0.4080(4)
C27 C 1.2182(6) 0.8447(6) -0.3634(5)
H20 H 1.2029 0.8088 -0.3126
C28 C 1.3138(7) 0.8428(7) -0.3954(6)
H21 H 1.3622 0.8043 -0.3664
C29 C 1.3370(6) 0.8974(6) -0.4690(6)
C30 C 1.2655(6) 0.9554(6) -0.5122(6)
H22 H 1.2813 0.9939 -0.5617
C31 C 1.1686(5) 0.9553(6) -0.4800(5)
H23 H 1.1199 0.9933 -0.5089
C32 C 1.4572(8) 0.9395(9) -0.5757(9)
H24 H 1.5260 0.9286 -0.5869
H25 H 1.4453 1.0025 -0.5797
H26 H 1.4168 0.9201 -0.6144
Cl3 Cl 0.5255(2) 0.61641(19) -1.05423(14)
Cl4 Cl 0.5240(2) 0.6101(2) -0.28261(14)
O3 O 0.0212(6) 0.4414(6) -0.9027(6)
O4 O 0.0409(5) 0.4225(5) -0.3445(4)
N11 N 0.4789(4) 0.7025(5) -0.8259(4)
N12 N 0.5793(5) 0.6955(5) -0.9433(4)
N13 N 0.4207(4) 0.6283(5) -0.9268(4)
N14 N 0.3213(4) 0.6467(5) -0.8195(4)
N15 N 0.3276(4) 0.6413(5) -0.5282(4)
N16 N 0.4856(4) 0.6969(5) -0.5474(4)
N17 N 0.4237(5) 0.6225(5) -0.4142(4)
N18 N 0.5844(5) 0.6872(5) -0.4273(4)
N19 N 0.6451(5) 0.7529(5) -0.5524(4)
H3 H 0.6972 0.7537 -0.5238
N20 N 0.6387(5) 0.7618(5) -0.8467(4)
H4 H 0.6891 0.7672 -0.8791
C33 C 0.5617(5) 0.7181(5) -0.8703(4)
C34 C 0.5053(6) 0.6504(6) -0.9639(5)
C35 C 0.4108(5) 0.6593(5) -0.8584(4)
C36 C 0.3209(5) 0.6442(6) -0.6737(4)
H27 H 0.3457 0.5853 -0.6630
C37 C 0.2998(5) 0.6908(6) -0.7539(4)
C38 C 0.2600(6) 0.7766(6) -0.7695(5)
H28 H 0.2453 0.8071 -0.8226
C39 C 0.2423(7) 0.8166(6) -0.7058(5)
H29 H 0.2147 0.8745 -0.7164
C40 C 0.2638(6) 0.7741(6) -0.6271(5)
H30 H 0.2514 0.8027 -0.5848
C41 C 0.3045(5) 0.6871(6) -0.6115(4)
C42 C 0.4157(5) 0.6552(5) -0.4963(4)
C43 C 0.5117(6) 0.6426(6) -0.3883(5)
C44 C 0.5687(5) 0.7109(5) -0.5105(4)
C45 C 0.6252(5) 0.7579(5) -0.6993(4)
H31 H 0.5891 0.7056 -0.6883
C46 C 0.6554(5) 0.7966(6) -0.6361(4)
C47 C 0.7064(5) 0.8762(6) -0.6530(5)
H32 H 0.7263 0.9009 -0.6105
C48 C 0.7280(6) 0.9192(6) -0.7329(5)
H33 H 0.7609 0.9733 -0.7442
C49 C 0.7007(6) 0.8816(6) -0.7949(5)
H34 H 0.7151 0.9103 -0.8485
C50 C 0.6509(5) 0.8000(6) -0.7783(5)
C51 C 0.2454(5) 0.5922(6) -0.8426(5)
C52 C 0.1603(7) 0.6326(7) -0.8826(6)
H35 H 0.1526 0.6948 -0.8979
C53 C 0.0881(7) 0.5777(8) -0.8987(8)
H36 H 0.0298 0.6042 -0.9231
C54 C 0.0977(7) 0.4873(8) -0.8810(7)
C55 C 0.1819(9) 0.4480(7) -0.8453(8)
H37 H 0.1910 0.3858 -0.8340
C56 C 0.2561(8) 0.5027(7) -0.8254(8)
H38 H 0.3136 0.4757 -0.7998
C57 C 0.0277(12) 0.3505(9) -0.8872(12)
H39 H -0.0303 0.3282 -0.9073
H40 H 0.0324 0.3266 -0.8295
H41 H 0.0857 0.3323 -0.9137
C58 C 0.2515(6) 0.5871(6) -0.4806(4)
C59 C 0.1606(7) 0.6242(7) -0.4646(6)
H42 H 0.1484 0.6855 -0.4838
C60 C 0.0879(7) 0.5720(8) -0.4206(6)
H43 H 0.0263 0.5974 -0.4119
C61 C 0.1074(6) 0.4808(7) -0.3894(5)
C62 C 0.1995(7) 0.4433(6) -0.4045(6)
H44 H 0.2132 0.3824 -0.3843
C63 C 0.2693(7) 0.4969(6) -0.4491(6)
H45 H 0.3307 0.4716 -0.4586
C64 C -0.0588(8) 0.4567(10) -0.3382(8)
H46 H -0.0980 0.4107 -0.3049
H47 H -0.0871 0.4745 -0.3916
H48 H -0.0579 0.5076 -0.3141
O5 O -0.2097(16) 0.3019(8) -0.8107(7)
N21 N -0.2493(9) 0.4461(7) -0.8347(9)
C65 C -0.275(3) 0.5159(17) -0.7933(17)
H49 H -0.2688 0.4930 -0.7357
H50 H -0.3429 0.5359 -0.8055
H51 H -0.2321 0.5654 -0.8112
C66 C -0.2512(15) 0.467(2) -0.9166(12)
H52 H -0.2282 0.4161 -0.9366
H53 H -0.2089 0.5167 -0.9370
H54 H -0.3180 0.4832 -0.9345
C67 C -0.234(2) 0.3693(16) -0.7822(14)
H55 H -0.2400 0.3645 -0.7264
loop_
_geom_bond_atom_site_label_1
_geom_bond_atom_site_label_2
_geom_bond_site_symmetry_1
_geom_bond_site_symmetry_2
Cl1 C2 1_555 1_555
Cl2 C11 1_555 1_555
Cl3 C34 1_555 1_555
Cl4 C43 1_555 1_555
O1 C22 1_555 1_555
O2 C29 1_555 1_555
O3 C54 1_555 1_555
O4 C61 1_555 1_555
O5 C67 1_555 1_555
N1 C1 1_555 1_555
N2 C1 1_555 1_555
N3 C2 1_555 1_555
N4 C3 1_555 1_555
N5 C9 1_555 1_555
N6 C10 1_555 1_555
N7 C10 1_555 1_555
N8 C11 1_555 1_555
N9 H1 1_555 1_555
N10 H2 1_555 1_555
N11 C33 1_555 1_555
N12 C33 1_555 1_555
N13 C34 1_555 1_555
N14 C35 1_555 1_555
N15 C41 1_555 1_555
N16 C42 1_555 1_555
N17 C42 1_555 1_555
N18 C43 1_555 1_555
N19 H3 1_555 1_555
N20 H4 1_555 1_555
N21 C65 1_555 1_555
C1 N10 1_555 1_555
C2 N2 1_555 1_555
C3 N1 1_555 1_555
C4 H5 1_555 1_555
C5 N4 1_555 1_555
C6 C5 1_555 1_555
H6 C6 1_555 1_555
C7 C6 1_555 1_555
H7 C7 1_555 1_555
C8 C7 1_555 1_555
H8 C8 1_555 1_555
C9 C4 1_555 1_555
C10 N5 1_555 1_555
C11 N7 1_555 1_555
C12 N6 1_555 1_555
C13 H9 1_555 1_555
C14 N9 1_555 1_555
C15 C14 1_555 1_555
H10 C15 1_555 1_555
C16 C15 1_555 1_555
H11 C16 1_555 1_555
C17 C16 1_555 1_555
H12 C17 1_555 1_555
C18 N10 1_555 1_555
C19 N4 1_555 1_555
C20 C19 1_555 1_555
H13 C20 1_555 1_555
C21 C20 1_555 1_555
H14 C21 1_555 1_555
C22 C21 1_555 1_555
C23 C22 1_555 1_555
H15 C23 1_555 1_555
C24 C19 1_555 1_555
H16 C24 1_555 1_555
C25 O1 1_555 1_555
H17 C25 1_555 1_555
H18 C25 1_555 1_555
H19 C25 1_555 1_555
C26 N5 1_555 1_555
C27 C26 1_555 1_555
H20 C27 1_555 1_555
C28 C27 1_555 1_555
H21 C28 1_555 1_555
C29 C28 1_555 1_555
C30 C29 1_555 1_555
H22 C30 1_555 1_555
C31 C26 1_555 1_555
H23 C31 1_555 1_555
C32 O2 1_555 1_555
H24 C32 1_555 1_555
H25 C32 1_555 1_555
H26 C32 1_555 1_555
C33 N20 1_555 1_555
C34 N12 1_555 1_555
C35 N11 1_555 1_555
C36 H27 1_555 1_555
C37 N14 1_555 1_555
C38 C37 1_555 1_555
H28 C38 1_555 1_555
C39 C38 1_555 1_555
H29 C39 1_555 1_555
C40 C39 1_555 1_555
H30 C40 1_555 1_555
C41 C36 1_555 1_555
C42 N15 1_555 1_555
C43 N17 1_555 1_555
C44 N16 1_555 1_555
C45 H31 1_555 1_555
C46 N19 1_555 1_555
C47 C46 1_555 1_555
H32 C47 1_555 1_555
C48 C47 1_555 1_555
H33 C48 1_555 1_555
C49 C48 1_555 1_555
H34 C49 1_555 1_555
C50 N20 1_555 1_555
C51 N14 1_555 1_555
C52 C51 1_555 1_555
H35 C52 1_555 1_555
C53 C52 1_555 1_555
H36 C53 1_555 1_555
C54 C53 1_555 1_555
C55 C54 1_555 1_555
H37 C55 1_555 1_555
C56 C51 1_555 1_555
H38 C56 1_555 1_555
C57 O3 1_555 1_555
H39 C57 1_555 1_555
H40 C57 1_555 1_555
H41 C57 1_555 1_555
C58 N15 1_555 1_555
C59 C58 1_555 1_555
H42 C59 1_555 1_555
C60 C59 1_555 1_555
H43 C60 1_555 1_555
C61 C60 1_555 1_555
C62 C61 1_555 1_555
H44 C62 1_555 1_555
C63 C58 1_555 1_555
H45 C63 1_555 1_555
C64 O4 1_555 1_555
H46 C64 1_555 1_555
H47 C64 1_555 1_555
H48 C64 1_555 1_555
C65 H49 1_555 1_555
H50 C65 1_555 1_555
H51 C65 1_555 1_555
C66 N21 1_555 1_555
H52 C66 1_555 1_555
H53 C66 1_555 1_555
H54 C66 1_555 1_555
C67 N21 1_555 1_555
H55 C67 1_555 1_555
N3 C3 1_555 1_555
N8 C12 1_555 1_555
N9 C12 1_555 1_555
N13 C35 1_555 1_555
N18 C44 1_555 1_555
N19 C44 1_555 1_555
C4 C5 1_555 1_555
C8 C9 1_555 1_555
C13 C14 1_555 1_555
C13 C18 1_555 1_555
C17 C18 1_555 1_555
C23 C24 1_555 1_555
C30 C31 1_555 1_555
C36 C37 1_555 1_555
C40 C41 1_555 1_555
C45 C46 1_555 1_555
C45 C50 1_555 1_555
C49 C50 1_555 1_555
C55 C56 1_555 1_555
C62 C63 1_555 1_555

#END
