
#######################################################################
#
#                 Cambridge Crystallographic Data Centre
#                                CCDC 
#
#######################################################################
#
# If this CIF has been generated from an entry in the Cambridge 
# Structural Database, then it will include bibliographic, chemical, 
# crystal, experimental, refinement or atomic coordinate data resulting 
# from the CCDC's data processing and validation procedures.
#
#######################################################################

data_YESREU
_chemical_formula_moiety         'C46 H36 Cl2 N10 O2,0.38(C1 H2 Cl2)'
_chemical_name_systematic        
'8,14-Dibenzyl-5,17-dichloro-2,20-bis(p-methoxyphenyl)-2,4,6,8,14,16,18,20,26,28-decaazapentacyclo(19.3.1.1^3,7^.1^9,13^.1^15,19^)octacosa-1(25),3(28),4,6,9(27),10,12,15(26),16,18,21,23-dodecaene dichloromethane solvate'
_symmetry_cell_setting           triclinic
_symmetry_space_group_name_H-M   'P -1'
_symmetry_Int_Tables_number      2
_space_group_name_Hall           '-P 1'
loop_
_symmetry_equiv_pos_site_id
_symmetry_equiv_pos_as_xyz
1 x,y,z
2 -x,-y,-z
_cell_length_a                   16.654(3)
_cell_length_b                   17.694(4)
_cell_length_c                   17.910(4)
_cell_angle_alpha                77.62(3)
_cell_angle_beta                 64.10(3)
_cell_angle_gamma                89.91(3)
_cell_volume                     4611.62
_exptl_crystal_colour            colorless
_chemical_melting_point          '297-298 deg.C'
_cell_formula_units_Z            4
_exptl_crystal_recrystallization_method n-hexane/dichloromethane
loop_
_atom_site_label
_atom_site_type_symbol
_atom_site_fract_x
_atom_site_fract_y
_atom_site_fract_z
Cl1 Cl 0.00291(19) 0.21743(14) 0.99790(17)
Cl2 Cl -0.69897(17) -0.11448(18) 1.00002(18)
N1 N -0.1392(5) 0.0007(4) 1.0082(5)
N2 N -0.1161(5) 0.0915(5) 1.0802(5)
N3 N -0.0276(5) 0.1134(4) 0.9297(5)
N4 N -0.0556(5) 0.0260(5) 0.8623(5)
N5 N -0.3497(6) -0.0636(5) 0.8615(5)
N6 N -0.4238(5) -0.1036(4) 1.0068(5)
N7 N -0.5158(5) -0.0822(5) 0.9283(5)
N8 N -0.5936(5) -0.1311(5) 1.0795(5)
N9 N -0.4990(5) -0.1510(5) 1.1506(5)
N10 N -0.2263(5) -0.0193(5) 1.1528(5)
O1 O -0.3890(8) 0.0693(7) 1.4617(6)
O2 O -0.7814(6) -0.3398(6) 1.4489(5)
C1 C -0.1584(6) 0.0250(5) 1.0786(6)
C2 C -0.0530(6) 0.1301(5) 1.0032(6)
C3 C -0.0746(6) 0.0460(5) 0.9362(5)
C4 C -0.2027(6) -0.0215(6) 0.8632(6)
H1 H -0.2203 0.0284 0.8632
C5 C -0.1152(6) -0.0364(5) 0.8629(6)
C6 C -0.0869(7) -0.1095(6) 0.8608(6)
H2 H -0.0312 -0.1198 0.8585
C7 C -0.1454(8) -0.1684(6) 0.8621(8)
H3 H -0.1283 -0.2186 0.8633
C8 C -0.2313(8) -0.1533(6) 0.8617(6)
H4 H -0.2666 -0.1931 0.8603
C9 C -0.2607(6) -0.0799(5) 0.8633(5)
C10 C -0.4324(6) -0.0836(5) 0.9351(6)
C11 C -0.5890(6) -0.1076(5) 1.0032(7)
C12 C -0.5049(6) -0.1275(5) 1.0755(6)
C13 C -0.3632(6) -0.0873(5) 1.1547(5)
H5 H -0.3927 -0.0428 1.1619
C14 C -0.4050(6) -0.1528(5) 1.1484(6)
C15 C -0.3578(8) -0.2187(6) 1.1371(7)
H6 H -0.3834 -0.2624 1.1311
C16 C -0.2700(7) -0.2193(6) 1.1347(8)
H7 H -0.2412 -0.2642 1.1287
C17 C -0.2259(7) -0.1544(5) 1.1411(6)
H8 H -0.1694 -0.1555 1.1396
C18 C -0.2721(6) -0.0889(5) 1.1498(6)
C19 C 0.0215(6) 0.0648(6) 0.7816(6)
H9 H 0.0587 0.0264 0.7560
H10 H 0.0577 0.0998 0.7925
C20 C -0.0135(7) 0.1110(6) 0.7202(6)
C21 C 0.0169(12) 0.0995(12) 0.6411(9)
H11 H 0.0601 0.0658 0.6217
C22 C -0.0209(17) 0.1423(18) 0.5865(11)
H12 H -0.0013 0.1353 0.5315
C23 C -0.0833(14) 0.1915(16) 0.6140(11)
H13 H -0.1052 0.2178 0.5771
C24 C -0.1141(14) 0.2033(13) 0.6909(12)
H14 H -0.1566 0.2379 0.7090
C25 C -0.0802(12) 0.1616(9) 0.7447(10)
H15 H -0.1034 0.1679 0.8003
C26 C -0.3474(7) -0.0271(7) 0.7790(6)
H16 H -0.3003 0.0159 0.7498
H17 H -0.4040 -0.0063 0.7886
C27 C -0.3308(10) -0.0838(9) 0.7232(8)
C28 C -0.2403(12) -0.0885(15) 0.6635(10)
H18 H -0.1933 -0.0569 0.6595
C29 C -0.223(3) -0.140(3) 0.6121(19)
H19 H -0.1654 -0.1448 0.5732
C30 C -0.298(3) -0.186(2) 0.621(2)
H20 H -0.2879 -0.2202 0.5862
C31 C -0.388(3) -0.1821(17) 0.6797(18)
H21 H -0.4350 -0.2141 0.6839
C32 C -0.4045(15) -0.1300(14) 0.7301(12)
H22 H -0.4629 -0.1250 0.7682
C33 C -0.5750(6) -0.1996(6) 1.2254(6)
C34 C -0.6080(7) -0.2728(6) 1.2254(6)
H23 H -0.5832 -0.2901 1.1753
C35 C -0.6769(8) -0.3206(7) 1.2988(7)
H24 H -0.6978 -0.3683 1.2965
C36 C -0.7133(8) -0.2970(7) 1.3737(6)
C37 C -0.6806(8) -0.2246(8) 1.3750(7)
H25 H -0.7050 -0.2077 1.4254
C38 C -0.6119(8) -0.1773(7) 1.3016(7)
H26 H -0.5907 -0.1299 1.3044
C39 C -0.8203(13) -0.4137(10) 1.4507(11)
H27 H -0.8663 -0.4360 1.5073
H28 H -0.7745 -0.4482 1.4347
H29 H -0.8460 -0.4057 1.4113
C40 C -0.2655(6) 0.0040(6) 1.2322(5)
C41 C -0.2703(7) -0.0461(6) 1.3049(6)
H30 H -0.2462 -0.0935 1.3017
C42 C -0.3113(8) -0.0256(8) 1.3830(7)
H31 H -0.3136 -0.0591 1.4318
C43 C -0.3485(9) 0.0440(8) 1.3888(8)
C44 C -0.3438(9) 0.0934(8) 1.3171(8)
H32 H -0.3678 0.1407 1.3206
C45 C -0.3030(8) 0.0736(6) 1.2380(7)
H33 H -0.3011 0.1073 1.1895
C46 C -0.4032(13) 0.0185(13) 1.5378(10)
H34 H -0.4322 0.0435 1.5841
H35 H -0.3466 0.0039 1.5351
H36 H -0.4406 -0.0271 1.5471
Cl3 Cl -0.5008(2) 0.71736(14) 0.99783(17)
Cl4 Cl 0.19910(17) 0.38565(18) 0.99969(18)
N11 N -0.3686(5) 0.5004(4) 1.0084(5)
N12 N -0.4636(5) 0.5917(4) 1.0803(5)
N13 N -0.4022(5) 0.6136(5) 0.9287(5)
N14 N -0.3074(5) 0.5248(5) 0.8634(5)
N15 N -0.0115(5) 0.4362(5) 0.8612(5)
N16 N -0.0820(5) 0.3966(4) 1.0056(5)
N17 N 0.0872(5) 0.4174(5) 0.9277(5)
N18 N 0.0143(5) 0.3689(5) 1.0796(5)
N19 N -0.1523(5) 0.3483(5) 1.1508(5)
N20 N -0.4266(5) 0.4812(5) 1.1523(5)
O3 O -0.5718(8) 0.5707(7) 1.4605(6)
O4 O -0.1665(8) 0.1603(6) 1.4492(5)
C47 C -0.4192(6) 0.5262(5) 1.0771(6)
C48 C -0.4505(6) 0.6303(5) 1.0037(5)
C49 C -0.3617(5) 0.5467(5) 0.9363(5)
C50 C -0.1597(7) 0.4784(5) 0.8625(6)
H37 H -0.1415 0.5284 0.8615
C51 C -0.2477(6) 0.4639(5) 0.8634(5)
C52 C -0.2751(7) 0.3899(6) 0.8619(7)
H38 H -0.3289 0.3799 0.8601
C53 C -0.2177(8) 0.3306(7) 0.8634(7)
H39 H -0.2357 0.2804 0.8646
C54 C -0.1316(7) 0.3459(6) 0.8631(7)
H40 H -0.0953 0.3059 0.8628
C55 C -0.1029(6) 0.4205(5) 0.8632(5)
C56 C -0.0025(6) 0.4168(5) 0.9343(6)
C57 C 0.0859(6) 0.3926(5) 1.0028(6)
C58 C -0.0706(6) 0.3723(5) 1.0768(5)
C59 C -0.2928(6) 0.4131(5) 1.1546(5)
H41 H -0.2707 0.4578 1.1617
C60 C -0.2434(6) 0.3477(5) 1.1486(5)
C61 C -0.2787(7) 0.2817(6) 1.1369(7)
H42 H -0.2463 0.2388 1.1301
C62 C -0.3657(7) 0.2791(6) 1.1352(8)
H43 H -0.3885 0.2338 1.1297
C63 C -0.4162(7) 0.3448(6) 1.1418(7)
H44 H -0.4716 0.3436 1.1409
C64 C -0.3773(6) 0.4115(5) 1.1498(5)
C65 C -0.3030(7) 0.5648(6) 0.7816(6)
H45 H -0.3485 0.6007 0.7906
H46 H -0.3152 0.5271 0.7547
C66 C -0.2066(8) 0.6112(7) 0.7203(6)
C67 C -0.1583(11) 0.6007(13) 0.6400(10)
H47 H -0.1833 0.5694 0.6182
C68 C -0.0692(15) 0.6381(19) 0.5895(12)
H48 H -0.0355 0.6274 0.5364
C69 C -0.0305(14) 0.6896(16) 0.6156(12)
H49 H 0.0271 0.7144 0.5805
C70 C -0.0792(14) 0.7023(12) 0.6936(12)
H50 H -0.0567 0.7371 0.7137
C71 C -0.1651(11) 0.6616(9) 0.7440(10)
H51 H -0.1967 0.6697 0.7987
C72 C 0.0692(7) 0.4727(7) 0.7785(6)
H52 H 0.1149 0.4925 0.7912
H53 H 0.0521 0.5166 0.7477
C73 C 0.1087(8) 0.4172(8) 0.7218(7)
C74 C 0.0784(13) 0.4132(16) 0.6626(11)
H54 H 0.0347 0.4439 0.6578
C75 C 0.115(2) 0.361(2) 0.6090(17)
H55 H 0.0979 0.3585 0.5667
C76 C 0.179(3) 0.314(2) 0.622(2)
H56 H 0.2020 0.2789 0.5872
C77 C 0.209(3) 0.3160(18) 0.6805(17)
H57 H 0.2497 0.2830 0.6880
C78 C 0.1751(15) 0.3706(12) 0.7291(10)
H58 H 0.1968 0.3766 0.7676
C79 C -0.1513(6) 0.2996(6) 1.2266(6)
C80 C -0.1188(7) 0.2274(7) 1.2262(7)
H59 H -0.0940 0.2113 1.1753
C81 C -0.1222(8) 0.1788(7) 1.2992(7)
H60 H -0.1000 0.1306 1.2982
C82 C -0.1593(8) 0.2039(7) 1.3726(7)
C83 C -0.1948(9) 0.2752(7) 1.3745(7)
H61 H -0.2222 0.2904 1.4259
C84 C -0.1896(8) 0.3228(6) 1.3018(6)
H62 H -0.2120 0.3709 1.3031
C85 C -0.1305(14) 0.0882(9) 1.4490(11)
H63 H -0.1403 0.0633 1.5059
H64 H -0.0673 0.0965 1.4116
H65 H -0.1595 0.0558 1.4294
C86 C -0.4673(6) 0.5036(6) 1.2329(6)
C87 C -0.4344(9) 0.5747(7) 1.2379(7)
H66 H -0.3886 0.6070 1.1899
C88 C -0.4713(11) 0.5957(8) 1.3150(8)
H67 H -0.4505 0.6423 1.3198
C89 C -0.5414(9) 0.5454(8) 1.3871(7)
C90 C -0.5720(8) 0.4744(7) 1.3824(6)
H68 H -0.6167 0.4413 1.4305
C91 C -0.5345(7) 0.4536(7) 1.3044(7)
H69 H -0.5542 0.4064 1.2999
C92 C -0.6343(13) 0.5186(12) 1.5378(9)
H70 H -0.6506 0.5433 1.5845
H71 H -0.6073 0.4722 1.5485
H72 H -0.6870 0.5055 1.5322
Cl5 Cl -0.4431(7) -0.2114(7) 1.4069(9)
Cl6 Cl -0.5375(11) -0.2884(7) 1.5942(9)
C93 C -0.539(2) -0.2471(16) 1.4977(19)
H73 H -0.5699 -0.2860 1.4856
H74 H -0.5770 -0.2048 1.5071
loop_
_geom_bond_atom_site_label_1
_geom_bond_atom_site_label_2
_geom_bond_site_symmetry_1
_geom_bond_site_symmetry_2
Cl1 C2 1_555 1_555
Cl2 C11 1_555 1_555
Cl3 C48 1_555 1_555
Cl4 C57 1_555 1_555
Cl5 C93 1_555 1_555
Cl6 C93 1_555 1_555
N1 C1 1_555 1_555
N2 C1 1_555 1_555
N3 C2 1_555 1_555
N4 C3 1_555 1_555
N5 C9 1_555 1_555
N6 C10 1_555 1_555
N7 C10 1_555 1_555
N8 C11 1_555 1_555
N9 C12 1_555 1_555
N10 C1 1_555 1_555
N11 C47 1_555 1_555
N12 C47 1_555 1_555
N13 C48 1_555 1_555
N14 C49 1_555 1_555
N15 C55 1_555 1_555
N16 C56 1_555 1_555
N17 C56 1_555 1_555
N18 C57 1_555 1_555
N19 C58 1_555 1_555
N20 C47 1_555 1_555
O1 C43 1_555 1_555
O2 C36 1_555 1_555
O3 C89 1_555 1_555
O4 C82 1_555 1_555
C2 N2 1_555 1_555
C3 N1 1_555 1_555
C4 H1 1_555 1_555
C5 N4 1_555 1_555
C6 C5 1_555 1_555
H2 C6 1_555 1_555
C7 C6 1_555 1_555
H3 C7 1_555 1_555
C8 C7 1_555 1_555
H4 C8 1_555 1_555
C9 C4 1_555 1_555
C10 N5 1_555 1_555
C11 N7 1_555 1_555
C12 N6 1_555 1_555
C13 H5 1_555 1_555
C14 N9 1_555 1_555
C15 C14 1_555 1_555
H6 C15 1_555 1_555
C16 C15 1_555 1_555
H7 C16 1_555 1_555
C17 C16 1_555 1_555
H8 C17 1_555 1_555
C18 N10 1_555 1_555
C19 N4 1_555 1_555
H9 C19 1_555 1_555
H10 C19 1_555 1_555
C20 C19 1_555 1_555
C21 C20 1_555 1_555
H11 C21 1_555 1_555
C22 C21 1_555 1_555
H12 C22 1_555 1_555
C23 C22 1_555 1_555
H13 C23 1_555 1_555
C24 C23 1_555 1_555
H14 C24 1_555 1_555
C25 C20 1_555 1_555
H15 C25 1_555 1_555
C26 N5 1_555 1_555
H16 C26 1_555 1_555
H17 C26 1_555 1_555
C27 C26 1_555 1_555
C28 C27 1_555 1_555
H18 C28 1_555 1_555
C29 C28 1_555 1_555
H19 C29 1_555 1_555
C30 C29 1_555 1_555
H20 C30 1_555 1_555
C31 C30 1_555 1_555
H21 C31 1_555 1_555
C32 C27 1_555 1_555
H22 C32 1_555 1_555
C33 N9 1_555 1_555
C34 C33 1_555 1_555
H23 C34 1_555 1_555
C35 C34 1_555 1_555
H24 C35 1_555 1_555
C36 C35 1_555 1_555
C37 C36 1_555 1_555
H25 C37 1_555 1_555
C38 C33 1_555 1_555
H26 C38 1_555 1_555
C39 O2 1_555 1_555
H27 C39 1_555 1_555
H28 C39 1_555 1_555
H29 C39 1_555 1_555
C40 N10 1_555 1_555
C41 C40 1_555 1_555
H30 C41 1_555 1_555
C42 C41 1_555 1_555
H31 C42 1_555 1_555
C43 C42 1_555 1_555
C44 C43 1_555 1_555
H32 C44 1_555 1_555
C45 C40 1_555 1_555
H33 C45 1_555 1_555
C46 O1 1_555 1_555
H34 C46 1_555 1_555
H35 C46 1_555 1_555
H36 C46 1_555 1_555
C48 N12 1_555 1_555
C49 N11 1_555 1_555
C50 H37 1_555 1_555
C51 N14 1_555 1_555
C52 C51 1_555 1_555
H38 C52 1_555 1_555
C53 C52 1_555 1_555
H39 C53 1_555 1_555
C54 C53 1_555 1_555
H40 C54 1_555 1_555
C55 C50 1_555 1_555
C56 N15 1_555 1_555
C57 N17 1_555 1_555
C58 N16 1_555 1_555
C59 H41 1_555 1_555
C60 N19 1_555 1_555
C61 C60 1_555 1_555
H42 C61 1_555 1_555
C62 C61 1_555 1_555
H43 C62 1_555 1_555
C63 C62 1_555 1_555
H44 C63 1_555 1_555
C64 N20 1_555 1_555
C65 N14 1_555 1_555
H45 C65 1_555 1_555
H46 C65 1_555 1_555
C66 C65 1_555 1_555
C67 C66 1_555 1_555
H47 C67 1_555 1_555
C68 C67 1_555 1_555
H48 C68 1_555 1_555
C69 C68 1_555 1_555
H49 C69 1_555 1_555
C70 C69 1_555 1_555
H50 C70 1_555 1_555
C71 C66 1_555 1_555
H51 C71 1_555 1_555
C72 N15 1_555 1_555
H52 C72 1_555 1_555
H53 C72 1_555 1_555
C73 C72 1_555 1_555
C74 C73 1_555 1_555
H54 C74 1_555 1_555
C75 C74 1_555 1_555
H55 C75 1_555 1_555
C76 C75 1_555 1_555
H56 C76 1_555 1_555
C77 C76 1_555 1_555
H57 C77 1_555 1_555
C78 C73 1_555 1_555
H58 C78 1_555 1_555
C79 N19 1_555 1_555
C80 C79 1_555 1_555
H59 C80 1_555 1_555
C81 C80 1_555 1_555
H60 C81 1_555 1_555
C82 C81 1_555 1_555
C83 C82 1_555 1_555
H61 C83 1_555 1_555
C84 C79 1_555 1_555
H62 C84 1_555 1_555
C85 O4 1_555 1_555
H63 C85 1_555 1_555
H64 C85 1_555 1_555
H65 C85 1_555 1_555
C86 N20 1_555 1_555
C87 C86 1_555 1_555
H66 C87 1_555 1_555
C88 C87 1_555 1_555
H67 C88 1_555 1_555
C89 C88 1_555 1_555
C90 C89 1_555 1_555
H68 C90 1_555 1_555
C91 C86 1_555 1_555
H69 C91 1_555 1_555
C92 O3 1_555 1_555
H70 C92 1_555 1_555
H71 C92 1_555 1_555
H72 C92 1_555 1_555
C93 H73 1_555 1_555
H74 C93 1_555 1_555
N3 C3 1_555 1_555
N8 C12 1_555 1_555
N13 C49 1_555 1_555
N18 C58 1_555 1_555
C4 C5 1_555 1_555
C8 C9 1_555 1_555
C13 C14 1_555 1_555
C13 C18 1_555 1_555
C17 C18 1_555 1_555
C24 C25 1_555 1_555
C31 C32 1_555 1_555
C37 C38 1_555 1_555
C44 C45 1_555 1_555
C50 C51 1_555 1_555
C54 C55 1_555 1_555
C59 C60 1_555 1_555
C59 C64 1_555 1_555
C63 C64 1_555 1_555
C70 C71 1_555 1_555
C77 C78 1_555 1_555
C83 C84 1_555 1_555
C90 C91 1_555 1_555

#END
