
#######################################################################
#
#                 Cambridge Crystallographic Data Centre
#                                CCDC 
#
#######################################################################
#
# If this CIF has been generated from an entry in the Cambridge 
# Structural Database, then it will include bibliographic, chemical, 
# crystal, experimental, refinement or atomic coordinate data resulting 
# from the CCDC's data processing and validation procedures.
#
#######################################################################

data_YESSAT
_chemical_compound_source        
'isolated from the leaves of Rhododendron molle'
_chemical_name_common            'rhodojaponin II methanol solvate'
_chemical_formula_moiety         'C22 H34 O7,C1 H4 O1'
_chemical_name_systematic        
'5,10,14,16-tetrahydroxy-2,3-epoxygrayanotoxan-6-yl acetate methanol solvate'
_chemical_properties_biological  
'Inhibitory activity against nitric oxide production in lipopolysaccharide-induced RAW264.7 mouse macrophages.'
_symmetry_cell_setting           orthorhombic
_symmetry_space_group_name_H-M   'P 21 21 21'
_symmetry_Int_Tables_number      19
_space_group_name_Hall           'P 2ac 2ab'
loop_
_symmetry_equiv_pos_site_id
_symmetry_equiv_pos_as_xyz
1 x,y,z
2 1/2-x,-y,1/2+z
3 -x,1/2+y,1/2-z
4 1/2+x,1/2-y,-z
_cell_length_a                   9.5407(4)
_cell_length_b                   11.7224(5)
_cell_length_c                   19.9776(9)
_cell_angle_alpha                90
_cell_angle_beta                 90
_cell_angle_gamma                90
_cell_volume                     2234.29
_exptl_crystal_colour            colorless
_exptl_crystal_description       block
_cell_formula_units_Z            4
loop_
_atom_site_label
_atom_site_type_symbol
_atom_site_fract_x
_atom_site_fract_y
_atom_site_fract_z
O1 O 0.47564(16) 0.07701(12) 0.79538(8)
H1 H 0.4010 0.0471 0.7851
O2 O 0.63848(16) 0.15388(13) 0.89792(8)
O3 O 1.01884(18) -0.02716(15) 0.82855(8)
H2 H 1.0856 0.0152 0.8215
O4 O 0.69602(18) -0.20841(12) 0.69843(8)
H3 H 0.6336 -0.2514 0.6857
C1 C 0.7767(2) 0.11815(17) 0.80104(11)
H4 H 0.8500 0.1608 0.8236
H5 H 0.7171 0.1736 0.7789
O5 O 1.18935(18) 0.09184(14) 0.74631(9)
H6 H 1.1947 0.1610 0.7518
C2 C 0.9632(3) -0.1091(2) 0.64806(12)
H7 H 0.9384 -0.1871 0.6591
H8 H 1.0230 -0.1111 0.6088
C3 C 0.4829(2) -0.19123(18) 0.80263(12)
H9 H 0.4957 -0.2721 0.7918
C4 C 0.8478(2) 0.04728(17) 0.74578(10)
C5 C 1.0454(2) -0.05755(19) 0.70645(11)
H10 H 1.1277 -0.1043 0.7169
C6 C 0.9504(2) 0.13189(17) 0.70943(11)
H11 H 0.9087 0.1587 0.6680
H12 H 0.9690 0.1973 0.7378
C7 C 0.5580(2) -0.00193(17) 0.83268(11)
O6 O 0.8284(2) 0.1437(2) 0.96320(12)
C8 C 0.5999(2) -0.10763(17) 0.78970(11)
H13 H 0.6832 -0.1400 0.8112
C9 C 0.7446(2) -0.00297(18) 0.69311(10)
H14 H 0.6880 0.0618 0.6778
C10 C 0.6364(2) -0.09706(18) 0.71405(11)
C11 C 0.4731(2) -0.05460(19) 0.89314(11)
C12 C 0.8283(3) -0.0425(2) 0.63090(11)
H15 H 0.7684 -0.0906 0.6036
H16 H 0.8531 0.0239 0.6045
C13 C 0.6894(2) 0.06167(17) 0.85478(10)
H17 H 0.7489 0.0103 0.8810
C14 C 0.7179(3) 0.1859(2) 0.94952(12)
C15 C 0.5071(3) -0.0825(2) 0.67029(12)
H18 H 0.5345 -0.0812 0.6241
H19 H 0.4611 -0.0122 0.6814
H20 H 0.4440 -0.1450 0.6778
C16 C 0.4069(3) -0.1589(2) 0.86224(13)
H21 H 0.3685 -0.2184 0.8914
C17 C 0.9474(2) -0.04942(18) 0.76721(10)
H22 H 0.8941 -0.1206 0.7714
C18 C 1.1532(3) 0.0935(3) 0.62718(14)
H23 H 1.1815 0.1721 0.6259
H24 H 1.0858 0.0795 0.5924
H25 H 1.2335 0.0455 0.6205
C19 C 1.0879(2) 0.0674(2) 0.69461(11)
C20 C 0.6506(3) 0.2799(2) 0.98777(14)
H26 H 0.6813 0.2773 1.0335
H27 H 0.5506 0.2714 0.9861
H28 H 0.6765 0.3519 0.9684
C21 C 0.5679(3) -0.0986(2) 0.94951(12)
H29 H 0.5132 -0.1426 0.9805
H30 H 0.6094 -0.0350 0.9725
H31 H 0.6405 -0.1456 0.9309
C22 C 0.3618(3) 0.0257(2) 0.92231(15)
H32 H 0.2982 0.0484 0.8876
H33 H 0.4066 0.0920 0.9407
H34 H 0.3109 -0.0132 0.9569
O7 O 0.34441(17) -0.13961(14) 0.79717(9)
O8 O 0.9664(8) 0.3302(3) 0.56101(16)
H35 H 0.9471 0.3725 0.5924
C23 C 1.0012(6) 0.3934(4) 0.5070(2)
H36 H 1.0090 0.4721 0.5198
H37 H 0.9301 0.3856 0.4733
H38 H 1.0894 0.3675 0.4895
loop_
_geom_bond_atom_site_label_1
_geom_bond_atom_site_label_2
_geom_bond_site_symmetry_1
_geom_bond_site_symmetry_2
O1 H1 1_555 1_555
O2 C13 1_555 1_555
O3 H2 1_555 1_555
O4 H3 1_555 1_555
C1 H4 1_555 1_555
H5 C1 1_555 1_555
O5 H6 1_555 1_555
C2 H7 1_555 1_555
H8 C2 1_555 1_555
C3 H9 1_555 1_555
C4 C1 1_555 1_555
C5 C2 1_555 1_555
H10 C5 1_555 1_555
C6 C4 1_555 1_555
H11 C6 1_555 1_555
H12 C6 1_555 1_555
C7 O1 1_555 1_555
O6 C14 1_555 1_555
C8 C3 1_555 1_555
H13 C8 1_555 1_555
C9 C4 1_555 1_555
H14 C9 1_555 1_555
C10 O4 1_555 1_555
C11 C7 1_555 1_555
C12 C2 1_555 1_555
H15 C12 1_555 1_555
H16 C12 1_555 1_555
C13 C1 1_555 1_555
H17 C13 1_555 1_555
C14 O2 1_555 1_555
C15 C10 1_555 1_555
H18 C15 1_555 1_555
H19 C15 1_555 1_555
H20 C15 1_555 1_555
C16 C3 1_555 1_555
H21 C16 1_555 1_555
C17 O3 1_555 1_555
H22 C17 1_555 1_555
C18 H23 1_555 1_555
H24 C18 1_555 1_555
H25 C18 1_555 1_555
C19 O5 1_555 1_555
C20 C14 1_555 1_555
H26 C20 1_555 1_555
H27 C20 1_555 1_555
H28 C20 1_555 1_555
C21 C11 1_555 1_555
H29 C21 1_555 1_555
H30 C21 1_555 1_555
H31 C21 1_555 1_555
C22 C11 1_555 1_555
H32 C22 1_555 1_555
H33 C22 1_555 1_555
H34 C22 1_555 1_555
O7 C3 1_555 1_555
O8 H35 1_555 1_555
C23 O8 1_555 1_555
H36 C23 1_555 1_555
H37 C23 1_555 1_555
H38 C23 1_555 1_555
C4 C17 1_555 1_555
C5 C17 1_555 1_555
C5 C19 1_555 1_555
C6 C19 1_555 1_555
C7 C8 1_555 1_555
C7 C13 1_555 1_555
C8 C10 1_555 1_555
C9 C10 1_555 1_555
C9 C12 1_555 1_555
C11 C16 1_555 1_555
C16 O7 1_555 1_555
C18 C19 1_555 1_555

#END
