
#######################################################################
#
#                 Cambridge Crystallographic Data Centre
#                                CCDC 
#
#######################################################################
#
# If this CIF has been generated from an entry in the Cambridge 
# Structural Database, then it will include bibliographic, chemical, 
# crystal, experimental, refinement or atomic coordinate data resulting 
# from the CCDC's data processing and validation procedures.
#
#######################################################################

data_YESSAR
_chemical_formula_moiety         'C46 H36 Cl2 N10,H2 O1'
_chemical_name_systematic        
'2,8,14,20-Tetrabenzyl-5,17-dichloro-2,4,6,8,14,16,18,20,26,28-decaazapentacyclo(19.3.1.1^3,7^.1^9,13^.1^15,19^)octacosa-1(25),3(28),4,6,9(27),10,12,15(26),16,18,21,23-dodecaene monohydrate'
_symmetry_cell_setting           monoclinic
_symmetry_space_group_name_H-M   'P 21/n'
_symmetry_Int_Tables_number      14
_space_group_name_Hall           '-P 2yn'
loop_
_symmetry_equiv_pos_site_id
_symmetry_equiv_pos_as_xyz
1 x,y,z
2 1/2-x,1/2+y,1/2-z
3 -x,-y,-z
4 1/2+x,1/2-y,1/2+z
_cell_length_a                   16.540(3)
_cell_length_b                   8.8320(18)
_cell_length_c                   30.088(6)
_cell_angle_alpha                90
_cell_angle_beta                 104.33(3)
_cell_angle_gamma                90
_cell_volume                     4258.54
_exptl_crystal_colour            colorless
_exptl_crystal_description       platelet
_chemical_melting_point          '282-283 deg.C'
_cell_formula_units_Z            4
_exptl_crystal_recrystallization_method 'petroleum ether/acetone'
loop_
_atom_site_label
_atom_site_type_symbol
_atom_site_fract_x
_atom_site_fract_y
_atom_site_fract_z
Cl1 Cl 0.05949(6) 0.24438(10) 0.02474(3)
Cl2 Cl -0.09724(7) 0.72855(14) 0.37914(3)
N1 N -0.10124(15) 0.7955(3) 0.23466(8)
N2 N -0.03225(17) 0.8230(3) 0.31423(8)
N3 N -0.16745(17) 0.7096(3) 0.29246(8)
N4 N -0.03907(16) 0.5997(3) 0.09745(8)
N5 N -0.05981(17) 0.3745(3) 0.05181(8)
N6 N 0.07461(17) 0.4900(3) 0.07296(8)
N7 N -0.23026(15) 0.6880(3) 0.21460(8)
N8 N -0.16801(16) 0.4906(3) 0.07564(8)
N9 N 0.09033(15) 0.7074(3) 0.11721(8)
N10 N 0.02732(16) 0.9078(3) 0.25613(9)
C1 C -0.0375(2) 0.8406(3) 0.26875(10)
C2 C -0.0992(2) 0.7564(4) 0.32140(10)
C3 C -0.16417(19) 0.7323(3) 0.24835(10)
C4 C -0.20382(18) 0.5931(3) 0.14343(9)
H1 H -0.1906 0.4998 0.1577
C5 C -0.22881(17) 0.7108(3) 0.16698(9)
C6 C -0.2506(2) 0.8479(4) 0.14561(11)
H2 H -0.2682 0.9274 0.1612
C7 C -0.2460(2) 0.8658(4) 0.10085(11)
H3 H -0.2612 0.9579 0.0861
C8 C -0.2194(2) 0.7497(4) 0.07755(10)
H4 H -0.2157 0.7637 0.0475
C9 C -0.19836(18) 0.6132(3) 0.09893(9)
C10 C -0.08666(19) 0.4894(3) 0.07494(9)
C11 C 0.0198(2) 0.3882(3) 0.05342(10)
C12 C 0.0400(2) 0.5959(3) 0.09503(10)
C13 C 0.05949(18) 0.8132(3) 0.18612(10)
H5 H 0.0863 0.7308 0.2027
C14 C 0.05504(18) 0.8255(3) 0.13959(10)
C15 C 0.0168(2) 0.9473(4) 0.11507(12)
H6 H 0.0142 0.9558 0.0839
C16 C -0.0179(2) 1.0574(4) 0.13712(13)
H7 H -0.0438 1.1407 0.1207
C17 C -0.0145(2) 1.0452(4) 0.18314(13)
H8 H -0.0384 1.1198 0.1976
C18 C 0.02412(18) 0.9233(3) 0.20762(10)
C19 C -0.3040(2) 0.6154(3) 0.22411(11)
H9 H -0.2903 0.5789 0.2555
H10 H -0.3197 0.5288 0.2040
C20 C -0.3764(2) 0.7225(3) 0.21723(11)
C21 C -0.3849(2) 0.8168(4) 0.25250(13)
H11 H -0.3466 0.8116 0.2809
C22 C -0.4498(3) 0.9184(4) 0.24579(19)
H12 H -0.4554 0.9806 0.2698
C23 C -0.5061(3) 0.9288(5) 0.2043(2)
H13 H -0.5495 0.9985 0.1999
C24 C -0.4986(3) 0.8356(7) 0.16866(19)
H14 H -0.5366 0.8435 0.1403
C25 C -0.4352(2) 0.7314(5) 0.17504(14)
H15 H -0.4314 0.6667 0.1513
C26 C -0.2289(2) 0.3763(4) 0.05252(10)
H16 H -0.2616 0.3435 0.0735
H17 H -0.1991 0.2889 0.0453
C27 C -0.2870(2) 0.4333(4) 0.00919(10)
C28 C -0.3701(3) 0.4191(8) 0.00188(17)
H18 H -0.3927 0.3755 0.0242
C29 C -0.4223(4) 0.4691(11) -0.0387(2)
H19 H -0.4796 0.4558 -0.0437
C30 C -0.3915(4) 0.5375(7) -0.07173(16)
H20 H -0.4270 0.5746 -0.0984
C31 C -0.3096(3) 0.5496(5) -0.06461(13)
H21 H -0.2872 0.5934 -0.0870
C32 C -0.2575(2) 0.4990(4) -0.02491(12)
H22 H -0.2002 0.5093 -0.0209
C33 C 0.18088(19) 0.7092(4) 0.12199(11)
H23 H 0.1980 0.6101 0.1139
H24 H 0.2086 0.7274 0.1539
C34 C 0.20963(19) 0.8260(3) 0.09307(10)
C35 C 0.1688(2) 0.8494(4) 0.04746(11)
H25 H 0.1207 0.7947 0.0346
C36 C 0.1983(3) 0.9524(4) 0.02090(13)
H26 H 0.1703 0.9671 -0.0096
C37 C 0.2692(3) 1.0330(5) 0.03972(16)
H27 H 0.2892 1.1025 0.0218
C38 C 0.3107(3) 1.0124(5) 0.08447(18)
H28 H 0.3592 1.0665 0.0970
C39 C 0.2796(2) 0.9092(5) 0.11131(14)
H29 H 0.3070 0.8970 0.1421
C40 C 0.0938(2) 0.9904(4) 0.28882(12)
H30 H 0.0818 0.9885 0.3188
H31 H 0.0930 1.0953 0.2792
C41 C 0.1797(2) 0.9279(4) 0.29311(10)
C42 C 0.2321(2) 0.9917(4) 0.26904(14)
H32 H 0.2126 1.0697 0.2484
C43 C 0.3131(3) 0.9415(7) 0.2751(2)
H33 H 0.3474 0.9855 0.2584
C44 C 0.3429(4) 0.8298(8) 0.3049(3)
H34 H 0.3978 0.7976 0.3091
C45 C 0.2923(5) 0.7630(7) 0.3292(2)
H35 H 0.3129 0.6859 0.3500
C46 C 0.2099(3) 0.8115(5) 0.32253(13)
H36 H 0.1751 0.7642 0.3383
O1 O -0.4521(4) 0.8968(13) 0.0198(3)
loop_
_geom_bond_atom_site_label_1
_geom_bond_atom_site_label_2
_geom_bond_site_symmetry_1
_geom_bond_site_symmetry_2
Cl1 C11 1_555 1_555
Cl2 C2 1_555 1_555
N1 C1 1_555 1_555
N2 C1 1_555 1_555
N3 C2 1_555 1_555
N4 C10 1_555 1_555
N5 C10 1_555 1_555
N6 C11 1_555 1_555
N7 C3 1_555 1_555
N8 C9 1_555 1_555
N9 C12 1_555 1_555
N10 C1 1_555 1_555
C2 N2 1_555 1_555
C3 N1 1_555 1_555
C4 H1 1_555 1_555
C5 N7 1_555 1_555
C6 C5 1_555 1_555
H2 C6 1_555 1_555
C7 C6 1_555 1_555
H3 C7 1_555 1_555
C8 C7 1_555 1_555
H4 C8 1_555 1_555
C9 C4 1_555 1_555
C10 N8 1_555 1_555
C11 N5 1_555 1_555
C12 N4 1_555 1_555
C13 H5 1_555 1_555
C14 N9 1_555 1_555
C15 C14 1_555 1_555
H6 C15 1_555 1_555
C16 C15 1_555 1_555
H7 C16 1_555 1_555
C17 C16 1_555 1_555
H8 C17 1_555 1_555
C18 N10 1_555 1_555
C19 N7 1_555 1_555
H9 C19 1_555 1_555
H10 C19 1_555 1_555
C20 C19 1_555 1_555
C21 C20 1_555 1_555
H11 C21 1_555 1_555
C22 C21 1_555 1_555
H12 C22 1_555 1_555
C23 C22 1_555 1_555
H13 C23 1_555 1_555
C24 C23 1_555 1_555
H14 C24 1_555 1_555
C25 C20 1_555 1_555
H15 C25 1_555 1_555
C26 N8 1_555 1_555
H16 C26 1_555 1_555
H17 C26 1_555 1_555
C27 C26 1_555 1_555
C28 C27 1_555 1_555
H18 C28 1_555 1_555
C29 C28 1_555 1_555
H19 C29 1_555 1_555
C30 C29 1_555 1_555
H20 C30 1_555 1_555
C31 C30 1_555 1_555
H21 C31 1_555 1_555
C32 C27 1_555 1_555
H22 C32 1_555 1_555
C33 N9 1_555 1_555
H23 C33 1_555 1_555
H24 C33 1_555 1_555
C34 C33 1_555 1_555
C35 C34 1_555 1_555
H25 C35 1_555 1_555
C36 C35 1_555 1_555
H26 C36 1_555 1_555
C37 C36 1_555 1_555
H27 C37 1_555 1_555
C38 C37 1_555 1_555
H28 C38 1_555 1_555
C39 C34 1_555 1_555
H29 C39 1_555 1_555
C40 N10 1_555 1_555
H30 C40 1_555 1_555
H31 C40 1_555 1_555
C41 C40 1_555 1_555
C42 C41 1_555 1_555
H32 C42 1_555 1_555
C43 C42 1_555 1_555
H33 C43 1_555 1_555
C44 C43 1_555 1_555
H34 C44 1_555 1_555
C45 C44 1_555 1_555
H35 C45 1_555 1_555
C46 C41 1_555 1_555
H36 C46 1_555 1_555
N3 C3 1_555 1_555
N6 C12 1_555 1_555
C4 C5 1_555 1_555
C8 C9 1_555 1_555
C13 C14 1_555 1_555
C13 C18 1_555 1_555
C17 C18 1_555 1_555
C24 C25 1_555 1_555
C31 C32 1_555 1_555
C38 C39 1_555 1_555
C45 C46 1_555 1_555

#END
