
#######################################################################
#
#                 Cambridge Crystallographic Data Centre
#                                CCDC 
#
#######################################################################
#
# If this CIF has been generated from an entry in the Cambridge 
# Structural Database, then it will include bibliographic, chemical, 
# crystal, experimental, refinement or atomic coordinate data resulting 
# from the CCDC's data processing and validation procedures.
#
#######################################################################

data_YESWOL
_chemical_formula_moiety         'C32 H29 N1 O6'
_chemical_name_systematic        
'methyl ((2-methoxyphenyl)methoxy)(1-(4-methoxyphenyl)-3-oxo-2,3-dihydro-1H-isoindol-1-yl)phenylacetate'
_symmetry_cell_setting           monoclinic
_symmetry_space_group_name_H-M   'P 21/n'
_symmetry_Int_Tables_number      14
_space_group_name_Hall           '-P 2yn'
loop_
_symmetry_equiv_pos_site_id
_symmetry_equiv_pos_as_xyz
1 x,y,z
2 1/2-x,1/2+y,1/2-z
3 -x,-y,-z
4 1/2+x,1/2-y,1/2+z
_cell_length_a                   11.91700(10)
_cell_length_b                   17.06410(10)
_cell_length_c                   13.06920(10)
_cell_angle_alpha                90
_cell_angle_beta                 102.0340(10)
_cell_angle_gamma                90
_cell_volume                     2599.25
_exptl_crystal_colour            colorless
_exptl_crystal_description       block
_cell_formula_units_Z            4
loop_
_atom_site_label
_atom_site_type_symbol
_atom_site_fract_x
_atom_site_fract_y
_atom_site_fract_z
O1 O -0.06318(7) 0.50544(5) 0.37297(7)
O2 O 0.13785(9) 0.06745(5) 0.56052(8)
O3 O 0.33550(8) 0.48108(5) 0.27101(7)
O4 O 0.27470(8) 0.54193(5) 0.40018(7)
O5 O 0.35967(7) 0.34323(5) 0.36781(7)
O6 O 0.71365(7) 0.33999(5) 0.41402(8)
N1 N 0.09761(8) 0.42883(6) 0.42891(8)
H1 H 0.109820 0.441676 0.493920
C1 C 0.11818(10) 0.37790(7) 0.27018(10)
C2 C 0.15286(11) 0.34565(7) 0.18409(10)
H2 H 0.219593 0.315958 0.192407
C3 C 0.08523(12) 0.35889(8) 0.08516(11)
H3 H 0.107189 0.337431 0.026916
C4 C -0.01466(12) 0.40360(8) 0.07148(11)
H4 H -0.059706 0.410317 0.004839
C5 C -0.04708(12) 0.43806(8) 0.15684(11)
H5 H -0.112740 0.468859 0.148577
C6 C 0.02143(10) 0.42519(7) 0.25502(10)
C7 C 0.01007(10) 0.45882(7) 0.35667(10)
C8 C 0.16995(10) 0.37272(7) 0.38753(10)
C9 C 0.15885(10) 0.29017(7) 0.43162(10)
C10 C 0.12968(11) 0.27918(8) 0.52895(10)
H6 H 0.114463 0.322589 0.566884
C11 C 0.12304(12) 0.20475(8) 0.56988(11)
H7 H 0.102869 0.198685 0.634435
C12 C 0.14648(11) 0.13901(8) 0.51464(10)
C13 C 0.17492(11) 0.14852(7) 0.41794(10)
H8 H 0.190240 0.105071 0.380118
C14 C 0.18040(10) 0.22372(7) 0.37778(10)
H9 H 0.199162 0.229547 0.312607
C15 C 0.28158(13) 0.61441(8) 0.34405(11)
H10 H 0.231169 0.611664 0.276484
H11 H 0.358930 0.622222 0.335653
H12 H 0.259202 0.657375 0.382814
C16 C 0.30722(10) 0.47871(7) 0.35403(10)
C17 C 0.30109(10) 0.40108(7) 0.41441(10)
C18 C 0.34522(10) 0.40198(7) 0.53371(10)
C19 C 0.33756(10) 0.46611(7) 0.59831(10)
H13 H 0.306800 0.513074 0.568977
C20 C 0.37548(11) 0.46035(8) 0.70592(11)
H14 H 0.370314 0.503583 0.748013
C21 C 0.42092(11) 0.39082(8) 0.75116(10)
H15 H 0.446887 0.387376 0.823231
C22 C 0.42739(11) 0.32618(8) 0.68785(11)
H16 H 0.457234 0.279173 0.717785
C23 C 0.38972(10) 0.33143(8) 0.58079(11)
H17 H 0.393865 0.287690 0.539292
C24 C 0.48071(11) 0.35620(7) 0.37782(11)
H18 H 0.514911 0.371563 0.448942
H19 H 0.493493 0.397908 0.331116
C25 C 0.53456(11) 0.28148(7) 0.35049(10)
C26 C 0.65459(11) 0.27543(7) 0.36879(10)
C27 C 0.70666(11) 0.20814(7) 0.34143(10)
H20 H 0.786244 0.204617 0.354292
C28 C 0.63972(12) 0.14608(8) 0.29481(11)
H21 H 0.674491 0.101199 0.275574
C29 C 0.52195(12) 0.15088(8) 0.27701(12)
H22 H 0.477108 0.109119 0.246319
C30 C 0.47016(11) 0.21834(8) 0.30504(11)
H23 H 0.390535 0.221050 0.292969
C31 C 0.83579(11) 0.33484(9) 0.43817(13)
H24 H 0.863249 0.327009 0.374898
H25 H 0.858988 0.291546 0.484678
H26 H 0.867345 0.382509 0.471196
C32 C 0.15604(13) -0.00034(8) 0.50187(12)
H27 H 0.100405 -0.001369 0.437146
H28 H 0.148157 -0.046616 0.541538
H29 H 0.231797 0.001436 0.487521
loop_
_geom_bond_atom_site_label_1
_geom_bond_atom_site_label_2
_geom_bond_site_symmetry_1
_geom_bond_site_symmetry_2
O1 C7 1_555 1_555
O2 C12 1_555 1_555
O3 C16 1_555 1_555
O4 C15 1_555 1_555
O5 C17 1_555 1_555
O6 C26 1_555 1_555
N1 H1 1_555 1_555
C1 C2 1_555 1_555
C2 H2 1_555 1_555
C3 C2 1_555 1_555
H3 C3 1_555 1_555
C4 C3 1_555 1_555
H4 C4 1_555 1_555
C5 C4 1_555 1_555
H5 C5 1_555 1_555
C6 C1 1_555 1_555
C7 N1 1_555 1_555
C8 N1 1_555 1_555
C9 C8 1_555 1_555
C10 C9 1_555 1_555
H6 C10 1_555 1_555
C11 C10 1_555 1_555
H7 C11 1_555 1_555
C12 C11 1_555 1_555
C13 C12 1_555 1_555
H8 C13 1_555 1_555
C14 C9 1_555 1_555
H9 C14 1_555 1_555
C15 H10 1_555 1_555
H11 C15 1_555 1_555
H12 C15 1_555 1_555
C16 O4 1_555 1_555
C17 C8 1_555 1_555
C18 C17 1_555 1_555
C19 C18 1_555 1_555
H13 C19 1_555 1_555
C20 C19 1_555 1_555
H14 C20 1_555 1_555
C21 C20 1_555 1_555
H15 C21 1_555 1_555
C22 C21 1_555 1_555
H16 C22 1_555 1_555
C23 C18 1_555 1_555
H17 C23 1_555 1_555
C24 O5 1_555 1_555
H18 C24 1_555 1_555
H19 C24 1_555 1_555
C25 C24 1_555 1_555
C26 C25 1_555 1_555
C27 C26 1_555 1_555
H20 C27 1_555 1_555
C28 C27 1_555 1_555
H21 C28 1_555 1_555
C29 C28 1_555 1_555
H22 C29 1_555 1_555
C30 C25 1_555 1_555
H23 C30 1_555 1_555
C31 O6 1_555 1_555
H24 C31 1_555 1_555
H25 C31 1_555 1_555
H26 C31 1_555 1_555
C32 O2 1_555 1_555
H27 C32 1_555 1_555
H28 C32 1_555 1_555
H29 C32 1_555 1_555
C1 C8 1_555 1_555
C5 C6 1_555 1_555
C6 C7 1_555 1_555
C13 C14 1_555 1_555
C16 C17 1_555 1_555
C22 C23 1_555 1_555
C29 C30 1_555 1_555

#END
