
#######################################################################
#
#                 Cambridge Crystallographic Data Centre
#                                CCDC 
#
#######################################################################
#
# If this CIF has been generated from an entry in the Cambridge 
# Structural Database, then it will include bibliographic, chemical, 
# crystal, experimental, refinement or atomic coordinate data resulting 
# from the CCDC's data processing and validation procedures.
#
#######################################################################

data_YESWAX
_chemical_formula_moiety         'C37 H38 N2 O6'
_chemical_name_systematic        
'methyl anti-(S,S)-(5,6-dimethyl-1-(4-(morpholin-4-yl)phenyl)-3-oxo-2,3-dihydro-1H-isoindol-1-yl)((2-methoxyphenyl)methoxy)phenylacetate'
_symmetry_cell_setting           monoclinic
_symmetry_space_group_name_H-M   'I 2'
_symmetry_Int_Tables_number      5
_space_group_name_Hall           'I 2y'
loop_
_symmetry_equiv_pos_site_id
_symmetry_equiv_pos_as_xyz
1 x,y,z
2 -x,y,-z
3 1/2+x,1/2+y,1/2+z
4 1/2-x,1/2+y,1/2-z
_cell_length_a                   15.8497(5)
_cell_length_b                   9.9649(3)
_cell_length_c                   23.1314(9)
_cell_angle_alpha                90
_cell_angle_beta                 95.114(3)
_cell_angle_gamma                90
_cell_volume                     3638.85
_exptl_crystal_colour            colorless
_exptl_crystal_description       block
_cell_formula_units_Z            4
loop_
_atom_site_label
_atom_site_type_symbol
_atom_site_fract_x
_atom_site_fract_y
_atom_site_fract_z
O1 O -0.6178(2) 0.1297(4) -0.38442(17)
O2 O -0.53035(19) -0.3427(3) -0.25338(13)
O3 O -0.6852(2) -0.3758(4) -0.21140(17)
O4 O -0.73124(18) -0.1802(3) -0.25140(15)
O5 O -0.4652(3) -0.6111(4) -0.2700(2)
O6 O -0.8984(3) -0.7739(6) -0.5257(3)
N1 N -0.6353(2) -0.0604(3) -0.33066(16)
H1 H -0.678187 -0.033046 -0.313636
N2 N -0.7918(3) -0.5842(5) -0.4641(2)
C1 C -0.4151(3) -0.4545(5) -0.20114(19)
C2 C -0.3979(3) -0.5606(6) -0.2375(2)
C3 C -0.3144(5) -0.6036(8) -0.2378(3)
H2 H -0.302028 -0.674146 -0.261980
C4 C -0.2495(4) -0.5440(10) -0.2031(4)
H3 H -0.194193 -0.575150 -0.203248
C5 C -0.2679(5) -0.4374(11) -0.1681(4)
H4 H -0.224702 -0.394727 -0.145289
C6 C -0.3473(4) -0.3961(7) -0.1671(2)
H5 H -0.358438 -0.325244 -0.142702
C7 C -0.5430(3) -0.1130(4) -0.22011(19)
C8 C -0.4591(3) -0.0915(6) -0.2234(2)
H6 H -0.429414 -0.148193 -0.246312
C9 C -0.4161(4) 0.0127(7) -0.1936(3)
H7 H -0.358439 0.025618 -0.196248
C10 C -0.4610(4) 0.0967(6) -0.1599(3)
H8 H -0.432991 0.165475 -0.138915
C11 C -0.5440(5) 0.0802(6) -0.1573(3)
H9 H -0.574146 0.140989 -0.136599
C12 C -0.5863(4) -0.0285(6) -0.1856(2)
H10 H -0.643302 -0.043714 -0.181160
C13 C -0.5202(3) -0.0591(4) -0.38094(19)
C14 C -0.4610(3) -0.0238(5) -0.4195(2)
H11 H -0.465591 0.057205 -0.439435
C15 C -0.3951(3) -0.1121(6) -0.4274(2)
C16 C -0.3895(3) -0.2353(5) -0.3950(2)
C17 C -0.4518(3) -0.2640(5) -0.3586(2)
H12 H -0.448627 -0.343786 -0.337658
C18 C -0.5173(3) -0.1794(4) -0.35261(18)
C19 C -0.5995(2) -0.1975(4) -0.32279(18)
C20 C -0.5946(3) 0.0172(4) -0.3668(2)
C21 C -0.6538(3) -0.3005(4) -0.35716(18)
C22 C -0.6342(3) -0.4379(4) -0.3557(2)
H13 H -0.588925 -0.467798 -0.330644
C23 C -0.6797(3) -0.5296(5) -0.3901(2)
H14 H -0.663815 -0.619477 -0.388506
C24 C -0.7502(3) -0.4900(5) -0.4278(2)
C25 C -0.7719(3) -0.3561(5) -0.4279(2)
H15 H -0.818960 -0.327232 -0.451501
C26 C -0.7244(3) -0.2611(5) -0.3930(2)
H16 H -0.740665 -0.171440 -0.394031
C27 C -0.7960(6) -0.7211(6) -0.4458(4)
H17 H -0.835520 -0.727896 -0.416188
H18 H -0.740714 -0.748381 -0.428445
C28 C -0.8230(7) -0.8138(9) -0.4938(7)
H19 H -0.778318 -0.819649 -0.519737
H20 H -0.830822 -0.902633 -0.477914
C29 C -0.8946(7) -0.6399(10) -0.5442(5)
H21 H -0.950831 -0.613966 -0.560243
H22 H -0.857927 -0.636461 -0.575557
C30 C -0.8650(6) -0.5393(9) -0.5014(4)
H23 H -0.850333 -0.458130 -0.521361
H24 H -0.910583 -0.517662 -0.477654
C31 C -0.5849(3) -0.2289(4) -0.25576(19)
C32 C -0.6710(3) -0.2743(4) -0.23496(19)
C33 C -0.8167(3) -0.2151(6) -0.2413(3)
H25 H -0.854091 -0.143259 -0.254140
H26 H -0.832981 -0.295399 -0.262333
H27 H -0.820074 -0.230057 -0.200527
C34 C -0.3161(4) -0.3277(7) -0.4001(3)
H28 H -0.315291 -0.356137 -0.439707
H29 H -0.321690 -0.404650 -0.375777
H30 H -0.264314 -0.281614 -0.388096
C35 C -0.3297(5) -0.0809(8) -0.4680(3)
H31 H -0.324807 -0.154920 -0.494061
H32 H -0.276089 -0.065802 -0.446211
H33 H -0.345993 -0.001741 -0.489919
C36 C -0.4517(7) -0.7128(10) -0.3103(4)
H34 H -0.504898 -0.738825 -0.330186
H35 H -0.414802 -0.680160 -0.337862
H36 H -0.426116 -0.789001 -0.290231
C37 C -0.5026(3) -0.4028(6) -0.1984(2)
H37 H -0.540233 -0.475701 -0.190176
H38 H -0.503507 -0.336685 -0.167715
loop_
_geom_bond_atom_site_label_1
_geom_bond_atom_site_label_2
_geom_bond_site_symmetry_1
_geom_bond_site_symmetry_2
O1 C20 1_555 1_555
O2 C31 1_555 1_555
O3 C32 1_555 1_555
O4 C32 1_555 1_555
O5 C2 1_555 1_555
O6 C28 1_555 1_555
N1 H1 1_555 1_555
N2 C24 1_555 1_555
C1 C2 1_555 1_555
C2 C3 1_555 1_555
C3 H2 1_555 1_555
C4 C3 1_555 1_555
H3 C4 1_555 1_555
C5 C4 1_555 1_555
H4 C5 1_555 1_555
C6 C1 1_555 1_555
H5 C6 1_555 1_555
C7 C8 1_555 1_555
C8 H6 1_555 1_555
C9 C8 1_555 1_555
H7 C9 1_555 1_555
C10 C9 1_555 1_555
H8 C10 1_555 1_555
C11 C10 1_555 1_555
H9 C11 1_555 1_555
C12 C7 1_555 1_555
H10 C12 1_555 1_555
C13 C14 1_555 1_555
C14 H11 1_555 1_555
C15 C14 1_555 1_555
C16 C15 1_555 1_555
C17 C16 1_555 1_555
H12 C17 1_555 1_555
C18 C13 1_555 1_555
C19 N1 1_555 1_555
C20 N1 1_555 1_555
C21 C19 1_555 1_555
C22 C21 1_555 1_555
H13 C22 1_555 1_555
C23 C22 1_555 1_555
H14 C23 1_555 1_555
C24 C23 1_555 1_555
C25 C24 1_555 1_555
H15 C25 1_555 1_555
C26 C21 1_555 1_555
H16 C26 1_555 1_555
C27 N2 1_555 1_555
H17 C27 1_555 1_555
H18 C27 1_555 1_555
C28 C27 1_555 1_555
H19 C28 1_555 1_555
H20 C28 1_555 1_555
C29 O6 1_555 1_555
H21 C29 1_555 1_555
H22 C29 1_555 1_555
C30 N2 1_555 1_555
H23 C30 1_555 1_555
H24 C30 1_555 1_555
C31 C7 1_555 1_555
C32 C31 1_555 1_555
C33 O4 1_555 1_555
H25 C33 1_555 1_555
H26 C33 1_555 1_555
H27 C33 1_555 1_555
C34 C16 1_555 1_555
H28 C34 1_555 1_555
H29 C34 1_555 1_555
H30 C34 1_555 1_555
C35 C15 1_555 1_555
H31 C35 1_555 1_555
H32 C35 1_555 1_555
H33 C35 1_555 1_555
C36 O5 1_555 1_555
H34 C36 1_555 1_555
H35 C36 1_555 1_555
H36 C36 1_555 1_555
C37 O2 1_555 1_555
H37 C37 1_555 1_555
H38 C37 1_555 1_555
C1 C37 1_555 1_555
C5 C6 1_555 1_555
C11 C12 1_555 1_555
C13 C20 1_555 1_555
C17 C18 1_555 1_555
C18 C19 1_555 1_555
C19 C31 1_555 1_555
C25 C26 1_555 1_555
C29 C30 1_555 1_555

#END
