
#######################################################################
#
#                 Cambridge Crystallographic Data Centre
#                                CCDC 
#
#######################################################################
#
# If this CIF has been generated from an entry in the Cambridge 
# Structural Database, then it will include bibliographic, chemical, 
# crystal, experimental, refinement or atomic coordinate data resulting 
# from the CCDC's data processing and validation procedures.
#
#######################################################################

data_YESZAX
_chemical_formula_moiety         'C6 H4 I2,C12 H4 N4'
_chemical_name_systematic        '1,4-Di-iodobenzene tetracyanoquinodimethane'
_symmetry_cell_setting           triclinic
_symmetry_space_group_name_H-M   'P -1'
_symmetry_Int_Tables_number      2
_space_group_name_Hall           '-P 1'
loop_
_symmetry_equiv_pos_site_id
_symmetry_equiv_pos_as_xyz
1 x,y,z
2 -x,-y,-z
_cell_length_a                   7.6583(18)
_cell_length_b                   7.7821(14)
_cell_length_c                   7.8326(8)
_cell_angle_alpha                75.6449(13)
_cell_angle_beta                 96.474(17)
_cell_angle_gamma                99.379(13)
_cell_volume                     444.904
_exptl_crystal_colour            red
_chemical_melting_point          220deg.C(dec.)
_cell_formula_units_Z            1
loop_
_atom_site_label
_atom_site_type_symbol
_atom_site_fract_x
_atom_site_fract_y
_atom_site_fract_z
C1 C -1.4354(3) -0.6912(3) 1.2019(3)
N1 N -1.5504(3) -0.7454(3) 1.1589(3)
C2 C -1.2981(3) -0.6287(3) 1.4389(3)
N2 N -1.3055(3) -0.6300(3) 1.5863(3)
C3 C -1.2878(3) -0.6251(3) 1.2524(3)
C4 C -1.1454(3) -0.5631(3) 1.1278(3)
C5 C -1.1414(3) -0.5616(3) 0.9422(3)
C6 C -0.9967(3) -0.4988(3) 1.1792(3)
H1 H -1.2375(34) -0.5969(34) 0.9051(35)
H2 H -0.9963(36) -0.5038(35) 1.3051(39)
C6A C -1.0033(3) -0.5012(3) 0.8208(3)
C4A C -0.8546(3) -0.4369(3) 0.8722(3)
C3A C -0.7122(3) -0.3749(3) 0.7476(3)
C1A C -0.5646(3) -0.3088(3) 0.7981(3)
N1A N -0.4496(3) -0.2546(3) 0.8411(3)
C2A C -0.7019(3) -0.3713(3) 0.5611(3)
N2A N -0.6945(3) -0.3700(3) 0.4137(3)
C5A C -0.8586(3) -0.4384(3) 1.0578(3)
H1A H -0.7625(34) -0.4031(34) 1.0949(35)
H2A H -1.0037(36) -0.4962(35) 0.6949(39)
I1 I -0.2210(1) -0.1304(1) 0.4303(1)
C7 C -0.0870(3) -0.0497(3) 0.1707(3)
C8 C -0.1749(3) -0.0487(3) 0.0279(3)
C9 C 0.0857(3) -0.0024(3) 0.1450(3)
H3 H -0.3019(35) -0.0785(31) 0.0408(33)
H4 H 0.1483(36) -0.0047(33) 0.2384(37)
C9A C -0.0857(3) 0.0024(3) -0.1450(3)
C7A C 0.0870(3) 0.0497(3) -0.1707(3)
I1A I 0.2210(1) 0.1304(1) -0.4303(1)
C8A C 0.1749(3) 0.0487(3) -0.0279(3)
H3A H 0.3019(35) 0.0785(31) -0.0408(33)
H4A H -0.1483(36) 0.0047(33) -0.2384(37)
loop_
_geom_bond_atom_site_label_1
_geom_bond_atom_site_label_2
_geom_bond_site_symmetry_1
_geom_bond_site_symmetry_2
C1 N1 1_555 1_555
C2 N2 1_555 1_555
C3 C1 1_555 1_555
C4 C3 1_555 1_555
C5 C4 1_555 1_555
C6 C4 1_555 1_555
H1 C5 1_555 1_555
H2 C6 1_555 1_555
I1 C7 1_555 1_555
C7 C8 1_555 1_555
C8 H3 1_555 1_555
C9 C7 1_555 1_555
H4 C9 1_555 1_555
C6A C5 1_555 1_555
C4A C6A 1_555 1_555
C3A C4A 1_555 1_555
C1A C3A 1_555 1_555
N1A C1A 1_555 1_555
C2A C3A 1_555 1_555
N2A C2A 1_555 1_555
C5A C6 1_555 1_555
H1A C5A 1_555 1_555
H2A C6A 1_555 1_555
C9A C8 1_555 1_555
C7A C9A 1_555 1_555
I1A C7A 1_555 1_555
C8A C9 1_555 1_555
H3A C8A 1_555 1_555
H4A C9A 1_555 1_555
C2 C3 1_555 1_555
C4A C5A 1_555 1_555
C7A C8A 1_555 1_555

#END
