
#######################################################################
#
#                 Cambridge Crystallographic Data Centre
#                                CCDC 
#
#######################################################################
#
# If this CIF has been generated from an entry in the Cambridge 
# Structural Database, then it will include bibliographic, chemical, 
# crystal, experimental, refinement or atomic coordinate data resulting 
# from the CCDC's data processing and validation procedures.
#
#######################################################################

data_YETBOR
_chemical_formula_moiety         'C24 H15 N1 O1'
_chemical_name_systematic        
(E)-3-(pyren-1-yl)-1-(pyridin-4-yl)prop-2-en-1-one
_symmetry_cell_setting           monoclinic
_symmetry_space_group_name_H-M   'P 21/n'
_symmetry_Int_Tables_number      14
_space_group_name_Hall           '-P 2yn'
loop_
_symmetry_equiv_pos_site_id
_symmetry_equiv_pos_as_xyz
1 x,y,z
2 1/2-x,1/2+y,1/2-z
3 -x,-y,-z
4 1/2+x,1/2-y,1/2+z
_cell_length_a                   10.3161(3)
_cell_length_b                   5.53330(10)
_cell_length_c                   29.2019(7)
_cell_angle_alpha                90
_cell_angle_beta                 97.3410(10)
_cell_angle_gamma                90
_cell_volume                     1653.24
_exptl_crystal_colour            red
_exptl_crystal_description       block
_cell_formula_units_Z            4
loop_
_atom_site_label
_atom_site_type_symbol
_atom_site_fract_x
_atom_site_fract_y
_atom_site_fract_z
C1 C 1.13266(18) 0.4802(3) 0.69654(5)
H1 H 1.1843 0.6183 0.7000
C2 C 1.05016(17) 0.4520(3) 0.65563(5)
H2 H 1.0471 0.5692 0.6327
C3 C 0.97281(11) 0.2493(2) 0.64914(4)
C4 C 0.98248(14) 0.0860(3) 0.68488(5)
H3 H 0.9320 -0.0538 0.6824
C5 C 1.06724(16) 0.1301(3) 0.72436(5)
H4 H 1.0719 0.0166 0.7480
C6 C 0.88559(12) 0.1946(2) 0.60518(4)
C7 C 0.85779(12) 0.3846(2) 0.57063(4)
H5 H 0.8927 0.5378 0.5769
C8 C 0.78414(11) 0.3453(2) 0.53054(4)
H6 H 0.7435 0.1955 0.5266
C9 C 0.76119(11) 0.5157(2) 0.49218(4)
C10 C 0.84922(12) 0.7051(2) 0.48882(4)
H7 H 0.9188 0.7246 0.5121
C11 C 0.83639(13) 0.8630(2) 0.45240(5)
H8 H 0.8967 0.9874 0.4516
C12 C 0.73426(12) 0.8399(2) 0.41647(4)
C13 C 0.72046(15) 0.9974(3) 0.37723(5)
H9 H 0.7810 1.1207 0.3756
C14 C 0.62250(16) 0.9714(3) 0.34280(5)
H10 H 0.6167 1.0762 0.3177
C15 C 0.52691(13) 0.7862(3) 0.34387(4)
C16 C 0.42289(16) 0.7567(4) 0.30861(5)
H11 H 0.4145 0.8614 0.2835
C17 C 0.33301(16) 0.5749(4) 0.31061(5)
H12 H 0.2650 0.5575 0.2867
C18 C 0.34197(14) 0.4180(3) 0.34758(5)
H13 H 0.2801 0.2963 0.3483
C19 C 0.44338(12) 0.4404(3) 0.38405(4)
C20 C 0.45603(12) 0.2846(3) 0.42343(4)
H14 H 0.3938 0.1647 0.4254
C21 C 0.55567(12) 0.3066(2) 0.45787(4)
H15 H 0.5606 0.2014 0.4829
C22 C 0.65441(10) 0.4888(2) 0.45682(4)
C23 C 0.64225(11) 0.6509(2) 0.41870(4)
C24 C 0.53697(11) 0.6257(2) 0.38224(4)
N1 N 1.14263(13) 0.3243(2) 0.73074(4)
O1 O 0.84364(12) -0.01056(18) 0.59898(4)
loop_
_geom_bond_atom_site_label_1
_geom_bond_atom_site_label_2
_geom_bond_site_symmetry_1
_geom_bond_site_symmetry_2
C1 H1 1_555 1_555
C2 C1 1_555 1_555
H2 C2 1_555 1_555
C3 C2 1_555 1_555
C4 C3 1_555 1_555
H3 C4 1_555 1_555
C5 C4 1_555 1_555
H4 C5 1_555 1_555
C6 C3 1_555 1_555
C7 C6 1_555 1_555
H5 C7 1_555 1_555
C8 C7 1_555 1_555
H6 C8 1_555 1_555
C9 C8 1_555 1_555
C10 C9 1_555 1_555
H7 C10 1_555 1_555
C11 C10 1_555 1_555
H8 C11 1_555 1_555
C12 C11 1_555 1_555
C13 C12 1_555 1_555
H9 C13 1_555 1_555
C14 C13 1_555 1_555
H10 C14 1_555 1_555
C15 C14 1_555 1_555
C16 C15 1_555 1_555
H11 C16 1_555 1_555
C17 C16 1_555 1_555
H12 C17 1_555 1_555
C18 C17 1_555 1_555
H13 C18 1_555 1_555
C19 C18 1_555 1_555
C20 C19 1_555 1_555
H14 C20 1_555 1_555
C21 C20 1_555 1_555
H15 C21 1_555 1_555
C22 C9 1_555 1_555
C23 C12 1_555 1_555
C24 C15 1_555 1_555
N1 C1 1_555 1_555
O1 C6 1_555 1_555
C5 N1 1_555 1_555
C19 C24 1_555 1_555
C21 C22 1_555 1_555
C22 C23 1_555 1_555
C23 C24 1_555 1_555

#END
