
#######################################################################
#
#                 Cambridge Crystallographic Data Centre
#                                CCDC 
#
#######################################################################
#
# If this CIF has been generated from an entry in the Cambridge 
# Structural Database, then it will include bibliographic, chemical, 
# crystal, experimental, refinement or atomic coordinate data resulting 
# from the CCDC's data processing and validation procedures.
#
#######################################################################

data_YETDOT
_chemical_name_common            
3-(2-dimethylaminoethyl)-2,3-dihydro-2-thioxoquinazolin-4(1H)-one
_chemical_formula_moiety         'C12 H15 N3 O1 S1'
_chemical_name_systematic        
3-[2-(dimethylamino)ethyl]-2-sulfanylidene-2,3-dihydroquinazolin-4(1H)-one
_symmetry_cell_setting           monoclinic
_symmetry_space_group_name_H-M   'P 21/c'
_symmetry_Int_Tables_number      14
_space_group_name_Hall           '-P 2ybc'
loop_
_symmetry_equiv_pos_site_id
_symmetry_equiv_pos_as_xyz
1 x,y,z
2 -x,1/2+y,1/2-z
3 -x,-y,-z
4 x,1/2-y,1/2+z
_cell_length_a                   7.9840(18)
_cell_length_b                   11.331(3)
_cell_length_c                   14.428(3)
_cell_angle_alpha                90
_cell_angle_beta                 105.702(4)
_cell_angle_gamma                90
_cell_volume                     1256.54
_exptl_crystal_colour            colorless
_exptl_crystal_description       block
_cell_formula_units_Z            4
loop_
_atom_site_label
_atom_site_type_symbol
_atom_site_fract_x
_atom_site_fract_y
_atom_site_fract_z
S1 S 0.57030(15) 1.11873(11) 0.21409(9)
O1 O 0.9680(3) 0.8639(2) 0.45619(17)
C1 C 0.5051(4) 0.8952(3) 0.4105(2)
C2 C 0.3622(4) 0.8552(3) 0.4407(3)
H1 H 0.250769 0.882373 0.410690
C3 C 0.3882(5) 0.7765(3) 0.5141(3)
H2 H 0.293725 0.750004 0.534457
C4 C 0.5545(5) 0.7347(4) 0.5595(3)
H3 H 0.570238 0.680870 0.609802
C5 C 0.6945(5) 0.7729(3) 0.5301(3)
H4 H 0.805280 0.744517 0.559890
C6 C 0.6703(4) 0.8547(3) 0.4550(2)
C7 C 0.8196(5) 0.8984(3) 0.4233(3)
C8 C 0.6117(5) 1.0219(3) 0.3034(3)
C9 C 0.9268(4) 1.0319(3) 0.3199(3)
H5 H 1.028302 1.034825 0.374970
H6 H 0.899959 1.111834 0.296570
C10 C 0.9672(5) 0.9571(3) 0.2411(3)
H7 H 0.989744 0.876615 0.263877
H8 H 0.866494 0.956267 0.185492
C11 C 1.0824(5) 1.1182(4) 0.1667(3)
H9 H 1.182797 1.145382 0.148492
H10 H 0.985274 1.112557 0.110582
H11 H 1.055376 1.172852 0.211464
C12 C 1.1605(5) 0.9175(4) 0.1441(3)
H12 H 1.259153 0.945675 0.124542
H13 H 1.187266 0.842046 0.174734
H14 H 1.062522 0.909863 0.088575
N1 N 0.4818(4) 0.9755(3) 0.3365(2)
H15 H 0.377211 0.997961 0.309111
N2 N 0.7782(4) 0.9832(3) 0.3500(2)
N3 N 1.1185(4) 1.0018(2) 0.2121(2)
loop_
_geom_bond_atom_site_label_1
_geom_bond_atom_site_label_2
_geom_bond_site_symmetry_1
_geom_bond_site_symmetry_2
S1 C8 1_555 1_555
O1 C7 1_555 1_555
C1 C2 1_555 1_555
C2 H1 1_555 1_555
C3 C2 1_555 1_555
H2 C3 1_555 1_555
C4 C3 1_555 1_555
H3 C4 1_555 1_555
C5 C4 1_555 1_555
H4 C5 1_555 1_555
C6 C1 1_555 1_555
C7 C6 1_555 1_555
C8 N1 1_555 1_555
C9 H5 1_555 1_555
H6 C9 1_555 1_555
C10 C9 1_555 1_555
H7 C10 1_555 1_555
H8 C10 1_555 1_555
C11 H9 1_555 1_555
H10 C11 1_555 1_555
H11 C11 1_555 1_555
C12 H12 1_555 1_555
H13 C12 1_555 1_555
H14 C12 1_555 1_555
N1 C1 1_555 1_555
H15 N1 1_555 1_555
N2 C7 1_555 1_555
N3 C10 1_555 1_555
C5 C6 1_555 1_555
C8 N2 1_555 1_555
C9 N2 1_555 1_555
C11 N3 1_555 1_555
C12 N3 1_555 1_555

#END
