
#######################################################################
#
#                 Cambridge Crystallographic Data Centre
#                                CCDC 
#
#######################################################################
#
# If this CIF has been generated from an entry in the Cambridge 
# Structural Database, then it will include bibliographic, chemical, 
# crystal, experimental, refinement or atomic coordinate data resulting 
# from the CCDC's data processing and validation procedures.
#
#######################################################################

data_YETGAI
_chemical_formula_moiety         'C10 H10 N2 O3 S1'
_chemical_name_systematic        'ethyl (5-acetylthiophen-2-yl)(diazo)acetate'
_symmetry_cell_setting           monoclinic
_symmetry_space_group_name_H-M   'C 2/c'
_symmetry_Int_Tables_number      15
_space_group_name_Hall           '-C 2yn'
loop_
_symmetry_equiv_pos_site_id
_symmetry_equiv_pos_as_xyz
1 x,y,z
2 -x,y,1/2-z
3 1/2+x,1/2+y,z
4 1/2-x,1/2+y,1/2-z
5 -x,-y,-z
6 x,-y,1/2+z
7 1/2-x,1/2-y,-z
8 1/2+x,1/2-y,1/2+z
_cell_length_a                   13.0002(4)
_cell_length_b                   14.2549(5)
_cell_length_c                   12.1816(3)
_cell_angle_alpha                90
_cell_angle_beta                 95.601(2)
_cell_angle_gamma                90
_cell_volume                     2246.67
_exptl_crystal_colour            colorless
_exptl_crystal_description       block
_cell_formula_units_Z            8
loop_
_atom_site_label
_atom_site_type_symbol
_atom_site_fract_x
_atom_site_fract_y
_atom_site_fract_z
S1 S 0.14044(2) 0.02159(2) 0.79419(2)
N1 N 0.13090(7) 0.25662(7) 0.61799(7)
N2 N 0.13139(8) 0.30300(8) 0.54376(7)
O1 O 0.14282(6) -0.18010(6) 0.84884(6)
O2 O 0.13243(7) 0.20191(7) 0.89790(6)
O3 O 0.12442(6) 0.33954(6) 0.80513(6)
C1 C 0.11332(9) -0.24785(9) 0.66930(8)
H1 H 0.0414 -0.2517 0.6428
H2 H 0.1343 -0.3051 0.7065
H3 H 0.1536 -0.2384 0.6082
C2 C 0.12994(7) -0.16697(8) 0.74837(8)
C3 C 0.12815(7) -0.07192(8) 0.70369(7)
C4 C 0.11585(7) -0.04221(8) 0.59513(7)
H4 H 0.1076 -0.0829 0.5353
C5 C 0.11706(7) 0.05553(8) 0.58477(7)
H5 H 0.1107 0.0868 0.5175
C6 C 0.12885(7) 0.10042(8) 0.68617(7)
C7 C 0.13068(8) 0.20048(8) 0.70566(8)
C8 C 0.12930(8) 0.24586(9) 0.81220(8)
C9 C 0.12436(9) 0.38883(10) 0.91018(9)
H6 H 0.1903 0.3808 0.9537
H7 H 0.0704 0.3642 0.9518
C10 C 0.10548(11) 0.49012(11) 0.88486(12)
H8 H 0.1559 0.5124 0.8385
H9 H 0.1109 0.5254 0.9523
H10 H 0.0375 0.4978 0.8475
loop_
_geom_bond_atom_site_label_1
_geom_bond_atom_site_label_2
_geom_bond_site_symmetry_1
_geom_bond_site_symmetry_2
S1 C3 1_555 1_555
N1 N2 1_555 1_555
O1 C2 1_555 1_555
O2 C8 1_555 1_555
O3 C8 1_555 1_555
C1 H1 1_555 1_555
H2 C1 1_555 1_555
H3 C1 1_555 1_555
C2 C1 1_555 1_555
C3 C2 1_555 1_555
C4 C3 1_555 1_555
H4 C4 1_555 1_555
C5 C4 1_555 1_555
H5 C5 1_555 1_555
C6 S1 1_555 1_555
C7 N1 1_555 1_555
C8 C7 1_555 1_555
C9 O3 1_555 1_555
H6 C9 1_555 1_555
H7 C9 1_555 1_555
C10 C9 1_555 1_555
H8 C10 1_555 1_555
H9 C10 1_555 1_555
H10 C10 1_555 1_555
C5 C6 1_555 1_555
C6 C7 1_555 1_555

#END
