
#######################################################################
#
#                 Cambridge Crystallographic Data Centre
#                                CCDC 
#
#######################################################################
#
# If this CIF has been generated from an entry in the Cambridge 
# Structural Database, then it will include bibliographic, chemical, 
# crystal, experimental, refinement or atomic coordinate data resulting 
# from the CCDC's data processing and validation procedures.
#
#######################################################################

data_YETLER
_chemical_formula_moiety         '2(C24 H28 N1 O1 1+),C2 O4 2-,6(H2 O1)'
_chemical_name_systematic        
'bis(2-acetyl-3-methyl-1-phenyl-3-(2-phenylethenyl)hexahydro-1H-pyrrolizin-4-ium) oxalate hexahydrate'
_symmetry_cell_setting           monoclinic
_symmetry_space_group_name_H-M   'P 21/c'
_symmetry_Int_Tables_number      14
_space_group_name_Hall           '-P 2ybc'
loop_
_symmetry_equiv_pos_site_id
_symmetry_equiv_pos_as_xyz
1 x,y,z
2 -x,1/2+y,1/2-z
3 -x,-y,-z
4 x,1/2-y,1/2+z
_cell_length_a                   7.63220(10)
_cell_length_b                   30.2852(5)
_cell_length_c                   10.6754(2)
_cell_angle_alpha                90
_cell_angle_beta                 98.3550(10)
_cell_angle_gamma                90
_cell_volume                     2441.35
_exptl_crystal_colour            colorless
_exptl_crystal_description       prismatic
_cell_formula_units_Z            2
loop_
_atom_site_label
_atom_site_type_symbol
_atom_site_fract_x
_atom_site_fract_y
_atom_site_fract_z
N1 N 0.7054(2) 0.60498(5) 0.41995(14)
O1 O 1.2047(2) 0.65207(6) 0.63349(18)
C1 C 0.6248(3) 0.62453(7) 0.29550(18)
H1 H 0.5108 0.6112 0.2660
H2 H 0.7019 0.6203 0.2318
C2 C 0.6043(3) 0.67275(7) 0.3229(2)
H3 H 0.5160 0.6864 0.2603
H4 H 0.7157 0.6883 0.3251
C3 C 0.5444(3) 0.67215(7) 0.4528(2)
H5 H 0.4183 0.6665 0.4457
H6 H 0.5705 0.7000 0.4962
C4 C 0.6508(2) 0.63455(6) 0.52300(17)
H7 H 0.5758 0.6180 0.5735
C5 C 0.8237(2) 0.64742(6) 0.60527(16)
H8 H 0.8711 0.6736 0.5680
C6 C 0.9454(2) 0.60835(6) 0.58847(16)
H9 H 0.9045 0.5828 0.6326
C7 C 0.9105(2) 0.59899(6) 0.44378(17)
C8 C 0.9498(3) 0.55197(6) 0.4081(2)
H10 H 0.9036 0.5470 0.3206
H11 H 0.8950 0.5318 0.4600
H12 H 1.0755 0.5473 0.4209
C9 C 0.9981(2) 0.63308(6) 0.37034(17)
H13 H 1.0084 0.6615 0.4036
C10 C 1.0613(3) 0.62624(6) 0.26334(18)
H14 H 1.0577 0.5974 0.2332
C11 C 1.1371(2) 0.65983(7) 0.18700(18)
C12 C 1.1969(3) 0.64659(9) 0.0753(2)
H15 H 1.1916 0.6170 0.0521
C13 C 1.2641(3) 0.67738(10) -0.0010(2)
H16 H 1.3032 0.6683 -0.0753
C14 C 1.2735(3) 0.72084(10) 0.0316(3)
H17 H 1.3188 0.7413 -0.0203
C15 C 1.2154(3) 0.73448(8) 0.1422(3)
H18 H 1.2221 0.7641 0.1650
C16 C 1.1477(3) 0.70417(7) 0.2186(2)
H19 H 1.1084 0.7137 0.2926
C17 C 1.1391(3) 0.61645(7) 0.64033(19)
C18 C 1.2426(4) 0.57886(10) 0.7007(4)
H20 H 1.3622 0.5881 0.7286
H21 H 1.2426 0.5553 0.6406
H22 H 1.1903 0.5688 0.7721
C19 C 0.7975(2) 0.65847(6) 0.73963(17)
C20 C 0.8258(3) 0.70080(7) 0.7852(2)
H23 H 0.8645 0.7225 0.7338
C21 C 0.7969(4) 0.71143(9) 0.9073(2)
H24 H 0.8173 0.7401 0.9375
C22 C 0.7387(3) 0.68001(10) 0.9827(2)
H25 H 0.7181 0.6873 1.0640
C23 C 0.7106(4) 0.63788(10) 0.9394(2)
H26 H 0.6716 0.6164 0.9912
C24 C 0.7401(3) 0.62700(8) 0.8182(2)
H27 H 0.7210 0.5982 0.7893
H28 H 0.656(3) 0.5788(8) 0.426(2)
O2 O 0.4842(3) 0.53492(6) 0.37006(15)
O3 O 0.3411(2) 0.47270(5) 0.39427(15)
C25 C 0.4489(3) 0.50212(7) 0.43165(19)
O2B O 0.5158(3) 0.46508(6) 0.62994(15)
O3B O 0.6589(2) 0.52730(5) 0.60573(15)
C25B C 0.5511(3) 0.49788(7) 0.56835(19)
O4 O 0.0923(4) 0.48450(12) 0.1766(3)
H29 H 0.162(6) 0.4950(17) 0.128(4)
H30 H 0.169(5) 0.4842(15) 0.242(3)
O5 O 0.4655(4) 0.54192(9) 0.1109(2)
H31 H 0.5019 0.5135 0.1192
H32 H 0.4619 0.5323 0.1999
O6 O 0.7875(5) 0.52062(16) 0.0559(3)
H33 H 0.8707 0.5416 0.0850
H34 H 0.7496 0.5006 0.0963
loop_
_geom_bond_atom_site_label_1
_geom_bond_atom_site_label_2
_geom_bond_site_symmetry_1
_geom_bond_site_symmetry_2
N1 C1 1_555 1_555
O1 C17 1_555 1_555
C1 H1 1_555 1_555
H2 C1 1_555 1_555
C2 C1 1_555 1_555
H3 C2 1_555 1_555
H4 C2 1_555 1_555
C3 C2 1_555 1_555
H5 C3 1_555 1_555
H6 C3 1_555 1_555
C4 N1 1_555 1_555
H7 C4 1_555 1_555
C5 C4 1_555 1_555
H8 C5 1_555 1_555
C6 C5 1_555 1_555
H9 C6 1_555 1_555
C7 N1 1_555 1_555
C8 C7 1_555 1_555
H10 C8 1_555 1_555
H11 C8 1_555 1_555
H12 C8 1_555 1_555
C9 C7 1_555 1_555
H13 C9 1_555 1_555
C10 C9 1_555 1_555
H14 C10 1_555 1_555
C11 C10 1_555 1_555
C12 C11 1_555 1_555
H15 C12 1_555 1_555
C13 C12 1_555 1_555
H16 C13 1_555 1_555
C14 C13 1_555 1_555
H17 C14 1_555 1_555
C15 C14 1_555 1_555
H18 C15 1_555 1_555
C16 C11 1_555 1_555
H19 C16 1_555 1_555
C17 C6 1_555 1_555
C18 C17 1_555 1_555
H20 C18 1_555 1_555
H21 C18 1_555 1_555
H22 C18 1_555 1_555
C19 C5 1_555 1_555
C20 C19 1_555 1_555
H23 C20 1_555 1_555
C21 C20 1_555 1_555
H24 C21 1_555 1_555
C22 C21 1_555 1_555
H25 C22 1_555 1_555
C23 C22 1_555 1_555
H26 C23 1_555 1_555
C24 C19 1_555 1_555
H27 C24 1_555 1_555
H28 N1 1_555 1_555
O2 C25 1_555 1_555
O3 C25 1_555 1_555
C25 C25B 1_555 1_555
O4 H29 1_555 1_555
H30 O4 1_555 1_555
O5 H31 1_555 1_555
H32 O5 1_555 1_555
O6 H33 1_555 1_555
H34 O6 1_555 1_555
O2B C25B 1_555 1_555
O3B C25B 1_555 1_555
C3 C4 1_555 1_555
C6 C7 1_555 1_555
C15 C16 1_555 1_555
C23 C24 1_555 1_555

#END
