
#######################################################################
#
#                 Cambridge Crystallographic Data Centre
#                                CCDC 
#
#######################################################################
#
# If this CIF has been generated from an entry in the Cambridge 
# Structural Database, then it will include bibliographic, chemical, 
# crystal, experimental, refinement or atomic coordinate data resulting 
# from the CCDC's data processing and validation procedures.
#
#######################################################################

data_YETLAN
_chemical_formula_moiety         'C24 H26 Br2 N1 O2 1+,C2 H1 O4 1-,4(H2 O1)'
_chemical_name_systematic        
'2-acetyl-1-(4-bromophenyl)-3-[2-(4-bromophenyl)ethenyl]-6-hydroxy-3-methylhexahydro-1H-pyrrolizin-4-ium hydrogen ethanedioate tetrahydrate'
_symmetry_cell_setting           monoclinic
_symmetry_space_group_name_H-M   'P 21'
_symmetry_Int_Tables_number      4
_space_group_name_Hall           'P 2yb'
loop_
_symmetry_equiv_pos_site_id
_symmetry_equiv_pos_as_xyz
1 x,y,z
2 -x,1/2+y,-z
_cell_length_a                   8.7829(3)
_cell_length_b                   11.0463(4)
_cell_length_c                   15.6938(5)
_cell_angle_alpha                90
_cell_angle_beta                 100.5090(10)
_cell_angle_gamma                90
_cell_volume                     1497.05
_exptl_crystal_colour            colorless
_exptl_crystal_description       prismatic
_cell_formula_units_Z            2
loop_
_atom_site_label
_atom_site_type_symbol
_atom_site_fract_x
_atom_site_fract_y
_atom_site_fract_z
Br1 Br -0.21784(8) -0.12914(5) 0.03855(4)
Br2 Br 0.43850(9) 1.12934(6) 0.06054(6)
N1 N 0.4195(5) 0.4740(4) 0.3078(3)
O1 O 0.7530(5) 0.4287(5) 0.3174(3)
H1 H 0.7865 0.3791 0.3551
O2 O -0.0060(5) 0.5910(5) 0.1430(3)
C1 C 0.2411(5) 0.4811(4) 0.2981(3)
C2 C 0.2119(5) 0.6084(4) 0.2556(3)
H2 H 0.2411 0.6700 0.3005
C3 C 0.3247(5) 0.6159(4) 0.1914(3)
H3 H 0.2840 0.5659 0.1408
C4 C 0.4713(6) 0.5569(5) 0.2404(3)
H4 H 0.5394 0.6198 0.2703
C5 C 0.5660(7) 0.4733(6) 0.1926(4)
H5 H 0.5013 0.4370 0.1424
H6 H 0.6498 0.5172 0.1739
C6 C 0.6286(6) 0.3776(7) 0.2594(4)
H7 H 0.6608 0.3048 0.2317
C7 C 0.4922(6) 0.3519(5) 0.3028(4)
H8 H 0.4204 0.2962 0.2686
H9 H 0.5259 0.3180 0.3602
C8 C 0.2002(7) 0.4745(5) 0.3882(3)
H10 H 0.0899 0.4796 0.3836
H11 H 0.2485 0.5404 0.4228
H12 H 0.2364 0.3991 0.4150
C9 C 0.0441(6) 0.6280(5) 0.2138(3)
C10 C -0.0562(9) 0.6956(9) 0.2646(5)
H13 H -0.1583 0.7037 0.2307
H14 H -0.0132 0.7745 0.2790
H15 H -0.0618 0.6521 0.3169
C11 C 0.1683(5) 0.3824(4) 0.2384(3)
H16 H 0.1829 0.3849 0.1812
C12 C 0.0848(6) 0.2920(4) 0.2610(3)
H17 H 0.0702 0.2911 0.3182
C13 C 0.0133(5) 0.1934(4) 0.2054(3)
C14 C 0.0375(7) 0.1758(5) 0.1217(3)
H18 H 0.0999 0.2298 0.0983
C15 C -0.0289(6) 0.0798(5) 0.0722(3)
H19 H -0.0101 0.0682 0.0163
C16 C -0.1230(6) 0.0019(4) 0.1064(3)
C17 C -0.1504(7) 0.0163(5) 0.1886(3)
H20 H -0.2147 -0.0372 0.2110
C18 C -0.0810(6) 0.1117(5) 0.2380(3)
H21 H -0.0981 0.1212 0.2944
C19 C 0.3487(6) 0.7434(4) 0.1606(3)
C20 C 0.4142(8) 0.8316(5) 0.2162(4)
H22 H 0.4440 0.8130 0.2746
C21 C 0.4379(9) 0.9491(6) 0.1882(4)
H23 H 0.4819 1.0085 0.2271
C22 C 0.3946(6) 0.9739(5) 0.1021(4)
C23 C 0.3278(7) 0.8891(6) 0.0449(4)
H24 H 0.2971 0.9085 -0.0134
C24 C 0.3055(6) 0.7725(5) 0.0744(4)
H25 H 0.2609 0.7137 0.0353
H26 H 0.452(7) 0.502(6) 0.356(2)
O3 O 0.8867(7) 0.4952(8) 0.5326(5)
O4 O 0.9250(6) 0.6926(7) 0.5095(4)
H27 H 0.9970 0.6890 0.5508
O5 O 0.5789(5) 0.5342(5) 0.4736(3)
O6 O 0.6374(6) 0.7183(6) 0.4344(4)
C25 C 0.8412(8) 0.5973(7) 0.5080(4)
C26 C 0.6710(7) 0.6187(7) 0.4685(4)
O7 O 0.3423(9) 0.8013(7) 0.4382(5)
H28 H 0.356(7) 0.874(3) 0.447(4)
H29 H 0.437(4) 0.796(8) 0.443(5)
O8 O 0.2098(7) 0.7228(8) 0.5652(4)
H30 H 0.2495 0.6588 0.5819
H31 H 0.2599 0.7515 0.5271
O9 O 0.3932(10) 0.5624(10) 0.6125(5)
H32 H 0.5099 0.5503 0.6391
H33 H 0.4800 0.5472 0.5771
O10 O 0.1773(11) 0.4170(7) 0.6031(4)
H34 H 0.190(10) 0.342(3) 0.599(6)
H35 H 0.246(12) 0.440(8) 0.576(9)
loop_
_geom_bond_atom_site_label_1
_geom_bond_atom_site_label_2
_geom_bond_site_symmetry_1
_geom_bond_site_symmetry_2
Br1 C16 1_555 1_555
Br2 C22 1_555 1_555
N1 C1 1_555 1_555
O1 H1 1_555 1_555
O2 C9 1_555 1_555
C1 C2 1_555 1_555
C2 H2 1_555 1_555
C3 C2 1_555 1_555
H3 C3 1_555 1_555
C4 N1 1_555 1_555
H4 C4 1_555 1_555
C5 C4 1_555 1_555
H5 C5 1_555 1_555
H6 C5 1_555 1_555
C6 O1 1_555 1_555
H7 C6 1_555 1_555
C7 N1 1_555 1_555
H8 C7 1_555 1_555
H9 C7 1_555 1_555
C8 C1 1_555 1_555
H10 C8 1_555 1_555
H11 C8 1_555 1_555
H12 C8 1_555 1_555
C9 C2 1_555 1_555
C10 C9 1_555 1_555
H13 C10 1_555 1_555
H14 C10 1_555 1_555
H15 C10 1_555 1_555
C11 C1 1_555 1_555
H16 C11 1_555 1_555
C12 C11 1_555 1_555
H17 C12 1_555 1_555
C13 C12 1_555 1_555
C14 C13 1_555 1_555
H18 C14 1_555 1_555
C15 C14 1_555 1_555
H19 C15 1_555 1_555
C16 C15 1_555 1_555
C17 C16 1_555 1_555
H20 C17 1_555 1_555
C18 C13 1_555 1_555
H21 C18 1_555 1_555
C19 C3 1_555 1_555
C20 C19 1_555 1_555
H22 C20 1_555 1_555
C21 C20 1_555 1_555
H23 C21 1_555 1_555
C22 C21 1_555 1_555
C23 C22 1_555 1_555
H24 C23 1_555 1_555
C24 C19 1_555 1_555
H25 C24 1_555 1_555
H26 N1 1_555 1_555
O3 C25 1_555 1_555
O4 H27 1_555 1_555
O5 C26 1_555 1_555
O6 C26 1_555 1_555
C25 O4 1_555 1_555
C26 C25 1_555 1_555
O7 H28 1_555 1_555
H29 O7 1_555 1_555
O8 H30 1_555 1_555
H31 O8 1_555 1_555
O9 H32 1_555 1_555
H33 O9 1_555 1_555
O10 H34 1_555 1_555
H35 O10 1_555 1_555
C3 C4 1_555 1_555
C5 C6 1_555 1_555
C6 C7 1_555 1_555
C17 C18 1_555 1_555
C23 C24 1_555 1_555

#END
