
#######################################################################
#
#                 Cambridge Crystallographic Data Centre
#                                CCDC 
#
#######################################################################
#
# If this CIF has been generated from an entry in the Cambridge 
# Structural Database, then it will include bibliographic, chemical, 
# crystal, experimental, refinement or atomic coordinate data resulting 
# from the CCDC's data processing and validation procedures.
#
#######################################################################

data_YETLUH
_chemical_name_common            
'ethyl (E)-5-((2-(3-hydroxybenzoyl)hydrazono)methyl)-3,4-dimethyl-1H-pyrrole-2-carboxylate ethanol solvate monohydrate'
_chemical_formula_moiety         'C17 H19 N3 O4,C2 H6 O1,H2 O1'
_chemical_name_systematic        
'ethyl (E)-5-{[2-(3-hydroxybenzene-1-carbonyl)hydrazinylidene]methyl}-3,4-dimethyl-1H-pyrrole-2-carboxylate ethanol solvate monohydrate'
_symmetry_cell_setting           monoclinic
_symmetry_space_group_name_H-M   'P 21/c'
_symmetry_Int_Tables_number      14
_space_group_name_Hall           '-P 2ybc'
loop_
_symmetry_equiv_pos_site_id
_symmetry_equiv_pos_as_xyz
1 x,y,z
2 -x,1/2+y,1/2-z
3 -x,-y,-z
4 x,1/2-y,1/2+z
_cell_length_a                   8.132(7)
_cell_length_b                   8.762(7)
_cell_length_c                   30.22(3)
_cell_angle_alpha                90
_cell_angle_beta                 97.189(17)
_cell_angle_gamma                90
_cell_volume                     2136.33
_exptl_crystal_colour            yellow
_exptl_crystal_description       block
_cell_formula_units_Z            4
loop_
_atom_site_label
_atom_site_type_symbol
_atom_site_fract_x
_atom_site_fract_y
_atom_site_fract_z
C1 C 0.5981(5) 0.8544(4) -0.18148(11)
C2 C 0.5596(4) 0.8496(4) -0.13786(11)
H1 H 0.5822 0.9338 -0.1193
C3 C 0.4878(4) 0.7207(4) -0.12173(10)
C4 C 0.4535(5) 0.5971(4) -0.14994(11)
H2 H 0.4057 0.5097 -0.1396
C5 C 0.4902(5) 0.6031(4) -0.19332(13)
H3 H 0.4658 0.5197 -0.2120
C6 C 0.5624(5) 0.7310(4) -0.20940(12)
H4 H 0.5866 0.7338 -0.2387
C7 C 0.4481(4) 0.7248(4) -0.07476(11)
C8 C 0.2483(4) 0.4881(4) -0.00558(11)
H5 H 0.2235 0.4081 -0.0255
C9 C 0.1968(4) 0.4803(4) 0.03805(11)
C10 C 0.1143(4) 0.3620(4) 0.05735(12)
C11 C 0.0916(4) 0.4093(4) 0.10099(12)
C12 C 0.1620(4) 0.5535(4) 0.10701(11)
C13 C 0.0613(5) 0.2121(4) 0.03588(13)
H6 H 0.0073 0.1517 0.0563
H7 H 0.1568 0.1585 0.0283
H8 H -0.0142 0.2304 0.0094
C14 C 0.0115(5) 0.3159(4) 0.13413(13)
H9 H -0.0262 0.2208 0.1207
H10 H -0.0811 0.3709 0.1430
H11 H 0.0907 0.2963 0.1598
C15 C 0.1899(5) 0.6550(5) 0.14460(12)
C16 C 0.1547(6) 0.6922(5) 0.22089(13)
H12 H 0.1026 0.7916 0.2166
H13 H 0.2728 0.7071 0.2290
C17 C 0.0846(9) 0.6081(6) 0.25646(17)
H14 H 0.1035 0.6649 0.2838
H15 H 0.1371 0.5101 0.2605
H16 H -0.0324 0.5947 0.2482
O1 O 0.6687(4) 0.9779(4) -0.19876(9)
O2 O 0.4790(3) 0.8375(3) -0.05045(7)
O3 O 0.2662(4) 0.7751(3) 0.14453(8)
O4 O 0.1246(3) 0.6038(3) 0.18027(8)
N1 N 0.3728(3) 0.6013(3) -0.06004(8)
H17 H 0.3528 0.5225 -0.0768
N2 N 0.3281(3) 0.6040(3) -0.01734(8)
N3 N 0.2244(3) 0.5938(3) 0.06838(9)
H18 H 0.2737 0.6784 0.0642
H19 H 0.696(6) 1.055(6) -0.1778(16)
C18 C 0.1626(9) 0.0942(7) -0.1169(3)
H20 H 0.0985 0.0505 -0.1427
H21 H 0.0895 0.1324 -0.0969
H22 H 0.2336 0.0176 -0.1021
C19 C 0.2548(7) 0.2089(7) -0.1297(2)
H23 H 0.1848 0.2770 -0.1491
H24 H 0.3385 0.1678 -0.1466
O5 O 0.3347(4) 0.2944(3) -0.09225(10)
H25 H 0.4099 0.2433 -0.0790
O6 O 0.5850(4) 1.1381(3) -0.04310(7)
H26 H 0.5731 1.0418 -0.0446
H27 H 0.5791 1.1677 -0.0166
loop_
_geom_bond_atom_site_label_1
_geom_bond_atom_site_label_2
_geom_bond_site_symmetry_1
_geom_bond_site_symmetry_2
C1 C2 1_555 1_555
C2 H1 1_555 1_555
C3 C2 1_555 1_555
C4 C3 1_555 1_555
H2 C4 1_555 1_555
C5 C4 1_555 1_555
H3 C5 1_555 1_555
C6 C1 1_555 1_555
H4 C6 1_555 1_555
C7 C3 1_555 1_555
C8 H5 1_555 1_555
C9 C8 1_555 1_555
C10 C9 1_555 1_555
C11 C10 1_555 1_555
C12 C11 1_555 1_555
C13 C10 1_555 1_555
H6 C13 1_555 1_555
H7 C13 1_555 1_555
H8 C13 1_555 1_555
C14 C11 1_555 1_555
H9 C14 1_555 1_555
H10 C14 1_555 1_555
H11 C14 1_555 1_555
C15 C12 1_555 1_555
C16 H12 1_555 1_555
H13 C16 1_555 1_555
C17 C16 1_555 1_555
H14 C17 1_555 1_555
H15 C17 1_555 1_555
H16 C17 1_555 1_555
O1 C1 1_555 1_555
O2 C7 1_555 1_555
O3 C15 1_555 1_555
O4 C15 1_555 1_555
N1 C7 1_555 1_555
H17 N1 1_555 1_555
N2 C8 1_555 1_555
N3 C9 1_555 1_555
H18 N3 1_555 1_555
H19 O1 1_555 1_555
C18 H20 1_555 1_555
H21 C18 1_555 1_555
H22 C18 1_555 1_555
C19 C18 1_555 1_555
H23 C19 1_555 1_555
H24 C19 1_555 1_555
O5 C19 1_555 1_555
H25 O5 1_555 1_555
O6 H26 1_555 1_555
H27 O6 1_555 1_555
C5 C6 1_555 1_555
C12 N3 1_555 1_555
C16 O4 1_555 1_555
N1 N2 1_555 1_555

#END
