
#######################################################################
#
#                 Cambridge Crystallographic Data Centre
#                                CCDC 
#
#######################################################################
#
# If this CIF has been generated from an entry in the Cambridge 
# Structural Database, then it will include bibliographic, chemical, 
# crystal, experimental, refinement or atomic coordinate data resulting 
# from the CCDC's data processing and validation procedures.
#
#######################################################################

data_YETMUI
_chemical_compound_source        'isolated from Callistemon rigidus'
_chemical_name_common            'viminalin B'
_chemical_formula_moiety         'C21 H28 O5'
_chemical_name_systematic        
1-[6-hydroxy-4-methoxy-8a-methyl-2-(propan-2-yl)-1a,2,3,3a,8a,8b-hexahydro-1,8-dioxacyclopropa[a]fluoren-7-yl]-2-methylpropan-1-one
_symmetry_cell_setting           monoclinic
_symmetry_space_group_name_H-M   'P 21'
_symmetry_Int_Tables_number      4
_space_group_name_Hall           'P 2yb'
loop_
_symmetry_equiv_pos_site_id
_symmetry_equiv_pos_as_xyz
1 x,y,z
2 -x,1/2+y,-z
_cell_length_a                   7.48087(9)
_cell_length_b                   22.1683(2)
_cell_length_c                   11.52385(13)
_cell_angle_alpha                90
_cell_angle_beta                 90.1036(10)
_cell_angle_gamma                90
_cell_volume                     1911.09
_exptl_crystal_colour            colorless
_exptl_crystal_description       blocks
_cell_formula_units_Z            4
loop_
_atom_site_label
_atom_site_type_symbol
_atom_site_fract_x
_atom_site_fract_y
_atom_site_fract_z
O1 O -0.2323(4) 0.32925(12) 0.3936(2)
O2 O -0.2436(4) 0.54223(13) 0.3362(3)
H1 H -0.193074 0.568783 0.299142
O3 O 0.0026(4) 0.58976(12) 0.2155(3)
O4 O 0.0734(4) 0.33617(12) -0.0388(2)
O5 O 0.1923(3) 0.41325(11) 0.1525(2)
C1 C -0.1673(5) 0.38087(17) 0.3455(3)
C2 C -0.2414(5) 0.43802(17) 0.3651(3)
H2 H -0.341469 0.442168 0.412105
C3 C -0.1648(5) 0.48828(17) 0.3140(3)
C4 C -0.0086(5) 0.48504(17) 0.2435(3)
C5 C 0.2344(5) 0.32940(16) 0.0287(3)
H3 H 0.345981 0.339818 -0.011050
C6 C 0.1403(5) 0.27607(17) -0.0157(3)
H4 H 0.196349 0.255058 -0.081014
C7 C 0.0314(5) 0.23762(17) 0.0665(3)
H5 H -0.060980 0.217224 0.020584
C8 C -0.0632(5) 0.27896(17) 0.1533(3)
H6 H -0.132707 0.254339 0.206177
H7 H -0.145662 0.304815 0.111412
C9 C 0.0796(5) 0.54017(17) 0.2029(3)
C10 C 0.2643(6) 0.53943(18) 0.1492(3)
H8 H 0.332977 0.506062 0.182816
C11 C 0.3617(6) 0.59865(19) 0.1742(4)
H9 H 0.482684 0.595894 0.147052
H10 H 0.361729 0.606145 0.256234
H11 H 0.301877 0.631107 0.134958
C12 C 0.2470(6) 0.5295(2) 0.0189(4)
H12 H 0.184620 0.492417 0.004597
H13 H 0.363907 0.527535 -0.015100
H14 H 0.181582 0.562396 -0.014916
C13 C 0.4032(5) 0.3383(2) 0.2149(4)
H15 H 0.429109 0.295938 0.220076
H16 H 0.398150 0.355193 0.291515
H17 H 0.495271 0.358026 0.171208
C14 C 0.1511(5) 0.18834(17) 0.1215(3)
H18 H 0.244890 0.208341 0.166845
C15 C 0.2413(7) 0.1496(2) 0.0281(4)
H19 H 0.295983 0.115092 0.063773
H20 H 0.331066 0.173046 -0.010738
H21 H 0.153402 0.136506 -0.027180
C16 C 0.0449(7) 0.14809(19) 0.2026(4)
H22 H 0.001962 0.171518 0.266871
H23 H 0.120253 0.116246 0.230897
H24 H -0.054714 0.131065 0.161463
C17 C -0.3517(5) 0.33525(19) 0.4903(3)
H25 H -0.297045 0.360001 0.548781
H26 H -0.376792 0.296101 0.521924
H27 H -0.461098 0.353665 0.464827
C18 C 0.0531(5) 0.42579(17) 0.2235(3)
C19 C 0.2235(5) 0.34722(16) 0.1544(3)
C20 C 0.0660(5) 0.31891(16) 0.2248(3)
H28 H 0.114586 0.295344 0.289492
C21 C -0.0232(5) 0.37470(16) 0.2714(3)
O6 O 0.6565(4) 0.46732(12) 0.8935(2)
O7 O 0.6417(4) 0.25366(12) 0.8543(3)
H29 H 0.587803 0.227067 0.819266
O8 O 0.4170(4) 0.20726(13) 0.7174(3)
O9 O 0.3415(4) 0.46232(12) 0.4470(2)
O10 O 0.2457(3) 0.38589(11) 0.6408(2)
C22 C 0.5918(5) 0.41579(17) 0.8481(3)
C23 C 0.6534(5) 0.35807(17) 0.8745(3)
H30 H 0.747144 0.353227 0.926766
C24 C 0.5760(5) 0.30790(17) 0.8235(3)
C25 C 0.4311(5) 0.31202(16) 0.7423(3)
C26 C 0.1927(5) 0.47220(17) 0.5239(3)
H31 H 0.074163 0.466309 0.489486
C27 C 0.2950(5) 0.52403(16) 0.4787(3)
H32 H 0.235991 0.548178 0.418550
C28 C 0.4259(5) 0.55679(16) 0.5551(3)
H33 H 0.520568 0.573113 0.505476
C29 C 0.5117(5) 0.51147(17) 0.6392(3)
H34 H 0.578958 0.481987 0.595000
H35 H 0.594941 0.532670 0.689293
C30 C 0.3554(5) 0.25767(17) 0.6905(3)
C31 C 0.1991(5) 0.25981(17) 0.6061(3)
H36 H 0.206821 0.297162 0.560927
C32 C 0.0251(6) 0.2606(2) 0.6761(4)
H37 H 0.017923 0.224845 0.722777
H38 H -0.075034 0.261994 0.623887
H39 H 0.023272 0.295527 0.725356
C33 C 0.2052(6) 0.2062(2) 0.5226(4)
H40 H 0.312938 0.208001 0.477615
H41 H 0.103561 0.207630 0.471776
H42 H 0.203051 0.169264 0.566168
C34 C 0.0384(5) 0.45947(19) 0.7128(3)
H43 H -0.057449 0.441378 0.669590
H44 H 0.014819 0.501716 0.722899
H45 H 0.047669 0.440433 0.787384
C35 C 0.3302(5) 0.61023(18) 0.6135(3)
H46 H 0.220955 0.594724 0.649573
C36 C 0.2752(6) 0.65758(18) 0.5233(4)
H47 H 0.218101 0.690847 0.561527
H48 H 0.193702 0.639826 0.468643
H49 H 0.379444 0.671722 0.483089
C37 C 0.4435(6) 0.63973(19) 0.7092(4)
H50 H 0.459280 0.611772 0.772005
H51 H 0.383820 0.675213 0.737097
H52 H 0.558091 0.650661 0.678340
C38 C 0.7698(5) 0.46263(19) 0.9936(3)
H53 H 0.706346 0.442618 1.054899
H54 H 0.804059 0.502268 1.018744
H55 H 0.874697 0.439849 0.974264
C39 C 0.3772(5) 0.37192(16) 0.7181(3)
C40 C 0.2124(5) 0.45141(16) 0.6473(3)
C41 C 0.3742(5) 0.47858(16) 0.7143(3)
H56 H 0.331198 0.505581 0.775524
C42 C 0.4518(5) 0.42244(16) 0.7676(3)
loop_
_geom_bond_atom_site_label_1
_geom_bond_atom_site_label_2
_geom_bond_site_symmetry_1
_geom_bond_site_symmetry_2
O1 C1 1_555 1_555
O2 H1 1_555 1_555
O3 C9 1_555 1_555
O4 C5 1_555 1_555
O5 C18 1_555 1_555
C1 C2 1_555 1_555
C2 H2 1_555 1_555
C3 O2 1_555 1_555
C4 C3 1_555 1_555
C5 H3 1_555 1_555
C6 O4 1_555 1_555
H4 C6 1_555 1_555
C7 C6 1_555 1_555
H5 C7 1_555 1_555
C8 C7 1_555 1_555
H6 C8 1_555 1_555
H7 C8 1_555 1_555
C9 C4 1_555 1_555
C10 C9 1_555 1_555
H8 C10 1_555 1_555
C11 C10 1_555 1_555
H9 C11 1_555 1_555
H10 C11 1_555 1_555
H11 C11 1_555 1_555
C12 C10 1_555 1_555
H12 C12 1_555 1_555
H13 C12 1_555 1_555
H14 C12 1_555 1_555
C13 H15 1_555 1_555
H16 C13 1_555 1_555
H17 C13 1_555 1_555
C14 C7 1_555 1_555
H18 C14 1_555 1_555
C15 C14 1_555 1_555
H19 C15 1_555 1_555
H20 C15 1_555 1_555
H21 C15 1_555 1_555
C16 C14 1_555 1_555
H22 C16 1_555 1_555
H23 C16 1_555 1_555
H24 C16 1_555 1_555
C17 O1 1_555 1_555
H25 C17 1_555 1_555
H26 C17 1_555 1_555
H27 C17 1_555 1_555
C18 C4 1_555 1_555
C19 O5 1_555 1_555
C20 C8 1_555 1_555
H28 C20 1_555 1_555
C21 C1 1_555 1_555
O6 C22 1_555 1_555
O7 H29 1_555 1_555
O8 C30 1_555 1_555
O9 C26 1_555 1_555
O10 C39 1_555 1_555
C22 C23 1_555 1_555
C23 H30 1_555 1_555
C24 O7 1_555 1_555
C25 C24 1_555 1_555
C26 H31 1_555 1_555
C27 O9 1_555 1_555
H32 C27 1_555 1_555
C28 C27 1_555 1_555
H33 C28 1_555 1_555
C29 C28 1_555 1_555
H34 C29 1_555 1_555
H35 C29 1_555 1_555
C30 C25 1_555 1_555
C31 C30 1_555 1_555
H36 C31 1_555 1_555
C32 C31 1_555 1_555
H37 C32 1_555 1_555
H38 C32 1_555 1_555
H39 C32 1_555 1_555
C33 C31 1_555 1_555
H40 C33 1_555 1_555
H41 C33 1_555 1_555
H42 C33 1_555 1_555
C34 H43 1_555 1_555
H44 C34 1_555 1_555
H45 C34 1_555 1_555
C35 C28 1_555 1_555
H46 C35 1_555 1_555
C36 C35 1_555 1_555
H47 C36 1_555 1_555
H48 C36 1_555 1_555
H49 C36 1_555 1_555
C37 C35 1_555 1_555
H50 C37 1_555 1_555
H51 C37 1_555 1_555
H52 C37 1_555 1_555
C38 O6 1_555 1_555
H53 C38 1_555 1_555
H54 C38 1_555 1_555
H55 C38 1_555 1_555
C39 C25 1_555 1_555
C40 O10 1_555 1_555
C41 C29 1_555 1_555
H56 C41 1_555 1_555
C42 C22 1_555 1_555
C2 C3 1_555 1_555
C5 C6 1_555 1_555
C5 C19 1_555 1_555
C13 C19 1_555 1_555
C18 C21 1_555 1_555
C19 C20 1_555 1_555
C20 C21 1_555 1_555
C23 C24 1_555 1_555
C26 C27 1_555 1_555
C26 C40 1_555 1_555
C34 C40 1_555 1_555
C39 C42 1_555 1_555
C40 C41 1_555 1_555
C41 C42 1_555 1_555

#END
