
#######################################################################
#
#                 Cambridge Crystallographic Data Centre
#                                CCDC 
#
#######################################################################
#
# If this CIF has been generated from an entry in the Cambridge 
# Structural Database, then it will include bibliographic, chemical, 
# crystal, experimental, refinement or atomic coordinate data resulting 
# from the CCDC's data processing and validation procedures.
#
#######################################################################

data_YETNAP
_chemical_compound_source        'isolated from Callistemon rigidus'
_chemical_name_common            'viminalin N'
_chemical_formula_moiety         'C21 H28 O4'
_chemical_name_systematic        
1-[3-hydroxy-1-methoxy-6-methyl-9-(propan-2-yl)-5a,8,9,9a-tetrahydrodibenzo[b,d]furan-4-yl]-2-methylpropan-1-one
_symmetry_cell_setting           orthorhombic
_symmetry_space_group_name_H-M   'P 21 21 21'
_symmetry_Int_Tables_number      19
_space_group_name_Hall           'P 2ac 2ab'
loop_
_symmetry_equiv_pos_site_id
_symmetry_equiv_pos_as_xyz
1 x,y,z
2 1/2-x,-y,1/2+z
3 -x,1/2+y,1/2-z
4 1/2+x,1/2-y,-z
_cell_length_a                   11.1617(4)
_cell_length_b                   11.3469(3)
_cell_length_c                   15.3512(5)
_cell_angle_alpha                90
_cell_angle_beta                 90
_cell_angle_gamma                90
_cell_volume                     1944.24
_exptl_crystal_colour            colorless
_exptl_crystal_description       blocks
_cell_formula_units_Z            4
loop_
_atom_site_label
_atom_site_type_symbol
_atom_site_fract_x
_atom_site_fract_y
_atom_site_fract_z
O1 O 0.69327(15) 0.91923(12) 0.31676(12)
H1 H 0.734710 0.959813 0.349093
O2 O 0.87161(16) 0.97346(12) 0.40910(10)
O3 O 0.68773(12) 0.54166(12) 0.18113(10)
O4 O 1.00148(12) 0.62562(11) 0.36485(9)
C1 C 0.73408(18) 0.62265(17) 0.23673(13)
C2 C 0.68683(19) 0.73430(17) 0.25092(14)
H2 H 0.616355 0.756783 0.223206
C3 C 0.74486(19) 0.81252(16) 0.30656(14)
C4 C 0.85360(18) 0.78413(16) 0.34989(13)
C5 C 1.10077(18) 0.43500(18) 0.36935(13)
C6 C 1.0617(2) 0.32680(18) 0.38424(14)
H3 H 1.113461 0.274631 0.411972
C7 C 0.9404(2) 0.28266(17) 0.35959(15)
H4 H 0.911520 0.229241 0.404228
H5 H 0.945795 0.239145 0.305340
C8 C 0.85158(18) 0.38434(16) 0.34888(12)
H6 H 0.848239 0.424866 0.405199
C9 C 0.9126(2) 0.87146(17) 0.40497(13)
C10 C 1.0198(2) 0.84025(19) 0.46023(15)
H7 H 1.074584 0.791706 0.425569
C11 C 1.0868(3) 0.9495(3) 0.4914(2)
H8 H 1.033260 0.999001 0.523903
H9 H 1.116765 0.992198 0.441946
H10 H 1.152524 0.926225 0.527821
C12 C 0.9751(3) 0.7673(2) 0.53786(16)
H11 H 0.933002 0.699133 0.516893
H12 H 0.922032 0.814317 0.572717
H13 H 1.042135 0.742693 0.572530
C13 C 1.2203(2) 0.4808(2) 0.39878(16)
H14 H 1.260677 0.421074 0.431960
H15 H 1.208767 0.549409 0.434362
H16 H 1.267746 0.501055 0.348851
C14 C 0.72334(19) 0.34421(17) 0.32848(13)
H17 H 0.675076 0.415572 0.320637
C15 C 0.7116(2) 0.2722(2) 0.24511(15)
H18 H 0.628391 0.259466 0.232470
H19 H 0.750890 0.197593 0.252572
H20 H 0.748221 0.314140 0.197766
C16 C 0.6703(2) 0.27741(19) 0.40560(17)
H21 H 0.705376 0.200268 0.408688
H22 H 0.585215 0.270373 0.398186
H23 H 0.686985 0.319548 0.458453
C17 C 0.5796(2) 0.5704(2) 0.1355(2)
H24 H 0.592532 0.639387 0.100458
H25 H 0.516793 0.585499 0.176678
H26 H 0.557188 0.505696 0.098661
C18 C 0.89637(17) 0.66877(16) 0.33243(12)
C19 C 1.02748(17) 0.51698(16) 0.31471(12)
H27 H 1.074785 0.538781 0.263408
C20 C 0.90460(17) 0.47283(15) 0.28354(12)
H28 H 0.910569 0.437768 0.225359
C21 C 0.83863(17) 0.58891(15) 0.28011(12)
loop_
_geom_bond_atom_site_label_1
_geom_bond_atom_site_label_2
_geom_bond_site_symmetry_1
_geom_bond_site_symmetry_2
O1 H1 1_555 1_555
O2 C9 1_555 1_555
O3 C1 1_555 1_555
O4 C18 1_555 1_555
C1 C2 1_555 1_555
C2 H2 1_555 1_555
C3 O1 1_555 1_555
C4 C3 1_555 1_555
C5 C6 1_555 1_555
C6 H3 1_555 1_555
C7 C6 1_555 1_555
H4 C7 1_555 1_555
H5 C7 1_555 1_555
C8 C7 1_555 1_555
H6 C8 1_555 1_555
C9 C4 1_555 1_555
C10 C9 1_555 1_555
H7 C10 1_555 1_555
C11 C10 1_555 1_555
H8 C11 1_555 1_555
H9 C11 1_555 1_555
H10 C11 1_555 1_555
C12 C10 1_555 1_555
H11 C12 1_555 1_555
H12 C12 1_555 1_555
H13 C12 1_555 1_555
C13 C5 1_555 1_555
H14 C13 1_555 1_555
H15 C13 1_555 1_555
H16 C13 1_555 1_555
C14 C8 1_555 1_555
H17 C14 1_555 1_555
C15 C14 1_555 1_555
H18 C15 1_555 1_555
H19 C15 1_555 1_555
H20 C15 1_555 1_555
C16 C14 1_555 1_555
H21 C16 1_555 1_555
H22 C16 1_555 1_555
H23 C16 1_555 1_555
C17 O3 1_555 1_555
H24 C17 1_555 1_555
H25 C17 1_555 1_555
H26 C17 1_555 1_555
C18 C4 1_555 1_555
C19 O4 1_555 1_555
H27 C19 1_555 1_555
C20 C8 1_555 1_555
H28 C20 1_555 1_555
C21 C1 1_555 1_555
C2 C3 1_555 1_555
C5 C19 1_555 1_555
C18 C21 1_555 1_555
C19 C20 1_555 1_555
C20 C21 1_555 1_555

#END
