
#######################################################################
#
#                 Cambridge Crystallographic Data Centre
#                                CCDC 
#
#######################################################################
#
# If this CIF has been generated from an entry in the Cambridge 
# Structural Database, then it will include bibliographic, chemical, 
# crystal, experimental, refinement or atomic coordinate data resulting 
# from the CCDC's data processing and validation procedures.
#
#######################################################################

data_YETNIX
_chemical_compound_source        'isolated from Callistemon rigidus'
_chemical_name_common            'viminalin L'
_chemical_formula_moiety         'C22 H30 O4'
_chemical_name_systematic        
1-[3-hydroxy-1-methoxy-5a-methyl-8-(propan-2-yl)-5a,8,9,9a-tetrahydrodibenzo[b,d]furan-4-yl]-3-methylbutan-1-one
_symmetry_cell_setting           orthorhombic
_symmetry_space_group_name_H-M   'P 21 21 21'
_symmetry_Int_Tables_number      19
_space_group_name_Hall           'P 2ac 2ab'
loop_
_symmetry_equiv_pos_site_id
_symmetry_equiv_pos_as_xyz
1 x,y,z
2 1/2-x,-y,1/2+z
3 -x,1/2+y,1/2-z
4 1/2+x,1/2-y,-z
_cell_length_a                   8.87979(13)
_cell_length_b                   12.7869(2)
_cell_length_c                   17.5805(3)
_cell_angle_alpha                90
_cell_angle_beta                 90
_cell_angle_gamma                90
_cell_volume                     1996.18
_exptl_crystal_colour            colorless
_exptl_crystal_description       blocks
_cell_formula_units_Z            4
_exptl_crystal_recrystallization_method methanol
loop_
_atom_site_label
_atom_site_type_symbol
_atom_site_fract_x
_atom_site_fract_y
_atom_site_fract_z
O1 O 0.71387(18) 0.62271(11) 0.56929(9)
O2 O 0.9662(2) 0.81783(13) 0.76164(9)
H1 H 1.007656 0.874420 0.768135
O3 O 1.0436(2) 1.00181(14) 0.73426(10)
O4 O 0.84018(18) 0.96435(12) 0.51576(9)
C1 C 0.7808(3) 0.71121(16) 0.59658(13)
C2 C 0.8449(3) 0.71973(18) 0.66812(13)
H2 H 0.844910 0.662757 0.701006
C3 C 0.9091(3) 0.81353(19) 0.69041(13)
C4 C 0.9149(3) 0.90317(18) 0.64255(13)
C5 C 0.7711(3) 0.96730(19) 0.38252(14)
H3 H 0.779378 1.039215 0.375832
C6 C 0.7987(3) 0.90601(19) 0.32372(14)
H4 H 0.812697 0.937608 0.276599
C7 C 0.8093(3) 0.78847(18) 0.32752(13)
H5 H 0.711280 0.759716 0.312795
C8 C 0.8398(3) 0.75653(18) 0.41017(13)
H6 H 0.831669 0.681123 0.414554
H7 H 0.941894 0.776093 0.423618
C9 C 0.9819(3) 0.99965(19) 0.67073(14)
C10 C 0.9808(3) 1.0986(2) 0.62530(15)
H8 H 0.982929 1.157952 0.659673
H9 H 0.888265 1.102339 0.596135
C11 C 1.1133(4) 1.1053(2) 0.57185(15)
H10 H 1.117193 1.041365 0.541209
C12 C 1.2610(4) 1.1176(3) 0.6135(2)
H11 H 1.341626 1.122562 0.577358
H12 H 1.276996 1.058052 0.645800
H13 H 1.258105 1.179920 0.643926
C13 C 1.0910(6) 1.1991(3) 0.5187(2)
H14 H 1.079690 1.261642 0.548424
H15 H 1.002249 1.188545 0.488466
H16 H 1.176934 1.205956 0.485986
C14 C 0.5777(3) 0.9732(2) 0.48387(16)
H17 H 0.554721 0.949593 0.534381
H18 H 0.499908 0.950815 0.449621
H19 H 0.583741 1.048178 0.483439
C15 C 0.9277(3) 0.7470(2) 0.27108(14)
H20 H 1.020683 0.786735 0.279184
C16 C 0.8789(4) 0.7641(3) 0.18864(15)
H21 H 0.957120 0.740577 0.155045
H22 H 0.860551 0.837178 0.180257
H23 H 0.788412 0.725297 0.178850
C17 C 0.9646(4) 0.6317(2) 0.28226(17)
H24 H 0.873533 0.591349 0.280064
H25 H 1.011680 0.621997 0.330914
H26 H 1.031937 0.608979 0.242839
C18 C 0.6983(3) 0.53639(18) 0.62060(14)
H27 H 0.796158 0.510285 0.633873
H28 H 0.641099 0.481897 0.596573
H29 H 0.647045 0.559130 0.665760
C19 C 0.8479(2) 0.88853(17) 0.57026(13)
C20 C 0.7273(3) 0.92753(17) 0.45883(14)
C21 C 0.7308(3) 0.80748(17) 0.46590(12)
H30 H 0.629373 0.778510 0.459587
C22 C 0.7819(3) 0.79631(17) 0.54705(12)
loop_
_geom_bond_atom_site_label_1
_geom_bond_atom_site_label_2
_geom_bond_site_symmetry_1
_geom_bond_site_symmetry_2
O1 C1 1_555 1_555
O2 H1 1_555 1_555
O3 C9 1_555 1_555
O4 C19 1_555 1_555
C1 C2 1_555 1_555
C2 H2 1_555 1_555
C3 O2 1_555 1_555
C4 C3 1_555 1_555
C5 H3 1_555 1_555
C6 C5 1_555 1_555
H4 C6 1_555 1_555
C7 C6 1_555 1_555
H5 C7 1_555 1_555
C8 C7 1_555 1_555
H6 C8 1_555 1_555
H7 C8 1_555 1_555
C9 C4 1_555 1_555
C10 C9 1_555 1_555
H8 C10 1_555 1_555
H9 C10 1_555 1_555
C11 C10 1_555 1_555
H10 C11 1_555 1_555
C12 C11 1_555 1_555
H11 C12 1_555 1_555
H12 C12 1_555 1_555
H13 C12 1_555 1_555
C13 C11 1_555 1_555
H14 C13 1_555 1_555
H15 C13 1_555 1_555
H16 C13 1_555 1_555
C14 H17 1_555 1_555
H18 C14 1_555 1_555
H19 C14 1_555 1_555
C15 C7 1_555 1_555
H20 C15 1_555 1_555
C16 C15 1_555 1_555
H21 C16 1_555 1_555
H22 C16 1_555 1_555
H23 C16 1_555 1_555
C17 C15 1_555 1_555
H24 C17 1_555 1_555
H25 C17 1_555 1_555
H26 C17 1_555 1_555
C18 O1 1_555 1_555
H27 C18 1_555 1_555
H28 C18 1_555 1_555
H29 C18 1_555 1_555
C19 C4 1_555 1_555
C20 O4 1_555 1_555
C21 C8 1_555 1_555
H30 C21 1_555 1_555
C22 C1 1_555 1_555
C2 C3 1_555 1_555
C5 C20 1_555 1_555
C14 C20 1_555 1_555
C19 C22 1_555 1_555
C20 C21 1_555 1_555
C21 C22 1_555 1_555

#END
