
#######################################################################
#
#                 Cambridge Crystallographic Data Centre
#                                CCDC 
#
#######################################################################
#
# If this CIF has been generated from an entry in the Cambridge 
# Structural Database, then it will include bibliographic, chemical, 
# crystal, experimental, refinement or atomic coordinate data resulting 
# from the CCDC's data processing and validation procedures.
#
#######################################################################

data_YETPOF
_chemical_compound_source        'isolated from Callistemon rigidus'
_chemical_name_common            'viminalin C'
_chemical_formula_moiety         'C22 H30 O5'
_chemical_name_systematic        
1-[6-hydroxy-4-methoxy-8a-methyl-2-(propan-2-yl)-1a,2,3,3a,8a,8b-hexahydro-1,8-dioxacyclopropa[a]fluoren-7-yl]-2-methylbutan-1-one
_symmetry_cell_setting           orthorhombic
_symmetry_space_group_name_H-M   'P 21 21 21'
_symmetry_Int_Tables_number      19
_space_group_name_Hall           'P 2ac 2ab'
loop_
_symmetry_equiv_pos_site_id
_symmetry_equiv_pos_as_xyz
1 x,y,z
2 1/2-x,-y,1/2+z
3 -x,1/2+y,1/2-z
4 1/2+x,1/2-y,-z
_cell_length_a                   7.52430(10)
_cell_length_b                   12.3365(2)
_cell_length_c                   22.0854(2)
_cell_angle_alpha                90
_cell_angle_beta                 90
_cell_angle_gamma                90
_cell_volume                     2050.04
_exptl_crystal_colour            colorless
_exptl_crystal_description       block
_cell_formula_units_Z            4
loop_
_atom_site_label
_atom_site_type_symbol
_atom_site_fract_x
_atom_site_fract_y
_atom_site_fract_z
O1 O 0.49532(17) 0.58936(11) 0.62131(5)
H1 H 0.462267 0.622076 0.591015
O2 O 0.29971(17) 0.71076(12) 0.55887(5)
O3 O 0.44150(16) 0.59854(9) 0.83575(5)
O4 O 0.11417(17) 1.01085(9) 0.79978(5)
O5 O 0.07217(14) 0.82051(9) 0.72400(5)
C1 C 0.3939(2) 0.63142(12) 0.77929(7)
C2 C 0.4725(2) 0.59275(13) 0.72641(7)
H2 H 0.562653 0.541306 0.728421
C3 C 0.4153(2) 0.63156(13) 0.67060(7)
C4 C 0.2785(2) 0.71112(13) 0.66473(7)
C5 C -0.0330(2) 0.93662(13) 0.80224(7)
H3 H -0.147359 0.964998 0.788143
C6 C 0.0374(2) 0.98525(13) 0.85807(7)
H4 H -0.035743 1.042034 0.876570
C7 C 0.1525(2) 0.92052(13) 0.90081(7)
H5 H 0.234123 0.971434 0.920466
C8 C 0.2655(2) 0.84097(13) 0.86400(7)
H6 H 0.338229 0.798570 0.891466
H7 H 0.344625 0.881589 0.837769
C9 C 0.2263(2) 0.74938(14) 0.60440(7)
C10 C 0.0798(2) 0.83193(14) 0.59574(7)
H8 H 0.086397 0.885283 0.628537
C11 C 0.1017(3) 0.89081(16) 0.53516(7)
H9 H 0.213718 0.928014 0.534546
H10 H 0.007076 0.942279 0.530224
H11 H 0.097910 0.839056 0.502722
C12 C -0.0989(2) 0.77154(13) 0.60016(7)
H12 H -0.112411 0.725028 0.565048
H13 H -0.097959 0.725745 0.635861
C13 C -0.2560(3) 0.84775(17) 0.60364(10)
H14 H -0.240958 0.896091 0.637316
H15 H -0.363135 0.806559 0.608947
H16 H -0.263675 0.888983 0.566869
C14 C -0.1664(2) 0.75548(14) 0.78627(8)
H17 H -0.248814 0.788327 0.758613
H18 H -0.216800 0.754777 0.826203
H19 H -0.142260 0.682491 0.773636
C15 C 0.0378(2) 0.86852(13) 0.95109(7)
H20 H -0.041393 0.815355 0.932149
C16 C -0.0775(3) 0.95311(14) 0.98358(8)
H21 H -0.128321 0.921486 1.019333
H22 H -0.170942 0.976574 0.957038
H23 H -0.005442 1.014152 0.994703
C17 C 0.1537(3) 0.80911(16) 0.99722(8)
H24 H 0.240120 0.858362 1.013549
H25 H 0.213472 0.749866 0.977726
H26 H 0.080437 0.781801 1.029360
C18 C 0.5772(2) 0.51732(14) 0.84024(8)
H27 H 0.540436 0.453549 0.818703
H28 H 0.596449 0.499590 0.882050
H29 H 0.685486 0.544450 0.822971
C19 C 0.20441(19) 0.74568(12) 0.72019(7)
C20 C 0.0052(2) 0.82001(13) 0.78683(6)
C21 C 0.15239(19) 0.76370(12) 0.82516(7)
H30 H 0.097622 0.709026 0.851393
C22 C 0.2571(2) 0.70764(12) 0.77602(7)
loop_
_geom_bond_atom_site_label_1
_geom_bond_atom_site_label_2
_geom_bond_site_symmetry_1
_geom_bond_site_symmetry_2
O1 H1 1_555 1_555
O2 C9 1_555 1_555
O3 C1 1_555 1_555
O4 C5 1_555 1_555
O5 C19 1_555 1_555
C1 C2 1_555 1_555
C2 H2 1_555 1_555
C3 O1 1_555 1_555
C4 C3 1_555 1_555
C5 H3 1_555 1_555
C6 O4 1_555 1_555
H4 C6 1_555 1_555
C7 C6 1_555 1_555
H5 C7 1_555 1_555
C8 C7 1_555 1_555
H6 C8 1_555 1_555
H7 C8 1_555 1_555
C9 C4 1_555 1_555
C10 C9 1_555 1_555
H8 C10 1_555 1_555
C11 C10 1_555 1_555
H9 C11 1_555 1_555
H10 C11 1_555 1_555
H11 C11 1_555 1_555
C12 C10 1_555 1_555
H12 C12 1_555 1_555
H13 C12 1_555 1_555
C13 C12 1_555 1_555
H14 C13 1_555 1_555
H15 C13 1_555 1_555
H16 C13 1_555 1_555
C14 H17 1_555 1_555
H18 C14 1_555 1_555
H19 C14 1_555 1_555
C15 C7 1_555 1_555
H20 C15 1_555 1_555
C16 C15 1_555 1_555
H21 C16 1_555 1_555
H22 C16 1_555 1_555
H23 C16 1_555 1_555
C17 C15 1_555 1_555
H24 C17 1_555 1_555
H25 C17 1_555 1_555
H26 C17 1_555 1_555
C18 O3 1_555 1_555
H27 C18 1_555 1_555
H28 C18 1_555 1_555
H29 C18 1_555 1_555
C19 C4 1_555 1_555
C20 O5 1_555 1_555
C21 C8 1_555 1_555
H30 C21 1_555 1_555
C22 C1 1_555 1_555
C2 C3 1_555 1_555
C5 C6 1_555 1_555
C5 C20 1_555 1_555
C14 C20 1_555 1_555
C19 C22 1_555 1_555
C20 C21 1_555 1_555
C21 C22 1_555 1_555

#END
