
#######################################################################
#
#                 Cambridge Crystallographic Data Centre
#                                CCDC 
#
#######################################################################
#
# If this CIF has been generated from an entry in the Cambridge 
# Structural Database, then it will include bibliographic, chemical, 
# crystal, experimental, refinement or atomic coordinate data resulting 
# from the CCDC's data processing and validation procedures.
#
#######################################################################

data_YETPIX
_chemical_formula_moiety         'C38 H36 N1 P1'
_chemical_name_systematic        
(2,6-Di-isopropylphenylimino)-diphenyl-(9-phenanthrenyl)phosphorane
_symmetry_cell_setting           monoclinic
_symmetry_space_group_name_H-M   'C 2/c'
_symmetry_Int_Tables_number      15
_space_group_name_Hall           '-C 2yn'
loop_
_symmetry_equiv_pos_site_id
_symmetry_equiv_pos_as_xyz
1 x,y,z
2 1/2+x,1/2+y,z
3 -x,y,1/2-z
4 1/2-x,1/2+y,1/2-z
5 -x,-y,-z
6 1/2-x,1/2-y,-z
7 x,-y,1/2+z
8 1/2+x,1/2-y,1/2+z
_cell_length_a                   38.6653(18)
_cell_length_b                   9.8651(5)
_cell_length_c                   31.7316(14)
_cell_angle_alpha                90
_cell_angle_beta                 97.8460(10)
_cell_angle_gamma                90
_cell_volume                     11990.3
_exptl_crystal_colour            white
_exptl_crystal_description       block
_cell_formula_units_Z            16
_exptl_crystal_recrystallization_method hexane/dichloromethane
_exptl_crystal_preparation       luminescent
loop_
_atom_site_label
_atom_site_type_symbol
_atom_site_fract_x
_atom_site_fract_y
_atom_site_fract_z
P1 P 0.10995(2) 0.07503(9) 0.39877(3)
N1 N 0.09761(7) 0.1927(3) 0.42583(9)
C1 C 0.13573(8) -0.0605(3) 0.42721(10)
C2 C 0.12575(9) -0.1921(4) 0.42176(11)
H1 H 0.1062 -0.2127 0.4012
C3 C 0.14327(9) -0.3015(3) 0.44564(10)
C4 C 0.13107(10) -0.4346(4) 0.43953(12)
H2 H 0.1123 -0.4533 0.4177
C5 C 0.14587(11) -0.5393(4) 0.46483(13)
H3 H 0.1373 -0.6293 0.4608
C6 C 0.17363(11) -0.5098(4) 0.49637(13)
H4 H 0.1837 -0.5808 0.5142
C7 C 0.18676(10) -0.3810(4) 0.50232(12)
H5 H 0.2061 -0.3649 0.5236
C8 C 0.17187(9) -0.2715(3) 0.47710(11)
C9 C 0.18468(9) -0.1335(4) 0.48197(10)
C10 C 0.21442(10) -0.0998(4) 0.51023(11)
H6 H 0.2266 -0.1695 0.5267
C11 C 0.22651(10) 0.0311(4) 0.51484(11)
H7 H 0.2470 0.0509 0.5340
C12 C 0.20862(9) 0.1348(4) 0.49123(11)
H8 H 0.2166 0.2257 0.4948
C13 C 0.17953(9) 0.1056(4) 0.46279(11)
H9 H 0.1679 0.1767 0.4464
C14 C 0.16662(9) -0.0281(3) 0.45753(10)
C15 C 0.13921(9) 0.1419(3) 0.36416(10)
C16 C 0.16289(10) 0.0552(4) 0.34786(11)
H10 H 0.1633 -0.0385 0.3548
C17 C 0.18563(11) 0.1059(5) 0.32170(12)
H11 H 0.2018 0.0472 0.3109
C18 C 0.18483(10) 0.2428(5) 0.31119(12)
H12 H 0.2005 0.2770 0.2932
C19 C 0.16151(11) 0.3295(4) 0.32663(12)
H13 H 0.1611 0.4230 0.3193
C20 C 0.13872(10) 0.2789(4) 0.35287(11)
H14 H 0.1225 0.3383 0.3633
C21 C 0.07472(9) -0.0104(4) 0.36570(11)
C22 C 0.07134(11) -0.0048(4) 0.32114(12)
H15 H 0.0890 0.0376 0.3077
C23 C 0.04264(13) -0.0601(5) 0.29661(15)
H16 H 0.0404 -0.0537 0.2665
C24 C 0.01731(12) -0.1242(5) 0.31559(15)
H17 H -0.0021 -0.1645 0.2986
C25 C 0.01995(11) -0.1303(4) 0.35933(15)
H18 H 0.0021 -0.1734 0.3723
C26 C 0.04829(10) -0.0744(4) 0.38436(13)
H19 H 0.0499 -0.0793 0.4145
C27 C 0.06671(9) 0.1925(4) 0.44579(11)
C28 C 0.06707(10) 0.1417(4) 0.48741(12)
C29 C 0.03594(11) 0.1414(4) 0.50545(12)
H20 H 0.0359 0.1045 0.5331
C30 C 0.00525(11) 0.1938(4) 0.48383(13)
H21 H -0.0157 0.1919 0.4963
C31 C 0.00558(10) 0.2487(4) 0.44404(13)
H22 H -0.0153 0.2871 0.4297
C32 C 0.03545(9) 0.2497(4) 0.42411(12)
C33 C 0.09995(10) 0.0862(4) 0.51282(12)
H23 H 0.1190 0.0940 0.4945
C34 C 0.11128(13) 0.1697(5) 0.55313(14)
H24 H 0.1326 0.1306 0.5687
H25 H 0.0927 0.1683 0.5713
H26 H 0.1158 0.2634 0.5452
C35 C 0.09708(12) -0.0615(4) 0.52401(15)
H27 H 0.0898 -0.1139 0.4981
H28 H 0.0798 -0.0723 0.5436
H29 H 0.1198 -0.0944 0.5376
C36 C 0.03443(10) 0.3146(4) 0.38050(12)
H30 H 0.0562 0.2881 0.3689
C37 C 0.00337(12) 0.2669(5) 0.34908(14)
H31 H 0.0039 0.1679 0.3468
H32 H 0.0047 0.3073 0.3211
H33 H -0.0184 0.2950 0.3592
C38 C 0.03411(13) 0.4687(5) 0.38451(15)
H34 H 0.0541 0.4980 0.4048
H35 H 0.0124 0.4975 0.3947
H36 H 0.0355 0.5096 0.3567
P2 P 0.12985(2) 0.40809(10) 0.15552(3)
N2 N 0.13116(9) 0.5270(3) 0.18677(10)
C39 C 0.17159(9) 0.3644(4) 0.13795(11)
C40 C 0.18406(9) 0.2349(4) 0.14282(11)
H37 H 0.1698 0.1683 0.1536
C41 C 0.21728(9) 0.1943(4) 0.13266(11)
C42 C 0.22869(11) 0.0588(4) 0.13827(13)
H38 H 0.2139 -0.0061 0.1489
C43 C 0.26047(11) 0.0194(4) 0.12876(13)
H39 H 0.2678 -0.0721 0.1328
C44 C 0.28226(11) 0.1152(4) 0.11287(12)
H40 H 0.3044 0.0878 0.1060
C45 C 0.27206(10) 0.2472(4) 0.10722(11)
H41 H 0.2872 0.3103 0.0965
C46 C 0.23945(9) 0.2916(4) 0.11707(10)
C47 C 0.22691(9) 0.4304(4) 0.11158(10)
C48 C 0.24711(10) 0.5325(4) 0.09522(11)
H42 H 0.2694 0.5097 0.0880
C49 C 0.23552(11) 0.6618(4) 0.08957(12)
H43 H 0.2500 0.7284 0.0793
C50 C 0.20228(10) 0.6978(4) 0.09876(11)
H44 H 0.1941 0.7882 0.0944
C51 C 0.18176(10) 0.6011(4) 0.11414(11)
H45 H 0.1591 0.6252 0.1200
C52 C 0.19362(9) 0.4665(4) 0.12145(10)
C53 C 0.10150(9) 0.4499(4) 0.10718(11)
C54 C 0.10618(10) 0.3944(4) 0.06796(12)
H46 H 0.1251 0.3344 0.0661
C55 C 0.08356(11) 0.4259(4) 0.03165(13)
H47 H 0.0867 0.3855 0.0053
C56 C 0.05666(11) 0.5153(4) 0.03363(13)
H48 H 0.0414 0.5382 0.0086
C57 C 0.05184(11) 0.5719(4) 0.07215(14)
H49 H 0.0330 0.6329 0.0735
C58 C 0.07414(10) 0.5408(4) 0.10889(12)
H50 H 0.0708 0.5815 0.1352
C59 C 0.11473(9) 0.2447(4) 0.17323(11)
C60 C 0.12876(11) 0.1988(4) 0.21310(12)
H51 H 0.1439 0.2560 0.2313
C61 C 0.12094(13) 0.0696(5) 0.22685(15)
H52 H 0.1312 0.0384 0.2540
C62 C 0.09851(14) -0.0123(5) 0.20125(16)
H53 H 0.0932 -0.1006 0.2105
C63 C 0.08355(13) 0.0343(5) 0.16174(15)
H54 H 0.0675 -0.0216 0.1443
C64 C 0.09170(11) 0.1616(4) 0.14723(13)
H55 H 0.0817 0.1919 0.1198
C65 C 0.13239(9) 0.5697(4) 0.22858(11)
C66 C 0.16234(10) 0.6408(4) 0.24805(11)
C67 C 0.16234(11) 0.6955(4) 0.28856(12)
H56 H 0.1824 0.7424 0.3017
C68 C 0.13374(12) 0.6828(5) 0.30993(13)
H57 H 0.1340 0.7215 0.3374
C69 C 0.10335(10) 0.5551(4) 0.25081(11)
C70 C 0.10476(11) 0.6136(4) 0.29111(12)
H58 H 0.0851 0.6053 0.3060
C71 C 0.19378(10) 0.6562(4) 0.22527(12)
H59 H 0.1849 0.6515 0.1942
C72 C 0.21853(14) 0.5384(6) 0.23457(19)
H60 H 0.2387 0.5510 0.2194
H61 H 0.2065 0.4540 0.2252
H62 H 0.2264 0.5338 0.2652
C73 C 0.21232(17) 0.7902(6) 0.2323(2)
H63 H 0.1955 0.8641 0.2260
H64 H 0.2304 0.7969 0.2135
H65 H 0.2232 0.7967 0.2620
C74 C 0.06990(10) 0.4845(4) 0.23157(12)
H66 H 0.0746 0.4409 0.2045
C75 C 0.05892(13) 0.3737(5) 0.25989(14)
H67 H 0.0781 0.3090 0.2666
H68 H 0.0384 0.3267 0.2452
H69 H 0.0531 0.4137 0.2863
C76 C 0.04098(11) 0.5892(5) 0.22008(14)
H70 H 0.0195 0.5430 0.2077
H71 H 0.0481 0.6535 0.1994
H72 H 0.0368 0.6380 0.2458
loop_
_geom_bond_atom_site_label_1
_geom_bond_atom_site_label_2
_geom_bond_site_symmetry_1
_geom_bond_site_symmetry_2
P1 N1 1_555 1_555
N1 C27 1_555 1_555
C1 P1 1_555 1_555
C2 C1 1_555 1_555
H1 C2 1_555 1_555
C3 C2 1_555 1_555
C4 C3 1_555 1_555
H2 C4 1_555 1_555
C5 C4 1_555 1_555
H3 C5 1_555 1_555
C6 C5 1_555 1_555
H4 C6 1_555 1_555
C7 C6 1_555 1_555
H5 C7 1_555 1_555
C8 C3 1_555 1_555
C9 C8 1_555 1_555
C10 C9 1_555 1_555
H6 C10 1_555 1_555
C11 C10 1_555 1_555
H7 C11 1_555 1_555
C12 C11 1_555 1_555
H8 C12 1_555 1_555
C13 C12 1_555 1_555
H9 C13 1_555 1_555
C14 C1 1_555 1_555
C15 P1 1_555 1_555
C16 C15 1_555 1_555
H10 C16 1_555 1_555
C17 C16 1_555 1_555
H11 C17 1_555 1_555
C18 C17 1_555 1_555
H12 C18 1_555 1_555
C19 C18 1_555 1_555
H13 C19 1_555 1_555
C20 C15 1_555 1_555
H14 C20 1_555 1_555
C21 P1 1_555 1_555
C22 C21 1_555 1_555
H15 C22 1_555 1_555
C23 C22 1_555 1_555
H16 C23 1_555 1_555
C24 C23 1_555 1_555
H17 C24 1_555 1_555
C25 C24 1_555 1_555
H18 C25 1_555 1_555
C26 C21 1_555 1_555
H19 C26 1_555 1_555
C27 C28 1_555 1_555
C28 C29 1_555 1_555
C29 H20 1_555 1_555
C30 C29 1_555 1_555
H21 C30 1_555 1_555
C31 C30 1_555 1_555
H22 C31 1_555 1_555
C32 C27 1_555 1_555
C33 C28 1_555 1_555
H23 C33 1_555 1_555
C34 C33 1_555 1_555
H24 C34 1_555 1_555
H25 C34 1_555 1_555
H26 C34 1_555 1_555
C35 C33 1_555 1_555
H27 C35 1_555 1_555
H28 C35 1_555 1_555
H29 C35 1_555 1_555
C36 C32 1_555 1_555
H30 C36 1_555 1_555
C37 C36 1_555 1_555
H31 C37 1_555 1_555
H32 C37 1_555 1_555
H33 C37 1_555 1_555
C38 C36 1_555 1_555
H34 C38 1_555 1_555
H35 C38 1_555 1_555
H36 C38 1_555 1_555
P2 N2 1_555 1_555
N2 C65 1_555 1_555
C39 P2 1_555 1_555
C40 C39 1_555 1_555
H37 C40 1_555 1_555
C41 C40 1_555 1_555
C42 C41 1_555 1_555
H38 C42 1_555 1_555
C43 C42 1_555 1_555
H39 C43 1_555 1_555
C44 C43 1_555 1_555
H40 C44 1_555 1_555
C45 C44 1_555 1_555
H41 C45 1_555 1_555
C46 C41 1_555 1_555
C47 C46 1_555 1_555
C48 C47 1_555 1_555
H42 C48 1_555 1_555
C49 C48 1_555 1_555
H43 C49 1_555 1_555
C50 C49 1_555 1_555
H44 C50 1_555 1_555
C51 C50 1_555 1_555
H45 C51 1_555 1_555
C52 C39 1_555 1_555
C53 P2 1_555 1_555
C54 C53 1_555 1_555
H46 C54 1_555 1_555
C55 C54 1_555 1_555
H47 C55 1_555 1_555
C56 C55 1_555 1_555
H48 C56 1_555 1_555
C57 C56 1_555 1_555
H49 C57 1_555 1_555
C58 C53 1_555 1_555
H50 C58 1_555 1_555
C59 P2 1_555 1_555
C60 C59 1_555 1_555
H51 C60 1_555 1_555
C61 C60 1_555 1_555
H52 C61 1_555 1_555
C62 C61 1_555 1_555
H53 C62 1_555 1_555
C63 C62 1_555 1_555
H54 C63 1_555 1_555
C64 C59 1_555 1_555
H55 C64 1_555 1_555
C65 C66 1_555 1_555
C66 C67 1_555 1_555
C67 H56 1_555 1_555
C68 C67 1_555 1_555
H57 C68 1_555 1_555
C69 C65 1_555 1_555
C70 C68 1_555 1_555
H58 C70 1_555 1_555
C71 C66 1_555 1_555
H59 C71 1_555 1_555
C72 C71 1_555 1_555
H60 C72 1_555 1_555
H61 C72 1_555 1_555
H62 C72 1_555 1_555
C73 C71 1_555 1_555
H63 C73 1_555 1_555
H64 C73 1_555 1_555
H65 C73 1_555 1_555
C74 C69 1_555 1_555
H66 C74 1_555 1_555
C75 C74 1_555 1_555
H67 C75 1_555 1_555
H68 C75 1_555 1_555
H69 C75 1_555 1_555
C76 C74 1_555 1_555
H70 C76 1_555 1_555
H71 C76 1_555 1_555
H72 C76 1_555 1_555
C7 C8 1_555 1_555
C9 C14 1_555 1_555
C13 C14 1_555 1_555
C19 C20 1_555 1_555
C25 C26 1_555 1_555
C31 C32 1_555 1_555
C45 C46 1_555 1_555
C47 C52 1_555 1_555
C51 C52 1_555 1_555
C57 C58 1_555 1_555
C63 C64 1_555 1_555
C69 C70 1_555 1_555

#END
