
#######################################################################
#
#                 Cambridge Crystallographic Data Centre
#                                CCDC 
#
#######################################################################
#
# If this CIF has been generated from an entry in the Cambridge 
# Structural Database, then it will include bibliographic, chemical, 
# crystal, experimental, refinement or atomic coordinate data resulting 
# from the CCDC's data processing and validation procedures.
#
#######################################################################

data_YETZOP
_chemical_formula_moiety         'C15 H16 I1 N2 O6 1+,C1 F3 O3 S1 1-'
_chemical_name_systematic        
'(1-diazo-2-ethoxy-2-oxoethyl){2-[(2-ethoxy-2-oxoethoxy)carbonyl]phenyl}iodonium trifluoromethanesulfonate'
_symmetry_cell_setting           triclinic
_symmetry_space_group_name_H-M   'P -1'
_symmetry_Int_Tables_number      2
_space_group_name_Hall           '-P 1'
loop_
_symmetry_equiv_pos_site_id
_symmetry_equiv_pos_as_xyz
1 x,y,z
2 -x,-y,-z
_cell_length_a                   8.0722(4)
_cell_length_b                   11.3065(5)
_cell_length_c                   12.3959(6)
_cell_angle_alpha                91.9651(12)
_cell_angle_beta                 107.6917(12)
_cell_angle_gamma                102.9337(13)
_cell_volume                     1044.1
_exptl_crystal_colour            yellow
_exptl_crystal_description       plate
_cell_formula_units_Z            2
loop_
_atom_site_label
_atom_site_type_symbol
_atom_site_fract_x
_atom_site_fract_y
_atom_site_fract_z
I1 I 0.33287(2) 0.43111(2) 0.76186(2)
N1 N 0.24953(17) 0.32140(12) 0.95577(11)
N2 N 0.29098(19) 0.33282(13) 1.05037(12)
O1 O 0.41132(15) 0.57706(12) 0.61400(10)
O2 O 0.24555(15) 0.66967(11) 0.47887(10)
O3 O 0.5393(2) 0.86335(14) 0.56256(12)
O4 O 0.6104(2) 0.83891(14) 0.40289(12)
O5 O 0.00213(17) 0.19986(12) 0.67177(10)
O6 O 0.00957(16) 0.11973(11) 0.83758(10)
C1 C 0.13096(19) 0.52886(13) 0.71217(12)
C2 C 0.0024(2) 0.51746(14) 0.76621(13)
H1 H 0.0049 0.4679 0.8268
C3 C -0.1306(2) 0.58043(15) 0.72958(14)
H2 H -0.2189 0.5751 0.7666
C4 C -0.1362(2) 0.65108(16) 0.63959(14)
H3 H -0.2292 0.6924 0.6148
C5 C -0.0067(2) 0.66158(15) 0.58578(13)
H4 H -0.0114 0.7094 0.5239
C6 C 0.13056(19) 0.60145(14) 0.62324(12)
C7 C 0.2777(2) 0.61471(14) 0.57303(13)
C8 C 0.3788(2) 0.68955(16) 0.42302(14)
H5 H 0.3210 0.6921 0.3406
H6 H 0.4380 0.6210 0.4318
C9 C 0.5188(2) 0.80904(16) 0.47327(14)
C10 C 0.7494(3) 0.95206(19) 0.43013(17)
H7 H 0.8694 0.9350 0.4582
H8 H 0.7356 1.0055 0.4901
C11 C 0.7296(3) 1.0135(2) 0.32217(19)
H9 H 0.8339 1.0823 0.3337
H10 H 0.6203 1.0433 0.3030
H11 H 0.7219 0.9547 0.2598
C12 C 0.2012(2) 0.30857(14) 0.84293(13)
C13 C 0.0603(2) 0.20471(15) 0.77479(14)
C14 C -0.1410(2) 0.01758(16) 0.77361(15)
H12 H -0.1252 -0.0075 0.7008
H13 H -0.2552 0.0429 0.7562
C15 C -0.1454(3) -0.08701(16) 0.84504(16)
H14 H -0.2494 -0.1542 0.8056
H15 H -0.1545 -0.0601 0.9186
H16 H -0.0352 -0.1150 0.8576
S1 S 0.71693(5) 0.32772(3) 0.95059(3)
O7 O 0.61733(18) 0.30444(13) 0.82993(10)
O8 O 0.90755(16) 0.34540(12) 0.97774(11)
O9 O 0.65792(15) 0.41211(11) 1.01140(10)
C16 C 0.6470(2) 0.18318(16) 1.00554(16)
F1 F 0.46820(15) 0.14919(10) 0.97966(12)
F2 F 0.69656(19) 0.09373(11) 0.96071(14)
F3 F 0.71831(19) 0.19229(13) 1.11752(11)
loop_
_geom_bond_atom_site_label_1
_geom_bond_atom_site_label_2
_geom_bond_site_symmetry_1
_geom_bond_site_symmetry_2
I1 C1 1_555 1_555
N1 N2 1_555 1_555
O1 C7 1_555 1_555
O2 C7 1_555 1_555
O3 C9 1_555 1_555
O4 C9 1_555 1_555
O5 C13 1_555 1_555
O6 C13 1_555 1_555
C1 C2 1_555 1_555
C2 H1 1_555 1_555
C3 C2 1_555 1_555
H2 C3 1_555 1_555
C4 C3 1_555 1_555
H3 C4 1_555 1_555
C5 C4 1_555 1_555
H4 C5 1_555 1_555
C6 C1 1_555 1_555
C7 C6 1_555 1_555
C8 O2 1_555 1_555
H5 C8 1_555 1_555
H6 C8 1_555 1_555
C9 C8 1_555 1_555
C10 O4 1_555 1_555
H7 C10 1_555 1_555
H8 C10 1_555 1_555
C11 C10 1_555 1_555
H9 C11 1_555 1_555
H10 C11 1_555 1_555
H11 C11 1_555 1_555
C12 I1 1_555 1_555
C13 C12 1_555 1_555
C14 O6 1_555 1_555
H12 C14 1_555 1_555
H13 C14 1_555 1_555
C15 C14 1_555 1_555
H14 C15 1_555 1_555
H15 C15 1_555 1_555
H16 C15 1_555 1_555
S1 O7 1_555 1_555
O8 S1 1_555 1_555
O9 S1 1_555 1_555
C16 S1 1_555 1_555
F1 C16 1_555 1_555
F2 C16 1_555 1_555
F3 C16 1_555 1_555
N1 C12 1_555 1_555
C5 C6 1_555 1_555

#END
