
#######################################################################
#
#                 Cambridge Crystallographic Data Centre
#                                CCDC 
#
#######################################################################
#
# If this CIF has been generated from an entry in the Cambridge 
# Structural Database, then it will include bibliographic, chemical, 
# crystal, experimental, refinement or atomic coordinate data resulting 
# from the CCDC's data processing and validation procedures.
#
#######################################################################

data_YEVQEY
_chemical_formula_moiety         'C10 H8 N4'
_chemical_name_systematic        
'[1-(pyrimidin-2-yl)-1H-pyrrol-2-yl]acetonitrile'
_symmetry_cell_setting           monoclinic
_symmetry_space_group_name_H-M   'P 21/c'
_symmetry_Int_Tables_number      14
_space_group_name_Hall           '-P 2ybc'
loop_
_symmetry_equiv_pos_site_id
_symmetry_equiv_pos_as_xyz
1 x,y,z
2 -x,1/2+y,1/2-z
3 -x,-y,-z
4 x,1/2-y,1/2+z
_cell_length_a                   4.3504(4)
_cell_length_b                   24.437(2)
_cell_length_c                   8.5476(7)
_cell_angle_alpha                90
_cell_angle_beta                 102.442(2)
_cell_angle_gamma                90
_cell_volume                     887.36
_cell_formula_units_Z            4
loop_
_atom_site_label
_atom_site_type_symbol
_atom_site_fract_x
_atom_site_fract_y
_atom_site_fract_z
C1 C 0.5822(4) 0.34049(7) 0.42060(19)
H1 H 0.677560 0.306911 0.401148
C2 C 0.5860(4) 0.38355(8) 0.31713(19)
H2 H 0.679820 0.380389 0.226951
C3 C 0.4464(4) 0.43151(8) 0.3511(2)
H3 H 0.445999 0.461972 0.282015
C4 C 0.3242(4) 0.39255(6) 0.56845(18)
C5 C 0.0293(4) 0.44496(7) 0.7334(2)
H4 H -0.005227 0.476810 0.668204
C6 C -0.0651(4) 0.43769(7) 0.8727(2)
H5 H -0.178537 0.463241 0.922211
C7 C 0.0367(4) 0.38477(7) 0.93162(18)
H6 H 0.003388 0.368899 1.028074
C8 C 0.1892(4) 0.36080(6) 0.82682(17)
C9 C 0.3310(4) 0.30452(7) 0.84089(18)
H7 H 0.539591 0.306109 0.812363
H8 H 0.363233 0.292165 0.953564
C10 C 0.1327(4) 0.26448(7) 0.73695(19)
N1 N 0.4492(3) 0.34419(6) 0.54759(15)
N2 N 0.3122(3) 0.43709(6) 0.47638(17)
N3 N 0.1853(3) 0.39801(5) 0.70165(15)
N4 N -0.0276(4) 0.23304(6) 0.66051(18)
loop_
_geom_bond_atom_site_label_1
_geom_bond_atom_site_label_2
_geom_bond_site_symmetry_1
_geom_bond_site_symmetry_2
C1 H1 1_555 1_555
C2 C1 1_555 1_555
H2 C2 1_555 1_555
C3 C2 1_555 1_555
H3 C3 1_555 1_555
C4 N1 1_555 1_555
C5 H4 1_555 1_555
C6 C5 1_555 1_555
H5 C6 1_555 1_555
C7 C6 1_555 1_555
H6 C7 1_555 1_555
C8 C7 1_555 1_555
C9 C8 1_555 1_555
H7 C9 1_555 1_555
H8 C9 1_555 1_555
C10 C9 1_555 1_555
N1 C1 1_555 1_555
N2 C3 1_555 1_555
N3 C4 1_555 1_555
N4 C10 1_555 1_555
C4 N2 1_555 1_555
C5 N3 1_555 1_555
C8 N3 1_555 1_555

#END
