
#######################################################################
#
#                 Cambridge Crystallographic Data Centre
#                                CCDC 
#
#######################################################################
#
# If this CIF has been generated from an entry in the Cambridge 
# Structural Database, then it will include bibliographic, chemical, 
# crystal, experimental, refinement or atomic coordinate data resulting 
# from the CCDC's data processing and validation procedures.
#
#######################################################################

data_YEVXAZ
_chemical_formula_moiety         'C30 H30 N6 2+,2(Cl1 O4 1-),1.5(C2 H3 N1)'
_chemical_name_systematic        
"N,N'-bis(2-Pyridylmethyl)-N,N'-bis(2-pyridinomethyl)benzene-1,3-diamine diperchlorate acetonitrile solvate"
_symmetry_cell_setting           monoclinic
_symmetry_space_group_name_H-M   'P 21/c'
_symmetry_Int_Tables_number      14
_space_group_name_Hall           '-P 2ybc'
loop_
_symmetry_equiv_pos_site_id
_symmetry_equiv_pos_as_xyz
1 x,y,z
2 -x,1/2+y,1/2-z
3 -x,-y,-z
4 x,1/2-y,1/2+z
_cell_length_a                   21.8178(15)
_cell_length_b                   19.8615(14)
_cell_length_c                   16.2939(12)
_cell_angle_alpha                90.00
_cell_angle_beta                 102.6560(10)
_cell_angle_gamma                90.00
_cell_volume                     6889.15
_cell_formula_units_Z            8
loop_
_atom_site_label
_atom_site_type_symbol
_atom_site_fract_x
_atom_site_fract_y
_atom_site_fract_z
Cl1 Cl 0.44051(4) 0.31829(4) 0.43477(5)
O1 O 0.41650(15) 0.30580(15) 0.34707(16)
O2 O 0.50367(14) 0.34112(18) 0.4481(3)
O3 O 0.43611(17) 0.25745(14) 0.47956(17)
O4 O 0.40419(14) 0.36877(14) 0.4633(2)
Cl2 Cl 0.05310(4) 0.30859(4) 0.55805(5)
O5 O 0.04488(16) 0.24968(13) 0.50599(17)
O6 O 0.0888(2) 0.35771(18) 0.5271(2)
O7 O -0.00753(15) 0.33699(17) 0.5579(2)
O8 O 0.08223(13) 0.29087(14) 0.64260(15)
Cl3 Cl 0.32136(4) 0.57161(5) 0.69603(6)
O9 O 0.30714(19) 0.51193(17) 0.7356(3)
O10 O 0.3750(4) 0.6138(6) 0.7206(8)
O14 O 0.3412(5) 0.5509(6) 0.6207(6)
O15 O 0.2690(5) 0.6128(6) 0.6712(9)
Cl4 Cl 0.16347(4) 0.56821(5) 0.32605(6)
O16 O 0.1248(3) 0.5484(3) 0.2460(3)
O17 O 0.2270(2) 0.5642(4) 0.3238(5)
O18 O 0.1578(4) 0.6408(3) 0.3311(5)
O19 O 0.1432(3) 0.5337(4) 0.3907(4)
N1 N 0.45979(12) 0.60458(12) 0.01640(15)
N2 N 0.39686(13) 0.72658(14) 0.03054(17)
N3 N 0.47913(13) 0.67559(14) 0.16916(17)
N4 N 0.41463(12) 0.39914(12) 0.15383(15)
N5 N 0.39267(14) 0.47256(15) 0.28979(18)
N6 N 0.30137(13) 0.38672(16) 0.20926(18)
C1 C 0.44590(15) 0.65054(16) -0.05427(19)
H1 H 0.4301 0.6248 -0.1051
H2 H 0.4847 0.6720 -0.0601
C2 C 0.39860(15) 0.70479(15) -0.04724(19)
C3 C 0.36026(17) 0.73505(18) -0.1157(2)
H3 H 0.3601 0.7200 -0.1698
C4 C 0.32190(18) 0.7882(2) -0.1035(3)
H4 H 0.2960 0.8090 -0.1494
C5 C 0.32236(18) 0.80998(19) -0.0235(3)
H5 H 0.2972 0.8459 -0.0147
C6 C 0.36040(17) 0.77803(17) 0.0435(2)
H6 H 0.3609 0.7922 0.0980
C7 C 0.52189(14) 0.60661(16) 0.07161(19)
H7 H 0.5486 0.6352 0.0461
H8 H 0.5395 0.5616 0.0755
C8 C 0.52383(15) 0.63205(16) 0.15992(19)
C9 C 0.57154(17) 0.6125(2) 0.2267(2)
H9 H 0.6019 0.5816 0.2192
C10 C 0.5728(2) 0.6404(2) 0.3052(2)
H10 H 0.6046 0.6288 0.3510
C11 C 0.5272(2) 0.6847(2) 0.3150(2)
H11 H 0.5272 0.7034 0.3673
C12 C 0.4816(2) 0.7011(2) 0.2461(2)
H12 H 0.4506 0.7314 0.2529
C13 C 0.42069(14) 0.54941(14) 0.01918(18)
C14 C 0.36659(15) 0.53877(16) -0.04475(19)
H13 H 0.3549 0.5696 -0.0883
C15 C 0.33109(15) 0.48135(17) -0.0414(2)
H14 H 0.2957 0.4741 -0.0841
C16 C 0.34595(15) 0.43427(16) 0.02251(19)
H15 H 0.3214 0.3959 0.0221
C17 C 0.39873(13) 0.44538(14) 0.08800(18)
C18 C 0.43502(13) 0.50356(14) 0.08634(18)
H16 H 0.4692 0.5119 0.1305
C19 C 0.46649(14) 0.41137(15) 0.22451(19)
H17 H 0.5020 0.4277 0.2033
H18 H 0.4787 0.3690 0.2529
C20 C 0.45266(15) 0.46135(15) 0.28797(19)
C21 C 0.49958(17) 0.49418(18) 0.3447(2)
H19 H 0.5415 0.4868 0.3439
C22 C 0.4838(2) 0.53769(19) 0.4019(2)
H20 H 0.5153 0.5594 0.4407
C23 C 0.4224(2) 0.5493(2) 0.4023(3)
H21 H 0.4115 0.5793 0.4406
C24 C 0.3764(2) 0.5157(2) 0.3446(3)
H22 H 0.3342 0.5231 0.3440
C25 C 0.38250(15) 0.33479(15) 0.1481(2)
H23 H 0.4075 0.3043 0.1885
H24 H 0.3806 0.3163 0.0925
C26 C 0.31696(15) 0.33647(17) 0.1632(2)
C27 C 0.27543(19) 0.2845(2) 0.1323(3)
H25 H 0.2873 0.2505 0.0997
C28 C 0.2175(2) 0.2840(3) 0.1499(3)
H26 H 0.1894 0.2495 0.1297
C29 C 0.20079(19) 0.3344(3) 0.1978(3)
H27 H 0.1614 0.3344 0.2110
C30 C 0.24351(18) 0.3857(3) 0.2265(3)
H28 H 0.2320 0.4202 0.2585
H66 H 0.419(2) 0.706(2) 0.072(3)
H67 H 0.3628(19) 0.444(2) 0.257(3)
N7 N 0.08154(12) 0.38727(12) 0.83433(15)
N8 N 0.19958(12) 0.35509(13) 0.79626(16)
N9 N 0.12257(13) 0.44549(13) 0.69822(17)
N10 N 0.03912(12) 0.59192(12) 0.97750(15)
N11 N 0.03492(13) 0.67904(14) 0.83946(17)
N12 N 0.10221(13) 0.71894(14) 0.99481(19)
C31 C 0.10651(15) 0.31870(14) 0.8444(2)
H29 H 0.0824 0.2910 0.7997
H30 H 0.1000 0.3009 0.8973
C32 C 0.17539(15) 0.31177(14) 0.84343(18)
C33 C 0.21168(16) 0.26144(16) 0.8899(2)
H31 H 0.1939 0.2319 0.9224
C34 C 0.27423(17) 0.25580(18) 0.8873(2)
H32 H 0.2992 0.2224 0.9179
C35 C 0.29923(16) 0.30054(18) 0.8386(2)
H33 H 0.3413 0.2979 0.8358
C36 C 0.26061(15) 0.34920(17) 0.7940(2)
H34 H 0.2775 0.3792 0.7610
C37 C 0.03616(14) 0.40440(16) 0.75850(19)
H35 H 0.0007 0.4265 0.7740
H36 H 0.0209 0.3632 0.7291
C38 C 0.06137(14) 0.44982(15) 0.69888(19)
C39 C 0.02393(17) 0.49338(17) 0.6431(2)
H37 H -0.0186 0.4974 0.6428
C40 C 0.04985(18) 0.53095(17) 0.5876(2)
H38 H 0.0249 0.5603 0.5500
C41 C 0.1135(2) 0.52456(18) 0.5886(2)
H39 H 0.1316 0.5494 0.5517
C42 C 0.14910(17) 0.48092(17) 0.6451(2)
H40 H 0.1917 0.4759 0.6464
C43 C 0.09744(14) 0.43270(14) 0.90130(17)
C44 C 0.14850(15) 0.41935(15) 0.96832(19)
H41 H 0.1714 0.3797 0.9691
C45 C 0.16455(16) 0.46529(16) 1.0330(2)
H42 H 0.1998 0.4571 1.0756
C46 C 0.12995(15) 0.52315(15) 1.03644(19)
H43 H 0.1418 0.5532 1.0809
C47 C 0.07685(14) 0.53622(14) 0.97237(18)
C48 C 0.06235(14) 0.49181(14) 0.90353(18)
H44 H 0.0291 0.5017 0.8588
C49 C -0.01903(14) 0.60156(16) 0.9156(2)
H45 H -0.0463 0.6311 0.9390
H46 H -0.0401 0.5585 0.9040
C50 C -0.00936(14) 0.63156(15) 0.8333(2)
C51 C -0.04652(17) 0.61293(18) 0.7568(2)
H47 H -0.0773 0.5801 0.7540
C52 C -0.0374(2) 0.6438(2) 0.6841(2)
H48 H -0.0620 0.6321 0.6319
C53 C 0.0088(2) 0.6919(2) 0.6901(2)
H49 H 0.0162 0.7130 0.6423
C54 C 0.04360(19) 0.70818(19) 0.7689(2)
H50 H 0.0746 0.7410 0.7731
C55 C 0.04920(15) 0.62966(15) 1.05557(19)
H51 H 0.0616 0.5985 1.1021
H52 H 0.0097 0.6500 1.0604
C56 C 0.09833(15) 0.68444(15) 1.0638(2)
C57 C 0.13646(18) 0.70304(18) 1.1397(2)
H53 H 0.1351 0.6793 1.1884
C58 C 0.17674(18) 0.75734(19) 1.1427(3)
H54 H 0.2028 0.7699 1.1936
C59 C 0.17818(18) 0.79284(19) 1.0705(3)
H55 H 0.2043 0.8301 1.0720
C60 C 0.14031(17) 0.77205(18) 0.9963(3)
H56 H 0.1411 0.7949 0.9467
H68 H 0.1443(18) 0.4188(19) 0.729(2)
H69 H 0.0832(18) 0.7088(19) 0.948(3)
N13 N 0.3264(2) 0.6930(2) 1.1976(2)
C61 C 0.30915(17) 0.6427(2) 1.1683(2)
C62 C 0.2868(2) 0.5785(2) 1.1325(3)
H57 H 0.2602 0.5584 1.1654
H58 H 0.3220 0.5494 1.1323
H59 H 0.2635 0.5849 1.0758
N14 N 0.2271(3) 0.6644(3) 0.9417(5)
C63 C 0.2061(2) 0.6281(3) 0.8872(4)
C64 C 0.1831(2) 0.5770(3) 0.8290(4)
H60 H 0.2119 0.5699 0.7929
H61 H 0.1429 0.5901 0.7957
H62 H 0.1787 0.5361 0.8585
N15 N 0.2574(4) 0.3708(3) 0.5833(5)
C65 C 0.2660(3) 0.4052(3) 0.5345(4)
C66 C 0.2780(5) 0.4522(5) 0.4759(5)
H63 H 0.2508 0.4903 0.4747
H64 H 0.2704 0.4318 0.4212
H65 H 0.3209 0.4666 0.4917
O11? O 0.2874(4) 0.5795(4) 0.6131(4)
O12? O 0.2899(4) 0.6233(3) 0.7376(5)
O13? O 0.3825(3) 0.5875(6) 0.7386(7)
O20? O 0.1856(5) 0.5848(6) 0.4149(5)
O21? O 0.2148(6) 0.5530(8) 0.2886(10)
O22? O 0.1196(4) 0.6232(4) 0.3095(6)
O23? O 0.1426(6) 0.5013(7) 0.3503(8)
loop_
_geom_bond_atom_site_label_1
_geom_bond_atom_site_label_2
_geom_bond_site_symmetry_1
_geom_bond_site_symmetry_2
Cl1 O1 1_555 1_555
Cl2 O5 1_555 1_555
Cl3 O9 1_555 1_555
Cl4 O16 1_555 1_555
O2 Cl1 1_555 1_555
O3 Cl1 1_555 1_555
O4 Cl1 1_555 1_555
O6 Cl2 1_555 1_555
O7 Cl2 1_555 1_555
O8 Cl2 1_555 1_555
O10 Cl3 1_555 1_555
O14 Cl3 1_555 1_555
O15 Cl3 1_555 1_555
O17 Cl4 1_555 1_555
O18 Cl4 1_555 1_555
O19 Cl4 1_555 1_555
N1 C1 1_555 1_555
N2 C2 1_555 1_555
N3 C8 1_555 1_555
N4 C17 1_555 1_555
N5 C20 1_555 1_555
N6 C26 1_555 1_555
N7 C31 1_555 1_555
N8 C32 1_555 1_555
N9 C38 1_555 1_555
N10 C47 1_555 1_555
N11 C50 1_555 1_555
N12 C56 1_555 1_555
C1 H1 1_555 1_555
H2 C1 1_555 1_555
C2 C1 1_555 1_555
C3 C2 1_555 1_555
H3 C3 1_555 1_555
C4 C3 1_555 1_555
H4 C4 1_555 1_555
C5 C4 1_555 1_555
H5 C5 1_555 1_555
C6 N2 1_555 1_555
H6 C6 1_555 1_555
C7 N1 1_555 1_555
H7 C7 1_555 1_555
H8 C7 1_555 1_555
C8 C7 1_555 1_555
C9 C8 1_555 1_555
H9 C9 1_555 1_555
C10 C9 1_555 1_555
H10 C10 1_555 1_555
C11 C10 1_555 1_555
H11 C11 1_555 1_555
C12 N3 1_555 1_555
H12 C12 1_555 1_555
C13 N1 1_555 1_555
C14 C13 1_555 1_555
H13 C14 1_555 1_555
C15 C14 1_555 1_555
H14 C15 1_555 1_555
C16 C15 1_555 1_555
H15 C16 1_555 1_555
C17 C16 1_555 1_555
C18 C13 1_555 1_555
H16 C18 1_555 1_555
C19 N4 1_555 1_555
H17 C19 1_555 1_555
H18 C19 1_555 1_555
C20 C19 1_555 1_555
C21 C20 1_555 1_555
H19 C21 1_555 1_555
C22 C21 1_555 1_555
H20 C22 1_555 1_555
C23 C22 1_555 1_555
H21 C23 1_555 1_555
C24 N5 1_555 1_555
H22 C24 1_555 1_555
C25 N4 1_555 1_555
H23 C25 1_555 1_555
H24 C25 1_555 1_555
C26 C25 1_555 1_555
C27 C26 1_555 1_555
H25 C27 1_555 1_555
C28 C27 1_555 1_555
H26 C28 1_555 1_555
C29 C28 1_555 1_555
H27 C29 1_555 1_555
C30 N6 1_555 1_555
H28 C30 1_555 1_555
C31 H29 1_555 1_555
H30 C31 1_555 1_555
C32 C31 1_555 1_555
C33 C32 1_555 1_555
H31 C33 1_555 1_555
C34 C33 1_555 1_555
H32 C34 1_555 1_555
C35 C34 1_555 1_555
H33 C35 1_555 1_555
C36 N8 1_555 1_555
H34 C36 1_555 1_555
C37 N7 1_555 1_555
H35 C37 1_555 1_555
H36 C37 1_555 1_555
C38 C37 1_555 1_555
C39 C38 1_555 1_555
H37 C39 1_555 1_555
C40 C39 1_555 1_555
H38 C40 1_555 1_555
C41 C40 1_555 1_555
H39 C41 1_555 1_555
C42 N9 1_555 1_555
H40 C42 1_555 1_555
C43 N7 1_555 1_555
C44 C43 1_555 1_555
H41 C44 1_555 1_555
C45 C44 1_555 1_555
H42 C45 1_555 1_555
C46 C45 1_555 1_555
H43 C46 1_555 1_555
C47 C46 1_555 1_555
C48 C43 1_555 1_555
H44 C48 1_555 1_555
C49 N10 1_555 1_555
H45 C49 1_555 1_555
H46 C49 1_555 1_555
C50 C49 1_555 1_555
C51 C50 1_555 1_555
H47 C51 1_555 1_555
C52 C51 1_555 1_555
H48 C52 1_555 1_555
C53 C52 1_555 1_555
H49 C53 1_555 1_555
C54 N11 1_555 1_555
H50 C54 1_555 1_555
C55 N10 1_555 1_555
H51 C55 1_555 1_555
H52 C55 1_555 1_555
C56 C55 1_555 1_555
C57 C56 1_555 1_555
H53 C57 1_555 1_555
C58 C57 1_555 1_555
H54 C58 1_555 1_555
C59 C58 1_555 1_555
H55 C59 1_555 1_555
C60 N12 1_555 1_555
H56 C60 1_555 1_555
N13 C61 1_555 1_555
C61 C62 1_555 1_555
C62 H57 1_555 1_555
H58 C62 1_555 1_555
H59 C62 1_555 1_555
N14 C63 1_555 1_555
C63 C64 1_555 1_555
C64 H60 1_555 1_555
H61 C64 1_555 1_555
H62 C64 1_555 1_555
N15 C65 1_555 1_555
C65 C66 1_555 1_555
C66 H63 1_555 1_555
H64 C66 1_555 1_555
H65 C66 1_555 1_555
H66 N2 1_555 1_555
H67 N5 1_555 1_555
H68 N9 1_555 1_555
H69 N12 1_555 1_555
C5 C6 1_555 1_555
C11 C12 1_555 1_555
C17 C18 1_555 1_555
C23 C24 1_555 1_555
C29 C30 1_555 1_555
C35 C36 1_555 1_555
C41 C42 1_555 1_555
C47 C48 1_555 1_555
C53 C54 1_555 1_555
C59 C60 1_555 1_555

#END
