
#######################################################################
#
#                 Cambridge Crystallographic Data Centre
#                                CCDC 
#
#######################################################################
#
# If this CIF has been generated from an entry in the Cambridge 
# Structural Database, then it will include bibliographic, chemical, 
# crystal, experimental, refinement or atomic coordinate data resulting 
# from the CCDC's data processing and validation procedures.
#
#######################################################################

data_YEWCIP
_chemical_formula_moiety         'C14 H22 N1 O1 S1 1+,Cl1 1-'
_chemical_name_systematic        
'5-{hydroxy[4-(methylsulfanyl)phenyl]methyl}-2,2-dimethylpyrrolidin-1-ium chloride'
_symmetry_cell_setting           orthorhombic
_symmetry_space_group_name_H-M   'P 21 21 21'
_symmetry_Int_Tables_number      19
_space_group_name_Hall           'P 2ac 2ab'
loop_
_symmetry_equiv_pos_site_id
_symmetry_equiv_pos_as_xyz
1 x,y,z
2 1/2-x,-y,1/2+z
3 -x,1/2+y,1/2-z
4 1/2+x,1/2-y,-z
_cell_length_a                   7.23813(6)
_cell_length_b                   8.06555(6)
_cell_length_c                   26.48022(19)
_cell_angle_alpha                90
_cell_angle_beta                 90
_cell_angle_gamma                90
_cell_volume                     1545.9
_exptl_crystal_description       plate
_cell_formula_units_Z            4
loop_
_atom_site_label
_atom_site_type_symbol
_atom_site_fract_x
_atom_site_fract_y
_atom_site_fract_z
Cl1 Cl -0.06538(7) 0.17680(6) 0.53598(2)
S1 S 0.88596(8) 0.72001(7) 0.76725(2)
O1 O 0.3756(2) 0.46299(17) 0.57272(6)
H1 H 0.3660 0.4475 0.5415
N1 N 0.3457(2) 0.11515(18) 0.56252(6)
H2 H 0.3993 0.1547 0.5339
H3 H 0.2232 0.1405 0.5616
C1 C 0.3712(3) -0.0712(2) 0.56574(7)
C2 C 0.6114(3) 0.4489(2) 0.63578(7)
C3 C 0.8863(3) 0.5700(2) 0.67217(7)
H4 H 1.0143 0.5949 0.6697
C4 C 0.7990(3) 0.4845(2) 0.63340(7)
H5 H 0.8685 0.4498 0.6049
C5 C 0.5114(3) 0.5026(3) 0.67769(8)
H6 H 0.3826 0.4809 0.6795
C6 C 0.5975(3) 0.5874(3) 0.71673(8)
H7 H 0.5277 0.6237 0.7450
C7 C 0.5633(3) -0.0818(2) 0.58892(8)
H8 H 0.6594 -0.0696 0.5626
H9 H 0.5809 -0.1897 0.6061
C8 C 0.5188(3) 0.3590(2) 0.59254(7)
H10 H 0.6123 0.3386 0.5654
C9 C 0.7871(3) 0.6193(2) 0.71442(7)
C10 C 0.4345(3) 0.1932(2) 0.60838(7)
H11 H 0.3387 0.2123 0.6350
C11 C 0.5741(3) 0.0614(2) 0.62702(7)
H12 H 0.7006 0.1081 0.6280
H13 H 0.5408 0.0224 0.6613
C12 C 0.2225(3) -0.1415(3) 0.60044(9)
H14 H 0.2322 -0.0894 0.6338
H15 H 0.2395 -0.2615 0.6038
H16 H 0.1004 -0.1186 0.5861
C13 C 1.1294(3) 0.7049(3) 0.75550(9)
H17 H 1.1608 0.7693 0.7253
H18 H 1.1629 0.5884 0.7502
H19 H 1.1975 0.7486 0.7846
C14 C 0.3563(4) -0.1421(3) 0.51254(8)
H20 H 0.2339 -0.1172 0.4987
H21 H 0.3740 -0.2625 0.5137
H22 H 0.4514 -0.0922 0.4910
loop_
_geom_bond_atom_site_label_1
_geom_bond_atom_site_label_2
_geom_bond_site_symmetry_1
_geom_bond_site_symmetry_2
S1 C9 1_555 1_555
O1 H1 1_555 1_555
N1 H2 1_555 1_555
H3 N1 1_555 1_555
C1 N1 1_555 1_555
C2 C4 1_555 1_555
C3 H4 1_555 1_555
C4 C3 1_555 1_555
H5 C4 1_555 1_555
C5 C2 1_555 1_555
H6 C5 1_555 1_555
C6 C5 1_555 1_555
H7 C6 1_555 1_555
C7 C1 1_555 1_555
H8 C7 1_555 1_555
H9 C7 1_555 1_555
C8 O1 1_555 1_555
H10 C8 1_555 1_555
C9 C3 1_555 1_555
C10 N1 1_555 1_555
H11 C10 1_555 1_555
C11 C7 1_555 1_555
H12 C11 1_555 1_555
H13 C11 1_555 1_555
C12 C1 1_555 1_555
H14 C12 1_555 1_555
H15 C12 1_555 1_555
H16 C12 1_555 1_555
C13 S1 1_555 1_555
H17 C13 1_555 1_555
H18 C13 1_555 1_555
H19 C13 1_555 1_555
C14 C1 1_555 1_555
H20 C14 1_555 1_555
H21 C14 1_555 1_555
H22 C14 1_555 1_555
C2 C8 1_555 1_555
C6 C9 1_555 1_555
C8 C10 1_555 1_555
C10 C11 1_555 1_555

#END
