
#######################################################################
#
#                 Cambridge Crystallographic Data Centre
#                                CCDC 
#
#######################################################################
#
# If this CIF has been generated from an entry in the Cambridge 
# Structural Database, then it will include bibliographic, chemical, 
# crystal, experimental, refinement or atomic coordinate data resulting 
# from the CCDC's data processing and validation procedures.
#
#######################################################################

data_YEWHAM
_chemical_formula_moiety         'C40 H48 N2 Si2'
_chemical_name_systematic        
2,5-bis(2,6-diethylphenyl)-1,1,4,4-tetramethyl-3,6-diphenyl-1,2,4,5-tetrahydro[1,2]azasilolo[4,3-c][1,2]azasilole
_symmetry_cell_setting           monoclinic
_symmetry_space_group_name_H-M   'P n'
_symmetry_Int_Tables_number      7
_space_group_name_Hall           'P -2yac'
loop_
_symmetry_equiv_pos_site_id
_symmetry_equiv_pos_as_xyz
1 x,y,z
2 1/2+x,-y,1/2+z
_cell_length_a                   12.4574(12)
_cell_length_b                   13.7387(13)
_cell_length_c                   20.538(2)
_cell_angle_alpha                90
_cell_angle_beta                 95.175(2)
_cell_angle_gamma                90
_cell_volume                     3500.72
_exptl_crystal_colour            yellow
_exptl_crystal_description       platelet
_cell_formula_units_Z            4
loop_
_atom_site_label
_atom_site_type_symbol
_atom_site_fract_x
_atom_site_fract_y
_atom_site_fract_z
Si1 Si 0.22667(11) 0.24673(11) 0.60317(7)
Si2 Si 0.25614(10) 0.26933(10) 0.39403(6)
N1 N 0.3552(3) 0.2978(3) 0.5916(2)
N2 N 0.1395(3) 0.1979(3) 0.40684(19)
C1 C 0.3656(4) 0.3184(3) 0.5247(2)
C2 C 0.4642(4) 0.3647(4) 0.5048(2)
C3 C 0.4586(5) 0.4447(5) 0.4650(4)
H1 H 0.3901 0.4709 0.4502
C4 C 0.5521(7) 0.4884(7) 0.4459(6)
H2 H 0.5465 0.5439 0.4182
C5 C 0.6500(6) 0.4525(6) 0.4665(4)
H3 H 0.7133 0.4856 0.4562
C6 C 0.6581(5) 0.3686(7) 0.5020(4)
H4 H 0.7265 0.3395 0.5129
C7 C 0.5652(5) 0.3258(5) 0.5224(3)
H5 H 0.5714 0.2689 0.5487
C8 C 0.2809(4) 0.2908(4) 0.4824(2)
C9 C 0.4240(4) 0.3399(4) 0.6434(2)
C10 C 0.4160(5) 0.4384(4) 0.6578(3)
C11 C 0.4788(6) 0.4760(5) 0.7121(3)
H6 H 0.4750 0.5433 0.7222
C12 C 0.5453(6) 0.4164(6) 0.7505(3)
H7 H 0.5854 0.4419 0.7882
C13 C 0.5543(5) 0.3211(5) 0.7352(3)
H8 H 0.6028 0.2813 0.7618
C14 C 0.4949(4) 0.2798(4) 0.6817(3)
C15 C 0.5079(4) 0.1739(4) 0.6662(3)
H9 H 0.4653 0.1594 0.6242
H10 H 0.4776 0.1346 0.7006
C16 C 0.6241(5) 0.1424(6) 0.6611(4)
H11 H 0.6260 0.0727 0.6509
H12 H 0.6544 0.1794 0.6263
H13 H 0.6667 0.1546 0.7028
C17 C 0.3446(5) 0.5056(4) 0.6156(3)
H14 H 0.3880 0.5349 0.5826
H15 H 0.2872 0.4663 0.5917
C18 C 0.2924(7) 0.5861(7) 0.6504(5)
H16 H 0.2479 0.6255 0.6186
H17 H 0.2470 0.5584 0.6823
H18 H 0.3482 0.6272 0.6731
C19 C 0.1512(6) 0.3303(6) 0.6537(3)
H19 H 0.0806 0.3020 0.6600
H20 H 0.1919 0.3397 0.6963
H21 H 0.1412 0.3932 0.6315
C20 C 0.2332(5) 0.1271(5) 0.6463(3)
H22 H 0.1600 0.1036 0.6508
H23 H 0.2713 0.0799 0.6209
H24 H 0.2718 0.1348 0.6897
C21 C 0.1181(4) 0.1973(4) 0.4727(2)
C22 C 0.0238(4) 0.1457(4) 0.4950(3)
C23 C -0.0349(4) 0.1897(5) 0.5416(3)
H25 H -0.0168 0.2539 0.5558
C24 C -0.1192(5) 0.1416(5) 0.5676(3)
H26 H -0.1565 0.1720 0.6005
C25 C -0.1490(5) 0.0499(5) 0.5457(3)
H27 H -0.2089 0.0182 0.5619
C26 C -0.0907(5) 0.0040(5) 0.4998(3)
H28 H -0.1092 -0.0603 0.4859
C27 C -0.0064(4) 0.0514(4) 0.4743(3)
H29 H 0.0318 0.0198 0.4424
C28 C 0.1921(4) 0.2442(4) 0.5143(3)
C29 C 0.0591(4) 0.1736(4) 0.3547(2)
C30 C 0.0784(4) 0.0930(4) 0.3147(3)
C31 C 0.0039(5) 0.0736(5) 0.2614(3)
H30 H 0.0153 0.0195 0.2340
C32 C -0.0849(6) 0.1304(6) 0.2477(3)
H31 H -0.1339 0.1166 0.2106
C33 C -0.1035(5) 0.2085(5) 0.2881(3)
H32 H -0.1664 0.2471 0.2789
C34 C -0.0319(4) 0.2312(4) 0.3415(3)
C35 C -0.0542(6) 0.3147(6) 0.3871(4)
H33 H -0.0822 0.2869 0.4267
H34 H 0.0151 0.3470 0.4010
C36 C -0.1319(10) 0.3905(8) 0.3597(5)
H35 H -0.1404 0.4405 0.3929
H36 H -0.1044 0.4205 0.3213
H37 H -0.2019 0.3602 0.3471
C37 C 0.1753(5) 0.0285(4) 0.3274(3)
H38 H 0.2212 0.0551 0.3651
H39 H 0.2176 0.0311 0.2888
C38 C 0.1510(6) -0.0770(5) 0.3414(4)
H40 H 0.2188 -0.1133 0.3490
H41 H 0.1111 -0.0810 0.3803
H42 H 0.1075 -0.1051 0.3039
C39 C 0.2176(6) 0.3714(4) 0.3376(3)
H43 H 0.2817 0.4102 0.3308
H44 H 0.1866 0.3454 0.2956
H45 H 0.1643 0.4125 0.3566
C40 C 0.3662(4) 0.2046(4) 0.3586(3)
H46 H 0.4257 0.2498 0.3536
H47 H 0.3915 0.1511 0.3876
H48 H 0.3399 0.1784 0.3157
Si3 Si 0.77001(10) 0.76408(10) 0.39054(6)
Si4 Si 0.70587(11) 0.74440(11) 0.59523(7)
N3 N 0.6499(3) 0.8281(3) 0.40018(19)
N4 N 0.8276(3) 0.6820(3) 0.5870(2)
C41 C 0.6236(4) 0.8260(3) 0.4650(2)
C42 C 0.5203(4) 0.8699(4) 0.4823(3)
C43 C 0.5059(6) 0.9691(5) 0.4836(4)
H49 H 0.5628 1.0114 0.4740
C44 C 0.4069(7) 1.0080(7) 0.4993(4)
H50 H 0.3964 1.0765 0.4995
C45 C 0.3246(6) 0.9463(8) 0.5145(5)
H51 H 0.2589 0.9722 0.5271
C46 C 0.3387(6) 0.8508(9) 0.5114(6)
H52 H 0.2809 0.8088 0.5198
C47 C 0.4357(6) 0.8103(6) 0.4961(5)
H53 H 0.4439 0.7416 0.4953
C48 C 0.7912(4) 0.7421(4) 0.4797(2)
C49 C 0.5808(4) 0.8732(4) 0.3486(2)
C50 C 0.6004(5) 0.9706(4) 0.3311(3)
C51 C 0.5341(6) 1.0108(5) 0.2809(3)
H54 H 0.5445 1.0767 0.2690
C52 C 0.4521(6) 0.9571(5) 0.2473(3)
H55 H 0.4076 0.9864 0.2128
C53 C 0.4357(5) 0.8627(5) 0.2636(3)
H56 H 0.3806 0.8263 0.2397
C54 C 0.4992(4) 0.8180(4) 0.3155(3)
C55 C 0.4778(4) 0.7140(4) 0.3328(3)
H57 H 0.5213 0.6982 0.3742
H58 H 0.5029 0.6715 0.2984
C56 C 0.3599(5) 0.6900(6) 0.3408(4)
H59 H 0.3534 0.6210 0.3520
H60 H 0.3345 0.7302 0.3757
H61 H 0.3161 0.7034 0.2997
C57 C 0.6927(5) 1.0290(4) 0.3663(4)
H62 H 0.7150 0.9962 0.4083
H63 H 0.7548 1.0269 0.3395
C58 C 0.6687(6) 1.1349(5) 0.3806(4)
H64 H 0.7329 1.1653 0.4031
H65 H 0.6489 1.1692 0.3394
H66 H 0.6089 1.1385 0.4084
C59 C 0.8656(5) 0.8372(5) 0.3465(3)
H67 H 0.9312 0.7992 0.3421
H68 H 0.8320 0.8541 0.3030
H69 H 0.8842 0.8969 0.3711
C60 C 0.7499(5) 0.6509(5) 0.3426(3)
H70 H 0.8197 0.6192 0.3392
H71 H 0.7025 0.6069 0.3644
H72 H 0.7168 0.6664 0.2987
C61 C 0.8600(4) 0.6915(3) 0.5228(2)
C62 C 0.6957(4) 0.7817(4) 0.5083(2)
C63 C 0.9857(5) 0.5506(5) 0.5214(3)
H73 H 0.9412 0.5147 0.5479
C64 C 1.0788(6) 0.5074(6) 0.4996(4)
H74 H 1.0973 0.4422 0.5112
C65 C 1.1428(6) 0.5610(8) 0.4612(4)
H75 H 1.2058 0.5323 0.4467
C66 C 1.1171(5) 0.6530(7) 0.4444(4)
H76 H 1.1612 0.6880 0.4171
C67 C 1.0276(5) 0.6976(5) 0.4659(3)
H77 H 1.0120 0.7637 0.4550
C68 C 0.9599(4) 0.6451(4) 0.5038(2)
C69 C 0.9044(4) 0.6569(4) 0.6418(2)
C70 C 0.9878(4) 0.7221(4) 0.6614(3)
C71 C 1.0590(5) 0.6985(5) 0.7160(3)
H78 H 1.1183 0.7401 0.7283
C72 C 1.0442(6) 0.6162(6) 0.7517(3)
H79 H 1.0913 0.6024 0.7895
C73 C 0.9593(5) 0.5523(5) 0.7323(3)
H80 H 0.9496 0.4953 0.7573
C74 C 0.8889(4) 0.5711(4) 0.6770(3)
C75 C 0.8004(5) 0.4999(5) 0.6566(4)
H81 H 0.7434 0.5062 0.6869
H82 H 0.7682 0.5182 0.6125
C76 C 0.8343(7) 0.3951(5) 0.6550(5)
H83 H 0.7717 0.3545 0.6413
H84 H 0.8891 0.3872 0.6241
H85 H 0.8643 0.3751 0.6988
C77 C 1.0020(5) 0.8174(5) 0.6277(3)
H86 H 0.9416 0.8551 0.6113
C78 C 1.1124(7) 0.8505(8) 0.6211(6)
H87 H 1.1105 0.9133 0.5983
H88 H 1.1510 0.8577 0.6645
H89 H 1.1497 0.8025 0.5959
C79 C 0.7256(6) 0.8423(5) 0.6580(3)
H90 H 0.6570 0.8759 0.6618
H91 H 0.7509 0.8135 0.7003
H92 H 0.7792 0.8889 0.6450
C80 C 0.5962(5) 0.6669(6) 0.6213(4)
H93 H 0.5316 0.7066 0.6248
H94 H 0.5801 0.6152 0.5890
H95 H 0.6188 0.6378 0.6639
loop_
_geom_bond_atom_site_label_1
_geom_bond_atom_site_label_2
_geom_bond_site_symmetry_1
_geom_bond_site_symmetry_2
Si1 N1 1_555 1_555
Si2 N2 1_555 1_555
N1 C1 1_555 1_555
N2 C21 1_555 1_555
C1 C2 1_555 1_555
C2 C3 1_555 1_555
C3 H1 1_555 1_555
C4 C3 1_555 1_555
H2 C4 1_555 1_555
C5 C4 1_555 1_555
H3 C5 1_555 1_555
C6 C5 1_555 1_555
H4 C6 1_555 1_555
C7 C2 1_555 1_555
H5 C7 1_555 1_555
C8 Si2 1_555 1_555
C9 N1 1_555 1_555
C10 C9 1_555 1_555
C11 C10 1_555 1_555
H6 C11 1_555 1_555
C12 C11 1_555 1_555
H7 C12 1_555 1_555
C13 C12 1_555 1_555
H8 C13 1_555 1_555
C14 C9 1_555 1_555
C15 C14 1_555 1_555
H9 C15 1_555 1_555
H10 C15 1_555 1_555
C16 C15 1_555 1_555
H11 C16 1_555 1_555
H12 C16 1_555 1_555
H13 C16 1_555 1_555
C17 C10 1_555 1_555
H14 C17 1_555 1_555
H15 C17 1_555 1_555
C18 C17 1_555 1_555
H16 C18 1_555 1_555
H17 C18 1_555 1_555
H18 C18 1_555 1_555
C19 Si1 1_555 1_555
H19 C19 1_555 1_555
H20 C19 1_555 1_555
H21 C19 1_555 1_555
C20 Si1 1_555 1_555
H22 C20 1_555 1_555
H23 C20 1_555 1_555
H24 C20 1_555 1_555
C21 C22 1_555 1_555
C22 C23 1_555 1_555
C23 H25 1_555 1_555
C24 C23 1_555 1_555
H26 C24 1_555 1_555
C25 C24 1_555 1_555
H27 C25 1_555 1_555
C26 C25 1_555 1_555
H28 C26 1_555 1_555
C27 C22 1_555 1_555
H29 C27 1_555 1_555
C28 Si1 1_555 1_555
C29 N2 1_555 1_555
C30 C29 1_555 1_555
C31 C30 1_555 1_555
H30 C31 1_555 1_555
C32 C31 1_555 1_555
H31 C32 1_555 1_555
C33 C32 1_555 1_555
H32 C33 1_555 1_555
C34 C29 1_555 1_555
C35 C34 1_555 1_555
H33 C35 1_555 1_555
H34 C35 1_555 1_555
C36 C35 1_555 1_555
H35 C36 1_555 1_555
H36 C36 1_555 1_555
H37 C36 1_555 1_555
C37 C30 1_555 1_555
H38 C37 1_555 1_555
H39 C37 1_555 1_555
C38 C37 1_555 1_555
H40 C38 1_555 1_555
H41 C38 1_555 1_555
H42 C38 1_555 1_555
C39 Si2 1_555 1_555
H43 C39 1_555 1_555
H44 C39 1_555 1_555
H45 C39 1_555 1_555
C40 Si2 1_555 1_555
H46 C40 1_555 1_555
H47 C40 1_555 1_555
H48 C40 1_555 1_555
Si3 N3 1_555 1_555
Si4 N4 1_555 1_555
N3 C41 1_555 1_555
N4 C61 1_555 1_555
C41 C42 1_555 1_555
C42 C43 1_555 1_555
C43 H49 1_555 1_555
C44 C43 1_555 1_555
H50 C44 1_555 1_555
C45 C44 1_555 1_555
H51 C45 1_555 1_555
C46 C45 1_555 1_555
H52 C46 1_555 1_555
C47 C42 1_555 1_555
H53 C47 1_555 1_555
C48 Si3 1_555 1_555
C49 N3 1_555 1_555
C50 C49 1_555 1_555
C51 C50 1_555 1_555
H54 C51 1_555 1_555
C52 C51 1_555 1_555
H55 C52 1_555 1_555
C53 C52 1_555 1_555
H56 C53 1_555 1_555
C54 C49 1_555 1_555
C55 C54 1_555 1_555
H57 C55 1_555 1_555
H58 C55 1_555 1_555
C56 C55 1_555 1_555
H59 C56 1_555 1_555
H60 C56 1_555 1_555
H61 C56 1_555 1_555
C57 C50 1_555 1_555
H62 C57 1_555 1_555
H63 C57 1_555 1_555
C58 C57 1_555 1_555
H64 C58 1_555 1_555
H65 C58 1_555 1_555
H66 C58 1_555 1_555
C59 Si3 1_555 1_555
H67 C59 1_555 1_555
H68 C59 1_555 1_555
H69 C59 1_555 1_555
C60 Si3 1_555 1_555
H70 C60 1_555 1_555
H71 C60 1_555 1_555
H72 C60 1_555 1_555
C61 C48 1_555 1_555
C62 Si4 1_555 1_555
C63 H73 1_555 1_555
C64 C63 1_555 1_555
H74 C64 1_555 1_555
C65 C64 1_555 1_555
H75 C65 1_555 1_555
C66 C65 1_555 1_555
H76 C66 1_555 1_555
C67 C66 1_555 1_555
H77 C67 1_555 1_555
C68 C61 1_555 1_555
C69 N4 1_555 1_555
C70 C69 1_555 1_555
C71 C70 1_555 1_555
H78 C71 1_555 1_555
C72 C71 1_555 1_555
H79 C72 1_555 1_555
C73 C72 1_555 1_555
H80 C73 1_555 1_555
C74 C69 1_555 1_555
C75 C74 1_555 1_555
H81 C75 1_555 1_555
H82 C75 1_555 1_555
C76 C75 1_555 1_555
H83 C76 1_555 1_555
H84 C76 1_555 1_555
H85 C76 1_555 1_555
C77 C70 1_555 1_555
H86 C77 1_555 1_555
C78 C77 1_555 1_555
H87 C78 1_555 1_555
H88 C78 1_555 1_555
H89 C78 1_555 1_555
C79 Si4 1_555 1_555
H90 C79 1_555 1_555
H91 C79 1_555 1_555
H92 C79 1_555 1_555
C80 Si4 1_555 1_555
H93 C80 1_555 1_555
H94 C80 1_555 1_555
H95 C80 1_555 1_555
C1 C8 1_555 1_555
C6 C7 1_555 1_555
C8 C28 1_555 1_555
C13 C14 1_555 1_555
C21 C28 1_555 1_555
C26 C27 1_555 1_555
C33 C34 1_555 1_555
C41 C62 1_555 1_555
C46 C47 1_555 1_555
C48 C62 1_555 1_555
C53 C54 1_555 1_555
C63 C68 1_555 1_555
C67 C68 1_555 1_555
C73 C74 1_555 1_555

#END
