
#######################################################################
#
#                 Cambridge Crystallographic Data Centre
#                                CCDC 
#
#######################################################################
#
# If this CIF has been generated from an entry in the Cambridge 
# Structural Database, then it will include bibliographic, chemical, 
# crystal, experimental, refinement or atomic coordinate data resulting 
# from the CCDC's data processing and validation procedures.
#
#######################################################################

data_YEWHEQ
_chemical_formula_moiety         'C36 H40 N2 Si2'
_chemical_name_systematic        
2,5-bis(2,6-dimethylphenyl)-1,1,4,4-tetramethyl-3,6-diphenyl-1,2,4,5-tetrahydro[1,2]azasilolo[4,3-c][1,2]azasilole
_symmetry_cell_setting           monoclinic
_symmetry_space_group_name_H-M   'P 21/c'
_symmetry_Int_Tables_number      14
_space_group_name_Hall           '-P 2ybc'
loop_
_symmetry_equiv_pos_site_id
_symmetry_equiv_pos_as_xyz
1 x,y,z
2 -x,1/2+y,1/2-z
3 -x,-y,-z
4 x,1/2-y,1/2+z
_cell_length_a                   10.093(2)
_cell_length_b                   12.721(3)
_cell_length_c                   11.827(2)
_cell_angle_alpha                90
_cell_angle_beta                 92.34(3)
_cell_angle_gamma                90
_cell_volume                     1517.24
_exptl_crystal_colour            yellow
_exptl_crystal_description       prism
_cell_formula_units_Z            2
loop_
_atom_site_label
_atom_site_type_symbol
_atom_site_fract_x
_atom_site_fract_y
_atom_site_fract_z
C1 C 0.9466(2) 0.94421(19) 0.8665(2)
Si1 Si 0.78747(7) 1.00199(5) 1.02753(6)
C2 C 0.9879(2) 0.9043(2) 0.7556(2)
C3 C 0.9510(3) 0.8045(2) 0.7169(2)
H1 H 0.8983 0.7619 0.7605
C4 C 1.0673(3) 0.9660(2) 0.6883(2)
H2 H 1.0937 1.0323 0.7137
C5 C 1.1076(3) 0.9306(2) 0.5846(2)
H3 H 1.1599 0.9730 0.5405
C6 C 0.9929(3) 0.7683(2) 0.6129(2)
H4 H 0.9690 0.7013 0.5881
C7 C 1.0694(3) 0.8313(2) 0.5467(2)
H5 H 1.0954 0.8074 0.4767
C8 C 0.7062(2) 0.9207(2) 0.8118(2)
C9 C 0.6740(3) 0.9961(2) 0.7284(2)
C10 C 0.4951(3) 0.8844(3) 0.6598(3)
H6 H 0.4232 0.8728 0.6097
C11 C 0.5669(3) 0.9756(3) 0.6536(3)
H7 H 0.5436 1.0248 0.5981
C12 C 0.6350(3) 0.8267(2) 0.8176(2)
C13 C 0.5294(3) 0.8101(3) 0.7403(3)
H8 H 0.4813 0.7478 0.7432
C14 C 0.6713(3) 0.7416(2) 0.9026(3)
H9 H 0.6120 0.7445 0.9640
H10 H 0.7607 0.7521 0.9313
H11 H 0.6642 0.6741 0.8666
N1 N 0.81152(19) 0.94148(16) 0.89453(17)
C15 C 0.6931(3) 0.9181(2) 1.1238(2)
H12 H 0.6068 0.9039 1.0900
H13 H 0.6840 0.9538 1.1945
H14 H 0.7396 0.8531 1.1366
C16 C 0.9677(2) 1.01706(19) 1.05221(19)
C17 C 0.6905(3) 1.1260(2) 1.0146(3)
H15 H 0.7364 1.1750 0.9685
H16 H 0.6803 1.1556 1.0884
H17 H 0.6046 1.1113 0.9802
C18 C 0.7515(3) 1.0956(2) 0.7180(3)
H18 H 0.7060 1.1418 0.6654
H19 H 0.8379 1.0797 0.6914
H20 H 0.7605 1.1291 0.7907
C1B C 1.0534(2) 1.05579(19) 1.1335(2)
Si1B Si 1.21253(7) 0.99801(5) 0.97247(6)
C2B C 1.0121(2) 1.0957(2) 1.2444(2)
C3B C 1.0490(3) 1.1955(2) 1.2831(2)
H1B H 1.1017 1.2381 1.2395
C4B C 0.9327(3) 1.0340(2) 1.3117(2)
H2B H 0.9063 0.9677 1.2863
C5B C 0.8924(3) 1.0694(2) 1.4154(2)
H3B H 0.8401 1.0270 1.4595
C6B C 1.0071(3) 1.2317(2) 1.3871(2)
H4B H 1.0310 1.2987 1.4119
C7B C 0.9306(3) 1.1687(2) 1.4533(2)
H5B H 0.9046 1.1926 1.5233
C8B C 1.2938(2) 1.0793(2) 1.1882(2)
C9B C 1.3260(3) 1.0039(2) 1.2716(2)
C10B C 1.5049(3) 1.1156(3) 1.3402(3)
H6B H 1.5768 1.1272 1.3903
C11B C 1.4331(3) 1.0244(3) 1.3464(3)
H7B H 1.4564 0.9752 1.4019
C12B C 1.3650(3) 1.1733(2) 1.1824(2)
C13B C 1.4706(3) 1.1899(3) 1.2597(3)
H8B H 1.5187 1.2522 1.2568
C14B C 1.3287(3) 1.2584(2) 1.0974(3)
H9B H 1.3880 1.2555 1.0360
H10B H 1.2393 1.2479 1.0687
H11B H 1.3358 1.3259 1.1334
N1B N 1.18848(19) 1.05852(16) 1.10547(17)
C15B C 1.3069(3) 1.0819(2) 0.8762(2)
H12B H 1.3932 1.0961 0.9100
H13B H 1.3160 1.0462 0.8055
H14B H 1.2604 1.1469 0.8634
C16B C 1.0323(2) 0.98294(19) 0.94779(19)
C17B C 1.3095(3) 0.8740(2) 0.9854(3)
H15B H 1.2636 0.8250 1.0315
H16B H 1.3197 0.8444 0.9116
H17B H 1.3954 0.8887 1.0198
C18B C 1.2485(3) 0.9044(2) 1.2820(3)
H18B H 1.2940 0.8582 1.3346
H19B H 1.1621 0.9203 1.3086
H20B H 1.2395 0.8709 1.2093
loop_
_geom_bond_atom_site_label_1
_geom_bond_atom_site_label_2
_geom_bond_site_symmetry_1
_geom_bond_site_symmetry_2
C1 C2 1_555 1_555
Si1 N1 1_555 1_555
C2 C3 1_555 1_555
C3 H1 1_555 1_555
C4 C2 1_555 1_555
H2 C4 1_555 1_555
C5 C4 1_555 1_555
H3 C5 1_555 1_555
C6 C3 1_555 1_555
H4 C6 1_555 1_555
C7 C5 1_555 1_555
H5 C7 1_555 1_555
C8 C9 1_555 1_555
C9 C11 1_555 1_555
C10 H6 1_555 1_555
C11 C10 1_555 1_555
H7 C11 1_555 1_555
C12 C8 1_555 1_555
C13 C10 1_555 1_555
H8 C13 1_555 1_555
C14 C12 1_555 1_555
H9 C14 1_555 1_555
H10 C14 1_555 1_555
H11 C14 1_555 1_555
N1 C1 1_555 1_555
C15 Si1 1_555 1_555
H12 C15 1_555 1_555
H13 C15 1_555 1_555
H14 C15 1_555 1_555
C16 Si1 1_555 1_555
C17 Si1 1_555 1_555
H15 C17 1_555 1_555
H16 C17 1_555 1_555
H17 C17 1_555 1_555
C18 C9 1_555 1_555
H18 C18 1_555 1_555
H19 C18 1_555 1_555
H20 C18 1_555 1_555
C1B C16 1_555 1_555
Si1B N1B 1_555 1_555
C2B C1B 1_555 1_555
C3B C2B 1_555 1_555
H1B C3B 1_555 1_555
C4B C2B 1_555 1_555
H2B C4B 1_555 1_555
C5B C4B 1_555 1_555
H3B C5B 1_555 1_555
C6B C3B 1_555 1_555
H4B C6B 1_555 1_555
C7B C5B 1_555 1_555
H5B C7B 1_555 1_555
C8B C9B 1_555 1_555
C9B C11B 1_555 1_555
C10B H6B 1_555 1_555
C11B C10B 1_555 1_555
H7B C11B 1_555 1_555
C12B C8B 1_555 1_555
C13B C10B 1_555 1_555
H8B C13B 1_555 1_555
C14B C12B 1_555 1_555
H9B C14B 1_555 1_555
H10B C14B 1_555 1_555
H11B C14B 1_555 1_555
N1B C1B 1_555 1_555
C15B Si1B 1_555 1_555
H12B C15B 1_555 1_555
H13B C15B 1_555 1_555
H14B C15B 1_555 1_555
C16B C1 1_555 1_555
C17B Si1B 1_555 1_555
H15B C17B 1_555 1_555
H16B C17B 1_555 1_555
H17B C17B 1_555 1_555
C18B C9B 1_555 1_555
H18B C18B 1_555 1_555
H19B C18B 1_555 1_555
H20B C18B 1_555 1_555
C6 C7 1_555 1_555
C8 N1 1_555 1_555
C12 C13 1_555 1_555
C16 C16B 1_555 1_555
Si1B C16B 1_555 1_555
C6B C7B 1_555 1_555
C8B N1B 1_555 1_555
C12B C13B 1_555 1_555

#END
