
#######################################################################
#
#                 Cambridge Crystallographic Data Centre
#                                CCDC 
#
#######################################################################
#
# If this CIF has been generated from an entry in the Cambridge 
# Structural Database, then it will include bibliographic, chemical, 
# crystal, experimental, refinement or atomic coordinate data resulting 
# from the CCDC's data processing and validation procedures.
#
#######################################################################

data_YEWJAO
_chemical_formula_moiety         'C36 H40 N2'
_chemical_name_systematic        
N^1^,N^4^-bis(2,6-diethylphenyl)-1,4-diphenylbutane-1,4-di-imine
_symmetry_cell_setting           triclinic
_symmetry_space_group_name_H-M   'P -1'
_symmetry_Int_Tables_number      2
_space_group_name_Hall           '-P 1'
loop_
_symmetry_equiv_pos_site_id
_symmetry_equiv_pos_as_xyz
1 x,y,z
2 -x,-y,-z
_cell_length_a                   8.3622(4)
_cell_length_b                   8.7201(5)
_cell_length_c                   11.3838(6)
_cell_angle_alpha                69.821(2)
_cell_angle_beta                 81.103(2)
_cell_angle_gamma                70.285(2)
_cell_volume                     732.785
_exptl_crystal_colour            colorless
_exptl_crystal_description       block
_cell_formula_units_Z            1
loop_
_atom_site_label
_atom_site_type_symbol
_atom_site_fract_x
_atom_site_fract_y
_atom_site_fract_z
N1 N 0.27834(14) 0.73100(15) 0.45370(11)
C1 C 0.26222(17) 0.82127(18) 0.32405(13)
C2 C 0.16052(17) 0.77038(17) 0.53409(13)
C3 C 0.19039(17) 0.67137(17) 0.66884(13)
C4 C 0.35456(17) 0.93803(18) 0.26888(13)
C5 C -0.00503(17) 0.91512(17) 0.49930(13)
H1 H -0.0342 0.9282 0.4146
H2 H -0.0973 0.8844 0.5590
C6 C 0.16945(18) 0.7826(2) 0.25085(15)
C7 C 0.3318(2) 0.5257(2) 0.70241(15)
H3 H 0.4061 0.4879 0.6390
C8 C 0.08340(19) 0.72223(19) 0.76428(14)
H4 H -0.0143 0.8202 0.7436
C9 C 0.34580(19) 1.0218(2) 0.14063(14)
H5 H 0.4064 1.1025 0.1022
C10 C 0.1650(2) 0.8708(2) 0.12287(16)
H6 H 0.1012 0.8484 0.0720
C11 C 0.2509(2) 0.9899(2) 0.06816(15)
H7 H 0.2446 1.0497 -0.0191
C12 C 0.4644(5) 0.9630(6) 0.3512(5)
H8 H 0.3890 1.0374 0.3993
H9 H 0.5172 0.8499 0.4124
C13 C 0.1177(2) 0.6322(2) 0.88826(15)
H10 H 0.0439 0.6688 0.9523
C14 C 0.3647(2) 0.4362(2) 0.82666(16)
H11 H 0.4613 0.3372 0.8483
C15 C 0.2582(2) 0.4894(2) 0.91990(16)
H12 H 0.2817 0.4279 1.0054
C16 C 0.0847(2) 0.6445(2) 0.30705(19)
H13 H 0.0011 0.6581 0.2485
H14 H 0.0221 0.6582 0.3859
C17 C 0.2115(3) 0.4658(3) 0.3342(3)
H15 H 0.2737 0.4515 0.2564
H16 H 0.1509 0.3802 0.3692
H17 H 0.2919 0.4502 0.3947
C18 C 0.6023(3) 1.0390(5) 0.2864(2)
H18 H 0.6641 1.0488 0.3486
H19 H 0.6810 0.9650 0.2407
H20 H 0.5523 1.1531 0.2275
N1A N -0.27834(14) 1.26900(15) 0.54630(11)
C1A C -0.26222(17) 1.17873(18) 0.67595(13)
C2A C -0.16052(17) 1.22962(17) 0.46591(13)
C3A C -0.19039(17) 1.32863(17) 0.33116(13)
C4A C -0.35456(17) 1.06197(18) 0.73112(13)
C5A C 0.00503(17) 1.08488(17) 0.50070(13)
H1A H 0.0342 1.0718 0.5854
H2A H 0.0973 1.1156 0.4410
C6A C -0.16945(18) 1.2174(2) 0.74915(15)
C7A C -0.3318(2) 1.4743(2) 0.29759(15)
H3A H -0.4061 1.5121 0.3610
C8A C -0.08340(19) 1.27777(19) 0.23572(14)
H4A H 0.0143 1.1798 0.2564
C9A C -0.34580(19) 0.9782(2) 0.85937(14)
H5A H -0.4064 0.8975 0.8978
C10A C -0.1650(2) 1.1292(2) 0.87713(16)
H6A H -0.1012 1.1516 0.9280
C11A C -0.2509(2) 1.0101(2) 0.93184(15)
H7A H -0.2446 0.9503 1.0191
C12A C -0.4644(5) 1.0370(6) 0.6488(5)
H8A H -0.3890 0.9626 0.6007
H9A H -0.5172 1.1501 0.5876
C13A C -0.1177(2) 1.3678(2) 0.11174(15)
H10A H -0.0439 1.3312 0.0477
C14A C -0.3647(2) 1.5638(2) 0.17334(16)
H11A H -0.4613 1.6628 0.1517
C15A C -0.2582(2) 1.5106(2) 0.08010(16)
H12A H -0.2817 1.5721 -0.0054
C16A C -0.0847(2) 1.3555(2) 0.69295(19)
H13A H -0.0011 1.3419 0.7515
H14A H -0.0221 1.3418 0.6141
C17A C -0.2115(3) 1.5342(3) 0.6658(3)
H15A H -0.2737 1.5485 0.7436
H16A H -0.1509 1.6198 0.6308
H17A H -0.2919 1.5498 0.6053
C18A C -0.6023(3) 0.9610(5) 0.7136(2)
H18A H -0.6641 0.9512 0.6514
H19A H -0.6810 1.0350 0.7593
H20A H -0.5523 0.8469 0.7725
C19? C 0.6338(13) 0.8895(16) 0.3387(11)
H21? H 0.6989 0.9262 0.3826
H22? H 0.6418 0.7688 0.3821
H23? H 0.6801 0.9028 0.2525
C20? C 0.450(2) 0.998(3) 0.337(3)
H24? H 0.4411 1.1204 0.2937
H25? H 0.4025 0.9860 0.4237
loop_
_geom_bond_atom_site_label_1
_geom_bond_atom_site_label_2
_geom_bond_site_symmetry_1
_geom_bond_site_symmetry_2
N1 C1 1_555 1_555
C1 C4 1_555 1_555
C2 N1 1_555 1_555
C3 C2 1_555 1_555
C4 C9 1_555 1_555
C5 C2 1_555 1_555
H1 C5 1_555 1_555
H2 C5 1_555 1_555
C6 C1 1_555 1_555
C7 C3 1_555 1_555
H3 C7 1_555 1_555
C8 C3 1_555 1_555
H4 C8 1_555 1_555
C9 H5 1_555 1_555
C10 C6 1_555 1_555
H6 C10 1_555 1_555
C11 C9 1_555 1_555
H7 C11 1_555 1_555
C12 C4 1_555 1_555
H8 C12 1_555 1_555
H9 C12 1_555 1_555
C13 C8 1_555 1_555
H10 C13 1_555 1_555
C14 C7 1_555 1_555
H11 C14 1_555 1_555
C15 C13 1_555 1_555
H12 C15 1_555 1_555
C16 C6 1_555 1_555
H13 C16 1_555 1_555
H14 C16 1_555 1_555
C17 C16 1_555 1_555
H15 C17 1_555 1_555
H16 C17 1_555 1_555
H17 C17 1_555 1_555
C18 C12 1_555 1_555
H18 C18 1_555 1_555
H19 C18 1_555 1_555
H20 C18 1_555 1_555
N1A C1A 1_555 1_555
C1A C4A 1_555 1_555
C2A N1A 1_555 1_555
C3A C2A 1_555 1_555
C4A C9A 1_555 1_555
C5A C5 1_555 1_555
H1A C5A 1_555 1_555
H2A C5A 1_555 1_555
C6A C1A 1_555 1_555
C7A C3A 1_555 1_555
H3A C7A 1_555 1_555
C8A C3A 1_555 1_555
H4A C8A 1_555 1_555
C9A H5A 1_555 1_555
C10A C6A 1_555 1_555
H6A C10A 1_555 1_555
C11A C9A 1_555 1_555
H7A C11A 1_555 1_555
C12A C4A 1_555 1_555
H8A C12A 1_555 1_555
H9A C12A 1_555 1_555
C13A C8A 1_555 1_555
H10A C13A 1_555 1_555
C14A C7A 1_555 1_555
H11A C14A 1_555 1_555
C15A C13A 1_555 1_555
H12A C15A 1_555 1_555
C16A C6A 1_555 1_555
H13A C16A 1_555 1_555
H14A C16A 1_555 1_555
C17A C16A 1_555 1_555
H15A C17A 1_555 1_555
H16A C17A 1_555 1_555
H17A C17A 1_555 1_555
C18A C12A 1_555 1_555
H18A C18A 1_555 1_555
H19A C18A 1_555 1_555
H20A C18A 1_555 1_555
C10 C11 1_555 1_555
C14 C15 1_555 1_555
C2A C5A 1_555 1_555
C10A C11A 1_555 1_555
C14A C15A 1_555 1_555

#END
