
#######################################################################
#
#                 Cambridge Crystallographic Data Centre
#                                CCDC 
#
#######################################################################
#
# If this CIF has been generated from an entry in the Cambridge 
# Structural Database, then it will include bibliographic, chemical, 
# crystal, experimental, refinement or atomic coordinate data resulting 
# from the CCDC's data processing and validation procedures.
#
#######################################################################

data_YEWKUJ
_chemical_formula_moiety         'C24 H26 O6'
_chemical_name_systematic        
"5',8a'-dimethyl-2',5-dioxo-3a',4,5,5',6',7',8',8a',9',9a'-decahydro-3H-spiro[furan-2,3'-naphtho[2,3-b]furan]-8'-yl benzoate"
_symmetry_cell_setting           tetragonal
_symmetry_space_group_name_H-M   'P 41'
_symmetry_Int_Tables_number      76
_space_group_name_Hall           'P 4w'
loop_
_symmetry_equiv_pos_site_id
_symmetry_equiv_pos_as_xyz
1 x,y,z
2 -x,-y,1/2+z
3 -y,x,1/4+z
4 y,-x,3/4+z
_cell_length_a                   13.1463(8)
_cell_length_b                   13.1463(8)
_cell_length_c                   12.732(7)
_cell_angle_alpha                90
_cell_angle_beta                 90
_cell_angle_gamma                90
_cell_volume                     2200.41
_cell_formula_units_Z            4
loop_
_atom_site_label
_atom_site_type_symbol
_atom_site_fract_x
_atom_site_fract_y
_atom_site_fract_z
O1 O 0.8461(3) 0.2894(3) 0.0397(3)
O2 O 0.6990(4) 0.3076(3) -0.0449(4)
O3 O 0.8551(3) 0.4700(3) -0.1084(3)
O4 O 0.8214(4) 0.5332(4) -0.2680(3)
O5 O 0.9863(4) 0.2312(3) 0.3946(3)
O6 O 1.1238(4) 0.3113(3) 0.4534(5)
C1 C 0.9347(5) 0.3288(5) 0.3816(5)
H1 H 0.9864 0.3824 0.3786
C2 C 0.8669(6) 0.3491(5) 0.4762(5)
H2 H 0.9067 0.3458 0.5403
H3 H 0.8137 0.2981 0.4801
C3 C 0.8201(6) 0.4548(5) 0.4642(5)
H4 H 0.8735 0.5056 0.4669
H5 H 0.7740 0.4674 0.5223
C4 C 0.7619(6) 0.4652(5) 0.3603(5)
H6 H 0.7528 0.5385 0.3496
C5 C 0.8234(5) 0.4285(4) 0.2665(4)
C6 C 0.8300(4) 0.4864(4) 0.1821(4)
H7 H 0.7994 0.5500 0.1867
C7 C 0.8804(4) 0.4623(4) 0.0805(4)
H8 H 0.9331 0.5128 0.0648
C8 C 0.9260(5) 0.3546(4) 0.0813(5)
H9 H 0.9845 0.3527 0.0336
C9 C 0.9592(5) 0.3185(4) 0.1885(5)
H10 H 1.0182 0.3577 0.2098
H11 H 0.9802 0.2480 0.1829
C10 C 0.8785(5) 0.3264(4) 0.2753(5)
C11 C 0.8047(4) 0.4566(4) -0.0079(5)
C12 C 0.7734(5) 0.3441(5) -0.0077(5)
C13 C 0.7141(4) 0.5287(4) -0.0094(5)
H12 H 0.7300 0.5921 0.0260
H13 H 0.6553 0.4980 0.0239
C14 C 0.8037(5) 0.2347(4) 0.2694(5)
H14 H 0.7620 0.2336 0.3312
H15 H 0.8417 0.1725 0.2648
H16 H 0.7613 0.2416 0.2084
C15 C 0.6546(5) 0.4210(6) 0.3651(6)
H17 H 0.6583 0.3500 0.3826
H18 H 0.6222 0.4289 0.2981
H19 H 0.6160 0.4562 0.4177
C16 C 0.6951(5) 0.5462(6) -0.1275(5)
H20 H 0.6404 0.5031 -0.1526
H21 H 0.6774 0.6167 -0.1410
C17 C 0.7932(7) 0.5193(6) -0.1800(6)
C18 C 1.0805(6) 0.2345(5) 0.4324(6)
C19 C 1.1271(5) 0.1313(4) 0.4511(5)
C20 C 1.0706(5) 0.0443(5) 0.4378(5)
H22 H 1.0033 0.0479 0.4156
C21 C 1.1162(6) -0.0497(5) 0.4580(5)
H23 H 1.0795 -0.1096 0.4492
C22 C 1.2139(6) -0.0528(5) 0.4905(6)
H24 H 1.2436 -0.1157 0.5036
C23 C 1.2724(5) 0.0354(5) 0.5051(5)
H25 H 1.3397 0.0323 0.5273
C24 C 1.2249(5) 0.1272(4) 0.4848(5)
H26 H 1.2608 0.1874 0.4945
loop_
_geom_bond_atom_site_label_1
_geom_bond_atom_site_label_2
_geom_bond_site_symmetry_1
_geom_bond_site_symmetry_2
O1 C8 1_555 1_555
O2 C12 1_555 1_555
O3 C11 1_555 1_555
O4 C17 1_555 1_555
O5 C1 1_555 1_555
O6 C18 1_555 1_555
C1 H1 1_555 1_555
C2 C1 1_555 1_555
H2 C2 1_555 1_555
H3 C2 1_555 1_555
C3 C2 1_555 1_555
H4 C3 1_555 1_555
H5 C3 1_555 1_555
C4 C3 1_555 1_555
H6 C4 1_555 1_555
C5 C4 1_555 1_555
C6 C5 1_555 1_555
H7 C6 1_555 1_555
C7 C6 1_555 1_555
H8 C7 1_555 1_555
C8 C7 1_555 1_555
H9 C8 1_555 1_555
C9 C8 1_555 1_555
H10 C9 1_555 1_555
H11 C9 1_555 1_555
C10 C1 1_555 1_555
C11 C7 1_555 1_555
C12 O1 1_555 1_555
C13 C11 1_555 1_555
H12 C13 1_555 1_555
H13 C13 1_555 1_555
C14 C10 1_555 1_555
H14 C14 1_555 1_555
H15 C14 1_555 1_555
H16 C14 1_555 1_555
C15 C4 1_555 1_555
H17 C15 1_555 1_555
H18 C15 1_555 1_555
H19 C15 1_555 1_555
C16 C13 1_555 1_555
H20 C16 1_555 1_555
H21 C16 1_555 1_555
C17 O3 1_555 1_555
C18 O5 1_555 1_555
C19 C18 1_555 1_555
C20 C19 1_555 1_555
H22 C20 1_555 1_555
C21 C20 1_555 1_555
H23 C21 1_555 1_555
C22 C21 1_555 1_555
H24 C22 1_555 1_555
C23 C22 1_555 1_555
H25 C23 1_555 1_555
C24 C19 1_555 1_555
H26 C24 1_555 1_555
C5 C10 1_555 1_555
C9 C10 1_555 1_555
C11 C12 1_555 1_555
C16 C17 1_555 1_555
C23 C24 1_555 1_555

#END
