
#######################################################################
#
#                 Cambridge Crystallographic Data Centre
#                                CCDC 
#
#######################################################################
#
# If this CIF has been generated from an entry in the Cambridge 
# Structural Database, then it will include bibliographic, chemical, 
# crystal, experimental, refinement or atomic coordinate data resulting 
# from the CCDC's data processing and validation procedures.
#
#######################################################################

data_YEWLOE
_chemical_formula_moiety         'C26 H26 Br2 N2 S3'
_chemical_name_systematic        
4,7-bis(2-(5-bromo-4-butyl-2-thienyl)vinyl)-2,1,3-benzothiadiazole
_symmetry_cell_setting           triclinic
_symmetry_space_group_name_H-M   'P -1'
_symmetry_Int_Tables_number      2
_space_group_name_Hall           '-P 1'
loop_
_symmetry_equiv_pos_site_id
_symmetry_equiv_pos_as_xyz
1 x,y,z
2 -x,-y,-z
_cell_length_a                   8.7980(15)
_cell_length_b                   13.210(3)
_cell_length_c                   13.288(2)
_cell_angle_alpha                113.098(14)
_cell_angle_beta                 104.841(14)
_cell_angle_gamma                97.140(14)
_cell_volume                     1328.56
_exptl_crystal_colour            red
_exptl_crystal_description       plate
_cell_formula_units_Z            2
loop_
_atom_site_label
_atom_site_type_symbol
_atom_site_fract_x
_atom_site_fract_y
_atom_site_fract_z
Br1 Br -0.11697(12) 0.35217(9) -0.49660(7)
Br2 Br 1.09200(15) 0.74521(12) 1.01292(9)
S1 S 0.0683(2) 0.41634(18) -0.23835(16)
S2 S 0.6743(3) 0.32512(18) 0.19604(17)
S3 S 0.8789(3) 0.6647(2) 0.75691(17)
N1 N 0.5436(8) 0.3547(5) 0.1094(5)
N2 N 0.6793(8) 0.4178(6) 0.3200(5)
C1 C 0.0264(9) 0.3262(7) -0.3829(6)
C2 C 0.1089(9) 0.2440(7) -0.4011(6)
C3 C 0.2122(10) 0.2578(7) -0.2930(6)
H1 H 0.2805 0.2104 -0.2876
C4 C 0.2047(9) 0.3449(6) -0.1977(6)
C5 C 0.2988(9) 0.3784(6) -0.0776(6)
H2 H 0.3731 0.3370 -0.0641
C6 C 0.2885(9) 0.4629(6) 0.0153(6)
H3 H 0.2149 0.5045 0.0010
C7 C 0.3794(9) 0.4971(6) 0.1358(6)
C8 C 0.4958(8) 0.4419(6) 0.1756(6)
C9 C 0.5769(9) 0.4801(6) 0.2979(6)
C10 C 0.5470(9) 0.5736(6) 0.3843(6)
C11 C 0.4363(9) 0.6235(7) 0.3430(6)
H4 H 0.4129 0.6847 0.3964
C12 C 0.3541(9) 0.5872(7) 0.2223(6)
H5 H 0.2802 0.6258 0.2009
C13 C 0.6404(10) 0.6090(7) 0.5069(6)
H6 H 0.7168 0.5693 0.5213
C14 C 0.6271(11) 0.6905(7) 0.5978(6)
H7 H 0.5467 0.7278 0.5844
C15 C 0.7270(10) 0.7279(7) 0.7180(6)
C16 C 0.7181(12) 0.8129(8) 0.8123(7)
H8 H 0.6436 0.8565 0.8081
C17 C 0.8323(12) 0.8307(9) 0.9191(7)
C18 C 0.9242(11) 0.7569(8) 0.9004(6)
C19 C 0.8443(17) 0.9223(14) 1.0363(9)
H9 H 0.9189 0.9088 1.0946
H10 H 0.8965 0.9941 1.0413
C20 C 0.7177(18) 0.9378(13) 1.0682(11)
H11 H 0.6669 0.8661 1.0639
H12 H 0.6426 0.9494 1.0085
C21 C 0.7240(18) 1.0278(11) 1.1813(11)
H13 H 0.8310 1.0457 1.2371
H14 H 0.7124 1.0958 1.1716
C22 C 0.607(2) 1.0026(16) 1.2294(14)
H15 H 0.6220 1.0667 1.3014
H16 H 0.6201 0.9376 1.2434
H17 H 0.5002 0.9863 1.1763
C23 C 0.0906(10) 0.1533(7) -0.5191(6)
H18 H 0.1055 0.1899 -0.5677
H19 H -0.0196 0.1057 -0.5537
C24 C 0.2064(11) 0.0781(7) -0.5201(7)
H20 H 0.1958 0.0438 -0.4689
H21 H 0.3169 0.1246 -0.4900
C25 C 0.1767(13) -0.0160(8) -0.6410(8)
H22 H 0.0640 -0.0591 -0.6737
H23 H 0.1957 0.0181 -0.6908
C26 C 0.2843(16) -0.0954(10) -0.6394(9)
H24 H 0.2603 -0.1536 -0.7168
H25 H 0.2654 -0.1298 -0.5906
H26 H 0.3960 -0.0537 -0.6096
loop_
_geom_bond_atom_site_label_1
_geom_bond_atom_site_label_2
_geom_bond_site_symmetry_1
_geom_bond_site_symmetry_2
Br1 C1 1_555 1_555
Br2 C18 1_555 1_555
S1 C1 1_555 1_555
S2 N1 1_555 1_555
S3 C15 1_555 1_555
N1 C8 1_555 1_555
N2 S2 1_555 1_555
C1 C2 1_555 1_555
C2 C3 1_555 1_555
C3 H1 1_555 1_555
C4 S1 1_555 1_555
C5 C4 1_555 1_555
H2 C5 1_555 1_555
C6 C5 1_555 1_555
H3 C6 1_555 1_555
C7 C6 1_555 1_555
C8 C7 1_555 1_555
C9 N2 1_555 1_555
C10 C9 1_555 1_555
C11 C10 1_555 1_555
H4 C11 1_555 1_555
C12 C7 1_555 1_555
H5 C12 1_555 1_555
C13 C10 1_555 1_555
H6 C13 1_555 1_555
C14 C13 1_555 1_555
H7 C14 1_555 1_555
C15 C14 1_555 1_555
C16 C15 1_555 1_555
H8 C16 1_555 1_555
C17 C16 1_555 1_555
C18 S3 1_555 1_555
C19 C17 1_555 1_555
H9 C19 1_555 1_555
H10 C19 1_555 1_555
C20 C19 1_555 1_555
H11 C20 1_555 1_555
H12 C20 1_555 1_555
C21 C20 1_555 1_555
H13 C21 1_555 1_555
H14 C21 1_555 1_555
C22 C21 1_555 1_555
H15 C22 1_555 1_555
H16 C22 1_555 1_555
H17 C22 1_555 1_555
C23 C2 1_555 1_555
H18 C23 1_555 1_555
H19 C23 1_555 1_555
C24 C23 1_555 1_555
H20 C24 1_555 1_555
H21 C24 1_555 1_555
C25 C24 1_555 1_555
H22 C25 1_555 1_555
H23 C25 1_555 1_555
C26 C25 1_555 1_555
H24 C26 1_555 1_555
H25 C26 1_555 1_555
H26 C26 1_555 1_555
C3 C4 1_555 1_555
C8 C9 1_555 1_555
C11 C12 1_555 1_555
C17 C18 1_555 1_555

#END
