
#######################################################################
#
#                 Cambridge Crystallographic Data Centre
#                                CCDC 
#
#######################################################################
#
# If this CIF has been generated from an entry in the Cambridge 
# Structural Database, then it will include bibliographic, chemical, 
# crystal, experimental, refinement or atomic coordinate data resulting 
# from the CCDC's data processing and validation procedures.
#
#######################################################################

data_YEWLIY
_chemical_formula_moiety         'C26 H26 F2 N2 S3'
_chemical_name_systematic        
4,7-bis[2-(4-butylthiophen-2-yl)ethenyl]-5,6-difluoro-2,1,3-benzothiadiazole
_symmetry_cell_setting           monoclinic
_symmetry_space_group_name_H-M   'P 21'
_symmetry_Int_Tables_number      4
_space_group_name_Hall           'P 2yb'
loop_
_symmetry_equiv_pos_site_id
_symmetry_equiv_pos_as_xyz
1 x,y,z
2 -x,1/2+y,-z
_cell_length_a                   13.5975(6)
_cell_length_b                   6.7176(2)
_cell_length_c                   13.7523(6)
_cell_angle_alpha                90
_cell_angle_beta                 97.379(4)
_cell_angle_gamma                90
_cell_volume                     1245.77
_exptl_crystal_colour            red
_exptl_crystal_description       needle
_cell_formula_units_Z            2
_exptl_crystal_recrystallization_method hexane/dichloromethane
loop_
_atom_site_label
_atom_site_type_symbol
_atom_site_fract_x
_atom_site_fract_y
_atom_site_fract_z
C1 C -0.9653(8) -0.9860(18) -0.1033(10)
H1 H -0.9541 -1.0373 -0.1660
H2 H -1.0306 -0.9296 -0.1080
H3 H -0.9595 -1.0919 -0.0560
C2 C -0.8908(7) -0.8302(14) -0.0720(7)
H4 H -0.8265 -0.8927 -0.0558
H5 H -0.9080 -0.7668 -0.0131
C3 C -0.8832(5) -0.6683(13) -0.1513(5)
H6 H -0.8665 -0.7312 -0.2105
H7 H -0.9472 -0.6041 -0.1670
C4 C -0.8080(6) -0.5169(13) -0.1187(5)
H8 H -0.7456 -0.5845 -0.0988
H9 H -0.8271 -0.4520 -0.0610
C5 C -0.7901(4) -0.3566(10) -0.1925(5)
C6 C -0.8311(4) -0.3476(11) -0.2865(5)
H10 H -0.8766 -0.4401 -0.3155
C7 C -0.7157(4) -0.0678(9) -0.2425(4)
C8 C -0.7246(4) -0.1961(9) -0.1685(4)
H11 H -0.6901 -0.1798 -0.1062
C9 C -0.6564(4) 0.1079(9) -0.2371(4)
H12 H -0.6181 0.1308 -0.1771
C10 C -0.6483(4) 0.2424(9) -0.3055(4)
H13 H -0.6844 0.2191 -0.3666
C11 C -0.5891(3) 0.4229(8) -0.2959(4)
C12 C -0.5818(4) 0.5408(10) -0.3746(3)
C13 C -0.5266(4) 0.7217(10) -0.3722(4)
C14 C -0.4734(3) 0.7966(9) -0.2887(4)
C15 C -0.4801(4) 0.6821(8) -0.2033(4)
C16 C -0.5347(4) 0.4967(8) -0.2061(4)
C17 C -0.4186(4) 0.9829(9) -0.2948(4)
H14 H -0.4253 1.0447 -0.3559
C18 C -0.3614(4) 1.0724(10) -0.2249(4)
H15 H -0.3555 1.0158 -0.1627
C19 C -0.3064(4) 1.2539(10) -0.2370(4)
C20 C -0.2983(4) 1.3664(11) -0.3172(4)
H16 H -0.3319 1.3361 -0.3787
C21 C -0.2334(4) 1.5373(10) -0.3004(4)
C22 C -0.1964(6) 1.5469(11) -0.2056(5)
H17 H -0.1537 1.6471 -0.1797
C23 C -0.2148(5) 1.6803(12) -0.3801(5)
H18 H -0.1923 1.6048 -0.4332
H19 H -0.2774 1.7420 -0.4055
C24 C -0.1407(5) 1.8421(12) -0.3509(5)
H20 H -0.0775 1.7812 -0.3271
H21 H -0.1623 1.9167 -0.2970
C25 C -0.1256(6) 1.9863(17) -0.4329(7)
H22 H -0.1023 1.9120 -0.4860
H23 H -0.1893 2.0440 -0.4579
C26 C -0.0559(6) 2.1473(18) -0.4047(9)
H24 H -0.0593 2.2435 -0.4567
H25 H 0.0102 2.0944 -0.3926
H26 H -0.0725 2.2101 -0.3463
F1 F -0.6319(3) 0.4962(7) -0.4628(2)
F2 F -0.5308(3) 0.8172(8) -0.4578(2)
N1 N -0.5342(4) 0.4129(7) -0.1189(4)
N2 N -0.4393(4) 0.7309(9) -0.1131(4)
S1 S -0.79001(10) -0.1454(3) -0.34785(11)
S2 S -0.47149(15) 0.5596(3) -0.03994(11)
S3 S -0.23502(16) 1.3575(3) -0.13649(13)
loop_
_geom_bond_atom_site_label_1
_geom_bond_atom_site_label_2
_geom_bond_site_symmetry_1
_geom_bond_site_symmetry_2
C1 H1 1_555 1_555
H2 C1 1_555 1_555
H3 C1 1_555 1_555
C2 C1 1_555 1_555
H4 C2 1_555 1_555
H5 C2 1_555 1_555
C3 C2 1_555 1_555
H6 C3 1_555 1_555
H7 C3 1_555 1_555
C4 C3 1_555 1_555
H8 C4 1_555 1_555
H9 C4 1_555 1_555
C5 C4 1_555 1_555
C6 C5 1_555 1_555
H10 C6 1_555 1_555
C7 C8 1_555 1_555
C8 C5 1_555 1_555
H11 C8 1_555 1_555
C9 C7 1_555 1_555
H12 C9 1_555 1_555
C10 C9 1_555 1_555
H13 C10 1_555 1_555
C11 C10 1_555 1_555
C12 C11 1_555 1_555
C13 C12 1_555 1_555
C14 C13 1_555 1_555
C15 C14 1_555 1_555
C16 C11 1_555 1_555
C17 C14 1_555 1_555
H14 C17 1_555 1_555
C18 C17 1_555 1_555
H15 C18 1_555 1_555
C19 C18 1_555 1_555
C20 C19 1_555 1_555
H16 C20 1_555 1_555
C21 C20 1_555 1_555
C22 C21 1_555 1_555
H17 C22 1_555 1_555
C23 C21 1_555 1_555
H18 C23 1_555 1_555
H19 C23 1_555 1_555
C24 C23 1_555 1_555
H20 C24 1_555 1_555
H21 C24 1_555 1_555
C25 C24 1_555 1_555
H22 C25 1_555 1_555
H23 C25 1_555 1_555
C26 C25 1_555 1_555
H24 C26 1_555 1_555
H25 C26 1_555 1_555
H26 C26 1_555 1_555
F1 C12 1_555 1_555
F2 C13 1_555 1_555
N1 C16 1_555 1_555
N2 C15 1_555 1_555
S1 C6 1_555 1_555
S2 N1 1_555 1_555
S3 C19 1_555 1_555
C7 S1 1_555 1_555
C15 C16 1_555 1_555
C22 S3 1_555 1_555
N2 S2 1_555 1_555

#END
