
#######################################################################
#
#                 Cambridge Crystallographic Data Centre
#                                CCDC 
#
#######################################################################
#
# If this CIF has been generated from an entry in the Cambridge 
# Structural Database, then it will include bibliographic, chemical, 
# crystal, experimental, refinement or atomic coordinate data resulting 
# from the CCDC's data processing and validation procedures.
#
#######################################################################

data_YEWLOC
_chemical_formula_moiety         'C30 H35 N1 O3'
_chemical_name_systematic        
(S)-1-((S)-4-Benzyl-2,2,5,5-tetramethyloxazolidin-3-yl)-3-hydroxy-3,4-diphenylbutan-1-one
_symmetry_cell_setting           monoclinic
_symmetry_space_group_name_H-M   'P 21'
_symmetry_Int_Tables_number      4
_space_group_name_Hall           'P 2yb'
loop_
_symmetry_equiv_pos_site_id
_symmetry_equiv_pos_as_xyz
1 x,y,z
2 -x,1/2+y,-z
_cell_length_a                   11.3593(11)
_cell_length_b                   9.6066(9)
_cell_length_c                   12.1731(12)
_cell_angle_alpha                90
_cell_angle_beta                 109.728(2)
_cell_angle_gamma                90
_cell_volume                     1250.41
_exptl_crystal_colour            colorless
_exptl_crystal_description       block
_chemical_melting_point          '144-154 deg.C'
_cell_formula_units_Z            2
_exptl_crystal_recrystallization_method dichloromethane
loop_
_atom_site_label
_atom_site_type_symbol
_atom_site_fract_x
_atom_site_fract_y
_atom_site_fract_z
H1 H 0.896(2) 0.330(3) 0.652(2)
C1 C 0.33270(15) 0.39534(18) -0.11192(12)
O1 O 0.47646(10) 0.00046(11) 0.27230(10)
O2 O 0.19507(9) 0.50765(11) -0.02966(8)
O3 O 0.42436(10) 0.16250(11) 0.08278(8)
N1 N 0.34814(10) 0.37578(12) 0.09921(9)
C2 C 0.41851(12) 0.26320(14) 0.14465(11)
C3 C 0.49017(12) 0.25482(14) 0.27556(11)
C4 C 0.34577(12) 0.51037(14) 0.15597(11)
C5 C 0.45097(12) 0.12227(14) 0.32706(11)
C6 C 0.31085(12) 0.13198(14) 0.31011(11)
C7 C 0.66845(13) 0.12684(16) 0.49131(12)
C8 C 0.26279(12) 0.38064(15) -0.02531(11)
C9 C 0.17306(15) 0.25689(17) -0.05664(14)
C10 C 0.22523(14) 0.05048(16) 0.22629(14)
C11 C 0.63403(14) 0.46453(16) 0.14193(13)
C12 C 0.52878(13) 0.10800(16) 0.45834(12)
C13 C 0.64439(14) 0.57551(17) 0.32157(13)
C14 C 0.26549(13) 0.22692(16) 0.37309(13)
C15 C 0.75908(15) 0.5129(2) 0.37733(13)
C16 C 0.57901(12) 0.55026(15) 0.20372(12)
C17 C 0.11735(14) 0.48936(18) 0.13530(15)
C18 C 0.74951(14) 0.40251(18) 0.19789(14)
C19 C 0.74135(15) 0.04037(18) 0.44686(14)
C20 C 0.13769(15) 0.23585(19) 0.35482(14)
C21 C 0.09726(15) 0.06113(19) 0.20712(15)
C22 C 0.85693(16) 0.2520(2) 0.60086(15)
C23 C 0.44943(13) 0.60997(15) 0.14715(13)
C24 C 0.92738(16) 0.1667(2) 0.55624(16)
C25 C 0.72766(15) 0.23255(19) 0.56778(13)
C26 C 0.21077(13) 0.55746(15) 0.08663(12)
C27 C 0.86976(16) 0.0622(2) 0.47853(15)
C28 C 0.05359(15) 0.1526(2) 0.27201(15)
C29 C 0.81160(15) 0.42549(19) 0.31563(15)
C30 C 0.19042(16) 0.71358(16) 0.07756(15)
H2 H 0.2513(19) -0.013(2) 0.1788(18)
H3 H 0.607(2) 0.643(2) 0.3649(18)
H4 H 0.5886(17) 0.4480(19) 0.0628(16)
H5 H 0.3225(17) 0.2947(19) 0.4255(16)
H6 H 0.4428(16) 0.689(2) 0.1832(15)
H7 H 0.700(2) -0.031(2) 0.3908(18)
H8 H 0.4336(16) 0.626(2) 0.0634(16)
H9 H 0.788(2) 0.339(3) 0.156(2)
H10 H 0.919(2) 0.005(2) 0.4466(18)
H11 H 0.462(2) 0.032(3) 0.195(2)
H12 H 0.5080(16) 0.0195(19) 0.4799(15)
H13 H 0.5831(18) 0.249(2) 0.2848(16)
H14 H 0.4801(16) 0.3396(18) 0.3195(15)
H15 H 0.3565(16) 0.4977(19) 0.2392(15)
H16 H 0.4959(17) 0.1795(18) 0.5041(16)
H17 H -0.036(2) 0.164(3) 0.261(2)
H18 H 0.803(2) 0.530(3) 0.464(2)
H19 H 1.011(2) 0.180(3) 0.574(2)
H20 H 0.895(2) 0.389(2) 0.3579(18)
H21 H 0.039(2) 0.005(2) 0.1485(19)
H22 H 0.678(2) 0.299(2) 0.602(2)
H23 H 0.113(2) 0.304(2) 0.400(2)
H24 H 0.1330(18) 0.392(2) 0.1459(16)
H25 H 0.387(2) 0.485(3) -0.0981(19)
H26 H 0.105(2) 0.733(2) 0.0259(18)
H27 H 0.2133(19) 0.171(2) -0.0645(18)
H28 H 0.036(2) 0.498(2) 0.0815(19)
H29 H 0.2749(19) 0.402(2) -0.1884(18)
H30 H 0.1233(18) 0.535(2) 0.2077(18)
H31 H 0.2530(19) 0.758(2) 0.0518(17)
H32 H 0.383(2) 0.313(2) -0.1098(18)
H33 H 0.1346(18) 0.245(2) 0.0029(17)
H34 H 0.208(2) 0.752(2) 0.161(2)
H35 H 0.105(2) 0.282(2) -0.128(2)
loop_
_geom_bond_atom_site_label_1
_geom_bond_atom_site_label_2
_geom_bond_site_symmetry_1
_geom_bond_site_symmetry_2
H1 C22 1_555 1_555
C1 C8 1_555 1_555
O1 C5 1_555 1_555
O2 C8 1_555 1_555
O3 C2 1_555 1_555
N1 C2 1_555 1_555
C2 C3 1_555 1_555
C3 C5 1_555 1_555
C4 N1 1_555 1_555
C5 C6 1_555 1_555
C6 C10 1_555 1_555
C7 C12 1_555 1_555
C8 N1 1_555 1_555
C9 C8 1_555 1_555
C10 C21 1_555 1_555
C11 C16 1_555 1_555
C12 C5 1_555 1_555
C13 C15 1_555 1_555
C14 C6 1_555 1_555
C15 C29 1_555 1_555
C16 C13 1_555 1_555
C17 C26 1_555 1_555
C18 C11 1_555 1_555
C19 C7 1_555 1_555
C20 C14 1_555 1_555
C21 C28 1_555 1_555
C22 C24 1_555 1_555
C23 C4 1_555 1_555
C24 C27 1_555 1_555
C25 C7 1_555 1_555
C26 O2 1_555 1_555
C27 C19 1_555 1_555
C28 C20 1_555 1_555
C29 C18 1_555 1_555
C30 C26 1_555 1_555
H2 C10 1_555 1_555
H3 C13 1_555 1_555
H4 C11 1_555 1_555
H5 C14 1_555 1_555
H6 C23 1_555 1_555
H7 C19 1_555 1_555
H8 C23 1_555 1_555
H9 C18 1_555 1_555
H10 C27 1_555 1_555
H11 O1 1_555 1_555
H12 C12 1_555 1_555
H13 C3 1_555 1_555
H14 C3 1_555 1_555
H15 C4 1_555 1_555
H16 C12 1_555 1_555
H17 C28 1_555 1_555
H18 C15 1_555 1_555
H19 C24 1_555 1_555
H20 C29 1_555 1_555
H21 C21 1_555 1_555
H22 C25 1_555 1_555
H23 C20 1_555 1_555
H24 C17 1_555 1_555
H25 C1 1_555 1_555
H26 C30 1_555 1_555
H27 C9 1_555 1_555
H28 C17 1_555 1_555
H29 C1 1_555 1_555
H30 C17 1_555 1_555
H31 C30 1_555 1_555
H32 C1 1_555 1_555
H33 C9 1_555 1_555
H34 C30 1_555 1_555
H35 C9 1_555 1_555
C4 C26 1_555 1_555
C16 C23 1_555 1_555
C22 C25 1_555 1_555

#END
