
#######################################################################
#
#                 Cambridge Crystallographic Data Centre
#                                CCDC 
#
#######################################################################
#
# If this CIF has been generated from an entry in the Cambridge 
# Structural Database, then it will include bibliographic, chemical, 
# crystal, experimental, refinement or atomic coordinate data resulting 
# from the CCDC's data processing and validation procedures.
#
#######################################################################

data_YEWLEU
_chemical_formula_moiety         'C19 H17 I1 Si1'
_chemical_name_systematic        
((7-iodo-2-phenanthryl)ethynyl)(trimethyl)silane
_symmetry_cell_setting           monoclinic
_symmetry_space_group_name_H-M   'P 21'
_symmetry_Int_Tables_number      4
_space_group_name_Hall           'P 2yb'
loop_
_symmetry_equiv_pos_site_id
_symmetry_equiv_pos_as_xyz
1 x,y,z
2 -x,1/2+y,-z
_cell_length_a                   13.8174(14)
_cell_length_b                   7.5170(5)
_cell_length_c                   17.415(2)
_cell_angle_alpha                90
_cell_angle_beta                 91.923(9)
_cell_angle_gamma                90
_cell_volume                     1807.8
_exptl_crystal_colour            colorless
_exptl_crystal_description       plate
_cell_formula_units_Z            4
loop_
_atom_site_label
_atom_site_type_symbol
_atom_site_fract_x
_atom_site_fract_y
_atom_site_fract_z
I1 I 0.38800(8) 0.7232(3) 0.81494(6)
Si1 Si -0.1277(3) 0.6806(10) 0.1362(3)
C1 C 0.3072(10) 0.742(3) 0.7133(9)
C2 C 0.3537(11) 0.794(2) 0.6480(10)
H1 H 0.4199 0.8283 0.6506
C3 C 0.3014(10) 0.7958(18) 0.5781(9)
H2 H 0.3333 0.8339 0.5335
C4 C 0.2031(9) 0.744(3) 0.5702(8)
C5 C 0.1580(10) 0.693(3) 0.6382(9)
C6 C 0.2103(11) 0.690(3) 0.7093(9)
H3 H 0.1794 0.6518 0.7544
C7 C 0.0572(11) 0.628(2) 0.6334(10)
H4 H 0.0247 0.5983 0.6789
C8 C 0.0120(10) 0.611(2) 0.5649(9)
H5 H -0.0517 0.5635 0.5626
C9 C 0.1525(8) 0.732(3) 0.4977(7)
C10 C 0.1918(11) 0.7766(19) 0.4275(9)
H6 H 0.2563 0.8205 0.4278
C11 C 0.1424(11) 0.761(2) 0.3578(9)
H7 H 0.1717 0.7956 0.3116
C12 C 0.0473(10) 0.691(3) 0.3560(9)
C13 C 0.0076(11) 0.6440(19) 0.4230(10)
H8 H -0.0560 0.5958 0.4214
C14 C 0.0556(11) 0.6627(17) 0.4945(9)
C15 C -0.0072(12) 0.680(2) 0.2827(10)
C16 C -0.0537(12) 0.681(3) 0.2239(10)
C17 C -0.0867(19) 0.873(5) 0.079(2)
H9 H -0.0965 0.9827 0.1078
H10 H -0.1240 0.8774 0.0302
H11 H -0.0178 0.8589 0.0688
C18 C -0.1117(19) 0.467(4) 0.0851(17)
H12 H -0.0442 0.4553 0.0701
H13 H -0.1545 0.4636 0.0391
H14 H -0.1278 0.3679 0.1192
C19 C -0.2555(10) 0.711(4) 0.1600(9)
H15 H -0.2734 0.6219 0.1981
H16 H -0.2966 0.6967 0.1134
H17 H -0.2645 0.8304 0.1812
I2 I 0.81823(9) 0.7153(3) 0.78009(7)
Si2 Si 0.3180(3) 0.6927(12) 0.0933(3)
C20 C 0.7367(11) 0.699(4) 0.6772(9)
C21 C 0.6459(12) 0.619(2) 0.6752(10)
H18 H 0.6210 0.5716 0.7211
C22 C 0.5921(12) 0.609(2) 0.6087(10)
H19 H 0.5293 0.5572 0.6085
C23 C 0.6294(9) 0.6758(19) 0.5397(9)
C24 C 0.7244(10) 0.747(2) 0.5411(8)
C25 C 0.7759(11) 0.760(2) 0.6126(10)
H20 H 0.8386 0.8115 0.6150
C26 C 0.7655(11) 0.809(2) 0.4714(10)
H21 H 0.8292 0.8562 0.4729
C27 C 0.7142(10) 0.7999(19) 0.4028(10)
H22 H 0.7432 0.8362 0.3566
C28 C 0.5730(10) 0.669(2) 0.4663(9)
C29 C 0.6169(10) 0.736(3) 0.4010(9)
C30 C 0.5645(10) 0.734(3) 0.3292(8)
H23 H 0.5944 0.7761 0.2844
C31 C 0.4707(10) 0.6705(19) 0.3242(9)
C32 C 0.4284(12) 0.601(2) 0.3888(10)
H24 H 0.3645 0.5548 0.3850
C33 C 0.4784(10) 0.6001(19) 0.4584(10)
H25 H 0.4486 0.5515 0.5020
C34 C 0.4170(11) 0.675(2) 0.2515(10)
C35 C 0.3740(11) 0.682(3) 0.1892(9)
C36 C 0.360(2) 0.897(4) 0.0473(19)
H26 H 0.3458 0.8904 -0.0082
H27 H 0.4300 0.9096 0.0567
H28 H 0.3267 0.9997 0.0687
C37 C 0.359(3) 0.489(4) 0.0412(18)
H29 H 0.3593 0.3872 0.0762
H30 H 0.4241 0.5087 0.0226
H31 H 0.3141 0.4656 -0.0026
C38 C 0.1848(10) 0.692(4) 0.1010(9)
H32 H 0.1546 0.7359 0.0528
H33 H 0.1667 0.7700 0.1434
H34 H 0.1625 0.5710 0.1108
loop_
_geom_bond_atom_site_label_1
_geom_bond_atom_site_label_2
_geom_bond_site_symmetry_1
_geom_bond_site_symmetry_2
I1 C1 1_555 1_555
Si1 C16 1_555 1_555
C1 C2 1_555 1_555
C2 H1 1_555 1_555
C3 C2 1_555 1_555
H2 C3 1_555 1_555
C4 C3 1_555 1_555
C5 C4 1_555 1_555
C6 C1 1_555 1_555
H3 C6 1_555 1_555
C7 C5 1_555 1_555
H4 C7 1_555 1_555
C8 C7 1_555 1_555
H5 C8 1_555 1_555
C9 C4 1_555 1_555
C10 C9 1_555 1_555
H6 C10 1_555 1_555
C11 C10 1_555 1_555
H7 C11 1_555 1_555
C12 C11 1_555 1_555
C13 C12 1_555 1_555
H8 C13 1_555 1_555
C14 C8 1_555 1_555
C15 C12 1_555 1_555
C16 C15 1_555 1_555
C17 Si1 1_555 1_555
H9 C17 1_555 1_555
H10 C17 1_555 1_555
H11 C17 1_555 1_555
C18 Si1 1_555 1_555
H12 C18 1_555 1_555
H13 C18 1_555 1_555
H14 C18 1_555 1_555
C19 Si1 1_555 1_555
H15 C19 1_555 1_555
H16 C19 1_555 1_555
H17 C19 1_555 1_555
I2 C20 1_555 1_555
Si2 C35 1_555 1_555
C20 C21 1_555 1_555
C21 H18 1_555 1_555
C22 C21 1_555 1_555
H19 C22 1_555 1_555
C23 C22 1_555 1_555
C24 C23 1_555 1_555
C25 C20 1_555 1_555
H20 C25 1_555 1_555
C26 C24 1_555 1_555
H21 C26 1_555 1_555
C27 C26 1_555 1_555
H22 C27 1_555 1_555
C28 C23 1_555 1_555
C29 C27 1_555 1_555
C30 C29 1_555 1_555
H23 C30 1_555 1_555
C31 C30 1_555 1_555
C32 C31 1_555 1_555
H24 C32 1_555 1_555
C33 C28 1_555 1_555
H25 C33 1_555 1_555
C34 C31 1_555 1_555
C35 C34 1_555 1_555
C36 Si2 1_555 1_555
H26 C36 1_555 1_555
H27 C36 1_555 1_555
H28 C36 1_555 1_555
C37 Si2 1_555 1_555
H29 C37 1_555 1_555
H30 C37 1_555 1_555
H31 C37 1_555 1_555
C38 Si2 1_555 1_555
H32 C38 1_555 1_555
H33 C38 1_555 1_555
H34 C38 1_555 1_555
C5 C6 1_555 1_555
C9 C14 1_555 1_555
C13 C14 1_555 1_555
C24 C25 1_555 1_555
C28 C29 1_555 1_555
C32 C33 1_555 1_555

#END
