
#######################################################################
#
#                 Cambridge Crystallographic Data Centre
#                                CCDC 
#
#######################################################################
#
# If this CIF has been generated from an entry in the Cambridge 
# Structural Database, then it will include bibliographic, chemical, 
# crystal, experimental, refinement or atomic coordinate data resulting 
# from the CCDC's data processing and validation procedures.
#
#######################################################################

data_YEWMUJ
_chemical_formula_moiety         'C40 H30 N2'
_chemical_name_systematic        
'2,7-Diphenyl- 2,7-diaza-1,3,6,8(1,4)-tetrabenzenacyclodecaphane-4,9-diene'
_symmetry_cell_setting           triclinic
_symmetry_space_group_name_H-M   'P -1'
_symmetry_Int_Tables_number      2
_space_group_name_Hall           '-P 1'
loop_
_symmetry_equiv_pos_site_id
_symmetry_equiv_pos_as_xyz
1 x,y,z
2 -x,-y,-z
_cell_length_a                   10.642(2)
_cell_length_b                   10.657(2)
_cell_length_c                   13.974(3)
_cell_angle_alpha                103.890(3)
_cell_angle_beta                 105.111(3)
_cell_angle_gamma                90.892(3)
_cell_volume                     1480.1
_exptl_crystal_colour            yellow
_exptl_crystal_description       plate
_chemical_melting_point          '324-325 deg.C'
_cell_formula_units_Z            2
_exptl_crystal_recrystallization_method dichloromethane
loop_
_atom_site_label
_atom_site_type_symbol
_atom_site_fract_x
_atom_site_fract_y
_atom_site_fract_z
N1 N 0.34530(14) 0.33459(15) 0.22297(11)
N2 N 0.66649(14) 0.15474(17) -0.23656(11)
C1 C 0.2165(2) 0.2932(3) 0.43593(16)
H1 H 0.2169 0.2345 0.4757
C2 C 0.2829(2) 0.2697(2) 0.36067(14)
H2 H 0.3277 0.1956 0.3500
C3 C 0.28168(16) 0.35723(19) 0.30194(13)
C4 C 0.21554(18) 0.4686(2) 0.32018(15)
H3 H 0.2154 0.5286 0.2816
C5 C 0.1506(2) 0.4899(3) 0.39466(17)
H4 H 0.1066 0.5644 0.4062
C6 C 0.1501(3) 0.4030(4) 0.45195(18)
H5 H 0.1049 0.4178 0.5018
C7 C 0.68847(18) 0.26736(19) 0.32701(13)
H6 H 0.7547 0.2919 0.3880
C8 C 0.71425(16) 0.18451(17) 0.24246(13)
C9 C 0.60935(15) 0.14246(16) 0.15535(13)
H7 H 0.6215 0.0825 0.0987
C10 C 0.48832(15) 0.18765(17) 0.15129(13)
H8 H 0.4199 0.1571 0.0924
C11 C 0.46704(16) 0.27819(17) 0.23388(12)
C12 C 0.56735(18) 0.31468(18) 0.32345(13)
H9 H 0.5534 0.3709 0.3812
C13 C 0.31367(15) 0.42475(16) -0.02046(12)
H10 H 0.3684 0.4543 -0.0540
C14 C 0.18071(15) 0.39680(15) -0.06993(12)
C15 C 0.10201(16) 0.36002(17) -0.01463(13)
H11 H 0.0121 0.3476 -0.0434
C16 C 0.15347(16) 0.34144(17) 0.08177(13)
H12 H 0.0984 0.3145 0.1162
C17 C 0.28679(16) 0.36265(16) 0.12765(12)
C18 C 0.36555(15) 0.40965(17) 0.07627(12)
H13 H 0.4542 0.4310 0.1080
C19 C 0.7144(3) 0.0640(3) -0.49580(17)
H14 H 0.6638 0.0393 -0.5635
C20 C 0.6541(2) 0.0902(2) -0.41747(15)
H15 H 0.5635 0.0822 -0.4329
C21 C 0.72769(18) 0.12819(18) -0.31621(13)
C22 C 0.86278(19) 0.1387(2) -0.29561(15)
H16 H 0.9144 0.1641 -0.2282
C23 C 0.9205(2) 0.1115(2) -0.37525(18)
H17 H 1.0111 0.1189 -0.3607
C24 C 0.8476(3) 0.0740(3) -0.47459(19)
H18 H 0.8878 0.0554 -0.5274
C25 C 0.50734(18) 0.3028(2) -0.29798(13)
H19 H 0.5644 0.3338 -0.3290
C26 C 0.38887(18) 0.35421(19) -0.30125(13)
H20 H 0.3667 0.4186 -0.3359
C27 C 0.30153(16) 0.31311(17) -0.25463(12)
C28 C 0.33429(17) 0.21029(17) -0.21036(14)
H21 H 0.2756 0.1764 -0.1822
C29 C 0.45221(17) 0.15759(17) -0.20741(14)
H22 H 0.4719 0.0889 -0.1771
C30 C 0.54185(16) 0.20525(18) -0.24879(12)
C31 C 0.83973(16) 0.02082(18) -0.02046(15)
H23 H 0.8745 -0.0560 -0.0103
C32 C 0.78287(16) 0.03018(18) -0.11900(14)
H24 H 0.7784 -0.0405 -0.1742
C33 C 0.73253(15) 0.14407(17) -0.13595(12)
C34 C 0.74333(17) 0.24885(17) -0.05321(13)
H25 H 0.7130 0.3271 -0.0638
C35 C 0.79870(16) 0.23842(16) 0.04507(13)
H26 H 0.8044 0.3098 0.1000
C36 C 0.84614(15) 0.12332(17) 0.06368(13)
C37 C 0.84569(17) 0.1419(2) 0.24607(14)
H27 H 0.8965 0.1356 0.3096
C38 C 0.90040(17) 0.1113(2) 0.16935(15)
H28 H 0.9819 0.0788 0.1837
C39 C 0.18047(18) 0.37739(19) -0.25234(14)
H29 H 0.1365 0.3987 -0.3124
C40 C 0.12630(17) 0.40868(18) -0.17525(14)
H30 H 0.0450 0.4417 -0.1893
loop_
_geom_bond_atom_site_label_1
_geom_bond_atom_site_label_2
_geom_bond_site_symmetry_1
_geom_bond_site_symmetry_2
N1 C3 1_555 1_555
N2 C21 1_555 1_555
C1 H1 1_555 1_555
C2 C1 1_555 1_555
H2 C2 1_555 1_555
C3 C2 1_555 1_555
C4 C3 1_555 1_555
H3 C4 1_555 1_555
C5 C4 1_555 1_555
H4 C5 1_555 1_555
C6 C1 1_555 1_555
H5 C6 1_555 1_555
C7 H6 1_555 1_555
C8 C7 1_555 1_555
C9 C8 1_555 1_555
H7 C9 1_555 1_555
C10 C9 1_555 1_555
H8 C10 1_555 1_555
C11 N1 1_555 1_555
C12 C7 1_555 1_555
H9 C12 1_555 1_555
C13 H10 1_555 1_555
C14 C13 1_555 1_555
C15 C14 1_555 1_555
H11 C15 1_555 1_555
C16 C15 1_555 1_555
H12 C16 1_555 1_555
C17 N1 1_555 1_555
C18 C13 1_555 1_555
H13 C18 1_555 1_555
C19 H14 1_555 1_555
C20 C19 1_555 1_555
H15 C20 1_555 1_555
C21 C20 1_555 1_555
C22 C21 1_555 1_555
H16 C22 1_555 1_555
C23 C22 1_555 1_555
H17 C23 1_555 1_555
C24 C19 1_555 1_555
H18 C24 1_555 1_555
C25 H19 1_555 1_555
C26 C25 1_555 1_555
H20 C26 1_555 1_555
C27 C26 1_555 1_555
C28 C27 1_555 1_555
H21 C28 1_555 1_555
C29 C28 1_555 1_555
H22 C29 1_555 1_555
C30 N2 1_555 1_555
C31 H23 1_555 1_555
C32 C31 1_555 1_555
H24 C32 1_555 1_555
C33 N2 1_555 1_555
C34 C33 1_555 1_555
H25 C34 1_555 1_555
C35 C34 1_555 1_555
H26 C35 1_555 1_555
C36 C31 1_555 1_555
C37 C8 1_555 1_555
H27 C37 1_555 1_555
C38 C36 1_555 1_555
H28 C38 1_555 1_555
C39 C27 1_555 1_555
H29 C39 1_555 1_555
C40 C14 1_555 1_555
H30 C40 1_555 1_555
C5 C6 1_555 1_555
C10 C11 1_555 1_555
C11 C12 1_555 1_555
C16 C17 1_555 1_555
C17 C18 1_555 1_555
C23 C24 1_555 1_555
C25 C30 1_555 1_555
C29 C30 1_555 1_555
C32 C33 1_555 1_555
C35 C36 1_555 1_555
C37 C38 1_555 1_555
C39 C40 1_555 1_555

#END
