
#######################################################################
#
#                 Cambridge Crystallographic Data Centre
#                                CCDC 
#
#######################################################################
#
# If this CIF has been generated from an entry in the Cambridge 
# Structural Database, then it will include bibliographic, chemical, 
# crystal, experimental, refinement or atomic coordinate data resulting 
# from the CCDC's data processing and validation procedures.
#
#######################################################################

data_YEWPOF
_chemical_formula_moiety         'C5 H8 N2 Se1'
_chemical_name_systematic        1,3-Dimethyl-2(3H)-imidazoleselenone
_symmetry_cell_setting           orthorhombic
_symmetry_space_group_name_H-M   'C m c m'
_symmetry_Int_Tables_number      63
_space_group_name_Hall           '-C 2n 2'
loop_
_symmetry_equiv_pos_site_id
_symmetry_equiv_pos_as_xyz
1 x,y,z
2 -x,-y,1/2+z
3 x,-y,-z
4 -x,y,1/2-z
5 1/2+x,1/2+y,z
6 1/2-x,1/2-y,1/2+z
7 1/2+x,1/2-y,-z
8 1/2-x,1/2+y,1/2-z
9 -x,-y,-z
10 x,y,1/2-z
11 -x,y,z
12 x,-y,1/2+z
13 1/2-x,1/2-y,-z
14 1/2+x,1/2+y,1/2-z
15 1/2-x,1/2+y,z
16 1/2+x,1/2-y,1/2+z
_cell_length_a                   8.625(3)
_cell_length_b                   11.447(6)
_cell_length_c                   6.900(4)
_cell_angle_alpha                90
_cell_angle_beta                 90
_cell_angle_gamma                90
_cell_volume                     681.24
_exptl_crystal_colour            colorless
_chemical_melting_point          203-204deg.C
_cell_formula_units_Z            4
loop_
_atom_site_label
_atom_site_type_symbol
_atom_site_fract_x
_atom_site_fract_y
_atom_site_fract_z
Se1 Se 0.5000 0.71157(9) 0.2500
C1 C 0.5000 0.8726(8) 0.2500
N1 N 0.6249(6) 0.9426(4) 0.2500
C2 C 0.5780(8) 1.0570(5) 0.2500
C3 C 0.7850(7) 0.9040(6) 0.2500
H1 H 0.649 1.119 0.2500
H2 H 0.857 0.945 0.2500
H3 H 0.808 0.858 0.127
N1C N 0.3751(6) 0.9426(4) 0.2500
C2C C 0.4220(8) 1.0570(5) 0.2500
H3I H 0.808 0.858 0.373
C3C C 0.2150(7) 0.9040(6) 0.2500
H1C H 0.351 1.119 0.2500
H2C H 0.143 0.945 0.2500
H3J H 0.192 0.858 0.127
H3C H 0.192 0.858 0.373
loop_
_geom_bond_atom_site_label_1
_geom_bond_atom_site_label_2
_geom_bond_site_symmetry_1
_geom_bond_site_symmetry_2
Se1 C1 1_555 1_555
C1 N1 1_555 1_555
N1 C2 1_555 1_555
C2 H1 1_555 1_555
C3 N1 1_555 1_555
H2 C3 1_555 1_555
H3 C3 1_555 1_555
N1C C1 1_555 1_555
C2C C2 1_555 1_555
H3I C3 1_555 1_555
C3C N1C 1_555 1_555
H1C C2C 1_555 1_555
H2C C3C 1_555 1_555
H3J C3C 1_555 1_555
H3C C3C 1_555 1_555
N1C C2C 1_555 1_555

#END
