
#######################################################################
#
#                 Cambridge Crystallographic Data Centre
#                                CCDC 
#
#######################################################################
#
# If this CIF has been generated from an entry in the Cambridge 
# Structural Database, then it will include bibliographic, chemical, 
# crystal, experimental, refinement or atomic coordinate data resulting 
# from the CCDC's data processing and validation procedures.
#
#######################################################################

data_YEWSEA
_chemical_formula_moiety         'C50 H72 N3 P1 Si2'
_chemical_name_systematic        
(1-(1,3-Diisopropyl-4,5-dimethyl-1H-imidazol-3-ium-2-yl)-2-(2,6-diisopropylphenyl)-3,3,3-trimethyldisilazanyl)(2,2'',4,4'',6,6''-hexamethyl-1,1':3',1''-terphenyl-2'-yl)phosphanide
_symmetry_cell_setting           monoclinic
_symmetry_space_group_name_H-M   'P 21/n'
_symmetry_Int_Tables_number      14
_space_group_name_Hall           '-P 2yn'
loop_
_symmetry_equiv_pos_site_id
_symmetry_equiv_pos_as_xyz
1 x,y,z
2 1/2-x,1/2+y,1/2-z
3 -x,-y,-z
4 1/2+x,1/2-y,1/2+z
_cell_length_a                   10.149(3)
_cell_length_b                   40.372(12)
_cell_length_c                   12.504(4)
_cell_angle_alpha                90
_cell_angle_beta                 111.751(3)
_cell_angle_gamma                90
_cell_volume                     4758.57
_exptl_crystal_colour            red
_exptl_crystal_description       Prism
_cell_formula_units_Z            4
loop_
_atom_site_label
_atom_site_type_symbol
_atom_site_fract_x
_atom_site_fract_y
_atom_site_fract_z
P1 P 0.95535(3) 0.128166(8) 0.43950(3)
Si1 Si 0.73639(3) 0.119311(8) 0.32984(3)
Si2 Si 0.79843(4) 0.043264(8) 0.34891(3)
N1 N 0.68690(11) 0.07780(2) 0.29574(9)
N2 N 0.56274(11) 0.15764(2) 0.12105(9)
N3 N 0.77130(10) 0.14662(2) 0.11976(9)
C1 C 0.54117(13) 0.07089(3) 0.22252(11)
C2 C 0.43512(14) 0.06929(3) 0.27090(12)
C3 C 0.29737(15) 0.06042(3) 0.20039(13)
H1 H 0.2260 0.0594 0.2324
C4 C 0.26218(15) 0.05314(4) 0.08499(13)
H2 H 0.1681 0.0468 0.0387
C5 C 0.36547(14) 0.05522(3) 0.03768(13)
H3 H 0.3412 0.0503 -0.0416
C6 C 0.50447(14) 0.06444(3) 0.10383(12)
C7 C 0.46436(15) 0.07569(4) 0.39752(12)
H4 H 0.5645 0.0836 0.4347
C8 C 0.4487(2) 0.04379(5) 0.45806(16)
H5 H 0.3505 0.0359 0.4240
H6 H 0.4728 0.0482 0.5402
H7 H 0.5127 0.0268 0.4487
C9 C 0.36618(16) 0.10264(4) 0.41275(14)
H8 H 0.3817 0.1234 0.3783
H9 H 0.3869 0.1061 0.4950
H10 H 0.2672 0.0957 0.3747
C10 C 0.61024(14) 0.06704(3) 0.04418(12)
H11 H 0.6984 0.0776 0.0991
C11 C 0.65098(19) 0.03316(4) 0.00983(17)
H12 H 0.6943 0.0195 0.0789
H13 H 0.7189 0.0362 -0.0283
H14 H 0.5658 0.0221 -0.0430
C12 C 0.55363(15) 0.08884(4) -0.06341(12)
H15 H 0.4713 0.0781 -0.1212
H16 H 0.6279 0.0920 -0.0949
H17 H 0.5254 0.1104 -0.0430
C13 C 0.69339(18) 0.00429(3) 0.29669(16)
H18 H 0.6234 0.0020 0.3331
H19 H 0.7575 -0.0148 0.3168
H20 H 0.6444 0.0053 0.2129
C14 C 0.86856(19) 0.04056(4) 0.50766(14)
H21 H 0.9305 0.0596 0.5403
H22 H 0.9228 0.0200 0.5321
H23 H 0.7895 0.0407 0.5348
C15 C 0.95199(15) 0.04496(4) 0.30070(14)
H24 H 0.9169 0.0471 0.2167
H25 H 1.0078 0.0246 0.3239
H26 H 1.0118 0.0641 0.3362
C16 C 0.68388(12) 0.14031(3) 0.17739(10)
C17 C 0.57730(14) 0.17578(3) 0.03128(11)
C18 C 0.70760(14) 0.16886(3) 0.03070(11)
C19 C 0.43242(12) 0.15469(3) 0.14805(11)
H27 H 0.4493 0.1360 0.2040
C20 C 0.30322(14) 0.14513(4) 0.04250(12)
H28 H 0.2682 0.1647 -0.0064
H29 H 0.2285 0.1367 0.0672
H30 H 0.3300 0.1280 -0.0010
C21 C 0.40711(14) 0.18538(3) 0.20847(13)
H31 H 0.4883 0.1888 0.2806
H32 H 0.3209 0.1824 0.2253
H33 H 0.3958 0.2047 0.1585
C22 C 0.46624(16) 0.19755(4) -0.05093(14)
H34 H 0.5117 0.2141 -0.0832
H35 H 0.4132 0.2088 -0.0101
H36 H 0.4011 0.1840 -0.1133
C23 C 0.77278(17) 0.18192(4) -0.05037(13)
H37 H 0.7742 0.1644 -0.1042
H38 H 0.8700 0.1892 -0.0065
H39 H 0.7168 0.2007 -0.0935
C24 C 0.91223(12) 0.13018(3) 0.14893(11)
H40 H 0.9225 0.1143 0.2129
C25 C 0.92337(14) 0.10975(3) 0.04960(12)
H41 H 0.8425 0.0945 0.0207
H42 H 1.0118 0.0970 0.0770
H43 H 0.9228 0.1246 -0.0125
C26 C 1.03359(14) 0.15481(3) 0.19509(12)
H44 H 1.0355 0.1691 0.1322
H45 H 1.1236 0.1428 0.2278
H46 H 1.0199 0.1685 0.2550
C27 C 0.95172(13) 0.16021(3) 0.54572(11)
C28 C 0.94105(14) 0.15217(4) 0.65256(12)
C29 C 0.96185(17) 0.17644(4) 0.73718(13)
H47 H 0.9539 0.1705 0.8080
C30 C 0.99356(19) 0.20874(4) 0.72074(15)
H48 H 1.0058 0.2250 0.7786
C31 C 1.00719(18) 0.21697(4) 0.61796(14)
H49 H 1.0299 0.2391 0.6057
C32 C 0.98824(14) 0.19338(3) 0.53177(12)
C33 C 1.01788(14) 0.20591(3) 0.43017(12)
C34 C 0.90974(14) 0.22006(3) 0.33624(12)
C35 C 0.94299(16) 0.23547(3) 0.24955(13)
H50 H 0.8686 0.2444 0.1848
C36 C 1.08203(17) 0.23807(3) 0.25542(14)
C37 C 1.18813(16) 0.22393(3) 0.34969(14)
H51 H 1.2839 0.2256 0.3555
C38 C 1.15869(15) 0.20735(3) 0.43581(13)
C39 C 0.75920(15) 0.21883(4) 0.32960(14)
H52 H 0.7384 0.1966 0.3510
H53 H 0.6950 0.2239 0.2508
H54 H 0.7459 0.2352 0.3827
C40 C 1.1163(2) 0.25497(4) 0.16108(17)
H55 H 1.0742 0.2424 0.0893
H56 H 1.2195 0.2559 0.1828
H57 H 1.0776 0.2775 0.1499
C41 C 1.27455(16) 0.18954(4) 0.53088(15)
H58 H 1.3649 0.1924 0.5203
H59 H 1.2516 0.1659 0.5286
H60 H 1.2824 0.1988 0.6055
C42 C 0.9284(5) 0.11703(11) 0.6902(6)
C43 C 0.8007(5) 0.10730(10) 0.6976(5)
C44 C 0.7914(5) 0.07714(10) 0.7480(4)
C45 C 0.9097(6) 0.05671(7) 0.7908(4)
C46 C 1.0373(5) 0.06644(9) 0.7834(4)
C47 C 1.0467(5) 0.09660(12) 0.7330(5)
C48 C 0.6697(7) 0.12881(16) 0.6553(6)
H61 H 0.5914 0.1173 0.6675
H62 H 0.6438 0.1333 0.5730
H63 H 0.6890 0.1498 0.6980
C49 C 0.9012(8) 0.02281(9) 0.8419(4)
H64 H 0.9758 0.0084 0.8358
H65 H 0.8082 0.0129 0.7996
H66 H 0.9140 0.0253 0.9231
C50 C 1.1842(6) 0.1076(2) 0.7242(7)
H67 H 1.2614 0.0933 0.7721
H68 H 1.2041 0.1306 0.7510
H69 H 1.1766 0.1062 0.6439
H70 H 0.6389(16) 0.1343(4) 0.3596(13)
C51? C 0.8998(8) 0.11931(13) 0.6875(9)
C52? C 0.7626(8) 0.11243(14) 0.6806(7)
C53? C 0.7316(9) 0.08188(16) 0.7169(6)
C54? C 0.8376(12) 0.05821(11) 0.7600(6)
C55? C 0.9747(10) 0.06509(11) 0.7669(6)
C56? C 1.0058(8) 0.09564(16) 0.7307(8)
C57? C 0.6514(9) 0.1389(2) 0.6375(10)
H71? H 0.5667 0.1323 0.6521
H72? H 0.6267 0.1420 0.5546
H73? H 0.6883 0.1598 0.6777
C58? C 0.8009(14) 0.02385(13) 0.7901(8)
H74? H 0.8110 0.0077 0.7351
H75? H 0.7028 0.0237 0.7866
H76? H 0.8651 0.0180 0.8681
C59? C 1.1551(9) 0.1009(3) 0.7348(9)
H77? H 1.2090 0.0802 0.7580
H78? H 1.2013 0.1183 0.7907
H79? H 1.1519 0.1075 0.6585
loop_
_geom_bond_atom_site_label_1
_geom_bond_atom_site_label_2
_geom_bond_site_symmetry_1
_geom_bond_site_symmetry_2
P1 Si1 1_555 1_555
Si1 N1 1_555 1_555
Si2 N1 1_555 1_555
N1 C1 1_555 1_555
N2 C16 1_555 1_555
N3 C16 1_555 1_555
C1 C2 1_555 1_555
C2 C3 1_555 1_555
C3 H1 1_555 1_555
C4 C3 1_555 1_555
H2 C4 1_555 1_555
C5 C4 1_555 1_555
H3 C5 1_555 1_555
C6 C1 1_555 1_555
C7 C2 1_555 1_555
H4 C7 1_555 1_555
C8 C7 1_555 1_555
H5 C8 1_555 1_555
H6 C8 1_555 1_555
H7 C8 1_555 1_555
C9 C7 1_555 1_555
H8 C9 1_555 1_555
H9 C9 1_555 1_555
H10 C9 1_555 1_555
C10 C6 1_555 1_555
H11 C10 1_555 1_555
C11 C10 1_555 1_555
H12 C11 1_555 1_555
H13 C11 1_555 1_555
H14 C11 1_555 1_555
C12 C10 1_555 1_555
H15 C12 1_555 1_555
H16 C12 1_555 1_555
H17 C12 1_555 1_555
C13 Si2 1_555 1_555
H18 C13 1_555 1_555
H19 C13 1_555 1_555
H20 C13 1_555 1_555
C14 Si2 1_555 1_555
H21 C14 1_555 1_555
H22 C14 1_555 1_555
H23 C14 1_555 1_555
C15 Si2 1_555 1_555
H24 C15 1_555 1_555
H25 C15 1_555 1_555
H26 C15 1_555 1_555
C16 Si1 1_555 1_555
C17 N2 1_555 1_555
C18 N3 1_555 1_555
C19 N2 1_555 1_555
H27 C19 1_555 1_555
C20 C19 1_555 1_555
H28 C20 1_555 1_555
H29 C20 1_555 1_555
H30 C20 1_555 1_555
C21 C19 1_555 1_555
H31 C21 1_555 1_555
H32 C21 1_555 1_555
H33 C21 1_555 1_555
C22 C17 1_555 1_555
H34 C22 1_555 1_555
H35 C22 1_555 1_555
H36 C22 1_555 1_555
C23 C18 1_555 1_555
H37 C23 1_555 1_555
H38 C23 1_555 1_555
H39 C23 1_555 1_555
C24 N3 1_555 1_555
H40 C24 1_555 1_555
C25 C24 1_555 1_555
H41 C25 1_555 1_555
H42 C25 1_555 1_555
H43 C25 1_555 1_555
C26 C24 1_555 1_555
H44 C26 1_555 1_555
H45 C26 1_555 1_555
H46 C26 1_555 1_555
C27 P1 1_555 1_555
C28 C27 1_555 1_555
C29 C28 1_555 1_555
H47 C29 1_555 1_555
C30 C29 1_555 1_555
H48 C30 1_555 1_555
C31 C30 1_555 1_555
H49 C31 1_555 1_555
C32 C27 1_555 1_555
C33 C32 1_555 1_555
C34 C33 1_555 1_555
C35 C34 1_555 1_555
H50 C35 1_555 1_555
C36 C35 1_555 1_555
C37 C36 1_555 1_555
H51 C37 1_555 1_555
C38 C33 1_555 1_555
C39 C34 1_555 1_555
H52 C39 1_555 1_555
H53 C39 1_555 1_555
H54 C39 1_555 1_555
C40 C36 1_555 1_555
H55 C40 1_555 1_555
H56 C40 1_555 1_555
H57 C40 1_555 1_555
C41 C38 1_555 1_555
H58 C41 1_555 1_555
H59 C41 1_555 1_555
H60 C41 1_555 1_555
C42 C28 1_555 1_555
C43 C42 1_555 1_555
C44 C43 1_555 1_555
C45 C44 1_555 1_555
C46 C45 1_555 1_555
C47 C42 1_555 1_555
C48 C43 1_555 1_555
H61 C48 1_555 1_555
H62 C48 1_555 1_555
H63 C48 1_555 1_555
C49 C45 1_555 1_555
H64 C49 1_555 1_555
H65 C49 1_555 1_555
H66 C49 1_555 1_555
C50 C47 1_555 1_555
H67 C50 1_555 1_555
H68 C50 1_555 1_555
H69 C50 1_555 1_555
H70 Si1 1_555 1_555
C5 C6 1_555 1_555
C17 C18 1_555 1_555
C31 C32 1_555 1_555
C37 C38 1_555 1_555
C46 C47 1_555 1_555

#END
