
#######################################################################
#
#                 Cambridge Crystallographic Data Centre
#                                CCDC 
#
#######################################################################
#
# If this CIF has been generated from an entry in the Cambridge 
# Structural Database, then it will include bibliographic, chemical, 
# crystal, experimental, refinement or atomic coordinate data resulting 
# from the CCDC's data processing and validation procedures.
#
#######################################################################

data_YEWYOQ
_chemical_formula_moiety         'C23 H16 N2'
_chemical_name_systematic        1-Phenyl-9-(pyridin-2-yl)-9H-carbazole
_symmetry_cell_setting           triclinic
_symmetry_space_group_name_H-M   'P -1'
_symmetry_Int_Tables_number      2
_space_group_name_Hall           '-P 1'
loop_
_symmetry_equiv_pos_site_id
_symmetry_equiv_pos_as_xyz
1 x,y,z
2 -x,-y,-z
_cell_length_a                   9.4521(4)
_cell_length_b                   9.5618(4)
_cell_length_c                   10.8844(7)
_cell_angle_alpha                70.386(2)
_cell_angle_beta                 68.533(2)
_cell_angle_gamma                66.608(4)
_cell_volume                     819.098
_exptl_crystal_colour            colorless
_exptl_crystal_description       prism
_cell_formula_units_Z            2
loop_
_atom_site_label
_atom_site_type_symbol
_atom_site_fract_x
_atom_site_fract_y
_atom_site_fract_z
N1 N 0.5752(3) 0.2264(3) 0.5482(2)
N2 N 0.6172(3) 0.1221(3) 0.3634(3)
C1 C 0.6437(3) 0.2231(3) 0.4083(3)
C2 C 0.7323(4) 0.3188(3) 0.3305(3)
H1 H 0.7497 0.3840 0.3668
C3 C 0.7944(4) 0.3161(4) 0.1980(3)
H2 H 0.8574 0.3793 0.1422
C4 C 0.7667(4) 0.2223(4) 0.1437(3)
H3 H 0.8070 0.2242 0.0515
C5 C 0.6782(4) 0.1256(4) 0.2284(3)
H4 H 0.6594 0.0608 0.1928
C6 C 0.6677(4) 0.1741(3) 0.6387(3)
C7 C 0.8335(4) 0.1277(3) 0.6115(3)
H5 H 0.8987 0.1321 0.5232
C8 C 0.8973(4) 0.0754(4) 0.7195(3)
H6 H 1.0078 0.0422 0.7046
C9 C 0.7981(5) 0.0714(4) 0.8520(4)
H7 H 0.8441 0.0350 0.9237
C10 C 0.6361(4) 0.1196(4) 0.8781(3)
H8 H 0.5721 0.1173 0.9666
C11 C 0.5660(4) 0.1726(3) 0.7708(3)
C12 C 0.4053(4) 0.2283(3) 0.7597(3)
C13 C 0.4126(3) 0.2587(3) 0.6211(3)
C14 C 0.2758(4) 0.3127(3) 0.5754(3)
C15 C 0.1309(4) 0.3352(4) 0.6748(3)
H9 H 0.0366 0.3705 0.6493
C16 C 0.1216(4) 0.3069(4) 0.8116(4)
H10 H 0.0218 0.3243 0.8744
C17 C 0.2561(4) 0.2543(4) 0.8550(3)
H11 H 0.2485 0.2362 0.9463
C18 C 0.2773(4) 0.3438(3) 0.4315(3)
C19 C 0.3373(4) 0.4593(3) 0.3323(3)
H12 H 0.3735 0.5209 0.3565
C20 C 0.3429(4) 0.4821(4) 0.1988(3)
H13 H 0.3842 0.5584 0.1333
C21 C 0.2887(5) 0.3940(4) 0.1618(4)
H14 H 0.2943 0.4091 0.0713
C22 C 0.2257(5) 0.2826(4) 0.2587(4)
H15 H 0.1867 0.2238 0.2338
C23 C 0.2202(4) 0.2579(4) 0.3919(3)
H16 H 0.1774 0.1822 0.4565
loop_
_geom_bond_atom_site_label_1
_geom_bond_atom_site_label_2
_geom_bond_site_symmetry_1
_geom_bond_site_symmetry_2
N1 C1 1_555 1_555
N2 C1 1_555 1_555
C1 C2 1_555 1_555
C2 H1 1_555 1_555
C3 C2 1_555 1_555
H2 C3 1_555 1_555
C4 C3 1_555 1_555
H3 C4 1_555 1_555
C5 N2 1_555 1_555
H4 C5 1_555 1_555
C6 N1 1_555 1_555
C7 C6 1_555 1_555
H5 C7 1_555 1_555
C8 C7 1_555 1_555
H6 C8 1_555 1_555
C9 C8 1_555 1_555
H7 C9 1_555 1_555
C10 C9 1_555 1_555
H8 C10 1_555 1_555
C11 C6 1_555 1_555
C12 C11 1_555 1_555
C13 N1 1_555 1_555
C14 C13 1_555 1_555
C15 C14 1_555 1_555
H9 C15 1_555 1_555
C16 C15 1_555 1_555
H10 C16 1_555 1_555
C17 C12 1_555 1_555
H11 C17 1_555 1_555
C18 C14 1_555 1_555
C19 C18 1_555 1_555
H12 C19 1_555 1_555
C20 C19 1_555 1_555
H13 C20 1_555 1_555
C21 C20 1_555 1_555
H14 C21 1_555 1_555
C22 C21 1_555 1_555
H15 C22 1_555 1_555
C23 C18 1_555 1_555
H16 C23 1_555 1_555
C4 C5 1_555 1_555
C10 C11 1_555 1_555
C12 C13 1_555 1_555
C16 C17 1_555 1_555
C22 C23 1_555 1_555

#END
