
#######################################################################
#
#                 Cambridge Crystallographic Data Centre
#                                CCDC 
#
#######################################################################
#
# If this CIF has been generated from an entry in the Cambridge 
# Structural Database, then it will include bibliographic, chemical, 
# crystal, experimental, refinement or atomic coordinate data resulting 
# from the CCDC's data processing and validation procedures.
#
#######################################################################

data_YEXBUZ
_chemical_formula_moiety         'C35 H22 O6 P2 Se2'
_chemical_name_systematic        
"10,10'-Methanediylbis(2-phenyl-4H-naphtho(2,3-d)(1,3,2)dioxaphosphinin-4-one) 2,2'-diselenide"
_symmetry_cell_setting           monoclinic
_symmetry_space_group_name_H-M   'P 21/n'
_symmetry_Int_Tables_number      14
_space_group_name_Hall           '-P 2yn'
loop_
_symmetry_equiv_pos_site_id
_symmetry_equiv_pos_as_xyz
1 x,y,z
2 1/2-x,1/2+y,1/2-z
3 -x,-y,-z
4 1/2+x,1/2-y,1/2+z
_cell_length_a                   14.3347(10)
_cell_length_b                   11.3636(8)
_cell_length_c                   20.5001(13)
_cell_angle_alpha                90
_cell_angle_beta                 106.926(2)
_cell_angle_gamma                90
_cell_volume                     3194.68
_exptl_crystal_colour            colorless
_exptl_crystal_description       prism
_cell_formula_units_Z            4
loop_
_atom_site_label
_atom_site_type_symbol
_atom_site_fract_x
_atom_site_fract_y
_atom_site_fract_z
C1 C 0.6704(6) 0.0577(5) -0.1554(4)
C2 C 0.6927(6) 0.0909(6) -0.2129(4)
O1 O 0.7897(3) 0.0895(3) -0.21262(19)
P1 P 0.81710(17) 0.07190(17) -0.28196(10)
Se1 Se 0.80189(7) -0.09611(7) -0.32001(4)
C3 C 0.6234(6) 0.1356(5) -0.2728(4)
C4 C 0.5284(6) 0.1424(5) -0.2728(4)
H1 H 0.4820 0.1721 -0.3109
C5 C 0.4989(7) 0.1054(6) -0.2163(5)
C6 C 0.3993(6) 0.1116(6) -0.2161(5)
H2 H 0.3523 0.1401 -0.2543
C7 C 0.3726(7) 0.0761(7) -0.1604(5)
H3 H 0.3076 0.0788 -0.1608
C8 C 0.4438(8) 0.0361(7) -0.1035(5)
H4 H 0.4256 0.0134 -0.0654
C9 C 0.5371(7) 0.0289(6) -0.1014(4)
H5 H 0.5817 0.0006 -0.0620
C10 C 0.5709(6) 0.0624(5) -0.1562(5)
C11 C 0.6489(7) 0.1815(7) -0.3323(4)
O2 O 0.5973(4) 0.2325(4) -0.3787(2)
O3 O 0.7451(4) 0.1669(4) -0.3310(2)
C12 C 0.7513(5) 0.0182(4) -0.0952(3)
H6 H 0.7840 -0.0485 -0.1085
H7 H 0.7239 -0.0079 -0.0597
C13 C 0.8264(6) 0.1143(6) -0.0665(3)
C14 C 0.7968(5) 0.2108(7) -0.0374(3)
O4 O 0.7022(3) 0.2118(3) -0.0334(2)
P2 P 0.68431(15) 0.27952(17) 0.03094(10)
Se2 Se 0.74375(6) 0.20047(7) 0.12385(4)
C15 C 0.8604(6) 0.3086(6) -0.0131(3)
C16 C 0.9521(5) 0.3041(6) -0.0176(3)
H8 H 0.9927 0.3687 -0.0032
C17 C 0.9888(6) 0.2054(7) -0.0434(3)
C18 C 1.0875(6) 0.2030(7) -0.0447(3)
H9 H 1.1287 0.2663 -0.0281
C19 C 1.1212(5) 0.1060(8) -0.0707(3)
H10 H 1.1851 0.1042 -0.0729
C20 C 1.0599(7) 0.0106(7) -0.0938(4)
H11 H 1.0843 -0.0561 -0.1094
C21 C 0.9658(6) 0.0127(6) -0.0940(3)
H12 H 0.9271 -0.0522 -0.1114
C22 C 0.9228(6) 0.1080(7) -0.0694(3)
C23 C 0.8266(6) 0.4140(7) 0.0142(4)
O5 O 0.8677(4) 0.5036(4) 0.0299(3)
O6 O 0.7335(3) 0.4048(3) 0.0234(2)
C24 C 0.9338(6) 0.1419(8) -0.2627(4)
C25 C 1.0082(9) 0.0846(8) -0.2801(4)
H13 H 0.9993 0.0106 -0.3004
C26 C 1.0946(8) 0.1414(11) -0.2663(5)
H14 H 1.1455 0.1051 -0.2781
C27 C 1.1115(10) 0.2513(13) -0.2352(6)
H15 H 1.1724 0.2870 -0.2256
C28 C 1.0354(10) 0.3055(10) -0.2191(6)
H16 H 1.0440 0.3791 -0.1983
C29 C 0.9448(7) 0.2492(8) -0.2344(4)
H17 H 0.8924 0.2862 -0.2249
C30 C 0.5576(5) 0.3060(6) 0.0037(6)
C31 C 0.5024(7) 0.2778(6) 0.0469(4)
H18 H 0.5309 0.2462 0.0899
C32 C 0.4032(9) 0.2988(8) 0.0233(6)
H19 H 0.3650 0.2809 0.0517
C33 C 0.3597(7) 0.3436(7) -0.0384(7)
H20 H 0.2926 0.3556 -0.0525
C34 C 0.4154(9) 0.3720(7) -0.0811(5)
H21 H 0.3862 0.4041 -0.1239
C35 C 0.5139(8) 0.3523(6) -0.0596(6)
H22 H 0.5516 0.3706 -0.0883
loop_
_geom_bond_atom_site_label_1
_geom_bond_atom_site_label_2
_geom_bond_site_symmetry_1
_geom_bond_site_symmetry_2
C1 C2 1_555 1_555
C2 O1 1_555 1_555
O1 P1 1_555 1_555
P1 Se1 1_555 1_555
C3 C2 1_555 1_555
C4 C3 1_555 1_555
H1 C4 1_555 1_555
C5 C4 1_555 1_555
C6 C5 1_555 1_555
H2 C6 1_555 1_555
C7 C6 1_555 1_555
H3 C7 1_555 1_555
C8 C7 1_555 1_555
H4 C8 1_555 1_555
C9 C8 1_555 1_555
H5 C9 1_555 1_555
C10 C1 1_555 1_555
C11 C3 1_555 1_555
O2 C11 1_555 1_555
O3 P1 1_555 1_555
C12 C1 1_555 1_555
H6 C12 1_555 1_555
H7 C12 1_555 1_555
C13 C12 1_555 1_555
C14 C13 1_555 1_555
O4 C14 1_555 1_555
P2 O4 1_555 1_555
Se2 P2 1_555 1_555
C15 C14 1_555 1_555
C16 C15 1_555 1_555
H8 C16 1_555 1_555
C17 C16 1_555 1_555
C18 C17 1_555 1_555
H9 C18 1_555 1_555
C19 C18 1_555 1_555
H10 C19 1_555 1_555
C20 C19 1_555 1_555
H11 C20 1_555 1_555
C21 C20 1_555 1_555
H12 C21 1_555 1_555
C22 C13 1_555 1_555
C23 C15 1_555 1_555
O5 C23 1_555 1_555
O6 P2 1_555 1_555
C24 P1 1_555 1_555
C25 C24 1_555 1_555
H13 C25 1_555 1_555
C26 C25 1_555 1_555
H14 C26 1_555 1_555
C27 C26 1_555 1_555
H15 C27 1_555 1_555
C28 C27 1_555 1_555
H16 C28 1_555 1_555
C29 C24 1_555 1_555
H17 C29 1_555 1_555
C30 P2 1_555 1_555
C31 C30 1_555 1_555
H18 C31 1_555 1_555
C32 C31 1_555 1_555
H19 C32 1_555 1_555
C33 C32 1_555 1_555
H20 C33 1_555 1_555
C34 C33 1_555 1_555
H21 C34 1_555 1_555
C35 C30 1_555 1_555
H22 C35 1_555 1_555
C5 C10 1_555 1_555
C9 C10 1_555 1_555
C11 O3 1_555 1_555
C17 C22 1_555 1_555
C21 C22 1_555 1_555
C23 O6 1_555 1_555
C28 C29 1_555 1_555
C34 C35 1_555 1_555

#END
