
#######################################################################
#
#                 Cambridge Crystallographic Data Centre
#                                CCDC 
#
#######################################################################
#
# If this CIF has been generated from an entry in the Cambridge 
# Structural Database, then it will include bibliographic, chemical, 
# crystal, experimental, refinement or atomic coordinate data resulting 
# from the CCDC's data processing and validation procedures.
#
#######################################################################

data_YEXBEJ
_chemical_formula_moiety         'C35 H22 O6 P2'
_chemical_name_systematic        
10,10'-Methanediylbis(2-phenyl-4H-naphtho(2,3-d)(1,3,2)dioxaphosphinin-4-one)
_symmetry_cell_setting           triclinic
_symmetry_space_group_name_H-M   'P -1'
_symmetry_Int_Tables_number      2
_space_group_name_Hall           '-P 1'
loop_
_symmetry_equiv_pos_site_id
_symmetry_equiv_pos_as_xyz
1 x,y,z
2 -x,-y,-z
_cell_length_a                   10.411(9)
_cell_length_b                   11.426(10)
_cell_length_c                   13.274(14)
_cell_angle_alpha                85.76(9)
_cell_angle_beta                 70.14(5)
_cell_angle_gamma                76.09(9)
_cell_volume                     1441.51
_exptl_crystal_colour            yellow
_exptl_crystal_description       needle
_cell_formula_units_Z            2
_exptl_crystal_recrystallization_method tetrahydrofuran
loop_
_atom_site_label
_atom_site_type_symbol
_atom_site_fract_x
_atom_site_fract_y
_atom_site_fract_z
C1 C -0.4780(16) 0.3460(9) -0.0889(12)
C2 C -0.3628(18) 0.3735(12) -0.1583(14)
O1 O -0.2321(12) 0.2897(8) -0.1768(8)
P1 P -0.0895(6) 0.2886(4) -0.2834(4)
C3 C -0.3599(17) 0.4832(10) -0.2144(11)
C4 C -0.486(2) 0.5659(11) -0.1958(14)
H1 H -0.4929 0.6386 -0.2353
C5 C -0.6005(17) 0.5398(12) -0.1193(14)
C6 C -0.7327(17) 0.6311(12) -0.1016(13)
H2 H -0.7360 0.7037 -0.1415
C7 C -0.846(2) 0.6087(14) -0.0288(15)
H3 H -0.9319 0.6669 -0.0183
C8 C -0.849(2) 0.5078(12) 0.0328(14)
H4 H -0.9344 0.5004 0.0870
C9 C -0.729(2) 0.4150(13) 0.0172(13)
H5 H -0.7292 0.3445 0.0599
C10 C -0.6062(17) 0.4316(11) -0.0656(13)
C11 C -0.2284(17) 0.5224(12) -0.2850(12)
O2 O -0.2199(13) 0.6145(9) -0.3253(11)
O3 O -0.1047(12) 0.4388(8) -0.2978(10)
C12 C -0.4597(16) 0.2236(10) -0.0254(12)
H6 H -0.3807 0.2157 0.0022
H7 H -0.5460 0.2241 0.0366
C13 C -0.4311(14) 0.1179(10) -0.0981(11)
C14 C -0.535(2) 0.0925(11) -0.1262(13)
O4 O -0.6601(12) 0.1737(8) -0.0971(9)
P2 P -0.7752(5) 0.1797(4) -0.1562(4)
C15 C -0.5094(18) -0.0081(12) -0.1896(13)
C16 C -0.3802(19) -0.0910(11) -0.2237(13)
H8 H -0.3654 -0.1579 -0.2680
C17 C -0.2777(16) -0.0725(11) -0.1912(13)
C18 C -0.138(2) -0.1615(13) -0.2180(15)
H9 H -0.1210 -0.2293 -0.2620
C19 C -0.042(2) -0.1482(14) -0.1828(15)
H10 H 0.0441 -0.2075 -0.2012
C20 C -0.0582(17) -0.0476(15) -0.1169(14)
H11 H 0.0149 -0.0392 -0.0924
C21 C -0.1811(18) 0.0340(14) -0.0915(16)
H12 H -0.1915 0.1012 -0.0488
C22 C -0.2953(19) 0.0284(13) -0.1226(12)
C23 C -0.622(2) -0.0425(14) -0.2147(15)
O5 O -0.6188(13) -0.1319(9) -0.2560(11)
O6 O -0.7525(12) 0.0331(8) -0.1832(10)
C24 C -0.1455(17) 0.2594(13) -0.3933(12)
C25 C -0.132(2) 0.3307(11) -0.4841(15)
H13 H -0.0969 0.4009 -0.4896
C26 C -0.172(2) 0.2993(18) -0.5669(12)
H14 H -0.1626 0.3481 -0.6289
C27 C -0.224(2) 0.197(2) -0.5588(15)
H15 H -0.2503 0.1751 -0.6154
C28 C -0.237(3) 0.1252(19) -0.4680(18)
H16 H -0.2722 0.0550 -0.4625
C29 C -0.198(2) 0.1566(15) -0.3853(13)
H17 H -0.2065 0.1079 -0.3233
C30 C -0.6902(13) 0.2286(10) -0.2937(8)
C31 C -0.6530(18) 0.3383(12) -0.2979(12)
H18 H -0.6556 0.3733 -0.2342
C32 C -0.612(2) 0.3968(12) -0.3951(16)
H19 H -0.5865 0.4718 -0.3980
C33 C -0.608(2) 0.3457(17) -0.4882(11)
H20 H -0.5800 0.3856 -0.5547
C34 C -0.645(2) 0.2360(17) -0.4840(9)
H21 H -0.6426 0.2010 -0.5476
C35 C -0.6863(16) 0.1775(10) -0.3867(11)
H22 H -0.7117 0.1025 -0.3839
loop_
_geom_bond_atom_site_label_1
_geom_bond_atom_site_label_2
_geom_bond_site_symmetry_1
_geom_bond_site_symmetry_2
C1 C2 1_555 1_555
C2 O1 1_555 1_555
O1 P1 1_555 1_555
P1 O3 1_555 1_555
C3 C2 1_555 1_555
C4 C3 1_555 1_555
H1 C4 1_555 1_555
C5 C4 1_555 1_555
C6 C5 1_555 1_555
H2 C6 1_555 1_555
C7 C6 1_555 1_555
H3 C7 1_555 1_555
C8 C7 1_555 1_555
H4 C8 1_555 1_555
C9 C8 1_555 1_555
H5 C9 1_555 1_555
C10 C1 1_555 1_555
C11 C3 1_555 1_555
O2 C11 1_555 1_555
O3 C11 1_555 1_555
C12 C1 1_555 1_555
H6 C12 1_555 1_555
H7 C12 1_555 1_555
C13 C12 1_555 1_555
C14 C13 1_555 1_555
O4 C14 1_555 1_555
P2 O4 1_555 1_555
C15 C14 1_555 1_555
C16 C15 1_555 1_555
H8 C16 1_555 1_555
C17 C16 1_555 1_555
C18 C17 1_555 1_555
H9 C18 1_555 1_555
C19 C18 1_555 1_555
H10 C19 1_555 1_555
C20 C19 1_555 1_555
H11 C20 1_555 1_555
C21 C20 1_555 1_555
H12 C21 1_555 1_555
C22 C13 1_555 1_555
C23 C15 1_555 1_555
O5 C23 1_555 1_555
O6 P2 1_555 1_555
C24 P1 1_555 1_555
C25 C24 1_555 1_555
H13 C25 1_555 1_555
C26 C25 1_555 1_555
H14 C26 1_555 1_555
C27 C26 1_555 1_555
H15 C27 1_555 1_555
C28 C27 1_555 1_555
H16 C28 1_555 1_555
C29 C24 1_555 1_555
H17 C29 1_555 1_555
C30 P2 1_555 1_555
C31 C30 1_555 1_555
H18 C31 1_555 1_555
C32 C31 1_555 1_555
H19 C32 1_555 1_555
C33 C32 1_555 1_555
H20 C33 1_555 1_555
C34 C33 1_555 1_555
H21 C34 1_555 1_555
C35 C30 1_555 1_555
H22 C35 1_555 1_555
C5 C10 1_555 1_555
C9 C10 1_555 1_555
C17 C22 1_555 1_555
C21 C22 1_555 1_555
C23 O6 1_555 1_555
C28 C29 1_555 1_555
C34 C35 1_555 1_555

#END
