
#######################################################################
#
#                 Cambridge Crystallographic Data Centre
#                                CCDC 
#
#######################################################################
#
# If this CIF has been generated from an entry in the Cambridge 
# Structural Database, then it will include bibliographic, chemical, 
# crystal, experimental, refinement or atomic coordinate data resulting 
# from the CCDC's data processing and validation procedures.
#
#######################################################################

data_YEXHAN
_chemical_formula_moiety         'C16 H16 O3 S1'
_chemical_name_systematic        
"ethyl 5-hydroxy-6-(methylsulfanyl)[1,1'-biphenyl]-2-carboxylate"
_symmetry_cell_setting           monoclinic
_symmetry_space_group_name_H-M   'P 21/n'
_symmetry_Int_Tables_number      14
_space_group_name_Hall           '-P 2yn'
loop_
_symmetry_equiv_pos_site_id
_symmetry_equiv_pos_as_xyz
1 x,y,z
2 1/2-x,1/2+y,1/2-z
3 -x,-y,-z
4 1/2+x,1/2-y,1/2+z
_cell_length_a                   11.2116(11)
_cell_length_b                   9.9563(8)
_cell_length_c                   14.1774(12)
_cell_angle_alpha                90
_cell_angle_beta                 101.527(9)
_cell_angle_gamma                90
_cell_volume                     1550.65
_exptl_crystal_colour            colorless
_exptl_crystal_description       plate
_cell_formula_units_Z            4
loop_
_atom_site_label
_atom_site_type_symbol
_atom_site_fract_x
_atom_site_fract_y
_atom_site_fract_z
S1 S 0.19922(7) 0.62794(6) 0.44944(5)
O1 O 0.56062(17) 0.41293(19) 0.72946(13)
O2 O 0.3164(2) 0.89902(16) 0.47461(14)
H1 H 0.2499 0.8716 0.4462
C1 C 0.33611(15) 0.44328(18) 0.60844(12)
C2 C 0.48401(17) 0.6264(2) 0.67691(13)
C3 C 0.38492(15) 0.58267(18) 0.60721(12)
C4 C 0.32689(18) 0.6740(2) 0.53899(14)
O3 O 0.6024(3) 0.5800(3) 0.83045(17)
C5 C 0.4642(2) 0.8498(2) 0.61001(16)
H2 H 0.4904 0.9385 0.6113
C6 C 0.3680(2) 0.8069(2) 0.53951(16)
C7 C 0.35668(19) 0.3482(2) 0.54221(14)
H3 H 0.4012 0.3714 0.4959
C8 C 0.5549(2) 0.5394(2) 0.75321(16)
C9 C 0.52028(19) 0.7606(2) 0.67773(16)
H4 H 0.5842 0.7900 0.7256
C10 C 0.3117(2) 0.2191(2) 0.54416(16)
H5 H 0.3262 0.1561 0.4994
C11 C 0.2463(3) 0.1843(2) 0.6115(2)
H6 H 0.2158 0.0976 0.6126
C12 C 0.2701(2) 0.4065(2) 0.67606(17)
H7 H 0.2552 0.4691 0.7210
C13 C 0.2256(3) 0.2769(3) 0.6778(2)
H8 H 0.1815 0.2527 0.7242
C14 C 0.6227(3) 0.3218(4) 0.8025(2)
H9 H 0.5932 0.3339 0.8617
H10 H 0.7096 0.3394 0.8154
C15 C 0.5987(5) 0.1846(4) 0.7669(3)
H11 H 0.6274 0.1739 0.7079
H12 H 0.5128 0.1675 0.7555
H13 H 0.6402 0.1224 0.8139
C16 C 0.0780(3) 0.6823(6) 0.5046(4)
H14 H 0.0014 0.6599 0.4639
H15 H 0.0829 0.7778 0.5140
H16 H 0.0843 0.6385 0.5658
loop_
_geom_bond_atom_site_label_1
_geom_bond_atom_site_label_2
_geom_bond_site_symmetry_1
_geom_bond_site_symmetry_2
S1 C4 1_555 1_555
O1 C8 1_555 1_555
O2 H1 1_555 1_555
C1 C3 1_555 1_555
C2 C3 1_555 1_555
C3 C4 1_555 1_555
C4 C6 1_555 1_555
O3 C8 1_555 1_555
C5 H2 1_555 1_555
C6 O2 1_555 1_555
C7 C1 1_555 1_555
H3 C7 1_555 1_555
C8 C2 1_555 1_555
C9 C2 1_555 1_555
H4 C9 1_555 1_555
C10 C7 1_555 1_555
H5 C10 1_555 1_555
C11 C10 1_555 1_555
H6 C11 1_555 1_555
C12 C1 1_555 1_555
H7 C12 1_555 1_555
C13 C11 1_555 1_555
H8 C13 1_555 1_555
C14 O1 1_555 1_555
H9 C14 1_555 1_555
H10 C14 1_555 1_555
C15 C14 1_555 1_555
H11 C15 1_555 1_555
H12 C15 1_555 1_555
H13 C15 1_555 1_555
C16 S1 1_555 1_555
H14 C16 1_555 1_555
H15 C16 1_555 1_555
H16 C16 1_555 1_555
C5 C6 1_555 1_555
C5 C9 1_555 1_555
C12 C13 1_555 1_555

#END
