
#######################################################################
#
#                 Cambridge Crystallographic Data Centre
#                                CCDC 
#
#######################################################################
#
# If this CIF has been generated from an entry in the Cambridge 
# Structural Database, then it will include bibliographic, chemical, 
# crystal, experimental, refinement or atomic coordinate data resulting 
# from the CCDC's data processing and validation procedures.
#
#######################################################################

data_YEXMAS
_chemical_formula_moiety         'C20 H15 Cl2 N1 O3,C1 H2 Cl2'
_chemical_name_systematic        
'3,4-bis(4-chlorobenzene-1-carbonyl)-3,5-dimethyl-1,3-dihydro-2H-pyrrol-2-one dichloromethane solvate'
_symmetry_cell_setting           monoclinic
_symmetry_space_group_name_H-M   'P 21/n'
_symmetry_Int_Tables_number      14
_space_group_name_Hall           '-P 2yn'
loop_
_symmetry_equiv_pos_site_id
_symmetry_equiv_pos_as_xyz
1 x,y,z
2 1/2-x,1/2+y,1/2-z
3 -x,-y,-z
4 1/2+x,1/2-y,1/2+z
_cell_length_a                   8.178(2)
_cell_length_b                   26.638(7)
_cell_length_c                   10.143(3)
_cell_angle_alpha                90
_cell_angle_beta                 93.364(4)
_cell_angle_gamma                90
_cell_volume                     2205.8
_exptl_crystal_colour            white
_exptl_crystal_description       block
_cell_formula_units_Z            4
loop_
_atom_site_label
_atom_site_type_symbol
_atom_site_fract_x
_atom_site_fract_y
_atom_site_fract_z
C1 C 0.2586(4) 0.13011(11) 0.0646(3)
H1 H 0.1536 0.1197 0.0823
Cl1 Cl 0.71329(13) 0.07762(4) 0.12204(12)
Cl2 Cl 0.44043(14) 0.52084(4) 0.25099(13)
O1 O 0.1590(3) 0.28939(8) 0.14982(19)
C2 C 0.1287(3) 0.20634(9) -0.0321(2)
C3 C 0.2793(3) 0.17574(9) 0.0019(2)
C4 C 0.2931(3) 0.36599(10) 0.1096(3)
O2 O 0.1538(3) 0.21197(9) -0.3319(2)
C5 C 0.2505(3) 0.29480(9) -0.0619(2)
C6 C 0.1337(3) 0.25445(9) -0.1173(2)
C7 C 0.2039(3) 0.24250(10) -0.2513(2)
N1 N 0.3332(3) 0.27464(9) -0.2626(2)
H2 H 0.3957 0.2744 -0.3346
C8 C -0.0403(3) 0.27517(11) -0.1445(3)
H3 H -0.0851 0.2844 -0.0626
H4 H -0.1081 0.2499 -0.1874
H5 H -0.0366 0.3041 -0.2006
C9 C 0.3621(3) 0.30486(10) -0.1515(3)
C10 C 0.2828(4) 0.40670(11) 0.0238(3)
H6 H 0.2457 0.4018 -0.0637
C11 C 0.4377(3) 0.19017(11) -0.0250(3)
H7 H 0.4543 0.2205 -0.0677
C12 C 0.2319(3) 0.31480(10) 0.0703(2)
C13 C 0.3520(4) 0.37382(11) 0.2392(3)
H8 H 0.3592 0.3470 0.2978
C14 C 0.5457(4) 0.11514(12) 0.0746(3)
C15 C 0.3269(4) 0.45445(11) 0.0663(3)
H9 H 0.3174 0.4817 0.0090
C16 C 0.5120(4) 0.33683(12) -0.1463(3)
H10 H 0.5339 0.3490 -0.0579
H11 H 0.4952 0.3648 -0.2054
H12 H 0.6035 0.3173 -0.1723
C17 C 0.3853(4) 0.46078(11) 0.1959(3)
C18 C 0.5714(4) 0.15981(12) 0.0111(3)
H13 H 0.6768 0.1696 -0.0076
C19 C 0.4001(4) 0.42135(12) 0.2820(3)
H14 H 0.4419 0.4263 0.3682
C20 C 0.3908(5) 0.09967(13) 0.1012(4)
H15 H 0.3749 0.0692 0.1432
O3 O -0.0026(2) 0.19195(7) 0.00461(18)
C21 C 0.6373(7) 0.89907(19) 0.3274(6)
H16 H 0.7353 0.8823 0.3006
H17 H 0.5446 0.8774 0.3045
Cl3 Cl 0.65294(19) 0.90796(6) 0.50064(18)
Cl4 Cl 0.6137(3) 0.95372(8) 0.2437(2)
loop_
_geom_bond_atom_site_label_1
_geom_bond_atom_site_label_2
_geom_bond_site_symmetry_1
_geom_bond_site_symmetry_2
C1 H1 1_555 1_555
Cl1 C14 1_555 1_555
Cl2 C17 1_555 1_555
O1 C12 1_555 1_555
C2 C3 1_555 1_555
C3 C1 1_555 1_555
C4 C10 1_555 1_555
O2 C7 1_555 1_555
C5 C6 1_555 1_555
C6 C2 1_555 1_555
C7 C6 1_555 1_555
N1 C7 1_555 1_555
H2 N1 1_555 1_555
C8 C6 1_555 1_555
H3 C8 1_555 1_555
H4 C8 1_555 1_555
H5 C8 1_555 1_555
C9 C5 1_555 1_555
C10 H6 1_555 1_555
C11 C3 1_555 1_555
H7 C11 1_555 1_555
C12 C4 1_555 1_555
C13 C4 1_555 1_555
H8 C13 1_555 1_555
C14 C18 1_555 1_555
C15 C10 1_555 1_555
H9 C15 1_555 1_555
C16 C9 1_555 1_555
H10 C16 1_555 1_555
H11 C16 1_555 1_555
H12 C16 1_555 1_555
C17 C15 1_555 1_555
C18 C11 1_555 1_555
H13 C18 1_555 1_555
C19 C13 1_555 1_555
H14 C19 1_555 1_555
C20 C1 1_555 1_555
H15 C20 1_555 1_555
O3 C2 1_555 1_555
C21 H16 1_555 1_555
H17 C21 1_555 1_555
Cl3 C21 1_555 1_555
Cl4 C21 1_555 1_555
C5 C12 1_555 1_555
N1 C9 1_555 1_555
C14 C20 1_555 1_555
C17 C19 1_555 1_555

#END
