
#######################################################################
#
#                 Cambridge Crystallographic Data Centre
#                                CCDC 
#
#######################################################################
#
# If this CIF has been generated from an entry in the Cambridge 
# Structural Database, then it will include bibliographic, chemical, 
# crystal, experimental, refinement or atomic coordinate data resulting 
# from the CCDC's data processing and validation procedures.
#
#######################################################################

data_YEXMIA
_chemical_formula_moiety         'C38 H32 N2 O3 S1'
_chemical_name_systematic        
3-({2-([1,1'-biphenyl]-4-yl)-1-[(4-methylphenyl)sulfonyl]-1H-indol-3-yl}methyl)-1,3-dimethyl-1,3-dihydro-2H-indol-2-one
_symmetry_cell_setting           monoclinic
_symmetry_space_group_name_H-M   'C 2/c'
_symmetry_Int_Tables_number      15
_space_group_name_Hall           '-C 2yn'
loop_
_symmetry_equiv_pos_site_id
_symmetry_equiv_pos_as_xyz
1 x,y,z
2 -x,y,1/2-z
3 1/2+x,1/2+y,z
4 1/2-x,1/2+y,1/2-z
5 -x,-y,-z
6 x,-y,1/2+z
7 1/2-x,1/2-y,-z
8 1/2+x,1/2-y,1/2+z
_cell_length_a                   46.57(3)
_cell_length_b                   6.606(5)
_cell_length_c                   20.538(14)
_cell_angle_alpha                90
_cell_angle_beta                 106.11(3)
_cell_angle_gamma                90
_cell_volume                     6070.22
_exptl_crystal_colour            colorless
_exptl_crystal_description       block
_cell_formula_units_Z            8
loop_
_atom_site_label
_atom_site_type_symbol
_atom_site_fract_x
_atom_site_fract_y
_atom_site_fract_z
S1 S 0.58018(2) 0.36166(10) 0.56128(3)
O1 O 0.56011(4) 0.2042(3) 0.52991(9)
O2 O 0.60567(4) 0.3130(3) 0.61590(9)
N1 N 0.59295(4) 0.4632(3) 0.49909(9)
O3 O 0.60886(5) 0.9829(4) 0.29575(9)
N2 N 0.64806(5) 0.7674(3) 0.33616(11)
C1 C 0.63476(5) 0.6703(4) 0.57614(11)
C2 C 0.68301(5) 0.7194(4) 0.69415(11)
C3 C 0.70790(5) 0.7385(3) 0.75800(12)
C4 C 0.67072(6) 0.7438(4) 0.39644(12)
C5 C 0.61029(5) 0.6470(4) 0.51281(11)
C6 C 0.68053(5) 0.5464(4) 0.65337(12)
H1 H 0.6952 0.4432 0.6658
C7 C 0.60198(5) 0.7721(4) 0.45809(12)
C8 C 0.63698(6) 0.8413(4) 0.61693(12)
H2 H 0.6219 0.9426 0.6053
C9 C 0.57283(5) 0.4856(4) 0.43294(12)
C10 C 0.65709(5) 0.5235(4) 0.59548(12)
H3 H 0.6561 0.4058 0.5684
C11 C 0.57834(5) 0.6717(4) 0.40698(12)
C12 C 0.66071(6) 0.8654(4) 0.67387(12)
H4 H 0.6619 0.9852 0.7001
C13 C 0.56062(5) 0.5597(4) 0.58563(12)
C14 C 0.66649(6) 0.8757(4) 0.44586(13)
C15 C 0.73415(5) 0.6256(4) 0.76806(12)
H5 H 0.7367 0.5407 0.7328
C16 C 0.70540(6) 0.8665(4) 0.81039(12)
H6 H 0.6879 0.9463 0.8048
C17 C 0.53348(5) 0.6224(4) 0.54194(13)
H7 H 0.5255 0.5551 0.4999
C18 C 0.63887(6) 1.0022(4) 0.41533(13)
C19 C 0.75656(6) 0.6361(4) 0.82914(13)
H8 H 0.7740 0.5553 0.8356
C20 C 0.62916(6) 0.9203(4) 0.34123(14)
C21 C 0.61391(5) 0.9806(4) 0.45085(13)
H9 H 0.6214 1.0390 0.4968
H10 H 0.5969 1.0654 0.4259
C22 C 0.75362(6) 0.7631(4) 0.88023(13)
H11 H 0.7690 0.7707 0.9217
C23 C 0.55187(6) 0.3488(4) 0.39543(13)
H12 H 0.5485 0.2214 0.4135
C24 C 0.72817(6) 0.8785(4) 0.87058(13)
H13 H 0.7261 0.9673 0.9054
C25 C 0.69540(6) 0.6157(4) 0.40926(15)
H14 H 0.6986 0.5276 0.3754
C26 C 0.57205(6) 0.6580(5) 0.64710(13)
H15 H 0.5905 0.6156 0.6773
C27 C 0.68634(6) 0.8822(5) 0.50827(14)
H16 H 0.6837 0.9738 0.5418
C28 C 0.56191(6) 0.7260(5) 0.34136(13)
H17 H 0.5651 0.8528 0.3227
C29 C 0.71518(6) 0.6229(5) 0.47404(15)
H18 H 0.7321 0.5360 0.4846
C30 C 0.51833(6) 0.7823(4) 0.56002(15)
H19 H 0.4999 0.8247 0.5301
C31 C 0.52959(7) 0.8829(5) 0.62143(16)
C32 C 0.71101(6) 0.7492(5) 0.52207(14)
H20 H 0.7249 0.7488 0.5658
C33 C 0.64610(7) 1.2298(4) 0.41238(16)
H21 H 0.6533 1.2834 0.4585
H22 H 0.6280 1.3028 0.3879
H23 H 0.6616 1.2475 0.3888
C34 C 0.64591(7) 0.6541(5) 0.27441(13)
H24 H 0.6650 0.6612 0.2632
H25 H 0.6301 0.7122 0.2372
H26 H 0.6412 0.5124 0.2811
C35 C 0.53609(6) 0.4077(5) 0.33043(14)
H27 H 0.5216 0.3187 0.3033
C36 C 0.55640(7) 0.8184(5) 0.66410(15)
H28 H 0.5643 0.8855 0.7062
C37 C 0.54107(7) 0.5928(5) 0.30457(15)
H29 H 0.5298 0.6290 0.2601
C38 C 0.51299(8) 1.0605(5) 0.6390(2)
H30 H 0.5238 1.1857 0.6356
H31 H 0.5115 1.0452 0.6855
H32 H 0.4929 1.0664 0.6076
loop_
_geom_bond_atom_site_label_1
_geom_bond_atom_site_label_2
_geom_bond_site_symmetry_1
_geom_bond_site_symmetry_2
S1 O1 1_555 1_555
O2 S1 1_555 1_555
N1 S1 1_555 1_555
O3 C20 1_555 1_555
N2 C4 1_555 1_555
C1 C5 1_555 1_555
C2 C3 1_555 1_555
C3 C15 1_555 1_555
C4 C14 1_555 1_555
C5 N1 1_555 1_555
C6 C2 1_555 1_555
H1 C6 1_555 1_555
C7 C5 1_555 1_555
C8 C1 1_555 1_555
H2 C8 1_555 1_555
C9 N1 1_555 1_555
C10 C1 1_555 1_555
H3 C10 1_555 1_555
C11 C7 1_555 1_555
C12 C2 1_555 1_555
H4 C12 1_555 1_555
C13 S1 1_555 1_555
C14 C18 1_555 1_555
C15 H5 1_555 1_555
C16 C3 1_555 1_555
H6 C16 1_555 1_555
C17 C13 1_555 1_555
H7 C17 1_555 1_555
C18 C20 1_555 1_555
C19 C15 1_555 1_555
H8 C19 1_555 1_555
C20 N2 1_555 1_555
C21 C7 1_555 1_555
H9 C21 1_555 1_555
H10 C21 1_555 1_555
C22 C19 1_555 1_555
H11 C22 1_555 1_555
C23 C9 1_555 1_555
H12 C23 1_555 1_555
C24 C16 1_555 1_555
H13 C24 1_555 1_555
C25 C4 1_555 1_555
H14 C25 1_555 1_555
C26 C13 1_555 1_555
H15 C26 1_555 1_555
C27 C14 1_555 1_555
H16 C27 1_555 1_555
C28 C11 1_555 1_555
H17 C28 1_555 1_555
C29 C25 1_555 1_555
H18 C29 1_555 1_555
C30 C17 1_555 1_555
H19 C30 1_555 1_555
C31 C30 1_555 1_555
C32 C27 1_555 1_555
H20 C32 1_555 1_555
C33 C18 1_555 1_555
H21 C33 1_555 1_555
H22 C33 1_555 1_555
H23 C33 1_555 1_555
C34 N2 1_555 1_555
H24 C34 1_555 1_555
H25 C34 1_555 1_555
H26 C34 1_555 1_555
C35 C23 1_555 1_555
H27 C35 1_555 1_555
C36 C26 1_555 1_555
H28 C36 1_555 1_555
C37 C28 1_555 1_555
H29 C37 1_555 1_555
C38 C31 1_555 1_555
H30 C38 1_555 1_555
H31 C38 1_555 1_555
H32 C38 1_555 1_555
C6 C10 1_555 1_555
C8 C12 1_555 1_555
C9 C11 1_555 1_555
C18 C21 1_555 1_555
C22 C24 1_555 1_555
C29 C32 1_555 1_555
C31 C36 1_555 1_555
C35 C37 1_555 1_555

#END
