
#######################################################################
#
#                 Cambridge Crystallographic Data Centre
#                                CCDC 
#
#######################################################################
#
# If this CIF has been generated from an entry in the Cambridge 
# Structural Database, then it will include bibliographic, chemical, 
# crystal, experimental, refinement or atomic coordinate data resulting 
# from the CCDC's data processing and validation procedures.
#
#######################################################################

data_YEXPAV
_chemical_formula_moiety         'C26 H20 N2,C1 H1 Cl3'
_chemical_name_systematic        
'5,6-bis(4-methylphenyl)-1,10-phenanthroline chloroform solvate'
_symmetry_cell_setting           triclinic
_symmetry_space_group_name_H-M   'P -1'
_symmetry_Int_Tables_number      2
_space_group_name_Hall           '-P 1'
loop_
_symmetry_equiv_pos_site_id
_symmetry_equiv_pos_as_xyz
1 x,y,z
2 -x,-y,-z
_cell_length_a                   9.5214(7)
_cell_length_b                   9.8102(7)
_cell_length_c                   13.1136(8)
_cell_angle_alpha                88.382(2)
_cell_angle_beta                 86.794(2)
_cell_angle_gamma                74.184(3)
_cell_volume                     1176.58
_exptl_crystal_colour            yellow
_exptl_crystal_description       block
_cell_formula_units_Z            2
loop_
_atom_site_label
_atom_site_type_symbol
_atom_site_fract_x
_atom_site_fract_y
_atom_site_fract_z
Cl1 Cl 0.36614(18) 0.26462(14) 0.87706(10)
Cl2 Cl 0.09225(13) 0.1949(2) 0.86983(11)
Cl3 Cl 0.3468(2) -0.01444(15) 0.93516(10)
C1 C 0.2823(4) 0.1307(4) 0.8553(3)
H1 H 0.3078 0.0992 0.7832
N1 N 0.2329(2) 0.1668(2) 0.61991(18)
N2 N 0.5160(3) 0.0546(2) 0.66884(19)
C2 C 0.3894(3) 0.4056(3) 0.3129(2)
C3 C 0.6031(3) 0.1648(3) 0.5184(2)
C4 C 0.3090(3) 0.2842(3) 0.4696(2)
C5 C 0.3392(3) 0.1974(3) 0.5575(2)
C6 C 0.4270(3) 0.3146(3) 0.4061(2)
C7 C 0.4904(3) 0.1366(3) 0.5832(2)
C8 C 0.5692(3) 0.2551(3) 0.4293(2)
C9 C 0.7486(3) 0.1024(3) 0.5462(2)
H2 H 0.8282 0.1180 0.5050
C10 C 0.6907(3) 0.2842(3) 0.3625(2)
C11 C 0.3192(3) 0.5497(3) 0.3203(2)
H3 H 0.2953 0.5916 0.3856
C12 C 0.1610(3) 0.3355(3) 0.4453(2)
H4 H 0.1354 0.3927 0.3859
C13 C 0.7120(3) 0.4190(3) 0.3566(2)
H5 H 0.6511 0.4926 0.3974
C14 C 0.0953(3) 0.2190(3) 0.5943(2)
H6 H 0.0204 0.1981 0.6378
C15 C 0.7820(3) 0.1782(3) 0.3022(2)
H7 H 0.7707 0.0849 0.3063
C16 C 0.9113(3) 0.3424(4) 0.2301(2)
C17 C 0.0543(3) 0.3023(3) 0.5080(2)
H8 H -0.0457 0.3357 0.4925
C18 C 0.8211(3) 0.4472(3) 0.2919(2)
H9 H 0.8346 0.5397 0.2896
C19 C 0.8892(3) 0.2078(3) 0.2363(2)
H10 H 0.9488 0.1347 0.1945
C20 C 0.6539(3) -0.0007(3) 0.6916(2)
H11 H 0.6727 -0.0579 0.7516
C21 C 0.4243(3) 0.3473(3) 0.2165(2)
H12 H 0.4739 0.2496 0.2099
C22 C 0.2840(3) 0.6324(4) 0.2330(2)
H13 H 0.2370 0.7307 0.2394
C23 C 0.7739(3) 0.0201(3) 0.6323(3)
H14 H 0.8709 -0.0225 0.6518
C24 C 0.3874(3) 0.4304(4) 0.1300(2)
H15 H 0.4114 0.3886 0.0646
C25 C 0.3161(3) 0.5741(4) 0.1366(2)
C26 C 1.0282(4) 0.3738(5) 0.1584(3)
H16 H 0.9826 0.4318 0.1008
H17 H 1.0936 0.2847 0.1328
H18 H 1.0845 0.4253 0.1948
C27 C 0.2737(4) 0.6626(5) 0.0413(3)
H19 H 0.1783 0.6556 0.0213
H20 H 0.3472 0.6279 -0.0140
H21 H 0.2680 0.7618 0.0549
loop_
_geom_bond_atom_site_label_1
_geom_bond_atom_site_label_2
_geom_bond_site_symmetry_1
_geom_bond_site_symmetry_2
Cl1 C1 1_555 1_555
Cl2 C1 1_555 1_555
Cl3 C1 1_555 1_555
C1 H1 1_555 1_555
N1 C5 1_555 1_555
N2 C7 1_555 1_555
C2 C6 1_555 1_555
C3 C7 1_555 1_555
C4 C5 1_555 1_555
C5 C7 1_555 1_555
C6 C4 1_555 1_555
C8 C3 1_555 1_555
C9 C3 1_555 1_555
H2 C9 1_555 1_555
C10 C8 1_555 1_555
C11 C2 1_555 1_555
H3 C11 1_555 1_555
C12 C4 1_555 1_555
H4 C12 1_555 1_555
C13 C10 1_555 1_555
H5 C13 1_555 1_555
C14 N1 1_555 1_555
H6 C14 1_555 1_555
C15 C10 1_555 1_555
H7 C15 1_555 1_555
C16 C18 1_555 1_555
C17 C12 1_555 1_555
H8 C17 1_555 1_555
C18 C13 1_555 1_555
H9 C18 1_555 1_555
C19 C15 1_555 1_555
H10 C19 1_555 1_555
C20 N2 1_555 1_555
H11 C20 1_555 1_555
C21 C2 1_555 1_555
H12 C21 1_555 1_555
C22 C11 1_555 1_555
H13 C22 1_555 1_555
C23 C9 1_555 1_555
H14 C23 1_555 1_555
C24 C21 1_555 1_555
H15 C24 1_555 1_555
C25 C22 1_555 1_555
C26 C16 1_555 1_555
H16 C26 1_555 1_555
H17 C26 1_555 1_555
H18 C26 1_555 1_555
C27 C25 1_555 1_555
H19 C27 1_555 1_555
H20 C27 1_555 1_555
H21 C27 1_555 1_555
C6 C8 1_555 1_555
C14 C17 1_555 1_555
C16 C19 1_555 1_555
C20 C23 1_555 1_555
C24 C25 1_555 1_555

#END
