
#######################################################################
#
#                 Cambridge Crystallographic Data Centre
#                                CCDC 
#
#######################################################################
#
# If this CIF has been generated from an entry in the Cambridge 
# Structural Database, then it will include bibliographic, chemical, 
# crystal, experimental, refinement or atomic coordinate data resulting 
# from the CCDC's data processing and validation procedures.
#
#######################################################################

data_YEXTUT
_chemical_compound_source        Plant
_chemical_name_common            'Gochnatiolide B monohydrate'
_chemical_formula_moiety         'C30 H30 O7,H2 O1'
_chemical_name_systematic        
"5a'-hydroxy-1',3,6,8'-tetramethylidene-3a,4,5,5',5a',6,6',6a,7,7',7a',8',9a,9b,10a',10b'-hexadecahydro-2H-spiro[azuleno[4,5-b]furan-9,3'-benzo[1,8]azuleno[4,5-b]furan]-2,2',8,9'(1'H,3H,4'H)-tetrone monohydrate"
_symmetry_cell_setting           orthorhombic
_symmetry_space_group_name_H-M   'P 21 21 21'
_symmetry_Int_Tables_number      19
_space_group_name_Hall           'P 2ac 2ab'
loop_
_symmetry_equiv_pos_site_id
_symmetry_equiv_pos_as_xyz
1 x,y,z
2 1/2-x,-y,1/2+z
3 -x,1/2+y,1/2-z
4 1/2+x,1/2-y,-z
_cell_length_a                   8.3490(3)
_cell_length_b                   14.8116(6)
_cell_length_c                   21.0178(8)
_cell_angle_alpha                90
_cell_angle_beta                 90
_cell_angle_gamma                90
_cell_volume                     2599.1
_exptl_crystal_colour            colorless
_exptl_crystal_description       block
_cell_formula_units_Z            4
loop_
_atom_site_label
_atom_site_type_symbol
_atom_site_fract_x
_atom_site_fract_y
_atom_site_fract_z
O1 O 0.79851(17) 0.40028(10) 0.31490(7)
H1 H 0.7658 0.3467 0.3160
O2 O 0.22971(19) 0.55977(10) 0.33731(7)
O3 O 0.4241(2) 0.19760(10) 0.35415(8)
O4 O 0.73412(19) 0.38959(11) 0.09997(7)
O5 O 0.2213(2) 0.27504(12) 0.23299(8)
O6 O 0.1684(2) 0.70132(11) 0.31010(9)
O7 O 0.9028(3) 0.41202(15) 0.01888(9)
C1 C 0.5435(2) 0.41673(13) 0.26355(9)
C2 C 0.4160(2) 0.37044(13) 0.28400(9)
C3 C 0.6643(2) 0.46019(13) 0.30805(10)
C4 C 0.3610(2) 0.35857(13) 0.35205(9)
C5 C 0.3395(3) 0.32318(14) 0.23016(11)
C6 C 0.5835(3) 0.47467(14) 0.37260(10)
H2 H 0.5046 0.5243 0.3689
H3 H 0.6654 0.4932 0.4041
C7 C 0.0398(3) 0.53213(14) 0.42028(10)
H4 H -0.0526 0.5006 0.3997
C8 C 0.1959(2) 0.49826(13) 0.39051(10)
H5 H 0.2837 0.5039 0.4226
C9 C 0.5556(3) 0.41652(14) 0.19082(10)
H6 H 0.5075 0.4742 0.1752
C10 C 0.1262(3) 0.35185(15) 0.48128(11)
C11 C 0.0395(3) 0.62964(14) 0.40050(11)
C12 C 0.3271(3) 0.25726(14) 0.36335(9)
C13 C 0.1482(3) 0.63785(14) 0.34533(11)
C14 C 0.4420(3) 0.34074(16) 0.17300(10)
C15 C 0.4982(2) 0.38955(14) 0.39667(9)
H7 H 0.4538 0.4016 0.4395
H8 H 0.5774 0.3401 0.4007
C16 C 0.7325(3) 0.54987(14) 0.28309(10)
H9 H 0.6439 0.5849 0.2638
H10 H 0.7735 0.5850 0.3197
C17 C 0.7280(3) 0.41359(14) 0.16771(9)
H11 H 0.7905 0.3688 0.1932
C18 C 0.8668(3) 0.54095(15) 0.23395(11)
H12 H 0.9174 0.6008 0.2280
H13 H 0.9494 0.4995 0.2509
C19 C 0.1021(3) 0.33575(14) 0.41033(10)
H14 H -0.0149 0.3410 0.4009
C20 C 0.2338(3) 0.30804(16) 0.51592(12)
H15 H 0.2392 0.3178 0.5605
H16 H 0.3054 0.2669 0.4961
C21 C 0.1940(2) 0.40230(13) 0.36538(9)
H17 H 0.1347 0.4034 0.3240
C22 C 0.0329(3) 0.51663(16) 0.49185(11)
H18 H -0.0569 0.5523 0.5096
H19 H 0.1331 0.5396 0.5111
C23 C 0.8640(3) 0.42900(17) 0.07268(12)
C24 C 0.8113(3) 0.50616(14) 0.16977(10)
H20 H 0.7332 0.5513 0.1527
C25 C 0.9366(3) 0.49237(16) 0.11927(12)
C26 C 0.0111(3) 0.41745(17) 0.51137(11)
H21 H 0.0222 0.4131 0.5582
H22 H -0.0993 0.3987 0.5004
C27 C 0.1594(3) 0.24363(15) 0.38681(11)
H23 H 0.1575 0.1990 0.4219
H24 H 0.0898 0.2216 0.3520
C28 C -0.0387(3) 0.69938(17) 0.42386(13)
H25 H -0.0261 0.7573 0.4052
H26 H -0.1077 0.6917 0.4594
C29 C 0.4290(4) 0.2917(2) 0.12108(13)
H27 H 0.3532 0.2439 0.1192
H28 H 0.4953 0.3041 0.0854
C30 C 1.0835(4) 0.5230(2) 0.11466(17)
H29 H 1.1495 0.5048 0.0802
H30 H 1.1240 0.5635 0.1458
O8 O 0.2562(2) 0.71739(12) 0.18420(9)
H31 H 0.2359 0.7113 0.2236
H32 H 0.357(3) 0.701(3) 0.1783(19)
loop_
_geom_bond_atom_site_label_1
_geom_bond_atom_site_label_2
_geom_bond_site_symmetry_1
_geom_bond_site_symmetry_2
O1 H1 1_555 1_555
O2 C8 1_555 1_555
O3 C12 1_555 1_555
O4 C17 1_555 1_555
O5 C5 1_555 1_555
O6 C13 1_555 1_555
O7 C23 1_555 1_555
C1 C2 1_555 1_555
C2 C4 1_555 1_555
C3 O1 1_555 1_555
C4 C12 1_555 1_555
C5 C2 1_555 1_555
C6 C3 1_555 1_555
H2 C6 1_555 1_555
H3 C6 1_555 1_555
C7 H4 1_555 1_555
C8 C7 1_555 1_555
H5 C8 1_555 1_555
C9 C1 1_555 1_555
H6 C9 1_555 1_555
C10 C19 1_555 1_555
C11 C7 1_555 1_555
C12 C27 1_555 1_555
C13 O2 1_555 1_555
C14 C5 1_555 1_555
C15 C4 1_555 1_555
H7 C15 1_555 1_555
H8 C15 1_555 1_555
C16 C3 1_555 1_555
H9 C16 1_555 1_555
H10 C16 1_555 1_555
C17 C9 1_555 1_555
H11 C17 1_555 1_555
C18 C16 1_555 1_555
H12 C18 1_555 1_555
H13 C18 1_555 1_555
C19 H14 1_555 1_555
C20 C10 1_555 1_555
H15 C20 1_555 1_555
H16 C20 1_555 1_555
C21 C4 1_555 1_555
H17 C21 1_555 1_555
C22 C7 1_555 1_555
H18 C22 1_555 1_555
H19 C22 1_555 1_555
C23 O4 1_555 1_555
C24 C17 1_555 1_555
H20 C24 1_555 1_555
C25 C23 1_555 1_555
C26 C10 1_555 1_555
H21 C26 1_555 1_555
H22 C26 1_555 1_555
C27 C19 1_555 1_555
H23 C27 1_555 1_555
H24 C27 1_555 1_555
C28 C11 1_555 1_555
H25 C28 1_555 1_555
H26 C28 1_555 1_555
C29 C14 1_555 1_555
H27 C29 1_555 1_555
H28 C29 1_555 1_555
C30 C25 1_555 1_555
H29 C30 1_555 1_555
H30 C30 1_555 1_555
O8 H31 1_555 1_555
H32 O8 1_555 1_555
C1 C3 1_555 1_555
C6 C15 1_555 1_555
C8 C21 1_555 1_555
C9 C14 1_555 1_555
C11 C13 1_555 1_555
C18 C24 1_555 1_555
C19 C21 1_555 1_555
C22 C26 1_555 1_555
C24 C25 1_555 1_555

#END
