
#######################################################################
#
#                 Cambridge Crystallographic Data Centre
#                                CCDC 
#
#######################################################################
#
# If this CIF has been generated from an entry in the Cambridge 
# Structural Database, then it will include bibliographic, chemical, 
# crystal, experimental, refinement or atomic coordinate data resulting 
# from the CCDC's data processing and validation procedures.
#
#######################################################################

data_YEXTUQ
_chemical_formula_moiety         'C14 H14 N2 O4 S1'
_chemical_name_systematic        
4-Benzenesulfonylamino-3a,4,7,7a-tetrahydroisoindole-1,3-dione
_symmetry_cell_setting           monoclinic
_symmetry_space_group_name_H-M   'P 21/n'
_symmetry_Int_Tables_number      14
_space_group_name_Hall           '-P 2yn'
loop_
_symmetry_equiv_pos_site_id
_symmetry_equiv_pos_as_xyz
1 x,y,z
2 1/2-x,1/2+y,1/2-z
3 -x,-y,-z
4 1/2+x,1/2-y,1/2+z
_cell_length_a                   10.707(2)
_cell_length_b                   6.907(1)
_cell_length_c                   19.518(4)
_cell_angle_alpha                90
_cell_angle_beta                 98.39(3)
_cell_angle_gamma                90
_cell_volume                     1427.97
_exptl_crystal_colour            colorless
_exptl_crystal_description       prism
_cell_formula_units_Z            4
loop_
_atom_site_label
_atom_site_type_symbol
_atom_site_fract_x
_atom_site_fract_y
_atom_site_fract_z
C1 C 1.0233(2) 0.0175(3) 0.3108(1)
C2 C 0.9881(3) 0.1548(3) 0.2598(1)
C3 C 1.0713(3) 0.3009(4) 0.2491(2)
C4 C 1.1875(3) 0.3103(5) 0.2891(2)
C5 C 1.2210(3) 0.1778(5) 0.3394(2)
C6 C 1.1401(2) 0.0287(4) 0.3510(1)
C7 C 0.8984(2) 0.2810(3) 0.4646(1)
C8 C 0.8074(2) 0.2744(3) 0.3980(1)
C9 C 0.7518(2) 0.0669(3) 0.3830(1)
C10 C 0.6513(2) 0.0271(3) 0.4267(1)
C11 C 0.5636(2) 0.1592(3) 0.4318(1)
C12 C 0.5695(2) 0.3477(3) 0.3953(1)
C13 C 0.7050(2) 0.4228(3) 0.4084(1)
C14 C 0.7373(2) 0.4858(3) 0.4829(1)
N1 N 0.8492(2) 0.3982(3) 0.5101(1)
N2 N 0.8444(2) -0.0900(2) 0.3902(1)
O1 O 0.6775(2) 0.5930(2) 0.5144(1)
O2 O 0.9990(2) 0.1979(2) 0.4771(1)
O3 O 0.8230(2) -0.1797(2) 0.2677(1)
O4 O 0.9861(2) -0.3293(2) 0.3539(1)
S1 S 0.9157(1) -0.1621(1) 0.3279(1)
H1 H 0.9089(3) 0.1488(3) 0.2330(1)
H2 H 1.0485(3) 0.3928(4) 0.2147(2)
H3 H 1.2436(3) 0.4083(5) 0.2817(2)
H4 H 1.2996(3) 0.1868(5) 0.3667(2)
H5 H 1.1642(2) -0.0625(4) 0.3855(1)
H6 H 0.8498(20) 0.3098(26) 0.3636(11)
H7 H 0.7154(18) 0.0662(26) 0.3356(11)
H8 H 0.6503(2) -0.0898(3) 0.4502(1)
H9 H 0.4992(2) 0.1347(3) 0.4579(1)
H10 H 0.5132(2) 0.4403(3) 0.4124(1)
H11 H 0.5430(2) 0.3305(3) 0.3460(1)
H12 H 0.7151(21) 0.5310(31) 0.3835(11)
H13 H 0.8842(27) 0.4077(34) 0.5499(15)
H14 H 0.8838(22) -0.1013(30) 0.4236(12)
loop_
_geom_bond_atom_site_label_1
_geom_bond_atom_site_label_2
_geom_bond_site_symmetry_1
_geom_bond_site_symmetry_2
C1 C2 1_555 1_555
C2 C3 1_555 1_555
C3 C4 1_555 1_555
C4 C5 1_555 1_555
C5 C6 1_555 1_555
C6 C1 1_555 1_555
C7 C8 1_555 1_555
C8 C9 1_555 1_555
C9 C10 1_555 1_555
C10 C11 1_555 1_555
C11 C12 1_555 1_555
C12 C13 1_555 1_555
C13 C8 1_555 1_555
C14 C13 1_555 1_555
N1 C7 1_555 1_555
N2 C9 1_555 1_555
O1 C14 1_555 1_555
O2 C7 1_555 1_555
O3 S1 1_555 1_555
O4 S1 1_555 1_555
S1 C1 1_555 1_555
H1 C2 1_555 1_555
H2 C3 1_555 1_555
H3 C4 1_555 1_555
H4 C5 1_555 1_555
H5 C6 1_555 1_555
H6 C8 1_555 1_555
H7 C9 1_555 1_555
H8 C10 1_555 1_555
H9 C11 1_555 1_555
H10 C12 1_555 1_555
H11 C12 1_555 1_555
H12 C13 1_555 1_555
H13 N1 1_555 1_555
H14 N2 1_555 1_555
C14 N1 1_555 1_555
N2 S1 1_555 1_555

#END
