
#######################################################################
#
#                 Cambridge Crystallographic Data Centre
#                                CCDC 
#
#######################################################################
#
# If this CIF has been generated from an entry in the Cambridge 
# Structural Database, then it will include bibliographic, chemical, 
# crystal, experimental, refinement or atomic coordinate data resulting 
# from the CCDC's data processing and validation procedures.
#
#######################################################################

data_YEXVIJ
_chemical_formula_moiety         'C5 H3 I3 N6'
_chemical_name_systematic        
5-[(3,4,5-tris(iodo)-1H-pyrazol-1-yl)methyl]-1H-tetrazole
_symmetry_cell_setting           orthorhombic
_symmetry_space_group_name_H-M   'F d d 2'
_symmetry_Int_Tables_number      43
_space_group_name_Hall           'F 2 -2d'
loop_
_symmetry_equiv_pos_site_id
_symmetry_equiv_pos_as_xyz
1 x,y,z
2 -x,-y,z
3 1/4+x,1/4-y,1/4+z
4 1/4-x,1/4+y,1/4+z
5 x,1/2+y,1/2+z
6 -x,1/2-y,1/2+z
7 1/4+x,3/4-y,3/4+z
8 1/4-x,3/4+y,3/4+z
9 1/2+x,y,1/2+z
10 1/2-x,-y,1/2+z
11 3/4+x,1/4-y,3/4+z
12 3/4-x,1/4+y,3/4+z
13 1/2+x,1/2+y,z
14 1/2-x,1/2-y,z
15 3/4+x,3/4-y,1/4+z
16 3/4-x,3/4+y,1/4+z
_cell_length_a                   26.980(4)
_cell_length_b                   68.456(10)
_cell_length_c                   4.8830(8)
_cell_angle_alpha                90
_cell_angle_beta                 90
_cell_angle_gamma                90
_cell_volume                     9018.62
_exptl_crystal_colour            colorless
_exptl_crystal_description       needle
_chemical_melting_point          '476 K'
_cell_formula_units_Z            32
_chemical_properties_physical    Heat-sensitive
_exptl_crystal_recrystallization_method 
'Re-crystallisation from solvent: Methanol'
loop_
_atom_site_label
_atom_site_type_symbol
_atom_site_fract_x
_atom_site_fract_y
_atom_site_fract_z
I1 I 0.72632(4) 0.43020(2) 0.1763(3)
I2 I 0.67816(4) 0.38377(2) 0.5557(3)
I3 I 0.53861(4) 0.37900(2) 0.3273(3)
C1 C 0.6574(6) 0.4175(2) 0.148(4)
C2 C 0.6373(6) 0.4011(2) 0.277(3)
C3 C 0.5914(5) 0.3991(2) 0.193(3)
N1 N 0.5798(5) 0.4113(2) 0.002(4)
N2 N 0.6209(5) 0.4228(2) -0.038(4)
C4 C 0.6210(7) 0.4390(2) -0.211(4)
H1 H 0.6018 0.4359 -0.3782
H2 H 0.6555 0.4420 -0.2668
C5 C 0.5988(5) 0.4570(2) -0.075(4)
N3 N 0.5788(6) 0.4723(2) -0.189(4)
H3 H 0.5748 0.4739 -0.3666
N4 N 0.5652(7) 0.4852(2) -0.002(3)
N5 N 0.5759(8) 0.4764(3) 0.245(4)
N6 N 0.5975(6) 0.4585(3) 0.199(4)
I4 I 0.70008(5) 0.27698(2) 0.1459(3)
I5 I 0.72850(4) 0.32267(2) 0.6191(3)
I6 I 0.59567(4) 0.33694(2) 0.9094(3)
C6 C 0.6520(6) 0.2945(3) 0.365(4)
C7 C 0.6596(6) 0.3099(2) 0.536(4)
C8 C 0.6135(6) 0.3151(2) 0.633(3)
N7 N 0.5769(5) 0.30410(19) 0.520(4)
N8 N 0.6012(5) 0.2910(2) 0.352(3)
C9 C 0.5735(7) 0.2775(3) 0.194(5)
H4 H 0.5916 0.2746 0.0230
H5 H 0.5412 0.2834 0.1445
C10 C 0.5647(5) 0.2590(2) 0.346(4)
N9 N 0.5629(6) 0.2568(2) 0.610(4)
N10 N 0.5562(6) 0.2380(2) 0.655(4)
N11 N 0.5529(6) 0.2282(2) 0.425(4)
N12 N 0.5587(6) 0.2416(2) 0.228(4)
H6 H 0.5586 0.2393 0.0508
loop_
_geom_bond_atom_site_label_1
_geom_bond_atom_site_label_2
_geom_bond_site_symmetry_1
_geom_bond_site_symmetry_2
I1 C1 1_555 1_555
I2 C2 1_555 1_555
I3 C3 1_555 1_555
C1 C2 1_555 1_555
C2 C3 1_555 1_555
C3 N1 1_555 1_555
N1 N2 1_555 1_555
N2 C1 1_555 1_555
C4 N2 1_555 1_555
H1 C4 1_555 1_555
H2 C4 1_555 1_555
C5 C4 1_555 1_555
N3 C5 1_555 1_555
H3 N3 1_555 1_555
N4 N3 1_555 1_555
N5 N4 1_555 1_555
N6 C5 1_555 1_555
I4 C6 1_555 1_555
I5 C7 1_555 1_555
I6 C8 1_555 1_555
C6 C7 1_555 1_555
C7 C8 1_555 1_555
C8 N7 1_555 1_555
N7 N8 1_555 1_555
N8 C6 1_555 1_555
C9 N8 1_555 1_555
H4 C9 1_555 1_555
H5 C9 1_555 1_555
C10 C9 1_555 1_555
N9 C10 1_555 1_555
N10 N9 1_555 1_555
N11 N10 1_555 1_555
N12 C10 1_555 1_555
H6 N12 1_555 1_555
N5 N6 1_555 1_555
N11 N12 1_555 1_555

#END
