
#######################################################################
#
#                 Cambridge Crystallographic Data Centre
#                                CCDC 
#
#######################################################################
#
# If this CIF has been generated from an entry in the Cambridge 
# Structural Database, then it will include bibliographic, chemical, 
# crystal, experimental, refinement or atomic coordinate data resulting 
# from the CCDC's data processing and validation procedures.
#
#######################################################################

data_YEXVAB
_chemical_formula_moiety         'C36 H38 N4 O4'
_chemical_name_systematic        
3-{2-[3-{bis[(pyridin-2-yl)methyl]amino}-4-(2-methoxyethoxy)phenyl]ethenyl}-7-(diethylamino)-2H-1-benzopyran-2-one
_symmetry_cell_setting           monoclinic
_symmetry_space_group_name_H-M   'P 21/c'
_symmetry_Int_Tables_number      14
_space_group_name_Hall           '-P 2ybc'
loop_
_symmetry_equiv_pos_site_id
_symmetry_equiv_pos_as_xyz
1 x,y,z
2 -x,1/2+y,1/2-z
3 -x,-y,-z
4 x,1/2-y,1/2+z
_cell_length_a                   13.055(4)
_cell_length_b                   11.3256(19)
_cell_length_c                   21.253(4)
_cell_angle_alpha                90
_cell_angle_beta                 92.135(3)
_cell_angle_gamma                90
_cell_volume                     3140.2
_exptl_crystal_description       block
_cell_formula_units_Z            4
loop_
_atom_site_label
_atom_site_type_symbol
_atom_site_fract_x
_atom_site_fract_y
_atom_site_fract_z
O1 O 0.24029(13) 0.97127(17) 0.99605(8)
O2 O -0.17163(15) 0.96505(17) 0.58373(8)
C1 C -0.17995(19) 0.9164(2) 0.47658(12)
H1 H -0.2433 0.9539 0.4732
N1 N 0.29803(16) 0.81141(18) 0.91097(9)
C2 C -0.12680(19) 0.9124(2) 0.53362(12)
C3 C 0.18058(18) 0.9652(2) 0.94174(12)
C4 C -0.13837(19) 0.8638(2) 0.42362(12)
O3 O 0.22121(16) 0.8686(2) 1.11605(10)
C5 C 0.0083(2) 0.8054(3) 0.48915(15)
H2 H 0.0717 0.7682 0.4929
C6 C -0.0253(2) 0.9091(3) 0.65262(15)
C7 C 0.0159(2) 0.8567(3) 0.60305(15)
H3 H 0.0786 0.8185 0.6089
C8 C 0.20998(18) 0.8807(2) 0.89750(12)
N2 N -0.18764(18) 0.8671(2) 0.36568(11)
C9 C 0.3475(2) 0.7561(2) 0.85826(12)
H4 H 0.2956 0.7168 0.8320
H5 H 0.3945 0.6962 0.8744
C10 C -0.03144(19) 0.8570(2) 0.54244(14)
C11 C 0.0982(2) 1.0391(3) 0.92867(14)
H6 H 0.0794 1.0943 0.9585
C12 C 0.40550(19) 0.8409(2) 0.81813(11)
C13 C 0.0088(3) 0.9566(3) 0.76619(16)
H7 H -0.0515 1.0003 0.7656
C14 C 0.1529(2) 0.8775(3) 0.84016(13)
H8 H 0.1706 0.8228 0.8097
C15 C 0.40430(19) 0.7309(2) 0.99995(11)
C16 C -0.1231(3) 0.9685(3) 0.64374(14)
C17 C 0.0700(2) 0.9540(3) 0.82718(14)
C18 C 0.29970(19) 0.7364(2) 0.96763(12)
H9 H 0.2782 0.6572 0.9559
H10 H 0.2510 0.7671 0.9969
C19 C 0.0305(3) 0.9053(3) 0.71502(17)
H11 H 0.0894 0.8590 0.7169
O4 O -0.1707(2) 1.0221(3) 0.68219(11)
C20 C -0.0414(2) 0.8070(3) 0.43203(15)
H12 H -0.0119 0.7707 0.3979
N3 N 0.4504(2) 0.7915(2) 0.76935(10)
C21 C 0.0438(2) 1.0323(3) 0.87234(15)
H13 H -0.0120 1.0820 0.8649
C22 C 0.2017(2) 1.0331(3) 1.04880(13)
H14 H 0.1283 1.0213 1.0509
H15 H 0.2149 1.1170 1.0451
N4 N 0.4275(2) 0.6290(2) 1.02840(11)
C23 C 0.4167(2) 0.9594(3) 0.83167(14)
H16 H 0.3836 0.9922 0.8655
C24 C -0.2885(2) 0.9243(3) 0.35857(14)
H17 H -0.2881 0.9959 0.3836
H18 H -0.3006 0.9465 0.3148
C25 C -0.1457(3) 0.8011(3) 0.31318(15)
H19 H -0.0792 0.8345 0.3046
H20 H -0.1342 0.7204 0.3271
C26 C 0.2552(3) 0.9849(4) 1.10633(16)
C27 C 0.5198(3) 0.6218(3) 1.05781(16)
H21 H 0.5375 0.5507 1.0772
C28 C 0.4711(2) 0.8256(3) 1.00123(15)
H22 H 0.4527 0.8958 0.9811
C29 C 0.5247(3) 0.9792(3) 0.74575(15)
H23 H 0.5663 1.0240 0.7204
C30 C 0.4768(2) 1.0286(3) 0.79501(16)
H24 H 0.4847 1.1086 0.8038
C31 C 0.5648(2) 0.8155(3) 1.03236(15)
H25 H 0.6104 0.8787 1.0336
C32 C 0.5902(3) 0.7118(4) 1.06140(14)
H26 H 0.6530 0.7024 1.0829
C33 C 0.5095(3) 0.8618(4) 0.73492(14)
H27 H 0.5425 0.8279 0.7013
C34 C 0.2771(3) 0.8117(4) 1.16549(19)
H28 H 0.3486 0.8113 1.1565
H29 H 0.2533 0.7319 1.1694
H30 H 0.2674 0.8532 1.2042
C35 C -0.2059(4) 0.7972(5) 0.25400(19)
H31 H -0.2688 0.7557 0.2602
H32 H -0.1676 0.7571 0.2227
H33 H -0.2208 0.8763 0.2401
C36 C -0.3724(3) 0.8481(5) 0.37805(19)
H34 H -0.3741 0.7777 0.3529
H35 H -0.4363 0.8894 0.3724
H36 H -0.3617 0.8273 0.4216
H37 H 0.241(3) 1.030(3) 1.1429(17)
H38 H 0.329(3) 0.982(3) 1.1021(15)
loop_
_geom_bond_atom_site_label_1
_geom_bond_atom_site_label_2
_geom_bond_site_symmetry_1
_geom_bond_site_symmetry_2
O1 C3 1_555 1_555
O2 C2 1_555 1_555
C1 H1 1_555 1_555
N1 C8 1_555 1_555
C2 C1 1_555 1_555
C3 C8 1_555 1_555
C4 C1 1_555 1_555
O3 C26 1_555 1_555
C5 H2 1_555 1_555
C6 C7 1_555 1_555
C7 H3 1_555 1_555
C8 C14 1_555 1_555
N2 C4 1_555 1_555
C9 N1 1_555 1_555
H4 C9 1_555 1_555
H5 C9 1_555 1_555
C10 C2 1_555 1_555
C11 C3 1_555 1_555
H6 C11 1_555 1_555
C12 C9 1_555 1_555
C13 H7 1_555 1_555
C14 H8 1_555 1_555
C15 C18 1_555 1_555
C16 O2 1_555 1_555
C17 C13 1_555 1_555
C18 N1 1_555 1_555
H9 C18 1_555 1_555
H10 C18 1_555 1_555
C19 C6 1_555 1_555
H11 C19 1_555 1_555
O4 C16 1_555 1_555
C20 C4 1_555 1_555
H12 C20 1_555 1_555
N3 C12 1_555 1_555
C21 C11 1_555 1_555
H13 C21 1_555 1_555
C22 O1 1_555 1_555
H14 C22 1_555 1_555
H15 C22 1_555 1_555
N4 C15 1_555 1_555
C23 C12 1_555 1_555
H16 C23 1_555 1_555
C24 N2 1_555 1_555
H17 C24 1_555 1_555
H18 C24 1_555 1_555
C25 N2 1_555 1_555
H19 C25 1_555 1_555
H20 C25 1_555 1_555
C26 C22 1_555 1_555
C27 N4 1_555 1_555
H21 C27 1_555 1_555
C28 C15 1_555 1_555
H22 C28 1_555 1_555
C29 H23 1_555 1_555
C30 C23 1_555 1_555
H24 C30 1_555 1_555
C31 C28 1_555 1_555
H25 C31 1_555 1_555
C32 C27 1_555 1_555
H26 C32 1_555 1_555
C33 N3 1_555 1_555
H27 C33 1_555 1_555
C34 O3 1_555 1_555
H28 C34 1_555 1_555
H29 C34 1_555 1_555
H30 C34 1_555 1_555
C35 C25 1_555 1_555
H31 C35 1_555 1_555
H32 C35 1_555 1_555
H33 C35 1_555 1_555
C36 C24 1_555 1_555
H34 C36 1_555 1_555
H35 C36 1_555 1_555
H36 C36 1_555 1_555
H37 C26 1_555 1_555
H38 C26 1_555 1_555
C5 C10 1_555 1_555
C5 C20 1_555 1_555
C6 C16 1_555 1_555
C7 C10 1_555 1_555
C13 C19 1_555 1_555
C14 C17 1_555 1_555
C17 C21 1_555 1_555
C29 C30 1_555 1_555
C29 C33 1_555 1_555
C31 C32 1_555 1_555

#END
