
#######################################################################
#
#                 Cambridge Crystallographic Data Centre
#                                CCDC 
#
#######################################################################
#
# If this CIF has been generated from an entry in the Cambridge 
# Structural Database, then it will include bibliographic, chemical, 
# crystal, experimental, refinement or atomic coordinate data resulting 
# from the CCDC's data processing and validation procedures.
#
#######################################################################

data_YEYCIP
_chemical_formula_moiety         'C76 H68 Li4 N4 P4,2.8(C7 H8)'
_chemical_name_systematic        
'bis(\m~4~-P-Methyl-N,P,P-triphenyl-\l^5^-phosphazene-C,C,C,N,N)-bis(\m~2~-P-methyl-N,P,P-triphenyl-\l^5^-phosphazene-C,C,N)-tetra-lithium toluene solvate'
_symmetry_cell_setting           monoclinic
_symmetry_space_group_name_H-M   'C 2/c'
_symmetry_Int_Tables_number      15
_space_group_name_Hall           '-C 2yn'
loop_
_symmetry_equiv_pos_site_id
_symmetry_equiv_pos_as_xyz
1 x,y,z
2 1/2+x,1/2+y,z
3 -x,y,1/2-z
4 1/2-x,1/2+y,1/2-z
5 -x,-y,-z
6 1/2-x,1/2-y,-z
7 x,-y,1/2+z
8 1/2+x,1/2-y,1/2+z
_cell_length_a                   18.763(4)
_cell_length_b                   20.181(4)
_cell_length_c                   25.127(5)
_cell_angle_alpha                90
_cell_angle_beta                 104.52(3)
_cell_angle_gamma                90
_cell_volume                     9210.6
_cell_formula_units_Z            4
_chemical_properties_physical    'air- and moisture-sensitive'
loop_
_atom_site_label
_atom_site_type_symbol
_atom_site_fract_x
_atom_site_fract_y
_atom_site_fract_z
P1 P 0.64114(8) 0.09384(7) 0.25526(6)
P2 P 0.56671(7) 0.27884(7) 0.37192(6)
N1 N 0.6017(2) 0.0696(2) 0.30221(18)
N2 N 0.5582(2) 0.2094(2) 0.40190(17)
C1 C 0.5737(3) 0.1371(3) 0.2070(2)
C2 C 0.5888(3) 0.2574(3) 0.3117(2)
C3 C 0.7224(3) 0.1437(3) 0.2832(2)
C4 C 0.7516(3) 0.1832(3) 0.2482(3)
H1 H 0.7300 0.1826 0.2097
C5 C 0.8120(4) 0.2231(4) 0.2698(3)
H2 H 0.8320 0.2495 0.2458
C6 C 0.8434(4) 0.2250(4) 0.3255(3)
H3 H 0.8849 0.2526 0.3400
C7 C 0.8143(4) 0.1869(4) 0.3600(3)
H4 H 0.8362 0.1879 0.3985
C8 C 0.7539(3) 0.1471(3) 0.3399(3)
H5 H 0.7336 0.1220 0.3645
C9 C 0.6726(4) 0.0229(3) 0.2224(2)
C10 C 0.7392(4) 0.0203(4) 0.2080(2)
H6 H 0.7724 0.0566 0.2158
C11 C 0.7572(6) -0.0357(5) 0.1821(3)
H7 H 0.8031 -0.0370 0.1726
C12 C 0.7119(7) -0.0886(5) 0.1699(3)
H8 H 0.7256 -0.1262 0.1521
C13 C 0.6442(6) -0.0870(4) 0.1840(3)
H9 H 0.6113 -0.1235 0.1758
C14 C 0.6266(4) -0.0319(4) 0.2096(3)
H10 H 0.5807 -0.0311 0.2192
C15 C 0.6288(3) 0.0204(3) 0.3426(2)
C16 C 0.6983(3) -0.0096(3) 0.3527(2)
H11 H 0.7312 0.0030 0.3313
C17 C 0.7201(4) -0.0571(3) 0.3934(2)
H12 H 0.7672 -0.0771 0.3988
C18 C 0.6745(4) -0.0757(3) 0.4259(3)
H13 H 0.6903 -0.1075 0.4543
C19 C 0.6056(4) -0.0475(3) 0.4170(3)
H14 H 0.5734 -0.0605 0.4388
C20 C 0.5826(3) 0.0006(3) 0.3755(2)
H15 H 0.5351 0.0199 0.3699
C21 C 0.6326(3) 0.3324(3) 0.4187(2)
C22 C 0.6193(4) 0.3947(3) 0.4362(3)
H16 H 0.5717 0.4137 0.4237
C23 C 0.6745(5) 0.4305(4) 0.4720(4)
H17 H 0.6646 0.4738 0.4832
C24 C 0.7431(4) 0.4036(4) 0.4912(3)
H18 H 0.7806 0.4276 0.5162
C25 C 0.7571(4) 0.3420(4) 0.4741(3)
H19 H 0.8046 0.3230 0.4873
C26 C 0.7033(3) 0.3070(3) 0.4378(3)
H20 H 0.7146 0.2647 0.4256
C27 C 0.4817(3) 0.3254(3) 0.3503(2)
C28 C 0.4174(3) 0.2985(3) 0.3588(2)
H21 H 0.4196 0.2586 0.3793
C29 C 0.3496(4) 0.3294(4) 0.3377(3)
H22 H 0.3059 0.3110 0.3440
C30 C 0.3467(5) 0.3870(5) 0.3074(3)
H23 H 0.3005 0.4077 0.2924
C31 C 0.4104(5) 0.4148(5) 0.2986(3)
H24 H 0.4079 0.4544 0.2777
C32 C 0.4784(4) 0.3843(4) 0.3206(3)
H25 H 0.5222 0.4036 0.3153
C33 C 0.5474(3) 0.2029(3) 0.4551(2)
C34 C 0.5546(3) 0.1395(3) 0.4783(2)
H26 H 0.5676 0.1034 0.4584
C35 C 0.5429(4) 0.1286(4) 0.5306(3)
H27 H 0.5485 0.0853 0.5460
C36 C 0.5237(4) 0.1791(4) 0.5594(3)
H28 H 0.5149 0.1712 0.5945
C37 C 0.5167(4) 0.2422(4) 0.5377(3)
H29 H 0.5038 0.2776 0.5584
C38 C 0.5284(3) 0.2550(3) 0.4859(2)
H30 H 0.5235 0.2988 0.4716
Li1 Li 0.5000(4) 0.0840(3) 0.2500(3)
Li2 Li 0.5544(3) 0.1491(2) 0.3397(3)
Li3 Li 0.5000(3) 0.2163(3) 0.2500(2)
H47 H 0.578(4) 0.115(3) 0.171(3)
H48 H 0.585(3) 0.294(3) 0.289(2)
H49 H 0.587(3) 0.185(3) 0.211(2)
H50 H 0.645(4) 0.242(3) 0.317(2)
P1B P 0.35886(8) 0.09384(7) 0.24474(6)
P2B P 0.43329(7) 0.27884(7) 0.12808(6)
N1B N 0.3983(2) 0.0696(2) 0.19779(18)
N2B N 0.4418(2) 0.2094(2) 0.09810(17)
C1B C 0.4263(3) 0.1371(3) 0.2930(2)
C2B C 0.4112(3) 0.2574(3) 0.1883(2)
C3B C 0.2776(3) 0.1437(3) 0.2168(2)
C4B C 0.2484(3) 0.1832(3) 0.2518(3)
H1B H 0.2700 0.1826 0.2903
C5B C 0.1880(4) 0.2231(4) 0.2302(3)
H2B H 0.1680 0.2495 0.2542
C6B C 0.1566(4) 0.2250(4) 0.1745(3)
H3B H 0.1151 0.2526 0.1600
C7B C 0.1857(4) 0.1869(4) 0.1400(3)
H4B H 0.1638 0.1879 0.1015
C8B C 0.2461(3) 0.1471(3) 0.1601(3)
H5B H 0.2664 0.1220 0.1355
C9B C 0.3274(4) 0.0229(3) 0.2776(2)
C10B C 0.2608(4) 0.0203(4) 0.2920(2)
H6B H 0.2276 0.0566 0.2842
C11B C 0.2428(6) -0.0357(5) 0.3179(3)
H7B H 0.1969 -0.0370 0.3274
C12B C 0.2881(7) -0.0886(5) 0.3301(3)
H8B H 0.2744 -0.1262 0.3479
C13B C 0.3558(6) -0.0870(4) 0.3160(3)
H9B H 0.3887 -0.1235 0.3242
C14B C 0.3734(4) -0.0319(4) 0.2904(3)
H10B H 0.4193 -0.0311 0.2808
C15B C 0.3712(3) 0.0204(3) 0.1574(2)
C16B C 0.3017(3) -0.0096(3) 0.1473(2)
H11B H 0.2688 0.0030 0.1687
C17B C 0.2799(4) -0.0571(3) 0.1066(2)
H12B H 0.2328 -0.0771 0.1012
C18B C 0.3255(4) -0.0757(3) 0.0741(3)
H13B H 0.3097 -0.1075 0.0457
C19B C 0.3944(4) -0.0475(3) 0.0830(3)
H14B H 0.4266 -0.0605 0.0612
C20B C 0.4174(3) 0.0006(3) 0.1245(2)
H15B H 0.4649 0.0199 0.1301
C21B C 0.3674(3) 0.3324(3) 0.0813(2)
C22B C 0.3807(4) 0.3947(3) 0.0638(3)
H16B H 0.4283 0.4137 0.0763
C23B C 0.3255(5) 0.4305(4) 0.0280(4)
H17B H 0.3354 0.4738 0.0168
C24B C 0.2569(4) 0.4036(4) 0.0088(3)
H18B H 0.2194 0.4276 -0.0162
C25B C 0.2429(4) 0.3420(4) 0.0259(3)
H19B H 0.1954 0.3230 0.0127
C26B C 0.2967(3) 0.3070(3) 0.0622(3)
H20B H 0.2854 0.2647 0.0744
C27B C 0.5183(3) 0.3254(3) 0.1497(2)
C28B C 0.5826(3) 0.2985(3) 0.1412(2)
H21B H 0.5804 0.2586 0.1207
C29B C 0.6504(4) 0.3294(4) 0.1623(3)
H22B H 0.6941 0.3110 0.1560
C30B C 0.6533(5) 0.3870(5) 0.1926(3)
H23B H 0.6995 0.4077 0.2076
C31B C 0.5896(5) 0.4148(5) 0.2014(3)
H24B H 0.5921 0.4544 0.2223
C32B C 0.5216(4) 0.3843(4) 0.1794(3)
H25B H 0.4778 0.4036 0.1847
C33B C 0.4526(3) 0.2029(3) 0.0449(2)
C34B C 0.4454(3) 0.1395(3) 0.0217(2)
H26B H 0.4324 0.1034 0.0416
C35B C 0.4571(4) 0.1286(4) -0.0306(3)
H27B H 0.4515 0.0853 -0.0460
C36B C 0.4763(4) 0.1791(4) -0.0594(3)
H28B H 0.4851 0.1712 -0.0945
C37B C 0.4833(4) 0.2422(4) -0.0377(3)
H29B H 0.4962 0.2776 -0.0584
C38B C 0.4716(3) 0.2550(3) 0.0141(2)
H30B H 0.4765 0.2988 0.0284
Li2B Li 0.4456(3) 0.1491(2) 0.1603(3)
H47B H 0.422(4) 0.115(3) 0.329(3)
H48B H 0.415(3) 0.294(3) 0.211(2)
H49B H 0.413(3) 0.185(3) 0.289(2)
H50B H 0.355(4) 0.242(3) 0.183(2)
C39 C 0.3104(5) 0.1106(4) 0.4306(3)
C40 C 0.2345(7) 0.1053(6) 0.4190(4)
H31 H 0.2126 0.0626 0.4125
C41 C 0.1898(8) 0.1602(8) 0.4165(6)
H32 H 0.1379 0.1546 0.4078
C42 C 0.2183(9) 0.2215(8) 0.4263(6)
H33 H 0.1866 0.2586 0.4243
C43 C 0.2913(9) 0.2300(8) 0.4388(6)
H34 H 0.3116 0.2732 0.4464
C44 C 0.3386(8) 0.1746(7) 0.4407(5)
H35 H 0.3903 0.1813 0.4489
C45 C 0.3614(6) 0.0514(5) 0.4332(4)
H36 H 0.3415 0.0134 0.4492
H37 H 0.4103 0.0624 0.4562
H38 H 0.3651 0.0402 0.3961
C46? C 0.9352(4) 0.3068(4) 0.1887(4)
C47? C 0.9591(4) 0.2422(4) 0.2019(4)
C48? C 1.0000(4) 0.2284(4) 0.2500(4)
C49? C 1.0297(3) 0.2790(4) 0.2906(4)
C50? C 1.0058(4) 0.3436(4) 0.2775(4)
C51? C 0.9586(4) 0.3574(4) 0.2266(4)
C52? C 0.5582(4) 0.5339(3) 0.5426(3)
C53? C 0.5358(4) 0.5544(3) 0.5056(3)
C54? C 0.4807(4) 0.5525(3) 0.4466(3)
C55? C 0.4754(4) 0.5634(2) 0.3979(3)
C56? C 0.4766(4) 0.5086(3) 0.4795(3)
C57? C 0.4209(4) 0.5125(3) 0.4271(3)
C58? C 0.5070(4) 0.5682(2) 0.3604(3)
C59? C 0.5098(4) 0.5784(2) 0.3076(3)
C60? C 0.5700(4) 0.5818(2) 0.2817(3)
C61? C 0.4426(4) 0.5790(3) 0.2719(3)
C62? C 0.3353(4) 0.0815(3) 0.4314(4)
C63? C 0.2523(4) 0.0723(4) 0.4207(4)
H39? H 0.2307 0.0302 0.4103
C64? C 0.2060(17) 0.1292(15) 0.4268(10)
H40? H 0.1545 0.1223 0.4209
C65? C 0.2345(18) 0.1951(17) 0.4412(13)
H41? H 0.2028 0.2299 0.4464
C66? C 0.3141(15) 0.2077(16) 0.4476(9)
H42? H 0.3352 0.2506 0.4539
C67? C 0.3566(17) 0.1495(16) 0.4436(12)
H43? H 0.4080 0.1573 0.4502
C68? C 0.3885(15) 0.0287(13) 0.4288(13)
H44? H 0.3662 -0.0027 0.3997
H45? H 0.4023 0.0055 0.4642
H46? H 0.4325 0.0483 0.4209
loop_
_geom_bond_atom_site_label_1
_geom_bond_atom_site_label_2
_geom_bond_site_symmetry_1
_geom_bond_site_symmetry_2
P1 N1 1_555 1_555
P2 N2 1_555 1_555
N1 C15 1_555 1_555
N2 C33 1_555 1_555
C1 P1 1_555 1_555
C2 P2 1_555 1_555
C3 P1 1_555 1_555
C4 C3 1_555 1_555
H1 C4 1_555 1_555
C5 C4 1_555 1_555
H2 C5 1_555 1_555
C6 C5 1_555 1_555
H3 C6 1_555 1_555
C7 C6 1_555 1_555
H4 C7 1_555 1_555
C8 C3 1_555 1_555
H5 C8 1_555 1_555
C9 P1 1_555 1_555
C10 C9 1_555 1_555
H6 C10 1_555 1_555
C11 C10 1_555 1_555
H7 C11 1_555 1_555
C12 C11 1_555 1_555
H8 C12 1_555 1_555
C13 C12 1_555 1_555
H9 C13 1_555 1_555
C14 C9 1_555 1_555
H10 C14 1_555 1_555
C15 C16 1_555 1_555
C16 H11 1_555 1_555
C17 C16 1_555 1_555
H12 C17 1_555 1_555
C18 C17 1_555 1_555
H13 C18 1_555 1_555
C19 C18 1_555 1_555
H14 C19 1_555 1_555
C20 C15 1_555 1_555
H15 C20 1_555 1_555
C21 P2 1_555 1_555
C22 C21 1_555 1_555
H16 C22 1_555 1_555
C23 C22 1_555 1_555
H17 C23 1_555 1_555
C24 C23 1_555 1_555
H18 C24 1_555 1_555
C25 C24 1_555 1_555
H19 C25 1_555 1_555
C26 C21 1_555 1_555
H20 C26 1_555 1_555
C27 P2 1_555 1_555
C28 C27 1_555 1_555
H21 C28 1_555 1_555
C29 C28 1_555 1_555
H22 C29 1_555 1_555
C30 C29 1_555 1_555
H23 C30 1_555 1_555
C31 C30 1_555 1_555
H24 C31 1_555 1_555
C32 C27 1_555 1_555
H25 C32 1_555 1_555
C33 C34 1_555 1_555
C34 H26 1_555 1_555
C35 C34 1_555 1_555
H27 C35 1_555 1_555
C36 C35 1_555 1_555
H28 C36 1_555 1_555
C37 C36 1_555 1_555
H29 C37 1_555 1_555
C38 C33 1_555 1_555
H30 C38 1_555 1_555
C39 C40 1_555 1_555
C40 H31 1_555 1_555
C41 C40 1_555 1_555
H32 C41 1_555 1_555
C42 C41 1_555 1_555
H33 C42 1_555 1_555
C43 C42 1_555 1_555
H34 C43 1_555 1_555
C44 C39 1_555 1_555
H35 C44 1_555 1_555
C45 C39 1_555 1_555
H36 C45 1_555 1_555
H37 C45 1_555 1_555
H38 C45 1_555 1_555
Li1 N1 1_555 1_555
Li2 N1 1_555 1_555
Li3 C1 1_555 1_555
H47 C1 1_555 1_555
H48 C2 1_555 1_555
H49 C1 1_555 1_555
H50 C2 1_555 1_555
P1B N1B 1_555 1_555
P2B N2B 1_555 1_555
N1B Li1 1_555 1_555
N2B C33B 1_555 1_555
C1B Li1 1_555 1_555
C2B Li3 1_555 1_555
C3B P1B 1_555 1_555
C4B C3B 1_555 1_555
H1B C4B 1_555 1_555
C5B C4B 1_555 1_555
H2B C5B 1_555 1_555
C6B C5B 1_555 1_555
H3B C6B 1_555 1_555
C7B C6B 1_555 1_555
H4B C7B 1_555 1_555
C8B C3B 1_555 1_555
H5B C8B 1_555 1_555
C9B P1B 1_555 1_555
C10B C9B 1_555 1_555
H6B C10B 1_555 1_555
C11B C10B 1_555 1_555
H7B C11B 1_555 1_555
C12B C11B 1_555 1_555
H8B C12B 1_555 1_555
C13B C12B 1_555 1_555
H9B C13B 1_555 1_555
C14B C9B 1_555 1_555
H10B C14B 1_555 1_555
C15B N1B 1_555 1_555
C16B C15B 1_555 1_555
H11B C16B 1_555 1_555
C17B C16B 1_555 1_555
H12B C17B 1_555 1_555
C18B C17B 1_555 1_555
H13B C18B 1_555 1_555
C19B C18B 1_555 1_555
H14B C19B 1_555 1_555
C20B C15B 1_555 1_555
H15B C20B 1_555 1_555
C21B P2B 1_555 1_555
C22B C21B 1_555 1_555
H16B C22B 1_555 1_555
C23B C22B 1_555 1_555
H17B C23B 1_555 1_555
C24B C23B 1_555 1_555
H18B C24B 1_555 1_555
C25B C24B 1_555 1_555
H19B C25B 1_555 1_555
C26B C21B 1_555 1_555
H20B C26B 1_555 1_555
C27B P2B 1_555 1_555
C28B C27B 1_555 1_555
H21B C28B 1_555 1_555
C29B C28B 1_555 1_555
H22B C29B 1_555 1_555
C30B C29B 1_555 1_555
H23B C30B 1_555 1_555
C31B C30B 1_555 1_555
H24B C31B 1_555 1_555
C32B C27B 1_555 1_555
H25B C32B 1_555 1_555
C33B C34B 1_555 1_555
C34B H26B 1_555 1_555
C35B C34B 1_555 1_555
H27B C35B 1_555 1_555
C36B C35B 1_555 1_555
H28B C36B 1_555 1_555
C37B C36B 1_555 1_555
H29B C37B 1_555 1_555
C38B C33B 1_555 1_555
H30B C38B 1_555 1_555
Li2B C1 1_555 1_555
H47B C1B 1_555 1_555
H48B C2B 1_555 1_555
H49B C1B 1_555 1_555
H50B C2B 1_555 1_555
N2 Li2 1_555 1_555
C1 Li1 1_555 1_555
C2 Li2 1_555 1_555
C2 Li3 1_555 1_555
C7 C8 1_555 1_555
C13 C14 1_555 1_555
C19 C20 1_555 1_555
C25 C26 1_555 1_555
C31 C32 1_555 1_555
C37 C38 1_555 1_555
C43 C44 1_555 1_555
Li2 C1B 1_555 1_555
Li3 C1B 1_555 1_555
P1B C1B 1_555 1_555
P2B C2B 1_555 1_555
N1B Li2B 1_555 1_555
N2B Li2B 1_555 1_555
C2B Li2B 1_555 1_555
C7B C8B 1_555 1_555
C13B C14B 1_555 1_555
C19B C20B 1_555 1_555
C25B C26B 1_555 1_555
C31B C32B 1_555 1_555
C37B C38B 1_555 1_555

#END
