
#######################################################################
#
#                 Cambridge Crystallographic Data Centre
#                                CCDC 
#
#######################################################################
#
# If this CIF has been generated from an entry in the Cambridge 
# Structural Database, then it will include bibliographic, chemical, 
# crystal, experimental, refinement or atomic coordinate data resulting 
# from the CCDC's data processing and validation procedures.
#
#######################################################################

data_YEYCAJ
_chemical_formula_moiety         'C30 H33 N3 O4'
_chemical_name_systematic        
7-(diethylamino)-3-{2-[4-(2-methoxyethoxy)-3-{[(pyridin-2-yl)methyl]amino}phenyl]ethenyl}-2H-1-benzopyran-2-one
_symmetry_cell_setting           monoclinic
_symmetry_space_group_name_H-M   'P 21/c'
_symmetry_Int_Tables_number      14
_space_group_name_Hall           '-P 2ybc'
loop_
_symmetry_equiv_pos_site_id
_symmetry_equiv_pos_as_xyz
1 x,y,z
2 -x,1/2+y,1/2-z
3 -x,-y,-z
4 x,1/2-y,1/2+z
_cell_length_a                   16.146(8)
_cell_length_b                   9.284(5)
_cell_length_c                   18.365(9)
_cell_angle_alpha                90
_cell_angle_beta                 101.104(7)
_cell_angle_gamma                90
_cell_volume                     2701.37
_exptl_crystal_description       block
_cell_formula_units_Z            4
loop_
_atom_site_label
_atom_site_type_symbol
_atom_site_fract_x
_atom_site_fract_y
_atom_site_fract_z
O3 O 0.5768(2) 0.5770(4) 0.6298(2)
O4 O 0.48918(16) 0.6774(2) 0.53933(14)
C1 C 0.53450(16) 0.6872(3) 0.61161(14)
C2 C 0.52813(19) 0.8101(4) 0.65341(12)
C3 C 0.4764(2) 0.9232(3) 0.62291(18)
H1 H 0.4722 1.0054 0.6509
C4 C 0.43111(18) 0.9134(2) 0.55062(18)
C5 C 0.43748(15) 0.7905(3) 0.50883(13)
N1 N 0.8772(2) 0.6799(5) 0.9634(2)
H2 H 0.9034 0.6986 1.0078
N2 N 0.9529(3) 0.3378(6) 0.9072(3)
N3 N 0.2952(3) 0.8706(5) 0.3346(3)
C6 C 0.64234(15) 0.8736(3) 0.8971(2)
H3 H 0.5900 0.9179 0.8828
C7 C 0.68864(19) 0.8940(3) 0.96839(18)
H4 H 0.6673 0.9518 1.0018
C8 C 0.76680(18) 0.8279(3) 0.98973(13)
C9 C 0.79864(14) 0.7414(3) 0.93978(17)
C10 C 0.7523(2) 0.7211(3) 0.86848(15)
H5 H 0.7736 0.6632 0.8351
C11 C 0.67418(19) 0.7872(4) 0.84714(14)
C12 C 0.6297(3) 0.7500(5) 0.7663(3)
H6 H 0.6454 0.6673 0.7438
C13 C 0.5688(4) 0.8360(7) 0.7284(3)
H7 H 0.5525 0.9163 0.7524
C14 C 0.3949(3) 0.7731(5) 0.4387(3)
H8 H 0.4016 0.6892 0.4127
C15 C 0.3402(3) 0.8825(5) 0.4047(3)
C16 C 0.3343(3) 1.0076(5) 0.4459(3)
H9 H 0.2992 1.0820 0.4247
C17 C 0.3777(3) 1.0226(5) 0.5149(4)
H10 H 0.3726 1.1079 0.5402
C18 C 0.2353(4) 0.9824(6) 0.3003(4)
H11 H 0.2240 0.9707 0.2468
H12 H 0.2603 1.0768 0.3117
C19 C 0.1520(4) 0.9728(9) 0.3289(6)
H13 H 0.1155 1.0503 0.3084
H14 H 0.1635 0.9796 0.3821
H15 H 0.1250 0.8825 0.3141
C20 C 0.2939(4) 0.7372(6) 0.2919(4)
H16 H 0.3054 0.6553 0.3252
H17 H 0.2389 0.7238 0.2604
C21 C 0.3578(4) 0.7483(9) 0.2473(4)
H18 H 0.3456 0.8290 0.2143
H19 H 0.3585 0.6617 0.2189
H20 H 0.4120 0.7618 0.2790
C22 C 0.9181(3) 0.5867(5) 0.9185(3)
H21 H 0.9787 0.5970 0.9341
H22 H 0.9033 0.6185 0.8673
C23 C 0.8957(3) 0.4287(5) 0.9219(2)
C24 C 0.8222(3) 0.3800(7) 0.9399(3)
H23 H 0.7830 0.4456 0.9512
C25 C 0.8062(4) 0.2360(8) 0.9415(4)
H24 H 0.7559 0.2029 0.9531
C26 C 0.8629(5) 0.1443(8) 0.9264(4)
H25 H 0.8531 0.0456 0.9271
C27 C 0.9367(5) 0.1965(8) 0.9096(4)
H26 H 0.9767 0.1313 0.8995
C28 C 0.9821(9) 1.0916(19) 1.2082(8)
H27 H 1.0351 1.0542 1.2002
H28 H 0.9709 1.0557 1.2544
H29 H 0.9845 1.1949 1.2098
O5 O 0.9155(6) 1.0465(11) 1.1484(5)
C29 C 0.8578(8) 0.9509(17) 1.1753(5)
H30 H 0.8374 0.9957 1.2162
H31 H 0.8863 0.8621 1.1930
C30 C 0.7863(6) 0.9198(18) 1.1144(5)
H32 H 0.7453 0.8587 1.1317
H33 H 0.7586 1.0083 1.0951
O6 O 0.8214(10) 0.8467(18) 1.0574(5)
O1? O 0.9470(5) 0.9717(9) 1.1791(5)
O2? O 0.8161(11) 0.8263(18) 1.0631(5)
C31? C 0.9514(11) 1.1271(12) 1.1664(11)
H34? H 0.9136 1.1521 1.1211
H35? H 1.0080 1.1528 1.1627
H36? H 0.9355 1.1781 1.2071
C32? C 0.8623(7) 0.9244(17) 1.1826(5)
H37? H 0.8422 0.9793 1.2206
H38? H 0.8643 0.8239 1.1972
C33? C 0.8023(7) 0.9404(16) 1.1126(6)
H39? H 0.7451 0.9357 1.1214
H40? H 0.8101 1.0331 1.0905
C34? C 0.6016(8) 0.8322(17) 0.7868(5)
H41? H 0.5495 0.8998 0.7643
C35? C 0.5939(9) 0.7699(17) 0.7190(5)
H42? H 0.6319 0.6977 0.7130
loop_
_geom_bond_atom_site_label_1
_geom_bond_atom_site_label_2
_geom_bond_site_symmetry_1
_geom_bond_site_symmetry_2
O3 C1 1_555 1_555
O4 C1 1_555 1_555
C1 C2 1_555 1_555
C2 C3 1_555 1_555
C3 H1 1_555 1_555
C4 C3 1_555 1_555
C5 O4 1_555 1_555
N1 H2 1_555 1_555
N2 C23 1_555 1_555
N3 C15 1_555 1_555
C6 H3 1_555 1_555
C7 C6 1_555 1_555
H4 C7 1_555 1_555
C8 C7 1_555 1_555
C9 N1 1_555 1_555
C10 C9 1_555 1_555
H5 C10 1_555 1_555
C11 C6 1_555 1_555
C12 C11 1_555 1_555
H6 C12 1_555 1_555
C13 C2 1_555 1_555
H7 C13 1_555 1_555
C14 C5 1_555 1_555
H8 C14 1_555 1_555
C15 C14 1_555 1_555
C16 C15 1_555 1_555
H9 C16 1_555 1_555
C17 C4 1_555 1_555
H10 C17 1_555 1_555
C18 N3 1_555 1_555
H11 C18 1_555 1_555
H12 C18 1_555 1_555
C19 C18 1_555 1_555
H13 C19 1_555 1_555
H14 C19 1_555 1_555
H15 C19 1_555 1_555
C20 N3 1_555 1_555
H16 C20 1_555 1_555
H17 C20 1_555 1_555
C21 C20 1_555 1_555
H18 C21 1_555 1_555
H19 C21 1_555 1_555
H20 C21 1_555 1_555
C22 N1 1_555 1_555
H21 C22 1_555 1_555
H22 C22 1_555 1_555
C23 C22 1_555 1_555
C24 C23 1_555 1_555
H23 C24 1_555 1_555
C25 C24 1_555 1_555
H24 C25 1_555 1_555
C26 C25 1_555 1_555
H25 C26 1_555 1_555
C27 N2 1_555 1_555
H26 C27 1_555 1_555
C28 H27 1_555 1_555
H28 C28 1_555 1_555
H29 C28 1_555 1_555
O5 C28 1_555 1_555
C29 O5 1_555 1_555
H30 C29 1_555 1_555
H31 C29 1_555 1_555
C30 C29 1_555 1_555
H32 C30 1_555 1_555
H33 C30 1_555 1_555
O6 C8 1_555 1_555
C4 C5 1_555 1_555
C8 C9 1_555 1_555
C10 C11 1_555 1_555
C12 C13 1_555 1_555
C16 C17 1_555 1_555
C26 C27 1_555 1_555
C30 O6 1_555 1_555

#END
