
#######################################################################
#
#                 Cambridge Crystallographic Data Centre
#                                CCDC 
#
#######################################################################
#
# If this CIF has been generated from an entry in the Cambridge 
# Structural Database, then it will include bibliographic, chemical, 
# crystal, experimental, refinement or atomic coordinate data resulting 
# from the CCDC's data processing and validation procedures.
#
#######################################################################

data_YEYFOY01
_chemical_formula_moiety         'C14 H16 N2 O3'
_chemical_name_systematic        
'Ethyl 6-methyl-2-oxo-4-phenyl-1,2,3,4-tetrahydropyrimidine-5-carboxylate'
_symmetry_cell_setting           monoclinic
_symmetry_space_group_name_H-M   'P 21'
_symmetry_Int_Tables_number      4
_space_group_name_Hall           'P 2yb'
loop_
_symmetry_equiv_pos_site_id
_symmetry_equiv_pos_as_xyz
1 x,y,z
2 -x,1/2+y,-z
_cell_length_a                   11.342(2)
_cell_length_b                   7.3890(15)
_cell_length_c                   15.912(3)
_cell_angle_alpha                90
_cell_angle_beta                 105.26(3)
_cell_angle_gamma                90
_cell_volume                     1286.5
_cell_formula_units_Z            4
loop_
_atom_site_label
_atom_site_type_symbol
_atom_site_fract_x
_atom_site_fract_y
_atom_site_fract_z
O1 O 0.88509(15) 0.2649(3) 0.53625(10)
O2 O 1.10087(19) 0.1644(3) 0.94239(12)
O3 O 1.08711(17) 0.4633(3) 0.91751(11)
N1 N 0.9347(2) 0.4307(3) 0.66113(14)
N2 N 0.9337(2) 0.1197(3) 0.66673(14)
C1 C 0.9155(2) 0.2748(4) 0.61733(16)
C2 C 0.9400(2) 0.4471(4) 0.75359(15)
H1 H 0.9926 0.5501 0.7774
C3 C 0.9979(2) 0.2765(4) 0.80043(16)
C4 C 0.9881(2) 0.1200(4) 0.75617(16)
C5 C 1.0288(3) -0.0646(4) 0.79064(17)
H2 H 1.0659 -0.0574 0.8522
H3 H 1.0871 -0.1106 0.7619
H4 H 0.9595 -0.1441 0.7799
C6 C 1.0657(2) 0.2902(4) 0.89277(17)
C7 C 1.1575(3) 0.4931(5) 1.00671(19)
H5 H 1.2308 0.4194 1.0197
H6 H 1.1095 0.4598 1.0466
C8 C 1.1904(4) 0.6883(6) 1.0167(2)
H7 H 1.2374 0.7111 1.0754
H8 H 1.1173 0.7600 1.0043
H9 H 1.2379 0.7199 0.9770
C9 C 0.8136(2) 0.4814(4) 0.76767(16)
C10 C 0.7071(3) 0.4265(4) 0.70753(19)
H10 H 0.7118 0.3739 0.6554
C11 C 0.5943(3) 0.4488(5) 0.7241(2)
H11 H 0.5241 0.4102 0.6833
C12 C 0.5852(3) 0.5283(4) 0.80093(19)
H12 H 0.5093 0.5422 0.8122
C13 C 0.6899(3) 0.5865(4) 0.86057(17)
H13 H 0.6844 0.6413 0.9120
C14 C 0.8032(2) 0.5640(4) 0.84440(16)
H14 H 0.8731 0.6044 0.8850
H15 H 0.916(3) 0.530(6) 0.627(2)
H16 H 0.926(3) 0.015(5) 0.636(2)
O4 O 0.08559(15) 0.2739(3) 0.42871(10)
O5 O 0.31690(19) 0.3899(3) 0.83305(12)
O6 O 0.3269(2) 0.0912(3) 0.81085(12)
N3 N 0.1746(2) 0.4225(3) 0.55404(15)
N4 N 0.1656(2) 0.1115(3) 0.55225(14)
C15 C 0.1398(2) 0.2665(4) 0.50777(16)
C16 C 0.2614(2) 0.0984(4) 0.63464(16)
H17 H 0.2415 -0.0037 0.6678
C17 C 0.2603(2) 0.2709(4) 0.68742(16)
C18 C 0.2205(2) 0.4259(4) 0.64453(16)
C19 C 0.2208(3) 0.6117(4) 0.68165(18)
H18 H 0.2528 0.6068 0.7438
H19 H 0.1388 0.6579 0.6676
H20 H 0.2710 0.6898 0.6574
C20 C 0.3032(2) 0.2635(5) 0.78307(16)
C21 C 0.3755(4) 0.0675(6) 0.9038(2)
H21 H 0.3090 0.0468 0.9305
H22 H 0.4181 0.1766 0.9289
C22 C 0.4606(10) -0.0876(17) 0.9221(4)
H23 H 0.4908 -0.1032 0.9839
H24 H 0.5277 -0.0652 0.8973
H25 H 0.4184 -0.1953 0.8969
C23 C 0.3871(2) 0.0623(4) 0.61881(16)
C24 C 0.4181(2) 0.1315(4) 0.54654(17)
H26 H 0.3603 0.1970 0.5055
C25 C 0.5329(3) 0.1053(4) 0.53426(18)
H27 H 0.5520 0.1540 0.4856
C26 C 0.6196(2) 0.0065(4) 0.59433(18)
H28 H 0.6973 -0.0103 0.5865
C27 C 0.5898(2) -0.0668(4) 0.66586(18)
H29 H 0.6473 -0.1348 0.7059
C28 C 0.4742(2) -0.0394(4) 0.67818(17)
H30 H 0.4548 -0.0895 0.7265
H31 H 0.156(3) 0.525(5) 0.522(2)
H32 H 0.139(3) 0.001(6) 0.524(2)
C29? C 0.3755(4) 0.0675(6) 0.9038(2)
C30? C 0.5019(7) 0.029(2) 0.9246(5)
H33? H 0.3621 0.1769 0.9337
H34? H 0.3329 -0.0309 0.9236
H35? H 0.5323 0.0123 0.9864
H36? H 0.5443 0.1277 0.9064
H37? H 0.5152 -0.0797 0.8952
loop_
_geom_bond_atom_site_label_1
_geom_bond_atom_site_label_2
_geom_bond_site_symmetry_1
_geom_bond_site_symmetry_2
O1 C1 1_555 1_555
O2 C6 1_555 1_555
O3 C6 1_555 1_555
N1 C1 1_555 1_555
N2 C1 1_555 1_555
C2 N1 1_555 1_555
H1 C2 1_555 1_555
C3 C2 1_555 1_555
C4 N2 1_555 1_555
C5 C4 1_555 1_555
H2 C5 1_555 1_555
H3 C5 1_555 1_555
H4 C5 1_555 1_555
C6 C3 1_555 1_555
C7 O3 1_555 1_555
H5 C7 1_555 1_555
H6 C7 1_555 1_555
C8 C7 1_555 1_555
H7 C8 1_555 1_555
H8 C8 1_555 1_555
H9 C8 1_555 1_555
C9 C2 1_555 1_555
C10 C9 1_555 1_555
H10 C10 1_555 1_555
C11 C10 1_555 1_555
H11 C11 1_555 1_555
C12 C11 1_555 1_555
H12 C12 1_555 1_555
C13 C12 1_555 1_555
H13 C13 1_555 1_555
C14 C9 1_555 1_555
H14 C14 1_555 1_555
H15 N1 1_555 1_555
H16 N2 1_555 1_555
O4 C15 1_555 1_555
O5 C20 1_555 1_555
O6 C20 1_555 1_555
N3 C15 1_555 1_555
N4 C15 1_555 1_555
C16 N4 1_555 1_555
H17 C16 1_555 1_555
C17 C16 1_555 1_555
C18 N3 1_555 1_555
C19 C18 1_555 1_555
H18 C19 1_555 1_555
H19 C19 1_555 1_555
H20 C19 1_555 1_555
C20 C17 1_555 1_555
C21 O6 1_555 1_555
H21 C21 1_555 1_555
H22 C21 1_555 1_555
C22 C21 1_555 1_555
H23 C22 1_555 1_555
H24 C22 1_555 1_555
H25 C22 1_555 1_555
C23 C16 1_555 1_555
C24 C23 1_555 1_555
H26 C24 1_555 1_555
C25 C24 1_555 1_555
H27 C25 1_555 1_555
C26 C25 1_555 1_555
H28 C26 1_555 1_555
C27 C26 1_555 1_555
H29 C27 1_555 1_555
C28 C23 1_555 1_555
H30 C28 1_555 1_555
H31 N3 1_555 1_555
H32 N4 1_555 1_555
C3 C4 1_555 1_555
C13 C14 1_555 1_555
C17 C18 1_555 1_555
C27 C28 1_555 1_555

#END
