
#######################################################################
#
#                 Cambridge Crystallographic Data Centre
#                                CCDC 
#
#######################################################################
#
# If this CIF has been generated from an entry in the Cambridge 
# Structural Database, then it will include bibliographic, chemical, 
# crystal, experimental, refinement or atomic coordinate data resulting 
# from the CCDC's data processing and validation procedures.
#
#######################################################################

data_YEYNEW
_chemical_formula_moiety         'C21 H21 N3 O3'
_chemical_name_systematic        
'Ethyl 4-(4-methoxyphenyl)-2-methyl-1,4-dihydrobenzo(4,5)imidazo(1,2-a)pyrimidine-3-carboxylate'
_symmetry_cell_setting           triclinic
_symmetry_space_group_name_H-M   'P -1'
_symmetry_Int_Tables_number      2
_space_group_name_Hall           '-P 1'
loop_
_symmetry_equiv_pos_site_id
_symmetry_equiv_pos_as_xyz
1 x,y,z
2 -x,-y,-z
_cell_length_a                   6.3173(13)
_cell_length_b                   10.970(2)
_cell_length_c                   13.956(3)
_cell_angle_alpha                73.277(3)
_cell_angle_beta                 80.566(3)
_cell_angle_gamma                89.565(3)
_cell_volume                     912.928
_exptl_crystal_colour            colorless
_exptl_crystal_description       block
_chemical_melting_point          '545-546 K'
_cell_formula_units_Z            2
_exptl_crystal_recrystallization_method 'aqueous ethanol'
loop_
_atom_site_label
_atom_site_type_symbol
_atom_site_fract_x
_atom_site_fract_y
_atom_site_fract_z
N1 N 0.1229(3) 0.35960(19) 0.59022(15)
H1 H 0.0171 0.3679 0.5574
N2 N 0.3836(3) 0.45229(18) 0.65183(13)
N3 N 0.1990(3) 0.58439(19) 0.54254(14)
O1 O 0.5674(3) 0.10331(16) 0.79694(14)
O2 O 0.3147(4) -0.00564(19) 0.75869(18)
O3 O 0.1148(3) 0.33993(18) 1.12971(12)
C1 C 0.2290(4) 0.4651(2) 0.59282(16)
C2 C 0.4278(4) 0.3336(2) 0.72586(16)
H2 H 0.5837 0.3251 0.7191
C3 C 0.3299(4) 0.2228(2) 0.70106(17)
C4 C 0.1810(4) 0.2391(2) 0.63905(17)
C5 C 0.3443(4) 0.6552(2) 0.57264(16)
C6 C 0.4615(4) 0.5748(2) 0.64065(16)
C7 C 0.6120(4) 0.6200(2) 0.68453(19)
H3 H 0.6887 0.5649 0.7291
C8 C 0.6439(5) 0.7498(3) 0.6597(2)
H4 H 0.7444 0.7836 0.6879
C9 C 0.5284(5) 0.8315(3) 0.5930(2)
H5 H 0.5519 0.9190 0.5783
C10 C 0.3803(4) 0.7858(2) 0.54837(19)
H6 H 0.3059 0.8414 0.5029
C11 C 0.3963(4) 0.0955(3) 0.75257(19)
C12 C 0.6426(5) -0.0156(3) 0.8556(2)
H7 H 0.7059 -0.0642 0.8108
H8 H 0.5236 -0.0660 0.9029
C13 C 0.8047(5) 0.0150(3) 0.9114(3)
H9 H 0.8571 -0.0625 0.9508
H10 H 0.7404 0.0627 0.9557
H11 H 0.9219 0.0648 0.8640
C14 C 0.3406(4) 0.3368(2) 0.83370(16)
C15 C 0.1230(4) 0.3321(2) 0.86781(17)
H12 H 0.0290 0.3278 0.8240
C16 C 0.0405(4) 0.3335(2) 0.96560(18)
H13 H -0.1073 0.3300 0.9870
C17 C 0.1781(4) 0.3401(2) 1.03121(16)
C18 C 0.3964(4) 0.3464(2) 0.99794(18)
H14 H 0.4905 0.3523 1.0413
C19 C 0.4758(4) 0.3441(2) 0.90041(18)
H15 H 0.6236 0.3476 0.8791
C20 C 0.0618(5) 0.1364(3) 0.6163(2)
H16 H -0.0339 0.1741 0.5702
H17 H -0.0195 0.0827 0.6781
H18 H 0.1622 0.0864 0.5861
C21 C -0.1081(5) 0.3208(3) 1.1707(2)
H19 H -0.1305 0.3228 1.2399
H20 H -0.1581 0.2395 1.1681
H21 H -0.1862 0.3870 1.1317
loop_
_geom_bond_atom_site_label_1
_geom_bond_atom_site_label_2
_geom_bond_site_symmetry_1
_geom_bond_site_symmetry_2
N1 H1 1_555 1_555
N2 C1 1_555 1_555
N3 C1 1_555 1_555
O1 C11 1_555 1_555
O2 C11 1_555 1_555
O3 C17 1_555 1_555
C1 N1 1_555 1_555
C2 N2 1_555 1_555
H2 C2 1_555 1_555
C3 C2 1_555 1_555
C4 N1 1_555 1_555
C5 N3 1_555 1_555
C6 N2 1_555 1_555
C7 C6 1_555 1_555
H3 C7 1_555 1_555
C8 C7 1_555 1_555
H4 C8 1_555 1_555
C9 C8 1_555 1_555
H5 C9 1_555 1_555
C10 C5 1_555 1_555
H6 C10 1_555 1_555
C11 C3 1_555 1_555
C12 O1 1_555 1_555
H7 C12 1_555 1_555
H8 C12 1_555 1_555
C13 C12 1_555 1_555
H9 C13 1_555 1_555
H10 C13 1_555 1_555
H11 C13 1_555 1_555
C14 C2 1_555 1_555
C15 C14 1_555 1_555
H12 C15 1_555 1_555
C16 C15 1_555 1_555
H13 C16 1_555 1_555
C17 C16 1_555 1_555
C18 C17 1_555 1_555
H14 C18 1_555 1_555
C19 C14 1_555 1_555
H15 C19 1_555 1_555
C20 C4 1_555 1_555
H16 C20 1_555 1_555
H17 C20 1_555 1_555
H18 C20 1_555 1_555
C21 O3 1_555 1_555
H19 C21 1_555 1_555
H20 C21 1_555 1_555
H21 C21 1_555 1_555
C3 C4 1_555 1_555
C5 C6 1_555 1_555
C9 C10 1_555 1_555
C18 C19 1_555 1_555

#END
