
#######################################################################
#
#                 Cambridge Crystallographic Data Centre
#                                CCDC 
#
#######################################################################
#
# If this CIF has been generated from an entry in the Cambridge 
# Structural Database, then it will include bibliographic, chemical, 
# crystal, experimental, refinement or atomic coordinate data resulting 
# from the CCDC's data processing and validation procedures.
#
#######################################################################

data_YEYPAU
_chemical_formula_moiety         'C9 H10 F1 N3 S1'
_chemical_name_systematic        
1-(1-(2-Fluorophenyl)ethylidene)thiosemicarbazide
_symmetry_cell_setting           monoclinic
_symmetry_space_group_name_H-M   'P 21/c'
_symmetry_Int_Tables_number      14
_space_group_name_Hall           '-P 2ybc'
loop_
_symmetry_equiv_pos_site_id
_symmetry_equiv_pos_as_xyz
1 x,y,z
2 -x,1/2+y,1/2-z
3 -x,-y,-z
4 x,1/2-y,1/2+z
_cell_length_a                   6.4920(13)
_cell_length_b                   18.589(4)
_cell_length_c                   8.6000(17)
_cell_angle_alpha                90
_cell_angle_beta                 97.03(3)
_cell_angle_gamma                90
_cell_volume                     1030.04
_exptl_crystal_colour            colorless
_exptl_crystal_description       block
_cell_formula_units_Z            4
_exptl_crystal_recrystallization_method acetone
loop_
_atom_site_label
_atom_site_type_symbol
_atom_site_fract_x
_atom_site_fract_y
_atom_site_fract_z
S1 S 0.02878(10) 0.52175(3) 0.24598(6)
F1 F -0.4957(2) 0.21102(9) -0.0944(2)
N1 N -0.4425(3) 0.39479(9) 0.11233(19)
N2 N -0.2814(3) 0.44386(9) 0.1052(2)
H1 H -0.232(4) 0.4541(14) 0.021(3)
N3 N -0.2707(3) 0.45285(12) 0.3706(2)
H2 H -0.209(4) 0.4663(14) 0.469(3)
H3 H -0.369(4) 0.4224(14) 0.364(3)
C1 C -0.6680(3) 0.23400(12) -0.0311(3)
C2 C -0.8187(4) 0.18398(13) -0.0054(3)
H4 H -0.8061 0.1362 -0.0351
C3 C -0.9876(4) 0.20637(14) 0.0649(3)
H5 H -1.0907 0.1737 0.0826
C4 C -1.0033(4) 0.27674(14) 0.1086(3)
H6 H -1.1174 0.2916 0.1560
C5 C -0.8500(3) 0.32642(13) 0.0831(3)
H7 H -0.8628 0.3740 0.1142
C6 C -0.6775(3) 0.30573(11) 0.0112(2)
C7 C -0.5086(3) 0.35854(12) -0.0108(2)
C8 C -0.4284(4) 0.36537(16) -0.1662(3)
H8 H -0.4934 0.3298 -0.2369
H9 H -0.2809 0.3582 -0.1530
H10 H -0.4596 0.4125 -0.2082
C9 C -0.1861(3) 0.47011(10) 0.2427(2)
loop_
_geom_bond_atom_site_label_1
_geom_bond_atom_site_label_2
_geom_bond_site_symmetry_1
_geom_bond_site_symmetry_2
S1 C9 1_555 1_555
F1 C1 1_555 1_555
N1 N2 1_555 1_555
N2 H1 1_555 1_555
N3 H2 1_555 1_555
H3 N3 1_555 1_555
C1 C2 1_555 1_555
C2 H4 1_555 1_555
C3 C2 1_555 1_555
H5 C3 1_555 1_555
C4 C3 1_555 1_555
H6 C4 1_555 1_555
C5 C4 1_555 1_555
H7 C5 1_555 1_555
C6 C1 1_555 1_555
C7 N1 1_555 1_555
C8 C7 1_555 1_555
H8 C8 1_555 1_555
H9 C8 1_555 1_555
H10 C8 1_555 1_555
C9 N2 1_555 1_555
N3 C9 1_555 1_555
C5 C6 1_555 1_555
C6 C7 1_555 1_555

#END
