
#######################################################################
#
#                 Cambridge Crystallographic Data Centre
#                                CCDC 
#
#######################################################################
#
# If this CIF has been generated from an entry in the Cambridge 
# Structural Database, then it will include bibliographic, chemical, 
# crystal, experimental, refinement or atomic coordinate data resulting 
# from the CCDC's data processing and validation procedures.
#
#######################################################################

data_YEYROJ
_chemical_formula_moiety         'C22 H25 N1 O3'
_chemical_name_systematic        
(3S,5S,6R)-2-Ethoxy-4,5-dimethyl-6-phenyl-2-(2-phenylvinyl)-perhydro-1,4-oxazin-3-one
_symmetry_cell_setting           orthorhombic
_symmetry_space_group_name_H-M   'P 21 21 21'
_symmetry_Int_Tables_number      19
_space_group_name_Hall           'P 2ac 2ab'
loop_
_symmetry_equiv_pos_site_id
_symmetry_equiv_pos_as_xyz
1 x,y,z
2 1/2+x,1/2-y,-z
3 -x,1/2+y,1/2-z
4 1/2-x,-y,1/2+z
_cell_length_a                   6.574(1)
_cell_length_b                   16.889(3)
_cell_length_c                   17.779(2)
_cell_angle_alpha                90
_cell_angle_beta                 90
_cell_angle_gamma                90
_cell_volume                     1973.97
_exptl_crystal_colour            white
_chemical_melting_point          153-153.5deg.C
_cell_formula_units_Z            4
loop_
_atom_site_label
_atom_site_type_symbol
_atom_site_fract_x
_atom_site_fract_y
_atom_site_fract_z
C1 C 0.6609(10) 0.3897(3) 0.9614(3)
C2 C 0.7439(11) 0.3343(4) 0.9129(4)
C3 C 0.6241(15) 0.2723(4) 0.8893(4)
C4 C 0.4271(12) 0.2652(3) 0.9129(3)
C5 C 0.3487(9) 0.3224(3) 0.9605(3)
C6 C 0.4626(9) 0.3852(3) 0.9852(3)
C7 C 0.3827(9) 0.4469(3) 1.0353(3)
C8 C 0.1929(10) 0.4567(3) 1.0536(3)
C9 C 0.1058(9) 0.5209(3) 1.1029(3)
C10 C -0.0034(9) 0.4830(3) 1.1704(3)
C11 C 0.1975(9) 0.5713(3) 1.2541(3)
C12 C 0.2140(8) 0.6227(3) 1.1844(3)
C13 C 0.3681(8) 0.6877(3) 1.1916(3)
C14 C 0.5584(9) 0.6834(3) 1.1589(3)
C15 C 0.6957(9) 0.7448(4) 1.1696(3)
C16 C 0.6478(10) 0.8080(3) 1.2145(4)
C17 C 0.4580(10) 0.8123(3) 1.2469(3)
C18 C 0.3204(8) 0.7528(3) 1.2348(3)
C19 C 0.0016(10) 0.6028(4) 0.9986(4)
C20 C -0.1750(13) 0.6420(4) 0.9666(4)
C21 C -0.0509(9) 0.4734(3) 1.3045(3)
C22 C 0.3978(10) 0.5369(3) 1.2789(3)
N1 N 0.0467(7) 0.50843(24) 1.23961(25)
O1 O 0.2669(5) 0.57223(19) 1.12266(18)
O2 O -0.0539(5) 0.56332(21) 1.06650(19)
O3 O -0.1299(6) 0.43115(23) 1.15955(21)
H1 H 0.750 0.432 0.981
H2 H 0.882 0.336 0.898
H3 H 0.688 0.233 0.856
H4 H 0.343 0.219 0.893
H5 H 0.205 0.318 0.975
H6 H 0.473 0.488 1.056
H7 H 0.101 0.417 1.032
H8 H 0.150 0.603 1.297
H9 H 0.079 0.650 1.174
H10 H 0.602 0.636 1.129
H11 H 0.828 0.741 1.146
H12 H 0.744 0.853 1.217
H13 H 0.426 0.859 1.281
H14 H 0.179 0.757 1.256
H15 H 0.057 0.568 0.958
H16 H 0.111 0.644 1.003
H17 H -0.285 0.603 0.960
H18 H -0.232 0.679 1.004
H19 H -0.161 0.670 0.922
H20 H -0.144 0.433 1.289
H21 H 0.049 0.447 1.337
H22 H -0.122 0.510 1.335
H23 H 0.400 0.505 1.323
H24 H 0.466 0.507 1.239
H25 H 0.502 0.581 1.290
loop_
_geom_bond_atom_site_label_1
_geom_bond_atom_site_label_2
_geom_bond_site_symmetry_1
_geom_bond_site_symmetry_2
C1 C2 1_555 1_555
C2 C3 1_555 1_555
C3 C4 1_555 1_555
C4 C5 1_555 1_555
C5 C6 1_555 1_555
C6 C1 1_555 1_555
C7 C6 1_555 1_555
C8 C7 1_555 1_555
C9 C8 1_555 1_555
C10 C9 1_555 1_555
C11 C12 1_555 1_555
C12 C13 1_555 1_555
C13 C14 1_555 1_555
C14 C15 1_555 1_555
C15 C16 1_555 1_555
C16 C17 1_555 1_555
C17 C18 1_555 1_555
C18 C13 1_555 1_555
C19 C20 1_555 1_555
C20 H17 1_555 1_555
C21 N1 1_555 1_555
C22 C11 1_555 1_555
N1 C10 1_555 1_555
O1 C9 1_555 1_555
O2 C9 1_555 1_555
O3 C10 1_555 1_555
H1 C1 1_555 1_555
H2 C2 1_555 1_555
H3 C3 1_555 1_555
H4 C4 1_555 1_555
H5 C5 1_555 1_555
H6 C7 1_555 1_555
H7 C8 1_555 1_555
H8 C11 1_555 1_555
H9 C12 1_555 1_555
H10 C14 1_555 1_555
H11 C15 1_555 1_555
H12 C16 1_555 1_555
H13 C17 1_555 1_555
H14 C18 1_555 1_555
H15 C19 1_555 1_555
H16 C19 1_555 1_555
H18 C20 1_555 1_555
H19 C20 1_555 1_555
H20 C21 1_555 1_555
H21 C21 1_555 1_555
H22 C21 1_555 1_555
H23 C22 1_555 1_555
H24 C22 1_555 1_555
H25 C22 1_555 1_555
C11 N1 1_555 1_555
C12 O1 1_555 1_555
C19 O2 1_555 1_555

#END
