
#######################################################################
#
#                 Cambridge Crystallographic Data Centre
#                                CCDC 
#
#######################################################################
#
# If this CIF has been generated from an entry in the Cambridge 
# Structural Database, then it will include bibliographic, chemical, 
# crystal, experimental, refinement or atomic coordinate data resulting 
# from the CCDC's data processing and validation procedures.
#
#######################################################################

data_YEYRID
_chemical_formula_moiety         'C23 H25 N1 O2'
_chemical_name_systematic        
(3R,5S,6R)-3-Allyl-4,5-dimethyl-6-phenylperhydro-3-(2-phenylvinyl)-perhydro-1,4-oxazin-2-one
_symmetry_cell_setting           orthorhombic
_symmetry_space_group_name_H-M   'P 21 21 21'
_symmetry_Int_Tables_number      19
_space_group_name_Hall           'P 2ac 2ab'
loop_
_symmetry_equiv_pos_site_id
_symmetry_equiv_pos_as_xyz
1 x,y,z
2 1/2+x,1/2-y,-z
3 -x,1/2+y,1/2-z
4 1/2-x,-y,1/2+z
_cell_length_a                   9.772(2)
_cell_length_b                   10.337(2)
_cell_length_c                   19.364(4)
_cell_angle_alpha                90
_cell_angle_beta                 90
_cell_angle_gamma                90
_cell_volume                     1956.02
_cell_formula_units_Z            4
loop_
_atom_site_label
_atom_site_type_symbol
_atom_site_fract_x
_atom_site_fract_y
_atom_site_fract_z
N1 N 0.2266(4) 0.2303(3) 0.21048(16)
C1 C 0.1533(5) 0.2332(4) 0.14465(20)
C2 C 0.2178(5) 0.3418(4) 0.10369(21)
C3 C 0.1577(5) 0.3581(5) 0.03230(21)
C4 C 0.1941(5) 0.2698(5) -0.01720(22)
C5 C 0.1363(6) 0.2745(6) -0.08225(23)
C6 C 0.0405(5) 0.3676(5) -0.09827(22)
C7 C 0.0077(6) 0.4578(5) -0.0498(3)
C8 C 0.0649(5) 0.4507(5) 0.01587(23)
C9 C 0.1953(4) 0.4685(4) 0.20829(24)
C10 C 0.2143(5) 0.3478(4) 0.25321(21)
C11 C 0.3521(5) 0.3655(6) 0.2945(3)
C12 C 0.4756(6) 0.3587(6) 0.2557(3)
C13 C 0.5825(6) 0.2874(7) 0.2740(3)
C14 C 0.0982(5) 0.3411(4) 0.30467(22)
C15 C 0.0932(5) 0.3898(4) 0.36699(22)
C16 C -0.0146(5) 0.3784(4) 0.41873(21)
C17 C -0.1292(6) 0.3016(5) 0.40892(23)
C18 C -0.2242(6) 0.2899(5) 0.4606(3)
C19 C -0.2077(6) 0.3521(5) 0.52194(24)
C20 C -0.0960(7) 0.4273(6) 0.53242(23)
C21 C 0.0006(6) 0.4429(5) 0.48112(23)
C22 C 0.2124(6) 0.1084(5) 0.24722(24)
C23 C -0.0021(5) 0.2436(5) 0.14849(22)
O1 O 0.2037(3) 0.4630(3) 0.13933(14)
O2 O 0.1785(4) 0.5728(3) 0.23376(16)
H1 H 0.166 0.148 0.121
H2 H 0.314 0.318 0.098
H3 H 0.259 0.204 -0.008
H4 H 0.163 0.213 -0.121
H5 H -0.005 0.365 -0.145
H6 H -0.056 0.528 -0.063
H7 H 0.046 0.521 0.048
H8 H 0.363 0.300 0.332
H9 H 0.355 0.448 0.320
H10 H 0.484 0.408 0.214
H11 H 0.671 0.262 0.258
H12 H 0.568 0.241 0.321
H13 H 0.011 0.295 0.289
H14 H 0.174 0.443 0.377
H15 H -0.141 0.256 0.363
H16 H -0.310 0.236 0.452
H17 H -0.277 0.349 0.558
H18 H -0.075 0.467 0.578
H19 H 0.081 0.502 0.488
H20 H 0.265 0.109 0.291
H21 H 0.121 0.088 0.260
H22 H 0.249 0.035 0.222
H23 H -0.047 0.178 0.176
H24 H -0.026 0.327 0.173
H25 H -0.047 0.249 0.105
loop_
_geom_bond_atom_site_label_1
_geom_bond_atom_site_label_2
_geom_bond_site_symmetry_1
_geom_bond_site_symmetry_2
N1 C1 1_555 1_555
C1 C2 1_555 1_555
C2 C3 1_555 1_555
C3 C4 1_555 1_555
C4 C5 1_555 1_555
C5 C6 1_555 1_555
C6 C7 1_555 1_555
C7 C8 1_555 1_555
C8 C3 1_555 1_555
C9 C10 1_555 1_555
C10 N1 1_555 1_555
C11 C10 1_555 1_555
C12 C11 1_555 1_555
C13 C12 1_555 1_555
C14 C10 1_555 1_555
C15 C14 1_555 1_555
C16 C15 1_555 1_555
C17 C16 1_555 1_555
C18 C17 1_555 1_555
C19 C18 1_555 1_555
C20 C19 1_555 1_555
C21 C16 1_555 1_555
C22 N1 1_555 1_555
C23 C1 1_555 1_555
O1 C2 1_555 1_555
O2 C9 1_555 1_555
H1 C1 1_555 1_555
H2 C2 1_555 1_555
H3 C4 1_555 1_555
H4 C5 1_555 1_555
H5 C6 1_555 1_555
H6 C7 1_555 1_555
H7 C8 1_555 1_555
H8 C11 1_555 1_555
H9 C11 1_555 1_555
H10 C12 1_555 1_555
H11 C13 1_555 1_555
H12 C13 1_555 1_555
H13 C14 1_555 1_555
H14 C15 1_555 1_555
H15 C17 1_555 1_555
H16 C18 1_555 1_555
H17 C19 1_555 1_555
H18 C20 1_555 1_555
H19 C21 1_555 1_555
H20 C22 1_555 1_555
H21 C22 1_555 1_555
H22 C22 1_555 1_555
H23 C23 1_555 1_555
H24 C23 1_555 1_555
H25 C23 1_555 1_555
C9 O1 1_555 1_555
C20 C21 1_555 1_555

#END
