
#######################################################################
#
#                 Cambridge Crystallographic Data Centre
#                                CCDC 
#
#######################################################################
#
# If this CIF has been generated from an entry in the Cambridge 
# Structural Database, then it will include bibliographic, chemical, 
# crystal, experimental, refinement or atomic coordinate data resulting 
# from the CCDC's data processing and validation procedures.
#
#######################################################################

data_YEYREZ
_chemical_formula_moiety         'C25 H25 N1 O2'
_chemical_name_systematic        
(3R,5S,6R)-3-Benzyl-4,5-dimethyl-3,6-diphenylperhydro-1,4-oxazin-2-one
_symmetry_cell_setting           orthorhombic
_symmetry_space_group_name_H-M   'P 21 21 2'
_symmetry_Int_Tables_number      18
_space_group_name_Hall           'P 2 2ab'
loop_
_symmetry_equiv_pos_site_id
_symmetry_equiv_pos_as_xyz
1 x,y,z
2 1/2+x,1/2-y,-z
3 1/2-x,1/2+y,-z
4 -x,-y,z
_cell_length_a                   20.280(2)
_cell_length_b                   14.838(1)
_cell_length_c                   6.970(1)
_cell_angle_alpha                90
_cell_angle_beta                 90
_cell_angle_gamma                90
_cell_volume                     2097.38
_exptl_crystal_colour            white
_chemical_melting_point          133-134deg.C
_cell_formula_units_Z            4
loop_
_atom_site_label
_atom_site_type_symbol
_atom_site_fract_x
_atom_site_fract_y
_atom_site_fract_z
N1 N 0.86377(16) 0.67334(23) 0.8551(5)
O1 O 0.75319(14) 0.60559(21) 0.6629(4)
O2 O 0.80304(16) 0.61157(22) 0.3866(5)
C1 C 0.86840(21) 0.6679(3) 0.6440(7)
C2 C 0.80582(23) 0.6258(3) 0.5556(7)
C3 C 0.75788(21) 0.6078(3) 0.8727(7)
C4 C 0.79853(20) 0.6867(3) 0.9377(6)
C5 C 0.76642(23) 0.7786(3) 0.9056(8)
C6 C 0.91441(24) 0.7262(4) 0.9512(7)
C7 C 0.88042(22) 0.7583(3) 0.5413(6)
C8 C 0.94378(24) 0.7950(3) 0.5304(7)
C9 C 0.9546(3) 0.8764(3) 0.4420(8)
C10 C 0.9043(3) 0.9226(3) 0.3591(9)
C11 C 0.8422(3) 0.8891(3) 0.3653(8)
C12 C 0.8300(3) 0.8074(3) 0.4565(8)
C13 C 0.92419(22) 0.6005(3) 0.5916(7)
C14 C 0.90902(23) 0.5038(3) 0.6370(8)
C15 C 0.8915(3) 0.4450(3) 0.4973(9)
C16 C 0.8784(3) 0.3545(4) 0.5390(10)
C17 C 0.8811(3) 0.3255(4) 0.7219(11)
C18 C 0.8987(3) 0.3824(4) 0.8659(10)
C19 C 0.9133(3) 0.4721(3) 0.8264(8)
C20 C 0.68750(21) 0.6044(3) 0.9456(7)
C21 C 0.67438(24) 0.5576(3) 1.1116(8)
C22 C 0.6110(3) 0.5546(4) 1.1828(9)
C23 C 0.56071(24) 0.5986(4) 1.0925(9)
C24 C 0.57350(24) 0.6442(3) 0.9280(9)
C25 C 0.63683(23) 0.6468(3) 0.8529(8)
H1 H 0.780 0.554 0.921
H2 H 0.801 0.686 1.076
H3 H 0.754 0.808 1.022
H4 H 0.795 0.819 0.837
H5 H 0.728 0.766 0.829
H6 H 0.915 0.717 1.093
H7 H 0.959 0.709 0.911
H8 H 0.907 0.787 0.925
H9 H 0.980 0.759 0.588
H10 H 0.998 0.903 0.438
H11 H 0.916 0.977 0.294
H12 H 0.804 0.924 0.309
H13 H 0.783 0.783 0.462
H14 H 0.935 0.607 0.459
H15 H 0.965 0.620 0.662
H16 H 0.894 0.464 0.356
H17 H 0.864 0.308 0.448
H18 H 0.870 0.264 0.764
H19 H 0.900 0.355 0.999
H20 H 0.923 0.512 0.939
H21 H 0.711 0.527 1.182
H22 H 0.598 0.521 1.293
H23 H 0.515 0.600 1.147
H24 H 0.538 0.679 0.872
H25 H 0.645 0.681 0.732
loop_
_geom_bond_atom_site_label_1
_geom_bond_atom_site_label_2
_geom_bond_site_symmetry_1
_geom_bond_site_symmetry_2
N1 C1 1_555 1_555
O1 C2 1_555 1_555
O2 C2 1_555 1_555
C1 C2 1_555 1_555
C3 O1 1_555 1_555
C4 N1 1_555 1_555
C5 C4 1_555 1_555
C6 N1 1_555 1_555
C7 C1 1_555 1_555
C8 C7 1_555 1_555
C9 C8 1_555 1_555
C10 C9 1_555 1_555
C11 C10 1_555 1_555
C12 C7 1_555 1_555
C13 C1 1_555 1_555
C14 C13 1_555 1_555
C15 C14 1_555 1_555
C16 C15 1_555 1_555
C17 C16 1_555 1_555
C18 C17 1_555 1_555
C19 C14 1_555 1_555
C20 C3 1_555 1_555
C21 C20 1_555 1_555
C22 C21 1_555 1_555
C23 C22 1_555 1_555
C24 C23 1_555 1_555
C25 C20 1_555 1_555
H1 C3 1_555 1_555
H2 C4 1_555 1_555
H3 C5 1_555 1_555
H4 C5 1_555 1_555
H5 C5 1_555 1_555
H6 C6 1_555 1_555
H7 C6 1_555 1_555
H8 C6 1_555 1_555
H9 C8 1_555 1_555
H10 C9 1_555 1_555
H11 C10 1_555 1_555
H12 C11 1_555 1_555
H13 C12 1_555 1_555
H14 C13 1_555 1_555
H15 C13 1_555 1_555
H16 C15 1_555 1_555
H17 C16 1_555 1_555
H18 C17 1_555 1_555
H19 C18 1_555 1_555
H20 C19 1_555 1_555
H21 C21 1_555 1_555
H22 C22 1_555 1_555
H23 C23 1_555 1_555
H24 C24 1_555 1_555
H25 C25 1_555 1_555
C3 C4 1_555 1_555
C11 C12 1_555 1_555
C18 C19 1_555 1_555
C24 C25 1_555 1_555

#END
