
#######################################################################
#
#                 Cambridge Crystallographic Data Centre
#                                CCDC 
#
#######################################################################
#
# If this CIF has been generated from an entry in the Cambridge 
# Structural Database, then it will include bibliographic, chemical, 
# crystal, experimental, refinement or atomic coordinate data resulting 
# from the CCDC's data processing and validation procedures.
#
#######################################################################

data_YEYRAX
_chemical_formula_moiety         'C19 H22 O5'
_chemical_name_systematic        
'Benzyl 6-isopropyl-3-methoxy-1-oxo-3,3a,6,6a-tetrahydro-1H-cyclopenta[c]furan-4-carboxylate'
_symmetry_cell_setting           orthorhombic
_symmetry_space_group_name_H-M   'P b c a'
_symmetry_Int_Tables_number      61
_space_group_name_Hall           '-P 2ac 2ab'
loop_
_symmetry_equiv_pos_site_id
_symmetry_equiv_pos_as_xyz
1 x,y,z
2 1/2-x,-y,1/2+z
3 -x,1/2+y,1/2-z
4 1/2+x,1/2-y,-z
5 -x,-y,-z
6 1/2+x,y,1/2-z
7 x,1/2-y,1/2+z
8 1/2-x,1/2+y,z
_cell_length_a                   5.9275(2)
_cell_length_b                   22.3693(8)
_cell_length_c                   25.6873(9)
_cell_angle_alpha                90
_cell_angle_beta                 90
_cell_angle_gamma                90
_cell_volume                     3405.98
_exptl_crystal_colour            colorless
_exptl_crystal_description       block
_cell_formula_units_Z            8
loop_
_atom_site_label
_atom_site_type_symbol
_atom_site_fract_x
_atom_site_fract_y
_atom_site_fract_z
O1 O -0.16950(13) 0.28006(4) 0.04343(3)
O2 O -0.06864(12) 0.30165(3) 0.12504(3)
O3 O 0.12159(13) 0.23566(3) 0.17862(3)
O4 O 0.53609(14) 0.35982(3) 0.20810(3)
O5 O 0.66046(12) 0.43358(3) 0.15549(3)
C1 C -0.02088(18) 0.28907(4) 0.07423(4)
C2 C 0.23215(17) 0.28872(5) 0.06535(4)
C3 C 0.12925(17) 0.29281(4) 0.15726(4)
C4 C 0.44195(16) 0.35716(4) 0.11834(4)
C5 C 0.43484(17) 0.38123(5) 0.07107(4)
C6 C 0.32413(18) 0.34149(5) 0.03134(4)
C7 C 0.33205(17) 0.29649(4) 0.12041(4)
C8 C -0.0614(2) 0.22886(6) 0.21470(5)
C9 C 0.54912(17) 0.38242(5) 0.16528(4)
C10 C 0.7582(2) 0.46236(5) 0.20114(4)
C11 C 0.91627(18) 0.51006(5) 0.18232(4)
C12 C 1.11161(19) 0.49433(5) 0.15550(4)
C13 C 1.2619(2) 0.53783(5) 0.13872(5)
C14 C 1.2182(2) 0.59776(5) 0.14881(4)
C15 C 1.0246(2) 0.61366(5) 0.17544(5)
C16 C 0.87355(19) 0.57015(5) 0.19228(4)
C17 C 0.15864(19) 0.37382(6) -0.00553(4)
C18 C 0.2908(2) 0.40740(8) -0.04763(5)
C19 C 0.0019(2) 0.41725(6) 0.02279(5)
H1 H 0.268(2) 0.2505(6) 0.0490(5)
H2 H 0.122(2) 0.3236(5) 0.1849(5)
H3 H 0.501(2) 0.4198(6) 0.0630(5)
H4 H 0.448(2) 0.3239(6) 0.0091(5)
H5 H 0.440(2) 0.2661(6) 0.1302(5)
H6 H -0.046(2) 0.1881(7) 0.2289(6)
H7 H -0.205(3) 0.2340(7) 0.1966(6)
H8 H -0.047(2) 0.2586(6) 0.2438(6)
H9 H 0.837(2) 0.4303(7) 0.2220(6)
H10 H 0.637(2) 0.4792(6) 0.2213(6)
H11 H 1.139(3) 0.4517(7) 0.1477(6)
H12 H 1.396(3) 0.5265(7) 0.1209(6)
H13 H 1.319(3) 0.6282(7) 0.1378(6)
H14 H 0.991(3) 0.6554(7) 0.1825(6)
H15 H 0.738(3) 0.5802(7) 0.2107(5)
H16 H 0.068(2) 0.3428(7) -0.0230(6)
H17 H 0.380(3) 0.3793(8) -0.0666(7)
H18 H 0.392(3) 0.4390(7) -0.0314(6)
H19 H 0.190(3) 0.4289(8) -0.0715(7)
H20 H 0.091(3) 0.4528(7) 0.0360(6)
H21 H -0.075(3) 0.3991(7) 0.0535(6)
H22 H -0.116(3) 0.4322(7) -0.0016(7)
loop_
_geom_bond_atom_site_label_1
_geom_bond_atom_site_label_2
_geom_bond_site_symmetry_1
_geom_bond_site_symmetry_2
O1 C1 1_555 1_555
O2 C1 1_555 1_555
O3 C3 1_555 1_555
O4 C9 1_555 1_555
O5 C9 1_555 1_555
C1 C2 1_555 1_555
C2 C6 1_555 1_555
C3 O2 1_555 1_555
C4 C5 1_555 1_555
C5 C6 1_555 1_555
C6 C17 1_555 1_555
C7 C2 1_555 1_555
C8 O3 1_555 1_555
C9 C4 1_555 1_555
C10 O5 1_555 1_555
C11 C10 1_555 1_555
C12 C11 1_555 1_555
C13 C12 1_555 1_555
C14 C13 1_555 1_555
C15 C14 1_555 1_555
C16 C11 1_555 1_555
C17 C18 1_555 1_555
C18 H17 1_555 1_555
C19 C17 1_555 1_555
H1 C2 1_555 1_555
H2 C3 1_555 1_555
H3 C5 1_555 1_555
H4 C6 1_555 1_555
H5 C7 1_555 1_555
H6 C8 1_555 1_555
H7 C8 1_555 1_555
H8 C8 1_555 1_555
H9 C10 1_555 1_555
H10 C10 1_555 1_555
H11 C12 1_555 1_555
H12 C13 1_555 1_555
H13 C14 1_555 1_555
H14 C15 1_555 1_555
H15 C16 1_555 1_555
H16 C17 1_555 1_555
H18 C18 1_555 1_555
H19 C18 1_555 1_555
H20 C19 1_555 1_555
H21 C19 1_555 1_555
H22 C19 1_555 1_555
C3 C7 1_555 1_555
C4 C7 1_555 1_555
C15 C16 1_555 1_555

#END
