
#######################################################################
#
#                 Cambridge Crystallographic Data Centre
#                                CCDC 
#
#######################################################################
#
# If this CIF has been generated from an entry in the Cambridge 
# Structural Database, then it will include bibliographic, chemical, 
# crystal, experimental, refinement or atomic coordinate data resulting 
# from the CCDC's data processing and validation procedures.
#
#######################################################################

data_YEYTUU01
_chemical_formula_moiety         '2(C4 H12 N1 1+),C2 O4 2-,3(H2 O1)'
_chemical_name_systematic        'bis(diethylammonium) oxalate trihydrate'
_symmetry_cell_setting           monoclinic
_symmetry_space_group_name_H-M   'P 21/m'
_symmetry_Int_Tables_number      11
_space_group_name_Hall           '-P 2yb'
loop_
_symmetry_equiv_pos_site_id
_symmetry_equiv_pos_as_xyz
1 x,y,z
2 -x,1/2+y,-z
3 -x,-y,-z
4 x,1/2-y,z
_cell_length_a                   7.0294(5)
_cell_length_b                   12.2639(9)
_cell_length_c                   9.9449(7)
_cell_angle_alpha                90
_cell_angle_beta                 105.666(7)
_cell_angle_gamma                90
_cell_volume                     825.481
_exptl_crystal_colour            colorless
_exptl_crystal_description       block
_cell_formula_units_Z            2
loop_
_atom_site_label
_atom_site_type_symbol
_atom_site_fract_x
_atom_site_fract_y
_atom_site_fract_z
O1 O 0.9224(3) 0.2500 0.8690(2)
O2 O 0.6113(3) 0.2500 0.7318(2)
O3 O 0.7858(4) 0.2500 1.0954(2)
O4 O 0.4764(3) 0.2500 0.9607(2)
C1 C 0.7383(4) 0.2500 0.8479(3)
C2 C 0.6585(5) 0.2500 0.9809(3)
O5 O 0.6289(4) 0.0914(2) 0.5243(3)
H1 H 0.620(5) 0.132(3) 0.586(4)
H2 H 0.621(13) 0.087(7) 0.470(8)
O6 O 0.7076(6) 0.2500 1.3458(4)
H3 H 0.725(8) 0.2500 1.277(6)
H4 H 0.689(12) 0.2500 1.401(8)
N1 N 0.1805(4) 0.2500 0.7007(3)
H5 H 0.3018 0.2500 0.7635
H6 H 0.0884 0.2500 0.7498
C3 C 0.1587(4) 0.1485(3) 0.6171(3)
H7 H 0.2602 0.1466 0.5648
H8 H 0.0271 0.1472 0.5486
C4 C 0.1809(6) 0.0510(3) 0.7093(4)
H9 H 0.3119 0.0518 0.7762
H10 H 0.1662 -0.0153 0.6524
H11 H 0.0791 0.0524 0.7599
C3C C 0.1587(4) 0.3515(3) 0.6171(3)
H7C H 0.2602 0.3534 0.5648
H8C H 0.0271 0.3528 0.5486
C4C C 0.1809(6) 0.4490(3) 0.7093(4)
H9C H 0.3119 0.4482 0.7762
H10C H 0.1662 0.5153 0.6524
H11C H 0.0791 0.4476 0.7599
N2 N 0.2165(4) 0.2500 1.1285(3)
H12 H 0.3203 0.2500 1.0903
H13 H 0.1037 0.2500 1.0572
C5 C 0.2231(4) 0.1479(3) 1.2106(3)
H14 H 0.0977 0.1392 1.2369
H15 H 0.3324 0.1521 1.2975
C6 C 0.2536(6) 0.0514(3) 1.1258(4)
H16 H 0.1462 0.0480 1.0394
H17 H 0.2544 -0.0155 1.1798
H18 H 0.3802 0.0588 1.1030
C5C C 0.2231(4) 0.3521(3) 1.2106(3)
H14C H 0.0977 0.3608 1.2369
H15C H 0.3324 0.3479 1.2975
C6C C 0.2536(6) 0.4486(3) 1.1258(4)
H16C H 0.1462 0.4520 1.0394
H17C H 0.2544 0.5155 1.1798
H18C H 0.3802 0.4412 1.1030
loop_
_geom_bond_atom_site_label_1
_geom_bond_atom_site_label_2
_geom_bond_site_symmetry_1
_geom_bond_site_symmetry_2
O1 C1 1_555 1_555
O2 C1 1_555 1_555
O3 C2 1_555 1_555
O4 C2 1_555 1_555
C1 C2 1_555 1_555
O5 H1 1_555 1_555
H2 O5 1_555 1_555
O6 H3 1_555 1_555
H4 O6 1_555 1_555
N1 H5 1_555 1_555
H6 N1 1_555 1_555
C3 N1 1_555 1_555
H7 C3 1_555 1_555
H8 C3 1_555 1_555
C4 C3 1_555 1_555
H9 C4 1_555 1_555
H10 C4 1_555 1_555
H11 C4 1_555 1_555
N2 H12 1_555 1_555
H13 N2 1_555 1_555
C5 N2 1_555 1_555
H14 C5 1_555 1_555
H15 C5 1_555 1_555
C6 C5 1_555 1_555
H16 C6 1_555 1_555
H17 C6 1_555 1_555
H18 C6 1_555 1_555
C3C N1 1_555 1_555
H7C C3C 1_555 1_555
H8C C3C 1_555 1_555
C4C C3C 1_555 1_555
H9C C4C 1_555 1_555
H10C C4C 1_555 1_555
H11C C4C 1_555 1_555
C5C N2 1_555 1_555
H14C C5C 1_555 1_555
H15C C5C 1_555 1_555
C6C C5C 1_555 1_555
H16C C6C 1_555 1_555
H17C C6C 1_555 1_555
H18C C6C 1_555 1_555

#END
