
#######################################################################
#
#                 Cambridge Crystallographic Data Centre
#                                CCDC 
#
#######################################################################
#
# If this CIF has been generated from an entry in the Cambridge 
# Structural Database, then it will include bibliographic, chemical, 
# crystal, experimental, refinement or atomic coordinate data resulting 
# from the CCDC's data processing and validation procedures.
#
#######################################################################

data_YEYVED
_chemical_name_common            
4,5-bis(Methylthio)-2-(5-nitro-2-furanyl)methylidene-1,3-dithiole
_chemical_formula_moiety         'C10 H9 N1 O3 S4'
_chemical_name_systematic        
2,3-bis(Methylthio)-6-(5-nitro-2-furanyl)-1,4-dithiafulvene
_symmetry_cell_setting           triclinic
_symmetry_space_group_name_H-M   'P -1'
_symmetry_Int_Tables_number      2
_space_group_name_Hall           '-P 1'
loop_
_symmetry_equiv_pos_site_id
_symmetry_equiv_pos_as_xyz
1 x,y,z
2 -x,-y,-z
_cell_length_a                   10.394(2)
_cell_length_b                   15.473(3)
_cell_length_c                   8.593(2)
_cell_angle_alpha                93.39(3)
_cell_angle_beta                 103.73(3)
_cell_angle_gamma                87.19(3)
_cell_volume                     1339.27
_exptl_crystal_colour            'dark green'
_chemical_melting_point          180-181deg.C
_cell_formula_units_Z            4
loop_
_atom_site_label
_atom_site_type_symbol
_atom_site_fract_x
_atom_site_fract_y
_atom_site_fract_z
S1 S 0.9820(1) -0.0862(1) 0.2165(2)
S2 S 0.9100(1) 0.0984(1) 0.1892(2)
S3 S 0.6796(2) 0.0679(1) -0.0969(2)
S4 S 0.7694(2) -0.1405(1) -0.0713(2)
O1 O 1.2211(3) -0.0986(2) 0.4635(4)
O2 O 1.2590(5) -0.2669(3) 0.4645(6)
O3 O 1.4375(5) -0.2550(3) 0.6589(6)
N1 N 1.3421(5) -0.2233(3) 0.5599(7)
C1 C 1.0237(5) 0.0202(3) 0.2861(6)
C2 C 0.8128(5) 0.0268(3) 0.0472(6)
C3 C 0.8459(5) -0.0567(3) 0.0601(6)
C4 C 0.6443(6) -0.1633(4) 0.0243(8)
C5 C 0.6996(6) 0.1825(4) -0.0758(8)
C6 C 1.1316(6) 0.0451(3) 0.3999(7)
C7 C 1.2334(5) -0.0102(3) 0.4849(6)
C8 C 1.3512(6) 0.0079(4) 0.5922(7)
C9 C 1.4142(6) -0.0711(4) 0.6398(8)
C10 C 1.3331(6) -0.1332(4) 0.5587(7)
H1 H 0.5923 -0.2092 -0.0353
H2 H 0.6840 -0.1809 0.1308
H3 H 0.5884 -0.1125 0.0298
H4 H 0.6300 0.2108 -0.1519
H5 H 0.6965 0.2030 0.0309
H6 H 0.7837 0.1951 -0.0955
H13 H 1.1485(40) 0.1037(28) 0.4266(49)
H14 H 1.3891(54) 0.0639(37) 0.6501(68)
H15 H 1.5088(49) -0.0841(30) 0.7275(57)
S5 S 0.6956(2) 0.4153(1) -0.0856(2)
S6 S 0.7153(2) 0.5983(1) 0.0194(2)
S7 S 0.9808(2) 0.5704(1) 0.2538(2)
S8 S 0.9600(2) 0.3653(1) 0.1255(2)
O4 O 0.4503(3) 0.4010(2) -0.3258(4)
O5 O 0.4312(5) 0.2326(2) -0.3673(6)
O6 O 0.2567(5) 0.2453(5) -0.5662(6)
N2 N 0.3474(5) 0.2761(3) -0.4596(6)
C11 C 0.6249(5) 0.5198(3) -0.1116(6)
C12 C 0.8469(5) 0.5293(3) 0.1080(6)
C13 C 0.8367(5) 0.4467(4) 0.0610(7)
C14 C 0.9167(7) 0.3358(4) 0.3023(8)
C15 C 0.9484(6) 0.6846(4) 0.2554(7)
C16 C 0.5151(6) 0.5441(4) -0.2209(7)
C17 C 0.4286(5) 0.4895(3) -0.3338(7)
C18 C 0.3236(6) 0.5079(4) -0.4596(8)
C19 C 0.2746(6) 0.4286(4) -0.5306(8)
C20 C 0.3530(5) 0.3667(4) -0.4483(7)
H7 H 0.9776 0.2909 0.3505
H8 H 0.9213 0.3851 0.3764
H9 H 0.8283 0.3149 0.2756
H10 H 1.0175 0.7130 0.3330
H11 H 0.9444 0.7051 0.1511
H12 H 0.8650 0.6972 0.2832
H16 H 0.4936(39) 0.6046(27) -0.2162(47)
H17 H 0.2889(47) 0.5686(32) -0.4829(56)
H18 H 0.2046(46) 0.4237(28) -0.6208(55)
loop_
_geom_bond_atom_site_label_1
_geom_bond_atom_site_label_2
_geom_bond_site_symmetry_1
_geom_bond_site_symmetry_2
S1 C1 1_555 1_555
S2 C1 1_555 1_555
S3 C2 1_555 1_555
S4 C3 1_555 1_555
O1 C7 1_555 1_555
O2 N1 1_555 1_555
O3 N1 1_555 1_555
N1 C10 1_555 1_555
C1 C6 1_555 1_555
C2 S2 1_555 1_555
C3 S1 1_555 1_555
C4 S4 1_555 1_555
C5 S3 1_555 1_555
C6 C7 1_555 1_555
C7 C8 1_555 1_555
C8 C9 1_555 1_555
C9 C10 1_555 1_555
C10 O1 1_555 1_555
S5 C11 1_555 1_555
S6 C11 1_555 1_555
S7 C12 1_555 1_555
S8 C13 1_555 1_555
O4 C17 1_555 1_555
O5 N2 1_555 1_555
O6 N2 1_555 1_555
N2 C20 1_555 1_555
C11 C16 1_555 1_555
C12 S6 1_555 1_555
C13 S5 1_555 1_555
C14 S8 1_555 1_555
C15 S7 1_555 1_555
C16 C17 1_555 1_555
C17 C18 1_555 1_555
C18 C19 1_555 1_555
C19 C20 1_555 1_555
C20 O4 1_555 1_555
H1 C4 1_555 1_555
H2 C4 1_555 1_555
H3 C4 1_555 1_555
H4 C5 1_555 1_555
H5 C5 1_555 1_555
H6 C5 1_555 1_555
H7 C14 1_555 1_555
H8 C14 1_555 1_555
H9 C14 1_555 1_555
H10 C15 1_555 1_555
H11 C15 1_555 1_555
H12 C15 1_555 1_555
H13 C6 1_555 1_555
H14 C8 1_555 1_555
H15 C9 1_555 1_555
H16 C16 1_555 1_555
H17 C18 1_555 1_555
H18 C19 1_555 1_555
C2 C3 1_555 1_555
C12 C13 1_555 1_555

#END
