
#######################################################################
#
#                 Cambridge Crystallographic Data Centre
#                                CCDC 
#
#######################################################################
#
# If this CIF has been generated from an entry in the Cambridge 
# Structural Database, then it will include bibliographic, chemical, 
# crystal, experimental, refinement or atomic coordinate data resulting 
# from the CCDC's data processing and validation procedures.
#
#######################################################################

data_YEYVUV
_chemical_formula_moiety         'C14 H12 Br1 F2 N1 O2 S1'
_chemical_name_systematic        
1-(4-Bromophenyl)-2,2-difluoro-2-(S-phenylsulfonimidoyl)ethanol
_symmetry_cell_setting           orthorhombic
_symmetry_space_group_name_H-M   'P 21 21 21'
_symmetry_Int_Tables_number      19
_space_group_name_Hall           'P 2ac 2ab'
loop_
_symmetry_equiv_pos_site_id
_symmetry_equiv_pos_as_xyz
1 x,y,z
2 1/2-x,-y,1/2+z
3 -x,1/2+y,1/2-z
4 1/2+x,1/2-y,-z
_cell_length_a                   5.9675(12)
_cell_length_b                   10.996(2)
_cell_length_c                   22.753(5)
_cell_angle_alpha                90
_cell_angle_beta                 90
_cell_angle_gamma                90
_cell_volume                     1493.02
_exptl_crystal_colour            colorless
_exptl_crystal_description       column
_cell_formula_units_Z            4
loop_
_atom_site_label
_atom_site_type_symbol
_atom_site_fract_x
_atom_site_fract_y
_atom_site_fract_z
Br1 Br 0.76484(11) 0.65853(4) 0.83969(2)
S1 S 0.78992(15) 1.19904(7) 1.12233(3)
F1 F 1.0471(4) 1.0589(2) 1.05797(9)
F2 F 0.7593(5) 0.96755(16) 1.09640(8)
N1 N 0.5475(6) 1.2316(3) 1.12874(15)
H1 H 0.472(8) 1.261(4) 1.101(2)
O1 O 0.7607(5) 1.1972(2) 0.98830(10)
H2 H 0.6831 1.2127 0.9595
O2 O 0.9594(5) 1.2867(2) 1.10520(11)
C1 C 0.7158(6) 0.9782(3) 0.97306(13)
C2 C 0.5465(7) 0.8920(4) 0.96909(17)
H3 H 0.4203 0.8997 0.9928
C3 C 0.5614(7) 0.7956(4) 0.93095(17)
H4 H 0.4465 0.7387 0.9284
C4 C 0.7501(8) 0.7853(3) 0.89668(14)
C5 C 0.9226(7) 0.8663(4) 0.90055(16)
H5 H 1.0507 0.8559 0.8778
C6 C 0.9055(7) 0.9643(4) 0.93863(15)
H6 H 1.0213 1.0207 0.9411
C7 C 0.6897(6) 1.0870(3) 1.01334(14)
H7 H 0.5313 1.0947 1.0241
C8 C 0.8258(6) 1.0702(3) 1.06890(14)
C9 C 0.8686(6) 1.1314(3) 1.18954(13)
C10 C 0.7195(8) 1.0564(3) 1.21846(15)
H8 H 0.5766 1.0431 1.2035
C11 C 0.7870(10) 1.0010(4) 1.27032(16)
H9 H 0.6904 0.9488 1.2901
C12 C 0.9970(10) 1.0238(5) 1.29219(18)
H10 H 1.0419 0.9871 1.3271
C13 C 1.1414(8) 1.0999(5) 1.26332(18)
H11 H 1.2820 1.1155 1.2792
C14 C 1.0807(7) 1.1537(4) 1.21084(15)
H12 H 1.1801 1.2035 1.1905
loop_
_geom_bond_atom_site_label_1
_geom_bond_atom_site_label_2
_geom_bond_site_symmetry_1
_geom_bond_site_symmetry_2
Br1 C4 1_555 1_555
S1 N1 1_555 1_555
F1 C8 1_555 1_555
F2 C8 1_555 1_555
N1 H1 1_555 1_555
O1 H2 1_555 1_555
O2 S1 1_555 1_555
C1 C2 1_555 1_555
C2 H3 1_555 1_555
C3 C2 1_555 1_555
H4 C3 1_555 1_555
C4 C3 1_555 1_555
C5 C4 1_555 1_555
H5 C5 1_555 1_555
C6 C1 1_555 1_555
H6 C6 1_555 1_555
C7 O1 1_555 1_555
H7 C7 1_555 1_555
C8 S1 1_555 1_555
C9 S1 1_555 1_555
C10 C9 1_555 1_555
H8 C10 1_555 1_555
C11 C10 1_555 1_555
H9 C11 1_555 1_555
C12 C11 1_555 1_555
H10 C12 1_555 1_555
C13 C12 1_555 1_555
H11 C13 1_555 1_555
C14 C9 1_555 1_555
H12 C14 1_555 1_555
C1 C7 1_555 1_555
C5 C6 1_555 1_555
C7 C8 1_555 1_555
C13 C14 1_555 1_555

#END
