
#######################################################################
#
#                 Cambridge Crystallographic Data Centre
#                                CCDC 
#
#######################################################################
#
# If this CIF has been generated from an entry in the Cambridge 
# Structural Database, then it will include bibliographic, chemical, 
# crystal, experimental, refinement or atomic coordinate data resulting 
# from the CCDC's data processing and validation procedures.
#
#######################################################################

data_YEYWAC
_chemical_formula_moiety         'C15 H15 F2 N1 O2 S1'
_chemical_name_systematic        
1,1-Difluoro-2-phenyl-1-(S-phenylsulfonimidoyl)propan-2-ol
_symmetry_cell_setting           orthorhombic
_symmetry_space_group_name_H-M   'P 21 21 21'
_symmetry_Int_Tables_number      19
_space_group_name_Hall           'P 2ac 2ab'
loop_
_symmetry_equiv_pos_site_id
_symmetry_equiv_pos_as_xyz
1 x,y,z
2 1/2-x,-y,1/2+z
3 -x,1/2+y,1/2-z
4 1/2+x,1/2-y,-z
_cell_length_a                   6.2177(4)
_cell_length_b                   12.0255(7)
_cell_length_c                   19.4130(11)
_cell_angle_alpha                90
_cell_angle_beta                 90
_cell_angle_gamma                90
_cell_volume                     1451.53
_exptl_crystal_colour            colorless
_exptl_crystal_description       prismatic
_cell_formula_units_Z            4
loop_
_atom_site_label
_atom_site_type_symbol
_atom_site_fract_x
_atom_site_fract_y
_atom_site_fract_z
S1 S 0.30772(7) 0.14777(3) 0.18145(2)
N1 N 0.3676(4) 0.26340(14) 0.20433(9)
O1 O 0.4666(3) -0.04172(11) 0.35076(6)
O2 O 0.0896(2) 0.11180(13) 0.17267(7)
F1 F 0.63146(17) 0.07916(12) 0.25147(6)
F2 F 0.4537(2) -0.05186(8) 0.20150(5)
C1 C 0.4322(3) 0.04152(14) 0.23969(8)
C2 C 0.3148(3) 0.01461(13) 0.30859(8)
C3 C 0.1211(3) -0.05933(16) 0.29489(10)
H1 H 0.1687 -0.1295 0.2769
H2 H 0.0282 -0.0239 0.2620
H3 H 0.0441 -0.0713 0.3371
C4 C 0.2610(3) 0.12271(13) 0.34635(8)
C5 C 0.4143(3) 0.17234(15) 0.38775(9)
H4 H 0.5482 0.1390 0.3932
C6 C 0.3697(4) 0.27148(18) 0.42118(12)
H5 H 0.4740 0.3039 0.4491
C7 C 0.1740(4) 0.32232(18) 0.41364(12)
H6 H 0.1458 0.3893 0.4358
C8 C 0.0193(4) 0.27317(19) 0.37292(11)
H7 H -0.1143 0.3069 0.3678
C9 C 0.0620(3) 0.17365(16) 0.33957(9)
H8 H -0.0437 0.1408 0.3125
C10 C 0.4503(3) 0.12672(13) 0.10388(8)
C11 C 0.3542(4) 0.06115(16) 0.05442(9)
H9 H 0.2197 0.0297 0.0622
C12 C 0.4611(5) 0.04307(19) -0.00680(10)
H10 H 0.3982 -0.0004 -0.0409
C13 C 0.6604(4) 0.08925(18) -0.01750(10)
H11 H 0.7321 0.0763 -0.0588
C14 C 0.7546(3) 0.15432(18) 0.03209(10)
H12 H 0.8889 0.1858 0.0241
C15 C 0.6508(3) 0.17319(15) 0.09385(9)
H13 H 0.7146 0.2163 0.1280
H14 H 0.320(4) 0.269(2) 0.2409(9)
H15 H 0.503(4) -0.1000(15) 0.3329(12)
loop_
_geom_bond_atom_site_label_1
_geom_bond_atom_site_label_2
_geom_bond_site_symmetry_1
_geom_bond_site_symmetry_2
S1 N1 1_555 1_555
N1 H14 1_555 1_555
O1 C2 1_555 1_555
O2 S1 1_555 1_555
F1 C1 1_555 1_555
F2 C1 1_555 1_555
C1 S1 1_555 1_555
C2 C1 1_555 1_555
C3 C2 1_555 1_555
H1 C3 1_555 1_555
H2 C3 1_555 1_555
H3 C3 1_555 1_555
C4 C2 1_555 1_555
C5 C4 1_555 1_555
H4 C5 1_555 1_555
C6 C5 1_555 1_555
H5 C6 1_555 1_555
C7 C6 1_555 1_555
H6 C7 1_555 1_555
C8 C7 1_555 1_555
H7 C8 1_555 1_555
C9 C4 1_555 1_555
H8 C9 1_555 1_555
C10 S1 1_555 1_555
C11 C10 1_555 1_555
H9 C11 1_555 1_555
C12 C11 1_555 1_555
H10 C12 1_555 1_555
C13 C12 1_555 1_555
H11 C13 1_555 1_555
C14 C13 1_555 1_555
H12 C14 1_555 1_555
C15 C10 1_555 1_555
H13 C15 1_555 1_555
H15 O1 1_555 1_555
C8 C9 1_555 1_555
C14 C15 1_555 1_555

#END
