
#######################################################################
#
#                 Cambridge Crystallographic Data Centre
#                                CCDC 
#
#######################################################################
#
# If this CIF has been generated from an entry in the Cambridge 
# Structural Database, then it will include bibliographic, chemical, 
# crystal, experimental, refinement or atomic coordinate data resulting 
# from the CCDC's data processing and validation procedures.
#
#######################################################################

data_YEYZAD
_chemical_formula_moiety         'C50 H42 N4 O4 P1 1+,Cl1 1-'
_chemical_name_systematic        
'bis(1,3-Propanediolato)-(tetraphenylporphyrinato)-phosphorus(v) chloride'
_symmetry_cell_setting           orthorhombic
_symmetry_space_group_name_H-M   'P b c a'
_symmetry_Int_Tables_number      61
_space_group_name_Hall           '-P 2ac 2ab'
loop_
_symmetry_equiv_pos_site_id
_symmetry_equiv_pos_as_xyz
1 x,y,z
2 1/2-x,1/2+y,z
3 x,1/2-y,1/2+z
4 1/2-x,-y,1/2+z
5 -x,-y,-z
6 1/2+x,1/2-y,-z
7 -x,1/2+y,1/2-z
8 1/2+x,y,1/2-z
_cell_length_a                   17.244(3)
_cell_length_b                   19.698(4)
_cell_length_c                   24.639(5)
_cell_angle_alpha                90
_cell_angle_beta                 90
_cell_angle_gamma                90
_cell_volume                     8369.19
_cell_formula_units_Z            8
loop_
_atom_site_label
_atom_site_type_symbol
_atom_site_fract_x
_atom_site_fract_y
_atom_site_fract_z
Cl1 Cl -0.1487(1) 1.1940(1) 0.3846(1)
P1 P 0.1885(1) 0.9568(1) 0.3278(1)
O1 O 0.1549(2) 1.0308(2) 0.3470(1)
O2 O 0.2160(2) 0.8817(2) 0.3062(1)
O3 O 0.2768(3) 0.7625(3) 0.1900(2)
O4 O 0.0090(4) 1.1305(3) 0.4170(3)
N1 N 0.2249(3) 0.9989(2) 0.2657(2)
N2 N 0.2816(2) 0.9714(2) 0.3616(2)
N3 N 0.1515(3) 0.9150(2) 0.3900(2)
N4 N 0.0946(2) 0.9415(2) 0.2943(2)
C1 C 0.2819(3) 1.0490(3) 0.2633(2)
C2 C 0.3293(3) 1.0665(3) 0.3065(3)
C3 C 0.3322(3) 1.0234(3) 0.3516(2)
C4 C 0.3976(3) 1.0169(3) 0.3862(2)
C5 C 0.3880(3) 0.9595(3) 0.4151(2)
C6 C 0.3146(3) 0.9320(3) 0.4024(2)
C7 C 0.2753(3) 0.8834(3) 0.4319(2)
C8 C 0.1946(3) 0.8794(3) 0.4286(2)
C9 C 0.1422(4) 0.8528(3) 0.4682(2)
C10 C 0.0706(3) 0.8752(3) 0.4561(2)
C11 C 0.0744(3) 0.9117(3) 0.4063(2)
C12 C 0.0121(3) 0.9306(3) 0.3746(2)
C13 C 0.0226(3) 0.9393(3) 0.3188(2)
C14 C -0.0353(4) 0.9331(3) 0.2790(3)
C15 C 0.0003(4) 0.9274(3) 0.2298(2)
C16 C 0.0814(3) 0.9352(3) 0.2390(2)
C17 C 0.1354(3) 0.9510(3) 0.1994(2)
C18 C 0.2014(4) 0.9867(3) 0.2128(2)
C19 C 0.2475(4) 1.0277(3) 0.1778(3)
C20 C 0.2923(4) 1.0683(3) 0.2083(3)
C21 C 0.3842(4) 1.1249(3) 0.3040(3)
C22 C 0.4449(6) 1.1273(5) 0.2702(3)
C23 C 0.4963(7) 1.1816(7) 0.2718(4)
C24 C 0.4829(8) 1.2352(6) 0.3050(4)
C25 C 0.4234(6) 1.2339(4) 0.3380(4)
C26 C 0.3734(4) 1.1788(4) 0.3386(3)
C27 C 0.3201(4) 0.8452(3) 0.4737(3)
C28 C 0.3816(4) 0.8052(3) 0.4567(3)
C29 C 0.4279(4) 0.7726(3) 0.4935(4)
C30 C 0.4140(5) 0.7811(4) 0.5483(4)
C31 C 0.3538(5) 0.8196(4) 0.5657(3)
C32 C 0.3060(4) 0.8521(3) 0.5289(3)
C33 C -0.0676(3) 0.9299(3) 0.3988(2)
C34 C -0.0865(4) 0.9798(3) 0.4353(3)
C35 C -0.1589(4) 0.9781(4) 0.4599(3)
C36 C -0.2097(4) 0.9267(4) 0.4503(3)
C37 C -0.1899(4) 0.8764(4) 0.4140(3)
C38 C -0.1188(4) 0.8782(3) 0.3889(3)
C39 C 0.1149(3) 0.9392(3) 0.1416(2)
C40 C 0.1016(3) 0.9931(3) 0.1063(3)
C41 C 0.0840(4) 0.9801(5) 0.0528(3)
C42 C 0.0775(4) 0.9149(5) 0.0337(3)
C43 C 0.0888(4) 0.8611(4) 0.0684(3)
C44 C 0.1062(3) 0.8735(4) 0.1221(3)
C45 C 0.1576(4) 1.0602(3) 0.3995(3)
C46 C 0.1380(4) 1.1351(3) 0.3936(3)
C47 C 0.0583(5) 1.1497(4) 0.3753(3)
C48 C 0.2881(3) 0.8661(3) 0.2796(3)
C49 C 0.3012(4) 0.7913(3) 0.2802(3)
C50 C 0.2541(5) 0.7510(4) 0.2428(3)
H1 H 0.2482 0.7388 0.1691
H2 H -0.0373 1.1386 0.4072
H3 H 0.4408 1.0475 0.3884
H4 H 0.4247 0.9407 0.4402
H5 H 0.1557 0.8239 0.4982
H6 H 0.0248 0.8679 0.4774
H7 H -0.0902 0.9328 0.2853
H8 H -0.0245 0.9199 0.1955
H9 H 0.2467 1.0265 0.1388
H10 H 0.3253 1.1040 0.1953
H11 H 0.4530 1.0912 0.2446
H12 H 0.5418 1.1809 0.2494
H13 H 0.5166 1.2740 0.3042
H14 H 0.4143 1.2713 0.3621
H15 H 0.3306 1.1783 0.3635
H16 H 0.3919 0.8004 0.4186
H17 H 0.4695 0.7441 0.4813
H18 H 0.4474 0.7595 0.5743
H19 H 0.3445 0.8245 0.6039
H20 H 0.2633 0.8792 0.5415
H21 H -0.0502 1.0153 0.4436
H22 H -0.1732 1.0140 0.4843
H23 H -0.2589 0.9256 0.4686
H24 H -0.2256 0.8402 0.4063
H25 H -0.1047 0.8428 0.3640
H26 H 0.1048 1.0390 0.1192
H27 H 0.0761 1.0175 0.0285
H28 H 0.0650 0.9069 -0.0037
H29 H 0.0846 0.8154 0.0553
H30 H 0.1124 0.8359 0.1466
H31 H 0.2085 1.0551 0.4148
H32 H 0.1209 1.0383 0.4231
H33 H 0.1736 1.1550 0.3682
H34 H 0.1460 1.1569 0.4280
H35 H 0.0525 1.1972 0.3678
H36 H 0.0467 1.1246 0.3429
H37 H 0.3300 0.8884 0.2980
H38 H 0.2868 0.8823 0.2428
H39 H 0.2924 0.7752 0.3165
H40 H 0.3546 0.7828 0.2717
H41 H 0.2592 0.7037 0.2513
H42 H 0.2007 0.7635 0.2470
loop_
_geom_bond_atom_site_label_1
_geom_bond_atom_site_label_2
_geom_bond_site_symmetry_1
_geom_bond_site_symmetry_2
P1 O1 1_555 1_555
O1 C45 1_555 1_555
O2 P1 1_555 1_555
O3 C50 1_555 1_555
O4 C47 1_555 1_555
N1 P1 1_555 1_555
N2 P1 1_555 1_555
N3 P1 1_555 1_555
N4 P1 1_555 1_555
C1 N1 1_555 1_555
C2 C1 1_555 1_555
C3 N2 1_555 1_555
C4 C3 1_555 1_555
C5 C4 1_555 1_555
C6 N2 1_555 1_555
C7 C6 1_555 1_555
C8 N3 1_555 1_555
C9 C8 1_555 1_555
C10 C9 1_555 1_555
C11 N3 1_555 1_555
C12 C11 1_555 1_555
C13 N4 1_555 1_555
C14 C13 1_555 1_555
C15 C14 1_555 1_555
C16 N4 1_555 1_555
C17 C16 1_555 1_555
C18 N1 1_555 1_555
C19 C18 1_555 1_555
C20 C1 1_555 1_555
C21 C2 1_555 1_555
C22 C21 1_555 1_555
C23 C22 1_555 1_555
C24 C23 1_555 1_555
C25 C24 1_555 1_555
C26 C21 1_555 1_555
C27 C7 1_555 1_555
C28 C27 1_555 1_555
C29 C28 1_555 1_555
C30 C29 1_555 1_555
C31 C30 1_555 1_555
C32 C27 1_555 1_555
C33 C12 1_555 1_555
C34 C33 1_555 1_555
C35 C34 1_555 1_555
C36 C35 1_555 1_555
C37 C36 1_555 1_555
C38 C33 1_555 1_555
C39 C17 1_555 1_555
C40 C39 1_555 1_555
C41 C40 1_555 1_555
C42 C41 1_555 1_555
C43 C42 1_555 1_555
C44 C39 1_555 1_555
C45 C46 1_555 1_555
C46 C47 1_555 1_555
C47 H35 1_555 1_555
C48 O2 1_555 1_555
C49 C48 1_555 1_555
C50 C49 1_555 1_555
H1 O3 1_555 1_555
H2 O4 1_555 1_555
H3 C4 1_555 1_555
H4 C5 1_555 1_555
H5 C9 1_555 1_555
H6 C10 1_555 1_555
H7 C14 1_555 1_555
H8 C15 1_555 1_555
H9 C19 1_555 1_555
H10 C20 1_555 1_555
H11 C22 1_555 1_555
H12 C23 1_555 1_555
H13 C24 1_555 1_555
H14 C25 1_555 1_555
H15 C26 1_555 1_555
H16 C28 1_555 1_555
H17 C29 1_555 1_555
H18 C30 1_555 1_555
H19 C31 1_555 1_555
H20 C32 1_555 1_555
H21 C34 1_555 1_555
H22 C35 1_555 1_555
H23 C36 1_555 1_555
H24 C37 1_555 1_555
H25 C38 1_555 1_555
H26 C40 1_555 1_555
H27 C41 1_555 1_555
H28 C42 1_555 1_555
H29 C43 1_555 1_555
H30 C44 1_555 1_555
H31 C45 1_555 1_555
H32 C45 1_555 1_555
H33 C46 1_555 1_555
H34 C46 1_555 1_555
H36 C47 1_555 1_555
H37 C48 1_555 1_555
H38 C48 1_555 1_555
H39 C49 1_555 1_555
H40 C49 1_555 1_555
H41 C50 1_555 1_555
H42 C50 1_555 1_555
C2 C3 1_555 1_555
C5 C6 1_555 1_555
C7 C8 1_555 1_555
C10 C11 1_555 1_555
C12 C13 1_555 1_555
C15 C16 1_555 1_555
C17 C18 1_555 1_555
C19 C20 1_555 1_555
C25 C26 1_555 1_555
C31 C32 1_555 1_555
C37 C38 1_555 1_555
C43 C44 1_555 1_555

#END
