
#######################################################################
#
#                 Cambridge Crystallographic Data Centre
#                                CCDC 
#
#######################################################################
#
# If this CIF has been generated from an entry in the Cambridge 
# Structural Database, then it will include bibliographic, chemical, 
# crystal, experimental, refinement or atomic coordinate data resulting 
# from the CCDC's data processing and validation procedures.
#
#######################################################################

data_YEZGUH
_chemical_formula_moiety         'C24 H17 O1 P1 S1'
_chemical_name_systematic        
'Dibenzo[b,d]thiophen-4-yl(diphenyl)phosphine oxide'
_symmetry_cell_setting           triclinic
_symmetry_space_group_name_H-M   'P -1'
_symmetry_Int_Tables_number      2
_space_group_name_Hall           '-P 1'
loop_
_symmetry_equiv_pos_site_id
_symmetry_equiv_pos_as_xyz
1 x,y,z
2 -x,-y,-z
_cell_length_a                   9.7107(19)
_cell_length_b                   10.184(2)
_cell_length_c                   10.296(2)
_cell_angle_alpha                84.96(3)
_cell_angle_beta                 88.30(3)
_cell_angle_gamma                68.13(3)
_cell_volume                     941.272
_cell_formula_units_Z            2
loop_
_atom_site_label
_atom_site_type_symbol
_atom_site_fract_x
_atom_site_fract_y
_atom_site_fract_z
S1 S 0.91419(6) 0.44021(5) 0.85157(6)
P1 P 0.55677(6) 0.61467(5) 0.78012(5)
O1 O 0.57209(17) 0.66445(16) 0.90754(14)
C1 C 0.3666(2) 0.6588(2) 0.73409(19)
C2 C 0.3106(3) 0.7170(3) 0.6109(2)
H1 H 0.3728 0.7345 0.5471
C3 C 0.1624(3) 0.7492(3) 0.5826(3)
H2 H 0.1258 0.7876 0.4997
C4 C 0.0696(3) 0.7248(3) 0.6760(3)
H3 H -0.0297 0.7461 0.6564
C5 C 0.1236(3) 0.6683(3) 0.7997(3)
H4 H 0.0605 0.6524 0.8635
C6 C 0.2710(2) 0.6355(2) 0.8283(2)
H5 H 0.3068 0.5974 0.9116
C7 C 0.6386(2) 0.6882(2) 0.6469(2)
C8 C 0.6284(3) 0.8270(2) 0.6477(2)
H6 H 0.5842 0.8789 0.7179
C9 C 0.6831(3) 0.8892(3) 0.5453(3)
H7 H 0.6751 0.9831 0.5462
C10 C 0.7492(3) 0.8133(3) 0.4426(3)
H8 H 0.7848 0.8560 0.3729
C11 C 0.7633(3) 0.6750(3) 0.4418(2)
H9 H 0.8106 0.6228 0.3727
C12 C 0.7075(3) 0.6129(3) 0.5437(2)
H10 H 0.7165 0.5188 0.5425
C13 C 0.6451(2) 0.4241(2) 0.77834(19)
C14 C 0.5694(2) 0.3389(2) 0.7504(2)
H11 H 0.4694 0.3809 0.7281
C15 C 0.6389(3) 0.1916(2) 0.7546(2)
H12 H 0.5850 0.1369 0.7357
C16 C 0.7868(3) 0.1267(2) 0.7868(2)
H13 H 0.8328 0.0284 0.7891
C17 C 0.8676(2) 0.2080(2) 0.81568(19)
C18 C 0.7961(2) 0.3561(2) 0.81127(19)
C19 C 1.0620(2) 0.2769(2) 0.8766(2)
C20 C 1.0223(2) 0.1625(2) 0.85392(19)
C21 C 1.1297(3) 0.0246(2) 0.8702(2)
H14 H 1.1060 -0.0533 0.8554
C22 C 1.2710(3) 0.0060(3) 0.9085(2)
H15 H 1.3434 -0.0849 0.9182
C23 C 1.3063(3) 0.1215(3) 0.9327(2)
H16 H 1.4017 0.1062 0.9605
C24 C 1.2040(2) 0.2579(3) 0.9166(2)
H17 H 1.2289 0.3350 0.9319
loop_
_geom_bond_atom_site_label_1
_geom_bond_atom_site_label_2
_geom_bond_site_symmetry_1
_geom_bond_site_symmetry_2
S1 C18 1_555 1_555
P1 O1 1_555 1_555
C1 P1 1_555 1_555
C2 C1 1_555 1_555
H1 C2 1_555 1_555
C3 C2 1_555 1_555
H2 C3 1_555 1_555
C4 C3 1_555 1_555
H3 C4 1_555 1_555
C5 C4 1_555 1_555
H4 C5 1_555 1_555
C6 C1 1_555 1_555
H5 C6 1_555 1_555
C7 P1 1_555 1_555
C8 C7 1_555 1_555
H6 C8 1_555 1_555
C9 C8 1_555 1_555
H7 C9 1_555 1_555
C10 C9 1_555 1_555
H8 C10 1_555 1_555
C11 C10 1_555 1_555
H9 C11 1_555 1_555
C12 C7 1_555 1_555
H10 C12 1_555 1_555
C13 P1 1_555 1_555
C14 C13 1_555 1_555
H11 C14 1_555 1_555
C15 C14 1_555 1_555
H12 C15 1_555 1_555
C16 C15 1_555 1_555
H13 C16 1_555 1_555
C17 C16 1_555 1_555
C18 C13 1_555 1_555
C19 S1 1_555 1_555
C20 C17 1_555 1_555
C21 C20 1_555 1_555
H14 C21 1_555 1_555
C22 C21 1_555 1_555
H15 C22 1_555 1_555
C23 C22 1_555 1_555
H16 C23 1_555 1_555
C24 C19 1_555 1_555
H17 C24 1_555 1_555
C5 C6 1_555 1_555
C11 C12 1_555 1_555
C17 C18 1_555 1_555
C19 C20 1_555 1_555
C23 C24 1_555 1_555

#END
