
#######################################################################
#
#                 Cambridge Crystallographic Data Centre
#                                CCDC 
#
#######################################################################
#
# If this CIF has been generated from an entry in the Cambridge 
# Structural Database, then it will include bibliographic, chemical, 
# crystal, experimental, refinement or atomic coordinate data resulting 
# from the CCDC's data processing and validation procedures.
#
#######################################################################

data_YEZHAO
_chemical_formula_moiety         'C206 H222,2(C4 H10 O1)'
_chemical_name_systematic        
"5,5,9,9,16,16,20,20-octakis(4-n-Octlyphenyl)-7,7,11,11,18,18,22,22-octaphenyl-5,7,9,11,16,18,20,22-octahydrobisindeno[2',1':5,6]-s-indaceno[2,1-a:2',1'-g]-s-indacene diethyl ether solvate"
_symmetry_cell_setting           monoclinic
_symmetry_space_group_name_H-M   'P 21/n'
_symmetry_Int_Tables_number      14
_space_group_name_Hall           '-P 2yn'
loop_
_symmetry_equiv_pos_site_id
_symmetry_equiv_pos_as_xyz
1 x,y,z
2 1/2-x,1/2+y,1/2-z
3 -x,-y,-z
4 1/2+x,1/2-y,1/2+z
_cell_length_a                   14.9058(3)
_cell_length_b                   15.0480(3)
_cell_length_c                   38.4984(7)
_cell_angle_alpha                90
_cell_angle_beta                 93.6286(8)
_cell_angle_gamma                90
_cell_volume                     8617.98
_cell_formula_units_Z            2
_exptl_crystal_recrystallization_method 'diethyl ether/n-hexane'
loop_
_atom_site_label
_atom_site_type_symbol
_atom_site_fract_x
_atom_site_fract_y
_atom_site_fract_z
C1 C 0.55296(19) 0.06668(19) 0.51754(8)
H1 H 0.5874 0.1102 0.5292
C2 C 0.5245(2) 0.07688(18) 0.48294(8)
C3 C 0.5413(2) 0.15480(18) 0.45801(7)
C4 C 0.48691(19) 0.12243(19) 0.42568(8)
C5 C 0.4619(2) 0.15520(19) 0.39093(8)
C6 C 0.4805(2) 0.23476(19) 0.37429(8)
H2 H 0.5167 0.2780 0.3853
C7 C 0.4433(2) 0.24717(19) 0.34086(8)
C8 C 0.4578(2) 0.32628(18) 0.31629(8)
C9 C 0.4005(2) 0.29512(19) 0.28441(8)
C10 C 0.3810(2) 0.3238(2) 0.24872(8)
C11 C 0.4077(2) 0.3981(2) 0.23036(8)
H3 H 0.4432 0.4419 0.2413
C12 C 0.3800(2) 0.4053(2) 0.19522(9)
H4 H 0.3973 0.4545 0.1826
C13 C 0.3270(2) 0.3400(2) 0.17881(9)
H5 H 0.3089 0.3461 0.1554
C14 C 0.3005(2) 0.2655(2) 0.19711(8)
H6 H 0.2654 0.2216 0.1859
C15 C 0.3268(2) 0.2577(2) 0.23181(8)
C16 C 0.3076(2) 0.18221(18) 0.25770(7)
C17 C 0.3616(2) 0.2159(2) 0.28965(8)
C18 C 0.38739(19) 0.18206(19) 0.32440(8)
C19 C 0.36906(19) 0.10276(19) 0.34091(8)
H7 H 0.3320 0.0602 0.3300
C20 C 0.4073(2) 0.08883(19) 0.37404(8)
C21 C 0.3997(2) 0.00713(19) 0.39777(7)
C22 C 0.45101(19) 0.04144(18) 0.43027(8)
C23 C 0.47127(19) 0.01053(19) 0.46553(8)
C24 C 0.5035(2) 0.2430(2) 0.47057(8)
C25 C 0.4343(3) 0.2452(2) 0.49307(10)
H8 H 0.4138 0.1924 0.5023
C26 C 0.3958(3) 0.3241(3) 0.50193(11)
H9 H 0.3502 0.3243 0.5174
C27 C 0.4238(3) 0.4025(3) 0.48826(12)
H10 H 0.3968 0.4557 0.4942
C28 C 0.4924(3) 0.4026(2) 0.46561(10)
H11 H 0.5117 0.4557 0.4562
C29 C 0.5318(2) 0.3233(2) 0.45711(8)
H12 H 0.5783 0.3235 0.4421
C30 C 0.6420(2) 0.16052(19) 0.45235(8)
C31 C 0.7017(2) 0.1904(2) 0.47919(9)
H13 H 0.6796 0.2098 0.4999
C32 C 0.7932(3) 0.1914(2) 0.47538(10)
H14 H 0.8320 0.2104 0.4938
C33 C 0.8278(3) 0.1646(2) 0.44472(10)
H15 H 0.8896 0.1654 0.4424
C34 C 0.7695(2) 0.1366(2) 0.41748(10)
H16 H 0.7917 0.1194 0.3965
C35 C 0.6775(2) 0.1343(2) 0.42176(9)
H17 H 0.6388 0.1144 0.4035
C36 C 0.4233(2) 0.41119(19) 0.33285(8)
C37 C 0.4747(2) 0.4553(2) 0.35874(8)
H18 H 0.5323 0.4348 0.3651
C38 C 0.4419(3) 0.5294(2) 0.37535(9)
H19 H 0.4785 0.5583 0.3923
C39 C 0.3559(3) 0.5613(2) 0.36722(9)
C40 C 0.3046(2) 0.5167(2) 0.34186(9)
H20 H 0.2465 0.5364 0.3360
C41 C 0.3372(2) 0.4428(2) 0.32474(8)
H21 H 0.3007 0.4144 0.3077
C42 C 0.3224(3) 0.6442(2) 0.38483(9)
H22 H 0.3624 0.6928 0.3800
H23 H 0.2636 0.6588 0.3740
C43 C 0.3147(5) 0.6404(3) 0.42209(16)
H24 H 0.2950 0.6987 0.4292
H25 H 0.3752 0.6325 0.4325
C44 C 0.2568(5) 0.5743(4) 0.43891(17)
H26 H 0.2000 0.5718 0.4252
H27 H 0.2850 0.5166 0.4370
C45 C 0.2364(4) 0.5863(3) 0.47513(15)
H28 H 0.2937 0.5923 0.4884
H29 H 0.2063 0.6432 0.4765
C46 C 0.1842(4) 0.5240(3) 0.49376(14)
H30 H 0.2103 0.4655 0.4910
H31 H 0.1242 0.5225 0.4825
C47 C 0.1752(3) 0.5386(3) 0.53165(12)
H32 H 0.1212 0.5088 0.5384
H33 H 0.1676 0.6017 0.5357
C48 C 0.2556(5) 0.5052(5) 0.55504(18)
H34 H 0.2518 0.4408 0.5550
H35 H 0.3092 0.5204 0.5433
C49 C 0.2711(4) 0.5301(4) 0.58871(15)
H36 H 0.2678 0.5937 0.5904
H37 H 0.3298 0.5105 0.5971
H38 H 0.2266 0.5039 0.6025
C50 C 0.5568(2) 0.3319(2) 0.30743(8)
C51 C 0.5967(2) 0.4110(2) 0.29784(8)
H39 H 0.5623 0.4625 0.2958
C52 C 0.6869(3) 0.4142(2) 0.29122(9)
H40 H 0.7118 0.4679 0.2848
C53 C 0.7409(2) 0.3399(2) 0.29395(9)
C54 C 0.7009(2) 0.2605(2) 0.30186(9)
H41 H 0.7349 0.2087 0.3028
C55 C 0.6106(2) 0.2570(2) 0.30850(8)
H42 H 0.5854 0.2025 0.3138
C56 C 0.8469(5) 0.3437(6) 0.2940(2)
H43 H 0.8681 0.2854 0.2875
H44 H 0.8626 0.3849 0.2760
C57 C 0.8966(5) 0.3700(5) 0.32707(19)
H45 H 0.8778 0.4296 0.3329
H46 H 0.9601 0.3729 0.3229
C58 C 0.8865(4) 0.3123(4) 0.35806(15)
H47 H 0.9029 0.2517 0.3528
H48 H 0.8244 0.3127 0.3642
C59 C 0.9466(6) 0.3469(8) 0.3880(3)
H49 H 0.9261 0.3226 0.4095
H50 H 0.9399 0.4110 0.3890
C60 C 1.0463(9) 0.3252(9) 0.3862(3)
H51 H 1.0700 0.3566 0.3668
H52 H 1.0534 0.2619 0.3824
C61 C 1.0994(4) 0.3523(5) 0.42039(19)
H53 H 1.1077 0.4162 0.4200
H54 H 1.0625 0.3389 0.4396
C62 C 1.1904(4) 0.3100(4) 0.42809(17)
H55 H 1.2184 0.3374 0.4488
H56 H 1.1815 0.2476 0.4332
C63 C 1.2533(5) 0.3167(5) 0.3998(2)
H57 H 1.2347 0.2765 0.3813
H58 H 1.3129 0.3016 0.4087
H59 H 1.2529 0.3764 0.3909
C64 C 0.2066(2) 0.17498(19) 0.26338(8)
C65 C 0.1475(2) 0.14309(19) 0.23675(8)
H60 H 0.1694 0.1283 0.2154
C66 C 0.0574(2) 0.1332(2) 0.24147(10)
H61 H 0.0191 0.1131 0.2231
C67 C 0.0231(2) 0.1526(2) 0.27301(10)
H62 H -0.0377 0.1451 0.2762
C68 C 0.0806(2) 0.1834(2) 0.29972(9)
H63 H 0.0585 0.1965 0.3212
C69 C 0.1712(2) 0.1951(2) 0.29481(9)
H64 H 0.2089 0.2168 0.3130
C70 C 0.3455(2) 0.0915(2) 0.24719(8)
C71 C 0.3089(2) 0.0129(2) 0.25830(8)
H65 H 0.2577 0.0145 0.2709
C72 C 0.3471(2) -0.0677(2) 0.25096(9)
H66 H 0.3216 -0.1201 0.2586
C73 C 0.4224(3) -0.0712(2) 0.23248(9)
H67 H 0.4483 -0.1256 0.2276
C74 C 0.4593(2) 0.0063(3) 0.22121(10)
H68 H 0.5103 0.0042 0.2085
C75 C 0.4217(2) 0.0870(2) 0.22852(9)
H69 H 0.4477 0.1390 0.2208
C76 C 0.3022(2) -0.0128(2) 0.40602(7)
C77 C 0.2422(2) 0.0564(2) 0.40931(8)
H70 H 0.2594 0.1137 0.4037
C78 C 0.1574(2) 0.0427(2) 0.42075(9)
H71 H 0.1186 0.0906 0.4225
C79 C 0.1291(2) -0.0418(3) 0.42973(9)
C80 C 0.1885(2) -0.1115(2) 0.42567(8)
H72 H 0.1706 -0.1691 0.4307
C81 C 0.2735(2) -0.0975(2) 0.41440(8)
H73 H 0.3121 -0.1455 0.4124
C82 C 0.0366(2) -0.0568(3) 0.44221(9)
H74 H 0.0157 -0.0020 0.4522
H75 H 0.0403 -0.1013 0.4605
C83 C -0.0325(2) -0.0870(2) 0.41340(10)
H76 H -0.0122 -0.1425 0.4037
H77 H -0.0892 -0.0984 0.4236
C84 C -0.0479(2) -0.0202(2) 0.38415(9)
H78 H 0.0060 -0.0164 0.3714
H79 H -0.0582 0.0379 0.3941
C85 C -0.1271(2) -0.0438(2) 0.35900(9)
H80 H -0.1176 -0.1029 0.3499
H81 H -0.1811 -0.0456 0.3718
C86 C -0.1424(2) 0.0197(2) 0.32879(10)
H82 H -0.0912 0.0163 0.3145
H83 H -0.1449 0.0797 0.3379
C87 C -0.2275(3) 0.0023(2) 0.30583(9)
H84 H -0.2285 0.0426 0.2861
H85 H -0.2249 -0.0577 0.2968
C88 C -0.3149(2) 0.0130(2) 0.32364(9)
H86 H -0.3181 -0.0329 0.3412
H87 H -0.3142 0.0700 0.3354
C89 C -0.3983(2) 0.0077(2) 0.29907(10)
H88 H -0.3966 0.0540 0.2820
H89 H -0.4508 0.0147 0.3120
H90 H -0.4003 -0.0491 0.2877
C90 C 0.4486(2) -0.07248(19) 0.38253(8)
C91 C 0.4139(2) -0.1150(2) 0.35257(8)
H91 H 0.3594 -0.0960 0.3420
C92 C 0.4587(2) -0.1851(2) 0.33808(9)
H92 H 0.4335 -0.2125 0.3181
C93 C 0.5414(2) -0.2154(2) 0.35289(8)
C94 C 0.5751(2) -0.1726(2) 0.38260(8)
H93 H 0.6295 -0.1914 0.3932
C95 C 0.5303(2) -0.1023(2) 0.39709(8)
H94 H 0.5556 -0.0748 0.4170
C96 C 0.5931(2) -0.2883(2) 0.33629(9)
H95 H 0.5528 -0.3374 0.3304
H96 H 0.6397 -0.3098 0.3529
C97 C 0.6361(2) -0.2571(2) 0.30341(9)
H97 H 0.6732 -0.2055 0.3091
H98 H 0.5889 -0.2387 0.2864
C98 C 0.6940(3) -0.3276(2) 0.28689(10)
H99 H 0.6578 -0.3806 0.2828
H100 H 0.7099 -0.3058 0.2644
C99 C 0.7785(3) -0.3533(2) 0.30743(12)
H101 H 0.8105 -0.3956 0.2938
H102 H 0.7619 -0.3837 0.3283
C100 C 0.8419(3) -0.2798(3) 0.31811(13)
H103 H 0.8108 -0.2381 0.3323
H104 H 0.8579 -0.2485 0.2974
C101 C 0.9275(3) -0.3089(3) 0.33815(13)
H105 H 0.9555 -0.3542 0.3245
H106 H 0.9680 -0.2584 0.3397
C102 C 0.9207(3) -0.3442(3) 0.37368(15)
H107 H 0.8835 -0.3971 0.3726
H108 H 0.8918 -0.3004 0.3877
C103 C 1.0136(4) -0.3672(4) 0.39119(15)
H109 H 1.0378 -0.4179 0.3799
H110 H 1.0076 -0.3806 0.4153
H111 H 1.0534 -0.3175 0.3893
C1B C 0.44704(19) -0.06668(19) 0.48246(8)
H1B H 0.4126 -0.1102 0.4708
C2B C 0.4755(2) -0.07688(18) 0.51706(8)
C3B C 0.4587(2) -0.15480(18) 0.54199(7)
C4B C 0.51309(19) -0.12243(19) 0.57432(8)
C5B C 0.5381(2) -0.15520(19) 0.60907(8)
C6B C 0.5195(2) -0.23476(19) 0.62571(8)
H2B H 0.4833 -0.2780 0.6147
C7B C 0.5567(2) -0.24717(19) 0.65914(8)
C8B C 0.5422(2) -0.32628(18) 0.68371(8)
C9B C 0.5995(2) -0.29512(19) 0.71559(8)
C10B C 0.6190(2) -0.3238(2) 0.75128(8)
C11B C 0.5923(2) -0.3981(2) 0.76964(8)
H3B H 0.5568 -0.4419 0.7587
C12B C 0.6200(2) -0.4053(2) 0.80478(9)
H4B H 0.6027 -0.4545 0.8174
C13B C 0.6730(2) -0.3400(2) 0.82119(9)
H5B H 0.6911 -0.3461 0.8446
C14B C 0.6995(2) -0.2655(2) 0.80289(8)
H6B H 0.7346 -0.2216 0.8141
C15B C 0.6732(2) -0.2577(2) 0.76819(8)
C16B C 0.6924(2) -0.18221(18) 0.74230(7)
C17B C 0.6384(2) -0.2159(2) 0.71035(8)
C18B C 0.61261(19) -0.18206(19) 0.67560(8)
C19B C 0.63094(19) -0.10276(19) 0.65909(8)
H7B H 0.6680 -0.0602 0.6700
C20B C 0.5927(2) -0.08883(19) 0.62596(8)
C21B C 0.6003(2) -0.00713(19) 0.60223(7)
C22B C 0.54899(19) -0.04144(18) 0.56973(8)
C23B C 0.52873(19) -0.01053(19) 0.53447(8)
C24B C 0.4965(2) -0.2430(2) 0.52943(8)
C25B C 0.5657(3) -0.2452(2) 0.50693(10)
H8B H 0.5862 -0.1924 0.4977
C26B C 0.6042(3) -0.3241(3) 0.49807(11)
H9B H 0.6498 -0.3243 0.4826
C27B C 0.5762(3) -0.4025(3) 0.51174(12)
H10B H 0.6032 -0.4557 0.5058
C28B C 0.5076(3) -0.4026(2) 0.53439(10)
H11B H 0.4883 -0.4557 0.5438
C29B C 0.4682(2) -0.3233(2) 0.54289(8)
H12B H 0.4217 -0.3235 0.5579
C30B C 0.3580(2) -0.16052(19) 0.54765(8)
C31B C 0.2983(2) -0.1904(2) 0.52081(9)
H13B H 0.3204 -0.2098 0.5001
C32B C 0.2068(3) -0.1914(2) 0.52462(10)
H14B H 0.1680 -0.2104 0.5062
C33B C 0.1722(3) -0.1646(2) 0.55528(10)
H15B H 0.1104 -0.1654 0.5576
C34B C 0.2305(2) -0.1366(2) 0.58252(10)
H16B H 0.2083 -0.1194 0.6035
C35B C 0.3225(2) -0.1343(2) 0.57824(9)
H17B H 0.3612 -0.1144 0.5965
C36B C 0.5767(2) -0.41119(19) 0.66715(8)
C37B C 0.5253(2) -0.4553(2) 0.64126(8)
H18B H 0.4677 -0.4348 0.6349
C38B C 0.5581(3) -0.5294(2) 0.62465(9)
H19B H 0.5215 -0.5583 0.6077
C39B C 0.6441(3) -0.5613(2) 0.63278(9)
C40B C 0.6954(2) -0.5167(2) 0.65814(9)
H20B H 0.7535 -0.5364 0.6640
C41B C 0.6628(2) -0.4428(2) 0.67526(8)
H21B H 0.6993 -0.4144 0.6923
C42B C 0.6776(3) -0.6442(2) 0.61517(9)
H22B H 0.6376 -0.6928 0.6200
H23B H 0.7364 -0.6588 0.6260
C43B C 0.6853(5) -0.6404(3) 0.57791(16)
H24B H 0.7050 -0.6987 0.5708
H25B H 0.6248 -0.6325 0.5675
C44B C 0.7432(5) -0.5743(4) 0.56109(17)
H26B H 0.8000 -0.5718 0.5748
H27B H 0.7150 -0.5166 0.5630
C45B C 0.7636(4) -0.5863(3) 0.52487(15)
H28B H 0.7063 -0.5923 0.5116
H29B H 0.7937 -0.6432 0.5235
C46B C 0.8158(4) -0.5240(3) 0.50624(14)
H30B H 0.7897 -0.4655 0.5090
H31B H 0.8758 -0.5225 0.5175
C47B C 0.8248(3) -0.5386(3) 0.46835(12)
H32B H 0.8788 -0.5088 0.4616
H33B H 0.8324 -0.6017 0.4643
C48B C 0.7444(5) -0.5052(5) 0.44496(18)
H34B H 0.7482 -0.4408 0.4450
H35B H 0.6908 -0.5204 0.4567
C49B C 0.7289(4) -0.5301(4) 0.41129(15)
H36B H 0.7322 -0.5937 0.4096
H37B H 0.6702 -0.5105 0.4029
H38B H 0.7734 -0.5039 0.3975
C50B C 0.4432(2) -0.3319(2) 0.69257(8)
C51B C 0.4033(2) -0.4110(2) 0.70216(8)
H39B H 0.4377 -0.4625 0.7042
C52B C 0.3131(3) -0.4142(2) 0.70878(9)
H40B H 0.2882 -0.4679 0.7152
C53B C 0.2591(2) -0.3399(2) 0.70605(9)
C54B C 0.2991(2) -0.2605(2) 0.69814(9)
H41B H 0.2651 -0.2087 0.6972
C55B C 0.3894(2) -0.2570(2) 0.69150(8)
H42B H 0.4146 -0.2025 0.6862
C56B C 0.1531(5) -0.3437(6) 0.7060(2)
H43B H 0.1319 -0.2854 0.7125
H44B H 0.1374 -0.3849 0.7240
C57B C 0.1034(5) -0.3700(5) 0.67293(19)
H45B H 0.1222 -0.4296 0.6671
H46B H 0.0399 -0.3729 0.6771
C58B C 0.1135(4) -0.3123(4) 0.64194(15)
H47B H 0.0971 -0.2517 0.6472
H48B H 0.1756 -0.3127 0.6358
C59B C 0.0534(6) -0.3469(8) 0.6120(3)
H49B H 0.0739 -0.3226 0.5905
H50B H 0.0601 -0.4110 0.6110
C60B C -0.0463(9) -0.3252(9) 0.6138(3)
H51B H -0.0700 -0.3566 0.6332
H52B H -0.0534 -0.2619 0.6176
C61B C -0.0994(4) -0.3523(5) 0.57961(19)
H53B H -0.1077 -0.4162 0.5800
H54B H -0.0625 -0.3389 0.5604
C62B C -0.1904(4) -0.3100(4) 0.57191(17)
H55B H -0.2184 -0.3374 0.5512
H56B H -0.1815 -0.2476 0.5668
C63B C -0.2533(5) -0.3167(5) 0.6002(2)
H57B H -0.2347 -0.2765 0.6187
H58B H -0.3129 -0.3016 0.5913
H59B H -0.2529 -0.3764 0.6091
C64B C 0.7934(2) -0.17498(19) 0.73662(8)
C65B C 0.8525(2) -0.14309(19) 0.76325(8)
H60B H 0.8306 -0.1283 0.7846
C66B C 0.9426(2) -0.1332(2) 0.75853(10)
H61B H 0.9809 -0.1131 0.7769
C67B C 0.9769(2) -0.1526(2) 0.72699(10)
H62B H 1.0377 -0.1451 0.7238
C68B C 0.9194(2) -0.1834(2) 0.70028(9)
H63B H 0.9415 -0.1965 0.6788
C69B C 0.8288(2) -0.1951(2) 0.70519(9)
H64B H 0.7911 -0.2168 0.6870
C70B C 0.6545(2) -0.0915(2) 0.75281(8)
C71B C 0.6911(2) -0.0129(2) 0.74170(8)
H65B H 0.7423 -0.0145 0.7291
C72B C 0.6529(2) 0.0677(2) 0.74904(9)
H66B H 0.6784 0.1201 0.7414
C73B C 0.5776(3) 0.0712(2) 0.76752(9)
H67B H 0.5517 0.1256 0.7724
C74B C 0.5407(2) -0.0063(3) 0.77879(10)
H68B H 0.4897 -0.0042 0.7915
C75B C 0.5783(2) -0.0870(2) 0.77148(9)
H69B H 0.5523 -0.1390 0.7792
C76B C 0.6978(2) 0.0128(2) 0.59398(7)
C77B C 0.7578(2) -0.0564(2) 0.59069(8)
H70B H 0.7406 -0.1137 0.5963
C78B C 0.8426(2) -0.0427(2) 0.57925(9)
H71B H 0.8814 -0.0906 0.5775
C79B C 0.8709(2) 0.0418(3) 0.57027(9)
C80B C 0.8115(2) 0.1115(2) 0.57433(8)
H72B H 0.8294 0.1691 0.5693
C81B C 0.7265(2) 0.0975(2) 0.58560(8)
H73B H 0.6879 0.1455 0.5876
C82B C 0.9634(2) 0.0568(3) 0.55779(9)
H74B H 0.9843 0.0020 0.5478
H75B H 0.9597 0.1013 0.5395
C83B C 1.0325(2) 0.0870(2) 0.58660(10)
H76B H 1.0122 0.1425 0.5963
H77B H 1.0892 0.0984 0.5764
C84B C 1.0479(2) 0.0202(2) 0.61585(9)
H78B H 0.9940 0.0164 0.6286
H79B H 1.0582 -0.0379 0.6059
C85B C 1.1271(2) 0.0438(2) 0.64100(9)
H80B H 1.1176 0.1029 0.6501
H81B H 1.1811 0.0456 0.6282
C86B C 1.1424(2) -0.0197(2) 0.67121(10)
H82B H 1.0912 -0.0163 0.6855
H83B H 1.1449 -0.0797 0.6621
C87B C 1.2275(3) -0.0023(2) 0.69417(9)
H84B H 1.2285 -0.0426 0.7139
H85B H 1.2249 0.0577 0.7032
C88B C 1.3149(2) -0.0130(2) 0.67636(9)
H86B H 1.3181 0.0329 0.6588
H87B H 1.3142 -0.0700 0.6646
C89B C 1.3983(2) -0.0077(2) 0.70093(10)
H88B H 1.3966 -0.0540 0.7180
H89B H 1.4508 -0.0147 0.6880
H90B H 1.4003 0.0491 0.7123
C90B C 0.5514(2) 0.07248(19) 0.61747(8)
C91B C 0.5861(2) 0.1150(2) 0.64743(8)
H91B H 0.6406 0.0960 0.6580
C92B C 0.5413(2) 0.1851(2) 0.66192(9)
H92B H 0.5665 0.2125 0.6819
C93B C 0.4586(2) 0.2154(2) 0.64711(8)
C94B C 0.4249(2) 0.1726(2) 0.61740(8)
H93B H 0.3705 0.1914 0.6068
C95B C 0.4697(2) 0.1023(2) 0.60291(8)
H94B H 0.4444 0.0748 0.5830
C96B C 0.4069(2) 0.2883(2) 0.66371(9)
H95B H 0.4472 0.3374 0.6696
H96B H 0.3603 0.3098 0.6471
C97B C 0.3639(2) 0.2571(2) 0.69659(9)
H97B H 0.3268 0.2055 0.6909
H98B H 0.4111 0.2387 0.7136
C98B C 0.3060(3) 0.3276(2) 0.71311(10)
H99B H 0.3422 0.3806 0.7172
H100B H 0.2901 0.3058 0.7356
C99B C 0.2215(3) 0.3533(2) 0.69257(12)
H101B H 0.1895 0.3956 0.7062
H102B H 0.2381 0.3837 0.6717
C100B C 0.1581(3) 0.2798(3) 0.68189(13)
H103B H 0.1892 0.2381 0.6677
H104B H 0.1421 0.2485 0.7026
C101B C 0.0725(3) 0.3089(3) 0.66185(13)
H105B H 0.0445 0.3542 0.6755
H106B H 0.0320 0.2584 0.6603
C102B C 0.0793(3) 0.3442(3) 0.62632(15)
H107B H 0.1165 0.3971 0.6274
H108B H 0.1082 0.3004 0.6123
C103B C -0.0136(4) 0.3672(4) 0.60881(15)
H109B H -0.0378 0.4179 0.6201
H110B H -0.0076 0.3806 0.5847
H111B H -0.0534 0.3175 0.6107
C104? C 0.0420(5) 0.2980(4) 0.5171(2)
O1? O 0.1547(5) 0.1911(5) 0.52087(19)
O2? O 0.0446(3) 0.1771(3) 0.47973(12)
O3? O 0.1532(6) 0.1770(6) 0.5098(2)
C105? C 0.1963(6) 0.1092(6) 0.5097(2)
C106? C 0.2691(5) 0.0831(6) 0.5345(2)
O4? O 0.2674(4) 0.1870(4) 0.54805(17)
C107? C 0.0800(6) 0.2158(6) 0.5037(2)
C108? C 0.2263(7) 0.1458(8) 0.5252(3)
C109? C 0.2478(7) 0.0488(7) 0.5138(3)
C110? C 0.1266(7) 0.2677(8) 0.5196(3)
C111? C 0.0317(10) 0.2728(10) 0.4975(4)
C112? C 1.0363(11) 0.3046(11) 0.3956(5)
C113? C 0.8925(6) 0.3218(6) 0.3159(3)
C114? C 1.2691(7) 0.3082(7) 0.4294(3)
C115? C 0.8809(7) 0.3785(7) 0.3480(3)
C116? C 1.1111(10) 0.3276(8) 0.4060(4)
C117? C 1.2067(8) 0.3299(7) 0.3955(3)
C118? C 0.8291(7) 0.3498(7) 0.2845(3)
C119? C 1.0419(10) 0.3670(10) 0.3712(4)
C120? C 0.9425(13) 0.3297(12) 0.3830(5)
C121? C 0.2460(11) 0.5416(10) 0.5077(5)
C122? C 0.2471(10) 0.6291(9) 0.4083(4)
C123? C 0.1970(13) 0.4884(12) 0.5651(5)
C124? C 0.1794(15) 0.5713(14) 0.4635(6)
C125? C 0.2942(15) 0.5881(17) 0.4451(7)
H112? H 0.2447 0.0642 0.5558
H113? H 0.3022 0.0351 0.5250
H114? H 0.3084 0.1328 0.5391
H115? H 0.2195 0.1179 0.4870
H116? H 0.1516 0.0624 0.5078
H117? H 0.0801 0.3196 0.5363
H118? H 0.0377 0.3419 0.4990
H119? H -0.0168 0.2861 0.5249
loop_
_geom_bond_atom_site_label_1
_geom_bond_atom_site_label_2
_geom_bond_site_symmetry_1
_geom_bond_site_symmetry_2
C1 H1 1_555 1_555
C2 C1 1_555 1_555
C3 C2 1_555 1_555
C4 C3 1_555 1_555
C5 C4 1_555 1_555
C6 C5 1_555 1_555
H2 C6 1_555 1_555
C7 C6 1_555 1_555
C8 C7 1_555 1_555
C9 C8 1_555 1_555
C10 C9 1_555 1_555
C11 C10 1_555 1_555
H3 C11 1_555 1_555
C12 C11 1_555 1_555
H4 C12 1_555 1_555
C13 C12 1_555 1_555
H5 C13 1_555 1_555
C14 C13 1_555 1_555
H6 C14 1_555 1_555
C15 C10 1_555 1_555
C16 C15 1_555 1_555
C17 C9 1_555 1_555
C18 C7 1_555 1_555
C19 C18 1_555 1_555
H7 C19 1_555 1_555
C20 C5 1_555 1_555
C21 C20 1_555 1_555
C22 C4 1_555 1_555
C23 C2 1_555 1_555
C24 C3 1_555 1_555
C25 C24 1_555 1_555
H8 C25 1_555 1_555
C26 C25 1_555 1_555
H9 C26 1_555 1_555
C27 C26 1_555 1_555
H10 C27 1_555 1_555
C28 C27 1_555 1_555
H11 C28 1_555 1_555
C29 C24 1_555 1_555
H12 C29 1_555 1_555
C30 C3 1_555 1_555
C31 C30 1_555 1_555
H13 C31 1_555 1_555
C32 C31 1_555 1_555
H14 C32 1_555 1_555
C33 C32 1_555 1_555
H15 C33 1_555 1_555
C34 C33 1_555 1_555
H16 C34 1_555 1_555
C35 C30 1_555 1_555
H17 C35 1_555 1_555
C36 C8 1_555 1_555
C37 C36 1_555 1_555
H18 C37 1_555 1_555
C38 C37 1_555 1_555
H19 C38 1_555 1_555
C39 C38 1_555 1_555
C40 C39 1_555 1_555
H20 C40 1_555 1_555
C41 C36 1_555 1_555
H21 C41 1_555 1_555
C42 C39 1_555 1_555
H22 C42 1_555 1_555
H23 C42 1_555 1_555
C43 C42 1_555 1_555
H24 C43 1_555 1_555
H25 C43 1_555 1_555
C44 C43 1_555 1_555
H26 C44 1_555 1_555
H27 C44 1_555 1_555
C45 C44 1_555 1_555
H28 C45 1_555 1_555
H29 C45 1_555 1_555
C46 C45 1_555 1_555
H30 C46 1_555 1_555
H31 C46 1_555 1_555
C47 C46 1_555 1_555
H32 C47 1_555 1_555
H33 C47 1_555 1_555
C48 C47 1_555 1_555
H34 C48 1_555 1_555
H35 C48 1_555 1_555
C49 C48 1_555 1_555
H36 C49 1_555 1_555
H37 C49 1_555 1_555
H38 C49 1_555 1_555
C50 C8 1_555 1_555
C51 C50 1_555 1_555
H39 C51 1_555 1_555
C52 C51 1_555 1_555
H40 C52 1_555 1_555
C53 C52 1_555 1_555
C54 C53 1_555 1_555
H41 C54 1_555 1_555
C55 C50 1_555 1_555
H42 C55 1_555 1_555
C56 C53 1_555 1_555
H43 C56 1_555 1_555
H44 C56 1_555 1_555
C57 C56 1_555 1_555
H45 C57 1_555 1_555
H46 C57 1_555 1_555
C58 C57 1_555 1_555
H47 C58 1_555 1_555
H48 C58 1_555 1_555
C59 C58 1_555 1_555
H49 C59 1_555 1_555
H50 C59 1_555 1_555
C60 C59 1_555 1_555
H51 C60 1_555 1_555
H52 C60 1_555 1_555
C61 C60 1_555 1_555
H53 C61 1_555 1_555
H54 C61 1_555 1_555
C62 C61 1_555 1_555
H55 C62 1_555 1_555
H56 C62 1_555 1_555
C63 C62 1_555 1_555
H57 C63 1_555 1_555
H58 C63 1_555 1_555
H59 C63 1_555 1_555
C64 C16 1_555 1_555
C65 C64 1_555 1_555
H60 C65 1_555 1_555
C66 C65 1_555 1_555
H61 C66 1_555 1_555
C67 C66 1_555 1_555
H62 C67 1_555 1_555
C68 C67 1_555 1_555
H63 C68 1_555 1_555
C69 C64 1_555 1_555
H64 C69 1_555 1_555
C70 C16 1_555 1_555
C71 C70 1_555 1_555
H65 C71 1_555 1_555
C72 C71 1_555 1_555
H66 C72 1_555 1_555
C73 C72 1_555 1_555
H67 C73 1_555 1_555
C74 C73 1_555 1_555
H68 C74 1_555 1_555
C75 C70 1_555 1_555
H69 C75 1_555 1_555
C76 C21 1_555 1_555
C77 C76 1_555 1_555
H70 C77 1_555 1_555
C78 C77 1_555 1_555
H71 C78 1_555 1_555
C79 C78 1_555 1_555
C80 C79 1_555 1_555
H72 C80 1_555 1_555
C81 C76 1_555 1_555
H73 C81 1_555 1_555
C82 C79 1_555 1_555
H74 C82 1_555 1_555
H75 C82 1_555 1_555
C83 C82 1_555 1_555
H76 C83 1_555 1_555
H77 C83 1_555 1_555
C84 C83 1_555 1_555
H78 C84 1_555 1_555
H79 C84 1_555 1_555
C85 C84 1_555 1_555
H80 C85 1_555 1_555
H81 C85 1_555 1_555
C86 C85 1_555 1_555
H82 C86 1_555 1_555
H83 C86 1_555 1_555
C87 C86 1_555 1_555
H84 C87 1_555 1_555
H85 C87 1_555 1_555
C88 C87 1_555 1_555
H86 C88 1_555 1_555
H87 C88 1_555 1_555
C89 C88 1_555 1_555
H88 C89 1_555 1_555
H89 C89 1_555 1_555
H90 C89 1_555 1_555
C90 C21 1_555 1_555
C91 C90 1_555 1_555
H91 C91 1_555 1_555
C92 C91 1_555 1_555
H92 C92 1_555 1_555
C93 C92 1_555 1_555
C94 C93 1_555 1_555
H93 C94 1_555 1_555
C95 C90 1_555 1_555
H94 C95 1_555 1_555
C96 C93 1_555 1_555
H95 C96 1_555 1_555
H96 C96 1_555 1_555
C97 C96 1_555 1_555
H97 C97 1_555 1_555
H98 C97 1_555 1_555
C98 C97 1_555 1_555
H99 C98 1_555 1_555
H100 C98 1_555 1_555
C99 C98 1_555 1_555
H101 C99 1_555 1_555
H102 C99 1_555 1_555
C100 C99 1_555 1_555
H103 C100 1_555 1_555
H104 C100 1_555 1_555
C101 C100 1_555 1_555
H105 C101 1_555 1_555
H106 C101 1_555 1_555
C102 C101 1_555 1_555
H107 C102 1_555 1_555
H108 C102 1_555 1_555
C103 C102 1_555 1_555
H109 C103 1_555 1_555
H110 C103 1_555 1_555
H111 C103 1_555 1_555
C1B C23 1_555 1_555
H1B C1B 1_555 1_555
C2B C1B 1_555 1_555
C3B C2B 1_555 1_555
C4B C3B 1_555 1_555
C5B C4B 1_555 1_555
C6B C5B 1_555 1_555
H2B C6B 1_555 1_555
C7B C6B 1_555 1_555
C8B C7B 1_555 1_555
C9B C8B 1_555 1_555
C10B C9B 1_555 1_555
C11B C10B 1_555 1_555
H3B C11B 1_555 1_555
C12B C11B 1_555 1_555
H4B C12B 1_555 1_555
C13B C12B 1_555 1_555
H5B C13B 1_555 1_555
C14B C13B 1_555 1_555
H6B C14B 1_555 1_555
C15B C10B 1_555 1_555
C16B C15B 1_555 1_555
C17B C9B 1_555 1_555
C18B C7B 1_555 1_555
C19B C18B 1_555 1_555
H7B C19B 1_555 1_555
C20B C5B 1_555 1_555
C21B C20B 1_555 1_555
C22B C4B 1_555 1_555
C23B C1 1_555 1_555
C24B C3B 1_555 1_555
C25B C24B 1_555 1_555
H8B C25B 1_555 1_555
C26B C25B 1_555 1_555
H9B C26B 1_555 1_555
C27B C26B 1_555 1_555
H10B C27B 1_555 1_555
C28B C27B 1_555 1_555
H11B C28B 1_555 1_555
C29B C24B 1_555 1_555
H12B C29B 1_555 1_555
C30B C3B 1_555 1_555
C31B C30B 1_555 1_555
H13B C31B 1_555 1_555
C32B C31B 1_555 1_555
H14B C32B 1_555 1_555
C33B C32B 1_555 1_555
H15B C33B 1_555 1_555
C34B C33B 1_555 1_555
H16B C34B 1_555 1_555
C35B C30B 1_555 1_555
H17B C35B 1_555 1_555
C36B C8B 1_555 1_555
C37B C36B 1_555 1_555
H18B C37B 1_555 1_555
C38B C37B 1_555 1_555
H19B C38B 1_555 1_555
C39B C38B 1_555 1_555
C40B C39B 1_555 1_555
H20B C40B 1_555 1_555
C41B C36B 1_555 1_555
H21B C41B 1_555 1_555
C42B C39B 1_555 1_555
H22B C42B 1_555 1_555
H23B C42B 1_555 1_555
C43B C42B 1_555 1_555
H24B C43B 1_555 1_555
H25B C43B 1_555 1_555
C44B C43B 1_555 1_555
H26B C44B 1_555 1_555
H27B C44B 1_555 1_555
C45B C44B 1_555 1_555
H28B C45B 1_555 1_555
H29B C45B 1_555 1_555
C46B C45B 1_555 1_555
H30B C46B 1_555 1_555
H31B C46B 1_555 1_555
C47B C46B 1_555 1_555
H32B C47B 1_555 1_555
H33B C47B 1_555 1_555
C48B C47B 1_555 1_555
H34B C48B 1_555 1_555
H35B C48B 1_555 1_555
C49B C48B 1_555 1_555
H36B C49B 1_555 1_555
H37B C49B 1_555 1_555
H38B C49B 1_555 1_555
C50B C8B 1_555 1_555
C51B C50B 1_555 1_555
H39B C51B 1_555 1_555
C52B C51B 1_555 1_555
H40B C52B 1_555 1_555
C53B C52B 1_555 1_555
C54B C53B 1_555 1_555
H41B C54B 1_555 1_555
C55B C50B 1_555 1_555
H42B C55B 1_555 1_555
C56B C53B 1_555 1_555
H43B C56B 1_555 1_555
H44B C56B 1_555 1_555
C57B C56B 1_555 1_555
H45B C57B 1_555 1_555
H46B C57B 1_555 1_555
C58B C57B 1_555 1_555
H47B C58B 1_555 1_555
H48B C58B 1_555 1_555
C59B C58B 1_555 1_555
H49B C59B 1_555 1_555
H50B C59B 1_555 1_555
C60B C59B 1_555 1_555
H51B C60B 1_555 1_555
H52B C60B 1_555 1_555
C61B C60B 1_555 1_555
H53B C61B 1_555 1_555
H54B C61B 1_555 1_555
C62B C61B 1_555 1_555
H55B C62B 1_555 1_555
H56B C62B 1_555 1_555
C63B C62B 1_555 1_555
H57B C63B 1_555 1_555
H58B C63B 1_555 1_555
H59B C63B 1_555 1_555
C64B C16B 1_555 1_555
C65B C64B 1_555 1_555
H60B C65B 1_555 1_555
C66B C65B 1_555 1_555
H61B C66B 1_555 1_555
C67B C66B 1_555 1_555
H62B C67B 1_555 1_555
C68B C67B 1_555 1_555
H63B C68B 1_555 1_555
C69B C64B 1_555 1_555
H64B C69B 1_555 1_555
C70B C16B 1_555 1_555
C71B C70B 1_555 1_555
H65B C71B 1_555 1_555
C72B C71B 1_555 1_555
H66B C72B 1_555 1_555
C73B C72B 1_555 1_555
H67B C73B 1_555 1_555
C74B C73B 1_555 1_555
H68B C74B 1_555 1_555
C75B C70B 1_555 1_555
H69B C75B 1_555 1_555
C76B C21B 1_555 1_555
C77B C76B 1_555 1_555
H70B C77B 1_555 1_555
C78B C77B 1_555 1_555
H71B C78B 1_555 1_555
C79B C78B 1_555 1_555
C80B C79B 1_555 1_555
H72B C80B 1_555 1_555
C81B C76B 1_555 1_555
H73B C81B 1_555 1_555
C82B C79B 1_555 1_555
H74B C82B 1_555 1_555
H75B C82B 1_555 1_555
C83B C82B 1_555 1_555
H76B C83B 1_555 1_555
H77B C83B 1_555 1_555
C84B C83B 1_555 1_555
H78B C84B 1_555 1_555
H79B C84B 1_555 1_555
C85B C84B 1_555 1_555
H80B C85B 1_555 1_555
H81B C85B 1_555 1_555
C86B C85B 1_555 1_555
H82B C86B 1_555 1_555
H83B C86B 1_555 1_555
C87B C86B 1_555 1_555
H84B C87B 1_555 1_555
H85B C87B 1_555 1_555
C88B C87B 1_555 1_555
H86B C88B 1_555 1_555
H87B C88B 1_555 1_555
C89B C88B 1_555 1_555
H88B C89B 1_555 1_555
H89B C89B 1_555 1_555
H90B C89B 1_555 1_555
C90B C21B 1_555 1_555
C91B C90B 1_555 1_555
H91B C91B 1_555 1_555
C92B C91B 1_555 1_555
H92B C92B 1_555 1_555
C93B C92B 1_555 1_555
C94B C93B 1_555 1_555
H93B C94B 1_555 1_555
C95B C90B 1_555 1_555
H94B C95B 1_555 1_555
C96B C93B 1_555 1_555
H95B C96B 1_555 1_555
H96B C96B 1_555 1_555
C97B C96B 1_555 1_555
H97B C97B 1_555 1_555
H98B C97B 1_555 1_555
C98B C97B 1_555 1_555
H99B C98B 1_555 1_555
H100B C98B 1_555 1_555
C99B C98B 1_555 1_555
H101B C99B 1_555 1_555
H102B C99B 1_555 1_555
C100B C99B 1_555 1_555
H103B C100B 1_555 1_555
H104B C100B 1_555 1_555
C101B C100B 1_555 1_555
H105B C101B 1_555 1_555
H106B C101B 1_555 1_555
C102B C101B 1_555 1_555
H107B C102B 1_555 1_555
H108B C102B 1_555 1_555
C103B C102B 1_555 1_555
H109B C103B 1_555 1_555
H110B C103B 1_555 1_555
H111B C103B 1_555 1_555
C14 C15 1_555 1_555
C16 C17 1_555 1_555
C17 C18 1_555 1_555
C19 C20 1_555 1_555
C21 C22 1_555 1_555
C22 C23 1_555 1_555
C28 C29 1_555 1_555
C34 C35 1_555 1_555
C40 C41 1_555 1_555
C54 C55 1_555 1_555
C68 C69 1_555 1_555
C74 C75 1_555 1_555
C80 C81 1_555 1_555
C94 C95 1_555 1_555
C2B C23B 1_555 1_555
C14B C15B 1_555 1_555
C16B C17B 1_555 1_555
C17B C18B 1_555 1_555
C19B C20B 1_555 1_555
C21B C22B 1_555 1_555
C22B C23B 1_555 1_555
C28B C29B 1_555 1_555
C34B C35B 1_555 1_555
C40B C41B 1_555 1_555
C54B C55B 1_555 1_555
C68B C69B 1_555 1_555
C74B C75B 1_555 1_555
C80B C81B 1_555 1_555
C94B C95B 1_555 1_555

#END
