
#######################################################################
#
#                 Cambridge Crystallographic Data Centre
#                                CCDC 
#
#######################################################################
#
# If this CIF has been generated from an entry in the Cambridge 
# Structural Database, then it will include bibliographic, chemical, 
# crystal, experimental, refinement or atomic coordinate data resulting 
# from the CCDC's data processing and validation procedures.
#
#######################################################################

data_YEZJIX
_chemical_formula_moiety         'C22 H29 N1 O4 S1'
_chemical_name_systematic        
2-(Benzylsulfonyl)-7-isopropoxy-8-methoxy-1,2,3,4,5,6-hexahydro-2-benzazocine
_chemical_properties_biological  'no cytotoxic activity'
_symmetry_cell_setting           triclinic
_symmetry_space_group_name_H-M   'P -1'
_symmetry_Int_Tables_number      2
_space_group_name_Hall           '-P 1'
loop_
_symmetry_equiv_pos_site_id
_symmetry_equiv_pos_as_xyz
1 x,y,z
2 -x,-y,-z
_cell_length_a                   10.4070(3)
_cell_length_b                   12.4260(3)
_cell_length_c                   16.5460(4)
_cell_angle_alpha                99.2740(10)
_cell_angle_beta                 95.2530(10)
_cell_angle_gamma                90.3040(10)
_cell_volume                     2102.41
_exptl_crystal_colour            colorless
_exptl_crystal_description       plate
_chemical_melting_point          141-147deg.C
_cell_formula_units_Z            4
_exptl_crystal_recrystallization_method 'ethyl acetate/hexane'
loop_
_atom_site_label
_atom_site_type_symbol
_atom_site_fract_x
_atom_site_fract_y
_atom_site_fract_z
C1 C 0.7638(2) 0.32043(17) 0.52499(13)
H1 H 0.6731 0.2939 0.5207
H2 H 0.7691 0.3727 0.4861
C2 C 0.80048(19) 0.37902(16) 0.61134(13)
C3 C 0.75177(19) 0.34539(16) 0.68008(13)
C4 C 0.6680(2) 0.24440(17) 0.67167(14)
H3 H 0.6155 0.2344 0.6179
H4 H 0.6083 0.2537 0.7154
C5 C 0.7483(2) 0.14286(17) 0.67788(14)
H5 H 0.7852 0.1467 0.7356
H6 H 0.6900 0.0779 0.6645
C6 C 0.8583(2) 0.12671(17) 0.62217(14)
H7 H 0.9014 0.0576 0.6295
H8 H 0.9226 0.1867 0.6403
C7 C 0.8173(2) 0.12326(17) 0.53039(14)
H9 H 0.8614 0.0625 0.4984
H10 H 0.7232 0.1082 0.5201
C8 C 0.8845(2) 0.46823(16) 0.62279(13)
H11 H 0.9156 0.4918 0.5762
C9 C 0.9242(2) 0.52371(16) 0.70037(13)
H12 H 0.9820 0.5845 0.7067
C10 C 0.87944(19) 0.49052(16) 0.76895(13)
C11 C 0.79073(19) 0.40295(16) 0.75824(13)
C12 C 1.0194(3) 0.6168(2) 0.85879(17)
H13 H 1.0943 0.5858 0.8321
H14 H 1.0440 0.6399 0.9177
H15 H 0.9895 0.6798 0.8341
C13 C 0.6684(2) 0.43917(19) 0.87523(14)
H16 H 0.7141 0.5114 0.8922
C14 C 0.5399(2) 0.4548(2) 0.82836(17)
H17 H 0.5545 0.4809 0.7771
H18 H 0.4900 0.5085 0.8620
H19 H 0.4919 0.3851 0.8157
C15 C 0.6538(3) 0.3872(3) 0.95043(17)
H20 H 0.6083 0.3167 0.9340
H21 H 0.6043 0.4350 0.9886
H22 H 0.7393 0.3761 0.9775
C16 C 0.7447(2) 0.1726(2) 0.34241(13)
H23 H 0.7172 0.0997 0.3520
H24 H 0.6761 0.2243 0.3588
C17 C 0.7563(2) 0.16771(19) 0.25228(14)
C18 C 0.6925(3) 0.2424(2) 0.21055(16)
H25 H 0.6448 0.2984 0.2397
C19 C 0.6973(3) 0.2363(3) 0.12672(17)
H26 H 0.6523 0.2877 0.0986
C20 C 0.7669(3) 0.1565(3) 0.08403(17)
H27 H 0.7702 0.1525 0.0264
C21 C 0.8319(3) 0.0820(3) 0.12524(18)
H28 H 0.8812 0.0273 0.0960
C22 C 0.8257(3) 0.0867(2) 0.20887(16)
H29 H 0.8691 0.0343 0.2366
N1 N 0.84785(17) 0.22637(14) 0.50074(10)
O1 O 0.91814(16) 0.53623(13) 0.84790(10)
O2 O 0.74842(15) 0.36565(12) 0.82550(9)
O3 O 0.92947(16) 0.31870(13) 0.39331(10)
O4 O 0.97876(15) 0.12611(13) 0.39614(10)
S1 S 0.88888(5) 0.21322(4) 0.40674(3)
C23 C 0.2679(2) 0.18651(17) 0.52633(13)
H30 H 0.2742 0.1145 0.4915
H31 H 0.1770 0.2095 0.5198
C24 C 0.3033(2) 0.17516(16) 0.61532(13)
C25 C 0.25360(19) 0.24360(16) 0.68039(13)
C26 C 0.1708(2) 0.33930(17) 0.66604(14)
H32 H 0.1109 0.3535 0.7096
H33 H 0.1183 0.3210 0.6125
C27 C 0.2521(2) 0.44243(17) 0.66627(14)
H34 H 0.1943 0.4995 0.6493
H35 H 0.2890 0.4690 0.7233
C28 C 0.3617(2) 0.42880(17) 0.61083(14)
H36 H 0.4256 0.3792 0.6323
H37 H 0.4052 0.5006 0.6140
C29 C 0.3208(2) 0.38374(17) 0.52021(14)
H38 H 0.2266 0.3926 0.5092
H39 H 0.3647 0.4270 0.4852
C30 C 0.3859(2) 0.09280(16) 0.63246(14)
H40 H 0.4181 0.0454 0.5882
C31 C 0.4224(2) 0.07796(16) 0.71241(14)
H41 H 0.4792 0.0211 0.7227
C32 C 0.3759(2) 0.14616(17) 0.77720(13)
C33 C 0.2894(2) 0.22845(17) 0.76091(13)
C34 C 0.5038(3) 0.0641(2) 0.87670(18)
H42 H 0.4699 -0.0094 0.8540
H43 H 0.5224 0.0703 0.9364
H44 H 0.5832 0.0775 0.8520
C35 C 0.1680(3) 0.2573(2) 0.87912(15)
H45 H 0.2136 0.1955 0.9004
C36 C 0.1576(5) 0.3490(4) 0.9488(2)
H46 H 0.2442 0.3752 0.9721
H47 H 0.1116 0.3232 0.9914
H48 H 0.1100 0.4087 0.9286
C37 C 0.0396(3) 0.2171(3) 0.8356(2)
H49 H -0.0067 0.2781 0.8164
H50 H -0.0112 0.1860 0.8735
H51 H 0.0529 0.1611 0.7883
C38 C 0.2434(2) 0.2394(2) 0.33811(14)
H52 H 0.1754 0.1953 0.3564
H53 H 0.2155 0.3161 0.3453
C39 C 0.2550(2) 0.20051(19) 0.24848(14)
C40 C 0.1954(3) 0.1036(2) 0.20931(16)
H54 H 0.1494 0.0607 0.2401
C41 C 0.2017(3) 0.0685(2) 0.12669(18)
H55 H 0.1594 0.0023 0.1007
C42 C 0.2691(3) 0.1291(3) 0.08152(17)
H56 H 0.2745 0.1045 0.0245
C43 C 0.3288(3) 0.2257(3) 0.11932(18)
H57 H 0.3750 0.2680 0.0882
C44 C 0.3218(3) 0.2618(2) 0.20281(17)
H58 H 0.3630 0.3287 0.2285
N2 N 0.35175(17) 0.26674(13) 0.49695(11)
O5 O 0.41038(16) 0.14239(14) 0.85881(10)
O6 O 0.24729(16) 0.30135(13) 0.82434(10)
O7 O 0.42794(16) 0.11982(13) 0.39321(10)
O8 O 0.47879(15) 0.31142(13) 0.38654(10)
S2 S 0.38896(5) 0.23128(4) 0.40236(3)
loop_
_geom_bond_atom_site_label_1
_geom_bond_atom_site_label_2
_geom_bond_site_symmetry_1
_geom_bond_site_symmetry_2
C1 H1 1_555 1_555
H2 C1 1_555 1_555
C2 C1 1_555 1_555
C3 C2 1_555 1_555
C4 C3 1_555 1_555
H3 C4 1_555 1_555
H4 C4 1_555 1_555
C5 C4 1_555 1_555
H5 C5 1_555 1_555
H6 C5 1_555 1_555
C6 C5 1_555 1_555
H7 C6 1_555 1_555
H8 C6 1_555 1_555
C7 C6 1_555 1_555
H9 C7 1_555 1_555
H10 C7 1_555 1_555
C8 C2 1_555 1_555
H11 C8 1_555 1_555
C9 C8 1_555 1_555
H12 C9 1_555 1_555
C10 C9 1_555 1_555
C11 C3 1_555 1_555
C12 H13 1_555 1_555
H14 C12 1_555 1_555
H15 C12 1_555 1_555
C13 H16 1_555 1_555
C14 C13 1_555 1_555
H17 C14 1_555 1_555
H18 C14 1_555 1_555
H19 C14 1_555 1_555
C15 C13 1_555 1_555
H20 C15 1_555 1_555
H21 C15 1_555 1_555
H22 C15 1_555 1_555
C16 H23 1_555 1_555
H24 C16 1_555 1_555
C17 C16 1_555 1_555
C18 C17 1_555 1_555
H25 C18 1_555 1_555
C19 C18 1_555 1_555
H26 C19 1_555 1_555
C20 C19 1_555 1_555
H27 C20 1_555 1_555
C21 C20 1_555 1_555
H28 C21 1_555 1_555
C22 C17 1_555 1_555
H29 C22 1_555 1_555
N1 C1 1_555 1_555
O1 C10 1_555 1_555
O2 C11 1_555 1_555
O3 S1 1_555 1_555
O4 S1 1_555 1_555
S1 C16 1_555 1_555
C23 H30 1_555 1_555
H31 C23 1_555 1_555
C24 C23 1_555 1_555
C25 C24 1_555 1_555
C26 C25 1_555 1_555
H32 C26 1_555 1_555
H33 C26 1_555 1_555
C27 C26 1_555 1_555
H34 C27 1_555 1_555
H35 C27 1_555 1_555
C28 C27 1_555 1_555
H36 C28 1_555 1_555
H37 C28 1_555 1_555
C29 C28 1_555 1_555
H38 C29 1_555 1_555
H39 C29 1_555 1_555
C30 C24 1_555 1_555
H40 C30 1_555 1_555
C31 C30 1_555 1_555
H41 C31 1_555 1_555
C32 C31 1_555 1_555
C33 C25 1_555 1_555
C34 H42 1_555 1_555
H43 C34 1_555 1_555
H44 C34 1_555 1_555
C35 H45 1_555 1_555
C36 C35 1_555 1_555
H46 C36 1_555 1_555
H47 C36 1_555 1_555
H48 C36 1_555 1_555
C37 C35 1_555 1_555
H49 C37 1_555 1_555
H50 C37 1_555 1_555
H51 C37 1_555 1_555
C38 H52 1_555 1_555
H53 C38 1_555 1_555
C39 C38 1_555 1_555
C40 C39 1_555 1_555
H54 C40 1_555 1_555
C41 C40 1_555 1_555
H55 C41 1_555 1_555
C42 C41 1_555 1_555
H56 C42 1_555 1_555
C43 C42 1_555 1_555
H57 C43 1_555 1_555
C44 C39 1_555 1_555
H58 C44 1_555 1_555
N2 C23 1_555 1_555
O5 C32 1_555 1_555
O6 C33 1_555 1_555
O7 S2 1_555 1_555
O8 S2 1_555 1_555
S2 C38 1_555 1_555
C7 N1 1_555 1_555
C10 C11 1_555 1_555
C12 O1 1_555 1_555
C13 O2 1_555 1_555
C21 C22 1_555 1_555
N1 S1 1_555 1_555
C29 N2 1_555 1_555
C32 C33 1_555 1_555
C34 O5 1_555 1_555
C35 O6 1_555 1_555
C43 C44 1_555 1_555
N2 S2 1_555 1_555

#END
