
#######################################################################
#
#                 Cambridge Crystallographic Data Centre
#                                CCDC 
#
#######################################################################
#
# If this CIF has been generated from an entry in the Cambridge 
# Structural Database, then it will include bibliographic, chemical, 
# crystal, experimental, refinement or atomic coordinate data resulting 
# from the CCDC's data processing and validation procedures.
#
#######################################################################

data_YEZJET
_chemical_formula_moiety         'C22 H27 N1 O4 S1'
_chemical_name_systematic        
2-(Benzylsulfonyl)-7-isopropoxy-8-methoxy-1,2,3,6-tetrahydro-2-benzazocine
_chemical_properties_biological  'no cytotoxic activity'
_symmetry_cell_setting           monoclinic
_symmetry_space_group_name_H-M   'P 21/c'
_symmetry_Int_Tables_number      14
_space_group_name_Hall           '-P 2ybc'
loop_
_symmetry_equiv_pos_site_id
_symmetry_equiv_pos_as_xyz
1 x,y,z
2 -x,1/2+y,1/2-z
3 -x,-y,-z
4 x,1/2-y,1/2+z
_cell_length_a                   15.692(5)
_cell_length_b                   14.617(5)
_cell_length_c                   9.104(3)
_cell_angle_alpha                90
_cell_angle_beta                 95.042(6)
_cell_angle_gamma                90
_cell_volume                     2080.1
_exptl_crystal_colour            colorless
_exptl_crystal_description       plate
_chemical_melting_point          119-122deg.C
_cell_formula_units_Z            4
loop_
_atom_site_label
_atom_site_type_symbol
_atom_site_fract_x
_atom_site_fract_y
_atom_site_fract_z
C1 C 0.4426(2) 0.2704(2) 0.7795(4)
H1 H 0.4131 0.2459 0.6872
H2 H 0.4911 0.3083 0.7524
C2 C 0.3804(2) 0.3312(2) 0.8546(4)
C3 C 0.2953(2) 0.3049(2) 0.8664(4)
C4 C 0.2631(2) 0.2102(2) 0.8197(4)
H3 H 0.2002 0.2114 0.7970
H4 H 0.2895 0.1906 0.7300
C5 C 0.2865(2) 0.1445(2) 0.9434(4)
H5 H 0.2452 0.1341 1.0119
C6 C 0.3601(2) 0.1000(2) 0.9649(4)
H6 H 0.3693 0.0630 1.0506
C7 C 0.4298(2) 0.1043(3) 0.8620(4)
H7 H 0.4706 0.0536 0.8855
H8 H 0.4045 0.0957 0.7595
C8 C 0.4080(2) 0.4148(2) 0.9092(4)
H9 H 0.4649 0.4337 0.8972
C9 C 0.3547(2) 0.4728(2) 0.9821(4)
H10 H 0.3754 0.5300 1.0199
C10 C 0.2714(2) 0.4460(2) 0.9987(4)
C11 C 0.2411(2) 0.3631(2) 0.9369(4)
C12 C 0.2447(3) 0.5749(3) 1.1495(5)
H11 H 0.2937 0.5601 1.2198
H12 H 0.1988 0.6012 1.2024
H13 H 0.2623 0.6192 1.0773
C13 C 0.0906(2) 0.3897(3) 0.8848(4)
H14 H 0.1079 0.4556 0.8859
C14 C 0.0150(2) 0.3769(3) 0.9746(5)
H15 H 0.0005 0.3117 0.9781
H16 H -0.0341 0.4111 0.9291
H17 H 0.0296 0.3995 1.0751
C15 C 0.0730(3) 0.3570(4) 0.7265(5)
H18 H 0.1239 0.3667 0.6735
H19 H 0.0249 0.3916 0.6781
H20 H 0.0587 0.2918 0.7260
C16 C 0.6318(2) 0.1420(3) 0.7863(4)
H21 H 0.6132 0.0776 0.7722
H22 H 0.6149 0.1753 0.6936
C17 C 0.7281(2) 0.1441(2) 0.8136(4)
C18 C 0.7747(2) 0.1988(3) 0.7271(4)
H23 H 0.7460 0.2371 0.6544
C19 C 0.8634(3) 0.1982(3) 0.7454(5)
H24 H 0.8950 0.2359 0.6847
C20 C 0.9057(3) 0.1442(3) 0.8494(5)
H25 H 0.9665 0.1434 0.8601
C21 C 0.8597(3) 0.0903(3) 0.9400(5)
H26 H 0.8889 0.0537 1.0147
C22 C 0.7709(2) 0.0899(3) 0.9213(5)
H27 H 0.7393 0.0525 0.9824
N1 N 0.47685(17) 0.1924(2) 0.8723(3)
O1 O 0.21466(15) 0.49356(16) 1.0751(3)
O2 O 0.15905(14) 0.33469(16) 0.9577(3)
O3 O 0.60438(15) 0.28393(17) 0.9500(3)
O4 O 0.58681(14) 0.12992(17) 1.0553(2)
S1 S 0.57680(6) 0.19099(7) 0.93085(9)
loop_
_geom_bond_atom_site_label_1
_geom_bond_atom_site_label_2
_geom_bond_site_symmetry_1
_geom_bond_site_symmetry_2
C1 H1 1_555 1_555
H2 C1 1_555 1_555
C2 C1 1_555 1_555
C3 C2 1_555 1_555
C4 C3 1_555 1_555
H3 C4 1_555 1_555
H4 C4 1_555 1_555
C5 C4 1_555 1_555
H5 C5 1_555 1_555
C6 C5 1_555 1_555
H6 C6 1_555 1_555
C7 C6 1_555 1_555
H7 C7 1_555 1_555
H8 C7 1_555 1_555
C8 C2 1_555 1_555
H9 C8 1_555 1_555
C9 C8 1_555 1_555
H10 C9 1_555 1_555
C10 C9 1_555 1_555
C11 C3 1_555 1_555
C12 H11 1_555 1_555
H12 C12 1_555 1_555
H13 C12 1_555 1_555
C13 H14 1_555 1_555
C14 C13 1_555 1_555
H15 C14 1_555 1_555
H16 C14 1_555 1_555
H17 C14 1_555 1_555
C15 C13 1_555 1_555
H18 C15 1_555 1_555
H19 C15 1_555 1_555
H20 C15 1_555 1_555
C16 H21 1_555 1_555
H22 C16 1_555 1_555
C17 C16 1_555 1_555
C18 C17 1_555 1_555
H23 C18 1_555 1_555
C19 C18 1_555 1_555
H24 C19 1_555 1_555
C20 C19 1_555 1_555
H25 C20 1_555 1_555
C21 C20 1_555 1_555
H26 C21 1_555 1_555
C22 C17 1_555 1_555
H27 C22 1_555 1_555
N1 C1 1_555 1_555
O1 C10 1_555 1_555
O2 C11 1_555 1_555
O3 S1 1_555 1_555
O4 S1 1_555 1_555
S1 C16 1_555 1_555
C7 N1 1_555 1_555
C10 C11 1_555 1_555
C12 O1 1_555 1_555
C13 O2 1_555 1_555
C21 C22 1_555 1_555
N1 S1 1_555 1_555

#END
