
#######################################################################
#
#                 Cambridge Crystallographic Data Centre
#                                CCDC 
#
#######################################################################
#
# If this CIF has been generated from an entry in the Cambridge 
# Structural Database, then it will include bibliographic, chemical, 
# crystal, experimental, refinement or atomic coordinate data resulting 
# from the CCDC's data processing and validation procedures.
#
#######################################################################

data_YEZMAU
_chemical_name_common            
'4,9,14,19,24,29,31,33,35,37,39,41-dodecaethoxypillar[6]arene 1,3-dimethylbenzene clathrate'
_chemical_formula_moiety         'C66 H84 O12,C8 H10'
_chemical_name_systematic        
'4,9,14,19,24,29,31,33,35,37,39,41-dodecaethoxyheptacyclo[26.2.2.2^3,6^.2^8,11^.2^13,16^.2^18,21^.2^23,26^]dotetraconta-1(30),3,5,8,10,13,15,18,20,23,25,28,31,33,35,37,39,41-octadecaene 1,3-dimethylbenzene clathrate'
_symmetry_cell_setting           triclinic
_symmetry_space_group_name_H-M   'P -1'
_symmetry_Int_Tables_number      2
_space_group_name_Hall           '-P 1'
loop_
_symmetry_equiv_pos_site_id
_symmetry_equiv_pos_as_xyz
1 x,y,z
2 -x,-y,-z
_cell_length_a                   11.10(2)
_cell_length_b                   12.196(19)
_cell_length_c                   14.06(3)
_cell_angle_alpha                93.34(17)
_cell_angle_beta                 94.55(18)
_cell_angle_gamma                102.22(16)
_cell_volume                     1848.88
_exptl_crystal_colour            colorless
_exptl_crystal_description       block
_cell_formula_units_Z            1
loop_
_atom_site_label
_atom_site_type_symbol
_atom_site_fract_x
_atom_site_fract_y
_atom_site_fract_z
O1 O 0.4511(6) 0.1487(5) 0.6180(5)
O2 O 0.5572(6) 0.6594(5) 0.6957(5)
O3 O 0.2599(7) 0.1125(6) 0.8039(6)
O4 O 0.0828(7) 0.6906(6) 0.7903(6)
O5 O 0.2343(6) -0.0105(6) 0.2398(5)
O6 O 0.0666(6) 0.3936(5) 0.5574(5)
C1 C 0.1824(8) 0.1450(8) 0.6492(8)
C2 C 0.2097(9) 0.1868(9) 0.7440(8)
C3 C 0.1128(9) 0.3175(9) 0.6178(8)
C4 C 0.2201(9) 0.0080(7) 0.4185(8)
H1 H 0.1396 -0.0350 0.4116
C5 C 0.1394(8) 0.3594(8) 0.7167(8)
C6 C 0.4059(9) 0.1081(7) 0.5228(9)
C7 C 0.4711(9) 0.1177(7) 0.2536(8)
H2 H 0.4082 0.1321 0.2070
H3 H 0.4973 0.0513 0.2292
C8 C 0.2804(10) 0.0292(7) 0.3370(9)
C9 C 0.1105(8) 0.4723(7) 0.7534(7)
H4 H 0.0963 0.4695 0.8205
H5 H 0.0349 0.4819 0.7186
C10 C 0.1288(8) 0.2136(7) 0.5841(7)
H6 H 0.1055 0.1877 0.5204
C11 C 0.2193(9) 0.5788(8) 0.7415(7)
C12 C 0.2065(8) 0.0350(7) 0.6057(7)
H7 H 0.1279 -0.0177 0.5891
H8 H 0.2539 0.0027 0.6532
C13 C 0.2768(10) 0.0502(7) 0.5163(8)
C14 C 0.4366(9) 0.6674(9) 0.7150(7)
C15 C 0.3358(8) 0.5707(8) 0.7170(7)
H9 H 0.3498 0.4996 0.7012
C16 C 0.1933(8) 0.2908(7) 0.7814(7)
H10 H 0.2160 0.3150 0.8455
C17 C 0.4119(9) 0.0915(7) 0.3470(8)
C18 C 0.1952(10) 0.6934(9) 0.7698(8)
C19 C 0.4673(9) 0.1348(7) 0.4430(8)
H11 H 0.5459 0.1816 0.4505
C20 C 0.4124(9) 0.7776(9) 0.7383(8)
C21 C 0.2953(9) 0.7859(8) 0.7610(7)
H12 H 0.2809 0.8579 0.7713
C22 C 0.5706(9) 0.2195(8) 0.6342(7)
H13 H 0.5734 0.2851 0.5978
H14 H 0.6310 0.1795 0.6118
C23 C 0.3115(11) 0.1593(10) 0.8974(8)
H15 H 0.2468 0.1813 0.9318
H16 H 0.3742 0.2267 0.8917
C24 C -0.0164(9) 0.3463(8) 0.4701(8)
H17 H 0.0117 0.2841 0.4396
H18 H -0.0165 0.4035 0.4249
C25 C 0.0532(9) 0.8034(9) 0.8182(10)
H19 H 0.1097 0.8414 0.8720
H20 H 0.0619 0.8509 0.7651
C26 C 0.5640(10) 0.5657(10) 0.6295(10)
H21 H 0.5060 0.5611 0.5734
H22 H 0.5455 0.4953 0.6597
C27 C -0.1488(9) 0.3050(8) 0.5012(8)
H23 H -0.1986 0.2545 0.4513
H24 H -0.1856 0.3684 0.5130
H25 H -0.1439 0.2665 0.5586
C28 C 0.1122(10) -0.0845(10) 0.2263(8)
H26 H 0.0499 -0.0443 0.2445
H27 H 0.1092 -0.1479 0.2653
C29 C 0.6047(10) 0.2581(9) 0.7414(8)
H28 H 0.6797 0.3153 0.7489
H29 H 0.6168 0.1950 0.7760
H30 H 0.5390 0.2878 0.7661
C30 C 0.6965(10) 0.5902(9) 0.6026(10)
H31 H 0.7181 0.5211 0.5817
H32 H 0.7515 0.6251 0.6572
H33 H 0.7037 0.6398 0.5518
C31 C 0.3677(11) 0.0806(8) 0.9539(8)
H34 H 0.4255 0.0521 0.9174
H35 H 0.3039 0.0192 0.9685
H36 H 0.4101 0.1197 1.0123
C32 C -0.0789(9) 0.7818(9) 0.8452(9)
H37 H -0.1341 0.7451 0.7912
H38 H -0.0996 0.8521 0.8637
H39 H -0.0866 0.7346 0.8976
C33 C 0.0883(11) -0.1262(10) 0.1174(8)
H40 H 0.0572 -0.0713 0.0822
H41 H 0.0286 -0.1964 0.1094
H42 H 0.1644 -0.1364 0.0940
O1A O 0.5489(6) 0.8513(5) 0.3820(5)
O2A O 0.4428(6) 0.3406(5) 0.3043(5)
O3A O 0.7401(7) 0.8875(6) 0.1961(6)
O4A O 0.9172(7) 0.3094(6) 0.2097(6)
O5A O 0.7657(6) 1.0105(6) 0.7602(5)
O6A O 0.9334(6) 0.6064(5) 0.4426(5)
C1A C 0.8176(8) 0.8550(8) 0.3508(8)
C2A C 0.7903(9) 0.8132(9) 0.2560(8)
C3A C 0.8872(9) 0.6825(9) 0.3822(8)
C4A C 0.7799(9) 0.9920(7) 0.5815(8)
H1A H 0.8604 1.0350 0.5884
C5A C 0.8606(8) 0.6406(8) 0.2833(8)
C6A C 0.5941(9) 0.8919(7) 0.4772(9)
C7A C 0.5289(9) 0.8823(7) 0.7464(8)
H2A H 0.5918 0.8679 0.7930
H3A H 0.5027 0.9487 0.7708
C8A C 0.7196(10) 0.9708(7) 0.6630(9)
C9A C 0.8895(8) 0.5277(7) 0.2466(7)
H4A H 0.9037 0.5305 0.1795
H5A H 0.9651 0.5181 0.2814
C10A C 0.8712(8) 0.7864(7) 0.4159(7)
H6A H 0.8945 0.8123 0.4796
C11A C 0.7807(9) 0.4212(8) 0.2585(7)
C12A C 0.7935(8) 0.9650(7) 0.3943(7)
H7A H 0.8721 1.0177 0.4109
H8A H 0.7461 0.9973 0.3468
C13A C 0.7232(10) 0.9498(7) 0.4837(8)
C14A C 0.5634(9) 0.3326(9) 0.2850(7)
C15A C 0.6642(8) 0.4293(8) 0.2830(7)
H9A H 0.6502 0.5004 0.2988
C16A C 0.8067(8) 0.7092(7) 0.2186(7)
H10A H 0.7840 0.6850 0.1545
C17A C 0.5881(9) 0.9085(7) 0.6530(8)
C18A C 0.8048(10) 0.3066(9) 0.2302(8)
C19A C 0.5327(9) 0.8652(7) 0.5570(8)
H11A H 0.4541 0.8184 0.5495
C20A C 0.5876(9) 0.2224(9) 0.2617(8)
C21A C 0.7047(9) 0.2141(8) 0.2390(7)
H12A H 0.7191 0.1421 0.2287
C22A C 0.4294(9) 0.7805(8) 0.3658(7)
H13A H 0.4266 0.7149 0.4022
H14A H 0.3690 0.8205 0.3882
C23A C 0.6885(11) 0.8407(10) 0.1026(8)
H15A H 0.7532 0.8187 0.0682
H16A H 0.6258 0.7733 0.1083
C24A C 1.0164(9) 0.6537(8) 0.5299(8)
H17A H 0.9883 0.7159 0.5604
H18A H 1.0165 0.5965 0.5751
C25A C 0.9468(9) 0.1966(9) 0.1818(10)
H19A H 0.8903 0.1586 0.1280
H20A H 0.9381 0.1491 0.2349
C26A C 0.4360(10) 0.4343(10) 0.3705(10)
H21A H 0.4940 0.4389 0.4266
H22A H 0.4545 0.5047 0.3403
C27A C 1.1488(9) 0.6950(8) 0.4988(8)
H23A H 1.1986 0.7455 0.5487
H24A H 1.1856 0.6316 0.4870
H25A H 1.1439 0.7335 0.4414
C28A C 0.8878(10) 1.0845(10) 0.7737(8)
H26A H 0.9501 1.0443 0.7555
H27A H 0.8908 1.1479 0.7347
C29A C 0.3953(10) 0.7419(9) 0.2586(8)
H28A H 0.3203 0.6847 0.2511
H29A H 0.3832 0.8050 0.2240
H30A H 0.4610 0.7122 0.2339
C30A C 0.3035(10) 0.4098(9) 0.3974(10)
H31A H 0.2819 0.4789 0.4183
H32A H 0.2485 0.3749 0.3428
H33A H 0.2963 0.3602 0.4482
C31A C 0.6323(11) 0.9194(8) 0.0461(8)
H34A H 0.5745 0.9479 0.0826
H35A H 0.6961 0.9808 0.0315
H36A H 0.5899 0.8803 -0.0123
C32A C 1.0789(9) 0.2182(9) 0.1548(9)
H37A H 1.1341 0.2549 0.2088
H38A H 1.0996 0.1479 0.1363
H39A H 1.0866 0.2654 0.1024
C33A C 0.9117(11) 1.1262(10) 0.8826(8)
H40A H 0.9428 1.0713 0.9178
H41A H 0.9714 1.1964 0.8906
H42A H 0.8356 1.1364 0.9060
C34? C 0.628(2) 0.5948(15) 0.9119(15)
H43? H 0.6434 0.6558 0.8746
C35? C 0.7123(14) 0.5256(15) 0.9210(11)
H44? H 0.7841 0.5403 0.8898
C36? C 0.6893(13) 0.4343(13) 0.9768(10)
C37? C 0.5820(19) 0.4123(17) 1.0235(17)
H45? H 0.5666 0.3512 1.0608
C38? C 0.498(2) 0.481(2) 1.014(2)
C39? C 0.521(2) 0.573(2) 0.959(2)
H46? H 0.4642 0.6190 0.9525
C40? C 0.7780(19) 0.3606(18) 0.9869(17)
H47? H 0.8383 0.3806 0.9397
H48? H 0.7357 0.2853 0.9731
H49? H 0.8197 0.3742 1.0487
C41? C 0.389(2) 0.471(2) 1.055(3)
H50? H 0.4052 0.5026 1.1195
H51? H 0.3505 0.3924 1.0535
H52? H 0.3360 0.5093 1.0191
loop_
_geom_bond_atom_site_label_1
_geom_bond_atom_site_label_2
_geom_bond_site_symmetry_1
_geom_bond_site_symmetry_2
O1 C6 1_555 1_555
O2 C14 1_555 1_555
O3 C2 1_555 1_555
O4 C18 1_555 1_555
O5 C8 1_555 1_555
O6 C3 1_555 1_555
C1 C2 1_555 1_555
C2 C16 1_555 1_555
C3 C5 1_555 1_555
C4 H1 1_555 1_555
C5 C9 1_555 1_555
C6 C13 1_555 1_555
C7 H2 1_555 1_555
H3 C7 1_555 1_555
C8 C4 1_555 1_555
C9 H4 1_555 1_555
H5 C9 1_555 1_555
C10 C1 1_555 1_555
H6 C10 1_555 1_555
C11 C9 1_555 1_555
C12 C1 1_555 1_555
H7 C12 1_555 1_555
H8 C12 1_555 1_555
C13 C4 1_555 1_555
C14 C15 1_555 1_555
C15 C11 1_555 1_555
H9 C15 1_555 1_555
C16 C5 1_555 1_555
H10 C16 1_555 1_555
C17 C7 1_555 1_555
C18 C11 1_555 1_555
C19 C6 1_555 1_555
H11 C19 1_555 1_555
C20 C14 1_555 1_555
C21 C18 1_555 1_555
H12 C21 1_555 1_555
C22 O1 1_555 1_555
H13 C22 1_555 1_555
H14 C22 1_555 1_555
C23 O3 1_555 1_555
H15 C23 1_555 1_555
H16 C23 1_555 1_555
C24 O6 1_555 1_555
H17 C24 1_555 1_555
H18 C24 1_555 1_555
C25 O4 1_555 1_555
H19 C25 1_555 1_555
H20 C25 1_555 1_555
C26 O2 1_555 1_555
H21 C26 1_555 1_555
H22 C26 1_555 1_555
C27 C24 1_555 1_555
H23 C27 1_555 1_555
H24 C27 1_555 1_555
H25 C27 1_555 1_555
C28 O5 1_555 1_555
H26 C28 1_555 1_555
H27 C28 1_555 1_555
C29 C22 1_555 1_555
H28 C29 1_555 1_555
H29 C29 1_555 1_555
H30 C29 1_555 1_555
C30 C26 1_555 1_555
H31 C30 1_555 1_555
H32 C30 1_555 1_555
H33 C30 1_555 1_555
C31 C23 1_555 1_555
H34 C31 1_555 1_555
H35 C31 1_555 1_555
H36 C31 1_555 1_555
C32 C25 1_555 1_555
H37 C32 1_555 1_555
H38 C32 1_555 1_555
H39 C32 1_555 1_555
C33 C28 1_555 1_555
H40 C33 1_555 1_555
H41 C33 1_555 1_555
H42 C33 1_555 1_555
O1A C6A 1_555 1_555
O2A C14A 1_555 1_555
O3A C2A 1_555 1_555
O4A C18A 1_555 1_555
O5A C8A 1_555 1_555
O6A C3A 1_555 1_555
C1A C2A 1_555 1_555
C2A C16A 1_555 1_555
C3A C5A 1_555 1_555
C4A H1A 1_555 1_555
C5A C9A 1_555 1_555
C6A C13A 1_555 1_555
C7A C20 1_555 1_555
H2A C7A 1_555 1_555
H3A C7A 1_555 1_555
C8A C4A 1_555 1_555
C9A H4A 1_555 1_555
H5A C9A 1_555 1_555
C10A C1A 1_555 1_555
H6A C10A 1_555 1_555
C11A C9A 1_555 1_555
C12A C1A 1_555 1_555
H7A C12A 1_555 1_555
H8A C12A 1_555 1_555
C13A C4A 1_555 1_555
C14A C15A 1_555 1_555
C15A C11A 1_555 1_555
H9A C15A 1_555 1_555
C16A C5A 1_555 1_555
H10A C16A 1_555 1_555
C17A C7A 1_555 1_555
C18A C11A 1_555 1_555
C19A C6A 1_555 1_555
H11A C19A 1_555 1_555
C20A C7 1_555 1_555
C21A C18A 1_555 1_555
H12A C21A 1_555 1_555
C22A O1A 1_555 1_555
H13A C22A 1_555 1_555
H14A C22A 1_555 1_555
C23A O3A 1_555 1_555
H15A C23A 1_555 1_555
H16A C23A 1_555 1_555
C24A O6A 1_555 1_555
H17A C24A 1_555 1_555
H18A C24A 1_555 1_555
C25A O4A 1_555 1_555
H19A C25A 1_555 1_555
H20A C25A 1_555 1_555
C26A O2A 1_555 1_555
H21A C26A 1_555 1_555
H22A C26A 1_555 1_555
C27A C24A 1_555 1_555
H23A C27A 1_555 1_555
H24A C27A 1_555 1_555
H25A C27A 1_555 1_555
C28A O5A 1_555 1_555
H26A C28A 1_555 1_555
H27A C28A 1_555 1_555
C29A C22A 1_555 1_555
H28A C29A 1_555 1_555
H29A C29A 1_555 1_555
H30A C29A 1_555 1_555
C30A C26A 1_555 1_555
H31A C30A 1_555 1_555
H32A C30A 1_555 1_555
H33A C30A 1_555 1_555
C31A C23A 1_555 1_555
H34A C31A 1_555 1_555
H35A C31A 1_555 1_555
H36A C31A 1_555 1_555
C32A C25A 1_555 1_555
H37A C32A 1_555 1_555
H38A C32A 1_555 1_555
H39A C32A 1_555 1_555
C33A C28A 1_555 1_555
H40A C33A 1_555 1_555
H41A C33A 1_555 1_555
H42A C33A 1_555 1_555
C3 C10 1_555 1_555
C8 C17 1_555 1_555
C12 C13 1_555 1_555
C17 C19 1_555 1_555
C20 C21 1_555 1_555
C3A C10A 1_555 1_555
C8A C17A 1_555 1_555
C12A C13A 1_555 1_555
C14A C20A 1_555 1_555
C17A C19A 1_555 1_555
C20A C21A 1_555 1_555

#END
