
#######################################################################
#
#                 Cambridge Crystallographic Data Centre
#                                CCDC 
#
#######################################################################
#
# If this CIF has been generated from an entry in the Cambridge 
# Structural Database, then it will include bibliographic, chemical, 
# crystal, experimental, refinement or atomic coordinate data resulting 
# from the CCDC's data processing and validation procedures.
#
#######################################################################

data_YEZMOI
_chemical_name_common            
'4,9,14,19,24,29,31,33,35,37,39,41-dodecaethoxypillar[6]arene 1,4-dimethylbenzene clathrate'
_chemical_formula_moiety         'C66 H84 O12,C8 H10'
_chemical_name_systematic        
'4,9,14,19,24,29,31,33,35,37,39,41-dodecaethoxyheptacyclo[26.2.2.2^3,6^.2^8,11^.2^13,16^.2^18,21^.2^23,26^]dotetraconta-1(30),3,5,8,10,13,15,18,20,23,25,28,31,33,35,37,39,41-octadecaene 1,4-dimethylbenzene clathrate'
_symmetry_cell_setting           monoclinic
_symmetry_space_group_name_H-M   'P 21/n'
_symmetry_Int_Tables_number      14
_space_group_name_Hall           '-P 2yn'
loop_
_symmetry_equiv_pos_site_id
_symmetry_equiv_pos_as_xyz
1 x,y,z
2 1/2-x,1/2+y,1/2-z
3 -x,-y,-z
4 1/2+x,1/2-y,1/2+z
_cell_length_a                   11.5241(9)
_cell_length_b                   12.9030(11)
_cell_length_c                   22.5069(19)
_cell_angle_alpha                90
_cell_angle_beta                 91.752(2)
_cell_angle_gamma                90
_cell_volume                     3345.11
_exptl_crystal_colour            colorless
_exptl_crystal_description       block
_cell_formula_units_Z            2
loop_
_atom_site_label
_atom_site_type_symbol
_atom_site_fract_x
_atom_site_fract_y
_atom_site_fract_z
O1 O 0.76469(8) 0.43350(7) 0.69250(5)
O2 O 0.43492(8) 0.26690(8) 0.62366(4)
O3 O 0.86292(9) 0.10483(9) 0.56918(5)
O4 O 0.32444(10) 0.55831(8) 0.75080(6)
O5 O 0.81946(9) 0.22078(10) 0.42442(6)
O6 O 0.37935(12) 0.15485(12) 0.32921(7)
C1 C 0.66840(11) 0.13886(9) 0.54097(6)
C2 C 0.62946(11) 0.23363(9) 0.65168(6)
C3 C 0.54057(11) 0.22734(9) 0.60837(6)
C4 C 0.75800(11) 0.14733(10) 0.58367(6)
C5 C 0.65621(12) 0.46763(10) 0.70672(6)
C6 C 0.57407(12) 0.39045(9) 0.71634(5)
C7 C 0.51468(13) 0.60078(9) 0.72711(5)
C8 C 0.56080(11) 0.18054(10) 0.55401(6)
H1 H 0.5000 0.1770 0.5252
C9 C 0.60752(12) 0.27683(9) 0.71304(6)
H2 H 0.6779 0.2664 0.7379
H3 H 0.5456 0.2359 0.7305
C10 C 0.64075(12) 0.13580(9) 0.42800(6)
C11 C 0.62602(13) 0.57190(9) 0.71248(6)
H4 H 0.6822 0.6233 0.7063
C12 C 0.73746(11) 0.19415(10) 0.63822(6)
H5 H 0.7986 0.1991 0.6667
C13 C 0.68550(13) 0.08028(10) 0.48339(6)
H6 H 0.7686 0.0667 0.4794
H7 H 0.6462 0.0131 0.4859
C14 C 0.55979(13) 0.23546(9) 0.32362(6)
C15 C 0.43283(13) 0.52385(10) 0.73656(6)
C16 C 0.71136(12) 0.20520(10) 0.39848(6)
C17 C 0.46343(12) 0.41990(10) 0.73137(6)
H8 H 0.4075 0.3686 0.7383
C18 C 0.67133(13) 0.25253(10) 0.34631(6)
H9 H 0.7210 0.2971 0.3260
C19 C 0.48312(15) 0.71428(10) 0.73396(6)
H10 H 0.5515 0.7521 0.7492
H11 H 0.4226 0.7204 0.7634
C20 C 0.52991(14) 0.11856(11) 0.40523(6)
H12 H 0.4815 0.0716 0.4246
C21 C 0.48788(14) 0.16917(11) 0.35410(7)
C22 C 0.24120(15) 0.48789(12) 0.77148(8)
H13 H 0.2730 0.4486 0.8055
H14 H 0.2179 0.4390 0.7400
C23 C 0.34794(13) 0.27851(15) 0.57805(8)
H15 H 0.3221 0.2104 0.5636
H16 H 0.3787 0.3174 0.5446
C24 C 0.95892(14) 0.11717(16) 0.60930(8)
H17 H 0.9428 0.0845 0.6475
H18 H 0.9744 0.1909 0.6162
C25 C 0.85299(14) 0.50813(13) 0.68450(9)
H19 H 0.8704 0.5446 0.7219
H20 H 0.8280 0.5591 0.6545
C26 C 0.95880(15) 0.45081(15) 0.66445(11)
H21 H 0.9392 0.4116 0.6288
H22 H 0.9856 0.4038 0.6956
H23 H 1.0197 0.5001 0.6561
C27 C 0.13934(17) 0.55169(15) 0.78949(11)
H24 H 0.1118 0.5932 0.7560
H25 H 0.1627 0.5969 0.8221
H26 H 0.0776 0.5062 0.8020
C28 C 1.06190(15) 0.06636(19) 0.58191(10)
H27 H 1.0748 0.0970 0.5433
H28 H 1.0472 -0.0072 0.5772
H29 H 1.1302 0.0765 0.6075
C29 C 0.89170(16) 0.29931(18) 0.40205(11)
H30 H 0.8482 0.3642 0.3970
H31 H 0.9215 0.2789 0.3634
C30 C 0.24814(16) 0.3362(2) 0.60426(10)
H32 H 0.1874 0.3460 0.5740
H33 H 0.2748 0.4032 0.6187
H34 H 0.2179 0.2966 0.6370
C31 C 0.3004(3) 0.0896(3) 0.35504(16)
H35 H 0.3394 0.0278 0.3712
H36 H 0.2406 0.0677 0.3258
C32 C 0.99100(18) 0.3132(2) 0.44727(14)
H37 H 1.0434 0.3663 0.4336
H38 H 1.0328 0.2483 0.4520
H39 H 0.9603 0.3338 0.4851
C33 C 0.2475(4) 0.1516(4) 0.4039(2)
H40 H 0.2139 0.2147 0.3875
H41 H 0.3071 0.1692 0.4336
H42 H 0.1875 0.1110 0.4222
O1B O 0.23531(8) 0.56650(7) 0.30750(5)
O2B O 0.56508(8) 0.73310(8) 0.37634(4)
O3B O 0.13708(9) 0.89517(9) 0.43082(5)
O4B O 0.67556(10) 0.44169(8) 0.24920(6)
O5B O 0.18054(9) 0.77922(10) 0.57558(6)
O6B O 0.62065(12) 0.84515(12) 0.67079(7)
C1B C 0.33160(11) 0.86114(9) 0.45903(6)
C2B C 0.37054(11) 0.76637(9) 0.34832(6)
C3B C 0.45943(11) 0.77266(9) 0.39163(6)
C4B C 0.24200(11) 0.85267(10) 0.41633(6)
C5B C 0.34379(12) 0.53237(10) 0.29328(6)
C6B C 0.42593(12) 0.60955(9) 0.28366(5)
C7B C 0.48532(13) 0.39922(9) 0.27289(5)
C8B C 0.43920(11) 0.81946(10) 0.44599(6)
H1B H 0.5000 0.8230 0.4748
C9B C 0.39248(12) 0.72317(9) 0.28696(6)
H2B H 0.3221 0.7336 0.2621
H3B H 0.4544 0.7641 0.2695
C10B C 0.35925(12) 0.86420(9) 0.57200(6)
C11B C 0.37398(13) 0.42810(9) 0.28752(6)
H4B H 0.3178 0.3767 0.2937
C12B C 0.26254(11) 0.80585(10) 0.36178(6)
H5B H 0.2014 0.8009 0.3333
C13B C 0.31450(13) 0.91972(10) 0.51661(6)
H6B H 0.2314 0.9333 0.5206
H7B H 0.3538 0.9869 0.5141
C14B C 0.44021(13) 0.76454(9) 0.67638(6)
C15B C 0.56717(13) 0.47615(10) 0.26344(6)
C16B C 0.28864(12) 0.79480(10) 0.60152(6)
C17B C 0.53657(12) 0.58010(10) 0.26863(6)
H8B H 0.5925 0.6314 0.2617
C18B C 0.32867(13) 0.74747(10) 0.65369(6)
H9B H 0.2790 0.7029 0.6740
C19B C 0.51688(15) 0.28572(10) 0.26604(6)
H10B H 0.4485 0.2479 0.2508
H11B H 0.5774 0.2796 0.2366
C20B C 0.47009(14) 0.88144(11) 0.59477(6)
H12B H 0.5185 0.9284 0.5754
C21B C 0.51212(14) 0.83083(11) 0.64590(7)
C22B C 0.75880(15) 0.51211(12) 0.22852(8)
H13B H 0.7270 0.5514 0.1945
H14B H 0.7821 0.5610 0.2600
C23B C 0.65206(13) 0.72149(15) 0.42195(8)
H15B H 0.6779 0.7896 0.4364
H16B H 0.6213 0.6826 0.4554
C24B C 0.04108(14) 0.88283(16) 0.39070(8)
H17B H 0.0572 0.9155 0.3525
H18B H 0.0256 0.8091 0.3838
C25B C 0.14701(14) 0.49187(13) 0.31550(9)
H19B H 0.1296 0.4554 0.2781
H20B H 0.1720 0.4409 0.3455
C26B C 0.04120(15) 0.54919(15) 0.33555(11)
H21B H 0.0608 0.5884 0.3712
H22B H 0.0144 0.5962 0.3044
H23B H -0.0197 0.4999 0.3439
C27B C 0.86066(17) 0.44831(15) 0.21051(11)
H24B H 0.8882 0.4068 0.2440
H25B H 0.8373 0.4031 0.1779
H26B H 0.9224 0.4938 0.1980
C28B C -0.06190(15) 0.93364(19) 0.41809(10)
H27B H -0.0748 0.9030 0.4567
H28B H -0.0472 1.0072 0.4228
H29B H -0.1302 0.9235 0.3925
C29B C 0.10830(16) 0.70069(18) 0.59795(11)
H30B H 0.1518 0.6358 0.6030
H31B H 0.0785 0.7211 0.6366
C30B C 0.75186(16) 0.6638(2) 0.39574(10)
H32B H 0.8126 0.6540 0.4260
H33B H 0.7252 0.5968 0.3813
H34B H 0.7821 0.7034 0.3630
C31B C 0.6996(3) 0.9104(3) 0.64496(16)
H35B H 0.6606 0.9722 0.6288
H36B H 0.7594 0.9323 0.6742
C32B C 0.00900(18) 0.6868(2) 0.55273(14)
H37B H -0.0434 0.6337 0.5664
H38B H -0.0328 0.7517 0.5480
H39B H 0.0397 0.6662 0.5149
C33B C 0.7525(4) 0.8484(4) 0.5961(2)
H40B H 0.7861 0.7853 0.6125
H41B H 0.6929 0.8308 0.5664
H42B H 0.8125 0.8890 0.5778
C36 C 0.61264(19) 0.46472(14) 0.51478(8)
C37 C 0.5565(2) 0.43609(16) 0.46235(9)
H48 H 0.5941 0.3919 0.4359
C38 C 0.5531(2) 0.52920(16) 0.55202(8)
H49 H 0.5887 0.5499 0.5882
C39 C 0.7330(2) 0.42701(19) 0.53043(12)
H50 H 0.7487 0.3646 0.5081
H51 H 0.7392 0.4120 0.5726
H52 H 0.7889 0.4801 0.5207
C36B C 0.38736(19) 0.53528(14) 0.48522(8)
C37B C 0.4435(2) 0.56391(16) 0.53765(9)
H48B H 0.4059 0.6081 0.5641
C38B C 0.4469(2) 0.47080(16) 0.44798(8)
H49B H 0.4113 0.4501 0.4118
C39B C 0.2670(2) 0.57299(19) 0.46957(12)
H50B H 0.2513 0.6354 0.4919
H51B H 0.2608 0.5880 0.4274
H52B H 0.2111 0.5199 0.4793
C34? C 0.1630(7) 0.1378(8) 0.3608(4)
H43? H 0.1491 0.0932 0.3266
H44? H 0.1496 0.2094 0.3494
H45? H 0.1106 0.1190 0.3920
C35? C 0.2861(8) 0.1253(7) 0.3832(5)
H46? H 0.2989 0.0536 0.3962
H47? H 0.3005 0.1708 0.4175
loop_
_geom_bond_atom_site_label_1
_geom_bond_atom_site_label_2
_geom_bond_site_symmetry_1
_geom_bond_site_symmetry_2
O1 C5 1_555 1_555
O2 C3 1_555 1_555
O3 C4 1_555 1_555
O4 C15 1_555 1_555
O5 C16 1_555 1_555
O6 C21 1_555 1_555
C1 C4 1_555 1_555
C2 C3 1_555 1_555
C3 C8 1_555 1_555
C4 C12 1_555 1_555
C5 C6 1_555 1_555
C6 C9 1_555 1_555
C7 C11 1_555 1_555
C8 C1 1_555 1_555
H1 C8 1_555 1_555
C9 C2 1_555 1_555
H2 C9 1_555 1_555
H3 C9 1_555 1_555
C10 C13 1_555 1_555
C11 C5 1_555 1_555
H4 C11 1_555 1_555
C12 C2 1_555 1_555
H5 C12 1_555 1_555
C13 C1 1_555 1_555
H6 C13 1_555 1_555
H7 C13 1_555 1_555
C14 C18 1_555 1_555
C15 C7 1_555 1_555
C16 C10 1_555 1_555
C17 C6 1_555 1_555
H8 C17 1_555 1_555
C18 C16 1_555 1_555
H9 C18 1_555 1_555
C19 C7 1_555 1_555
H10 C19 1_555 1_555
H11 C19 1_555 1_555
C20 C10 1_555 1_555
H12 C20 1_555 1_555
C21 C14 1_555 1_555
C22 O4 1_555 1_555
H13 C22 1_555 1_555
H14 C22 1_555 1_555
C23 O2 1_555 1_555
H15 C23 1_555 1_555
H16 C23 1_555 1_555
C24 O3 1_555 1_555
H17 C24 1_555 1_555
H18 C24 1_555 1_555
C25 O1 1_555 1_555
H19 C25 1_555 1_555
H20 C25 1_555 1_555
C26 C25 1_555 1_555
H21 C26 1_555 1_555
H22 C26 1_555 1_555
H23 C26 1_555 1_555
C27 C22 1_555 1_555
H24 C27 1_555 1_555
H25 C27 1_555 1_555
H26 C27 1_555 1_555
C28 C24 1_555 1_555
H27 C28 1_555 1_555
H28 C28 1_555 1_555
H29 C28 1_555 1_555
C29 O5 1_555 1_555
H30 C29 1_555 1_555
H31 C29 1_555 1_555
C30 C23 1_555 1_555
H32 C30 1_555 1_555
H33 C30 1_555 1_555
H34 C30 1_555 1_555
C31 O6 1_555 1_555
H35 C31 1_555 1_555
H36 C31 1_555 1_555
C32 C29 1_555 1_555
H37 C32 1_555 1_555
H38 C32 1_555 1_555
H39 C32 1_555 1_555
C33 C31 1_555 1_555
H40 C33 1_555 1_555
H41 C33 1_555 1_555
H42 C33 1_555 1_555
C36 C37 1_555 1_555
C37 H48 1_555 1_555
C38 C36 1_555 1_555
H49 C38 1_555 1_555
C39 C36 1_555 1_555
H50 C39 1_555 1_555
H51 C39 1_555 1_555
H52 C39 1_555 1_555
O1B C5B 1_555 1_555
O2B C3B 1_555 1_555
O3B C4B 1_555 1_555
O4B C15B 1_555 1_555
O5B C16B 1_555 1_555
O6B C21B 1_555 1_555
C1B C4B 1_555 1_555
C2B C3B 1_555 1_555
C3B C8B 1_555 1_555
C4B C12B 1_555 1_555
C5B C6B 1_555 1_555
C6B C9B 1_555 1_555
C7B C11B 1_555 1_555
C8B C1B 1_555 1_555
H1B C8B 1_555 1_555
C9B C2B 1_555 1_555
H2B C9B 1_555 1_555
H3B C9B 1_555 1_555
C10B C13B 1_555 1_555
C11B C5B 1_555 1_555
H4B C11B 1_555 1_555
C12B C2B 1_555 1_555
H5B C12B 1_555 1_555
C13B C1B 1_555 1_555
H6B C13B 1_555 1_555
H7B C13B 1_555 1_555
C14B C19 1_555 1_555
C15B C7B 1_555 1_555
C16B C10B 1_555 1_555
C17B C6B 1_555 1_555
H8B C17B 1_555 1_555
C18B C14B 1_555 1_555
H9B C18B 1_555 1_555
C19B C14 1_555 1_555
H10B C19B 1_555 1_555
H11B C19B 1_555 1_555
C20B C10B 1_555 1_555
H12B C20B 1_555 1_555
C21B C14B 1_555 1_555
C22B O4B 1_555 1_555
H13B C22B 1_555 1_555
H14B C22B 1_555 1_555
C23B O2B 1_555 1_555
H15B C23B 1_555 1_555
H16B C23B 1_555 1_555
C24B O3B 1_555 1_555
H17B C24B 1_555 1_555
H18B C24B 1_555 1_555
C25B O1B 1_555 1_555
H19B C25B 1_555 1_555
H20B C25B 1_555 1_555
C26B C25B 1_555 1_555
H21B C26B 1_555 1_555
H22B C26B 1_555 1_555
H23B C26B 1_555 1_555
C27B C22B 1_555 1_555
H24B C27B 1_555 1_555
H25B C27B 1_555 1_555
H26B C27B 1_555 1_555
C28B C24B 1_555 1_555
H27B C28B 1_555 1_555
H28B C28B 1_555 1_555
H29B C28B 1_555 1_555
C29B O5B 1_555 1_555
H30B C29B 1_555 1_555
H31B C29B 1_555 1_555
C30B C23B 1_555 1_555
H32B C30B 1_555 1_555
H33B C30B 1_555 1_555
H34B C30B 1_555 1_555
C31B O6B 1_555 1_555
H35B C31B 1_555 1_555
H36B C31B 1_555 1_555
C32B C29B 1_555 1_555
H37B C32B 1_555 1_555
H38B C32B 1_555 1_555
H39B C32B 1_555 1_555
C33B C31B 1_555 1_555
H40B C33B 1_555 1_555
H41B C33B 1_555 1_555
H42B C33B 1_555 1_555
C36B C37B 1_555 1_555
C37B C38 1_555 1_555
H48B C37B 1_555 1_555
C38B C37 1_555 1_555
H49B C38B 1_555 1_555
C39B C36B 1_555 1_555
H50B C39B 1_555 1_555
H51B C39B 1_555 1_555
H52B C39B 1_555 1_555
C15 C17 1_555 1_555
C20 C21 1_555 1_555
C7B C19B 1_555 1_555
C15B C17B 1_555 1_555
C16B C18B 1_555 1_555
C20B C21B 1_555 1_555
C36B C38B 1_555 1_555

#END
