
#######################################################################
#
#                 Cambridge Crystallographic Data Centre
#                                CCDC 
#
#######################################################################
#
# If this CIF has been generated from an entry in the Cambridge 
# Structural Database, then it will include bibliographic, chemical, 
# crystal, experimental, refinement or atomic coordinate data resulting 
# from the CCDC's data processing and validation procedures.
#
#######################################################################

data_YEZQUS
_chemical_formula_moiety         'C48 H33 B1 N4,C4 H8 O2'
_chemical_name_systematic        
'[20,25-bis(4-methylphenyl)-9,18,27,30-tetraazaoctacyclo[15.10.1.1^2,26^.1^16,19^.1^21,24^.0^3,8^.0^9,28^.0^10,15^]hentriaconta-1(28),2(29),3,5,7,10,12,14,16,19(31),20,22,24,26-tetradecaenato](4-methylphenyl)boron ethyl acetate solvate'
_symmetry_cell_setting           triclinic
_symmetry_space_group_name_H-M   'P -1'
_symmetry_Int_Tables_number      2
_space_group_name_Hall           '-P 1'
loop_
_symmetry_equiv_pos_site_id
_symmetry_equiv_pos_as_xyz
1 x,y,z
2 -x,-y,-z
_cell_length_a                   9.2477(9)
_cell_length_b                   13.4829(12)
_cell_length_c                   16.1741(17)
_cell_angle_alpha                80.551(12)
_cell_angle_beta                 88.556(10)
_cell_angle_gamma                76.329(9)
_cell_volume                     1932.76
_exptl_crystal_colour            red
_exptl_crystal_description       Prism
_cell_formula_units_Z            2
loop_
_atom_site_label
_atom_site_type_symbol
_atom_site_fract_x
_atom_site_fract_y
_atom_site_fract_z
N1 N 0.49799(19) 0.20770(14) 0.16421(12)
N2 N 0.28018(19) 0.02677(15) 0.12544(12)
N3 N 0.70962(19) 0.15722(15) 0.25611(12)
N4 N 0.50702(19) 0.07721(15) 0.28755(12)
C1 C 0.4027(2) 0.16496(17) 0.12710(14)
C2 C 0.7212(2) 0.26642(17) 0.12384(15)
C3 C 0.2420(2) -0.06360(18) 0.17285(15)
C4 C 0.3207(2) -0.11514(19) 0.24834(15)
C5 C 0.3413(2) 0.13059(18) -0.00767(15)
C6 C 0.4189(2) -0.06534(18) 0.28574(14)
C7 C 0.5947(2) -0.00225(18) 0.34236(14)
C8 C 0.4081(2) 0.03883(18) 0.25031(14)
C9 C 0.7179(2) 0.42161(18) 0.01740(15)
H1 H 0.6185 0.4484 0.0333
C10 C 0.3502(2) 0.08241(18) 0.16954(14)
C11 C 0.2838(2) 0.04699(18) 0.03554(15)
C12 C 0.7964(2) 0.32438(18) 0.05855(15)
C13 C 0.7989(2) 0.08459(18) 0.31519(14)
C14 C 0.2429(2) -0.01900(19) -0.01393(15)
H2 H 0.2113 -0.0784 0.0127
C15 C 0.7607(3) -0.11039(19) 0.50120(15)
H3 H 0.6600 -0.0786 0.5111
C16 C 0.9463(2) 0.10191(18) 0.30023(15)
H4 H 1.0328 0.0670 0.3329
C17 C 0.7406(2) 0.00772(18) 0.36415(14)
C18 C 0.2477(2) 0.00065(19) -0.09974(16)
H5 H 0.2177 -0.0449 -0.1312
C19 C 0.9776(3) -0.12248(19) 0.41636(16)
H6 H 1.0273 -0.0997 0.3673
C20 C 0.8278(2) -0.07473(18) 0.42816(15)
C21 C 0.7887(2) 0.20973(18) 0.20013(15)
C22 C 0.5777(2) 0.25266(17) 0.10259(15)
C23 C 0.3439(2) 0.14732(19) -0.09539(15)
H7 H 0.3808 0.2037 -0.1235
C24 C 1.0048(3) 0.3458(2) -0.03085(16)
H8 H 1.1038 0.3191 -0.0473
C25 C 0.5177(2) 0.24732(18) 0.02414(15)
H9 H 0.5451 0.2778 -0.0293
C26 C 0.9863(3) -0.23963(19) 0.54802(15)
C27 C 0.2905(3) -0.20932(19) 0.28664(16)
H10 H 0.3461 -0.2471 0.3351
C28 C 0.7807(2) 0.47876(19) -0.04499(15)
H11 H 0.7242 0.5443 -0.0711
C29 C 0.4110(2) 0.18912(17) 0.03990(14)
C30 C 0.2951(2) 0.0853(2) -0.14198(16)
H12 H 0.2938 0.0997 -0.2015
C31 C 0.1235(2) -0.0992(2) 0.14775(16)
H13 H 0.0612 -0.0596 0.1024
C32 C 0.3506(3) 0.35404(19) 0.27770(16)
H14 H 0.3135 0.3573 0.2228
C33 C 1.0533(3) -0.20291(19) 0.47606(16)
H15 H 1.1548 -0.2337 0.4670
C34 C 0.9413(2) 0.17630(19) 0.23175(16)
H16 H 1.0233 0.2020 0.2086
C35 C 0.4678(2) 0.27197(18) 0.31010(15)
C36 C 0.9421(3) 0.28756(19) 0.03233(16)
H17 H 0.9986 0.2219 0.0582
C37 C 1.0675(3) -0.3305(2) 0.61016(16)
H18 H 1.0599 -0.3950 0.5921
H19 H 1.0230 -0.3268 0.6655
H20 H 1.1725 -0.3287 0.6132
C38 C 0.5346(2) -0.09058(18) 0.34570(15)
H21 H 0.5668 -0.1549 0.3818
C39 C 0.9265(2) 0.4426(2) -0.07100(15)
C40 C 0.4531(3) 0.3485(2) 0.43693(16)
H22 H 0.4892 0.3452 0.4920
C41 C 0.8372(3) -0.19144(19) 0.56012(15)
H23 H 0.7879 -0.2145 0.6092
C42 C 0.5168(2) 0.27119(18) 0.39061(15)
H24 H 0.5961 0.2163 0.4149
C43 C 0.0948(3) -0.1909(2) 0.18734(17)
H25 H 0.0154 -0.2152 0.1681
C44 C 0.9967(3) 0.5044(2) -0.13829(17)
H26 H 1.0129 0.4695 -0.1875
H27 H 1.0924 0.5109 -0.1179
H28 H 0.9311 0.5734 -0.1537
C45 C 0.1822(3) -0.2479(2) 0.25548(17)
H29 H 0.1671 -0.3134 0.2805
C46 C 0.3369(3) 0.43059(19) 0.40338(16)
C47 C 0.2865(3) 0.4318(2) 0.32424(17)
H30 H 0.2063 0.4864 0.3005
B1 B 0.5415(3) 0.1819(2) 0.25674(17)
C48 C 0.2707(4) 0.5156(2) 0.45286(19)
H31 H 0.2678 0.5829 0.4183
H32 H 0.3319 0.5080 0.5031
H33 H 0.1694 0.5112 0.4693
O1 O 0.75377(19) 0.55177(15) 0.27984(12)
O2 O 0.5884(2) 0.64097(16) 0.35935(12)
C49 C 0.6398(3) 0.5032(2) 0.25402(19)
H34 H 0.5750 0.4893 0.3021
H35 H 0.6884 0.4363 0.2366
C50 C 0.7120(3) 0.6187(2) 0.33214(17)
C51 C 0.5477(3) 0.5715(2) 0.18320(19)
H36 H 0.4908 0.6345 0.2023
H37 H 0.4790 0.5349 0.1633
H38 H 0.6127 0.5899 0.1374
C52 C 0.8380(3) 0.6628(2) 0.3546(2)
H39 H 0.8441 0.7228 0.3124
H40 H 0.9317 0.6101 0.3563
H41 H 0.8203 0.6843 0.4097
loop_
_geom_bond_atom_site_label_1
_geom_bond_atom_site_label_2
_geom_bond_site_symmetry_1
_geom_bond_site_symmetry_2
N1 C1 1_555 1_555
N2 C3 1_555 1_555
N3 C13 1_555 1_555
N4 C7 1_555 1_555
C1 C10 1_555 1_555
C2 C12 1_555 1_555
C3 C4 1_555 1_555
C4 C6 1_555 1_555
C5 C11 1_555 1_555
C6 C8 1_555 1_555
C7 C17 1_555 1_555
C8 N4 1_555 1_555
C9 H1 1_555 1_555
C10 N2 1_555 1_555
C11 N2 1_555 1_555
C12 C9 1_555 1_555
C13 C16 1_555 1_555
C14 C11 1_555 1_555
H2 C14 1_555 1_555
C15 H3 1_555 1_555
C16 H4 1_555 1_555
C17 C13 1_555 1_555
C18 C14 1_555 1_555
H5 C18 1_555 1_555
C19 H6 1_555 1_555
C20 C15 1_555 1_555
C21 N3 1_555 1_555
C22 N1 1_555 1_555
C23 C5 1_555 1_555
H7 C23 1_555 1_555
C24 H8 1_555 1_555
C25 C22 1_555 1_555
H9 C25 1_555 1_555
C26 C33 1_555 1_555
C27 C4 1_555 1_555
H10 C27 1_555 1_555
C28 C9 1_555 1_555
H11 C28 1_555 1_555
C29 C1 1_555 1_555
C30 C18 1_555 1_555
H12 C30 1_555 1_555
C31 C3 1_555 1_555
H13 C31 1_555 1_555
C32 H14 1_555 1_555
C33 C19 1_555 1_555
H15 C33 1_555 1_555
C34 C16 1_555 1_555
H16 C34 1_555 1_555
C35 C32 1_555 1_555
C36 C12 1_555 1_555
H17 C36 1_555 1_555
C37 C26 1_555 1_555
H18 C37 1_555 1_555
H19 C37 1_555 1_555
H20 C37 1_555 1_555
C38 C6 1_555 1_555
H21 C38 1_555 1_555
C39 C24 1_555 1_555
C40 H22 1_555 1_555
C41 C15 1_555 1_555
H23 C41 1_555 1_555
C42 C35 1_555 1_555
H24 C42 1_555 1_555
C43 C31 1_555 1_555
H25 C43 1_555 1_555
C44 C39 1_555 1_555
H26 C44 1_555 1_555
H27 C44 1_555 1_555
H28 C44 1_555 1_555
C45 C27 1_555 1_555
H29 C45 1_555 1_555
C46 C40 1_555 1_555
C47 C32 1_555 1_555
H30 C47 1_555 1_555
B1 N1 1_555 1_555
C48 C46 1_555 1_555
H31 C48 1_555 1_555
H32 C48 1_555 1_555
H33 C48 1_555 1_555
O1 C49 1_555 1_555
O2 C50 1_555 1_555
C49 H34 1_555 1_555
H35 C49 1_555 1_555
C50 O1 1_555 1_555
C51 C49 1_555 1_555
H36 C51 1_555 1_555
H37 C51 1_555 1_555
H38 C51 1_555 1_555
C52 C50 1_555 1_555
H39 C52 1_555 1_555
H40 C52 1_555 1_555
H41 C52 1_555 1_555
N3 B1 1_555 1_555
N4 B1 1_555 1_555
C2 C21 1_555 1_555
C2 C22 1_555 1_555
C5 C29 1_555 1_555
C7 C38 1_555 1_555
C8 C10 1_555 1_555
C17 C20 1_555 1_555
C19 C20 1_555 1_555
C21 C34 1_555 1_555
C23 C30 1_555 1_555
C24 C36 1_555 1_555
C25 C29 1_555 1_555
C26 C41 1_555 1_555
C28 C39 1_555 1_555
C35 B1 1_555 1_555
C40 C42 1_555 1_555
C43 C45 1_555 1_555
C46 C47 1_555 1_555

#END
