
#######################################################################
#
#                 Cambridge Crystallographic Data Centre
#                                CCDC 
#
#######################################################################
#
# If this CIF has been generated from an entry in the Cambridge 
# Structural Database, then it will include bibliographic, chemical, 
# crystal, experimental, refinement or atomic coordinate data resulting 
# from the CCDC's data processing and validation procedures.
#
#######################################################################

data_YEZQIF
_chemical_formula_moiety         'C18 H23 N1 O1'
_chemical_name_systematic        
14-Methyl-5,6,9,10,11,12,15,15a-octahydro-8H-azecino[2,1-a]isoquinolin-8-one
_symmetry_cell_setting           monoclinic
_symmetry_space_group_name_H-M   'P 21/c'
_symmetry_Int_Tables_number      14
_space_group_name_Hall           '-P 2ybc'
loop_
_symmetry_equiv_pos_site_id
_symmetry_equiv_pos_as_xyz
1 x,y,z
2 -x,1/2+y,1/2-z
3 -x,-y,-z
4 x,1/2-y,1/2+z
_cell_length_a                   12.566(6)
_cell_length_b                   12.260(5)
_cell_length_c                   10.220(5)
_cell_angle_alpha                90
_cell_angle_beta                 102.514(6)
_cell_angle_gamma                90
_cell_volume                     1537.08
_exptl_crystal_colour            colorless
_exptl_crystal_description       column
_cell_formula_units_Z            4
loop_
_atom_site_label
_atom_site_type_symbol
_atom_site_fract_x
_atom_site_fract_y
_atom_site_fract_z
O1 O 0.75283(13) 0.31923(12) 0.05101(16)
N1 N 0.65983(14) 0.18387(14) 0.12289(16)
C1 C 0.74470(16) 0.25410(16) 0.1392(2)
C2 C 0.83034(16) 0.25514(18) 0.2686(2)
H1 H 0.8253 0.1880 0.3171
H2 H 0.8157 0.3153 0.3239
C3 C 0.94673(19) 0.2666(2) 0.2455(3)
H3 H 0.9540 0.3396 0.2118
H4 H 0.9968 0.2612 0.3320
C4 C 0.9844(2) 0.1856(2) 0.1502(3)
H5 H 0.9402 0.1972 0.0609
H6 H 1.0590 0.2034 0.1470
C5 C 0.97999(19) 0.0653(2) 0.1828(3)
H7 H 1.0218 0.0240 0.1304
H8 H 1.0120 0.0535 0.2769
C6 C 0.86416(18) 0.0266(2) 0.1519(3)
H9 H 0.8289 0.0279 0.0620
C7 C 0.80555(18) -0.00904(17) 0.2361(2)
C8 C 0.68313(17) -0.00987(17) 0.1929(2)
H10 H 0.6533 -0.0654 0.2422
H11 H 0.6618 -0.0270 0.0982
C9 C 0.63741(15) 0.10361(15) 0.21983(18)
H12 H 0.6757 0.1272 0.3093
C10 C 0.8496(2) -0.0338(2) 0.3813(3)
H13 H 0.9278 -0.0296 0.4005
H14 H 0.8277 -0.1058 0.4011
H15 H 0.8217 0.0183 0.4355
C11 C 0.51634(15) 0.09895(15) 0.21915(19)
C12 C 0.48267(17) 0.03356(18) 0.3138(2)
H16 H 0.5345 -0.0056 0.3746
C13 C 0.3747(2) 0.0253(2) 0.3198(3)
H17 H 0.3537 -0.0197 0.3830
C14 C 0.2982(2) 0.0843(3) 0.2313(3)
H18 H 0.2250 0.0797 0.2349
C15 C 0.32949(19) 0.1501(2) 0.1378(3)
H19 H 0.2770 0.1902 0.0791
C16 C 0.43848(17) 0.15816(17) 0.1288(2)
C17 C 0.47210(19) 0.22624(19) 0.0229(2)
H20 H 0.4800 0.3017 0.0520
H21 H 0.4162 0.2229 -0.0590
C18 C 0.5785(2) 0.1856(2) -0.0038(2)
H22 H 0.5691 0.1129 -0.0419
H23 H 0.6026 0.2333 -0.0674
loop_
_geom_bond_atom_site_label_1
_geom_bond_atom_site_label_2
_geom_bond_site_symmetry_1
_geom_bond_site_symmetry_2
O1 C1 1_555 1_555
N1 C1 1_555 1_555
C1 C2 1_555 1_555
C2 H1 1_555 1_555
H2 C2 1_555 1_555
C3 C2 1_555 1_555
H3 C3 1_555 1_555
H4 C3 1_555 1_555
C4 C3 1_555 1_555
H5 C4 1_555 1_555
H6 C4 1_555 1_555
C5 C4 1_555 1_555
H7 C5 1_555 1_555
H8 C5 1_555 1_555
C6 C5 1_555 1_555
H9 C6 1_555 1_555
C7 C6 1_555 1_555
C8 C7 1_555 1_555
H10 C8 1_555 1_555
H11 C8 1_555 1_555
C9 N1 1_555 1_555
H12 C9 1_555 1_555
C10 C7 1_555 1_555
H13 C10 1_555 1_555
H14 C10 1_555 1_555
H15 C10 1_555 1_555
C11 C9 1_555 1_555
C12 C11 1_555 1_555
H16 C12 1_555 1_555
C13 C12 1_555 1_555
H17 C13 1_555 1_555
C14 C13 1_555 1_555
H18 C14 1_555 1_555
C15 C14 1_555 1_555
H19 C15 1_555 1_555
C16 C11 1_555 1_555
C17 C16 1_555 1_555
H20 C17 1_555 1_555
H21 C17 1_555 1_555
C18 N1 1_555 1_555
H22 C18 1_555 1_555
H23 C18 1_555 1_555
C8 C9 1_555 1_555
C15 C16 1_555 1_555
C17 C18 1_555 1_555

#END
