
#######################################################################
#
#                 Cambridge Crystallographic Data Centre
#                                CCDC 
#
#######################################################################
#
# If this CIF has been generated from an entry in the Cambridge 
# Structural Database, then it will include bibliographic, chemical, 
# crystal, experimental, refinement or atomic coordinate data resulting 
# from the CCDC's data processing and validation procedures.
#
#######################################################################

data_YEZQEB
_chemical_formula_moiety         'C17 H23 N1 O2'
_chemical_name_systematic        
1-Methoxy-8-methyl-10-phenyl-3,4,5,6,9,10-hexahydroazecin-2(1H)-one
_symmetry_cell_setting           orthorhombic
_symmetry_space_group_name_H-M   'P 21 21 21'
_symmetry_Int_Tables_number      19
_space_group_name_Hall           'P 2ac 2ab'
loop_
_symmetry_equiv_pos_site_id
_symmetry_equiv_pos_as_xyz
1 x,y,z
2 1/2-x,-y,1/2+z
3 -x,1/2+y,1/2-z
4 1/2+x,1/2-y,-z
_cell_length_a                   8.059(4)
_cell_length_b                   12.224(5)
_cell_length_c                   15.477(7)
_cell_angle_alpha                90
_cell_angle_beta                 90
_cell_angle_gamma                90
_cell_volume                     1524.69
_exptl_crystal_colour            colorless
_exptl_crystal_description       block
_cell_formula_units_Z            4
loop_
_atom_site_label
_atom_site_type_symbol
_atom_site_fract_x
_atom_site_fract_y
_atom_site_fract_z
N1 N 0.13090(16) 0.53903(10) 0.70409(8)
O1 O 0.13943(16) 0.47182(9) 0.83908(7)
O2 O 0.22900(14) 0.57704(9) 0.63500(7)
C1 C 0.2136(2) 0.49315(13) 0.77298(10)
C2 C 0.3925(2) 0.45999(18) 0.75984(13)
H1 H 0.4361 0.4988 0.7101
H2 H 0.3964 0.3824 0.7469
C3 C 0.5038(3) 0.48273(19) 0.83732(12)
H3 H 0.4400 0.4692 0.8894
H4 H 0.5943 0.4304 0.8364
C4 C 0.5775(2) 0.5965(2) 0.84364(14)
H5 H 0.6235 0.6153 0.7876
H6 H 0.6691 0.5938 0.8843
C5 C 0.4613(3) 0.68874(17) 0.87133(12)
H7 H 0.4089 0.6688 0.9255
H8 H 0.5264 0.7543 0.8814
C6 C 0.3306(2) 0.71359(14) 0.80690(10)
H9 H 0.3669 0.7240 0.7505
C7 C 0.1684(2) 0.72293(12) 0.81945(10)
C8 C 0.0541(2) 0.72816(14) 0.74328(11)
H10 H 0.1126 0.7591 0.6942
H11 H -0.0391 0.7754 0.7566
C9 C -0.00969(18) 0.61309(12) 0.71986(9)
H12 H -0.0684 0.5851 0.7707
C10 C 0.0875(3) 0.71690(18) 0.90626(12)
H13 H 0.1713 0.7138 0.9503
H14 H 0.0197 0.6525 0.9093
H15 H 0.0197 0.7805 0.9149
C11 C -0.12987(18) 0.60793(12) 0.64516(9)
C12 C -0.1646(2) 0.69665(15) 0.59269(12)
H16 H -0.1163 0.7642 0.6042
C13 C -0.2708(3) 0.68507(19) 0.52329(14)
H17 H -0.2924 0.7449 0.4880
C14 C -0.3449(2) 0.58676(17) 0.50572(12)
H18 H -0.4161 0.5797 0.4588
C15 C -0.3127(2) 0.49868(17) 0.55817(12)
H19 H -0.3624 0.4315 0.5469
C16 C -0.2070(2) 0.50976(15) 0.62735(11)
H20 H -0.1871 0.4498 0.6629
C17 C 0.2188(3) 0.5017(2) 0.56424(10)
H21 H 0.2624 0.4321 0.5817
H22 H 0.2822 0.5293 0.5164
H23 H 0.1050 0.4934 0.5472
loop_
_geom_bond_atom_site_label_1
_geom_bond_atom_site_label_2
_geom_bond_site_symmetry_1
_geom_bond_site_symmetry_2
N1 O2 1_555 1_555
O1 C1 1_555 1_555
O2 C17 1_555 1_555
C1 N1 1_555 1_555
C2 C1 1_555 1_555
H1 C2 1_555 1_555
H2 C2 1_555 1_555
C3 C2 1_555 1_555
H3 C3 1_555 1_555
H4 C3 1_555 1_555
C4 C3 1_555 1_555
H5 C4 1_555 1_555
H6 C4 1_555 1_555
C5 C4 1_555 1_555
H7 C5 1_555 1_555
H8 C5 1_555 1_555
C6 C5 1_555 1_555
H9 C6 1_555 1_555
C7 C6 1_555 1_555
C8 C7 1_555 1_555
H10 C8 1_555 1_555
H11 C8 1_555 1_555
C9 N1 1_555 1_555
H12 C9 1_555 1_555
C10 C7 1_555 1_555
H13 C10 1_555 1_555
H14 C10 1_555 1_555
H15 C10 1_555 1_555
C11 C9 1_555 1_555
C12 C11 1_555 1_555
H16 C12 1_555 1_555
C13 C12 1_555 1_555
H17 C13 1_555 1_555
C14 C13 1_555 1_555
H18 C14 1_555 1_555
C15 C14 1_555 1_555
H19 C15 1_555 1_555
C16 C11 1_555 1_555
H20 C16 1_555 1_555
C17 H21 1_555 1_555
H22 C17 1_555 1_555
H23 C17 1_555 1_555
C8 C9 1_555 1_555
C15 C16 1_555 1_555

#END
