
#######################################################################
#
#                 Cambridge Crystallographic Data Centre
#                                CCDC 
#
#######################################################################
#
# If this CIF has been generated from an entry in the Cambridge 
# Structural Database, then it will include bibliographic, chemical, 
# crystal, experimental, refinement or atomic coordinate data resulting 
# from the CCDC's data processing and validation procedures.
#
#######################################################################

data_YEZRAZ
_chemical_formula_moiety         'C52 H43 B1 N6,0.5(C4 H8 O2)'
_chemical_name_systematic        
"(4-methylphenyl)[N,N,N',N'-tetramethyl-20,25-bis(4-methylphenyl)-9,18,27,30-tetraazaoctacyclo[15.10.1.1^2,26^.1^16,19^.1^21,24^.0^3,8^.0^9,28^.0^10,15^]hentriaconta-1(28),2(29),3,5,7,10,12,14,16,19(31),20,22,24,26-tetradecaene-5,13-diaminato]boron ethyl acetate solvate"
_symmetry_cell_setting           monoclinic
_symmetry_space_group_name_H-M   'P 21/n'
_symmetry_Int_Tables_number      14
_space_group_name_Hall           '-P 2yn'
loop_
_symmetry_equiv_pos_site_id
_symmetry_equiv_pos_as_xyz
1 x,y,z
2 1/2-x,1/2+y,1/2-z
3 -x,-y,-z
4 1/2+x,1/2-y,1/2+z
_cell_length_a                   15.866(3)
_cell_length_b                   14.777(2)
_cell_length_c                   17.648(2)
_cell_angle_alpha                90
_cell_angle_beta                 94.349(5)
_cell_angle_gamma                90
_cell_volume                     4125.69
_exptl_crystal_colour            red
_exptl_crystal_description       Prism
_cell_formula_units_Z            4
loop_
_atom_site_label
_atom_site_type_symbol
_atom_site_fract_x
_atom_site_fract_y
_atom_site_fract_z
C1 C 0.24481(8) 0.26118(9) 0.28449(7)
H1 H 0.2316 0.2725 0.3352
C2 C 0.36919(8) 0.29442(9) -0.01817(7)
H2 H 0.4262 0.3101 -0.0248
B1 B 0.19349(9) 0.19545(10) 0.08447(8)
N1 N 0.23136(6) 0.22894(7) 0.16022(6)
N2 N 0.25427(6) 0.23253(7) 0.02891(6)
C3 C 0.09949(8) 0.27990(9) 0.20427(7)
C4 C 0.02217(8) 0.35160(9) 0.01226(7)
C5 C 0.46695(8) 0.23727(9) 0.13747(7)
C6 C 0.08951(8) 0.29227(9) 0.00330(7)
C7 C 0.18428(8) 0.25413(9) 0.21915(7)
C8 C 0.32401(8) 0.24882(9) 0.26120(7)
H3 H 0.3752 0.2502 0.2928
C9 C 0.31674(8) 0.23315(9) 0.17980(7)
C10 C 0.37395(8) 0.23566(9) 0.12260(7)
C11 C 0.29898(8) 0.31264(9) -0.06897(7)
C12 C 0.22912(8) 0.27445(9) -0.03734(7)
C13 C 0.00664(8) 0.34874(9) 0.08917(7)
H4 H -0.0363 0.3807 0.1126
C14 C 0.06737(8) 0.28883(9) 0.12586(7)
C15 C 0.50896(9) 0.28737(10) 0.19582(8)
H5 H 0.4772 0.3223 0.2287
C16 C 0.59658(9) 0.28681(11) 0.20652(9)
H6 H 0.6235 0.3206 0.2473
C17 C 0.64584(8) 0.23802(10) 0.15900(8)
C18 C 0.60402(8) 0.18853(10) 0.10071(8)
H7 H 0.6360 0.1544 0.0674
C19 C 0.51672(8) 0.18786(10) 0.09019(8)
H8 H 0.4900 0.1531 0.0499
C20 C 0.74105(9) 0.24061(12) 0.16934(9)
H9 H 0.7606 0.3030 0.1638
H10 H 0.7647 0.2023 0.1308
H11 H 0.7598 0.2182 0.2201
C21 C 0.07978(8) 0.37519(9) 0.32015(7)
H12 H 0.1383 0.3898 0.3235
C22 C 0.02789(9) 0.41279(9) 0.37176(8)
H13 H 0.0517 0.4527 0.4098
C23 C -0.09001(8) 0.33287(9) 0.31370(7)
H14 H -0.1481 0.3166 0.3118
C24 C -0.03909(8) 0.29581(9) 0.26123(7)
H15 H -0.0632 0.2560 0.2232
C25 C -0.11500(9) 0.43798(10) 0.42234(8)
H16 H -0.0817 0.4572 0.4686
H17 H -0.1584 0.3949 0.4356
H18 H -0.1421 0.4909 0.3974
C26 C 0.18013(8) 0.08764(9) 0.07545(7)
C27 C 0.10068(8) 0.04667(10) 0.07073(8)
H19 H 0.0522 0.0829 0.0769
C28 C 0.09036(9) -0.04547(10) 0.05731(8)
H20 H 0.0352 -0.0709 0.0550
C29 C 0.15920(9) -0.10115(9) 0.04723(7)
C30 C 0.23892(8) -0.06179(9) 0.05328(7)
H21 H 0.2873 -0.0983 0.0475
C31 C 0.14650(10) -0.19996(10) 0.02804(9)
H22 H 0.1157 -0.2292 0.0674
H23 H 0.2016 -0.2292 0.0254
H24 H 0.1139 -0.2056 -0.0212
C32 C 0.27941(8) 0.37129(9) -0.13408(7)
C33 C 0.34449(8) 0.40608(9) -0.17506(7)
H25 H 0.4009 0.3872 -0.1619
C34 C 0.32895(8) 0.46740(9) -0.23432(7)
C35 C 0.24522(9) 0.49824(10) -0.24759(8)
H26 H 0.2332 0.5439 -0.2848
C36 C 0.17999(8) 0.46469(9) -0.20868(7)
H27 H 0.1246 0.4880 -0.2195
C37 C 0.19353(8) 0.39667(9) -0.15332(7)
C38 C 0.37178(11) 0.52643(15) -0.35527(9)
H28 H 0.3633 0.4718 -0.3864
H29 H 0.4182 0.5621 -0.3736
H30 H 0.3199 0.5626 -0.3589
C39 C -0.09188(8) 0.43132(9) -0.06624(7)
H31 H -0.1228 0.4375 -0.0225
C40 C -0.13001(9) 0.45777(10) -0.13678(8)
C41 C -0.08328(9) 0.44399(9) -0.20054(8)
H32 H -0.1087 0.4571 -0.2498
C42 C -0.24698(10) 0.53164(13) -0.08117(10)
H33 H -0.2559 0.4855 -0.0427
H34 H -0.3013 0.5595 -0.0981
H35 H -0.2084 0.5782 -0.0593
C43 C -0.25936(9) 0.49594(11) -0.21597(8)
H36 H -0.2410 0.5487 -0.2441
H37 H -0.3197 0.5015 -0.2084
H38 H -0.2497 0.4408 -0.2449
N3 N 0.11293(6) 0.25133(7) 0.07049(6)
N4 N 0.12525(6) 0.35973(8) -0.11397(6)
N5 N 0.39252(7) 0.50091(9) -0.27669(7)
C44 C 0.04709(8) 0.31617(9) 0.26338(7)
N6 N -0.21183(9) 0.49134(13) -0.14330(8)
C45 C 0.33901(8) 0.24804(9) 0.04514(7)
C46 C 0.14521(8) 0.30123(9) -0.05438(7)
C47 C -0.05784(8) 0.39350(9) 0.36912(7)
C48 C -0.01019(8) 0.39628(9) -0.05769(7)
C49 C -0.00145(8) 0.41192(9) -0.19310(7)
H39 H 0.0281 0.4034 -0.2374
C50 C 0.03914(8) 0.39166(9) -0.12200(7)
C51 C 0.24908(8) 0.03007(9) 0.06759(7)
H40 H 0.3045 0.0547 0.0722
C52 C 0.47871(9) 0.47065(11) -0.25864(9)
H41 H 0.4934 0.4776 -0.2040
H42 H 0.5173 0.5071 -0.2870
H43 H 0.4837 0.4068 -0.2727
C53? C 0.4179(2) 0.5940(3) -0.0025(2)
H44? H 0.3715 0.5571 -0.0272
H45? H 0.4449 0.6285 -0.0421
C54? C 0.3840(2) 0.6573(3) 0.0547(2)
H46? H 0.3597 0.6222 0.0947
H47? H 0.3402 0.6959 0.0293
H48? H 0.4300 0.6953 0.0771
O1? O 0.4797(2) 0.5360(3) 0.0391(2)
O2? O 0.5197(2) 0.4845(3) -0.0723(2)
C55? C 0.5876(2) 0.4268(3) 0.0445(3)
H49? H 0.5578 0.3985 0.0850
H50? H 0.6335 0.4647 0.0670
H51? H 0.6109 0.3797 0.0131
C56? C 0.5273(3) 0.4839(3) -0.0036(3)
loop_
_geom_bond_atom_site_label_1
_geom_bond_atom_site_label_2
_geom_bond_site_symmetry_1
_geom_bond_site_symmetry_2
C1 H1 1_555 1_555
C2 H2 1_555 1_555
B1 N1 1_555 1_555
N1 C7 1_555 1_555
N2 B1 1_555 1_555
C3 C7 1_555 1_555
C4 C6 1_555 1_555
C5 C10 1_555 1_555
C6 N3 1_555 1_555
C7 C1 1_555 1_555
C8 C1 1_555 1_555
H3 C8 1_555 1_555
C9 N1 1_555 1_555
C10 C9 1_555 1_555
C11 C2 1_555 1_555
C12 N2 1_555 1_555
C13 C4 1_555 1_555
H4 C13 1_555 1_555
C14 C3 1_555 1_555
C15 C5 1_555 1_555
H5 C15 1_555 1_555
C16 C15 1_555 1_555
H6 C16 1_555 1_555
C17 C16 1_555 1_555
C18 C17 1_555 1_555
H7 C18 1_555 1_555
C19 C5 1_555 1_555
H8 C19 1_555 1_555
C20 C17 1_555 1_555
H9 C20 1_555 1_555
H10 C20 1_555 1_555
H11 C20 1_555 1_555
C21 H12 1_555 1_555
C22 C21 1_555 1_555
H13 C22 1_555 1_555
C23 H14 1_555 1_555
C24 C23 1_555 1_555
H15 C24 1_555 1_555
C25 H16 1_555 1_555
H17 C25 1_555 1_555
H18 C25 1_555 1_555
C26 B1 1_555 1_555
C27 C26 1_555 1_555
H19 C27 1_555 1_555
C28 C27 1_555 1_555
H20 C28 1_555 1_555
C29 C28 1_555 1_555
C30 C29 1_555 1_555
H21 C30 1_555 1_555
C31 C29 1_555 1_555
H22 C31 1_555 1_555
H23 C31 1_555 1_555
H24 C31 1_555 1_555
C32 C11 1_555 1_555
C33 C32 1_555 1_555
H25 C33 1_555 1_555
C34 C33 1_555 1_555
C35 C34 1_555 1_555
H26 C35 1_555 1_555
C36 C35 1_555 1_555
H27 C36 1_555 1_555
C37 C32 1_555 1_555
C38 H28 1_555 1_555
H29 C38 1_555 1_555
H30 C38 1_555 1_555
C39 H31 1_555 1_555
C40 C39 1_555 1_555
C41 C40 1_555 1_555
H32 C41 1_555 1_555
C42 H33 1_555 1_555
H34 C42 1_555 1_555
H35 C42 1_555 1_555
C43 H36 1_555 1_555
H37 C43 1_555 1_555
H38 C43 1_555 1_555
N3 B1 1_555 1_555
N4 C37 1_555 1_555
N5 C34 1_555 1_555
C44 C3 1_555 1_555
N6 C40 1_555 1_555
C45 C2 1_555 1_555
C46 C6 1_555 1_555
C47 C22 1_555 1_555
C48 C4 1_555 1_555
C49 C41 1_555 1_555
H39 C49 1_555 1_555
C50 N4 1_555 1_555
C51 C26 1_555 1_555
H40 C51 1_555 1_555
C52 N5 1_555 1_555
H41 C52 1_555 1_555
H42 C52 1_555 1_555
H43 C52 1_555 1_555
N2 C45 1_555 1_555
C8 C9 1_555 1_555
C10 C45 1_555 1_555
C11 C12 1_555 1_555
C12 C46 1_555 1_555
C13 C14 1_555 1_555
C14 N3 1_555 1_555
C18 C19 1_555 1_555
C21 C44 1_555 1_555
C23 C47 1_555 1_555
C24 C44 1_555 1_555
C25 C47 1_555 1_555
C30 C51 1_555 1_555
C36 C37 1_555 1_555
C38 N5 1_555 1_555
C39 C48 1_555 1_555
C42 N6 1_555 1_555
C43 N6 1_555 1_555
N4 C46 1_555 1_555
C48 C50 1_555 1_555
C49 C50 1_555 1_555

#END
