
#######################################################################
#
#                 Cambridge Crystallographic Data Centre
#                                CCDC 
#
#######################################################################
#
# If this CIF has been generated from an entry in the Cambridge 
# Structural Database, then it will include bibliographic, chemical, 
# crystal, experimental, refinement or atomic coordinate data resulting 
# from the CCDC's data processing and validation procedures.
#
#######################################################################

data_YEZRIH
_chemical_formula_moiety         'C24 H26 N3 O1'
_chemical_name_systematic        
'[4,7-bis(4-aminophenyl)-1,1,3,3-tetramethyl-1,3-dihydro-2H-isoindol-2-yl]oxidanyl radical'
_symmetry_cell_setting           tetragonal
_symmetry_space_group_name_H-M   'I -4'
_symmetry_Int_Tables_number      82
_space_group_name_Hall           'I -4'
loop_
_symmetry_equiv_pos_site_id
_symmetry_equiv_pos_as_xyz
1 x,y,z
2 y,-x,-z
3 -x,-y,z
4 -y,x,-z
5 1/2+x,1/2+y,1/2+z
6 1/2+y,1/2-x,1/2-z
7 1/2-x,1/2-y,1/2+z
8 1/2-y,1/2+x,1/2-z
_cell_length_a                   17.4658(8)
_cell_length_b                   17.4658(8)
_cell_length_c                   15.8447(9)
_cell_angle_alpha                90
_cell_angle_beta                 90
_cell_angle_gamma                90
_cell_volume                     4833.49
_cell_formula_units_Z            8
loop_
_atom_site_label
_atom_site_type_symbol
_atom_site_fract_x
_atom_site_fract_y
_atom_site_fract_z
O1 O -0.1831(6) -0.2072(4) -0.0512(5)
N1 N -0.3767(6) -0.4878(5) -0.4646(6)
H1 H -0.4194 -0.4738 -0.4867
H2 H -0.3430 -0.5109 -0.4949
N2 N -0.2327(8) -0.4454(6) 0.4179(5)
H3 H -0.1847 -0.4356 0.4297
H4 H -0.2607 -0.4090 0.4400
N3 N -0.2151(6) -0.2728(5) -0.0448(6)
C1 C -0.2830(7) -0.4927(7) -0.2586(7)
H5 H -0.2385 -0.5131 -0.2355
C2 C -0.2966(7) -0.5018(7) -0.3441(7)
H6 H -0.2611 -0.5274 -0.3776
C3 C -0.3621(7) -0.4733(6) -0.3796(6)
C4 C -0.4132(7) -0.4371(7) -0.3286(7)
H7 H -0.4579 -0.4178 -0.3523
C5 C -0.4018(7) -0.4280(7) -0.2453(7)
H8 H -0.4391 -0.4041 -0.2126
C6 C -0.3335(6) -0.4543(6) -0.2067(6)
C7 C -0.3192(6) -0.4449(6) -0.1129(6)
C8 C -0.3468(8) -0.5013(6) -0.0601(7)
H9 H -0.3764 -0.5406 -0.0826
C9 C -0.3316(7) -0.5008(6) 0.0256(7)
H10 H -0.3495 -0.5408 0.0590
C10 C -0.2908(6) -0.4431(6) 0.0621(6)
C11 C -0.2666(6) -0.3834(5) 0.0104(6)
C12 C -0.2801(6) -0.3852(5) -0.0756(6)
C13 C -0.2467(7) -0.3120(7) -0.1202(6)
C14 C -0.2245(7) -0.3116(7) 0.0381(6)
C15 C -0.2749(6) -0.4451(6) 0.1555(6)
C16 C -0.3266(7) -0.4173(6) 0.2131(7)
H11 H -0.3729 -0.3975 0.1937
C17 C -0.3119(8) -0.4178(6) 0.3008(7)
H12 H -0.3479 -0.3981 0.3383
C18 C -0.2439(8) -0.4478(6) 0.3305(7)
C19 C -0.1954(7) -0.4826(8) 0.2734(7)
H13 H -0.1525 -0.5085 0.2933
C20 C -0.2089(8) -0.4800(7) 0.1884(7)
H14 H -0.1736 -0.5018 0.1516
C21 C -0.1849(7) -0.3271(9) -0.1823(8)
H15 H -0.1446 -0.3555 -0.1556
H16 H -0.1651 -0.2793 -0.2028
H17 H -0.2052 -0.3561 -0.2286
C22 C -0.3101(8) -0.2630(6) -0.1577(8)
H18 H -0.3353 -0.2909 -0.2019
H19 H -0.2885 -0.2168 -0.1804
H20 H -0.3465 -0.2504 -0.1145
C23 C -0.1462(10) -0.3245(11) 0.0785(11)
H21 H -0.1528 -0.3438 0.1348
H22 H -0.1187 -0.2769 0.0805
H23 H -0.1178 -0.3609 0.0457
C24 C -0.2741(11) -0.2587(8) 0.0936(8)
H24 H -0.3269 -0.2639 0.0776
H25 H -0.2583 -0.2065 0.0858
H26 H -0.2681 -0.2727 0.1518
loop_
_geom_bond_atom_site_label_1
_geom_bond_atom_site_label_2
_geom_bond_site_symmetry_1
_geom_bond_site_symmetry_2
O1 N3 1_555 1_555
N1 H1 1_555 1_555
H2 N1 1_555 1_555
N2 H3 1_555 1_555
H4 N2 1_555 1_555
N3 C13 1_555 1_555
C1 H5 1_555 1_555
C2 C1 1_555 1_555
H6 C2 1_555 1_555
C3 N1 1_555 1_555
C4 C3 1_555 1_555
H7 C4 1_555 1_555
C5 C4 1_555 1_555
H8 C5 1_555 1_555
C6 C1 1_555 1_555
C7 C6 1_555 1_555
C8 C7 1_555 1_555
H9 C8 1_555 1_555
C9 C8 1_555 1_555
H10 C9 1_555 1_555
C10 C9 1_555 1_555
C11 C10 1_555 1_555
C12 C7 1_555 1_555
C13 C12 1_555 1_555
C14 N3 1_555 1_555
C15 C10 1_555 1_555
C16 C15 1_555 1_555
H11 C16 1_555 1_555
C17 C16 1_555 1_555
H12 C17 1_555 1_555
C18 N2 1_555 1_555
C19 C18 1_555 1_555
H13 C19 1_555 1_555
C20 C15 1_555 1_555
H14 C20 1_555 1_555
C21 C13 1_555 1_555
H15 C21 1_555 1_555
H16 C21 1_555 1_555
H17 C21 1_555 1_555
C22 C13 1_555 1_555
H18 C22 1_555 1_555
H19 C22 1_555 1_555
H20 C22 1_555 1_555
C23 C14 1_555 1_555
H21 C23 1_555 1_555
H22 C23 1_555 1_555
H23 C23 1_555 1_555
C24 C14 1_555 1_555
H24 C24 1_555 1_555
H25 C24 1_555 1_555
H26 C24 1_555 1_555
C2 C3 1_555 1_555
C5 C6 1_555 1_555
C11 C12 1_555 1_555
C11 C14 1_555 1_555
C17 C18 1_555 1_555
C19 C20 1_555 1_555

#END
