
#######################################################################
#
#                 Cambridge Crystallographic Data Centre
#                                CCDC 
#
#######################################################################
#
# If this CIF has been generated from an entry in the Cambridge 
# Structural Database, then it will include bibliographic, chemical, 
# crystal, experimental, refinement or atomic coordinate data resulting 
# from the CCDC's data processing and validation procedures.
#
#######################################################################

data_YEZTII
_chemical_formula_moiety         'C26 H21 Br1 N2 O2'
_chemical_name_systematic        
(1'-Benzyl-5-bromo-5'-methyl-2'-oxo-1',2'-dihydro-1H,3'H-3,3'-biindol-3'-yl)acetaldehyde
_symmetry_cell_setting           monoclinic
_symmetry_space_group_name_H-M   'P 21'
_symmetry_Int_Tables_number      4
_space_group_name_Hall           'P 2yb'
loop_
_symmetry_equiv_pos_site_id
_symmetry_equiv_pos_as_xyz
1 x,y,z
2 -x,1/2+y,-z
_cell_length_a                   6.2078(6)
_cell_length_b                   14.3876(13)
_cell_length_c                   14.9337(13)
_cell_angle_alpha                90
_cell_angle_beta                 98.625(3)
_cell_angle_gamma                90
_cell_volume                     1318.72
_exptl_crystal_colour            colorless
_exptl_crystal_description       block
_cell_formula_units_Z            2
loop_
_atom_site_label
_atom_site_type_symbol
_atom_site_fract_x
_atom_site_fract_y
_atom_site_fract_z
Br1 Br 0.23992(8) 0.38168(4) 2.70474(3)
O1 O 0.9149(6) 0.3864(4) 2.3398(3)
O2 O 0.4440(6) 0.3438(2) 2.3920(2)
N1 N 0.5280(8) 0.0317(3) 2.5418(3)
H1 H 0.5082 -0.0263 2.5516
N2 N 0.5141(7) 0.2490(3) 2.2773(3)
C1 C 0.3981(9) 0.3216(5) 2.1267(4)
C2 C 1.2380(9) 0.0083(5) 2.2702(5)
H2 H 1.2378 -0.0201 2.2120
H3 H 1.2340 -0.0391 2.3151
H4 H 1.3677 0.0449 2.2853
C3 C 0.5895(11) 0.3697(8) 2.1291(5)
H5 H 0.6837 0.3737 2.1837
C4 C 0.6476(15) 0.4128(8) 2.0532(7)
H6 H 0.7798 0.4437 2.0551
C5 C 0.4912(15) 0.4072(7) 1.9700(7)
H7 H 0.5182 0.4392 1.9187
C6 C 0.3131(18) 0.3577(7) 1.9669(5)
H8 H 0.2184 0.3513 1.9128
C7 C 0.2665(14) 0.3142(5) 2.0460(5)
H9 H 0.1400 0.2790 2.0429
C8 C 0.4478(9) 0.1045(4) 2.5882(4)
C9 C 0.3183(10) 0.1020(4) 2.6563(4)
H10 H 0.2747 0.0457 2.6785
C10 C 0.2562(11) 0.1856(5) 2.6899(4)
H11 H 0.1662 0.1867 2.7344
C11 C 0.3310(9) 0.2694(4) 2.6560(4)
C12 C 0.4561(8) 0.2740(4) 2.5877(4)
H12 H 0.4994 0.3307 2.5663
C13 C 0.5153(9) 0.1901(4) 2.5520(4)
C14 C 0.6362(8) 0.1615(4) 2.4809(4)
C15 C 0.6443(9) 0.0670(4) 2.4778(4)
H13 H 0.7162 0.0321 2.4390
C16 C 0.6809(8) 0.1858(4) 2.2626(3)
C17 C 0.7093(8) 0.1399(5) 2.1851(4)
H14 H 0.6121 0.1465 2.1317
C18 C 0.8938(9) 0.0822(4) 2.1907(4)
H15 H 0.9173 0.0503 2.1389
C19 C 1.0396(8) 0.0704(4) 2.2672(4)
C20 C 1.0071(9) 0.1181(4) 2.3466(4)
H16 H 1.1065 0.1119 2.3994
C21 C 0.8266(8) 0.1739(4) 2.3451(4)
C22 C 0.7412(8) 0.2294(4) 2.4197(3)
C23 C 0.5512(7) 0.2833(4) 2.3638(3)
C24 C 0.9071(8) 0.2918(5) 2.4723(4)
H17 H 1.0343 0.2551 2.4955
H18 H 0.8474 0.3165 2.5238
C25 C 0.9773(8) 0.3716(6) 2.4183(4)
H19 H 1.0779 0.4130 2.4485
C26 C 0.3356(10) 0.2804(5) 2.2089(4)
H20 H 0.2510 0.3259 2.2367
H21 H 0.2410 0.2278 2.1913
loop_
_geom_bond_atom_site_label_1
_geom_bond_atom_site_label_2
_geom_bond_site_symmetry_1
_geom_bond_site_symmetry_2
Br1 C11 1_555 1_555
O1 C25 1_555 1_555
O2 C23 1_555 1_555
N1 H1 1_555 1_555
N2 C16 1_555 1_555
C1 C3 1_555 1_555
C2 H2 1_555 1_555
H3 C2 1_555 1_555
H4 C2 1_555 1_555
C3 H5 1_555 1_555
C4 C3 1_555 1_555
H6 C4 1_555 1_555
C5 C4 1_555 1_555
H7 C5 1_555 1_555
C6 C5 1_555 1_555
H8 C6 1_555 1_555
C7 C1 1_555 1_555
H9 C7 1_555 1_555
C8 N1 1_555 1_555
C9 C8 1_555 1_555
H10 C9 1_555 1_555
C10 C9 1_555 1_555
H11 C10 1_555 1_555
C11 C10 1_555 1_555
C12 C11 1_555 1_555
H12 C12 1_555 1_555
C13 C8 1_555 1_555
C14 C13 1_555 1_555
C15 N1 1_555 1_555
H13 C15 1_555 1_555
C16 C17 1_555 1_555
C17 H14 1_555 1_555
C18 C17 1_555 1_555
H15 C18 1_555 1_555
C19 C2 1_555 1_555
C20 C19 1_555 1_555
H16 C20 1_555 1_555
C21 C16 1_555 1_555
C22 C14 1_555 1_555
C23 N2 1_555 1_555
C24 C22 1_555 1_555
H17 C24 1_555 1_555
H18 C24 1_555 1_555
C25 C24 1_555 1_555
H19 C25 1_555 1_555
C26 N2 1_555 1_555
H20 C26 1_555 1_555
H21 C26 1_555 1_555
C1 C26 1_555 1_555
C6 C7 1_555 1_555
C12 C13 1_555 1_555
C14 C15 1_555 1_555
C18 C19 1_555 1_555
C20 C21 1_555 1_555
C21 C22 1_555 1_555
C22 C23 1_555 1_555

#END
