
#######################################################################
#
#                 Cambridge Crystallographic Data Centre
#                                CCDC 
#
#######################################################################
#
# If this CIF has been generated from an entry in the Cambridge 
# Structural Database, then it will include bibliographic, chemical, 
# crystal, experimental, refinement or atomic coordinate data resulting 
# from the CCDC's data processing and validation procedures.
#
#######################################################################

data_YEZTOO
_chemical_formula_moiety         'C17 H13 N1 O2'
_chemical_name_systematic        
(1-Benzyl-2-oxo-1,2-dihydro-3H-indol-3-ylidene)acetaldehyde
_symmetry_cell_setting           monoclinic
_symmetry_space_group_name_H-M   'P 21/c'
_symmetry_Int_Tables_number      14
_space_group_name_Hall           '-P 2ybc'
loop_
_symmetry_equiv_pos_site_id
_symmetry_equiv_pos_as_xyz
1 x,y,z
2 -x,1/2+y,1/2-z
3 -x,-y,-z
4 x,1/2-y,1/2+z
_cell_length_a                   7.2349(8)
_cell_length_b                   18.662(2)
_cell_length_c                   10.0294(11)
_cell_angle_alpha                90
_cell_angle_beta                 104.708(3)
_cell_angle_gamma                90
_cell_volume                     1309.77
_exptl_crystal_colour            colorless
_exptl_crystal_description       block
_cell_formula_units_Z            4
loop_
_atom_site_label
_atom_site_type_symbol
_atom_site_fract_x
_atom_site_fract_y
_atom_site_fract_z
N1 N 0.24682(15) 0.61880(6) 0.42313(11)
O1 O 0.26706(16) 0.70735(5) 0.58592(12)
O2 O 0.2938(2) 0.54665(8) 0.99903(12)
C1 C 0.24168(16) 0.54359(7) 0.42265(12)
C2 C 0.22410(19) 0.49812(8) 0.31230(13)
H1 H 0.2132 0.5157 0.2239
C3 C 0.2232(2) 0.42519(8) 0.33763(15)
H2 H 0.2113 0.3933 0.2646
C4 C 0.2394(2) 0.39859(8) 0.46831(15)
H3 H 0.2383 0.3494 0.4823
C5 C 0.25736(19) 0.44460(7) 0.57828(14)
H4 H 0.2685 0.4266 0.6664
C6 C 0.25868(16) 0.51797(7) 0.55672(12)
C7 C 0.27243(17) 0.58050(7) 0.64570(13)
C8 C 0.26257(18) 0.64464(7) 0.55280(14)
C9 C 0.2266(2) 0.66446(8) 0.30152(15)
H5 H 0.2925 0.6424 0.2390
H6 H 0.2863 0.7105 0.3297
C10 C 0.01989(19) 0.67602(7) 0.22716(13)
C11 C -0.0955(2) 0.71934(7) 0.28436(15)
H7 H -0.0435 0.7432 0.3668
C12 C -0.2868(2) 0.72723(8) 0.21982(16)
H8 H -0.3631 0.7562 0.2592
C13 C -0.3653(2) 0.69264(8) 0.09783(16)
H9 H -0.4946 0.6979 0.0550
C14 C -0.2526(2) 0.65040(9) 0.03968(15)
H10 H -0.3052 0.6269 -0.0431
C15 C -0.0603(2) 0.64243(9) 0.10355(15)
H11 H 0.0157 0.6141 0.0626
C16 C 0.2860(2) 0.59066(8) 0.77996(14)
H12 H 0.2907 0.6378 0.8107
C17 C 0.2938(3) 0.53534(10) 0.88085(15)
H13 H 0.2992 0.4880 0.8532
loop_
_geom_bond_atom_site_label_1
_geom_bond_atom_site_label_2
_geom_bond_site_symmetry_1
_geom_bond_site_symmetry_2
N1 C1 1_555 1_555
O1 C8 1_555 1_555
O2 C17 1_555 1_555
C1 C2 1_555 1_555
C2 H1 1_555 1_555
C3 C2 1_555 1_555
H2 C3 1_555 1_555
C4 C3 1_555 1_555
H3 C4 1_555 1_555
C5 C4 1_555 1_555
H4 C5 1_555 1_555
C6 C1 1_555 1_555
C7 C6 1_555 1_555
C8 N1 1_555 1_555
C9 N1 1_555 1_555
H5 C9 1_555 1_555
H6 C9 1_555 1_555
C10 C9 1_555 1_555
C11 C10 1_555 1_555
H7 C11 1_555 1_555
C12 C11 1_555 1_555
H8 C12 1_555 1_555
C13 C12 1_555 1_555
H9 C13 1_555 1_555
C14 C13 1_555 1_555
H10 C14 1_555 1_555
C15 C10 1_555 1_555
H11 C15 1_555 1_555
C16 C7 1_555 1_555
H12 C16 1_555 1_555
C17 C16 1_555 1_555
H13 C17 1_555 1_555
C5 C6 1_555 1_555
C7 C8 1_555 1_555
C14 C15 1_555 1_555

#END
