
#######################################################################
#
#                 Cambridge Crystallographic Data Centre
#                                CCDC 
#
#######################################################################
#
# If this CIF has been generated from an entry in the Cambridge 
# Structural Database, then it will include bibliographic, chemical, 
# crystal, experimental, refinement or atomic coordinate data resulting 
# from the CCDC's data processing and validation procedures.
#
#######################################################################

data_YIBCEU
_chemical_formula_moiety         'C24 H18 O3 S1'
_chemical_name_systematic        
1-[2-phenyl-1-(phenylsulfonyl)ethenyl]naphthalen-2-ol
_symmetry_cell_setting           orthorhombic
_symmetry_space_group_name_H-M   'P 21 21 21'
_symmetry_Int_Tables_number      19
_space_group_name_Hall           'P 2ac 2ab'
loop_
_symmetry_equiv_pos_site_id
_symmetry_equiv_pos_as_xyz
1 x,y,z
2 1/2-x,-y,1/2+z
3 -x,1/2+y,1/2-z
4 1/2+x,1/2-y,-z
_cell_length_a                   10.0521(4)
_cell_length_b                   12.6929(8)
_cell_length_c                   15.0985(8)
_cell_angle_alpha                90
_cell_angle_beta                 90
_cell_angle_gamma                90
_cell_volume                     1926.42
_exptl_crystal_colour            colorless
_exptl_crystal_description       Block
_cell_formula_units_Z            4
loop_
_atom_site_label
_atom_site_type_symbol
_atom_site_fract_x
_atom_site_fract_y
_atom_site_fract_z
S1 S 0.58271(7) 0.36116(6) 0.34715(5)
O1 O 0.3480(2) 0.29407(19) 0.50887(14)
H1 H 0.3020 0.2521 0.5365
O2 O 0.5203(2) 0.26044(18) 0.33678(16)
O3 O 0.7130(2) 0.3652(2) 0.38862(14)
C1 C 0.2715(3) 0.3442(3) 0.44684(19)
C2 C 0.4733(3) 0.4461(3) 0.40790(19)
C3 C 0.3289(3) 0.4212(3) 0.39584(19)
C4 C 0.2512(3) 0.4737(3) 0.3301(2)
C5 C 0.1371(3) 0.3156(3) 0.4352(2)
H2 H 0.0997 0.2635 0.4707
C6 C 0.5335(3) 0.5189(3) 0.4572(2)
H3 H 0.6259 0.5174 0.4541
C7 C 0.5987(3) 0.4201(3) 0.2416(2)
C8 C 0.1152(3) 0.4439(3) 0.31853(19)
C9 C 0.3020(3) 0.5544(3) 0.2746(2)
H4 H 0.3893 0.5770 0.2819
C10 C 0.0386(3) 0.4938(3) 0.2522(2)
H5 H -0.0499 0.4745 0.2447
C11 C 0.4797(3) 0.6009(3) 0.5155(2)
C12 C 0.0627(3) 0.3636(3) 0.3730(2)
H6 H -0.0255 0.3434 0.3658
C13 C 0.0916(4) 0.5689(3) 0.1994(2)
H7 H 0.0397 0.6004 0.1558
C14 C 0.2247(3) 0.5994(3) 0.2104(2)
H8 H 0.2607 0.6509 0.1737
C15 C 0.6626(4) 0.5154(3) 0.2332(3)
H9 H 0.7002 0.5480 0.2824
C16 C 0.5708(4) 0.6632(3) 0.5604(2)
H10 H 0.6612 0.6525 0.5510
C17 C 0.3448(3) 0.6198(3) 0.5299(3)
H11 H 0.2811 0.5801 0.5001
C18 C 0.3984(4) 0.7569(3) 0.6332(3)
H12 H 0.3708 0.8082 0.6732
C19 C 0.3058(4) 0.6974(4) 0.5885(3)
H13 H 0.2157 0.7095 0.5979
C20 C 0.6702(5) 0.5620(4) 0.1509(4)
H14 H 0.7134 0.6263 0.1440
C21 C 0.5307(4) 0.7407(3) 0.6187(3)
H15 H 0.5936 0.7816 0.6479
C22 C 0.5440(4) 0.3694(4) 0.1697(2)
H16 H 0.5025 0.3044 0.1762
C23 C 0.6139(5) 0.5134(6) 0.0796(4)
H17 H 0.6173 0.5459 0.0245
C24 C 0.5523(5) 0.4172(6) 0.0876(3)
H18 H 0.5163 0.3844 0.0380
loop_
_geom_bond_atom_site_label_1
_geom_bond_atom_site_label_2
_geom_bond_site_symmetry_1
_geom_bond_site_symmetry_2
S1 O2 1_555 1_555
O1 H1 1_555 1_555
O3 S1 1_555 1_555
C1 O1 1_555 1_555
C2 S1 1_555 1_555
C3 C1 1_555 1_555
C4 C3 1_555 1_555
C5 C1 1_555 1_555
H2 C5 1_555 1_555
C6 C2 1_555 1_555
H3 C6 1_555 1_555
C7 S1 1_555 1_555
C8 C4 1_555 1_555
C9 C4 1_555 1_555
H4 C9 1_555 1_555
C10 C8 1_555 1_555
H5 C10 1_555 1_555
C11 C6 1_555 1_555
C12 C5 1_555 1_555
H6 C12 1_555 1_555
C13 C10 1_555 1_555
H7 C13 1_555 1_555
C14 C9 1_555 1_555
H8 C14 1_555 1_555
C15 C7 1_555 1_555
H9 C15 1_555 1_555
C16 C11 1_555 1_555
H10 C16 1_555 1_555
C17 C11 1_555 1_555
H11 C17 1_555 1_555
C18 H12 1_555 1_555
C19 C17 1_555 1_555
H13 C19 1_555 1_555
C20 C15 1_555 1_555
H14 C20 1_555 1_555
C21 C16 1_555 1_555
H15 C21 1_555 1_555
C22 C7 1_555 1_555
H16 C22 1_555 1_555
C23 C20 1_555 1_555
H17 C23 1_555 1_555
C24 C22 1_555 1_555
H18 C24 1_555 1_555
C2 C3 1_555 1_555
C8 C12 1_555 1_555
C13 C14 1_555 1_555
C18 C19 1_555 1_555
C18 C21 1_555 1_555
C23 C24 1_555 1_555

#END
