
#######################################################################
#
#                 Cambridge Crystallographic Data Centre
#                                CCDC 
#
#######################################################################
#
# If this CIF has been generated from an entry in the Cambridge 
# Structural Database, then it will include bibliographic, chemical, 
# crystal, experimental, refinement or atomic coordinate data resulting 
# from the CCDC's data processing and validation procedures.
#
#######################################################################

data_YIBGOI
_chemical_formula_moiety         'C20 H19 F3 N2 O3'
_chemical_name_systematic        
'methyl 1-(4-methoxyphenyl)-5-methyl-3-[4-(trifluoromethyl)phenyl]-4,5-dihydro-1H-pyrazole-5-carboxylate'
_symmetry_cell_setting           monoclinic
_symmetry_space_group_name_H-M   'C 2/c'
_symmetry_Int_Tables_number      15
_space_group_name_Hall           '-C 2yn'
loop_
_symmetry_equiv_pos_site_id
_symmetry_equiv_pos_as_xyz
1 x,y,z
2 -x,y,1/2-z
3 1/2+x,1/2+y,z
4 1/2-x,1/2+y,1/2-z
5 -x,-y,-z
6 x,-y,1/2+z
7 1/2-x,1/2-y,-z
8 1/2+x,1/2-y,1/2+z
_cell_length_a                   11.47072(18)
_cell_length_b                   9.95859(17)
_cell_length_c                   33.1143(6)
_cell_angle_alpha                90
_cell_angle_beta                 96.5187(16)
_cell_angle_gamma                90
_cell_volume                     3758.26
_exptl_crystal_colour            'dull yellow'
_exptl_crystal_description       block
_cell_formula_units_Z            8
loop_
_atom_site_label
_atom_site_type_symbol
_atom_site_fract_x
_atom_site_fract_y
_atom_site_fract_z
O1 O 0.74832(14) 0.38690(18) 0.56907(5)
O2 O 0.66388(16) 0.3813(2) 0.50491(5)
O3 O 0.71549(18) -0.26983(18) 0.60204(6)
N1 N 0.52012(17) 0.3213(2) 0.62915(6)
N2 N 0.56494(18) 0.2624(2) 0.59676(6)
C1 C 0.6584(2) 0.3704(2) 0.54069(7)
C2 C 0.4344(2) 0.5304(2) 0.64774(7)
C3 C 0.59926(19) 0.1283(2) 0.59873(7)
C4 C 0.4846(2) 0.4403(2) 0.61936(7)
C5 C 0.6432(2) 0.0668(2) 0.56567(7)
H1 H 0.6484 0.1166 0.5415
C6 C 0.5946(2) 0.0529(2) 0.63396(7)
H2 H 0.5647 0.0925 0.6567
C7 C 0.6794(2) -0.0658(2) 0.56772(7)
H3 H 0.7067 -0.1068 0.5447
C8 C 0.5444(2) 0.3440(2) 0.55921(7)
C9 C 0.6761(2) -0.1396(2) 0.60319(8)
C10 C 0.6330(2) -0.0793(2) 0.63625(8)
H4 H 0.6298 -0.1288 0.6606
C11 C 0.5031(2) 0.4787(2) 0.57647(7)
H5 H 0.5638 0.5492 0.5761
H6 H 0.4293 0.5104 0.5610
C12 C 0.4247(2) 0.4926(3) 0.68777(8)
H7 H 0.4509 0.4063 0.6971
C13 C 0.4505(2) 0.2841(3) 0.52832(8)
H8 H 0.4799 0.2009 0.5173
H9 H 0.4308 0.3483 0.5062
H10 H 0.3802 0.2645 0.5416
C14 C 0.3954(2) 0.6565(3) 0.63477(8)
H11 H 0.4012 0.6832 0.6075
F1 F 0.2626(4) 0.9163(3) 0.71428(9)
C15 C 0.3773(2) 0.5796(3) 0.71385(8)
H12 H 0.3710 0.5533 0.7411
C16 C 0.3479(2) 0.7441(3) 0.66091(8)
H13 H 0.3217 0.8304 0.6517
C17 C 0.3389(2) 0.7058(3) 0.70037(8)
F2 F 0.3456(4) 0.8105(5) 0.76293(9)
C18 C 0.8587(2) 0.4204(3) 0.55440(9)
H14 H 0.8482 0.4994 0.5367
H15 H 0.8854 0.3445 0.5390
H16 H 0.9173 0.4402 0.5775
C19 C 0.7445(3) -0.3349(3) 0.64014(9)
H17 H 0.7808 -0.4220 0.6358
H18 H 0.6730 -0.3485 0.6533
H19 H 0.7995 -0.2789 0.6576
F3 F 0.1850(4) 0.7582(4) 0.73799(14)
C20 C 0.2867(4) 0.7993(4) 0.72873(10)
loop_
_geom_bond_atom_site_label_1
_geom_bond_atom_site_label_2
_geom_bond_site_symmetry_1
_geom_bond_site_symmetry_2
O1 C1 1_555 1_555
O2 C1 1_555 1_555
O3 C9 1_555 1_555
N1 N2 1_555 1_555
N2 C3 1_555 1_555
C1 C8 1_555 1_555
C2 C4 1_555 1_555
C3 C5 1_555 1_555
C4 N1 1_555 1_555
C5 H1 1_555 1_555
C6 C3 1_555 1_555
H2 C6 1_555 1_555
C7 C5 1_555 1_555
H3 C7 1_555 1_555
C8 N2 1_555 1_555
C9 C7 1_555 1_555
C10 C6 1_555 1_555
H4 C10 1_555 1_555
C11 C4 1_555 1_555
H5 C11 1_555 1_555
H6 C11 1_555 1_555
C12 C2 1_555 1_555
H7 C12 1_555 1_555
C13 C8 1_555 1_555
H8 C13 1_555 1_555
H9 C13 1_555 1_555
H10 C13 1_555 1_555
C14 C2 1_555 1_555
H11 C14 1_555 1_555
F1 C20 1_555 1_555
C15 C12 1_555 1_555
H12 C15 1_555 1_555
C16 C14 1_555 1_555
H13 C16 1_555 1_555
C17 C15 1_555 1_555
F2 C20 1_555 1_555
C18 O1 1_555 1_555
H14 C18 1_555 1_555
H15 C18 1_555 1_555
H16 C18 1_555 1_555
C19 O3 1_555 1_555
H17 C19 1_555 1_555
H18 C19 1_555 1_555
H19 C19 1_555 1_555
F3 C20 1_555 1_555
C20 C17 1_555 1_555
C8 C11 1_555 1_555
C9 C10 1_555 1_555
C16 C17 1_555 1_555

#END
