
#######################################################################
#
#                 Cambridge Crystallographic Data Centre
#                                CCDC 
#
#######################################################################
#
# If this CIF has been generated from an entry in the Cambridge 
# Structural Database, then it will include bibliographic, chemical, 
# crystal, experimental, refinement or atomic coordinate data resulting 
# from the CCDC's data processing and validation procedures.
#
#######################################################################

data_YIBGIC
_chemical_formula_moiety         'C16 H11 F3 N2 O3'
_chemical_name_systematic        
3-(4-methoxyphenyl)-4-[4-(trifluoromethyl)phenyl]-1,2,3-oxadiazol-3-ium-5-olate
_symmetry_cell_setting           triclinic
_symmetry_space_group_name_H-M   'P -1'
_symmetry_Int_Tables_number      2
_space_group_name_Hall           '-P 1'
loop_
_symmetry_equiv_pos_site_id
_symmetry_equiv_pos_as_xyz
1 x,y,z
2 -x,-y,-z
_cell_length_a                   7.4972(6)
_cell_length_b                   10.1381(9)
_cell_length_c                   11.0921(9)
_cell_angle_alpha                71.133(8)
_cell_angle_beta                 70.386(8)
_cell_angle_gamma                78.790(7)
_cell_volume                     747.999
_cell_formula_units_Z            2
loop_
_atom_site_label
_atom_site_type_symbol
_atom_site_fract_x
_atom_site_fract_y
_atom_site_fract_z
F1 F 0.0366(2) 0.3482(2) 0.34975(16)
F2 F -0.1955(2) 0.3656(2) 0.5174(2)
F3 F -0.1019(3) 0.1725(2) 0.4759(2)
O1 O 0.6987(2) 0.03954(17) 0.88691(16)
O2 O 0.6586(3) -0.06594(17) 0.74680(16)
O3 O 0.1329(2) 0.72741(17) 0.94478(17)
N1 N 0.5065(2) 0.22219(18) 0.86104(17)
N2 N 0.6306(3) 0.1601(2) 0.9262(2)
C1 C 0.6146(3) 0.0331(2) 0.7933(2)
C2 C 0.4856(3) 0.1543(2) 0.7809(2)
C3 C 0.3491(3) 0.1928(2) 0.7048(2)
C4 C 0.1660(3) 0.2529(2) 0.7513(2)
H1 H 0.1282 0.2722 0.8332
C5 C 0.0395(3) 0.2844(2) 0.6779(2)
H2 H -0.0821 0.3261 0.7096
C6 C 0.0940(3) 0.2539(2) 0.5569(2)
C7 C 0.2738(3) 0.1902(2) 0.5111(2)
H3 H 0.3093 0.1676 0.4309
C8 C 0.4000(3) 0.1601(2) 0.5838(2)
H4 H 0.5210 0.1174 0.5522
C9 C -0.0396(4) 0.2864(3) 0.4760(3)
C10 C 0.4140(3) 0.3563(2) 0.8805(2)
C11 C 0.4273(3) 0.4719(2) 0.7720(2)
H5 H 0.4966 0.4644 0.6871
C12 C 0.3366(3) 0.5998(2) 0.7899(2)
H6 H 0.3453 0.6790 0.7172
C13 C 0.2333(3) 0.6090(2) 0.9164(2)
C14 C 0.2255(3) 0.4916(2) 1.0245(2)
H7 H 0.1585 0.4991 1.1098
C15 C 0.3152(3) 0.3642(2) 1.0078(2)
H8 H 0.3093 0.2854 1.0806
C16 C 0.1518(4) 0.8552(3) 0.8411(3)
H9 H 0.1000 0.8503 0.7745
H10 H 0.2840 0.8704 0.8015
H11 H 0.0843 0.9311 0.8772
loop_
_geom_bond_atom_site_label_1
_geom_bond_atom_site_label_2
_geom_bond_site_symmetry_1
_geom_bond_site_symmetry_2
F1 C9 1_555 1_555
F2 C9 1_555 1_555
F3 C9 1_555 1_555
O1 N2 1_555 1_555
O2 C1 1_555 1_555
O3 C13 1_555 1_555
N1 N2 1_555 1_555
C1 O1 1_555 1_555
C2 N1 1_555 1_555
C3 C2 1_555 1_555
C4 C3 1_555 1_555
H1 C4 1_555 1_555
C5 C4 1_555 1_555
H2 C5 1_555 1_555
C6 C5 1_555 1_555
C7 C6 1_555 1_555
H3 C7 1_555 1_555
C8 C3 1_555 1_555
H4 C8 1_555 1_555
C9 C6 1_555 1_555
C10 N1 1_555 1_555
C11 C10 1_555 1_555
H5 C11 1_555 1_555
C12 C11 1_555 1_555
H6 C12 1_555 1_555
C13 C12 1_555 1_555
C14 C13 1_555 1_555
H7 C14 1_555 1_555
C15 C10 1_555 1_555
H8 C15 1_555 1_555
C16 O3 1_555 1_555
H9 C16 1_555 1_555
H10 C16 1_555 1_555
H11 C16 1_555 1_555
C1 C2 1_555 1_555
C7 C8 1_555 1_555
C14 C15 1_555 1_555

#END
