
#######################################################################
#
#                 Cambridge Crystallographic Data Centre
#                                CCDC 
#
#######################################################################
#
# If this CIF has been generated from an entry in the Cambridge 
# Structural Database, then it will include bibliographic, chemical, 
# crystal, experimental, refinement or atomic coordinate data resulting 
# from the CCDC's data processing and validation procedures.
#
#######################################################################

data_YIBHUO
_chemical_formula_moiety         'C37 H28'
_chemical_name_systematic        2,4,7-tris(4-Methylphenyl)pyrene
_symmetry_cell_setting           monoclinic
_symmetry_space_group_name_H-M   'P 21/c'
_symmetry_Int_Tables_number      14
_space_group_name_Hall           '-P 2ybc'
loop_
_symmetry_equiv_pos_site_id
_symmetry_equiv_pos_as_xyz
1 x,y,z
2 -x,1/2+y,1/2-z
3 -x,-y,-z
4 x,1/2-y,1/2+z
_cell_length_a                   6.459(5)
_cell_length_b                   15.980(12)
_cell_length_c                   24.291(19)
_cell_angle_alpha                90
_cell_angle_beta                 95.458(11)
_cell_angle_gamma                90
_cell_volume                     2495.82
_exptl_crystal_colour            colorless
_exptl_crystal_description       needle
_chemical_melting_point          '475 K'
_cell_formula_units_Z            4
loop_
_atom_site_label
_atom_site_type_symbol
_atom_site_fract_x
_atom_site_fract_y
_atom_site_fract_z
C1 C 2.2472(4) 0.1449(2) 0.90983(12)
H1 H 2.3495 0.1855 0.9018
H2 H 2.2927 0.0901 0.9000
H3 H 2.2293 0.1462 0.9486
C2 C 2.0432(4) 0.1648(2) 0.87704(11)
C3 C 1.9347(4) 0.1061(2) 0.84642(13)
H4 H 1.9878 0.0521 0.8455
C4 C 1.7470(4) 0.1239(2) 0.81647(13)
H5 H 1.6783 0.0815 0.7958
C5 C 1.6592(3) 0.20166(18) 0.81615(10)
C6 C 1.4573(4) 0.22092(17) 0.78427(10)
C7 C 1.3633(4) 0.29872(17) 0.78693(11)
H6 H 1.4305 0.3399 0.8090
C8 C 1.1734(4) 0.31788(16) 0.75810(10)
C9 C 1.0705(3) 0.25627(15) 0.72459(9)
C10 C 0.8768(3) 0.27293(15) 0.69461(9)
C11 C 0.7853(4) 0.35276(16) 0.69758(11)
C12 C 0.5973(4) 0.36896(16) 0.66720(11)
H7 H 0.5369 0.4214 0.6700
C13 C 0.4959(3) 0.30986(16) 0.63272(9)
C14 C 0.2971(3) 0.32853(16) 0.59960(10)
C15 C 0.2290(5) 0.4086(2) 0.58944(13)
H8 H 0.3104 0.4531 0.6035
C16 C 0.0424(5) 0.4249(2) 0.55872(14)
H9 H 0.0010 0.4802 0.5530
C17 C -0.0834(4) 0.3625(2) 0.53641(11)
C18 C -0.2865(4) 0.3805(2) 0.50266(13)
H10 H -0.2706 0.3717 0.4642
H11 H -0.3260 0.4376 0.5083
H12 H -0.3921 0.3438 0.5140
C19 C 1.9583(5) 0.2420(2) 0.87673(14)
H13 H 2.0279 0.2842 0.8973
C20 C 1.7713(4) 0.2603(2) 0.84672(13)
H14 H 1.7201 0.3146 0.8474
C21 C 1.3531(3) 0.16135(16) 0.75097(10)
H15 H 1.4127 0.1086 0.7486
C22 C 1.1634(3) 0.17684(15) 0.72095(9)
C23 C 1.0775(4) 0.39752(18) 0.76058(13)
H16 H 1.1435 0.4393 0.7823
C24 C 0.8933(4) 0.41365(18) 0.73214(13)
H17 H 0.8343 0.4664 0.7351
C25 C -0.0146(4) 0.2838(2) 0.54562(12)
H18 H -0.0940 0.2395 0.5304
C26 C 0.1694(4) 0.26673(18) 0.57690(11)
H19 H 0.2084 0.2112 0.5828
C27 C 0.5887(3) 0.23220(15) 0.62982(9)
H20 H 0.5242 0.1922 0.6062
C28 C 0.7736(3) 0.21120(15) 0.66047(9)
C29 C 0.8700(3) 0.13010(15) 0.65746(9)
C30 C 1.0560(4) 0.11554(16) 0.68658(10)
H21 H 1.1163 0.0630 0.6840
C31 C 0.7704(4) 0.06221(16) 0.62280(10)
C32 C 0.8789(4) 0.02169(17) 0.58460(11)
H22 H 1.0138 0.0386 0.5799
C33 C 0.7920(5) -0.04358(18) 0.55308(12)
H23 H 0.8690 -0.0695 0.5275
C34 C 0.5938(5) -0.07074(17) 0.55890(12)
C35 C 0.4841(4) -0.03044(17) 0.59714(12)
H24 H 0.3493 -0.0475 0.6018
C36 C 0.5714(4) 0.03457(16) 0.62841(11)
H25 H 0.4942 0.0605 0.6540
C37 C 0.4949(6) -0.14065(19) 0.52412(14)
H26 H 0.4004 -0.1708 0.5450
H27 H 0.6009 -0.1779 0.5137
H28 H 0.4203 -0.1178 0.4915
loop_
_geom_bond_atom_site_label_1
_geom_bond_atom_site_label_2
_geom_bond_site_symmetry_1
_geom_bond_site_symmetry_2
C1 H1 1_555 1_555
H2 C1 1_555 1_555
H3 C1 1_555 1_555
C2 C1 1_555 1_555
C3 C2 1_555 1_555
H4 C3 1_555 1_555
C4 C3 1_555 1_555
H5 C4 1_555 1_555
C5 C4 1_555 1_555
C6 C5 1_555 1_555
C7 C6 1_555 1_555
H6 C7 1_555 1_555
C8 C7 1_555 1_555
C9 C8 1_555 1_555
C10 C9 1_555 1_555
C11 C10 1_555 1_555
C12 C11 1_555 1_555
H7 C12 1_555 1_555
C13 C12 1_555 1_555
C14 C13 1_555 1_555
C15 C14 1_555 1_555
H8 C15 1_555 1_555
C16 C15 1_555 1_555
H9 C16 1_555 1_555
C17 C16 1_555 1_555
C18 C17 1_555 1_555
H10 C18 1_555 1_555
H11 C18 1_555 1_555
H12 C18 1_555 1_555
C19 C2 1_555 1_555
H13 C19 1_555 1_555
C20 C5 1_555 1_555
H14 C20 1_555 1_555
C21 C6 1_555 1_555
H15 C21 1_555 1_555
C22 C9 1_555 1_555
C23 C8 1_555 1_555
H16 C23 1_555 1_555
C24 C11 1_555 1_555
H17 C24 1_555 1_555
C25 C17 1_555 1_555
H18 C25 1_555 1_555
C26 C14 1_555 1_555
H19 C26 1_555 1_555
C27 C13 1_555 1_555
H20 C27 1_555 1_555
C28 C10 1_555 1_555
C29 C28 1_555 1_555
C30 C22 1_555 1_555
H21 C30 1_555 1_555
C31 C29 1_555 1_555
C32 C31 1_555 1_555
H22 C32 1_555 1_555
C33 C32 1_555 1_555
H23 C33 1_555 1_555
C34 C33 1_555 1_555
C35 C34 1_555 1_555
H24 C35 1_555 1_555
C36 C31 1_555 1_555
H25 C36 1_555 1_555
C37 C34 1_555 1_555
H26 C37 1_555 1_555
H27 C37 1_555 1_555
H28 C37 1_555 1_555
C19 C20 1_555 1_555
C21 C22 1_555 1_555
C23 C24 1_555 1_555
C25 C26 1_555 1_555
C27 C28 1_555 1_555
C29 C30 1_555 1_555
C35 C36 1_555 1_555

#END
