
#######################################################################
#
#                 Cambridge Crystallographic Data Centre
#                                CCDC 
#
#######################################################################
#
# If this CIF has been generated from an entry in the Cambridge 
# Structural Database, then it will include bibliographic, chemical, 
# crystal, experimental, refinement or atomic coordinate data resulting 
# from the CCDC's data processing and validation procedures.
#
#######################################################################

data_YIBKAY
_chemical_name_common            
'tetrahexylammonium 7,7,8,8-tetracyanoquinodimethane radical anion hexane solvate'
_chemical_formula_moiety         'C24 H52 N1 1+,C12 H4 N4 1-,0.5(C6 H14)'
_chemical_name_systematic        
"tetrahexylammonium 2,2'-(cyclohexa-2,5-diene-1,4-diylidene)dimalononitrile radical anion hexane solvate"
_symmetry_cell_setting           triclinic
_symmetry_space_group_name_H-M   'P -1'
_symmetry_Int_Tables_number      2
_space_group_name_Hall           '-P 1'
loop_
_symmetry_equiv_pos_site_id
_symmetry_equiv_pos_as_xyz
1 x,y,z
2 -x,-y,-z
_cell_length_a                   11.342(2)
_cell_length_b                   11.983(2)
_cell_length_c                   15.853(3)
_cell_angle_alpha                103.65(3)
_cell_angle_beta                 104.69(3)
_cell_angle_gamma                93.17(3)
_cell_volume                     2010.05
_exptl_crystal_colour            green
_exptl_crystal_description       Plate
_cell_formula_units_Z            2
loop_
_atom_site_label
_atom_site_type_symbol
_atom_site_fract_x
_atom_site_fract_y
_atom_site_fract_z
C13 C 0.7989(3) 0.9285(3) 0.2051(2)
H5 H 0.7678 0.8702 0.2309
H6 H 0.7377 0.9826 0.1977
C14 C 0.9195(4) 0.9955(3) 0.2724(2)
H7 H 0.9781 0.9408 0.2864
H8 H 0.9560 1.0486 0.2449
C15 C 0.8951(4) 1.0634(4) 0.3588(3)
H9 H 0.8564 1.0100 0.3849
H10 H 0.8376 1.1187 0.3444
C16 C 1.0119(4) 1.1285(4) 0.4280(3)
H11 H 1.0547 1.1761 0.3998
H12 H 1.0660 1.0726 0.4465
C17 C 0.9873(5) 1.2063(6) 0.5117(4)
H13 H 0.9288 1.2591 0.4934
H14 H 0.9509 1.1587 0.5433
C18 C 1.0998(11) 1.2720(9) 0.5713(6)
H15 H 1.1652 1.2230 0.5738
H16 H 1.0895 1.3002 0.6312
H17 H 1.1206 1.3370 0.5489
C19 C 0.9056(3) 0.7820(3) 0.1187(2)
H18 H 0.9862 0.8245 0.1535
H19 H 0.9110 0.7465 0.0576
C20 C 0.8784(4) 0.6854(3) 0.1617(3)
H20 H 0.8799 0.7189 0.2247
H21 H 0.7961 0.6444 0.1295
C21 C 0.9730(4) 0.6006(3) 0.1578(3)
H22 H 1.0555 0.6430 0.1862
H23 H 0.9677 0.5641 0.0945
C22 C 0.9537(5) 0.5053(4) 0.2063(3)
H24 H 0.9530 0.5429 0.2682
H25 H 0.8728 0.4607 0.1753
C23 C 1.0494(5) 0.4225(4) 0.2100(4)
H26 H 1.1311 0.4663 0.2388
H27 H 1.0473 0.3807 0.1484
C24 C 1.0270(7) 0.3352(5) 0.2632(5)
H28 H 1.0377 0.3758 0.3258
H29 H 1.0852 0.2790 0.2599
H30 H 0.9440 0.2957 0.2375
C25 C 0.6828(3) 0.8087(3) 0.0575(3)
H31 H 0.6548 0.7569 0.0899
H32 H 0.6266 0.8677 0.0539
C26 C 0.6745(3) 0.7390(3) -0.0379(3)
H33 H 0.7022 0.7896 -0.0712
H34 H 0.7283 0.6779 -0.0354
C27 C 0.5430(4) 0.6854(4) -0.0863(3)
H35 H 0.4895 0.7469 -0.0859
H36 H 0.5169 0.6335 -0.0532
C28 C 0.5269(5) 0.6171(4) -0.1842(3)
H37 H 0.5801 0.5553 -0.1836
H38 H 0.5559 0.6691 -0.2160
C29 C 0.3955(5) 0.5622(5) -0.2385(4)
H39 H 0.3983 0.5010 -0.2910
H40 H 0.3564 0.5274 -0.2008
C30 C 0.3221(6) 0.6524(7) -0.2692(5)
H41 H 0.2857 0.6900 -0.2225
H42 H 0.2577 0.6162 -0.3239
H43 H 0.3754 0.7095 -0.2811
C31 C 0.8577(3) 0.9561(3) 0.0679(2)
H44 H 0.9412 0.9899 0.1037
H45 H 0.8625 0.9142 0.0080
C32 C 0.7802(4) 1.0543(3) 0.0570(3)
H46 H 0.6970 1.0219 0.0194
H47 H 0.7741 1.0969 0.1163
C33 C 0.8349(4) 1.1374(3) 0.0138(3)
H48 H 0.8472 1.0939 -0.0434
H49 H 0.9152 1.1747 0.0537
C34 C 0.7504(5) 1.2310(4) -0.0042(3)
H50 H 0.6679 1.1928 -0.0389
H51 H 0.7443 1.2782 0.0537
C35 C 0.7909(6) 1.3055(5) -0.0520(4)
H52 H 0.7982 1.2585 -0.1097
H53 H 0.8727 1.3451 -0.0170
C36 C 0.7047(5) 1.3966(4) -0.0705(4)
H54 H 0.6268 1.3584 -0.1121
H55 H 0.7415 1.4497 -0.0970
H56 H 0.6912 1.4391 -0.0143
N5 N 0.8119(3) 0.8686(2) 0.11248(19)
C1 C 0.5295(3) 0.1388(3) 0.5340(2)
C2 C 0.6074(3) 0.1155(3) 0.4745(2)
H1 H 0.6918 0.1136 0.4984
C3 C 0.5592(3) 0.0961(3) 0.3838(2)
H2 H 0.6122 0.0813 0.3466
C4 C 0.4310(3) 0.0972(3) 0.3423(2)
C5 C 0.3560(3) 0.1195(3) 0.4026(3)
H3 H 0.2714 0.1206 0.3787
C6 C 0.4026(3) 0.1396(3) 0.4943(2)
H4 H 0.3495 0.1541 0.5315
C7 C 0.5774(4) 0.1617(3) 0.6288(3)
C8 C 0.7060(5) 0.1650(3) 0.6692(3)
C9 C 0.5004(4) 0.1892(4) 0.6871(3)
C10 C 0.3827(3) 0.0797(3) 0.2472(2)
C11 C 0.4588(4) 0.0571(3) 0.1875(3)
C12 C 0.2578(4) 0.0874(3) 0.2079(2)
N1 N 0.4372(4) 0.2118(3) 0.7334(3)
N2 N 0.8105(4) 0.1662(3) 0.7012(2)
N3 N 0.5192(3) 0.0389(3) 0.1385(2)
N4 N 0.1558(4) 0.0963(4) 0.1757(2)
loop_
_geom_bond_atom_site_label_1
_geom_bond_atom_site_label_2
_geom_bond_site_symmetry_1
_geom_bond_site_symmetry_2
C1 C2 1_555 1_555
C2 H1 1_555 1_555
C3 C2 1_555 1_555
H2 C3 1_555 1_555
C4 C3 1_555 1_555
C5 C4 1_555 1_555
H3 C5 1_555 1_555
C6 C1 1_555 1_555
H4 C6 1_555 1_555
C7 C1 1_555 1_555
C8 C7 1_555 1_555
C9 C7 1_555 1_555
C10 C4 1_555 1_555
C11 C10 1_555 1_555
C12 C10 1_555 1_555
N1 C9 1_555 1_555
N2 C8 1_555 1_555
N3 C11 1_555 1_555
N4 C12 1_555 1_555
C13 H5 1_555 1_555
H6 C13 1_555 1_555
C14 C13 1_555 1_555
H7 C14 1_555 1_555
H8 C14 1_555 1_555
C15 C14 1_555 1_555
H9 C15 1_555 1_555
H10 C15 1_555 1_555
C16 C15 1_555 1_555
H11 C16 1_555 1_555
H12 C16 1_555 1_555
C17 C16 1_555 1_555
H13 C17 1_555 1_555
H14 C17 1_555 1_555
C18 C17 1_555 1_555
H15 C18 1_555 1_555
H16 C18 1_555 1_555
H17 C18 1_555 1_555
C19 H18 1_555 1_555
H19 C19 1_555 1_555
C20 C19 1_555 1_555
H20 C20 1_555 1_555
H21 C20 1_555 1_555
C21 C20 1_555 1_555
H22 C21 1_555 1_555
H23 C21 1_555 1_555
C22 C21 1_555 1_555
H24 C22 1_555 1_555
H25 C22 1_555 1_555
C23 C22 1_555 1_555
H26 C23 1_555 1_555
H27 C23 1_555 1_555
C24 C23 1_555 1_555
H28 C24 1_555 1_555
H29 C24 1_555 1_555
H30 C24 1_555 1_555
C25 H31 1_555 1_555
H32 C25 1_555 1_555
C26 C25 1_555 1_555
H33 C26 1_555 1_555
H34 C26 1_555 1_555
C27 C26 1_555 1_555
H35 C27 1_555 1_555
H36 C27 1_555 1_555
C28 C27 1_555 1_555
H37 C28 1_555 1_555
H38 C28 1_555 1_555
C29 C28 1_555 1_555
H39 C29 1_555 1_555
H40 C29 1_555 1_555
C30 C29 1_555 1_555
H41 C30 1_555 1_555
H42 C30 1_555 1_555
H43 C30 1_555 1_555
C31 H44 1_555 1_555
H45 C31 1_555 1_555
C32 C31 1_555 1_555
H46 C32 1_555 1_555
H47 C32 1_555 1_555
C33 C32 1_555 1_555
H48 C33 1_555 1_555
H49 C33 1_555 1_555
C34 C33 1_555 1_555
H50 C34 1_555 1_555
H51 C34 1_555 1_555
C35 C34 1_555 1_555
H52 C35 1_555 1_555
H53 C35 1_555 1_555
C36 C35 1_555 1_555
H54 C36 1_555 1_555
H55 C36 1_555 1_555
H56 C36 1_555 1_555
N5 C13 1_555 1_555
C5 C6 1_555 1_555
C19 N5 1_555 1_555
C25 N5 1_555 1_555
C31 N5 1_555 1_555

#END
