
#######################################################################
#
#                 Cambridge Crystallographic Data Centre
#                                CCDC 
#
#######################################################################
#
# If this CIF has been generated from an entry in the Cambridge 
# Structural Database, then it will include bibliographic, chemical, 
# crystal, experimental, refinement or atomic coordinate data resulting 
# from the CCDC's data processing and validation procedures.
#
#######################################################################

data_YIBSAE
_chemical_name_common            
'5,17-bis(4-Nitrophenylazo)-26-(propoxy)-28-hydroxy-25,27-(3,6,9,12-tetraoxatetradecane-1,14-dioxy)calix(4)arene acetonitrile solvate'
_chemical_formula_moiety         'C53 H54 N6 O12,C2 H3 N1'
_chemical_name_systematic        
'5,17-bis(4-Nitrophenylazo)-26-(propoxy)-28-hydroxy-25,27-(3,6,9,12-tetraoxatetradecane-1,14-dioxy)pentacyclo(19.3.1.1^3,7^.1^9,13^.1^15,19^)octacosa-1(25),3,5,7(28),9,11,13(27),15,17,19(26),21,23-dodecaene acetonitrile solvate'
_symmetry_cell_setting           triclinic
_symmetry_space_group_name_H-M   'P -1'
_symmetry_Int_Tables_number      2
_space_group_name_Hall           '-P 1'
loop_
_symmetry_equiv_pos_site_id
_symmetry_equiv_pos_as_xyz
1 x,y,z
2 -x,-y,-z
_cell_length_a                   11.5249(15)
_cell_length_b                   14.2417(19)
_cell_length_c                   17.144(2)
_cell_angle_alpha                73.332(3)
_cell_angle_beta                 74.584(3)
_cell_angle_gamma                83.429(3)
_cell_volume                     2596.47
_exptl_crystal_colour            red
_exptl_crystal_description       plate
_chemical_melting_point          '149-151 deg.C'
_cell_formula_units_Z            2
loop_
_atom_site_label
_atom_site_type_symbol
_atom_site_fract_x
_atom_site_fract_y
_atom_site_fract_z
C1 C 0.4574(3) 0.4716(2) 0.2556(2)
C2 C 0.5765(3) 0.4457(3) 0.2210(2)
C3 C 0.6286(3) 0.3630(3) 0.2654(2)
H1 H 0.7086 0.3441 0.2432
C4 C 0.5658(4) 0.3076(3) 0.3416(3)
C5 C 0.4487(3) 0.3353(3) 0.3753(2)
H2 H 0.4063 0.2972 0.4275
C6 C 0.3937(3) 0.4169(3) 0.3342(2)
C7 C 0.7234(7) 0.0970(5) 0.4328(4)
C8 C 0.8396(6) 0.0748(4) 0.4102(3)
H3 H 0.8888 0.1207 0.3668
C9 C 0.8916(4) -0.0122(4) 0.4473(3)
H4 H 0.9748 -0.0256 0.4297
C10 C 0.8219(4) -0.0775(3) 0.5086(3)
C11 C 0.7045(5) -0.0579(3) 0.5358(3)
H5 H 0.6565 -0.1031 0.5806
C12 C 0.6543(5) 0.0316(5) 0.4963(4)
H6 H 0.5715 0.0462 0.5143
C13 C 0.2684(3) 0.4536(2) 0.37301(19)
H7 H 0.2190 0.4679 0.3321
H8 H 0.2301 0.4023 0.4220
C14 C 0.2232(3) 0.6344(3) 0.3636(2)
C15 C 0.2742(3) 0.5448(3) 0.3994(2)
C16 C 0.3367(3) 0.5405(3) 0.4595(2)
H9 H 0.3703 0.4802 0.4856
C17 C 0.3494(3) 0.6232(3) 0.4809(2)
H10 H 0.3888 0.6189 0.5233
C18 C 0.3051(3) 0.7127(3) 0.4410(2)
H11 H 0.3157 0.7693 0.4557
C19 C 0.2449(3) 0.7201(3) 0.3794(2)
C20 C 0.2028(2) 0.8200(2) 0.33298(19)
H12 H 0.1147 0.8223 0.3444
H13 H 0.2252 0.8700 0.3549
C21 C 0.3777(3) 0.8589(2) 0.2007(2)
C22 C 0.2549(3) 0.8452(2) 0.2386(2)
C23 C 0.1810(3) 0.8521(2) 0.1850(2)
H14 H 0.0981 0.8431 0.2079
C24 C 0.2255(3) 0.8719(2) 0.0987(2)
C25 C 0.3484(3) 0.8802(2) 0.06411(19)
H15 H 0.3785 0.8921 0.0057
C26 C 0.4271(3) 0.8712(2) 0.1144(2)
C27 C 0.0855(3) 0.9050(3) -0.0686(2)
C28 C -0.0249(4) 0.8650(2) -0.0290(2)
H16 H -0.0441 0.8355 0.0291
C29 C -0.1076(3) 0.8684(3) -0.0755(2)
H17 H -0.1841 0.8427 -0.0487
C30 C -0.0781(4) 0.9087(3) -0.1593(3)
C31 C 0.0304(4) 0.9500(3) -0.2002(2)
H18 H 0.0487 0.9794 -0.2584
C32 C 0.1131(3) 0.9474(3) -0.1534(2)
H19 H 0.1886 0.9750 -0.1802
C33 C 0.5609(2) 0.8739(2) 0.07572(17)
H20 H 0.5918 0.9293 0.0862
H21 H 0.5739 0.8867 0.0148
C34 C 0.6110(3) 0.6902(3) 0.10413(18)
C35 C 0.6340(3) 0.7828(3) 0.10648(18)
C36 C 0.7317(3) 0.7891(2) 0.13789(19)
H22 H 0.7511 0.8503 0.1406
C37 C 0.8003(3) 0.7061(3) 0.1651(2)
H23 H 0.8669 0.7119 0.1851
C38 C 0.7733(3) 0.6159(3) 0.1637(2)
H24 H 0.8206 0.5602 0.1831
C39 C 0.6756(3) 0.6063(3) 0.13353(19)
C40 C 0.6440(3) 0.5050(2) 0.13522(19)
H25 H 0.7185 0.4684 0.1164
H26 H 0.5946 0.5122 0.0952
C41 C 0.5386(3) 0.6787(2) -0.0114(2)
H27 H 0.5896 0.6201 -0.0181
H28 H 0.5822 0.7366 -0.0485
C42 C 0.4230(3) 0.6754(2) -0.0343(2)
H29 H 0.3726 0.7345 -0.0287
H30 H 0.4393 0.6723 -0.0926
C43 C 0.2407(4) 0.6117(3) 0.0609(3)
H31 H 0.1973 0.6479 0.0186
H32 H 0.2393 0.6527 0.0984
C44 C 0.1822(4) 0.5202(3) 0.1090(3)
H33 H 0.2340 0.4778 0.1429
H34 H 0.1059 0.5337 0.1469
C45 C 0.1154(4) 0.3810(4) 0.0872(3)
H35 H 0.1621 0.3451 0.1275
H36 H 0.1326 0.3478 0.0423
C46 C -0.0083(3) 0.3690(3) 0.1290(3)
H37 H -0.0563 0.3986 0.0881
H38 H -0.0229 0.2986 0.1486
C47 C -0.0223(3) 0.3557(3) 0.2733(3)
H39 H 0.0653 0.3456 0.2644
H40 H -0.0579 0.2913 0.2921
C48 C -0.0698(3) 0.4100(3) 0.3380(2)
H41 H -0.1566 0.4237 0.3446
H42 H -0.0561 0.3706 0.3922
C49 C -0.0264(3) 0.5481(3) 0.3742(2)
H43 H 0.0096 0.5084 0.4194
H44 H -0.1129 0.5572 0.3978
C50 C 0.0296(3) 0.6453(3) 0.3385(2)
H45 H -0.0077 0.6843 0.2937
H46 H 0.0121 0.6797 0.3826
C51 C 0.4552(4) 0.9430(3) 0.2778(2)
H47 H 0.3723 0.9700 0.2898
H48 H 0.4812 0.9241 0.3304
C52 C 0.5302(4) 1.0181(3) 0.2191(3)
H49 H 0.5004 1.0407 0.1680
H50 H 0.6119 0.9899 0.2037
C53 C 0.5361(4) 1.1066(3) 0.2514(2)
H51 H 0.5629 1.0848 0.3030
H52 H 0.4568 1.1387 0.2621
H53 H 0.5923 1.1524 0.2096
N1 N 0.5984(3) 0.2034(4) 0.4072(3)
N2 N 0.6910(4) 0.2034(3) 0.3698(2)
N3 N 0.8760(4) -0.1715(3) 0.5459(3)
N4 N 0.1378(2) 0.87830(19) 0.05326(19)
N5 N 0.1767(2) 0.9035(2) -0.02485(19)
N6 N -0.1658(3) 0.9079(2) -0.2077(2)
O1 O 0.39514(17) 0.54996(16) 0.21726(12)
H54 H 0.4329 0.5715 0.1678
O2 O 0.45626(19) 0.85576(17) 0.24984(13)
O3 O 0.51161(17) 0.68288(14) 0.07413(13)
O4 O 0.1571(2) 0.63994(15) 0.30544(13)
O5 O -0.0087(2) 0.4997(2) 0.31166(15)
O6 O -0.05089(19) 0.40968(18) 0.19857(19)
O7 O 0.1604(2) 0.4730(2) 0.05215(17)
O8 O 0.3626(2) 0.59082(18) 0.02060(16)
O9 O 0.8157(3) -0.2252(2) 0.6068(2)
O10 O 0.9803(3) -0.1891(3) 0.5195(2)
O11 O -0.1350(2) 0.9397(2) -0.28301(17)
O12 O -0.2645(2) 0.8761(2) -0.16901(18)
N7 N 0.7865(8) 0.8380(6) 0.3354(6)
C54 C 0.7120(8) 0.7635(8) 0.3593(6)
C55 C 0.6287(5) 0.7116(6) 0.3657(5)
H55 H 0.6620 0.6523 0.3495
H56 H 0.5777 0.7475 0.3293
H57 H 0.5814 0.6943 0.4234
loop_
_geom_bond_atom_site_label_1
_geom_bond_atom_site_label_2
_geom_bond_site_symmetry_1
_geom_bond_site_symmetry_2
C1 C2 1_555 1_555
C2 C3 1_555 1_555
C3 H1 1_555 1_555
C4 C3 1_555 1_555
C5 C4 1_555 1_555
H2 C5 1_555 1_555
C6 C1 1_555 1_555
C7 C8 1_555 1_555
C8 H3 1_555 1_555
C9 C8 1_555 1_555
H4 C9 1_555 1_555
C10 C9 1_555 1_555
C11 C10 1_555 1_555
H5 C11 1_555 1_555
C12 C7 1_555 1_555
H6 C12 1_555 1_555
C13 C6 1_555 1_555
H7 C13 1_555 1_555
H8 C13 1_555 1_555
C14 C15 1_555 1_555
C15 C13 1_555 1_555
C16 C15 1_555 1_555
H9 C16 1_555 1_555
C17 C16 1_555 1_555
H10 C17 1_555 1_555
C18 C17 1_555 1_555
H11 C18 1_555 1_555
C19 C14 1_555 1_555
C20 C19 1_555 1_555
H12 C20 1_555 1_555
H13 C20 1_555 1_555
C21 C22 1_555 1_555
C22 C20 1_555 1_555
C23 C22 1_555 1_555
H14 C23 1_555 1_555
C24 C23 1_555 1_555
C25 C24 1_555 1_555
H15 C25 1_555 1_555
C26 C21 1_555 1_555
C27 C28 1_555 1_555
C28 H16 1_555 1_555
C29 C28 1_555 1_555
H17 C29 1_555 1_555
C30 C29 1_555 1_555
C31 C30 1_555 1_555
H18 C31 1_555 1_555
C32 C27 1_555 1_555
H19 C32 1_555 1_555
C33 C26 1_555 1_555
H20 C33 1_555 1_555
H21 C33 1_555 1_555
C34 C35 1_555 1_555
C35 C33 1_555 1_555
C36 C35 1_555 1_555
H22 C36 1_555 1_555
C37 C36 1_555 1_555
H23 C37 1_555 1_555
C38 C37 1_555 1_555
H24 C38 1_555 1_555
C39 C34 1_555 1_555
C40 C2 1_555 1_555
H25 C40 1_555 1_555
H26 C40 1_555 1_555
C41 H27 1_555 1_555
H28 C41 1_555 1_555
C42 C41 1_555 1_555
H29 C42 1_555 1_555
H30 C42 1_555 1_555
C43 H31 1_555 1_555
H32 C43 1_555 1_555
C44 C43 1_555 1_555
H33 C44 1_555 1_555
H34 C44 1_555 1_555
C45 H35 1_555 1_555
H36 C45 1_555 1_555
C46 C45 1_555 1_555
H37 C46 1_555 1_555
H38 C46 1_555 1_555
C47 H39 1_555 1_555
H40 C47 1_555 1_555
C48 C47 1_555 1_555
H41 C48 1_555 1_555
H42 C48 1_555 1_555
C49 H43 1_555 1_555
H44 C49 1_555 1_555
C50 C49 1_555 1_555
H45 C50 1_555 1_555
H46 C50 1_555 1_555
C51 H47 1_555 1_555
H48 C51 1_555 1_555
C52 C51 1_555 1_555
H49 C52 1_555 1_555
H50 C52 1_555 1_555
C53 C52 1_555 1_555
H51 C53 1_555 1_555
H52 C53 1_555 1_555
H53 C53 1_555 1_555
N1 C4 1_555 1_555
N2 C7 1_555 1_555
N3 C10 1_555 1_555
N4 C24 1_555 1_555
N5 C27 1_555 1_555
N6 C30 1_555 1_555
O1 C1 1_555 1_555
H54 O1 1_555 1_555
O2 C21 1_555 1_555
O3 C34 1_555 1_555
O4 C14 1_555 1_555
O5 C48 1_555 1_555
O6 C46 1_555 1_555
O7 C44 1_555 1_555
O8 C42 1_555 1_555
O9 N3 1_555 1_555
O10 N3 1_555 1_555
O11 N6 1_555 1_555
O12 N6 1_555 1_555
N7 C54 1_555 1_555
C54 C55 1_555 1_555
C55 H55 1_555 1_555
H56 C55 1_555 1_555
H57 C55 1_555 1_555
C5 C6 1_555 1_555
C11 C12 1_555 1_555
C18 C19 1_555 1_555
C25 C26 1_555 1_555
C31 C32 1_555 1_555
C38 C39 1_555 1_555
C39 C40 1_555 1_555
C41 O3 1_555 1_555
C43 O8 1_555 1_555
C45 O7 1_555 1_555
C47 O6 1_555 1_555
C49 O5 1_555 1_555
C50 O4 1_555 1_555
C51 O2 1_555 1_555
N1 N2 1_555 1_555
N4 N5 1_555 1_555

#END
