
#######################################################################
#
#                 Cambridge Crystallographic Data Centre
#                                CCDC 
#
#######################################################################
#
# If this CIF has been generated from an entry in the Cambridge 
# Structural Database, then it will include bibliographic, chemical, 
# crystal, experimental, refinement or atomic coordinate data resulting 
# from the CCDC's data processing and validation procedures.
#
#######################################################################

data_YIBSEI
_chemical_name_common            
'n-Propylammonium 5,17-bis(4-nitrophenylazo)-26-(propoxy)-28-hydroxy-25,27-(3,6,9,12-tetraoxatetradecane-1,14-dioxy)calix(4)arene clathrate acetonitrile solvate'
_chemical_formula_moiety         'C53 H53 N6 O12 1-,C3 H10 N1 1+,3(C2 H3 N1)'
_chemical_name_systematic        
'n-Propylammonium 5,17-bis(4-nitrophenylazo)-26-(propoxy)-28-hydroxy-25,27-(3,6,9,12-tetraoxatetradecane-1,14-dioxy)pentacyclo(19.3.1.1^3,7^.1^9,13^.1^15,19^)octacosa-1(25),3,5,7(28),9,11,13(27),15,17,19(26),21,23-dodecaene clathrate acetonitrile solvate'
_symmetry_cell_setting           monoclinic
_symmetry_space_group_name_H-M   'P 21/c'
_symmetry_Int_Tables_number      14
_space_group_name_Hall           '-P 2ybc'
loop_
_symmetry_equiv_pos_site_id
_symmetry_equiv_pos_as_xyz
1 x,y,z
2 -x,1/2+y,1/2-z
3 -x,-y,-z
4 x,1/2-y,1/2+z
_cell_length_a                   10.972(2)
_cell_length_b                   21.733(4)
_cell_length_c                   28.489(5)
_cell_angle_alpha                90
_cell_angle_beta                 111.291(4)
_cell_angle_gamma                90
_cell_volume                     6329.67
_exptl_crystal_colour            black-brown
_exptl_crystal_description       plate
_cell_formula_units_Z            4
loop_
_atom_site_label
_atom_site_type_symbol
_atom_site_fract_x
_atom_site_fract_y
_atom_site_fract_z
O1 O 0.1552(3) 0.29380(18) 0.32840(13)
O2 O -0.7964(5) 0.5167(3) -0.0143(2)
O3 O -0.8536(5) 0.5338(3) 0.0494(2)
O4 O 0.1465(3) 0.11062(18) 0.36708(14)
O5 O 1.3086(7) 0.1857(4) 0.6187(3)
O6 O 1.2778(6) 0.2804(4) 0.6245(3)
O7 O 0.2259(4) 0.28701(18) 0.44095(13)
O8 O 0.3228(7) 0.4076(3) 0.4672(2)
O9 O 0.2938(7) 0.4743(3) 0.3834(3)
O10 O 0.3765(7) 0.4370(3) 0.3021(3)
O11 O 0.4845(5) 0.3263(3) 0.29233(18)
O12 O 0.3430(3) 0.22078(17) 0.29775(14)
N1 N -0.2781(4) 0.4099(2) 0.20216(19)
N2 N -0.3037(4) 0.4070(2) 0.1546(2)
N3 N -0.7781(6) 0.5131(2) 0.0299(3)
N4 N 0.6688(5) 0.1645(2) 0.47339(19)
N5 N 0.6942(5) 0.1986(3) 0.5096(2)
N6 N 1.2397(7) 0.2298(5) 0.6111(2)
C1 C 0.0570(5) 0.3213(3) 0.2985(2)
C2 C -0.0287(5) 0.3554(3) 0.3169(2)
C3 C -0.1351(5) 0.3833(3) 0.2836(2)
H1 H -0.1900 0.4052 0.2959
C4 C -0.1666(5) 0.3808(3) 0.2315(2)
C5 C -0.0799(5) 0.3487(3) 0.2132(2)
H2 H -0.0983 0.3472 0.1787
C6 C 0.0292(5) 0.3203(3) 0.2449(2)
C7 C -0.4234(6) 0.4351(2) 0.1257(2)
C8 C -0.5114(5) 0.4601(3) 0.1461(2)
H3 H -0.4910 0.4597 0.1807
C9 C -0.6280(5) 0.4854(3) 0.1147(3)
H4 H -0.6869 0.5017 0.1280
C10 C -0.6553(6) 0.4862(3) 0.0644(2)
C11 C -0.5702(6) 0.4627(3) 0.0437(2)
H5 H -0.5908 0.4640 0.0091
C12 C -0.4549(6) 0.4375(3) 0.0745(2)
H6 H -0.3969 0.4216 0.0606
C13 C 0.1280(5) 0.2889(3) 0.2275(2)
H7 H 0.1093 0.2995 0.1925
H8 H 0.2143 0.3047 0.2470
C14 C 0.2328(5) 0.1881(3) 0.26838(19)
C15 C 0.1302(5) 0.2205(3) 0.2322(2)
C16 C 0.0284(6) 0.1864(4) 0.2012(2)
H9 H -0.0400 0.2064 0.1765
C17 C 0.0235(6) 0.1234(4) 0.2054(2)
H10 H -0.0452 0.1012 0.1827
C18 C 0.1223(6) 0.0929(3) 0.2438(2)
H11 H 0.1175 0.0506 0.2477
C19 C 0.2272(5) 0.1258(3) 0.2763(2)
C20 C 0.3316(5) 0.0929(3) 0.3179(2)
H12 H 0.4104 0.0925 0.3100
H13 H 0.3043 0.0504 0.3181
C21 C 0.2748(6) 0.1275(3) 0.3932(2)
C22 C 0.3667(6) 0.1182(3) 0.3708(2)
C23 C 0.4958(6) 0.1316(3) 0.3995(2)
H14 H 0.5602 0.1245 0.3861
C24 C 0.5304(5) 0.1552(3) 0.4474(2)
C25 C 0.4350(6) 0.1665(3) 0.4679(2)
H15 H 0.4585 0.1839 0.4999
C26 C 0.3049(5) 0.1521(3) 0.4409(2)
C27 C 0.8365(7) 0.2051(4) 0.5354(2)
C28 C 0.9197(8) 0.1576(4) 0.5398(2)
H16 H 0.8874 0.1198 0.5255
C29 C 1.0524(7) 0.1652(4) 0.5656(3)
H17 H 1.1093 0.1323 0.5696
C30 C 1.0981(7) 0.2202(5) 0.5848(2)
C31 C 1.0186(8) 0.2682(4) 0.5803(3)
H18 H 1.0532 0.3065 0.5930
C32 C 0.8827(8) 0.2609(4) 0.5564(3)
H19 H 0.8258 0.2932 0.5548
C33 C 0.2044(6) 0.1617(3) 0.4656(2)
H20 H 0.1724 0.1215 0.4706
H21 H 0.2493 0.1793 0.4987
C34 C 0.1008(5) 0.2616(3) 0.42476(19)
C35 C 0.0875(5) 0.2016(3) 0.4386(2)
C36 C -0.0362(6) 0.1790(3) 0.4266(2)
H22 H -0.0471 0.1387 0.4355
C37 C -0.1454(6) 0.2139(4) 0.4017(2)
H23 H -0.2287 0.1987 0.3962
C38 C -0.1285(6) 0.2717(4) 0.3851(2)
H24 H -0.2019 0.2944 0.3663
C39 C -0.0060(6) 0.2970(3) 0.3956(2)
C40 C 0.0081(6) 0.3588(3) 0.3739(2)
H25 H 0.0979 0.3728 0.3894
H26 H -0.0477 0.3885 0.3817
C41 C 0.2668(9) 0.3124(5) 0.4897(3)
H27 H 0.2109 0.2951 0.5060
H28 H 0.3544 0.2970 0.5079
C42 C 0.2698(16) 0.3698(5) 0.4966(4)
H29 H 0.3200 0.3775 0.5319
H30 H 0.1810 0.3835 0.4902
C43 C 0.2812(11) 0.4673(5) 0.4629(4)
H31 H 0.3144 0.4864 0.4959
H32 H 0.1865 0.4678 0.4512
C44 C 0.3216(12) 0.5022(5) 0.4296(5)
H33 H 0.2788 0.5420 0.4246
H34 H 0.4152 0.5092 0.4447
C45 C 0.3064(14) 0.5112(5) 0.3459(6)
H35 H 0.2450 0.5451 0.3402
H36 H 0.3937 0.5287 0.3581
C46 C 0.2867(16) 0.4840(6) 0.3019(5)
H37 H 0.2888 0.5153 0.2780
H38 H 0.1994 0.4664 0.2898
C47 C 0.4270(16) 0.4263(5) 0.2696(4)
H39 H 0.4961 0.4565 0.2760
H40 H 0.3604 0.4379 0.2377
C48 C 0.4772(9) 0.3749(5) 0.2599(3)
H41 H 0.5647 0.3836 0.2607
H42 H 0.4252 0.3620 0.2259
C49 C 0.4974(11) 0.2695(5) 0.2736(4)
H43 H 0.4751 0.2753 0.2377
H44 H 0.5902 0.2603 0.2874
C50 C 0.4424(8) 0.2218(4) 0.2779(5)
H45 H 0.5101 0.1940 0.2983
H46 H 0.4062 0.2037 0.2445
C51 C 0.1227(6) 0.0479(3) 0.3738(3)
H47 H 0.1434 0.0400 0.4094
H48 H 0.1800 0.0227 0.3627
C52 C -0.0114(7) 0.0306(4) 0.3462(3)
H49 H -0.0306 0.0383 0.3107
H50 H -0.0678 0.0571 0.3568
C53 C -0.0456(8) -0.0351(4) 0.3523(3)
H51 H 0.0106 -0.0620 0.3426
H52 H -0.1350 -0.0427 0.3313
H53 H -0.0342 -0.0426 0.3868
N7 N 0.3841(5) 0.3435(2) 0.38040(18)
H54 H 0.3600 0.3707 0.3987
H55 H 0.3205 0.3159 0.3676
H56 H 0.3991 0.3627 0.3555
C54 C 0.5016(8) 0.3126(4) 0.4120(3)
H57 H 0.5196 0.2781 0.3938
H58 H 0.4894 0.2966 0.4418
C55 C 0.6178(9) 0.3572(9) 0.4277(5)
H59 H 0.6821 0.3357 0.4178
H60 H 0.5868 0.3905 0.4036
C56 C 0.674(2) 0.3796(9) 0.4600(6)
H61 H 0.7303 0.4086 0.4524
H62 H 0.7266 0.3501 0.4840
H63 H 0.6186 0.4009 0.4740
N8 N 0.3277(9) 0.6146(5) 0.2233(5)
C57 C 0.2413(11) 0.6461(5) 0.2210(4)
C58 C 0.1335(9) 0.6845(4) 0.2150(3)
H64 H 0.0582 0.6691 0.1881
H65 H 0.1526 0.7255 0.2071
H66 H 0.1162 0.6852 0.2457
N9 N 0.376(2) 0.6605(6) 0.3935(7)
C59 C 0.3763(12) 0.7080(6) 0.3801(5)
C60 C 0.3830(9) 0.7649(5) 0.3660(4)
H67 H 0.3155 0.7889 0.3712
H68 H 0.3716 0.7657 0.3310
H69 H 0.4670 0.7818 0.3856
C61 C 0.229(3) 0.4679(12) 0.6203(8)
C62 C 0.3195(16) 0.4309(7) 0.6643(7)
H70 H 0.2783 0.3927 0.6668
H71 H 0.3380 0.4539 0.6949
H72 H 0.3996 0.4227 0.6591
N10 N 0.103(4) 0.4574(18) 0.5814(15)
loop_
_geom_bond_atom_site_label_1
_geom_bond_atom_site_label_2
_geom_bond_site_symmetry_1
_geom_bond_site_symmetry_2
O1 C1 1_555 1_555
O2 N3 1_555 1_555
O3 N3 1_555 1_555
O4 C21 1_555 1_555
O5 N6 1_555 1_555
O6 N6 1_555 1_555
O7 C34 1_555 1_555
O8 C42 1_555 1_555
O9 C44 1_555 1_555
O10 C46 1_555 1_555
O11 C48 1_555 1_555
O12 C14 1_555 1_555
N1 N2 1_555 1_555
N2 C7 1_555 1_555
N3 C10 1_555 1_555
N4 N5 1_555 1_555
N5 C27 1_555 1_555
N6 C30 1_555 1_555
C1 C2 1_555 1_555
C2 C3 1_555 1_555
C3 H1 1_555 1_555
C4 N1 1_555 1_555
C5 C4 1_555 1_555
H2 C5 1_555 1_555
C6 C1 1_555 1_555
C7 C8 1_555 1_555
C8 H3 1_555 1_555
C9 C8 1_555 1_555
H4 C9 1_555 1_555
C10 C9 1_555 1_555
C11 C10 1_555 1_555
H5 C11 1_555 1_555
C12 C7 1_555 1_555
H6 C12 1_555 1_555
C13 C6 1_555 1_555
H7 C13 1_555 1_555
H8 C13 1_555 1_555
C14 C15 1_555 1_555
C15 C13 1_555 1_555
C16 C15 1_555 1_555
H9 C16 1_555 1_555
C17 C16 1_555 1_555
H10 C17 1_555 1_555
C18 C17 1_555 1_555
H11 C18 1_555 1_555
C19 C14 1_555 1_555
C20 C19 1_555 1_555
H12 C20 1_555 1_555
H13 C20 1_555 1_555
C21 C22 1_555 1_555
C22 C20 1_555 1_555
C23 C22 1_555 1_555
H14 C23 1_555 1_555
C24 N4 1_555 1_555
C25 C24 1_555 1_555
H15 C25 1_555 1_555
C26 C21 1_555 1_555
C27 C28 1_555 1_555
C28 H16 1_555 1_555
C29 C28 1_555 1_555
H17 C29 1_555 1_555
C30 C29 1_555 1_555
C31 C30 1_555 1_555
H18 C31 1_555 1_555
C32 C27 1_555 1_555
H19 C32 1_555 1_555
C33 C26 1_555 1_555
H20 C33 1_555 1_555
H21 C33 1_555 1_555
C34 C35 1_555 1_555
C35 C33 1_555 1_555
C36 C35 1_555 1_555
H22 C36 1_555 1_555
C37 C36 1_555 1_555
H23 C37 1_555 1_555
C38 C37 1_555 1_555
H24 C38 1_555 1_555
C39 C34 1_555 1_555
C40 C2 1_555 1_555
H25 C40 1_555 1_555
H26 C40 1_555 1_555
C41 O7 1_555 1_555
H27 C41 1_555 1_555
H28 C41 1_555 1_555
C42 C41 1_555 1_555
H29 C42 1_555 1_555
H30 C42 1_555 1_555
C43 O8 1_555 1_555
H31 C43 1_555 1_555
H32 C43 1_555 1_555
C44 C43 1_555 1_555
H33 C44 1_555 1_555
H34 C44 1_555 1_555
C45 O9 1_555 1_555
H35 C45 1_555 1_555
H36 C45 1_555 1_555
C46 C45 1_555 1_555
H37 C46 1_555 1_555
H38 C46 1_555 1_555
C47 O10 1_555 1_555
H39 C47 1_555 1_555
H40 C47 1_555 1_555
C48 C47 1_555 1_555
H41 C48 1_555 1_555
H42 C48 1_555 1_555
C49 O11 1_555 1_555
H43 C49 1_555 1_555
H44 C49 1_555 1_555
C50 O12 1_555 1_555
H45 C50 1_555 1_555
H46 C50 1_555 1_555
C51 O4 1_555 1_555
H47 C51 1_555 1_555
H48 C51 1_555 1_555
C52 C51 1_555 1_555
H49 C52 1_555 1_555
H50 C52 1_555 1_555
C53 C52 1_555 1_555
H51 C53 1_555 1_555
H52 C53 1_555 1_555
H53 C53 1_555 1_555
N7 H54 1_555 1_555
H55 N7 1_555 1_555
H56 N7 1_555 1_555
C54 N7 1_555 1_555
H57 C54 1_555 1_555
H58 C54 1_555 1_555
C55 C54 1_555 1_555
H59 C55 1_555 1_555
H60 C55 1_555 1_555
C56 C55 1_555 1_555
H61 C56 1_555 1_555
H62 C56 1_555 1_555
H63 C56 1_555 1_555
N8 C57 1_555 1_555
C57 C58 1_555 1_555
C58 H64 1_555 1_555
H65 C58 1_555 1_555
H66 C58 1_555 1_555
N9 C59 1_555 1_555
C59 C60 1_555 1_555
C60 H67 1_555 1_555
H68 C60 1_555 1_555
H69 C60 1_555 1_555
C61 C62 1_555 1_555
C62 H70 1_555 1_555
H71 C62 1_555 1_555
H72 C62 1_555 1_555
N10 C61 1_555 1_555
C3 C4 1_555 1_555
C5 C6 1_555 1_555
C11 C12 1_555 1_555
C18 C19 1_555 1_555
C23 C24 1_555 1_555
C25 C26 1_555 1_555
C31 C32 1_555 1_555
C38 C39 1_555 1_555
C39 C40 1_555 1_555
C49 C50 1_555 1_555

#END
