
#######################################################################
#
#                 Cambridge Crystallographic Data Centre
#                                CCDC 
#
#######################################################################
#
# If this CIF has been generated from an entry in the Cambridge 
# Structural Database, then it will include bibliographic, chemical, 
# crystal, experimental, refinement or atomic coordinate data resulting 
# from the CCDC's data processing and validation procedures.
#
#######################################################################

data_YIBZIT
_chemical_formula_moiety         'C20 H12 Cl2 N2'
_chemical_name_systematic        2,3-bis(4-Chlorophenyl)quinoxaline
_symmetry_cell_setting           triclinic
_symmetry_space_group_name_H-M   'P -1'
_symmetry_Int_Tables_number      2
_space_group_name_Hall           '-P 1'
loop_
_symmetry_equiv_pos_site_id
_symmetry_equiv_pos_as_xyz
1 x,y,z
2 -x,-y,-z
_cell_length_a                   5.9282(6)
_cell_length_b                   11.9737(12)
_cell_length_c                   12.0247(13)
_cell_angle_alpha                104.764(7)
_cell_angle_beta                 92.259(7)
_cell_angle_gamma                95.778(7)
_cell_volume                     819.288
_exptl_crystal_colour            colorless
_exptl_crystal_description       plate
_chemical_melting_point          '447 K'
_cell_formula_units_Z            2
_exptl_crystal_recrystallization_method chloroform-ethanol
loop_
_atom_site_label
_atom_site_type_symbol
_atom_site_fract_x
_atom_site_fract_y
_atom_site_fract_z
Cl1 Cl 0.04010(11) 0.68907(5) 0.56180(5)
Cl2 Cl 0.74092(11) 1.18952(6) 1.13621(5)
N1 N -0.2905(3) 1.21318(13) 0.67212(13)
C1 C -0.0692(3) 1.06565(16) 0.69190(16)
C2 C -0.1140(3) 1.18893(15) 0.72670(15)
N2 N -0.0019(3) 1.38869(14) 0.82822(14)
C3 C 0.1669(3) 0.91929(17) 0.60506(16)
H1 H 0.3021 0.8993 0.5729
C4 C 0.0281(3) 1.27823(16) 0.81168(15)
C5 C 0.2077(3) 1.25170(17) 0.88776(15)
C6 C 0.1331(3) 1.03426(17) 0.64630(16)
H2 H 0.2484 1.0920 0.6435
C7 C -0.2384(3) 0.97782(17) 0.69686(18)
H3 H -0.3755 0.9972 0.7270
C8 C -0.3283(3) 1.32661(16) 0.69109(16)
C9 C 0.4028(3) 1.33050(18) 0.92393(16)
H4 H 0.4214 1.3971 0.8974
C10 C 0.5378(4) 1.2141(2) 1.03895(17)
C11 C -0.0023(3) 0.83464(16) 0.61211(16)
C12 C -0.5157(4) 1.35615(19) 0.63434(19)
H5 H -0.6163 1.2981 0.5855
C13 C -0.1770(3) 1.41500(16) 0.76625(16)
C14 C -0.2050(4) 0.86296(18) 0.65774(18)
H6 H -0.3182 0.8048 0.6620
C15 C 0.5685(4) 1.31111(19) 0.99834(17)
H7 H 0.6994 1.3633 1.0207
C16 C 0.1835(4) 1.15501(19) 0.93073(18)
H8 H 0.0546 1.1015 0.9077
C17 C 0.3454(4) 1.1358(2) 1.00679(18)
H9 H 0.3252 1.0709 1.0360
C18 C -0.2162(4) 1.53197(18) 0.7815(2)
H10 H -0.1180 1.5914 0.8301
C19 C -0.5504(5) 1.4692(2) 0.6505(2)
H11 H -0.6746 1.4886 0.6126
C20 C -0.3990(5) 1.5571(2) 0.7243(2)
H12 H -0.4243 1.6343 0.7344
loop_
_geom_bond_atom_site_label_1
_geom_bond_atom_site_label_2
_geom_bond_site_symmetry_1
_geom_bond_site_symmetry_2
Cl1 C11 1_555 1_555
Cl2 C10 1_555 1_555
N1 C2 1_555 1_555
C1 C2 1_555 1_555
C2 C4 1_555 1_555
N2 C4 1_555 1_555
C3 H1 1_555 1_555
C4 C5 1_555 1_555
C5 C9 1_555 1_555
C6 C1 1_555 1_555
H2 C6 1_555 1_555
C7 C1 1_555 1_555
H3 C7 1_555 1_555
C8 N1 1_555 1_555
C9 H4 1_555 1_555
C10 C15 1_555 1_555
C11 C3 1_555 1_555
C12 C8 1_555 1_555
H5 C12 1_555 1_555
C13 N2 1_555 1_555
C14 C7 1_555 1_555
H6 C14 1_555 1_555
C15 C9 1_555 1_555
H7 C15 1_555 1_555
C16 C5 1_555 1_555
H8 C16 1_555 1_555
C17 C10 1_555 1_555
H9 C17 1_555 1_555
C18 C13 1_555 1_555
H10 C18 1_555 1_555
C19 C12 1_555 1_555
H11 C19 1_555 1_555
C20 C18 1_555 1_555
H12 C20 1_555 1_555
C3 C6 1_555 1_555
C8 C13 1_555 1_555
C11 C14 1_555 1_555
C16 C17 1_555 1_555
C19 C20 1_555 1_555

#END
