
#######################################################################
#
#                 Cambridge Crystallographic Data Centre
#                                CCDC 
#
#######################################################################
#
# If this CIF has been generated from an entry in the Cambridge 
# Structural Database, then it will include bibliographic, chemical, 
# crystal, experimental, refinement or atomic coordinate data resulting 
# from the CCDC's data processing and validation procedures.
#
#######################################################################

data_YICBUI
_chemical_formula_moiety         'C12 H10 F3 N3 O2 S1'
_chemical_name_systematic        
2-(o-Tolyloxy)-N-(5-(trifluoromethyl)-1,3,4-thiadiazol-2-yl)acetamide
_symmetry_cell_setting           triclinic
_symmetry_space_group_name_H-M   'P -1'
_symmetry_Int_Tables_number      2
_space_group_name_Hall           '-P 1'
loop_
_symmetry_equiv_pos_site_id
_symmetry_equiv_pos_as_xyz
1 x,y,z
2 -x,-y,-z
_cell_length_a                   8.347(2)
_cell_length_b                   9.430(2)
_cell_length_c                   9.493(2)
_cell_angle_alpha                108.030(4)
_cell_angle_beta                 101.762(4)
_cell_angle_gamma                94.381(4)
_cell_volume                     687.751
_exptl_crystal_colour            yellow
_exptl_crystal_description       block
_cell_formula_units_Z            2
_exptl_crystal_recrystallization_method methanol-DMF
loop_
_atom_site_label
_atom_site_type_symbol
_atom_site_fract_x
_atom_site_fract_y
_atom_site_fract_z
C1 C 0.6139(5) -0.3226(4) 0.3743(5)
H1 H 0.5364 -0.4122 0.3504
H2 H 0.7233 -0.3485 0.3778
H3 H 0.5850 -0.2766 0.2973
C2 C 0.6091(4) -0.2147(4) 0.5258(4)
C3 C 0.5232(4) -0.2544(5) 0.6224(5)
H4 H 0.4688 -0.3526 0.5927
C4 C 0.5159(5) -0.1545(6) 0.7592(5)
H5 H 0.4582 -0.1846 0.8217
C5 C 0.5943(6) -0.0101(6) 0.8032(5)
H6 H 0.5885 0.0586 0.8958
C6 C 0.6821(5) 0.0360(4) 0.7126(4)
H7 H 0.7359 0.1346 0.7441
C7 C 0.6889(4) -0.0667(3) 0.5740(3)
C8 C 0.8403(4) 0.1170(3) 0.5087(4)
H8 H 0.9328 0.1455 0.5974
H9 H 0.7581 0.1822 0.5324
C9 C 0.8981(3) 0.1356(3) 0.3752(4)
C10 C 1.0265(4) 0.3333(3) 0.3036(4)
C11 C 1.1514(4) 0.3840(3) 0.1224(4)
C12 C 1.2253(4) 0.3870(4) -0.0068(4)
F1 F 1.1245(4) 0.3078(4) -0.1401(3)
F2 F 1.3662(4) 0.3397(6) 0.0004(5)
F3 F 1.2475(5) 0.5245(3) -0.0161(3)
N1 N 0.9516(3) 0.2841(3) 0.3980(3)
H10 H 0.936(4) 0.348(3) 0.479(2)
N2 N 1.0869(4) 0.4754(3) 0.3417(3)
N3 N 1.1607(3) 0.5045(3) 0.2349(3)
O1 O 0.7715(3) -0.0337(2) 0.4738(2)
O2 O 0.9037(3) 0.0362(2) 0.2612(3)
S1 S 1.05329(10) 0.22043(8) 0.13205(9)
F4? F 1.268(3) 0.2499(14) -0.067(2)
F5? F 1.3636(18) 0.481(2) 0.030(2)
F6? F 1.130(2) 0.410(2) -0.1245(19)
loop_
_geom_bond_atom_site_label_1
_geom_bond_atom_site_label_2
_geom_bond_site_symmetry_1
_geom_bond_site_symmetry_2
C1 H1 1_555 1_555
H2 C1 1_555 1_555
H3 C1 1_555 1_555
C2 C1 1_555 1_555
C3 C2 1_555 1_555
H4 C3 1_555 1_555
C4 C3 1_555 1_555
H5 C4 1_555 1_555
C5 C4 1_555 1_555
H6 C5 1_555 1_555
C6 C5 1_555 1_555
H7 C6 1_555 1_555
C7 C2 1_555 1_555
C8 H8 1_555 1_555
H9 C8 1_555 1_555
C9 C8 1_555 1_555
C10 N1 1_555 1_555
C11 C12 1_555 1_555
C12 F1 1_555 1_555
F2 C12 1_555 1_555
F3 C12 1_555 1_555
N1 C9 1_555 1_555
H10 N1 1_555 1_555
N2 C10 1_555 1_555
N3 C11 1_555 1_555
O1 C7 1_555 1_555
O2 C9 1_555 1_555
S1 C10 1_555 1_555
C6 C7 1_555 1_555
C8 O1 1_555 1_555
C11 S1 1_555 1_555
N2 N3 1_555 1_555

#END
