
#######################################################################
#
#                 Cambridge Crystallographic Data Centre
#                                CCDC 
#
#######################################################################
#
# If this CIF has been generated from an entry in the Cambridge 
# Structural Database, then it will include bibliographic, chemical, 
# crystal, experimental, refinement or atomic coordinate data resulting 
# from the CCDC's data processing and validation procedures.
#
#######################################################################

data_YICBAP
_chemical_formula_moiety         'C35 H33 N5 2+,C3 H6 O1,2(F6 P1 1-)'
_chemical_name_systematic        
'1,9,17-Triaza-24,31-diazoniaoctacyclo[29.6.1.1^7,11^.1^17,24^.0^3,8^.0^10,15^.0^18,23^.0^32,37^]tetraconta-3,5,7(40),8,10,12,14,18,20,22,24(39),31(38),32,34,36-pentadecaene bis(hexafluorophosphate) acetone solvate'
_symmetry_cell_setting           triclinic
_symmetry_space_group_name_H-M   'P -1'
_symmetry_Int_Tables_number      2
_space_group_name_Hall           '-P 1'
loop_
_symmetry_equiv_pos_site_id
_symmetry_equiv_pos_as_xyz
1 x,y,z
2 -x,-y,-z
_cell_length_a                   11.3419(14)
_cell_length_b                   12.6176(16)
_cell_length_c                   15.0660(19)
_cell_angle_alpha                71.396(2)
_cell_angle_beta                 80.156(2)
_cell_angle_gamma                86.887(2)
_cell_volume                     2013.31
_exptl_crystal_colour            yellow
_exptl_crystal_description       block
_cell_formula_units_Z            2
loop_
_atom_site_label
_atom_site_type_symbol
_atom_site_fract_x
_atom_site_fract_y
_atom_site_fract_z
C1 C 1.0099(4) 0.4602(4) 0.1954(3)
C2 C 1.0400(5) 0.3509(5) 0.2288(4)
H1 H 1.0956 0.3302 0.2700
C3 C 0.9901(7) 0.2682(5) 0.2031(5)
H2 H 1.0118 0.1938 0.2283
C4 C 0.9109(6) 0.2953(4) 0.1424(4)
H3 H 0.8790 0.2397 0.1252
C5 C 0.8756(5) 0.4087(4) 0.1044(3)
C6 C 0.9261(4) 0.4931(4) 0.1300(3)
C7 C 0.7934(5) 0.4428(5) 0.0418(4)
H4 H 0.7575 0.3895 0.0244
C8 C 0.7644(5) 0.5545(5) 0.0051(4)
C9 C 0.8229(4) 0.6330(4) 0.0334(3)
C10 C 0.6828(6) 0.5949(8) -0.0604(5)
H5 H 0.6435 0.5441 -0.0784
C11 C 0.6617(6) 0.7041(8) -0.0966(5)
H6 H 0.6065 0.7288 -0.1379
C12 C 0.7235(6) 0.7819(6) -0.0719(4)
H7 H 0.7107 0.8578 -0.1000
C13 C 0.8006(4) 0.7505(4) -0.0089(3)
C14 C 0.8658(4) 0.8343(4) 0.0144(3)
H8 H 0.9459 0.8069 0.0232
H9 H 0.8731 0.9031 -0.0386
C15 C 0.6885(4) 0.8696(3) 0.1239(3)
H10 H 0.6315 0.8546 0.0918
C16 C 0.8618(4) 0.8917(3) 0.1625(3)
C17 C 0.9816(5) 0.8992(4) 0.1682(4)
H11 H 1.0423 0.8799 0.1262
C18 C 1.0059(6) 0.9366(5) 0.2391(5)
H12 H 1.0852 0.9444 0.2445
C19 C 0.9153(7) 0.9631(5) 0.3032(5)
H13 H 0.9362 0.9867 0.3510
C20 C 0.7957(6) 0.9559(4) 0.2988(4)
H14 H 0.7354 0.9735 0.3421
C21 C 0.7713(4) 0.9206(4) 0.2258(3)
C22 C 0.5403(15) 0.9274(14) 0.2369(18)
H15 H 0.5009 0.9690 0.1839
H16 H 0.5436 0.9757 0.2752
C23 C 0.4635(10) 0.8291(11) 0.2955(8)
H17 H 0.4657 0.7757 0.2610
H18 H 0.3813 0.8536 0.3069
C24 C 0.5059(8) 0.7721(12) 0.3908(7)
H19 H 0.4378 0.7363 0.4371
H20 H 0.5352 0.8291 0.4122
C25 C 0.6058(14) 0.6835(13) 0.3878(14)
H21 H 0.5771 0.6258 0.3670
H22 H 0.6747 0.7188 0.3422
C26 C 0.644(3) 0.630(2) 0.4858(19)
H23 H 0.6836 0.6853 0.5023
H24 H 0.5730 0.6046 0.5333
C27 C 0.7268(15) 0.532(2) 0.4865(18)
H25 H 0.7406 0.4948 0.5510
H26 H 0.6877 0.4785 0.4668
C28 C 0.8816(4) 0.5300(4) 0.3485(3)
H27 H 0.8371 0.4863 0.3268
C29 C 0.9338(4) 0.6277(3) 0.4336(3)
C30 C 0.9409(5) 0.6815(4) 0.4998(4)
H28 H 0.8782 0.6803 0.5488
C31 C 1.0458(5) 0.7363(5) 0.4881(5)
H29 H 1.0542 0.7732 0.5312
C32 C 1.1395(5) 0.7398(4) 0.4163(5)
H30 H 1.2085 0.7787 0.4122
C33 C 1.1335(4) 0.6866(4) 0.3496(4)
H31 H 1.1963 0.6888 0.3005
C34 C 1.0279(4) 0.6299(3) 0.3611(3)
C35 C 1.0643(4) 0.5469(4) 0.2238(3)
H32 H 1.0727 0.6161 0.1711
H33 H 1.1436 0.5228 0.2377
N1 N 0.8994(3) 0.6029(3) 0.0962(2)
N2 N 0.9911(3) 0.5682(3) 0.3085(2)
N3 N 0.8447(3) 0.5630(3) 0.4237(3)
N4 N 0.8059(3) 0.8586(3) 0.1006(3)
N5 N 0.6637(3) 0.9045(3) 0.1987(3)
C42 C 0.6256(8) 0.3351(11) 0.3096(7)
C43 C 0.5402(14) 0.377(2) 0.2402(10)
H46 H 0.5440 0.4572 0.2157
H47 H 0.4603 0.3543 0.2716
H48 H 0.5615 0.3465 0.1888
C44 C 0.6465(14) 0.2100(14) 0.3525(15)
H49 H 0.7127 0.1985 0.3866
H50 H 0.6641 0.1766 0.3027
H51 H 0.5759 0.1762 0.3951
O1 O 0.6709(6) 0.4017(6) 0.3294(6)
P1 P 0.33512(12) 0.81837(11) 0.04531(10)
F1 F 0.2514(16) 0.7266(13) 0.0977(9)
F2 F 0.3760(10) 0.761(2) -0.0320(16)
F3 F 0.2929(12) 0.871(2) 0.1256(18)
F4 F 0.4219(17) 0.9190(12) -0.0083(14)
F5 F 0.4439(10) 0.7678(12) 0.0958(8)
F6 F 0.2359(10) 0.8836(14) -0.0071(9)
P2 P 0.26499(13) 0.08729(12) 0.39250(10)
F13 F 0.2721(6) 0.2167(4) 0.3428(4)
F14 F 0.2840(8) 0.1159(5) 0.4785(4)
F15 F 0.2538(6) -0.0368(4) 0.4424(5)
F16 F 0.2469(8) 0.0558(7) 0.3070(4)
F17 F 0.3954(4) 0.0817(6) 0.3589(7)
F18 F 0.1328(5) 0.1027(6) 0.4155(7)
C36? C 0.5436(17) 0.933(2) 0.2442(19)
H34? H 0.4851 0.9373 0.2032
H35? H 0.5473 1.0061 0.2527
C37? C 0.5051(11) 0.8459(9) 0.3398(12)
H36? H 0.5608 0.8494 0.3811
H37? H 0.4274 0.8680 0.3666
C38? C 0.4961(10) 0.7259(9) 0.3448(11)
H38? H 0.4726 0.7246 0.2862
H39? H 0.4319 0.6916 0.3959
C39? C 0.6076(16) 0.6524(14) 0.3602(14)
H40? H 0.6755 0.6898 0.3144
H41? H 0.5950 0.5824 0.3494
C40? C 0.636(3) 0.628(3) 0.4612(17)
H42? H 0.6648 0.6959 0.4673
H43? H 0.5633 0.6055 0.5066
C41? C 0.7300(15) 0.5363(14) 0.4859(15)
H44? H 0.7417 0.5236 0.5508
H45? H 0.7000 0.4674 0.4824
F7? F 0.2017(12) 0.7677(19) 0.0525(18)
F8? F 0.350(2) 0.839(2) -0.0554(9)
F9? F 0.312(3) 0.795(3) 0.1514(10)
F10? F 0.4570(11) 0.861(3) 0.032(2)
F11? F 0.376(2) 0.6985(12) 0.054(2)
F12? F 0.2841(16) 0.9316(7) 0.0375(16)
loop_
_geom_bond_atom_site_label_1
_geom_bond_atom_site_label_2
_geom_bond_site_symmetry_1
_geom_bond_site_symmetry_2
C1 C2 1_555 1_555
C2 H1 1_555 1_555
C3 C2 1_555 1_555
H2 C3 1_555 1_555
C4 C3 1_555 1_555
H3 C4 1_555 1_555
C5 C4 1_555 1_555
C6 C1 1_555 1_555
C7 C5 1_555 1_555
H4 C7 1_555 1_555
C8 C7 1_555 1_555
C9 C8 1_555 1_555
C10 C8 1_555 1_555
H5 C10 1_555 1_555
C11 C10 1_555 1_555
H6 C11 1_555 1_555
C12 C11 1_555 1_555
H7 C12 1_555 1_555
C13 C9 1_555 1_555
C14 C13 1_555 1_555
H8 C14 1_555 1_555
H9 C14 1_555 1_555
C15 H10 1_555 1_555
C16 C17 1_555 1_555
C17 H11 1_555 1_555
C18 C17 1_555 1_555
H12 C18 1_555 1_555
C19 C18 1_555 1_555
H13 C19 1_555 1_555
C20 C19 1_555 1_555
H14 C20 1_555 1_555
C21 C16 1_555 1_555
C22 H15 1_555 1_555
H16 C22 1_555 1_555
C23 C22 1_555 1_555
H17 C23 1_555 1_555
H18 C23 1_555 1_555
C24 C23 1_555 1_555
H19 C24 1_555 1_555
H20 C24 1_555 1_555
C25 C24 1_555 1_555
H21 C25 1_555 1_555
H22 C25 1_555 1_555
C26 C25 1_555 1_555
H23 C26 1_555 1_555
H24 C26 1_555 1_555
C27 C26 1_555 1_555
H25 C27 1_555 1_555
H26 C27 1_555 1_555
C28 H27 1_555 1_555
C29 C30 1_555 1_555
C30 H28 1_555 1_555
C31 C30 1_555 1_555
H29 C31 1_555 1_555
C32 C31 1_555 1_555
H30 C32 1_555 1_555
C33 C32 1_555 1_555
H31 C33 1_555 1_555
C34 C29 1_555 1_555
C35 C1 1_555 1_555
H32 C35 1_555 1_555
H33 C35 1_555 1_555
N1 C6 1_555 1_555
N2 C28 1_555 1_555
N3 C27 1_555 1_555
N4 C14 1_555 1_555
N5 C15 1_555 1_555
C42 C43 1_555 1_555
C43 H46 1_555 1_555
H47 C43 1_555 1_555
H48 C43 1_555 1_555
C44 C42 1_555 1_555
H49 C44 1_555 1_555
H50 C44 1_555 1_555
H51 C44 1_555 1_555
O1 C42 1_555 1_555
P1 F1 1_555 1_555
F2 P1 1_555 1_555
F3 P1 1_555 1_555
F4 P1 1_555 1_555
F5 P1 1_555 1_555
F6 P1 1_555 1_555
P2 F13 1_555 1_555
F14 P2 1_555 1_555
F15 P2 1_555 1_555
F16 P2 1_555 1_555
F17 P2 1_555 1_555
F18 P2 1_555 1_555
C5 C6 1_555 1_555
C9 N1 1_555 1_555
C12 C13 1_555 1_555
C15 N4 1_555 1_555
C16 N4 1_555 1_555
C20 C21 1_555 1_555
C21 N5 1_555 1_555
C22 N5 1_555 1_555
C28 N3 1_555 1_555
C29 N3 1_555 1_555
C33 C34 1_555 1_555
C34 N2 1_555 1_555
C35 N2 1_555 1_555

#END
