
#######################################################################
#
#                 Cambridge Crystallographic Data Centre
#                                CCDC 
#
#######################################################################
#
# If this CIF has been generated from an entry in the Cambridge 
# Structural Database, then it will include bibliographic, chemical, 
# crystal, experimental, refinement or atomic coordinate data resulting 
# from the CCDC's data processing and validation procedures.
#
#######################################################################

data_YICCIX
_chemical_formula_moiety         'C5 H7 N2 1+,C6 H4 N1 O2 1-,C5 H6 N2'
_chemical_name_systematic        
'2-Aminopyridinium isonicotinate 2-aminopyridine'
_symmetry_cell_setting           monoclinic
_symmetry_space_group_name_H-M   'P 21/n'
_symmetry_Int_Tables_number      14
_space_group_name_Hall           '-P 2yn'
loop_
_symmetry_equiv_pos_site_id
_symmetry_equiv_pos_as_xyz
1 x,y,z
2 1/2-x,1/2+y,1/2-z
3 -x,-y,-z
4 1/2+x,1/2-y,1/2+z
_cell_length_a                   5.6204(11)
_cell_length_b                   25.623(5)
_cell_length_c                   11.256(2)
_cell_angle_alpha                90
_cell_angle_beta                 96.748(4)
_cell_angle_gamma                90
_cell_volume                     1609.76
_exptl_crystal_colour            colorless
_exptl_crystal_description       block
_cell_formula_units_Z            4
_exptl_crystal_recrystallization_method 'absolute ethanol'
loop_
_atom_site_label
_atom_site_type_symbol
_atom_site_fract_x
_atom_site_fract_y
_atom_site_fract_z
C1 C 0.9083(3) 0.15232(6) 0.72318(14)
C2 C 1.0746(3) 0.14047(8) 0.64718(16)
H1 H 1.0631 0.1550 0.5710
C3 C 1.2595(4) 0.10666(8) 0.68562(19)
H2 H 1.3737 0.1000 0.6341
C4 C 1.1194(4) 0.09414(7) 0.86243(18)
H3 H 1.1305 0.0777 0.9365
C5 C 0.9329(3) 0.12833(7) 0.83382(15)
H4 H 0.8246 0.1352 0.8883
C6 C 0.7074(3) 0.19016(7) 0.68586(14)
N1 N 1.2844(3) 0.08313(7) 0.79116(16)
O1 O 0.6588(3) 0.19897(6) 0.57809(11)
O2 O 0.6016(2) 0.21011(5) 0.76763(10)
C7 C 0.1515(3) 0.28508(7) 0.59176(15)
C8 C -0.0460(4) 0.31845(8) 0.56919(18)
H5 H -0.1069 0.3262 0.4908
C9 C -0.1482(4) 0.33935(8) 0.6607(2)
H6 H -0.2815 0.3609 0.6451
C10 C -0.0545(4) 0.32879(9) 0.7794(2)
H7 H -0.1221 0.3436 0.8430
C11 C 0.1341(4) 0.29690(8) 0.79898(17)
H8 H 0.1974 0.2893 0.8771
N2 N 0.2344(3) 0.27557(6) 0.70708(12)
H9 H 0.375(4) 0.2547(8) 0.7196(17)
N3 N 0.2600(4) 0.26245(7) 0.50760(14)
H10 H 0.206(4) 0.2713(8) 0.431(2)
H11 H 0.400(4) 0.2426(9) 0.5262(19)
N4 N 0.6831(3) 0.00617(7) 0.89797(17)
H12 H 0.751(5) 0.0152(10) 0.973(2)
H13 H 0.570(5) 0.0261(11) 0.874(2)
C12 C 0.8092(3) -0.01488(7) 0.81547(16)
C13 C 0.7243(4) -0.01425(9) 0.69368(18)
H14 H 0.5800 0.0020 0.6670
C14 C 0.8550(5) -0.03767(11) 0.6150(2)
H15 H 0.8007 -0.0376 0.5337
N5 N 1.0184(3) -0.03766(6) 0.85612(13)
C15 C 1.0706(5) -0.06184(11) 0.6562(2)
H16 H 1.1629 -0.0784 0.6041
C16 C 1.1401(4) -0.06026(9) 0.7752(2)
H17 H 1.2846 -0.0762 0.8030
loop_
_geom_bond_atom_site_label_1
_geom_bond_atom_site_label_2
_geom_bond_site_symmetry_1
_geom_bond_site_symmetry_2
C1 C2 1_555 1_555
C2 H1 1_555 1_555
C3 C2 1_555 1_555
H2 C3 1_555 1_555
C4 H3 1_555 1_555
C5 C1 1_555 1_555
H4 C5 1_555 1_555
C6 C1 1_555 1_555
C7 C8 1_555 1_555
C8 H5 1_555 1_555
C9 C8 1_555 1_555
H6 C9 1_555 1_555
C10 C9 1_555 1_555
H7 C10 1_555 1_555
C11 C10 1_555 1_555
H8 C11 1_555 1_555
N1 C3 1_555 1_555
N2 C7 1_555 1_555
H9 N2 1_555 1_555
N3 C7 1_555 1_555
H10 N3 1_555 1_555
H11 N3 1_555 1_555
O1 C6 1_555 1_555
O2 C6 1_555 1_555
N4 H12 1_555 1_555
H13 N4 1_555 1_555
C12 N4 1_555 1_555
C13 C12 1_555 1_555
H14 C13 1_555 1_555
C14 C13 1_555 1_555
H15 C14 1_555 1_555
N5 C12 1_555 1_555
C15 C14 1_555 1_555
H16 C15 1_555 1_555
C16 N5 1_555 1_555
H17 C16 1_555 1_555
C4 C5 1_555 1_555
C4 N1 1_555 1_555
C11 N2 1_555 1_555
C15 C16 1_555 1_555

#END
