
#######################################################################
#
#                 Cambridge Crystallographic Data Centre
#                                CCDC 
#
#######################################################################
#
# If this CIF has been generated from an entry in the Cambridge 
# Structural Database, then it will include bibliographic, chemical, 
# crystal, experimental, refinement or atomic coordinate data resulting 
# from the CCDC's data processing and validation procedures.
#
#######################################################################

data_YICHOI
_chemical_formula_moiety         'C12 H12 O4'
_chemical_name_systematic        'Ethyl 3-(1,3-benzodioxol-5-yl)acrylate'
_symmetry_cell_setting           triclinic
_symmetry_space_group_name_H-M   'P -1'
_symmetry_Int_Tables_number      2
_space_group_name_Hall           '-P 1'
loop_
_symmetry_equiv_pos_site_id
_symmetry_equiv_pos_as_xyz
1 x,y,z
2 -x,-y,-z
_cell_length_a                   7.420(2)
_cell_length_b                   7.673(3)
_cell_length_c                   10.590(4)
_cell_angle_alpha                75.534(5)
_cell_angle_beta                 74.094(5)
_cell_angle_gamma                70.637(6)
_cell_volume                     538.586
_exptl_crystal_colour            colorless
_exptl_crystal_description       block
_chemical_melting_point          '339 K'
_cell_formula_units_Z            2
_exptl_crystal_recrystallization_method 'ethyl acetate'
loop_
_atom_site_label
_atom_site_type_symbol
_atom_site_fract_x
_atom_site_fract_y
_atom_site_fract_z
O1 O 1.29629(16) 0.48686(19) 0.58058(12)
O2 O 1.30756(16) 0.30789(19) 0.78971(12)
O3 O 0.23763(17) 1.0030(2) 0.60489(13)
O4 O 0.07230(15) 0.90839(16) 0.80540(11)
C1 C 1.4207(2) 0.3448(3) 0.65905(19)
H1 H 1.4735 0.2317 0.6202
H2 H 1.5287 0.3869 0.6625
C2 C 1.1115(2) 0.5142(2) 0.65892(16)
C3 C 0.9409(2) 0.6290(2) 0.62539(15)
H3 H 0.9386 0.7015 0.5408
C4 C 0.7689(2) 0.6336(2) 0.72324(15)
C5 C 0.7798(2) 0.5246(2) 0.84880(16)
H4 H 0.6653 0.5290 0.9134
C6 C 0.9549(2) 0.4095(2) 0.88124(16)
H5 H 0.9605 0.3376 0.9657
C7 C 1.1183(2) 0.4071(2) 0.78344(16)
C8 C 0.5852(2) 0.7563(2) 0.68852(16)
H6 H 0.5954 0.8298 0.6039
C9 C 0.4070(2) 0.7764(2) 0.76141(16)
H7 H 0.3894 0.7049 0.8464
C10 C 0.2359(2) 0.9072(2) 0.71324(16)
C11 C -0.1079(2) 1.0335(2) 0.77134(17)
H8 H -0.1373 0.9956 0.7002
H9 H -0.0979 1.1609 0.7418
C12 C -0.2637(2) 1.0222(3) 0.89436(19)
H10 H -0.2761 0.8969 0.9200
H11 H -0.3856 1.1083 0.8771
H12 H -0.2296 1.0542 0.9651
loop_
_geom_bond_atom_site_label_1
_geom_bond_atom_site_label_2
_geom_bond_site_symmetry_1
_geom_bond_site_symmetry_2
O1 C1 1_555 1_555
O2 C1 1_555 1_555
O3 C10 1_555 1_555
O4 C10 1_555 1_555
C1 H1 1_555 1_555
H2 C1 1_555 1_555
C2 O1 1_555 1_555
C3 C2 1_555 1_555
H3 C3 1_555 1_555
C4 C3 1_555 1_555
C5 C4 1_555 1_555
H4 C5 1_555 1_555
C6 C5 1_555 1_555
H5 C6 1_555 1_555
C7 O2 1_555 1_555
C8 C4 1_555 1_555
H6 C8 1_555 1_555
C9 C8 1_555 1_555
H7 C9 1_555 1_555
C10 C9 1_555 1_555
C11 O4 1_555 1_555
H8 C11 1_555 1_555
H9 C11 1_555 1_555
C12 C11 1_555 1_555
H10 C12 1_555 1_555
H11 C12 1_555 1_555
H12 C12 1_555 1_555
C2 C7 1_555 1_555
C6 C7 1_555 1_555

#END
