
#######################################################################
#
#                 Cambridge Crystallographic Data Centre
#                                CCDC 
#
#######################################################################
#
# If this CIF has been generated from an entry in the Cambridge 
# Structural Database, then it will include bibliographic, chemical, 
# crystal, experimental, refinement or atomic coordinate data resulting 
# from the CCDC's data processing and validation procedures.
#
#######################################################################

data_YICKEB01
_chemical_formula_moiety         'C12 H8 N4 S1'
_chemical_name_systematic        cis-2,5-bis(3-Pyridyl)-1,3,4-thiadiazole
_symmetry_cell_setting           monoclinic
_symmetry_space_group_name_H-M   'C 2/c'
_symmetry_Int_Tables_number      15
_space_group_name_Hall           '-C 2yn'
loop_
_symmetry_equiv_pos_site_id
_symmetry_equiv_pos_as_xyz
1 x,y,z
2 -x,y,1/2-z
3 1/2+x,1/2+y,z
4 1/2-x,1/2+y,1/2-z
5 -x,-y,-z
6 x,-y,1/2+z
7 1/2-x,1/2-y,-z
8 1/2+x,1/2-y,1/2+z
_cell_length_a                   26.367(4)
_cell_length_b                   5.7703(8)
_cell_length_c                   7.1362(10)
_cell_angle_alpha                90
_cell_angle_beta                 102.884(2)
_cell_angle_gamma                90
_cell_volume                     1058.41
_exptl_crystal_colour            yellow
_exptl_crystal_description       needle
_cell_formula_units_Z            4
loop_
_atom_site_label
_atom_site_type_symbol
_atom_site_fract_x
_atom_site_fract_y
_atom_site_fract_z
C1 C 0.19909(6) 0.2338(3) 0.7162(2)
H1 H 0.2343 0.2095 0.7093
C2 C 0.16418(6) 0.0554(3) 0.6609(2)
H2 H 0.1753 -0.0885 0.6193
C3 C 0.11274(5) 0.0898(3) 0.6669(2)
H3 H 0.0878 -0.0296 0.6289
C4 C 0.09823(5) 0.3022(2) 0.72946(18)
C5 C 0.13648(5) 0.4693(3) 0.7853(2)
H4 H 0.1267 0.6136 0.8306
C6 C 0.04417(5) 0.3526(2) 0.7398(2)
N1 N 0.02565(4) 0.5619(2) 0.74391(19)
N2 N 0.18625(5) 0.4385(3) 0.7788(2)
S1 S 0.0000 0.13583(8) 0.7500
C1A C -0.19909(6) 0.2338(3) 0.7838(2)
H1A H -0.2343 0.2095 0.7907
C2A C -0.16418(6) 0.0554(3) 0.8391(2)
H2A H -0.1753 -0.0885 0.8807
C3A C -0.11274(5) 0.0898(3) 0.8331(2)
H3A H -0.0878 -0.0296 0.8711
C4A C -0.09823(5) 0.3022(2) 0.77054(18)
C5A C -0.13648(5) 0.4693(3) 0.7147(2)
H4A H -0.1267 0.6136 0.6694
C6A C -0.04417(5) 0.3526(2) 0.7602(2)
N1A N -0.02565(4) 0.5619(2) 0.75609(19)
N2A N -0.18625(5) 0.4385(3) 0.7212(2)
loop_
_geom_bond_atom_site_label_1
_geom_bond_atom_site_label_2
_geom_bond_site_symmetry_1
_geom_bond_site_symmetry_2
C1 H1 1_555 1_555
C2 C1 1_555 1_555
H2 C2 1_555 1_555
C3 C2 1_555 1_555
H3 C3 1_555 1_555
C4 C3 1_555 1_555
C5 C4 1_555 1_555
H4 C5 1_555 1_555
C6 C4 1_555 1_555
N1 C6 1_555 1_555
N2 C1 1_555 1_555
S1 C6 1_555 1_555
C1A H1A 1_555 1_555
C2A C1A 1_555 1_555
H2A C2A 1_555 1_555
C3A C2A 1_555 1_555
H3A C3A 1_555 1_555
C4A C3A 1_555 1_555
C5A C4A 1_555 1_555
H4A C5A 1_555 1_555
C6A S1 1_555 1_555
N1A N1 1_555 1_555
N2A C1A 1_555 1_555
C5 N2 1_555 1_555
C4A C6A 1_555 1_555
C5A N2A 1_555 1_555
C6A N1A 1_555 1_555

#END
