
#######################################################################
#
#                 Cambridge Crystallographic Data Centre
#                                CCDC 
#
#######################################################################
#
# If this CIF has been generated from an entry in the Cambridge 
# Structural Database, then it will include bibliographic, chemical, 
# crystal, experimental, refinement or atomic coordinate data resulting 
# from the CCDC's data processing and validation procedures.
#
#######################################################################

data_YICLEC01
_chemical_formula_moiety         'C31 H19 N1 O3'
_chemical_name_systematic        
3-benzoyl-1,2-diphenyl-1H-benzo[f]indole-4,9-dione
_symmetry_cell_setting           triclinic
_symmetry_space_group_name_H-M   'P -1'
_symmetry_Int_Tables_number      2
_space_group_name_Hall           '-P 1'
loop_
_symmetry_equiv_pos_site_id
_symmetry_equiv_pos_as_xyz
1 x,y,z
2 -x,-y,-z
_cell_length_a                   10.4834(5)
_cell_length_b                   10.8984(5)
_cell_length_c                   11.9384(6)
_cell_angle_alpha                63.430(3)
_cell_angle_beta                 69.213(3)
_cell_angle_gamma                73.770(3)
_cell_volume                     1128.57
_exptl_crystal_colour            yellow
_cell_formula_units_Z            2
loop_
_atom_site_label
_atom_site_type_symbol
_atom_site_fract_x
_atom_site_fract_y
_atom_site_fract_z
O1 O 0.48500(14) 0.17757(13) 0.56300(12)
C1 C 0.30382(16) 0.18096(16) 0.84997(14)
N1 N 0.19907(14) 0.59020(13) 0.51759(12)
C2 C 0.41736(17) 0.28676(17) 0.36608(16)
C3 C 0.33856(16) 0.39050(16) 0.53278(14)
C4 C 0.31224(16) 0.40871(16) 0.64920(15)
C5 C 0.26944(17) 0.50426(16) 0.45237(15)
C6 C 0.15687(17) 0.59336(15) 0.73740(15)
C7 C 0.35239(17) 0.40574(18) 0.28334(15)
C8 C 0.22455(16) 0.53245(16) 0.63847(15)
O2 O 0.20918(17) 0.62295(14) 0.25341(13)
C9 C 0.27190(19) 0.52346(18) 0.32272(16)
C10 C 0.41983(17) 0.27642(17) 0.49408(16)
O3 O 0.44458(16) 0.34538(15) 0.79531(15)
C11 C 0.12419(17) 0.72690(16) 0.46377(15)
C12 C 0.36181(17) 0.31274(17) 0.76726(16)
C13 C 0.20937(17) 0.14325(18) 0.81876(16)
H1 H 0.1796 0.2019 0.7448
C14 C 0.23498(18) 0.62536(18) 0.79054(17)
H2 H 0.3307 0.6115 0.7614
C15 C 0.01403(18) 0.61436(18) 0.78341(17)
H3 H -0.0403 0.5934 0.7492
C16 C 0.1925(2) 0.83998(17) 0.40705(17)
H4 H 0.2849 0.8291 0.4036
C17 C 0.34468(19) 0.09300(18) 0.96232(16)
H5 H 0.4077 0.1172 0.9848
C18 C 0.0312(2) 0.69825(19) 0.93028(18)
H6 H -0.0108 0.7340 0.9945
C19 C 0.3599(2) 0.4138(2) 0.16176(18)
H7 H 0.3189 0.4934 0.1054
C20 C 0.48321(19) 0.1772(2) 0.32707(19)
H8 H 0.5252 0.0973 0.3823
C21 C 0.1721(2) 0.67731(19) 0.88587(18)
H9 H 0.2257 0.6985 0.9207
C22 C -0.0472(2) 0.66603(19) 0.87935(18)
H10 H -0.1428 0.6792 0.9099
C23 C 0.2921(2) -0.0304(2) 1.04097(17)
H11 H 0.3193 -0.0886 1.1164
C24 C 0.2003(2) -0.0669(2) 1.00791(19)
H12 H 0.1654 -0.1502 1.0607
C25 C 0.1202(2) 0.97087(19) 0.35500(19)
H13 H 0.1650 1.0484 0.3150
C26 C -0.0118(2) 0.7411(2) 0.47050(19)
H14 H -0.0563 0.6636 0.5084
C27 C 0.1592(2) 0.0187(2) 0.89728(18)
H15 H 0.0973 -0.0072 0.8749
C28 C 0.4868(2) 0.1860(2) 0.2073(2)
H16 H 0.5293 0.1112 0.1829
C29 C 0.4278(2) 0.3047(2) 0.1240(2)
H17 H 0.4336 0.3116 0.0418
C30 C -0.0155(2) 0.9867(2) 0.36198(18)
H18 H -0.0630 1.0748 0.3274
C31 C -0.0821(2) 0.8730(2) 0.4198(2)
H19 H -0.1751 0.8844 0.4252
loop_
_geom_bond_atom_site_label_1
_geom_bond_atom_site_label_2
_geom_bond_site_symmetry_1
_geom_bond_site_symmetry_2
O1 C10 1_555 1_555
C1 C12 1_555 1_555
N1 C5 1_555 1_555
C2 C7 1_555 1_555
C3 C4 1_555 1_555
C4 C8 1_555 1_555
C5 C3 1_555 1_555
C6 C8 1_555 1_555
C7 C9 1_555 1_555
C8 N1 1_555 1_555
O2 C9 1_555 1_555
C9 C5 1_555 1_555
C10 C2 1_555 1_555
O3 C12 1_555 1_555
C11 N1 1_555 1_555
C12 C4 1_555 1_555
C13 C1 1_555 1_555
H1 C13 1_555 1_555
C14 C6 1_555 1_555
H2 C14 1_555 1_555
C15 C6 1_555 1_555
H3 C15 1_555 1_555
C16 C11 1_555 1_555
H4 C16 1_555 1_555
C17 C1 1_555 1_555
H5 C17 1_555 1_555
C18 H6 1_555 1_555
C19 C7 1_555 1_555
H7 C19 1_555 1_555
C20 C2 1_555 1_555
H8 C20 1_555 1_555
C21 C14 1_555 1_555
H9 C21 1_555 1_555
C22 C15 1_555 1_555
H10 C22 1_555 1_555
C23 C17 1_555 1_555
H11 C23 1_555 1_555
C24 C23 1_555 1_555
H12 C24 1_555 1_555
C25 C16 1_555 1_555
H13 C25 1_555 1_555
C26 C11 1_555 1_555
H14 C26 1_555 1_555
C27 C13 1_555 1_555
H15 C27 1_555 1_555
C28 C20 1_555 1_555
H16 C28 1_555 1_555
C29 C19 1_555 1_555
H17 C29 1_555 1_555
C30 C25 1_555 1_555
H18 C30 1_555 1_555
C31 C26 1_555 1_555
H19 C31 1_555 1_555
C3 C10 1_555 1_555
C18 C21 1_555 1_555
C18 C22 1_555 1_555
C24 C27 1_555 1_555
C28 C29 1_555 1_555
C30 C31 1_555 1_555

#END
