
#######################################################################
#
#                 Cambridge Crystallographic Data Centre
#                                CCDC 
#
#######################################################################
#
# If this CIF has been generated from an entry in the Cambridge 
# Structural Database, then it will include bibliographic, chemical, 
# crystal, experimental, refinement or atomic coordinate data resulting 
# from the CCDC's data processing and validation procedures.
#
#######################################################################

data_YICMOP
_chemical_formula_moiety         'C16 H12 F2 O2 S2'
_chemical_name_systematic        
2,2'-(2,5-difluoro-3,6-dimethoxy-1,4-phenylene)dithiophene
_symmetry_cell_setting           monoclinic
_symmetry_space_group_name_H-M   'P 21/n'
_symmetry_Int_Tables_number      14
_space_group_name_Hall           '-P 2yn'
loop_
_symmetry_equiv_pos_site_id
_symmetry_equiv_pos_as_xyz
1 x,y,z
2 1/2-x,1/2+y,1/2-z
3 -x,-y,-z
4 1/2+x,1/2-y,1/2+z
_cell_length_a                   5.5646(6)
_cell_length_b                   6.9441(8)
_cell_length_c                   18.902(2)
_cell_angle_alpha                90
_cell_angle_beta                 98.039(12)
_cell_angle_gamma                90
_cell_volume                     723.217
_exptl_crystal_colour            colorless
_exptl_crystal_description       needle
_cell_formula_units_Z            2
loop_
_atom_site_label
_atom_site_type_symbol
_atom_site_fract_x
_atom_site_fract_y
_atom_site_fract_z
S1 S 0.87928(14) 0.36755(12) 0.69599(4)
F1 F 0.7303(3) 0.1706(2) 0.47265(8)
O1 O 0.3882(3) 0.3033(3) 0.37282(9)
C1 C 1.1403(6) 0.2406(4) 0.71533(17)
H1 H 1.211257 0.208324 0.762493
C2 C 1.2358(5) 0.1906(4) 0.65633(17)
H2 H 1.382931 0.120332 0.657869
C3 C 1.0969(5) 0.2523(4) 0.59171(14)
H3 H 1.139058 0.229242 0.545452
C4 C 0.8880(5) 0.3523(4) 0.60527(14)
C5 C 0.6911(5) 0.4285(4) 0.55247(14)
C6 C 0.6201(5) 0.3379(4) 0.48725(14)
C7 C 0.4381(5) 0.4038(4) 0.43583(13)
C8 C 0.1991(6) 0.1629(4) 0.37483(16)
H4 H 0.167357 0.097109 0.328593
H5 H 0.050853 0.227400 0.384818
H6 H 0.250283 0.068422 0.412459
S1B S 0.12072(14) 0.63245(12) 0.30401(4)
F1B F 0.2697(3) 0.8294(2) 0.52735(8)
O1B O 0.6118(3) 0.6967(3) 0.62718(9)
C1B C -0.1403(6) 0.7594(4) 0.28467(17)
H1B H -0.211257 0.791676 0.237507
C2B C -0.2358(5) 0.8094(4) 0.34367(17)
H2B H -0.382931 0.879668 0.342131
C3B C -0.0969(5) 0.7477(4) 0.40829(14)
H3B H -0.139058 0.770758 0.454548
C4B C 0.1120(5) 0.6477(4) 0.39473(14)
C5B C 0.3089(5) 0.5715(4) 0.44753(14)
C6B C 0.3799(5) 0.6621(4) 0.51275(14)
C7B C 0.5619(5) 0.5962(4) 0.56417(13)
C8B C 0.8009(6) 0.8371(4) 0.62517(16)
H4B H 0.832643 0.902891 0.671407
H5B H 0.949147 0.772600 0.615182
H6B H 0.749717 0.931578 0.587541
loop_
_geom_bond_atom_site_label_1
_geom_bond_atom_site_label_2
_geom_bond_site_symmetry_1
_geom_bond_site_symmetry_2
S1 C1 1_555 1_555
F1 C6 1_555 1_555
O1 C7 1_555 1_555
C1 H1 1_555 1_555
C2 C1 1_555 1_555
H2 C2 1_555 1_555
C3 C2 1_555 1_555
H3 C3 1_555 1_555
C4 S1 1_555 1_555
C5 C4 1_555 1_555
C6 C5 1_555 1_555
C7 C6 1_555 1_555
C8 O1 1_555 1_555
H4 C8 1_555 1_555
H5 C8 1_555 1_555
H6 C8 1_555 1_555
S1B C1B 1_555 1_555
F1B C6B 1_555 1_555
O1B C7B 1_555 1_555
C1B H1B 1_555 1_555
C2B C1B 1_555 1_555
H2B C2B 1_555 1_555
C3B C2B 1_555 1_555
H3B C3B 1_555 1_555
C4B S1B 1_555 1_555
C5B C7 1_555 1_555
C6B C5B 1_555 1_555
C7B C5 1_555 1_555
C8B O1B 1_555 1_555
H4B C8B 1_555 1_555
H5B C8B 1_555 1_555
H6B C8B 1_555 1_555
C3 C4 1_555 1_555
C3B C4B 1_555 1_555
C4B C5B 1_555 1_555
C6B C7B 1_555 1_555

#END
