
#######################################################################
#
#                 Cambridge Crystallographic Data Centre
#                                CCDC 
#
#######################################################################
#
# If this CIF has been generated from an entry in the Cambridge 
# Structural Database, then it will include bibliographic, chemical, 
# crystal, experimental, refinement or atomic coordinate data resulting 
# from the CCDC's data processing and validation procedures.
#
#######################################################################

data_YICROU
_chemical_formula_moiety         'C7 H7 Cl1 F3 N1 O1'
_chemical_name_systematic        
3-(1-chloro-2,2,2-trifluoroethylidene)-1-methylpyrrolidin-2-one
_symmetry_cell_setting           triclinic
_symmetry_space_group_name_H-M   'P -1'
_symmetry_Int_Tables_number      2
_space_group_name_Hall           '-P 1'
loop_
_symmetry_equiv_pos_site_id
_symmetry_equiv_pos_as_xyz
1 x,y,z
2 -x,-y,-z
_cell_length_a                   9.2047(4)
_cell_length_b                   9.2385(4)
_cell_length_c                   10.4753(3)
_cell_angle_alpha                100.208(3)
_cell_angle_beta                 92.674(3)
_cell_angle_gamma                105.159(4)
_cell_volume                     842.124
_exptl_crystal_colour            colorless
_exptl_crystal_description       Needle
_cell_formula_units_Z            4
loop_
_atom_site_label
_atom_site_type_symbol
_atom_site_fract_x
_atom_site_fract_y
_atom_site_fract_z
F1 F 0.15225(17) 0.59115(16) 0.18479(13)
F2 F 0.24201(15) 0.54619(15) 0.00251(14)
F3 F 0.07492(14) 0.66866(15) 0.02147(15)
Cl1 Cl 0.47537(6) 0.76934(6) 0.20230(5)
C1 C 0.3134(2) 0.9349(2) 0.10030(17)
N1 N 0.38301(18) 1.19420(19) 0.11377(16)
C2 C 0.4375(2) 1.0821(2) 0.14479(18)
C3 C 0.4632(3) 1.3551(2) 0.1518(2)
H1 H 0.4061 1.4062 0.2094
H2 H 0.4762 1.3998 0.0756
H3 H 0.5605 1.3659 0.1957
C4 C 0.1977(2) 0.6525(2) 0.08211(19)
C5 C 0.2296(2) 1.1464(2) 0.0517(2)
H4 H 0.2259 1.1777 -0.0318
H5 H 0.1635 1.1903 0.1063
O1 O 0.56294(16) 1.09815(17) 0.19849(15)
C6 C 0.1830(2) 0.9726(2) 0.0338(2)
H6 H 0.0907 0.9374 0.0739
H7 H 0.1669 0.9254 -0.0580
C7 C 0.3208(2) 0.7996(2) 0.12179(18)
F4 F 0.3251(3) 0.22787(19) 0.39434(16)
F5 F 0.43013(18) 0.3775(2) 0.56705(18)
F6 F 0.22910(19) 0.3990(2) 0.47755(18)
Cl2 Cl 0.13816(7) 0.29161(6) 0.71177(5)
C8 C 0.1102(2) -0.0629(2) 0.64858(18)
C9 C 0.2091(2) 0.1924(2) 0.58492(18)
C10 C 0.2570(2) -0.0523(2) 0.4624(2)
H8 H 0.3613 -0.0011 0.4533
H9 H 0.1980 -0.0726 0.3788
O2 O 0.03022(17) -0.03381(17) 0.73398(14)
N2 N 0.13811(19) -0.19910(18) 0.60926(16)
C11 C 0.2457(3) -0.2007(3) 0.5125(2)
H10 H 0.2094 -0.2893 0.4425
H11 H 0.3431 -0.2015 0.5514
C12 C 0.1937(2) 0.0427(2) 0.56561(18)
C13 C 0.2975(2) 0.2990(2) 0.5057(2)
C14 C 0.0929(3) -0.3237(2) 0.6782(2)
H12 H 0.1792 -0.3305 0.7294
H13 H 0.0521 -0.4178 0.6165
H14 H 0.0174 -0.3055 0.7343
loop_
_geom_bond_atom_site_label_1
_geom_bond_atom_site_label_2
_geom_bond_site_symmetry_1
_geom_bond_site_symmetry_2
F1 C4 1_555 1_555
F2 C4 1_555 1_555
F3 C4 1_555 1_555
Cl1 C7 1_555 1_555
C1 C2 1_555 1_555
N1 C2 1_555 1_555
C2 O1 1_555 1_555
C3 N1 1_555 1_555
H1 C3 1_555 1_555
H2 C3 1_555 1_555
H3 C3 1_555 1_555
C4 C7 1_555 1_555
C5 N1 1_555 1_555
H4 C5 1_555 1_555
H5 C5 1_555 1_555
C6 C1 1_555 1_555
H6 C6 1_555 1_555
H7 C6 1_555 1_555
C7 C1 1_555 1_555
F4 C13 1_555 1_555
F5 C13 1_555 1_555
F6 C13 1_555 1_555
Cl2 C9 1_555 1_555
C8 O2 1_555 1_555
C9 C12 1_555 1_555
C10 H8 1_555 1_555
H9 C10 1_555 1_555
N2 C8 1_555 1_555
C11 C10 1_555 1_555
H10 C11 1_555 1_555
H11 C11 1_555 1_555
C12 C8 1_555 1_555
C13 C9 1_555 1_555
C14 N2 1_555 1_555
H12 C14 1_555 1_555
H13 C14 1_555 1_555
H14 C14 1_555 1_555
C5 C6 1_555 1_555
C10 C12 1_555 1_555
N2 C11 1_555 1_555

#END
