
#######################################################################
#
#                 Cambridge Crystallographic Data Centre
#                                CCDC 
#
#######################################################################
#
# If this CIF has been generated from an entry in the Cambridge 
# Structural Database, then it will include bibliographic, chemical, 
# crystal, experimental, refinement or atomic coordinate data resulting 
# from the CCDC's data processing and validation procedures.
#
#######################################################################

data_YICREK
_chemical_formula_moiety         'C13 H15 N3 O4 S1'
_chemical_name_systematic        
'diethyl 5-(thiophen-2-yl)-2,5-dihydro-1,2,4-triazine-3,6-dicarboxylate'
_symmetry_cell_setting           monoclinic
_symmetry_space_group_name_H-M   'P 21/c'
_symmetry_Int_Tables_number      14
_space_group_name_Hall           '-P 2ybc'
loop_
_symmetry_equiv_pos_site_id
_symmetry_equiv_pos_as_xyz
1 x,y,z
2 -x,1/2+y,1/2-z
3 -x,-y,-z
4 x,1/2-y,1/2+z
_cell_length_a                   10.9601(8)
_cell_length_b                   15.1051(11)
_cell_length_c                   9.8575(8)
_cell_angle_alpha                90
_cell_angle_beta                 112.3080(10)
_cell_angle_gamma                90
_cell_volume                     1509.8
_exptl_crystal_colour            yellow
_exptl_crystal_description       block
_cell_formula_units_Z            4
loop_
_atom_site_label
_atom_site_type_symbol
_atom_site_fract_x
_atom_site_fract_y
_atom_site_fract_z
C1 C 0.6345(4) 1.0955(3) 0.8373(5)
H1 H 0.6489 1.1472 0.8926
C2 C 0.7013(4) 1.0766(3) 0.7522(5)
H2 H 0.7642 1.1155 0.7448
S1 S 0.52718(15) 1.02256(9) 0.83749(17)
C3 C 0.6710(2) 0.98892(14) 0.6672(2)
C4 C 0.5567(3) 0.9558(2) 0.7166(3)
C5 C 0.4826(3) 0.8702(2) 0.6616(3)
H3 H 0.4272 0.8768 0.5574
C6 C 0.3956(3) 0.8461(2) 0.7443(3)
C7 C 0.2505(3) 0.8623(2) 0.6765(4)
C8 C 0.7234(3) 0.6920(2) 0.8486(3)
C9 C 0.0492(3) 0.8550(3) 0.7103(5)
H4 H 0.0118 0.8104 0.6349
H5 H 0.0204 0.9128 0.6676
C10 C 0.0064(4) 0.8394(4) 0.8346(6)
H6 H 0.0337 0.7814 0.8743
H7 H -0.0880 0.8438 0.8002
H8 H 0.0457 0.8830 0.9093
C11 C 0.6193(3) 0.76223(19) 0.8070(3)
C12 C 0.8577(4) 0.6020(3) 0.7653(5)
H9 H 0.8253 0.5466 0.7887
H10 H 0.9380 0.6181 0.8466
C13 C 0.8834(5) 0.5929(3) 0.6278(6)
H11 H 0.8066 0.5690 0.5517
H12 H 0.9568 0.5538 0.6448
H13 H 0.9032 0.6499 0.5984
N1 N 0.4414(2) 0.80718(18) 0.8684(3)
N2 N 0.5760(2) 0.79680(16) 0.6785(3)
N3 N 0.5708(2) 0.78097(19) 0.9124(3)
H14 H 0.5912 0.7515 1.0060
O1 O 0.1952(2) 0.8832(2) 0.5505(3)
O2 O 0.1918(2) 0.8497(2) 0.7694(3)
O3 O 0.7679(3) 0.6600(2) 0.9685(3)
O4 O 0.7587(2) 0.67134(16) 0.7385(2)
C14? C 0.52718(15) 1.02256(9) 0.83749(17)
S2? S 0.6710(2) 0.98892(14) 0.6672(2)
H15? H 0.6403 0.9979 0.5620
H16? H 0.7461 0.9491 0.6989
loop_
_geom_bond_atom_site_label_1
_geom_bond_atom_site_label_2
_geom_bond_site_symmetry_1
_geom_bond_site_symmetry_2
C1 H1 1_555 1_555
C2 C1 1_555 1_555
H2 C2 1_555 1_555
S1 C1 1_555 1_555
C3 C2 1_555 1_555
C4 S1 1_555 1_555
C5 C4 1_555 1_555
H3 C5 1_555 1_555
C6 C5 1_555 1_555
C7 C6 1_555 1_555
C8 C11 1_555 1_555
C9 H4 1_555 1_555
H5 C9 1_555 1_555
C10 C9 1_555 1_555
H6 C10 1_555 1_555
H7 C10 1_555 1_555
H8 C10 1_555 1_555
C11 N2 1_555 1_555
C12 H9 1_555 1_555
H10 C12 1_555 1_555
C13 C12 1_555 1_555
H11 C13 1_555 1_555
H12 C13 1_555 1_555
H13 C13 1_555 1_555
N1 C6 1_555 1_555
N2 C5 1_555 1_555
N3 C11 1_555 1_555
H14 N3 1_555 1_555
O1 C7 1_555 1_555
O2 C7 1_555 1_555
O3 C8 1_555 1_555
O4 C8 1_555 1_555
C3 C4 1_555 1_555
C9 O2 1_555 1_555
C12 O4 1_555 1_555
N1 N3 1_555 1_555

#END
