
#######################################################################
#
#                 Cambridge Crystallographic Data Centre
#                                CCDC 
#
#######################################################################
#
# If this CIF has been generated from an entry in the Cambridge 
# Structural Database, then it will include bibliographic, chemical, 
# crystal, experimental, refinement or atomic coordinate data resulting 
# from the CCDC's data processing and validation procedures.
#
#######################################################################

data_YICROS
_chemical_formula_moiety         'C20 H33 N3 O3'
_chemical_name_systematic        
rac-(S,S,S)-1,1,1-tris(4-Isopropyloxazolin-2-yl)ethane
_symmetry_cell_setting           triclinic
_symmetry_space_group_name_H-M   'P -1'
_symmetry_Int_Tables_number      2
_space_group_name_Hall           '-P 1'
loop_
_symmetry_equiv_pos_site_id
_symmetry_equiv_pos_as_xyz
1 x,y,z
2 -x,-y,-z
_cell_length_a                   10.1130(2)
_cell_length_b                   10.2640(2)
_cell_length_c                   11.8750(5)
_cell_angle_alpha                92.8740(9)
_cell_angle_beta                 106.2990(10)
_cell_angle_gamma                117.6360(16)
_cell_volume                     1024.27
_exptl_crystal_colour            'dark red'
_exptl_crystal_description       prism
_cell_formula_units_Z            2
loop_
_atom_site_label
_atom_site_type_symbol
_atom_site_fract_x
_atom_site_fract_y
_atom_site_fract_z
O1 O 0.24396(11) 0.31255(10) 0.81248(10)
O2 O 0.21428(12) 0.14396(11) 0.58449(9)
O3 O 0.28446(13) 0.09023(11) 0.95135(9)
N1 N 0.50069(13) 0.44912(12) 0.82678(12)
N2 N 0.39546(13) 0.06827(13) 0.60441(11)
N3 N 0.13175(13) -0.06602(12) 0.76891(11)
C1 C 0.37655(15) 0.17248(14) 0.78738(13)
C2 C 0.54109(16) 0.19175(15) 0.85412(14)
H1 H 0.5684 0.2226 0.9407
H2 H 0.6210 0.2689 0.8271
H3 H 0.5385 0.0960 0.8370
C3 C 0.38152(15) 0.32199(14) 0.81112(13)
C4 C 0.27735(18) 0.46700(16) 0.83403(15)
H4 H 0.2672 0.4937 0.9112
H5 H 0.2038 0.4825 0.7686
C5 C 0.44932(16) 0.56147(15) 0.83760(14)
H6 H 0.5151 0.6314 0.9179
C6 C 0.46979(17) 0.65366(15) 0.73988(14)
H7 H 0.5859 0.7099 0.7520
C7 C 0.4197(2) 0.77031(17) 0.75611(15)
H8 H 0.3051 0.7192 0.7410
H9 H 0.4447 0.8364 0.6994
H10 H 0.4770 0.8303 0.8384
C8 C 0.3846(2) 0.55737(19) 0.61334(16)
H11 H 0.4247 0.4883 0.6047
H12 H 0.4040 0.6224 0.5553
H13 H 0.2702 0.4994 0.5986
C9 C 0.33166(15) 0.12272(14) 0.65374(13)
C10 C 0.19999(18) 0.10019(17) 0.46138(14)
H14 H 0.2333 0.1883 0.4232
H15 H 0.0892 0.0233 0.4131
C11 C 0.31246(16) 0.03536(17) 0.47330(13)
H16 H 0.3923 0.0930 0.4350
C12 C 0.23125(16) -0.13268(17) 0.41792(14)
H17 H 0.3147 -0.1627 0.4383
C13 C 0.16555(19) -0.1582(2) 0.28161(15)
H18 H 0.1265 -0.2632 0.2460
H19 H 0.2499 -0.0914 0.2528
H20 H 0.0780 -0.1366 0.2584
C14 C 0.10379(18) -0.23083(17) 0.46791(15)
H21 H 0.0131 -0.2142 0.4399
H22 H 0.1473 -0.2046 0.5558
H23 H 0.0688 -0.3369 0.4402
C15 C 0.25351(16) 0.05577(14) 0.83129(12)
C16 C 0.16683(18) -0.04233(17) 0.97652(14)
H24 H 0.1129 -0.0152 1.0234
H25 H 0.2163 -0.0960 1.0220
C17 C 0.04918(16) -0.13952(16) 0.85211(13)
H26 H -0.0489 -0.1313 0.8357
C18 C 0.00211(18) -0.30485(17) 0.83950(15)
H27 H 0.1005 -0.3126 0.8564
C19 C -0.1092(2) -0.39364(18) 0.71259(17)
H28 H -0.2035 -0.3820 0.6928
H29 H -0.1417 -0.5003 0.7079
H30 H -0.0541 -0.3556 0.6555
C20 C -0.0763(2) -0.3706(2) 0.93106(17)
H31 H -0.0024 -0.3141 1.0122
H32 H -0.1040 -0.4764 0.9239
H33 H -0.1728 -0.3634 0.9159
loop_
_geom_bond_atom_site_label_1
_geom_bond_atom_site_label_2
_geom_bond_site_symmetry_1
_geom_bond_site_symmetry_2
O1 C3 1_555 1_555
O2 C9 1_555 1_555
O3 C15 1_555 1_555
N1 C3 1_555 1_555
N2 C9 1_555 1_555
N3 C15 1_555 1_555
C1 C2 1_555 1_555
C2 H1 1_555 1_555
H2 C2 1_555 1_555
H3 C2 1_555 1_555
C3 C1 1_555 1_555
C4 O1 1_555 1_555
H4 C4 1_555 1_555
H5 C4 1_555 1_555
C5 N1 1_555 1_555
H6 C5 1_555 1_555
C6 C5 1_555 1_555
H7 C6 1_555 1_555
C7 C6 1_555 1_555
H8 C7 1_555 1_555
H9 C7 1_555 1_555
H10 C7 1_555 1_555
C8 C6 1_555 1_555
H11 C8 1_555 1_555
H12 C8 1_555 1_555
H13 C8 1_555 1_555
C9 C1 1_555 1_555
C10 O2 1_555 1_555
H14 C10 1_555 1_555
H15 C10 1_555 1_555
C11 N2 1_555 1_555
H16 C11 1_555 1_555
C12 C11 1_555 1_555
H17 C12 1_555 1_555
C13 C12 1_555 1_555
H18 C13 1_555 1_555
H19 C13 1_555 1_555
H20 C13 1_555 1_555
C14 C12 1_555 1_555
H21 C14 1_555 1_555
H22 C14 1_555 1_555
H23 C14 1_555 1_555
C15 C1 1_555 1_555
C16 O3 1_555 1_555
H24 C16 1_555 1_555
H25 C16 1_555 1_555
C17 N3 1_555 1_555
H26 C17 1_555 1_555
C18 C17 1_555 1_555
H27 C18 1_555 1_555
C19 C18 1_555 1_555
H28 C19 1_555 1_555
H29 C19 1_555 1_555
H30 C19 1_555 1_555
C20 C18 1_555 1_555
H31 C20 1_555 1_555
H32 C20 1_555 1_555
H33 C20 1_555 1_555
C4 C5 1_555 1_555
C10 C11 1_555 1_555
C16 C17 1_555 1_555

#END
