
#######################################################################
#
#                 Cambridge Crystallographic Data Centre
#                                CCDC 
#
#######################################################################
#
# If this CIF has been generated from an entry in the Cambridge 
# Structural Database, then it will include bibliographic, chemical, 
# crystal, experimental, refinement or atomic coordinate data resulting 
# from the CCDC's data processing and validation procedures.
#
#######################################################################

data_YICRIO
_chemical_formula_moiety         'C13 H17 N3 O4 S1'
_chemical_name_systematic        
'diethyl 5-(thiophen-2-yl)-1,4,5,6-tetrahydro-1,2,4-triazine-3,6-dicarboxylate'
_symmetry_cell_setting           monoclinic
_symmetry_space_group_name_H-M   'P 21/c'
_symmetry_Int_Tables_number      14
_space_group_name_Hall           '-P 2ybc'
loop_
_symmetry_equiv_pos_site_id
_symmetry_equiv_pos_as_xyz
1 x,y,z
2 -x,1/2+y,1/2-z
3 -x,-y,-z
4 x,1/2-y,1/2+z
_cell_length_a                   8.0310(7)
_cell_length_b                   16.9049(13)
_cell_length_c                   10.9664(10)
_cell_angle_alpha                90
_cell_angle_beta                 95.026(3)
_cell_angle_gamma                90
_cell_volume                     1483.11
_exptl_crystal_colour            colorless
_exptl_crystal_description       block
_cell_formula_units_Z            4
loop_
_atom_site_label
_atom_site_type_symbol
_atom_site_fract_x
_atom_site_fract_y
_atom_site_fract_z
C1 C 0.2511(3) 0.71464(13) 0.8264(2)
H1 H 0.1487 0.6832 0.8124
C2 C 0.3760(3) 0.68542(12) 0.73879(18)
H2 H 0.3370 0.7027 0.6559
C3 C 0.5720(3) 0.74411(11) 0.89546(18)
C4 C 0.7397(3) 0.77961(13) 0.9241(2)
C5 C 0.3943(3) 0.59703(13) 0.73748(19)
C6 C 0.3867(3) 0.54993(13) 0.6370(2)
H3 H 0.3626 0.5686 0.5577
C7 C 0.4194(4) 0.46966(15) 0.6655(3)
H4 H 0.4192 0.4299 0.6069
C8 C 0.4504(4) 0.45689(15) 0.7851(3)
H5 H 0.4749 0.4075 0.8196
C9 C 0.2055(3) 0.80190(13) 0.8067(2)
C10 C 0.0697(4) 0.89434(16) 0.6690(3)
H6 H 0.1586 0.9311 0.6545
H7 H 0.0156 0.9126 0.7395
C11 C -0.0515(6) 0.8912(2) 0.5618(4)
H8 H 0.0011 0.8701 0.4936
H9 H -0.0918 0.9436 0.5424
H10 H -0.1435 0.8580 0.5790
C12 C 0.9126(3) 0.85580(19) 1.0662(3)
H11 H 0.9488 0.8834 0.9956
H12 H 0.9989 0.8184 1.0947
C13 C 0.8846(4) 0.9124(2) 1.1634(3)
H13 H 0.8051 0.9515 1.1325
H14 H 0.9882 0.9378 1.1904
H15 H 0.8422 0.8850 1.2308
H16 H 0.257(3) 0.7098(13) 1.005(2)
N1 N 0.3241(3) 0.69913(12) 0.94913(17)
N2 N 0.4787(2) 0.73432(11) 0.98348(16)
N3 N 0.5317(2) 0.72625(11) 0.77534(16)
H17 H 0.5982 0.7391 0.7213
O1 O 0.8463(2) 0.77776(12) 0.85305(18)
O2 O 0.75619(19) 0.81425(10) 1.03266(15)
O3 O 0.2224(2) 0.85133(10) 0.88490(17)
O4 O 0.1388(2) 0.81551(9) 0.69259(16)
S1 S 0.43964(12) 0.54216(4) 0.86758(6)
loop_
_geom_bond_atom_site_label_1
_geom_bond_atom_site_label_2
_geom_bond_site_symmetry_1
_geom_bond_site_symmetry_2
C1 H1 1_555 1_555
C2 C1 1_555 1_555
H2 C2 1_555 1_555
C3 C4 1_555 1_555
C4 O1 1_555 1_555
C5 C2 1_555 1_555
C6 C5 1_555 1_555
H3 C6 1_555 1_555
C7 C6 1_555 1_555
H4 C7 1_555 1_555
C8 C7 1_555 1_555
H5 C8 1_555 1_555
C9 C1 1_555 1_555
C10 H6 1_555 1_555
H7 C10 1_555 1_555
C11 C10 1_555 1_555
H8 C11 1_555 1_555
H9 C11 1_555 1_555
H10 C11 1_555 1_555
C12 H11 1_555 1_555
H12 C12 1_555 1_555
C13 C12 1_555 1_555
H13 C13 1_555 1_555
H14 C13 1_555 1_555
H15 C13 1_555 1_555
H16 N1 1_555 1_555
N1 C1 1_555 1_555
N2 C3 1_555 1_555
N3 C2 1_555 1_555
H17 N3 1_555 1_555
O2 C4 1_555 1_555
O3 C9 1_555 1_555
O4 C9 1_555 1_555
S1 C5 1_555 1_555
C3 N3 1_555 1_555
C8 S1 1_555 1_555
C10 O4 1_555 1_555
C12 O2 1_555 1_555
N1 N2 1_555 1_555

#END
