
#######################################################################
#
#                 Cambridge Crystallographic Data Centre
#                                CCDC 
#
#######################################################################
#
# If this CIF has been generated from an entry in the Cambridge 
# Structural Database, then it will include bibliographic, chemical, 
# crystal, experimental, refinement or atomic coordinate data resulting 
# from the CCDC's data processing and validation procedures.
#
#######################################################################

data_YICRAG
_chemical_formula_moiety         'C19 H25 N3 O6'
_chemical_name_systematic        
'triethyl 5-(4-methylphenyl)-4,5-dihydro-1,2,4-triazine-3,6,6(1H)-tricarboxylate'
_symmetry_cell_setting           orthorhombic
_symmetry_space_group_name_H-M   'P b c a'
_symmetry_Int_Tables_number      61
_space_group_name_Hall           '-P 2ac 2ab'
loop_
_symmetry_equiv_pos_site_id
_symmetry_equiv_pos_as_xyz
1 x,y,z
2 1/2-x,-y,1/2+z
3 -x,1/2+y,1/2-z
4 1/2+x,1/2-y,-z
5 -x,-y,-z
6 1/2+x,y,1/2-z
7 x,1/2-y,1/2+z
8 1/2-x,1/2+y,z
_cell_length_a                   16.2155(16)
_cell_length_b                   10.3711(9)
_cell_length_c                   25.120(3)
_cell_angle_alpha                90
_cell_angle_beta                 90
_cell_angle_gamma                90
_cell_volume                     4224.5
_exptl_crystal_colour            yellow
_exptl_crystal_description       block
_cell_formula_units_Z            8
loop_
_atom_site_label
_atom_site_type_symbol
_atom_site_fract_x
_atom_site_fract_y
_atom_site_fract_z
C1 C 0.93965(19) 0.8739(3) 0.63291(12)
C2 C 0.9600(2) 0.9632(4) 0.59418(14)
H1 H 0.9225 1.0273 0.5851
C3 C 1.0361(3) 0.9578(5) 0.56877(16)
H2 H 1.0490 1.0191 0.5431
C4 C 1.0925(3) 0.8637(5) 0.58084(18)
C5 C 1.0740(3) 0.7797(5) 0.6213(2)
H3 H 1.1129 0.7190 0.6318
C6 C 0.9983(2) 0.7837(4) 0.64679(17)
H4 H 0.9869 0.7247 0.6737
C7 C 1.1740(3) 0.8572(7) 0.5508(2)
H5 H 1.2186 0.8506 0.5758
H6 H 1.1806 0.9338 0.5298
H7 H 1.1740 0.7831 0.5279
C8 C 0.85551(18) 0.8718(2) 0.65846(12)
H8 H 0.8491 0.7892 0.6770
C9 C 0.84247(17) 0.9811(2) 0.69939(11)
C10 C 0.91765(19) 0.9952(3) 0.73554(12)
C11 C 1.0018(3) 0.8850(5) 0.79845(18)
H9 H 1.0335 0.8079 0.7907
H10 H 1.0365 0.9591 0.7911
C12 C 0.9802(6) 0.8853(13) 0.8507(3)
H11 H 0.9346 0.9430 0.8560
H12 H 1.0262 0.9133 0.8718
H13 H 0.9645 0.7998 0.8613
C13 C 0.7665(2) 0.9528(3) 0.73383(12)
C14 C 0.6845(3) 1.0422(6) 0.8031(2)
H14 H 0.6359 1.0620 0.7821
H15 H 0.6775 0.9569 0.8184
C15 C 0.6936(4) 1.1344(6) 0.8443(3)
H16 H 0.7393 1.1109 0.8666
H17 H 0.6441 1.1371 0.8653
H18 H 0.7035 1.2178 0.8290
C16 C 0.75102(18) 0.9960(3) 0.61088(12)
C17 C 0.6837(2) 0.9911(3) 0.57092(14)
C18 C 0.5860(4) 1.1094(6) 0.5223(3)
H19 H 0.5848 1.0299 0.5020
H20 H 0.5339 1.1173 0.5410
C19 C 0.5953(5) 1.2118(10) 0.4882(2)
H21 H 0.5852 1.2907 0.5071
H22 H 0.5568 1.2039 0.4594
H23 H 0.6505 1.2124 0.4744
N1 N 0.83253(15) 1.1012(2) 0.67009(10)
N2 N 0.76689(15) 1.1045(2) 0.63379(10)
N3 N 0.78993(17) 0.8825(2) 0.61956(11)
O1 O 0.72096(17) 0.8635(2) 0.72939(12)
O2 O 0.75744(18) 1.0444(3) 0.76943(10)
O3 O 0.95934(18) 1.0889(3) 0.73854(12)
O4 O 0.92859(16) 0.8891(2) 0.76359(9)
O5 O 0.6525(2) 1.1043(3) 0.56038(15)
O6 O 0.6607(2) 0.8938(3) 0.55080(14)
H24 H 0.766(2) 0.816(4) 0.6098(14)
H25 H 0.8215(18) 1.163(3) 0.6943(12)
loop_
_geom_bond_atom_site_label_1
_geom_bond_atom_site_label_2
_geom_bond_site_symmetry_1
_geom_bond_site_symmetry_2
C1 C2 1_555 1_555
C2 H1 1_555 1_555
C3 C2 1_555 1_555
H2 C3 1_555 1_555
C4 C3 1_555 1_555
C5 C4 1_555 1_555
H3 C5 1_555 1_555
C6 C1 1_555 1_555
H4 C6 1_555 1_555
C7 C4 1_555 1_555
H5 C7 1_555 1_555
H6 C7 1_555 1_555
H7 C7 1_555 1_555
C8 C1 1_555 1_555
H8 C8 1_555 1_555
C9 C8 1_555 1_555
C10 C9 1_555 1_555
C11 H9 1_555 1_555
H10 C11 1_555 1_555
C12 C11 1_555 1_555
H11 C12 1_555 1_555
H12 C12 1_555 1_555
H13 C12 1_555 1_555
C13 C9 1_555 1_555
C14 H14 1_555 1_555
H15 C14 1_555 1_555
C15 C14 1_555 1_555
H16 C15 1_555 1_555
H17 C15 1_555 1_555
H18 C15 1_555 1_555
C16 C17 1_555 1_555
C17 O5 1_555 1_555
C18 H19 1_555 1_555
H20 C18 1_555 1_555
C19 C18 1_555 1_555
H21 C19 1_555 1_555
H22 C19 1_555 1_555
H23 C19 1_555 1_555
N1 C9 1_555 1_555
N2 C16 1_555 1_555
N3 C8 1_555 1_555
O1 C13 1_555 1_555
O2 C13 1_555 1_555
O3 C10 1_555 1_555
O4 C10 1_555 1_555
O5 C18 1_555 1_555
O6 C17 1_555 1_555
H24 N3 1_555 1_555
H25 N1 1_555 1_555
C5 C6 1_555 1_555
C11 O4 1_555 1_555
C14 O2 1_555 1_555
C16 N3 1_555 1_555
N1 N2 1_555 1_555

#END
