
#######################################################################
#
#                 Cambridge Crystallographic Data Centre
#                                CCDC 
#
#######################################################################
#
# If this CIF has been generated from an entry in the Cambridge 
# Structural Database, then it will include bibliographic, chemical, 
# crystal, experimental, refinement or atomic coordinate data resulting 
# from the CCDC's data processing and validation procedures.
#
#######################################################################

data_YICSIO
_chemical_formula_moiety         'C15 H24 N6 O3'
_chemical_name_systematic        
N'-Cyano-N-(bis(morpholin-4-yl)methylene)morpholine-4-carboximidamide
_symmetry_cell_setting           monoclinic
_symmetry_space_group_name_H-M   'P 21/c'
_symmetry_Int_Tables_number      14
_space_group_name_Hall           '-P 2ybc'
loop_
_symmetry_equiv_pos_site_id
_symmetry_equiv_pos_as_xyz
1 x,y,z
2 -x,1/2+y,1/2-z
3 -x,-y,-z
4 x,1/2-y,1/2+z
_cell_length_a                   7.8728(2)
_cell_length_b                   14.8250(3)
_cell_length_c                   14.0138(3)
_cell_angle_alpha                90
_cell_angle_beta                 90.3920(10)
_cell_angle_gamma                90
_cell_volume                     1635.57
_exptl_crystal_colour            colorless
_exptl_crystal_description       block
_cell_formula_units_Z            4
loop_
_atom_site_label
_atom_site_type_symbol
_atom_site_fract_x
_atom_site_fract_y
_atom_site_fract_z
C1 C 0.45452(11) -0.02511(6) 0.74967(6)
N1 N 0.56676(10) 0.04092(5) 0.77498(6)
C2 C 0.58726(12) 0.07346(6) 0.87344(7)
H1 H 0.6767 0.0407 0.9048
H2 H 0.4841 0.0639 0.9082
C3 C 0.62968(13) 0.17303(7) 0.87168(8)
H3 H 0.5363 0.2059 0.8442
H4 H 0.6467 0.1942 0.9358
O1 O 0.77956(10) 0.18925(5) 0.81728(6)
C4 C 0.75614(14) 0.15914(7) 0.72175(8)
H5 H 0.8572 0.1713 0.6860
H6 H 0.6644 0.1922 0.6928
C5 C 0.71693(12) 0.05873(6) 0.71713(7)
H7 H 0.6960 0.0410 0.6522
H8 H 0.8118 0.0247 0.7410
N2 N 0.29587(10) -0.02004(5) 0.78570(6)
C6 C 0.20525(12) 0.06387(6) 0.80607(7)
H9 H 0.1303 0.0783 0.7539
H10 H 0.2850 0.1124 0.8134
C7 C 0.10389(13) 0.05278(7) 0.89683(7)
H11 H 0.1802 0.0451 0.9499
H12 H 0.0380 0.1062 0.9078
O2 O -0.00648(9) -0.02337(5) 0.89027(5)
C8 C 0.08751(13) -0.10381(7) 0.87512(8)
H13 H 0.0114 -0.1544 0.8733
H14 H 0.1659 -0.1127 0.9271
C9 C 0.18421(13) -0.09855(7) 0.78224(8)
H15 H 0.2501 -0.1524 0.7735
H16 H 0.1062 -0.0932 0.7296
N3 N 0.48683(10) -0.08845(5) 0.68584(6)
C10 C 0.63759(12) -0.13301(6) 0.68425(7)
N4 N 0.70177(11) -0.15227(5) 0.59794(6)
C11 C 0.63313(14) -0.11640(7) 0.50905(7)
H17 H 0.5399 -0.0766 0.5220
H18 H 0.5925 -0.1647 0.4694
C12 C 0.77340(17) -0.06544(9) 0.45858(8)
H19 H 0.7309 -0.0427 0.3989
H20 H 0.8077 -0.0149 0.4969
O3 O 0.91662(12) -0.12169(7) 0.44155(6)
C13 C 0.98244(15) -0.15680(10) 0.52881(8)
H21 H 1.0230 -0.1079 0.5676
H22 H 1.0770 -0.1955 0.5154
C14 C 0.85031(13) -0.20928(7) 0.58352(7)
H23 H 0.8186 -0.2624 0.5484
H24 H 0.8961 -0.2278 0.6441
N5 N 0.72066(11) -0.16648(6) 0.75998(6)
C15 C 0.64669(13) -0.15956(7) 0.84391(7)
N6 N 0.59209(15) -0.15793(7) 0.92046(7)
loop_
_geom_bond_atom_site_label_1
_geom_bond_atom_site_label_2
_geom_bond_site_symmetry_1
_geom_bond_site_symmetry_2
C1 N1 1_555 1_555
N1 C2 1_555 1_555
C2 H1 1_555 1_555
H2 C2 1_555 1_555
C3 C2 1_555 1_555
H3 C3 1_555 1_555
H4 C3 1_555 1_555
O1 C3 1_555 1_555
C4 O1 1_555 1_555
H5 C4 1_555 1_555
H6 C4 1_555 1_555
C5 N1 1_555 1_555
H7 C5 1_555 1_555
H8 C5 1_555 1_555
N2 C1 1_555 1_555
C6 N2 1_555 1_555
H9 C6 1_555 1_555
H10 C6 1_555 1_555
C7 C6 1_555 1_555
H11 C7 1_555 1_555
H12 C7 1_555 1_555
O2 C7 1_555 1_555
C8 O2 1_555 1_555
H13 C8 1_555 1_555
H14 C8 1_555 1_555
C9 N2 1_555 1_555
H15 C9 1_555 1_555
H16 C9 1_555 1_555
N3 C1 1_555 1_555
C10 N3 1_555 1_555
N4 C10 1_555 1_555
C11 N4 1_555 1_555
H17 C11 1_555 1_555
H18 C11 1_555 1_555
C12 C11 1_555 1_555
H19 C12 1_555 1_555
H20 C12 1_555 1_555
O3 C12 1_555 1_555
C13 O3 1_555 1_555
H21 C13 1_555 1_555
H22 C13 1_555 1_555
C14 N4 1_555 1_555
H23 C14 1_555 1_555
H24 C14 1_555 1_555
N5 C10 1_555 1_555
C15 N5 1_555 1_555
N6 C15 1_555 1_555
C4 C5 1_555 1_555
C8 C9 1_555 1_555
C13 C14 1_555 1_555

#END
