
#######################################################################
#
#                 Cambridge Crystallographic Data Centre
#                                CCDC 
#
#######################################################################
#
# If this CIF has been generated from an entry in the Cambridge 
# Structural Database, then it will include bibliographic, chemical, 
# crystal, experimental, refinement or atomic coordinate data resulting 
# from the CCDC's data processing and validation procedures.
#
#######################################################################

data_YICTAI
_chemical_formula_moiety         'C31 H37 N3 O3 Si1'
_chemical_name_systematic        
N'-{1-([1,1'-biphenyl]-4-yl)-3-[tris(propan-2-yl)silyl]prop-2-yn-1-yl}-4-nitrobenzohydrazide
_symmetry_cell_setting           orthorhombic
_symmetry_space_group_name_H-M   'P 21 21 21'
_symmetry_Int_Tables_number      19
_space_group_name_Hall           'P 2ac 2ab'
loop_
_symmetry_equiv_pos_site_id
_symmetry_equiv_pos_as_xyz
1 x,y,z
2 1/2-x,-y,1/2+z
3 -x,1/2+y,1/2-z
4 1/2+x,1/2-y,-z
_cell_length_a                   10.1535(2)
_cell_length_b                   12.0826(3)
_cell_length_c                   23.9442(6)
_cell_angle_alpha                90
_cell_angle_beta                 90
_cell_angle_gamma                90
_cell_volume                     2937.49
_exptl_crystal_colour            colorless
_exptl_crystal_description       block
_cell_formula_units_Z            4
_exptl_crystal_recrystallization_method 
'Re-crystallisation from solvent: deuterochloroform/diethyl ether'
loop_
_atom_site_label
_atom_site_type_symbol
_atom_site_fract_x
_atom_site_fract_y
_atom_site_fract_z
Si1 Si 0.56790(7) 0.23870(6) 0.32018(3)
C1 C 0.9673(3) -0.1382(2) 0.52095(12)
O1 O 1.0558(2) -0.30954(17) 0.54188(14)
N1 N 0.90329(19) 0.26713(17) 0.48156(9)
H1 H 0.8264 0.2385 0.4905
C2 C 0.8584(3) -0.0815(2) 0.50155(13)
H2 H 0.7770 -0.1185 0.4957
O2 O 0.8468(2) -0.30025(19) 0.52911(14)
N2 N 0.9100(2) 0.37792(16) 0.46316(9)
H3 H 0.9040 0.4360 0.4852
N3 N 0.9562(2) -0.25817(19) 0.53148(11)
O3 O 1.12315(15) 0.24271(15) 0.47760(8)
C3 C 0.8711(3) 0.0305(2) 0.49084(13)
H4 H 0.7976 0.0713 0.4775
C4 C 1.0872(3) -0.0878(2) 0.53004(11)
H5 H 1.1602 -0.1291 0.5435
C5 C 1.0988(2) 0.0241(2) 0.51914(11)
H6 H 1.1806 0.0604 0.5250
C6 C 0.9910(2) 0.0840(2) 0.49956(10)
C7 C 0.9286(2) 0.38331(19) 0.40177(10)
H7 H 1.0093 0.3405 0.3915
C8 C 1.0126(2) 0.2043(2) 0.48571(10)
C9 C 0.8138(3) 0.3327(2) 0.37457(11)
C10 C 0.7192(3) 0.2920(2) 0.35339(12)
C11 C 0.4303(3) 0.3266(2) 0.34895(13)
H8 H 0.4343 0.3175 0.3904
C12 C 0.2930(3) 0.2865(4) 0.3316(2)
H9 H 0.2801 0.3000 0.2916
H10 H 0.2260 0.3268 0.3529
H11 H 0.2851 0.2070 0.3392
C13 C 0.4442(3) 0.4496(3) 0.33835(16)
H12 H 0.4231 0.4655 0.2992
H13 H 0.5348 0.4726 0.3463
H14 H 0.3835 0.4902 0.3627
C14 C 0.5951(3) 0.2432(3) 0.24241(12)
H15 H 0.6585 0.1823 0.2335
C15 C 0.4682(4) 0.2175(3) 0.20994(14)
H16 H 0.4887 0.2096 0.1701
H17 H 0.4051 0.2781 0.2151
H18 H 0.4297 0.1484 0.2239
C16 C 0.6578(4) 0.3491(4) 0.22230(17)
H19 H 0.6713 0.3451 0.1818
H20 H 0.7429 0.3592 0.2409
H21 H 0.6000 0.4117 0.2311
C17 C 0.5449(3) 0.0913(2) 0.34342(13)
H22 H 0.4715 0.0592 0.3208
C18 C 0.6674(4) 0.0211(3) 0.33263(17)
H23 H 0.6906 0.0249 0.2929
H24 H 0.6495 -0.0559 0.3429
H25 H 0.7408 0.0493 0.3551
C19 C 0.5052(4) 0.0830(3) 0.40466(15)
H26 H 0.4210 0.1211 0.4103
H27 H 0.5730 0.1177 0.4279
H28 H 0.4960 0.0050 0.4151
C20 C 0.9483(2) 0.5042(2) 0.38572(10)
C21 C 0.8506(2) 0.5659(2) 0.36078(12)
H29 H 0.7677 0.5328 0.3530
C22 C 0.8718(3) 0.6760(2) 0.34686(13)
H30 H 0.8029 0.7171 0.3298
C23 C 0.9921(2) 0.7271(2) 0.35741(10)
C24 C 1.0899(3) 0.6644(2) 0.38325(12)
H31 H 1.1724 0.6976 0.3916
C25 C 1.0688(3) 0.5546(2) 0.39688(12)
H32 H 1.1372 0.5131 0.4141
C26 C 1.0135(3) 0.8443(2) 0.34030(11)
C27 C 0.9684(3) 0.8822(2) 0.28916(13)
H33 H 0.9248 0.8324 0.2646
C28 C 0.9859(3) 0.9917(3) 0.27316(14)
H34 H 0.9543 1.0165 0.2380
C29 C 1.0494(4) 1.0643(2) 0.30873(15)
H35 H 1.0606 1.1396 0.2982
C30 C 1.0964(4) 1.0276(3) 0.35920(14)
H36 H 1.1407 1.0777 0.3833
C31 C 1.0798(3) 0.9182(2) 0.37537(12)
H37 H 1.1135 0.8935 0.4102
loop_
_geom_bond_atom_site_label_1
_geom_bond_atom_site_label_2
_geom_bond_site_symmetry_1
_geom_bond_site_symmetry_2
Si1 C10 1_555 1_555
C1 C2 1_555 1_555
O1 N3 1_555 1_555
N1 H1 1_555 1_555
C2 H2 1_555 1_555
O2 N3 1_555 1_555
N2 N1 1_555 1_555
H3 N2 1_555 1_555
N3 C1 1_555 1_555
O3 C8 1_555 1_555
C3 C2 1_555 1_555
H4 C3 1_555 1_555
C4 C1 1_555 1_555
H5 C4 1_555 1_555
C5 C4 1_555 1_555
H6 C5 1_555 1_555
C6 C3 1_555 1_555
C7 N2 1_555 1_555
H7 C7 1_555 1_555
C8 N1 1_555 1_555
C9 C7 1_555 1_555
C10 C9 1_555 1_555
C11 Si1 1_555 1_555
H8 C11 1_555 1_555
C12 C11 1_555 1_555
H9 C12 1_555 1_555
H10 C12 1_555 1_555
H11 C12 1_555 1_555
C13 C11 1_555 1_555
H12 C13 1_555 1_555
H13 C13 1_555 1_555
H14 C13 1_555 1_555
C14 Si1 1_555 1_555
H15 C14 1_555 1_555
C15 C14 1_555 1_555
H16 C15 1_555 1_555
H17 C15 1_555 1_555
H18 C15 1_555 1_555
C16 C14 1_555 1_555
H19 C16 1_555 1_555
H20 C16 1_555 1_555
H21 C16 1_555 1_555
C17 Si1 1_555 1_555
H22 C17 1_555 1_555
C18 C17 1_555 1_555
H23 C18 1_555 1_555
H24 C18 1_555 1_555
H25 C18 1_555 1_555
C19 C17 1_555 1_555
H26 C19 1_555 1_555
H27 C19 1_555 1_555
H28 C19 1_555 1_555
C20 C7 1_555 1_555
C21 C20 1_555 1_555
H29 C21 1_555 1_555
C22 C21 1_555 1_555
H30 C22 1_555 1_555
C23 C22 1_555 1_555
C24 C23 1_555 1_555
H31 C24 1_555 1_555
C25 C20 1_555 1_555
H32 C25 1_555 1_555
C26 C23 1_555 1_555
C27 C26 1_555 1_555
H33 C27 1_555 1_555
C28 C27 1_555 1_555
H34 C28 1_555 1_555
C29 C28 1_555 1_555
H35 C29 1_555 1_555
C30 C29 1_555 1_555
H36 C30 1_555 1_555
C31 C26 1_555 1_555
H37 C31 1_555 1_555
C5 C6 1_555 1_555
C6 C8 1_555 1_555
C24 C25 1_555 1_555
C30 C31 1_555 1_555

#END
