
#######################################################################
#
#                 Cambridge Crystallographic Data Centre
#                                CCDC 
#
#######################################################################
#
# If this CIF has been generated from an entry in the Cambridge 
# Structural Database, then it will include bibliographic, chemical, 
# crystal, experimental, refinement or atomic coordinate data resulting 
# from the CCDC's data processing and validation procedures.
#
#######################################################################

data_YICTIQ
_chemical_formula_moiety         'C24 H22 O2'
_chemical_name_systematic        
'[4,6-diphenyl-7-(prop-1-en-2-yl)-1,3-dihydro-2-benzofuran-5-yl]methanol'
_symmetry_cell_setting           monoclinic
_symmetry_space_group_name_H-M   'P 21/n'
_symmetry_Int_Tables_number      14
_space_group_name_Hall           '-P 2yn'
loop_
_symmetry_equiv_pos_site_id
_symmetry_equiv_pos_as_xyz
1 x,y,z
2 1/2-x,1/2+y,1/2-z
3 -x,-y,-z
4 1/2+x,1/2-y,1/2+z
_cell_length_a                   6.8864(5)
_cell_length_b                   33.272(3)
_cell_length_c                   8.5011(8)
_cell_angle_alpha                90
_cell_angle_beta                 104.932(8)
_cell_angle_gamma                90
_cell_volume                     1882.04
_exptl_crystal_colour            'light yellow'
_exptl_crystal_description       block
_cell_formula_units_Z            4
loop_
_atom_site_label
_atom_site_type_symbol
_atom_site_fract_x
_atom_site_fract_y
_atom_site_fract_z
O1 O -0.2202(3) 0.64473(7) 0.2757(2)
O2 O 0.4000(2) 0.64092(6) 1.04098(19)
H1 H 0.504054 0.639542 1.114085
C1 C 0.1274(3) 0.66828(6) 0.6724(2)
C2 C 0.3044(3) 0.64705(6) 0.7472(2)
C3 C 0.3620(3) 0.61297(7) 0.6720(2)
C4 C 0.2501(3) 0.60017(7) 0.5186(3)
C5 C 0.0828(3) 0.62300(7) 0.4422(3)
C6 C 0.0229(3) 0.65579(7) 0.5164(3)
C7 C -0.1674(4) 0.67251(9) 0.4077(3)
H2 H -0.272383 0.674053 0.464763
H3 H -0.145035 0.699120 0.369212
C8 C -0.0652(4) 0.61607(10) 0.2807(3)
H4 H -0.002876 0.620416 0.191943
H5 H -0.118098 0.588923 0.273455
C9 C 0.0449(3) 0.70108(7) 0.7548(3)
C10 C -0.0034(3) 0.73848(7) 0.6841(3)
H6 H 0.021383 0.743738 0.583598
C11 C -0.0871(4) 0.76805(8) 0.7587(3)
H7 H -0.118774 0.792880 0.708473
C12 C -0.1237(3) 0.76096(9) 0.9062(3)
H8 H -0.179129 0.780996 0.957341
C13 C -0.0780(4) 0.72386(9) 0.9796(3)
H9 H -0.103416 0.718936 1.080160
C14 C 0.0049(3) 0.69414(8) 0.9047(3)
H10 H 0.034303 0.669227 0.954716
C15 C 0.4376(3) 0.66187(7) 0.9061(3)
H11 H 0.577222 0.658291 0.905502
H12 H 0.414493 0.690355 0.917340
C16 C 0.5455(3) 0.59019(7) 0.7583(3)
C17 C 0.5438(3) 0.56349(8) 0.8825(3)
H13 H 0.424934 0.559243 0.912758
C18 C 0.7154(4) 0.54297(8) 0.9627(3)
H14 H 0.710589 0.524814 1.044744
C19 C 0.8912(4) 0.54931(8) 0.9215(4)
H15 H 1.007645 0.536094 0.977252
C20 C 0.8955(4) 0.57503(10) 0.7989(4)
H16 H 1.015224 0.579171 0.769737
C21 C 0.7243(4) 0.59509(9) 0.7169(4)
H17 H 0.729741 0.612272 0.631853
C22 C 0.2966(4) 0.56266(8) 0.4390(3)
C23 C 0.2412(5) 0.52584(10) 0.4910(5)
H18 H 0.268006 0.502223 0.441963
H19 H 0.177204 0.524794 0.574829
C24 C 0.3937(6) 0.56552(12) 0.3126(4)
H20 H 0.329483 0.585854 0.236775
H21 H 0.385516 0.540148 0.257529
H22 H 0.532187 0.572518 0.357252
loop_
_geom_bond_atom_site_label_1
_geom_bond_atom_site_label_2
_geom_bond_site_symmetry_1
_geom_bond_site_symmetry_2
O1 C7 1_555 1_555
O2 H1 1_555 1_555
C1 C2 1_555 1_555
C2 C3 1_555 1_555
C3 C4 1_555 1_555
C4 C5 1_555 1_555
C5 C6 1_555 1_555
C6 C1 1_555 1_555
C7 C6 1_555 1_555
H2 C7 1_555 1_555
H3 C7 1_555 1_555
C8 O1 1_555 1_555
H4 C8 1_555 1_555
H5 C8 1_555 1_555
C9 C1 1_555 1_555
C10 C9 1_555 1_555
H6 C10 1_555 1_555
C11 C10 1_555 1_555
H7 C11 1_555 1_555
C12 C11 1_555 1_555
H8 C12 1_555 1_555
C13 C12 1_555 1_555
H9 C13 1_555 1_555
C14 C9 1_555 1_555
H10 C14 1_555 1_555
C15 O2 1_555 1_555
H11 C15 1_555 1_555
H12 C15 1_555 1_555
C16 C3 1_555 1_555
C17 C16 1_555 1_555
H13 C17 1_555 1_555
C18 C17 1_555 1_555
H14 C18 1_555 1_555
C19 C18 1_555 1_555
H15 C19 1_555 1_555
C20 C19 1_555 1_555
H16 C20 1_555 1_555
C21 C16 1_555 1_555
H17 C21 1_555 1_555
C22 C4 1_555 1_555
C23 C22 1_555 1_555
H18 C23 1_555 1_555
H19 C23 1_555 1_555
C24 C22 1_555 1_555
H20 C24 1_555 1_555
H21 C24 1_555 1_555
H22 C24 1_555 1_555
C2 C15 1_555 1_555
C5 C8 1_555 1_555
C13 C14 1_555 1_555
C20 C21 1_555 1_555

#END
