
#######################################################################
#
#                 Cambridge Crystallographic Data Centre
#                                CCDC 
#
#######################################################################
#
# If this CIF has been generated from an entry in the Cambridge 
# Structural Database, then it will include bibliographic, chemical, 
# crystal, experimental, refinement or atomic coordinate data resulting 
# from the CCDC's data processing and validation procedures.
#
#######################################################################

data_YICWAL
_chemical_formula_moiety         'C37 H28 N1 O1 P1'
_chemical_name_systematic        
'[4-(diphenylamino)phenyl][4-(diphenylphosphanyl)phenyl]methanone'
_symmetry_cell_setting           monoclinic
_symmetry_space_group_name_H-M   'P 21/n'
_symmetry_Int_Tables_number      14
_space_group_name_Hall           '-P 2yn'
loop_
_symmetry_equiv_pos_site_id
_symmetry_equiv_pos_as_xyz
1 x,y,z
2 1/2-x,1/2+y,1/2-z
3 -x,-y,-z
4 1/2+x,1/2-y,1/2+z
_cell_length_a                   21.3348(9)
_cell_length_b                   5.9392(2)
_cell_length_c                   23.3779(10)
_cell_angle_alpha                90
_cell_angle_beta                 102.485(4)
_cell_angle_gamma                90
_cell_volume                     2892.2
_exptl_crystal_colour            colorless
_exptl_crystal_description       prism
_cell_formula_units_Z            4
_exptl_crystal_recrystallization_method 
'Re-crystallisation from solvent: dichloromethane/methanol'
_exptl_crystal_preparation       Luminescent
loop_
_atom_site_label
_atom_site_type_symbol
_atom_site_fract_x
_atom_site_fract_y
_atom_site_fract_z
P1 P 0.08232(9) 0.6369(4) 0.63311(8)
O1 O 0.2508(2) -0.0978(7) 0.4996(3)
C1 C 0.2080(2) 0.2366(9) 0.5293(2)
C2 C 0.2249(2) 0.4445(9) 0.5556(2)
H1 H 0.2630 0.5129 0.5517
C3 C 0.2506(2) 0.1103(9) 0.4981(2)
C4 C 0.2783(2) 0.4361(10) 0.4390(2)
H2 H 0.2416 0.5123 0.4437
C5 C 0.2934(2) 0.2296(10) 0.4661(2)
C6 C 0.1508(2) 0.1349(9) 0.5358(2)
H3 H 0.1390 -0.0048 0.5189
C7 C 0.1861(3) 0.5500(11) 0.5873(2)
H4 H 0.1985 0.6889 0.6044
C8 C 0.1266(3) 0.5881(10) 0.7053(3)
C9 C 0.5003(3) 0.3087(12) 0.3288(3)
H5 H 0.4726 0.2810 0.2929
C10 C 0.1710(3) 0.4211(11) 0.7255(2)
H6 H 0.1759 0.3082 0.6992
C11 C 0.3812(3) 0.5954(11) 0.3007(3)
C12 C 0.1118(3) 0.2418(13) 0.5675(3)
H7 H 0.0737 0.1735 0.5713
C13 C 0.3493(3) 0.1203(11) 0.4588(3)
H8 H 0.3601 -0.0178 0.4770
C14 C 0.3171(3) 0.5296(12) 0.4052(3)
H9 H 0.3061 0.6680 0.3873
C15 C 0.0065(3) 0.2757(13) 0.6678(3)
H10 H 0.0390 0.2430 0.7002
C16 C 0.0152(3) 0.4439(12) 0.6297(2)
C17 C 0.1288(3) 0.4540(13) 0.5942(3)
C18 C 0.6030(3) 0.2592(14) 0.3929(3)
H11 H 0.6436 0.1943 0.4010
C19 C 0.4805(3) 0.4377(13) 0.3696(2)
C20 C 0.5842(3) 0.3954(13) 0.4333(3)
H12 H 0.6127 0.4277 0.4685
C21 C 0.3284(6) 0.491(2) 0.2690(5)
H13 H 0.3100 0.3634 0.2817
N1 N 0.4121(3) 0.4856(13) 0.3589(3)
C22 C 0.1636(3) 0.7405(13) 0.8052(3)
H14 H 0.1620 0.8531 0.8325
C23 C -0.0910(3) 0.3694(13) 0.5730(3)
H15 H -0.1233 0.3991 0.5402
C24 C 0.3732(3) 0.4192(15) 0.3974(3)
C25 C -0.0991(3) 0.2027(15) 0.6106(3)
H16 H -0.1372 0.1212 0.6045
C26 C 0.3887(3) 0.2108(15) 0.4255(3)
H17 H 0.4256 0.1345 0.4216
C27 C 0.5234(4) 0.4845(16) 0.4222(3)
H18 H 0.5108 0.5765 0.4499
C28 C -0.0361(4) 0.4929(15) 0.5828(3)
H19 H -0.0325 0.6123 0.5580
C29 C 0.5613(3) 0.2192(15) 0.3403(3)
H20 H 0.5743 0.1307 0.3122
C30 C 0.1237(4) 0.7560(13) 0.7493(3)
H21 H 0.0951 0.8755 0.7404
C31 C 0.3332(5) 0.784(2) 0.1949(5)
H22 H 0.3159 0.8522 0.1591
C32 C -0.0499(4) 0.1563(16) 0.6583(3)
H23 H -0.0551 0.0426 0.6842
C33 C 0.2081(3) 0.4087(17) 0.7808(3)
H24 H 0.2365 0.2891 0.7911
C34 C 0.2040(4) 0.5675(14) 0.8204(4)
H25 H 0.2290 0.5579 0.8582
C35 C 0.4151(4) 0.7734(18) 0.2855(4)
H26 H 0.4522 0.8281 0.3099
C36 C 0.3044(5) 0.599(2) 0.2145(4)
H27 H 0.2673 0.5415 0.1905
C37 C 0.3898(4) 0.865(2) 0.2316(4)
H28 H 0.4110 0.9850 0.2187
P2? P 0.4180(2) 0.6662(8) 0.36544(19)
N2? N 0.0881(8) 0.465(3) 0.6396(7)
C38? C 0.3333(13) 0.442(4) 0.2744(11)
H29? H 0.3264 0.3277 0.2995
C39? C 0.2937(10) 0.427(4) 0.2182(8)
H30? H 0.2655 0.3072 0.2082
C40? C 0.2974(10) 0.596(4) 0.1774(9)
H31? H 0.2705 0.5962 0.1403
C41? C 0.3433(12) 0.764(5) 0.1951(10)
H32? H 0.3530 0.8708 0.1692
C42? C 0.3737(11) 0.760(4) 0.2545(8)
H33? H 0.3937 0.8958 0.2671
loop_
_geom_bond_atom_site_label_1
_geom_bond_atom_site_label_2
_geom_bond_site_symmetry_1
_geom_bond_site_symmetry_2
P1 C8 1_555 1_555
O1 C3 1_555 1_555
C1 C2 1_555 1_555
C2 H1 1_555 1_555
C3 C1 1_555 1_555
C4 H2 1_555 1_555
C5 C3 1_555 1_555
C6 C1 1_555 1_555
H3 C6 1_555 1_555
C7 C2 1_555 1_555
H4 C7 1_555 1_555
C8 C10 1_555 1_555
C9 H5 1_555 1_555
C10 H6 1_555 1_555
C11 C21 1_555 1_555
C12 C6 1_555 1_555
H7 C12 1_555 1_555
C13 C5 1_555 1_555
H8 C13 1_555 1_555
C14 C4 1_555 1_555
H9 C14 1_555 1_555
C15 H10 1_555 1_555
C16 P1 1_555 1_555
C17 P1 1_555 1_555
C18 H11 1_555 1_555
C19 C9 1_555 1_555
C20 C18 1_555 1_555
H12 C20 1_555 1_555
C21 H13 1_555 1_555
N1 C11 1_555 1_555
C22 H14 1_555 1_555
C23 H15 1_555 1_555
C24 C14 1_555 1_555
C25 C23 1_555 1_555
H16 C25 1_555 1_555
C26 C13 1_555 1_555
H17 C26 1_555 1_555
C27 C19 1_555 1_555
H18 C27 1_555 1_555
C28 C16 1_555 1_555
H19 C28 1_555 1_555
C29 C9 1_555 1_555
H20 C29 1_555 1_555
C30 C8 1_555 1_555
H21 C30 1_555 1_555
C31 H22 1_555 1_555
C32 C15 1_555 1_555
H23 C32 1_555 1_555
C33 C10 1_555 1_555
H24 C33 1_555 1_555
C34 C22 1_555 1_555
H25 C34 1_555 1_555
C35 C11 1_555 1_555
H26 C35 1_555 1_555
C36 C21 1_555 1_555
H27 C36 1_555 1_555
C37 C31 1_555 1_555
H28 C37 1_555 1_555
C4 C5 1_555 1_555
C7 C17 1_555 1_555
C12 C17 1_555 1_555
C15 C16 1_555 1_555
C18 C29 1_555 1_555
C19 N1 1_555 1_555
C20 C27 1_555 1_555
N1 C24 1_555 1_555
C22 C30 1_555 1_555
C23 C28 1_555 1_555
C24 C26 1_555 1_555
C25 C32 1_555 1_555
C31 C36 1_555 1_555
C33 C34 1_555 1_555
C35 C37 1_555 1_555

#END
