
#######################################################################
#
#                 Cambridge Crystallographic Data Centre
#                                CCDC 
#
#######################################################################
#
# If this CIF has been generated from an entry in the Cambridge 
# Structural Database, then it will include bibliographic, chemical, 
# crystal, experimental, refinement or atomic coordinate data resulting 
# from the CCDC's data processing and validation procedures.
#
#######################################################################

data_YICWOX
_chemical_formula_moiety         'C20 H28 N4'
_chemical_name_systematic        2-(4-cyanophenyl)-1,3-dicyclohexylguanidine
_symmetry_cell_setting           monoclinic
_symmetry_space_group_name_H-M   'P 21'
_symmetry_Int_Tables_number      4
_space_group_name_Hall           'P 2yb'
loop_
_symmetry_equiv_pos_site_id
_symmetry_equiv_pos_as_xyz
1 x,y,z
2 -x,1/2+y,-z
_cell_length_a                   8.7857(19)
_cell_length_b                   19.942(5)
_cell_length_c                   11.074(2)
_cell_angle_alpha                90
_cell_angle_beta                 106.030(3)
_cell_angle_gamma                90
_cell_volume                     1864.77
_exptl_crystal_colour            colorless
_exptl_crystal_description       prism
_cell_formula_units_Z            4
_exptl_crystal_recrystallization_method ether/hexane
loop_
_atom_site_label
_atom_site_type_symbol
_atom_site_fract_x
_atom_site_fract_y
_atom_site_fract_z
N1 N 0.5777(2) 0.62338(10) 0.01321(17)
N2 N 0.6758(2) 0.58197(11) -0.14584(18)
N3 N 0.8480(2) 0.58918(10) 0.05029(17)
N4 N 0.6820(3) 0.84960(14) 0.4871(3)
C1 C 0.6979(3) 0.59979(13) -0.0244(2)
C2 C 0.6041(3) 0.66829(13) 0.1129(2)
C3 C 0.5050(3) 0.66715(13) 0.1928(2)
H1 H 0.4269 0.6344 0.1813
C4 C 0.5206(3) 0.71345(14) 0.2879(2)
H2 H 0.4531 0.7117 0.3394
C5 C 0.6368(3) 0.76283(14) 0.3076(2)
C6 C 0.7358(3) 0.76490(13) 0.2289(2)
H3 H 0.8139 0.7976 0.2410
C7 C 0.7190(3) 0.71905(13) 0.1337(2)
H4 H 0.7855 0.7217 0.0815
C8 C 0.6590(3) 0.81103(16) 0.4093(3)
C9 C 0.5433(3) 0.60484(16) -0.2507(2)
H5 H 0.4684 0.6291 -0.2156
C10 C 0.5987(4) 0.65258(14) -0.3384(3)
H6 H 0.5070 0.6740 -0.3945
H7 H 0.6641 0.6874 -0.2887
C11 C 0.6907(3) 0.61744(17) -0.4146(3)
H8 H 0.7884 0.6001 -0.3592
H9 H 0.7180 0.6491 -0.4717
C12 C 0.5960(3) 0.56020(17) -0.4892(3)
H10 H 0.5018 0.5777 -0.5487
H11 H 0.6590 0.5374 -0.5360
C13 C 0.5497(4) 0.51165(15) -0.4021(3)
H12 H 0.4859 0.4761 -0.4508
H13 H 0.6442 0.4915 -0.3473
C14 C 0.4579(3) 0.54567(16) -0.3241(2)
H14 H 0.4354 0.5134 -0.2658
H15 H 0.3574 0.5608 -0.3787
C15 C 0.8867(3) 0.57200(12) 0.1842(2)
H16 H 0.7996 0.5869 0.2170
C16 C 0.9064(3) 0.49671(12) 0.2036(2)
H17 H 0.9883 0.4809 0.1672
H18 H 0.8081 0.4745 0.1605
C17 C 0.9504(3) 0.47828(13) 0.3426(2)
H19 H 0.8641 0.4901 0.3773
H20 H 0.9672 0.4303 0.3518
C18 C 1.1003(3) 0.51490(13) 0.4145(2)
H21 H 1.1227 0.5046 0.5033
H22 H 1.1890 0.4995 0.3857
C19 C 1.0819(3) 0.59003(14) 0.3958(2)
H23 H 1.1803 0.6120 0.4392
H24 H 1.0000 0.6060 0.4321
C20 C 1.0383(3) 0.60866(13) 0.2563(2)
H25 H 1.1245 0.5966 0.2215
H26 H 1.0222 0.6567 0.2470
H53 H 0.7566 0.5629 -0.1665
H54 H 0.9147 0.5689 0.0109
N5 N 0.9589(2) 0.02733(9) 0.10003(17)
N6 N 0.7831(2) 0.11626(11) 0.07745(18)
N7 N 0.6789(2) 0.01066(10) 0.05402(18)
N8 N 1.2565(3) -0.24311(13) 0.4600(2)
C21 C 0.8119(3) 0.05026(13) 0.0793(2)
C22 C 1.0047(3) -0.03248(12) 0.1660(2)
C23 C 1.1212(3) -0.07234(12) 0.1377(2)
H27 H 1.1556 -0.0621 0.0677
C24 C 1.1863(3) -0.12665(12) 0.2116(2)
H28 H 1.2632 -0.1526 0.1906
C25 C 1.1371(3) -0.14250(13) 0.3171(2)
C26 C 1.0197(3) -0.10383(13) 0.3447(2)
H29 H 0.9853 -0.1143 0.4147
C27 C 0.9537(3) -0.05057(13) 0.2710(2)
H30 H 0.8740 -0.0259 0.2908
C28 C 1.2046(3) -0.19811(15) 0.3964(3)
C29 C 0.8991(3) 0.16823(12) 0.1337(2)
H31 H 1.0030 0.1468 0.1650
C30 C 0.8572(3) 0.20092(14) 0.2446(2)
H32 H 0.8598 0.1674 0.3086
H33 H 0.7505 0.2187 0.2171
C31 C 0.9729(3) 0.25777(15) 0.3013(3)
H34 H 0.9365 0.2805 0.3656
H35 H 1.0764 0.2389 0.3408
C32 C 0.9865(3) 0.30783(14) 0.2025(3)
H36 H 0.8866 0.3313 0.1718
H37 H 1.0671 0.3407 0.2402
C33 C 1.0285(3) 0.27494(14) 0.0937(3)
H38 H 1.1339 0.2559 0.1224
H39 H 1.0294 0.3084 0.0304
C34 C 0.9102(3) 0.21962(13) 0.0353(2)
H40 H 0.8067 0.2393 -0.0012
H41 H 0.9435 0.1977 -0.0313
C35 C 0.6594(3) -0.04991(12) -0.0249(2)
H42 H 0.7614 -0.0732 -0.0068
C36 C 0.6087(3) -0.03173(13) -0.1637(2)
H43 H 0.6909 -0.0050 -0.1835
H44 H 0.5131 -0.0048 -0.1812
C37 C 0.5776(3) -0.09437(14) -0.2472(2)
H45 H 0.5401 -0.0809 -0.3345
H46 H 0.6759 -0.1188 -0.2363
C38 C 0.4569(3) -0.13951(14) -0.2156(3)
H47 H 0.4446 -0.1798 -0.2664
H48 H 0.3554 -0.1168 -0.2347
C39 C 0.5083(3) -0.15834(14) -0.0771(3)
H49 H 0.6039 -0.1852 -0.0604
H50 H 0.4263 -0.1853 -0.0576
C40 C 0.5397(3) -0.09618(12) 0.0081(2)
H51 H 0.4412 -0.0721 -0.0010
H52 H 0.5792 -0.1102 0.0950
H55 H 0.6778 0.1302 0.0500
H56 H 0.5872 0.0323 0.0369
loop_
_geom_bond_atom_site_label_1
_geom_bond_atom_site_label_2
_geom_bond_site_symmetry_1
_geom_bond_site_symmetry_2
N1 C1 1_555 1_555
N2 C1 1_555 1_555
N3 C1 1_555 1_555
N4 C8 1_555 1_555
N5 C21 1_555 1_555
N6 C21 1_555 1_555
N7 C21 1_555 1_555
N8 C28 1_555 1_555
C2 N1 1_555 1_555
C3 C2 1_555 1_555
H1 C3 1_555 1_555
C4 C3 1_555 1_555
H2 C4 1_555 1_555
C5 C4 1_555 1_555
C6 C5 1_555 1_555
H3 C6 1_555 1_555
C7 C2 1_555 1_555
H4 C7 1_555 1_555
C8 C5 1_555 1_555
C9 N2 1_555 1_555
H5 C9 1_555 1_555
C10 C9 1_555 1_555
H6 C10 1_555 1_555
H7 C10 1_555 1_555
C11 C10 1_555 1_555
H8 C11 1_555 1_555
H9 C11 1_555 1_555
C12 C11 1_555 1_555
H10 C12 1_555 1_555
H11 C12 1_555 1_555
C13 C12 1_555 1_555
H12 C13 1_555 1_555
H13 C13 1_555 1_555
C14 C9 1_555 1_555
H14 C14 1_555 1_555
H15 C14 1_555 1_555
C15 N3 1_555 1_555
H16 C15 1_555 1_555
C16 C15 1_555 1_555
H17 C16 1_555 1_555
H18 C16 1_555 1_555
C17 C16 1_555 1_555
H19 C17 1_555 1_555
H20 C17 1_555 1_555
C18 C17 1_555 1_555
H21 C18 1_555 1_555
H22 C18 1_555 1_555
C19 C18 1_555 1_555
H23 C19 1_555 1_555
H24 C19 1_555 1_555
C20 C15 1_555 1_555
H25 C20 1_555 1_555
H26 C20 1_555 1_555
C22 N5 1_555 1_555
C23 C22 1_555 1_555
H27 C23 1_555 1_555
C24 C23 1_555 1_555
H28 C24 1_555 1_555
C25 C24 1_555 1_555
C26 C25 1_555 1_555
H29 C26 1_555 1_555
C27 C22 1_555 1_555
H30 C27 1_555 1_555
C28 C25 1_555 1_555
C29 N6 1_555 1_555
H31 C29 1_555 1_555
C30 C29 1_555 1_555
H32 C30 1_555 1_555
H33 C30 1_555 1_555
C31 C30 1_555 1_555
H34 C31 1_555 1_555
H35 C31 1_555 1_555
C32 C31 1_555 1_555
H36 C32 1_555 1_555
H37 C32 1_555 1_555
C33 C32 1_555 1_555
H38 C33 1_555 1_555
H39 C33 1_555 1_555
C34 C29 1_555 1_555
H40 C34 1_555 1_555
H41 C34 1_555 1_555
C35 N7 1_555 1_555
H42 C35 1_555 1_555
C36 C35 1_555 1_555
H43 C36 1_555 1_555
H44 C36 1_555 1_555
C37 C36 1_555 1_555
H45 C37 1_555 1_555
H46 C37 1_555 1_555
C38 C37 1_555 1_555
H47 C38 1_555 1_555
H48 C38 1_555 1_555
C39 C38 1_555 1_555
H49 C39 1_555 1_555
H50 C39 1_555 1_555
C40 C35 1_555 1_555
H51 C40 1_555 1_555
H52 C40 1_555 1_555
H53 N2 1_555 1_555
H54 N3 1_555 1_555
H55 N6 1_555 1_555
H56 N7 1_555 1_555
C6 C7 1_555 1_555
C13 C14 1_555 1_555
C19 C20 1_555 1_555
C26 C27 1_555 1_555
C33 C34 1_555 1_555
C39 C40 1_555 1_555

#END
