
#######################################################################
#
#                 Cambridge Crystallographic Data Centre
#                                CCDC 
#
#######################################################################
#
# If this CIF has been generated from an entry in the Cambridge 
# Structural Database, then it will include bibliographic, chemical, 
# crystal, experimental, refinement or atomic coordinate data resulting 
# from the CCDC's data processing and validation procedures.
#
#######################################################################

data_YICWAL01
_chemical_formula_moiety         'C37 H28 N1 O1 P1'
_chemical_name_systematic        
'[4-(diphenylamino)phenyl][4-(diphenylphosphanyl)phenyl]methanone'
_symmetry_cell_setting           monoclinic
_symmetry_space_group_name_H-M   'C c'
_symmetry_Int_Tables_number      9
_space_group_name_Hall           'C -2yc'
loop_
_symmetry_equiv_pos_site_id
_symmetry_equiv_pos_as_xyz
1 x,y,z
2 x,-y,1/2+z
3 1/2+x,1/2+y,z
4 1/2+x,1/2-y,1/2+z
_cell_length_a                   23.584(4)
_cell_length_b                   6.0025(7)
_cell_length_c                   21.526(3)
_cell_angle_alpha                90
_cell_angle_beta                 102.573(14)
_cell_angle_gamma                90
_cell_volume                     2974.21
_exptl_crystal_colour            yellow
_exptl_crystal_description       plate
_cell_formula_units_Z            4
_exptl_crystal_recrystallization_method 
'Re-crystallisation from solvent: dichloromethane/n-hexane'
_exptl_crystal_preparation       Luminescent
loop_
_atom_site_label
_atom_site_type_symbol
_atom_site_fract_x
_atom_site_fract_y
_atom_site_fract_z
P1 P 0.62588(8) 0.6531(3) 0.33593(8)
C1 C 0.4593(3) 0.2284(10) 0.5437(3)
O1 O 0.4848(12) -0.0887(19) 0.4916(11)
C2 C 0.4317(3) 0.4314(11) 0.5303(3)
H1 H 0.4370 0.5135 0.4953
C3 C 0.5220(3) 0.2494(10) 0.4602(3)
C4 C 0.5470(3) 0.4611(11) 0.4775(3)
H2 H 0.5426 0.5257 0.5155
C5 C 0.3962(3) 0.5137(11) 0.5687(3)
H3 H 0.3770 0.6483 0.5584
C6 C 0.5610(3) 0.2699(12) 0.3646(3)
H4 H 0.5658 0.2054 0.3267
C7 C 0.3890(3) 0.3971(14) 0.6228(3)
C8 C 0.6206(3) 0.4780(13) 0.2667(3)
C9 C 0.4925(4) 0.1172(11) 0.5013(4)
C10 C 0.6571(3) 0.2999(17) 0.2594(4)
H5 H 0.6883 0.2653 0.2925
C11 C 0.2958(3) 0.5586(13) 0.6316(4)
C12 C 0.5858(3) 0.4813(12) 0.3825(3)
C13 C 0.5776(3) 0.5737(11) 0.4397(3)
H6 H 0.5930 0.7132 0.4523
N1 N 0.3519(3) 0.4755(14) 0.6608(3)
C14 C 0.4249(4) 0.3782(18) 0.8300(4)
H7 H 0.4603 0.4100 0.8573
C15 C 0.2618(3) 0.4468(17) 0.5809(4)
H8 H 0.2748 0.3174 0.5647
C16 C 0.4523(3) 0.1126(11) 0.5984(3)
H9 H 0.4709 -0.0235 0.6081
C17 C 0.6997(3) 0.6077(13) 0.3804(4)
C18 C 0.5296(4) 0.1565(11) 0.4025(4)
H10 H 0.5135 0.0181 0.3895
C19 C 0.3620(3) 0.4076(13) 0.7273(3)
C20 C 0.4189(3) 0.1936(13) 0.6375(3)
H11 H 0.4158 0.1150 0.6738
C21 C 0.3839(4) 0.260(2) 0.8516(4)
H12 H 0.3916 0.2061 0.8931
C22 C 0.3307(4) 0.222(2) 0.8114(4)
H13 H 0.3019 0.1465 0.8264
C23 C 0.4144(4) 0.4508(19) 0.7678(4)
H14 H 0.4429 0.5293 0.7532
C24 C 0.7168(3) 0.4361(18) 0.4241(4)
H15 H 0.6896 0.3299 0.4295
C25 C 0.7727(4) 0.419(2) 0.4595(4)
H16 H 0.7828 0.2994 0.4873
C26 C 0.6478(4) 0.1741(19) 0.2040(5)
H17 H 0.6728 0.0574 0.2001
C27 C 0.2744(5) 0.7435(18) 0.6584(7)
H18 H 0.2963 0.8092 0.6949
C28 C 0.1867(6) 0.729(3) 0.5808(8)
H19 H 0.1501 0.7883 0.5640
C29 C 0.8129(4) 0.5726(19) 0.4543(5)
H20 H 0.8507 0.5588 0.4780
C30 C 0.2227(6) 0.825(2) 0.6315(9)
H21 H 0.2104 0.9546 0.6483
C31 C 0.7982(5) 0.746(2) 0.4146(6)
H22 H 0.8256 0.8544 0.4115
C32 C 0.5745(4) 0.5270(19) 0.2155(4)
H23 H 0.5503 0.6477 0.2179
C33 C 0.6013(5) 0.223(2) 0.1548(4)
H24 H 0.5948 0.1402 0.1174
C34 C 0.7426(5) 0.7640(17) 0.3788(6)
H25 H 0.7333 0.8867 0.3521
C35 C 0.5648(4) 0.395(2) 0.1612(5)
H26 H 0.5328 0.4243 0.1284
C36 C 0.2063(5) 0.537(4) 0.5543(6)
H27 H 0.1826 0.4686 0.5192
C37 C 0.3200(3) 0.2937(17) 0.7491(4)
H28 H 0.2844 0.2649 0.7220
O2? O 0.5097(16) -0.080(3) 0.5113(15)
loop_
_geom_bond_atom_site_label_1
_geom_bond_atom_site_label_2
_geom_bond_site_symmetry_1
_geom_bond_site_symmetry_2
P1 C8 1_555 1_555
C1 C2 1_555 1_555
O1 C9 1_555 1_555
C2 H1 1_555 1_555
C3 C4 1_555 1_555
C4 H2 1_555 1_555
C5 C2 1_555 1_555
H3 C5 1_555 1_555
C6 H4 1_555 1_555
C7 C5 1_555 1_555
C8 C10 1_555 1_555
C9 C1 1_555 1_555
C10 H5 1_555 1_555
C11 N1 1_555 1_555
C12 P1 1_555 1_555
C13 C4 1_555 1_555
H6 C13 1_555 1_555
N1 C7 1_555 1_555
C14 H7 1_555 1_555
C15 C11 1_555 1_555
H8 C15 1_555 1_555
C16 C1 1_555 1_555
H9 C16 1_555 1_555
C17 P1 1_555 1_555
C18 C3 1_555 1_555
H10 C18 1_555 1_555
C19 N1 1_555 1_555
C20 C7 1_555 1_555
H11 C20 1_555 1_555
C21 C14 1_555 1_555
H12 C21 1_555 1_555
C22 C21 1_555 1_555
H13 C22 1_555 1_555
C23 C14 1_555 1_555
H14 C23 1_555 1_555
C24 C17 1_555 1_555
H15 C24 1_555 1_555
C25 C24 1_555 1_555
H16 C25 1_555 1_555
C26 C10 1_555 1_555
H17 C26 1_555 1_555
C27 C11 1_555 1_555
H18 C27 1_555 1_555
C28 H19 1_555 1_555
C29 C25 1_555 1_555
H20 C29 1_555 1_555
C30 C27 1_555 1_555
H21 C30 1_555 1_555
C31 C29 1_555 1_555
H22 C31 1_555 1_555
C32 C8 1_555 1_555
H23 C32 1_555 1_555
C33 C26 1_555 1_555
H24 C33 1_555 1_555
C34 C17 1_555 1_555
H25 C34 1_555 1_555
C35 C32 1_555 1_555
H26 C35 1_555 1_555
C36 C15 1_555 1_555
H27 C36 1_555 1_555
C37 C19 1_555 1_555
H28 C37 1_555 1_555
C3 C9 1_555 1_555
C6 C12 1_555 1_555
C6 C18 1_555 1_555
C12 C13 1_555 1_555
C16 C20 1_555 1_555
C19 C23 1_555 1_555
C22 C37 1_555 1_555
C28 C30 1_555 1_555
C28 C36 1_555 1_555
C31 C34 1_555 1_555
C33 C35 1_555 1_555

#END
