
#######################################################################
#
#                 Cambridge Crystallographic Data Centre
#                                CCDC 
#
#######################################################################
#
# If this CIF has been generated from an entry in the Cambridge 
# Structural Database, then it will include bibliographic, chemical, 
# crystal, experimental, refinement or atomic coordinate data resulting 
# from the CCDC's data processing and validation procedures.
#
#######################################################################

data_YICZUH
_chemical_formula_moiety         'C20 H20 N2 O2'
_chemical_name_systematic        
7-(Diethylamino)-3-(2-(pyridin-4-yl)vinyl)-2H-chromen-2-one
_symmetry_cell_setting           monoclinic
_symmetry_space_group_name_H-M   'P 21/c'
_symmetry_Int_Tables_number      14
_space_group_name_Hall           '-P 2ybc'
loop_
_symmetry_equiv_pos_site_id
_symmetry_equiv_pos_as_xyz
1 x,y,z
2 -x,1/2+y,1/2-z
3 -x,-y,-z
4 x,1/2-y,1/2+z
_cell_length_a                   8.2474(16)
_cell_length_b                   17.675(3)
_cell_length_c                   11.501(2)
_cell_angle_alpha                90
_cell_angle_beta                 101.32(3)
_cell_angle_gamma                90
_cell_volume                     1643.92
_cell_formula_units_Z            4
loop_
_atom_site_label
_atom_site_type_symbol
_atom_site_fract_x
_atom_site_fract_y
_atom_site_fract_z
O1 O -0.73443(15) 0.09952(6) -0.04706(10)
O2 O -0.64222(18) 0.08704(7) -0.21217(11)
N1 N -0.5209(2) -0.23111(9) -0.55757(14)
N2 N -0.92242(19) 0.15017(9) 0.31073(14)
C1 C -0.5071(2) -0.24790(11) -0.44257(17)
H1 H -0.4809 -0.2975 -0.4192
C2 C -0.5290(2) -0.19680(10) -0.35618(16)
H2 H -0.5170 -0.2122 -0.2776
C3 C -0.5692(2) -0.12180(10) -0.38766(16)
C4 C -0.5830(2) -0.10407(10) -0.50718(16)
H3 H -0.6092 -0.0550 -0.5333
C5 C -0.5578(2) -0.15899(11) -0.58694(17)
H4 H -0.5671 -0.1451 -0.6659
C6 C -0.6010(2) -0.06427(10) -0.30352(15)
H5 H -0.5989 -0.0138 -0.3260
C7 C -0.6331(2) -0.07947(10) -0.19615(16)
H6 H -0.6235 -0.1300 -0.1732
C8 C -0.6806(2) -0.02783(10) -0.11096(15)
C9 C -0.7292(2) -0.05424(10) -0.01184(16)
H7 H -0.7283 -0.1062 0.0011
C10 C -0.7811(2) -0.00621(10) 0.07242(16)
C11 C -0.7815(2) 0.07152(10) 0.05303(15)
C12 C -0.6826(2) 0.05392(10) -0.13057(16)
C13 C -0.8321(2) -0.02980(11) 0.17619(17)
H8 H -0.8342 -0.0813 0.1927
C14 C -0.8785(2) 0.02043(11) 0.25341(17)
H9 H -0.9116 0.0025 0.3211
C15 C -0.8775(2) 0.09970(10) 0.23254(16)
C16 C -0.8274(2) 0.12406(10) 0.12866(16)
H10 H -0.8253 0.1754 0.1112
C17 C -0.9921(2) 0.12562(12) 0.41174(17)
H11 H -1.0558 0.0798 0.3904
H12 H -1.0670 0.1643 0.4295
C18 C -0.8622(3) 0.11058(14) 0.52145(18)
H13 H -0.9148 0.0943 0.5846
H14 H -0.8008 0.1561 0.5446
H15 H -0.7886 0.0717 0.5049
C19 C -0.9138(2) 0.23161(11) 0.29252(18)
H16 H -0.8198 0.2428 0.2563
H17 H -0.8965 0.2569 0.3688
C20 C -1.0688(3) 0.26238(12) 0.2147(2)
H18 H -1.0580 0.3160 0.2059
H19 H -1.1621 0.2520 0.2506
H20 H -1.0847 0.2386 0.1382
loop_
_geom_bond_atom_site_label_1
_geom_bond_atom_site_label_2
_geom_bond_site_symmetry_1
_geom_bond_site_symmetry_2
O1 C11 1_555 1_555
O2 C12 1_555 1_555
N1 C1 1_555 1_555
N2 C15 1_555 1_555
C1 H1 1_555 1_555
C2 C1 1_555 1_555
H2 C2 1_555 1_555
C3 C2 1_555 1_555
C4 C3 1_555 1_555
H3 C4 1_555 1_555
C5 N1 1_555 1_555
H4 C5 1_555 1_555
C6 C3 1_555 1_555
H5 C6 1_555 1_555
C7 C6 1_555 1_555
H6 C7 1_555 1_555
C8 C7 1_555 1_555
C9 C8 1_555 1_555
H7 C9 1_555 1_555
C10 C9 1_555 1_555
C11 C10 1_555 1_555
C12 O1 1_555 1_555
C13 C10 1_555 1_555
H8 C13 1_555 1_555
C14 C13 1_555 1_555
H9 C14 1_555 1_555
C15 C14 1_555 1_555
C16 C11 1_555 1_555
H10 C16 1_555 1_555
C17 N2 1_555 1_555
H11 C17 1_555 1_555
H12 C17 1_555 1_555
C18 C17 1_555 1_555
H13 C18 1_555 1_555
H14 C18 1_555 1_555
H15 C18 1_555 1_555
C19 N2 1_555 1_555
H16 C19 1_555 1_555
H17 C19 1_555 1_555
C20 C19 1_555 1_555
H18 C20 1_555 1_555
H19 C20 1_555 1_555
H20 C20 1_555 1_555
C4 C5 1_555 1_555
C8 C12 1_555 1_555
C15 C16 1_555 1_555

#END
