
#######################################################################
#
#                 Cambridge Crystallographic Data Centre
#                                CCDC 
#
#######################################################################
#
# If this CIF has been generated from an entry in the Cambridge 
# Structural Database, then it will include bibliographic, chemical, 
# crystal, experimental, refinement or atomic coordinate data resulting 
# from the CCDC's data processing and validation procedures.
#
#######################################################################

data_YICZEP
_chemical_formula_moiety         'C34 H34 O10'
_chemical_name_systematic        
2,5a,7,10a-tetrakis(Methoxycarbonyl)-4,9-di-isopropyl-5,10b:10,10c-diethenodicyclopenta(ef:kl)heptalene-1,6-dione
_symmetry_cell_setting           monoclinic
_symmetry_space_group_name_H-M   'P 21/n'
_symmetry_Int_Tables_number      14
_space_group_name_Hall           '-P 2yn'
loop_
_symmetry_equiv_pos_site_id
_symmetry_equiv_pos_as_xyz
1 x,y,z
2 1/2-x,1/2+y,1/2-z
3 -x,-y,-z
4 1/2+x,1/2-y,1/2+z
_cell_length_a                   11.589
_cell_length_b                   6.842
_cell_length_c                   19.3133
_cell_angle_alpha                90
_cell_angle_beta                 91.458
_cell_angle_gamma                90
_cell_volume                     1530.89
_exptl_crystal_colour            colorless
_chemical_melting_point          '203-204 deg.C (dec)'
_cell_formula_units_Z            2
loop_
_atom_site_label
_atom_site_type_symbol
_atom_site_fract_x
_atom_site_fract_y
_atom_site_fract_z
O1 O 0.3880(2) 0.3290(4) 0.3332(1)
O2 O 0.2096(2) 0.5086(5) 0.4064(2)
O3 O 0.1120(3) 0.3031(7) 0.4666(2)
O4 O 0.3666(2) -0.1131(4) 0.3229(1)
O5 O 0.5563(2) -0.1419(5) 0.3129(1)
C1 C 0.3859(3) 0.2260(6) 0.3841(2)
C2 C 0.3042(3) 0.2236(6) 0.4402(2)
C3 C 0.3375(3) 0.0945(6) 0.4901(2)
C4 C 0.2716(3) 0.0601(6) 0.5510(2)
C5 C 0.2978(3) -0.0680(6) 0.6012(2)
C6 C 0.4053(3) -0.1911(6) 0.5985(2)
C7 C 0.4028(3) -0.3157(6) 0.5340(2)
C8 C 0.4226(3) -0.2345(6) 0.4735(2)
C9 C 0.4487(3) -0.0189(6) 0.4717(2)
C10 C 0.4799(3) 0.0735(5) 0.4005(2)
C11 C 0.4755(3) -0.0722(6) 0.3403(2)
C12 C 0.3475(4) -0.2451(7) 0.2646(2)
C13 C 0.1991(4) 0.3478(8) 0.4405(2)
C14 C 0.1166(4) 0.6480(8) 0.4060(3)
C15 C 0.2189(3) -0.1120(8) 0.6601(2)
C16 C 0.1282(4) 0.0415(8) 0.6724(2)
C17 C 0.1651(4) -0.3122(8) 0.6483(2)
H1 H 0.1984 0.1405 0.5580
H2 H 0.3858 -0.4584 0.5372
H3 H 0.4193 -0.3144 0.4317
H4 H 0.4054 -0.2798 0.6398
H5 H 0.2634 -0.1226 0.7031
H6 H 0.2652 -0.2678 0.2552
H7 H 0.3783 -0.1957 0.2223
H8 H 0.3812 -0.3717 0.2730
H9 H 0.0958 0.6941 0.4522
H10 H 0.1312 0.7641 0.3794
H11 H 0.0431 0.5951 0.3864
H12 H 0.1653 0.1672 0.6803
H13 H 0.0797 0.0571 0.6311
H14 H 0.0807 0.0150 0.7101
H15 H 0.1186 -0.3579 0.6860
H16 H 0.1167 -0.3159 0.6070
H17 H 0.2242 -0.4126 0.6421
C10B C 0.5201(3) -0.0735(5) 0.5995(2)
C9B C 0.5513(3) 0.0189(6) 0.5283(2)
C6B C 0.5947(3) 0.1911(6) 0.4015(2)
C1B C 0.6141(3) -0.2260(6) 0.6159(2)
C11B C 0.5245(3) 0.0722(6) 0.6597(2)
C3B C 0.6625(3) -0.0945(6) 0.5099(2)
C8B C 0.5774(3) 0.2345(6) 0.5265(2)
C5B C 0.7022(3) 0.0680(6) 0.3988(2)
C7B C 0.5972(3) 0.3157(6) 0.4660(2)
H4B H 0.5946 0.2798 0.3602
O1B O 0.6120(2) -0.3290(4) 0.6668(1)
C2B C 0.6958(3) -0.2236(6) 0.5598(2)
O4B O 0.6334(2) 0.1131(4) 0.6771(1)
O5B O 0.4437(2) 0.1419(5) 0.6871(1)
C4B C 0.7284(3) -0.0601(6) 0.4490(2)
H3B H 0.5807 0.3144 0.5683
C15B C 0.7811(3) 0.1120(8) 0.3399(2)
H2B H 0.6142 0.4584 0.4628
C13B C 0.8009(4) -0.3478(8) 0.5595(2)
C12B C 0.6525(4) 0.2451(7) 0.7354(2)
H1B H 0.8016 -0.1405 0.4420
C16B C 0.8718(4) -0.0415(8) 0.3276(2)
C17B C 0.8349(4) 0.3122(8) 0.3517(2)
H5B H 0.7366 0.1226 0.2969
O2B O 0.7904(2) -0.5086(5) 0.5936(2)
O3B O 0.8880(3) -0.3031(7) 0.5334(2)
H6B H 0.7348 0.2678 0.7448
H7B H 0.6217 0.1957 0.7777
H8B H 0.6188 0.3717 0.7270
H12B H 0.8347 -0.1672 0.3197
H13B H 0.9203 -0.0571 0.3689
H14B H 0.9193 -0.0150 0.2899
H15B H 0.8814 0.3579 0.3140
H16B H 0.8833 0.3159 0.3930
H17B H 0.7758 0.4126 0.3579
C14B C 0.8834(4) -0.6480(8) 0.5940(3)
H9B H 0.9042 -0.6941 0.5478
H10B H 0.8688 -0.7641 0.6206
H11B H 0.9569 -0.5951 0.6136
loop_
_geom_bond_atom_site_label_1
_geom_bond_atom_site_label_2
_geom_bond_site_symmetry_1
_geom_bond_site_symmetry_2
O1 C1 1_555 1_555
O2 C13 1_555 1_555
O3 C13 1_555 1_555
O4 C11 1_555 1_555
O5 C11 1_555 1_555
C1 C2 1_555 1_555
C2 C3 1_555 1_555
C3 C4 1_555 1_555
C4 C5 1_555 1_555
C5 C6 1_555 1_555
C6 C7 1_555 1_555
C7 C8 1_555 1_555
C8 C9 1_555 1_555
C9 C3 1_555 1_555
C10 C1 1_555 1_555
C11 C10 1_555 1_555
C12 O4 1_555 1_555
C13 C2 1_555 1_555
C14 O2 1_555 1_555
C15 C5 1_555 1_555
C16 C15 1_555 1_555
C17 C15 1_555 1_555
H1 C4 1_555 1_555
H2 C7 1_555 1_555
H3 C8 1_555 1_555
H4 C6 1_555 1_555
H5 C15 1_555 1_555
H6 C12 1_555 1_555
H7 C12 1_555 1_555
H8 C12 1_555 1_555
H9 C14 1_555 1_555
H10 C14 1_555 1_555
H11 C14 1_555 1_555
H12 C16 1_555 1_555
H13 C16 1_555 1_555
H14 C16 1_555 1_555
H15 C17 1_555 1_555
H16 C17 1_555 1_555
H17 C17 1_555 1_555
C10B C6 1_555 1_555
C9B C9 1_555 1_555
C6B C10 1_555 1_555
C1B C10B 1_555 1_555
C11B C10B 1_555 1_555
C3B C9B 1_555 1_555
C8B C9B 1_555 1_555
C5B C6B 1_555 1_555
C7B C6B 1_555 1_555
H4B C6B 1_555 1_555
O1B C1B 1_555 1_555
C2B C1B 1_555 1_555
O4B C11B 1_555 1_555
O5B C11B 1_555 1_555
C4B C3B 1_555 1_555
H3B C8B 1_555 1_555
C15B C5B 1_555 1_555
H2B C7B 1_555 1_555
C13B C2B 1_555 1_555
C12B O4B 1_555 1_555
H1B C4B 1_555 1_555
C16B C15B 1_555 1_555
C17B C15B 1_555 1_555
H5B C15B 1_555 1_555
O2B C13B 1_555 1_555
O3B C13B 1_555 1_555
H6B C12B 1_555 1_555
H7B C12B 1_555 1_555
H8B C12B 1_555 1_555
H12B C16B 1_555 1_555
H13B C16B 1_555 1_555
H14B C16B 1_555 1_555
H15B C17B 1_555 1_555
H16B C17B 1_555 1_555
H17B C17B 1_555 1_555
C14B O2B 1_555 1_555
H9B C14B 1_555 1_555
H10B C14B 1_555 1_555
H11B C14B 1_555 1_555
C9 C10 1_555 1_555
C10B C9B 1_555 1_555
C3B C2B 1_555 1_555
C8B C7B 1_555 1_555
C5B C4B 1_555 1_555

#END
