
#######################################################################
#
#                 Cambridge Crystallographic Data Centre
#                                CCDC 
#
#######################################################################
#
# If this CIF has been generated from an entry in the Cambridge 
# Structural Database, then it will include bibliographic, chemical, 
# crystal, experimental, refinement or atomic coordinate data resulting 
# from the CCDC's data processing and validation procedures.
#
#######################################################################

data_YIDJIG
_chemical_formula_moiety         'C30 H38 N2 O2'
_chemical_name_systematic        
8,11-bis(Adamantan-1-yl)-7,10-diazatricyclo[4.3.3.0^1,6^]dodeca-7,10-diene-9,12-dione
_symmetry_cell_setting           monoclinic
_symmetry_space_group_name_H-M   'P 21/c'
_symmetry_Int_Tables_number      14
_space_group_name_Hall           '-P 2ybc'
loop_
_symmetry_equiv_pos_site_id
_symmetry_equiv_pos_as_xyz
1 x,y,z
2 -x,1/2+y,1/2-z
3 -x,-y,-z
4 x,1/2-y,1/2+z
_cell_length_a                   11.152(2)
_cell_length_b                   31.613(6)
_cell_length_c                   7.0253(14)
_cell_angle_alpha                90
_cell_angle_beta                 94.34(3)
_cell_angle_gamma                90
_cell_volume                     2469.65
_exptl_crystal_colour            yellow
_exptl_crystal_description       plate
_cell_formula_units_Z            4
loop_
_atom_site_label
_atom_site_type_symbol
_atom_site_fract_x
_atom_site_fract_y
_atom_site_fract_z
C1 C 0.3887(8) 0.1034(2) 0.9182(10)
O1 O 0.4011(2) 0.07859(9) 0.8004(4)
N1 N 0.3127(10) 0.13549(17) 1.1828(14)
C2 C 0.4797(5) 0.1874(2) 1.2050(9)
O2 O 0.4781(2) 0.21215(8) 1.3351(4)
N2 N 0.5618(4) 0.1498(4) 0.9593(11)
C3 C 0.2889(2) 0.05710(10) 1.1753(4)
C4 C 0.4006(3) 0.03130(11) 1.2226(6)
H1 H 0.4543 0.0462 1.3191
H2 H 0.4445 0.0273 1.1066
C5 C 0.3645(4) -0.01165(16) 1.3004(7)
H3 H 0.4376 -0.0296 1.3273
C6 C 0.2783(6) -0.0332(2) 1.1526(9)
H4 H 0.2566 -0.0615 1.1998
H5 H 0.3183 -0.0371 1.0327
C7 C 0.1634(5) -0.00648(17) 1.1128(7)
H6 H 0.1067 -0.0212 1.0175
C8 C 0.1039(6) 0.0000(2) 1.2983(7)
H7 H 0.0794 -0.0277 1.3485
H8 H 0.0307 0.0176 1.2741
C9 C 0.1907(4) 0.02179(15) 1.4451(7)
H9 H 0.1504 0.0260 1.5661
C10 C 0.2260(3) 0.06469(12) 1.3678(5)
H10 H 0.2820 0.0793 1.4622
H11 H 0.1537 0.0826 1.3430
C11 C 0.3005(6) -0.0054(2) 1.4845(8)
H12 H 0.2768 -0.0332 1.5343
H13 H 0.3561 0.0083 1.5826
C12 C 0.2002(4) 0.03658(13) 1.0334(6)
H14 H 0.2368 0.0325 0.9106
H15 H 0.1285 0.0548 1.0103
C13 C 0.3280(2) 0.09911(10) 1.0990(4)
C14 C 0.4269(2) 0.14948(10) 0.9104(4)
C15 C 0.3929(3) 0.17029(12) 0.7181(4)
H16 H 0.4332 0.1981 0.7132
H17 H 0.4214 0.1525 0.6149
C16 C 0.2581(3) 0.17629(12) 0.6858(5)
H18 H 0.2209 0.1487 0.6500
H19 H 0.2415 0.1958 0.5768
C17 C 0.1985(3) 0.19373(12) 0.8578(5)
H20 H 0.1494 0.2187 0.8168
H21 H 0.1433 0.1720 0.9029
C18 C 0.2861(3) 0.20648(10) 1.0227(5)
H22 H 0.2410 0.2143 1.1336
H23 H 0.3322 0.2316 0.9860
C19 C 0.3725(3) 0.17073(9) 1.0786(4)
C20 C 0.5873(2) 0.16630(9) 1.1267(4)
C21 C 0.7111(2) 0.16625(9) 1.2267(4)
C22 C 0.7574(3) 0.21170(12) 1.2680(6)
H24 H 0.7627 0.2272 1.1465
H25 H 0.7009 0.2270 1.3455
C23 C 0.8830(5) 0.2095(2) 1.3772(10)
H26 H 0.9126 0.2388 1.4072
C24 C 0.9705(5) 0.1870(2) 1.2541(8)
H27 H 1.0513 0.1860 1.3228
H28 H 0.9768 0.2030 1.1339
C25 C 0.9265(5) 0.1418(2) 1.2083(10)
H29 H 0.9842 0.1269 1.1292
C26 C 0.8011(3) 0.14409(13) 1.1008(5)
H30 H 0.7723 0.1152 1.0684
H31 H 0.8059 0.1600 0.9804
C27 C 0.9164(6) 0.1184(3) 1.3994(8)
H32 H 0.8893 0.0890 1.3735
H33 H 0.9966 0.1172 1.4702
C28 C 0.7051(3) 0.14214(12) 1.4124(5)
H34 H 0.6750 0.1131 1.3851
H35 H 0.6484 0.1564 1.4932
C29 C 0.8298(4) 0.14000(18) 1.5191(7)
H36 H 0.8250 0.1243 1.6419
C30 C 0.8743(5) 0.1852(3) 1.5596(11)
H37 H 0.8183 0.1998 1.6403
H38 H 0.9544 0.1842 1.6308
C31? C 0.319(5) 0.1393(6) 1.194(6)
O3? O 0.2426(7) 0.1405(3) 1.3031(11)
N3? N 0.385(3) 0.1042(6) 0.942(3)
C32? C 0.5585(16) 0.1444(17) 0.945(4)
O4? O 0.6308(7) 0.1331(3) 0.8348(11)
N4? N 0.4888(13) 0.1759(6) 1.205(3)
C33? C 0.3362(11) 0.0153(4) 1.0294(19)
H39? H 0.2975 0.0186 0.8987
H40? H 0.4243 0.0170 1.0215
C34? C 0.303(2) -0.0291(9) 1.109(3)
H41? H 0.3333 -0.0523 1.0279
C35? C 0.1664(15) -0.0300(5) 1.106(2)
H42? H 0.1320 -0.0262 0.9733
H43? H 0.1407 -0.0581 1.1503
C36? C 0.117(2) 0.0034(7) 1.230(3)
H44? H 0.0273 0.0012 1.2263
C37? C 0.1718(16) 0.0013(5) 1.434(3)
H45? H 0.1427 -0.0243 1.4976
H46? H 0.1467 0.0264 1.5060
C38? C 0.318(2) 0.0000(9) 1.437(4)
H47? H 0.3548 -0.0040 1.5695
C39? C 0.3480(11) 0.0458(4) 1.3585(17)
H48? H 0.3261 0.0670 1.4536
H49? H 0.4360 0.0476 1.3493
C40? C 0.3550(15) -0.0333(5) 1.312(2)
H50? H 0.3303 -0.0609 1.3628
H51? H 0.4439 -0.0332 1.3138
C41? C 0.1544(11) 0.0478(4) 1.155(2)
H52? H 0.1258 0.0502 1.0190
H53? H 0.1125 0.0698 1.2258
C42? C 0.7927(10) 0.1920(4) 1.1208(16)
H54? H 0.7621 0.2214 1.1125
H55? H 0.7934 0.1808 0.9892
C43? C 0.9222(14) 0.1923(5) 1.214(2)
H56? H 0.9760 0.2089 1.1348
C44? C 0.9643(17) 0.1487(7) 1.234(3)
H57? H 1.0478 0.1491 1.2931
H58? H 0.9670 0.1365 1.1045
C45? C 0.893(2) 0.1201(9) 1.347(3)
H59? H 0.9282 0.0911 1.3582
C46? C 0.7590(10) 0.1194(4) 1.2592(18)
H60? H 0.7080 0.1043 1.3466
H61? H 0.7543 0.1041 1.1360
C47? C 0.8839(15) 0.1423(6) 1.555(2)
H62? H 0.8310 0.1249 1.6303
H63? H 0.9649 0.1425 1.6227
C48? C 0.7092(10) 0.1855(4) 1.4358(16)
H64? H 0.6760 0.2146 1.4267
H65? H 0.6551 0.1683 1.5100
C49? C 0.8362(17) 0.1869(9) 1.544(4)
H66? H 0.8346 0.2001 1.6730
C50? C 0.9194(17) 0.2121(8) 1.411(3)
H67? H 0.8900 0.2416 1.3975
H68? H 1.0022 0.2130 1.4730
loop_
_geom_bond_atom_site_label_1
_geom_bond_atom_site_label_2
_geom_bond_site_symmetry_1
_geom_bond_site_symmetry_2
C1 O1 1_555 1_555
N1 C13 1_555 1_555
C2 O2 1_555 1_555
N2 C14 1_555 1_555
C3 C4 1_555 1_555
C4 H1 1_555 1_555
H2 C4 1_555 1_555
C5 C4 1_555 1_555
H3 C5 1_555 1_555
C6 C5 1_555 1_555
H4 C6 1_555 1_555
H5 C6 1_555 1_555
C7 C6 1_555 1_555
H6 C7 1_555 1_555
C8 C7 1_555 1_555
H7 C8 1_555 1_555
H8 C8 1_555 1_555
C9 C8 1_555 1_555
H9 C9 1_555 1_555
C10 C3 1_555 1_555
H10 C10 1_555 1_555
H11 C10 1_555 1_555
C11 C5 1_555 1_555
H12 C11 1_555 1_555
H13 C11 1_555 1_555
C12 C3 1_555 1_555
H14 C12 1_555 1_555
H15 C12 1_555 1_555
C13 C1 1_555 1_555
C14 C1 1_555 1_555
C15 C14 1_555 1_555
H16 C15 1_555 1_555
H17 C15 1_555 1_555
C16 C15 1_555 1_555
H18 C16 1_555 1_555
H19 C16 1_555 1_555
C17 C16 1_555 1_555
H20 C17 1_555 1_555
H21 C17 1_555 1_555
C18 C17 1_555 1_555
H22 C18 1_555 1_555
H23 C18 1_555 1_555
C19 N1 1_555 1_555
C20 C2 1_555 1_555
C21 C20 1_555 1_555
C22 C21 1_555 1_555
H24 C22 1_555 1_555
H25 C22 1_555 1_555
C23 C22 1_555 1_555
H26 C23 1_555 1_555
C24 C23 1_555 1_555
H27 C24 1_555 1_555
H28 C24 1_555 1_555
C25 C24 1_555 1_555
H29 C25 1_555 1_555
C26 C21 1_555 1_555
H30 C26 1_555 1_555
H31 C26 1_555 1_555
C27 C25 1_555 1_555
H32 C27 1_555 1_555
H33 C27 1_555 1_555
C28 C21 1_555 1_555
H34 C28 1_555 1_555
H35 C28 1_555 1_555
C29 C27 1_555 1_555
H36 C29 1_555 1_555
C30 C23 1_555 1_555
H37 C30 1_555 1_555
H38 C30 1_555 1_555
C2 C19 1_555 1_555
N2 C20 1_555 1_555
C3 C13 1_555 1_555
C7 C12 1_555 1_555
C9 C10 1_555 1_555
C9 C11 1_555 1_555
C14 C19 1_555 1_555
C18 C19 1_555 1_555
C25 C26 1_555 1_555
C28 C29 1_555 1_555
C29 C30 1_555 1_555

#END
