
#######################################################################
#
#                 Cambridge Crystallographic Data Centre
#                                CCDC 
#
#######################################################################
#
# If this CIF has been generated from an entry in the Cambridge 
# Structural Database, then it will include bibliographic, chemical, 
# crystal, experimental, refinement or atomic coordinate data resulting 
# from the CCDC's data processing and validation procedures.
#
#######################################################################

data_YIDJEC
_chemical_formula_moiety         'C27 H28 N2 O4'
_chemical_name_systematic        
5,5-Dimethoxy-3,12-bis(4-methylphenyl)-2,13-diazatricyclo[4.4.3.0^1,6^]trideca-2,12-diene-4,11-dione
_symmetry_cell_setting           triclinic
_symmetry_space_group_name_H-M   'P -1'
_symmetry_Int_Tables_number      2
_space_group_name_Hall           '-P 1'
loop_
_symmetry_equiv_pos_site_id
_symmetry_equiv_pos_as_xyz
1 x,y,z
2 -x,-y,-z
_cell_length_a                   9.1255(18)
_cell_length_b                   11.865(2)
_cell_length_c                   12.456(3)
_cell_angle_alpha                72.38(3)
_cell_angle_beta                 87.22(3)
_cell_angle_gamma                67.72(3)
_cell_volume                     1186.06
_cell_formula_units_Z            2
loop_
_atom_site_label
_atom_site_type_symbol
_atom_site_fract_x
_atom_site_fract_y
_atom_site_fract_z
O1 O 0.8389(3) 0.0991(2) 0.0640(2)
O2 O 0.6783(3) 0.2911(2) 0.09527(19)
O3 O 0.3985(3) 0.3959(2) 0.2579(2)
N1 N 0.3488(3) 0.2727(3) 0.1034(3)
N2 N 0.7169(3) 0.1049(3) 0.2992(2)
O4 O 0.6093(3) 0.1473(3) -0.0821(2)
C1 C 0.6410(4) 0.2044(3) 0.3319(3)
C2 C 0.6966(4) 0.2273(3) 0.4275(3)
C3 C 0.8560(4) 0.1641(3) 0.4701(3)
H1 H 0.9277 0.1104 0.4341
C4 C 0.2896(4) 0.3514(3) -0.0946(3)
C5 C 0.6284(4) 0.1086(3) 0.2015(3)
C6 C 0.4538(4) 0.1992(3) 0.2072(3)
C7 C 0.4001(4) 0.2729(3) 0.0057(3)
C8 C 0.6896(4) 0.1721(3) 0.0896(3)
C9 C 0.5945(5) 0.3107(3) 0.4819(3)
H2 H 0.4884 0.3555 0.4551
C10 C 0.6494(5) 0.3271(3) 0.5750(3)
H3 H 0.5793 0.3828 0.6102
C11 C 0.4813(4) 0.2869(4) 0.2637(3)
C12 C 0.5705(4) 0.1916(4) -0.0060(3)
C13 C 0.0687(5) 0.5088(4) -0.2846(3)
C14 C 0.1265(4) 0.3973(4) -0.0845(3)
H4 H 0.0887 0.3760 -0.0136
C15 C 0.9074(5) 0.1798(4) 0.5625(3)
H5 H 1.0130 0.1342 0.5903
C16 C 0.8055(5) 0.2630(4) 0.6170(3)
C17 C 0.0189(5) 0.4737(4) -0.1773(3)
H6 H -0.0892 0.5021 -0.1671
C18 C 0.7056(5) 0.3746(4) -0.0067(3)
H7 H 0.7975 0.3272 -0.0386
H8 H 0.7229 0.4427 0.0098
H9 H 0.6148 0.4098 -0.0597
C19 C -0.0475(5) 0.5914(4) -0.3838(3)
H10 H -0.1139 0.5486 -0.3941
H11 H 0.0085 0.6080 -0.4503
H12 H -0.1121 0.6709 -0.3711
C20 C 0.3615(5) 0.1290(4) 0.2921(3)
H13 H 0.3964 0.1173 0.3685
H14 H 0.2491 0.1827 0.2801
C21 C 0.3391(5) 0.3889(4) -0.2026(4)
H15 H 0.4471 0.3621 -0.2132
C22 C 0.2293(5) 0.4658(4) -0.2953(3)
H16 H 0.2662 0.4886 -0.3663
C23 C 0.8622(5) 0.2810(4) 0.7203(3)
H17 H 0.7934 0.3622 0.7278
H18 H 0.9685 0.2785 0.7124
H19 H 0.8609 0.2137 0.7862
C24 C 0.6502(5) -0.0283(4) 0.2074(3)
H20 H 0.6133 -0.0271 0.1352
H21 H 0.7624 -0.0821 0.2206
C25 C 0.3844(5) -0.0002(4) 0.2809(4)
H22 H 0.3443 0.0108 0.2062
H23 H 0.3253 -0.0395 0.3361
C26 C 0.9746(5) 0.0828(4) 0.1281(3)
H24 H 0.9725 0.1651 0.1255
H25 H 1.0693 0.0383 0.0969
H26 H 0.9736 0.0340 0.2050
C27 C 0.5612(6) -0.0868(4) 0.3000(4)
H27 H 0.6028 -0.0950 0.3734
H28 H 0.5754 -0.1715 0.2982
loop_
_geom_bond_atom_site_label_1
_geom_bond_atom_site_label_2
_geom_bond_site_symmetry_1
_geom_bond_site_symmetry_2
O1 C8 1_555 1_555
O2 C8 1_555 1_555
O3 C11 1_555 1_555
N1 C6 1_555 1_555
N2 C1 1_555 1_555
O4 C12 1_555 1_555
C1 C2 1_555 1_555
C2 C3 1_555 1_555
C3 H1 1_555 1_555
C4 C7 1_555 1_555
C5 N2 1_555 1_555
C6 C5 1_555 1_555
C7 N1 1_555 1_555
C8 C5 1_555 1_555
C9 C2 1_555 1_555
H2 C9 1_555 1_555
C10 C9 1_555 1_555
H3 C10 1_555 1_555
C11 C1 1_555 1_555
C12 C7 1_555 1_555
C13 C17 1_555 1_555
C14 C4 1_555 1_555
H4 C14 1_555 1_555
C15 C3 1_555 1_555
H5 C15 1_555 1_555
C16 C10 1_555 1_555
C17 C14 1_555 1_555
H6 C17 1_555 1_555
C18 O2 1_555 1_555
H7 C18 1_555 1_555
H8 C18 1_555 1_555
H9 C18 1_555 1_555
C19 C13 1_555 1_555
H10 C19 1_555 1_555
H11 C19 1_555 1_555
H12 C19 1_555 1_555
C20 C6 1_555 1_555
H13 C20 1_555 1_555
H14 C20 1_555 1_555
C21 C4 1_555 1_555
H15 C21 1_555 1_555
C22 C13 1_555 1_555
H16 C22 1_555 1_555
C23 C16 1_555 1_555
H17 C23 1_555 1_555
H18 C23 1_555 1_555
H19 C23 1_555 1_555
C24 C5 1_555 1_555
H20 C24 1_555 1_555
H21 C24 1_555 1_555
C25 C20 1_555 1_555
H22 C25 1_555 1_555
H23 C25 1_555 1_555
C26 O1 1_555 1_555
H24 C26 1_555 1_555
H25 C26 1_555 1_555
H26 C26 1_555 1_555
C27 C24 1_555 1_555
H27 C27 1_555 1_555
H28 C27 1_555 1_555
C6 C11 1_555 1_555
C8 C12 1_555 1_555
C15 C16 1_555 1_555
C21 C22 1_555 1_555
C25 C27 1_555 1_555

#END
