
#######################################################################
#
#                 Cambridge Crystallographic Data Centre
#                                CCDC 
#
#######################################################################
#
# If this CIF has been generated from an entry in the Cambridge 
# Structural Database, then it will include bibliographic, chemical, 
# crystal, experimental, refinement or atomic coordinate data resulting 
# from the CCDC's data processing and validation procedures.
#
#######################################################################

data_YIDKUR
_chemical_formula_moiety         'C14 H39 N7 4+,4(Cl1 1-),H2 O1'
_chemical_name_systematic        
'4,10,16-Triaza-1,7,13,19-tetra-azoniacyclo-henicosane tetrachloride monohydrate'
_symmetry_cell_setting           monoclinic
_symmetry_space_group_name_H-M   'P 21'
_symmetry_Int_Tables_number      4
_space_group_name_Hall           'P 2yb'
loop_
_symmetry_equiv_pos_site_id
_symmetry_equiv_pos_as_xyz
1 x,y,z
2 -x,1/2+y,-z
_cell_length_a                   7.472
_cell_length_b                   19.480
_cell_length_c                   8.3638
_cell_angle_alpha                90
_cell_angle_beta                 100.38
_cell_angle_gamma                90
_cell_volume                     1197.47
_cell_formula_units_Z            2
loop_
_atom_site_label
_atom_site_type_symbol
_atom_site_fract_x
_atom_site_fract_y
_atom_site_fract_z
Cl1 Cl 0.194(2) 0.2742 0.2052(1)
Cl2 Cl 0.6503(2) 0.4074(1) 0.9262(2)
Cl3 Cl 0.7292(2) 0.1423(1) 0.9358(2)
O1 O 0.7762(7) 0.2798(3) 0.7377(6)
N1 N 0.5642(7) 0.1195(3) 1.3568(8)
N2 N 0.3103(7) 0.1437(3) 1.0093(7)
N3 N 0.2029(9) 0.2520(3) 0.7775(6)
N4 N 0.2300(6) 0.3895(3) 0.9149(6)
N5 N 0.3691(6) 0.4816(3) 1.1935(6)
N6 N 0.6939(6) 0.4079(3) 1.3315(7)
N7 N 0.8178(6) 0.2237(3) 1.2636(6)
C1 C 0.368(1) 0.1069(4) 1.2976(8)
C2 C 0.277(1) 0.0906(4) 1.127(1)
C3 C 0.226(1) 0.1309(4) 0.8407(8)
C4 C 0.2622(9) 0.1863(4) 0.7295(7)
C5 C 0.2579(9) 0.3097(4) 0.6881(7)
C6 C 0.177(1) 0.3752(4) 0.7368(8)
C7 C 0.1321(8) 0.4489(4) 0.9668(9)
C8 C 0.1781(8) 0.4608(3) 1.1449(8)
C9 C 0.4378(9) 0.4799(3) 1.3688(8)
C10 C 0.5342(8) 0.4129(4) 1.4158(8)
C11 C 0.7946(8) 0.3430(3) 1.3542(8)
C12 C 0.7035(7) 0.2863(3) 1.2498(7)
C13 C 0.886 0.156 1.212
C14 C 0.722 0.136 1.286
Cl4? Cl 0.413(2) 0.0139(1) 0.5020(2)
loop_
_geom_bond_atom_site_label_1
_geom_bond_atom_site_label_2
_geom_bond_site_symmetry_1
_geom_bond_site_symmetry_2
N1 C1 1_555 1_555
N2 C2 1_555 1_555
N3 C4 1_555 1_555
N4 C6 1_555 1_555
N5 C8 1_555 1_555
N6 C10 1_555 1_555
N7 C12 1_555 1_555
C1 C2 1_555 1_555
C3 N2 1_555 1_555
C4 C3 1_555 1_555
C5 N3 1_555 1_555
C6 C5 1_555 1_555
C7 N4 1_555 1_555
C8 C7 1_555 1_555
C9 N5 1_555 1_555
C10 C9 1_555 1_555
C11 N6 1_555 1_555
C12 C11 1_555 1_555
C13 N7 1_555 1_555
C14 N1 1_555 1_555
C13 C14 1_555 1_555

#END
