
#######################################################################
#
#                 Cambridge Crystallographic Data Centre
#                                CCDC 
#
#######################################################################
#
# If this CIF has been generated from an entry in the Cambridge 
# Structural Database, then it will include bibliographic, chemical, 
# crystal, experimental, refinement or atomic coordinate data resulting 
# from the CCDC's data processing and validation procedures.
#
#######################################################################

data_YIDVIR
_chemical_formula_moiety         'H12 Mg1 O6 2+,2(C13 H10 N1 O4 S1 1-)'
_chemical_name_systematic        
'Hexa-aqua-magnesium(ii) bis(4-(2-hydroxybenzylideneamino)benzenesulfonate)'
_symmetry_cell_setting           monoclinic
_symmetry_space_group_name_H-M   'P 21/n'
_symmetry_Int_Tables_number      14
_space_group_name_Hall           '-P 2yn'
loop_
_symmetry_equiv_pos_site_id
_symmetry_equiv_pos_as_xyz
1 x,y,z
2 1/2-x,1/2+y,1/2-z
3 -x,-y,-z
4 1/2+x,1/2-y,1/2+z
_cell_length_a                   6.2997(17)
_cell_length_b                   35.313(9)
_cell_length_c                   6.9561(19)
_cell_angle_alpha                90
_cell_angle_beta                 90.750(10)
_cell_angle_gamma                90
_cell_volume                     1547.33
_exptl_crystal_colour            brown
_exptl_crystal_description       block
_cell_formula_units_Z            2
loop_
_atom_site_label
_atom_site_type_symbol
_atom_site_fract_x
_atom_site_fract_y
_atom_site_fract_z
C1 C 0.5147(7) 0.29797(12) 0.5190(6)
C2 C 0.6701(8) 0.32508(13) 0.5548(6)
H1 H 0.8064 0.3173 0.5893
C3 C 0.6272(9) 0.36279(14) 0.5404(7)
H2 H 0.7326 0.3806 0.5663
C4 C 0.4255(9) 0.37428(13) 0.4871(7)
H3 H 0.3957 0.4000 0.4748
C5 C 0.2695(9) 0.34828(14) 0.4524(6)
H4 H 0.1344 0.3564 0.4158
C6 C 0.3106(8) 0.31045(12) 0.4710(6)
C7 C 0.5634(7) 0.25773(12) 0.5315(5)
H5 H 0.7020 0.2506 0.5614
C8 C 0.4826(6) 0.19365(11) 0.5055(5)
C9 C 0.3252(6) 0.16787(12) 0.5564(6)
H6 H 0.1914 0.1765 0.5901
C10 C 0.3670(6) 0.13009(12) 0.5569(6)
H7 H 0.2622 0.1130 0.5925
C11 C 0.5665(5) 0.11689(10) 0.5043(4)
C12 C 0.7255(6) 0.14225(11) 0.4507(5)
H8 H 0.8588 0.1336 0.4155
C13 C 0.6805(6) 0.18019(12) 0.4514(6)
H9 H 0.7845 0.1973 0.4148
N1 N 0.4280(5) 0.23230(10) 0.5038(5)
O1 O 0.1544(5) 0.28509(10) 0.4396(5)
H10 H 0.2119 0.2635 0.4541
O2 O 0.8439(3) 0.06285(7) 0.4953(3)
O3 O 0.5166(4) 0.05345(7) 0.3242(3)
O4 O 0.5167(4) 0.05225(7) 0.6716(3)
S1 S 0.61427(12) 0.06773(2) 0.49840(11)
Mg1 Mg 1.0000 0.0000 0.0000
O5 O 0.7139(3) 0.02654(7) -0.0016(3)
H11 H 0.7144 0.0460 -0.0981
H12 H 0.6887 0.0377 0.1221
O6 O 1.1087(4) 0.03733(8) 0.2055(4)
H13 H 1.2111 0.0247 0.2852
H14 H 0.9918 0.0457 0.2832
O7 O 0.8927(4) -0.03449(8) 0.2191(4)
H15 H 0.7912 -0.0209 0.2956
H16 H 1.0104 -0.0419 0.2983
O5B O 1.2861(3) -0.02654(7) 0.0016(3)
H11B H 1.2856 -0.0460 0.0981
H12B H 1.3113 -0.0377 -0.1221
O6B O 0.8913(4) -0.03733(8) -0.2055(4)
H13B H 0.7889 -0.0247 -0.2852
H14B H 1.0082 -0.0457 -0.2832
O7B O 1.1073(4) 0.03449(8) -0.2191(4)
H15B H 1.2088 0.0209 -0.2956
H16B H 0.9896 0.0419 -0.2983
loop_
_geom_bond_atom_site_label_1
_geom_bond_atom_site_label_2
_geom_bond_site_symmetry_1
_geom_bond_site_symmetry_2
C1 C2 1_555 1_555
C2 H1 1_555 1_555
C3 C2 1_555 1_555
H2 C3 1_555 1_555
C4 C3 1_555 1_555
H3 C4 1_555 1_555
C5 C4 1_555 1_555
H4 C5 1_555 1_555
C6 C1 1_555 1_555
C7 C1 1_555 1_555
H5 C7 1_555 1_555
C8 C9 1_555 1_555
C9 H6 1_555 1_555
C10 C9 1_555 1_555
H7 C10 1_555 1_555
C11 C10 1_555 1_555
C12 C11 1_555 1_555
H8 C12 1_555 1_555
C13 C8 1_555 1_555
H9 C13 1_555 1_555
Mg1 O5 1_555 1_555
N1 C7 1_555 1_555
O1 C6 1_555 1_555
H10 O1 1_555 1_555
O2 S1 1_555 1_555
O3 S1 1_555 1_555
O4 S1 1_555 1_555
O5 H11 1_555 1_555
H12 O5 1_555 1_555
O6 Mg1 1_555 1_555
H13 O6 1_555 1_555
H14 O6 1_555 1_555
O7 Mg1 1_555 1_555
H15 O7 1_555 1_555
H16 O7 1_555 1_555
S1 C11 1_555 1_555
O5B Mg1 1_555 1_555
H11B O5B 1_555 1_555
H12B O5B 1_555 1_555
O6B Mg1 1_555 1_555
H13B O6B 1_555 1_555
H14B O6B 1_555 1_555
O7B Mg1 1_555 1_555
H15B O7B 1_555 1_555
H16B O7B 1_555 1_555
C5 C6 1_555 1_555
C8 N1 1_555 1_555
C12 C13 1_555 1_555

#END
