
#######################################################################
#
#                 Cambridge Crystallographic Data Centre
#                                CCDC 
#
#######################################################################
#
# If this CIF has been generated from an entry in the Cambridge 
# Structural Database, then it will include bibliographic, chemical, 
# crystal, experimental, refinement or atomic coordinate data resulting 
# from the CCDC's data processing and validation procedures.
#
#######################################################################

data_YIDXIV
_chemical_formula_moiety         'C56 H56 B2'
_chemical_name_systematic        
pentacyclo[6.6.6.0^2,7^.0^9,14^.0^15,20^]icosa-2,4,6,9,11,13,15,17,19-nonaene-3,13-diylbis[bis(2,4,6-trimethylphenyl)borane]
_symmetry_cell_setting           monoclinic
_symmetry_space_group_name_H-M   'P 21/c'
_symmetry_Int_Tables_number      14
_space_group_name_Hall           '-P 2ybc'
loop_
_symmetry_equiv_pos_site_id
_symmetry_equiv_pos_as_xyz
1 x,y,z
2 -x,1/2+y,1/2-z
3 -x,-y,-z
4 x,1/2-y,1/2+z
_cell_length_a                   11.785(3)
_cell_length_b                   19.051(5)
_cell_length_c                   19.029(5)
_cell_angle_alpha                90
_cell_angle_beta                 93.290(4)
_cell_angle_gamma                90
_cell_volume                     4265.27
_exptl_crystal_colour            colorless
_exptl_crystal_description       plate
_cell_formula_units_Z            4
loop_
_atom_site_label
_atom_site_type_symbol
_atom_site_fract_x
_atom_site_fract_y
_atom_site_fract_z
C1 C 1.1423(2) 0.12105(13) 0.74873(13)
C2 C 1.2517(2) 0.13293(13) 0.72448(14)
H1 H 1.3139 0.1307 0.7568
C3 C 1.2707(2) 0.14760(14) 0.65550(14)
H2 H 1.3443 0.1550 0.6419
C4 C 1.1800(2) 0.15130(14) 0.60645(14)
H3 H 1.1919 0.1613 0.5596
C5 C 1.0712(2) 0.13990(13) 0.62763(13)
C6 C 1.0507(2) 0.12666(12) 0.69830(13)
C7 C 0.8622(2) 0.18292(12) 0.67845(12)
C8 C 0.7830(2) 0.22579(12) 0.71089(12)
C9 C 0.7455(2) 0.28578(13) 0.67303(13)
H4 H 0.6984 0.3175 0.6944
C10 C 0.7764(2) 0.29918(14) 0.60505(13)
H5 H 0.7501 0.3394 0.5816
C11 C 0.8464(2) 0.25263(14) 0.57212(13)
H6 H 0.8644 0.2600 0.5257
C12 C 0.8890(2) 0.19529(13) 0.60895(12)
C13 C 0.9067(2) 0.06894(14) 0.59228(14)
C14 C 0.8747(2) 0.01840(15) 0.54221(15)
H7 H 0.8891 0.0249 0.4951
C15 C 0.8206(2) -0.04200(16) 0.56404(18)
H8 H 0.7979 -0.0758 0.5309
C16 C 0.8001(2) -0.05264(15) 0.63374(17)
H9 H 0.7640 -0.0935 0.6471
C17 C 0.8329(2) -0.00287(13) 0.68419(15)
H10 H 0.8198 -0.0101 0.7314
C18 C 0.8853(2) 0.05766(13) 0.66282(13)
C19 C 0.9238(2) 0.11841(12) 0.70997(13)
H11 H 0.9086 0.1107 0.7595
C20 C 0.9643(2) 0.13904(14) 0.57965(13)
H12 H 0.9793 0.1467 0.5301
C21 C 1.2237(2) 0.12656(13) 0.88317(13)
C22 C 1.3014(2) 0.08558(14) 0.92506(13)
C23 C 1.3785(2) 0.11813(15) 0.97268(14)
H13 H 1.4313 0.0906 0.9983
C24 C 1.3795(2) 0.18982(16) 0.98326(13)
C25 C 1.3026(2) 0.22942(14) 0.94296(13)
H14 H 1.3015 0.2778 0.9496
C26 C 1.2270(2) 0.20000(13) 0.89304(13)
C27 C 1.3051(2) 0.00685(14) 0.91827(15)
H15 H 1.2357 -0.0128 0.9335
H16 H 1.3682 -0.0112 0.9469
H17 H 1.3139 -0.0056 0.8700
C28 C 1.4614(3) 0.22382(17) 1.03694(15)
H18 H 1.4214 0.2374 1.0773
H19 H 1.4945 0.2646 1.0167
H20 H 1.5204 0.1911 1.0510
C29 C 1.1487(2) 0.24854(14) 0.85070(15)
H21 H 1.1835 0.2618 0.8083
H22 H 1.1347 0.2898 0.8779
H23 H 1.0781 0.2250 0.8390
C30 C 1.0599(2) 0.02897(13) 0.84112(13)
C31 C 0.9827(2) 0.03216(13) 0.89522(14)
C32 C 0.9117(2) -0.02389(15) 0.90696(16)
H24 H 0.8584 -0.0198 0.9409
C33 C 0.9179(2) -0.08597(15) 0.86933(16)
C34 C 0.9957(2) -0.08967(14) 0.81794(15)
H25 H 1.0019 -0.1313 0.7930
C35 C 1.0652(2) -0.03357(13) 0.80198(14)
C36 C 0.9746(3) 0.09750(15) 0.93971(16)
H26 H 1.0472 0.1070 0.9632
H27 H 0.9191 0.0904 0.9740
H28 H 0.9523 0.1365 0.9101
C37 C 0.8427(3) -0.14799(17) 0.8845(2)
H29 H 0.8712 -0.1708 0.9269
H30 H 0.8426 -0.1805 0.8460
H31 H 0.7666 -0.1319 0.8902
C38 C 1.1453(2) -0.04321(14) 0.74376(14)
H32 H 1.1092 -0.0275 0.7001
H33 H 1.1646 -0.0920 0.7400
H34 H 1.2131 -0.0163 0.7541
C39 C 0.6705(2) 0.26973(13) 0.82212(12)
C40 C 0.7497(2) 0.31094(13) 0.86177(13)
C41 C 0.7140(2) 0.36540(13) 0.90351(14)
H35 H 0.7680 0.3912 0.9301
C42 C 0.6002(3) 0.38246(14) 0.90671(14)
C43 C 0.5223(2) 0.34247(14) 0.86717(14)
H36 H 0.4455 0.3535 0.8683
C44 C 0.5541(2) 0.28638(13) 0.82578(13)
C45 C 0.8746(2) 0.29554(14) 0.86221(14)
H37 H 0.8917 0.2552 0.8911
H38 H 0.9166 0.3352 0.8807
H39 H 0.8954 0.2863 0.8150
C46 C 0.5626(3) 0.44195(17) 0.95112(16)
H40 H 0.5983 0.4381 0.9976
H41 H 0.4815 0.4403 0.9538
H42 H 0.5837 0.4857 0.9304
C47 C 0.4639(2) 0.24604(15) 0.78522(16)
H43 H 0.4857 0.2393 0.7378
H44 H 0.3936 0.2716 0.7846
H45 H 0.4542 0.2012 0.8071
C48 C 0.6580(2) 0.13175(12) 0.78282(13)
C49 C 0.6521(2) 0.10129(13) 0.85028(13)
C50 C 0.6102(2) 0.03342(14) 0.85711(14)
H46 H 0.6114 0.0132 0.9016
C51 C 0.5670(2) -0.00497(14) 0.80008(15)
C52 C 0.5650(2) 0.02681(14) 0.73467(14)
H47 H 0.5318 0.0030 0.6961
C53 C 0.6107(2) 0.09299(13) 0.72436(13)
C54 C 0.6856(3) 0.14036(14) 0.91713(13)
H48 H 0.7544 0.1661 0.9111
H49 H 0.6976 0.1075 0.9551
H50 H 0.6261 0.1724 0.9278
C55 C 0.5235(3) -0.07836(15) 0.80899(16)
H51 H 0.5814 -0.1114 0.7980
H52 H 0.4575 -0.0856 0.7779
H53 H 0.5038 -0.0851 0.8568
C56 C 0.6025(2) 0.12081(14) 0.65000(13)
H54 H 0.5903 0.1706 0.6508
H55 H 0.5401 0.0986 0.6241
H56 H 0.6718 0.1109 0.6278
B1 B 1.1388(2) 0.09300(15) 0.82582(15)
B2 B 0.7081(2) 0.20738(15) 0.77413(14)
loop_
_geom_bond_atom_site_label_1
_geom_bond_atom_site_label_2
_geom_bond_site_symmetry_1
_geom_bond_site_symmetry_2
C1 C2 1_555 1_555
C2 H1 1_555 1_555
C3 C2 1_555 1_555
H2 C3 1_555 1_555
C4 C3 1_555 1_555
H3 C4 1_555 1_555
C5 C4 1_555 1_555
C6 C1 1_555 1_555
C7 C8 1_555 1_555
C8 C9 1_555 1_555
C9 H4 1_555 1_555
C10 C9 1_555 1_555
H5 C10 1_555 1_555
C11 C10 1_555 1_555
H6 C11 1_555 1_555
C12 C7 1_555 1_555
C13 C14 1_555 1_555
C14 H7 1_555 1_555
C15 C14 1_555 1_555
H8 C15 1_555 1_555
C16 C15 1_555 1_555
H9 C16 1_555 1_555
C17 C16 1_555 1_555
H10 C17 1_555 1_555
C18 C13 1_555 1_555
C19 C6 1_555 1_555
H11 C19 1_555 1_555
C20 C5 1_555 1_555
H12 C20 1_555 1_555
C21 C22 1_555 1_555
C22 C23 1_555 1_555
C23 H13 1_555 1_555
C24 C23 1_555 1_555
C25 C24 1_555 1_555
H14 C25 1_555 1_555
C26 C21 1_555 1_555
C27 C22 1_555 1_555
H15 C27 1_555 1_555
H16 C27 1_555 1_555
H17 C27 1_555 1_555
C28 C24 1_555 1_555
H18 C28 1_555 1_555
H19 C28 1_555 1_555
H20 C28 1_555 1_555
C29 C26 1_555 1_555
H21 C29 1_555 1_555
H22 C29 1_555 1_555
H23 C29 1_555 1_555
C30 C31 1_555 1_555
C31 C32 1_555 1_555
C32 H24 1_555 1_555
C33 C32 1_555 1_555
C34 C33 1_555 1_555
H25 C34 1_555 1_555
C35 C30 1_555 1_555
C36 C31 1_555 1_555
H26 C36 1_555 1_555
H27 C36 1_555 1_555
H28 C36 1_555 1_555
C37 C33 1_555 1_555
H29 C37 1_555 1_555
H30 C37 1_555 1_555
H31 C37 1_555 1_555
C38 C35 1_555 1_555
H32 C38 1_555 1_555
H33 C38 1_555 1_555
H34 C38 1_555 1_555
C39 C40 1_555 1_555
C40 C41 1_555 1_555
C41 H35 1_555 1_555
C42 C41 1_555 1_555
C43 C42 1_555 1_555
H36 C43 1_555 1_555
C44 C39 1_555 1_555
C45 C40 1_555 1_555
H37 C45 1_555 1_555
H38 C45 1_555 1_555
H39 C45 1_555 1_555
C46 C42 1_555 1_555
H40 C46 1_555 1_555
H41 C46 1_555 1_555
H42 C46 1_555 1_555
C47 C44 1_555 1_555
H43 C47 1_555 1_555
H44 C47 1_555 1_555
H45 C47 1_555 1_555
C48 C49 1_555 1_555
C49 C50 1_555 1_555
C50 H46 1_555 1_555
C51 C50 1_555 1_555
C52 C51 1_555 1_555
H47 C52 1_555 1_555
C53 C48 1_555 1_555
C54 C49 1_555 1_555
H48 C54 1_555 1_555
H49 C54 1_555 1_555
H50 C54 1_555 1_555
C55 C51 1_555 1_555
H51 C55 1_555 1_555
H52 C55 1_555 1_555
H53 C55 1_555 1_555
C56 C53 1_555 1_555
H54 C56 1_555 1_555
H55 C56 1_555 1_555
H56 C56 1_555 1_555
B1 C1 1_555 1_555
B2 C8 1_555 1_555
C5 C6 1_555 1_555
C7 C19 1_555 1_555
C11 C12 1_555 1_555
C12 C20 1_555 1_555
C13 C20 1_555 1_555
C17 C18 1_555 1_555
C18 C19 1_555 1_555
C21 B1 1_555 1_555
C25 C26 1_555 1_555
C30 B1 1_555 1_555
C34 C35 1_555 1_555
C39 B2 1_555 1_555
C43 C44 1_555 1_555
C48 B2 1_555 1_555
C52 C53 1_555 1_555

#END
