
#######################################################################
#
#                 Cambridge Crystallographic Data Centre
#                                CCDC 
#
#######################################################################
#
# If this CIF has been generated from an entry in the Cambridge 
# Structural Database, then it will include bibliographic, chemical, 
# crystal, experimental, refinement or atomic coordinate data resulting 
# from the CCDC's data processing and validation procedures.
#
#######################################################################

data_YIFHAZ
_chemical_formula_moiety         'C11 H7 F3 N2 O2'
_chemical_name_systematic        
2,2,2-trifluoro-N-(1-oxide-quinolin-8-yl)acetamide
_symmetry_cell_setting           monoclinic
_symmetry_space_group_name_H-M   'P 21/c'
_symmetry_Int_Tables_number      14
_space_group_name_Hall           '-P 2ybc'
loop_
_symmetry_equiv_pos_site_id
_symmetry_equiv_pos_as_xyz
1 x,y,z
2 -x,1/2+y,1/2-z
3 -x,-y,-z
4 x,1/2-y,1/2+z
_cell_length_a                   4.5680(3)
_cell_length_b                   16.1861(8)
_cell_length_c                   15.8035(10)
_cell_angle_alpha                90
_cell_angle_beta                 115.336(7)
_cell_angle_gamma                90
_cell_volume                     1056.09
_exptl_crystal_colour            brown
_exptl_crystal_description       prism
_cell_formula_units_Z            4
loop_
_atom_site_label
_atom_site_type_symbol
_atom_site_fract_x
_atom_site_fract_y
_atom_site_fract_z
C1 C -0.1295(6) 0.20427(14) 0.68406(16)
H1 H -0.1242 0.1749 0.7353
C2 C -0.3588(6) 0.18369(14) 0.59502(17)
H2 H -0.5055 0.1413 0.5872
C3 C -0.3687(5) 0.22532(13) 0.51961(15)
H3 H -0.5221 0.2118 0.4598
C4 C -0.1451(5) 0.28927(12) 0.53231(13)
C5 C 0.0872(4) 0.31035(11) 0.62331(12)
C6 C 0.3149(5) 0.37485(12) 0.63608(13)
C7 C 0.3020(5) 0.41557(14) 0.55806(14)
H4 H 0.4495 0.4576 0.5652
C8 C 0.0708(6) 0.39486(15) 0.46823(15)
H5 H 0.0667 0.4236 0.4168
C9 C -0.1467(5) 0.33382(14) 0.45503(14)
H6 H -0.2983 0.3210 0.3948
C10 C 0.7679(5) 0.45251(13) 0.75471(15)
C11 C 0.9627(5) 0.45787(14) 0.86116(15)
F1 F 0.9187(3) 0.39445(9) 0.90758(9)
F2 F 1.2755(3) 0.46313(12) 0.88404(12)
F3 F 0.8813(4) 0.52578(10) 0.89343(11)
N1 N 0.0835(4) 0.26519(10) 0.69810(11)
N2 N 0.5434(4) 0.39350(10) 0.72714(11)
H7 H 0.516(6) 0.3620(16) 0.7688(19)
O1 O 0.2897(4) 0.28178(11) 0.78530(10)
O2 O 0.8548(19) 0.4976(4) 0.7074(3)
O3? O 0.738(5) 0.5155(11) 0.7077(10)
loop_
_geom_bond_atom_site_label_1
_geom_bond_atom_site_label_2
_geom_bond_site_symmetry_1
_geom_bond_site_symmetry_2
C1 H1 1_555 1_555
C2 C1 1_555 1_555
H2 C2 1_555 1_555
C3 C2 1_555 1_555
H3 C3 1_555 1_555
C4 C3 1_555 1_555
C5 C4 1_555 1_555
C6 C5 1_555 1_555
C7 C6 1_555 1_555
H4 C7 1_555 1_555
C8 C7 1_555 1_555
H5 C8 1_555 1_555
C9 C4 1_555 1_555
H6 C9 1_555 1_555
C10 C11 1_555 1_555
C11 F1 1_555 1_555
F2 C11 1_555 1_555
F3 C11 1_555 1_555
N1 C1 1_555 1_555
N2 C6 1_555 1_555
H7 N2 1_555 1_555
O1 N1 1_555 1_555
O2 C10 1_555 1_555
C5 N1 1_555 1_555
C8 C9 1_555 1_555
C10 N2 1_555 1_555

#END
