
#######################################################################
#
#                 Cambridge Crystallographic Data Centre
#                                CCDC 
#
#######################################################################
#
# If this CIF has been generated from an entry in the Cambridge 
# Structural Database, then it will include bibliographic, chemical, 
# crystal, experimental, refinement or atomic coordinate data resulting 
# from the CCDC's data processing and validation procedures.
#
#######################################################################

data_YIFJON
_chemical_formula_moiety         'C31 H28 F1 N1 O3'
_chemical_name_systematic        
(3S,4R)-4-(4-(Benzyloxy)phenyl)-3-(4-fluorophenyl)-1-((S)-1-(4-methoxyphenyl)ethyl)azetidin-2-one
_symmetry_cell_setting           monoclinic
_symmetry_space_group_name_H-M   'P 21'
_symmetry_Int_Tables_number      4
_space_group_name_Hall           'P 2yb'
loop_
_symmetry_equiv_pos_site_id
_symmetry_equiv_pos_as_xyz
1 x,y,z
2 -x,1/2+y,-z
_cell_length_a                   5.9709(12)
_cell_length_b                   14.377(3)
_cell_length_c                   14.905(3)
_cell_angle_alpha                90
_cell_angle_beta                 92.64(3)
_cell_angle_gamma                90
_cell_volume                     1278.14
_exptl_crystal_colour            colorless
_exptl_crystal_description       block
_cell_formula_units_Z            2
_exptl_crystal_recrystallization_method methanol/dichloromethane
loop_
_atom_site_label
_atom_site_type_symbol
_atom_site_fract_x
_atom_site_fract_y
_atom_site_fract_z
C1 C 0.7798(15) 0.2008(7) 1.0079(4)
H1 H 0.9255 0.1805 0.9914
H2 H 0.7558 0.1823 1.0686
H3 H 0.7706 0.2673 1.0033
C2 C 0.8011(7) 0.1990(3) 0.5265(3)
H4 H 0.7814 0.2086 0.4629
H5 H 0.8228 0.1340 0.5385
H6 H 0.9299 0.2332 0.5491
O1 O 0.2283(4) 0.3777(2) 0.61687(16)
C3 C 0.7188(5) 0.4058(2) 0.5249(2)
H7 H 0.8547 0.4101 0.5642
O2 O 0.8946(4) 0.4173(2) 0.15570(17)
C4 C 0.8670(6) 0.4157(3) 0.2458(2)
C5 C 1.0886(7) 0.4603(4) 0.1244(3)
H8 H 1.2216 0.4316 0.1520
H9 H 1.0896 0.5258 0.1402
N1 N 0.5647(4) 0.3323(2) 0.55505(18)
C6 C 0.9696(5) 0.4427(3) 0.4002(2)
H10 H 1.0733 0.4649 0.4435
C7 C 0.6698(6) 0.3753(3) 0.2720(2)
H11 H 0.5681 0.3514 0.2288
C8 C 0.7720(5) 0.4043(2) 0.4276(2)
C9 C 0.4059(5) 0.3909(3) 0.5821(2)
C10 C 0.5350(5) 0.4770(2) 0.5526(2)
H12 H 0.4611 0.5061 0.4997
C11 C 0.5997(6) 0.2117(2) 0.6718(3)
C12 C 0.5962(5) 0.5481(2) 0.6234(2)
C13 C 0.6233(6) 0.3703(3) 0.3612(2)
H13 H 0.4892 0.3435 0.3774
C14 C 1.0187(6) 0.4493(3) 0.3108(2)
H14 H 1.1525 0.4762 0.2945
C15 C 1.0885(7) 0.4497(3) 0.0244(3)
C16 C 0.5944(6) 0.2328(2) 0.5723(2)
H15 H 0.4645 0.2005 0.5444
F1 F 0.7622(6) 0.7411(2) 0.8164(2)
C17 C 0.9113(8) 0.4802(4) -0.0296(3)
H16 H 0.7877 0.5065 -0.0036
C18 C 0.7780(9) 0.2303(4) 0.8202(3)
H17 H 0.8947 0.2550 0.8562
C19 C 0.7904(7) 0.5974(3) 0.6221(3)
H18 H 0.8881 0.5862 0.5765
C20 C 0.4412(8) 0.1576(4) 0.7097(4)
H19 H 0.3266 0.1311 0.6739
O3 O 0.6088(9) 0.1586(3) 0.9478(3)
C21 C 0.7677(8) 0.2468(3) 0.7279(3)
H20 H 0.8789 0.2829 0.7035
C22 C 0.4519(10) 0.1419(5) 0.8033(4)
H21 H 0.3424 0.1057 0.8288
C23 C 1.2685(9) 0.4108(5) -0.0144(4)
H22 H 1.3896 0.3885 0.0207
C24 C 0.8468(8) 0.6632(3) 0.6858(3)
H23 H 0.9791 0.6970 0.6831
C25 C 0.7060(8) 0.6775(3) 0.7522(3)
C26 C 0.5115(9) 0.6321(4) 0.7555(3)
H24 H 0.4149 0.6441 0.8013
C27 C 0.4555(8) 0.5672(3) 0.6903(3)
H25 H 0.3193 0.5361 0.6919
C28 C 1.2673(14) 0.4052(6) -0.1087(5)
H26 H 1.3890 0.3801 -0.1370
C29 C 0.6193(10) 0.1789(4) 0.8567(4)
C30 C 1.0838(17) 0.4373(6) -0.1583(4)
H27 H 1.0818 0.4337 -0.2206
C31 C 0.9131(13) 0.4726(5) -0.1196(4)
H28 H 0.7898 0.4929 -0.1546
loop_
_geom_bond_atom_site_label_1
_geom_bond_atom_site_label_2
_geom_bond_site_symmetry_1
_geom_bond_site_symmetry_2
C1 H1 1_555 1_555
H2 C1 1_555 1_555
H3 C1 1_555 1_555
C2 H4 1_555 1_555
H5 C2 1_555 1_555
H6 C2 1_555 1_555
O1 C9 1_555 1_555
C3 H7 1_555 1_555
O2 C4 1_555 1_555
C4 C7 1_555 1_555
C5 O2 1_555 1_555
H8 C5 1_555 1_555
H9 C5 1_555 1_555
N1 C3 1_555 1_555
C6 H10 1_555 1_555
C7 H11 1_555 1_555
C8 C3 1_555 1_555
C9 N1 1_555 1_555
C10 C3 1_555 1_555
H12 C10 1_555 1_555
C11 C16 1_555 1_555
C12 C10 1_555 1_555
C13 C7 1_555 1_555
H13 C13 1_555 1_555
C14 C4 1_555 1_555
H14 C14 1_555 1_555
C15 C5 1_555 1_555
C16 C2 1_555 1_555
H15 C16 1_555 1_555
F1 C25 1_555 1_555
C17 C15 1_555 1_555
H16 C17 1_555 1_555
C18 H17 1_555 1_555
C19 C12 1_555 1_555
H18 C19 1_555 1_555
C20 C11 1_555 1_555
H19 C20 1_555 1_555
O3 C1 1_555 1_555
C21 C11 1_555 1_555
H20 C21 1_555 1_555
C22 C20 1_555 1_555
H21 C22 1_555 1_555
C23 C15 1_555 1_555
H22 C23 1_555 1_555
C24 C19 1_555 1_555
H23 C24 1_555 1_555
C25 C24 1_555 1_555
C26 C25 1_555 1_555
H24 C26 1_555 1_555
C27 C12 1_555 1_555
H25 C27 1_555 1_555
C28 C23 1_555 1_555
H26 C28 1_555 1_555
C29 C18 1_555 1_555
C30 C28 1_555 1_555
H27 C30 1_555 1_555
C31 C17 1_555 1_555
H28 C31 1_555 1_555
N1 C16 1_555 1_555
C6 C8 1_555 1_555
C6 C14 1_555 1_555
C8 C13 1_555 1_555
C9 C10 1_555 1_555
C18 C21 1_555 1_555
O3 C29 1_555 1_555
C22 C29 1_555 1_555
C26 C27 1_555 1_555
C30 C31 1_555 1_555

#END
