
#######################################################################
#
#                 Cambridge Crystallographic Data Centre
#                                CCDC 
#
#######################################################################
#
# If this CIF has been generated from an entry in the Cambridge 
# Structural Database, then it will include bibliographic, chemical, 
# crystal, experimental, refinement or atomic coordinate data resulting 
# from the CCDC's data processing and validation procedures.
#
#######################################################################

data_YIFLAB
_chemical_formula_moiety         'C21 H23 Cl1 O4,C6 H12 O1'
_chemical_name_systematic        
'9\a-Chloro-16\a-methyl-3,11-dioxoandrosta-1,4,6-triene-17\b-carboxylic acid pinacolone solvate'
_symmetry_cell_setting           monoclinic
_symmetry_space_group_name_H-M   'P 21'
_symmetry_Int_Tables_number      4
_space_group_name_Hall           'P 2yb'
loop_
_symmetry_equiv_pos_site_id
_symmetry_equiv_pos_as_xyz
1 x,y,z
2 -x,1/2+y,-z
_cell_length_a                   6.5000(4)
_cell_length_b                   11.3153(5)
_cell_length_c                   16.4559(8)
_cell_angle_alpha                90
_cell_angle_beta                 90.716(4)
_cell_angle_gamma                90
_cell_volume                     1210.23
_exptl_crystal_colour            colorless
_exptl_crystal_description       'triangular plate'
_chemical_melting_point          'about 512 K'
_cell_formula_units_Z            2
loop_
_atom_site_label
_atom_site_type_symbol
_atom_site_fract_x
_atom_site_fract_y
_atom_site_fract_z
Cl1 Cl 0.84202(9) 0.70938(6) 0.22592(3)
O1 O 0.9050(4) 0.2425(2) 0.20777(14)
C1 C 0.5626(5) 0.4870(3) 0.19898(18)
H1 H 0.4746 0.5245 0.1603
O2 O 0.3017(3) 0.69661(19) 0.19372(12)
C2 C 0.6607(5) 0.3887(3) 0.17632(18)
H2 H 0.6285 0.3541 0.1251
O3 O 0.2612(3) 1.2072(2) 0.37098(11)
C3 C 0.8170(5) 0.3330(3) 0.22881(19)
O4 O 0.2583(4) 1.1318(2) 0.24547(13)
H3 H 0.1654 1.1824 0.2380
C4 C 0.8666(4) 0.3938(3) 0.30430(18)
H4 H 0.9724 0.3624 0.3383
C5 C 0.7692(4) 0.4927(2) 0.32825(17)
C6 C 0.8388(5) 0.5560(3) 0.40089(18)
H5 H 0.9289 0.5169 0.4380
C7 C 0.7810(5) 0.6669(3) 0.41736(17)
H6 H 0.8429 0.7070 0.4621
C8 C 0.6205(4) 0.7297(2) 0.36684(15)
H7 H 0.4855 0.7124 0.3928
C9 C 0.6052(4) 0.6794(2) 0.27984(16)
C10 C 0.5831(4) 0.5415(2) 0.28173(17)
C11 C 0.4376(4) 0.7476(2) 0.23028(16)
C12 C 0.4479(5) 0.8818(3) 0.23319(17)
H8 H 0.3261 0.9158 0.2050
H9 H 0.5727 0.9096 0.2052
C13 C 0.4534(4) 0.9227(2) 0.32201(17)
C14 C 0.6402(4) 0.8645(2) 0.36483(17)
H10 H 0.7643 0.8837 0.3320
C15 C 0.6619(4) 0.9307(2) 0.44546(17)
H11 H 0.8070 0.9311 0.4645
H12 H 0.5760 0.8936 0.4877
C16 C 0.5865(4) 1.0584(2) 0.42656(17)
H13 H 0.4672 1.0758 0.4624
C17 C 0.5061(4) 1.0545(2) 0.33729(16)
H14 H 0.6222 1.0766 0.3010
C18 C 0.2481(4) 0.8926(3) 0.36221(18)
H15 H 0.1399 0.9444 0.3405
H16 H 0.2609 0.9040 0.4211
H17 H 0.2125 0.8100 0.3507
C19 C 0.3888(5) 0.5055(3) 0.32943(19)
H18 H 0.2673 0.5430 0.3047
H19 H 0.4034 0.5313 0.3860
H20 H 0.3728 0.4194 0.3277
C20 C 0.3295(5) 1.1397(2) 0.32129(17)
C21 C 0.7482(5) 1.1537(3) 0.44052(19)
H21 H 0.7892 1.1547 0.4980
H22 H 0.6909 1.2308 0.4254
H23 H 0.8686 1.1369 0.4072
O5 O 0.5009(4) 0.3998(2) 0.98335(15)
C22 C 0.4332(6) 0.6001(3) 0.9566(3)
H24 H 0.4548 0.6448 1.0070
H25 H 0.3242 0.6378 0.9240
H26 H 0.5610 0.5990 0.9256
C23 C 0.3712(5) 0.4758(3) 0.97662(18)
C24 C 0.1458(5) 0.4496(3) 0.98863(19)
C25 C 0.0240(6) 0.4828(4) 0.9108(2)
H27 H 0.0370 0.5679 0.9008
H28 H -0.1214 0.4626 0.9176
H29 H 0.0791 0.4391 0.8645
C26 C 0.1127(7) 0.3193(3) 1.0063(3)
H30 H 0.1727 0.2718 0.9628
H31 H -0.0351 0.3030 1.0094
H32 H 0.1792 0.2989 1.0582
C27 C 0.0596(5) 0.5230(4) 1.0594(2)
H33 H 0.1228 0.4966 1.1107
H34 H -0.0899 0.5123 1.0618
H35 H 0.0909 0.6067 1.0508
loop_
_geom_bond_atom_site_label_1
_geom_bond_atom_site_label_2
_geom_bond_site_symmetry_1
_geom_bond_site_symmetry_2
Cl1 C9 1_555 1_555
O1 C3 1_555 1_555
C1 H1 1_555 1_555
O2 C11 1_555 1_555
C2 C1 1_555 1_555
H2 C2 1_555 1_555
O3 C20 1_555 1_555
C3 C2 1_555 1_555
O4 H3 1_555 1_555
C4 C3 1_555 1_555
H4 C4 1_555 1_555
C5 C4 1_555 1_555
O5 C23 1_555 1_555
C6 C5 1_555 1_555
H5 C6 1_555 1_555
C7 C6 1_555 1_555
H6 C7 1_555 1_555
C8 C7 1_555 1_555
H7 C8 1_555 1_555
C9 C8 1_555 1_555
C10 C1 1_555 1_555
C11 C9 1_555 1_555
C12 C11 1_555 1_555
H8 C12 1_555 1_555
H9 C12 1_555 1_555
C13 C12 1_555 1_555
C14 C8 1_555 1_555
H10 C14 1_555 1_555
C15 C14 1_555 1_555
H11 C15 1_555 1_555
H12 C15 1_555 1_555
C16 C15 1_555 1_555
H13 C16 1_555 1_555
C17 C13 1_555 1_555
H14 C17 1_555 1_555
C18 C13 1_555 1_555
H15 C18 1_555 1_555
H16 C18 1_555 1_555
H17 C18 1_555 1_555
C19 C10 1_555 1_555
H18 C19 1_555 1_555
H19 C19 1_555 1_555
H20 C19 1_555 1_555
C20 O4 1_555 1_555
C21 C16 1_555 1_555
H21 C21 1_555 1_555
H22 C21 1_555 1_555
H23 C21 1_555 1_555
C22 H24 1_555 1_555
H25 C22 1_555 1_555
H26 C22 1_555 1_555
C23 C22 1_555 1_555
C24 C23 1_555 1_555
C25 C24 1_555 1_555
H27 C25 1_555 1_555
H28 C25 1_555 1_555
H29 C25 1_555 1_555
C26 C24 1_555 1_555
H30 C26 1_555 1_555
H31 C26 1_555 1_555
H32 C26 1_555 1_555
C27 C24 1_555 1_555
H33 C27 1_555 1_555
H34 C27 1_555 1_555
H35 C27 1_555 1_555
C5 C10 1_555 1_555
C9 C10 1_555 1_555
C13 C14 1_555 1_555
C16 C17 1_555 1_555
C17 C20 1_555 1_555

#END
