
#######################################################################
#
#                 Cambridge Crystallographic Data Centre
#                                CCDC 
#
#######################################################################
#
# If this CIF has been generated from an entry in the Cambridge 
# Structural Database, then it will include bibliographic, chemical, 
# crystal, experimental, refinement or atomic coordinate data resulting 
# from the CCDC's data processing and validation procedures.
#
#######################################################################

data_YIFNAD
_chemical_formula_moiety         'C14 H10 O6 S1'
_chemical_name_systematic        "4,4'-Sulfonyldibenzoic acid"
_symmetry_cell_setting           monoclinic
_symmetry_space_group_name_H-M   'P 21/m'
_symmetry_Int_Tables_number      11
_space_group_name_Hall           '-P 2yb'
loop_
_symmetry_equiv_pos_site_id
_symmetry_equiv_pos_as_xyz
1 x,y,z
2 -x,1/2+y,-z
3 -x,-y,-z
4 x,1/2-y,z
_cell_length_a                   5.0019(4)
_cell_length_b                   23.3653(17)
_cell_length_c                   5.7871(5)
_cell_angle_alpha                90
_cell_angle_beta                 110.151(3)
_cell_angle_gamma                90
_cell_volume                     634.943
_exptl_crystal_colour            green
_exptl_crystal_description       prism
_cell_formula_units_Z            2
loop_
_atom_site_label
_atom_site_type_symbol
_atom_site_fract_x
_atom_site_fract_y
_atom_site_fract_z
S1 S 1.01179(12) 0.2500 0.38263(11)
O1 O 0.0581(3) 0.04204(6) 0.2645(3)
C1 C 0.2637(4) 0.05520(7) 0.4617(3)
O2 O 0.3019(3) 0.03297(6) 0.6669(3)
C2 C 0.4609(4) 0.10079(7) 0.4376(3)
O3 O 1.2667(4) 0.2500 0.5955(3)
C3 C 0.6752(4) 0.12019(7) 0.6472(3)
H1 H 0.7043 0.1027 0.7982
O4 O 1.0291(4) 0.2500 0.1392(3)
C4 C 0.8453(4) 0.16565(7) 0.6310(3)
H2 H 0.9868 0.1794 0.7709
C5 C 0.8018(3) 0.19037(6) 0.4031(3)
C6 C 0.5925(4) 0.17070(7) 0.1919(3)
H3 H 0.5664 0.1876 0.0403
C7 C 0.4233(4) 0.12549(8) 0.2107(3)
H4 H 0.2832 0.1115 0.0703
H5 H -0.0784 0.0181 0.2769
O1C O 0.0581(3) 0.45796(6) 0.2645(3)
C1C C 0.2637(4) 0.44480(7) 0.4617(3)
O2C O 0.3019(3) 0.46703(6) 0.6669(3)
C2C C 0.4609(4) 0.39921(7) 0.4376(3)
C3C C 0.6752(4) 0.37981(7) 0.6472(3)
H1C H 0.7043 0.3973 0.7982
C4C C 0.8453(4) 0.33435(7) 0.6310(3)
H2C H 0.9868 0.3206 0.7709
C5C C 0.8018(3) 0.30963(6) 0.4031(3)
C6C C 0.5925(4) 0.32930(7) 0.1919(3)
H3C H 0.5664 0.3124 0.0403
C7C C 0.4233(4) 0.37451(8) 0.2107(3)
H4C H 0.2832 0.3885 0.0703
H5C H -0.0784 0.4819 0.2769
loop_
_geom_bond_atom_site_label_1
_geom_bond_atom_site_label_2
_geom_bond_site_symmetry_1
_geom_bond_site_symmetry_2
S1 O3 1_555 1_555
O1 C1 1_555 1_555
C1 O2 1_555 1_555
C2 C1 1_555 1_555
C3 C2 1_555 1_555
H1 C3 1_555 1_555
O4 S1 1_555 1_555
C4 C3 1_555 1_555
H2 C4 1_555 1_555
C5 S1 1_555 1_555
C6 C5 1_555 1_555
H3 C6 1_555 1_555
C7 C2 1_555 1_555
H4 C7 1_555 1_555
H5 O1 1_555 1_555
O1C C1C 1_555 1_555
C1C O2C 1_555 1_555
C2C C1C 1_555 1_555
C3C C2C 1_555 1_555
H1C C3C 1_555 1_555
C4C C3C 1_555 1_555
H2C C4C 1_555 1_555
C5C S1 1_555 1_555
C6C C5C 1_555 1_555
H3C C6C 1_555 1_555
C7C C2C 1_555 1_555
H4C C7C 1_555 1_555
H5C O1C 1_555 1_555
C4 C5 1_555 1_555
C6 C7 1_555 1_555
C4C C5C 1_555 1_555
C6C C7C 1_555 1_555

#END
