
#######################################################################
#
#                 Cambridge Crystallographic Data Centre
#                                CCDC 
#
#######################################################################
#
# If this CIF has been generated from an entry in the Cambridge 
# Structural Database, then it will include bibliographic, chemical, 
# crystal, experimental, refinement or atomic coordinate data resulting 
# from the CCDC's data processing and validation procedures.
#
#######################################################################

data_YIFTEN
_chemical_formula_moiety         'C23 H21 Cl2 N1 O1'
_chemical_name_systematic        
rac-5-Chloromethyl-3-(3-chloro-2-methylphenyl)-2,2-diphenyloxazolidine
_symmetry_cell_setting           monoclinic
_symmetry_space_group_name_H-M   'C 2/c'
_symmetry_Int_Tables_number      15
_space_group_name_Hall           '-C 2yn'
loop_
_symmetry_equiv_pos_site_id
_symmetry_equiv_pos_as_xyz
1 x,y,z
2 1/2+x,1/2+y,z
3 -x,y,1/2-z
4 1/2-x,1/2+y,1/2-z
5 -x,-y,-z
6 1/2-x,1/2-y,-z
7 x,-y,1/2+z
8 1/2+x,1/2-y,1/2+z
_cell_length_a                   25.3638(9)
_cell_length_b                   7.1591(2)
_cell_length_c                   22.1688(7)
_cell_angle_alpha                90
_cell_angle_beta                 91.2630(10)
_cell_angle_gamma                90
_cell_volume                     4024.48
_exptl_crystal_colour            colorless
_exptl_crystal_description       chunk
_chemical_melting_point          '379-380 K'
_cell_formula_units_Z            8
_exptl_crystal_recrystallization_method ethanol
loop_
_atom_site_label
_atom_site_type_symbol
_atom_site_fract_x
_atom_site_fract_y
_atom_site_fract_z
Cl1 Cl -0.023418(19) 0.76049(8) 0.46113(2)
Cl2 Cl 0.06416(2) 0.14708(7) 0.14014(2)
O1 O 0.12341(4) 0.69666(16) 0.40447(6)
N1 N 0.10091(5) 0.42695(18) 0.35117(5)
C1 C 0.14307(6) 0.5132(2) 0.38770(7)
C2 C 0.05299(6) 0.4908(2) 0.38171(8)
H1 H 0.0454 0.4120 0.4160
H2 H 0.0227 0.4905 0.3542
C3 C 0.06683(7) 0.6917(3) 0.40219(9)
H3 H 0.0534 0.7815 0.3722
C4 C 0.04747(8) 0.7428(3) 0.46360(9)
H4 H 0.0627 0.8611 0.4762
H5 H 0.0583 0.6482 0.4927
C5 C 0.15366(6) 0.3955(2) 0.44474(7)
C6 C 0.17638(8) 0.4769(3) 0.49598(8)
H6 H 0.1819 0.6053 0.4971
C7 C 0.19084(9) 0.3684(4) 0.54548(8)
H7 H 0.2060 0.4247 0.5795
C8 C 0.18294(9) 0.1788(4) 0.54477(9)
H8 H 0.1929 0.1064 0.5780
C9 C 0.16013(9) 0.0967(3) 0.49440(9)
H9 H 0.1544 -0.0315 0.4937
C10 C 0.14575(7) 0.2039(3) 0.44476(8)
H10 H 0.1306 0.1467 0.4110
C11 C 0.19526(6) 0.5360(2) 0.35628(6)
C12 C 0.22422(7) 0.7004(3) 0.36172(8)
H11 H 0.2106 0.8018 0.3825
C13 C 0.27367(8) 0.7123(3) 0.33595(10)
H12 H 0.2931 0.8220 0.3397
C14 C 0.29399(7) 0.5635(3) 0.30504(8)
H13 H 0.3270 0.5728 0.2878
C15 C 0.26552(7) 0.4008(3) 0.29954(8)
H14 H 0.2792 0.3001 0.2785
C16 C 0.21637(6) 0.3868(3) 0.32534(7)
H15 H 0.1974 0.2760 0.3218
C17 C 0.09890(5) 0.4577(2) 0.28690(7)
C18 C 0.11064(7) 0.6283(2) 0.26038(8)
H16 H 0.1202 0.7296 0.2845
C19 C 0.10818(8) 0.6480(3) 0.19804(9)
H17 H 0.1164 0.7623 0.1806
C20 C 0.09367(7) 0.4997(3) 0.16203(8)
H18 H 0.0921 0.5127 0.1203
C21 C 0.08146(6) 0.3310(2) 0.18858(7)
C22 C 0.08338(5) 0.3039(2) 0.25121(7)
C23 C 0.07082(8) 0.1201(2) 0.28008(8)
H19 H 0.0624 0.0298 0.2493
H20 H 0.0412 0.1349 0.3059
H21 H 0.1008 0.0778 0.3035
loop_
_geom_bond_atom_site_label_1
_geom_bond_atom_site_label_2
_geom_bond_site_symmetry_1
_geom_bond_site_symmetry_2
Cl1 C4 1_555 1_555
Cl2 C21 1_555 1_555
O1 C1 1_555 1_555
N1 C1 1_555 1_555
C1 C5 1_555 1_555
C2 N1 1_555 1_555
H1 C2 1_555 1_555
H2 C2 1_555 1_555
C3 O1 1_555 1_555
H3 C3 1_555 1_555
C4 C3 1_555 1_555
H4 C4 1_555 1_555
H5 C4 1_555 1_555
C5 C6 1_555 1_555
C6 H6 1_555 1_555
C7 C6 1_555 1_555
H7 C7 1_555 1_555
C8 C7 1_555 1_555
H8 C8 1_555 1_555
C9 C8 1_555 1_555
H9 C9 1_555 1_555
C10 C5 1_555 1_555
H10 C10 1_555 1_555
C11 C1 1_555 1_555
C12 C11 1_555 1_555
H11 C12 1_555 1_555
C13 C12 1_555 1_555
H12 C13 1_555 1_555
C14 C13 1_555 1_555
H13 C14 1_555 1_555
C15 C14 1_555 1_555
H14 C15 1_555 1_555
C16 C11 1_555 1_555
H15 C16 1_555 1_555
C17 N1 1_555 1_555
C18 C17 1_555 1_555
H16 C18 1_555 1_555
C19 C18 1_555 1_555
H17 C19 1_555 1_555
C20 C19 1_555 1_555
H18 C20 1_555 1_555
C21 C20 1_555 1_555
C22 C17 1_555 1_555
C23 C22 1_555 1_555
H19 C23 1_555 1_555
H20 C23 1_555 1_555
H21 C23 1_555 1_555
C2 C3 1_555 1_555
C9 C10 1_555 1_555
C15 C16 1_555 1_555
C21 C22 1_555 1_555

#END
