
#######################################################################
#
#                 Cambridge Crystallographic Data Centre
#                                CCDC 
#
#######################################################################
#
# If this CIF has been generated from an entry in the Cambridge 
# Structural Database, then it will include bibliographic, chemical, 
# crystal, experimental, refinement or atomic coordinate data resulting 
# from the CCDC's data processing and validation procedures.
#
#######################################################################

data_YIFTUF
_chemical_formula_moiety         'C14 H14 B1 Cl1'
_chemical_name_systematic        chlorobis(4-methylphenyl)borane
_symmetry_cell_setting           triclinic
_symmetry_space_group_name_H-M   'P -1'
_symmetry_Int_Tables_number      2
_space_group_name_Hall           '-P 1'
loop_
_symmetry_equiv_pos_site_id
_symmetry_equiv_pos_as_xyz
1 x,y,z
2 -x,-y,-z
_cell_length_a                   9.5535(9)
_cell_length_b                   9.5892(10)
_cell_length_c                   14.5111(13)
_cell_angle_alpha                105.246(7)
_cell_angle_beta                 90.757(7)
_cell_angle_gamma                105.009(7)
_cell_volume                     1234.1
_exptl_crystal_colour            colorless
_exptl_crystal_description       block
_cell_formula_units_Z            4
loop_
_atom_site_label
_atom_site_type_symbol
_atom_site_fract_x
_atom_site_fract_y
_atom_site_fract_z
B1 B 0.1319(3) 0.6113(3) 0.77562(18)
Cl1 Cl -0.01713(7) 0.44385(7) 0.74455(4)
C1 C 0.1927(2) 0.6746(2) 0.88245(15)
C2 C 0.2682(2) 0.8274(2) 0.92134(15)
H1 H 0.285726 0.891864 0.880509
C3 C 0.3175(2) 0.8859(2) 1.01780(15)
H2 H 0.365920 0.989713 1.042309
C4 C 0.2962(2) 0.7928(3) 1.07916(16)
C5 C 0.2227(2) 0.6413(3) 1.04188(16)
H3 H 0.208017 0.576775 1.082687
C6 C 0.1706(2) 0.5834(2) 0.94578(15)
H4 H 0.119048 0.480311 0.922319
C7 C 0.3498(3) 0.8547(3) 1.18449(17)
H5 H 0.268212 0.870097 1.222356
H6 H 0.424097 0.950712 1.194596
H7 H 0.391948 0.783313 1.204632
C8 C 0.1856(2) 0.6794(2) 0.69236(15)
C9 C 0.0917(2) 0.6597(3) 0.61110(15)
H8 H -0.008680 0.610189 0.609274
C10 C 0.1433(2) 0.7112(3) 0.53440(16)
H9 H 0.077382 0.698720 0.481404
C11 C 0.2913(2) 0.7815(2) 0.53316(16)
C12 C 0.3854(2) 0.8026(3) 0.61321(15)
H10 H 0.485929 0.850588 0.614127
C13 C 0.3329(2) 0.7537(2) 0.69175(15)
H11 H 0.398219 0.771016 0.746048
C14 C 0.3467(3) 0.8291(3) 0.44620(17)
H12 H 0.334777 0.928963 0.450253
H13 H 0.291411 0.756863 0.388153
H14 H 0.449948 0.832409 0.443715
B2 B 0.3658(3) 0.3895(3) 0.22932(18)
Cl2 Cl 0.51956(7) 0.55211(7) 0.25524(4)
C15 C 0.3064(2) 0.3334(2) 0.31591(15)
C16 C 0.2254(2) 0.1829(2) 0.30302(15)
H15 H 0.199583 0.118319 0.239789
C17 C 0.1825(2) 0.1266(2) 0.38015(15)
H16 H 0.128860 0.024468 0.368965
C18 C 0.2174(2) 0.2189(3) 0.47413(16)
C19 C 0.2935(2) 0.3694(3) 0.48805(15)
H17 H 0.314639 0.435050 0.551198
C20 C 0.3385(2) 0.4240(2) 0.41093(15)
H18 H 0.392772 0.526036 0.422666
C21 C 0.1765(3) 0.1591(3) 0.55935(17)
H19 H 0.264438 0.176153 0.600960
H20 H 0.128521 0.051122 0.537027
H21 H 0.110045 0.211055 0.595356
C22 C 0.3073(2) 0.3178(2) 0.12223(15)
C23 C 0.3998(2) 0.3302(3) 0.04794(16)
H22 H 0.500171 0.380906 0.063459
C24 C 0.3454(2) 0.2688(3) -0.04776(16)
H23 H 0.410022 0.276800 -0.096469
C25 C 0.1987(3) 0.1962(3) -0.07382(16)
C26 C 0.1058(2) 0.1858(2) -0.00076(16)
H24 H 0.004803 0.138452 -0.016848
C27 C 0.1592(2) 0.2435(2) 0.09485(15)
H25 H 0.094244 0.232716 0.143086
C28 C 0.1399(3) 0.1330(4) -0.17773(19)
H26 H 0.205854 0.183990 -0.217155
H27 H 0.043547 0.148709 -0.185354
H28 H 0.132126 0.025190 -0.198170
loop_
_geom_bond_atom_site_label_1
_geom_bond_atom_site_label_2
_geom_bond_site_symmetry_1
_geom_bond_site_symmetry_2
B1 Cl1 1_555 1_555
C1 B1 1_555 1_555
C2 C1 1_555 1_555
H1 C2 1_555 1_555
C3 C2 1_555 1_555
H2 C3 1_555 1_555
C4 C3 1_555 1_555
C5 C4 1_555 1_555
H3 C5 1_555 1_555
C6 C1 1_555 1_555
H4 C6 1_555 1_555
C7 C4 1_555 1_555
H5 C7 1_555 1_555
H6 C7 1_555 1_555
H7 C7 1_555 1_555
C8 B1 1_555 1_555
C9 C8 1_555 1_555
H8 C9 1_555 1_555
C10 C9 1_555 1_555
H9 C10 1_555 1_555
C11 C10 1_555 1_555
C12 C11 1_555 1_555
H10 C12 1_555 1_555
C13 C8 1_555 1_555
H11 C13 1_555 1_555
C14 C11 1_555 1_555
H12 C14 1_555 1_555
H13 C14 1_555 1_555
H14 C14 1_555 1_555
B2 Cl2 1_555 1_555
C15 B2 1_555 1_555
C16 C15 1_555 1_555
H15 C16 1_555 1_555
C17 C16 1_555 1_555
H16 C17 1_555 1_555
C18 C17 1_555 1_555
C19 C18 1_555 1_555
H17 C19 1_555 1_555
C20 C15 1_555 1_555
H18 C20 1_555 1_555
C21 C18 1_555 1_555
H19 C21 1_555 1_555
H20 C21 1_555 1_555
H21 C21 1_555 1_555
C22 B2 1_555 1_555
C23 C22 1_555 1_555
H22 C23 1_555 1_555
C24 C23 1_555 1_555
H23 C24 1_555 1_555
C25 C24 1_555 1_555
C26 C25 1_555 1_555
H24 C26 1_555 1_555
C27 C22 1_555 1_555
H25 C27 1_555 1_555
C28 C25 1_555 1_555
H26 C28 1_555 1_555
H27 C28 1_555 1_555
H28 C28 1_555 1_555
C5 C6 1_555 1_555
C12 C13 1_555 1_555
C19 C20 1_555 1_555
C26 C27 1_555 1_555

#END
