
#######################################################################
#
#                 Cambridge Crystallographic Data Centre
#                                CCDC 
#
#######################################################################
#
# If this CIF has been generated from an entry in the Cambridge 
# Structural Database, then it will include bibliographic, chemical, 
# crystal, experimental, refinement or atomic coordinate data resulting 
# from the CCDC's data processing and validation procedures.
#
#######################################################################

data_YIFVIV
_chemical_formula_moiety         'C28 H26 B1 1-,C16 H32 Li1 O4 1+'
_chemical_name_systematic        
"tetrakis(tetrahydrofuran)-lithium ([1,1'-biphenyl]-2,2'-diyl)(4-methylphenyl)(2,4,6-trimethylphenyl)borate"
_symmetry_cell_setting           monoclinic
_symmetry_space_group_name_H-M   'P 21/n'
_symmetry_Int_Tables_number      14
_space_group_name_Hall           '-P 2yn'
loop_
_symmetry_equiv_pos_site_id
_symmetry_equiv_pos_as_xyz
1 x,y,z
2 1/2-x,1/2+y,1/2-z
3 -x,-y,-z
4 1/2+x,1/2-y,1/2+z
_cell_length_a                   13.025(3)
_cell_length_b                   21.406(2)
_cell_length_c                   14.342(2)
_cell_angle_alpha                90
_cell_angle_beta                 90.042(14)
_cell_angle_gamma                90
_cell_volume                     3998.74
_exptl_crystal_colour            colorless
_exptl_crystal_description       needle
_cell_formula_units_Z            4
loop_
_atom_site_label
_atom_site_type_symbol
_atom_site_fract_x
_atom_site_fract_y
_atom_site_fract_z
B1 B 0.3587(5) 0.4108(3) 0.2770(4)
C1 C 0.4014(4) 0.3761(2) 0.3723(3)
C2 C 0.4033(4) 0.3112(3) 0.3605(4)
C3 C 0.4444(5) 0.2715(3) 0.4299(5)
H1 H 0.445371 0.227550 0.421063
C4 C 0.4832(5) 0.2977(4) 0.5112(5)
H2 H 0.512170 0.271543 0.557736
C5 C 0.4801(5) 0.3605(4) 0.5247(4)
H3 H 0.505404 0.377645 0.581325
C6 C 0.4403(4) 0.4002(3) 0.4563(4)
H4 H 0.439557 0.444054 0.466734
C7 C 0.3305(4) 0.3470(3) 0.2184(3)
C8 C 0.3590(4) 0.2942(2) 0.2723(4)
C9 C 0.3388(5) 0.2340(3) 0.2391(5)
H5 H 0.357044 0.198527 0.275198
C10 C 0.2928(6) 0.2268(3) 0.1547(6)
H6 H 0.279308 0.185566 0.133404
C11 C 0.2646(5) 0.2762(4) 0.0980(5)
H7 H 0.233384 0.269279 0.039056
C12 C 0.2841(5) 0.3388(3) 0.1314(4)
H8 H 0.265548 0.373921 0.094663
C13 C 0.2556(4) 0.4563(2) 0.2877(3)
C14 C 0.2359(4) 0.5072(2) 0.2250(3)
C15 C 0.1517(4) 0.5465(2) 0.2398(3)
H9 H 0.142619 0.580763 0.198519
C16 C 0.0806(4) 0.5387(3) 0.3109(4)
C17 C 0.0960(4) 0.4868(2) 0.3678(3)
H10 H 0.048107 0.478787 0.416267
C18 C 0.1787(4) 0.4461(2) 0.3566(3)
C19 C 0.2984(5) 0.5197(3) 0.1385(3)
H11 H 0.258803 0.546003 0.095662
H12 H 0.314920 0.480000 0.107901
H13 H 0.362107 0.541158 0.155705
C20 C -0.0083(5) 0.5836(3) 0.3245(4)
H14 H -0.055876 0.566513 0.370830
H15 H -0.044385 0.589349 0.265101
H16 H 0.017921 0.623966 0.346258
C21 C 0.1794(4) 0.3899(3) 0.4194(4)
H17 H 0.111558 0.384810 0.447823
H18 H 0.231010 0.395647 0.468416
H19 H 0.196186 0.352615 0.382803
C22 C 0.4575(4) 0.4479(2) 0.2350(3)
C23 C 0.5117(4) 0.4307(2) 0.1544(3)
H20 H 0.490637 0.394164 0.122098
C24 C 0.5946(4) 0.4643(3) 0.1192(3)
H21 H 0.627489 0.450309 0.063931
C25 C 0.6299(4) 0.5175(3) 0.1633(3)
C26 C 0.5797(4) 0.5350(3) 0.2448(3)
H22 H 0.603103 0.570786 0.277754
C27 C 0.4967(4) 0.5018(2) 0.2794(3)
H23 H 0.464772 0.515893 0.335101
C28 C 0.7199(5) 0.5555(3) 0.1266(4)
H24 H 0.758048 0.530680 0.080793
H25 H 0.765440 0.566556 0.178464
H26 H 0.694250 0.593643 0.096952
Li1 Li 0.3795(8) 0.1827(6) 0.7788(6)
O1 O 0.2620(4) 0.2331(3) 0.7510(3)
C29 C 0.1543(6) 0.2193(6) 0.7543(6)
H27 H 0.119417 0.246115 0.800713
H28 H 0.142937 0.175003 0.771234
C30 C 0.1830(7) 0.2802(5) 0.6238(7)
H29 H 0.145807 0.320396 0.618515
H30 H 0.208608 0.268684 0.561134
C31 C 0.2704(8) 0.2871(4) 0.6888(7)
H31 H 0.336512 0.286592 0.654763
H32 H 0.265198 0.326668 0.724347
C32 C 0.1141(10) 0.2324(8) 0.6576(8)
H33 H 0.117299 0.194535 0.618013
H34 H 0.042439 0.247669 0.659640
O2 O 0.4291(3) 0.1445(2) 0.6665(2)
C33 C 0.5263(5) 0.1124(4) 0.6634(4)
H35 H 0.524316 0.074054 0.701886
H36 H 0.582199 0.139727 0.686577
C34 C 0.5425(9) 0.0964(8) 0.5608(8)
H37 H 0.577025 0.130887 0.527176
H38 H 0.583043 0.057626 0.553443
C35 C 0.4403(7) 0.0883(5) 0.5296(5)
H39 H 0.420316 0.043829 0.535296
H40 H 0.434878 0.100388 0.463109
C36 C 0.3705(5) 0.1276(4) 0.5865(4)
H41 H 0.349050 0.165247 0.551443
H42 H 0.308500 0.103852 0.604823
O3 O 0.4789(3) 0.2380(2) 0.8324(3)
C37 C 0.5698(5) 0.2629(4) 0.7882(5)
H43 H 0.551841 0.282991 0.728214
H44 H 0.619967 0.229162 0.776116
C38 C 0.6129(7) 0.3088(4) 0.8527(7)
H45 H 0.670434 0.290252 0.888282
H46 H 0.638930 0.345496 0.817971
C39 C 0.5329(6) 0.3271(4) 0.9142(5)
H47 H 0.491257 0.361390 0.887421
H48 H 0.560429 0.340393 0.975459
C40 C 0.4711(9) 0.2675(5) 0.9226(7)
H49 H 0.499842 0.240223 0.971809
H50 H 0.398633 0.276918 0.937756
O4 O 0.3338(4) 0.1167(2) 0.8605(2)
C41 C 0.3031(12) 0.0561(5) 0.8301(5)
H51 H 0.360896 0.033831 0.799983
H52 H 0.245262 0.058783 0.785417
C42 C 0.2712(13) 0.0240(4) 0.9168(6)
H53 H 0.328676 -0.000634 0.943153
H54 H 0.212579 -0.004351 0.904835
C43 C 0.2396(6) 0.0775(4) 0.9843(5)
H55 H 0.170380 0.094211 0.970460
H56 H 0.243908 0.064913 1.050631
C44 C 0.3221(8) 0.1212(4) 0.9575(4)
H57 H 0.303561 0.164427 0.975299
H58 H 0.387020 0.109905 0.989298
H59? H 0.128754 0.221238 0.819202
H60? H 0.140666 0.177037 0.729098
C45? C 0.1048(13) 0.2666(17) 0.697(2)
H61? H 0.088987 0.304425 0.734174
H62? H 0.040497 0.250455 0.669228
H63? H 0.192258 0.245038 0.579773
H64? H 0.168011 0.319141 0.589078
H65? H 0.544324 0.095569 0.725610
H66? H 0.581593 0.141058 0.642896
C46? C 0.5121(11) 0.0615(6) 0.5957(9)
H67? H 0.577711 0.050346 0.565139
H68? H 0.483078 0.023843 0.625941
H69? H 0.401383 0.055075 0.496966
H70? H 0.476745 0.113923 0.482641
H71? H 0.518591 0.372334 0.907917
H72? H 0.552230 0.318320 0.979703
C47? C 0.4409(14) 0.2896(15) 0.887(3)
H73? H 0.404430 0.274231 0.942905
H74? H 0.392821 0.315290 0.849542
C48? C 0.257(2) 0.0707(11) 0.8329(9)
H75? H 0.287644 0.041061 0.787593
H76? H 0.198657 0.091897 0.802330
C49? C 0.221(2) 0.0361(9) 0.9162(9)
H77? H 0.146669 0.026298 0.911634
H78? H 0.259904 -0.003013 0.925538
H79? H 0.259865 0.054945 1.041714
H80? H 0.176245 0.101358 0.997948
loop_
_geom_bond_atom_site_label_1
_geom_bond_atom_site_label_2
_geom_bond_site_symmetry_1
_geom_bond_site_symmetry_2
B1 C1 1_555 1_555
C1 C2 1_555 1_555
C2 C3 1_555 1_555
C3 H1 1_555 1_555
C4 C3 1_555 1_555
H2 C4 1_555 1_555
C5 C4 1_555 1_555
H3 C5 1_555 1_555
C6 C1 1_555 1_555
H4 C6 1_555 1_555
C7 B1 1_555 1_555
C8 C2 1_555 1_555
C9 C8 1_555 1_555
H5 C9 1_555 1_555
C10 C9 1_555 1_555
H6 C10 1_555 1_555
C11 C10 1_555 1_555
H7 C11 1_555 1_555
C12 C7 1_555 1_555
H8 C12 1_555 1_555
C13 B1 1_555 1_555
C14 C13 1_555 1_555
C15 C14 1_555 1_555
H9 C15 1_555 1_555
C16 C15 1_555 1_555
C17 C16 1_555 1_555
H10 C17 1_555 1_555
C18 C13 1_555 1_555
C19 C14 1_555 1_555
H11 C19 1_555 1_555
H12 C19 1_555 1_555
H13 C19 1_555 1_555
C20 C16 1_555 1_555
H14 C20 1_555 1_555
H15 C20 1_555 1_555
H16 C20 1_555 1_555
C21 C18 1_555 1_555
H17 C21 1_555 1_555
H18 C21 1_555 1_555
H19 C21 1_555 1_555
C22 B1 1_555 1_555
C23 C22 1_555 1_555
H20 C23 1_555 1_555
C24 C23 1_555 1_555
H21 C24 1_555 1_555
C25 C24 1_555 1_555
C26 C25 1_555 1_555
H22 C26 1_555 1_555
C27 C22 1_555 1_555
H23 C27 1_555 1_555
C28 C25 1_555 1_555
H24 C28 1_555 1_555
H25 C28 1_555 1_555
H26 C28 1_555 1_555
Li1 O1 1_555 1_555
O1 C29 1_555 1_555
C29 H27 1_555 1_555
H28 C29 1_555 1_555
C30 H29 1_555 1_555
H30 C30 1_555 1_555
C31 O1 1_555 1_555
H31 C31 1_555 1_555
H32 C31 1_555 1_555
C32 C29 1_555 1_555
H33 C32 1_555 1_555
H34 C32 1_555 1_555
O2 Li1 1_555 1_555
C33 O2 1_555 1_555
H35 C33 1_555 1_555
H36 C33 1_555 1_555
C34 C33 1_555 1_555
H37 C34 1_555 1_555
H38 C34 1_555 1_555
C35 C34 1_555 1_555
H39 C35 1_555 1_555
H40 C35 1_555 1_555
C36 O2 1_555 1_555
H41 C36 1_555 1_555
H42 C36 1_555 1_555
O3 Li1 1_555 1_555
C37 O3 1_555 1_555
H43 C37 1_555 1_555
H44 C37 1_555 1_555
C38 C37 1_555 1_555
H45 C38 1_555 1_555
H46 C38 1_555 1_555
C39 C38 1_555 1_555
H47 C39 1_555 1_555
H48 C39 1_555 1_555
C40 O3 1_555 1_555
H49 C40 1_555 1_555
H50 C40 1_555 1_555
O4 Li1 1_555 1_555
C41 O4 1_555 1_555
H51 C41 1_555 1_555
H52 C41 1_555 1_555
C42 C41 1_555 1_555
H53 C42 1_555 1_555
H54 C42 1_555 1_555
C43 C42 1_555 1_555
H55 C43 1_555 1_555
H56 C43 1_555 1_555
C44 O4 1_555 1_555
H57 C44 1_555 1_555
H58 C44 1_555 1_555
C5 C6 1_555 1_555
C7 C8 1_555 1_555
C11 C12 1_555 1_555
C17 C18 1_555 1_555
C26 C27 1_555 1_555
C30 C31 1_555 1_555
C30 C32 1_555 1_555
C35 C36 1_555 1_555
C39 C40 1_555 1_555
C43 C44 1_555 1_555

#END
