
#######################################################################
#
#                 Cambridge Crystallographic Data Centre
#                                CCDC 
#
#######################################################################
#
# If this CIF has been generated from an entry in the Cambridge 
# Structural Database, then it will include bibliographic, chemical, 
# crystal, experimental, refinement or atomic coordinate data resulting 
# from the CCDC's data processing and validation procedures.
#
#######################################################################

data_YIFVAN
_chemical_formula_moiety         'C30 H30 B1 1-,C16 H32 Li1 O4 1+'
_chemical_name_systematic        
"tetrakis(tetrahydrofuran)-lithium ([1,1'-biphenyl]-2,2'-diyl)bis(2,4,6-trimethylphenyl)borate"
_symmetry_cell_setting           orthorhombic
_symmetry_space_group_name_H-M   'P c c n'
_symmetry_Int_Tables_number      56
_space_group_name_Hall           '-P 2ab 2ac'
loop_
_symmetry_equiv_pos_site_id
_symmetry_equiv_pos_as_xyz
1 x,y,z
2 1/2-x,1/2-y,z
3 -x,1/2+y,1/2-z
4 1/2+x,-y,1/2-z
5 -x,-y,-z
6 1/2+x,1/2+y,-z
7 x,1/2-y,1/2+z
8 1/2-x,y,1/2+z
_cell_length_a                   13.686(3)
_cell_length_b                   15.662(3)
_cell_length_c                   19.264(4)
_cell_angle_alpha                90
_cell_angle_beta                 90
_cell_angle_gamma                90
_cell_volume                     4129.24
_exptl_crystal_colour            colorless
_exptl_crystal_description       plate
_cell_formula_units_Z            4
loop_
_atom_site_label
_atom_site_type_symbol
_atom_site_fract_x
_atom_site_fract_y
_atom_site_fract_z
B1 B 0.7500 0.2500 0.3486(4)
C1 C 0.8089(3) 0.3096(2) 0.2905(2)
C2 C 0.7868(3) 0.2847(3) 0.2226(2)
C3 C 0.8315(4) 0.3213(3) 0.1643(3)
H1 H 0.8142 0.3030 0.1189
C4 C 0.9017(4) 0.3850(3) 0.1738(3)
H2 H 0.9314 0.4114 0.1347
C5 C 0.9275(4) 0.4091(3) 0.2399(3)
H3 H 0.9764 0.4514 0.2464
C6 C 0.8825(3) 0.3720(3) 0.2978(3)
H4 H 0.9020 0.3893 0.3430
C7 C 0.8401(3) 0.2108(2) 0.3963(2)
C8 C 0.8792(3) 0.2599(3) 0.4527(2)
C9 C 0.9592(3) 0.2318(3) 0.4905(2)
H5 H 0.9829 0.2671 0.5269
C10 C 1.0063(3) 0.1551(3) 0.4781(3)
C11 C 0.9702(3) 0.1068(3) 0.4239(2)
H6 H 1.0014 0.0542 0.4131
C12 C 0.8904(3) 0.1318(3) 0.3844(2)
C13 C 0.8357(4) 0.3458(3) 0.4755(3)
H7 H 0.7850 0.3359 0.5105
H8 H 0.8070 0.3747 0.4353
H9 H 0.8873 0.3816 0.4953
C14 C 1.0952(4) 0.1277(4) 0.5197(3)
H10 H 1.1538 0.1550 0.5006
H11 H 1.1024 0.0655 0.5171
H12 H 1.0870 0.1449 0.5683
C15 C 0.8558(4) 0.0706(3) 0.3283(3)
H13 H 0.8999 0.0213 0.3263
H14 H 0.8558 0.0999 0.2833
H15 H 0.7895 0.0511 0.3391
C1A C 0.6911(3) 0.1904(2) 0.2905(2)
C2A C 0.7132(3) 0.2153(3) 0.2226(2)
C3A C 0.6685(4) 0.1787(3) 0.1643(3)
H1A H 0.6858 0.1970 0.1189
C4A C 0.5983(4) 0.1150(3) 0.1738(3)
H2A H 0.5686 0.0886 0.1347
C5A C 0.5725(4) 0.0909(3) 0.2399(3)
H3A H 0.5236 0.0486 0.2464
C6A C 0.6175(3) 0.1280(3) 0.2978(3)
H4A H 0.5980 0.1107 0.3430
C7A C 0.6599(3) 0.2892(2) 0.3963(2)
C8A C 0.6208(3) 0.2401(3) 0.4527(2)
C9A C 0.5408(3) 0.2682(3) 0.4905(2)
H5A H 0.5171 0.2329 0.5269
C10A C 0.4937(3) 0.3449(3) 0.4781(3)
C11A C 0.5298(3) 0.3932(3) 0.4239(2)
H6A H 0.4986 0.4458 0.4131
C12A C 0.6096(3) 0.3682(3) 0.3844(2)
C13A C 0.6643(4) 0.1542(3) 0.4755(3)
H7A H 0.7150 0.1641 0.5105
H8A H 0.6930 0.1253 0.4353
H9A H 0.6127 0.1184 0.4953
C14A C 0.4048(4) 0.3723(4) 0.5197(3)
H10A H 0.3462 0.3450 0.5006
H11A H 0.3976 0.4345 0.5171
H12A H 0.4130 0.3551 0.5683
C15A C 0.6442(4) 0.4294(3) 0.3283(3)
H13A H 0.6001 0.4787 0.3263
H14A H 0.6442 0.4001 0.2833
H15A H 0.7105 0.4489 0.3391
O1 O 0.1537(3) 0.2009(2) 0.2178(2)
C16 C 0.1768(7) 0.1656(9) 0.1496(6)
H16 H 0.1820 0.2119 0.1149
H17 H 0.2398 0.1346 0.1513
C17 C 0.1005(5) 0.1092(4) 0.1316(4)
H18 H 0.1167 0.0502 0.1459
H19 H 0.0893 0.1100 0.0808
C18 C 0.0116(4) 0.1403(4) 0.1694(3)
H20 H -0.0276 0.0919 0.1871
H21 H -0.0299 0.1757 0.1387
C19 C 0.0525(4) 0.1927(4) 0.2283(3)
H22 H 0.0213 0.2497 0.2291
H23 H 0.0394 0.1641 0.2731
Li1 Li 0.2500 0.2500 0.2794(7)
O2 O 0.2942(3) 0.1581(2) 0.3367(2)
C20 C 0.3674(4) 0.1661(4) 0.3900(4)
H24 H 0.3432 0.2028 0.4282
H25 H 0.4276 0.1919 0.3708
C21 C 0.3877(5) 0.0775(4) 0.4162(4)
H26 H 0.4489 0.0551 0.3958
H27 H 0.3940 0.0774 0.4674
C22 C 0.3043(6) 0.0260(4) 0.3945(4)
H28 H 0.2584 0.0181 0.4337
H29 H 0.3264 -0.0308 0.3785
C23 C 0.2559(6) 0.0721(3) 0.3375(4)
H30 H 0.2694 0.0435 0.2927
H31 H 0.1843 0.0731 0.3449
O1A O 0.3463(3) 0.2991(2) 0.2178(2)
C16A C 0.3232(7) 0.3344(9) 0.1496(6)
H16A H 0.3180 0.2881 0.1149
H17A H 0.2602 0.3654 0.1513
C17A C 0.3995(5) 0.3908(4) 0.1316(4)
H18A H 0.3833 0.4498 0.1459
H19A H 0.4107 0.3900 0.0808
C18A C 0.4884(4) 0.3597(4) 0.1694(3)
H20A H 0.5276 0.4081 0.1871
H21A H 0.5299 0.3243 0.1387
C19A C 0.4475(4) 0.3073(4) 0.2283(3)
H22A H 0.4787 0.2503 0.2291
H23A H 0.4606 0.3359 0.2731
O2A O 0.2058(3) 0.3419(2) 0.3367(2)
C20A C 0.1326(4) 0.3339(4) 0.3900(4)
H24A H 0.1568 0.2972 0.4282
H25A H 0.0724 0.3081 0.3708
C21A C 0.1123(5) 0.4225(4) 0.4162(4)
H26A H 0.0511 0.4449 0.3958
H27A H 0.1060 0.4226 0.4674
C22A C 0.1957(6) 0.4740(4) 0.3945(4)
H28A H 0.2416 0.4819 0.4337
H29A H 0.1736 0.5308 0.3785
C23A C 0.2441(6) 0.4279(3) 0.3375(4)
H30A H 0.2306 0.4565 0.2927
H31A H 0.3157 0.4269 0.3449
C24? C 0.1858(10) 0.1221(14) 0.1763(10)
H32? H 0.2455 0.1337 0.1488
H33? H 0.1973 0.0723 0.2069
H34? H 0.0933 0.0479 0.1203
H35? H 0.1087 0.1413 0.0877
loop_
_geom_bond_atom_site_label_1
_geom_bond_atom_site_label_2
_geom_bond_site_symmetry_1
_geom_bond_site_symmetry_2
B1 C1 1_555 1_555
C1 C2 1_555 1_555
C2 C3 1_555 1_555
C3 H1 1_555 1_555
C4 C3 1_555 1_555
H2 C4 1_555 1_555
C5 C4 1_555 1_555
H3 C5 1_555 1_555
C6 C1 1_555 1_555
H4 C6 1_555 1_555
C7 B1 1_555 1_555
C8 C7 1_555 1_555
C9 C8 1_555 1_555
H5 C9 1_555 1_555
C10 C9 1_555 1_555
C11 C10 1_555 1_555
H6 C11 1_555 1_555
C12 C7 1_555 1_555
C13 C8 1_555 1_555
H7 C13 1_555 1_555
H8 C13 1_555 1_555
H9 C13 1_555 1_555
C14 C10 1_555 1_555
H10 C14 1_555 1_555
H11 C14 1_555 1_555
H12 C14 1_555 1_555
C15 C12 1_555 1_555
H13 C15 1_555 1_555
H14 C15 1_555 1_555
H15 C15 1_555 1_555
O1 C16 1_555 1_555
C16 H16 1_555 1_555
H17 C16 1_555 1_555
C17 C16 1_555 1_555
H18 C17 1_555 1_555
H19 C17 1_555 1_555
C18 C17 1_555 1_555
H20 C18 1_555 1_555
H21 C18 1_555 1_555
C19 O1 1_555 1_555
H22 C19 1_555 1_555
H23 C19 1_555 1_555
Li1 O1 1_555 1_555
O2 Li1 1_555 1_555
C20 O2 1_555 1_555
H24 C20 1_555 1_555
H25 C20 1_555 1_555
C21 C20 1_555 1_555
H26 C21 1_555 1_555
H27 C21 1_555 1_555
C22 C21 1_555 1_555
H28 C22 1_555 1_555
H29 C22 1_555 1_555
C23 O2 1_555 1_555
H30 C23 1_555 1_555
H31 C23 1_555 1_555
C1A B1 1_555 1_555
C2A C2 1_555 1_555
C3A C2A 1_555 1_555
H1A C3A 1_555 1_555
C4A C3A 1_555 1_555
H2A C4A 1_555 1_555
C5A C4A 1_555 1_555
H3A C5A 1_555 1_555
C6A C1A 1_555 1_555
H4A C6A 1_555 1_555
C7A B1 1_555 1_555
C8A C7A 1_555 1_555
C9A C8A 1_555 1_555
H5A C9A 1_555 1_555
C10A C9A 1_555 1_555
C11A C10A 1_555 1_555
H6A C11A 1_555 1_555
C12A C7A 1_555 1_555
C13A C8A 1_555 1_555
H7A C13A 1_555 1_555
H8A C13A 1_555 1_555
H9A C13A 1_555 1_555
C14A C10A 1_555 1_555
H10A C14A 1_555 1_555
H11A C14A 1_555 1_555
H12A C14A 1_555 1_555
C15A C12A 1_555 1_555
H13A C15A 1_555 1_555
H14A C15A 1_555 1_555
H15A C15A 1_555 1_555
O1A Li1 1_555 1_555
C16A O1A 1_555 1_555
H16A C16A 1_555 1_555
H17A C16A 1_555 1_555
C17A C16A 1_555 1_555
H18A C17A 1_555 1_555
H19A C17A 1_555 1_555
C18A C17A 1_555 1_555
H20A C18A 1_555 1_555
H21A C18A 1_555 1_555
C19A O1A 1_555 1_555
H22A C19A 1_555 1_555
H23A C19A 1_555 1_555
O2A Li1 1_555 1_555
C20A O2A 1_555 1_555
H24A C20A 1_555 1_555
H25A C20A 1_555 1_555
C21A C20A 1_555 1_555
H26A C21A 1_555 1_555
H27A C21A 1_555 1_555
C22A C21A 1_555 1_555
H28A C22A 1_555 1_555
H29A C22A 1_555 1_555
C23A O2A 1_555 1_555
H30A C23A 1_555 1_555
H31A C23A 1_555 1_555
C5 C6 1_555 1_555
C11 C12 1_555 1_555
C18 C19 1_555 1_555
C22 C23 1_555 1_555
C1A C2A 1_555 1_555
C5A C6A 1_555 1_555
C11A C12A 1_555 1_555
C18A C19A 1_555 1_555
C22A C23A 1_555 1_555

#END
