
#######################################################################
#
#                 Cambridge Crystallographic Data Centre
#                                CCDC 
#
#######################################################################
#
# If this CIF has been generated from an entry in the Cambridge 
# Structural Database, then it will include bibliographic, chemical, 
# crystal, experimental, refinement or atomic coordinate data resulting 
# from the CCDC's data processing and validation procedures.
#
#######################################################################

data_YIFWAO
_chemical_formula_moiety         'C30 H30 B1 1-,C2 H3 N1,K1 1+'
_chemical_name_systematic        
'potassium 8c,10,12-trimethyl-8b-borata-8b-(2,4,6-trimethylphenyl)-8b,8c-dihydrobenzo[1,3]cyclopropa[1,2-l]phenanthrene acetonitrile solvate'
_symmetry_cell_setting           monoclinic
_symmetry_space_group_name_H-M   'P 21/c'
_symmetry_Int_Tables_number      14
_space_group_name_Hall           '-P 2ybc'
loop_
_symmetry_equiv_pos_site_id
_symmetry_equiv_pos_as_xyz
1 x,y,z
2 -x,1/2+y,1/2-z
3 -x,-y,-z
4 x,1/2-y,1/2+z
_cell_length_a                   16.713(3)
_cell_length_b                   8.5969(17)
_cell_length_c                   19.361(3)
_cell_angle_alpha                90
_cell_angle_beta                 109.257(5)
_cell_angle_gamma                90
_cell_volume                     2626.14
_exptl_crystal_colour            brown
_exptl_crystal_description       block
_cell_formula_units_Z            4
loop_
_atom_site_label
_atom_site_type_symbol
_atom_site_fract_x
_atom_site_fract_y
_atom_site_fract_z
K1 K 0.28770(4) 0.23947(7) 0.56971(3)
B1 B 0.24649(18) 0.7338(3) 0.59813(16)
C1 C 0.21214(15) 0.6825(3) 0.66535(13)
C2 C 0.30670(15) 0.7429(3) 0.68224(14)
C3 C 0.36994(16) 0.6206(3) 0.71427(14)
H1 H 0.4275 0.6523 0.7338
C4 C 0.35384(16) 0.4701(3) 0.71833(13)
C5 C 0.26750(16) 0.4178(3) 0.69909(14)
H2 H 0.2567 0.3095 0.7005
C6 C 0.20148(15) 0.5166(3) 0.67917(13)
C7 C 0.33038(18) 0.8987(3) 0.71980(16)
H3 H 0.3386 0.8873 0.7721
H4 H 0.2848 0.9737 0.6981
H5 H 0.3830 0.9360 0.7136
C8 C 0.11335(16) 0.4548(3) 0.66818(15)
H6 H 0.1031 0.3626 0.6367
H7 H 0.0714 0.5350 0.6450
H8 H 0.1084 0.4268 0.7157
C9 C 0.42402(19) 0.3533(4) 0.74929(17)
H9 H 0.4778 0.4083 0.7712
H10 H 0.4282 0.2854 0.7100
H11 H 0.4116 0.2905 0.7867
C10 C 0.15620(15) 0.7926(3) 0.68759(14)
C11 C 0.13803(17) 0.7602(3) 0.75207(14)
H12 H 0.1609 0.6686 0.7788
C12 C 0.08847(18) 0.8562(4) 0.77789(16)
H13 H 0.0769 0.8304 0.8214
C13 C 0.05579(18) 0.9903(3) 0.73992(16)
H14 H 0.0216 1.0581 0.7572
C14 C 0.07300(17) 1.0252(3) 0.67689(16)
H15 H 0.0498 1.1175 0.6511
C15 C 0.12338(15) 0.9300(3) 0.64922(14)
C16 C 0.13924(15) 0.9703(3) 0.58025(14)
C17 C 0.09145(17) 1.0882(3) 0.53447(15)
H16 H 0.0524 1.1465 0.5503
C18 C 0.09956(18) 1.1217(3) 0.46751(16)
H17 H 0.0657 1.2005 0.4373
C19 C 0.15731(19) 1.0397(3) 0.44459(16)
H18 H 0.1637 1.0618 0.3986
C20 C 0.20540(18) 0.9258(3) 0.48888(15)
H19 H 0.2455 0.8720 0.4726
C21 C 0.19847(16) 0.8845(3) 0.55712(14)
C22 C 0.26261(15) 0.6119(3) 0.54116(13)
C23 C 0.19249(16) 0.5376(3) 0.48937(13)
C24 C 0.20208(19) 0.4462(3) 0.43352(14)
H20 H 0.1535 0.3988 0.3998
C25 C 0.2804(2) 0.4223(3) 0.42544(15)
C26 C 0.34935(19) 0.4955(3) 0.47482(16)
H21 H 0.4037 0.4812 0.4702
C27 C 0.34195(16) 0.5902(3) 0.53151(14)
C28 C 0.2891(3) 0.3244(4) 0.36340(19)
H22 H 0.3478 0.3289 0.3636
H23 H 0.2511 0.3645 0.3167
H24 H 0.2741 0.2163 0.3697
C29 C 0.10338(16) 0.5644(4) 0.48988(15)
H25 H 0.0702 0.4689 0.4748
H26 H 0.0770 0.6485 0.4558
H27 H 0.1051 0.5932 0.5393
C30 C 0.42049(17) 0.6761(4) 0.57709(16)
H28 H 0.4562 0.6991 0.5471
H29 H 0.4522 0.6114 0.6188
H30 H 0.4040 0.7736 0.5950
N1 N 0.4523(2) 0.1473(4) 0.57768(18)
C31 C 0.5224(2) 0.1320(4) 0.58685(18)
C32 C 0.6124(2) 0.1132(5) 0.59895(19)
H31 H 0.6370 0.2141 0.5936
H32 H 0.6203 0.0400 0.5630
H33 H 0.6404 0.0729 0.6484
loop_
_geom_bond_atom_site_label_1
_geom_bond_atom_site_label_2
_geom_bond_site_symmetry_1
_geom_bond_site_symmetry_2
B1 C1 1_555 1_555
C1 C2 1_555 1_555
C2 B1 1_555 1_555
C3 C2 1_555 1_555
H1 C3 1_555 1_555
C4 C3 1_555 1_555
C5 C4 1_555 1_555
H2 C5 1_555 1_555
C6 C1 1_555 1_555
C7 C2 1_555 1_555
H3 C7 1_555 1_555
H4 C7 1_555 1_555
H5 C7 1_555 1_555
C8 C6 1_555 1_555
H6 C8 1_555 1_555
H7 C8 1_555 1_555
H8 C8 1_555 1_555
C9 C4 1_555 1_555
H9 C9 1_555 1_555
H10 C9 1_555 1_555
H11 C9 1_555 1_555
C10 C1 1_555 1_555
C11 C10 1_555 1_555
H12 C11 1_555 1_555
C12 C11 1_555 1_555
H13 C12 1_555 1_555
C13 C12 1_555 1_555
H14 C13 1_555 1_555
C14 C13 1_555 1_555
H15 C14 1_555 1_555
C15 C10 1_555 1_555
C16 C15 1_555 1_555
C17 C16 1_555 1_555
H16 C17 1_555 1_555
C18 C17 1_555 1_555
H17 C18 1_555 1_555
C19 C18 1_555 1_555
H18 C19 1_555 1_555
C20 C19 1_555 1_555
H19 C20 1_555 1_555
C21 B1 1_555 1_555
C22 B1 1_555 1_555
C23 C22 1_555 1_555
C24 C23 1_555 1_555
H20 C24 1_555 1_555
C25 C24 1_555 1_555
C26 C25 1_555 1_555
H21 C26 1_555 1_555
C27 C22 1_555 1_555
C28 C25 1_555 1_555
H22 C28 1_555 1_555
H23 C28 1_555 1_555
H24 C28 1_555 1_555
C29 C23 1_555 1_555
H25 C29 1_555 1_555
H26 C29 1_555 1_555
H27 C29 1_555 1_555
C30 C27 1_555 1_555
H28 C30 1_555 1_555
H29 C30 1_555 1_555
H30 C30 1_555 1_555
N1 C31 1_555 1_555
C31 C32 1_555 1_555
C32 H31 1_555 1_555
H32 C32 1_555 1_555
H33 C32 1_555 1_555
C5 C6 1_555 1_555
C14 C15 1_555 1_555
C16 C21 1_555 1_555
C20 C21 1_555 1_555
C26 C27 1_555 1_555

#END
