
#######################################################################
#
#                 Cambridge Crystallographic Data Centre
#                                CCDC 
#
#######################################################################
#
# If this CIF has been generated from an entry in the Cambridge 
# Structural Database, then it will include bibliographic, chemical, 
# crystal, experimental, refinement or atomic coordinate data resulting 
# from the CCDC's data processing and validation procedures.
#
#######################################################################

data_YIGBAS
_chemical_formula_moiety         'C20 H23 O2 P1'
_chemical_name_systematic        
(E)-1-(Diphenylphosphinoyl)-2-(1-hydroxycyclohexyl)ethene
_symmetry_cell_setting           monoclinic
_symmetry_space_group_name_H-M   'P 21/n'
_symmetry_Int_Tables_number      14
_space_group_name_Hall           '-P 2yn'
loop_
_symmetry_equiv_pos_site_id
_symmetry_equiv_pos_as_xyz
1 x,y,z
2 1/2-x,1/2+y,1/2-z
3 -x,-y,-z
4 1/2+x,1/2-y,1/2+z
_cell_length_a                   6.0174(15)
_cell_length_b                   10.452(2)
_cell_length_c                   28.043(5)
_cell_angle_alpha                90
_cell_angle_beta                 90.81(2)
_cell_angle_gamma                90
_cell_volume                     1763.56
_exptl_crystal_colour            colorless
_exptl_crystal_description       prism
_cell_formula_units_Z            4
_exptl_crystal_recrystallization_method 'ethyl acetate/hexane'
loop_
_atom_site_label
_atom_site_type_symbol
_atom_site_fract_x
_atom_site_fract_y
_atom_site_fract_z
P1 P 0.40018(14) 0.51414(7) 0.63461(3)
O1 O 0.6039(3) 0.58117(18) 0.65258(6)
O2 O -0.1924(3) 0.77017(19) 0.59673(7)
H1 H -0.2480 0.7239 0.6170
C1 C 0.4511(5) 0.4185(3) 0.58228(9)
C2 C 0.2967(5) 0.3344(3) 0.56462(10)
H2 H 0.1644 0.3223 0.5807
C3 C 0.3346(6) 0.2672(3) 0.52318(11)
H3 H 0.2274 0.2113 0.5112
C4 C 0.5315(6) 0.2833(3) 0.49970(11)
H4 H 0.5571 0.2378 0.4718
C5 C 0.6881(5) 0.3646(3) 0.51669(11)
H5 H 0.8218 0.3744 0.5008
C6 C 0.6478(5) 0.4333(3) 0.55804(10)
H6 H 0.7547 0.4901 0.5696
C7 C 0.2825(5) 0.4049(3) 0.67727(9)
C8 C 0.4023(5) 0.2988(3) 0.69112(11)
H7 H 0.5410 0.2837 0.6780
C9 C 0.3183(7) 0.2141(4) 0.72434(12)
H8 H 0.4011 0.1430 0.7336
C10 C 0.1129(7) 0.2351(4) 0.74366(11)
H9 H 0.0563 0.1782 0.7659
C11 C -0.0072(6) 0.3394(4) 0.73009(11)
H10 H -0.1455 0.3540 0.7434
C12 C 0.0741(5) 0.4246(3) 0.69656(10)
H11 H -0.0110 0.4946 0.6871
C13 C 0.1806(5) 0.6189(3) 0.61876(9)
H12 H 0.0558 0.5841 0.6038
C14 C 0.1824(5) 0.7429(3) 0.62682(10)
H13 H 0.3121 0.7773 0.6399
C15 C -0.0060(5) 0.8346(3) 0.61683(10)
C16 C 0.0617(5) 0.9337(3) 0.57950(10)
H14 H 0.1980 0.9755 0.5899
H15 H 0.0900 0.8909 0.5495
C17 C -0.1181(5) 1.0336(3) 0.57195(11)
H16 H -0.0682 1.0962 0.5489
H17 H -0.2506 0.9928 0.5590
C18 C -0.1741(6) 1.1005(3) 0.61773(12)
H18 H -0.2938 1.1609 0.6119
H19 H -0.0456 1.1480 0.6292
C19 C -0.2443(5) 1.0046(3) 0.65560(11)
H20 H -0.3834 0.9649 0.6459
H21 H -0.2683 1.0491 0.6855
C20 C -0.0674(5) 0.9015(3) 0.66299(10)
H22 H 0.0649 0.9403 0.6769
H23 H -0.1218 0.8385 0.6854
loop_
_geom_bond_atom_site_label_1
_geom_bond_atom_site_label_2
_geom_bond_site_symmetry_1
_geom_bond_site_symmetry_2
P1 O1 1_555 1_555
O2 H1 1_555 1_555
C1 P1 1_555 1_555
C2 C1 1_555 1_555
H2 C2 1_555 1_555
C3 C2 1_555 1_555
H3 C3 1_555 1_555
C4 C3 1_555 1_555
H4 C4 1_555 1_555
C5 C4 1_555 1_555
H5 C5 1_555 1_555
C6 C1 1_555 1_555
H6 C6 1_555 1_555
C7 P1 1_555 1_555
C8 C7 1_555 1_555
H7 C8 1_555 1_555
C9 C8 1_555 1_555
H8 C9 1_555 1_555
C10 C9 1_555 1_555
H9 C10 1_555 1_555
C11 C10 1_555 1_555
H10 C11 1_555 1_555
C12 C7 1_555 1_555
H11 C12 1_555 1_555
C13 P1 1_555 1_555
H12 C13 1_555 1_555
C14 C13 1_555 1_555
H13 C14 1_555 1_555
C15 O2 1_555 1_555
C16 C15 1_555 1_555
H14 C16 1_555 1_555
H15 C16 1_555 1_555
C17 C16 1_555 1_555
H16 C17 1_555 1_555
H17 C17 1_555 1_555
C18 C17 1_555 1_555
H18 C18 1_555 1_555
H19 C18 1_555 1_555
C19 C18 1_555 1_555
H20 C19 1_555 1_555
H21 C19 1_555 1_555
C20 C15 1_555 1_555
H22 C20 1_555 1_555
H23 C20 1_555 1_555
C5 C6 1_555 1_555
C11 C12 1_555 1_555
C14 C15 1_555 1_555
C19 C20 1_555 1_555

#END
