
#######################################################################
#
#                 Cambridge Crystallographic Data Centre
#                                CCDC 
#
#######################################################################
#
# If this CIF has been generated from an entry in the Cambridge 
# Structural Database, then it will include bibliographic, chemical, 
# crystal, experimental, refinement or atomic coordinate data resulting 
# from the CCDC's data processing and validation procedures.
#
#######################################################################

data_YIGFOL
_chemical_formula_moiety         'C28 H28 N2 O9'
_chemical_name_systematic        
"5',5'-Diethyl 3',4'-dimethyl 1-benzyl-2-oxo-1,2-dihydrospiro[indole-3,2'-pyrrole]-3',4',5',5'(1'H)-tetracarboxylate"
_symmetry_cell_setting           monoclinic
_symmetry_space_group_name_H-M   'P 21/c'
_symmetry_Int_Tables_number      14
_space_group_name_Hall           '-P 2ybc'
loop_
_symmetry_equiv_pos_site_id
_symmetry_equiv_pos_as_xyz
1 x,y,z
2 -x,1/2+y,1/2-z
3 -x,-y,-z
4 x,1/2-y,1/2+z
_cell_length_a                   18.8356(3)
_cell_length_b                   9.57410(10)
_cell_length_c                   15.4158(2)
_cell_angle_alpha                90
_cell_angle_beta                 103.7800(10)
_cell_angle_gamma                90
_cell_volume                     2699.98
_cell_formula_units_Z            4
loop_
_atom_site_label
_atom_site_type_symbol
_atom_site_fract_x
_atom_site_fract_y
_atom_site_fract_z
O1 O 0.70070(8) -0.31778(16) 0.25443(11)
O2 O 0.78854(8) -0.17167(17) 0.41220(10)
O3 O 0.63445(9) -0.15975(19) 0.06694(10)
O4 O 0.62043(8) 0.14755(19) 0.25204(11)
O5 O 0.87920(9) -0.02018(18) 0.14630(11)
N1 N 0.93200(9) 0.13995(18) 0.25390(11)
O6 O 0.68901(10) 0.0103(2) 0.00692(11)
O7 O 0.60689(9) -0.17995(19) 0.26454(13)
O8 O 0.89081(8) -0.1351(2) 0.36722(13)
N2 N 0.74405(9) 0.1296(2) 0.17338(13)
C1 C 0.83538(11) 0.1970(2) 0.31360(14)
C2 C 0.68558(11) 0.0260(2) 0.16185(14)
C3 C 0.78044(10) -0.0443(2) 0.28112(13)
C4 C 0.66699(11) -0.1956(2) 0.25348(14)
C5 C 1.06267(11) 0.0672(2) 0.30127(14)
C6 C 0.90880(11) 0.2228(2) 0.31754(14)
C7 C 0.80005(12) 0.2692(2) 0.36819(15)
H1 H 0.7509 0.2528 0.3655
C8 C 1.04824(12) -0.0082(2) 0.37135(16)
H2 H 1.0010 -0.0093 0.3799
C9 C 0.71349(10) -0.0777(2) 0.23587(13)
C10 C 0.67004(11) -0.0404(3) 0.06868(15)
C11 C 0.94870(12) 0.3185(2) 0.37658(16)
H3 H 0.9979 0.3347 0.3795
C12 C 0.87670(11) 0.0580(2) 0.20734(14)
C13 C 0.80775(10) 0.0866(2) 0.24423(13)
C14 C 0.83902(14) 0.3667(2) 0.42726(16)
H4 H 0.8159 0.4169 0.4643
O9 O 0.56184(10) 0.1080(3) 0.11056(14)
C15 C 1.00438(11) 0.1471(3) 0.23582(15)
H5 H 1.0190 0.2443 0.2364
H6 H 1.0015 0.1110 0.1763
C16 C 0.61462(12) 0.0978(3) 0.17087(16)
C17 C 1.13336(12) 0.0672(3) 0.29035(17)
H7 H 1.1445 0.1180 0.2439
C18 C 0.82904(15) -0.2561(3) 0.48603(17)
H8 H 0.8526 -0.3317 0.4631
H9 H 0.7960 -0.2929 0.5190
H10 H 0.8652 -0.1993 0.5247
C19 C 0.82645(11) -0.1211(2) 0.35772(14)
C20 C 0.91214(14) 0.3895(2) 0.43131(17)
H11 H 0.9376 0.4544 0.4719
C21 C 1.17238(13) -0.0819(3) 0.41701(18)
H12 H 1.2091 -0.1320 0.4556
C22 C 0.55579(15) 0.2143(4) 0.2686(2)
H13 H 0.5150 0.1497 0.2559
H14 H 0.5429 0.2950 0.2300
C23 C 1.18767(13) -0.0074(3) 0.34769(19)
H15 H 1.2349 -0.0071 0.3392
C24 C 1.10267(13) -0.0821(3) 0.42900(17)
H16 H 1.0920 -0.1320 0.4760
C25 C 0.66097(17) -0.4389(3) 0.2725(2)
H17 H 0.6144 -0.4429 0.2302
H18 H 0.6536 -0.4327 0.3319
H19 H 0.6884 -0.5217 0.2672
C26 C 0.57139(19) 0.2579(4) 0.3627(2)
H20 H 0.5290 0.3025 0.3745
H21 H 0.6117 0.3222 0.3746
H22 H 0.5837 0.1774 0.4005
C27 C 0.61282(16) -0.2302(3) -0.01957(18)
H23 H 0.5760 -0.1756 -0.0604
H24 H 0.6548 -0.2407 -0.0453
C28 C 0.5836(3) -0.3666(5) -0.0053(3)
H25 H 0.5665 -0.4129 -0.0616
H26 H 0.5436 -0.3553 0.0229
H27 H 0.6212 -0.4217 0.0324
H28 H 0.7558(15) 0.144(3) 0.1212(15)
loop_
_geom_bond_atom_site_label_1
_geom_bond_atom_site_label_2
_geom_bond_site_symmetry_1
_geom_bond_site_symmetry_2
O1 C4 1_555 1_555
O2 C18 1_555 1_555
O3 C10 1_555 1_555
O4 C16 1_555 1_555
O5 C12 1_555 1_555
N1 C6 1_555 1_555
O6 C10 1_555 1_555
O7 C4 1_555 1_555
O8 C19 1_555 1_555
N2 C2 1_555 1_555
C1 C6 1_555 1_555
C2 C9 1_555 1_555
C3 C9 1_555 1_555
C4 C9 1_555 1_555
C5 C8 1_555 1_555
C6 C11 1_555 1_555
C7 C1 1_555 1_555
H1 C7 1_555 1_555
C8 H2 1_555 1_555
C10 C2 1_555 1_555
C11 H3 1_555 1_555
C12 N1 1_555 1_555
C13 N2 1_555 1_555
C14 C7 1_555 1_555
H4 C14 1_555 1_555
O9 C16 1_555 1_555
C15 N1 1_555 1_555
H5 C15 1_555 1_555
H6 C15 1_555 1_555
C16 C2 1_555 1_555
C17 C5 1_555 1_555
H7 C17 1_555 1_555
C18 H8 1_555 1_555
H9 C18 1_555 1_555
H10 C18 1_555 1_555
C19 O2 1_555 1_555
C20 C11 1_555 1_555
H11 C20 1_555 1_555
C21 H12 1_555 1_555
C22 O4 1_555 1_555
H13 C22 1_555 1_555
H14 C22 1_555 1_555
C23 C17 1_555 1_555
H15 C23 1_555 1_555
C24 C8 1_555 1_555
H16 C24 1_555 1_555
C25 O1 1_555 1_555
H17 C25 1_555 1_555
H18 C25 1_555 1_555
H19 C25 1_555 1_555
C26 C22 1_555 1_555
H20 C26 1_555 1_555
H21 C26 1_555 1_555
H22 C26 1_555 1_555
C27 O3 1_555 1_555
H23 C27 1_555 1_555
H24 C27 1_555 1_555
C28 C27 1_555 1_555
H25 C28 1_555 1_555
H26 C28 1_555 1_555
H27 C28 1_555 1_555
H28 N2 1_555 1_555
C1 C13 1_555 1_555
C3 C13 1_555 1_555
C3 C19 1_555 1_555
C5 C15 1_555 1_555
C12 C13 1_555 1_555
C14 C20 1_555 1_555
C21 C23 1_555 1_555
C21 C24 1_555 1_555

#END
