
#######################################################################
#
#                 Cambridge Crystallographic Data Centre
#                                CCDC 
#
#######################################################################
#
# If this CIF has been generated from an entry in the Cambridge 
# Structural Database, then it will include bibliographic, chemical, 
# crystal, experimental, refinement or atomic coordinate data resulting 
# from the CCDC's data processing and validation procedures.
#
#######################################################################

data_YIGPIO
_chemical_name_common            Ritonavir
_chemical_formula_moiety         'C37 H48 N6 O5 S2'
_chemical_name_systematic        
'(5S-(5R*,8R*,10R*,11R*))-10-Hydroxy-2-methyl-5-isopropyl-1-(2-isopropyl-4-thiazolyl)-3,6-dioxo-8,11-dibenzyl-2,4,7,12-tetra-azatridecan-13-oic acid 5-thiazolyl methyl ester'
_chemical_properties_biological  'protease inhibitor in treatment of AIDS'
_symmetry_cell_setting           monoclinic
_symmetry_space_group_name_H-M   'P 21'
_symmetry_Int_Tables_number      4
_space_group_name_Hall           'P 2yb'
loop_
_symmetry_equiv_pos_site_id
_symmetry_equiv_pos_as_xyz
1 x,y,z
2 -x,1/2+y,-z
_cell_length_a                   13.438(3)
_cell_length_b                   5.288(1)
_cell_length_c                   27.055(5)
_cell_angle_alpha                90
_cell_angle_beta                 103.15(2)
_cell_angle_gamma                90
_cell_volume                     1872.12
_exptl_crystal_description       needle
_cell_formula_units_Z            2
_exptl_crystal_recrystallization_method ethanol
loop_
_atom_site_label
_atom_site_type_symbol
_atom_site_fract_x
_atom_site_fract_y
_atom_site_fract_z
S1 S 1.1736(2) 0.4352(6) 0.08255(9)
S2 S 0.8613(4) 0.218(2) -0.4239(2)
O1 O 1.1705(4) 0.631(1) -0.0278(2)
O2 O 1.2189(4) 0.934(1) -0.0758(2)
O3 O 1.1153(4) 0.187(1) -0.1844(2)
O4 O 0.8283(4) 0.132(1) -0.2618(2)
O5 O 0.5689(4) 0.719(2) -0.3371(2)
N1 N 1.0262(5) 0.652(1) 0.1109(2)
N2 N 1.1959(4) 0.526(1) -0.1041(2)
N3 N 0.8625(5) 0.552(1) -0.2611(2)
N4 N 0.6257(5) 0.348(1) -0.3181(2)
N5 N 0.5318(6) 0.402(2) -0.4000(3)
N6 N 0.6971(8) 0.378(2) -0.4679(3)
C1 C 1.0901(7) 0.468(2) 0.1231(3)
C2 C 1.0480(5) 0.789(2) 0.0724(3)
C3 C 1.1216(6) 0.707(2) 0.0516(3)
C4 C 1.1634(6) 0.825(2) 0.0099(3)
C5 C 1.1976(5) 0.718(2) -0.0722(3)
C6 C 1.2190(6) 0.556(1) -0.1549(3)
C7 C 1.1359(5) 0.441(2) -0.1971(2)
C8 C 1.0358(5) 0.588(2) -0.2090(3)
C9 C 0.9705(6) 0.529(2) -0.2608(3)
C10 C 0.9928(6) 0.695(2) -0.3029(3)
C11 C 1.1014(6) 0.691(2) -0.3082(3)
C12 C 1.1675(7) 0.881(2) -0.2863(3)
C13 C 1.2747(7) 0.856(2) -0.2925(3)
C14 C 1.3010(7) 0.659(3) -0.3209(4)
C15 C 1.2347(8) 0.510(3) -0.3402(5)
C16 C 1.1376(7) 0.515(2) -0.3348(3)
C17 C 1.3213(5) 0.428(2) -0.1561(3)
C18 C 0.7977(6) 0.348(2) -0.2621(3)
C19 C 0.6839(5) 0.418(2) -0.2687(3)
C20 C 0.6472(6) 0.298(2) -0.2248(3)
C21 C 0.5308(6) 0.319(2) -0.2338(3)
C22 C 0.5674(8) 0.504(2) -0.3558(4)
C23 C 0.577(1) 0.175(3) -0.4172(4)
C24 C 0.4738(9) 0.586(3) -0.4362(4)
C25 C 1.4524(5) 0.419(2) -0.0752(3)
C26 C 1.5412(6) 0.525(2) -0.0399(3)
C27 C 1.5856(5) 0.736(2) -0.0527(3)
C28 C 1.5452(6) 0.844(2) -0.1006(3)
C29 C 1.4602(5) 0.750(2) -0.1328(3)
C30 C 1.4123(6) 0.540(2) -0.1219(3)
C31 C 0.679(1) 0.244(3) -0.4274(4)
C32 C 0.6995(6) 0.436(2) -0.1736(3)
C33 C 0.790(1) 0.406(4) -0.4714(5)
C34 C 0.879(2) 0.584(7) -0.487(1)
C35 C 0.771(1) 0.622(4) -0.5272(6)
C36 C 0.842(1) 0.408(5) -0.5402(7)
C37 C 0.761(1) 0.128(3) -0.4024(4)
H1 H 1.1788 0.3625 -0.0939
H2 H 0.8347 0.7163 -0.2608
H3 H 0.6269 0.1734 -0.3266
H4 H 1.0910 0.3589 0.1509
H5 H 1.0111 0.9378 0.0607
H6 H 1.2296 0.8914 0.0238
H7 H 1.1195 0.9563 -0.0056
H8 H 1.2244 0.7311 -0.1614
H9 H 1.1613 0.4368 -0.2273
H10 H 0.9987 0.5486 -0.1841
H11 H 1.0512 0.7648 -0.2074
H12 H 0.9830 0.3586 -0.2685
H13 H 0.9508 0.6380 -0.3341
H14 H 0.9759 0.8630 -0.2965
H15 H 1.1458 1.0172 -0.2688
H16 H 1.3236 0.9784 -0.2769
H17 H 1.3700 0.6436 -0.3240
H18 H 1.2540 0.3865 -0.3615
H19 H 1.0932 0.3826 -0.3507
H20 H 1.3172 0.2541 -0.1466
H21 H 1.3306 0.4346 -0.1899
H22 H 0.6795 0.5981 -0.2659
H23 H 0.6648 0.1255 -0.2229
H24 H 0.5127 0.4967 -0.2343
H25 H 0.4997 0.2470 -0.2652
H26 H 0.5086 0.2401 -0.2071
H27 H 0.5848 0.0493 -0.3923
H28 H 0.5348 0.1189 -0.4481
H29 H 0.5183 0.7153 -0.4422
H30 H 0.4443 0.5020 -0.4670
H31 H 0.4212 0.6575 -0.4222
H32 H 1.4212 0.2689 -0.0667
H33 H 1.5675 0.4450 -0.0084
H34 H 1.6426 0.8101 -0.0298
H35 H 1.5785 0.9871 -0.1109
H36 H 1.4331 0.8363 -0.1639
H37 H 0.6773 0.3558 -0.1463
H38 H 0.7716 0.4174 -0.1682
H39 H 0.6815 0.6073 -0.1753
H40 H 0.7617 0.0031 -0.3753
loop_
_geom_bond_atom_site_label_1
_geom_bond_atom_site_label_2
_geom_bond_site_symmetry_1
_geom_bond_site_symmetry_2
S1 C1 1_555 1_555
S2 C33 1_555 1_555
O1 C4 1_555 1_555
O2 C5 1_555 1_555
O3 C7 1_555 1_555
O4 C18 1_555 1_555
O5 C22 1_555 1_555
N1 C1 1_555 1_555
N2 C5 1_555 1_555
N3 C9 1_555 1_555
N4 C19 1_555 1_555
N5 C22 1_555 1_555
N6 C31 1_555 1_555
C1 H4 1_555 1_555
C2 N1 1_555 1_555
C3 S1 1_555 1_555
C4 C3 1_555 1_555
C5 O1 1_555 1_555
C6 N2 1_555 1_555
C7 C6 1_555 1_555
C8 C7 1_555 1_555
C9 C8 1_555 1_555
C10 C9 1_555 1_555
C11 C10 1_555 1_555
C12 C11 1_555 1_555
C13 C12 1_555 1_555
C14 C13 1_555 1_555
C15 C14 1_555 1_555
C16 C11 1_555 1_555
C17 C6 1_555 1_555
C18 N3 1_555 1_555
C19 C18 1_555 1_555
C20 C19 1_555 1_555
C21 C20 1_555 1_555
C22 N4 1_555 1_555
C23 N5 1_555 1_555
C24 N5 1_555 1_555
C25 C26 1_555 1_555
C26 C27 1_555 1_555
C27 C28 1_555 1_555
C28 C29 1_555 1_555
C29 C30 1_555 1_555
C30 C17 1_555 1_555
C31 C23 1_555 1_555
C32 C20 1_555 1_555
C33 N6 1_555 1_555
C34 C33 1_555 1_555
C35 C34 1_555 1_555
C36 C34 1_555 1_555
C37 S2 1_555 1_555
H1 N2 1_555 1_555
H2 N3 1_555 1_555
H3 N4 1_555 1_555
H5 C2 1_555 1_555
H6 C4 1_555 1_555
H7 C4 1_555 1_555
H8 C6 1_555 1_555
H9 C7 1_555 1_555
H10 C8 1_555 1_555
H11 C8 1_555 1_555
H12 C9 1_555 1_555
H13 C10 1_555 1_555
H14 C10 1_555 1_555
H15 C12 1_555 1_555
H16 C13 1_555 1_555
H17 C14 1_555 1_555
H18 C15 1_555 1_555
H19 C16 1_555 1_555
H20 C17 1_555 1_555
H21 C17 1_555 1_555
H22 C19 1_555 1_555
H23 C20 1_555 1_555
H24 C21 1_555 1_555
H25 C21 1_555 1_555
H26 C21 1_555 1_555
H27 C23 1_555 1_555
H28 C23 1_555 1_555
H29 C24 1_555 1_555
H30 C24 1_555 1_555
H31 C24 1_555 1_555
H32 C25 1_555 1_555
H33 C26 1_555 1_555
H34 C27 1_555 1_555
H35 C28 1_555 1_555
H36 C29 1_555 1_555
H37 C32 1_555 1_555
H38 C32 1_555 1_555
H39 C32 1_555 1_555
H40 C37 1_555 1_555
C2 C3 1_555 1_555
C15 C16 1_555 1_555
C25 C30 1_555 1_555
C31 C37 1_555 1_555

#END
