
#######################################################################
#
#                 Cambridge Crystallographic Data Centre
#                                CCDC 
#
#######################################################################
#
# If this CIF has been generated from an entry in the Cambridge 
# Structural Database, then it will include bibliographic, chemical, 
# crystal, experimental, refinement or atomic coordinate data resulting 
# from the CCDC's data processing and validation procedures.
#
#######################################################################

data_YIGPEM
_chemical_formula_moiety         'C41 H50 B3 Br3 O9'
_chemical_name_systematic        
4,4,5,5-tetramethyl-2-[6,10,19-tribromo-3,13,16-trimethoxy-12,17-bis(4,4,5,5-tetramethyl-1,3,2-dioxaborolan-2-yl)pentacyclo[6.6.6.0^2,7^.0^9,14^.0^15,20^]icosa-2,4,6,9,11,13,15,17,19-nonaen-4-yl]-1,3,2-dioxaborolane
_symmetry_cell_setting           monoclinic
_symmetry_space_group_name_H-M   'C 2/c'
_symmetry_Int_Tables_number      15
_space_group_name_Hall           '-C 2yn'
loop_
_symmetry_equiv_pos_site_id
_symmetry_equiv_pos_as_xyz
1 x,y,z
2 -x,y,1/2-z
3 1/2+x,1/2+y,z
4 1/2-x,1/2+y,1/2-z
5 -x,-y,-z
6 x,-y,1/2+z
7 1/2-x,1/2-y,-z
8 1/2+x,1/2-y,1/2+z
_cell_length_a                   42.567(9)
_cell_length_b                   12.984(3)
_cell_length_c                   19.232(4)
_cell_angle_alpha                90
_cell_angle_beta                 97.272(7)
_cell_angle_gamma                90
_cell_volume                     10543.8
_exptl_crystal_colour            colorless
_exptl_crystal_description       plate
_cell_formula_units_Z            8
loop_
_atom_site_label
_atom_site_type_symbol
_atom_site_fract_x
_atom_site_fract_y
_atom_site_fract_z
Br1 Br 0.54642(3) 0.39172(12) 0.28559(6)
Br2 Br 0.65329(3) 0.39801(12) 0.37818(6)
Br3 Br 0.59986(4) 0.69877(11) 0.35704(6)
C1 C 0.6111(2) 0.5123(7) 0.2441(5)
H1 H 0.6052 0.5031 0.2924
C2 C 0.6263(2) 0.5362(6) 0.1193(5)
H2 H 0.6323 0.5451 0.0710
C3 C 0.5868(2) 0.4658(7) 0.1878(5)
C4 C 0.5955(2) 0.4765(7) 0.1206(5)
C5 C 0.5774(2) 0.4324(8) 0.0632(5)
C6 C 0.5489(2) 0.3808(8) 0.0701(5)
C7 C 0.5406(2) 0.3718(8) 0.1376(5)
H3 H 0.5216 0.3366 0.1442
C8 C 0.5595(2) 0.4131(8) 0.1961(4)
O1 O 0.58840(16) 0.4408(5) -0.0014(3)
C9 C 0.5763(3) 0.5273(9) -0.0421(6)
H4 H 0.5851 0.5278 -0.0868
H5 H 0.5531 0.5224 -0.0512
H6 H 0.5822 0.5909 -0.0164
B1 B 0.5273(3) 0.3280(10) 0.0094(6)
O2 O 0.5364(2) 0.3065(9) -0.0538(5)
O3 O 0.4971(2) 0.3025(9) 0.0148(4)
C10 C 0.5074(3) 0.2711(9) -0.0991(5)
C11 C 0.4861(3) 0.2357(9) -0.0444(6)
C12 C 0.4950(4) 0.3658(10) -0.1417(7)
H7 H 0.4758 0.3473 -0.1728
H8 H 0.4901 0.4206 -0.1097
H9 H 0.5112 0.3900 -0.1698
C13 C 0.5171(3) 0.1839(11) -0.1461(7)
H10 H 0.4984 0.1591 -0.1765
H11 H 0.5328 0.2098 -0.1750
H12 H 0.5263 0.1271 -0.1167
C14 C 0.4505(3) 0.2557(13) -0.0653(8)
H13 H 0.4427 0.2116 -0.1051
H14 H 0.4390 0.2402 -0.0255
H15 H 0.4472 0.3282 -0.0786
C15 C 0.4909(4) 0.1248(10) -0.0185(8)
H16 H 0.4838 0.0772 -0.0568
H17 H 0.5134 0.1130 -0.0025
H18 H 0.4786 0.1131 0.0205
C16 C 0.6431(2) 0.4654(7) 0.2357(5)
C17 C 0.6513(2) 0.4792(7) 0.1682(5)
C18 C 0.6799(2) 0.4436(8) 0.1515(5)
C19 C 0.7003(2) 0.3876(8) 0.1999(5)
C20 C 0.6920(2) 0.3759(9) 0.2674(5)
H19 H 0.7061 0.3412 0.3019
C21 C 0.6634(2) 0.4138(8) 0.2855(5)
O4 O 0.68794(16) 0.4665(6) 0.0860(4)
C22 C 0.6785(3) 0.3942(10) 0.0328(6)
H20 H 0.6853 0.4175 -0.0114
H21 H 0.6881 0.3273 0.0458
H22 H 0.6553 0.3874 0.0270
B2 B 0.7326(3) 0.3435(11) 0.1880(7)
O5 O 0.7444(4) 0.3414(19) 0.1259(8)
O6 O 0.7517(4) 0.2974(19) 0.2403(9)
C23 C 0.7729(4) 0.2758(14) 0.1359(9)
C24 C 0.7825(4) 0.2819(14) 0.2159(9)
C25 C 0.7628(6) 0.1675(15) 0.1102(13)
H23 H 0.7813 0.1217 0.1161
H24 H 0.7466 0.1412 0.1375
H25 H 0.7542 0.1705 0.0606
C26 C 0.7980(6) 0.326(2) 0.0953(13)
H26 H 0.8173 0.2839 0.1009
H27 H 0.7897 0.3302 0.0455
H28 H 0.8029 0.3952 0.1137
C27 C 0.7968(7) 0.1827(19) 0.2486(15)
H29 H 0.8175 0.1709 0.2328
H30 H 0.7994 0.1889 0.2998
H31 H 0.7827 0.1248 0.2342
C28 C 0.8013(5) 0.3807(17) 0.2386(14)
H32 H 0.8225 0.3762 0.2239
H33 H 0.7903 0.4408 0.2165
H34 H 0.8032 0.3876 0.2897
C29 C 0.6135(2) 0.6251(7) 0.2239(5)
C30 C 0.6215(2) 0.6383(7) 0.1558(5)
C31 C 0.6244(2) 0.7350(7) 0.1285(5)
C32 C 0.6205(3) 0.8251(7) 0.1669(5)
C33 C 0.6131(2) 0.8101(8) 0.2354(5)
H35 H 0.6101 0.8686 0.2634
C34 C 0.6101(2) 0.7113(8) 0.2635(5)
O7 O 0.63050(17) 0.7430(5) 0.0588(3)
C35 C 0.6629(2) 0.7577(10) 0.0506(6)
H36 H 0.6651 0.7625 0.0006
H37 H 0.6705 0.8214 0.0743
H38 H 0.6753 0.6993 0.0713
B3 B 0.6222(4) 0.9379(9) 0.1413(7)
O8 O 0.6229(6) 0.9650(11) 0.0736(8)
O9 O 0.6249(6) 1.0196(12) 0.1847(9)
C36 C 0.6234(4) 1.0780(13) 0.0699(8)
C37 C 0.6340(4) 1.1098(12) 0.1456(9)
C38 C 0.6464(6) 1.111(2) 0.0181(13)
H39 H 0.6469 1.1863 0.0152
H40 H 0.6677 1.0852 0.0346
H41 H 0.6393 1.0823 -0.0283
C39 C 0.5894(5) 1.1097(19) 0.0435(14)
H42 H 0.5881 1.1849 0.0399
H43 H 0.5830 1.0791 -0.0027
H44 H 0.5752 1.0854 0.0764
C40 C 0.6701(4) 1.126(2) 0.1625(13)
H45 H 0.6765 1.1857 0.1367
H46 H 0.6756 1.1372 0.2129
H47 H 0.6812 1.0644 0.1485
C41 C 0.6162(7) 1.2027(18) 0.1713(14)
H48 H 0.6216 1.2649 0.1465
H49 H 0.5933 1.1904 0.1620
H50 H 0.6223 1.2118 0.2218
O10? O 0.5286(19) 0.293(9) -0.050(6)
O11? O 0.488(2) 0.284(9) 0.015(4)
C42? C 0.5048(16) 0.224(6) -0.087(4)
C43? C 0.4747(16) 0.256(6) -0.057(4)
C44? C 0.504(3) 0.246(11) -0.166(4)
H51? H 0.4887 0.2013 -0.1929
H52? H 0.4986 0.3182 -0.1752
H53? H 0.5253 0.2326 -0.1797
C45? C 0.515(3) 0.113(7) -0.067(6)
H54? H 0.5002 0.0639 -0.0913
H55? H 0.5364 0.1005 -0.0815
H56? H 0.5164 0.1040 -0.0165
C46? C 0.451(2) 0.167(8) -0.051(6)
H57? H 0.4419 0.1459 -0.0976
H58? H 0.4625 0.1088 -0.0266
H59? H 0.4345 0.1902 -0.0238
C47? C 0.458(2) 0.352(8) -0.091(6)
H60? H 0.4493 0.3360 -0.1391
H61? H 0.4414 0.3742 -0.0641
H62? H 0.4739 0.4078 -0.0915
O12? O 0.7487(5) 0.367(2) 0.1355(12)
O13? O 0.7472(6) 0.275(2) 0.2338(12)
C48? C 0.7800(5) 0.3181(17) 0.1512(11)
C49? C 0.7734(5) 0.2305(16) 0.2015(11)
C50? C 0.7894(8) 0.279(3) 0.0812(13)
H63? H 0.8102 0.2455 0.0895
H64? H 0.7736 0.2293 0.0604
H65? H 0.7904 0.3372 0.0492
C51? C 0.8026(6) 0.401(2) 0.1863(16)
H66? H 0.8238 0.3712 0.1977
H67? H 0.8035 0.4588 0.1541
H68? H 0.7948 0.4246 0.2293
C52? C 0.8010(7) 0.210(3) 0.2594(17)
H69? H 0.8188 0.1807 0.2387
H70? H 0.8075 0.2754 0.2827
H71? H 0.7941 0.1622 0.2937
C53? C 0.7609(7) 0.1302(18) 0.1650(17)
H72? H 0.7778 0.0978 0.1425
H73? H 0.7541 0.0830 0.1999
H74? H 0.7430 0.1461 0.1295
O14? O 0.6321(8) 0.9670(14) 0.0821(12)
O15? O 0.6135(7) 1.0136(14) 0.1827(10)
C54? C 0.6360(5) 1.0788(16) 0.0870(10)
C55? C 0.6132(5) 1.1070(15) 0.1397(11)
C56? C 0.6709(5) 1.102(2) 0.1146(16)
H75? H 0.6741 1.1763 0.1183
H76? H 0.6762 1.0701 0.1609
H77? H 0.6846 1.0731 0.0821
C57? C 0.6273(8) 1.125(2) 0.0135(11)
H78? H 0.6298 1.1999 0.0158
H79? H 0.6413 1.0964 -0.0184
H80? H 0.6053 1.1079 -0.0038
C58? C 0.6254(9) 1.197(2) 0.1877(18)
H81? H 0.6253 1.2605 0.1599
H82? H 0.6116 1.2061 0.2244
H83? H 0.6470 1.1825 0.2093
C59? C 0.5786(5) 1.113(2) 0.1055(17)
H84? H 0.5758 1.1735 0.0752
H85? H 0.5735 1.0506 0.0774
H86? H 0.5646 1.1176 0.1420
loop_
_geom_bond_atom_site_label_1
_geom_bond_atom_site_label_2
_geom_bond_site_symmetry_1
_geom_bond_site_symmetry_2
Br1 C8 1_555 1_555
Br2 C21 1_555 1_555
Br3 C34 1_555 1_555
C1 H1 1_555 1_555
C2 H2 1_555 1_555
C3 C1 1_555 1_555
C4 C2 1_555 1_555
C5 C4 1_555 1_555
C6 C5 1_555 1_555
C7 C6 1_555 1_555
H3 C7 1_555 1_555
C8 C3 1_555 1_555
O1 C5 1_555 1_555
C9 O1 1_555 1_555
H4 C9 1_555 1_555
H5 C9 1_555 1_555
H6 C9 1_555 1_555
B1 C6 1_555 1_555
O2 B1 1_555 1_555
O3 B1 1_555 1_555
C10 O2 1_555 1_555
C11 O3 1_555 1_555
C12 C10 1_555 1_555
H7 C12 1_555 1_555
H8 C12 1_555 1_555
H9 C12 1_555 1_555
C13 C10 1_555 1_555
H10 C13 1_555 1_555
H11 C13 1_555 1_555
H12 C13 1_555 1_555
C14 C11 1_555 1_555
H13 C14 1_555 1_555
H14 C14 1_555 1_555
H15 C14 1_555 1_555
C15 C11 1_555 1_555
H16 C15 1_555 1_555
H17 C15 1_555 1_555
H18 C15 1_555 1_555
C16 C1 1_555 1_555
C17 C2 1_555 1_555
C18 C17 1_555 1_555
C19 C18 1_555 1_555
C20 C19 1_555 1_555
H19 C20 1_555 1_555
C21 C16 1_555 1_555
O4 C18 1_555 1_555
C22 O4 1_555 1_555
H20 C22 1_555 1_555
H21 C22 1_555 1_555
H22 C22 1_555 1_555
B2 C19 1_555 1_555
O5 B2 1_555 1_555
O6 B2 1_555 1_555
C23 O5 1_555 1_555
C24 O6 1_555 1_555
C25 C23 1_555 1_555
H23 C25 1_555 1_555
H24 C25 1_555 1_555
H25 C25 1_555 1_555
C26 C23 1_555 1_555
H26 C26 1_555 1_555
H27 C26 1_555 1_555
H28 C26 1_555 1_555
C27 C24 1_555 1_555
H29 C27 1_555 1_555
H30 C27 1_555 1_555
H31 C27 1_555 1_555
C28 C24 1_555 1_555
H32 C28 1_555 1_555
H33 C28 1_555 1_555
H34 C28 1_555 1_555
C29 C1 1_555 1_555
C30 C2 1_555 1_555
C31 C30 1_555 1_555
C32 C31 1_555 1_555
C33 C32 1_555 1_555
H35 C33 1_555 1_555
C34 C29 1_555 1_555
O7 C31 1_555 1_555
C35 O7 1_555 1_555
H36 C35 1_555 1_555
H37 C35 1_555 1_555
H38 C35 1_555 1_555
B3 C32 1_555 1_555
O8 B3 1_555 1_555
O9 B3 1_555 1_555
C36 O8 1_555 1_555
C37 O9 1_555 1_555
C38 C36 1_555 1_555
H39 C38 1_555 1_555
H40 C38 1_555 1_555
H41 C38 1_555 1_555
C39 C36 1_555 1_555
H42 C39 1_555 1_555
H43 C39 1_555 1_555
H44 C39 1_555 1_555
C40 C37 1_555 1_555
H45 C40 1_555 1_555
H46 C40 1_555 1_555
H47 C40 1_555 1_555
C41 C37 1_555 1_555
H48 C41 1_555 1_555
H49 C41 1_555 1_555
H50 C41 1_555 1_555
C3 C4 1_555 1_555
C7 C8 1_555 1_555
C10 C11 1_555 1_555
C16 C17 1_555 1_555
C20 C21 1_555 1_555
C23 C24 1_555 1_555
C29 C30 1_555 1_555
C33 C34 1_555 1_555
C36 C37 1_555 1_555

#END
