
#######################################################################
#
#                 Cambridge Crystallographic Data Centre
#                                CCDC 
#
#######################################################################
#
# If this CIF has been generated from an entry in the Cambridge 
# Structural Database, then it will include bibliographic, chemical, 
# crystal, experimental, refinement or atomic coordinate data resulting 
# from the CCDC's data processing and validation procedures.
#
#######################################################################

data_YIGPUA
_chemical_formula_moiety         'C5 H14 N3 O1 1+,C24 H20 B1 1-'
_chemical_name_systematic        
'2-hydrazino-N,N,N-trimethyl-2-oxoethanaminium tetraphenylborate'
_symmetry_cell_setting           monoclinic
_symmetry_space_group_name_H-M   'P 21/n'
_symmetry_Int_Tables_number      14
_space_group_name_Hall           '-P 2yn'
loop_
_symmetry_equiv_pos_site_id
_symmetry_equiv_pos_as_xyz
1 x,y,z
2 1/2-x,1/2+y,1/2-z
3 -x,-y,-z
4 1/2+x,1/2-y,1/2+z
_cell_length_a                   10.0825(7)
_cell_length_b                   18.239(3)
_cell_length_c                   13.8361(12)
_cell_angle_alpha                90
_cell_angle_beta                 96.606(6)
_cell_angle_gamma                90
_cell_volume                     2527.49
_exptl_crystal_colour            colorless
_exptl_crystal_description       prism
_cell_formula_units_Z            4
loop_
_atom_site_label
_atom_site_type_symbol
_atom_site_fract_x
_atom_site_fract_y
_atom_site_fract_z
N1 N 0.15151(19) 0.14325(11) 0.30951(13)
N2 N 0.1077(2) 0.04445(12) 0.07628(14)
N3 N 0.1712(3) 0.00164(18) 0.00859(19)
O1 O 0.29203(18) 0.05208(11) 0.18304(13)
C1 C 0.0455(3) 0.18191(18) 0.3565(2)
H1 H -0.0123 0.1465 0.3814
H2 H -0.0056 0.2124 0.3094
H3 H 0.0860 0.2118 0.4089
C2 C 0.2413(3) 0.19979(17) 0.2717(2)
H4 H 0.3104 0.1757 0.2414
H5 H 0.2809 0.2294 0.3247
H6 H 0.1900 0.2304 0.2249
H7 H 0.012(3) 0.0414(14) 0.0651(18)
C3 C 0.2337(3) 0.09757(15) 0.38294(18)
H8 H 0.1780 0.0614 0.4085
H9 H 0.2729 0.1283 0.4349
H10 H 0.3030 0.0736 0.3527
H11 H 0.238(4) -0.0286(19) 0.049(3)
H12 H 0.221(3) 0.0316(18) -0.024(3)
C4 C 0.0829(3) 0.09747(18) 0.22824(19)
H13 H 0.020(3) 0.1292(15) 0.1918(18)
H14 H 0.034(2) 0.0595(14) 0.2560(18)
C5 C 0.1737(3) 0.06279(14) 0.16240(17)
B1 B 0.2680(2) 0.10275(13) 0.72530(16)
C6 C 0.1042(2) 0.10233(11) 0.71231(16)
C7 C 0.0214(2) 0.11337(14) 0.7850(2)
H15 H 0.058(2) 0.1225(14) 0.8515(19)
C8 C -0.1169(3) 0.11131(15) 0.7656(3)
H16 H -0.161(3) 0.1184(16) 0.823(2)
C9 C -0.1774(3) 0.09852(17) 0.6729(3)
H17 H -0.270(3) 0.0943(16) 0.665(2)
C10 C -0.0993(3) 0.08703(17) 0.5996(3)
H18 H -0.147(3) 0.0761(17) 0.534(2)
C11 C 0.0374(2) 0.08812(14) 0.6198(2)
H19 H 0.092(3) 0.0773(15) 0.5631(19)
C12 C 0.31005(19) 0.01939(11) 0.69522(14)
C13 C 0.2826(2) -0.04068(13) 0.75260(17)
H20 H 0.238(2) -0.0298(12) 0.8115(16)
C14 C 0.3136(3) -0.11207(14) 0.73035(19)
H21 H 0.290(2) -0.1495(14) 0.7723(18)
C15 C 0.3726(2) -0.12703(14) 0.64786(19)
H22 H 0.399(2) -0.1750(15) 0.6316(17)
C16 C 0.3984(2) -0.07012(13) 0.58835(19)
H23 H 0.439(2) -0.0806(13) 0.5324(17)
C17 C 0.3673(2) 0.00059(13) 0.61172(16)
H24 H 0.389(2) 0.0390(12) 0.5713(15)
C18 C 0.3325(2) 0.12349(11) 0.83624(14)
C19 C 0.2933(2) 0.18717(14) 0.88131(17)
H25 H 0.224(2) 0.2180(13) 0.8481(16)
C20 C 0.3452(3) 0.20801(15) 0.97440(18)
H26 H 0.308(2) 0.2514(14) 0.9982(18)
C21 C 0.4406(3) 0.16577(16) 1.02683(19)
H27 H 0.470(3) 0.1791(15) 1.096(2)
C22 C 0.4858(3) 0.10392(15) 0.98420(18)
H28 H 0.555(3) 0.0747(14) 1.0206(19)
C23 C 0.4330(2) 0.08360(13) 0.89037(17)
H29 H 0.473(2) 0.0397(13) 0.8604(16)
C24 C 0.32373(19) 0.16487(11) 0.65468(14)
C25 C 0.2468(2) 0.22171(12) 0.60889(16)
H30 H 0.150(2) 0.2232(12) 0.6150(15)
C26 C 0.2994(3) 0.27391(13) 0.55098(17)
H31 H 0.237(2) 0.3131(15) 0.5202(18)
C27 C 0.4309(3) 0.27058(14) 0.53444(17)
H32 H 0.462(2) 0.3071(13) 0.4922(16)
C28 C 0.5112(3) 0.21667(14) 0.57969(18)
H33 H 0.606(2) 0.2117(12) 0.5714(14)
C29 C 0.4589(2) 0.16626(13) 0.63944(16)
H34 H 0.519(2) 0.1287(14) 0.6721(17)
loop_
_geom_bond_atom_site_label_1
_geom_bond_atom_site_label_2
_geom_bond_site_symmetry_1
_geom_bond_site_symmetry_2
N1 C1 1_555 1_555
N2 N3 1_555 1_555
N3 H11 1_555 1_555
O1 C5 1_555 1_555
B1 C6 1_555 1_555
C1 H1 1_555 1_555
H2 C1 1_555 1_555
H3 C1 1_555 1_555
C2 N1 1_555 1_555
H4 C2 1_555 1_555
H5 C2 1_555 1_555
H6 C2 1_555 1_555
H7 N2 1_555 1_555
C3 N1 1_555 1_555
H8 C3 1_555 1_555
H9 C3 1_555 1_555
H10 C3 1_555 1_555
H12 N3 1_555 1_555
C4 N1 1_555 1_555
H13 C4 1_555 1_555
H14 C4 1_555 1_555
C5 N2 1_555 1_555
C6 C7 1_555 1_555
C7 H15 1_555 1_555
C8 C7 1_555 1_555
H16 C8 1_555 1_555
C9 C8 1_555 1_555
H17 C9 1_555 1_555
C10 C9 1_555 1_555
H18 C10 1_555 1_555
C11 C6 1_555 1_555
H19 C11 1_555 1_555
C12 B1 1_555 1_555
C13 C12 1_555 1_555
H20 C13 1_555 1_555
C14 C13 1_555 1_555
H21 C14 1_555 1_555
C15 C14 1_555 1_555
H22 C15 1_555 1_555
C16 C15 1_555 1_555
H23 C16 1_555 1_555
C17 C12 1_555 1_555
H24 C17 1_555 1_555
C18 B1 1_555 1_555
C19 C18 1_555 1_555
H25 C19 1_555 1_555
C20 C19 1_555 1_555
H26 C20 1_555 1_555
C21 C20 1_555 1_555
H27 C21 1_555 1_555
C22 C21 1_555 1_555
H28 C22 1_555 1_555
C23 C18 1_555 1_555
H29 C23 1_555 1_555
C24 B1 1_555 1_555
C25 C24 1_555 1_555
H30 C25 1_555 1_555
C26 C25 1_555 1_555
H31 C26 1_555 1_555
C27 C26 1_555 1_555
H32 C27 1_555 1_555
C28 C27 1_555 1_555
H33 C28 1_555 1_555
C29 C24 1_555 1_555
H34 C29 1_555 1_555
C4 C5 1_555 1_555
C10 C11 1_555 1_555
C16 C17 1_555 1_555
C22 C23 1_555 1_555
C28 C29 1_555 1_555

#END
