
#######################################################################
#
#                 Cambridge Crystallographic Data Centre
#                                CCDC 
#
#######################################################################
#
# If this CIF has been generated from an entry in the Cambridge 
# Structural Database, then it will include bibliographic, chemical, 
# crystal, experimental, refinement or atomic coordinate data resulting 
# from the CCDC's data processing and validation procedures.
#
#######################################################################

data_YIGPIQ
_chemical_formula_moiety         'C20 H11 Br3 O6,3(H2 O1)'
_chemical_name_systematic        
'6,10,19-tribromopentacyclo[6.6.6.0^2,7^.0^9,14^.0^15,20^]icosa-2,4,6,9,11,13,15,17,19-nonaene-3,4,12,13,16,17-hexol trihydrate'
_symmetry_cell_setting           orthorhombic
_symmetry_space_group_name_H-M   'P 21 21 21'
_symmetry_Int_Tables_number      19
_space_group_name_Hall           'P 2ac 2ab'
loop_
_symmetry_equiv_pos_site_id
_symmetry_equiv_pos_as_xyz
1 x,y,z
2 1/2-x,-y,1/2+z
3 -x,1/2+y,1/2-z
4 1/2+x,1/2-y,-z
_cell_length_a                   8.9946(2)
_cell_length_b                   15.2074(4)
_cell_length_c                   15.2301(4)
_cell_angle_alpha                90
_cell_angle_beta                 90
_cell_angle_gamma                90
_cell_volume                     2083.24
_exptl_crystal_colour            brown
_exptl_crystal_description       needle
_cell_formula_units_Z            4
loop_
_atom_site_label
_atom_site_type_symbol
_atom_site_fract_x
_atom_site_fract_y
_atom_site_fract_z
Br1 Br 0.44086(7) 0.24423(4) 0.65111(4)
Br2 Br 0.77614(6) 0.41789(4) 0.52394(5)
Br3 Br 0.42503(7) 0.27877(3) 0.35015(4)
C1 C 0.2310(5) 0.5480(3) 0.5367(3)
H1 H 0.1622 0.5992 0.5437
C2 C 0.4094(5) 0.4146(3) 0.5180(3)
H2 H 0.4775 0.3631 0.5106
C3 C 0.2093(6) 0.4775(3) 0.6066(3)
C4 C 0.3070(5) 0.4061(3) 0.5972(3)
C5 C 0.3045(6) 0.3401(3) 0.6584(4)
C6 C 0.2044(6) 0.3419(4) 0.7276(4)
H3 H 0.2043 0.2961 0.7700
C7 C 0.1047(6) 0.4107(4) 0.7347(4)
C8 C 0.1060(6) 0.4797(3) 0.6741(3)
O1 O 0.0033(6) 0.4121(3) 0.8018(3)
O2 O 0.0164(4) 0.5520(3) 0.6790(3)
C9 C 0.3951(5) 0.5735(3) 0.5417(3)
C10 C 0.4918(6) 0.5014(3) 0.5307(4)
C11 C 0.6425(5) 0.5144(4) 0.5357(4)
C12 C 0.7008(5) 0.5970(3) 0.5509(3)
H4 H 0.8055 0.6050 0.5535
C13 C 0.6075(6) 0.6674(3) 0.5623(3)
C14 C 0.4520(6) 0.6563(3) 0.5581(3)
O3 O 0.6680(4) 0.7489(3) 0.5763(3)
O4 O 0.3699(4) 0.7304(3) 0.5721(3)
C15 C 0.2108(6) 0.4994(3) 0.4494(3)
C16 C 0.3063(5) 0.4284(3) 0.4400(3)
C17 C 0.2967(5) 0.3772(3) 0.3653(4)
C18 C 0.1939(6) 0.3964(3) 0.3006(3)
H5 H 0.1879 0.3608 0.2495
C19 C 0.0998(6) 0.4675(3) 0.3107(3)
C20 C 0.1072(5) 0.5203(3) 0.3854(3)
O5 O -0.0047(5) 0.4833(3) 0.2467(3)
O6 O 0.0183(4) 0.5924(3) 0.3987(3)
H6 H 0.023(11) 0.384(5) 0.833(5)
H7 H -0.036(8) 0.547(6) 0.709(5)
H8 H 0.615(8) 0.779(5) 0.576(6)
H9 H 0.301(6) 0.726(6) 0.557(6)
H10 H -0.058(8) 0.511(5) 0.255(7)
H11 H -0.039(7) 0.600(6) 0.372(5)
O7 O -0.0333(11) 0.2431(4) 0.8806(4)
H12 H -0.124(6) 0.256(7) 0.867(8)
H13 H -0.010(10) 0.199(5) 0.846(6)
O8 O -0.2000(6) 0.5651(5) 0.7946(4)
H14 H -0.292(6) 0.557(7) 0.779(6)
H15 H -0.203(10) 0.586(6) 0.847(4)
O9 O -0.1908(6) 0.6265(4) 0.2754(4)
H16 H -0.165(9) 0.657(5) 0.230(4)
H17 H -0.282(6) 0.612(6) 0.267(5)
loop_
_geom_bond_atom_site_label_1
_geom_bond_atom_site_label_2
_geom_bond_site_symmetry_1
_geom_bond_site_symmetry_2
Br1 C5 1_555 1_555
Br2 C11 1_555 1_555
Br3 C17 1_555 1_555
C1 H1 1_555 1_555
C2 H2 1_555 1_555
C3 C1 1_555 1_555
C4 C2 1_555 1_555
C5 C4 1_555 1_555
C6 C5 1_555 1_555
H3 C6 1_555 1_555
C7 C6 1_555 1_555
C8 C3 1_555 1_555
O1 C7 1_555 1_555
O2 C8 1_555 1_555
C9 C1 1_555 1_555
C10 C2 1_555 1_555
C11 C10 1_555 1_555
C12 C11 1_555 1_555
H4 C12 1_555 1_555
C13 C12 1_555 1_555
C14 C9 1_555 1_555
O3 C13 1_555 1_555
O4 C14 1_555 1_555
C15 C1 1_555 1_555
C16 C2 1_555 1_555
C17 C16 1_555 1_555
C18 C17 1_555 1_555
H5 C18 1_555 1_555
C19 C18 1_555 1_555
C20 C15 1_555 1_555
O5 C19 1_555 1_555
O6 C20 1_555 1_555
H6 O1 1_555 1_555
H7 O2 1_555 1_555
H8 O3 1_555 1_555
H9 O4 1_555 1_555
H10 O5 1_555 1_555
H11 O6 1_555 1_555
O7 H12 1_555 1_555
H13 O7 1_555 1_555
O8 H14 1_555 1_555
H15 O8 1_555 1_555
O9 H16 1_555 1_555
H17 O9 1_555 1_555
C3 C4 1_555 1_555
C7 C8 1_555 1_555
C9 C10 1_555 1_555
C13 C14 1_555 1_555
C15 C16 1_555 1_555
C19 C20 1_555 1_555

#END
