
#######################################################################
#
#                 Cambridge Crystallographic Data Centre
#                                CCDC 
#
#######################################################################
#
# If this CIF has been generated from an entry in the Cambridge 
# Structural Database, then it will include bibliographic, chemical, 
# crystal, experimental, refinement or atomic coordinate data resulting 
# from the CCDC's data processing and validation procedures.
#
#######################################################################

data_YIGPIO01
_chemical_name_common            Ritonavir
_chemical_formula_moiety         'C37 H48 N6 O5 S2'
_chemical_name_systematic        
'(5S-(5R*,8R*,10R*,11R*))-10-Hydroxy-2-methyl-5-isopropyl-1-(2-isopropyl-4-thiazolyl)-3,6-dioxo-8,11-dibenzyl-2,4,7,12-tetra-azatridecan-13-oic acid 5-thiazolyl methyl ester'
_chemical_properties_biological  
'this polymorph does not have adequate bioavailablilty due to solubility difficulties'
_symmetry_cell_setting           orthorhombic
_symmetry_space_group_name_H-M   'P 21 21 21'
_symmetry_Int_Tables_number      19
_space_group_name_Hall           'P 2ac 2ab'
loop_
_symmetry_equiv_pos_site_id
_symmetry_equiv_pos_as_xyz
1 x,y,z
2 1/2-x,-y,1/2+z
3 1/2+x,1/2-y,-z
4 -x,1/2+y,1/2-z
_cell_length_a                   10.0236(3)
_cell_length_b                   18.6744(4)
_cell_length_c                   20.4692(7)
_cell_angle_alpha                90
_cell_angle_beta                 90
_cell_angle_gamma                90
_cell_volume                     3831.52
_exptl_crystal_colour            colorless
_exptl_crystal_description       needle
_cell_formula_units_Z            4
loop_
_atom_site_label
_atom_site_type_symbol
_atom_site_fract_x
_atom_site_fract_y
_atom_site_fract_z
S1 S 0.2393(6) -0.5964(3) 0.7940(3)
S2 S 0.0213(7) 0.2750(3) 0.6272(3)
O1 O -0.121(1) 0.0009(5) 0.4725(5)
O2 O 0.234(1) -0.1415(6) 0.4506(7)
O3 O 0.256(1) -0.3761(5) 0.5024(5)
O4 O -0.167(1) -0.4994(6) 0.6509(6)
O5 O 0.054(1) -0.5218(5) 0.6369(5)
N1 N -0.017(1) 0.1451(7) 0.6020(6)
N2 N 0.024(1) 0.0923(7) 0.4577(6)
N3 N 0.069(1) -0.0174(6) 0.4176(6)
N4 N 0.033(1) -0.1888(5) 0.4811(5)
N5 N -0.057(1) -0.4649(6) 0.5581(6)
N6 N 0.398(1) -0.6293(9) 0.704(1)
C1 C 0.086(1) -0.2438(7) 0.5229(7)
C2 C 0.039(2) -0.2277(8) 0.5934(8)
C3 C 0.095(2) -0.1610(7) 0.6236(7)
C4 C 0.202(2) -0.1650(8) 0.6669(10)
C5 C 0.257(2) -0.104(1) 0.696(1)
C6 C 0.208(2) -0.0397(8) 0.6810(9)
C7 C 0.099(2) -0.0341(9) 0.6351(10)
C8 C 0.039(2) -0.0968(7) 0.6082(8)
C9 C -0.034(2) 0.1810(7) 0.5470(8)
C10 C -0.014(2) 0.2531(9) 0.5504(7)
C11 C 0.014(2) 0.1900(10) 0.651(1)
C12 C 0.029(4) 0.159(1) 0.716(1)
C13 C -0.107(3) 0.138(1) 0.7476(10)
C14 C -0.075(2) 0.1449(8) 0.4868(8)
C15 C 0.143(2) 0.1227(9) 0.4307(8)
C16 C -0.016(2) 0.0219(7) 0.4486(7)
C17 C -0.004(2) -0.0597(9) 0.2847(7)
C18 C 0.062(1) -0.1103(8) 0.3349(9)
C19 C 0.027(2) -0.1890(9) 0.315(1)
C20 C 0.032(2) -0.0914(7) 0.4020(7)
C21 C 0.114(2) -0.1418(8) 0.4471(8)
C22 C 0.043(2) -0.3151(7) 0.4988(7)
C23 C 0.122(1) -0.3812(7) 0.5314(7)
C24 C 0.063(1) -0.4564(7) 0.5155(7)
C25 C 0.031(2) -0.4653(7) 0.4473(9)
C26 C 0.010(2) -0.5454(8) 0.4257(7)
C27 C -0.107(2) -0.5750(7) 0.4215(8)
C28 C -0.127(2) -0.6434(10) 0.4011(9)
C29 C -0.010(2) -0.6845(8) 0.3811(9)
C30 C 0.111(2) -0.6540(8) 0.3890(8)
C31 C -0.061(2) -0.4918(8) 0.6168(7)
C32 C 0.052(2) -0.5512(8) 0.7030(8)
C33 C 0.184(1) -0.5792(7) 0.7144(7)
C34 C 0.285(2) -0.6014(8) 0.6749(8)
C35 C 0.387(2) -0.628(1) 0.763(1)
C36 C 0.117(3) 0.202(2) 0.756(1)
C37 C 0.117(2) -0.5868(8) 0.4077(8)
H1 H 0.1549 -0.0004 0.4054
H2 H -0.0625 -0.1879 0.4746
H3 H -0.1396 -0.4471 0.5405
H4 H 0.1807 -0.2411 0.5213
H5 H -0.0533 -0.2230 0.5937
H6 H 0.0663 -0.2668 0.6205
H7 H 0.2440 -0.2095 0.6748
H8 H 0.3275 -0.1058 0.7268
H9 H 0.2451 0.0027 0.6983
H10 H 0.0672 0.0120 0.6247
H11 H -0.0285 -0.0935 0.5776
H12 H -0.0291 0.2856 0.5147
H13 H 0.0754 0.1121 0.7109
H14 H -0.1562 0.1811 0.7462
H15 H -0.1431 0.1025 0.7224
H16 H -0.0897 0.1242 0.7908
H17 H -0.0953 0.1808 0.4525
H18 H -0.1587 0.1201 0.4940
H19 H 0.2203 0.0983 0.4469
H20 H 0.1429 0.1189 0.3840
H21 H 0.1505 0.1723 0.4420
H22 H 0.0252 -0.0123 0.2876
H23 H 0.0099 -0.0764 0.2399
H24 H -0.1012 -0.0601 0.2905
H25 H 0.1569 -0.1039 0.3285
H26 H -0.0622 -0.1976 0.3194
H27 H 0.0572 -0.1981 0.2713
H28 H 0.0780 -0.2210 0.3434
H29 H -0.0603 -0.0980 0.4079
H30 H -0.0488 -0.3232 0.5084
H31 H 0.0558 -0.3186 0.4528
H32 H 0.1271 -0.3735 0.5761
H33 H 0.1270 -0.4903 0.5275
H34 H -0.0464 -0.4408 0.4364
H35 H 0.1045 -0.4486 0.4212
H36 H -0.1867 -0.5485 0.4325
H37 H -0.2088 -0.6674 0.3968
H38 H -0.0228 -0.7311 0.3647
H39 H 0.1935 -0.6817 0.3794
H40 H 0.0293 -0.5153 0.7320
H41 H -0.0108 -0.5894 0.7039
H42 H 0.2723 -0.5995 0.6294
H43 H 0.4562 -0.6413 0.7919
H44 H 0.1332 0.1788 0.7958
H45 H 0.2027 0.2029 0.7318
H46 H 0.0829 0.2462 0.7589
H47 H 0.2005 -0.5638 0.4110
loop_
_geom_bond_atom_site_label_1
_geom_bond_atom_site_label_2
_geom_bond_site_symmetry_1
_geom_bond_site_symmetry_2
S1 C33 1_555 1_555
S2 C10 1_555 1_555
O1 C16 1_555 1_555
O2 C21 1_555 1_555
O3 C23 1_555 1_555
O4 C31 1_555 1_555
O5 C31 1_555 1_555
N1 C9 1_555 1_555
N2 C14 1_555 1_555
N3 C16 1_555 1_555
N4 C1 1_555 1_555
N5 C24 1_555 1_555
N6 C34 1_555 1_555
C1 C2 1_555 1_555
C2 C3 1_555 1_555
C3 C4 1_555 1_555
C4 C5 1_555 1_555
C5 C6 1_555 1_555
C6 C7 1_555 1_555
C7 C8 1_555 1_555
C8 C3 1_555 1_555
C9 C10 1_555 1_555
C10 H12 1_555 1_555
C11 S2 1_555 1_555
C12 C11 1_555 1_555
C13 C12 1_555 1_555
C14 C9 1_555 1_555
C15 N2 1_555 1_555
C16 N2 1_555 1_555
C17 C18 1_555 1_555
C18 C19 1_555 1_555
C19 H26 1_555 1_555
C20 N3 1_555 1_555
C21 N4 1_555 1_555
C22 C1 1_555 1_555
C23 C22 1_555 1_555
C24 C23 1_555 1_555
C25 C24 1_555 1_555
C26 C25 1_555 1_555
C27 C26 1_555 1_555
C28 C27 1_555 1_555
C29 C28 1_555 1_555
C30 C29 1_555 1_555
C31 N5 1_555 1_555
C32 O5 1_555 1_555
C33 C32 1_555 1_555
C34 C33 1_555 1_555
C35 S1 1_555 1_555
C36 C12 1_555 1_555
C37 C26 1_555 1_555
H1 N3 1_555 1_555
H2 N4 1_555 1_555
H3 N5 1_555 1_555
H4 C1 1_555 1_555
H5 C2 1_555 1_555
H6 C2 1_555 1_555
H7 C4 1_555 1_555
H8 C5 1_555 1_555
H9 C6 1_555 1_555
H10 C7 1_555 1_555
H11 C8 1_555 1_555
H13 C12 1_555 1_555
H14 C13 1_555 1_555
H15 C13 1_555 1_555
H16 C13 1_555 1_555
H17 C14 1_555 1_555
H18 C14 1_555 1_555
H19 C15 1_555 1_555
H20 C15 1_555 1_555
H21 C15 1_555 1_555
H22 C17 1_555 1_555
H23 C17 1_555 1_555
H24 C17 1_555 1_555
H25 C18 1_555 1_555
H27 C19 1_555 1_555
H28 C19 1_555 1_555
H29 C20 1_555 1_555
H30 C22 1_555 1_555
H31 C22 1_555 1_555
H32 C23 1_555 1_555
H33 C24 1_555 1_555
H34 C25 1_555 1_555
H35 C25 1_555 1_555
H36 C27 1_555 1_555
H37 C28 1_555 1_555
H38 C29 1_555 1_555
H39 C30 1_555 1_555
H40 C32 1_555 1_555
H41 C32 1_555 1_555
H42 C34 1_555 1_555
H43 C35 1_555 1_555
H44 C36 1_555 1_555
H45 C36 1_555 1_555
H46 C36 1_555 1_555
H47 C37 1_555 1_555
N1 C11 1_555 1_555
N6 C35 1_555 1_555
C18 C20 1_555 1_555
C20 C21 1_555 1_555
C30 C37 1_555 1_555

#END
