
#######################################################################
#
#                 Cambridge Crystallographic Data Centre
#                                CCDC 
#
#######################################################################
#
# If this CIF has been generated from an entry in the Cambridge 
# Structural Database, then it will include bibliographic, chemical, 
# crystal, experimental, refinement or atomic coordinate data resulting 
# from the CCDC's data processing and validation procedures.
#
#######################################################################

data_YIGPUC
_chemical_formula_moiety         'C21 H15 N1 O2'
_chemical_name_systematic        
2-(2-benzyl-1H-indol-3-yl)cyclohexa-2,5-diene-1,4-dione
_symmetry_cell_setting           triclinic
_symmetry_space_group_name_H-M   'P -1'
_symmetry_Int_Tables_number      2
_space_group_name_Hall           '-P 1'
loop_
_symmetry_equiv_pos_site_id
_symmetry_equiv_pos_as_xyz
1 x,y,z
2 -x,-y,-z
_cell_length_a                   9.6735(10)
_cell_length_b                   9.8130(10)
_cell_length_c                   9.8262(12)
_cell_angle_alpha                102.690(3)
_cell_angle_beta                 102.936(4)
_cell_angle_gamma                114.855(3)
_cell_volume                     771.218
_exptl_crystal_description       block
_cell_formula_units_Z            2
loop_
_atom_site_label
_atom_site_type_symbol
_atom_site_fract_x
_atom_site_fract_y
_atom_site_fract_z
O1 O 0.5989(3) 0.3998(3) 0.0147(3)
O2 O 0.1871(3) 0.1274(3) -0.5459(3)
N1 N 0.2193(3) 0.1652(3) 0.1760(3)
H1 H 0.2311 0.1400 0.2568
C1 C 0.5002(4) 0.3404(4) -0.1124(4)
C2 C 0.3209(4) 0.2362(4) -0.1482(4)
C3 C 0.2206(4) 0.1722(4) -0.2929(4)
H2 H 0.1067 0.1081 -0.3161
C4 C 0.2791(4) 0.1973(4) -0.4148(4)
C5 C 0.4549(4) 0.3068(4) -0.3765(4)
H3 H 0.4953 0.3303 -0.4530
C6 C 0.5573(4) 0.3729(4) -0.2348(4)
H4 H 0.6698 0.4427 -0.2124
C7 C 0.3146(4) 0.1732(4) 0.0909(4)
C8 C 0.2600(4) 0.2151(4) -0.0271(4)
C9 C 0.1231(4) 0.2335(4) -0.0125(4)
C10 C 0.0224(4) 0.2808(4) -0.0914(4)
H5 H 0.0334 0.3014 -0.1795
C11 C -0.0925(4) 0.2971(4) -0.0394(4)
H6 H -0.1602 0.3304 -0.0916
C12 C -0.1114(4) 0.2650(4) 0.0900(4)
H7 H -0.1917 0.2772 0.1236
C13 C -0.0159(4) 0.2163(4) 0.1690(4)
H8 H -0.0298 0.1932 0.2556
C14 C 0.1022(4) 0.2023(4) 0.1168(4)
C15 C 0.4379(4) 0.1188(4) 0.1226(4)
H9 H 0.4934 0.1318 0.0492
H10 H 0.3793 0.0028 0.1061
C16 C 0.5677(4) 0.2061(4) 0.2791(4)
C17 C 0.6012(5) 0.1195(5) 0.3622(4)
H11 H 0.5380 0.0056 0.3242
C18 C 0.7266(5) 0.1975(5) 0.5010(4)
H12 H 0.7495 0.1366 0.5563
C19 C 0.8176(4) 0.3624(5) 0.5583(4)
H13 H 0.9036 0.4155 0.6527
C20 C 0.7832(4) 0.4503(5) 0.4780(4)
H14 H 0.8447 0.5643 0.5177
C21 C 0.6583(4) 0.3719(4) 0.3387(4)
H15 H 0.6351 0.4332 0.2840
loop_
_geom_bond_atom_site_label_1
_geom_bond_atom_site_label_2
_geom_bond_site_symmetry_1
_geom_bond_site_symmetry_2
O1 C1 1_555 1_555
O2 C4 1_555 1_555
N1 H1 1_555 1_555
C1 C2 1_555 1_555
C2 C3 1_555 1_555
C3 H2 1_555 1_555
C4 C3 1_555 1_555
C5 C4 1_555 1_555
H3 C5 1_555 1_555
C6 C1 1_555 1_555
H4 C6 1_555 1_555
C7 N1 1_555 1_555
C8 C2 1_555 1_555
C9 C8 1_555 1_555
C10 C9 1_555 1_555
H5 C10 1_555 1_555
C11 C10 1_555 1_555
H6 C11 1_555 1_555
C12 C11 1_555 1_555
H7 C12 1_555 1_555
C13 C12 1_555 1_555
H8 C13 1_555 1_555
C14 N1 1_555 1_555
C15 C7 1_555 1_555
H9 C15 1_555 1_555
H10 C15 1_555 1_555
C16 C15 1_555 1_555
C17 C16 1_555 1_555
H11 C17 1_555 1_555
C18 C17 1_555 1_555
H12 C18 1_555 1_555
C19 C18 1_555 1_555
H13 C19 1_555 1_555
C20 C19 1_555 1_555
H14 C20 1_555 1_555
C21 C16 1_555 1_555
H15 C21 1_555 1_555
C5 C6 1_555 1_555
C7 C8 1_555 1_555
C9 C14 1_555 1_555
C13 C14 1_555 1_555
C20 C21 1_555 1_555

#END
