
#######################################################################
#
#                 Cambridge Crystallographic Data Centre
#                                CCDC 
#
#######################################################################
#
# If this CIF has been generated from an entry in the Cambridge 
# Structural Database, then it will include bibliographic, chemical, 
# crystal, experimental, refinement or atomic coordinate data resulting 
# from the CCDC's data processing and validation procedures.
#
#######################################################################

data_YIGPOW
_chemical_formula_moiety         'C116 H32 B12 Br12 F12 O24'
_chemical_name_systematic        
'tetrakis(\m-6,10,19-tribromopentacyclo[6.6.6.02,7.09,14.015,20]icosa-2,4,6,9,11,13,15,17,19-nonaene-3,4,12,13,16,17-hexolato)-hexakis(\m-2,3-difluoro-1,4-phenylene)-dodeca-boron unknown solvate'
_symmetry_cell_setting           triclinic
_symmetry_space_group_name_H-M   'P -1'
_symmetry_Int_Tables_number      2
_space_group_name_Hall           '-P 1'
loop_
_symmetry_equiv_pos_site_id
_symmetry_equiv_pos_as_xyz
1 x,y,z
2 -x,-y,-z
_cell_length_a                   20.6749(5)
_cell_length_b                   21.1707(5)
_cell_length_c                   26.0201(6)
_cell_angle_alpha                67.218(2)
_cell_angle_beta                 87.315(2)
_cell_angle_gamma                61.313(2)
_cell_volume                     9074.53
_exptl_crystal_colour            colorless
_exptl_crystal_description       polyhedron
_cell_formula_units_Z            2
loop_
_atom_site_label
_atom_site_type_symbol
_atom_site_fract_x
_atom_site_fract_y
_atom_site_fract_z
Br1 Br 0.51337(4) 0.02445(4) 0.80760(3)
Br2 Br 0.87435(3) -0.02839(4) 0.18588(3)
Br3 Br 0.78608(3) 0.18736(4) 0.01182(3)
Br4 Br 0.33077(4) 1.09195(4) 0.07953(3)
Br5 Br 0.23284(4) 1.12141(4) 0.22870(3)
Br6 Br 0.34957(4) 0.26043(5) 0.81220(3)
Br7 Br 0.26498(4) 0.11106(4) 0.80183(3)
Br8 Br 0.69687(3) 0.02173(3) 0.05790(3)
Br9 Br 0.08114(4) 1.22391(3) 0.05543(3)
Br10 Br -0.36310(4) 0.49882(4) 0.17721(3)
Br11 Br -0.27809(4) 0.50995(4) 0.01029(3)
Br12 Br -0.41754(3) 0.73098(4) 0.04885(3)
F1 F 0.7150(3) 0.0489(5) 0.5511(2)
F2 F 0.7726(3) 0.0429(5) 0.4590(2)
F3 F 0.5254(3) 0.6135(3) -0.0104(2)
F4 F 0.4468(2) 0.7477(3) -0.0010(2)
F5 F 0.2847(3) 0.6486(2) 0.35787(17)
F6 F 0.3088(3) 0.5173(2) 0.44468(18)
F7 F 0.1597(3) 0.3393(3) 0.4274(2)
F8 F 0.3018(2) 0.3154(3) 0.1806(2)
F9 F -0.12000(18) 1.02033(19) -0.00216(15)
F10 F 0.0618(3) 0.4034(3) 0.3350(2)
F11 F 0.1536(2) 0.3994(3) 0.1620(2)
F12 F -0.18883(18) 0.94293(19) -0.00288(15)
C1 C 0.6664(5) 0.0895(6) 0.5016(3)
C2 C 0.6972(4) 0.0868(5) 0.4528(3)
C3 C 0.5775(4) 0.1774(4) 0.3973(3)
C4 C 0.5466(4) 0.1805(4) 0.4461(3)
C5 C 0.4918(3) 0.6153(3) 0.0344(3)
C6 C 0.4512(3) 0.6848(3) 0.0400(2)
C7 C 0.4218(3) 0.6207(3) 0.1261(3)
C8 C 0.4614(3) 0.5504(3) 0.1208(3)
C9 C 0.3619(3) 0.1841(4) 0.7221(2)
H1 H 0.3703 0.1576 0.7644
C10 C 0.3411(4) 0.2531(4) 0.6128(3)
H2 H 0.3332 0.2795 0.5706
C11 C 0.7085(3) 0.1264(3) 0.1197(2)
H3 H 0.7484 0.0932 0.1033
C12 C 0.6052(3) 0.2120(3) 0.1622(2)
H4 H 0.5655 0.2450 0.1789
C13 C 0.2114(3) 1.0452(3) 0.1467(2)
H5 H 0.2116 1.0959 0.1350
C14 C 0.2103(3) 0.9139(3) 0.1758(2)
H6 H 0.2103 0.8630 0.1875
C15 C -0.2573(3) 0.5664(3) 0.1075(3)
H7 H -0.3045 0.5725 0.0924
C16 C -0.1341(3) 0.5492(3) 0.1474(2)
H8 H -0.0870 0.5427 0.1631
C17 C 0.4300(3) 0.1430(4) 0.6974(3)
C18 C 0.4180(3) 0.1810(3) 0.6387(2)
C19 C 0.4781(4) 0.1514(4) 0.6125(3)
C20 C 0.5459(4) 0.0880(4) 0.6439(3)
C21 C 0.5591(4) 0.0480(4) 0.7017(3)
H9 H 0.6063 0.0035 0.7224
C22 C 0.4986(4) 0.0775(4) 0.7274(3)
B1 B 0.5579(5) 0.1285(5) 0.5541(4)
O1 O 0.4832(2) 0.1799(3) 0.55522(17)
O2 O 0.5975(2) 0.0716(3) 0.60751(19)
C23 C 0.7323(3) 0.0984(3) 0.1827(3)
C24 C 0.6756(3) 0.1456(3) 0.2051(3)
C25 C 0.6903(3) 0.1267(4) 0.2615(3)
C26 C 0.7564(3) 0.0648(4) 0.2946(3)
C27 C 0.8149(3) 0.0165(4) 0.2734(3)
H10 H 0.8613 -0.0263 0.2965
C28 C 0.7995(3) 0.0361(4) 0.2172(3)
B2 B 0.6864(5) 0.1167(5) 0.3472(4)
O3 O 0.6436(2) 0.1623(3) 0.29393(18)
O4 O 0.7556(2) 0.0572(3) 0.34997(19)
C29 C 0.6875(3) 0.2126(3) 0.0908(3)
C30 C 0.6315(3) 0.2595(3) 0.1147(2)
C31 C 0.6071(3) 0.3374(3) 0.0930(2)
C32 C 0.6324(3) 0.3729(3) 0.0468(3)
C33 C 0.6864(3) 0.3303(4) 0.0211(3)
H11 H 0.7043 0.3549 -0.0103
C34 C 0.7121(3) 0.2500(3) 0.0443(3)
B3 B 0.5489(3) 0.4646(4) 0.0709(3)
O5 O 0.55376(19) 0.3946(2) 0.10900(17)
O6 O 0.5958(2) 0.4540(2) 0.03175(17)
C35 C 0.2732(3) 0.9879(3) 0.1266(2)
C36 C 0.2714(3) 0.9168(3) 0.1421(2)
C37 C 0.3202(3) 0.8646(3) 0.1207(2)
C38 C 0.3701(3) 0.8799(3) 0.0890(2)
C39 C 0.3765(3) 0.9453(4) 0.0769(3)
H12 H 0.4132 0.9532 0.0564
C40 C 0.3261(3) 0.9991(3) 0.0965(2)
B4 B 0.3821(3) 0.7677(4) 0.0950(3)
O7 O 0.32720(19) 0.7938(2) 0.12582(16)
O8 O 0.40930(19) 0.8198(2) 0.07088(16)
C41 C 0.2219(3) 1.0029(3) 0.2095(3)
C42 C 0.2224(3) 0.9303(3) 0.2264(2)
C43 C 0.2335(3) 0.8852(3) 0.2825(3)
C44 C 0.2437(4) 0.9092(4) 0.3222(3)
C45 C 0.2434(4) 0.9790(4) 0.3082(3)
H13 H 0.2500 0.9950 0.3361
C46 C 0.2332(3) 1.0236(3) 0.2521(3)
B5 B 0.2498(4) 0.7941(5) 0.3667(3)
O9 O 0.2372(2) 0.8124(2) 0.31000(17)
O10 O 0.2541(3) 0.8526(3) 0.37595(19)
C47 C 0.3452(3) 0.2690(4) 0.7002(2)
C48 C 0.3349(3) 0.3062(4) 0.6413(3)
C49 C 0.3214(4) 0.3811(4) 0.6173(3)
C50 C 0.3161(4) 0.4211(4) 0.6507(3)
C51 C 0.3240(4) 0.3881(4) 0.7078(3)
H14 H 0.3192 0.4163 0.7299
C52 C 0.3397(4) 0.3099(4) 0.7319(3)
B6 B 0.2985(4) 0.5012(5) 0.5600(3)
O11 O 0.3104(2) 0.4315(2) 0.56033(17)
O12 O 0.3012(3) 0.4971(3) 0.61533(19)
C53 C 0.2962(3) 0.1885(3) 0.6945(2)
C54 C 0.2848(3) 0.2263(3) 0.6348(3)
C55 C 0.2258(3) 0.2357(4) 0.6054(3)
C56 C 0.1792(4) 0.2080(4) 0.6342(3)
C57 C 0.1875(4) 0.1712(4) 0.6919(3)
H15 H 0.1550 0.1533 0.7105
C58 C 0.2490(4) 0.1626(4) 0.7209(3)
B7 B 0.1357(5) 0.2664(5) 0.5422(4)
O13 O 0.1996(2) 0.2716(2) 0.54792(17)
O14 O 0.1223(3) 0.2267(3) 0.5948(2)
C59 C 0.6361(3) 0.1243(3) 0.1140(2)
C60 C 0.5794(3) 0.1742(3) 0.1353(2)
C61 C 0.5088(3) 0.1863(3) 0.1256(2)
C62 C 0.4957(3) 0.1485(3) 0.0971(2)
C63 C 0.5490(3) 0.0982(3) 0.0785(2)
H16 H 0.5388 0.0714 0.0608
C64 C 0.6201(3) 0.0880(3) 0.0870(2)
B8 B 0.3877(4) 0.2302(4) 0.1127(3)
O15 O 0.44205(19) 0.2363(2) 0.13722(17)
O16 O 0.4195(2) 0.1746(2) 0.09013(17)
C65 C 0.1392(3) 1.0578(3) 0.1206(2)
C66 C 0.1380(3) 0.9859(3) 0.1375(2)
C67 C 0.0794(3) 0.9888(3) 0.1143(2)
C68 C 0.0215(3) 1.0588(3) 0.0745(2)
C69 C 0.0199(3) 1.1292(3) 0.0575(3)
H17 H -0.0201 1.1773 0.0307
C70 C 0.0802(3) 1.1261(3) 0.0818(3)
B9 B 0.0014(3) 0.9619(4) 0.0853(3)
O17 O 0.06772(19) 0.92624(19) 0.12269(16)
O18 O -0.02735(19) 1.0420(2) 0.05533(16)
C71 C -0.2348(3) 0.5191(3) 0.1713(3)
C72 C -0.1686(3) 0.5108(3) 0.1923(2)
C73 C -0.1431(3) 0.4676(3) 0.2489(3)
C74 C -0.1806(3) 0.4335(4) 0.2849(3)
C75 C -0.2466(3) 0.4407(4) 0.2652(3)
H18 H -0.2721 0.4173 0.2897
C76 C -0.2725(3) 0.4846(4) 0.2070(3)
B10 B -0.0799(4) 0.4034(4) 0.3355(3)
O19 O -0.0802(2) 0.4495(2) 0.28127(18)
O20 O -0.1418(2) 0.3929(3) 0.33910(19)
C77 C -0.1903(3) 0.5241(3) 0.0820(3)
C78 C -0.1227(3) 0.5136(3) 0.1050(3)
C79 C -0.0589(3) 0.4753(3) 0.0870(2)
C80 C -0.0586(3) 0.4469(3) 0.0474(3)
C81 C -0.1226(3) 0.4559(3) 0.0230(3)
H19 H -0.1217 0.4367 -0.0046
C82 C -0.1882(3) 0.4951(3) 0.0420(3)
B11 B 0.0572(4) 0.4132(4) 0.0757(3)
O21 O 0.01256(19) 0.4560(2) 0.10491(17)
O22 O 0.0143(2) 0.4080(2) 0.03865(17)
C83 C -0.2629(3) 0.6453(3) 0.0951(2)
C84 C -0.1948(3) 0.6365(3) 0.1148(2)
C85 C -0.1908(3) 0.7028(3) 0.1019(2)
C86 C -0.2528(3) 0.7771(3) 0.0715(2)
C87 C -0.3210(3) 0.7875(3) 0.0557(2)
H20 H -0.3636 0.8386 0.0367
C88 C -0.3240(3) 0.7190(3) 0.0690(2)
B12 B -0.1583(3) 0.7930(4) 0.0850(3)
O23 O -0.13084(19) 0.7123(2) 0.11066(16)
O24 O -0.23374(19) 0.8349(2) 0.06114(16)
C89 C 0.5903(4) 0.1359(4) 0.4985(3)
C90 C 0.6535(4) 0.1279(4) 0.4004(3)
H21 H 0.5458 0.2099 0.3613
H22 H 0.4944 0.2141 0.4426
C91 C 0.4986(3) 0.5455(3) 0.0746(2)
C92 C 0.4169(3) 0.6898(3) 0.0859(2)
H23 H 0.3973 0.6221 0.1578
H24 H 0.4638 0.5041 0.1489
C93 C 0.2601(4) 0.7169(4) 0.4160(3)
C94 C 0.2785(4) 0.6498(4) 0.4095(3)
C95 C 0.2893(4) 0.5823(4) 0.4548(3)
C96 C 0.2845(4) 0.5773(4) 0.5086(3)
C97 C 0.2662(5) 0.6448(4) 0.5157(3)
H25 H 0.2610 0.6445 0.5522
C98 C 0.2553(5) 0.7130(4) 0.4706(3)
H26 H 0.2443 0.7581 0.4770
C99 C 0.0831(4) 0.2997(4) 0.4876(3)
C100 C 0.0946(4) 0.3374(4) 0.4338(3)
C101 C 0.0441(4) 0.3689(4) 0.3858(3)
C102 C -0.0217(4) 0.3667(4) 0.3884(3)
C103 C -0.0344(5) 0.3301(5) 0.4424(3)
H27 H -0.0789 0.3271 0.4460
C104 C 0.0162(5) 0.2981(5) 0.4904(3)
H28 H 0.0053 0.2745 0.5264
C105 C 0.3024(3) 0.2795(3) 0.1053(3)
C106 C 0.2636(3) 0.3199(4) 0.1373(3)
C107 C 0.1861(3) 0.3627(4) 0.1283(3)
C108 C 0.1432(3) 0.3694(3) 0.0846(3)
C109 C 0.1812(3) 0.3313(3) 0.0513(3)
H29 H 0.1539 0.3349 0.0209
C110 C 0.2595(3) 0.2874(3) 0.0614(3)
H30 H 0.2841 0.2622 0.0373
C111 C -0.0370(3) 0.9155(3) 0.0823(2)
C112 C -0.0959(3) 0.9468(3) 0.0412(2)
C113 C -0.1319(3) 0.9075(3) 0.0405(2)
C114 C -0.1124(3) 0.8338(3) 0.0828(2)
C115 C -0.0506(3) 0.7992(3) 0.1251(3)
H31 H -0.0340 0.7477 0.1541
C116 C -0.0139(3) 0.8395(3) 0.1249(3)
H32 H 0.0274 0.8154 0.1538
F13? F 0.4700(16) 0.2380(16) 0.4377(12)
F14? F 0.5270(13) 0.2353(14) 0.3448(10)
H33? H 0.6983 0.0589 0.5374
H34? H 0.7499 0.0556 0.4563
F15? F 0.4668(7) 0.4902(7) 0.1611(5)
F16? F 0.3892(6) 0.6259(6) 0.1700(4)
H35? H 0.5157 0.6148 0.0023
H36? H 0.4465 0.7318 0.0109
loop_
_geom_bond_atom_site_label_1
_geom_bond_atom_site_label_2
_geom_bond_site_symmetry_1
_geom_bond_site_symmetry_2
Br1 C22 1_555 1_555
Br2 C28 1_555 1_555
Br3 C34 1_555 1_555
Br4 C40 1_555 1_555
Br5 C46 1_555 1_555
Br6 C52 1_555 1_555
Br7 C58 1_555 1_555
Br8 C64 1_555 1_555
Br9 C70 1_555 1_555
Br10 C76 1_555 1_555
Br11 C82 1_555 1_555
Br12 C88 1_555 1_555
F1 C1 1_555 1_555
F2 C2 1_555 1_555
F3 C5 1_555 1_555
F4 C6 1_555 1_555
F5 C94 1_555 1_555
F6 C95 1_555 1_555
F7 C100 1_555 1_555
F8 C106 1_555 1_555
F9 C112 1_555 1_555
F10 C101 1_555 1_555
F11 C107 1_555 1_555
F12 C113 1_555 1_555
C1 C2 1_555 1_555
C2 C90 1_555 1_555
C3 C4 1_555 1_555
C4 C89 1_555 1_555
C5 C6 1_555 1_555
C6 C92 1_555 1_555
C7 C8 1_555 1_555
C8 C91 1_555 1_555
C9 H1 1_555 1_555
C10 H2 1_555 1_555
C11 H3 1_555 1_555
C12 H4 1_555 1_555
C13 H5 1_555 1_555
C14 H6 1_555 1_555
C15 H7 1_555 1_555
C16 H8 1_555 1_555
C17 C9 1_555 1_555
C18 C10 1_555 1_555
C19 C18 1_555 1_555
C20 C19 1_555 1_555
C21 C20 1_555 1_555
H9 C21 1_555 1_555
C22 C17 1_555 1_555
B1 O1 1_555 1_555
O1 C19 1_555 1_555
O2 C20 1_555 1_555
C23 C11 1_555 1_555
C24 C12 1_555 1_555
C25 C24 1_555 1_555
C26 C25 1_555 1_555
C27 C26 1_555 1_555
H10 C27 1_555 1_555
C28 C23 1_555 1_555
B2 O3 1_555 1_555
O3 C25 1_555 1_555
O4 C26 1_555 1_555
C29 C11 1_555 1_555
C30 C12 1_555 1_555
C31 C30 1_555 1_555
C32 C31 1_555 1_555
C33 C32 1_555 1_555
H11 C33 1_555 1_555
C34 C29 1_555 1_555
B3 O5 1_555 1_555
O5 C31 1_555 1_555
O6 C32 1_555 1_555
C35 C13 1_555 1_555
C36 C14 1_555 1_555
C37 C36 1_555 1_555
C38 C37 1_555 1_555
C39 C38 1_555 1_555
H12 C39 1_555 1_555
C40 C35 1_555 1_555
B4 O7 1_555 1_555
O7 C37 1_555 1_555
O8 C38 1_555 1_555
C41 C13 1_555 1_555
C42 C14 1_555 1_555
C43 C42 1_555 1_555
C44 C43 1_555 1_555
C45 C44 1_555 1_555
H13 C45 1_555 1_555
C46 C41 1_555 1_555
B5 O9 1_555 1_555
O9 C43 1_555 1_555
O10 C44 1_555 1_555
C47 C9 1_555 1_555
C48 C10 1_555 1_555
C49 C48 1_555 1_555
C50 C49 1_555 1_555
C51 C50 1_555 1_555
H14 C51 1_555 1_555
C52 C47 1_555 1_555
B6 O11 1_555 1_555
O11 C49 1_555 1_555
O12 C50 1_555 1_555
C53 C9 1_555 1_555
C54 C10 1_555 1_555
C55 C54 1_555 1_555
C56 C55 1_555 1_555
C57 C56 1_555 1_555
H15 C57 1_555 1_555
C58 C53 1_555 1_555
B7 O13 1_555 1_555
O13 C55 1_555 1_555
O14 C56 1_555 1_555
C59 C11 1_555 1_555
C60 C12 1_555 1_555
C61 C60 1_555 1_555
C62 C61 1_555 1_555
C63 C62 1_555 1_555
H16 C63 1_555 1_555
C64 C59 1_555 1_555
B8 O15 1_555 1_555
O15 C61 1_555 1_555
O16 C62 1_555 1_555
C65 C13 1_555 1_555
C66 C14 1_555 1_555
C67 C66 1_555 1_555
C68 C67 1_555 1_555
C69 C68 1_555 1_555
H17 C69 1_555 1_555
C70 C65 1_555 1_555
B9 O17 1_555 1_555
O17 C67 1_555 1_555
O18 C68 1_555 1_555
C71 C15 1_555 1_555
C72 C16 1_555 1_555
C73 C72 1_555 1_555
C74 C73 1_555 1_555
C75 C74 1_555 1_555
H18 C75 1_555 1_555
C76 C71 1_555 1_555
B10 O19 1_555 1_555
O19 C73 1_555 1_555
O20 C74 1_555 1_555
C77 C15 1_555 1_555
C78 C16 1_555 1_555
C79 C78 1_555 1_555
C80 C79 1_555 1_555
C81 C80 1_555 1_555
H19 C81 1_555 1_555
C82 C77 1_555 1_555
B11 O21 1_555 1_555
O21 C79 1_555 1_555
O22 C80 1_555 1_555
C83 C15 1_555 1_555
C84 C16 1_555 1_555
C85 C84 1_555 1_555
C86 C85 1_555 1_555
C87 C86 1_555 1_555
H20 C87 1_555 1_555
C88 C83 1_555 1_555
B12 O23 1_555 1_555
O23 C85 1_555 1_555
O24 C86 1_555 1_555
C89 C1 1_555 1_555
C90 C3 1_555 1_555
H21 C3 1_555 1_555
H22 C4 1_555 1_555
C91 C5 1_555 1_555
C92 C7 1_555 1_555
H23 C7 1_555 1_555
H24 C8 1_555 1_555
C93 B5 1_555 1_555
C94 C93 1_555 1_555
C95 C94 1_555 1_555
C96 B6 1_555 1_555
C97 C96 1_555 1_555
H25 C97 1_555 1_555
C98 C93 1_555 1_555
H26 C98 1_555 1_555
C99 B7 1_555 1_555
C100 C99 1_555 1_555
C101 C100 1_555 1_555
C102 B10 1_555 1_555
C103 C102 1_555 1_555
H27 C103 1_555 1_555
C104 C99 1_555 1_555
H28 C104 1_555 1_555
C105 B8 1_555 1_555
C106 C105 1_555 1_555
C107 C106 1_555 1_555
C108 B11 1_555 1_555
C109 C108 1_555 1_555
H29 C109 1_555 1_555
C110 C105 1_555 1_555
H30 C110 1_555 1_555
C111 B9 1_555 1_555
C112 C111 1_555 1_555
C113 C112 1_555 1_555
C114 B12 1_555 1_555
C115 C114 1_555 1_555
H31 C115 1_555 1_555
C116 C111 1_555 1_555
H32 C116 1_555 1_555
C17 C18 1_555 1_555
C21 C22 1_555 1_555
B1 O2 1_555 1_555
B1 C89 1_555 1_555
C23 C24 1_555 1_555
C27 C28 1_555 1_555
B2 O4 1_555 1_555
B2 C90 1_555 1_555
C29 C30 1_555 1_555
C33 C34 1_555 1_555
B3 O6 1_555 1_555
B3 C91 1_555 1_555
C35 C36 1_555 1_555
C39 C40 1_555 1_555
B4 O8 1_555 1_555
B4 C92 1_555 1_555
C41 C42 1_555 1_555
C45 C46 1_555 1_555
B5 O10 1_555 1_555
C47 C48 1_555 1_555
C51 C52 1_555 1_555
B6 O12 1_555 1_555
C53 C54 1_555 1_555
C57 C58 1_555 1_555
B7 O14 1_555 1_555
C59 C60 1_555 1_555
C63 C64 1_555 1_555
B8 O16 1_555 1_555
C65 C66 1_555 1_555
C69 C70 1_555 1_555
B9 O18 1_555 1_555
C71 C72 1_555 1_555
C75 C76 1_555 1_555
B10 O20 1_555 1_555
C77 C78 1_555 1_555
C81 C82 1_555 1_555
B11 O22 1_555 1_555
C83 C84 1_555 1_555
C87 C88 1_555 1_555
B12 O24 1_555 1_555
C95 C96 1_555 1_555
C97 C98 1_555 1_555
C101 C102 1_555 1_555
C103 C104 1_555 1_555
C107 C108 1_555 1_555
C109 C110 1_555 1_555
C113 C114 1_555 1_555
C115 C116 1_555 1_555

#END
