
#######################################################################
#
#                 Cambridge Crystallographic Data Centre
#                                CCDC 
#
#######################################################################
#
# If this CIF has been generated from an entry in the Cambridge 
# Structural Database, then it will include bibliographic, chemical, 
# crystal, experimental, refinement or atomic coordinate data resulting 
# from the CCDC's data processing and validation procedures.
#
#######################################################################

data_YIGQEL
_chemical_formula_moiety         'C9 H20 N3 O1 1+,C24 H20 B1 1-'
_chemical_name_systematic        
'N,N,N-trimethyl-2-[2-(2-methylpropylidene)hydrazino]-2-oxoethanaminium tetraphenylborate'
_symmetry_cell_setting           monoclinic
_symmetry_space_group_name_H-M   'P 21/c'
_symmetry_Int_Tables_number      14
_space_group_name_Hall           '-P 2ybc'
loop_
_symmetry_equiv_pos_site_id
_symmetry_equiv_pos_as_xyz
1 x,y,z
2 -x,1/2+y,1/2-z
3 -x,-y,-z
4 x,1/2-y,1/2+z
_cell_length_a                   16.630(2)
_cell_length_b                   13.9808(15)
_cell_length_c                   12.999(3)
_cell_angle_alpha                90
_cell_angle_beta                 91.48(2)
_cell_angle_gamma                90
_cell_volume                     3021.27
_exptl_crystal_colour            colorless
_exptl_crystal_description       plate
_cell_formula_units_Z            4
loop_
_atom_site_label
_atom_site_type_symbol
_atom_site_fract_x
_atom_site_fract_y
_atom_site_fract_z
N1 N 0.8627(3) -0.0166(3) 0.1329(4)
N2 N 0.7797(4) 0.2275(4) 0.0968(4)
H1 H 0.7948 0.2858 0.0883
N3 N 0.7008(4) 0.2083(4) 0.1205(4)
O1 O 0.8991(3) 0.1680(3) 0.0524(4)
C1 C 0.9353(4) 0.0089(4) 0.1968(5)
H2 H 0.9633 0.0606 0.1647
H3 H 0.9703 -0.0456 0.2026
H4 H 0.9193 0.0282 0.2641
C2 C 0.8860(4) -0.0478(5) 0.0284(5)
H5 H 0.9125 0.0039 -0.0056
H6 H 0.8387 -0.0658 -0.0109
H7 H 0.9218 -0.1015 0.0341
C3 C 0.8216(4) -0.0994(4) 0.1860(5)
H8 H 0.8069 -0.0802 0.2539
H9 H 0.8578 -0.1528 0.1907
H10 H 0.7742 -0.1175 0.1470
C4 C 0.8015(4) 0.0619(4) 0.1251(5)
H11 H 0.7791 0.0717 0.1925
H12 H 0.7580 0.0412 0.0792
C5 C 0.8329(5) 0.1567(5) 0.0868(5)
C6 C 0.6526(5) 0.2797(5) 0.1190(5)
H13 H 0.6727 0.3404 0.1054
C7 C 0.5665(4) 0.2683(5) 0.1380(6)
H14 H 0.5562 0.3000 0.2035
C8 C 0.5172(4) 0.3198(6) 0.0566(7)
H15 H 0.5339 0.3855 0.0535
H16 H 0.4613 0.3169 0.0733
H17 H 0.5249 0.2900 -0.0090
C9 C 0.5410(4) 0.1661(5) 0.1493(6)
H18 H 0.5718 0.1368 0.2043
H19 H 0.5501 0.1324 0.0863
H20 H 0.4849 0.1636 0.1645
B1 B 0.7602(4) 0.6034(5) 0.1292(6)
C10 C 0.7601(5) 0.5321(5) 0.0307(6)
C11 C 0.6908(6) 0.5182(5) -0.0280(6)
H21 H 0.6480 0.5595 -0.0173
C12 C 0.6801(6) 0.4464(6) -0.1028(6)
H22 H 0.6315 0.4389 -0.1389
C13 C 0.7451(9) 0.3875(7) -0.1201(8)
H23 H 0.7396 0.3385 -0.1681
C14 C 0.8172(7) 0.3991(7) -0.0685(8)
H24 H 0.8610 0.3603 -0.0823
C15 C 0.8228(5) 0.4722(6) 0.0065(6)
H25 H 0.8718 0.4804 0.0416
C16 C 0.7066(4) 0.7001(4) 0.1092(5)
C17 C 0.6629(4) 0.7462(5) 0.1843(5)
H26 H 0.6612 0.7184 0.2492
C18 C 0.6225(4) 0.8298(6) 0.1683(7)
H27 H 0.5942 0.8574 0.2216
C19 C 0.6234(4) 0.8733(5) 0.0745(8)
H28 H 0.5953 0.9300 0.0629
C20 C 0.6661(4) 0.8324(5) -0.0023(6)
H29 H 0.6683 0.8622 -0.0662
C21 C 0.7064(4) 0.7464(5) 0.0148(5)
H30 H 0.7341 0.7189 -0.0390
C22 C 0.8486(4) 0.6459(5) 0.1625(7)
C23 C 0.8691(4) 0.6698(5) 0.2637(7)
H31 H 0.8334 0.6547 0.3151
C24 C 0.9403(5) 0.7149(5) 0.2911(7)
H32 H 0.9510 0.7300 0.3598
C25 C 0.9956(6) 0.7379(6) 0.2187(10)
H33 H 1.0438 0.7677 0.2376
C26 C 0.9782(6) 0.7158(6) 0.1173(9)
H34 H 1.0146 0.7311 0.0668
C27 C 0.9057(5) 0.6704(5) 0.0903(6)
H35 H 0.8952 0.6561 0.0214
C28 C 0.7258(5) 0.5328(4) 0.2196(5)
C29 C 0.6453(5) 0.5252(5) 0.2428(5)
H36 H 0.6082 0.5654 0.2100
C30 C 0.6185(5) 0.4586(6) 0.3144(6)
H37 H 0.5643 0.4561 0.3301
C31 C 0.6724(7) 0.3966(6) 0.3619(6)
H38 H 0.6545 0.3524 0.4096
C32 C 0.7514(6) 0.4002(5) 0.3389(6)
H39 H 0.7879 0.3576 0.3692
C33 C 0.7769(4) 0.4684(5) 0.2694(5)
H40 H 0.8314 0.4712 0.2555
loop_
_geom_bond_atom_site_label_1
_geom_bond_atom_site_label_2
_geom_bond_site_symmetry_1
_geom_bond_site_symmetry_2
N1 C1 1_555 1_555
N2 H1 1_555 1_555
N3 N2 1_555 1_555
O1 C5 1_555 1_555
B1 C10 1_555 1_555
C1 H2 1_555 1_555
H3 C1 1_555 1_555
H4 C1 1_555 1_555
C2 N1 1_555 1_555
H5 C2 1_555 1_555
H6 C2 1_555 1_555
H7 C2 1_555 1_555
C3 N1 1_555 1_555
H8 C3 1_555 1_555
H9 C3 1_555 1_555
H10 C3 1_555 1_555
C4 N1 1_555 1_555
H11 C4 1_555 1_555
H12 C4 1_555 1_555
C5 N2 1_555 1_555
C6 N3 1_555 1_555
H13 C6 1_555 1_555
C7 C6 1_555 1_555
H14 C7 1_555 1_555
C8 C7 1_555 1_555
H15 C8 1_555 1_555
H16 C8 1_555 1_555
H17 C8 1_555 1_555
C9 C7 1_555 1_555
H18 C9 1_555 1_555
H19 C9 1_555 1_555
H20 C9 1_555 1_555
C10 C11 1_555 1_555
C11 H21 1_555 1_555
C12 C11 1_555 1_555
H22 C12 1_555 1_555
C13 C12 1_555 1_555
H23 C13 1_555 1_555
C14 C13 1_555 1_555
H24 C14 1_555 1_555
C15 C10 1_555 1_555
H25 C15 1_555 1_555
C16 B1 1_555 1_555
C17 C16 1_555 1_555
H26 C17 1_555 1_555
C18 C17 1_555 1_555
H27 C18 1_555 1_555
C19 C18 1_555 1_555
H28 C19 1_555 1_555
C20 C19 1_555 1_555
H29 C20 1_555 1_555
C21 C16 1_555 1_555
H30 C21 1_555 1_555
C22 B1 1_555 1_555
C23 C22 1_555 1_555
H31 C23 1_555 1_555
C24 C23 1_555 1_555
H32 C24 1_555 1_555
C25 C24 1_555 1_555
H33 C25 1_555 1_555
C26 C25 1_555 1_555
H34 C26 1_555 1_555
C27 C22 1_555 1_555
H35 C27 1_555 1_555
C28 B1 1_555 1_555
C29 C28 1_555 1_555
H36 C29 1_555 1_555
C30 C29 1_555 1_555
H37 C30 1_555 1_555
C31 C30 1_555 1_555
H38 C31 1_555 1_555
C32 C31 1_555 1_555
H39 C32 1_555 1_555
C33 C28 1_555 1_555
H40 C33 1_555 1_555
C4 C5 1_555 1_555
C14 C15 1_555 1_555
C20 C21 1_555 1_555
C26 C27 1_555 1_555
C32 C33 1_555 1_555

#END
