
#######################################################################
#
#                 Cambridge Crystallographic Data Centre
#                                CCDC 
#
#######################################################################
#
# If this CIF has been generated from an entry in the Cambridge 
# Structural Database, then it will include bibliographic, chemical, 
# crystal, experimental, refinement or atomic coordinate data resulting 
# from the CCDC's data processing and validation procedures.
#
#######################################################################

data_YIGXET
_chemical_formula_moiety         'C43 H30 N4 O2'
_chemical_name_systematic        
2,7,12,17-Tetraphenyl-4-oxa-21,22,23,24-tetraazapentacyclo[16.2.1.1^3,6^.1^8,11^.1^13,16^]tetracosa-1(20),2,6(24),7,9,11,13(22),16,18-nonaen-5-one
_symmetry_cell_setting           monoclinic
_symmetry_space_group_name_H-M   'P 2/n'
_symmetry_Int_Tables_number      13
_space_group_name_Hall           '-P 2yac'
loop_
_symmetry_equiv_pos_site_id
_symmetry_equiv_pos_as_xyz
1 x,y,z
2 1/2-x,y,1/2-z
3 -x,-y,-z
4 1/2+x,-y,1/2+z
_cell_length_a                   11.016(3)
_cell_length_b                   6.7826(18)
_cell_length_c                   21.878(6)
_cell_angle_alpha                90
_cell_angle_beta                 101.024(4)
_cell_angle_gamma                90
_cell_volume                     1604.5
_exptl_crystal_colour            'dark red'
_exptl_crystal_description       plate
_cell_formula_units_Z            2
loop_
_atom_site_label
_atom_site_type_symbol
_atom_site_fract_x
_atom_site_fract_y
_atom_site_fract_z
C1 C 0.24996(15) 0.4563(2) 0.62271(7)
C2 C 0.15667(15) 0.3133(2) 0.61743(7)
C3 C 0.155(3) 0.138(6) 0.658(2)
O1 O 0.2165(5) 0.0511(9) 0.6993(2)
O2 O 0.046(2) 0.041(4) 0.6341(12)
C4 C -0.01535(14) 0.1481(2) 0.58621(7)
C5 C -0.13034(14) 0.0862(2) 0.55317(8)
C6 C -0.19494(15) 0.1715(2) 0.49809(8)
C7 C -0.31650(15) 0.1197(3) 0.46627(8)
H1 H -0.3659 0.0156 0.4772
C8 C -0.34916(16) 0.2474(3) 0.41701(8)
H2 H -0.4250 0.2463 0.3878
C9 C -0.24955(14) 0.3813(2) 0.41746(8)
C10 C 0.36149(15) 0.4335(3) 0.67368(8)
C11 C 0.43872(16) 0.2705(3) 0.67541(8)
H3 H 0.4209 0.1721 0.6441
C12 C 0.54196(17) 0.2508(3) 0.72283(10)
H4 H 0.5938 0.1385 0.7237
C13 C 0.56944(18) 0.3901(3) 0.76786(9)
H5 H 0.6402 0.3750 0.8000
C14 C 0.4951(2) 0.5526(3) 0.76702(9)
H6 H 0.5147 0.6498 0.7986
C15 C 0.39071(17) 0.5763(3) 0.72001(8)
H7 H 0.3397 0.6894 0.7196
C16 C -0.19518(14) -0.0793(2) 0.57955(8)
C17 C -0.24083(18) -0.0515(3) 0.63391(9)
H8 H -0.2281 0.0712 0.6551
C18 C -0.30455(18) -0.2001(3) 0.65752(9)
H9 H -0.3346 -0.1788 0.6949
C19 C -0.32472(16) -0.3772(3) 0.62754(9)
H10 H -0.3694 -0.4783 0.6436
C20 C -0.2798(2) -0.4073(3) 0.57415(11)
H11 H -0.2932 -0.5301 0.5531
C21 C -0.2143(2) -0.2588(3) 0.55051(10)
H12 H -0.1826 -0.2823 0.5137
N1 N 0.05093(12) 0.30754(19) 0.57374(6)
N2 N -0.15737(12) 0.32872(19) 0.46640(6)
H13 H -0.0849 0.3870 0.4761
C1B C -0.24996(15) 0.5437(2) 0.37729(7)
C2B C -0.15667(15) 0.6867(2) 0.38257(7)
C3B C -0.155(3) 0.862(6) 0.342(2)
O1B O -0.2165(5) 0.9489(9) 0.3007(2)
O2B O -0.046(2) 0.959(4) 0.3659(12)
C4B C 0.01535(14) 0.8519(2) 0.41379(7)
C5B C 0.13034(14) 0.9138(2) 0.44683(8)
C6B C 0.19494(15) 0.8285(2) 0.50191(8)
C7B C 0.31650(15) 0.8803(3) 0.53373(8)
H1B H 0.3659 0.9844 0.5228
C8B C 0.34916(16) 0.7526(3) 0.58299(8)
H2B H 0.4250 0.7537 0.6122
C9B C 0.24955(14) 0.6187(2) 0.58254(8)
C10B C -0.36149(15) 0.5665(3) 0.32632(8)
C11B C -0.43872(16) 0.7295(3) 0.32459(8)
H3B H -0.4209 0.8279 0.3559
C12B C -0.54196(17) 0.7492(3) 0.27717(10)
H4B H -0.5938 0.8615 0.2763
C13B C -0.56944(18) 0.6099(3) 0.23214(9)
H5B H -0.6402 0.6250 0.2000
C14B C -0.4951(2) 0.4474(3) 0.23298(9)
H6B H -0.5147 0.3502 0.2014
C15B C -0.39071(17) 0.4237(3) 0.27999(8)
H7B H -0.3397 0.3106 0.2804
C16B C 0.19518(14) 1.0793(2) 0.42045(8)
C17B C 0.24083(18) 1.0515(3) 0.36609(9)
H8B H 0.2281 0.9288 0.3449
C18B C 0.30455(18) 1.2001(3) 0.34248(9)
H9B H 0.3346 1.1788 0.3051
C19B C 0.32472(16) 1.3772(3) 0.37246(9)
H10B H 0.3694 1.4783 0.3564
C20B C 0.2798(2) 1.4073(3) 0.42585(11)
H11B H 0.2932 1.5301 0.4469
C21B C 0.2143(2) 1.2588(3) 0.44949(10)
H12B H 0.1826 1.2823 0.4863
N1B N -0.05093(12) 0.69246(19) 0.42626(6)
N2B N 0.15737(12) 0.67128(19) 0.53360(6)
H13B H 0.0849 0.6130 0.5239
C22? C 0.1691(15) 0.147(2) 0.6639(8)
H14? H 0.1737 0.1966 0.7068
H15? H 0.2432 0.0655 0.6624
C23? C 0.0465(15) 0.026(2) 0.6411(7)
H16? H 0.0643 -0.1096 0.6283
H17? H -0.0046 0.0188 0.6737
C24? C 0.057(3) 0.056(5) 0.6430(17)
O3? O 0.0587(5) -0.0845(8) 0.6740(3)
O4? O 0.162(2) 0.169(4) 0.6597(13)
loop_
_geom_bond_atom_site_label_1
_geom_bond_atom_site_label_2
_geom_bond_site_symmetry_1
_geom_bond_site_symmetry_2
C1 C2 1_555 1_555
C2 C3 1_555 1_555
C3 O1 1_555 1_555
O2 C3 1_555 1_555
C4 O2 1_555 1_555
C5 C4 1_555 1_555
C6 C5 1_555 1_555
C7 C6 1_555 1_555
H1 C7 1_555 1_555
C8 C7 1_555 1_555
H2 C8 1_555 1_555
C9 C8 1_555 1_555
C10 C1 1_555 1_555
C11 C10 1_555 1_555
H3 C11 1_555 1_555
C12 C11 1_555 1_555
H4 C12 1_555 1_555
C13 C12 1_555 1_555
H5 C13 1_555 1_555
C14 C13 1_555 1_555
H6 C14 1_555 1_555
C15 C10 1_555 1_555
H7 C15 1_555 1_555
C16 C5 1_555 1_555
C17 C16 1_555 1_555
H8 C17 1_555 1_555
C18 C17 1_555 1_555
H9 C18 1_555 1_555
C19 C18 1_555 1_555
H10 C19 1_555 1_555
C20 C19 1_555 1_555
H11 C20 1_555 1_555
C21 C16 1_555 1_555
H12 C21 1_555 1_555
N1 C2 1_555 1_555
N2 C6 1_555 1_555
H13 N2 1_555 1_555
C1B C9 1_555 1_555
C2B C1B 1_555 1_555
C3B C2B 1_555 1_555
O1B C3B 1_555 1_555
O2B C3B 1_555 1_555
C4B O2B 1_555 1_555
C5B C4B 1_555 1_555
C6B C5B 1_555 1_555
C7B C6B 1_555 1_555
H1B C7B 1_555 1_555
C8B C7B 1_555 1_555
H2B C8B 1_555 1_555
C9B C1 1_555 1_555
C10B C1B 1_555 1_555
C11B C10B 1_555 1_555
H3B C11B 1_555 1_555
C12B C11B 1_555 1_555
H4B C12B 1_555 1_555
C13B C12B 1_555 1_555
H5B C13B 1_555 1_555
C14B C13B 1_555 1_555
H6B C14B 1_555 1_555
C15B C10B 1_555 1_555
H7B C15B 1_555 1_555
C16B C5B 1_555 1_555
C17B C16B 1_555 1_555
H8B C17B 1_555 1_555
C18B C17B 1_555 1_555
H9B C18B 1_555 1_555
C19B C18B 1_555 1_555
H10B C19B 1_555 1_555
C20B C19B 1_555 1_555
H11B C20B 1_555 1_555
C21B C16B 1_555 1_555
H12B C21B 1_555 1_555
N1B C2B 1_555 1_555
N2B C6B 1_555 1_555
H13B N2B 1_555 1_555
C4 N1 1_555 1_555
C9 N2 1_555 1_555
C14 C15 1_555 1_555
C20 C21 1_555 1_555
C4B N1B 1_555 1_555
C8B C9B 1_555 1_555
C9B N2B 1_555 1_555
C14B C15B 1_555 1_555
C20B C21B 1_555 1_555

#END
