
#######################################################################
#
#                 Cambridge Crystallographic Data Centre
#                                CCDC 
#
#######################################################################
#
# If this CIF has been generated from an entry in the Cambridge 
# Structural Database, then it will include bibliographic, chemical, 
# crystal, experimental, refinement or atomic coordinate data resulting 
# from the CCDC's data processing and validation procedures.
#
#######################################################################

data_YIHBAT
_chemical_formula_moiety         'C29 H37 B1 F1 P1,0.5(C1 H1 Cl3),0.5(C2 H6 O1)'
_chemical_name_systematic        
'10-Fluoro-5,5-dimethyl-10-(2,4,6-tri-isopropylphenyl)phenophosphaborinine chloroform ethanol solvate'
_symmetry_cell_setting           monoclinic
_symmetry_space_group_name_H-M   'P 21/c'
_symmetry_Int_Tables_number      14
_space_group_name_Hall           '-P 2ybc'
loop_
_symmetry_equiv_pos_site_id
_symmetry_equiv_pos_as_xyz
1 x,y,z
2 -x,1/2+y,1/2-z
3 -x,-y,-z
4 x,1/2-y,1/2+z
_cell_length_a                   12.223(2)
_cell_length_b                   9.6112(16)
_cell_length_c                   25.351(8)
_cell_angle_alpha                90.000(4)
_cell_angle_beta                 101.271(5)
_cell_angle_gamma                90.000(4)
_cell_volume                     2920.74
_cell_formula_units_Z            4
loop_
_atom_site_label
_atom_site_type_symbol
_atom_site_fract_x
_atom_site_fract_y
_atom_site_fract_z
C30 C 0.4451(3) 0.3779(4) 0.67538(14)
H38 H 0.3871 0.3220 0.6511
Cl1 Cl 0.37883(10) 0.49797(13) 0.70899(5)
Cl2 Cl 0.52601(9) 0.26459(13) 0.72214(4)
Cl3 Cl 0.52901(8) 0.46130(12) 0.63616(4)
B1 B 0.11546(17) 0.0742(2) 0.65509(8)
P1 P -0.09838(4) 0.21136(5) 0.697892(19)
F1 F 0.14593(9) -0.06824(11) 0.67300(4)
C1 C -0.18584(17) 0.1330(2) 0.73872(9)
H1 H -0.2621 0.1254 0.7180
H2 H -0.1857 0.1907 0.7706
H3 H -0.1575 0.0400 0.7499
C2 C -0.14962(18) 0.3855(2) 0.68443(9)
H4 H -0.1035 0.4341 0.6627
H5 H -0.1464 0.4351 0.7185
H6 H -0.2270 0.3822 0.6647
C3 C 0.12906(15) 0.16210(19) 0.71129(7)
C4 C 0.23653(16) 0.1737(2) 0.74365(8)
H7 H 0.2986 0.1416 0.7296
C5 C 0.25552(17) 0.2298(2) 0.79496(8)
H8 H 0.3294 0.2346 0.8154
C6 C 0.16656(18) 0.2792(2) 0.81677(8)
H9 H 0.1793 0.3163 0.8522
C7 C 0.06011(17) 0.2736(2) 0.78635(8)
H10 H -0.0010 0.3089 0.8003
C8 C 0.04236(16) 0.21533(19) 0.73444(7)
C9 C -0.01336(15) 0.05989(19) 0.62145(7)
C10 C -0.03315(16) -0.0173(2) 0.57338(8)
H11 H 0.0284 -0.0605 0.5622
C11 C -0.13859(17) -0.0332(2) 0.54156(8)
H12 H -0.1480 -0.0862 0.5094
C12 C -0.23076(17) 0.0290(2) 0.55695(8)
H13 H -0.3028 0.0208 0.5348
C13 C -0.21631(16) 0.1023(2) 0.60453(8)
H14 H -0.2787 0.1433 0.6157
C14 C -0.10877(15) 0.11622(19) 0.63658(7)
C15 C 0.19800(15) 0.13881(19) 0.61610(7)
C16 C 0.29626(15) 0.07346(19) 0.60591(7)
C17 C 0.35914(16) 0.1357(2) 0.57138(8)
H15 H 0.4237 0.0890 0.5649
C18 C 0.33061(17) 0.2631(2) 0.54623(8)
C19 C 0.23677(17) 0.3290(2) 0.55706(8)
H16 H 0.2161 0.4168 0.5410
C20 C 0.17137(16) 0.27072(19) 0.59076(7)
C21 C 0.33797(16) -0.0681(2) 0.62987(8)
H17 H 0.3146 -0.0771 0.6654
C22 C 0.46509(18) -0.0865(3) 0.63979(10)
H18 H 0.4892 -0.0933 0.6052
H19 H 0.4860 -0.1717 0.6606
H20 H 0.5012 -0.0064 0.6599
C23 C 0.28212(19) -0.1861(2) 0.59386(10)
H21 H 0.2011 -0.1814 0.5912
H22 H 0.3098 -0.2758 0.6094
H23 H 0.2996 -0.1767 0.5579
C24 C 0.39737(19) 0.3326(2) 0.50852(9)
H24 H 0.4137 0.4298 0.5218
C25 C 0.5086(2) 0.2635(3) 0.50751(11)
H25 H 0.5537 0.2616 0.5440
H26 H 0.5480 0.3162 0.4839
H27 H 0.4958 0.1681 0.4940
C26 C 0.3279(2) 0.3431(3) 0.45124(10)
H28 H 0.3685 0.3984 0.4289
H29 H 0.2564 0.3880 0.4524
H30 H 0.3144 0.2496 0.4359
C27 C 0.06960(17) 0.3556(2) 0.59793(8)
H31 H 0.0394 0.3128 0.6281
C28 C 0.0976(2) 0.5080(2) 0.61281(10)
H32 H 0.1583 0.5119 0.6444
H33 H 0.0315 0.5544 0.6211
H34 H 0.1208 0.5552 0.5825
C29 C -0.02268(18) 0.3481(2) 0.54706(9)
H35 H 0.0062 0.3836 0.5162
H36 H -0.0865 0.4046 0.5522
H37 H -0.0465 0.2512 0.5404
C31? C 0.5651(5) 0.2790(8) 0.6621(3)
H39? H 0.5102 0.2062 0.6493
H40? H 0.6385 0.2366 0.6745
H41? H 0.5688 0.3441 0.6328
C32? C 0.5340(12) 0.3488(12) 0.7036(5)
H42? H 0.6012 0.3921 0.7256
H43? H 0.5050 0.2805 0.7267
O1? O 0.4463(13) 0.461(2) 0.6873(7)
H44? H 0.4087 0.4435 0.6566
loop_
_geom_bond_atom_site_label_1
_geom_bond_atom_site_label_2
_geom_bond_site_symmetry_1
_geom_bond_site_symmetry_2
B1 F1 1_555 1_555
P1 C1 1_555 1_555
C1 H1 1_555 1_555
H2 C1 1_555 1_555
H3 C1 1_555 1_555
C2 P1 1_555 1_555
H4 C2 1_555 1_555
H5 C2 1_555 1_555
H6 C2 1_555 1_555
C3 B1 1_555 1_555
C4 C3 1_555 1_555
H7 C4 1_555 1_555
C5 C4 1_555 1_555
H8 C5 1_555 1_555
C6 C5 1_555 1_555
H9 C6 1_555 1_555
C7 C6 1_555 1_555
H10 C7 1_555 1_555
C8 P1 1_555 1_555
C9 B1 1_555 1_555
C10 C9 1_555 1_555
H11 C10 1_555 1_555
C11 C10 1_555 1_555
H12 C11 1_555 1_555
C12 C11 1_555 1_555
H13 C12 1_555 1_555
C13 C12 1_555 1_555
H14 C13 1_555 1_555
C14 P1 1_555 1_555
C15 B1 1_555 1_555
C16 C15 1_555 1_555
C17 C16 1_555 1_555
H15 C17 1_555 1_555
C18 C17 1_555 1_555
C19 C18 1_555 1_555
H16 C19 1_555 1_555
C20 C15 1_555 1_555
C21 C16 1_555 1_555
H17 C21 1_555 1_555
C22 C21 1_555 1_555
H18 C22 1_555 1_555
H19 C22 1_555 1_555
H20 C22 1_555 1_555
C23 C21 1_555 1_555
H21 C23 1_555 1_555
H22 C23 1_555 1_555
H23 C23 1_555 1_555
C24 C18 1_555 1_555
H24 C24 1_555 1_555
C25 C24 1_555 1_555
H25 C25 1_555 1_555
H26 C25 1_555 1_555
H27 C25 1_555 1_555
C26 C24 1_555 1_555
H28 C26 1_555 1_555
H29 C26 1_555 1_555
H30 C26 1_555 1_555
C27 C20 1_555 1_555
H31 C27 1_555 1_555
C28 C27 1_555 1_555
H32 C28 1_555 1_555
H33 C28 1_555 1_555
H34 C28 1_555 1_555
C29 C27 1_555 1_555
H35 C29 1_555 1_555
H36 C29 1_555 1_555
H37 C29 1_555 1_555
C30 H38 1_555 1_555
Cl1 C30 1_555 1_555
Cl2 C30 1_555 1_555
Cl3 C30 1_555 1_555
C3 C8 1_555 1_555
C7 C8 1_555 1_555
C9 C14 1_555 1_555
C13 C14 1_555 1_555
C19 C20 1_555 1_555

#END
