
#######################################################################
#
#                 Cambridge Crystallographic Data Centre
#                                CCDC 
#
#######################################################################
#
# If this CIF has been generated from an entry in the Cambridge 
# Structural Database, then it will include bibliographic, chemical, 
# crystal, experimental, refinement or atomic coordinate data resulting 
# from the CCDC's data processing and validation procedures.
#
#######################################################################

data_YIHDOK
_chemical_formula_moiety         'C24 H28 N1 O4 1+,C1 H4 O1,Cl1 1-'
_chemical_name_systematic        
'2,3,6,7-Tetramethoxy-9,11,12,13,13a,14-hexahydrodibenzo[f,h]pyrrolo[1,2-b]isoquinolinium chloride methanol solvate'
_symmetry_cell_setting           monoclinic
_symmetry_space_group_name_H-M   'C 2/c'
_symmetry_Int_Tables_number      15
_space_group_name_Hall           '-C 2yn'
loop_
_symmetry_equiv_pos_site_id
_symmetry_equiv_pos_as_xyz
1 x,y,z
2 -x,y,1/2-z
3 1/2+x,1/2+y,z
4 1/2-x,1/2+y,1/2-z
5 -x,-y,-z
6 x,-y,1/2+z
7 1/2-x,1/2-y,-z
8 1/2+x,1/2-y,1/2+z
_cell_length_a                   13.8857(15)
_cell_length_b                   16.496(2)
_cell_length_c                   19.620(3)
_cell_angle_alpha                90
_cell_angle_beta                 90.266(8)
_cell_angle_gamma                90
_cell_volume                     4494.08
_exptl_crystal_colour            colorless
_exptl_crystal_description       Prism
_cell_formula_units_Z            8
loop_
_atom_site_label
_atom_site_type_symbol
_atom_site_fract_x
_atom_site_fract_y
_atom_site_fract_z
Cl1 Cl 0.39196(4) 0.02440(3) 0.63415(3)
O1 O 0.11495(11) 0.78076(8) 0.34166(6)
O2 O 0.10739(10) 0.92075(8) 0.39596(6)
O3 O 0.12288(10) 0.95900(8) 0.76641(6)
O4 O 0.12198(11) 0.82998(9) 0.83994(6)
C1 C 0.1321(2) 0.41400(14) 0.55905(12)
H1 H 0.0678 0.4173 0.5412
H2 H 0.1736 0.3907 0.5253
C2 C 0.13520(18) 0.36640(13) 0.62409(11)
H3 H 0.1948 0.3336 0.6267
H4 H 0.0791 0.3296 0.6270
C3 C 0.13283(18) 0.42896(13) 0.68177(11)
H5 H 0.1942 0.4324 0.7043
H6 H 0.0843 0.4155 0.7146
N1 N 0.1089(3) 0.5077(2) 0.64507(17)
H7 H 0.0437 0.5094 0.6340
C4 C 0.1683(4) 0.4985(3) 0.5818(2)
H8 H 0.2390 0.4993 0.5915
C5 C 0.13795(16) 0.58321(12) 0.68316(10)
H9 H 0.2021 0.5764 0.7008
H10 H 0.0953 0.5915 0.7209
C6 C 0.13459(14) 0.65622(12) 0.63656(9)
C7 C 0.13132(14) 0.73488(12) 0.66836(9)
C8 C 0.12989(14) 0.74266(12) 0.74059(9)
H11 H 0.1319 0.6953 0.7681
C9 C 0.12566(14) 0.81703(12) 0.77106(9)
C10 C 0.12472(14) 0.88810(12) 0.73035(9)
C11 C 0.12651(14) 0.88213(11) 0.66074(9)
H12 H 0.1266 0.9301 0.6340
C12 C 0.12828(14) 0.80543(12) 0.62776(9)
C13 C 0.12497(13) 0.79740(12) 0.55420(9)
C14 C 0.11820(13) 0.86607(12) 0.51072(9)
H13 H 0.1161 0.9187 0.5303
C15 C 0.11459(14) 0.85819(12) 0.44143(9)
C16 C 0.11903(14) 0.78006(12) 0.41123(9)
C17 C 0.12574(14) 0.71278(12) 0.45202(9)
H14 H 0.1287 0.6606 0.4316
C18 C 0.12828(13) 0.71948(11) 0.52413(9)
C19 C 0.13383(14) 0.64889(12) 0.56732(9)
C20 C 0.13692(17) 0.56662(12) 0.53328(10)
H15 H 0.0741 0.5540 0.5155
H16 H 0.1808 0.5689 0.4957
C21 C 0.12330(16) 0.70461(12) 0.30787(9)
H17 H 0.1843 0.6789 0.3208
H18 H 0.1217 0.7131 0.2584
H19 H 0.0696 0.6695 0.3211
C22 C 0.07445(16) 0.99701(12) 0.42190(9)
H20 H 0.0115 0.9898 0.4435
H21 H 0.0686 1.0359 0.3844
H22 H 0.1207 1.0175 0.4556
C23 C 0.12309(16) 1.03335(12) 0.72810(10)
H23 H 0.1830 1.0374 0.7021
H24 H 0.1184 1.0794 0.7594
H25 H 0.0680 1.0339 0.6967
C24 C 0.11499(16) 0.75947(13) 0.88223(9)
H26 H 0.0576 0.7283 0.8693
H27 H 0.1101 0.7760 0.9301
H28 H 0.1725 0.7258 0.8762
O5 O 0.19085(11) 0.05953(10) 0.56496(7)
H39 H 0.2449 0.0543 0.5838
C26 C 0.15725(18) 0.13995(14) 0.57429(12)
H40 H 0.1597 0.1538 0.6228
H41 H 0.0907 0.1441 0.5578
H42 H 0.1981 0.1775 0.5487
H29? H 0.0842 0.3924 0.5286
H30? H 0.1935 0.4136 0.5368
H31? H 0.1769 0.4143 0.7176
H32? H 0.0693 0.4342 0.7003
N2? N 0.1045(3) 0.5032(2) 0.58235(18)
H33? H 0.0391 0.5077 0.5917
C25? C 0.1644(3) 0.5079(3) 0.6462(2)
H34? H 0.2347 0.5068 0.6354
H35? H 0.1841 0.5928 0.7189
H36? H 0.0760 0.5756 0.7038
H37? H 0.0955 0.5667 0.4939
H38? H 0.2013 0.5549 0.5187
loop_
_geom_bond_atom_site_label_1
_geom_bond_atom_site_label_2
_geom_bond_site_symmetry_1
_geom_bond_site_symmetry_2
O1 C16 1_555 1_555
O2 C15 1_555 1_555
O3 C10 1_555 1_555
O4 C9 1_555 1_555
C1 H1 1_555 1_555
H2 C1 1_555 1_555
C2 C1 1_555 1_555
H3 C2 1_555 1_555
H4 C2 1_555 1_555
C3 C2 1_555 1_555
H5 C3 1_555 1_555
H6 C3 1_555 1_555
N1 C3 1_555 1_555
H7 N1 1_555 1_555
C4 C1 1_555 1_555
H8 C4 1_555 1_555
C5 N1 1_555 1_555
H9 C5 1_555 1_555
H10 C5 1_555 1_555
C6 C5 1_555 1_555
C7 C6 1_555 1_555
C8 C7 1_555 1_555
H11 C8 1_555 1_555
C9 C8 1_555 1_555
C10 C9 1_555 1_555
C11 C10 1_555 1_555
H12 C11 1_555 1_555
C12 C7 1_555 1_555
C13 C12 1_555 1_555
C14 C13 1_555 1_555
H13 C14 1_555 1_555
C15 C14 1_555 1_555
C16 C15 1_555 1_555
C17 C16 1_555 1_555
H14 C17 1_555 1_555
C18 C13 1_555 1_555
C19 C6 1_555 1_555
C20 C4 1_555 1_555
H15 C20 1_555 1_555
H16 C20 1_555 1_555
C21 O1 1_555 1_555
H17 C21 1_555 1_555
H18 C21 1_555 1_555
H19 C21 1_555 1_555
C22 O2 1_555 1_555
H20 C22 1_555 1_555
H21 C22 1_555 1_555
H22 C22 1_555 1_555
C23 O3 1_555 1_555
H23 C23 1_555 1_555
H24 C23 1_555 1_555
H25 C23 1_555 1_555
C24 O4 1_555 1_555
H26 C24 1_555 1_555
H27 C24 1_555 1_555
H28 C24 1_555 1_555
O5 H39 1_555 1_555
C26 O5 1_555 1_555
H40 C26 1_555 1_555
H41 C26 1_555 1_555
H42 C26 1_555 1_555
N1 C4 1_555 1_555
C11 C12 1_555 1_555
C17 C18 1_555 1_555
C18 C19 1_555 1_555
C19 C20 1_555 1_555

#END
