
#######################################################################
#
#                 Cambridge Crystallographic Data Centre
#                                CCDC 
#
#######################################################################
#
# If this CIF has been generated from an entry in the Cambridge 
# Structural Database, then it will include bibliographic, chemical, 
# crystal, experimental, refinement or atomic coordinate data resulting 
# from the CCDC's data processing and validation procedures.
#
#######################################################################

data_YIHDUQ
_chemical_formula_moiety         
'C24 H28 N1 O4 1+,C7 H5 O6 S1 1-,1.75(C1 H4 O1)'
_chemical_name_systematic        
'2,3,6,7-Tetramethoxy-9,11,12,13,13a,14-hexahydrodibenzo[f,h]pyrrolo[1,2-b]isoquinolinium 3-carboxy-4-hydroxybenzenesulfonate methanol solvate'
_symmetry_cell_setting           monoclinic
_symmetry_space_group_name_H-M   'C 2/c'
_symmetry_Int_Tables_number      15
_space_group_name_Hall           '-C 2yn'
loop_
_symmetry_equiv_pos_site_id
_symmetry_equiv_pos_as_xyz
1 x,y,z
2 -x,y,1/2-z
3 1/2+x,1/2+y,z
4 1/2-x,1/2+y,1/2-z
5 -x,-y,-z
6 x,-y,1/2+z
7 1/2-x,1/2-y,-z
8 1/2+x,1/2-y,1/2+z
_cell_length_a                   17.749(7)
_cell_length_b                   16.668(6)
_cell_length_c                   21.755(8)
_cell_angle_alpha                90
_cell_angle_beta                 94.496(8)
_cell_angle_gamma                90
_cell_volume                     6416.2
_exptl_crystal_colour            colorless
_exptl_crystal_description       Prism
_cell_formula_units_Z            8
loop_
_atom_site_label
_atom_site_type_symbol
_atom_site_fract_x
_atom_site_fract_y
_atom_site_fract_z
O7 O 1.05495(5) 0.51251(6) 0.18180(5)
O8 O 0.95443(6) 0.40700(6) 0.14624(5)
O9 O 0.57863(6) 0.53285(6) 0.03208(5)
O10 O 0.54853(6) 0.68340(6) 0.02018(5)
C8 C 0.87513(8) 0.73282(9) 0.12990(6)
C9 C 0.89403(8) 0.64890(9) 0.13583(6)
C10 C 0.96791(8) 0.62295(9) 0.15823(7)
H6 H 1.0052 0.6617 0.1709
C11 C 0.98572(8) 0.54336(9) 0.16172(7)
C12 C 0.93054(8) 0.48435(9) 0.14300(7)
C13 C 0.85877(8) 0.50841(9) 0.12267(7)
H7 H 0.8216 0.4689 0.1114
C14 C 0.83890(7) 0.59042(9) 0.11809(6)
C15 C 0.76406(8) 0.61520(9) 0.09363(7)
C16 C 0.70697(8) 0.55900(9) 0.07553(7)
H8 H 0.7174 0.5033 0.0799
C17 C 0.63651(8) 0.58353(9) 0.05167(7)
C18 C 0.62002(8) 0.66613(9) 0.04506(7)
C19 C 0.67459(8) 0.72175(9) 0.06237(6)
H9 H 0.6632 0.7772 0.0579
C20 C 0.74804(8) 0.69797(9) 0.08702(6)
C21 C 0.80516(8) 0.75641(9) 0.10528(6)
C22 C 1.11443(8) 0.56921(9) 0.19660(8)
H10 H 1.1610 0.5405 0.2101
H11 H 1.1002 0.6045 0.2298
H12 H 1.1227 0.6014 0.1600
C23 C 0.90432(8) 0.34765(9) 0.11759(8)
H13 H 0.9275 0.2945 0.1226
H14 H 0.8950 0.3597 0.0736
H15 H 0.8564 0.3483 0.1371
C24 C 0.59232(9) 0.44876(10) 0.03944(9)
H16 H 0.5474 0.4188 0.0236
H17 H 0.6035 0.4365 0.0833
H18 H 0.6354 0.4333 0.0165
C25 C 0.52959(9) 0.76668(10) 0.01323(8)
H19 H 0.4775 0.7718 -0.0048
H20 H 0.5640 0.7923 -0.0139
H21 H 0.5344 0.7929 0.0537
C26 C 0.93551(8) 0.79363(9) 0.15117(8)
H22 H 0.9735 0.7949 0.1221
H23 H 0.9592 0.7772 0.1903
C27 C 0.85428(14) 0.89932(14) 0.10050(12)
H24 H 0.8830 0.8917 0.0632
N1 N 0.90341(11) 0.87589(11) 0.15718(10)
H25 H 0.8723 0.8741 0.1896
C28 C 0.9557(3) 0.9447(3) 0.1694(2)
H26 H 1.0055 0.9333 0.1538
H27 H 0.9630 0.9559 0.2141
C29 C 0.8393(3) 0.9879(3) 0.1094(4)
H28 H 0.8008 0.9969 0.1392
H29 H 0.8231 1.0146 0.0699
C30 C 0.91772(10) 1.01635(10) 0.13488(8)
H30 H 0.9471 1.0332 0.1020
H31 H 0.9131 1.0607 0.1625
C31 C 0.78458(8) 0.84375(9) 0.09627(7)
H32 H 0.7515 0.8595 0.1270
H33 H 0.7576 0.8504 0.0566
S1 S 0.18719(2) 0.82573(2) 0.198701(19)
O1 O 0.30027(6) 0.54507(6) 0.26680(5)
H1 H 0.3126 0.4965 0.2699
O2 O 0.41890(6) 0.56206(6) 0.30844(5)
O3 O 0.47240(6) 0.70562(6) 0.32290(5)
H2 H 0.4719 0.6555 0.3266
O4 O 0.20778(7) 0.85417(8) 0.14016(5)
O5 O 0.16509(6) 0.89351(6) 0.23738(5)
O6 O 0.13129(7) 0.76333(7) 0.19664(7)
C1 C 0.35882(8) 0.59059(8) 0.28586(7)
C2 C 0.34722(8) 0.67679(8) 0.27613(7)
C3 C 0.40599(8) 0.73047(9) 0.29493(7)
C4 C 0.39623(9) 0.81269(9) 0.28490(7)
H3 H 0.4357 0.8491 0.2974
C5 C 0.32924(9) 0.84075(9) 0.25678(7)
H4 H 0.3227 0.8967 0.2499
C6 C 0.27041(8) 0.78776(8) 0.23806(7)
C7 C 0.27936(8) 0.70673(8) 0.24806(6)
H5 H 0.2393 0.6709 0.2358
H34? H 0.9837 0.7759 0.1391
H35? H 0.9386 0.7978 0.1953
H36? H 0.9350 1.0405 0.0985
H37? H 0.9194 1.0554 0.1674
C32? C 0.9177(2) 0.8734(3) 0.1233(3)
H38? H 0.9245 0.8719 0.0781
N2? N 0.8369(2) 0.8933(2) 0.1336(2)
H39? H 0.8293 0.8849 0.1749
C33? C 0.9652(6) 0.9419(5) 0.1540(5)
H40? H 0.9707 0.9357 0.1994
H41? H 1.0159 0.9445 0.1382
C34? C 0.8372(6) 0.9813(6) 0.1215(9)
H42? H 0.8020 1.0083 0.1479
H43? H 0.8195 0.9915 0.0779
H44? H 0.7343 0.8528 0.1080
H45? H 0.7859 0.8578 0.0536
loop_
_geom_bond_atom_site_label_1
_geom_bond_atom_site_label_2
_geom_bond_site_symmetry_1
_geom_bond_site_symmetry_2
S1 O4 1_555 1_555
O1 H1 1_555 1_555
O2 C1 1_555 1_555
O3 H2 1_555 1_555
O5 S1 1_555 1_555
O6 S1 1_555 1_555
C1 O1 1_555 1_555
C2 C1 1_555 1_555
C3 O3 1_555 1_555
C4 C3 1_555 1_555
H3 C4 1_555 1_555
C5 C4 1_555 1_555
H4 C5 1_555 1_555
C6 S1 1_555 1_555
C7 C2 1_555 1_555
H5 C7 1_555 1_555
O7 C11 1_555 1_555
O8 C12 1_555 1_555
O9 C17 1_555 1_555
O10 C18 1_555 1_555
C8 C9 1_555 1_555
C9 C10 1_555 1_555
C10 H6 1_555 1_555
C11 C10 1_555 1_555
C12 C11 1_555 1_555
C13 C12 1_555 1_555
H7 C13 1_555 1_555
C14 C9 1_555 1_555
C15 C14 1_555 1_555
C16 C15 1_555 1_555
H8 C16 1_555 1_555
C17 C16 1_555 1_555
C18 C17 1_555 1_555
C19 C18 1_555 1_555
H9 C19 1_555 1_555
C20 C15 1_555 1_555
C21 C8 1_555 1_555
C22 O7 1_555 1_555
H10 C22 1_555 1_555
H11 C22 1_555 1_555
H12 C22 1_555 1_555
C23 O8 1_555 1_555
H13 C23 1_555 1_555
H14 C23 1_555 1_555
H15 C23 1_555 1_555
C24 O9 1_555 1_555
H16 C24 1_555 1_555
H17 C24 1_555 1_555
H18 C24 1_555 1_555
C25 O10 1_555 1_555
H19 C25 1_555 1_555
H20 C25 1_555 1_555
H21 C25 1_555 1_555
C26 C8 1_555 1_555
H22 C26 1_555 1_555
H23 C26 1_555 1_555
C27 H24 1_555 1_555
N1 C26 1_555 1_555
H25 N1 1_555 1_555
C28 N1 1_555 1_555
H26 C28 1_555 1_555
H27 C28 1_555 1_555
C29 C27 1_555 1_555
H28 C29 1_555 1_555
H29 C29 1_555 1_555
C30 C28 1_555 1_555
H30 C30 1_555 1_555
H31 C30 1_555 1_555
C31 C21 1_555 1_555
H32 C31 1_555 1_555
H33 C31 1_555 1_555
C2 C3 1_555 1_555
C5 C6 1_555 1_555
C6 C7 1_555 1_555
C13 C14 1_555 1_555
C19 C20 1_555 1_555
C20 C21 1_555 1_555
C27 N1 1_555 1_555
C27 C31 1_555 1_555
C29 C30 1_555 1_555

#END
