
#######################################################################
#
#                 Cambridge Crystallographic Data Centre
#                                CCDC 
#
#######################################################################
#
# If this CIF has been generated from an entry in the Cambridge 
# Structural Database, then it will include bibliographic, chemical, 
# crystal, experimental, refinement or atomic coordinate data resulting 
# from the CCDC's data processing and validation procedures.
#
#######################################################################

data_YIHFIH
_chemical_formula_moiety         'C21 H15 N1 O2'
_chemical_name_systematic        (acridin-4-yl)(4-methoxyphenyl)methanone
_symmetry_cell_setting           triclinic
_symmetry_space_group_name_H-M   'P -1'
_symmetry_Int_Tables_number      2
_space_group_name_Hall           '-P 1'
loop_
_symmetry_equiv_pos_site_id
_symmetry_equiv_pos_as_xyz
1 x,y,z
2 -x,-y,-z
_cell_length_a                   8.46896(17)
_cell_length_b                   9.70529(17)
_cell_length_c                   11.11574(17)
_cell_angle_alpha                68.2539(10)
_cell_angle_beta                 88.8699(10)
_cell_angle_gamma                70.7452(10)
_cell_volume                     795.666
_exptl_crystal_colour            colorless
_exptl_crystal_description       block
_cell_formula_units_Z            2
loop_
_atom_site_label
_atom_site_type_symbol
_atom_site_fract_x
_atom_site_fract_y
_atom_site_fract_z
C1 C 0.36673(19) 0.98858(18) 0.65762(15)
C2 C 0.4526(2) 0.9881(2) 0.76796(16)
C3 C 0.4828(2) 1.1203(2) 0.76013(19)
H1 H 0.5408 1.1182 0.8314
C4 C 0.4282(3) 1.2610(2) 0.6466(2)
H2 H 0.448 1.3504 0.6449
C5 C 0.3472(2) 1.2658(2) 0.54042(18)
H3 H 0.3129 1.3584 0.4658
C6 C 0.3143(2) 1.13078(19) 0.54197(15)
C7 C 0.2360(2) 1.1289(2) 0.43434(16)
H4 H 0.2023 1.2186 0.3574
C8 C 0.2077(2) 0.99325(19) 0.44127(15)
C9 C 0.1268(2) 0.9828(2) 0.33522(18)
H5 H 0.0899 1.07 0.2567
C10 C 0.1033(3) 0.8470(3) 0.3478(2)
H6 H 0.0506 0.8417 0.2779
C11 C 0.1581(3) 0.7127(3) 0.4666(2)
H7 H 0.1402 0.6205 0.4742
C12 C 0.2361(2) 0.7175(2) 0.56892(19)
H8 H 0.2719 0.6281 0.646
C13 C 0.2646(2) 0.85716(19) 0.56092(15)
C14 C 0.5230(2) 0.8399(2) 0.88929(17)
C15 C 0.4107(2) 0.7650(2) 0.97051(15)
C16 C 0.4814(2) 0.6205(2) 1.07605(16)
H9 H 0.5979 0.5732 1.0933
C17 C 0.3818(2) 0.5475(2) 1.15449(17)
H10 H 0.4309 0.4512 1.224
C18 C 0.2082(2) 0.6173(2) 1.13005(16)
C19 C 0.1340(2) 0.7610(2) 1.02544(18)
H11 H 0.0174 0.8081 1.0083
C20 C 0.2369(2) 0.8322(2) 0.94775(16)
H12 H 0.1879 0.9283 0.878
C21 C -0.0586(18) 0.6093(15) 1.1916(11)
N1 N 0.34373(17) 0.85486(16) 0.66556(13)
O1 O 0.6737(2) 0.7882(2) 0.92208(17)
O2 O 0.12003(19) 0.53674(19) 1.21419(14)
C22? C -0.0582(19) 0.5655(16) 1.1694(15)
loop_
_geom_bond_atom_site_label_1
_geom_bond_atom_site_label_2
_geom_bond_site_symmetry_1
_geom_bond_site_symmetry_2
C1 C2 1_555 1_555
C2 C3 1_555 1_555
C3 H1 1_555 1_555
C4 C3 1_555 1_555
H2 C4 1_555 1_555
C5 C4 1_555 1_555
H3 C5 1_555 1_555
C6 C1 1_555 1_555
C7 C6 1_555 1_555
H4 C7 1_555 1_555
C8 C7 1_555 1_555
C9 C8 1_555 1_555
H5 C9 1_555 1_555
C10 C9 1_555 1_555
H6 C10 1_555 1_555
C11 C10 1_555 1_555
H7 C11 1_555 1_555
C12 C11 1_555 1_555
H8 C12 1_555 1_555
C13 C8 1_555 1_555
C14 C2 1_555 1_555
C15 C14 1_555 1_555
C16 C15 1_555 1_555
H9 C16 1_555 1_555
C17 C16 1_555 1_555
H10 C17 1_555 1_555
C18 C17 1_555 1_555
C19 C18 1_555 1_555
H11 C19 1_555 1_555
C20 C15 1_555 1_555
H12 C20 1_555 1_555
C21 O2 1_555 1_555
N1 C1 1_555 1_555
O1 C14 1_555 1_555
O2 C18 1_555 1_555
C5 C6 1_555 1_555
C12 C13 1_555 1_555
C13 N1 1_555 1_555
C19 C20 1_555 1_555

#END
