
#######################################################################
#
#                 Cambridge Crystallographic Data Centre
#                                CCDC 
#
#######################################################################
#
# If this CIF has been generated from an entry in the Cambridge 
# Structural Database, then it will include bibliographic, chemical, 
# crystal, experimental, refinement or atomic coordinate data resulting 
# from the CCDC's data processing and validation procedures.
#
#######################################################################

data_YIHFEA
_chemical_formula_moiety         'C24 H16 O1 S2'
_chemical_name_systematic        1,9-bis(Phenylthio)dibenzofuran
_symmetry_cell_setting           monoclinic
_symmetry_space_group_name_H-M   'P 21/n'
_symmetry_Int_Tables_number      14
_space_group_name_Hall           '-P 2yn'
loop_
_symmetry_equiv_pos_site_id
_symmetry_equiv_pos_as_xyz
1 x,y,z
2 1/2-x,1/2+y,1/2-z
3 -x,-y,-z
4 1/2+x,1/2-y,1/2+z
_cell_length_a                   10.142
_cell_length_b                   12.611
_cell_length_c                   14.592
_cell_angle_alpha                90
_cell_angle_beta                 92.55
_cell_angle_gamma                90
_cell_volume                     1864.48
_exptl_crystal_colour            colorless
_chemical_melting_point          '123-124 deg.C'
_cell_formula_units_Z            4
loop_
_atom_site_label
_atom_site_type_symbol
_atom_site_fract_x
_atom_site_fract_y
_atom_site_fract_z
S1 S 0.24256(7) 0.08027(5) 0.83845(4)
S2 S 0.01971(7) -0.03645(6) 0.71458(4)
O1 O 0.0053(2) -0.1887(2) 1.0365(1)
C1 C 0.1202(2) -0.0772(2) 0.9436(1)
C2 C 0.2245(2) -0.0060(2) 0.9338(2)
C3 C 0.3163(3) 0.0089(2) 1.0067(2)
C4 C 0.3046(3) -0.0432(3) 1.0898(2)
C5 C 0.2029(3) -0.1092(3) 1.1029(2)
C6 C 0.1130(3) -0.1248(2) 1.0309(2)
C7 C 0.0055(2) -0.1199(2) 0.8906(1)
C8 C -0.0520(2) -0.1147(2) 0.8002(2)
C9 C -0.1673(3) -0.1702(2) 0.7810(2)
C10 C -0.2281(3) -0.2317(2) 0.8457(2)
C11 C -0.1738(3) -0.2405(2) 0.9331(2)
C12 C -0.0601(3) -0.1853(2) 0.9517(2)
C13 C 0.3542(2) 0.0110(2) 0.7699(2)
C14 C 0.4341(3) 0.0708(2) 0.7151(2)
C15 C 0.5148(3) 0.0200(3) 0.6553(2)
C16 C 0.5188(3) -0.0879(3) 0.6501(2)
C17 C 0.4411(3) -0.1472(2) 0.7050(2)
C18 C 0.3585(3) -0.0977(2) 0.7646(2)
C19 C -0.0545(2) -0.0886(2) 0.6110(2)
C20 C -0.1467(2) -0.0279(2) 0.5632(2)
C21 C -0.1972(3) -0.0618(3) 0.4784(2)
C22 C -0.1561(3) -0.1549(3) 0.4427(2)
C23 C -0.0646(3) -0.2155(2) 0.4895(2)
C24 C -0.0123(3) -0.1824(2) 0.5742(2)
H1 H 0.386(2) 0.058(2) 0.998(1)
H2 H 0.367(2) -0.032(2) 1.131(1)
H3 H 0.186(2) -0.147(2) 1.155(1)
H4 H -0.208(2) -0.168(2) 0.723(1)
H5 H -0.307(2) -0.271(2) 0.831(1)
H6 H -0.210(2) -0.281(2) 0.975(1)
H7 H 0.430(2) 0.146(2) 0.721(1)
H8 H 0.565(2) 0.062(2) 0.618(1)
H9 H 0.576(2) -0.122(2) 0.609(1)
H10 H 0.441(2) -0.222(2) 0.704(1)
H11 H 0.307(2) -0.140(2) 0.798(1)
H12 H -0.175(2) 0.038(2) 0.586(1)
H13 H -0.259(2) -0.020(2) 0.447(1)
H14 H -0.194(2) -0.178(2) 0.386(1)
H15 H -0.041(2) -0.279(2) 0.468(1)
H16 H 0.053(2) -0.225(2) 0.603(1)
loop_
_geom_bond_atom_site_label_1
_geom_bond_atom_site_label_2
_geom_bond_site_symmetry_1
_geom_bond_site_symmetry_2
S1 C2 1_555 1_555
S2 C8 1_555 1_555
O1 C6 1_555 1_555
C1 C2 1_555 1_555
C2 C3 1_555 1_555
C3 C4 1_555 1_555
C4 C5 1_555 1_555
C5 C6 1_555 1_555
C6 C1 1_555 1_555
C7 C1 1_555 1_555
C8 C7 1_555 1_555
C9 C8 1_555 1_555
C10 C9 1_555 1_555
C11 C10 1_555 1_555
C12 O1 1_555 1_555
C13 S1 1_555 1_555
C14 C13 1_555 1_555
C15 C14 1_555 1_555
C16 C15 1_555 1_555
C17 C16 1_555 1_555
C18 C13 1_555 1_555
C19 S2 1_555 1_555
C20 C19 1_555 1_555
C21 C20 1_555 1_555
C22 C21 1_555 1_555
C23 C22 1_555 1_555
C24 C19 1_555 1_555
H1 C3 1_555 1_555
H2 C4 1_555 1_555
H3 C5 1_555 1_555
H4 C9 1_555 1_555
H5 C10 1_555 1_555
H6 C11 1_555 1_555
H7 C14 1_555 1_555
H8 C15 1_555 1_555
H9 C16 1_555 1_555
H10 C17 1_555 1_555
H11 C18 1_555 1_555
H12 C20 1_555 1_555
H13 C21 1_555 1_555
H14 C22 1_555 1_555
H15 C23 1_555 1_555
H16 C24 1_555 1_555
C7 C12 1_555 1_555
C11 C12 1_555 1_555
C17 C18 1_555 1_555
C23 C24 1_555 1_555

#END
