
#######################################################################
#
#                 Cambridge Crystallographic Data Centre
#                                CCDC 
#
#######################################################################
#
# If this CIF has been generated from an entry in the Cambridge 
# Structural Database, then it will include bibliographic, chemical, 
# crystal, experimental, refinement or atomic coordinate data resulting 
# from the CCDC's data processing and validation procedures.
#
#######################################################################

data_YIHGEB
_chemical_formula_moiety         'C24 H16 S2 Se1'
_chemical_name_systematic        1,9-bis(Phenylthio)dibenzoselenophene
_symmetry_cell_setting           monoclinic
_symmetry_space_group_name_H-M   'P 21/n'
_symmetry_Int_Tables_number      14
_space_group_name_Hall           '-P 2yn'
loop_
_symmetry_equiv_pos_site_id
_symmetry_equiv_pos_as_xyz
1 x,y,z
2 1/2-x,1/2+y,1/2-z
3 -x,-y,-z
4 1/2+x,1/2-y,1/2+z
_cell_length_a                   17.899
_cell_length_b                   8.086
_cell_length_c                   13.631
_cell_angle_alpha                90
_cell_angle_beta                 96.33
_cell_angle_gamma                90
_cell_volume                     1960.8
_exptl_crystal_colour            colorless
_chemical_melting_point          '176-177 deg.C'
_cell_formula_units_Z            4
loop_
_atom_site_label
_atom_site_type_symbol
_atom_site_fract_x
_atom_site_fract_y
_atom_site_fract_z
Se1 Se 0.20887(3) 0.98693(5) 0.65388(4)
S1 S 0.27584(6) 0.41846(13) 0.46573(8)
S2 S 0.41442(6) 0.50113(12) 0.59746(8)
C1 C 0.30344(24) 0.93517(51) 0.61509(28)
C2 C 0.31191(22) 0.76755(44) 0.59328(25)
C3 C 0.24164(22) 0.67294(47) 0.59154(25)
C4 C 0.18352(24) 0.76181(50) 0.62915(29)
C5 C 0.11403(27) 0.69452(64) 0.64068(34)
C6 C 0.10052(29) 0.53342(64) 0.61372(37)
C7 C 0.15461(28) 0.44506(57) 0.56822(34)
C8 C 0.22283(25) 0.51658(48) 0.55228(28)
C9 C 0.36205(28) 1.05075(54) 0.61616(32)
C10 C 0.43188(29) 0.99504(54) 0.59645(34)
C11 C 0.44400(25) 0.82763(57) 0.58371(31)
C12 C 0.38625(22) 0.71168(48) 0.58546(27)
C13 C 0.21972(22) 0.46093(47) 0.35226(28)
C14 C 0.15369(25) 0.54889(57) 0.34195(31)
C15 C 0.11600(28) 0.57082(75) 0.24803(36)
C16 C 0.14297(35) 0.50528(68) 0.16632(37)
C17 C 0.20914(33) 0.41953(86) 0.17705(35)
C18 C 0.24818(28) 0.39489(63) 0.26976(33)
C19 C 0.47877(22) 0.51410(46) 0.70678(29)
C20 C 0.46482(23) 0.60905(50) 0.78739(31)
C21 C 0.51333(30) 0.60286(64) 0.87468(34)
C22 C 0.57514(34) 0.49767(69) 0.88073(45)
C23 C 0.58849(31) 0.40244(70) 0.80130(47)
C24 C 0.54067(26) 0.41078(57) 0.71289(38)
H1 H 0.072(3) 0.778(7) 0.686(4)
H2 H 0.047(3) 0.475(6) 0.627(4)
H3 H 0.147(3) 0.324(6) 0.536(3)
H4 H 0.356(3) 1.176(7) 0.639(4)
H5 H 0.479(3) 1.081(7) 0.591(4)
H6 H 0.500(3) 0.798(7) 0.580(4)
H7 H 0.139(3) 0.618(5) 0.405(3)
H8 H 0.065(3) 0.630(8) 0.248(4)
H9 H 0.115(3) 0.547(6) 0.098(4)
H10 H 0.229(3) 0.370(7) 0.113(4)
H11 H 0.300(3) 0.339(6) 0.280(3)
H12 H 0.425(2) 0.689(5) 0.787(3)
H13 H 0.500(3) 0.680(6) 0.939(4)
H14 H 0.613(4) 0.492(6) 0.950(4)
H15 H 0.640(4) 0.312(9) 0.793(5)
H16 H 0.553(3) 0.326(6) 0.658(4)
loop_
_geom_bond_atom_site_label_1
_geom_bond_atom_site_label_2
_geom_bond_site_symmetry_1
_geom_bond_site_symmetry_2
Se1 C1 1_555 1_555
S1 C8 1_555 1_555
S2 C12 1_555 1_555
C1 C2 1_555 1_555
C2 C3 1_555 1_555
C3 C4 1_555 1_555
C4 Se1 1_555 1_555
C5 C4 1_555 1_555
C6 C5 1_555 1_555
C7 C6 1_555 1_555
C8 C3 1_555 1_555
C9 C1 1_555 1_555
C10 C9 1_555 1_555
C11 C10 1_555 1_555
C12 C2 1_555 1_555
C13 S1 1_555 1_555
C14 C13 1_555 1_555
C15 C14 1_555 1_555
C16 C15 1_555 1_555
C17 C16 1_555 1_555
C18 C13 1_555 1_555
C19 S2 1_555 1_555
C20 C19 1_555 1_555
C21 C20 1_555 1_555
C22 C21 1_555 1_555
C23 C22 1_555 1_555
C24 C19 1_555 1_555
H1 C5 1_555 1_555
H2 C6 1_555 1_555
H3 C7 1_555 1_555
H4 C9 1_555 1_555
H5 C10 1_555 1_555
H6 C11 1_555 1_555
H7 C14 1_555 1_555
H8 C15 1_555 1_555
H9 C16 1_555 1_555
H10 C17 1_555 1_555
H11 C18 1_555 1_555
H12 C20 1_555 1_555
H13 C21 1_555 1_555
H14 C22 1_555 1_555
H15 C23 1_555 1_555
H16 C24 1_555 1_555
C7 C8 1_555 1_555
C11 C12 1_555 1_555
C17 C18 1_555 1_555
C23 C24 1_555 1_555

#END
