
#######################################################################
#
#                 Cambridge Crystallographic Data Centre
#                                CCDC 
#
#######################################################################
#
# If this CIF has been generated from an entry in the Cambridge 
# Structural Database, then it will include bibliographic, chemical, 
# crystal, experimental, refinement or atomic coordinate data resulting 
# from the CCDC's data processing and validation procedures.
#
#######################################################################

data_YIHGIF
_chemical_formula_moiety         'C24 H16 Se3'
_chemical_name_systematic        1,9-bis(Phenylseleno)dibenzoselenophene
_symmetry_cell_setting           monoclinic
_symmetry_space_group_name_H-M   'P 21/n'
_symmetry_Int_Tables_number      14
_space_group_name_Hall           '-P 2yn'
loop_
_symmetry_equiv_pos_site_id
_symmetry_equiv_pos_as_xyz
1 x,y,z
2 1/2-x,1/2+y,1/2-z
3 -x,-y,-z
4 1/2+x,1/2-y,1/2+z
_cell_length_a                   18.094
_cell_length_b                   8.1571
_cell_length_c                   13.723
_cell_angle_alpha                90
_cell_angle_beta                 96.505
_cell_angle_gamma                90
_cell_volume                     2012.4
_exptl_crystal_colour            colorless
_chemical_melting_point          '190 deg.C'
_cell_formula_units_Z            4
loop_
_atom_site_label
_atom_site_type_symbol
_atom_site_fract_x
_atom_site_fract_y
_atom_site_fract_z
Se1 Se 0.20853(5) 0.96483(11) 0.65812(6)
Se2 Se 0.27337(5) 0.39130(11) 0.45869(5)
Se3 Se 0.41461(5) 0.46901(10) 0.59676(6)
C1 C 0.30169(43) 0.91492(94) 0.61821(48)
C2 C 0.30892(39) 0.74589(86) 0.59428(45)
C3 C 0.23939(41) 0.65577(87) 0.59213(45)
C4 C 0.18204(42) 0.74309(95) 0.63034(48)
C5 C 0.11272(46) 0.6786(11) 0.63964(56)
C6 C 0.09731(50) 0.5208(11) 0.61118(62)
C7 C 0.15058(48) 0.43063(95) 0.56612(57)
C8 C 0.21866(42) 0.49931(90) 0.55225(47)
C9 C 0.35914(51) 1.02592(98) 0.61979(54)
C10 C 0.42755(46) 0.97378(98) 0.59791(54)
C11 C 0.43906(44) 0.8083(10) 0.58184(51)
C12 C 0.38169(43) 0.69456(88) 0.58403(47)
C13 C 0.21458(42) 0.45904(92) 0.34077(49)
C14 C 0.23811(50) 0.4001(12) 0.25387(60)
C15 C 0.19670(56) 0.4406(13) 0.16469(56)
C16 C 0.13581(51) 0.5321(12) 0.16135(59)
C17 C 0.11217(48) 0.5928(12) 0.24614(57)
C18 C 0.15148(45) 0.5537(10) 0.33613(54)
C19 C 0.48291(40) 0.49481(78) 0.71464(54)
C20 C 0.46561(43) 0.59428(93) 0.79126(55)
C21 C 0.51465(55) 0.6012(12) 0.87796(58)
C22 C 0.57804(55) 0.5082(12) 0.88797(67)
C23 C 0.59439(56) 0.4087(13) 0.81191(85)
C24 C 0.54659(50) 0.4034(11) 0.72321(71)
H1 H 0.073(4) 0.756(8) 0.671(4)
H2 H 0.046(4) 0.460(8) 0.623(4)
H3 H 0.138(4) 0.314(8) 0.540(5)
H4 H 0.351(3) 1.152(8) 0.636(4)
H5 H 0.470(4) 1.059(8) 0.594(4)
H6 H 0.494(3) 0.766(8) 0.569(4)
H7 H 0.287(4) 0.325(8) 0.255(5)
H8 H 0.216(4) 0.396(9) 0.097(5)
H9 H 0.105(4) 0.562(8) 0.092(5)
H10 H 0.062(4) 0.669(8) 0.243(5)
H11 H 0.133(4) 0.602(8) 0.403(5)
H12 H 0.416(4) 0.668(8) 0.785(5)
H13 H 0.502(4) 0.677(8) 0.938(5)
H14 H 0.613(4) 0.511(8) 0.952(5)
H15 H 0.646(4) 0.337(9) 0.819(5)
H16 H 0.560(4) 0.330(8) 0.661(5)
loop_
_geom_bond_atom_site_label_1
_geom_bond_atom_site_label_2
_geom_bond_site_symmetry_1
_geom_bond_site_symmetry_2
Se1 C1 1_555 1_555
Se2 C8 1_555 1_555
Se3 C12 1_555 1_555
C1 C2 1_555 1_555
C2 C3 1_555 1_555
C3 C4 1_555 1_555
C4 Se1 1_555 1_555
C5 C4 1_555 1_555
C6 C5 1_555 1_555
C7 C6 1_555 1_555
C8 C3 1_555 1_555
C9 C1 1_555 1_555
C10 C9 1_555 1_555
C11 C10 1_555 1_555
C12 C2 1_555 1_555
C13 Se2 1_555 1_555
C14 C13 1_555 1_555
C15 C14 1_555 1_555
C16 C15 1_555 1_555
C17 C16 1_555 1_555
C18 C13 1_555 1_555
C19 Se3 1_555 1_555
C20 C19 1_555 1_555
C21 C20 1_555 1_555
C22 C21 1_555 1_555
C23 C22 1_555 1_555
C24 C19 1_555 1_555
H1 C5 1_555 1_555
H2 C6 1_555 1_555
H3 C7 1_555 1_555
H4 C9 1_555 1_555
H5 C10 1_555 1_555
H6 C11 1_555 1_555
H7 C14 1_555 1_555
H8 C15 1_555 1_555
H9 C16 1_555 1_555
H10 C17 1_555 1_555
H11 C18 1_555 1_555
H12 C20 1_555 1_555
H13 C21 1_555 1_555
H14 C22 1_555 1_555
H15 C23 1_555 1_555
H16 C24 1_555 1_555
C7 C8 1_555 1_555
C11 C12 1_555 1_555
C17 C18 1_555 1_555
C23 C24 1_555 1_555

#END
