
#######################################################################
#
#                 Cambridge Crystallographic Data Centre
#                                CCDC 
#
#######################################################################
#
# If this CIF has been generated from an entry in the Cambridge 
# Structural Database, then it will include bibliographic, chemical, 
# crystal, experimental, refinement or atomic coordinate data resulting 
# from the CCDC's data processing and validation procedures.
#
#######################################################################

data_YIHJUU
_chemical_formula_moiety         'C32 H32 O2,C5 H11 N1'
_chemical_name_systematic        
"(1R,2R)-\a,\a,\a',\a'-Tetraphenyl-cyclohexane-1,2-dimethanol piperidine solvate"
_symmetry_cell_setting           monoclinic
_symmetry_space_group_name_H-M   'P 21'
_symmetry_Int_Tables_number      4
_space_group_name_Hall           'P 2yb'
loop_
_symmetry_equiv_pos_site_id
_symmetry_equiv_pos_as_xyz
1 x,y,z
2 -x,1/2+y,-z
_cell_length_a                   8.784
_cell_length_b                   20.820
_cell_length_c                   9.0758
_cell_angle_alpha                90
_cell_angle_beta                 113.21
_cell_angle_gamma                90
_cell_volume                     1525.47
_cell_formula_units_Z            2
loop_
_atom_site_label
_atom_site_type_symbol
_atom_site_fract_x
_atom_site_fract_y
_atom_site_fract_z
O1 O 0.1646(4) 0.2370(2) 0.9326(3)
O2 O 0.2075(4) -0.0076(2) 0.9276(4)
C1 C -0.0034(7) 0.1283(4) 1.0217(8)
C2 C -0.0073(6) 0.1165(3) 0.8522(7)
C3 C 0.1580(6) 0.1298(3) 0.8346(6)
C4 C 0.3107(6) 0.1043(2) 0.9769(5)
C5 C 0.3017(6) 0.1159(3) 1.1420(6)
C6 C 0.1420(8) 0.0974(4) 1.1524(7)
C7 C 0.1708(6) 0.2024(3) 0.7990(5)
C8 C 0.0297(6) 0.2244(3) 0.6433(5)
C9 C -0.0212(6) 0.2868(3) 0.6238(6)
C10 C -0.1464(7) 0.3080(3) 0.4851(7)
C11 C -0.2233(7) 0.2667(4) 0.3614(7)
C12 C -0.1738(11) 0.2063(4) 0.3790(9)
C13 C -0.0510(9) 0.1849(4) 0.5161(8)
C14 C 0.4682(6) 0.2420(3) 0.9104(6)
C15 C 0.3360(6) 0.2184(2) 0.7832(5)
C16 C 0.6193(7) 0.2535(4) 0.9048(9)
C17 C 0.6377(8) 0.2445(4) 0.7616(10)
C18 C 0.5084(8) 0.2212(4) 0.6308(8)
C19 C 0.3575(8) 0.2076(4) 0.6425(7)
C20 C 0.3458(6) 0.0319(3) 0.9483(5)
C21 C 0.3777(6) 0.0257(3) 0.7944(6)
C22 C 0.5105(7) 0.0567(3) 0.7766(7)
C23 C 0.5392(8) 0.0499(4) 0.6362(7)
C24 C 0.4403(9) 0.0122(4) 0.5167(7)
C25 C 0.3085(11) -0.0177(4) 0.5292(7)
C26 C 0.2760(8) -0.0118(3) 0.6679(6)
C27 C 0.4969(6) 0.0054(3) 1.0876(5)
C28 C 0.4947(7) -0.0566(3) 1.1473(6)
C29 C 0.6293(7) -0.0836(3) 1.2702(6)
C30 C 0.7701(8) -0.0480(3) 1.3414(7)
C31 C 0.7783(7) 0.0136(4) 1.2870(7)
C32 C 0.6424(7) 0.0396(3) 1.1625(6)
H1 H 0.0335(6) 0.3173(3) 0.7074(6)
H2 H -0.1792(7) 0.3523(3) 0.4741(7)
H3 H -0.3164(7) 0.2804(4) 0.2682(7)
H4 H -0.2195(11) 0.1778(4) 0.2890(9)
H5 H -0.0216(9) 0.1402(4) 0.5267(8)
H6 H 0.4555(6) 0.2495(3) 1.0093(6)
H7 H 0.7080(7) 0.2714(4) 0.9958(9)
H8 H 0.7446(8) 0.2507(4) 0.7582(10)
H9 H 0.5223(8) 0.2174(4) 0.5314(8)
H10 H 0.2701(8) 0.1893(4) 0.5512(7)
H11 H 0.5818(7) 0.0837(3) 0.8614(7)
H12 H 0.6326(8) 0.0710(4) 0.6281(7)
H13 H 0.4637(9) 0.0085(4) 0.4223(7)
H14 H 0.2393(11) -0.0427(4) 0.4387(7)
H15 H 0.1818(8) -0.0337(3) 0.6723(6)
H16 H 0.3966(7) -0.0824(3) 1.1007(6)
H17 H 0.6230(7) -0.1260(3) 1.3088(6)
H18 H 0.8653(8) -0.0656(3) 1.4267(7)
H19 H 0.8774(7) 0.0388(4) 1.3347(7)
H20 H 0.6494(7) 0.0825(3) 1.1268(6)
H31 H 0.1513(7) 0.2879(4) 0.9016(6)
H32 H 0.1270(7) -0.0020(4) 0.9599(6)
H34 H -0.1015(7) 0.1135(4) 1.0221(6)
H35 H 0.0038(7) 0.1808(4) 1.0422(6)
H36 H -0.1074(7) 0.1421(4) 0.7621(6)
H37 H -0.0405(7) 0.0704(4) 0.8621(6)
H38 H 0.1334(7) 0.1100(4) 0.7216(6)
H39 H 0.4112(7) 0.1276(4) 0.9620(6)
H40 H 0.4107(7) 0.1028(4) 1.2620(6)
H41 H 0.3264(7) 0.1676(4) 1.1619(6)
H42 H 0.1071(7) 0.0472(4) 1.1413(6)
H43 H 0.1389(7) 0.1075(4) 1.2414(6)
N1 N 0.2184(6) 0.3695(2) 1.0017(5)
C33 C 0.3562(7) 0.3754(4) 1.1532(8)
C34 C 0.1784(9) 0.3512(5) 1.2952(7)
C35 C 0.0676(8) 0.3934(4) 1.0171(8)
C36 C 0.0322(7) 0.3514(4) 1.1379(8)
C37 C 0.3347(7) 0.3340(4) 1.2766(6)
H21 H 0.3691(7) 0.4193(4) 1.1884(8)
H22 H 0.4546(7) 0.3628(4) 1.1389(8)
H23 H 0.1581(9) 0.3239(5) 1.3707(7)
H24 H 0.1898(9) 0.3946(5) 1.3341(7)
H25 H -0.0226(8) 0.3901(4) 0.9142(8)
H26 H 0.0780(8) 0.4375(4) 1.0505(8)
H27 H -0.0685(7) 0.3651(4) 1.1460(8)
H28 H 0.0185(7) 0.3075(4) 1.1024(8)
H29 H 0.4284(7) 0.3381(4) 1.3768(6)
H30 H 0.3255(7) 0.2898(4) 1.2437(6)
H33 H 0.2252(7) 0.4086(4) 0.9001(6)
loop_
_geom_bond_atom_site_label_1
_geom_bond_atom_site_label_2
_geom_bond_site_symmetry_1
_geom_bond_site_symmetry_2
O1 C7 1_555 1_555
O2 C20 1_555 1_555
C1 C2 1_555 1_555
C2 C3 1_555 1_555
C3 C4 1_555 1_555
C4 C5 1_555 1_555
C5 C6 1_555 1_555
C6 C1 1_555 1_555
C7 C3 1_555 1_555
C8 C7 1_555 1_555
C9 C8 1_555 1_555
C10 C9 1_555 1_555
C11 C10 1_555 1_555
C12 C11 1_555 1_555
C13 C8 1_555 1_555
C14 C15 1_555 1_555
C15 C7 1_555 1_555
C16 C14 1_555 1_555
C17 C16 1_555 1_555
C18 C17 1_555 1_555
C19 C15 1_555 1_555
C20 C4 1_555 1_555
C21 C20 1_555 1_555
C22 C21 1_555 1_555
C23 C22 1_555 1_555
C24 C23 1_555 1_555
C25 C24 1_555 1_555
C26 C21 1_555 1_555
C27 C20 1_555 1_555
C28 C27 1_555 1_555
C29 C28 1_555 1_555
C30 C29 1_555 1_555
C31 C30 1_555 1_555
C32 C27 1_555 1_555
N1 C33 1_555 1_555
C33 C37 1_555 1_555
C34 C36 1_555 1_555
C35 N1 1_555 1_555
C36 C35 1_555 1_555
C37 C34 1_555 1_555
H1 C9 1_555 1_555
H2 C10 1_555 1_555
H3 C11 1_555 1_555
H4 C12 1_555 1_555
H5 C13 1_555 1_555
H6 C14 1_555 1_555
H7 C16 1_555 1_555
H8 C17 1_555 1_555
H9 C18 1_555 1_555
H10 C19 1_555 1_555
H11 C22 1_555 1_555
H12 C23 1_555 1_555
H13 C24 1_555 1_555
H14 C25 1_555 1_555
H15 C26 1_555 1_555
H16 C28 1_555 1_555
H17 C29 1_555 1_555
H18 C30 1_555 1_555
H19 C31 1_555 1_555
H20 C32 1_555 1_555
H21 C33 1_555 1_555
H22 C33 1_555 1_555
H23 C34 1_555 1_555
H24 C34 1_555 1_555
H25 C35 1_555 1_555
H26 C35 1_555 1_555
H27 C36 1_555 1_555
H28 C36 1_555 1_555
H29 C37 1_555 1_555
H30 C37 1_555 1_555
H31 O1 1_555 1_555
H32 O2 1_555 1_555
H33 N1 1_555 1_555
H34 C1 1_555 1_555
H35 C1 1_555 1_555
H36 C2 1_555 1_555
H37 C2 1_555 1_555
H38 C3 1_555 1_555
H39 C4 1_555 1_555
H40 C5 1_555 1_555
H41 C5 1_555 1_555
H42 C6 1_555 1_555
H43 C6 1_555 1_555
C12 C13 1_555 1_555
C18 C19 1_555 1_555
C25 C26 1_555 1_555
C31 C32 1_555 1_555

#END
