
#######################################################################
#
#                 Cambridge Crystallographic Data Centre
#                                CCDC 
#
#######################################################################
#
# If this CIF has been generated from an entry in the Cambridge 
# Structural Database, then it will include bibliographic, chemical, 
# crystal, experimental, refinement or atomic coordinate data resulting 
# from the CCDC's data processing and validation procedures.
#
#######################################################################

data_YIHJII
_chemical_formula_moiety         'C30 H28 O2'
_chemical_name_systematic        
\a,\a,\a',\a'-Tetraphenylcyclobutane-1,2-dimethanol
_symmetry_cell_setting           monoclinic
_symmetry_space_group_name_H-M   'P 21/n'
_symmetry_Int_Tables_number      14
_space_group_name_Hall           '-P 2yn'
loop_
_symmetry_equiv_pos_site_id
_symmetry_equiv_pos_as_xyz
1 x,y,z
2 1/2-x,1/2+y,1/2-z
3 -x,-y,-z
4 1/2+x,1/2-y,1/2+z
_cell_length_a                   9.772
_cell_length_b                   15.296
_cell_length_c                   15.694
_cell_angle_alpha                90
_cell_angle_beta                 101.97
_cell_angle_gamma                90
_cell_volume                     2294.81
_exptl_crystal_colour            colorless
_chemical_melting_point          '170-171 deg.C'
_cell_formula_units_Z            4
loop_
_atom_site_label
_atom_site_type_symbol
_atom_site_fract_x
_atom_site_fract_y
_atom_site_fract_z
O1 O -0.1641(1) 0.5296(1) 0.4532(1)
O2 O 0.0459(2) 0.6385(1) 0.5211(1)
C1 C -0.1653(4) 0.7864(2) 0.3405(2)
C2 C -0.2974(3) 0.7324(2) 0.3211(2)
C3 C -0.2318(2) 0.6666(1) 0.3922(1)
C4 C -0.0864(2) 0.7100(1) 0.3944(1)
C5 C -0.2498(2) 0.5680(1) 0.3757(1)
C6 C -0.4000(2) 0.5369(1) 0.3717(1)
C7 C -0.5018(2) 0.5886(2) 0.3959(2)
C8 C -0.6324(3) 0.5542(2) 0.3987(2)
C9 C -0.6630(3) 0.4700(2) 0.3775(2)
C10 C -0.5650(3) 0.4177(2) 0.3522(2)
C11 C -0.4337(2) 0.4512(2) 0.3493(2)
C12 C -0.1965(2) 0.5404(1) 0.2954(1)
C13 C -0.2817(3) 0.5473(1) 0.2128(1)
C14 C -0.2313(3) 0.5273(2) 0.1396(2)
C15 C -0.0959(3) 0.4993(2) 0.1464(2)
C16 C -0.0110(3) 0.4909(2) 0.2275(2)
C17 C -0.0599(2) 0.5115(1) 0.3013(2)
C18 C 0.0120(2) 0.7235(1) 0.4840(1)
C19 C 0.1544(2) 0.7626(1) 0.4774(2)
C20 C 0.2616(3) 0.7586(2) 0.5500(2)
C21 C 0.3940(3) 0.7895(2) 0.5491(3)
C22 C 0.4206(4) 0.8252(2) 0.4759(4)
C23 C 0.3165(5) 0.8312(2) 0.4032(3)
C24 C 0.1823(4) 0.8001(2) 0.4041(2)
C25 C -0.0551(2) 0.7790(1) 0.5454(1)
C26 C -0.1041(3) 0.7417(2) 0.6131(2)
C27 C -0.1679(3) 0.7922(2) 0.6667(2)
C28 C -0.1844(3) 0.8804(2) 0.6531(2)
C29 C -0.1350(3) 0.9187(2) 0.5872(2)
C30 C -0.0694(2) 0.8689(1) 0.5346(2)
H1 H -0.4819(6) 0.6485(16) 0.4112(4)
H2 H -0.6998(20) 0.5896(11) 0.4150(5)
H3 H -0.7518(26) 0.4472(7) 0.3798(2)
H4 H -0.5857(6) 0.3604(16) 0.3377(5)
H5 H -0.3634(19) 0.4127(10) 0.3301(5)
H6 H -0.3789(26) 0.5663(5) 0.2069(2)
H7 H -0.2881(18) 0.5328(2) 0.0859(16)
H8 H -0.0601(10) 0.4855(4) 0.0938(15)
H9 H 0.0870(26) 0.4697(6) 0.2329(2)
H10 H 0.0011(17) 0.5058(2) 0.3574(16)
H11 H 0.2429(6) 0.7328(7) 0.6045(15)
H12 H 0.4771(21) 0.7850(2) 0.6061(15)
H13 H 0.5108(28) 0.8457(7) 0.4746(4)
H14 H 0.3340(7) 0.8560(8) 0.3545(15)
H15 H 0.1126(20) 0.8044(2) 0.3546(14)
H16 H -0.0938(4) 0.6807(17) 0.6231(3)
H17 H -0.1994(10) 0.7667(8) 0.7113(13)
H18 H -0.2274(14) 0.9128(10) 0.6876(11)
H19 H -0.1465(4) 0.9822(17) 0.5769(3)
H20 H -0.0317(10) 0.8972(7) 0.4886(12)
H21 H -0.1617(27) 0.4730(18) 0.4527(17)
H22 H -0.0239(31) 0.6053(19) 0.5015(19)
H23 H -0.1235(32) 0.8014(19) 0.2926(22)
H24 H -0.1776(32) 0.8370(21) 0.3733(21)
H25 H -0.3802(30) 0.7598(18) 0.3295(18)
H26 H -0.3062(26) 0.7078(17) 0.2664(19)
H27 H -0.2584(21) 0.6763(13) 0.4469(14)
H28 H -0.0372(24) 0.6780(15) 0.3555(16)
loop_
_geom_bond_atom_site_label_1
_geom_bond_atom_site_label_2
_geom_bond_site_symmetry_1
_geom_bond_site_symmetry_2
O1 C5 1_555 1_555
O2 C18 1_555 1_555
C1 C2 1_555 1_555
C2 C3 1_555 1_555
C3 C4 1_555 1_555
C4 C1 1_555 1_555
C5 C3 1_555 1_555
C6 C5 1_555 1_555
C7 C6 1_555 1_555
C8 C7 1_555 1_555
C9 C8 1_555 1_555
C10 C9 1_555 1_555
C11 C6 1_555 1_555
C12 C5 1_555 1_555
C13 C12 1_555 1_555
C14 C13 1_555 1_555
C15 C14 1_555 1_555
C16 C15 1_555 1_555
C17 C12 1_555 1_555
C18 C4 1_555 1_555
C19 C18 1_555 1_555
C20 C19 1_555 1_555
C21 C20 1_555 1_555
C22 C21 1_555 1_555
C23 C22 1_555 1_555
C24 C19 1_555 1_555
C25 C18 1_555 1_555
C26 C25 1_555 1_555
C27 C26 1_555 1_555
C28 C27 1_555 1_555
C29 C28 1_555 1_555
C30 C25 1_555 1_555
H1 C7 1_555 1_555
H2 C8 1_555 1_555
H3 C9 1_555 1_555
H4 C10 1_555 1_555
H5 C11 1_555 1_555
H6 C13 1_555 1_555
H7 C14 1_555 1_555
H8 C15 1_555 1_555
H9 C16 1_555 1_555
H10 C17 1_555 1_555
H11 C20 1_555 1_555
H12 C21 1_555 1_555
H13 C22 1_555 1_555
H14 C23 1_555 1_555
H15 C24 1_555 1_555
H16 C26 1_555 1_555
H17 C27 1_555 1_555
H18 C28 1_555 1_555
H19 C29 1_555 1_555
H20 C30 1_555 1_555
H21 O1 1_555 1_555
H22 O2 1_555 1_555
H23 C1 1_555 1_555
H24 C1 1_555 1_555
H25 C2 1_555 1_555
H26 C2 1_555 1_555
H27 C3 1_555 1_555
H28 C4 1_555 1_555
C10 C11 1_555 1_555
C16 C17 1_555 1_555
C23 C24 1_555 1_555
C29 C30 1_555 1_555

#END
