
#######################################################################
#
#                 Cambridge Crystallographic Data Centre
#                                CCDC 
#
#######################################################################
#
# If this CIF has been generated from an entry in the Cambridge 
# Structural Database, then it will include bibliographic, chemical, 
# crystal, experimental, refinement or atomic coordinate data resulting 
# from the CCDC's data processing and validation procedures.
#
#######################################################################

data_YIHKAB
_chemical_formula_moiety         'C21 H26 O4'
_chemical_name_systematic        
(\aR,\a'R,4R,5R)-2,2,\a,\a'-Tetramethyl-\a,\a'-diphenyl-1,3-dioxolane-3,4-dimethanol
_symmetry_cell_setting           monoclinic
_symmetry_space_group_name_H-M   'P 21'
_symmetry_Int_Tables_number      4
_space_group_name_Hall           'P 2yb'
loop_
_symmetry_equiv_pos_site_id
_symmetry_equiv_pos_as_xyz
1 x,y,z
2 -x,1/2+y,-z
_cell_length_a                   10.863
_cell_length_b                   7.500
_cell_length_c                   12.602
_cell_angle_alpha                90
_cell_angle_beta                 110.625
_cell_angle_gamma                90
_cell_volume                     960.91
_chemical_melting_point          '192-193 deg.C'
_cell_formula_units_Z            2
loop_
_atom_site_label
_atom_site_type_symbol
_atom_site_fract_x
_atom_site_fract_y
_atom_site_fract_z
O1 O -0.7395(1) -0.2861(2) -0.8827(1)
O2 O -0.8388(1) -0.0405(2) -0.8437(1)
O3 O -0.5048(1) -0.2825(2) -0.5953(1)
O4 O -0.6522(1) -0.0414(2) -0.5411(1)
C1 C -0.8199(2) -0.1358(3) -0.9338(1)
C2 C -0.6906(2) -0.2669(2) -0.7625(1)
C3 C -0.7287(2) -0.0750(2) -0.7432(1)
C4 C -0.5429(2) -0.3165(2) -0.7146(1)
C5 C -0.4625(2) -0.2028(3) -0.7661(1)
C6 C -0.3999(2) -0.0494(3) -0.7121(2)
C7 C -0.3321(2) 0.0592(4) -0.7622(2)
C8 C -0.3259(2) 0.0158(4) -0.8660(2)
C9 C -0.3864(2) -0.1363(4) -0.9197(2)
C10 C -0.4541(2) -0.2445(3) -0.8708(2)
C11 C -0.5286(2) -0.5158(3) -0.7334(2)
C12 C -0.7701(2) -0.0406(2) -0.6394(1)
C13 C -0.8671(2) -0.1806(2) -0.6285(1)
C14 C -0.9963(2) -0.1852(3) -0.7046(2)
C15 C -1.0825(2) -0.3139(4) -0.6946(2)
C16 C -1.0431(2) -0.4388(3) -0.6099(2)
C17 C -0.9165(2) -0.4364(3) -0.5342(2)
C18 C -0.8291(2) -0.3075(3) -0.5432(2)
C19 C -0.8257(2) 0.1476(3) -0.6450(2)
C20 C -0.9514(2) -0.1998(4) -1.0137(2)
C21 C -0.7481(2) -0.0194(4) -0.9913(2)
H1 H -0.4418(24) -0.3682(42) -0.5505(22)
H2 H -0.5971(27) -0.1247(50) -0.5540(24)
H3 H -0.7360(20) -0.3522(32) -0.7309(17)
H4 H -0.6562(18) 0.0076(28) -0.7392(15)
H5 H -0.4024(18) -0.0137(34) -0.6360(17)
H6 H -0.2875(27) 0.1594(51) -0.7194(23)
H7 H -0.2769(29) 0.0874(50) -0.8997(24)
H8 H -0.3823(22) -0.1739(43) -0.9933(21)
H9 H -0.4982(23) -0.3432(42) -0.9116(20)
H10 H -0.5689(21) -0.5520(39) -0.8154(21)
H11 H -0.4314(27) -0.5466(43) -0.7067(23)
H12 H -0.5729(26) -0.5826(49) -0.6913(23)
H13 H -1.0238(21) -0.0912(38) -0.7665(19)
H14 H -1.1718(25) -0.3131(43) -0.7480(21)
H15 H -1.1008(28) -0.5223(51) -0.6018(25)
H16 H -0.8828(23) -0.5241(46) -0.4697(20)
H17 H -0.7442(21) -0.3035(36) -0.4911(18)
H18 H -0.8444(24) 0.1670(39) -0.5754(22)
H19 H -0.7653(28) 0.2319(53) -0.6568(25)
H20 H -0.9099(26) 0.1519(42) -0.7103(23)
H21 H -0.9921(18) -0.2485(39) -0.9638(24)
H22 H -1.0114(30) -0.0829(51) -1.0491(25)
H23 H -0.9424(30) -0.2744(61) -1.0769(28)
H24 H -0.6585(27) 0.0295(44) -0.9300(23)
H25 H -0.7268(26) -0.0923(45) -1.0516(24)
H26 H -0.8056(24) 0.0765(41) -1.0329(20)
loop_
_geom_bond_atom_site_label_1
_geom_bond_atom_site_label_2
_geom_bond_site_symmetry_1
_geom_bond_site_symmetry_2
O1 C1 1_555 1_555
O2 C1 1_555 1_555
O3 C4 1_555 1_555
O4 C12 1_555 1_555
C1 C20 1_555 1_555
C2 O1 1_555 1_555
C3 O2 1_555 1_555
C4 C2 1_555 1_555
C5 C4 1_555 1_555
C6 C5 1_555 1_555
C7 C6 1_555 1_555
C8 C7 1_555 1_555
C9 C8 1_555 1_555
C10 C5 1_555 1_555
C11 C4 1_555 1_555
C12 C3 1_555 1_555
C13 C12 1_555 1_555
C14 C13 1_555 1_555
C15 C14 1_555 1_555
C16 C15 1_555 1_555
C17 C16 1_555 1_555
C18 C13 1_555 1_555
C19 C12 1_555 1_555
C20 H21 1_555 1_555
C21 C1 1_555 1_555
H1 O3 1_555 1_555
H2 O4 1_555 1_555
H3 C2 1_555 1_555
H4 C3 1_555 1_555
H5 C6 1_555 1_555
H6 C7 1_555 1_555
H7 C8 1_555 1_555
H8 C9 1_555 1_555
H9 C10 1_555 1_555
H10 C11 1_555 1_555
H11 C11 1_555 1_555
H12 C11 1_555 1_555
H13 C14 1_555 1_555
H14 C15 1_555 1_555
H15 C16 1_555 1_555
H16 C17 1_555 1_555
H17 C18 1_555 1_555
H18 C19 1_555 1_555
H19 C19 1_555 1_555
H20 C19 1_555 1_555
H22 C20 1_555 1_555
H23 C20 1_555 1_555
H24 C21 1_555 1_555
H25 C21 1_555 1_555
H26 C21 1_555 1_555
C2 C3 1_555 1_555
C9 C10 1_555 1_555
C17 C18 1_555 1_555

#END
