
#######################################################################
#
#                 Cambridge Crystallographic Data Centre
#                                CCDC 
#
#######################################################################
#
# If this CIF has been generated from an entry in the Cambridge 
# Structural Database, then it will include bibliographic, chemical, 
# crystal, experimental, refinement or atomic coordinate data resulting 
# from the CCDC's data processing and validation procedures.
#
#######################################################################

data_YIHMEJ
_chemical_formula_moiety         'C52 H64 Ca1 I1 N2 O5 P2 1+,I1 1-,C4 H8 O1'
_chemical_name_systematic        
'bis(N-(2,6-dimethylphenyl)-P,P-diphenylphosphinic amide)(iodo)tris(tetrahydrofuran)calcium iodide tetrahydrofuran solvate'
_symmetry_cell_setting           monoclinic
_symmetry_space_group_name_H-M   'P 21/c'
_symmetry_Int_Tables_number      14
_space_group_name_Hall           '-P 2ybc'
loop_
_symmetry_equiv_pos_site_id
_symmetry_equiv_pos_as_xyz
1 x,y,z
2 -x,1/2+y,1/2-z
3 -x,-y,-z
4 x,1/2-y,1/2+z
_cell_length_a                   12.8971(2)
_cell_length_b                   17.4215(3)
_cell_length_c                   27.6655(6)
_cell_angle_alpha                90
_cell_angle_beta                 111.360(2)
_cell_angle_gamma                90
_cell_volume                     5789.09
_exptl_crystal_colour            colorless
_exptl_crystal_description       needle
_cell_formula_units_Z            4
loop_
_atom_site_label
_atom_site_type_symbol
_atom_site_fract_x
_atom_site_fract_y
_atom_site_fract_z
Ca1 Ca 0.34703(6) -0.36065(4) -0.16037(3)
I1 I 0.22779(2) -0.323199(16) -0.083653(10)
P1 P 0.10649(7) -0.48228(5) -0.23755(3)
P2 P 0.60725(8) -0.25485(5) -0.08221(3)
N1 N 0.1078(2) -0.52562(18) -0.28991(11)
H1 H 0.1558 -0.5619 -0.2848
N2 N 0.6128(3) -0.17295(17) -0.11040(12)
H2 H 0.6271 -0.1757 -0.1384
O1 O 0.1955(2) -0.42346(15) -0.21397(10)
O2 O 0.5064(2) -0.30343(15) -0.10826(10)
O3 O 0.4421(2) -0.39806(17) -0.21683(10)
O4 O 0.4158(2) -0.47821(16) -0.11866(10)
O5 O 0.2941(2) -0.25201(18) -0.21633(12)
C1 C 0.0393(3) -0.5113(2) -0.34353(14)
C2 C -0.0183(3) -0.5744(2) -0.37224(15)
C3 C -0.0877(4) -0.5630(3) -0.42375(17)
H3 H -0.1276 -0.6041 -0.4433
C4 C -0.0974(4) -0.4914(3) -0.44584(17)
H4 H -0.1442 -0.4842 -0.4802
C5 C -0.0388(4) -0.4305(3) -0.41770(16)
H5 H -0.0456 -0.3826 -0.4335
C6 C 0.0315(3) -0.4385(2) -0.36546(14)
C7 C 0.0922(4) -0.3695(2) -0.33696(17)
H6 H 0.0469 -0.3432 -0.3213
H7 H 0.1081 -0.3357 -0.3608
H8 H 0.1607 -0.3852 -0.3104
C8 C -0.0060(4) -0.6531(2) -0.34846(18)
H9 H -0.0562 -0.6880 -0.3727
H10 H -0.0231 -0.6510 -0.3175
H11 H 0.0691 -0.6707 -0.3400
C9 C -0.0281(3) -0.4385(2) -0.25434(13)
C10 C -0.1257(3) -0.4719(2) -0.28842(14)
H12 H -0.1225 -0.5187 -0.3040
C11 C -0.2275(3) -0.4356(3) -0.29928(15)
H13 H -0.2922 -0.4577 -0.3224
C12 C -0.2325(3) -0.3663(3) -0.27556(16)
H14 H -0.3006 -0.3417 -0.2831
C13 C -0.1363(4) -0.3337(2) -0.24057(17)
H15 H -0.1403 -0.2877 -0.2243
C14 C -0.0344(3) -0.3692(2) -0.22982(15)
H16 H 0.0299 -0.3471 -0.2064
C15 C 0.1180(3) -0.5560(2) -0.19019(14)
C16 C 0.1181(3) -0.6339(2) -0.19930(16)
H17 H 0.1099 -0.6516 -0.2322
C17 C 0.1303(4) -0.6858(3) -0.15946(18)
H18 H 0.1314 -0.7382 -0.1656
C18 C 0.1408(5) -0.6598(3) -0.1107(2)
H19 H 0.1493 -0.6946 -0.0840
C19 C 0.1388(5) -0.5822(3) -0.10162(18)
H20 H 0.1441 -0.5647 -0.0690
C20 C 0.1289(4) -0.5301(3) -0.14085(16)
H21 H 0.1296 -0.4777 -0.1343
C21 C 0.5966(3) -0.0968(2) -0.09396(14)
C22 C 0.4964(4) -0.0750(2) -0.08961(15)
C23 C 0.4891(4) -0.0005(3) -0.07239(18)
H22 H 0.4238 0.0149 -0.0682
C24 C 0.5767(5) 0.0509(3) -0.0613(2)
H23 H 0.5705 0.1001 -0.0496
C25 C 0.6735(4) 0.0283(3) -0.06794(18)
H24 H 0.7313 0.0633 -0.0618
C26 C 0.6858(4) -0.0457(2) -0.08361(15)
C27 C 0.7937(4) -0.0694(3) -0.08829(18)
H25 H 0.8462 -0.0279 -0.0772
H26 H 0.7811 -0.0818 -0.1238
H27 H 0.8229 -0.1135 -0.0669
C28 C 0.3968(4) -0.1266(3) -0.10307(18)
H28 H 0.3949 -0.1601 -0.1309
H29 H 0.3303 -0.0961 -0.1136
H30 H 0.4015 -0.1567 -0.0733
C29 C 0.6184(3) -0.2311(2) -0.01713(13)
C30 C 0.5390(3) -0.2602(2) 0.00118(15)
H31 H 0.4814 -0.2910 -0.0200
C31 C 0.5466(4) -0.2429(3) 0.05115(16)
H32 H 0.4936 -0.2621 0.0635
C32 C 0.6315(4) -0.1978(3) 0.08267(16)
H33 H 0.6362 -0.1871 0.1163
C33 C 0.7104(4) -0.1679(2) 0.06472(16)
H34 H 0.7670 -0.1366 0.0860
C34 C 0.7043(3) -0.1850(2) 0.01512(15)
H35 H 0.7577 -0.1658 0.0031
C35 C 0.7285(3) -0.3107(2) -0.07845(14)
C36 C 0.7415(4) -0.3811(3) -0.05324(19)
H36 H 0.6926 -0.3952 -0.0371
C37 C 0.8267(5) -0.4303(3) -0.0520(2)
H37 H 0.8342 -0.4776 -0.0355
C38 C 0.9008(4) -0.4088(3) -0.0754(2)
H38 H 0.9581 -0.4416 -0.0746
C39 C 0.8892(4) -0.3382(3) -0.0998(2)
H39 H 0.9392 -0.3234 -0.1153
C40 C 0.8029(4) -0.2895(3) -0.10128(17)
H40 H 0.7953 -0.2422 -0.1178
C41 C 0.4191(4) -0.5501(2) -0.14385(16)
H41 H 0.4093 -0.5421 -0.1799
H42 H 0.3615 -0.5846 -0.1422
C42 C 0.5320(4) -0.5816(3) -0.11407(18)
H43 H 0.5870 -0.5610 -0.1269
H44 H 0.5324 -0.6372 -0.1162
C43 C 0.5546(5) -0.5551(3) -0.05848(19)
H45 H 0.6290 -0.5339 -0.0429
H46 H 0.5467 -0.5973 -0.0372
C44 C 0.4662(4) -0.4932(3) -0.06410(15)
H47 H 0.4111 -0.5115 -0.0505
H48 H 0.5003 -0.4471 -0.0455
C45 C 0.3658(4) -0.2156(3) -0.2391(2)
H49 H 0.4133 -0.1780 -0.2154
H50 H 0.4124 -0.2534 -0.2471
C46 C 0.2939(6) -0.1793(5) -0.2853(3)
H51 H 0.2775 -0.2139 -0.3147
H52 H 0.3288 -0.1335 -0.2924
C47 C 0.1902(5) -0.1590(3) -0.2766(3)
H53 H 0.1253 -0.1676 -0.3078
H54 H 0.1914 -0.1057 -0.2664
C48 C 0.1888(4) -0.2117(3) -0.23338(19)
H55 H 0.1813 -0.1822 -0.2051
H56 H 0.1273 -0.2476 -0.2459
C49 C 0.5621(3) -0.4075(3) -0.19831(16)
H57 H 0.5915 -0.4205 -0.1617
H58 H 0.5979 -0.3609 -0.2035
C50 C 0.5803(4) -0.4724(3) -0.23049(17)
H59 H 0.5681 -0.5219 -0.2174
H60 H 0.6547 -0.4710 -0.2315
C51 C 0.4928(4) -0.4559(3) -0.28341(17)
H61 H 0.4725 -0.5021 -0.3043
H62 H 0.5187 -0.4176 -0.3019
C52 C 0.3955(3) -0.4257(3) -0.27033(16)
H63 H 0.3584 -0.3843 -0.2936
H64 H 0.3420 -0.4663 -0.2735
I2 I 0.65942(2) -0.166457(14) -0.232470(9)
O6 O 0.2119(10) -0.2640(7) -0.4470(5)
C53 C 0.1907(10) -0.1773(6) -0.4388(5)
H65 H 0.2387 -0.1598 -0.4047
H66 H 0.2028 -0.1453 -0.4650
C54 C 0.0794(10) -0.1764(7) -0.4437(5)
H67 H 0.0753 -0.1628 -0.4105
H68 H 0.0411 -0.1368 -0.4684
C55 C 0.0254(7) -0.2441(6) -0.4597(3)
H69 H 0.0158 -0.2709 -0.4309
H70 H -0.0471 -0.2357 -0.4865
C56 C 0.0922(10) -0.2844(6) -0.4785(5)
H71 H 0.0751 -0.2718 -0.5147
H72 H 0.0805 -0.3390 -0.4759
loop_
_geom_bond_atom_site_label_1
_geom_bond_atom_site_label_2
_geom_bond_site_symmetry_1
_geom_bond_site_symmetry_2
Ca1 I1 1_555 1_555
P1 N1 1_555 1_555
P2 N2 1_555 1_555
N1 H1 1_555 1_555
N2 H2 1_555 1_555
O1 Ca1 1_555 1_555
O2 Ca1 1_555 1_555
O3 Ca1 1_555 1_555
O4 Ca1 1_555 1_555
O5 Ca1 1_555 1_555
C1 N1 1_555 1_555
C2 C1 1_555 1_555
C3 C2 1_555 1_555
H3 C3 1_555 1_555
C4 C3 1_555 1_555
H4 C4 1_555 1_555
C5 C4 1_555 1_555
H5 C5 1_555 1_555
C6 C1 1_555 1_555
C7 C6 1_555 1_555
H6 C7 1_555 1_555
H7 C7 1_555 1_555
H8 C7 1_555 1_555
C8 C2 1_555 1_555
H9 C8 1_555 1_555
H10 C8 1_555 1_555
H11 C8 1_555 1_555
C9 P1 1_555 1_555
C10 C9 1_555 1_555
H12 C10 1_555 1_555
C11 C10 1_555 1_555
H13 C11 1_555 1_555
C12 C11 1_555 1_555
H14 C12 1_555 1_555
C13 C12 1_555 1_555
H15 C13 1_555 1_555
C14 C9 1_555 1_555
H16 C14 1_555 1_555
C15 P1 1_555 1_555
C16 C15 1_555 1_555
H17 C16 1_555 1_555
C17 C16 1_555 1_555
H18 C17 1_555 1_555
C18 C17 1_555 1_555
H19 C18 1_555 1_555
C19 C18 1_555 1_555
H20 C19 1_555 1_555
C20 C15 1_555 1_555
H21 C20 1_555 1_555
C21 N2 1_555 1_555
C22 C21 1_555 1_555
C23 C22 1_555 1_555
H22 C23 1_555 1_555
C24 C23 1_555 1_555
H23 C24 1_555 1_555
C25 C24 1_555 1_555
H24 C25 1_555 1_555
C26 C21 1_555 1_555
C27 C26 1_555 1_555
H25 C27 1_555 1_555
H26 C27 1_555 1_555
H27 C27 1_555 1_555
C28 C22 1_555 1_555
H28 C28 1_555 1_555
H29 C28 1_555 1_555
H30 C28 1_555 1_555
C29 P2 1_555 1_555
C30 C29 1_555 1_555
H31 C30 1_555 1_555
C31 C30 1_555 1_555
H32 C31 1_555 1_555
C32 C31 1_555 1_555
H33 C32 1_555 1_555
C33 C32 1_555 1_555
H34 C33 1_555 1_555
C34 C29 1_555 1_555
H35 C34 1_555 1_555
C35 P2 1_555 1_555
C36 C35 1_555 1_555
H36 C36 1_555 1_555
C37 C36 1_555 1_555
H37 C37 1_555 1_555
C38 C37 1_555 1_555
H38 C38 1_555 1_555
C39 C38 1_555 1_555
H39 C39 1_555 1_555
C40 C35 1_555 1_555
H40 C40 1_555 1_555
C41 O4 1_555 1_555
H41 C41 1_555 1_555
H42 C41 1_555 1_555
C42 C41 1_555 1_555
H43 C42 1_555 1_555
H44 C42 1_555 1_555
C43 C42 1_555 1_555
H45 C43 1_555 1_555
H46 C43 1_555 1_555
C44 O4 1_555 1_555
H47 C44 1_555 1_555
H48 C44 1_555 1_555
C45 O5 1_555 1_555
H49 C45 1_555 1_555
H50 C45 1_555 1_555
C46 C45 1_555 1_555
H51 C46 1_555 1_555
H52 C46 1_555 1_555
C47 C46 1_555 1_555
H53 C47 1_555 1_555
H54 C47 1_555 1_555
C48 O5 1_555 1_555
H55 C48 1_555 1_555
H56 C48 1_555 1_555
C49 O3 1_555 1_555
H57 C49 1_555 1_555
H58 C49 1_555 1_555
C50 C49 1_555 1_555
H59 C50 1_555 1_555
H60 C50 1_555 1_555
C51 C50 1_555 1_555
H61 C51 1_555 1_555
H62 C51 1_555 1_555
C52 O3 1_555 1_555
H63 C52 1_555 1_555
H64 C52 1_555 1_555
O6 C53 1_555 1_555
C53 H65 1_555 1_555
H66 C53 1_555 1_555
C54 C53 1_555 1_555
H67 C54 1_555 1_555
H68 C54 1_555 1_555
C55 C54 1_555 1_555
H69 C55 1_555 1_555
H70 C55 1_555 1_555
C56 O6 1_555 1_555
H71 C56 1_555 1_555
H72 C56 1_555 1_555
P1 O1 1_555 1_555
P2 O2 1_555 1_555
C5 C6 1_555 1_555
C13 C14 1_555 1_555
C19 C20 1_555 1_555
C25 C26 1_555 1_555
C33 C34 1_555 1_555
C39 C40 1_555 1_555
C43 C44 1_555 1_555
C47 C48 1_555 1_555
C51 C52 1_555 1_555
C55 C56 1_555 1_555

#END
