
#######################################################################
#
#                 Cambridge Crystallographic Data Centre
#                                CCDC 
#
#######################################################################
#
# If this CIF has been generated from an entry in the Cambridge 
# Structural Database, then it will include bibliographic, chemical, 
# crystal, experimental, refinement or atomic coordinate data resulting 
# from the CCDC's data processing and validation procedures.
#
#######################################################################

data_YIHNAG
_chemical_formula_moiety         'C32 H38 N6 O4'
_chemical_name_systematic        
'10,21-Di-t-butyl-3,4,5,14,15,16-hexaazapentacyclo[17.3.1.1^3,6^.1^8,12^.1^14,17^]hexacosa-1(23),4,6(26),8(25),9,11,15,17(24),19,21-decaene-23,25-diyl diacetate'
_symmetry_cell_setting           orthorhombic
_symmetry_space_group_name_H-M   'P b c a'
_symmetry_Int_Tables_number      61
_space_group_name_Hall           '-P 2ac 2ab'
loop_
_symmetry_equiv_pos_site_id
_symmetry_equiv_pos_as_xyz
1 x,y,z
2 1/2-x,-y,1/2+z
3 -x,1/2+y,1/2-z
4 1/2+x,1/2-y,-z
5 -x,-y,-z
6 1/2+x,y,1/2-z
7 x,1/2-y,1/2+z
8 1/2-x,1/2+y,z
_cell_length_a                   23.911(11)
_cell_length_b                   12.396(6)
_cell_length_c                   10.621(5)
_cell_angle_alpha                90
_cell_angle_beta                 90
_cell_angle_gamma                90
_cell_volume                     3148.07
_cell_formula_units_Z            4
loop_
_atom_site_label
_atom_site_type_symbol
_atom_site_fract_x
_atom_site_fract_y
_atom_site_fract_z
O1 O 0.45462(7) 0.02300(19) 0.1648(3)
O2 O 0.42049(10) 0.0844(3) 0.3490(3)
N1 N 0.44130(9) -0.2050(2) 0.0236(3)
N2 N 0.43189(10) -0.2560(3) -0.0853(3)
N3 N 0.48090(10) -0.2759(3) -0.1400(3)
C1 C 0.31173(11) 0.0575(3) -0.0571(3)
C2 C 0.34105(10) 0.1473(3) -0.0169(3)
H1 H 0.3293 0.2152 -0.0433
C3 C 0.38762(10) 0.1398(3) 0.0621(3)
C4 C 0.40382(10) 0.0373(3) 0.0987(3)
C5 C 0.37623(10) -0.0544(3) 0.0614(3)
C6 C 0.33016(10) -0.0415(3) -0.0176(3)
H2 H 0.3111 -0.1027 -0.0446
C7 C 0.26074(13) 0.0714(4) -0.1468(4)
C8 C 0.21699(12) 0.1395(4) -0.0792(5)
H3 H 0.1853 0.1500 -0.1334
H4 H 0.2328 0.2083 -0.0578
H5 H 0.2053 0.1032 -0.0038
C9 C 0.23557(14) -0.0352(4) -0.1829(5)
H6 H 0.2043 -0.0234 -0.2379
H7 H 0.2232 -0.0721 -0.1085
H8 H 0.2631 -0.0782 -0.2253
C10 C 0.27983(17) 0.1319(5) -0.2668(5)
H9 H 0.2484 0.1418 -0.3219
H10 H 0.3081 0.0905 -0.3091
H11 H 0.2948 0.2010 -0.2439
C11 C 0.45902(15) 0.0529(3) 0.2883(5)
C12 C 0.51859(12) 0.0412(3) 0.3329(4)
H12 H 0.5415 0.0161 0.2648
H13 H 0.5200 -0.0097 0.4009
H14 H 0.5322 0.1099 0.3615
C13 C 0.39489(9) -0.1649(3) 0.1009(4)
H15 H 0.4065 -0.1627 0.1884
H16 H 0.3636 -0.2144 0.0944
C14 C 0.52106(10) -0.2342(3) -0.0633(3)
C15 C 0.49729(10) -0.1908(3) 0.0390(3)
H17 H 0.5153 -0.1579 0.1065
C16 C 0.41900(10) 0.2392(3) 0.1003(3)
H18 H 0.4018 0.3017 0.0613
H19 H 0.4164 0.2479 0.1909
O1D O 0.54538(7) -0.02300(19) -0.1648(3)
O2D O 0.57951(10) -0.0844(3) -0.3490(3)
N1D N 0.55870(9) 0.2050(2) -0.0236(3)
N2D N 0.56811(10) 0.2560(3) 0.0853(3)
N3D N 0.51910(10) 0.2759(3) 0.1400(3)
C1D C 0.68827(11) -0.0575(3) 0.0571(3)
C2D C 0.65895(10) -0.1473(3) 0.0169(3)
H1D H 0.6707 -0.2152 0.0433
C3D C 0.61238(10) -0.1398(3) -0.0621(3)
C4D C 0.59618(10) -0.0373(3) -0.0987(3)
C5D C 0.62377(10) 0.0544(3) -0.0614(3)
C6D C 0.66984(10) 0.0415(3) 0.0176(3)
H2D H 0.6889 0.1027 0.0446
C7D C 0.73926(13) -0.0714(4) 0.1468(4)
C8D C 0.78301(12) -0.1395(4) 0.0792(5)
H3D H 0.8147 -0.1500 0.1334
H4D H 0.7672 -0.2083 0.0578
H5D H 0.7947 -0.1032 0.0038
C9D C 0.76443(14) 0.0352(4) 0.1829(5)
H6D H 0.7957 0.0234 0.2379
H7D H 0.7768 0.0721 0.1085
H8D H 0.7369 0.0782 0.2253
C10D C 0.72017(17) -0.1319(5) 0.2668(5)
H9D H 0.7516 -0.1418 0.3219
H10D H 0.6919 -0.0905 0.3091
H11D H 0.7052 -0.2010 0.2439
C11D C 0.54098(15) -0.0529(3) -0.2883(5)
C12D C 0.48141(12) -0.0412(3) -0.3329(4)
H12D H 0.4585 -0.0161 -0.2648
H13D H 0.4800 0.0097 -0.4009
H14D H 0.4678 -0.1099 -0.3615
C13D C 0.60511(9) 0.1649(3) -0.1009(4)
H15D H 0.5935 0.1627 -0.1884
H16D H 0.6364 0.2144 -0.0944
C14D C 0.47894(10) 0.2342(3) 0.0633(3)
C15D C 0.50271(10) 0.1908(3) -0.0390(3)
H17D H 0.4847 0.1579 -0.1065
C16D C 0.58100(10) -0.2392(3) -0.1003(3)
H18D H 0.5982 -0.3017 -0.0613
H19D H 0.5836 -0.2479 -0.1909
loop_
_geom_bond_atom_site_label_1
_geom_bond_atom_site_label_2
_geom_bond_site_symmetry_1
_geom_bond_site_symmetry_2
O1 C4 1_555 1_555
O2 C11 1_555 1_555
N1 N2 1_555 1_555
N2 N3 1_555 1_555
N3 C14 1_555 1_555
C1 C2 1_555 1_555
C2 H1 1_555 1_555
C3 C2 1_555 1_555
C4 C3 1_555 1_555
C5 C4 1_555 1_555
C6 C1 1_555 1_555
H2 C6 1_555 1_555
C7 C1 1_555 1_555
C8 C7 1_555 1_555
H3 C8 1_555 1_555
H4 C8 1_555 1_555
H5 C8 1_555 1_555
C9 C7 1_555 1_555
H6 C9 1_555 1_555
H7 C9 1_555 1_555
H8 C9 1_555 1_555
C10 C7 1_555 1_555
H9 C10 1_555 1_555
H10 C10 1_555 1_555
H11 C10 1_555 1_555
C11 O1 1_555 1_555
C12 C11 1_555 1_555
H12 C12 1_555 1_555
H13 C12 1_555 1_555
H14 C12 1_555 1_555
C13 N1 1_555 1_555
H15 C13 1_555 1_555
H16 C13 1_555 1_555
C14 C15 1_555 1_555
C15 N1 1_555 1_555
H17 C15 1_555 1_555
C16 C3 1_555 1_555
H18 C16 1_555 1_555
H19 C16 1_555 1_555
O1D C4D 1_555 1_555
O2D C11D 1_555 1_555
N1D N2D 1_555 1_555
N2D N3D 1_555 1_555
N3D C14D 1_555 1_555
C1D C2D 1_555 1_555
C2D H1D 1_555 1_555
C3D C2D 1_555 1_555
C4D C3D 1_555 1_555
C5D C4D 1_555 1_555
C6D C1D 1_555 1_555
H2D C6D 1_555 1_555
C7D C1D 1_555 1_555
C8D C7D 1_555 1_555
H3D C8D 1_555 1_555
H4D C8D 1_555 1_555
H5D C8D 1_555 1_555
C9D C7D 1_555 1_555
H6D C9D 1_555 1_555
H7D C9D 1_555 1_555
H8D C9D 1_555 1_555
C10D C7D 1_555 1_555
H9D C10D 1_555 1_555
H10D C10D 1_555 1_555
H11D C10D 1_555 1_555
C11D O1D 1_555 1_555
C12D C11D 1_555 1_555
H12D C12D 1_555 1_555
H13D C12D 1_555 1_555
H14D C12D 1_555 1_555
C13D N1D 1_555 1_555
H15D C13D 1_555 1_555
H16D C13D 1_555 1_555
C14D C16 1_555 1_555
C15D N1D 1_555 1_555
H17D C15D 1_555 1_555
C16D C14 1_555 1_555
H18D C16D 1_555 1_555
H19D C16D 1_555 1_555
C5 C6 1_555 1_555
C5 C13 1_555 1_555
C3D C16D 1_555 1_555
C5D C6D 1_555 1_555
C5D C13D 1_555 1_555
C14D C15D 1_555 1_555

#END
