
#######################################################################
#
#                 Cambridge Crystallographic Data Centre
#                                CCDC 
#
#######################################################################
#
# If this CIF has been generated from an entry in the Cambridge 
# Structural Database, then it will include bibliographic, chemical, 
# crystal, experimental, refinement or atomic coordinate data resulting 
# from the CCDC's data processing and validation procedures.
#
#######################################################################

data_YIHTUG
_chemical_formula_moiety         'C18 H10 S3'
_chemical_name_systematic        
2-Phenylthieno[2',3':4,5]thieno[3,2-b][1]benzothiophene
_symmetry_cell_setting           triclinic
_symmetry_space_group_name_H-M   'P -1'
_symmetry_Int_Tables_number      2
_space_group_name_Hall           '-P 1'
loop_
_symmetry_equiv_pos_site_id
_symmetry_equiv_pos_as_xyz
1 x,y,z
2 -x,-y,-z
_cell_length_a                   5.96170(10)
_cell_length_b                   7.7336(2)
_cell_length_c                   31.1550(8)
_cell_angle_alpha                95.1990(10)
_cell_angle_beta                 94.3960(10)
_cell_angle_gamma                90.1630(10)
_cell_volume                     1426.23
_exptl_crystal_colour            colorless
_exptl_crystal_description       plate
_cell_formula_units_Z            4
loop_
_atom_site_label
_atom_site_type_symbol
_atom_site_fract_x
_atom_site_fract_y
_atom_site_fract_z
S1 S 0.35776(13) 0.41579(11) 0.34219(3)
S2 S 0.90473(13) 0.61539(11) 0.28464(3)
S3 S 0.31608(13) 0.41462(11) 0.21709(3)
C1 C 0.5592(5) 0.4864(4) 0.38387(10)
C2 C 0.5397(6) 0.4747(5) 0.42778(11)
H1 H 0.4132 0.4238 0.4373
C3 C 0.7108(7) 0.5399(5) 0.45678(12)
H2 H 0.6997 0.5332 0.4862
C4 C 0.9007(6) 0.6159(5) 0.44267(12)
H3 H 1.0142 0.6602 0.4629
C5 C 0.9232(6) 0.6266(4) 0.39938(11)
H4 H 1.0509 0.6774 0.3904
C6 C 0.7519(5) 0.5602(4) 0.36897(10)
C7 C 0.7298(5) 0.5537(4) 0.32271(10)
C8 C 0.5299(5) 0.4805(4) 0.30414(10)
C9 C 0.5151(5) 0.4755(4) 0.25862(10)
C10 C 0.7035(5) 0.5469(4) 0.24339(10)
C11 C 0.6882(5) 0.5537(4) 0.19814(10)
H5 H 0.8011 0.5976 0.1831
C12 C 0.4872(5) 0.4879(4) 0.17907(10)
C13 C 0.4041(6) 0.4768(4) 0.13328(10)
C14 C 0.5226(7) 0.5526(5) 0.10311(12)
H6 H 0.6571 0.6110 0.1120
C15 C 0.4442(8) 0.5428(6) 0.06019(13)
H7 H 0.5254 0.5955 0.0405
C16 C 0.2464(7) 0.4557(6) 0.04616(13)
H8 H 0.1950 0.4474 0.0171
C17 C 0.1267(7) 0.3814(6) 0.07558(13)
H9 H -0.0085 0.3244 0.0664
C18 C 0.2035(6) 0.3901(5) 0.11841(12)
H10 H 0.1206 0.3374 0.1378
S4 S -0.14785(13) 0.13285(10) 0.34041(3)
S5 S 0.39763(12) -0.09518(10) 0.28010(3)
S6 S -0.18693(13) 0.07377(11) 0.21484(3)
C19 C 0.0501(5) 0.0815(4) 0.38137(10)
C20 C 0.0281(6) 0.1103(5) 0.42554(11)
H11 H -0.0985 0.1650 0.4358
C21 C 0.1967(6) 0.0565(5) 0.45387(12)
H12 H 0.1834 0.0743 0.4835
C22 C 0.3875(6) -0.0244(5) 0.43847(12)
H13 H 0.4996 -0.0601 0.4581
C23 C 0.4129(6) -0.0523(4) 0.39489(11)
H14 H 0.5410 -0.1063 0.3851
C24 C 0.2440(5) 0.0012(4) 0.36535(10)
C25 C 0.2242(5) -0.0124(4) 0.31900(10)
C26 C 0.0255(5) 0.0510(4) 0.30155(10)
C27 C 0.0093(5) 0.0309(4) 0.25566(10)
C28 C 0.1973(5) -0.0482(4) 0.23952(10)
C29 C 0.1830(5) -0.0758(4) 0.19394(10)
H15 H 0.2951 -0.1278 0.1782
C30 C -0.0159(5) -0.0166(4) 0.17568(10)
C31 C -0.0955(6) -0.0236(4) 0.12969(11)
C32 C -0.2953(6) 0.0558(5) 0.11626(12)
H16 H -0.3799 0.1145 0.1367
C33 C -0.3689(7) 0.0487(6) 0.07319(13)
H17 H -0.5025 0.1024 0.0648
C34 C -0.2465(8) -0.0373(6) 0.04253(13)
H18 H -0.2968 -0.0419 0.0134
C35 C -0.0490(8) -0.1166(6) 0.05502(13)
H19 H 0.0345 -0.1744 0.0342
C36 C 0.0264(6) -0.1110(5) 0.09818(12)
H20 H 0.1595 -0.1661 0.1063
loop_
_geom_bond_atom_site_label_1
_geom_bond_atom_site_label_2
_geom_bond_site_symmetry_1
_geom_bond_site_symmetry_2
S1 C1 1_555 1_555
S2 C7 1_555 1_555
S3 C9 1_555 1_555
C1 C2 1_555 1_555
C2 H1 1_555 1_555
C3 C2 1_555 1_555
H2 C3 1_555 1_555
C4 C3 1_555 1_555
H3 C4 1_555 1_555
C5 C4 1_555 1_555
H4 C5 1_555 1_555
C6 C1 1_555 1_555
C7 C6 1_555 1_555
C8 S1 1_555 1_555
C9 C8 1_555 1_555
C10 S2 1_555 1_555
C11 C10 1_555 1_555
H5 C11 1_555 1_555
C12 S3 1_555 1_555
C13 C12 1_555 1_555
C14 C13 1_555 1_555
H6 C14 1_555 1_555
C15 C14 1_555 1_555
H7 C15 1_555 1_555
C16 C15 1_555 1_555
H8 C16 1_555 1_555
C17 C16 1_555 1_555
H9 C17 1_555 1_555
C18 C13 1_555 1_555
H10 C18 1_555 1_555
S4 C19 1_555 1_555
S5 C25 1_555 1_555
S6 C27 1_555 1_555
C19 C20 1_555 1_555
C20 H11 1_555 1_555
C21 C20 1_555 1_555
H12 C21 1_555 1_555
C22 C21 1_555 1_555
H13 C22 1_555 1_555
C23 C22 1_555 1_555
H14 C23 1_555 1_555
C24 C19 1_555 1_555
C25 C24 1_555 1_555
C26 S4 1_555 1_555
C27 C26 1_555 1_555
C28 S5 1_555 1_555
C29 C28 1_555 1_555
H15 C29 1_555 1_555
C30 S6 1_555 1_555
C31 C30 1_555 1_555
C32 C31 1_555 1_555
H16 C32 1_555 1_555
C33 C32 1_555 1_555
H17 C33 1_555 1_555
C34 C33 1_555 1_555
H18 C34 1_555 1_555
C35 C34 1_555 1_555
H19 C35 1_555 1_555
C36 C31 1_555 1_555
H20 C36 1_555 1_555
C5 C6 1_555 1_555
C7 C8 1_555 1_555
C9 C10 1_555 1_555
C11 C12 1_555 1_555
C17 C18 1_555 1_555
C23 C24 1_555 1_555
C25 C26 1_555 1_555
C27 C28 1_555 1_555
C29 C30 1_555 1_555
C35 C36 1_555 1_555

#END
