
#######################################################################
#
#                 Cambridge Crystallographic Data Centre
#                                CCDC 
#
#######################################################################
#
# If this CIF has been generated from an entry in the Cambridge 
# Structural Database, then it will include bibliographic, chemical, 
# crystal, experimental, refinement or atomic coordinate data resulting 
# from the CCDC's data processing and validation procedures.
#
#######################################################################

data_YIHVES
_chemical_formula_moiety         'C22 H12 S3'
_chemical_name_systematic        
2-(2-Naphthyl)thieno[2',3':4,5]thieno[3,2-b][1]benzothiophene
_symmetry_cell_setting           monoclinic
_symmetry_space_group_name_H-M   'P n'
_symmetry_Int_Tables_number      7
_space_group_name_Hall           'P -2yac'
loop_
_symmetry_equiv_pos_site_id
_symmetry_equiv_pos_as_xyz
1 x,y,z
2 1/2+x,-y,1/2+z
_cell_length_a                   7.63860(10)
_cell_length_b                   5.89960(10)
_cell_length_c                   35.8034(4)
_cell_angle_alpha                90
_cell_angle_beta                 95.2300(10)
_cell_angle_gamma                90
_cell_volume                     1606.75
_exptl_crystal_colour            colorless
_exptl_crystal_description       plate
_cell_formula_units_Z            4
loop_
_atom_site_label
_atom_site_type_symbol
_atom_site_fract_x
_atom_site_fract_y
_atom_site_fract_z
S1 S 0.89901(10) 0.73862(18) 1.09114(2)
S2 S 0.66902(11) 0.16013(16) 1.03863(2)
S3 S 0.83920(11) 0.72811(18) 0.98231(2)
C1 C 0.8473(4) 0.5531(7) 1.12659(10)
C2 C 0.8756(5) 0.5962(7) 1.16531(11)
H1 H 0.9293 0.7331 1.1744
C3 C 0.8231(5) 0.4346(8) 1.18947(10)
H2 H 0.8442 0.4588 1.2157
C4 C 0.7399(5) 0.2361(7) 1.17651(10)
H3 H 0.7007 0.1303 1.1939
C5 C 0.7136(4) 0.1913(7) 1.13844(10)
H4 H 0.6599 0.0534 1.1298
C6 C 0.7670(4) 0.3512(7) 1.11264(10)
C7 C 0.7541(4) 0.3524(8) 1.07257(10)
C8 C 0.7147(5) 0.3498(8) 1.00350(10)
C9 C 0.6858(4) 0.3452(7) 0.96361(10)
H5 H 0.6310 0.2237 0.9496
C10 C 0.7472(4) 0.5383(8) 0.94809(10)
C11 C 0.7950(5) 0.5442(8) 1.01748(11)
C12 C 0.8170(4) 0.5455(7) 1.05744(10)
C13 C 0.7449(4) 0.6026(7) 0.90816(10)
C14 C 0.6795(4) 0.4580(7) 0.88024(10)
H6 H 0.6271 0.3189 0.8867
C15 C 0.6890(4) 0.5138(7) 0.84174(10)
C16 C 0.6273(5) 0.3631(7) 0.81266(10)
H7 H 0.5750 0.2234 0.8187
C17 C 0.6423(5) 0.4172(7) 0.77567(10)
H8 H 0.6000 0.3152 0.7564
C18 C 0.7204(5) 0.6232(8) 0.76644(10)
H9 H 0.7319 0.6582 0.7409
C19 C 0.7803(5) 0.7747(9) 0.79384(11)
H10 H 0.8315 0.9140 0.7872
C20 C 0.7653(4) 0.7225(7) 0.83235(9)
C21 C 0.8269(4) 0.8727(7) 0.86148(10)
H11 H 0.8750 1.0153 0.8555
C22 C 0.8176(4) 0.8134(7) 0.89813(10)
H12 H 0.8605 0.9155 0.9173
S4 S 0.68204(10) -0.23232(18) 0.59339(2)
S5 S 0.88278(10) 0.34465(17) 0.54333(2)
S6 S 0.68044(10) -0.22476(18) 0.48502(2)
C23 C 0.7530(4) -0.0457(8) 0.62973(10)
C24 C 0.7418(5) -0.0861(8) 0.66767(10)
H13 H 0.6903 -0.2216 0.6759
C25 C 0.8073(5) 0.0757(7) 0.69311(10)
H14 H 0.8004 0.0514 0.7192
C26 C 0.8840(4) 0.2755(7) 0.68090(10)
H15 H 0.9298 0.3838 0.6989
C27 C 0.8938(5) 0.3173(7) 0.64304(10)
H16 H 0.9455 0.4532 0.6350
C28 C 0.8263(4) 0.1557(7) 0.61681(10)
C29 C 0.8206(4) 0.1519(7) 0.57635(10)
C30 C 0.8143(4) 0.1566(7) 0.50762(10)
C31 C 0.8223(5) 0.1598(7) 0.46789(10)
H17 H 0.8677 0.2819 0.4544
C32 C 0.7555(5) -0.0382(8) 0.45170(10)
C33 C 0.7426(5) -0.0386(7) 0.52092(10)
C34 C 0.7473(4) -0.0409(7) 0.56053(10)
C35 C 0.7397(4) -0.1032(7) 0.41201(10)
C36 C 0.6621(4) -0.3175(7) 0.40114(10)
H18 H 0.6273 -0.4178 0.4199
C37 C 0.6376(4) -0.3793(7) 0.36423(10)
H19 H 0.5876 -0.5228 0.3576
C38 C 0.6860(4) -0.2317(7) 0.33567(10)
C39 C 0.6533(5) -0.2872(7) 0.29681(10)
H20 H 0.5982 -0.4269 0.2896
C40 C 0.7009(5) -0.1403(7) 0.26995(10)
H21 H 0.6790 -0.1785 0.2442
C41 C 0.7826(5) 0.0678(7) 0.28038(10)
H22 H 0.8161 0.1682 0.2615
C42 C 0.8138(5) 0.1262(7) 0.31723(10)
H23 H 0.8684 0.2671 0.3238
C43 C 0.7655(4) -0.0215(7) 0.34587(9)
C44 C 0.7922(5) 0.0351(7) 0.38478(10)
H24 H 0.8486 0.1741 0.3919
loop_
_geom_bond_atom_site_label_1
_geom_bond_atom_site_label_2
_geom_bond_site_symmetry_1
_geom_bond_site_symmetry_2
S1 C1 1_555 1_555
S2 C7 1_555 1_555
S3 C10 1_555 1_555
C1 C2 1_555 1_555
C2 H1 1_555 1_555
C3 C2 1_555 1_555
H2 C3 1_555 1_555
C4 C3 1_555 1_555
H3 C4 1_555 1_555
C5 C4 1_555 1_555
H4 C5 1_555 1_555
C6 C1 1_555 1_555
C7 C6 1_555 1_555
C8 S2 1_555 1_555
C9 C8 1_555 1_555
H5 C9 1_555 1_555
C10 C9 1_555 1_555
C11 S3 1_555 1_555
C12 S1 1_555 1_555
C13 C10 1_555 1_555
C14 C13 1_555 1_555
H6 C14 1_555 1_555
C15 C14 1_555 1_555
C16 C15 1_555 1_555
H7 C16 1_555 1_555
C17 C16 1_555 1_555
H8 C17 1_555 1_555
C18 C17 1_555 1_555
H9 C18 1_555 1_555
C19 C18 1_555 1_555
H10 C19 1_555 1_555
C20 C15 1_555 1_555
C21 C20 1_555 1_555
H11 C21 1_555 1_555
C22 C13 1_555 1_555
H12 C22 1_555 1_555
S4 C23 1_555 1_555
S5 C29 1_555 1_555
S6 C32 1_555 1_555
C23 C24 1_555 1_555
C24 H13 1_555 1_555
C25 C24 1_555 1_555
H14 C25 1_555 1_555
C26 C25 1_555 1_555
H15 C26 1_555 1_555
C27 C26 1_555 1_555
H16 C27 1_555 1_555
C28 C23 1_555 1_555
C29 C28 1_555 1_555
C30 S5 1_555 1_555
C31 C30 1_555 1_555
H17 C31 1_555 1_555
C32 C31 1_555 1_555
C33 S6 1_555 1_555
C34 S4 1_555 1_555
C35 C32 1_555 1_555
C36 C35 1_555 1_555
H18 C36 1_555 1_555
C37 C36 1_555 1_555
H19 C37 1_555 1_555
C38 C37 1_555 1_555
C39 C38 1_555 1_555
H20 C39 1_555 1_555
C40 C39 1_555 1_555
H21 C40 1_555 1_555
C41 C40 1_555 1_555
H22 C41 1_555 1_555
C42 C41 1_555 1_555
H23 C42 1_555 1_555
C43 C38 1_555 1_555
C44 C35 1_555 1_555
H24 C44 1_555 1_555
C5 C6 1_555 1_555
C7 C12 1_555 1_555
C8 C11 1_555 1_555
C11 C12 1_555 1_555
C19 C20 1_555 1_555
C21 C22 1_555 1_555
C27 C28 1_555 1_555
C29 C34 1_555 1_555
C30 C33 1_555 1_555
C33 C34 1_555 1_555
C42 C43 1_555 1_555
C43 C44 1_555 1_555

#END
