
#######################################################################
#
#                 Cambridge Crystallographic Data Centre
#                                CCDC 
#
#######################################################################
#
# If this CIF has been generated from an entry in the Cambridge 
# Structural Database, then it will include bibliographic, chemical, 
# crystal, experimental, refinement or atomic coordinate data resulting 
# from the CCDC's data processing and validation procedures.
#
#######################################################################

data_YIJBEB
_chemical_formula_moiety         'C52 H104 Li8 O4 Si8'
_chemical_name_systematic        
tetrakis(\m-1,3-bis(trimethylsilyl)allenyl)-tetrakis(tetrahydrofuran)-octa-lithium
_symmetry_cell_setting           monoclinic
_symmetry_space_group_name_H-M   'P 21/n'
_symmetry_Int_Tables_number      14
_space_group_name_Hall           '-P 2yn'
loop_
_symmetry_equiv_pos_site_id
_symmetry_equiv_pos_as_xyz
1 x,y,z
2 1/2-x,1/2+y,1/2-z
3 -x,-y,-z
4 1/2+x,1/2-y,1/2+z
_cell_length_a                   16.2375(18)
_cell_length_b                   12.0535(12)
_cell_length_c                   18.695(2)
_cell_angle_alpha                90
_cell_angle_beta                 106.628(2)
_cell_angle_gamma                90
_cell_volume                     3505.95
_exptl_crystal_colour            colorless
_exptl_crystal_description       plate
_cell_formula_units_Z            2
loop_
_atom_site_label
_atom_site_type_symbol
_atom_site_fract_x
_atom_site_fract_y
_atom_site_fract_z
C1 C 0.72781(10) 0.41404(14) 0.94694(9)
C2 C 0.67285(9) 0.48236(12) 0.90821(8)
C3 C 0.60384(10) 0.54358(13) 0.87535(9)
C4 C 0.47035(9) 0.64744(11) 1.01396(8)
C5 C 0.55355(9) 0.63118(11) 1.04568(7)
C6 C 0.63306(9) 0.59995(12) 1.07444(8)
C7 C 0.89700(12) 0.38535(19) 1.07021(11)
H1 H 0.9029 0.4656 1.0785
H2 H 0.9542 0.3517 1.0805
H3 H 0.8666 0.3532 1.1036
C8 C 0.89838(13) 0.41441(18) 0.90997(12)
H4 H 0.8674 0.4008 0.8575
H5 H 0.9545 0.3777 0.9221
H6 H 0.9065 0.4944 0.9185
C9 C 0.83475(13) 0.20288(16) 0.96098(15)
H7 H 0.8054 0.1694 0.9947
H8 H 0.8942 0.1760 0.9737
H9 H 0.8047 0.1824 0.9094
C10 C 0.66794(14) 0.71754(18) 0.78382(12)
H10 H 0.6544 0.7800 0.8121
H11 H 0.6626 0.7411 0.7325
H12 H 0.7269 0.6925 0.8075
C11 C 0.61012(19) 0.4956(2) 0.71506(12)
H13 H 0.6673 0.4629 0.7353
H14 H 0.6066 0.5320 0.6674
H15 H 0.5665 0.4371 0.7071
C12 C 0.48114(14) 0.6587(2) 0.73851(12)
H16 H 0.4385 0.5989 0.7296
H17 H 0.4798 0.6939 0.6909
H18 H 0.4677 0.7140 0.7719
C13 C 0.33620(12) 0.72581(17) 0.87699(10)
H19 H 0.3531 0.6649 0.8495
H20 H 0.3164 0.7888 0.8433
H21 H 0.2897 0.7010 0.8969
C14 C 0.39112(15) 0.88300(16) 1.00555(13)
H22 H 0.3476 0.8534 1.0274
H23 H 0.3657 0.9419 0.9699
H24 H 0.4392 0.9133 1.0452
C15 C 0.51459(13) 0.83278(15) 0.91780(12)
H25 H 0.5626 0.8595 0.9590
H26 H 0.4895 0.8951 0.8852
H27 H 0.5356 0.7770 0.8891
C16 C 0.64684(12) 0.61341(18) 1.24025(10)
H28 H 0.5851 0.6292 1.2223
H29 H 0.6728 0.6579 1.2849
H30 H 0.6555 0.5344 1.2525
C17 C 0.80695(11) 0.58156(17) 1.19162(11)
H31 H 0.8001 0.5010 1.1937
H32 H 0.8410 0.6087 1.2406
H33 H 0.8365 0.5996 1.1541
C18 C 0.71424(12) 0.80334(15) 1.16406(11)
H34 H 0.7524 0.8208 1.1334
H35 H 0.7400 0.8302 1.2151
H36 H 0.6585 0.8395 1.1429
Li1 Li 0.6648(2) 0.6529(3) 0.97140(19)
Li2 Li 0.50267(16) 0.5266(2) 0.92779(14)
Si1 Si 0.83466(3) 0.35763(4) 0.97079(3)
Si2 Si 0.59092(3) 0.60016(4) 0.78256(3)
Si3 Si 0.43104(3) 0.76936(3) 0.95615(2)
Si4 Si 0.69862(3) 0.64922(4) 1.16568(2)
Li3 Li 0.58698(18) 0.3455(2) 0.88964(15)
Li4 Li 0.65179(16) 0.4442(2) 1.02482(15)
O1 O 0.75908(8) 0.75279(10) 0.98065(9)
C19 C 0.8417(2) 0.7037(3) 0.9903(4)
H37 H 0.8373 0.6371 0.9585
H38 H 0.8680 0.6824 1.0431
C20 C 0.8933(3) 0.7926(2) 0.9671(4)
H39 H 0.8815 0.7960 0.9122
H40 H 0.9558 0.7825 0.9905
C21 C 0.85959(18) 0.8932(3) 0.9972(4)
H41 H 0.8828 0.8982 1.0522
H42 H 0.8733 0.9623 0.9743
C22 C 0.76488(13) 0.87059(14) 0.97399(15)
H43 H 0.7364 0.9092 1.0072
H44 H 0.7380 0.8949 0.9219
O2 O 0.57044(8) 0.23347(10) 0.81352(7)
C23 C 0.63754(14) 0.21022(17) 0.77987(13)
H45 H 0.6926 0.2433 0.8094
H46 H 0.6229 0.2400 0.7284
C24 C 0.64351(16) 0.08729(19) 0.77946(17)
H47 H 0.6827 0.0598 0.8270
H48 H 0.6647 0.0614 0.7376
C25 C 0.55306(14) 0.04822(17) 0.76996(13)
H49 H 0.5524 -0.0149 0.8037
H50 H 0.5257 0.0247 0.7178
C26 C 0.50710(12) 0.14711(17) 0.78977(12)
H51 H 0.4604 0.1717 0.7459
H52 H 0.4818 0.1280 0.8305
C1B C 0.27219(10) 0.58596(14) 1.05306(9)
C2B C 0.32715(9) 0.51764(12) 1.09179(8)
C3B C 0.39616(10) 0.45642(13) 1.12465(9)
C4B C 0.52965(9) 0.35256(11) 0.98604(8)
C5B C 0.44645(9) 0.36882(11) 0.95432(7)
C6B C 0.36694(9) 0.40005(12) 0.92556(8)
C7B C 0.10300(12) 0.61465(19) 0.92979(11)
H1B H 0.0971 0.5344 0.9215
H2B H 0.0458 0.6483 0.9195
H3B H 0.1334 0.6468 0.8964
C8B C 0.10162(13) 0.58559(18) 1.09003(12)
H4B H 0.1326 0.5992 1.1425
H5B H 0.0455 0.6223 1.0779
H6B H 0.0935 0.5056 1.0815
C9B C 0.16525(13) 0.79712(16) 1.03902(15)
H7B H 0.1946 0.8306 1.0053
H8B H 0.1058 0.8240 1.0263
H9B H 0.1953 0.8176 1.0906
C10B C 0.33206(14) 0.28246(18) 1.21618(12)
H10B H 0.3456 0.2200 1.1879
H11B H 0.3374 0.2589 1.2675
H12B H 0.2731 0.3075 1.1925
C11B C 0.38988(19) 0.5044(2) 1.28494(12)
H13B H 0.3327 0.5371 1.2647
H14B H 0.3934 0.4680 1.3326
H15B H 0.4335 0.5629 1.2929
C12B C 0.51886(14) 0.3413(2) 1.26149(12)
H16B H 0.5615 0.4011 1.2704
H17B H 0.5202 0.3061 1.3091
H18B H 0.5323 0.2860 1.2281
C13B C 0.66380(12) 0.27419(17) 1.12301(10)
H19B H 0.6469 0.3351 1.1505
H20B H 0.6836 0.2112 1.1567
H21B H 0.7103 0.2990 1.1031
C14B C 0.60888(15) 0.11700(16) 0.99445(13)
H22B H 0.6524 0.1466 0.9726
H23B H 0.6343 0.0581 1.0301
H24B H 0.5608 0.0867 0.9548
C15B C 0.48541(13) 0.16722(15) 1.08220(12)
H25B H 0.4374 0.1405 1.0410
H26B H 0.5105 0.1049 1.1148
H27B H 0.4644 0.2230 1.1109
C16B C 0.35316(12) 0.38659(18) 0.75975(10)
H28B H 0.4149 0.3708 0.7777
H29B H 0.3272 0.3421 0.7151
H30B H 0.3445 0.4656 0.7475
C17B C 0.19305(11) 0.41844(17) 0.80838(11)
H31B H 0.1999 0.4990 0.8063
H32B H 0.1590 0.3913 0.7594
H33B H 0.1635 0.4004 0.8459
C18B C 0.28576(12) 0.19666(15) 0.83594(11)
H34B H 0.2476 0.1792 0.8666
H35B H 0.2600 0.1698 0.7849
H36B H 0.3415 0.1605 0.8571
Li1B Li 0.3352(2) 0.3471(3) 1.02860(19)
Li2B Li 0.49733(16) 0.4734(2) 1.07221(14)
Si1B Si 0.16534(3) 0.64237(4) 1.02921(3)
Si2B Si 0.40908(3) 0.39984(4) 1.21744(3)
Si3B Si 0.56896(3) 0.23064(3) 1.04385(2)
Si4B Si 0.30138(3) 0.35078(4) 0.83432(2)
Li3B Li 0.41302(18) 0.6545(2) 1.11036(15)
Li4B Li 0.34821(16) 0.5558(2) 0.97518(15)
O1B O 0.24092(8) 0.24721(10) 1.01935(9)
C19B C 0.1583(2) 0.2963(3) 1.0097(4)
H37B H 0.1627 0.3629 1.0415
H38B H 0.1320 0.3176 0.9569
C20B C 0.1067(3) 0.2074(2) 1.0329(4)
H39B H 0.1185 0.2040 1.0878
H40B H 0.0442 0.2175 1.0095
C21B C 0.14041(18) 0.1068(3) 1.0028(4)
H41B H 0.1172 0.1018 0.9478
H42B H 0.1267 0.0377 1.0257
C22B C 0.23512(13) 0.12941(14) 1.02601(15)
H43B H 0.2636 0.0908 0.9928
H44B H 0.2620 0.1051 1.0781
O2B O 0.42956(8) 0.76653(10) 1.18648(7)
C23B C 0.36246(14) 0.78978(17) 1.22013(13)
H45B H 0.3074 0.7567 1.1906
H46B H 0.3771 0.7600 1.2716
C24B C 0.35649(16) 0.91271(19) 1.22054(17)
H47B H 0.3173 0.9402 1.1730
H48B H 0.3353 0.9386 1.2624
C25B C 0.44694(14) 0.95178(17) 1.23004(13)
H49B H 0.4476 1.0149 1.1963
H50B H 0.4743 0.9753 1.2822
C26B C 0.49290(12) 0.85289(17) 1.21023(12)
H51B H 0.5396 0.8283 1.2541
H52B H 0.5182 0.8720 1.1695
C27? C 0.8372(5) 0.7105(11) 0.9702(10)
H53? H 0.8314 0.7005 0.9164
H54? H 0.8520 0.6381 0.9957
C28? C 0.9049(7) 0.7953(8) 1.0036(12)
H55? H 0.9569 0.7860 0.9866
H56? H 0.9210 0.7954 1.0589
C29? C 0.8540(3) 0.8963(11) 0.9705(11)
H57? H 0.8769 0.9634 1.0000
H58? H 0.8549 0.9078 0.9183
H59? H 0.7538 0.9078 1.0175
H60? H 0.7219 0.8970 0.9282
loop_
_geom_bond_atom_site_label_1
_geom_bond_atom_site_label_2
_geom_bond_site_symmetry_1
_geom_bond_site_symmetry_2
C1 C2 1_555 1_555
C2 C3 1_555 1_555
C3 Li1 1_555 1_555
C4 C5 1_555 1_555
C5 C6 1_555 1_555
C6 Li1 1_555 1_555
C7 H1 1_555 1_555
H2 C7 1_555 1_555
H3 C7 1_555 1_555
C8 H4 1_555 1_555
H5 C8 1_555 1_555
H6 C8 1_555 1_555
C9 H7 1_555 1_555
H8 C9 1_555 1_555
H9 C9 1_555 1_555
C10 H10 1_555 1_555
H11 C10 1_555 1_555
H12 C10 1_555 1_555
C11 H13 1_555 1_555
H14 C11 1_555 1_555
H15 C11 1_555 1_555
C12 H16 1_555 1_555
H17 C12 1_555 1_555
H18 C12 1_555 1_555
C13 H19 1_555 1_555
H20 C13 1_555 1_555
H21 C13 1_555 1_555
C14 H22 1_555 1_555
H23 C14 1_555 1_555
H24 C14 1_555 1_555
C15 H25 1_555 1_555
H26 C15 1_555 1_555
H27 C15 1_555 1_555
C16 H28 1_555 1_555
H29 C16 1_555 1_555
H30 C16 1_555 1_555
C17 H31 1_555 1_555
H32 C17 1_555 1_555
H33 C17 1_555 1_555
C18 H34 1_555 1_555
H35 C18 1_555 1_555
H36 C18 1_555 1_555
Li1 C2 1_555 1_555
Li2 C3 1_555 1_555
Si1 C1 1_555 1_555
Si2 C3 1_555 1_555
Si3 C4 1_555 1_555
Si4 C6 1_555 1_555
Li3 C1 1_555 1_555
Li4 C1 1_555 1_555
O1 Li1 1_555 1_555
C19 O1 1_555 1_555
H37 C19 1_555 1_555
H38 C19 1_555 1_555
C20 C19 1_555 1_555
H39 C20 1_555 1_555
H40 C20 1_555 1_555
C21 C20 1_555 1_555
H41 C21 1_555 1_555
H42 C21 1_555 1_555
C22 O1 1_555 1_555
H43 C22 1_555 1_555
H44 C22 1_555 1_555
O2 Li3 1_555 1_555
C23 O2 1_555 1_555
H45 C23 1_555 1_555
H46 C23 1_555 1_555
C24 C23 1_555 1_555
H47 C24 1_555 1_555
H48 C24 1_555 1_555
C25 C24 1_555 1_555
H49 C25 1_555 1_555
H50 C25 1_555 1_555
C26 O2 1_555 1_555
H51 C26 1_555 1_555
H52 C26 1_555 1_555
C1B C2B 1_555 1_555
C2B C3B 1_555 1_555
C3B Li1B 1_555 1_555
C4B Li2 1_555 1_555
C5B Li2 1_555 1_555
C6B C5B 1_555 1_555
C7B H1B 1_555 1_555
H2B C7B 1_555 1_555
H3B C7B 1_555 1_555
C8B H4B 1_555 1_555
H5B C8B 1_555 1_555
H6B C8B 1_555 1_555
C9B H7B 1_555 1_555
H8B C9B 1_555 1_555
H9B C9B 1_555 1_555
C10B H10B 1_555 1_555
H11B C10B 1_555 1_555
H12B C10B 1_555 1_555
C11B H13B 1_555 1_555
H14B C11B 1_555 1_555
H15B C11B 1_555 1_555
C12B H16B 1_555 1_555
H17B C12B 1_555 1_555
H18B C12B 1_555 1_555
C13B H19B 1_555 1_555
H20B C13B 1_555 1_555
H21B C13B 1_555 1_555
C14B H22B 1_555 1_555
H23B C14B 1_555 1_555
H24B C14B 1_555 1_555
C15B H25B 1_555 1_555
H26B C15B 1_555 1_555
H27B C15B 1_555 1_555
C16B H28B 1_555 1_555
H29B C16B 1_555 1_555
H30B C16B 1_555 1_555
C17B H31B 1_555 1_555
H32B C17B 1_555 1_555
H33B C17B 1_555 1_555
C18B H34B 1_555 1_555
H35B C18B 1_555 1_555
H36B C18B 1_555 1_555
Li1B C2B 1_555 1_555
Li2B C4 1_555 1_555
Si1B C1B 1_555 1_555
Si2B C3B 1_555 1_555
Si3B C4B 1_555 1_555
Si4B C6B 1_555 1_555
Li3B C4 1_555 1_555
Li4B C4 1_555 1_555
O1B Li1B 1_555 1_555
C19B O1B 1_555 1_555
H37B C19B 1_555 1_555
H38B C19B 1_555 1_555
C20B C19B 1_555 1_555
H39B C20B 1_555 1_555
H40B C20B 1_555 1_555
C21B C20B 1_555 1_555
H41B C21B 1_555 1_555
H42B C21B 1_555 1_555
C22B O1B 1_555 1_555
H43B C22B 1_555 1_555
H44B C22B 1_555 1_555
O2B Li3B 1_555 1_555
C23B O2B 1_555 1_555
H45B C23B 1_555 1_555
H46B C23B 1_555 1_555
C24B C23B 1_555 1_555
H47B C24B 1_555 1_555
H48B C24B 1_555 1_555
C25B C24B 1_555 1_555
H49B C25B 1_555 1_555
H50B C25B 1_555 1_555
C26B O2B 1_555 1_555
H51B C26B 1_555 1_555
H52B C26B 1_555 1_555
C2 Li3 1_555 1_555
C2 Li4 1_555 1_555
C3 Li3 1_555 1_555
C4 Li2 1_555 1_555
C5 Li2 1_555 1_555
C5 Li2B 1_555 1_555
C6 Li4 1_555 1_555
C7 Si1 1_555 1_555
C8 Si1 1_555 1_555
C9 Si1 1_555 1_555
C10 Si2 1_555 1_555
C11 Si2 1_555 1_555
C12 Si2 1_555 1_555
C13 Si3 1_555 1_555
C14 Si3 1_555 1_555
C15 Si3 1_555 1_555
C16 Si4 1_555 1_555
C17 Si4 1_555 1_555
C18 Si4 1_555 1_555
Li3 C4B 1_555 1_555
Li4 C4B 1_555 1_555
C21 C22 1_555 1_555
C25 C26 1_555 1_555
C1B Li3B 1_555 1_555
C1B Li4B 1_555 1_555
C2B Li3B 1_555 1_555
C2B Li4B 1_555 1_555
C3B Li2B 1_555 1_555
C3B Li3B 1_555 1_555
C4B C5B 1_555 1_555
C4B Li2B 1_555 1_555
C5B Li2B 1_555 1_555
C6B Li1B 1_555 1_555
C6B Li4B 1_555 1_555
C7B Si1B 1_555 1_555
C8B Si1B 1_555 1_555
C9B Si1B 1_555 1_555
C10B Si2B 1_555 1_555
C11B Si2B 1_555 1_555
C12B Si2B 1_555 1_555
C13B Si3B 1_555 1_555
C14B Si3B 1_555 1_555
C15B Si3B 1_555 1_555
C16B Si4B 1_555 1_555
C17B Si4B 1_555 1_555
C18B Si4B 1_555 1_555
C21B C22B 1_555 1_555
C25B C26B 1_555 1_555

#END
