
#######################################################################
#
#                 Cambridge Crystallographic Data Centre
#                                CCDC 
#
#######################################################################
#
# If this CIF has been generated from an entry in the Cambridge 
# Structural Database, then it will include bibliographic, chemical, 
# crystal, experimental, refinement or atomic coordinate data resulting 
# from the CCDC's data processing and validation procedures.
#
#######################################################################

data_YIJDOK01
_chemical_formula_moiety         'C34 H102 Si16'
_chemical_name_systematic        
(2,2-bis(Trimethylsilyl)dimethylsilyl)methylsilane
_symmetry_cell_setting           hexagonal
_symmetry_space_group_name_H-M   'P 63'
_symmetry_Int_Tables_number      173
_space_group_name_Hall           'P 6c'
loop_
_symmetry_equiv_pos_site_id
_symmetry_equiv_pos_as_xyz
1 x,y,z
2 x-y,x,1/2+z
3 -y,x-y,z
4 -x,-y,1/2+z
5 -x+y,-x,z
6 y,-x+y,1/2+z
_cell_length_a                   26.248(4)
_cell_length_b                   26.248(4)
_cell_length_c                   16.293(9)
_cell_angle_alpha                90
_cell_angle_beta                 90
_cell_angle_gamma                120
_cell_volume                     9721.3
_exptl_crystal_colour            colorless
_cell_formula_units_Z            6
loop_
_atom_site_label
_atom_site_type_symbol
_atom_site_fract_x
_atom_site_fract_y
_atom_site_fract_z
Si1 Si 0.6667 0.3333 0.1858
Si2 Si 0.5937(3) 0.2389(3) 0.1376(8)
Si3 Si 0.5866(3) 0.1453(3) 0.1682(8)
Si4 Si 0.4847(3) 0.0753(3) 0.1585(8)
Si5 Si 0.6186(3) 0.1306(3) 0.2945(8)
Si6 Si 0.6284(3) 0.1145(3) 0.0624(8)
C1 C 0.6667 0.3333 0.300(3)
C2 C 0.5885(8) 0.2459(9) 0.023(1)
C3 C 0.5248(9) 0.2312(10) 0.198(2)
C4 C 0.4491(8) 0.086(1) 0.068(2)
C5 C 0.449(1) 0.085(1) 0.259(3)
C6 C 0.470(1) -0.003(1) 0.149(2)
C7 C 0.693(1) 0.147(2) 0.289(2)
C8 C 0.575(1) 0.047(1) 0.323(2)
C9 C 0.6112(10) 0.1760(10) 0.372(1)
C10 C 0.627(1) 0.046(1) 0.103(2)
C11 C 0.587(1) 0.103(1) -0.033(2)
C12 C 0.710(1) 0.174(1) 0.046(2)
H1 H 0.5837 0.2783 0.0103
H2 H 0.6221 0.2495 -0.0043
H3 H 0.5543 0.2105 0.0019
H4 H 0.5256 0.2668 0.1785
H5 H 0.4937 0.1988 0.1697
H6 H 0.5315 0.2289 0.2468
H7 H 0.4522 0.1240 0.0736
H8 H 0.4697 0.0859 0.0210
H9 H 0.4098 0.0567 0.0666
H10 H 0.4490 0.1172 0.2615
H11 H 0.4050 0.0501 0.2561
H12 H 0.4637 0.0731 0.3037
H13 H 0.4271 -0.0278 0.1393
H14 H 0.4860 -0.0042 0.0921
H15 H 0.4842 -0.0129 0.1865
H16 H 0.7094 0.1404 0.3334
H17 H 0.6981 0.1219 0.2419
H18 H 0.7203 0.1868 0.2664
H19 H 0.5329 0.0354 0.3289
H20 H 0.5781 0.0235 0.2844
H21 H 0.5870 0.0416 0.3762
H22 H 0.6238 0.1697 0.4219
H23 H 0.6358 0.2167 0.3554
H24 H 0.5718 0.1672 0.3732
H25 H 0.5877 0.0163 0.1116
H26 H 0.6427 0.0315 0.0588
H27 H 0.6501 0.0547 0.1482
H28 H 0.5895 0.1372 -0.0547
H29 H 0.6015 0.0866 -0.0766
H30 H 0.5459 0.0734 -0.0267
H31 H 0.7321 0.1831 0.0818
H32 H 0.7232 0.1578 -0.0064
H33 H 0.7091 0.2073 0.0129
Si2B Si 0.7611(3) 0.3548(4) 0.1376(8)
Si3B Si 0.8547(3) 0.4413(4) 0.1682(8)
Si4B Si 0.9247(3) 0.4094(4) 0.1585(8)
C4B C 0.914(1) 0.3631(13) 0.068(2)
H7B H 0.8760 0.3282 0.0736
H8B H 0.9141 0.3838 0.0210
H9B H 0.9433 0.3531 0.0666
C5B C 0.915(1) 0.364(1) 0.259(3)
H10B H 0.8828 0.3318 0.2615
H11B H 0.9499 0.3549 0.2561
H12B H 0.9269 0.3906 0.3037
C6B C 1.003(1) 0.473(1) 0.149(2)
H13B H 1.0278 0.4549 0.1393
H14B H 1.0042 0.4902 0.0921
H15B H 1.0129 0.4971 0.1865
Si5B Si 0.8694(3) 0.4880(4) 0.2945(8)
C7B C 0.853(2) 0.546(2) 0.289(2)
H16B H 0.8596 0.5690 0.3334
H17B H 0.8781 0.5762 0.2419
H18B H 0.8132 0.5335 0.2664
C8B C 0.953(1) 0.528(1) 0.323(2)
H19B H 0.9646 0.4975 0.3289
H20B H 0.9765 0.5546 0.2844
H21B H 0.9584 0.5454 0.3762
C9B C 0.8240(10) 0.4352(14) 0.372(1)
H22B H 0.8303 0.4541 0.4219
H23B H 0.7833 0.4191 0.3554
H24B H 0.8328 0.4046 0.3732
Si6B Si 0.8855(3) 0.5139(4) 0.0624(8)
C10B C 0.954(1) 0.581(1) 0.103(2)
H25B H 0.9837 0.5714 0.1116
H26B H 0.9685 0.6112 0.0588
H27B H 0.9453 0.5954 0.1482
C11B C 0.897(1) 0.484(1) -0.033(2)
H28B H 0.8628 0.4523 -0.0547
H29B H 0.9134 0.5149 -0.0766
H30B H 0.9266 0.4725 -0.0267
C12B C 0.826(1) 0.536(1) 0.046(2)
H31B H 0.8169 0.5490 0.0818
H32B H 0.8422 0.5654 -0.0064
H33B H 0.7927 0.5018 0.0129
C2B C 0.7541(9) 0.3426(12) 0.023(1)
H1B H 0.7217 0.3054 0.0103
H2B H 0.7505 0.3726 -0.0043
H3B H 0.7895 0.3438 0.0019
C3B C 0.7688(10) 0.2936(13) 0.198(2)
H4B H 0.7332 0.2588 0.1785
H5B H 0.8012 0.2949 0.1697
H6B H 0.7711 0.3026 0.2468
Si2D Si 0.6452(4) 0.4063(3) 0.1376(8)
Si3D Si 0.5587(4) 0.4134(3) 0.1682(8)
Si4D Si 0.5906(4) 0.5153(3) 0.1585(8)
C4D C 0.6369(13) 0.5509(8) 0.068(2)
H7D H 0.6718 0.5478 0.0736
H8D H 0.6162 0.5303 0.0210
H9D H 0.6469 0.5902 0.0666
C5D C 0.636(1) 0.551(1) 0.259(3)
H10D H 0.6682 0.5510 0.2615
H11D H 0.6451 0.5950 0.2561
H12D H 0.6094 0.5363 0.3037
C6D C 0.527(1) 0.530(1) 0.149(2)
H13D H 0.5451 0.5729 0.1393
H14D H 0.5098 0.5140 0.0921
H15D H 0.5029 0.5158 0.1865
Si5D Si 0.5120(4) 0.3814(3) 0.2945(8)
C7D C 0.454(2) 0.307(1) 0.289(2)
H16D H 0.4310 0.2906 0.3334
H17D H 0.4238 0.3019 0.2419
H18D H 0.4665 0.2797 0.2664
C8D C 0.472(1) 0.425(1) 0.323(2)
H19D H 0.5025 0.4671 0.3289
H20D H 0.4454 0.4219 0.2844
H21D H 0.4546 0.4130 0.3762
C9D C 0.5648(14) 0.3888(10) 0.372(1)
H22D H 0.5459 0.3762 0.4219
H23D H 0.5809 0.3642 0.3554
H24D H 0.5954 0.4282 0.3732
Si6D Si 0.4861(4) 0.3716(3) 0.0624(8)
C10D C 0.419(1) 0.373(1) 0.103(2)
H25D H 0.4286 0.4123 0.1116
H26D H 0.3888 0.3573 0.0588
H27D H 0.4046 0.3499 0.1482
C11D C 0.516(1) 0.413(1) -0.033(2)
H28D H 0.5477 0.4105 -0.0547
H29D H 0.4851 0.3985 -0.0766
H30D H 0.5275 0.4541 -0.0267
C12D C 0.464(1) 0.290(1) 0.046(2)
H31D H 0.4510 0.2679 0.0818
H32D H 0.4346 0.2768 -0.0064
H33D H 0.4982 0.2909 0.0129
C2D C 0.6574(12) 0.4115(8) 0.023(1)
H1D H 0.6946 0.4163 0.0103
H2D H 0.6274 0.3779 -0.0043
H3D H 0.6562 0.4457 0.0019
C3D C 0.7064(13) 0.4752(9) 0.198(2)
H4D H 0.7412 0.4744 0.1785
H5D H 0.7051 0.5063 0.1697
H6D H 0.6974 0.4685 0.2468
Si7 Si 0.6667 0.3333 0.647(1)
Si8 Si 0.5704(2) 0.3103(2) 0.6947(7)
Si9 Si 0.4792(3) 0.2240(3) 0.6735(8)
Si10 Si 0.4629(3) 0.1764(3) 0.5414(8)
Si11 Si 0.4501(3) 0.1515(3) 0.7711(8)
Si12 Si 0.4088(3) 0.2557(4) 0.6710(9)
C13 C 0.6667 0.3333 0.532(3)
C14 C 0.5728(9) 0.376(1) 0.642(2)
C15 C 0.5738(8) 0.3214(9) 0.802(2)
C16 C 0.385(1) 0.138(1) 0.510(2)
C17 C 0.4857(8) 0.1169(7) 0.545(2)
C18 C 0.502(2) 0.234(1) 0.458(2)
C19 C 0.506(1) 0.134(1) 0.800(3)
C20 C 0.3843(10) 0.080(1) 0.742(2)
C21 C 0.426(2) 0.173(1) 0.870(2)
C22 C 0.332(1) 0.187(2) 0.692(3)
C23 C 0.4259(9) 0.310(1) 0.759(2)
C24 C 0.404(1) 0.293(1) 0.584(2)
H34 H 0.6026 0.4110 0.6569
H35 H 0.5672 0.3707 0.5841
H36 H 0.5344 0.3761 0.6599
H37 H 0.5747 0.2909 0.8310
H38 H 0.6082 0.3584 0.8169
H39 H 0.5400 0.3240 0.8207
H40 H 0.3704 0.1657 0.5091
H41 H 0.3818 0.1253 0.4518
H42 H 0.3618 0.1064 0.5417
H43 H 0.4633 0.0873 0.5706
H44 H 0.4792 0.1028 0.4788
H45 H 0.5264 0.1354 0.5460
H46 H 0.5431 0.2517 0.4641
H47 H 0.4923 0.2137 0.4039
H48 H 0.4896 0.2613 0.4572
H49 H 0.4910 0.1028 0.8352
H50 H 0.5117 0.1153 0.7445
H51 H 0.5402 0.1651 0.8094
H52 H 0.3509 0.0841 0.7298
H53 H 0.3923 0.0640 0.6924
H54 H 0.3736 0.0509 0.7837
H55 H 0.4637 0.2099 0.8867
H56 H 0.3975 0.1759 0.8634
H57 H 0.4251 0.1440 0.9099
H58 H 0.3028 0.1965 0.6858
H59 H 0.3254 0.1589 0.6429
H60 H 0.3316 0.1679 0.7372
H61 H 0.4225 0.2941 0.8111
H62 H 0.4619 0.3459 0.7530
H63 H 0.3949 0.3235 0.7586
H64 H 0.4430 0.3286 0.5746
H65 H 0.3994 0.2685 0.5350
H66 H 0.3758 0.3020 0.5868
Si8B Si 0.6897(2) 0.2601(3) 0.6947(7)
Si9B Si 0.7760(3) 0.2552(4) 0.6735(8)
Si10B Si 0.8236(3) 0.2865(4) 0.5414(8)
C16B C 0.862(1) 0.247(1) 0.510(2)
H40B H 0.8343 0.2047 0.5091
H41B H 0.8747 0.2565 0.4518
H42B H 0.8936 0.2554 0.5417
C17B C 0.8831(7) 0.3688(11) 0.545(2)
H43B H 0.9127 0.3760 0.5706
H44B H 0.8972 0.3764 0.4788
H45B H 0.8646 0.3910 0.5460
C18B C 0.766(1) 0.268(2) 0.458(2)
H46B H 0.7483 0.2914 0.4641
H47B H 0.7863 0.2786 0.4039
H48B H 0.7387 0.2283 0.4572
Si11B Si 0.8485(3) 0.2986(4) 0.7711(8)
C19B C 0.866(1) 0.372(1) 0.800(3)
H49B H 0.8972 0.3882 0.8352
H50B H 0.8847 0.3964 0.7445
H51B H 0.8349 0.3751 0.8094
C20B C 0.920(1) 0.3043(14) 0.742(2)
H52B H 0.9159 0.2668 0.7298
H53B H 0.9360 0.3283 0.6924
H54B H 0.9491 0.3227 0.7837
C21B C 0.827(1) 0.253(2) 0.870(2)
H55B H 0.7901 0.2538 0.8867
H56B H 0.8241 0.2216 0.8634
H57B H 0.8560 0.2811 0.9099
Si12B Si 0.7443(4) 0.1531(5) 0.6710(9)
C22B C 0.813(2) 0.145(2) 0.692(3)
H58B H 0.8035 0.1063 0.6858
H59B H 0.8411 0.1665 0.6429
H60B H 0.8321 0.1637 0.7372
C23B C 0.690(1) 0.1159(13) 0.759(2)
H61B H 0.7059 0.1284 0.8111
H62B H 0.6541 0.1160 0.7530
H63B H 0.6765 0.0714 0.7586
C24B C 0.707(1) 0.111(1) 0.584(2)
H64B H 0.6714 0.1144 0.5746
H65B H 0.7315 0.1309 0.5350
H66B H 0.6980 0.0738 0.5868
C14B C 0.624(1) 0.1968(13) 0.642(2)
H34B H 0.5890 0.1916 0.6569
H35B H 0.6293 0.1965 0.5841
H36B H 0.6239 0.1583 0.6599
C15B C 0.6786(9) 0.2524(12) 0.802(2)
H37B H 0.7091 0.2838 0.8310
H38B H 0.6416 0.2498 0.8169
H39B H 0.6760 0.2160 0.8207
Si8D Si 0.7399(3) 0.4296(2) 0.6947(7)
Si9D Si 0.7448(4) 0.5208(3) 0.6735(8)
Si10D Si 0.7135(4) 0.5371(3) 0.5414(8)
C16D C 0.753(1) 0.615(1) 0.510(2)
H40D H 0.7953 0.6296 0.5091
H41D H 0.7435 0.6182 0.4518
H42D H 0.7446 0.6382 0.5417
C17D C 0.6312(11) 0.5143(8) 0.545(2)
H43D H 0.6240 0.5367 0.5706
H44D H 0.6236 0.5208 0.4788
H45D H 0.6090 0.4736 0.5460
C18D C 0.732(2) 0.498(2) 0.458(2)
H46D H 0.7086 0.4569 0.4641
H47D H 0.7214 0.5077 0.4039
H48D H 0.7717 0.5104 0.4572
Si11D Si 0.7014(4) 0.5499(3) 0.7711(8)
C19D C 0.628(1) 0.494(1) 0.800(3)
H49D H 0.6118 0.5090 0.8352
H50D H 0.6036 0.4883 0.7445
H51D H 0.6249 0.4598 0.8094
C20D C 0.6957(14) 0.6157(10) 0.742(2)
H52D H 0.7332 0.6491 0.7298
H53D H 0.6717 0.6077 0.6924
H54D H 0.6773 0.6264 0.7837
C21D C 0.747(2) 0.574(2) 0.870(2)
H55D H 0.7462 0.5363 0.8867
H56D H 0.7784 0.6025 0.8634
H57D H 0.7189 0.5749 0.9099
Si12D Si 0.8469(5) 0.5912(3) 0.6710(9)
C22D C 0.855(2) 0.668(1) 0.692(3)
H58D H 0.8937 0.6972 0.6858
H59D H 0.8335 0.6746 0.6429
H60D H 0.8363 0.6684 0.7372
C23D C 0.8841(13) 0.5741(9) 0.759(2)
H61D H 0.8716 0.5775 0.8111
H62D H 0.8840 0.5381 0.7530
H63D H 0.9286 0.6051 0.7586
C24D C 0.889(1) 0.596(1) 0.584(2)
H64D H 0.8856 0.5570 0.5746
H65D H 0.8691 0.6006 0.5350
H66D H 0.9262 0.6242 0.5868
C14D C 0.8032(13) 0.4272(9) 0.642(2)
H34D H 0.8084 0.3974 0.6569
H35D H 0.8035 0.4328 0.5841
H36D H 0.8417 0.4656 0.6599
C15D C 0.7476(12) 0.4262(8) 0.802(2)
H37D H 0.7162 0.4253 0.8310
H38D H 0.7502 0.3918 0.8169
H39D H 0.7840 0.4600 0.8207
Si13 Si 1.0000 0.0000 0.232(2)
Si14 Si 1.0951(5) 0.0211(5) 0.1899(10)
Si15 Si 1.1885(2) 0.1077(2) 0.2138(7)
Si16 Si 1.257(1) 0.072(1) 0.185(2)
Si17 Si 1.2040(7) 0.1574(7) 0.345(1)
Si18 Si 1.2165(6) 0.1736(6) 0.105(1)
C25 C 1.0000 0.0000 0.352(8)
C26 C 1.097(2) 0.006(2) 0.081(4)
C27 C 1.108(1) -0.038(1) 0.238(2)
C28 C 1.261(2) 0.035(2) 0.129(3)
C29 C 1.241(2) 0.014(2) 0.284(3)
C30 C 1.336(2) 0.133(2) 0.250(3)
C31 C 1.184(3) 0.207(3) 0.340(4)
C32 C 1.290(2) 0.195(2) 0.359(3)
C33 C 1.156(2) 0.107(2) 0.425(3)
C34 C 1.287(2) 0.246(2) 0.142(3)
C35 C 1.245(3) 0.159(3) 0.010(4)
C36 C 1.159(3) 0.205(3) 0.082(4)
Si14B Si 0.9789(5) 0.0740(7) 0.1899(10)
Si15B Si 0.8923(2) 0.0808(3) 0.2138(7)
Si16B Si 0.928(1) 0.185(1) 0.185(2)
C28B C 0.965(2) 0.226(3) 0.129(3)
C29B C 0.986(2) 0.227(3) 0.284(3)
C30B C 0.867(2) 0.203(3) 0.250(3)
Si17B Si 0.8426(7) 0.0466(10) 0.345(1)
C31B C 0.793(3) -0.023(4) 0.340(4)
C32B C 0.805(2) 0.095(3) 0.359(3)
C33B C 0.893(2) 0.049(3) 0.425(3)
Si18B Si 0.8264(6) 0.0429(8) 0.105(1)
C34B C 0.754(2) 0.041(3) 0.142(3)
C35B C 0.841(3) 0.086(4) 0.010(4)
C36B C 0.795(3) -0.046(4) 0.082(4)
C26B C 0.994(2) 0.091(3) 0.081(4)
C27B C 1.038(1) 0.146(1) 0.238(2)
Si14D Si 0.9260(7) -0.0951(5) 0.1899(10)
Si15D Si 0.9192(3) -0.1885(2) 0.2138(7)
Si16D Si 0.815(1) -0.257(1) 0.185(2)
C28D C 0.774(3) -0.261(2) 0.129(3)
C29D C 0.773(3) -0.241(2) 0.284(3)
C30D C 0.797(3) -0.336(2) 0.250(3)
Si17D Si 0.9534(10) -0.2040(7) 0.345(1)
C31D C 1.023(4) -0.184(3) 0.340(4)
C32D C 0.905(3) -0.290(2) 0.359(3)
C33D C 0.951(3) -0.156(2) 0.425(3)
Si18D Si 0.9571(8) -0.2165(6) 0.105(1)
C34D C 0.959(3) -0.287(2) 0.142(3)
C35D C 0.914(4) -0.245(3) 0.010(4)
C36D C 1.046(4) -0.159(3) 0.082(4)
C26D C 0.909(3) -0.097(2) 0.081(4)
C27D C 0.854(1) -0.108(1) 0.238(2)
Si19? Si 1.0000 0.0000 0.196(2)
Si20? Si 1.0952(6) 0.0209(6) 0.242(1)
Si21? Si 1.2557(5) 0.0721(5) 0.2230(9)
Si22? Si 1.2178(8) 0.1770(8) 0.318(1)
Si23? Si 1.2078(10) 0.1558(10) 0.080(2)
C37? C 1.0000 0.0000 0.084(4)
C38? C 1.106(2) -0.038(2) 0.189(3)
C39? C 1.100(2) 0.006(2) 0.347(3)
C40? C 1.261(2) 0.038(2) 0.087(3)
C41? C 1.254(3) 0.034(3) 0.325(4)
C42? C 1.335(2) 0.142(2) 0.197(3)
C43? C 1.168(3) 0.209(3) 0.344(4)
C44? C 1.292(2) 0.242(2) 0.292(3)
C45? C 1.249(3) 0.160(3) 0.419(4)
C46? C 1.285(3) 0.181(3) 0.051(4)
C47? C 1.186(4) 0.116(4) -0.015(6)
C48? C 1.183(2) 0.215(3) 0.084(4)
loop_
_geom_bond_atom_site_label_1
_geom_bond_atom_site_label_2
_geom_bond_site_symmetry_1
_geom_bond_site_symmetry_2
Si1 Si2 1_555 1_555
Si2 Si3 1_555 1_555
Si3 Si4 1_555 1_555
Si4 C4 1_555 1_555
Si5 Si3 1_555 1_555
Si6 Si3 1_555 1_555
C1 Si1 1_555 1_555
C2 Si2 1_555 1_555
C3 Si2 1_555 1_555
C4 H7 1_555 1_555
C5 Si4 1_555 1_555
C6 Si4 1_555 1_555
C7 Si5 1_555 1_555
C8 Si5 1_555 1_555
C9 Si5 1_555 1_555
C10 Si6 1_555 1_555
C11 Si6 1_555 1_555
C12 Si6 1_555 1_555
H1 C2 1_555 1_555
H2 C2 1_555 1_555
H3 C2 1_555 1_555
H4 C3 1_555 1_555
H5 C3 1_555 1_555
H6 C3 1_555 1_555
H8 C4 1_555 1_555
H9 C4 1_555 1_555
H10 C5 1_555 1_555
H11 C5 1_555 1_555
H12 C5 1_555 1_555
H13 C6 1_555 1_555
H14 C6 1_555 1_555
H15 C6 1_555 1_555
H16 C7 1_555 1_555
H17 C7 1_555 1_555
H18 C7 1_555 1_555
H19 C8 1_555 1_555
H20 C8 1_555 1_555
H21 C8 1_555 1_555
H22 C9 1_555 1_555
H23 C9 1_555 1_555
H24 C9 1_555 1_555
H25 C10 1_555 1_555
H26 C10 1_555 1_555
H27 C10 1_555 1_555
H28 C11 1_555 1_555
H29 C11 1_555 1_555
H30 C11 1_555 1_555
H31 C12 1_555 1_555
H32 C12 1_555 1_555
H33 C12 1_555 1_555
Si7 Si8 1_555 1_555
Si8 Si9 1_555 1_555
Si9 Si10 1_555 1_555
Si10 C16 1_555 1_555
Si11 Si9 1_555 1_555
Si12 Si9 1_555 1_555
C13 Si7 1_555 1_555
C14 Si8 1_555 1_555
C15 Si8 1_555 1_555
C16 H40 1_555 1_555
C17 Si10 1_555 1_555
C18 Si10 1_555 1_555
C19 Si11 1_555 1_555
C20 Si11 1_555 1_555
C21 Si11 1_555 1_555
C22 Si12 1_555 1_555
C23 Si12 1_555 1_555
C24 Si12 1_555 1_555
H34 C14 1_555 1_555
H35 C14 1_555 1_555
H36 C14 1_555 1_555
H37 C15 1_555 1_555
H38 C15 1_555 1_555
H39 C15 1_555 1_555
H41 C16 1_555 1_555
H42 C16 1_555 1_555
H43 C17 1_555 1_555
H44 C17 1_555 1_555
H45 C17 1_555 1_555
H46 C18 1_555 1_555
H47 C18 1_555 1_555
H48 C18 1_555 1_555
H49 C19 1_555 1_555
H50 C19 1_555 1_555
H51 C19 1_555 1_555
H52 C20 1_555 1_555
H53 C20 1_555 1_555
H54 C20 1_555 1_555
H55 C21 1_555 1_555
H56 C21 1_555 1_555
H57 C21 1_555 1_555
H58 C22 1_555 1_555
H59 C22 1_555 1_555
H60 C22 1_555 1_555
H61 C23 1_555 1_555
H62 C23 1_555 1_555
H63 C23 1_555 1_555
H64 C24 1_555 1_555
H65 C24 1_555 1_555
H66 C24 1_555 1_555
Si13 Si14 1_555 1_555
Si14 Si15 1_555 1_555
Si15 Si16 1_555 1_555
Si16 C28 1_555 1_555
Si17 Si15 1_555 1_555
Si18 Si15 1_555 1_555
C25 Si13 1_555 1_555
C26 Si14 1_555 1_555
C27 Si14 1_555 1_555
C29 Si16 1_555 1_555
C30 Si16 1_555 1_555
C31 Si17 1_555 1_555
C32 Si17 1_555 1_555
C33 Si17 1_555 1_555
C34 Si18 1_555 1_555
C35 Si18 1_555 1_555
C36 Si18 1_555 1_555
Si2B Si1 1_555 1_555
Si3B Si2B 1_555 1_555
Si4B Si3B 1_555 1_555
C4B Si4B 1_555 1_555
H7B C4B 1_555 1_555
H8B C4B 1_555 1_555
H9B C4B 1_555 1_555
C5B Si4B 1_555 1_555
H10B C5B 1_555 1_555
H11B C5B 1_555 1_555
H12B C5B 1_555 1_555
C6B Si4B 1_555 1_555
H13B C6B 1_555 1_555
H14B C6B 1_555 1_555
H15B C6B 1_555 1_555
Si5B Si3B 1_555 1_555
C7B Si5B 1_555 1_555
H16B C7B 1_555 1_555
H17B C7B 1_555 1_555
H18B C7B 1_555 1_555
C8B Si5B 1_555 1_555
H19B C8B 1_555 1_555
H20B C8B 1_555 1_555
H21B C8B 1_555 1_555
C9B Si5B 1_555 1_555
H22B C9B 1_555 1_555
H23B C9B 1_555 1_555
H24B C9B 1_555 1_555
Si6B Si3B 1_555 1_555
C10B Si6B 1_555 1_555
H25B C10B 1_555 1_555
H26B C10B 1_555 1_555
H27B C10B 1_555 1_555
C11B Si6B 1_555 1_555
H28B C11B 1_555 1_555
H29B C11B 1_555 1_555
H30B C11B 1_555 1_555
C12B Si6B 1_555 1_555
H31B C12B 1_555 1_555
H32B C12B 1_555 1_555
H33B C12B 1_555 1_555
C2B Si2B 1_555 1_555
H1B C2B 1_555 1_555
H2B C2B 1_555 1_555
H3B C2B 1_555 1_555
C3B Si2B 1_555 1_555
H4B C3B 1_555 1_555
H5B C3B 1_555 1_555
H6B C3B 1_555 1_555
Si2D Si1 1_555 1_555
Si3D Si2D 1_555 1_555
Si4D Si3D 1_555 1_555
C4D Si4D 1_555 1_555
H7D C4D 1_555 1_555
H8D C4D 1_555 1_555
H9D C4D 1_555 1_555
C5D Si4D 1_555 1_555
H10D C5D 1_555 1_555
H11D C5D 1_555 1_555
H12D C5D 1_555 1_555
C6D Si4D 1_555 1_555
H13D C6D 1_555 1_555
H14D C6D 1_555 1_555
H15D C6D 1_555 1_555
Si5D Si3D 1_555 1_555
C7D Si5D 1_555 1_555
H16D C7D 1_555 1_555
H17D C7D 1_555 1_555
H18D C7D 1_555 1_555
C8D Si5D 1_555 1_555
H19D C8D 1_555 1_555
H20D C8D 1_555 1_555
H21D C8D 1_555 1_555
C9D Si5D 1_555 1_555
H22D C9D 1_555 1_555
H23D C9D 1_555 1_555
H24D C9D 1_555 1_555
Si6D Si3D 1_555 1_555
C10D Si6D 1_555 1_555
H25D C10D 1_555 1_555
H26D C10D 1_555 1_555
H27D C10D 1_555 1_555
C11D Si6D 1_555 1_555
H28D C11D 1_555 1_555
H29D C11D 1_555 1_555
H30D C11D 1_555 1_555
C12D Si6D 1_555 1_555
H31D C12D 1_555 1_555
H32D C12D 1_555 1_555
H33D C12D 1_555 1_555
C2D Si2D 1_555 1_555
H1D C2D 1_555 1_555
H2D C2D 1_555 1_555
H3D C2D 1_555 1_555
C3D Si2D 1_555 1_555
H4D C3D 1_555 1_555
H5D C3D 1_555 1_555
H6D C3D 1_555 1_555
Si8B Si7 1_555 1_555
Si9B Si8B 1_555 1_555
Si10B Si9B 1_555 1_555
C16B Si10B 1_555 1_555
H40B C16B 1_555 1_555
H41B C16B 1_555 1_555
H42B C16B 1_555 1_555
C17B Si10B 1_555 1_555
H43B C17B 1_555 1_555
H44B C17B 1_555 1_555
H45B C17B 1_555 1_555
C18B Si10B 1_555 1_555
H46B C18B 1_555 1_555
H47B C18B 1_555 1_555
H48B C18B 1_555 1_555
Si11B Si9B 1_555 1_555
C19B Si11B 1_555 1_555
H49B C19B 1_555 1_555
H50B C19B 1_555 1_555
H51B C19B 1_555 1_555
C20B Si11B 1_555 1_555
H52B C20B 1_555 1_555
H53B C20B 1_555 1_555
H54B C20B 1_555 1_555
C21B Si11B 1_555 1_555
H55B C21B 1_555 1_555
H56B C21B 1_555 1_555
H57B C21B 1_555 1_555
Si12B Si9B 1_555 1_555
C22B Si12B 1_555 1_555
H58B C22B 1_555 1_555
H59B C22B 1_555 1_555
H60B C22B 1_555 1_555
C23B Si12B 1_555 1_555
H61B C23B 1_555 1_555
H62B C23B 1_555 1_555
H63B C23B 1_555 1_555
C24B Si12B 1_555 1_555
H64B C24B 1_555 1_555
H65B C24B 1_555 1_555
H66B C24B 1_555 1_555
C14B Si8B 1_555 1_555
H34B C14B 1_555 1_555
H35B C14B 1_555 1_555
H36B C14B 1_555 1_555
C15B Si8B 1_555 1_555
H37B C15B 1_555 1_555
H38B C15B 1_555 1_555
H39B C15B 1_555 1_555
Si8D Si7 1_555 1_555
Si9D Si8D 1_555 1_555
Si10D Si9D 1_555 1_555
C16D Si10D 1_555 1_555
H40D C16D 1_555 1_555
H41D C16D 1_555 1_555
H42D C16D 1_555 1_555
C17D Si10D 1_555 1_555
H43D C17D 1_555 1_555
H44D C17D 1_555 1_555
H45D C17D 1_555 1_555
C18D Si10D 1_555 1_555
H46D C18D 1_555 1_555
H47D C18D 1_555 1_555
H48D C18D 1_555 1_555
Si11D Si9D 1_555 1_555
C19D Si11D 1_555 1_555
H49D C19D 1_555 1_555
H50D C19D 1_555 1_555
H51D C19D 1_555 1_555
C20D Si11D 1_555 1_555
H52D C20D 1_555 1_555
H53D C20D 1_555 1_555
H54D C20D 1_555 1_555
C21D Si11D 1_555 1_555
H55D C21D 1_555 1_555
H56D C21D 1_555 1_555
H57D C21D 1_555 1_555
Si12D Si9D 1_555 1_555
C22D Si12D 1_555 1_555
H58D C22D 1_555 1_555
H59D C22D 1_555 1_555
H60D C22D 1_555 1_555
C23D Si12D 1_555 1_555
H61D C23D 1_555 1_555
H62D C23D 1_555 1_555
H63D C23D 1_555 1_555
C24D Si12D 1_555 1_555
H64D C24D 1_555 1_555
H65D C24D 1_555 1_555
H66D C24D 1_555 1_555
C14D Si8D 1_555 1_555
H34D C14D 1_555 1_555
H35D C14D 1_555 1_555
H36D C14D 1_555 1_555
C15D Si8D 1_555 1_555
H37D C15D 1_555 1_555
H38D C15D 1_555 1_555
H39D C15D 1_555 1_555
Si14B Si13 1_555 1_555
Si15B Si14B 1_555 1_555
Si16B Si15B 1_555 1_555
C28B Si16B 1_555 1_555
C29B Si16B 1_555 1_555
C30B Si16B 1_555 1_555
Si17B Si15B 1_555 1_555
C31B Si17B 1_555 1_555
C32B Si17B 1_555 1_555
C33B Si17B 1_555 1_555
Si18B Si15B 1_555 1_555
C34B Si18B 1_555 1_555
C35B Si18B 1_555 1_555
C36B Si18B 1_555 1_555
C26B Si14B 1_555 1_555
C27B Si14B 1_555 1_555
Si14D Si13 1_555 1_555
Si15D Si14D 1_555 1_555
Si16D Si15D 1_555 1_555
C28D Si16D 1_555 1_555
C29D Si16D 1_555 1_555
C30D Si16D 1_555 1_555
Si17D Si15D 1_555 1_555
C31D Si17D 1_555 1_555
C32D Si17D 1_555 1_555
C33D Si17D 1_555 1_555
Si18D Si15D 1_555 1_555
C34D Si18D 1_555 1_555
C35D Si18D 1_555 1_555
C36D Si18D 1_555 1_555
C26D Si14D 1_555 1_555
C27D Si14D 1_555 1_555

#END
