
#######################################################################
#
#                 Cambridge Crystallographic Data Centre
#                                CCDC 
#
#######################################################################
#
# If this CIF has been generated from an entry in the Cambridge 
# Structural Database, then it will include bibliographic, chemical, 
# crystal, experimental, refinement or atomic coordinate data resulting 
# from the CCDC's data processing and validation procedures.
#
#######################################################################

data_YIJMAG
_chemical_formula_moiety         'C32 H22 N4'
_chemical_name_systematic        
(R)-N,N'-bis(pyridin-2-ylmethylene)-1,1'-binaphthyl-2,2'-diamine
_symmetry_cell_setting           monoclinic
_symmetry_space_group_name_H-M   'P 21'
_symmetry_Int_Tables_number      4
_space_group_name_Hall           'P 2yb'
loop_
_symmetry_equiv_pos_site_id
_symmetry_equiv_pos_as_xyz
1 x,y,z
2 -x,1/2+y,-z
_cell_length_a                   8.140(2)
_cell_length_b                   10.962(3)
_cell_length_c                   13.953(4)
_cell_angle_alpha                90
_cell_angle_beta                 90.654(5)
_cell_angle_gamma                90
_cell_volume                     1244.95
_exptl_crystal_colour            yellow
_exptl_crystal_description       block
_chemical_melting_point          '147-149 deg.C'
_cell_formula_units_Z            2
_exptl_crystal_recrystallization_method benzene/hexane
loop_
_atom_site_label
_atom_site_type_symbol
_atom_site_fract_x
_atom_site_fract_y
_atom_site_fract_z
N1 N 0.2633(3) 0.7125(2) 0.68380(15)
N2 N 0.4941(3) 0.5108(3) 0.54170(18)
N3 N 0.2901(4) 0.2998(3) 0.7141(3)
N4 N 0.0959(3) 0.5419(2) 0.83241(17)
C1 C 0.1028(3) 0.7638(3) 0.68305(19)
C2 C 0.0223(4) 0.7941(3) 0.5960(2)
H1 H 0.0718 0.7756 0.5380
C3 C -0.1268(3) 0.8500(3) 0.5961(2)
H2 H -0.1754 0.8737 0.5384
C4 C -0.2077(3) 0.8719(3) 0.6821(2)
C5 C -0.3668(4) 0.9249(3) 0.6837(2)
H3 H -0.4151 0.9512 0.6266
C6 C -0.4493(4) 0.9379(3) 0.7667(3)
H4 H -0.5540 0.9718 0.7660
C7 C -0.3782(4) 0.9006(3) 0.8534(2)
H5 H -0.4363 0.9083 0.9101
C8 C -0.2222(3) 0.8523(3) 0.8549(2)
H6 H -0.1755 0.8285 0.9131
C9 C -0.1318(3) 0.8383(2) 0.77021(18)
C10 C 0.0298(3) 0.7872(2) 0.76995(18)
C11 C 0.1180(3) 0.7600(3) 0.86200(19)
C12 C 0.1762(3) 0.8574(3) 0.92189(19)
C13 C 0.1556(3) 0.9810(3) 0.8966(2)
H7 H 0.1000 1.0008 0.8402
C14 C 0.2159(4) 1.0721(3) 0.9537(2)
H8 H 0.2017 1.1531 0.9356
C15 C 0.2994(4) 1.0440(4) 1.0394(3)
H9 H 0.3404 1.1065 1.0778
C16 C 0.3201(4) 0.9283(4) 1.0659(2)
H10 H 0.3752 0.9113 1.1231
C17 C 0.2600(3) 0.8302(3) 1.0091(2)
C18 C 0.2847(4) 0.7081(4) 1.0345(2)
H11 H 0.3384 0.6897 1.0919
C19 C 0.2320(4) 0.6171(3) 0.9774(2)
H12 H 0.2497 0.5366 0.9959
C20 C 0.1498(3) 0.6418(3) 0.8896(2)
C21 C 0.3029(4) 0.6365(3) 0.6205(2)
H13 H 0.2253 0.6142 0.5743
C22 C 0.4681(3) 0.5818(3) 0.6173(2)
C23 C 0.5841(4) 0.6042(3) 0.6874(2)
H14 H 0.5605 0.6543 0.7393
C24 C 0.7367(4) 0.5505(3) 0.6790(2)
H15 H 0.8179 0.5628 0.7254
C25 C 0.7654(4) 0.4790(4) 0.6010(3)
H16 H 0.8677 0.4429 0.5928
C26 C 0.6425(5) 0.4607(4) 0.5349(3)
H17 H 0.6636 0.4108 0.4826
C27 C 0.2009(4) 0.4617(3) 0.8105(2)
H18 H 0.3096 0.4743 0.8291
C28 C 0.1609(5) 0.3506(3) 0.7576(2)
C29 C 0.0080(5) 0.3025(3) 0.7551(3)
H19 H -0.0768 0.3400 0.7882
C30 C -0.0217(6) 0.1978(4) 0.7034(3)
H20 H -0.1260 0.1633 0.7012
C31 C 0.1048(9) 0.1458(4) 0.6555(3)
H21 H 0.0888 0.0756 0.6191
C32 C 0.2572(8) 0.1995(5) 0.6621(4)
H22 H 0.3429 0.1642 0.6284
loop_
_geom_bond_atom_site_label_1
_geom_bond_atom_site_label_2
_geom_bond_site_symmetry_1
_geom_bond_site_symmetry_2
N1 C1 1_555 1_555
N2 C22 1_555 1_555
N3 C28 1_555 1_555
N4 C20 1_555 1_555
C1 C2 1_555 1_555
C2 H1 1_555 1_555
C3 C2 1_555 1_555
H2 C3 1_555 1_555
C4 C3 1_555 1_555
C5 C4 1_555 1_555
H3 C5 1_555 1_555
C6 C5 1_555 1_555
H4 C6 1_555 1_555
C7 C6 1_555 1_555
H5 C7 1_555 1_555
C8 C7 1_555 1_555
H6 C8 1_555 1_555
C9 C4 1_555 1_555
C10 C1 1_555 1_555
C11 C10 1_555 1_555
C12 C11 1_555 1_555
C13 C12 1_555 1_555
H7 C13 1_555 1_555
C14 C13 1_555 1_555
H8 C14 1_555 1_555
C15 C14 1_555 1_555
H9 C15 1_555 1_555
C16 C15 1_555 1_555
H10 C16 1_555 1_555
C17 C12 1_555 1_555
C18 C17 1_555 1_555
H11 C18 1_555 1_555
C19 C18 1_555 1_555
H12 C19 1_555 1_555
C20 C11 1_555 1_555
C21 N1 1_555 1_555
H13 C21 1_555 1_555
C22 C21 1_555 1_555
C23 C22 1_555 1_555
H14 C23 1_555 1_555
C24 C23 1_555 1_555
H15 C24 1_555 1_555
C25 C24 1_555 1_555
H16 C25 1_555 1_555
C26 N2 1_555 1_555
H17 C26 1_555 1_555
C27 N4 1_555 1_555
H18 C27 1_555 1_555
C28 C27 1_555 1_555
C29 C28 1_555 1_555
H19 C29 1_555 1_555
C30 C29 1_555 1_555
H20 C30 1_555 1_555
C31 C30 1_555 1_555
H21 C31 1_555 1_555
C32 N3 1_555 1_555
H22 C32 1_555 1_555
C8 C9 1_555 1_555
C9 C10 1_555 1_555
C16 C17 1_555 1_555
C19 C20 1_555 1_555
C25 C26 1_555 1_555
C31 C32 1_555 1_555

#END
