
#######################################################################
#
#                 Cambridge Crystallographic Data Centre
#                                CCDC 
#
#######################################################################
#
# If this CIF has been generated from an entry in the Cambridge 
# Structural Database, then it will include bibliographic, chemical, 
# crystal, experimental, refinement or atomic coordinate data resulting 
# from the CCDC's data processing and validation procedures.
#
#######################################################################

data_YIJQOX
_chemical_formula_moiety         'C32 H42 Ba1 Cl2 N4 O13'
_chemical_name_systematic        
Aqua-(7,16-bis(quinolin-8-ylmethyl)-1,4,10,13-tetraoxa-7,16-diazacyclooctadecane)-bis(perchlorato)-barium(ii)
_symmetry_cell_setting           orthorhombic
_symmetry_space_group_name_H-M   'P b c n'
_symmetry_Int_Tables_number      60
_space_group_name_Hall           '-P 2n 2ab'
loop_
_symmetry_equiv_pos_site_id
_symmetry_equiv_pos_as_xyz
1 x,y,z
2 1/2-x,1/2-y,1/2+z
3 -x,y,1/2-z
4 1/2+x,1/2-y,-z
5 -x,-y,-z
6 1/2+x,1/2+y,1/2-z
7 x,-y,1/2+z
8 1/2-x,1/2+y,z
_cell_length_a                   17.314(3)
_cell_length_b                   9.539(2)
_cell_length_c                   22.081(3)
_cell_angle_alpha                90
_cell_angle_beta                 90
_cell_angle_gamma                90
_cell_volume                     3646.86
_exptl_crystal_colour            colorless
_exptl_crystal_description       block
_cell_formula_units_Z            4
loop_
_atom_site_label
_atom_site_type_symbol
_atom_site_fract_x
_atom_site_fract_y
_atom_site_fract_z
Ba1 Ba 0.0000 0.12888(3) 0.7500
Cl1 Cl -0.09065(6) 0.43175(11) 0.81587(5)
O1 O -0.1283(2) 0.3318(4) 0.7769(2)
O2 O -0.0129(2) 0.3828(4) 0.8238(2)
O3 O -0.0909(3) 0.5653(4) 0.7886(2)
O4 O -0.1288(3) 0.4399(5) 0.8716(2)
O5 O 0.0000 -0.1741(6) 0.7500
H1 H 0.0375 -0.2432(6) 0.7469
N1 N -0.1060(2) 0.1178(3) 0.6388(2)
C1 C -0.0566(3) 0.0964(6) 0.5852(2)
H2 H -0.0330(3) 0.1854(6) 0.5746(2)
H3 H -0.0891(3) 0.0685(6) 0.5515(2)
C2 C 0.0060(3) -0.0103(7) 0.5925(2)
H4 H -0.0165(3) -0.0993(7) 0.6043(2)
H5 H 0.0323(3) -0.0236(7) 0.5541(2)
O6 O 0.0601(2) 0.0331(3) 0.63705(13)
C3 C 0.1255(3) -0.0594(5) 0.6382(2)
H6 H 0.1502(3) -0.0608(5) 0.5988(2)
H7 H 0.1089(3) -0.1539(5) 0.6478(2)
C4 C 0.1808(3) -0.0094(6) 0.6845(2)
H8 H 0.2258(3) -0.0699(6) 0.6854(2)
H9 H 0.1976(3) 0.0850(6) 0.6749(2)
O7 O 0.1431(2) -0.0112(4) 0.74201(13)
C5 C 0.1969(3) -0.0024(6) 0.7909(2)
H10 H 0.2262(3) 0.0841(6) 0.7878(2)
H11 H 0.2329(3) -0.0802(6) 0.7888(2)
C6 C -0.1542(3) -0.0061(5) 0.6500(2)
H12 H -0.1219(3) -0.0920(5) 0.6464(2)
H13 H -0.2008(3) -0.0181(5) 0.6222(2)
C7 C -0.1530(2) 0.2469(4) 0.6301(2)
H14 H -0.1183(2) 0.3267(4) 0.6297(2)
H15 H -0.1866(2) 0.2574(4) 0.6649(2)
C8 C -0.2028(3) 0.2533(4) 0.5731(2)
C9 C -0.1747(3) 0.3146(5) 0.5215(2)
H16 H -0.1244(3) 0.3486(5) 0.5217(2)
C10 C -0.2186(3) 0.3285(6) 0.4680(2)
H17 H -0.1972(3) 0.3707(6) 0.4339(2)
C11 C -0.2929(3) 0.2794(5) 0.4666(2)
H18 H -0.3218(3) 0.2861(5) 0.4312(2)
C12 C -0.3252(3) 0.2190(4) 0.5188(2)
C13 C -0.4023(3) 0.1710(5) 0.5209(2)
H19 H -0.4326(3) 0.1740(5) 0.4861(2)
C14 C -0.4325(3) 0.1208(5) 0.5731(3)
H20 H -0.4835(3) 0.0906(5) 0.5748(3)
C15 C -0.3850(3) 0.1155(5) 0.6244(2)
H21 H -0.4064(3) 0.0819(5) 0.6602(2)
N2 N -0.3122(2) 0.1548(4) 0.6254(2)
C16 C -0.2811(2) 0.2063(4) 0.5729(2)
O1B O 0.1283(2) 0.3318(4) 0.7231(2)
Cl1B Cl 0.09065(6) 0.43175(11) 0.68413(5)
O2B O 0.0129(2) 0.3828(4) 0.6762(2)
H1B H -0.0375 -0.2432(6) 0.7531
N1B N 0.1060(2) 0.1178(3) 0.8612(2)
C1B C 0.0566(3) 0.0964(6) 0.9148(2)
H2B H 0.0330(3) 0.1854(6) 0.9254(2)
H3B H 0.0891(3) 0.0685(6) 0.9485(2)
C2B C -0.0060(3) -0.0103(7) 0.9075(2)
H4B H 0.0165(3) -0.0993(7) 0.8957(2)
H5B H -0.0323(3) -0.0236(7) 0.9459(2)
O6B O -0.0601(2) 0.0331(3) 0.86295(13)
C6B C 0.1542(3) -0.0061(5) 0.8500(2)
C7B C 0.1530(2) 0.2469(4) 0.8699(2)
H14B H 0.1183(2) 0.3267(4) 0.8703(2)
H15B H 0.1866(2) 0.2574(4) 0.8351(2)
C8B C 0.2028(3) 0.2533(4) 0.9269(2)
C9B C 0.1747(3) 0.3146(5) 0.9785(2)
H16B H 0.1244(3) 0.3486(5) 0.9783(2)
C10B C 0.2186(3) 0.3285(6) 1.0320(2)
H17B H 0.1972(3) 0.3707(6) 1.0661(2)
C11B C 0.2929(3) 0.2794(5) 1.0334(2)
H18B H 0.3218(3) 0.2861(5) 1.0688(2)
C12B C 0.3252(3) 0.2190(4) 0.9812(2)
C13B C 0.4023(3) 0.1710(5) 0.9791(2)
H19B H 0.4326(3) 0.1740(5) 1.0139(2)
C14B C 0.4325(3) 0.1208(5) 0.9269(3)
H20B H 0.4835(3) 0.0906(5) 0.9252(3)
C15B C 0.3850(3) 0.1155(5) 0.8756(2)
H21B H 0.4064(3) 0.0819(5) 0.8398(2)
N2B N 0.3122(2) 0.1548(4) 0.8746(2)
C16B C 0.2811(2) 0.2063(4) 0.9271(2)
H12B H 0.1219(3) -0.0920(5) 0.8536(2)
H13B H 0.2008(3) -0.0181(5) 0.8778(2)
O7B O -0.1431(2) -0.0112(4) 0.75799(13)
C4B C -0.1808(3) -0.0094(6) 0.8155(2)
C3B C -0.1255(3) -0.0594(5) 0.8618(2)
H6B H -0.1502(3) -0.0608(5) 0.9012(2)
H7B H -0.1089(3) -0.1539(5) 0.8522(2)
H8B H -0.2258(3) -0.0699(6) 0.8146(2)
H9B H -0.1976(3) 0.0850(6) 0.8251(2)
C5B C -0.1969(3) -0.0024(6) 0.7091(2)
H10B H -0.2262(3) 0.0841(6) 0.7122(2)
H11B H -0.2329(3) -0.0802(6) 0.7112(2)
O3B O 0.0909(3) 0.5653(4) 0.7114(2)
O4B O 0.1288(3) 0.4399(5) 0.6284(2)
H22? H -0.0624 -0.2214(6) 0.7515
loop_
_geom_bond_atom_site_label_1
_geom_bond_atom_site_label_2
_geom_bond_site_symmetry_1
_geom_bond_site_symmetry_2
Ba1 O1 1_555 1_555
Cl1 O1 1_555 1_555
O2 Ba1 1_555 1_555
O3 Cl1 1_555 1_555
O4 Cl1 1_555 1_555
O5 Ba1 1_555 1_555
H1 O5 1_555 1_555
N1 Ba1 1_555 1_555
C1 N1 1_555 1_555
H2 C1 1_555 1_555
H3 C1 1_555 1_555
C2 C1 1_555 1_555
H4 C2 1_555 1_555
H5 C2 1_555 1_555
O6 Ba1 1_555 1_555
C3 O6 1_555 1_555
H6 C3 1_555 1_555
H7 C3 1_555 1_555
C4 C3 1_555 1_555
H8 C4 1_555 1_555
H9 C4 1_555 1_555
O7 Ba1 1_555 1_555
C5 O7 1_555 1_555
H10 C5 1_555 1_555
H11 C5 1_555 1_555
C6 N1 1_555 1_555
H12 C6 1_555 1_555
H13 C6 1_555 1_555
C7 N1 1_555 1_555
H14 C7 1_555 1_555
H15 C7 1_555 1_555
C8 C7 1_555 1_555
C9 C8 1_555 1_555
H16 C9 1_555 1_555
C10 C9 1_555 1_555
H17 C10 1_555 1_555
C11 C10 1_555 1_555
H18 C11 1_555 1_555
C12 C11 1_555 1_555
C13 C12 1_555 1_555
H19 C13 1_555 1_555
C14 C13 1_555 1_555
H20 C14 1_555 1_555
C15 C14 1_555 1_555
H21 C15 1_555 1_555
N2 C15 1_555 1_555
C16 C8 1_555 1_555
O1B Ba1 1_555 1_555
Cl1B O1B 1_555 1_555
O2B Ba1 1_555 1_555
H1B O5 1_555 1_555
N1B Ba1 1_555 1_555
C1B N1B 1_555 1_555
H2B C1B 1_555 1_555
H3B C1B 1_555 1_555
C2B C1B 1_555 1_555
H4B C2B 1_555 1_555
H5B C2B 1_555 1_555
O6B Ba1 1_555 1_555
C6B C5 1_555 1_555
C7B N1B 1_555 1_555
H14B C7B 1_555 1_555
H15B C7B 1_555 1_555
C8B C7B 1_555 1_555
C9B C8B 1_555 1_555
H16B C9B 1_555 1_555
C10B C9B 1_555 1_555
H17B C10B 1_555 1_555
C11B C10B 1_555 1_555
H18B C11B 1_555 1_555
C12B C11B 1_555 1_555
C13B C12B 1_555 1_555
H19B C13B 1_555 1_555
C14B C13B 1_555 1_555
H20B C14B 1_555 1_555
C15B C14B 1_555 1_555
H21B C15B 1_555 1_555
N2B C15B 1_555 1_555
C16B C8B 1_555 1_555
H12B C6B 1_555 1_555
H13B C6B 1_555 1_555
O7B Ba1 1_555 1_555
C4B O7B 1_555 1_555
C3B O6B 1_555 1_555
H6B C3B 1_555 1_555
H7B C3B 1_555 1_555
H8B C4B 1_555 1_555
H9B C4B 1_555 1_555
C5B C6 1_555 1_555
H10B C5B 1_555 1_555
H11B C5B 1_555 1_555
O3B Cl1B 1_555 1_555
O4B Cl1B 1_555 1_555
Cl1 O2 1_555 1_555
C2 O6 1_555 1_555
C4 O7 1_555 1_555
C12 C16 1_555 1_555
N2 C16 1_555 1_555
Cl1B O2B 1_555 1_555
N1B C6B 1_555 1_555
C2B O6B 1_555 1_555
C12B C16B 1_555 1_555
N2B C16B 1_555 1_555
O7B C5B 1_555 1_555
C4B C3B 1_555 1_555

#END
