
#######################################################################
#
#                 Cambridge Crystallographic Data Centre
#                                CCDC 
#
#######################################################################
#
# If this CIF has been generated from an entry in the Cambridge 
# Structural Database, then it will include bibliographic, chemical, 
# crystal, experimental, refinement or atomic coordinate data resulting 
# from the CCDC's data processing and validation procedures.
#
#######################################################################

data_YIJRIT
_chemical_formula_moiety         'C46 H52 N2'
_chemical_name_systematic        5,11-bis(p-octylphenyl)indolo(3,2-b)carbazole
_symmetry_cell_setting           triclinic
_symmetry_space_group_name_H-M   'P -1'
_symmetry_Int_Tables_number      2
_space_group_name_Hall           '-P 1'
loop_
_symmetry_equiv_pos_site_id
_symmetry_equiv_pos_as_xyz
1 x,y,z
2 -x,-y,-z
_cell_length_a                   20.2822(16)
_cell_length_b                   20.4888(16)
_cell_length_c                   22.2315(18)
_cell_angle_alpha                63.8130(10)
_cell_angle_beta                 87.3000(10)
_cell_angle_gamma                62.5650(10)
_cell_volume                     7214.93
_exptl_crystal_colour            colorless
_exptl_crystal_description       plate
_cell_formula_units_Z            8
_exptl_crystal_recrystallization_method hexanes
loop_
_atom_site_label
_atom_site_type_symbol
_atom_site_fract_x
_atom_site_fract_y
_atom_site_fract_z
C1 C 0.2647(2) -0.1488(2) 0.37294(18)
C2 C 0.2254(2) -0.1597(3) 0.42631(19)
C3 C 0.1523(2) -0.0973(3) 0.41874(19)
C4 C 0.1162(2) -0.0245(2) 0.35899(18)
C5 C 0.1552(2) -0.0134(2) 0.30512(18)
N1 N 0.13085(17) 0.05362(19) 0.23951(15)
C6 C 0.1890(2) 0.0350(2) 0.20295(18)
C7 C 0.1900(2) 0.0834(2) 0.13600(17)
C8 C 0.2566(2) 0.0512(2) 0.11254(17)
C9 C 0.2786(2) 0.0820(2) 0.04762(18)
C10 C 0.2429(2) 0.1542(2) -0.01463(18)
C11 C 0.2816(2) 0.1645(3) -0.06796(19)
C12 C 0.3552(2) 0.1044(3) -0.06041(19)
C13 C 0.3924(2) 0.0323(2) 0.00076(18)
N2 N 0.37760(17) -0.04451(19) 0.12008(15)
C14 C 0.3177(2) -0.0765(2) 0.22321(17)
C15 C 0.3532(2) 0.0217(2) 0.05422(18)
C16 C 0.3186(2) -0.0270(2) 0.15597(18)
C17 C 0.2508(2) -0.0433(2) 0.24600(18)
C18 C 0.2288(2) -0.0745(2) 0.31147(18)
C19 C 0.0577(2) 0.1238(2) 0.21287(18)
C20 C 0.0128(2) 0.1422(2) 0.15704(18)
C21 C -0.0585(2) 0.2115(2) 0.13086(18)
C22 C -0.0876(2) 0.2652(2) 0.15898(18)
C23 C -0.0420(2) 0.2446(2) 0.21650(18)
C24 C 0.0295(2) 0.1758(2) 0.24325(19)
C25 C -0.1643(2) 0.3420(2) 0.13082(18)
C26 C -0.2121(2) 0.3590(2) 0.0700(2)
C27 C -0.2872(2) 0.4393(2) 0.0432(2)
C28 C -0.3363(2) 0.4574(3) -0.0171(2)
C29 C -0.4109(2) 0.5376(3) -0.0430(2)
C30 C -0.4625(2) 0.5576(3) -0.1018(2)
C31 C -0.5352(3) 0.6382(3) -0.1265(2)
C32 C -0.5906(3) 0.6559(3) -0.1822(2)
C33 C 0.4521(2) -0.1140(2) 0.14804(18)
C34 C 0.4824(2) -0.1669(2) 0.11891(18)
C35 C 0.5549(2) -0.2337(2) 0.14628(19)
C36 C 0.5993(2) -0.2513(2) 0.20270(18)
C37 C 0.5681(2) -0.1969(2) 0.23034(19)
C38 C 0.4961(2) -0.1295(2) 0.20340(18)
C39 C 0.6776(2) -0.3249(3) 0.2299(2)
C40 C 0.7173(2) -0.3557(3) 0.2984(2)
C41 C 0.7943(2) -0.4303(3) 0.3219(2)
C42 C 0.8370(2) -0.4633(3) 0.3902(2)
C43 C 0.9141(3) -0.5358(3) 0.4122(2)
C44 C 0.9600(2) -0.5691(3) 0.4790(2)
C45 C 1.0371(3) -0.6407(3) 0.4992(2)
C46 C 1.0841(3) -0.6699(3) 0.5638(2)
H1 H 0.3148 -0.1909 0.3781
H2 H 0.2486 -0.2100 0.4684
H3 H 0.1270 -0.1057 0.4562
H4 H 0.0661 0.0172 0.3542
H5 H 0.1474 0.1360 0.1073
H6 H 0.1924 0.1959 -0.0205
H7 H 0.2573 0.2138 -0.1106
H8 H 0.3804 0.1131 -0.0980
H9 H 0.4431 -0.0087 0.0062
H10 H 0.3600 -0.1296 0.2518
H11 H 0.0309 0.1069 0.1363
H12 H -0.0886 0.2228 0.0924
H13 H -0.0608 0.2791 0.2379
H14 H 0.0595 0.1638 0.2821
H15 H -0.1571 0.3908 0.1178
H16 H -0.1934 0.3382 0.1681
H17 H -0.2219 0.3119 0.0831
H18 H -0.1830 0.3614 0.0328
H19 H -0.3158 0.4370 0.0807
H20 H -0.2771 0.4863 0.0299
H21 H -0.3466 0.4106 -0.0039
H22 H -0.3080 0.4600 -0.0548
H23 H -0.4382 0.5353 -0.0046
H24 H -0.4001 0.5842 -0.0567
H25 H -0.4353 0.5595 -0.1402
H26 H -0.4744 0.5118 -0.0881
H27 H -0.5233 0.6843 -0.1437
H28 H -0.5601 0.6381 -0.0872
H29 H -0.5666 0.6562 -0.2216
H30 H -0.6356 0.7104 -0.1961
H31 H -0.6053 0.6125 -0.1650
H32 H 0.4533 -0.1570 0.0805
H33 H 0.5752 -0.2690 0.1257
H34 H 0.5972 -0.2065 0.2686
H35 H 0.4764 -0.0932 0.2231
H36 H 0.6752 -0.3719 0.2295
H37 H 0.7097 -0.3110 0.1971
H38 H 0.6856 -0.3695 0.3318
H39 H 0.7218 -0.3099 0.2991
H40 H 0.7893 -0.4758 0.3212
H41 H 0.8253 -0.4164 0.2878
H42 H 0.8408 -0.4174 0.3914
H43 H 0.8068 -0.4790 0.4245
H44 H 0.9433 -0.5206 0.3767
H45 H 0.9097 -0.5820 0.4123
H46 H 0.9641 -0.5230 0.4793
H47 H 0.9315 -0.5854 0.5148
H48 H 1.0647 -0.6259 0.4620
H49 H 1.0329 -0.6882 0.5021
H50 H 1.0916 -0.6248 0.5613
H51 H 1.1333 -0.7180 0.5714
H52 H 1.0585 -0.6862 0.6017
C47 C 0.7695(2) -0.1442(2) 0.72215(18)
C48 C 0.7321(2) -0.1551(3) 0.77602(19)
C49 C 0.6586(3) -0.0932(3) 0.7685(2)
C50 C 0.6213(2) -0.0202(3) 0.70847(19)
C51 C 0.6602(2) -0.0090(2) 0.65449(18)
N3 N 0.63643(18) 0.05844(19) 0.58892(15)
C52 C 0.6953(2) 0.0403(2) 0.55249(18)
C53 C 0.6979(2) 0.0908(2) 0.48650(17)
C54 C 0.7656(2) 0.0590(2) 0.46425(17)
C55 C 0.7911(2) 0.0915(2) 0.40137(17)
C56 C 0.7581(2) 0.1658(2) 0.34014(17)
C57 C 0.7989(2) 0.1765(2) 0.28856(18)
C58 C 0.8727(2) 0.1145(2) 0.29736(19)
C59 C 0.9067(2) 0.0405(2) 0.35769(17)
N4 N 0.88715(17) -0.03844(19) 0.47354(14)
C60 C 0.8237(2) -0.0707(2) 0.57336(17)
C61 C 0.8654(2) 0.0298(2) 0.40924(17)
C62 C 0.8270(2) -0.0209(2) 0.50810(18)
C63 C 0.7568(2) -0.0388(2) 0.59574(17)
C64 C 0.7342(2) -0.0707(2) 0.66057(18)
C65 C 0.5638(2) 0.1311(2) 0.56350(18)
C66 C 0.5190(2) 0.1572(2) 0.50401(19)
C67 C 0.4479(2) 0.2267(2) 0.48087(19)
C68 C 0.4193(2) 0.2712(2) 0.51745(19)
C69 C 0.4651(2) 0.2434(2) 0.57719(19)
C70 C 0.5369(2) 0.1751(2) 0.60022(19)
C71 C 0.3405(2) 0.3463(3) 0.4949(2)
C72 C 0.2901(2) 0.3666(3) 0.4355(2)
C73 C 0.2125(2) 0.4419(3) 0.4167(2)
C74 C 0.1629(2) 0.4649(3) 0.3539(2)
C75 C 0.0870(2) 0.5434(3) 0.3320(2)
C76 C 0.0388(2) 0.5697(3) 0.2676(2)
C77 C -0.0363(3) 0.6480(3) 0.2458(2)
C78 C -0.0826(3) 0.6759(3) 0.1793(2)
C79 C 0.9616(2) -0.1070(2) 0.50474(18)
C80 C 0.9936(2) -0.1670(2) 0.48397(19)
C81 C 1.0655(2) -0.2326(2) 0.51496(19)
C82 C 1.1083(2) -0.2410(3) 0.56732(19)
C83 C 1.0751(2) -0.1800(3) 0.5872(2)
C84 C 1.0031(2) -0.1137(2) 0.55655(19)
C85 C 1.1890(2) -0.3110(3) 0.5971(2)
C86 C 1.2131(2) -0.3568(2) 0.67301(18)
C87 C 1.2950(2) -0.4234(3) 0.69775(19)
C88 C 1.3252(2) -0.4690(2) 0.77256(19)
C89 C 1.4084(2) -0.5335(3) 0.79392(19)
C90 C 1.4416(2) -0.5791(2) 0.86902(19)
C91 C 1.5245(2) -0.6422(3) 0.8890(2)
C92 C 1.5563(3) -0.6883(3) 0.9641(2)
H53 H 0.8192 -0.1866 0.7270
H54 H 0.7562 -0.2048 0.8184
H55 H 0.6337 -0.1020 0.8062
H56 H 0.5710 0.0210 0.7038
H57 H 0.6559 0.1441 0.4580
H58 H 0.7081 0.2086 0.3339
H59 H 0.7764 0.2268 0.2464
H60 H 0.8999 0.1233 0.2613
H61 H 0.9569 -0.0018 0.3637
H62 H 0.8653 -0.1244 0.6017
H63 H 0.5371 0.1272 0.4788
H64 H 0.4179 0.2446 0.4394
H65 H 0.4466 0.2724 0.6032
H66 H 0.5676 0.1582 0.6408
H67 H 0.3147 0.3374 0.5344
H68 H 0.3459 0.3958 0.4839
H69 H 0.2839 0.3177 0.4461
H70 H 0.3149 0.3766 0.3955
H71 H 0.2187 0.4902 0.4085
H72 H 0.1865 0.4306 0.4558
H73 H 0.1904 0.4724 0.3156
H74 H 0.1541 0.4179 0.3633
H75 H 0.0585 0.5345 0.3695
H76 H 0.0959 0.5895 0.3254
H77 H 0.0674 0.5782 0.2302
H78 H 0.0295 0.5238 0.2744
H79 H -0.0273 0.6934 0.2410
H80 H -0.0660 0.6387 0.2822
H81 H -0.0571 0.6934 0.1417
H82 H -0.1329 0.7229 0.1713
H83 H -0.0878 0.6295 0.1819
H84 H 0.9659 -0.1630 0.4480
H85 H 1.0866 -0.2737 0.5001
H86 H 1.1027 -0.1837 0.6230
H87 H 0.9818 -0.0724 0.5712
H88 H 1.1974 -0.3521 0.5815
H89 H 1.2229 -0.2877 0.5776
H90 H 1.1813 -0.3827 0.6932
H91 H 1.2041 -0.3162 0.6895
H92 H 1.3026 -0.4649 0.6828
H93 H 1.3259 -0.3973 0.6745
H94 H 1.2959 -0.4972 0.7961
H95 H 1.3167 -0.4280 0.7882
H96 H 1.4162 -0.5752 0.7792
H97 H 1.4372 -0.5053 0.7689
H98 H 1.4335 -0.5374 0.8839
H99 H 1.4133 -0.6079 0.8942
H100 H 1.5328 -0.6832 0.8734
H101 H 1.5530 -0.6132 0.8647
H102 H 1.5509 -0.6486 0.9798
H103 H 1.6101 -0.7289 0.9728
H104 H 1.5288 -0.7175 0.9888
C93 C 0.2644(2) 0.8304(2) 0.89030(18)
C94 C 0.2267(2) 0.8145(2) 0.94398(19)
C95 C 0.1502(2) 0.8701(3) 0.93632(19)
C96 C 0.1100(2) 0.9409(2) 0.87563(18)
C97 C 0.1478(2) 0.9572(2) 0.82128(18)
N5 N 0.12166(17) 1.02677(19) 0.75699(14)
C98 C 0.1825(2) 1.0173(2) 0.72178(18)
C99 C 0.1829(2) 1.0698(2) 0.65611(17)
C100 C 0.2508(2) 1.0433(2) 0.63375(17)
C101 C 0.2725(2) 1.0820(2) 0.57045(18)
C102 C 0.2339(2) 1.1563(2) 0.50979(19)
C103 C 0.2726(3) 1.1757(3) 0.4577(2)
C104 C 0.3485(3) 1.1217(3) 0.4654(2)
C105 C 0.3885(2) 1.0469(3) 0.5243(2)
N6 N 0.37583(18) 0.95751(19) 0.64070(15)
C106 C 0.3145(2) 0.9141(2) 0.74150(17)
C107 C 0.3490(2) 1.0286(2) 0.57648(19)
C108 C 0.3154(2) 0.9666(2) 0.67593(18)
C109 C 0.2462(2) 0.9410(2) 0.76439(17)
C110 C 0.2251(2) 0.9030(2) 0.82815(17)
C111 C 0.0460(2) 1.0930(2) 0.72927(17)
C112 C 0.0304(2) 1.1752(2) 0.70123(18)
C113 C -0.0439(2) 1.2392(2) 0.67552(19)
C114 C -0.1041(2) 1.2242(3) 0.67784(19)
C115 C -0.0874(2) 1.1427(3) 0.70495(18)
C116 C -0.0133(2) 1.0772(2) 0.73024(18)
C117 C -0.1848(2) 1.2943(3) 0.65346(19)
C118 C -0.2123(2) 1.3437(2) 0.57648(19)
C119 C -0.2965(2) 1.4081(2) 0.55567(19)
C120 C -0.3271(2) 1.4607(3) 0.47989(19)
C121 C -0.4114(2) 1.5210(3) 0.46093(19)
C122 C -0.4441(2) 1.5729(2) 0.38507(19)
C123 C -0.5281(2) 1.6320(3) 0.3672(2)
C124 C -0.5611(3) 1.6810(3) 0.2916(2)
C125 C 0.4492(2) 0.8876(3) 0.66501(18)
C126 C 0.5123(2) 0.8977(3) 0.66675(19)
C127 C 0.5842(2) 0.8291(3) 0.68897(19)
C128 C 0.5961(2) 0.7496(3) 0.70936(19)
C129 C 0.5323(2) 0.7410(3) 0.7081(2)
C130 C 0.4602(2) 0.8085(3) 0.68604(19)
C131 C 0.6752(2) 0.6762(3) 0.7309(2)
C132 C 0.7132(2) 0.6389(3) 0.80367(19)
C133 C 0.7924(2) 0.5668(3) 0.8231(2)
C134 C 0.8327(2) 0.5315(3) 0.8946(2)
C135 C 0.9115(2) 0.4576(3) 0.9164(2)
C136 C 0.9538(3) 0.4247(3) 0.9862(2)
C137 C 1.0314(2) 0.3522(3) 1.0078(2)
C138 C 1.0738(3) 0.3244(3) 1.0760(2)
H105 H 0.3163 0.7924 0.8956
H106 H 0.2530 0.7654 0.9864
H107 H 0.1257 0.8586 0.9741
H108 H 0.0579 0.9778 0.8706
H109 H 0.1390 1.1213 0.6278
H110 H 0.1816 1.1931 0.5043
H111 H 0.2469 1.2265 0.4163
H112 H 0.3740 1.1365 0.4290
H113 H 0.4405 1.0098 0.5291
H114 H 0.3581 0.8622 0.7696
H115 H 0.0705 1.1874 0.6997
H116 H -0.0538 1.2953 0.6556
H117 H -0.1276 1.1306 0.7065
H118 H -0.0035 1.0213 0.7483
H119 H -0.1903 1.3332 0.6707
H120 H -0.2182 1.2706 0.6741
H121 H -0.2028 1.3046 0.5582
H122 H -0.1828 1.3725 0.5558
H123 H -0.3255 1.3785 0.5761
H124 H -0.3056 1.4456 0.5755
H125 H -0.3160 1.4233 0.4595
H126 H -0.3002 1.4928 0.4596
H127 H -0.4380 1.4888 0.4826
H128 H -0.4221 1.5592 0.4804
H129 H -0.4180 1.6056 0.3633
H130 H -0.4333 1.5348 0.3655
H131 H -0.5387 1.6717 0.3850
H132 H -0.5541 1.5996 0.3905
H133 H -0.5349 1.7122 0.2677
H134 H -0.6152 1.7201 0.2839
H135 H -0.5547 1.6426 0.2741
H136 H 0.5059 0.9516 0.6527
H137 H 0.6267 0.8369 0.6903
H138 H 0.5386 0.6870 0.7229
H139 H 0.4178 0.8004 0.6853
H140 H 0.7070 0.6942 0.7000
H141 H 0.6730 0.6322 0.7248
H142 H 0.7149 0.6829 0.8102
H143 H 0.6821 0.6196 0.8349
H144 H 0.8226 0.5854 0.7903
H145 H 0.7902 0.5217 0.8188
H146 H 0.8358 0.5764 0.8984
H147 H 0.8015 0.5147 0.9271
H148 H 0.9080 0.4117 0.9150
H149 H 0.9418 0.4735 0.8823
H150 H 0.9571 0.4707 0.9876
H151 H 0.9234 0.4088 1.0202
H152 H 1.0611 0.3666 0.9725
H153 H 1.0280 0.3046 1.0096
H154 H 1.0761 0.3713 1.0754
H155 H 1.1253 0.2788 1.0849
H156 H 1.0475 0.3049 1.1121
C139 C 0.2838(2) -0.1506(2) 1.09327(18)
C140 C 0.2459(3) -0.1673(3) 1.1463(2)
C141 C 0.1702(3) -0.1114(3) 1.1390(2)
C142 C 0.1309(2) -0.0378(3) 1.0791(2)
C143 C 0.1699(2) -0.0210(2) 1.02617(18)
N7 N 0.14272(18) 0.0481(2) 0.96081(15)
C144 C 0.2016(2) 0.0354(2) 0.92402(18)
C145 C 0.2021(2) 0.0865(2) 0.85783(18)
C146 C 0.2699(2) 0.0592(2) 0.83430(17)
C147 C 0.2928(2) 0.0945(2) 0.77088(17)
C148 C 0.2567(2) 0.1675(2) 0.70978(18)
C149 C 0.2958(2) 0.1818(2) 0.65710(19)
C150 C 0.3713(2) 0.1237(3) 0.66527(19)
C151 C 0.4086(2) 0.0507(2) 0.72518(19)
N8 N 0.39361(17) -0.03190(19) 0.84286(15)
C152 C 0.3336(2) -0.0698(2) 0.94415(17)
C153 C 0.3689(2) 0.0370(2) 0.77782(18)
C154 C 0.3336(2) -0.0182(2) 0.87820(18)
C155 C 0.2667(2) -0.0421(2) 0.96763(17)
C156 C 0.2454(2) -0.0770(2) 1.03207(18)
C157 C 0.0692(2) 0.1166(2) 0.93760(18)
C158 C 0.0249(2) 0.1419(2) 0.8780(2)
C159 C -0.0494(2) 0.2068(3) 0.8572(2)
C160 C -0.0813(2) 0.2471(3) 0.89588(19)
C161 C -0.0352(2) 0.2231(2) 0.95318(19)
C162 C 0.0390(2) 0.1597(2) 0.97417(19)
C163 C -0.1632(2) 0.3122(3) 0.8789(2)
C164 C -0.2069(2) 0.3516(3) 0.8091(2)
C165 C -0.2889(2) 0.4158(3) 0.7964(2)
C166 C -0.3334(2) 0.4539(3) 0.7270(2)
C167 C -0.4132(2) 0.5212(3) 0.7115(2)
C168 C -0.4581(2) 0.5618(3) 0.6415(2)
C169 C -0.5369(3) 0.6313(3) 0.6258(2)
C170 C -0.5814(3) 0.6679(3) 0.5567(2)
C171 C 0.4690(2) -0.0988(2) 0.87244(18)
C172 C 0.4994(2) -0.1621(3) 0.8549(2)
C173 C 0.5725(2) -0.2272(3) 0.8844(2)
C174 C 0.6179(2) -0.2311(2) 0.93166(18)
C175 C 0.5877(2) -0.1665(3) 0.9461(2)
C176 C 0.5148(2) -0.1007(3) 0.9168(2)
C177 C 0.6986(2) -0.2996(3) 0.96060(19)
C178 C 0.7228(2) -0.3466(2) 1.03661(19)
C179 C 0.8055(2) -0.4114(3) 1.06136(19)
C180 C 0.8349(2) -0.4581(2) 1.13688(19)
C181 C 0.9179(2) -0.5202(3) 1.1581(2)
C182 C 0.9504(2) -0.5683(3) 1.23365(19)
C183 C 1.0335(2) -0.6320(3) 1.2544(2)
C184 C 1.0640(3) -0.6808(3) 1.3307(2)
H157 H 0.3355 -0.1889 1.0984
H158 H 0.2717 -0.2174 1.1883
H159 H 0.1450 -0.1241 1.1761
H160 H 0.0791 -0.0001 1.0741
H161 H 0.1582 0.1380 0.8295
H162 H 0.2055 0.2074 0.7040
H163 H 0.2711 0.2318 0.6149
H164 H 0.3972 0.1350 0.6286
H165 H 0.4598 0.0109 0.7305
H166 H 0.3772 -0.1217 0.9721
H167 H 0.0454 0.1145 0.8511
H168 H -0.0788 0.2238 0.8157
H169 H -0.0552 0.2512 0.9796
H170 H 0.0693 0.1457 1.0138
H171 H -0.1894 0.2866 0.9120
H172 H -0.1659 0.3573 0.8867
H173 H -0.2047 0.3071 0.8006
H174 H -0.1818 0.3785 0.7755
H175 H -0.3136 0.3892 0.8307
H176 H -0.2910 0.4609 0.8037
H177 H -0.3066 0.4770 0.6928
H178 H -0.3337 0.4090 0.7210
H179 H -0.4128 0.5652 0.7190
H180 H -0.4402 0.4975 0.7451
H181 H -0.4302 0.5835 0.6078
H182 H -0.4606 0.5182 0.6348
H183 H -0.5347 0.6762 0.6302
H184 H -0.5645 0.6105 0.6605
H185 H -0.5544 0.6881 0.5216
H186 H -0.6313 0.7145 0.5502
H187 H -0.5875 0.6251 0.5527
H188 H 0.4697 -0.1609 0.8223
H189 H 0.5921 -0.2704 0.8719
H190 H 0.6178 -0.1665 0.9776
H191 H 0.4963 -0.0562 0.9277
H192 H 0.7080 -0.3402 0.9441
H193 H 0.7317 -0.2750 0.9415
H194 H 0.6923 -0.3744 1.0562
H195 H 0.7120 -0.3064 1.0539
H196 H 0.8152 -0.4525 1.0454
H197 H 0.8354 -0.3835 1.0392
H198 H 0.8065 -0.4878 1.1594
H199 H 0.8247 -0.4175 1.1535
H200 H 0.9459 -0.4903 1.1346
H201 H 0.9276 -0.5608 1.1415
H202 H 0.9421 -0.5279 1.2501
H203 H 0.9217 -0.5972 1.2573
H204 H 1.0625 -0.6031 1.2320
H205 H 1.0422 -0.6718 1.2371
H206 H 1.0545 -0.6420 1.3487
H207 H 1.1186 -0.7185 1.3397
H208 H 1.0386 -0.7134 1.3531
loop_
_geom_bond_atom_site_label_1
_geom_bond_atom_site_label_2
_geom_bond_site_symmetry_1
_geom_bond_site_symmetry_2
C1 C2 1_555 1_555
C2 C3 1_555 1_555
C3 C4 1_555 1_555
C4 C5 1_555 1_555
C5 N1 1_555 1_555
N1 C6 1_555 1_555
C6 C7 1_555 1_555
C7 C8 1_555 1_555
C8 C9 1_555 1_555
C9 C10 1_555 1_555
C10 C11 1_555 1_555
C11 C12 1_555 1_555
C12 C13 1_555 1_555
C13 C15 1_555 1_555
N2 C15 1_555 1_555
C14 C16 1_555 1_555
C15 C9 1_555 1_555
C16 C8 1_555 1_555
C17 C6 1_555 1_555
C18 C1 1_555 1_555
C19 N1 1_555 1_555
C20 C19 1_555 1_555
C21 C20 1_555 1_555
C22 C21 1_555 1_555
C23 C22 1_555 1_555
C24 C19 1_555 1_555
C25 C22 1_555 1_555
C26 C25 1_555 1_555
C27 C26 1_555 1_555
C28 C27 1_555 1_555
C29 C28 1_555 1_555
C30 C29 1_555 1_555
C31 C30 1_555 1_555
C32 C31 1_555 1_555
C33 N2 1_555 1_555
C34 C33 1_555 1_555
C35 C34 1_555 1_555
C36 C35 1_555 1_555
C37 C36 1_555 1_555
C38 C33 1_555 1_555
C39 C36 1_555 1_555
C40 C39 1_555 1_555
C41 C40 1_555 1_555
C42 C41 1_555 1_555
C43 C42 1_555 1_555
C44 C43 1_555 1_555
C45 C44 1_555 1_555
C46 C45 1_555 1_555
C47 C48 1_555 1_555
C48 C49 1_555 1_555
C49 C50 1_555 1_555
C50 C51 1_555 1_555
C51 N3 1_555 1_555
N3 C52 1_555 1_555
C52 C53 1_555 1_555
C53 C54 1_555 1_555
C54 C55 1_555 1_555
C55 C56 1_555 1_555
C56 C57 1_555 1_555
C57 C58 1_555 1_555
C58 C59 1_555 1_555
C59 C61 1_555 1_555
N4 C61 1_555 1_555
C60 C62 1_555 1_555
C61 C55 1_555 1_555
C62 C54 1_555 1_555
C63 C52 1_555 1_555
C64 C47 1_555 1_555
C65 N3 1_555 1_555
C66 C65 1_555 1_555
C67 C66 1_555 1_555
C68 C67 1_555 1_555
C69 C68 1_555 1_555
C70 C65 1_555 1_555
C71 C68 1_555 1_555
C72 C71 1_555 1_555
C73 C72 1_555 1_555
C74 C73 1_555 1_555
C75 C74 1_555 1_555
C76 C75 1_555 1_555
C77 C76 1_555 1_555
C78 C77 1_555 1_555
C79 N4 1_555 1_555
C80 C79 1_555 1_555
C81 C80 1_555 1_555
C82 C81 1_555 1_555
C83 C82 1_555 1_555
C84 C79 1_555 1_555
C85 C82 1_555 1_555
C86 C85 1_555 1_555
C87 C86 1_555 1_555
C88 C87 1_555 1_555
C89 C88 1_555 1_555
C90 C89 1_555 1_555
C91 C90 1_555 1_555
C92 C91 1_555 1_555
C93 C94 1_555 1_555
C94 C95 1_555 1_555
C95 C96 1_555 1_555
C96 C97 1_555 1_555
C97 N5 1_555 1_555
N5 C98 1_555 1_555
C98 C99 1_555 1_555
C99 C100 1_555 1_555
C100 C101 1_555 1_555
C101 C102 1_555 1_555
C102 C103 1_555 1_555
C103 C104 1_555 1_555
C104 C105 1_555 1_555
C105 C107 1_555 1_555
N6 C107 1_555 1_555
C106 C108 1_555 1_555
C107 C101 1_555 1_555
C108 C100 1_555 1_555
C109 C98 1_555 1_555
C110 C93 1_555 1_555
C111 N5 1_555 1_555
C112 C111 1_555 1_555
C113 C112 1_555 1_555
C114 C113 1_555 1_555
C115 C114 1_555 1_555
C116 C111 1_555 1_555
C117 C114 1_555 1_555
C118 C117 1_555 1_555
C119 C118 1_555 1_555
C120 C119 1_555 1_555
C121 C120 1_555 1_555
C122 C121 1_555 1_555
C123 C122 1_555 1_555
C124 C123 1_555 1_555
C125 N6 1_555 1_555
C126 C125 1_555 1_555
C127 C126 1_555 1_555
C128 C127 1_555 1_555
C129 C128 1_555 1_555
C130 C125 1_555 1_555
C131 C128 1_555 1_555
C132 C131 1_555 1_555
C133 C132 1_555 1_555
C134 C133 1_555 1_555
C135 C134 1_555 1_555
C136 C135 1_555 1_555
C137 C136 1_555 1_555
C138 C137 1_555 1_555
C139 C140 1_555 1_555
C140 C141 1_555 1_555
C141 C142 1_555 1_555
C142 C143 1_555 1_555
C143 N7 1_555 1_555
N7 C144 1_555 1_555
C144 C145 1_555 1_555
C145 C146 1_555 1_555
C146 C147 1_555 1_555
C147 C148 1_555 1_555
C148 C149 1_555 1_555
C149 C150 1_555 1_555
C150 C151 1_555 1_555
C151 C153 1_555 1_555
N8 C153 1_555 1_555
C152 C154 1_555 1_555
C153 C147 1_555 1_555
C154 C146 1_555 1_555
C155 C144 1_555 1_555
C156 C139 1_555 1_555
C157 N7 1_555 1_555
C158 C157 1_555 1_555
C159 C158 1_555 1_555
C160 C159 1_555 1_555
C161 C160 1_555 1_555
C162 C157 1_555 1_555
C163 C160 1_555 1_555
C164 C163 1_555 1_555
C165 C164 1_555 1_555
C166 C165 1_555 1_555
C167 C166 1_555 1_555
C168 C167 1_555 1_555
C169 C168 1_555 1_555
C170 C169 1_555 1_555
C171 N8 1_555 1_555
C172 C171 1_555 1_555
C173 C172 1_555 1_555
C174 C173 1_555 1_555
C175 C174 1_555 1_555
C176 C171 1_555 1_555
C177 C174 1_555 1_555
C178 C177 1_555 1_555
C179 C178 1_555 1_555
C180 C179 1_555 1_555
C181 C180 1_555 1_555
C182 C181 1_555 1_555
C183 C182 1_555 1_555
C184 C183 1_555 1_555
H1 C1 1_555 1_555
H2 C2 1_555 1_555
H3 C3 1_555 1_555
H4 C4 1_555 1_555
H5 C7 1_555 1_555
H6 C10 1_555 1_555
H7 C11 1_555 1_555
H8 C12 1_555 1_555
H9 C13 1_555 1_555
H10 C14 1_555 1_555
H11 C20 1_555 1_555
H12 C21 1_555 1_555
H13 C23 1_555 1_555
H14 C24 1_555 1_555
H15 C25 1_555 1_555
H16 C25 1_555 1_555
H17 C26 1_555 1_555
H18 C26 1_555 1_555
H19 C27 1_555 1_555
H20 C27 1_555 1_555
H21 C28 1_555 1_555
H22 C28 1_555 1_555
H23 C29 1_555 1_555
H24 C29 1_555 1_555
H25 C30 1_555 1_555
H26 C30 1_555 1_555
H27 C31 1_555 1_555
H28 C31 1_555 1_555
H29 C32 1_555 1_555
H30 C32 1_555 1_555
H31 C32 1_555 1_555
H32 C34 1_555 1_555
H33 C35 1_555 1_555
H34 C37 1_555 1_555
H35 C38 1_555 1_555
H36 C39 1_555 1_555
H37 C39 1_555 1_555
H38 C40 1_555 1_555
H39 C40 1_555 1_555
H40 C41 1_555 1_555
H41 C41 1_555 1_555
H42 C42 1_555 1_555
H43 C42 1_555 1_555
H44 C43 1_555 1_555
H45 C43 1_555 1_555
H46 C44 1_555 1_555
H47 C44 1_555 1_555
H48 C45 1_555 1_555
H49 C45 1_555 1_555
H50 C46 1_555 1_555
H51 C46 1_555 1_555
H52 C46 1_555 1_555
H53 C47 1_555 1_555
H54 C48 1_555 1_555
H55 C49 1_555 1_555
H56 C50 1_555 1_555
H57 C53 1_555 1_555
H58 C56 1_555 1_555
H59 C57 1_555 1_555
H60 C58 1_555 1_555
H61 C59 1_555 1_555
H62 C60 1_555 1_555
H63 C66 1_555 1_555
H64 C67 1_555 1_555
H65 C69 1_555 1_555
H66 C70 1_555 1_555
H67 C71 1_555 1_555
H68 C71 1_555 1_555
H69 C72 1_555 1_555
H70 C72 1_555 1_555
H71 C73 1_555 1_555
H72 C73 1_555 1_555
H73 C74 1_555 1_555
H74 C74 1_555 1_555
H75 C75 1_555 1_555
H76 C75 1_555 1_555
H77 C76 1_555 1_555
H78 C76 1_555 1_555
H79 C77 1_555 1_555
H80 C77 1_555 1_555
H81 C78 1_555 1_555
H82 C78 1_555 1_555
H83 C78 1_555 1_555
H84 C80 1_555 1_555
H85 C81 1_555 1_555
H86 C83 1_555 1_555
H87 C84 1_555 1_555
H88 C85 1_555 1_555
H89 C85 1_555 1_555
H90 C86 1_555 1_555
H91 C86 1_555 1_555
H92 C87 1_555 1_555
H93 C87 1_555 1_555
H94 C88 1_555 1_555
H95 C88 1_555 1_555
H96 C89 1_555 1_555
H97 C89 1_555 1_555
H98 C90 1_555 1_555
H99 C90 1_555 1_555
H100 C91 1_555 1_555
H101 C91 1_555 1_555
H102 C92 1_555 1_555
H103 C92 1_555 1_555
H104 C92 1_555 1_555
H105 C93 1_555 1_555
H106 C94 1_555 1_555
H107 C95 1_555 1_555
H108 C96 1_555 1_555
H109 C99 1_555 1_555
H110 C102 1_555 1_555
H111 C103 1_555 1_555
H112 C104 1_555 1_555
H113 C105 1_555 1_555
H114 C106 1_555 1_555
H115 C112 1_555 1_555
H116 C113 1_555 1_555
H117 C115 1_555 1_555
H118 C116 1_555 1_555
H119 C117 1_555 1_555
H120 C117 1_555 1_555
H121 C118 1_555 1_555
H122 C118 1_555 1_555
H123 C119 1_555 1_555
H124 C119 1_555 1_555
H125 C120 1_555 1_555
H126 C120 1_555 1_555
H127 C121 1_555 1_555
H128 C121 1_555 1_555
H129 C122 1_555 1_555
H130 C122 1_555 1_555
H131 C123 1_555 1_555
H132 C123 1_555 1_555
H133 C124 1_555 1_555
H134 C124 1_555 1_555
H135 C124 1_555 1_555
H136 C126 1_555 1_555
H137 C127 1_555 1_555
H138 C129 1_555 1_555
H139 C130 1_555 1_555
H140 C131 1_555 1_555
H141 C131 1_555 1_555
H142 C132 1_555 1_555
H143 C132 1_555 1_555
H144 C133 1_555 1_555
H145 C133 1_555 1_555
H146 C134 1_555 1_555
H147 C134 1_555 1_555
H148 C135 1_555 1_555
H149 C135 1_555 1_555
H150 C136 1_555 1_555
H151 C136 1_555 1_555
H152 C137 1_555 1_555
H153 C137 1_555 1_555
H154 C138 1_555 1_555
H155 C138 1_555 1_555
H156 C138 1_555 1_555
H157 C139 1_555 1_555
H158 C140 1_555 1_555
H159 C141 1_555 1_555
H160 C142 1_555 1_555
H161 C145 1_555 1_555
H162 C148 1_555 1_555
H163 C149 1_555 1_555
H164 C150 1_555 1_555
H165 C151 1_555 1_555
H166 C152 1_555 1_555
H167 C158 1_555 1_555
H168 C159 1_555 1_555
H169 C161 1_555 1_555
H170 C162 1_555 1_555
H171 C163 1_555 1_555
H172 C163 1_555 1_555
H173 C164 1_555 1_555
H174 C164 1_555 1_555
H175 C165 1_555 1_555
H176 C165 1_555 1_555
H177 C166 1_555 1_555
H178 C166 1_555 1_555
H179 C167 1_555 1_555
H180 C167 1_555 1_555
H181 C168 1_555 1_555
H182 C168 1_555 1_555
H183 C169 1_555 1_555
H184 C169 1_555 1_555
H185 C170 1_555 1_555
H186 C170 1_555 1_555
H187 C170 1_555 1_555
H188 C172 1_555 1_555
H189 C173 1_555 1_555
H190 C175 1_555 1_555
H191 C176 1_555 1_555
H192 C177 1_555 1_555
H193 C177 1_555 1_555
H194 C178 1_555 1_555
H195 C178 1_555 1_555
H196 C179 1_555 1_555
H197 C179 1_555 1_555
H198 C180 1_555 1_555
H199 C180 1_555 1_555
H200 C181 1_555 1_555
H201 C181 1_555 1_555
H202 C182 1_555 1_555
H203 C182 1_555 1_555
H204 C183 1_555 1_555
H205 C183 1_555 1_555
H206 C184 1_555 1_555
H207 C184 1_555 1_555
H208 C184 1_555 1_555
C5 C18 1_555 1_555
N2 C16 1_555 1_555
C14 C17 1_555 1_555
C17 C18 1_555 1_555
C23 C24 1_555 1_555
C37 C38 1_555 1_555
C51 C64 1_555 1_555
N4 C62 1_555 1_555
C60 C63 1_555 1_555
C63 C64 1_555 1_555
C69 C70 1_555 1_555
C83 C84 1_555 1_555
C97 C110 1_555 1_555
N6 C108 1_555 1_555
C106 C109 1_555 1_555
C109 C110 1_555 1_555
C115 C116 1_555 1_555
C129 C130 1_555 1_555
C143 C156 1_555 1_555
N8 C154 1_555 1_555
C152 C155 1_555 1_555
C155 C156 1_555 1_555
C161 C162 1_555 1_555
C175 C176 1_555 1_555

#END
