
#######################################################################
#
#                 Cambridge Crystallographic Data Centre
#                                CCDC 
#
#######################################################################
#
# If this CIF has been generated from an entry in the Cambridge 
# Structural Database, then it will include bibliographic, chemical, 
# crystal, experimental, refinement or atomic coordinate data resulting 
# from the CCDC's data processing and validation procedures.
#
#######################################################################

data_YIJRUE
_chemical_formula_moiety         'C57 H68 O14'
_chemical_name_systematic        
"Methyl 2,3,4-tetra-O-benzyl-6-deoxy-9-C-(6'-O-benzyl-1',2':3',4'-di-O-isopropylidene-D-glycero-\a-D-galactopyranos-6'-yl)-L-ribo-\b-D-galactonopyranoside"
_symmetry_cell_setting           monoclinic
_symmetry_space_group_name_H-M   'C 2'
_symmetry_Int_Tables_number      5
_space_group_name_Hall           'C 2y'
loop_
_symmetry_equiv_pos_site_id
_symmetry_equiv_pos_as_xyz
1 x,y,z
2 1/2+x,1/2+y,z
3 -x,y,-z
4 1/2-x,1/2+y,-z
_cell_length_a                   26.852(14)
_cell_length_b                   5.782(1)
_cell_length_c                   34.438(9)
_cell_angle_alpha                90
_cell_angle_beta                 96.10(2)
_cell_angle_gamma                90
_cell_volume                     5316.51
_cell_formula_units_Z            4
loop_
_atom_site_label
_atom_site_type_symbol
_atom_site_fract_x
_atom_site_fract_y
_atom_site_fract_z
O1 O -0.2142(4) -0.3517(28) -0.3684(3)
O2 O -0.1581(3) -0.5968(28) -0.4193(2)
O3 O -0.0684(3) -0.7978(28) -0.3795(2)
O4 O -0.0819(3) -0.6105(24) -0.3049(2)
O5 O -0.1836(3) -0.5812 -0.3178(2)
O6 O -0.2402(3) -0.9357(24) -0.2591(2)
O7 O -0.1706(3) -0.9333(23) -0.1861(2)
O8 O -0.2232(3) -0.3569(23) -0.1933(3)
O9 O -0.3067(3) -0.7793(26) -0.1355(2)
O10 O -0.3096(3) -0.5261(26) -0.0854(3)
O11 O -0.2052(3) -0.8018(28) -0.0287(2)
O12 O -0.1488(3) -0.6017(27) -0.0591(2)
O13 O -0.2204(3) -0.7898(23) -0.1202(2)
O14 O -0.1441(2) -0.2965(23) -0.1291(2)
C1 C -0.1924(5) -0.5625(36) -0.3593(3)
C2 C -0.1443(5) -0.5847(34) -0.3780(3)
C3 C -0.1156(4) -0.7947(33) -0.3645(3)
C4 C -0.1089(4) -0.8065(31) -0.3193(3)
C5 C -0.1604(4) -0.7991(30) -0.3052(3)
C6 C -0.1576(4) -0.8018(32) -0.2614(3)
C7 C -0.2064(4) -0.7547(28) -0.2450(3)
C8 C -0.2023(5) -0.7445(29) -0.2007(3)
C9 C -0.1824(4) -0.5180(27) -0.1848(3)
C10 C -0.2624(6) -0.3311(42) -0.3562(4)
C11 C -0.1408(9) -0.4085(61) -0.4399(5)
C12 C -0.1658(4) -0.4003(29) -0.4802(2)
C13 C -0.1557(4) -0.5878(29) -0.5036(2)
C14 C -0.1754(4) -0.5933(29) -0.5428(2)
C15 C -0.2052(4) -0.4114(29) -0.5585(2)
C16 C -0.2153(4) -0.2239(29) -0.5350(2)
C17 C -0.1955(4) -0.2184(29) -0.4959(2)
C18 C -0.0464(8) -1.0151(52) -0.3797(9)
C19 C -0.0049(4) -1.0444(39) -0.4030(4)
C20 C 0.0273(4) -1.2342(39) -0.4014(4)
C21 C 0.0652(4) -1.2449(39) -0.4261(4)
C22 C 0.0708(4) -1.0659(39) -0.4524(4)
C23 C 0.0386(4) -0.8761(39) -0.4541(4)
C24 C 0.0007(4) -0.8654(39) -0.4293(4)
C25 C -0.0289(4) -0.6322(32) -0.2960(4)
C26 C -0.0123(4) -0.4560(23) -0.2661(2)
C27 C 0.0386(4) -0.4578(23) -0.2527(2)
C28 C 0.0579(4) -0.2940(23) -0.2254(2)
C29 C 0.0264(4) -0.1284(23) -0.2116(2)
C30 C -0.0245(4) -0.1266(23) -0.2250(2)
C31 C -0.0438(4) -0.2904(23) -0.2523(2)
C32 C -0.2898(5) -0.8669(44) -0.2590(6)
C33 C -0.3250(3) -1.0223(27) -0.2807(3)
C34 C -0.3469(3) -0.9774(27) -0.3185(3)
C35 C -0.3805(3) -1.1352(27) -0.3374(3)
C36 C -0.3923(3) -1.3380(27) -0.3184(3)
C37 C -0.3705(3) -1.3829(27) -0.2806(3)
C38 C -0.3368(3) -1.2250(27) -0.2617(3)
C39 C -0.2673(4) -0.8470(31) -0.1075(3)
C40 C -0.2783(4) -0.7100(35) -0.0703(3)
C41 C -0.2323(5) -0.6127(37) -0.0476(3)
C42 C -0.1944(4) -0.5047(29) -0.0731(3)
C43 C -0.2080(4) -0.5548(29) -0.1162(3)
C44 C -0.1648(4) -0.5153(27) -0.1410(3)
C45 C -0.3390(5) -0.6082(40) -0.1199(4)
C46 C -0.3487(6) -0.4163(39) -0.1481(5)
C47 C -0.3863(5) -0.7333(41) -0.1092(4)
C48 C -0.1531(5) -0.7437(34) -0.0266(4)
C49 C -0.1387(5) -0.6090(40) 0.0110(4)
C50 C -0.1227(6) -0.9641(38) -0.0282(6)
C51 C -0.0941(4) -0.2533(32) -0.1392(4)
C52 C -0.0554(3) -0.4162(24) -0.1194(3)
C53 C -0.0351(3) -0.5951(24) -0.1399(3)
C54 C -0.0144(3) -0.7174(24) -0.0807(3)
C55 C -0.0002(3) -0.7457(24) -0.1205(3)
C56 C -0.0059(3) -0.5386(24) -0.0602(3)
C57 C -0.0408(3) -0.3880(24) -0.0796(3)
loop_
_geom_bond_atom_site_label_1
_geom_bond_atom_site_label_2
_geom_bond_site_symmetry_1
_geom_bond_site_symmetry_2
O1 C1 1_555 1_555
O2 C2 1_555 1_555
O3 C3 1_555 1_555
O4 C4 1_555 1_555
O5 C1 1_555 1_555
O6 C7 1_555 1_555
O7 C8 1_555 1_555
O8 C9 1_555 1_555
O9 C39 1_555 1_555
O10 C40 1_555 1_555
O11 C41 1_555 1_555
O12 C42 1_555 1_555
O13 C39 1_555 1_555
O14 C44 1_555 1_555
C1 C2 1_555 1_555
C2 C3 1_555 1_555
C3 C4 1_555 1_555
C4 C5 1_555 1_555
C5 O5 1_555 1_555
C6 C5 1_555 1_555
C7 C6 1_555 1_555
C8 C7 1_555 1_555
C9 C8 1_555 1_555
C10 O1 1_555 1_555
C11 O2 1_555 1_555
C12 C11 1_555 1_555
C13 C12 1_555 1_555
C14 C13 1_555 1_555
C15 C14 1_555 1_555
C16 C15 1_555 1_555
C17 C12 1_555 1_555
C18 O3 1_555 1_555
C19 C18 1_555 1_555
C20 C19 1_555 1_555
C21 C20 1_555 1_555
C22 C21 1_555 1_555
C23 C22 1_555 1_555
C24 C19 1_555 1_555
C25 O4 1_555 1_555
C26 C25 1_555 1_555
C27 C26 1_555 1_555
C28 C27 1_555 1_555
C29 C28 1_555 1_555
C30 C29 1_555 1_555
C31 C26 1_555 1_555
C32 O6 1_555 1_555
C33 C32 1_555 1_555
C34 C33 1_555 1_555
C35 C34 1_555 1_555
C36 C35 1_555 1_555
C37 C36 1_555 1_555
C38 C33 1_555 1_555
C39 C40 1_555 1_555
C40 C41 1_555 1_555
C41 C42 1_555 1_555
C42 C43 1_555 1_555
C43 O13 1_555 1_555
C44 C9 1_555 1_555
C45 O9 1_555 1_555
C46 C45 1_555 1_555
C47 C45 1_555 1_555
C48 O11 1_555 1_555
C49 C48 1_555 1_555
C50 C48 1_555 1_555
C51 O14 1_555 1_555
C52 C51 1_555 1_555
C53 C52 1_555 1_555
C54 C55 1_555 1_555
C55 C53 1_555 1_555
C56 C54 1_555 1_555
C57 C52 1_555 1_555
O10 C45 1_555 1_555
O12 C48 1_555 1_555
C16 C17 1_555 1_555
C23 C24 1_555 1_555
C30 C31 1_555 1_555
C37 C38 1_555 1_555
C43 C44 1_555 1_555
C56 C57 1_555 1_555

#END
