
#######################################################################
#
#                 Cambridge Crystallographic Data Centre
#                                CCDC 
#
#######################################################################
#
# If this CIF has been generated from an entry in the Cambridge 
# Structural Database, then it will include bibliographic, chemical, 
# crystal, experimental, refinement or atomic coordinate data resulting 
# from the CCDC's data processing and validation procedures.
#
#######################################################################

data_YIJROZ
_chemical_formula_moiety         'C42 H44 N2'
_chemical_name_systematic        5,11-bis(p-Hexylphenyl)indolo(3,2-b)carbazole
_symmetry_cell_setting           monoclinic
_symmetry_space_group_name_H-M   'P 21/n'
_symmetry_Int_Tables_number      14
_space_group_name_Hall           '-P 2yn'
loop_
_symmetry_equiv_pos_site_id
_symmetry_equiv_pos_as_xyz
1 x,y,z
2 1/2-x,1/2+y,1/2-z
3 -x,-y,-z
4 1/2+x,1/2-y,1/2+z
_cell_length_a                   10.0608(2)
_cell_length_b                   14.1458(3)
_cell_length_c                   11.2020(2)
_cell_angle_alpha                90
_cell_angle_beta                 98.2490(10)
_cell_angle_gamma                90
_cell_volume                     1577.75
_exptl_crystal_colour            colorless
_exptl_crystal_description       block
_cell_formula_units_Z            2
_exptl_crystal_recrystallization_method hexanes
loop_
_atom_site_label
_atom_site_type_symbol
_atom_site_fract_x
_atom_site_fract_y
_atom_site_fract_z
N1 N 0.15298(10) 0.61082(6) 0.66886(8)
C1 C 0.02956(11) 0.45872(7) 0.61855(9)
H1 H 0.0493 0.4322 0.6960
C2 C 0.07487(10) 0.54774(7) 0.59241(9)
C3 C 0.04686(10) 0.58960(7) 0.47607(9)
C4 C 0.10881(10) 0.68195(7) 0.48468(9)
C5 C 0.11342(11) 0.75629(8) 0.40346(10)
H2 H 0.0714 0.7507 0.3232
C6 C 0.18070(12) 0.83843(8) 0.44273(11)
H3 H 0.1846 0.8887 0.3885
C7 C 0.24302(12) 0.84752(8) 0.56210(11)
H4 H 0.2876 0.9042 0.5868
C8 C 0.24059(11) 0.77502(8) 0.64472(10)
H5 H 0.2830 0.7812 0.7247
C9 C 0.17267(11) 0.69231(7) 0.60459(9)
C10 C 0.18304(11) 0.60263(7) 0.79712(9)
C11 C 0.31507(12) 0.60150(8) 0.85183(10)
H6 H 0.3850 0.6021 0.8045
C12 C 0.34468(11) 0.59941(8) 0.97748(10)
H7 H 0.4348 0.5990 1.0141
C13 C 0.24323(11) 0.59789(7) 1.04906(10)
C14 C 0.11088(12) 0.59717(8) 0.99189(10)
H8 H 0.0407 0.5947 1.0389
C15 C 0.08002(11) 0.59999(8) 0.86710(10)
H9 H -0.0100 0.6001 0.8303
C16 C 0.27109(12) 0.59929(9) 1.18561(10)
H10 H 0.2367 0.5404 1.2156
H11 H 0.2198 0.6514 1.2144
C17 C 0.41668(12) 0.61011(9) 1.24142(10)
H12 H 0.4555 0.6643 1.2043
H13 H 0.4664 0.5536 1.2233
C18 C 0.43490(12) 0.62439(9) 1.37790(10)
H14 H 0.3923 0.6840 1.3959
H15 H 0.3894 0.5731 1.4147
C19 C 0.58172(13) 0.62648(10) 1.43351(10)
H16 H 0.6280 0.6749 1.3923
H17 H 0.6224 0.5653 1.4192
C20 C 0.60510(12) 0.64673(9) 1.56816(10)
H18 H 0.5669 0.7086 1.5832
H19 H 0.5586 0.5989 1.6101
C21 C 0.75360(13) 0.64620(10) 1.61858(11)
H20 H 0.7900 0.5835 1.6101
H21 H 0.7649 0.6635 1.7032
H22 H 0.8006 0.6913 1.5746
N1B N -0.15298(10) 0.38918(6) 0.33114(8)
C1B C -0.02956(11) 0.54128(7) 0.38145(9)
H1B H -0.0493 0.5678 0.3040
C2B C -0.07487(10) 0.45226(7) 0.40759(9)
C3B C -0.04686(10) 0.41040(7) 0.52393(9)
C4B C -0.10881(10) 0.31805(7) 0.51532(9)
C5B C -0.11342(11) 0.24371(8) 0.59654(10)
H2B H -0.0714 0.2493 0.6768
C6B C -0.18070(12) 0.16157(8) 0.55727(11)
H3B H -0.1846 0.1113 0.6115
C7B C -0.24302(12) 0.15248(8) 0.43790(11)
H4B H -0.2876 0.0958 0.4132
C8B C -0.24059(11) 0.22498(8) 0.35528(10)
H5B H -0.2830 0.2188 0.2753
C9B C -0.17267(11) 0.30769(7) 0.39541(9)
C10B C -0.18304(11) 0.39737(7) 0.20288(9)
C11B C -0.31507(12) 0.39850(8) 0.14817(10)
H6B H -0.3850 0.3979 0.1955
C12B C -0.34468(11) 0.40059(8) 0.02252(10)
H7B H -0.4348 0.4010 -0.0141
C13B C -0.24323(11) 0.40211(7) -0.04906(10)
C14B C -0.11088(12) 0.40283(8) 0.00811(10)
H8B H -0.0407 0.4053 -0.0389
C15B C -0.08002(11) 0.40001(8) 0.13290(10)
H9B H 0.0100 0.3999 0.1697
C16B C -0.27109(12) 0.40071(9) -0.18561(10)
H10B H -0.2367 0.4596 -0.2156
H11B H -0.2198 0.3486 -0.2144
C17B C -0.41668(12) 0.38989(9) -0.24142(10)
H12B H -0.4555 0.3357 -0.2043
H13B H -0.4664 0.4464 -0.2233
C18B C -0.43490(12) 0.37561(9) -0.37790(10)
H14B H -0.3923 0.3160 -0.3959
H15B H -0.3894 0.4269 -0.4147
C19B C -0.58172(13) 0.37352(10) -0.43351(10)
H16B H -0.6280 0.3251 -0.3923
H17B H -0.6224 0.4347 -0.4192
C20B C -0.60510(12) 0.35327(9) -0.56816(10)
H18B H -0.5669 0.2914 -0.5832
H19B H -0.5586 0.4011 -0.6101
C21B C -0.75360(13) 0.35380(10) -0.61858(11)
H20B H -0.7900 0.4165 -0.6101
H21B H -0.7649 0.3365 -0.7032
H22B H -0.8006 0.3087 -0.5746
loop_
_geom_bond_atom_site_label_1
_geom_bond_atom_site_label_2
_geom_bond_site_symmetry_1
_geom_bond_site_symmetry_2
N1 C2 1_555 1_555
C1 H1 1_555 1_555
C2 C1 1_555 1_555
C3 C2 1_555 1_555
C4 C3 1_555 1_555
C5 C4 1_555 1_555
H2 C5 1_555 1_555
C6 C5 1_555 1_555
H3 C6 1_555 1_555
C7 C6 1_555 1_555
H4 C7 1_555 1_555
C8 C7 1_555 1_555
H5 C8 1_555 1_555
C9 N1 1_555 1_555
C10 N1 1_555 1_555
C11 C10 1_555 1_555
H6 C11 1_555 1_555
C12 C11 1_555 1_555
H7 C12 1_555 1_555
C13 C12 1_555 1_555
C14 C13 1_555 1_555
H8 C14 1_555 1_555
C15 C10 1_555 1_555
H9 C15 1_555 1_555
C16 C13 1_555 1_555
H10 C16 1_555 1_555
H11 C16 1_555 1_555
C17 C16 1_555 1_555
H12 C17 1_555 1_555
H13 C17 1_555 1_555
C18 C17 1_555 1_555
H14 C18 1_555 1_555
H15 C18 1_555 1_555
C19 C18 1_555 1_555
H16 C19 1_555 1_555
H17 C19 1_555 1_555
C20 C19 1_555 1_555
H18 C20 1_555 1_555
H19 C20 1_555 1_555
C21 C20 1_555 1_555
H20 C21 1_555 1_555
H21 C21 1_555 1_555
H22 C21 1_555 1_555
N1B C2B 1_555 1_555
C1B C3 1_555 1_555
H1B C1B 1_555 1_555
C2B C1B 1_555 1_555
C3B C1 1_555 1_555
C4B C3B 1_555 1_555
C5B C4B 1_555 1_555
H2B C5B 1_555 1_555
C6B C5B 1_555 1_555
H3B C6B 1_555 1_555
C7B C6B 1_555 1_555
H4B C7B 1_555 1_555
C8B C7B 1_555 1_555
H5B C8B 1_555 1_555
C9B N1B 1_555 1_555
C10B N1B 1_555 1_555
C11B C10B 1_555 1_555
H6B C11B 1_555 1_555
C12B C11B 1_555 1_555
H7B C12B 1_555 1_555
C13B C12B 1_555 1_555
C14B C13B 1_555 1_555
H8B C14B 1_555 1_555
C15B C10B 1_555 1_555
H9B C15B 1_555 1_555
C16B C13B 1_555 1_555
H10B C16B 1_555 1_555
H11B C16B 1_555 1_555
C17B C16B 1_555 1_555
H12B C17B 1_555 1_555
H13B C17B 1_555 1_555
C18B C17B 1_555 1_555
H14B C18B 1_555 1_555
H15B C18B 1_555 1_555
C19B C18B 1_555 1_555
H16B C19B 1_555 1_555
H17B C19B 1_555 1_555
C20B C19B 1_555 1_555
H18B C20B 1_555 1_555
H19B C20B 1_555 1_555
C21B C20B 1_555 1_555
H20B C21B 1_555 1_555
H21B C21B 1_555 1_555
H22B C21B 1_555 1_555
C4 C9 1_555 1_555
C8 C9 1_555 1_555
C14 C15 1_555 1_555
C2B C3B 1_555 1_555
C4B C9B 1_555 1_555
C8B C9B 1_555 1_555
C14B C15B 1_555 1_555

#END
