
#######################################################################
#
#                 Cambridge Crystallographic Data Centre
#                                CCDC 
#
#######################################################################
#
# If this CIF has been generated from an entry in the Cambridge 
# Structural Database, then it will include bibliographic, chemical, 
# crystal, experimental, refinement or atomic coordinate data resulting 
# from the CCDC's data processing and validation procedures.
#
#######################################################################

data_YIJREP
_chemical_formula_moiety         'C34 H44 N2'
_chemical_name_systematic        5,11-Dioctylindolo(3,2-b)carbazole
_symmetry_cell_setting           monoclinic
_symmetry_space_group_name_H-M   'P 21/c'
_symmetry_Int_Tables_number      14
_space_group_name_Hall           '-P 2ybc'
loop_
_symmetry_equiv_pos_site_id
_symmetry_equiv_pos_as_xyz
1 x,y,z
2 -x,1/2+y,1/2-z
3 -x,-y,-z
4 x,1/2-y,1/2+z
_cell_length_a                   15.2682(9)
_cell_length_b                   5.2745(3)
_cell_length_c                   17.6381(10)
_cell_angle_alpha                90
_cell_angle_beta                 96.9200(10)
_cell_angle_gamma                90
_cell_volume                     1410.09
_exptl_crystal_colour            colorless
_exptl_crystal_description       plate
_cell_formula_units_Z            2
_exptl_crystal_recrystallization_method hexanes
loop_
_atom_site_label
_atom_site_type_symbol
_atom_site_fract_x
_atom_site_fract_y
_atom_site_fract_z
C1 C 0.42239(7) 0.4204(2) 0.27740(6)
H1 H 0.4594 0.2782 0.2721
C2 C 0.36695(8) 0.5100(2) 0.21562(6)
H2 H 0.3650 0.4269 0.1677
C3 C 0.31384(8) 0.7209(3) 0.22283(7)
H3 H 0.2774 0.7818 0.1791
C4 C 0.31260(7) 0.8441(2) 0.29170(6)
H4 H 0.2760 0.9877 0.2960
N1 N 0.37632(5) 0.83091(16) 0.42982(5)
C5 C 0.46673(6) 0.68403(19) 0.54993(6)
H5 H 0.4445 0.8048 0.5827
C6 C 0.36704(6) 0.7506(2) 0.35487(6)
C7 C 0.43845(6) 0.67712(18) 0.47231(6)
C8 C 0.47011(6) 0.49699(19) 0.42257(5)
C9 C 0.42324(7) 0.5420(2) 0.34778(6)
C10 C 0.33167(7) 1.04484(19) 0.46052(6)
H6 H 0.3172 1.1707 0.4193
H7 H 0.3729 1.1267 0.5008
C11 C 0.24742(7) 0.9765(2) 0.49394(6)
H8 H 0.2604 0.8446 0.5336
H9 H 0.2038 0.9065 0.4533
C12 C 0.20888(7) 1.2089(2) 0.52883(6)
H10 H 0.2530 1.2754 0.5698
H11 H 0.1987 1.3416 0.4890
C13 C 0.12295(7) 1.1625(2) 0.56210(7)
H12 H 0.0787 1.0947 0.5215
H13 H 0.1330 1.0325 0.6027
C14 C 0.08627(7) 1.3998(2) 0.59521(6)
H14 H 0.0812 1.5336 0.5556
H15 H 0.1291 1.4596 0.6381
C15 C -0.00297(7) 1.3677(2) 0.62384(6)
H16 H -0.0464 1.3124 0.5808
H17 H 0.0015 1.2320 0.6629
C16 C -0.03649(9) 1.6051(2) 0.65783(8)
H18 H -0.0417 1.7396 0.6184
H19 H 0.0077 1.6621 0.7001
C17 C -0.12471(9) 1.5768(3) 0.68817(8)
H20 H -0.1697 1.5267 0.6465
H21 H -0.1414 1.7388 0.7096
H22 H -0.1201 1.4466 0.7281
C1B C 0.57761(7) 0.5796(2) 0.72260(6)
H1B H 0.5406 0.7218 0.7279
C2B C 0.63305(8) 0.4900(2) 0.78438(6)
H2B H 0.6350 0.5731 0.8323
C3B C 0.68616(8) 0.2791(3) 0.77717(7)
H3B H 0.7226 0.2182 0.8209
C4B C 0.68740(7) 0.1559(2) 0.70830(6)
H4B H 0.7240 0.0123 0.7040
N1B N 0.62368(5) 0.16909(16) 0.57018(5)
C5B C 0.53327(6) 0.31597(19) 0.45007(6)
H5B H 0.5555 0.1952 0.4173
C6B C 0.63296(6) 0.2494(2) 0.64513(6)
C7B C 0.56155(6) 0.32288(18) 0.52769(6)
C8B C 0.52989(6) 0.50301(19) 0.57743(5)
C9B C 0.57676(7) 0.4580(2) 0.65222(6)
C10B C 0.66833(7) -0.04484(19) 0.53948(6)
H6B H 0.6828 -0.1707 0.5807
H7B H 0.6271 -0.1267 0.4992
C11B C 0.75258(7) 0.0235(2) 0.50606(6)
H8B H 0.7396 0.1554 0.4664
H9B H 0.7962 0.0935 0.5467
C12B C 0.79112(7) -0.2089(2) 0.47117(6)
H10B H 0.7470 -0.2754 0.4302
H11B H 0.8013 -0.3416 0.5110
C13B C 0.87705(7) -0.1625(2) 0.43790(7)
H12B H 0.9213 -0.0947 0.4785
H13B H 0.8670 -0.0325 0.3973
C14B C 0.91373(7) -0.3998(2) 0.40479(6)
H14B H 0.9188 -0.5336 0.4444
H15B H 0.8709 -0.4596 0.3619
C15B C 1.00297(7) -0.3677(2) 0.37616(6)
H16B H 1.0464 -0.3124 0.4192
H17B H 0.9985 -0.2320 0.3371
C16B C 1.03649(9) -0.6051(2) 0.34217(8)
H18B H 1.0417 -0.7396 0.3816
H19B H 0.9923 -0.6621 0.2999
C17B C 1.12471(9) -0.5768(3) 0.31183(8)
H20B H 1.1697 -0.5267 0.3535
H21B H 1.1414 -0.7388 0.2904
H22B H 1.1201 -0.4466 0.2719
loop_
_geom_bond_atom_site_label_1
_geom_bond_atom_site_label_2
_geom_bond_site_symmetry_1
_geom_bond_site_symmetry_2
C1 H1 1_555 1_555
C2 C1 1_555 1_555
H2 C2 1_555 1_555
C3 C2 1_555 1_555
H3 C3 1_555 1_555
C4 C3 1_555 1_555
H4 C4 1_555 1_555
N1 C6 1_555 1_555
C5 H5 1_555 1_555
C6 C4 1_555 1_555
C7 N1 1_555 1_555
C8 C7 1_555 1_555
C9 C1 1_555 1_555
C10 N1 1_555 1_555
H6 C10 1_555 1_555
H7 C10 1_555 1_555
C11 C10 1_555 1_555
H8 C11 1_555 1_555
H9 C11 1_555 1_555
C12 C11 1_555 1_555
H10 C12 1_555 1_555
H11 C12 1_555 1_555
C13 C12 1_555 1_555
H12 C13 1_555 1_555
H13 C13 1_555 1_555
C14 C13 1_555 1_555
H14 C14 1_555 1_555
H15 C14 1_555 1_555
C15 C14 1_555 1_555
H16 C15 1_555 1_555
H17 C15 1_555 1_555
C16 C15 1_555 1_555
H18 C16 1_555 1_555
H19 C16 1_555 1_555
C17 C16 1_555 1_555
H20 C17 1_555 1_555
H21 C17 1_555 1_555
H22 C17 1_555 1_555
C1B H1B 1_555 1_555
C2B C1B 1_555 1_555
H2B C2B 1_555 1_555
C3B C2B 1_555 1_555
H3B C3B 1_555 1_555
C4B C3B 1_555 1_555
H4B C4B 1_555 1_555
N1B C6B 1_555 1_555
C5B C8 1_555 1_555
H5B C5B 1_555 1_555
C6B C4B 1_555 1_555
C7B N1B 1_555 1_555
C8B C5 1_555 1_555
C9B C1B 1_555 1_555
C10B N1B 1_555 1_555
H6B C10B 1_555 1_555
H7B C10B 1_555 1_555
C11B C10B 1_555 1_555
H8B C11B 1_555 1_555
H9B C11B 1_555 1_555
C12B C11B 1_555 1_555
H10B C12B 1_555 1_555
H11B C12B 1_555 1_555
C13B C12B 1_555 1_555
H12B C13B 1_555 1_555
H13B C13B 1_555 1_555
C14B C13B 1_555 1_555
H14B C14B 1_555 1_555
H15B C14B 1_555 1_555
C15B C14B 1_555 1_555
H16B C15B 1_555 1_555
H17B C15B 1_555 1_555
C16B C15B 1_555 1_555
H18B C16B 1_555 1_555
H19B C16B 1_555 1_555
C17B C16B 1_555 1_555
H20B C17B 1_555 1_555
H21B C17B 1_555 1_555
H22B C17B 1_555 1_555
C5 C7 1_555 1_555
C6 C9 1_555 1_555
C8 C9 1_555 1_555
C5B C7B 1_555 1_555
C6B C9B 1_555 1_555
C7B C8B 1_555 1_555
C8B C9B 1_555 1_555

#END
