
#######################################################################
#
#                 Cambridge Crystallographic Data Centre
#                                CCDC 
#
#######################################################################
#
# If this CIF has been generated from an entry in the Cambridge 
# Structural Database, then it will include bibliographic, chemical, 
# crystal, experimental, refinement or atomic coordinate data resulting 
# from the CCDC's data processing and validation procedures.
#
#######################################################################

data_YIJSEQ
_chemical_formula_moiety         'C46 H52 N2'
_chemical_name_systematic        
2,8-Diphenyl-5,11-dioctylindolo(3,2-b)carbazole
_symmetry_cell_setting           triclinic
_symmetry_space_group_name_H-M   'P -1'
_symmetry_Int_Tables_number      2
_space_group_name_Hall           '-P 1'
loop_
_symmetry_equiv_pos_site_id
_symmetry_equiv_pos_as_xyz
1 x,y,z
2 -x,-y,-z
_cell_length_a                   5.553(3)
_cell_length_b                   17.278(10)
_cell_length_c                   19.305(12)
_cell_angle_alpha                81.686(7)
_cell_angle_beta                 82.767(7)
_cell_angle_gamma                80.819(7)
_cell_volume                     1799.21
_exptl_crystal_colour            colorless
_exptl_crystal_description       rectangular
_cell_formula_units_Z            2
_exptl_crystal_recrystallization_method dichloromethane/hexanes
loop_
_atom_site_label
_atom_site_type_symbol
_atom_site_fract_x
_atom_site_fract_y
_atom_site_fract_z
C1 C 0.2457(10) 0.0942(3) 0.3079(3)
H1 H 0.1400 0.0706 0.2848
C2 C 0.4181(10) 0.1378(3) 0.2684(3)
C3 C 0.5601(11) 0.1737(3) 0.3051(3)
H2 H 0.6758 0.2043 0.2784
C4 C 0.5451(10) 0.1682(3) 0.3776(3)
H3 H 0.6423 0.1950 0.4006
N1 N 0.3397(8) 0.1019(3) 0.4878(2)
C5 C 0.0830(10) 0.0110(3) 0.5646(3)
H4 H 0.1429 0.0173 0.6071
C6 C 0.3785(10) 0.1209(3) 0.4149(3)
C7 C 0.1628(9) 0.0510(3) 0.5013(3)
C8 C 0.0880(10) 0.0390(3) 0.4360(3)
C9 C 0.2285(10) 0.0850(3) 0.3821(3)
C10 C 0.4850(10) 0.1186(3) 0.5401(3)
H5 H 0.6474 0.1292 0.5165
H6 H 0.5120 0.0710 0.5750
C11 C 0.3711(11) 0.1875(4) 0.5784(3)
H7 H 0.2157 0.1754 0.6059
H8 H 0.3321 0.2346 0.5437
C12 C 0.5402(12) 0.2058(4) 0.6275(3)
H9 H 0.6942 0.2182 0.5993
H10 H 0.4623 0.2540 0.6484
C13 C 0.6045(11) 0.1416(4) 0.6862(3)
H11 H 0.6933 0.0944 0.6658
H12 H 0.4512 0.1269 0.7132
C14 C 0.7631(13) 0.1657(4) 0.7365(3)
H13 H 0.9100 0.1842 0.7086
H14 H 0.6691 0.2109 0.7589
C15 C 0.8459(13) 0.1021(4) 0.7933(3)
H15 H 0.9405 0.0571 0.7707
H16 H 0.6987 0.0833 0.8208
C16 C 1.0011(13) 0.1250(4) 0.8437(4)
H17 H 0.9051 0.1693 0.8670
H18 H 1.1464 0.1448 0.8161
C17 C 1.0902(16) 0.0595(5) 0.9008(4)
H19 H 0.9491 0.0438 0.9325
H20 H 1.2013 0.0790 0.9277
H21 H 1.1773 0.0138 0.8789
C18 C 0.4509(11) 0.1428(3) 0.1914(3)
C19 C 0.3043(14) 0.1113(4) 0.1545(4)
H22 H 0.1734 0.0860 0.1793
C20 C 0.3421(15) 0.1153(5) 0.0813(4)
H23 H 0.2359 0.0931 0.0573
C21 C 0.5259(13) 0.1500(4) 0.0444(4)
H24 H 0.5563 0.1502 -0.0052
C22 C 0.6651(13) 0.1842(5) 0.0790(4)
H25 H 0.7904 0.2115 0.0534
C23 C 0.6301(12) 0.1806(5) 0.1516(4)
H26 H 0.7337 0.2051 0.1746
C1A C -0.2457(10) -0.0942(3) 0.6921(3)
H1A H -0.1400 -0.0706 0.7152
C2A C -0.4181(10) -0.1378(3) 0.7316(3)
C3A C -0.5601(11) -0.1737(3) 0.6949(3)
H2A H -0.6758 -0.2043 0.7216
C4A C -0.5451(10) -0.1682(3) 0.6224(3)
H3A H -0.6423 -0.1950 0.5994
N1A N -0.3397(8) -0.1019(3) 0.5122(2)
C5A C -0.0830(10) -0.0110(3) 0.4354(3)
H4A H -0.1429 -0.0173 0.3929
C6A C -0.3785(10) -0.1209(3) 0.5851(3)
C7A C -0.1628(9) -0.0510(3) 0.4987(3)
C8A C -0.0880(10) -0.0390(3) 0.5640(3)
C9A C -0.2285(10) -0.0850(3) 0.6179(3)
C10A C -0.4850(10) -0.1186(3) 0.4599(3)
H5A H -0.6474 -0.1292 0.4835
H6A H -0.5120 -0.0710 0.4250
C11A C -0.3711(11) -0.1875(4) 0.4216(3)
H7A H -0.2157 -0.1754 0.3941
H8A H -0.3321 -0.2346 0.4563
C12A C -0.5402(12) -0.2058(4) 0.3725(3)
H9A H -0.6942 -0.2182 0.4007
H10A H -0.4623 -0.2540 0.3516
C13A C -0.6045(11) -0.1416(4) 0.3138(3)
H11A H -0.6933 -0.0944 0.3342
H12A H -0.4512 -0.1269 0.2868
C14A C -0.7631(13) -0.1657(4) 0.2635(3)
H13A H -0.9100 -0.1842 0.2914
H14A H -0.6691 -0.2109 0.2411
C15A C -0.8459(13) -0.1021(4) 0.2067(3)
H15A H -0.9405 -0.0571 0.2293
H16A H -0.6987 -0.0833 0.1792
C16A C -1.0011(13) -0.1250(4) 0.1563(4)
H17A H -0.9051 -0.1693 0.1330
H18A H -1.1464 -0.1448 0.1839
C17A C -1.0902(16) -0.0595(5) 0.0992(4)
H19A H -0.9491 -0.0438 0.0675
H20A H -1.2013 -0.0790 0.0723
H21A H -1.1773 -0.0138 0.1211
C18A C -0.4509(11) -0.1428(3) 0.8086(3)
C19A C -0.3043(14) -0.1113(4) 0.8455(4)
H22A H -0.1734 -0.0860 0.8207
C20A C -0.3421(15) -0.1153(5) 0.9187(4)
H23A H -0.2359 -0.0931 0.9427
C21A C -0.5259(13) -0.1500(4) 0.9556(4)
H24A H -0.5563 -0.1502 1.0052
C22A C -0.6651(13) -0.1842(5) 0.9210(4)
H25A H -0.7904 -0.2115 0.9466
C23A C -0.6301(12) -0.1806(5) 0.8484(4)
H26A H -0.7337 -0.2051 0.8254
C24 C 0.6438(10) 0.4095(3) 0.1949(3)
H27 H 0.4928 0.4345 0.2159
C25 C 0.8140(11) 0.3655(3) 0.2371(3)
C26 C 1.0319(11) 0.3277(3) 0.2030(3)
H28 H 1.1478 0.2965 0.2316
C27 C 1.0872(10) 0.3331(3) 0.1314(3)
H29 H 1.2357 0.3064 0.1106
N2 N 0.9257(8) 0.3983(3) 0.0183(2)
C28 C 0.6558(10) 0.4866(3) -0.0634(3)
H30 H 0.7608 0.4773 -0.1051
C29 C 0.9132(10) 0.3801(3) 0.0902(3)
C30 C 0.7144(10) 0.4493(3) 0.0028(3)
C31 C 0.5630(10) 0.4622(3) 0.0652(3)
C32 C 0.6926(10) 0.4173(3) 0.1223(3)
C33 C 1.1356(10) 0.3782(3) -0.0305(3)
H31 H 1.2844 0.3717 -0.0056
H32 H 1.1464 0.4231 -0.0683
C34 C 1.1377(10) 0.3054(3) -0.0635(3)
H33 H 0.9906 0.3112 -0.0890
H34 H 1.1307 0.2597 -0.0263
C35 C 1.3677(11) 0.2899(4) -0.1146(3)
H35 H 1.3748 0.2371 -0.1297
H36 H 1.5136 0.2887 -0.0896
C36 C 1.3805(11) 0.3521(4) -0.1811(3)
H37 H 1.3747 0.4050 -0.1663
H38 H 1.5390 0.3398 -0.2099
C37 C 1.1731(13) 0.3544(5) -0.2257(4)
H39 H 1.0154 0.3715 -0.1982
H40 H 1.1694 0.3004 -0.2366
C38 C 1.1969(14) 0.4095(5) -0.2939(4)
H41 H 1.3601 0.3954 -0.3197
H42 H 1.1849 0.4645 -0.2832
C39 C 0.9950(15) 0.4049(6) -0.3411(4)
H43 H 0.9916 0.3489 -0.3460
H44 H 0.8334 0.4262 -0.3180
C40 C 1.0353(18) 0.4495(6) -0.4114(5)
H45 H 1.0485 0.5043 -0.4067
H46 H 0.8970 0.4484 -0.4380
H47 H 1.1872 0.4254 -0.4363
C41 C 0.7710(11) 0.3587(3) 0.3151(3)
C42 C 0.5581(13) 0.3884(4) 0.3497(3)
H48 H 0.4291 0.4138 0.3228
C43 C 0.5165(14) 0.3838(4) 0.4227(4)
H49 H 0.3635 0.4061 0.4446
C44 C 0.7005(14) 0.3465(4) 0.4626(3)
H50 H 0.6792 0.3447 0.5124
C45 C 0.9106(15) 0.3127(5) 0.4299(4)
H51 H 1.0339 0.2830 0.4568
C46 C 0.9480(12) 0.3209(4) 0.3575(3)
H52 H 1.1027 0.2996 0.3357
C24A C 0.3562(10) 0.5905(3) -0.1949(3)
H27A H 0.5072 0.5655 -0.2159
C25A C 0.1860(11) 0.6345(3) -0.2371(3)
C26A C -0.0319(11) 0.6723(3) -0.2030(3)
H28A H -0.1478 0.7035 -0.2316
C27A C -0.0872(10) 0.6669(3) -0.1314(3)
H29A H -0.2357 0.6936 -0.1106
N2A N 0.0743(8) 0.6017(3) -0.0183(2)
C28A C 0.3442(10) 0.5134(3) 0.0634(3)
H30A H 0.2392 0.5227 0.1051
C29A C 0.0868(10) 0.6199(3) -0.0902(3)
C30A C 0.2856(10) 0.5507(3) -0.0028(3)
C31A C 0.4370(10) 0.5378(3) -0.0652(3)
C32A C 0.3074(10) 0.5827(3) -0.1223(3)
C33A C -0.1356(10) 0.6218(3) 0.0305(3)
H31A H -0.2844 0.6283 0.0056
H32A H -0.1464 0.5769 0.0683
C34A C -0.1377(10) 0.6946(3) 0.0635(3)
H33A H 0.0094 0.6888 0.0890
H34A H -0.1307 0.7403 0.0263
C35A C -0.3677(11) 0.7101(4) 0.1146(3)
H35A H -0.3748 0.7629 0.1297
H36A H -0.5136 0.7113 0.0896
C36A C -0.3805(11) 0.6479(4) 0.1811(3)
H37A H -0.3747 0.5950 0.1663
H38A H -0.5390 0.6602 0.2099
C37A C -0.1731(13) 0.6456(5) 0.2257(4)
H39A H -0.0154 0.6285 0.1982
H40A H -0.1694 0.6996 0.2366
C38A C -0.1969(14) 0.5905(5) 0.2939(4)
H41A H -0.3601 0.6046 0.3197
H42A H -0.1849 0.5355 0.2832
C39A C 0.0050(15) 0.5951(6) 0.3411(4)
H43A H 0.0084 0.6511 0.3460
H44A H 0.1666 0.5738 0.3180
C40A C -0.0353(18) 0.5505(6) 0.4114(5)
H45A H -0.0485 0.4957 0.4067
H46A H 0.1030 0.5516 0.4380
H47A H -0.1872 0.5746 0.4363
C41A C 0.2290(11) 0.6413(3) -0.3151(3)
C42A C 0.4419(13) 0.6116(4) -0.3497(3)
H48A H 0.5709 0.5862 -0.3228
C43A C 0.4835(14) 0.6162(4) -0.4227(4)
H49A H 0.6365 0.5939 -0.4446
C44A C 0.2995(14) 0.6535(4) -0.4626(3)
H50A H 0.3208 0.6553 -0.5124
C45A C 0.0894(15) 0.6873(5) -0.4299(4)
H51A H -0.0339 0.7170 -0.4568
C46A C 0.0520(12) 0.6791(4) -0.3575(3)
H52A H -0.1027 0.7004 -0.3357
loop_
_geom_bond_atom_site_label_1
_geom_bond_atom_site_label_2
_geom_bond_site_symmetry_1
_geom_bond_site_symmetry_2
C1 H1 1_555 1_555
C2 C1 1_555 1_555
C3 C2 1_555 1_555
H2 C3 1_555 1_555
C4 C3 1_555 1_555
H3 C4 1_555 1_555
N1 C6 1_555 1_555
C5 H4 1_555 1_555
C6 C4 1_555 1_555
C7 N1 1_555 1_555
C8 C7 1_555 1_555
C9 C1 1_555 1_555
C10 N1 1_555 1_555
H5 C10 1_555 1_555
H6 C10 1_555 1_555
C11 C10 1_555 1_555
H7 C11 1_555 1_555
H8 C11 1_555 1_555
C12 C11 1_555 1_555
H9 C12 1_555 1_555
H10 C12 1_555 1_555
C13 C12 1_555 1_555
H11 C13 1_555 1_555
H12 C13 1_555 1_555
C14 C13 1_555 1_555
H13 C14 1_555 1_555
H14 C14 1_555 1_555
C15 C14 1_555 1_555
H15 C15 1_555 1_555
H16 C15 1_555 1_555
C16 C15 1_555 1_555
H17 C16 1_555 1_555
H18 C16 1_555 1_555
C17 C16 1_555 1_555
H19 C17 1_555 1_555
H20 C17 1_555 1_555
H21 C17 1_555 1_555
C18 C2 1_555 1_555
C19 C18 1_555 1_555
H22 C19 1_555 1_555
C20 C19 1_555 1_555
H23 C20 1_555 1_555
C21 C20 1_555 1_555
H24 C21 1_555 1_555
C22 C21 1_555 1_555
H25 C22 1_555 1_555
C23 C18 1_555 1_555
H26 C23 1_555 1_555
C24 H27 1_555 1_555
C25 C24 1_555 1_555
C26 C25 1_555 1_555
H28 C26 1_555 1_555
C27 C26 1_555 1_555
H29 C27 1_555 1_555
N2 C29 1_555 1_555
C28 H30 1_555 1_555
C29 C27 1_555 1_555
C30 N2 1_555 1_555
C31 C30 1_555 1_555
C32 C24 1_555 1_555
C33 N2 1_555 1_555
H31 C33 1_555 1_555
H32 C33 1_555 1_555
C34 C33 1_555 1_555
H33 C34 1_555 1_555
H34 C34 1_555 1_555
C35 C34 1_555 1_555
H35 C35 1_555 1_555
H36 C35 1_555 1_555
C36 C35 1_555 1_555
H37 C36 1_555 1_555
H38 C36 1_555 1_555
C37 C36 1_555 1_555
H39 C37 1_555 1_555
H40 C37 1_555 1_555
C38 C37 1_555 1_555
H41 C38 1_555 1_555
H42 C38 1_555 1_555
C39 C38 1_555 1_555
H43 C39 1_555 1_555
H44 C39 1_555 1_555
C40 C39 1_555 1_555
H45 C40 1_555 1_555
H46 C40 1_555 1_555
H47 C40 1_555 1_555
C41 C25 1_555 1_555
C42 C41 1_555 1_555
H48 C42 1_555 1_555
C43 C42 1_555 1_555
H49 C43 1_555 1_555
C44 C43 1_555 1_555
H50 C44 1_555 1_555
C45 C44 1_555 1_555
H51 C45 1_555 1_555
C46 C41 1_555 1_555
H52 C46 1_555 1_555
C1A H1A 1_555 1_555
C2A C1A 1_555 1_555
C3A C2A 1_555 1_555
H2A C3A 1_555 1_555
C4A C3A 1_555 1_555
H3A C4A 1_555 1_555
N1A C6A 1_555 1_555
C5A C8 1_555 1_555
H4A C5A 1_555 1_555
C6A C4A 1_555 1_555
C7A N1A 1_555 1_555
C8A C5 1_555 1_555
C9A C1A 1_555 1_555
C10A N1A 1_555 1_555
H5A C10A 1_555 1_555
H6A C10A 1_555 1_555
C11A C10A 1_555 1_555
H7A C11A 1_555 1_555
H8A C11A 1_555 1_555
C12A C11A 1_555 1_555
H9A C12A 1_555 1_555
H10A C12A 1_555 1_555
C13A C12A 1_555 1_555
H11A C13A 1_555 1_555
H12A C13A 1_555 1_555
C14A C13A 1_555 1_555
H13A C14A 1_555 1_555
H14A C14A 1_555 1_555
C15A C14A 1_555 1_555
H15A C15A 1_555 1_555
H16A C15A 1_555 1_555
C16A C15A 1_555 1_555
H17A C16A 1_555 1_555
H18A C16A 1_555 1_555
C17A C16A 1_555 1_555
H19A C17A 1_555 1_555
H20A C17A 1_555 1_555
H21A C17A 1_555 1_555
C18A C2A 1_555 1_555
C19A C18A 1_555 1_555
H22A C19A 1_555 1_555
C20A C19A 1_555 1_555
H23A C20A 1_555 1_555
C21A C20A 1_555 1_555
H24A C21A 1_555 1_555
C22A C21A 1_555 1_555
H25A C22A 1_555 1_555
C23A C18A 1_555 1_555
H26A C23A 1_555 1_555
C24A H27A 1_555 1_555
C25A C24A 1_555 1_555
C26A C25A 1_555 1_555
H28A C26A 1_555 1_555
C27A C26A 1_555 1_555
H29A C27A 1_555 1_555
N2A C29A 1_555 1_555
C28A C31 1_555 1_555
H30A C28A 1_555 1_555
C29A C27A 1_555 1_555
C30A N2A 1_555 1_555
C31A C28 1_555 1_555
C32A C24A 1_555 1_555
C33A N2A 1_555 1_555
H31A C33A 1_555 1_555
H32A C33A 1_555 1_555
C34A C33A 1_555 1_555
H33A C34A 1_555 1_555
H34A C34A 1_555 1_555
C35A C34A 1_555 1_555
H35A C35A 1_555 1_555
H36A C35A 1_555 1_555
C36A C35A 1_555 1_555
H37A C36A 1_555 1_555
H38A C36A 1_555 1_555
C37A C36A 1_555 1_555
H39A C37A 1_555 1_555
H40A C37A 1_555 1_555
C38A C37A 1_555 1_555
H41A C38A 1_555 1_555
H42A C38A 1_555 1_555
C39A C38A 1_555 1_555
H43A C39A 1_555 1_555
H44A C39A 1_555 1_555
C40A C39A 1_555 1_555
H45A C40A 1_555 1_555
H46A C40A 1_555 1_555
H47A C40A 1_555 1_555
C41A C25A 1_555 1_555
C42A C41A 1_555 1_555
H48A C42A 1_555 1_555
C43A C42A 1_555 1_555
H49A C43A 1_555 1_555
C44A C43A 1_555 1_555
H50A C44A 1_555 1_555
C45A C44A 1_555 1_555
H51A C45A 1_555 1_555
C46A C41A 1_555 1_555
H52A C46A 1_555 1_555
C5 C7 1_555 1_555
C6 C9 1_555 1_555
C8 C9 1_555 1_555
C22 C23 1_555 1_555
C28 C30 1_555 1_555
C29 C32 1_555 1_555
C31 C32 1_555 1_555
C45 C46 1_555 1_555
C5A C7A 1_555 1_555
C6A C9A 1_555 1_555
C7A C8A 1_555 1_555
C8A C9A 1_555 1_555
C22A C23A 1_555 1_555
C28A C30A 1_555 1_555
C29A C32A 1_555 1_555
C30A C31A 1_555 1_555
C31A C32A 1_555 1_555
C45A C46A 1_555 1_555

#END
