
#######################################################################
#
#                 Cambridge Crystallographic Data Centre
#                                CCDC 
#
#######################################################################
#
# If this CIF has been generated from an entry in the Cambridge 
# Structural Database, then it will include bibliographic, chemical, 
# crystal, experimental, refinement or atomic coordinate data resulting 
# from the CCDC's data processing and validation procedures.
#
#######################################################################

data_YIJXOG
_chemical_formula_moiety         'C27 H24 O4'
_chemical_name_systematic        
21,23-Dimethyl-20,24-dioxaoctacyclo[14.11.0.0^2,7^.0^8,26^.0^9,18^.0^10,15^.0^17,27^.0^18,26^]heptacosa-2,4,6,10,12,14-hexaene-19,25-dione
_symmetry_cell_setting           monoclinic
_symmetry_space_group_name_H-M   'P 21/n'
_symmetry_Int_Tables_number      14
_space_group_name_Hall           '-P 2yn'
loop_
_symmetry_equiv_pos_site_id
_symmetry_equiv_pos_as_xyz
1 x,y,z
2 1/2-x,1/2+y,1/2-z
3 -x,-y,-z
4 1/2+x,1/2-y,1/2+z
_cell_length_a                   13.9039(12)
_cell_length_b                   8.8277(8)
_cell_length_c                   16.7890(16)
_cell_angle_alpha                90
_cell_angle_beta                 93.294(6)
_cell_angle_gamma                90
_cell_volume                     2057.27
_exptl_crystal_colour            colorless
_exptl_crystal_description       Prism
_cell_formula_units_Z            4
loop_
_atom_site_label
_atom_site_type_symbol
_atom_site_fract_x
_atom_site_fract_y
_atom_site_fract_z
O1 O 0.85261(6) 0.62921(10) -0.02455(5)
O2 O 0.75571(5) 0.81015(9) -0.07933(4)
O3 O 0.91584(6) 0.97211(10) 0.10644(5)
O4 O 0.80289(5) 1.05120(9) 0.01356(5)
C1 C 0.80028(10) 0.80420(15) -0.21665(7)
H1 H 0.7937 0.6937 -0.2160
H2 H 0.8498 0.8328 -0.2531
H3 H 0.7386 0.8500 -0.2348
C2 C 0.82910(8) 0.85984(13) -0.13354(7)
H4 H 0.8928 0.8149 -0.1157
C3 C 0.83453(8) 1.03122(13) -0.12556(7)
H5 H 0.8753 1.0708 -0.1673
H6 H 0.7690 1.0732 -0.1361
C4 C 0.87420(8) 1.08916(13) -0.04514(7)
H7 H 0.9358 1.0350 -0.0303
C5 C 0.89301(10) 1.25781(15) -0.04426(8)
H8 H 0.8349 1.3114 -0.0644
H9 H 0.9461 1.2807 -0.0783
H10 H 0.9102 1.2907 0.0105
C6 C 0.78372(8) 0.71156(12) -0.02153(7)
C7 C 0.72575(7) 0.72928(12) 0.05051(6)
C8 C 0.61971(7) 0.78608(12) 0.04395(6)
H11 H 0.6015 0.8202 -0.0117
C9 C 0.54571(8) 0.67803(12) 0.07276(6)
C10 C 0.45225(8) 0.67564(13) 0.03782(7)
H12 H 0.4352 0.7431 -0.0048
C11 C 0.38375(8) 0.57618(14) 0.06439(7)
H13 H 0.3204 0.5755 0.0399
C12 C 0.40794(9) 0.47797(14) 0.12665(7)
H14 H 0.3613 0.4096 0.1450
C13 C 0.50045(9) 0.47961(13) 0.16221(7)
H15 H 0.5167 0.4123 0.2050
C14 C 0.57005(8) 0.57894(12) 0.13588(7)
C15 C 0.66982(8) 0.58171(12) 0.17447(6)
H16 H 0.6840 0.4847 0.2035
C16 C 0.75312(8) 0.62245(12) 0.12071(6)
H17 H 0.8033 0.5436 0.1127
C17 C 0.83370(8) 0.97145(12) 0.07851(6)
C18 C 0.75526(7) 0.87152(12) 0.10635(6)
C19 C 0.64870(7) 0.92721(12) 0.09921(6)
H18 H 0.6433 1.0236 0.0680
C20 C 0.59997(7) 0.94265(12) 0.17648(6)
C21 C 0.52995(8) 1.05323(12) 0.18595(7)
H19 H 0.5151 1.1230 0.1439
C22 C 0.48171(8) 1.06285(13) 0.25585(7)
H20 H 0.4347 1.1395 0.2617
C23 C 0.50217(8) 0.96034(13) 0.31728(7)
H21 H 0.4685 0.9653 0.3649
C24 C 0.57212(8) 0.85080(13) 0.30843(7)
H22 H 0.5861 0.7806 0.3504
C25 C 0.62246(8) 0.84175(12) 0.23892(6)
C26 C 0.69821(8) 0.72293(12) 0.23003(7)
H23 H 0.7245 0.6879 0.2836
C27 C 0.78159(8) 0.76010(12) 0.17526(6)
H24 H 0.8486 0.7635 0.2001
loop_
_geom_bond_atom_site_label_1
_geom_bond_atom_site_label_2
_geom_bond_site_symmetry_1
_geom_bond_site_symmetry_2
O1 C6 1_555 1_555
O2 C2 1_555 1_555
O3 C17 1_555 1_555
O4 C4 1_555 1_555
C1 H1 1_555 1_555
H2 C1 1_555 1_555
H3 C1 1_555 1_555
C2 C1 1_555 1_555
H4 C2 1_555 1_555
C3 C2 1_555 1_555
H5 C3 1_555 1_555
H6 C3 1_555 1_555
C4 C3 1_555 1_555
H7 C4 1_555 1_555
C5 C4 1_555 1_555
H8 C5 1_555 1_555
H9 C5 1_555 1_555
H10 C5 1_555 1_555
C6 O2 1_555 1_555
C7 C6 1_555 1_555
C8 C7 1_555 1_555
H11 C8 1_555 1_555
C9 C8 1_555 1_555
C10 C9 1_555 1_555
H12 C10 1_555 1_555
C11 C10 1_555 1_555
H13 C11 1_555 1_555
C12 C11 1_555 1_555
H14 C12 1_555 1_555
C13 C12 1_555 1_555
H15 C13 1_555 1_555
C14 C9 1_555 1_555
C15 C14 1_555 1_555
H16 C15 1_555 1_555
C16 C7 1_555 1_555
H17 C16 1_555 1_555
C17 O4 1_555 1_555
C18 C7 1_555 1_555
C19 C8 1_555 1_555
H18 C19 1_555 1_555
C20 C19 1_555 1_555
C21 C20 1_555 1_555
H19 C21 1_555 1_555
C22 C21 1_555 1_555
H20 C22 1_555 1_555
C23 C22 1_555 1_555
H21 C23 1_555 1_555
C24 C23 1_555 1_555
H22 C24 1_555 1_555
C25 C20 1_555 1_555
C26 C15 1_555 1_555
H23 C26 1_555 1_555
C27 C16 1_555 1_555
H24 C27 1_555 1_555
C13 C14 1_555 1_555
C15 C16 1_555 1_555
C17 C18 1_555 1_555
C18 C19 1_555 1_555
C18 C27 1_555 1_555
C24 C25 1_555 1_555
C25 C26 1_555 1_555
C26 C27 1_555 1_555

#END
