
#######################################################################
#
#                 Cambridge Crystallographic Data Centre
#                                CCDC 
#
#######################################################################
#
# If this CIF has been generated from an entry in the Cambridge 
# Structural Database, then it will include bibliographic, chemical, 
# crystal, experimental, refinement or atomic coordinate data resulting 
# from the CCDC's data processing and validation procedures.
#
#######################################################################

data_YIKCOM01
_chemical_formula_moiety         'C7 H8 N1 O2 1+,C7 H7 O3 S1 1-'
_chemical_name_systematic        
'2-carboxyanilinium 4-methylbenzene-1-sulfonate'
_symmetry_cell_setting           triclinic
_symmetry_space_group_name_H-M   'P -1'
_symmetry_Int_Tables_number      2
_space_group_name_Hall           '-P 1'
loop_
_symmetry_equiv_pos_site_id
_symmetry_equiv_pos_as_xyz
1 x,y,z
2 -x,-y,-z
_cell_length_a                   6.3735(6)
_cell_length_b                   9.099(9)
_cell_length_c                   12.0933(11)
_cell_angle_alpha                86.918(2)
_cell_angle_beta                 89.500(3)
_cell_angle_gamma                86.979(2)
_cell_volume                     699.321
_exptl_crystal_colour            colorless
_exptl_crystal_description       block
_cell_formula_units_Z            2
loop_
_atom_site_label
_atom_site_type_symbol
_atom_site_fract_x
_atom_site_fract_y
_atom_site_fract_z
N1 N 0.3255(3) 0.6447(2) 0.89237(17)
H1 H 0.1960 0.6324 0.8688
H2 H 0.3304 0.6283 0.9655
H3 H 0.4154 0.5817 0.8604
O1 O 0.6582(3) 0.64047(19) 1.02287(15)
O2 O 0.8880(3) 0.81407(19) 0.99743(15)
H4 H 0.9576 0.7590 1.0405
C1 C 0.7081(4) 0.7559(3) 0.9785(2)
C2 C 0.5697(4) 0.8473(2) 0.9012(2)
C3 C 0.3826(4) 0.7956(3) 0.8634(2)
C4 C 0.2469(4) 0.8829(3) 0.7969(2)
H5 H 0.1237 0.8462 0.7716
C5 C 0.2970(5) 1.0269(3) 0.7682(2)
H6 H 0.2056 1.0874 0.7243
C6 C 0.4793(5) 1.0801(3) 0.8039(2)
H7 H 0.5113 1.1765 0.7840
C7 C 0.6161(4) 0.9925(3) 0.8692(2)
H8 H 0.7406 1.0299 0.8922
O3 O 1.0600(3) 0.41554(19) 0.19552(16)
O4 O 1.3876(3) 0.51079(19) 0.24836(15)
O5 O 1.1577(3) 0.65806(19) 0.12702(14)
S1 S 1.17203(10) 0.54488(7) 0.21790(5)
C8 C 1.0445(4) 0.6229(3) 0.3333(2)
C9 C 0.8446(4) 0.5853(3) 0.3621(2)
H9 H 0.7781 0.5156 0.3234
C10 C 0.7428(5) 0.6523(3) 0.4493(2)
H10 H 0.6079 0.6258 0.4689
C11 C 0.8357(5) 0.7573(3) 0.5081(2)
C12 C 1.0378(5) 0.7905(3) 0.4790(2)
H11 H 1.1053 0.8588 0.5186
C13 C 1.1427(4) 0.7252(3) 0.3927(2)
H12 H 1.2790 0.7498 0.3745
C14 C 0.7182(6) 0.8320(4) 0.6000(3)
H13 H 0.5970 0.8869 0.5702
H14 H 0.8083 0.8977 0.6339
H15 H 0.6745 0.7590 0.6544
loop_
_geom_bond_atom_site_label_1
_geom_bond_atom_site_label_2
_geom_bond_site_symmetry_1
_geom_bond_site_symmetry_2
N1 H1 1_555 1_555
H2 N1 1_555 1_555
H3 N1 1_555 1_555
O1 C1 1_555 1_555
O2 H4 1_555 1_555
C1 O2 1_555 1_555
C2 C1 1_555 1_555
C3 N1 1_555 1_555
C4 C3 1_555 1_555
H5 C4 1_555 1_555
C5 C4 1_555 1_555
H6 C5 1_555 1_555
C6 C5 1_555 1_555
H7 C6 1_555 1_555
C7 C2 1_555 1_555
H8 C7 1_555 1_555
O3 S1 1_555 1_555
O4 S1 1_555 1_555
O5 S1 1_555 1_555
S1 C8 1_555 1_555
C8 C9 1_555 1_555
C9 H9 1_555 1_555
C10 C9 1_555 1_555
H10 C10 1_555 1_555
C11 C10 1_555 1_555
C12 C11 1_555 1_555
H11 C12 1_555 1_555
C13 C8 1_555 1_555
H12 C13 1_555 1_555
C14 C11 1_555 1_555
H13 C14 1_555 1_555
H14 C14 1_555 1_555
H15 C14 1_555 1_555
C2 C3 1_555 1_555
C6 C7 1_555 1_555
C12 C13 1_555 1_555

#END
