
#######################################################################
#
#                 Cambridge Crystallographic Data Centre
#                                CCDC 
#
#######################################################################
#
# If this CIF has been generated from an entry in the Cambridge 
# Structural Database, then it will include bibliographic, chemical, 
# crystal, experimental, refinement or atomic coordinate data resulting 
# from the CCDC's data processing and validation procedures.
#
#######################################################################

data_YIKHAD
_chemical_formula_moiety         'C26 H23 N3 O4'
_chemical_name_systematic        
2-(2-(4-Methoxyphenyl)-4-oxo-1-(2-(pyridin-2-yl)propan-2-yl)azetidin-3-yl)-1H-isoindole-1,3(2H)-dione
_symmetry_cell_setting           monoclinic
_symmetry_space_group_name_H-M   'P 21'
_symmetry_Int_Tables_number      4
_space_group_name_Hall           'P 2yb'
loop_
_symmetry_equiv_pos_site_id
_symmetry_equiv_pos_as_xyz
1 x,y,z
2 -x,1/2+y,-z
_cell_length_a                   13.4289(6)
_cell_length_b                   12.8775(6)
_cell_length_c                   20.3931(11)
_cell_angle_alpha                90
_cell_angle_beta                 103.389(5)
_cell_angle_gamma                90
_cell_volume                     3430.74
_exptl_crystal_colour            colorless
_exptl_crystal_description       block
_cell_formula_units_Z            6
loop_
_atom_site_label
_atom_site_type_symbol
_atom_site_fract_x
_atom_site_fract_y
_atom_site_fract_z
O1 O -0.09523(19) 0.5097(2) 0.65828(13)
O2 O 0.17027(19) 0.7322(2) 0.73225(12)
O3 O 0.2001(2) 0.6104(2) 0.59195(14)
O4 O -0.35329(18) 0.9091(2) 0.41476(13)
N1 N 0.03283(19) 0.6326(2) 0.67942(13)
N2 N 0.10539(19) 0.7633(2) 0.56062(14)
N3 N 0.2695(2) 0.8588(3) 0.45360(16)
C1 C -0.0356(3) 0.4858(3) 0.8153(2)
H1 H -0.0922 0.4432 0.8002
C2 C 0.0148(3) 0.4891(3) 0.8829(2)
H2 H -0.0086 0.4482 0.9138
C3 C 0.0982(3) 0.5513(4) 0.9047(2)
H3 H 0.1316 0.5502 0.9500
C4 C 0.1347(3) 0.6161(3) 0.86118(19)
H4 H 0.1907 0.6594 0.8765
C5 C 0.0841(2) 0.6132(3) 0.79441(17)
C6 C 0.0015(2) 0.5482(3) 0.77142(18)
C7 C -0.0309(2) 0.5578(3) 0.69750(18)
C8 C 0.1057(3) 0.6689(3) 0.73531(18)
C9 C 0.0283(2) 0.6631(3) 0.61123(16)
H5 H -0.0220 0.6206 0.5801
C10 C 0.1278(3) 0.6678(3) 0.58802(17)
C11 C 0.0152(2) 0.7789(3) 0.59067(16)
H6 H 0.0329 0.8239 0.6304
C12 C -0.0814(2) 0.8142(3) 0.54396(17)
C13 C -0.1230(3) 0.7638(3) 0.48372(18)
H7 H -0.0894 0.7066 0.4712
C14 C -0.2135(3) 0.7971(3) 0.44204(19)
H8 H -0.2405 0.7620 0.4020
C15 C -0.2643(2) 0.8826(3) 0.45951(18)
C16 C -0.2243(3) 0.9336(3) 0.51845(18)
H9 H -0.2578 0.9913 0.5305
C17 C -0.1338(3) 0.8990(3) 0.56011(18)
H10 H -0.1075 0.9341 0.6002
C18 C -0.4071(3) 0.9967(4) 0.4316(2)
H11 H -0.4682 1.0076 0.3970
H12 H -0.3643 1.0571 0.4352
H13 H -0.4251 0.9845 0.4738
C19 C 0.1734(3) 0.8381(3) 0.53804(18)
C20 C 0.2703(3) 0.8505(4) 0.5943(2)
H14 H 0.3050 0.7850 0.6026
H15 H 0.2520 0.8736 0.6347
H16 H 0.3147 0.9008 0.5810
C21 C 0.1160(4) 0.9408(3) 0.5228(3)
H17 H 0.1595 0.9912 0.5087
H18 H 0.0968 0.9652 0.5626
H19 H 0.0557 0.9307 0.4875
C22 C 0.2005(2) 0.8003(3) 0.47362(17)
C23 C 0.1570(3) 0.7153(3) 0.43755(19)
H20 H 0.1092 0.6754 0.4529
C24 C 0.1842(3) 0.6892(4) 0.3784(2)
H21 H 0.1559 0.6315 0.3536
C25 C 0.2543(3) 0.7507(4) 0.3573(2)
H22 H 0.2736 0.7363 0.3173
C26 C 0.2944(3) 0.8328(4) 0.3960(2)
H23 H 0.3424 0.8736 0.3816
O5 O 0.3143(2) 0.7981(2) 0.88839(15)
O6 O 0.5066(2) 0.7681(2) 0.73315(15)
O7 O 0.62336(19) 0.6493(2) 0.88527(16)
O8 O 0.1156(2) 0.2613(2) 0.80487(16)
N4 N 0.41121(19) 0.7558(2) 0.81295(15)
N5 N 0.52235(19) 0.5283(2) 0.81348(15)
N6 N 0.7404(2) 0.3509(3) 0.83263(17)
C27 C 0.4247(3) 0.9982(3) 0.7226(2)
H24 H 0.4655 0.9927 0.6916
C28 C 0.3768(4) 1.0897(4) 0.7303(3)
H25 H 0.3842 1.1470 0.7040
C29 C 0.3169(4) 1.0970(4) 0.7776(3)
H26 H 0.2856 1.1599 0.7828
C30 C 0.3030(4) 1.0143(4) 0.8166(3)
H27 H 0.2627 1.0198 0.8478
C31 C 0.3506(3) 0.9228(3) 0.8080(2)
C32 C 0.4111(3) 0.9149(3) 0.7616(2)
C33 C 0.4508(3) 0.8073(3) 0.7647(2)
C34 C 0.3524(3) 0.8219(3) 0.8426(2)
C35 C 0.4331(2) 0.6502(3) 0.83417(18)
H28 H 0.4018 0.6342 0.8719
C36 C 0.4138(2) 0.5594(3) 0.78236(18)
H29 H 0.4064 0.5847 0.7362
C37 C 0.5446(3) 0.6156(3) 0.8511(2)
C38 C 0.3340(2) 0.4814(3) 0.78650(18)
C39 C 0.3327(3) 0.4316(3) 0.84672(19)
H30 H 0.3831 0.4475 0.8850
C40 C 0.2595(3) 0.3599(3) 0.8513(2)
H31 H 0.2604 0.3280 0.8924
C41 C 0.1843(3) 0.3350(3) 0.7951(2)
C42 C 0.1837(2) 0.3813(3) 0.7350(2)
H32 H 0.1337 0.3640 0.6968
C43 C 0.2588(2) 0.4550(3) 0.73084(19)
H33 H 0.2578 0.4867 0.6897
C44 C 0.0375(4) 0.2322(4) 0.7481(3)
H34 H 0.0681 0.2085 0.7126
H35 H -0.0054 0.2911 0.7326
H36 H -0.0030 0.1775 0.7606
C45 C 0.5916(2) 0.4567(3) 0.78969(17)
C46 C 0.6516(3) 0.5177(3) 0.7477(2)
H37 H 0.6891 0.5723 0.7745
H38 H 0.6050 0.5471 0.7092
H39 H 0.6984 0.4720 0.7328
C47 C 0.5282(3) 0.3696(3) 0.7485(2)
H40 H 0.5733 0.3203 0.7350
H41 H 0.4833 0.3986 0.7092
H42 H 0.4884 0.3353 0.7756
C48 C 0.6659(3) 0.4057(3) 0.84976(19)
C49 C 0.6574(3) 0.4134(3) 0.9153(2)
H43 H 0.6047 0.4515 0.9262
C50 C 0.7305(4) 0.3621(4) 0.9658(2)
H44 H 0.7271 0.3659 1.0108
C51 C 0.8056(4) 0.3075(4) 0.9476(3)
H45 H 0.8552 0.2737 0.9798
C52 C 0.8075(3) 0.3029(4) 0.8815(3)
H46 H 0.8587 0.2637 0.8695
O9 O 0.56292(19) 0.9635(2) 0.61194(12)
O10 O 0.81506(18) 0.7367(2) 0.70706(12)
O11 O 0.9111(2) 0.9873(2) 0.72151(13)
O12 O 0.5155(2) 1.0826(2) 0.97578(16)
N7 N 0.69554(19) 0.8656(2) 0.67392(13)
N8 N 0.85020(19) 0.9250(2) 0.81342(13)
N9 N 0.9141(2) 0.8475(3) 0.98145(15)
C53 C 0.6879(3) 0.6279(3) 0.57527(18)
H47 H 0.7407 0.5821 0.5933
C54 C 0.6163(3) 0.6046(3) 0.5169(2)
H48 H 0.6214 0.5420 0.4952
C55 C 0.5372(3) 0.6715(3) 0.4899(2)
H49 H 0.4897 0.6530 0.4507
C56 C 0.5276(3) 0.7660(3) 0.52053(18)
H50 H 0.4746 0.8116 0.5027
C57 C 0.5997(2) 0.7894(3) 0.57833(16)
C58 C 0.6781(2) 0.7215(3) 0.60569(16)
C59 C 0.7403(2) 0.7695(3) 0.66781(17)
C60 C 0.6113(2) 0.8837(3) 0.62053(17)
C61 C 0.7318(2) 0.9381(3) 0.72831(16)
H51 H 0.6948 1.0041 0.7199
C62 C 0.8471(3) 0.9562(3) 0.74977(17)
C63 C 0.7392(2) 0.9002(3) 0.80163(16)
H52 H 0.7289 0.8249 0.8025
C64 C 0.6806(2) 0.9542(3) 0.84629(17)
C65 C 0.6594(3) 1.0579(3) 0.8430(2)
H53 H 0.6821 1.0985 0.8117
C66 C 0.6049(3) 1.1047(3) 0.8851(2)
H54 H 0.5911 1.1755 0.8817
C67 C 0.5716(3) 1.0459(3) 0.9316(2)
C68 C 0.5938(3) 0.9414(3) 0.9367(2)
H55 H 0.5724 0.9013 0.9687
C69 C 0.6477(3) 0.8964(3) 0.89441(18)
H56 H 0.6623 0.8258 0.8983
C70 C 0.4814(4) 1.1860(4) 0.9689(3)
H57 H 0.4429 1.1975 0.9236
H58 H 0.5393 1.2319 0.9786
H59 H 0.4386 1.1993 0.9997
C71 C 0.9334(2) 0.9175(3) 0.87462(17)
C72 C 0.9413(4) 1.0208(3) 0.9115(2)
H60 H 0.8787 1.0342 0.9250
H61 H 0.9533 1.0753 0.8821
H62 H 0.9970 1.0183 0.9507
C73 C 1.0332(3) 0.8929(4) 0.8534(2)
H63 H 1.0865 0.8794 0.8928
H64 H 1.0520 0.9510 0.8295
H65 H 1.0234 0.8328 0.8248
C74 C 0.9080(2) 0.8281(3) 0.91649(18)
C75 C 0.8798(3) 0.7318(3) 0.8880(2)
H66 H 0.8801 0.7193 0.8431
C76 C 0.8512(3) 0.6550(3) 0.9268(3)
H67 H 0.8299 0.5905 0.9082
C77 C 0.8547(3) 0.6752(4) 0.9933(3)
H68 H 0.8338 0.6255 1.0204
C78 C 0.8895(3) 0.7701(4) 1.0188(2)
H69 H 0.8966 0.7816 1.0647
loop_
_geom_bond_atom_site_label_1
_geom_bond_atom_site_label_2
_geom_bond_site_symmetry_1
_geom_bond_site_symmetry_2
O1 C7 1_555 1_555
O2 C8 1_555 1_555
O3 C10 1_555 1_555
O4 C15 1_555 1_555
N1 C7 1_555 1_555
N2 C10 1_555 1_555
N3 C22 1_555 1_555
C1 H1 1_555 1_555
C2 C1 1_555 1_555
H2 C2 1_555 1_555
C3 C2 1_555 1_555
H3 C3 1_555 1_555
C4 C3 1_555 1_555
H4 C4 1_555 1_555
C5 C4 1_555 1_555
C6 C1 1_555 1_555
C7 C6 1_555 1_555
C8 N1 1_555 1_555
C9 N1 1_555 1_555
H5 C9 1_555 1_555
C10 C9 1_555 1_555
C11 N2 1_555 1_555
H6 C11 1_555 1_555
C12 C11 1_555 1_555
C13 C12 1_555 1_555
H7 C13 1_555 1_555
C14 C13 1_555 1_555
H8 C14 1_555 1_555
C15 C14 1_555 1_555
C16 C15 1_555 1_555
H9 C16 1_555 1_555
C17 C12 1_555 1_555
H10 C17 1_555 1_555
C18 O4 1_555 1_555
H11 C18 1_555 1_555
H12 C18 1_555 1_555
H13 C18 1_555 1_555
C19 N2 1_555 1_555
C20 C19 1_555 1_555
H14 C20 1_555 1_555
H15 C20 1_555 1_555
H16 C20 1_555 1_555
C21 C19 1_555 1_555
H17 C21 1_555 1_555
H18 C21 1_555 1_555
H19 C21 1_555 1_555
C22 C19 1_555 1_555
C23 C22 1_555 1_555
H20 C23 1_555 1_555
C24 C23 1_555 1_555
H21 C24 1_555 1_555
C25 C24 1_555 1_555
H22 C25 1_555 1_555
C26 N3 1_555 1_555
H23 C26 1_555 1_555
O5 C34 1_555 1_555
O6 C33 1_555 1_555
O7 C37 1_555 1_555
O8 C41 1_555 1_555
N4 C33 1_555 1_555
N5 C36 1_555 1_555
N6 C48 1_555 1_555
C27 H24 1_555 1_555
C28 C27 1_555 1_555
H25 C28 1_555 1_555
C29 C28 1_555 1_555
H26 C29 1_555 1_555
C30 C29 1_555 1_555
H27 C30 1_555 1_555
C31 C30 1_555 1_555
C32 C27 1_555 1_555
C33 C32 1_555 1_555
C34 N4 1_555 1_555
C35 N4 1_555 1_555
H28 C35 1_555 1_555
C36 C35 1_555 1_555
H29 C36 1_555 1_555
C37 N5 1_555 1_555
C38 C36 1_555 1_555
C39 C38 1_555 1_555
H30 C39 1_555 1_555
C40 C39 1_555 1_555
H31 C40 1_555 1_555
C41 C40 1_555 1_555
C42 C41 1_555 1_555
H32 C42 1_555 1_555
C43 C38 1_555 1_555
H33 C43 1_555 1_555
C44 O8 1_555 1_555
H34 C44 1_555 1_555
H35 C44 1_555 1_555
H36 C44 1_555 1_555
C45 N5 1_555 1_555
C46 C45 1_555 1_555
H37 C46 1_555 1_555
H38 C46 1_555 1_555
H39 C46 1_555 1_555
C47 C45 1_555 1_555
H40 C47 1_555 1_555
H41 C47 1_555 1_555
H42 C47 1_555 1_555
C48 C45 1_555 1_555
C49 C48 1_555 1_555
H43 C49 1_555 1_555
C50 C49 1_555 1_555
H44 C50 1_555 1_555
C51 C50 1_555 1_555
H45 C51 1_555 1_555
C52 N6 1_555 1_555
H46 C52 1_555 1_555
O9 C60 1_555 1_555
O10 C59 1_555 1_555
O11 C62 1_555 1_555
O12 C67 1_555 1_555
N7 C59 1_555 1_555
N8 C62 1_555 1_555
N9 C74 1_555 1_555
C53 H47 1_555 1_555
C54 C53 1_555 1_555
H48 C54 1_555 1_555
C55 C54 1_555 1_555
H49 C55 1_555 1_555
C56 C55 1_555 1_555
H50 C56 1_555 1_555
C57 C56 1_555 1_555
C58 C53 1_555 1_555
C59 C58 1_555 1_555
C60 N7 1_555 1_555
C61 N7 1_555 1_555
H51 C61 1_555 1_555
C62 C61 1_555 1_555
C63 N8 1_555 1_555
H52 C63 1_555 1_555
C64 C63 1_555 1_555
C65 C64 1_555 1_555
H53 C65 1_555 1_555
C66 C65 1_555 1_555
H54 C66 1_555 1_555
C67 C66 1_555 1_555
C68 C67 1_555 1_555
H55 C68 1_555 1_555
C69 C64 1_555 1_555
H56 C69 1_555 1_555
C70 O12 1_555 1_555
H57 C70 1_555 1_555
H58 C70 1_555 1_555
H59 C70 1_555 1_555
C71 N8 1_555 1_555
C72 C71 1_555 1_555
H60 C72 1_555 1_555
H61 C72 1_555 1_555
H62 C72 1_555 1_555
C73 C71 1_555 1_555
H63 C73 1_555 1_555
H64 C73 1_555 1_555
H65 C73 1_555 1_555
C74 C71 1_555 1_555
C75 C74 1_555 1_555
H66 C75 1_555 1_555
C76 C75 1_555 1_555
H67 C76 1_555 1_555
C77 C76 1_555 1_555
H68 C77 1_555 1_555
C78 N9 1_555 1_555
H69 C78 1_555 1_555
C5 C6 1_555 1_555
C5 C8 1_555 1_555
C9 C11 1_555 1_555
C16 C17 1_555 1_555
C25 C26 1_555 1_555
C31 C32 1_555 1_555
C31 C34 1_555 1_555
C35 C37 1_555 1_555
C42 C43 1_555 1_555
C51 C52 1_555 1_555
C57 C58 1_555 1_555
C57 C60 1_555 1_555
C61 C63 1_555 1_555
C68 C69 1_555 1_555
C77 C78 1_555 1_555

#END
