
#######################################################################
#
#                 Cambridge Crystallographic Data Centre
#                                CCDC 
#
#######################################################################
#
# If this CIF has been generated from an entry in the Cambridge 
# Structural Database, then it will include bibliographic, chemical, 
# crystal, experimental, refinement or atomic coordinate data resulting 
# from the CCDC's data processing and validation procedures.
#
#######################################################################

data_YIKWIA
_chemical_formula_moiety         'C29 H36 Cl2 N2 O2'
_chemical_name_systematic        
'Ethyl 15-(2,6-dichlorophenyl)-5,9,13-trimethyl-15,16-diazapentacyclo[11.5.1.0^1,10^.0^4,9^.0^14,18^]nonadeca-14(18),16-diene-5-carboxylate'
_symmetry_cell_setting           monoclinic
_symmetry_space_group_name_H-M   'P 21'
_symmetry_Int_Tables_number      4
_space_group_name_Hall           'P 2yb'
loop_
_symmetry_equiv_pos_site_id
_symmetry_equiv_pos_as_xyz
1 x,y,z
2 -x,1/2+y,-z
_cell_length_a                   12.6459(5)
_cell_length_b                   8.3831(3)
_cell_length_c                   13.3872(5)
_cell_angle_alpha                90
_cell_angle_beta                 109.147(4)
_cell_angle_gamma                90
_cell_volume                     1340.69
_cell_formula_units_Z            2
loop_
_atom_site_label
_atom_site_type_symbol
_atom_site_fract_x
_atom_site_fract_y
_atom_site_fract_z
Cl1 Cl 0.30559(10) 0.65833(17) 0.44122(9)
Cl2 Cl 0.58835(11) 0.44955(18) 0.24346(10)
O1 O 0.1307(4) 0.1120(5) -0.3382(4)
O2 O 0.0245(3) 0.1602(4) -0.2402(3)
N1 N 0.3644(3) 0.5205(3) 0.2590(2)
N2 N 0.3230(3) 0.3685(4) 0.2409(2)
C1 C 0.3082(3) 0.5274(5) -0.2265(3)
H1 H 0.2935 0.6368 -0.2506
H2 H 0.3876 0.5183 -0.1878
C2 C 0.2792(4) 0.4177(7) -0.3224(3)
H3 H 0.3221 0.4487 -0.3675
H4 H 0.2990 0.3088 -0.2993
C3 C 0.1549(4) 0.4268(7) -0.3845(3)
H5 H 0.1384 0.3542 -0.4441
H6 H 0.1372 0.5339 -0.4124
C4 C 0.0797(4) 0.3850(5) -0.3181(3)
C5 C 0.1145(3) 0.4897(4) -0.2153(2)
H7 H 0.0988 0.5993 -0.2414
C6 C 0.0445(3) 0.4683(5) -0.1410(3)
H8 H -0.0343 0.4642 -0.1826
H9 H 0.0643 0.3681 -0.1032
C7 C 0.0646(3) 0.6046(5) -0.0619(3)
H10 H 0.0233 0.5833 -0.0138
H11 H 0.0349 0.7020 -0.0998
C8 C 0.1876(3) 0.6316(4) 0.0029(2)
C9 C 0.2623(3) 0.6314(4) -0.0702(2)
H12 H 0.2413 0.7280 -0.1134
C10 C 0.2422(3) 0.4904(4) -0.1508(2)
C11 C 0.3864(3) 0.6543(5) -0.0033(3)
H13 H 0.4147 0.5549 0.0326
H14 H 0.4286 0.6775 -0.0504
C12 C 0.4077(3) 0.7877(5) 0.0795(3)
H15 H 0.4025 0.8899 0.0442
H16 H 0.4832 0.7771 0.1287
C13 C 0.3246(3) 0.7854(4) 0.1417(3)
C14 C 0.2055(3) 0.7958(5) 0.0587(3)
H17 H 0.1498 0.8143 0.0929
H18 H 0.2013 0.8812 0.0086
C15 C 0.2384(3) 0.5273(4) 0.1006(2)
C16 C 0.2472(3) 0.3744(4) 0.1439(2)
H19 H 0.2054 0.2872 0.1096
C17 C 0.3138(3) 0.6171(4) 0.1764(2)
C18 C 0.3499(4) 0.9142(5) 0.2269(3)
H20 H 0.4215 0.8938 0.2791
H21 H 0.2930 0.9131 0.2600
H22 H 0.3510 1.0168 0.1953
C19 C -0.0428(4) 0.4239(7) -0.3858(3)
H23 H -0.0624 0.3654 -0.4510
H24 H -0.0498 0.5362 -0.4007
H25 H -0.0922 0.3942 -0.3476
C20 C 0.0835(3) 0.2064(5) -0.2998(3)
C21 C 0.2813(3) 0.3289(4) -0.0972(3)
H26 H 0.2790 0.2503 -0.1501
H27 H 0.2329 0.2968 -0.0587
H28 H 0.3566 0.3387 -0.0495
C22 C 0.0208(5) -0.0093(6) -0.2194(4)
H29 H 0.0012 -0.0238 -0.1557
H30 H 0.0947 -0.0544 -0.2066
C23 C -0.0609(5) -0.0974(7) -0.3077(4)
H31 H -0.0371 -0.0944 -0.3687
H32 H -0.1333 -0.0485 -0.3243
H33 H -0.0652 -0.2063 -0.2870
C24 C 0.4561(3) 0.5570(4) 0.3514(2)
C25 C 0.4404(3) 0.6219(5) 0.4407(3)
C26 C 0.5307(4) 0.6606(6) 0.5295(3)
H34 H 0.5188 0.7041 0.5889
C27 C 0.6371(4) 0.6342(6) 0.5287(3)
H35 H 0.6975 0.6612 0.5878
C28 C 0.6564(4) 0.5687(6) 0.4425(4)
H36 H 0.7291 0.5501 0.4432
C29 C 0.5653(3) 0.5305(5) 0.3540(3)
loop_
_geom_bond_atom_site_label_1
_geom_bond_atom_site_label_2
_geom_bond_site_symmetry_1
_geom_bond_site_symmetry_2
Cl1 C25 1_555 1_555
Cl2 C29 1_555 1_555
O1 C20 1_555 1_555
O2 C20 1_555 1_555
N1 N2 1_555 1_555
N2 C16 1_555 1_555
C1 H1 1_555 1_555
H2 C1 1_555 1_555
C2 C1 1_555 1_555
H3 C2 1_555 1_555
H4 C2 1_555 1_555
C3 C2 1_555 1_555
H5 C3 1_555 1_555
H6 C3 1_555 1_555
C4 C3 1_555 1_555
C5 C4 1_555 1_555
H7 C5 1_555 1_555
C6 C5 1_555 1_555
H8 C6 1_555 1_555
H9 C6 1_555 1_555
C7 C6 1_555 1_555
H10 C7 1_555 1_555
H11 C7 1_555 1_555
C8 C7 1_555 1_555
C9 C8 1_555 1_555
H12 C9 1_555 1_555
C10 C1 1_555 1_555
C11 C9 1_555 1_555
H13 C11 1_555 1_555
H14 C11 1_555 1_555
C12 C11 1_555 1_555
H15 C12 1_555 1_555
H16 C12 1_555 1_555
C13 C12 1_555 1_555
C14 C8 1_555 1_555
H17 C14 1_555 1_555
H18 C14 1_555 1_555
C15 C8 1_555 1_555
C16 C15 1_555 1_555
H19 C16 1_555 1_555
C17 N1 1_555 1_555
C18 C13 1_555 1_555
H20 C18 1_555 1_555
H21 C18 1_555 1_555
H22 C18 1_555 1_555
C19 C4 1_555 1_555
H23 C19 1_555 1_555
H24 C19 1_555 1_555
H25 C19 1_555 1_555
C20 C4 1_555 1_555
C21 C10 1_555 1_555
H26 C21 1_555 1_555
H27 C21 1_555 1_555
H28 C21 1_555 1_555
C22 O2 1_555 1_555
H29 C22 1_555 1_555
H30 C22 1_555 1_555
C23 C22 1_555 1_555
H31 C23 1_555 1_555
H32 C23 1_555 1_555
H33 C23 1_555 1_555
C24 N1 1_555 1_555
C25 C24 1_555 1_555
C26 C25 1_555 1_555
H34 C26 1_555 1_555
C27 C26 1_555 1_555
H35 C27 1_555 1_555
C28 C27 1_555 1_555
H36 C28 1_555 1_555
C29 C24 1_555 1_555
C5 C10 1_555 1_555
C9 C10 1_555 1_555
C13 C14 1_555 1_555
C13 C17 1_555 1_555
C15 C17 1_555 1_555
C28 C29 1_555 1_555

#END
