
#######################################################################
#
#                 Cambridge Crystallographic Data Centre
#                                CCDC 
#
#######################################################################
#
# If this CIF has been generated from an entry in the Cambridge 
# Structural Database, then it will include bibliographic, chemical, 
# crystal, experimental, refinement or atomic coordinate data resulting 
# from the CCDC's data processing and validation procedures.
#
#######################################################################

data_YIKWOG
_chemical_formula_moiety         'C29 H39 F1 N2 O2'
_chemical_name_systematic        
'Ethyl 16-(2-fluorophenyl)-5,9,13-trimethyl-15,16-diazapentacyclo[11.5.1.0^1,10^.0^4,9^.0^14,18^]nonadec-14-ene-5-carboxylate'
_symmetry_cell_setting           monoclinic
_symmetry_space_group_name_H-M   'P 21'
_symmetry_Int_Tables_number      4
_space_group_name_Hall           'P 2yb'
loop_
_symmetry_equiv_pos_site_id
_symmetry_equiv_pos_as_xyz
1 x,y,z
2 -x,1/2+y,-z
_cell_length_a                   8.2822(9)
_cell_length_b                   7.9215(9)
_cell_length_c                   19.349(2)
_cell_angle_alpha                90
_cell_angle_beta                 92.246(9)
_cell_angle_gamma                90
_cell_volume                     1268.46
_cell_formula_units_Z            2
loop_
_atom_site_label
_atom_site_type_symbol
_atom_site_fract_x
_atom_site_fract_y
_atom_site_fract_z
F1 F 0.8241(3) 0.6005(3) 0.75091(10)
O1 O 0.2589(4) 0.3165(4) 0.93913(13)
O2 O 0.2252(4) 0.0815(4) 0.99741(12)
N1 N 0.7459(3) 0.1793(3) 0.62307(12)
N2 N 0.7743(3) 0.3101(3) 0.67316(12)
C1 C 0.2171(4) -0.2112(4) 0.82741(14)
H1 H 0.1327 -0.2419 0.7935
H2 H 0.3006 -0.2969 0.8261
C2 C 0.1466(4) -0.2114(4) 0.89880(16)
H3 H 0.0957 -0.3195 0.9069
H4 H 0.2328 -0.1961 0.9336
C3 C 0.0231(4) -0.0716(5) 0.90519(16)
H5 H -0.0138 -0.0711 0.9521
H6 H -0.0693 -0.0969 0.8746
C4 C 0.0843(3) 0.1039(5) 0.88821(15)
C5 C 0.1603(3) 0.0985(4) 0.81563(13)
H7 H 0.0709 0.0654 0.7838
C6 C 0.2171(4) 0.2699(4) 0.78788(14)
H8 H 0.1358 0.3553 0.7956
H9 H 0.3164 0.3037 0.8123
C7 C 0.2456(3) 0.2555(4) 0.71080(13)
H10 H 0.1432 0.2324 0.6866
H11 H 0.2844 0.3633 0.6944
C8 C 0.3648(3) 0.1201(3) 0.69246(13)
C9 C 0.3239(3) -0.0494(3) 0.72774(12)
H12 H 0.2217 -0.0859 0.7053
C10 C 0.2900(3) -0.0394(3) 0.80657(12)
C11 C 0.4473(3) -0.1864(3) 0.70960(14)
H13 H 0.5470 -0.1666 0.7363
H14 H 0.4059 -0.2957 0.7230
C12 C 0.4845(4) -0.1913(4) 0.63253(14)
H15 H 0.3954 -0.2462 0.6074
H16 H 0.5803 -0.2596 0.6268
C13 C 0.5118(4) -0.0168(4) 0.60032(14)
C14 C 0.3594(3) 0.0886(4) 0.61343(13)
H17 H 0.2625 0.0271 0.5991
H18 H 0.3615 0.1945 0.5883
C15 C 0.5484(3) 0.1610(3) 0.70651(13)
H19 H 0.5898 0.0992 0.7473
C16 C 0.6167(3) 0.3376(4) 0.70668(15)
H20 H 0.5476 0.4143 0.6799
H21 H 0.6325 0.3808 0.7534
C17 C 0.6249(3) 0.0945(3) 0.64252(14)
C18 C 0.5533(4) -0.0307(5) 0.52473(15)
H22 H 0.6531 -0.0910 0.5211
H23 H 0.5643 0.0804 0.5056
H24 H 0.4686 -0.0901 0.4997
C19 C -0.0634(4) 0.2254(6) 0.88519(19)
H25 H -0.0263 0.3397 0.8813
H26 H -0.1224 0.2136 0.9266
H27 H -0.1325 0.1980 0.8458
C20 C 0.1986(4) 0.1800(5) 0.94311(17)
C21 C 0.4421(3) -0.0064(4) 0.85281(14)
H28 H 0.4187 -0.0279 0.9002
H29 H 0.4750 0.1091 0.8479
H30 H 0.5276 -0.0796 0.8392
C22 C 0.3608(10) 0.1546(9) 1.0452(3)
H31 H 0.4604 0.1664 1.0208
H32 H 0.3305 0.2638 1.0632
C23 C 0.3790(10) 0.0267(10) 1.1021(4)
H33 H 0.3993 -0.0824 1.0826
H34 H 0.2816 0.0226 1.1273
H35 H 0.4679 0.0579 1.1328
C24 C 0.8479(3) 0.4535(4) 0.64538(15)
C25 C 0.8692(3) 0.6003(4) 0.68375(15)
C26 C 0.9307(4) 0.7461(5) 0.65823(19)
H36 H 0.9382 0.8428 0.6854
C27 C 0.9811(5) 0.7474(5) 0.5919(2)
H37 H 1.0217 0.8461 0.5732
C28 C 0.9720(6) 0.6039(6) 0.5531(2)
H38 H 1.0121 0.6036 0.5089
C29 C 0.9030(5) 0.4574(5) 0.57907(18)
H39 H 0.8940 0.3615 0.5514
C30? C 0.2833(17) 0.1237(19) 1.0634(7)
H40? H 0.2091 0.0897 1.0984
H41? H 0.3050 0.2436 1.0676
C31? C 0.4362(17) 0.022(2) 1.0675(8)
H42? H 0.4961 0.0406 1.0268
H43? H 0.4098 -0.0962 1.0708
H44? H 0.5003 0.0548 1.1076
loop_
_geom_bond_atom_site_label_1
_geom_bond_atom_site_label_2
_geom_bond_site_symmetry_1
_geom_bond_site_symmetry_2
F1 C25 1_555 1_555
O1 C20 1_555 1_555
O2 C20 1_555 1_555
N1 N2 1_555 1_555
N2 C16 1_555 1_555
C1 H1 1_555 1_555
H2 C1 1_555 1_555
C2 C1 1_555 1_555
H3 C2 1_555 1_555
H4 C2 1_555 1_555
C3 C2 1_555 1_555
H5 C3 1_555 1_555
H6 C3 1_555 1_555
C4 C3 1_555 1_555
C5 C4 1_555 1_555
H7 C5 1_555 1_555
C6 C5 1_555 1_555
H8 C6 1_555 1_555
H9 C6 1_555 1_555
C7 C6 1_555 1_555
H10 C7 1_555 1_555
H11 C7 1_555 1_555
C8 C7 1_555 1_555
C9 C8 1_555 1_555
H12 C9 1_555 1_555
C10 C1 1_555 1_555
C11 C9 1_555 1_555
H13 C11 1_555 1_555
H14 C11 1_555 1_555
C12 C11 1_555 1_555
H15 C12 1_555 1_555
H16 C12 1_555 1_555
C13 C12 1_555 1_555
C14 C8 1_555 1_555
H17 C14 1_555 1_555
H18 C14 1_555 1_555
C15 C8 1_555 1_555
H19 C15 1_555 1_555
C16 C15 1_555 1_555
H20 C16 1_555 1_555
H21 C16 1_555 1_555
C17 N1 1_555 1_555
C18 C13 1_555 1_555
H22 C18 1_555 1_555
H23 C18 1_555 1_555
H24 C18 1_555 1_555
C19 C4 1_555 1_555
H25 C19 1_555 1_555
H26 C19 1_555 1_555
H27 C19 1_555 1_555
C20 C4 1_555 1_555
C21 C10 1_555 1_555
H28 C21 1_555 1_555
H29 C21 1_555 1_555
H30 C21 1_555 1_555
C22 O2 1_555 1_555
H31 C22 1_555 1_555
H32 C22 1_555 1_555
C23 C22 1_555 1_555
H33 C23 1_555 1_555
H34 C23 1_555 1_555
H35 C23 1_555 1_555
C24 N2 1_555 1_555
C25 C24 1_555 1_555
C26 C25 1_555 1_555
H36 C26 1_555 1_555
C27 C26 1_555 1_555
H37 C27 1_555 1_555
C28 C27 1_555 1_555
H38 C28 1_555 1_555
C29 C24 1_555 1_555
H39 C29 1_555 1_555
C5 C10 1_555 1_555
C9 C10 1_555 1_555
C13 C14 1_555 1_555
C13 C17 1_555 1_555
C15 C17 1_555 1_555
C28 C29 1_555 1_555

#END
