
#######################################################################
#
#                 Cambridge Crystallographic Data Centre
#                                CCDC 
#
#######################################################################
#
# If this CIF has been generated from an entry in the Cambridge 
# Structural Database, then it will include bibliographic, chemical, 
# crystal, experimental, refinement or atomic coordinate data resulting 
# from the CCDC's data processing and validation procedures.
#
#######################################################################

data_YILCAA
_chemical_formula_moiety         'C80 H104 O12,C16 H18 Cl2 N1 1+,F6 P1 1-'
_chemical_name_systematic        
'45,46,47,48,49,50,51,52-octabutoxy-3,14,25,36-tetraoxanonacyclo[36.6.2.2^5,12^.2^16,23^.2^27,34^.0^6,11^.0^17,22^.0^28,33^.0^39,44^]dopentaconta-1(44),5,7,9,11,16,18,20,22,27,29,31,33,38,40,42,45,47,49,51-icosaene bis(4-chlorobenzyl)dimethylammonium hexafluorophosphate'
_symmetry_cell_setting           orthorhombic
_symmetry_space_group_name_H-M   'P b c n'
_symmetry_Int_Tables_number      60
_space_group_name_Hall           '-P 2n 2ab'
loop_
_symmetry_equiv_pos_site_id
_symmetry_equiv_pos_as_xyz
1 x,y,z
2 1/2-x,1/2-y,1/2+z
3 -x,y,1/2-z
4 1/2+x,1/2-y,-z
5 -x,-y,-z
6 1/2+x,1/2+y,1/2-z
7 x,-y,1/2+z
8 1/2-x,1/2+y,z
_cell_length_a                   13.342(2)
_cell_length_b                   22.151(3)
_cell_length_c                   31.744(5)
_cell_angle_alpha                90
_cell_angle_beta                 90
_cell_angle_gamma                90
_cell_volume                     9381.58
_exptl_crystal_colour            colorless
_exptl_crystal_description       Prism
_cell_formula_units_Z            4
loop_
_atom_site_label
_atom_site_type_symbol
_atom_site_fract_x
_atom_site_fract_y
_atom_site_fract_z
O1 O 0.5000 0.26737(13) 0.2500
O2 O 0.19338(17) 0.47224(9) 0.18634(8)
O3 O 0.5000 0.67508(12) 0.2500
O4 O 0.39344(18) 0.26027(11) 0.14431(7)
O5 O 0.27198(19) 0.35219(11) 0.11840(8)
O6 O 0.26683(18) 0.59666(10) 0.11645(7)
O7 O 0.3886(2) 0.68828(11) 0.14444(8)
C1 C 0.4231(2) 0.23150(14) 0.23089(11)
H1 H 0.3950 0.2034 0.2512
H2 H 0.4498 0.2088 0.2073
C2 C 0.3446(2) 0.27535(13) 0.21619(10)
C3 C 0.2834(2) 0.30650(14) 0.24620(11)
C4 C 0.2893(2) 0.29373(15) 0.28987(11)
H3 H 0.3336 0.2643 0.2994
C5 C 0.2304(3) 0.32415(18) 0.31837(12)
H4 H 0.2356 0.3153 0.3469
C6 C 0.1629(3) 0.36822(18) 0.30479(13)
H5 H 0.1231 0.3885 0.3242
C7 C 0.1555(3) 0.38159(16) 0.26285(12)
H6 H 0.1099 0.4109 0.2542
C8 C 0.2149(2) 0.35221(14) 0.23214(11)
C9 C 0.2095(2) 0.36691(14) 0.18823(11)
C10 C 0.2698(2) 0.33597(14) 0.16019(11)
C11 C 0.3366(2) 0.29019(14) 0.17407(11)
C12 C 0.1450(3) 0.41800(14) 0.17300(12)
H7 H 0.1392 0.4170 0.1425
H8 H 0.0784 0.4152 0.1851
C13 C 0.1450(3) 0.52551(14) 0.17094(13)
H9 H 0.0772 0.5282 0.1818
H10 H 0.1424 0.5252 0.1404
C14 C 0.2077(2) 0.57803(14) 0.18650(11)
C15 C 0.2140(2) 0.59037(14) 0.23072(11)
C16 C 0.1558(3) 0.55837(17) 0.26074(13)
H11 H 0.1096 0.5299 0.2514
C17 C 0.1658(3) 0.56839(18) 0.30322(13)
H12 H 0.1270 0.5468 0.3224
C18 C 0.2351(3) 0.61143(18) 0.31754(12)
H13 H 0.2426 0.6179 0.3463
C19 C 0.2918(2) 0.64408(15) 0.28974(11)
H14 H 0.3367 0.6727 0.2999
C20 C 0.2833(2) 0.63490(14) 0.24554(11)
C21 C 0.3432(2) 0.66764(13) 0.21618(10)
C22 C 0.3335(2) 0.65595(13) 0.17387(10)
C23 C 0.2662(2) 0.61047(14) 0.15891(11)
C24 C 0.4219(2) 0.71120(13) 0.23175(11)
H15 H 0.4480 0.7351 0.2086
H16 H 0.3938 0.7383 0.2526
C25 C 0.4804(3) 0.29413(18) 0.13017(14)
H17 H 0.5265 0.3005 0.1534
H18 H 0.4601 0.3332 0.1193
C26 C 0.5309(4) 0.2568(2) 0.09546(16)
H19 H 0.4818 0.2484 0.0737
H20 H 0.5837 0.2809 0.0828
C27 C 0.5749(4) 0.1983(3) 0.11013(16)
H21 H 0.5237 0.1755 0.1248
H22 H 0.6283 0.2067 0.1300
C28 C 0.6169(5) 0.1598(3) 0.0741(2)
H23 H 0.5643 0.1507 0.0544
H24 H 0.6435 0.1228 0.0853
H25 H 0.6692 0.1816 0.0599
C29 C 0.2105(3) 0.31570(18) 0.09080(12)
H26 H 0.1438 0.3330 0.0891
H27 H 0.2046 0.2753 0.1023
C30 C 0.1965(4) 0.6326(2) 0.09184(15)
H28 H 0.2122 0.6752 0.0946
H29 H 0.1287 0.6261 0.1019
C31 C 0.2048(4) 0.6139(2) 0.04715(14)
H30 H 0.1511 0.6323 0.0310
H31 H 0.1976 0.5704 0.0452
C32 C 0.3060(5) 0.6326(3) 0.0283(2)
H32 H 0.3123 0.6760 0.0315
H33 H 0.3583 0.6143 0.0453
C33 C 0.3261(7) 0.6179(4) -0.0152(2)
H34 H 0.2846 0.6423 -0.0332
H35 H 0.3117 0.5760 -0.0201
H36 H 0.3954 0.6257 -0.0214
C34 C 0.4791(3) 0.6584(2) 0.13145(14)
H37 H 0.4622 0.6275 0.1110
H38 H 0.5085 0.6384 0.1557
C35 C 0.5578(7) 0.7008(5) 0.1120(3)
H39 H 0.5667 0.7356 0.1302
H40 H 0.6216 0.6798 0.1102
C36 C 0.5281(8) 0.7213(5) 0.0696(3)
H41 H 0.4657 0.7437 0.0707
H42 H 0.5200 0.6873 0.0507
C37 C 0.6219(12) 0.7652(5) 0.0544(3)
H43 H 0.6136 0.7754 0.0252
H44 H 0.6842 0.7441 0.0581
H45 H 0.6223 0.8014 0.0710
C38 C 0.2548(6) 0.3125(3) 0.04788(19)
H46 H 0.3085 0.2830 0.0485
H47 H 0.2038 0.2973 0.0288
C39 C 0.2955(17) 0.3692(7) 0.0297(10)
H48 H 0.3535 0.3817 0.0459
H49 H 0.3172 0.3616 0.0011
C40 C 0.2215(8) 0.4177(5) 0.0297(3)
H50 H 0.2320 0.4431 0.0056
H51 H 0.2286 0.4412 0.0550
H52 H 0.1554 0.4007 0.0286
O2B O 0.80662(17) 0.47224(9) 0.31366(8)
O4B O 0.60656(18) 0.26027(11) 0.35569(7)
O5B O 0.72802(19) 0.35219(11) 0.38160(8)
O6B O 0.73317(18) 0.59666(10) 0.38355(7)
O7B O 0.6114(2) 0.68828(11) 0.35556(8)
C1B C 0.5769(2) 0.23150(14) 0.26911(11)
H1B H 0.6050 0.2034 0.2488
H2B H 0.5502 0.2088 0.2927
C2B C 0.6554(2) 0.27535(13) 0.28381(10)
C3B C 0.7166(2) 0.30650(14) 0.25380(11)
C4B C 0.7107(2) 0.29373(15) 0.21013(11)
H3B H 0.6664 0.2643 0.2006
C5B C 0.7696(3) 0.32415(18) 0.18163(12)
H4B H 0.7644 0.3153 0.1531
C6B C 0.8371(3) 0.36822(18) 0.19521(13)
H5B H 0.8769 0.3885 0.1758
C7B C 0.8445(3) 0.38159(16) 0.23715(12)
H6B H 0.8901 0.4109 0.2458
C8B C 0.7851(2) 0.35221(14) 0.26786(11)
C9B C 0.7905(2) 0.36691(14) 0.31177(11)
C10B C 0.7302(2) 0.33597(14) 0.33981(11)
C11B C 0.6634(2) 0.29019(14) 0.32593(11)
C12B C 0.8550(3) 0.41800(14) 0.32700(12)
H7B H 0.8608 0.4170 0.3575
H8B H 0.9216 0.4152 0.3149
C13B C 0.8550(3) 0.52551(14) 0.32906(13)
H9B H 0.9228 0.5282 0.3182
H10B H 0.8576 0.5252 0.3596
C14B C 0.7923(2) 0.57803(14) 0.31350(11)
C15B C 0.7860(2) 0.59037(14) 0.26928(11)
C16B C 0.8442(3) 0.55837(17) 0.23926(13)
H11B H 0.8904 0.5299 0.2486
C17B C 0.8342(3) 0.56839(18) 0.19678(13)
H12B H 0.8730 0.5468 0.1776
C18B C 0.7649(3) 0.61143(18) 0.18246(12)
H13B H 0.7574 0.6179 0.1537
C19B C 0.7082(2) 0.64408(15) 0.21026(11)
H14B H 0.6633 0.6727 0.2001
C20B C 0.7167(2) 0.63490(14) 0.25446(11)
C21B C 0.6568(2) 0.66764(13) 0.28382(10)
C22B C 0.6665(2) 0.65595(13) 0.32613(10)
C23B C 0.7338(2) 0.61047(14) 0.34109(11)
C24B C 0.5781(2) 0.71120(13) 0.26825(11)
H15B H 0.5520 0.7351 0.2914
H16B H 0.6062 0.7383 0.2474
C25B C 0.5196(3) 0.29413(18) 0.36983(14)
H17B H 0.4735 0.3005 0.3466
H18B H 0.5399 0.3332 0.3807
C26B C 0.4691(4) 0.2568(2) 0.40454(16)
H19B H 0.5182 0.2484 0.4263
H20B H 0.4163 0.2809 0.4172
C27B C 0.4251(4) 0.1983(3) 0.38987(16)
H21B H 0.4763 0.1755 0.3752
H22B H 0.3717 0.2067 0.3700
C28B C 0.3831(5) 0.1598(3) 0.4259(2)
H23B H 0.4357 0.1507 0.4456
H24B H 0.3565 0.1228 0.4147
H25B H 0.3308 0.1816 0.4401
C29B C 0.7895(3) 0.31570(18) 0.40920(12)
H26B H 0.8562 0.3330 0.4109
H27B H 0.7954 0.2753 0.3977
C30B C 0.8035(4) 0.6326(2) 0.40816(15)
H28B H 0.7878 0.6752 0.4054
H29B H 0.8713 0.6261 0.3981
C31B C 0.7952(4) 0.6139(2) 0.45285(14)
H30B H 0.8489 0.6323 0.4690
H31B H 0.8024 0.5704 0.4548
C32B C 0.6940(5) 0.6326(3) 0.4717(2)
H32B H 0.6877 0.6760 0.4685
H33B H 0.6417 0.6143 0.4547
C33B C 0.6739(7) 0.6179(4) 0.5152(2)
H34B H 0.7154 0.6423 0.5332
H35B H 0.6883 0.5760 0.5201
H36B H 0.6046 0.6257 0.5214
C34B C 0.5209(3) 0.6584(2) 0.36855(14)
H37B H 0.5378 0.6275 0.3890
H38B H 0.4915 0.6384 0.3443
C35B C 0.4422(7) 0.7008(5) 0.3880(3)
H39B H 0.4333 0.7356 0.3698
H40B H 0.3784 0.6798 0.3898
C36B C 0.4719(8) 0.7213(5) 0.4304(3)
H41B H 0.5343 0.7437 0.4293
H42B H 0.4800 0.6873 0.4493
C37B C 0.3781(12) 0.7652(5) 0.4456(3)
H43B H 0.3864 0.7754 0.4748
H44B H 0.3158 0.7441 0.4419
H45B H 0.3777 0.8014 0.4290
C38B C 0.7452(6) 0.3125(3) 0.45212(19)
H46B H 0.6915 0.2830 0.4515
H47B H 0.7962 0.2973 0.4712
C39B C 0.7045(17) 0.3692(7) 0.4703(10)
H48B H 0.6465 0.3817 0.4541
H49B H 0.6828 0.3616 0.4989
C40B C 0.7785(8) 0.4177(5) 0.4703(3)
H50B H 0.7680 0.4431 0.4944
H51B H 0.7714 0.4412 0.4450
H52B H 0.8446 0.4007 0.4714
Cl1 Cl 0.43606(18) 0.54151(8) 0.45603(6)
N1 N 0.5000 0.46138(17) 0.2500
C47 C 0.4512(5) 0.5057(2) 0.4079(2)
C48 C 0.3690(4) 0.4887(3) 0.3840(2)
H71 H 0.3045 0.4954 0.3941
C49 C 0.3822(3) 0.4626(2) 0.34607(19)
H72 H 0.3261 0.4520 0.3303
C50 C 0.4772(3) 0.45077(16) 0.32960(16)
C51 C 0.5602(3) 0.46717(17) 0.35452(15)
H73 H 0.6245 0.4594 0.3446
C52 C 0.5485(4) 0.4941(2) 0.39285(17)
H74 H 0.6042 0.5047 0.4088
C53 C 0.4905(3) 0.41987(16) 0.28828(15)
H75 H 0.4338 0.3932 0.2838
H76 H 0.5501 0.3949 0.2898
C54 C 0.4092(3) 0.50071(19) 0.24577(17)
H77 H 0.3515 0.4760 0.2404
H78 H 0.4186 0.5284 0.2228
H79 H 0.3993 0.5229 0.2714
Cl1B Cl 0.56394(18) 0.54151(8) 0.04397(6)
C47B C 0.5488(5) 0.5057(2) 0.0921(2)
C48B C 0.6310(4) 0.4887(3) 0.1160(2)
H71B H 0.6955 0.4954 0.1059
C49B C 0.6178(3) 0.4626(2) 0.15393(19)
H72B H 0.6739 0.4520 0.1697
C50B C 0.5228(3) 0.45077(16) 0.17040(16)
C51B C 0.4398(3) 0.46717(17) 0.14548(15)
H73B H 0.3755 0.4594 0.1554
C52B C 0.4515(4) 0.4941(2) 0.10715(17)
H74B H 0.3958 0.5047 0.0912
C53B C 0.5095(3) 0.41987(16) 0.21172(15)
H75B H 0.5662 0.3932 0.2162
H76B H 0.4499 0.3949 0.2102
C54B C 0.5908(3) 0.50071(19) 0.25423(17)
H77B H 0.6485 0.4760 0.2596
H78B H 0.5814 0.5284 0.2772
H79B H 0.6007 0.5229 0.2286
P1 P -0.06970(16) 0.45846(14) 0.07744(6)
F1 F -0.0742(5) 0.4777(3) 0.11877(19)
F2 F -0.0566(6) 0.4211(5) 0.03387(18)
F3 F -0.1701(4) 0.4182(3) 0.08752(19)
F4 F 0.0315(6) 0.4928(5) 0.0693(2)
F5 F -0.0102(5) 0.3991(4) 0.0984(3)
F6 F -0.1266(9) 0.5038(4) 0.0539(5)
H53? H 0.2462 0.2789 0.0838
H54? H 0.1494 0.3045 0.1054
H55? H 0.4653 0.6186 0.1200
H56? H 0.5262 0.6547 0.1546
C41? C 0.5173(12) 0.7002(8) 0.0984(5)
H57? H 0.5710 0.6804 0.0830
H58? H 0.4638 0.7086 0.0785
C42? C 0.5548(12) 0.7575(6) 0.1157(4)
H59? H 0.6028 0.7489 0.1379
H60? H 0.4993 0.7794 0.1282
C43? C 0.6051(17) 0.7976(8) 0.0822(5)
H61? H 0.6071 0.8386 0.0921
H62? H 0.5675 0.7957 0.0565
H63? H 0.6722 0.7836 0.0773
C44? C 0.1851(17) 0.3471(10) 0.0527(5)
H64? H 0.1449 0.3822 0.0596
H65? H 0.1451 0.3208 0.0350
C45? C 0.278(5) 0.3672(17) 0.029(3)
H66? H 0.2594 0.3922 0.0047
H67? H 0.3221 0.3904 0.0467
C46? C 0.332(2) 0.3104(11) 0.0133(8)
H68? H 0.3820 0.3212 -0.0070
H69? H 0.2840 0.2836 0.0005
H70? H 0.3628 0.2905 0.0368
loop_
_geom_bond_atom_site_label_1
_geom_bond_atom_site_label_2
_geom_bond_site_symmetry_1
_geom_bond_site_symmetry_2
O1 C1 1_555 1_555
O2 C12 1_555 1_555
O3 C24 1_555 1_555
O4 C11 1_555 1_555
O5 C10 1_555 1_555
O6 C23 1_555 1_555
O7 C22 1_555 1_555
C1 H1 1_555 1_555
H2 C1 1_555 1_555
C2 C1 1_555 1_555
C3 C2 1_555 1_555
C4 C3 1_555 1_555
H3 C4 1_555 1_555
C5 C4 1_555 1_555
H4 C5 1_555 1_555
C6 C5 1_555 1_555
H5 C6 1_555 1_555
C7 C6 1_555 1_555
H6 C7 1_555 1_555
C8 C3 1_555 1_555
C9 C8 1_555 1_555
C10 C9 1_555 1_555
C11 C2 1_555 1_555
C12 C9 1_555 1_555
H7 C12 1_555 1_555
H8 C12 1_555 1_555
C13 O2 1_555 1_555
H9 C13 1_555 1_555
H10 C13 1_555 1_555
C14 C13 1_555 1_555
C15 C14 1_555 1_555
C16 C15 1_555 1_555
H11 C16 1_555 1_555
C17 C16 1_555 1_555
H12 C17 1_555 1_555
C18 C17 1_555 1_555
H13 C18 1_555 1_555
C19 C18 1_555 1_555
H14 C19 1_555 1_555
C20 C15 1_555 1_555
C21 C20 1_555 1_555
C22 C21 1_555 1_555
C23 C14 1_555 1_555
C24 C21 1_555 1_555
H15 C24 1_555 1_555
H16 C24 1_555 1_555
C25 O4 1_555 1_555
H17 C25 1_555 1_555
H18 C25 1_555 1_555
C26 C25 1_555 1_555
H19 C26 1_555 1_555
H20 C26 1_555 1_555
C27 C26 1_555 1_555
H21 C27 1_555 1_555
H22 C27 1_555 1_555
C28 C27 1_555 1_555
H23 C28 1_555 1_555
H24 C28 1_555 1_555
H25 C28 1_555 1_555
C29 O5 1_555 1_555
H26 C29 1_555 1_555
H27 C29 1_555 1_555
C30 O6 1_555 1_555
H28 C30 1_555 1_555
H29 C30 1_555 1_555
C31 C30 1_555 1_555
H30 C31 1_555 1_555
H31 C31 1_555 1_555
C32 C31 1_555 1_555
H32 C32 1_555 1_555
H33 C32 1_555 1_555
C33 C32 1_555 1_555
H34 C33 1_555 1_555
H35 C33 1_555 1_555
H36 C33 1_555 1_555
C34 O7 1_555 1_555
H37 C34 1_555 1_555
H38 C34 1_555 1_555
C35 C34 1_555 1_555
H39 C35 1_555 1_555
H40 C35 1_555 1_555
C36 C35 1_555 1_555
H41 C36 1_555 1_555
H42 C36 1_555 1_555
C37 C36 1_555 1_555
H43 C37 1_555 1_555
H44 C37 1_555 1_555
H45 C37 1_555 1_555
C38 C29 1_555 1_555
H46 C38 1_555 1_555
H47 C38 1_555 1_555
C39 C38 1_555 1_555
H48 C39 1_555 1_555
H49 C39 1_555 1_555
C40 C39 1_555 1_555
H50 C40 1_555 1_555
H51 C40 1_555 1_555
H52 C40 1_555 1_555
Cl1 C47 1_555 1_555
N1 C53 1_555 1_555
C47 C48 1_555 1_555
C48 H71 1_555 1_555
C49 C48 1_555 1_555
H72 C49 1_555 1_555
C50 C49 1_555 1_555
C51 C50 1_555 1_555
H73 C51 1_555 1_555
C52 C47 1_555 1_555
H74 C52 1_555 1_555
C53 C50 1_555 1_555
H75 C53 1_555 1_555
H76 C53 1_555 1_555
C54 N1 1_555 1_555
H77 C54 1_555 1_555
H78 C54 1_555 1_555
H79 C54 1_555 1_555
P1 F1 1_555 1_555
F2 P1 1_555 1_555
F3 P1 1_555 1_555
F4 P1 1_555 1_555
F5 P1 1_555 1_555
F6 P1 1_555 1_555
O2B C12B 1_555 1_555
O4B C11B 1_555 1_555
O5B C10B 1_555 1_555
O6B C23B 1_555 1_555
O7B C22B 1_555 1_555
C1B O1 1_555 1_555
H1B C1B 1_555 1_555
H2B C1B 1_555 1_555
C2B C1B 1_555 1_555
C3B C2B 1_555 1_555
C4B C3B 1_555 1_555
H3B C4B 1_555 1_555
C5B C4B 1_555 1_555
H4B C5B 1_555 1_555
C6B C5B 1_555 1_555
H5B C6B 1_555 1_555
C7B C6B 1_555 1_555
H6B C7B 1_555 1_555
C8B C3B 1_555 1_555
C9B C8B 1_555 1_555
C10B C9B 1_555 1_555
C11B C2B 1_555 1_555
C12B C9B 1_555 1_555
H7B C12B 1_555 1_555
H8B C12B 1_555 1_555
C13B O2B 1_555 1_555
H9B C13B 1_555 1_555
H10B C13B 1_555 1_555
C14B C13B 1_555 1_555
C15B C14B 1_555 1_555
C16B C15B 1_555 1_555
H11B C16B 1_555 1_555
C17B C16B 1_555 1_555
H12B C17B 1_555 1_555
C18B C17B 1_555 1_555
H13B C18B 1_555 1_555
C19B C18B 1_555 1_555
H14B C19B 1_555 1_555
C20B C15B 1_555 1_555
C21B C20B 1_555 1_555
C22B C21B 1_555 1_555
C23B C14B 1_555 1_555
C24B O3 1_555 1_555
H15B C24B 1_555 1_555
H16B C24B 1_555 1_555
C25B O4B 1_555 1_555
H17B C25B 1_555 1_555
H18B C25B 1_555 1_555
C26B C25B 1_555 1_555
H19B C26B 1_555 1_555
H20B C26B 1_555 1_555
C27B C26B 1_555 1_555
H21B C27B 1_555 1_555
H22B C27B 1_555 1_555
C28B C27B 1_555 1_555
H23B C28B 1_555 1_555
H24B C28B 1_555 1_555
H25B C28B 1_555 1_555
C29B O5B 1_555 1_555
H26B C29B 1_555 1_555
H27B C29B 1_555 1_555
C30B O6B 1_555 1_555
H28B C30B 1_555 1_555
H29B C30B 1_555 1_555
C31B C30B 1_555 1_555
H30B C31B 1_555 1_555
H31B C31B 1_555 1_555
C32B C31B 1_555 1_555
H32B C32B 1_555 1_555
H33B C32B 1_555 1_555
C33B C32B 1_555 1_555
H34B C33B 1_555 1_555
H35B C33B 1_555 1_555
H36B C33B 1_555 1_555
C34B O7B 1_555 1_555
H37B C34B 1_555 1_555
H38B C34B 1_555 1_555
C35B C34B 1_555 1_555
H39B C35B 1_555 1_555
H40B C35B 1_555 1_555
C36B C35B 1_555 1_555
H41B C36B 1_555 1_555
H42B C36B 1_555 1_555
C37B C36B 1_555 1_555
H43B C37B 1_555 1_555
H44B C37B 1_555 1_555
H45B C37B 1_555 1_555
C38B C29B 1_555 1_555
H46B C38B 1_555 1_555
H47B C38B 1_555 1_555
C39B C38B 1_555 1_555
H48B C39B 1_555 1_555
H49B C39B 1_555 1_555
C40B C39B 1_555 1_555
H50B C40B 1_555 1_555
H51B C40B 1_555 1_555
H52B C40B 1_555 1_555
Cl1B C47B 1_555 1_555
C47B C48B 1_555 1_555
C48B H71B 1_555 1_555
C49B C48B 1_555 1_555
H72B C49B 1_555 1_555
C50B C49B 1_555 1_555
C51B C50B 1_555 1_555
H73B C51B 1_555 1_555
C52B C47B 1_555 1_555
H74B C52B 1_555 1_555
C53B N1 1_555 1_555
H75B C53B 1_555 1_555
H76B C53B 1_555 1_555
C54B N1 1_555 1_555
H77B C54B 1_555 1_555
H78B C54B 1_555 1_555
H79B C54B 1_555 1_555
C7 C8 1_555 1_555
C10 C11 1_555 1_555
C19 C20 1_555 1_555
C22 C23 1_555 1_555
C51 C52 1_555 1_555
C7B C8B 1_555 1_555
C10B C11B 1_555 1_555
C19B C20B 1_555 1_555
C21B C24B 1_555 1_555
C22B C23B 1_555 1_555
C50B C53B 1_555 1_555
C51B C52B 1_555 1_555

#END
