
#######################################################################
#
#                 Cambridge Crystallographic Data Centre
#                                CCDC 
#
#######################################################################
#
# If this CIF has been generated from an entry in the Cambridge 
# Structural Database, then it will include bibliographic, chemical, 
# crystal, experimental, refinement or atomic coordinate data resulting 
# from the CCDC's data processing and validation procedures.
#
#######################################################################

data_YILCEE
_chemical_formula_moiety         'C80 H104 O12,C16 H18 N3 O4 1+,F6 P1 1-'
_chemical_name_systematic        
'45,46,47,48,49,50,51,52-octabutoxy-3,14,25,36-tetraoxanonacyclo[36.6.2.2^5,12^.2^16,23^.2^27,34^.0^6,11^.0^17,22^.0^28,33^.0^39,44^]dopentaconta-1(44),5,7,9,11,16,18,20,22,27,29,31,33,38,40,42,45,47,49,51-icosaene bis(4-nitrobenzyl)dimethylammonium hexafluorophosphate'
_symmetry_cell_setting           triclinic
_symmetry_space_group_name_H-M   'P -1'
_symmetry_Int_Tables_number      2
_space_group_name_Hall           '-P 1'
loop_
_symmetry_equiv_pos_site_id
_symmetry_equiv_pos_as_xyz
1 x,y,z
2 -x,-y,-z
_cell_length_a                   12.6912(5)
_cell_length_b                   12.6941(4)
_cell_length_c                   32.8983(14)
_cell_angle_alpha                80.846(3)
_cell_angle_beta                 85.532(4)
_cell_angle_gamma                84.359(3)
_cell_volume                     5196.72
_exptl_crystal_colour            colorless
_exptl_crystal_description       needle
_cell_formula_units_Z            2
loop_
_atom_site_label
_atom_site_type_symbol
_atom_site_fract_x
_atom_site_fract_y
_atom_site_fract_z
C1 C 1.1507(3) 0.5210(3) 0.27298(15)
C2 C 1.1353(3) 0.4867(3) 0.31410(15)
C3 C 1.1258(3) 0.3757(3) 0.32974(14)
C4 C 1.1360(3) 0.3014(3) 0.30349(14)
C5 C 1.1543(3) 0.3336(3) 0.26056(14)
C6 C 1.1611(3) 0.4448(3) 0.24460(14)
C7 C 1.1761(3) 0.4750(3) 0.20170(16)
H1 H 1.179807 0.547032 0.191088
C8 C 1.1855(3) 0.4013(4) 0.17502(16)
H2 H 1.195568 0.423277 0.146752
C9 C 1.1798(3) 0.2918(4) 0.19096(15)
H3 H 1.186592 0.241492 0.173027
C10 C 1.1646(3) 0.2593(3) 0.23203(14)
H4 H 1.160797 0.186793 0.241826
C11 C 1.1190(3) 0.1864(3) 0.32043(13)
H5 H 1.171436 0.138311 0.307996
H6 H 1.124286 0.173188 0.350093
C12 C 0.9876(3) 0.0638(3) 0.32420(14)
H7 H 0.987246 0.047455 0.354028
H8 H 1.038058 0.012771 0.312372
C13 C 0.8781(3) 0.0596(3) 0.30986(13)
C14 C 0.7913(3) 0.0622(3) 0.33760(13)
C15 C 0.6868(3) 0.0689(3) 0.32361(14)
C16 C 0.6702(3) 0.0718(3) 0.28321(14)
C17 C 0.7583(3) 0.0685(3) 0.25352(13)
C18 C 0.8634(3) 0.0622(3) 0.26713(14)
C19 C 0.9498(4) 0.0617(3) 0.23723(15)
H9 H 1.018534 0.056877 0.245696
C20 C 0.9348(4) 0.0680(4) 0.19674(17)
H10 H 0.993068 0.067646 0.177749
C21 C 0.8310(4) 0.0750(3) 0.18292(16)
H11 H 0.821010 0.080539 0.154927
C22 C 0.7456(4) 0.0737(3) 0.21091(15)
H12 H 0.677725 0.076354 0.201749
C23 C 0.5583(3) 0.0881(3) 0.26907(15)
H13 H 0.549456 0.041333 0.249210
H14 H 0.507092 0.073668 0.292288
C24 C 0.4413(3) 0.2278(3) 0.23534(15)
H15 H 0.386823 0.214383 0.257423
H16 H 0.429994 0.187213 0.213677
C25 C 0.4393(3) 0.3457(3) 0.21882(15)
C26 C 0.4533(3) 0.3805(3) 0.17773(14)
C27 C 0.4636(3) 0.4905(3) 0.16208(14)
C28 C 0.4546(3) 0.5653(3) 0.18844(15)
C29 C 0.4366(3) 0.5316(3) 0.23165(14)
C30 C 0.4295(3) 0.4215(3) 0.24726(14)
C31 C 0.4163(3) 0.3901(3) 0.29049(16)
H17 H 0.413011 0.317942 0.301048
C32 C 0.4082(3) 0.4638(4) 0.31710(16)
H18 H 0.398302 0.441813 0.345378
C33 C 0.4148(3) 0.5726(4) 0.30141(17)
H19 H 0.410248 0.622595 0.319430
C34 C 0.4279(3) 0.6052(3) 0.26044(16)
H20 H 0.431248 0.677751 0.250717
C35 C 0.4719(3) 0.6795(3) 0.17152(15)
H21 H 0.466281 0.692612 0.141870
H22 H 0.419545 0.727759 0.183944
C36 C 0.6039(3) 0.8034(3) 0.16773(15)
H23 H 0.554285 0.854241 0.180063
H24 H 0.603214 0.820772 0.137942
C37 C 0.7138(3) 0.8059(3) 0.18155(14)
C38 C 0.7990(3) 0.8055(3) 0.15283(14)
C39 C 0.9054(3) 0.7981(3) 0.16551(16)
C40 C 0.9251(3) 0.7927(3) 0.20600(15)
C41 C 0.8384(3) 0.7977(3) 0.23608(15)
C42 C 0.7316(3) 0.8013(3) 0.22367(15)
C43 C 0.6469(3) 0.8015(3) 0.25461(16)
H25 H 0.577536 0.804167 0.247000
C44 C 0.6647(4) 0.7980(3) 0.29466(16)
H26 H 0.607772 0.798218 0.314263
C45 C 0.7698(4) 0.7941(3) 0.30710(16)
H27 H 0.782053 0.791484 0.334760
C46 C 0.8528(4) 0.7942(3) 0.27801(15)
H28 H 0.921441 0.791987 0.286400
C47 C 1.0369(3) 0.7752(3) 0.21941(16)
H29 H 1.087481 0.785831 0.195779
H30 H 1.048205 0.824309 0.238127
C48 C 1.1500(3) 0.6386(3) 0.25669(17)
H31 H 1.158119 0.679193 0.278680
H32 H 1.206744 0.652088 0.235539
C49 C 1.0236(4) 0.5967(4) 0.35435(17)
H33 H 0.983054 0.537669 0.366893
H34 H 0.988152 0.634068 0.330441
C50 C 1.0312(5) 0.6722(4) 0.38490(19)
H35 H 1.066933 0.633622 0.408562
H36 H 0.960221 0.696766 0.394490
C51 C 1.0905(6) 0.7682(5) 0.3668(2)
H37 H 1.049572 0.811627 0.345569
H38 H 1.157525 0.743271 0.353759
C52 C 1.1128(6) 0.8386(5) 0.3985(2)
H39 H 1.148206 0.899006 0.384761
H40 H 1.157005 0.797499 0.418779
H41 H 1.046977 0.863176 0.411819
C53 C 1.1759(4) 0.3413(5) 0.39955(17)
H42 H 1.201276 0.411305 0.398729
H43 H 1.235373 0.291693 0.392824
C54 C 1.1253(5) 0.3030(6) 0.44197(19)
H44 H 1.098591 0.234099 0.441762
H45 H 1.179394 0.292658 0.461866
C55 C 1.0368(6) 0.3782(6) 0.4556(2)
H46 H 0.986223 0.394910 0.434388
H47 H 1.064801 0.444442 0.459043
C56 C 0.9809(8) 0.3325(10) 0.4953(2)
H48 H 0.964567 0.261107 0.493768
H49 H 0.916476 0.376365 0.500079
H50 H 1.025962 0.330866 0.517598
C57 C 0.7925(4) -0.0370(5) 0.40467(16)
H51 H 0.848490 -0.089489 0.397178
H52 H 0.724814 -0.062708 0.401108
C58 C 0.7989(8) -0.0228(7) 0.4480(2)
H53 H 0.736050 0.021240 0.455844
H54 H 0.796246 -0.092452 0.464990
C59 C 0.8914(9) 0.0251(9) 0.4584(4)
H55 H 0.899555 0.092521 0.440405
H56 H 0.954924 -0.022333 0.454630
C60 C 0.8764(15) 0.0449(13) 0.5047(4)
H57 H 0.936507 0.077652 0.511426
H58 H 0.870559 -0.022317 0.522464
H59 H 0.813128 0.091239 0.508368
C61 C 0.5771(5) 0.1782(6) 0.3631(2)
H60 H 0.566126 0.229097 0.338151
H61 H 0.634882 0.199374 0.376774
C62 C 0.4781(7) 0.1777(9) 0.3910(3)
H62 H 0.451291 0.250753 0.393446
H63 H 0.424346 0.144698 0.379185
C63 C 0.4995(16) 0.1179(17) 0.4323(5)
H64 H 0.567742 0.134502 0.439782
H65 H 0.503999 0.041763 0.431033
C64 C 0.417(2) 0.143(2) 0.4650(7)
H66 H 0.450677 0.146637 0.489811
H67 H 0.369256 0.087445 0.470231
H68 H 0.378466 0.210230 0.455984
C65 C 0.5627(4) 0.2743(4) 0.13552(19)
H69 H 0.602079 0.238599 0.158688
H70 H 0.600032 0.334804 0.122011
C66 C 0.5532(6) 0.1980(5) 0.1057(3)
H71 H 0.513228 0.235631 0.083003
H72 H 0.623725 0.177294 0.094457
C67 C 0.5017(7) 0.0996(5) 0.1231(3)
H73 H 0.434772 0.119191 0.137492
H74 H 0.546560 0.056018 0.142986
C68 C 0.4811(7) 0.0333(6) 0.0897(3)
H75 H 0.428874 0.072295 0.072156
H76 H 0.455662 -0.033517 0.102591
H77 H 0.545871 0.019769 0.073542
C69 C 0.4014(4) 0.5273(4) 0.09459(17)
H78 H 0.345684 0.579566 0.102463
H79 H 0.372419 0.458514 0.097170
C70 C 0.4433(5) 0.5608(6) 0.0514(2)
H80 H 0.492755 0.502091 0.044465
H81 H 0.383945 0.563933 0.034233
C71 C 0.4963(12) 0.6592(10) 0.0370(6)
H82 H 0.526457 0.659375 0.009005
H83 H 0.552851 0.664340 0.054640
C72 C 0.4125(12) 0.7515(11) 0.0389(5)
H84 H 0.357795 0.746119 0.020947
H85 H 0.443985 0.817865 0.030285
H86 H 0.382324 0.749412 0.066678
C73 C 0.7942(5) 0.9080(5) 0.08685(18)
H87 H 0.866432 0.927508 0.086127
H88 H 0.746980 0.962835 0.097865
C74 C 0.7660(8) 0.8982(6) 0.0445(2)
H89 H 0.695233 0.874574 0.045605
H90 H 0.815473 0.845590 0.033118
C75 C 0.7702(11) 1.0094(10) 0.0167(4)
H91 H 0.739836 1.064402 0.032539
H92 H 0.843962 1.022032 0.009395
C76 C 0.714(2) 1.021(2) -0.0220(7)
H93 H 0.640999 1.006355 -0.015331
H94 H 0.747122 0.971366 -0.039224
H95 H 0.716271 1.092763 -0.036417
C77 C 1.0112(4) 0.6917(4) 0.12255(18)
H96 H 0.948901 0.670039 0.111888
H97 H 1.031758 0.638854 0.145891
C78 C 1.0999(6) 0.6988(6) 0.0897(2)
H98 H 1.165316 0.703748 0.102478
H99 H 1.086576 0.764288 0.070518
C79 C 1.1152(9) 0.6059(12) 0.0659(4)
H100 H 1.177678 0.615508 0.047236
H101 H 1.130752 0.541353 0.085401
C80 C 1.0263(11) 0.5863(14) 0.0411(4)
H102 H 0.961537 0.584035 0.058273
H103 H 1.042373 0.519309 0.031007
H104 H 1.018207 0.643174 0.018263
O1 O 1.0149(2) 0.1711(2) 0.31023(9)
O2 O 0.5451(2) 0.1987(2) 0.25044(10)
O3 O 0.5764(2) 0.6958(2) 0.18144(10)
O4 O 1.0479(2) 0.6668(2) 0.23974(11)
O5 O 1.1298(3) 0.5568(2) 0.34212(12)
O6 O 1.0950(2) 0.3468(2) 0.37075(10)
O7 O 0.8036(2) 0.0650(3) 0.37850(10)
O8 O 0.6031(2) 0.0730(3) 0.35291(11)
O9 O 0.4581(2) 0.3101(2) 0.14949(11)
O10 O 0.4892(2) 0.5200(2) 0.12071(10)
O11 O 0.7841(2) 0.8055(2) 0.11227(10)
O12 O 0.9874(2) 0.7965(3) 0.13549(11)
C90 C 0.6911(3) 0.4736(4) 0.24087(15)
H138 H 0.652419 0.444488 0.265695
H139 H 0.669254 0.444501 0.217978
H140 H 0.676898 0.550142 0.236202
C91 C 0.8279(4) 0.3253(3) 0.25233(15)
H141 H 0.901571 0.306009 0.256936
H142 H 0.810127 0.297060 0.228590
H143 H 0.785254 0.296130 0.276069
C92 C 0.8444(3) 0.4929(3) 0.28029(15)
H144 H 0.920567 0.476577 0.281222
H145 H 0.830846 0.570216 0.274468
C93 C 0.7929(3) 0.4543(3) 0.32235(14)
C94 C 0.7006(4) 0.5096(4) 0.33742(17)
H146 H 0.668970 0.568590 0.320813
C95 C 0.6564(5) 0.4780(5) 0.37608(18)
H147 H 0.594613 0.514237 0.385755
C96 C 0.7058(5) 0.3907(5) 0.40075(17)
C97 C 0.7972(5) 0.3352(4) 0.38687(17)
H148 H 0.829206 0.277011 0.403763
C98 C 0.8396(4) 0.3671(4) 0.34799(16)
H149 H 0.900948 0.329902 0.338424
C99 C 0.8711(3) 0.4942(4) 0.20670(15)
H150 H 0.858351 0.571542 0.203838
H151 H 0.945979 0.475950 0.210806
C100 C 0.8469(3) 0.4595(3) 0.16727(15)
C101 C 0.7712(4) 0.5191(4) 0.14275(16)
H152 H 0.733651 0.579378 0.151209
C102 C 0.7519(4) 0.4885(5) 0.10579(17)
H153 H 0.701740 0.528299 0.089102
C103 C 0.8076(4) 0.3985(5) 0.09380(17)
C104 C 0.8830(5) 0.3385(5) 0.11728(18)
H154 H 0.919379 0.277573 0.108864
C105 C 0.9037(4) 0.3710(4) 0.15390(16)
H155 H 0.956416 0.332870 0.169763
N1 N 0.8073(2) 0.4452(2) 0.24512(11)
N2 N 0.6600(6) 0.3569(6) 0.44254(19)
N3 N 0.7843(5) 0.3634(7) 0.0551(2)
O13 O 0.5733(6) 0.3999(7) 0.4522(2)
O14 O 0.7094(6) 0.2892(6) 0.46496(17)
O15 O 0.8241(7) 0.2789(6) 0.0471(2)
O16 O 0.7266(6) 0.4237(7) 0.0326(2)
F1 F 0.3113(2) 1.0230(2) 0.27341(11)
F2 F 0.2813(2) 0.8431(2) 0.21877(12)
F3 F 0.3773(4) 0.8540(3) 0.27247(16)
F4 F 0.2144(3) 1.0120(3) 0.21899(16)
F5 F 0.3912(3) 0.9724(3) 0.21528(15)
F6 F 0.2003(3) 0.8966(3) 0.27579(16)
P1 P 0.29649(8) 0.93275(8) 0.24612(5)
H105? H 0.812748 -0.094383 0.463062
H106? H 0.863023 0.012744 0.448499
C81? C 0.719(3) 0.031(3) 0.4737(11)
H107? H 0.657222 -0.008567 0.480148
H108? H 0.698338 0.103236 0.460561
C82? C 0.786(3) 0.032(3) 0.5159(9)
H109? H 0.831921 0.088518 0.510807
H110? H 0.826680 -0.035595 0.522407
H111? H 0.735873 0.042962 0.538696
H112? H 0.445057 0.250465 0.387734
H113? H 0.499941 0.160840 0.419055
C83? C 0.3918(16) 0.1047(17) 0.3873(7)
H114? H 0.423387 0.041256 0.376465
H115? H 0.341145 0.141862 0.368151
C84? C 0.333(3) 0.071(3) 0.4307(10)
H116? H 0.382261 0.063490 0.451824
H117? H 0.303663 0.003654 0.431080
H118? H 0.276707 0.124612 0.435574
H119? H 0.390234 0.557292 0.032076
H120? H 0.506031 0.515112 0.044708
C85? C 0.4706(17) 0.6770(11) 0.0498(5)
H121? H 0.409925 0.719175 0.060563
H122? H 0.529239 0.678123 0.066945
C86? C 0.501(2) 0.726(2) 0.0052(6)
H123? H 0.441750 0.727733 -0.011419
H124? H 0.560163 0.683341 -0.005534
H125? H 0.520048 0.797583 0.004656
H126? H 0.730770 1.010637 -0.007536
H127? H 0.737322 1.065034 0.031751
C87? C 0.8868(19) 1.032(3) 0.0030(11)
H128? H 0.887779 1.090523 -0.019320
H129? H 0.924240 0.969206 -0.005803
H130? H 0.920521 1.049875 0.025854
H131? H 1.159199 0.722891 0.101620
H132? H 1.121228 0.626239 0.084764
C88? C 1.089(2) 0.7640(19) 0.0497(5)
H133? H 1.062775 0.837095 0.052387
H134? H 1.156209 0.764494 0.033445
C89? C 1.013(3) 0.712(3) 0.0313(10)
H135? H 0.979394 0.762390 0.010374
H136? H 0.961039 0.685799 0.052147
H137? H 1.049166 0.653290 0.019216
loop_
_geom_bond_atom_site_label_1
_geom_bond_atom_site_label_2
_geom_bond_site_symmetry_1
_geom_bond_site_symmetry_2
C1 C2 1_555 1_555
C2 C3 1_555 1_555
C3 C4 1_555 1_555
C4 C5 1_555 1_555
C5 C6 1_555 1_555
C6 C1 1_555 1_555
C7 C6 1_555 1_555
H1 C7 1_555 1_555
C8 C7 1_555 1_555
H2 C8 1_555 1_555
C9 C8 1_555 1_555
H3 C9 1_555 1_555
C10 C5 1_555 1_555
H4 C10 1_555 1_555
C11 C4 1_555 1_555
H5 C11 1_555 1_555
H6 C11 1_555 1_555
C12 H7 1_555 1_555
H8 C12 1_555 1_555
C13 C12 1_555 1_555
C14 C13 1_555 1_555
C15 C14 1_555 1_555
C16 C15 1_555 1_555
C17 C16 1_555 1_555
C18 C13 1_555 1_555
C19 C18 1_555 1_555
H9 C19 1_555 1_555
C20 C19 1_555 1_555
H10 C20 1_555 1_555
C21 C20 1_555 1_555
H11 C21 1_555 1_555
C22 C17 1_555 1_555
H12 C22 1_555 1_555
C23 C16 1_555 1_555
H13 C23 1_555 1_555
H14 C23 1_555 1_555
C24 H15 1_555 1_555
H16 C24 1_555 1_555
C25 C24 1_555 1_555
C26 C25 1_555 1_555
C27 C26 1_555 1_555
C28 C27 1_555 1_555
C29 C28 1_555 1_555
C30 C25 1_555 1_555
C31 C30 1_555 1_555
H17 C31 1_555 1_555
C32 C31 1_555 1_555
H18 C32 1_555 1_555
C33 C32 1_555 1_555
H19 C33 1_555 1_555
C34 C29 1_555 1_555
H20 C34 1_555 1_555
C35 C28 1_555 1_555
H21 C35 1_555 1_555
H22 C35 1_555 1_555
C36 H23 1_555 1_555
H24 C36 1_555 1_555
C37 C36 1_555 1_555
C38 C37 1_555 1_555
C39 C38 1_555 1_555
C40 C39 1_555 1_555
C41 C40 1_555 1_555
C42 C37 1_555 1_555
C43 C42 1_555 1_555
H25 C43 1_555 1_555
C44 C43 1_555 1_555
H26 C44 1_555 1_555
C45 C44 1_555 1_555
H27 C45 1_555 1_555
C46 C41 1_555 1_555
H28 C46 1_555 1_555
C47 C40 1_555 1_555
H29 C47 1_555 1_555
H30 C47 1_555 1_555
C48 C1 1_555 1_555
H31 C48 1_555 1_555
H32 C48 1_555 1_555
C49 H33 1_555 1_555
H34 C49 1_555 1_555
C50 C49 1_555 1_555
H35 C50 1_555 1_555
H36 C50 1_555 1_555
C51 C50 1_555 1_555
H37 C51 1_555 1_555
H38 C51 1_555 1_555
C52 C51 1_555 1_555
H39 C52 1_555 1_555
H40 C52 1_555 1_555
H41 C52 1_555 1_555
C53 H42 1_555 1_555
H43 C53 1_555 1_555
C54 C53 1_555 1_555
H44 C54 1_555 1_555
H45 C54 1_555 1_555
C55 C54 1_555 1_555
H46 C55 1_555 1_555
H47 C55 1_555 1_555
C56 C55 1_555 1_555
H48 C56 1_555 1_555
H49 C56 1_555 1_555
H50 C56 1_555 1_555
C57 H51 1_555 1_555
H52 C57 1_555 1_555
C58 C57 1_555 1_555
H53 C58 1_555 1_555
H54 C58 1_555 1_555
C59 C58 1_555 1_555
H55 C59 1_555 1_555
H56 C59 1_555 1_555
C60 C59 1_555 1_555
H57 C60 1_555 1_555
H58 C60 1_555 1_555
H59 C60 1_555 1_555
C61 H60 1_555 1_555
H61 C61 1_555 1_555
C62 C61 1_555 1_555
H62 C62 1_555 1_555
H63 C62 1_555 1_555
C63 C62 1_555 1_555
H64 C63 1_555 1_555
H65 C63 1_555 1_555
C64 C63 1_555 1_555
H66 C64 1_555 1_555
H67 C64 1_555 1_555
H68 C64 1_555 1_555
C65 H69 1_555 1_555
H70 C65 1_555 1_555
C66 C65 1_555 1_555
H71 C66 1_555 1_555
H72 C66 1_555 1_555
C67 C66 1_555 1_555
H73 C67 1_555 1_555
H74 C67 1_555 1_555
C68 C67 1_555 1_555
H75 C68 1_555 1_555
H76 C68 1_555 1_555
H77 C68 1_555 1_555
C69 H78 1_555 1_555
H79 C69 1_555 1_555
C70 C69 1_555 1_555
H80 C70 1_555 1_555
H81 C70 1_555 1_555
C71 C70 1_555 1_555
H82 C71 1_555 1_555
H83 C71 1_555 1_555
C72 C71 1_555 1_555
H84 C72 1_555 1_555
H85 C72 1_555 1_555
H86 C72 1_555 1_555
C73 H87 1_555 1_555
H88 C73 1_555 1_555
C74 C73 1_555 1_555
H89 C74 1_555 1_555
H90 C74 1_555 1_555
C75 C74 1_555 1_555
H91 C75 1_555 1_555
H92 C75 1_555 1_555
C76 C75 1_555 1_555
H93 C76 1_555 1_555
H94 C76 1_555 1_555
H95 C76 1_555 1_555
C77 H96 1_555 1_555
H97 C77 1_555 1_555
C78 C77 1_555 1_555
H98 C78 1_555 1_555
H99 C78 1_555 1_555
C79 C78 1_555 1_555
H100 C79 1_555 1_555
H101 C79 1_555 1_555
C80 C79 1_555 1_555
H102 C80 1_555 1_555
H103 C80 1_555 1_555
H104 C80 1_555 1_555
O1 C11 1_555 1_555
O2 C23 1_555 1_555
O3 C35 1_555 1_555
O4 C47 1_555 1_555
O5 C2 1_555 1_555
O6 C3 1_555 1_555
O7 C14 1_555 1_555
O8 C15 1_555 1_555
O9 C26 1_555 1_555
O10 C27 1_555 1_555
O11 C38 1_555 1_555
O12 C39 1_555 1_555
C90 H138 1_555 1_555
H139 C90 1_555 1_555
H140 C90 1_555 1_555
C91 H141 1_555 1_555
H142 C91 1_555 1_555
H143 C91 1_555 1_555
C92 H144 1_555 1_555
H145 C92 1_555 1_555
C93 C92 1_555 1_555
C94 C93 1_555 1_555
H146 C94 1_555 1_555
C95 C94 1_555 1_555
H147 C95 1_555 1_555
C96 C95 1_555 1_555
C97 C96 1_555 1_555
H148 C97 1_555 1_555
C98 C93 1_555 1_555
H149 C98 1_555 1_555
C99 H150 1_555 1_555
H151 C99 1_555 1_555
C100 C99 1_555 1_555
C101 C100 1_555 1_555
H152 C101 1_555 1_555
C102 C101 1_555 1_555
H153 C102 1_555 1_555
C103 C102 1_555 1_555
C104 C103 1_555 1_555
H154 C104 1_555 1_555
C105 C100 1_555 1_555
H155 C105 1_555 1_555
N1 C90 1_555 1_555
N2 C96 1_555 1_555
N3 C103 1_555 1_555
O13 N2 1_555 1_555
O14 N2 1_555 1_555
O15 N3 1_555 1_555
O16 N3 1_555 1_555
F1 P1 1_555 1_555
F2 P1 1_555 1_555
F3 P1 1_555 1_555
F4 P1 1_555 1_555
F5 P1 1_555 1_555
F6 P1 1_555 1_555
C9 C10 1_555 1_555
C12 O1 1_555 1_555
C17 C18 1_555 1_555
C21 C22 1_555 1_555
C24 O2 1_555 1_555
C29 C30 1_555 1_555
C33 C34 1_555 1_555
C36 O3 1_555 1_555
C41 C42 1_555 1_555
C45 C46 1_555 1_555
C48 O4 1_555 1_555
C49 O5 1_555 1_555
C53 O6 1_555 1_555
C57 O7 1_555 1_555
C61 O8 1_555 1_555
C65 O9 1_555 1_555
C69 O10 1_555 1_555
C73 O11 1_555 1_555
C77 O12 1_555 1_555
C91 N1 1_555 1_555
C92 N1 1_555 1_555
C97 C98 1_555 1_555
C99 N1 1_555 1_555
C104 C105 1_555 1_555

#END
