
#######################################################################
#
#                 Cambridge Crystallographic Data Centre
#                                CCDC 
#
#######################################################################
#
# If this CIF has been generated from an entry in the Cambridge 
# Structural Database, then it will include bibliographic, chemical, 
# crystal, experimental, refinement or atomic coordinate data resulting 
# from the CCDC's data processing and validation procedures.
#
#######################################################################

data_YILDOM
_chemical_formula_moiety         'C16 H11 N3 O2 S1'
_chemical_name_systematic        3-Benzoylformamido-4-phenyl-1,2,5-thiadiazole
_symmetry_cell_setting           monoclinic
_symmetry_space_group_name_H-M   'P 21/c'
_symmetry_Int_Tables_number      14
_space_group_name_Hall           '-P 2ybc'
loop_
_symmetry_equiv_pos_site_id
_symmetry_equiv_pos_as_xyz
1 x,y,z
2 -x,1/2+y,1/2-z
3 -x,-y,-z
4 x,1/2-y,1/2+z
_cell_length_a                   4.827(1)
_cell_length_b                   19.465(2)
_cell_length_c                   15.476(2)
_cell_angle_alpha                90
_cell_angle_beta                 93.42(2)
_cell_angle_gamma                90
_cell_volume                     1451.5
_exptl_crystal_colour            colorless
_chemical_melting_point          137-138.5deg.C
_cell_formula_units_Z            4
loop_
_atom_site_label
_atom_site_type_symbol
_atom_site_fract_x
_atom_site_fract_y
_atom_site_fract_z
S1 S 0.9911(7) 0.1222(2) 0.1473(2)
O1 O 0.278(1) 0.1090(4) -0.0925(4)
O2 O 0.588(1) -0.0191(4) -0.2032(5)
N1 N 0.840(2) 0.1892(4) 0.1015(5)
N2 N 0.923(2) 0.0665(4) 0.0721(5)
N3 N 0.710(2) 0.0620(4) -0.0689(5)
C1 C 0.132(2) -0.0020(6) -0.3250(7)
C2 C -0.069(2) 0.0137(7) -0.3904(7)
C3 C -0.162(2) 0.0802(7) -0.3989(7)
C4 C -0.060(2) 0.1321(6) -0.3453(8)
C5 C 0.132(2) 0.1192(6) -0.2764(7)
C6 C 0.228(2) 0.0500(6) -0.2661(6)
C7 C 0.440(2) 0.0311(5) -0.1977(7)
C8 C 0.465(2) 0.0717(5) -0.1145(7)
C9 C 0.784(2) 0.0984(5) 0.0071(6)
C10 C 0.739(2) 0.1716(5) 0.0241(6)
C11 C 0.617(2) 0.2230(5) -0.0355(7)
C12 C 0.705(2) 0.2274(6) -0.1206(7)
C13 C 0.594(3) 0.2806(7) -0.1757(8)
C14 C 0.406(2) 0.3268(7) -0.1458(7)
C15 C 0.320(2) 0.3225(6) -0.0602(9)
C16 C 0.427(2) 0.2706(5) -0.0019(8)
loop_
_geom_bond_atom_site_label_1
_geom_bond_atom_site_label_2
_geom_bond_site_symmetry_1
_geom_bond_site_symmetry_2
S1 N1 1_555 1_555
O1 C8 1_555 1_555
O2 C7 1_555 1_555
N1 C10 1_555 1_555
N2 S1 1_555 1_555
N3 C8 1_555 1_555
C1 C2 1_555 1_555
C2 C3 1_555 1_555
C3 C4 1_555 1_555
C4 C5 1_555 1_555
C5 C6 1_555 1_555
C6 C1 1_555 1_555
C7 C6 1_555 1_555
C8 C7 1_555 1_555
C9 N2 1_555 1_555
C10 C9 1_555 1_555
C11 C10 1_555 1_555
C12 C11 1_555 1_555
C13 C12 1_555 1_555
C14 C13 1_555 1_555
C15 C14 1_555 1_555
C16 C11 1_555 1_555
N3 C9 1_555 1_555
C15 C16 1_555 1_555

#END
