
#######################################################################
#
#                 Cambridge Crystallographic Data Centre
#                                CCDC 
#
#######################################################################
#
# If this CIF has been generated from an entry in the Cambridge 
# Structural Database, then it will include bibliographic, chemical, 
# crystal, experimental, refinement or atomic coordinate data resulting 
# from the CCDC's data processing and validation procedures.
#
#######################################################################

data_YILDAB
_chemical_formula_moiety         'C80 H104 O12,C16 H18 I2 N1 1+,F6 P1 1-'
_chemical_name_systematic        
'45,46,47,48,49,50,51,52-octabutoxy-3,14,25,36-tetraoxanonacyclo[36.6.2.2^5,12^.2^16,23^.2^27,34^.0^6,11^.0^17,22^.0^28,33^.0^39,44^]dopentaconta-1(44),5,7,9,11,16,18,20,22,27,29,31,33,38,40,42,45,47,49,51-icosaene bis(4-iodobenzyl)dimethylammonium hexafluorophosphate'
_symmetry_cell_setting           monoclinic
_symmetry_space_group_name_H-M   'C 2/c'
_symmetry_Int_Tables_number      15
_space_group_name_Hall           '-C 2yn'
loop_
_symmetry_equiv_pos_site_id
_symmetry_equiv_pos_as_xyz
1 x,y,z
2 -x,y,1/2-z
3 1/2+x,1/2+y,z
4 1/2-x,1/2+y,1/2-z
5 -x,-y,-z
6 x,-y,1/2+z
7 1/2-x,1/2-y,-z
8 1/2+x,1/2-y,1/2+z
_cell_length_a                   18.9755(4)
_cell_length_b                   17.0235(4)
_cell_length_c                   56.3421(12)
_cell_angle_alpha                90
_cell_angle_beta                 90.795(2)
_cell_angle_gamma                90
_cell_volume                     18198.4
_exptl_crystal_colour            colorless
_exptl_crystal_description       plate
_cell_formula_units_Z            8
loop_
_atom_site_label
_atom_site_type_symbol
_atom_site_fract_x
_atom_site_fract_y
_atom_site_fract_z
O1 O 0.4818(3) 0.7005(5) 0.37587(16)
O2 O 0.2399(3) 0.9376(4) 0.34083(13)
O3 O 0.0015(3) 0.7014(5) 0.37729(15)
O4 O 0.2436(3) 0.4686(4) 0.41367(13)
O5 O 0.4911(6) 0.7891(6) 0.31797(18)
O6 O 0.3813(5) 0.8841(7) 0.30281(16)
O7 O 0.1013(4) 0.8776(5) 0.30309(15)
O8 O -0.0084(5) 0.7823(6) 0.31670(17)
O9 O -0.0087(4) 0.6158(5) 0.43774(14)
O10 O 0.1018(4) 0.5250(4) 0.45250(13)
O11 O 0.3885(4) 0.5292(5) 0.44940(13)
O12 O 0.5019(4) 0.6115(5) 0.43323(16)
C1 C 0.5230(5) 0.7638(7) 0.3666(2)
H1 H 0.551862 0.745529 0.353182
H2 H 0.554757 0.785539 0.379059
C2 C 0.4701(5) 0.8255(6) 0.3583(2)
C3 C 0.4533(6) 0.8320(8) 0.3350(2)
C4 C 0.4003(6) 0.8817(7) 0.3266(2)
C5 C 0.3631(5) 0.9292(7) 0.3424(2)
C6 C 0.3804(5) 0.9266(7) 0.3668(2)
C7 C 0.3446(6) 0.9717(7) 0.3842(2)
H3 H 0.307518 1.005521 0.379063
C8 C 0.3613(6) 0.9685(7) 0.4079(2)
H4 H 0.338895 1.002136 0.418952
C9 C 0.4134(6) 0.9131(7) 0.4156(2)
H5 H 0.423490 0.907213 0.432054
C10 C 0.4488(5) 0.8688(7) 0.3996(2)
H6 H 0.484696 0.834253 0.405200
C11 C 0.4345(6) 0.8722(7) 0.3754(2)
C12 C 0.3022(5) 0.9772(7) 0.3338(2)
H7 H 0.304140 1.030462 0.340815
H8 H 0.303260 0.982269 0.316274
C13 C 0.1772(5) 0.9767(7) 0.3339(2)
H9 H 0.175111 0.983090 0.316425
H10 H 0.175068 1.029375 0.341304
C14 C 0.1173(5) 0.9268(7) 0.3421(2)
C15 C 0.0812(6) 0.8788(7) 0.3265(2)
C16 C 0.0272(6) 0.8287(7) 0.3341(2)
C17 C 0.0101(6) 0.8227(7) 0.3579(2)
C18 C 0.0458(5) 0.8713(7) 0.3746(2)
C19 C 0.0317(6) 0.8669(8) 0.3994(2)
H11 H -0.002559 0.830641 0.404853
C20 C 0.0660(6) 0.9132(8) 0.4152(2)
H12 H 0.054645 0.909757 0.431567
C21 C 0.1193(7) 0.9674(8) 0.4078(2)
H13 H 0.142797 1.000351 0.419017
C22 C 0.1357(6) 0.9706(7) 0.3842(2)
H14 H 0.171713 1.005386 0.379172
C23 C 0.1000(5) 0.9232(7) 0.3668(2)
C24 C -0.0411(5) 0.7626(7) 0.3662(2)
H15 H -0.073988 0.785778 0.377762
H16 H -0.068834 0.741174 0.352653
C25 C -0.0405(5) 0.6403(7) 0.3884(2)
H17 H -0.073626 0.616393 0.376807
H18 H -0.067709 0.662069 0.401782
C26 C 0.0109(5) 0.5823(6) 0.3970(2)
C27 C 0.0294(5) 0.5750(6) 0.4205(2)
C28 C 0.0842(5) 0.5234(7) 0.4287(2)
C29 C 0.1207(5) 0.4776(6) 0.4127(2)
C30 C 0.1028(5) 0.4825(6) 0.38836(19)
C31 C 0.1376(6) 0.4357(8) 0.3711(2)
H19 H 0.173790 0.400740 0.376191
C32 C 0.1203(6) 0.4397(8) 0.3477(2)
H20 H 0.144799 0.407936 0.336648
C33 C 0.0666(6) 0.4904(8) 0.3396(2)
H21 H 0.054648 0.493101 0.323194
C34 C 0.0316(6) 0.5359(6) 0.3558(2)
H22 H -0.004762 0.570050 0.350324
C35 C 0.0479(5) 0.5334(7) 0.3802(2)
C36 C 0.1808(5) 0.4305(7) 0.42141(19)
H23 H 0.180385 0.427482 0.438956
H24 H 0.178117 0.376550 0.414937
C37 C 0.3066(5) 0.4288(7) 0.4206(2)
H25 H 0.306644 0.374622 0.414228
H26 H 0.310789 0.426300 0.438096
C38 C 0.3664(5) 0.4748(6) 0.41058(19)
C39 C 0.4054(5) 0.5229(6) 0.42571(19)
C40 C 0.4600(5) 0.5716(6) 0.4169(2)
C41 C 0.4724(5) 0.5760(7) 0.3930(2)
C42 C 0.4323(5) 0.5291(7) 0.3770(2)
C43 C 0.4439(6) 0.5319(8) 0.3522(2)
H27 H 0.478256 0.566699 0.346075
C44 C 0.4054(7) 0.4841(8) 0.3370(2)
H28 H 0.413443 0.486180 0.320360
C45 C 0.3549(6) 0.4328(7) 0.3459(2)
H29 H 0.329020 0.400263 0.335201
C46 C 0.3419(6) 0.4282(6) 0.3694(2)
H30 H 0.307123 0.392878 0.375092
C47 C 0.3810(5) 0.4772(6) 0.38591(19)
C48 C 0.5242(6) 0.6360(7) 0.3840(2)
H31 H 0.556775 0.652896 0.396893
H32 H 0.552177 0.614130 0.370850
C49 C 0.4644(11) 0.7183(13) 0.3108(4)
H33 H 0.418041 0.726240 0.302895
H34 H 0.457583 0.684035 0.324762
C50 C 0.5174(10) 0.6770(14) 0.2927(4)
H35 H 0.494117 0.630605 0.285515
H36 H 0.528710 0.714179 0.279819
C51 C 0.5863(10) 0.6510(14) 0.3053(3)
H37 H 0.574623 0.629325 0.321045
H38 H 0.607675 0.608079 0.295928
C52 C 0.6403(14) 0.715(2) 0.3086(4)
H39 H 0.682216 0.693846 0.316652
H40 H 0.653455 0.736144 0.293073
H41 H 0.620341 0.757430 0.318237
C53 C 0.431(2) 0.921(4) 0.2887(5)
H42 H 0.467628 0.883618 0.283783
H43 H 0.453486 0.965121 0.297393
C54 C 0.388(2) 0.953(3) 0.2663(6)
H44 H 0.340220 0.970250 0.270788
H45 H 0.412919 0.996983 0.258705
C55 C 0.384(2) 0.879(3) 0.2493(6)
H46 H 0.347966 0.841526 0.254605
H47 H 0.430266 0.852305 0.248628
C56 C 0.363(2) 0.917(4) 0.2244(5)
H48 H 0.359586 0.874858 0.212475
H49 H 0.317905 0.943562 0.225654
H50 H 0.399579 0.954259 0.219722
C57 C 0.0557(8) 0.9196(11) 0.2865(3)
H51 H 0.044745 0.972541 0.292704
H52 H 0.010881 0.890643 0.284087
C58 C 0.0948(10) 0.9259(15) 0.2633(3)
H53 H 0.066144 0.958296 0.252233
H54 H 0.139406 0.954602 0.266402
C59 C 0.1117(17) 0.8530(17) 0.2515(4)
H55 H 0.067590 0.824048 0.247890
H56 H 0.140964 0.820096 0.262223
C60 C 0.1530(17) 0.868(2) 0.2275(4)
H57 H 0.163522 0.817262 0.219970
H58 H 0.123815 0.899559 0.216673
H59 H 0.197148 0.895609 0.230998
C61 C 0.0186(17) 0.712(3) 0.3098(6)
H60 H 0.029427 0.678780 0.323797
H61 H 0.062376 0.719884 0.300753
C62 C -0.0395(12) 0.6728(18) 0.2938(6)
H62 H -0.045581 0.704378 0.279178
H63 H -0.023129 0.619952 0.289110
C63 C -0.1116(12) 0.665(2) 0.3058(5)
H64 H -0.124045 0.716189 0.312755
H65 H -0.106602 0.626837 0.319042
C64 C -0.1733(16) 0.638(2) 0.2897(6)
H66 H -0.216365 0.634540 0.299037
H67 H -0.180095 0.675556 0.276756
H68 H -0.162599 0.585932 0.283063
C65 C 0.0239(6) 0.6866(7) 0.4453(2)
H69 H 0.031362 0.721755 0.431548
H70 H 0.070229 0.675345 0.452843
C66 C -0.0246(7) 0.7250(8) 0.4629(2)
H71 H -0.001176 0.772337 0.469438
H72 H -0.032334 0.688162 0.476210
C67 C -0.0962(8) 0.7487(9) 0.4524(3)
H73 H -0.116015 0.703696 0.443347
H74 H -0.089272 0.792386 0.441027
C68 C -0.1496(10) 0.7744(9) 0.4710(4)
H75 H -0.194109 0.788748 0.463110
H76 H -0.157786 0.731045 0.482073
H77 H -0.131017 0.819823 0.479750
C69 C 0.0609(6) 0.4691(7) 0.4660(2)
H78 H 0.068718 0.415165 0.460073
H79 H 0.009981 0.481355 0.464527
C70 C 0.0844(6) 0.4754(8) 0.4912(2)
H80 H 0.054128 0.440973 0.500917
H81 H 0.076637 0.530108 0.496585
C71 C 0.1625(7) 0.4535(9) 0.4964(2)
H82 H 0.171948 0.400447 0.489958
H83 H 0.193483 0.491115 0.488079
C72 C 0.1804(8) 0.4545(11) 0.5227(3)
H84 H 0.230045 0.440397 0.525110
H85 H 0.172093 0.507249 0.529072
H86 H 0.150561 0.416592 0.530951
C73 C 0.4328(6) 0.4833(9) 0.4652(2)
H87 H 0.480880 0.505670 0.466066
H88 H 0.435873 0.428362 0.459552
C74 C 0.3981(7) 0.4865(10) 0.4895(2)
H89 H 0.347630 0.472751 0.487775
H90 H 0.420572 0.447064 0.500113
C75 C 0.4048(7) 0.5677(9) 0.5008(2)
H91 H 0.454643 0.576545 0.505534
H92 H 0.391903 0.607889 0.488840
C76 C 0.3590(9) 0.5788(11) 0.5224(3)
H93 H 0.365799 0.631868 0.528769
H94 H 0.309403 0.571481 0.517866
H95 H 0.372209 0.540104 0.534578
C77 C 0.4757(7) 0.6856(9) 0.4408(3)
H96 H 0.430626 0.677685 0.449102
H97 H 0.466119 0.718916 0.426692
C78 C 0.5267(8) 0.7266(11) 0.4570(4)
H98 H 0.509389 0.780962 0.459174
H99 H 0.524762 0.700395 0.472610
C79 C 0.5998(8) 0.7315(11) 0.4504(4)
H100 H 0.621044 0.774332 0.459987
H101 H 0.600638 0.748878 0.433660
C80 C 0.6486(12) 0.6624(14) 0.4525(6)
H102 H 0.695654 0.677673 0.447174
H103 H 0.651316 0.645053 0.469028
H104 H 0.630753 0.619402 0.442498
I1 I 0.32279(10) 0.64598(10) 0.25479(2)
I2 I 0.35022(6) 0.79841(7) 0.49223(2)
N1 N 0.2298(4) 0.6980(6) 0.37608(17)
C92 C 0.1793(6) 0.6831(9) 0.3554(2)
H135 H 0.151686 0.635225 0.358861
H136 H 0.145869 0.727631 0.354318
C93 C 0.2143(7) 0.6730(8) 0.3316(2)
C94 C 0.2268(10) 0.7437(11) 0.3179(3)
H137 H 0.213276 0.794416 0.323188
C95 C 0.2605(13) 0.7313(11) 0.2960(3)
H138 H 0.273530 0.775481 0.286752
C96 C 0.2753(10) 0.6560(9) 0.2875(3)
C97 C 0.2650(9) 0.5914(9) 0.3016(3)
H139 H 0.278277 0.540587 0.296395
C98 C 0.2350(8) 0.6018(9) 0.3237(2)
H140 H 0.228865 0.557280 0.333682
C99 C 0.1814(5) 0.7061(9) 0.3978(2)
H141 H 0.145477 0.746907 0.394382
H142 H 0.156392 0.655782 0.400242
C100 C 0.2199(6) 0.7273(8) 0.4201(2)
C101 C 0.2445(6) 0.6689(7) 0.4357(2)
H143 H 0.236630 0.615326 0.431752
C102 C 0.2799(7) 0.6867(7) 0.4566(2)
H144 H 0.293385 0.646762 0.467518
C103 C 0.2955(8) 0.7675(9) 0.4612(3)
C104 C 0.2710(7) 0.8258(8) 0.4464(3)
H145 H 0.278366 0.879789 0.449910
C105 C 0.2344(6) 0.8010(10) 0.4258(2)
H146 H 0.218857 0.840660 0.415074
C106 C 0.2723(8) 0.7678(9) 0.3720(3)
H147 H 0.241363 0.813437 0.369831
H148 H 0.303795 0.776682 0.385660
H149 H 0.300441 0.760394 0.357693
C107 C 0.2771(8) 0.6304(9) 0.3792(3)
H150 H 0.249111 0.583016 0.382020
H151 H 0.305176 0.623469 0.364935
H152 H 0.308530 0.639757 0.392902
P1 P 0.74117(14) 0.7006(2) 0.37959(7)
F1 F 0.6814(3) 0.6602(4) 0.36366(15)
F2 F 0.7394(4) 0.7766(4) 0.36207(16)
F3 F 0.7991(3) 0.6616(4) 0.36335(14)
F4 F 0.8012(3) 0.7421(4) 0.39521(15)
F5 F 0.7428(4) 0.6250(4) 0.39677(15)
F6 F 0.6831(4) 0.7407(5) 0.39577(16)
C81? C 0.426(2) 0.929(4) 0.2888(5)
H105? H 0.475035 0.920600 0.294351
H106? H 0.414444 0.985114 0.291067
C82? C 0.4203(16) 0.908(4) 0.2615(6)
H107? H 0.432906 0.852944 0.258477
H108? H 0.451337 0.942880 0.252030
C83? C 0.3397(16) 0.924(4) 0.2553(6)
H109? H 0.322240 0.971473 0.263743
H110? H 0.310103 0.878686 0.259467
C84? C 0.341(2) 0.938(5) 0.2275(6)
H111? H 0.292877 0.948718 0.221637
H112? H 0.371186 0.983074 0.223899
H113? H 0.359150 0.891065 0.219659
H114? H 0.058990 0.937539 0.250862
H115? H 0.125180 0.973060 0.264625
C85? C 0.139(4) 0.863(4) 0.2540(12)
H116? H 0.108517 0.819271 0.248734
H117? H 0.170483 0.843865 0.266832
C86? C 0.185(4) 0.893(6) 0.2324(12)
H118? H 0.213668 0.849375 0.226618
H119? H 0.153494 0.911361 0.219601
H120? H 0.215420 0.935939 0.237687
C87? C 0.038(3) 0.715(4) 0.3102(9)
H121? H 0.053221 0.685208 0.324541
H122? H 0.080560 0.733477 0.301836
C88? C -0.009(3) 0.665(2) 0.2940(6)
H123? H 0.011930 0.611210 0.293420
H124? H -0.055390 0.659992 0.301394
C89? C -0.020(3) 0.692(3) 0.2684(6)
H125? H 0.025884 0.691494 0.260266
H126? H -0.036076 0.747835 0.268745
C90? C -0.074(3) 0.645(3) 0.2532(8)
H127? H -0.077201 0.667119 0.237211
H128? H -0.058002 0.589860 0.252135
H129? H -0.120144 0.646367 0.260639
H130? H 0.601954 0.773521 0.438316
H131? H 0.609839 0.681800 0.441974
C91? C 0.6605(16) 0.745(4) 0.4661(9)
H132? H 0.703680 0.745106 0.456795
H133? H 0.655316 0.795203 0.474244
H134? H 0.663293 0.702406 0.477945
loop_
_geom_bond_atom_site_label_1
_geom_bond_atom_site_label_2
_geom_bond_site_symmetry_1
_geom_bond_site_symmetry_2
O1 C1 1_555 1_555
O2 C12 1_555 1_555
O3 C24 1_555 1_555
O4 C36 1_555 1_555
O5 C3 1_555 1_555
O6 C4 1_555 1_555
O7 C15 1_555 1_555
O8 C16 1_555 1_555
O9 C27 1_555 1_555
O10 C28 1_555 1_555
O11 C39 1_555 1_555
O12 C40 1_555 1_555
C1 H1 1_555 1_555
H2 C1 1_555 1_555
C2 C1 1_555 1_555
C3 C2 1_555 1_555
C4 C3 1_555 1_555
C5 C4 1_555 1_555
C6 C5 1_555 1_555
C7 C6 1_555 1_555
H3 C7 1_555 1_555
C8 C7 1_555 1_555
H4 C8 1_555 1_555
C9 C8 1_555 1_555
H5 C9 1_555 1_555
C10 C9 1_555 1_555
H6 C10 1_555 1_555
C11 C2 1_555 1_555
C12 C5 1_555 1_555
H7 C12 1_555 1_555
H8 C12 1_555 1_555
C13 O2 1_555 1_555
H9 C13 1_555 1_555
H10 C13 1_555 1_555
C14 C13 1_555 1_555
C15 C14 1_555 1_555
C16 C15 1_555 1_555
C17 C16 1_555 1_555
C18 C17 1_555 1_555
C19 C18 1_555 1_555
H11 C19 1_555 1_555
C20 C19 1_555 1_555
H12 C20 1_555 1_555
C21 C20 1_555 1_555
H13 C21 1_555 1_555
C22 C21 1_555 1_555
H14 C22 1_555 1_555
C23 C14 1_555 1_555
C24 C17 1_555 1_555
H15 C24 1_555 1_555
H16 C24 1_555 1_555
C25 O3 1_555 1_555
H17 C25 1_555 1_555
H18 C25 1_555 1_555
C26 C25 1_555 1_555
C27 C26 1_555 1_555
C28 C27 1_555 1_555
C29 C28 1_555 1_555
C30 C29 1_555 1_555
C31 C30 1_555 1_555
H19 C31 1_555 1_555
C32 C31 1_555 1_555
H20 C32 1_555 1_555
C33 C32 1_555 1_555
H21 C33 1_555 1_555
C34 C33 1_555 1_555
H22 C34 1_555 1_555
C35 C26 1_555 1_555
C36 C29 1_555 1_555
H23 C36 1_555 1_555
H24 C36 1_555 1_555
C37 O4 1_555 1_555
H25 C37 1_555 1_555
H26 C37 1_555 1_555
C38 C37 1_555 1_555
C39 C38 1_555 1_555
C40 C39 1_555 1_555
C41 C40 1_555 1_555
C42 C41 1_555 1_555
C43 C42 1_555 1_555
H27 C43 1_555 1_555
C44 C43 1_555 1_555
H28 C44 1_555 1_555
C45 C44 1_555 1_555
H29 C45 1_555 1_555
C46 C45 1_555 1_555
H30 C46 1_555 1_555
C47 C38 1_555 1_555
C48 O1 1_555 1_555
H31 C48 1_555 1_555
H32 C48 1_555 1_555
C49 O5 1_555 1_555
H33 C49 1_555 1_555
H34 C49 1_555 1_555
C50 C49 1_555 1_555
H35 C50 1_555 1_555
H36 C50 1_555 1_555
C51 C50 1_555 1_555
H37 C51 1_555 1_555
H38 C51 1_555 1_555
C52 C51 1_555 1_555
H39 C52 1_555 1_555
H40 C52 1_555 1_555
H41 C52 1_555 1_555
C53 O6 1_555 1_555
H42 C53 1_555 1_555
H43 C53 1_555 1_555
C54 C53 1_555 1_555
H44 C54 1_555 1_555
H45 C54 1_555 1_555
C55 C54 1_555 1_555
H46 C55 1_555 1_555
H47 C55 1_555 1_555
C56 C55 1_555 1_555
H48 C56 1_555 1_555
H49 C56 1_555 1_555
H50 C56 1_555 1_555
C57 O7 1_555 1_555
H51 C57 1_555 1_555
H52 C57 1_555 1_555
C58 C57 1_555 1_555
H53 C58 1_555 1_555
H54 C58 1_555 1_555
C59 C58 1_555 1_555
H55 C59 1_555 1_555
H56 C59 1_555 1_555
C60 C59 1_555 1_555
H57 C60 1_555 1_555
H58 C60 1_555 1_555
H59 C60 1_555 1_555
C61 O8 1_555 1_555
H60 C61 1_555 1_555
H61 C61 1_555 1_555
C62 C61 1_555 1_555
H62 C62 1_555 1_555
H63 C62 1_555 1_555
C63 C62 1_555 1_555
H64 C63 1_555 1_555
H65 C63 1_555 1_555
C64 C63 1_555 1_555
H66 C64 1_555 1_555
H67 C64 1_555 1_555
H68 C64 1_555 1_555
C65 O9 1_555 1_555
H69 C65 1_555 1_555
H70 C65 1_555 1_555
C66 C65 1_555 1_555
H71 C66 1_555 1_555
H72 C66 1_555 1_555
C67 C66 1_555 1_555
H73 C67 1_555 1_555
H74 C67 1_555 1_555
C68 C67 1_555 1_555
H75 C68 1_555 1_555
H76 C68 1_555 1_555
H77 C68 1_555 1_555
C69 O10 1_555 1_555
H78 C69 1_555 1_555
H79 C69 1_555 1_555
C70 C69 1_555 1_555
H80 C70 1_555 1_555
H81 C70 1_555 1_555
C71 C70 1_555 1_555
H82 C71 1_555 1_555
H83 C71 1_555 1_555
C72 C71 1_555 1_555
H84 C72 1_555 1_555
H85 C72 1_555 1_555
H86 C72 1_555 1_555
C73 O11 1_555 1_555
H87 C73 1_555 1_555
H88 C73 1_555 1_555
C74 C73 1_555 1_555
H89 C74 1_555 1_555
H90 C74 1_555 1_555
C75 C74 1_555 1_555
H91 C75 1_555 1_555
H92 C75 1_555 1_555
C76 C75 1_555 1_555
H93 C76 1_555 1_555
H94 C76 1_555 1_555
H95 C76 1_555 1_555
C77 O12 1_555 1_555
H96 C77 1_555 1_555
H97 C77 1_555 1_555
C78 C77 1_555 1_555
H98 C78 1_555 1_555
H99 C78 1_555 1_555
C79 C78 1_555 1_555
H100 C79 1_555 1_555
H101 C79 1_555 1_555
C80 C79 1_555 1_555
H102 C80 1_555 1_555
H103 C80 1_555 1_555
H104 C80 1_555 1_555
I1 C96 1_555 1_555
I2 C103 1_555 1_555
N1 C92 1_555 1_555
C92 H135 1_555 1_555
H136 C92 1_555 1_555
C93 C92 1_555 1_555
C94 C93 1_555 1_555
H137 C94 1_555 1_555
C95 C94 1_555 1_555
H138 C95 1_555 1_555
C96 C95 1_555 1_555
C97 C96 1_555 1_555
H139 C97 1_555 1_555
C98 C93 1_555 1_555
H140 C98 1_555 1_555
C99 N1 1_555 1_555
H141 C99 1_555 1_555
H142 C99 1_555 1_555
C100 C99 1_555 1_555
C101 C100 1_555 1_555
H143 C101 1_555 1_555
C102 C101 1_555 1_555
H144 C102 1_555 1_555
C103 C102 1_555 1_555
C104 C103 1_555 1_555
H145 C104 1_555 1_555
C105 C100 1_555 1_555
H146 C105 1_555 1_555
C106 N1 1_555 1_555
H147 C106 1_555 1_555
H148 C106 1_555 1_555
H149 C106 1_555 1_555
C107 N1 1_555 1_555
H150 C107 1_555 1_555
H151 C107 1_555 1_555
H152 C107 1_555 1_555
P1 F1 1_555 1_555
F2 P1 1_555 1_555
F3 P1 1_555 1_555
F4 P1 1_555 1_555
F5 P1 1_555 1_555
F6 P1 1_555 1_555
C6 C11 1_555 1_555
C10 C11 1_555 1_555
C18 C23 1_555 1_555
C22 C23 1_555 1_555
C30 C35 1_555 1_555
C34 C35 1_555 1_555
C41 C48 1_555 1_555
C42 C47 1_555 1_555
C46 C47 1_555 1_555
C97 C98 1_555 1_555
C104 C105 1_555 1_555

#END
