
#######################################################################
#
#                 Cambridge Crystallographic Data Centre
#                                CCDC 
#
#######################################################################
#
# If this CIF has been generated from an entry in the Cambridge 
# Structural Database, then it will include bibliographic, chemical, 
# crystal, experimental, refinement or atomic coordinate data resulting 
# from the CCDC's data processing and validation procedures.
#
#######################################################################

data_YILDUU
_chemical_formula_moiety         'C17 H24 O5'
_chemical_name_systematic        
'5-Hydroxy-4a,8-dimethyl-3-methylene-2-oxododecahydroazuleno[6,5-b]furan-7-yl acetate'
_symmetry_cell_setting           orthorhombic
_symmetry_space_group_name_H-M   'P 21 21 21'
_symmetry_Int_Tables_number      19
_space_group_name_Hall           'P 2ac 2ab'
loop_
_symmetry_equiv_pos_site_id
_symmetry_equiv_pos_as_xyz
1 x,y,z
2 1/2-x,-y,1/2+z
3 -x,1/2+y,1/2-z
4 1/2+x,1/2-y,-z
_cell_length_a                   10.0321(17)
_cell_length_b                   12.231(2)
_cell_length_c                   13.457(2)
_cell_angle_alpha                90
_cell_angle_beta                 90
_cell_angle_gamma                90
_cell_volume                     1651.21
_exptl_crystal_colour            colorless
_exptl_crystal_description       prismatic
_cell_formula_units_Z            4
loop_
_atom_site_label
_atom_site_type_symbol
_atom_site_fract_x
_atom_site_fract_y
_atom_site_fract_z
O1 O 0.01867(17) 0.73112(9) 1.01426(9)
H1 H -0.0107 0.7285 1.0711
O2 O 0.10826(13) 0.21900(9) 1.12993(8)
O3 O 0.09535(15) 0.20644(11) 1.29399(9)
O4 O -0.05050(12) 0.48911(10) 0.73931(8)
O5 O 0.03240(17) 0.59275(13) 0.61730(10)
C1 C 0.05802(15) 0.46328(12) 0.89699(10)
H2 H -0.0328 0.4414 0.9152
C2 C 0.04080(17) 0.54010(13) 0.80866(10)
H3 H 0.1270 0.5538 0.7767
C3 C -0.0151(2) 0.64625(14) 0.85269(12)
H4 H 0.0377 0.7086 0.8319
H5 H -0.1067 0.6574 0.8320
C4 C -0.00650(18) 0.63039(11) 0.96548(11)
H6 H -0.0916 0.6011 0.9893
C5 C 0.10229(15) 0.54289(12) 0.98031(10)
C6 C 0.09826(16) 0.49399(11) 1.08562(10)
H7 H 0.1882 0.4734 1.1042
H8 H 0.0695 0.5506 1.1313
C7 C 0.00785(15) 0.39457(11) 1.09948(10)
H9 H -0.0819 0.4114 1.0751
C8 C 0.05987(15) 0.28902(11) 1.04877(10)
H10 H -0.0152 0.2524 1.0161
C9 C 0.17202(15) 0.29972(13) 0.97525(11)
H11 H 0.2064 0.2274 0.9605
H12 H 0.2435 0.3414 1.0056
C10 C 0.13209(17) 0.35526(13) 0.87764(12)
H13 H 0.0680 0.3064 0.8452
C11 C 0.00105(16) 0.36197(12) 1.20742(11)
C12 C 0.07073(17) 0.25653(13) 1.21877(12)
C13 C -0.0528(2) 0.41497(15) 1.28213(13)
H14 H -0.0480 0.3862 1.3460
H15 H -0.0957 0.4813 1.2712
C14 C 0.2512(3) 0.36316(19) 0.80850(17)
H16 H 0.2230 0.3912 0.7453
H17 H 0.2896 0.2919 0.7997
H18 H 0.3165 0.4114 0.8368
C15 C 0.24038(18) 0.59313(16) 0.96451(14)
H19 H 0.2440 0.6270 0.9002
H20 H 0.3069 0.5368 0.9685
H21 H 0.2569 0.6470 1.0149
C16 C -0.04393(18) 0.52258(13) 0.64502(11)
C17 C -0.1410(2) 0.46298(17) 0.58108(14)
H22 H -0.1659 0.5084 0.5260
H23 H -0.2188 0.4451 0.6193
H24 H -0.1007 0.3970 0.5568
loop_
_geom_bond_atom_site_label_1
_geom_bond_atom_site_label_2
_geom_bond_site_symmetry_1
_geom_bond_site_symmetry_2
O1 H1 1_555 1_555
O2 C8 1_555 1_555
O3 C12 1_555 1_555
O4 C2 1_555 1_555
O5 C16 1_555 1_555
C1 H2 1_555 1_555
C2 C1 1_555 1_555
H3 C2 1_555 1_555
C3 C2 1_555 1_555
H4 C3 1_555 1_555
H5 C3 1_555 1_555
C4 O1 1_555 1_555
H6 C4 1_555 1_555
C5 C1 1_555 1_555
C6 C5 1_555 1_555
H7 C6 1_555 1_555
H8 C6 1_555 1_555
C7 C6 1_555 1_555
H9 C7 1_555 1_555
C8 C7 1_555 1_555
H10 C8 1_555 1_555
C9 C8 1_555 1_555
H11 C9 1_555 1_555
H12 C9 1_555 1_555
C10 C1 1_555 1_555
H13 C10 1_555 1_555
C11 C7 1_555 1_555
C12 O2 1_555 1_555
C13 C11 1_555 1_555
H14 C13 1_555 1_555
H15 C13 1_555 1_555
C14 C10 1_555 1_555
H16 C14 1_555 1_555
H17 C14 1_555 1_555
H18 C14 1_555 1_555
C15 C5 1_555 1_555
H19 C15 1_555 1_555
H20 C15 1_555 1_555
H21 C15 1_555 1_555
C16 O4 1_555 1_555
C17 C16 1_555 1_555
H22 C17 1_555 1_555
H23 C17 1_555 1_555
H24 C17 1_555 1_555
C3 C4 1_555 1_555
C4 C5 1_555 1_555
C9 C10 1_555 1_555
C11 C12 1_555 1_555

#END
