
#######################################################################
#
#                 Cambridge Crystallographic Data Centre
#                                CCDC 
#
#######################################################################
#
# If this CIF has been generated from an entry in the Cambridge 
# Structural Database, then it will include bibliographic, chemical, 
# crystal, experimental, refinement or atomic coordinate data resulting 
# from the CCDC's data processing and validation procedures.
#
#######################################################################

data_YILGUV
_chemical_formula_moiety         'C17 H24 N2 O1 Si1'
_chemical_name_systematic        
anti-5-Trimethylsilylspiro(adamantane-2,2'-oxetane)-trans-3',4'-dicarbonitrile
_symmetry_cell_setting           monoclinic
_symmetry_space_group_name_H-M   'P 21/c'
_symmetry_Int_Tables_number      14
_space_group_name_Hall           '-P 2ybc'
loop_
_symmetry_equiv_pos_site_id
_symmetry_equiv_pos_as_xyz
1 x,y,z
2 -x,1/2+y,1/2-z
3 -x,-y,-z
4 x,1/2-y,1/2+z
_cell_length_a                   14.488(3)
_cell_length_b                   9.129(3)
_cell_length_c                   13.253(3)
_cell_angle_alpha                90
_cell_angle_beta                 101.84(2)
_cell_angle_gamma                90
_cell_volume                     1715.56
_exptl_crystal_colour            colorless
_chemical_melting_point          154deg.C
_cell_formula_units_Z            4
loop_
_atom_site_label
_atom_site_type_symbol
_atom_site_fract_x
_atom_site_fract_y
_atom_site_fract_z
Si1 Si -0.1892(2) 0.1671(2) 0.1919(2)
O1 O -0.3118(3) -0.3384(5) -0.1127(3)
N1 N -0.4982(4) 0.0346(7) -0.1321(5)
N2 N -0.4986(6) -0.5703(8) -0.1157(6)
C1 C -0.2558(5) -0.2567(7) 0.0640(5)
C2 C -0.3053(4) -0.2124(7) -0.0416(5)
C3 C -0.2548(5) -0.0869(8) -0.0817(5)
C4 C -0.2512(5) 0.0463(7) -0.0082(5)
C5 C -0.1969(5) 0.0045(7) 0.1015(5)
C6 C -0.0966(5) -0.0460(9) 0.0953(5)
C7 C -0.1047(5) -0.1790(10) 0.0218(6)
C8 C -0.1539(5) -0.3035(8) 0.0614(6)
C9 C -0.2512(5) -0.1230(7) 0.1377(5)
C10 C -0.1521(5) -0.1354(9) -0.0833(5)
C11 C -0.4160(5) -0.2051(7) -0.0608(5)
C12 C -0.4138(5) -0.3275(8) -0.1408(5)
C13 C -0.4622(5) -0.0700(8) -0.1010(5)
C14 C -0.4616(7) -0.4643(9) -0.1259(6)
C15 C -0.1385(6) 0.1106(9) 0.3252(6)
C16 C -0.1125(8) 0.3089(9) 0.1531(7)
C17 C -0.3091(6) 0.2462(10) 0.1882(8)
H1 H -0.2884 -0.3354 0.0881
H2 H -0.2869 -0.0609 -0.1492
H3 H -0.2199 0.1254 -0.0336
H4 H -0.3136 0.0748 -0.0052
H5 H -0.0642 0.0315 0.0696
H6 H -0.0631 -0.0733 0.1620
H7 H -0.0427 -0.2101 0.0193
H8 H -0.1215 -0.3286 0.1290
H9 H -0.1551 -0.3858 0.0173
H10 H -0.3135 -0.0918 0.1389
H11 H -0.2202 -0.1514 0.2051
H12 H -0.1533 -0.2160 -0.1289
H13 H -0.1189 -0.0563 -0.1060
H14 H -0.4390 -0.2400 -0.0031
H15 H -0.4337 -0.2919 -0.2092
H16 H -0.1776 0.0380 0.3463
H17 H -0.0772 0.0716 0.3284
H18 H -0.1346 0.1931 0.3696
H19 H -0.0510 0.2701 0.1573
H20 H -0.1377 0.3386 0.0843
H21 H -0.1094 0.3909 0.1978
H22 H -0.3037 0.3289 0.2325
H23 H -0.3362 0.2753 0.1197
H24 H -0.3480 0.1746 0.2105
loop_
_geom_bond_atom_site_label_1
_geom_bond_atom_site_label_2
_geom_bond_site_symmetry_1
_geom_bond_site_symmetry_2
Si1 C5 1_555 1_555
O1 C2 1_555 1_555
N1 C13 1_555 1_555
N2 C14 1_555 1_555
C1 C2 1_555 1_555
C2 C3 1_555 1_555
C3 C4 1_555 1_555
C4 C5 1_555 1_555
C5 C6 1_555 1_555
C6 C7 1_555 1_555
C7 C8 1_555 1_555
C8 C1 1_555 1_555
C9 C1 1_555 1_555
C10 C3 1_555 1_555
C11 C2 1_555 1_555
C12 O1 1_555 1_555
C13 C11 1_555 1_555
C14 C12 1_555 1_555
C15 Si1 1_555 1_555
C16 Si1 1_555 1_555
C17 Si1 1_555 1_555
H1 C1 1_555 1_555
H2 C3 1_555 1_555
H3 C4 1_555 1_555
H4 C4 1_555 1_555
H5 C6 1_555 1_555
H6 C6 1_555 1_555
H7 C7 1_555 1_555
H8 C8 1_555 1_555
H9 C8 1_555 1_555
H10 C9 1_555 1_555
H11 C9 1_555 1_555
H12 C10 1_555 1_555
H13 C10 1_555 1_555
H14 C11 1_555 1_555
H15 C12 1_555 1_555
H16 C15 1_555 1_555
H17 C15 1_555 1_555
H18 C15 1_555 1_555
H19 C16 1_555 1_555
H20 C16 1_555 1_555
H21 C16 1_555 1_555
H22 C17 1_555 1_555
H23 C17 1_555 1_555
H24 C17 1_555 1_555
C5 C9 1_555 1_555
C7 C10 1_555 1_555
C11 C12 1_555 1_555

#END
