
#######################################################################
#
#                 Cambridge Crystallographic Data Centre
#                                CCDC 
#
#######################################################################
#
# If this CIF has been generated from an entry in the Cambridge 
# Structural Database, then it will include bibliographic, chemical, 
# crystal, experimental, refinement or atomic coordinate data resulting 
# from the CCDC's data processing and validation procedures.
#
#######################################################################

data_YILHIN
_chemical_formula_moiety         'C50 H34'
_chemical_name_systematic        9,9,9',9'-tetraphenyl-2,2'-bifluorene
_symmetry_cell_setting           triclinic
_symmetry_space_group_name_H-M   'P -1'
_symmetry_Int_Tables_number      2
_space_group_name_Hall           '-P 1'
loop_
_symmetry_equiv_pos_site_id
_symmetry_equiv_pos_as_xyz
1 x,y,z
2 -x,-y,-z
_cell_length_a                   8.8611(11)
_cell_length_b                   9.3197(12)
_cell_length_c                   11.2678(14)
_cell_angle_alpha                91.850(3)
_cell_angle_beta                 96.029(3)
_cell_angle_gamma                115.276(2)
_cell_volume                     833.701
_exptl_crystal_colour            colorless
_exptl_crystal_description       plate
_cell_formula_units_Z            1
_exptl_crystal_preparation       Luminescent
loop_
_atom_site_label
_atom_site_type_symbol
_atom_site_fract_x
_atom_site_fract_y
_atom_site_fract_z
C1 C 0.21087(12) 0.10732(12) 0.29015(9)
C2 C 0.16679(12) 0.11826(12) 0.40324(9)
H1 H 0.2335 0.2095 0.4571
C3 C 0.02386(12) -0.00478(12) 0.43894(9)
C4 C -0.07198(14) -0.13666(13) 0.35584(10)
H2 H -0.1699 -0.2203 0.3779
C5 C -0.02776(14) -0.14837(13) 0.24253(10)
H3 H -0.0943 -0.2391 0.1881
C6 C 0.11499(13) -0.02583(12) 0.20955(9)
C7 C 0.19154(13) -0.00581(12) 0.09852(9)
C8 C 0.14809(14) -0.10763(13) -0.00536(10)
H4 H 0.0539 -0.2089 -0.0124
C9 C 0.24438(15) -0.05884(15) -0.09826(10)
H5 H 0.2158 -0.1270 -0.1697
C10 C 0.38265(15) 0.08927(15) -0.08778(10)
H6 H 0.4472 0.1214 -0.1524
C11 C 0.42783(14) 0.19135(14) 0.01666(10)
H7 H 0.5228 0.2921 0.0238
C12 C 0.33137(13) 0.14267(12) 0.10970(9)
C13 C 0.35823(12) 0.22985(12) 0.23338(9)
C14 C 0.53148(13) 0.25649(12) 0.29699(9)
C15 C 0.55151(13) 0.13558(13) 0.35728(9)
H8 H 0.4556 0.0390 0.3640
C16 C 0.71016(15) 0.15475(14) 0.40766(10)
H9 H 0.7215 0.0710 0.4477
C17 C 0.85167(14) 0.29536(15) 0.39971(10)
H10 H 0.9596 0.3090 0.4351
C18 C 0.83345(14) 0.41661(14) 0.33905(11)
H11 H 0.9297 0.5131 0.3327
C19 C 0.67484(14) 0.39681(13) 0.28774(11)
H12 H 0.6641 0.4796 0.2460
C20 C 0.33567(13) 0.38427(12) 0.22981(10)
C21 C 0.37553(15) 0.48417(14) 0.33479(11)
H13 H 0.4264 0.4608 0.4053
C22 C 0.34226(17) 0.61705(15) 0.33818(13)
H14 H 0.3704 0.6836 0.4104
C23 C 0.26731(16) 0.65225(15) 0.23504(14)
H15 H 0.2427 0.7420 0.2370
C24 C 0.22910(15) 0.55580(15) 0.13016(13)
H16 H 0.1784 0.5797 0.0598
C25 C 0.26456(14) 0.42306(14) 0.12675(11)
H17 H 0.2400 0.3589 0.0536
C1A C -0.21087(12) -0.10732(12) 0.70985(9)
C2A C -0.16679(12) -0.11826(12) 0.59676(9)
H1A H -0.2335 -0.2095 0.5429
C3A C -0.02386(12) 0.00478(12) 0.56106(9)
C4A C 0.07198(14) 0.13666(13) 0.64416(10)
H2A H 0.1699 0.2203 0.6221
C5A C 0.02776(14) 0.14837(13) 0.75747(10)
H3A H 0.0943 0.2391 0.8119
C6A C -0.11499(13) 0.02583(12) 0.79045(9)
C7A C -0.19154(13) 0.00581(12) 0.90148(9)
C8A C -0.14809(14) 0.10763(13) 1.00536(10)
H4A H -0.0539 0.2089 1.0124
C9A C -0.24438(15) 0.05884(15) 1.09826(10)
H5A H -0.2158 0.1270 1.1697
C10A C -0.38265(15) -0.08927(15) 1.08778(10)
H6A H -0.4472 -0.1214 1.1524
C11A C -0.42783(14) -0.19135(14) 0.98334(10)
H7A H -0.5228 -0.2921 0.9762
C12A C -0.33137(13) -0.14267(12) 0.89030(9)
C13A C -0.35823(12) -0.22985(12) 0.76662(9)
C14A C -0.53148(13) -0.25649(12) 0.70301(9)
C15A C -0.55151(13) -0.13558(13) 0.64272(9)
H8A H -0.4556 -0.0390 0.6360
C16A C -0.71016(15) -0.15475(14) 0.59234(10)
H9A H -0.7215 -0.0710 0.5523
C17A C -0.85167(14) -0.29536(15) 0.60029(10)
H10A H -0.9596 -0.3090 0.5649
C18A C -0.83345(14) -0.41661(14) 0.66095(11)
H11A H -0.9297 -0.5131 0.6673
C19A C -0.67484(14) -0.39681(13) 0.71226(11)
H12A H -0.6641 -0.4796 0.7540
C20A C -0.33567(13) -0.38427(12) 0.77019(10)
C21A C -0.37553(15) -0.48417(14) 0.66521(11)
H13A H -0.4264 -0.4608 0.5947
C22A C -0.34226(17) -0.61705(15) 0.66182(13)
H14A H -0.3704 -0.6836 0.5896
C23A C -0.26731(16) -0.65225(15) 0.76496(14)
H15A H -0.2427 -0.7420 0.7630
C24A C -0.22910(15) -0.55580(15) 0.86984(13)
H16A H -0.1784 -0.5797 0.9402
C25A C -0.26456(14) -0.42306(14) 0.87325(11)
H17A H -0.2400 -0.3589 0.9464
loop_
_geom_bond_atom_site_label_1
_geom_bond_atom_site_label_2
_geom_bond_site_symmetry_1
_geom_bond_site_symmetry_2
C1 C2 1_555 1_555
C2 H1 1_555 1_555
C3 C2 1_555 1_555
C4 C3 1_555 1_555
H2 C4 1_555 1_555
C5 C4 1_555 1_555
H3 C5 1_555 1_555
C6 C1 1_555 1_555
C7 C6 1_555 1_555
C8 C7 1_555 1_555
H4 C8 1_555 1_555
C9 C8 1_555 1_555
H5 C9 1_555 1_555
C10 C9 1_555 1_555
H6 C10 1_555 1_555
C11 C10 1_555 1_555
H7 C11 1_555 1_555
C12 C7 1_555 1_555
C13 C1 1_555 1_555
C14 C13 1_555 1_555
C15 C14 1_555 1_555
H8 C15 1_555 1_555
C16 C15 1_555 1_555
H9 C16 1_555 1_555
C17 C16 1_555 1_555
H10 C17 1_555 1_555
C18 C17 1_555 1_555
H11 C18 1_555 1_555
C19 C14 1_555 1_555
H12 C19 1_555 1_555
C20 C13 1_555 1_555
C21 C20 1_555 1_555
H13 C21 1_555 1_555
C22 C21 1_555 1_555
H14 C22 1_555 1_555
C23 C22 1_555 1_555
H15 C23 1_555 1_555
C24 C23 1_555 1_555
H16 C24 1_555 1_555
C25 C20 1_555 1_555
H17 C25 1_555 1_555
C1A C2A 1_555 1_555
C2A H1A 1_555 1_555
C3A C3 1_555 1_555
C4A C3A 1_555 1_555
H2A C4A 1_555 1_555
C5A C4A 1_555 1_555
H3A C5A 1_555 1_555
C6A C1A 1_555 1_555
C7A C6A 1_555 1_555
C8A C7A 1_555 1_555
H4A C8A 1_555 1_555
C9A C8A 1_555 1_555
H5A C9A 1_555 1_555
C10A C9A 1_555 1_555
H6A C10A 1_555 1_555
C11A C10A 1_555 1_555
H7A C11A 1_555 1_555
C12A C7A 1_555 1_555
C13A C1A 1_555 1_555
C14A C13A 1_555 1_555
C15A C14A 1_555 1_555
H8A C15A 1_555 1_555
C16A C15A 1_555 1_555
H9A C16A 1_555 1_555
C17A C16A 1_555 1_555
H10A C17A 1_555 1_555
C18A C17A 1_555 1_555
H11A C18A 1_555 1_555
C19A C14A 1_555 1_555
H12A C19A 1_555 1_555
C20A C13A 1_555 1_555
C21A C20A 1_555 1_555
H13A C21A 1_555 1_555
C22A C21A 1_555 1_555
H14A C22A 1_555 1_555
C23A C22A 1_555 1_555
H15A C23A 1_555 1_555
C24A C23A 1_555 1_555
H16A C24A 1_555 1_555
C25A C20A 1_555 1_555
H17A C25A 1_555 1_555
C5 C6 1_555 1_555
C11 C12 1_555 1_555
C12 C13 1_555 1_555
C18 C19 1_555 1_555
C24 C25 1_555 1_555
C2A C3A 1_555 1_555
C5A C6A 1_555 1_555
C11A C12A 1_555 1_555
C12A C13A 1_555 1_555
C18A C19A 1_555 1_555
C24A C25A 1_555 1_555

#END
