
#######################################################################
#
#                 Cambridge Crystallographic Data Centre
#                                CCDC 
#
#######################################################################
#
# If this CIF has been generated from an entry in the Cambridge 
# Structural Database, then it will include bibliographic, chemical, 
# crystal, experimental, refinement or atomic coordinate data resulting 
# from the CCDC's data processing and validation procedures.
#
#######################################################################

data_YILHOT
_chemical_formula_moiety         'C50 H30 O4 S2,2(C6 H5 Cl1)'
_chemical_name_systematic        
"2,2'-bi(10',10'-dioxo-10'H-spiro[fluorene-9,9'-thioxanthene]) chlorobenzene solvate"
_symmetry_cell_setting           monoclinic
_symmetry_space_group_name_H-M   'P 21/c'
_symmetry_Int_Tables_number      14
_space_group_name_Hall           '-P 2ybc'
loop_
_symmetry_equiv_pos_site_id
_symmetry_equiv_pos_as_xyz
1 x,y,z
2 -x,1/2+y,1/2-z
3 -x,-y,-z
4 x,1/2-y,1/2+z
_cell_length_a                   12.7464(17)
_cell_length_b                   11.5702(16)
_cell_length_c                   16.337(2)
_cell_angle_alpha                90
_cell_angle_beta                 105.965(4)
_cell_angle_gamma                90
_cell_volume                     2316.43
_exptl_crystal_colour            colorless
_exptl_crystal_description       rhombohedral
_cell_formula_units_Z            2
_chemical_properties_physical    Heat-sensitive
_exptl_crystal_recrystallization_method chlorobenzene
_exptl_crystal_preparation       Luminescent
loop_
_atom_site_label
_atom_site_type_symbol
_atom_site_fract_x
_atom_site_fract_y
_atom_site_fract_z
S1 S 0.34756(8) 0.93357(8) 0.01706(6)
O1 O 0.2559(3) 0.8693(3) 0.0265(2)
O2 O 0.4370(3) 0.8684(2) 0.0037(2)
C1 C 0.3321(3) 1.3257(3) 0.0307(2)
C2 C 0.4281(3) 1.3618(3) 0.0153(2)
H1 H 0.4790 1.3077 0.0087
C3 C 0.4489(3) 1.4801(3) 0.00947(19)
C4 C 0.3700(3) 1.5577(3) 0.0214(2)
H2 H 0.3826 1.6365 0.0185
C5 C 0.2740(3) 1.5215(3) 0.0373(2)
H3 H 0.2233 1.5754 0.0449
C6 C 0.2542(3) 1.4044(3) 0.0418(2)
C7 C 0.1605(3) 1.3395(3) 0.0535(2)
C8 C 0.0634(3) 1.3770(4) 0.0685(2)
H4 H 0.0494 1.4553 0.0726
C9 C -0.0115(3) 1.2944(4) 0.0771(3)
H5 H -0.0770 1.3181 0.0864
C10 C 0.0088(3) 1.1779(4) 0.0721(3)
H6 H -0.0426 1.1241 0.0785
C11 C 0.1059(3) 1.1405(3) 0.0577(2)
H7 H 0.1199 1.0620 0.0541
C12 C 0.1808(3) 1.2214(3) 0.0489(2)
C13 C 0.2929(3) 1.2014(3) 0.0332(2)
C14 C 0.2778(3) 1.1455(3) -0.0537(2)
C15 C 0.2345(3) 1.2117(3) -0.1266(2)
H8 H 0.2172 1.2888 -0.1206
C16 C 0.2166(3) 1.1662(4) -0.2070(2)
H9 H 0.1880 1.2126 -0.2544
C17 C 0.2409(4) 1.0526(4) -0.2175(3)
H10 H 0.2277 1.0216 -0.2719
C18 C 0.2844(4) 0.9852(4) -0.1479(3)
H11 H 0.3027 0.9087 -0.1548
C19 C 0.3014(3) 1.0311(3) -0.0666(2)
C20 C 0.3657(3) 1.1356(3) 0.1088(2)
C21 C 0.4016(3) 1.1923(3) 0.1871(2)
H12 H 0.3830 1.2694 0.1911
C22 C 0.4639(4) 1.1366(4) 0.2587(2)
H13 H 0.4853 1.1757 0.3104
C23 C 0.4942(4) 1.0238(4) 0.2540(3)
H14 H 0.5377 0.9868 0.3019
C24 C 0.4603(4) 0.9661(3) 0.1787(3)
H15 H 0.4806 0.8894 0.1753
C25 C 0.3954(3) 1.0211(3) 0.1069(2)
S1B S 0.65244(8) 2.06643(8) -0.01706(6)
O1B O 0.7441(3) 2.1307(3) -0.0265(2)
O2B O 0.5630(3) 2.1316(2) -0.0037(2)
C1B C 0.6679(3) 1.6743(3) -0.0307(2)
C2B C 0.5719(3) 1.6382(3) -0.0153(2)
H1B H 0.5210 1.6923 -0.0087
C3B C 0.5511(3) 1.5199(3) -0.00947(19)
C4B C 0.6300(3) 1.4423(3) -0.0214(2)
H2B H 0.6174 1.3635 -0.0185
C5B C 0.7260(3) 1.4785(3) -0.0373(2)
H3B H 0.7767 1.4246 -0.0449
C6B C 0.7458(3) 1.5956(3) -0.0418(2)
C7B C 0.8395(3) 1.6605(3) -0.0535(2)
C8B C 0.9366(3) 1.6230(4) -0.0685(2)
H4B H 0.9506 1.5447 -0.0726
C9B C 1.0115(3) 1.7056(4) -0.0771(3)
H5B H 1.0770 1.6819 -0.0864
C10B C 0.9912(3) 1.8221(4) -0.0721(3)
H6B H 1.0426 1.8759 -0.0785
C11B C 0.8941(3) 1.8595(3) -0.0577(2)
H7B H 0.8801 1.9380 -0.0541
C12B C 0.8192(3) 1.7786(3) -0.0489(2)
C13B C 0.7071(3) 1.7986(3) -0.0332(2)
C14B C 0.7222(3) 1.8545(3) 0.0537(2)
C15B C 0.7655(3) 1.7883(3) 0.1266(2)
H8B H 0.7828 1.7112 0.1206
C16B C 0.7834(3) 1.8338(4) 0.2070(2)
H9B H 0.8120 1.7874 0.2544
C17B C 0.7591(4) 1.9474(4) 0.2175(3)
H10B H 0.7723 1.9784 0.2719
C18B C 0.7156(4) 2.0148(4) 0.1479(3)
H11B H 0.6973 2.0913 0.1548
C19B C 0.6986(3) 1.9689(3) 0.0666(2)
C20B C 0.6343(3) 1.8644(3) -0.1088(2)
C21B C 0.5984(3) 1.8077(3) -0.1871(2)
H12B H 0.6170 1.7306 -0.1911
C22B C 0.5361(4) 1.8634(4) -0.2587(2)
H13B H 0.5147 1.8243 -0.3104
C23B C 0.5058(4) 1.9762(4) -0.2540(3)
H14B H 0.4623 2.0132 -0.3019
C24B C 0.5397(4) 2.0339(3) -0.1787(3)
H15B H 0.5194 2.1106 -0.1753
C25B C 0.6046(3) 1.9789(3) -0.1069(2)
Cl1 Cl 0.04008(17) 1.06156(18) 0.28238(12)
C26 C 0.1120(5) 0.9507(5) 0.2534(4)
C27 C 0.0606(6) 0.8818(6) 0.1854(4)
H16 H -0.0111 0.8957 0.1542
C28 C 0.1192(8) 0.7920(8) 0.1654(4)
H17 H 0.0856 0.7440 0.1201
C29 C 0.2302(8) 0.7691(7) 0.2115(5)
H18 H 0.2694 0.7097 0.1952
C30 C 0.2764(7) 0.8374(8) 0.2800(5)
H19 H 0.3467 0.8216 0.3135
C31 C 0.2196(6) 0.9297(7) 0.3000(4)
H20 H 0.2533 0.9783 0.3449
loop_
_geom_bond_atom_site_label_1
_geom_bond_atom_site_label_2
_geom_bond_site_symmetry_1
_geom_bond_site_symmetry_2
S1 O1 1_555 1_555
O2 S1 1_555 1_555
C1 C2 1_555 1_555
C2 H1 1_555 1_555
C3 C2 1_555 1_555
C4 C3 1_555 1_555
H2 C4 1_555 1_555
C5 C4 1_555 1_555
H3 C5 1_555 1_555
C6 C1 1_555 1_555
C7 C6 1_555 1_555
C8 C7 1_555 1_555
H4 C8 1_555 1_555
C9 C8 1_555 1_555
H5 C9 1_555 1_555
C10 C9 1_555 1_555
H6 C10 1_555 1_555
C11 C10 1_555 1_555
H7 C11 1_555 1_555
C12 C7 1_555 1_555
C13 C1 1_555 1_555
C14 C13 1_555 1_555
C15 C14 1_555 1_555
H8 C15 1_555 1_555
C16 C15 1_555 1_555
H9 C16 1_555 1_555
C17 C16 1_555 1_555
H10 C17 1_555 1_555
C18 C17 1_555 1_555
H11 C18 1_555 1_555
C19 S1 1_555 1_555
C20 C13 1_555 1_555
C21 C20 1_555 1_555
H12 C21 1_555 1_555
C22 C21 1_555 1_555
H13 C22 1_555 1_555
C23 C22 1_555 1_555
H14 C23 1_555 1_555
C24 C23 1_555 1_555
H15 C24 1_555 1_555
C25 S1 1_555 1_555
Cl1 C26 1_555 1_555
C26 C27 1_555 1_555
C27 H16 1_555 1_555
C28 C27 1_555 1_555
H17 C28 1_555 1_555
C29 C28 1_555 1_555
H18 C29 1_555 1_555
C30 C29 1_555 1_555
H19 C30 1_555 1_555
C31 C26 1_555 1_555
H20 C31 1_555 1_555
S1B O1B 1_555 1_555
O2B S1B 1_555 1_555
C1B C2B 1_555 1_555
C2B H1B 1_555 1_555
C3B C3 1_555 1_555
C4B C3B 1_555 1_555
H2B C4B 1_555 1_555
C5B C4B 1_555 1_555
H3B C5B 1_555 1_555
C6B C1B 1_555 1_555
C7B C6B 1_555 1_555
C8B C7B 1_555 1_555
H4B C8B 1_555 1_555
C9B C8B 1_555 1_555
H5B C9B 1_555 1_555
C10B C9B 1_555 1_555
H6B C10B 1_555 1_555
C11B C10B 1_555 1_555
H7B C11B 1_555 1_555
C12B C7B 1_555 1_555
C13B C1B 1_555 1_555
C14B C13B 1_555 1_555
C15B C14B 1_555 1_555
H8B C15B 1_555 1_555
C16B C15B 1_555 1_555
H9B C16B 1_555 1_555
C17B C16B 1_555 1_555
H10B C17B 1_555 1_555
C18B C17B 1_555 1_555
H11B C18B 1_555 1_555
C19B S1B 1_555 1_555
C20B C13B 1_555 1_555
C21B C20B 1_555 1_555
H12B C21B 1_555 1_555
C22B C21B 1_555 1_555
H13B C22B 1_555 1_555
C23B C22B 1_555 1_555
H14B C23B 1_555 1_555
C24B C23B 1_555 1_555
H15B C24B 1_555 1_555
C25B S1B 1_555 1_555
C5 C6 1_555 1_555
C11 C12 1_555 1_555
C12 C13 1_555 1_555
C14 C19 1_555 1_555
C18 C19 1_555 1_555
C20 C25 1_555 1_555
C24 C25 1_555 1_555
C30 C31 1_555 1_555
C2B C3B 1_555 1_555
C5B C6B 1_555 1_555
C11B C12B 1_555 1_555
C12B C13B 1_555 1_555
C14B C19B 1_555 1_555
C18B C19B 1_555 1_555
C20B C25B 1_555 1_555
C24B C25B 1_555 1_555

#END
