
#######################################################################
#
#                 Cambridge Crystallographic Data Centre
#                                CCDC 
#
#######################################################################
#
# If this CIF has been generated from an entry in the Cambridge 
# Structural Database, then it will include bibliographic, chemical, 
# crystal, experimental, refinement or atomic coordinate data resulting 
# from the CCDC's data processing and validation procedures.
#
#######################################################################

data_YILHUZ
_chemical_formula_moiety         'C50 H30 O2,C7 H8'
_chemical_name_systematic        
"2,2'-bi(spiro[fluorene-9,9'-xanthene]) toluene solvate"
_symmetry_cell_setting           triclinic
_symmetry_space_group_name_H-M   'P -1'
_symmetry_Int_Tables_number      2
_space_group_name_Hall           '-P 1'
loop_
_symmetry_equiv_pos_site_id
_symmetry_equiv_pos_as_xyz
1 x,y,z
2 -x,-y,-z
_cell_length_a                   9.052(6)
_cell_length_b                   9.102(7)
_cell_length_c                   12.435(9)
_cell_angle_alpha                83.587(13)
_cell_angle_beta                 80.720(14)
_cell_angle_gamma                71.417(14)
_cell_volume                     956.416
_exptl_crystal_colour            colorless
_exptl_crystal_description       plate
_cell_formula_units_Z            1
_chemical_properties_physical    Heat-sensitive
_exptl_crystal_recrystallization_method toluene
_exptl_crystal_preparation       Luminescent
loop_
_atom_site_label
_atom_site_type_symbol
_atom_site_fract_x
_atom_site_fract_y
_atom_site_fract_z
C26 C 0.9428(11) 0.5736(18) 0.0924(7)
H16 H 0.9006 0.6292 0.1563
C27 C 0.9068(12) 0.4421(17) 0.0841(8)
H17 H 0.8462 0.4019 0.1425
C28 C 0.9608(12) 0.3696(16) -0.0109(8)
C29 C 0.918(3) 0.257(3) -0.018(2)
H18 H 0.8103 0.2919 -0.0356
H19 H 0.9215 0.1955 0.0525
H20 H 0.9881 0.1930 -0.0748
C26A C 1.0572(11) 0.4264(18) -0.0924(7)
H16A H 1.0994 0.3708 -0.1563
C27A C 1.0932(12) 0.5579(17) -0.0841(8)
H17A H 1.1538 0.5981 -0.1425
C28A C 1.0392(12) 0.6304(16) 0.0109(8)
C29A C 1.082(3) 0.743(3) 0.018(2)
H18A H 1.1897 0.7081 0.0356
H19A H 1.0785 0.8045 -0.0525
H20A H 1.0119 0.8070 0.0748
O1 O 0.6271(4) 0.4293(4) 0.3768(3)
C1 C 0.3760(4) 0.5487(4) 0.3045(3)
C2 C 0.4029(4) 0.7049(4) 0.2784(3)
C3 C 0.5503(5) 0.7054(5) 0.3220(3)
C4 C 0.0451(4) 0.9884(4) 0.4440(3)
C5 C 0.4642(6) 0.2773(5) 0.3703(4)
H1 H 0.5410 0.1927 0.4012
C6 C 0.2402(5) 0.5257(5) 0.2810(3)
H2 H 0.1626 0.6103 0.2509
C7 C 0.1811(4) 0.8595(4) 0.4237(3)
H3 H 0.2189 0.7874 0.4820
C8 C 0.6523(5) 0.5695(5) 0.3660(4)
C9 C 0.4869(5) 0.4222(5) 0.3498(3)
C10 C 0.2062(5) 0.9451(5) 0.2318(3)
C11 C 0.2589(4) 0.8391(4) 0.3182(3)
C12 C -0.0055(5) 1.0926(5) 0.3561(3)
H4 H -0.0966 1.1797 0.3688
C13 C 0.7916(5) 0.5694(6) 0.4009(4)
H5 H 0.8591 0.4760 0.4305
C14 C 0.3283(5) 0.2574(5) 0.3454(4)
H6 H 0.3116 0.1587 0.3590
C15 C 0.2162(5) 0.3821(5) 0.3005(4)
H7 H 0.1231 0.3684 0.2832
C16 C 0.4160(5) 0.7486(5) 0.1548(3)
C17 C 0.3056(6) 0.8900(5) 0.1304(3)
C18 C 0.5924(6) 0.8405(6) 0.3162(4)
H8 H 0.5248 0.9348 0.2880
C19 C 0.7298(6) 0.8410(6) 0.3504(4)
H9 H 0.7556 0.9351 0.3451
C20 C 0.8308(6) 0.7048(6) 0.3926(4)
H10 H 0.9259 0.7053 0.4155
C21 C 0.5193(5) 0.6644(5) 0.0723(4)
H11 H 0.5941 0.5673 0.0886
C22 C 0.0737(5) 1.0723(5) 0.2508(3)
H12 H 0.0373 1.1448 0.1925
C23 C 0.3005(8) 0.9523(7) 0.0233(4)
H13 H 0.2279 1.0507 0.0070
C24 C 0.4044(9) 0.8673(8) -0.0601(4)
H14 H 0.4020 0.9071 -0.1340
C25 C 0.5106(7) 0.7255(7) -0.0347(4)
H15 H 0.5796 0.6682 -0.0920
O1A O -0.6271(4) 1.5707(4) 0.6232(3)
C1A C -0.3760(4) 1.4513(4) 0.6955(3)
C2A C -0.4029(4) 1.2951(4) 0.7216(3)
C3A C -0.5503(5) 1.2946(5) 0.6780(3)
C4A C -0.0451(4) 1.0116(4) 0.5560(3)
C5A C -0.4642(6) 1.7227(5) 0.6297(4)
H1A H -0.5410 1.8073 0.5988
C6A C -0.2402(5) 1.4743(5) 0.7190(3)
H2A H -0.1626 1.3897 0.7491
C7A C -0.1811(4) 1.1405(4) 0.5763(3)
H3A H -0.2189 1.2126 0.5180
C8A C -0.6523(5) 1.4305(5) 0.6340(4)
C9A C -0.4869(5) 1.5778(5) 0.6502(3)
C10A C -0.2062(5) 1.0549(5) 0.7682(3)
C11A C -0.2589(4) 1.1609(4) 0.6818(3)
C12A C 0.0055(5) 0.9074(5) 0.6439(3)
H4A H 0.0966 0.8203 0.6312
C13A C -0.7916(5) 1.4306(6) 0.5991(4)
H5A H -0.8591 1.5240 0.5695
C14A C -0.3283(5) 1.7426(5) 0.6546(4)
H6A H -0.3116 1.8413 0.6410
C15A C -0.2162(5) 1.6179(5) 0.6995(4)
H7A H -0.1231 1.6316 0.7168
C16A C -0.4160(5) 1.2514(5) 0.8452(3)
C17A C -0.3056(6) 1.1100(5) 0.8696(3)
C18A C -0.5924(6) 1.1595(6) 0.6838(4)
H8A H -0.5248 1.0652 0.7120
C19A C -0.7298(6) 1.1590(6) 0.6496(4)
H9A H -0.7556 1.0649 0.6549
C20A C -0.8308(6) 1.2952(6) 0.6074(4)
H10A H -0.9259 1.2947 0.5845
C21A C -0.5193(5) 1.3356(5) 0.9277(4)
H11A H -0.5941 1.4327 0.9114
C22A C -0.0737(5) 0.9277(5) 0.7492(3)
H12A H -0.0373 0.8552 0.8075
C23A C -0.3005(8) 1.0477(7) 0.9767(4)
H13A H -0.2279 0.9493 0.9930
C24A C -0.4044(9) 1.1327(8) 1.0601(4)
H14A H -0.4020 1.0929 1.1340
C25A C -0.5106(7) 1.2745(7) 1.0347(4)
H15A H -0.5796 1.3318 1.0920
loop_
_geom_bond_atom_site_label_1
_geom_bond_atom_site_label_2
_geom_bond_site_symmetry_1
_geom_bond_site_symmetry_2
O1 C8 1_555 1_555
C1 C2 1_555 1_555
C2 C3 1_555 1_555
C3 C8 1_555 1_555
C4 C7 1_555 1_555
C5 H1 1_555 1_555
C6 C1 1_555 1_555
H2 C6 1_555 1_555
C7 H3 1_555 1_555
C8 C13 1_555 1_555
C9 O1 1_555 1_555
C10 C11 1_555 1_555
C11 C2 1_555 1_555
C12 C4 1_555 1_555
H4 C12 1_555 1_555
C13 H5 1_555 1_555
C14 C5 1_555 1_555
H6 C14 1_555 1_555
C15 C6 1_555 1_555
H7 C15 1_555 1_555
C16 C2 1_555 1_555
C17 C10 1_555 1_555
C18 C3 1_555 1_555
H8 C18 1_555 1_555
C19 C18 1_555 1_555
H9 C19 1_555 1_555
C20 C13 1_555 1_555
H10 C20 1_555 1_555
C21 C16 1_555 1_555
H11 C21 1_555 1_555
C22 C10 1_555 1_555
H12 C22 1_555 1_555
C23 C17 1_555 1_555
H13 C23 1_555 1_555
C24 C23 1_555 1_555
H14 C24 1_555 1_555
C25 C21 1_555 1_555
H15 C25 1_555 1_555
C26 H16 1_555 1_555
C27 C26 1_555 1_555
H17 C27 1_555 1_555
C28 C27 1_555 1_555
C29 C28 1_555 1_555
H18 C29 1_555 1_555
H19 C29 1_555 1_555
H20 C29 1_555 1_555
O1A C8A 1_555 1_555
C1A C2A 1_555 1_555
C2A C3A 1_555 1_555
C3A C8A 1_555 1_555
C4A C4 1_555 1_555
C5A H1A 1_555 1_555
C6A C1A 1_555 1_555
H2A C6A 1_555 1_555
C7A C4A 1_555 1_555
H3A C7A 1_555 1_555
C8A C13A 1_555 1_555
C9A O1A 1_555 1_555
C10A C11A 1_555 1_555
C11A C2A 1_555 1_555
C12A C4A 1_555 1_555
H4A C12A 1_555 1_555
C13A H5A 1_555 1_555
C14A C5A 1_555 1_555
H6A C14A 1_555 1_555
C15A C6A 1_555 1_555
H7A C15A 1_555 1_555
C16A C2A 1_555 1_555
C17A C10A 1_555 1_555
C18A C3A 1_555 1_555
H8A C18A 1_555 1_555
C19A C18A 1_555 1_555
H9A C19A 1_555 1_555
C20A C13A 1_555 1_555
H10A C20A 1_555 1_555
C21A C16A 1_555 1_555
H11A C21A 1_555 1_555
C22A C10A 1_555 1_555
H12A C22A 1_555 1_555
C23A C17A 1_555 1_555
H13A C23A 1_555 1_555
C24A C23A 1_555 1_555
H14A C24A 1_555 1_555
C25A C21A 1_555 1_555
H15A C25A 1_555 1_555
C26A C28 1_555 1_555
H16A C26A 1_555 1_555
C27A C26A 1_555 1_555
H17A C27A 1_555 1_555
C28A C26 1_555 1_555
C29A C28A 1_555 1_555
H18A C29A 1_555 1_555
H19A C29A 1_555 1_555
H20A C29A 1_555 1_555
C1 C9 1_555 1_555
C5 C9 1_555 1_555
C7 C11 1_555 1_555
C12 C22 1_555 1_555
C14 C15 1_555 1_555
C16 C17 1_555 1_555
C19 C20 1_555 1_555
C24 C25 1_555 1_555
C1A C9A 1_555 1_555
C5A C9A 1_555 1_555
C7A C11A 1_555 1_555
C12A C22A 1_555 1_555
C14A C15A 1_555 1_555
C16A C17A 1_555 1_555
C19A C20A 1_555 1_555
C24A C25A 1_555 1_555
C27A C28A 1_555 1_555

#END
