
#######################################################################
#
#                 Cambridge Crystallographic Data Centre
#                                CCDC 
#
#######################################################################
#
# If this CIF has been generated from an entry in the Cambridge 
# Structural Database, then it will include bibliographic, chemical, 
# crystal, experimental, refinement or atomic coordinate data resulting 
# from the CCDC's data processing and validation procedures.
#
#######################################################################

data_YILJIP
_chemical_formula_moiety         'C20 H20 O3'
_chemical_name_systematic        
2-hydroxy-3-methyl-2-phenyl-3-propanoyl-3,4-dihydronaphthalen-1(2H)-one
_symmetry_cell_setting           triclinic
_symmetry_space_group_name_H-M   'P -1'
_symmetry_Int_Tables_number      2
_space_group_name_Hall           '-P 1'
loop_
_symmetry_equiv_pos_site_id
_symmetry_equiv_pos_as_xyz
1 x,y,z
2 -x,-y,-z
_cell_length_a                   8.4310(6)
_cell_length_b                   8.6965(5)
_cell_length_c                   11.7742(5)
_cell_angle_alpha                80.603(4)
_cell_angle_beta                 87.055(4)
_cell_angle_gamma                65.920(6)
_cell_volume                     777.473
_exptl_crystal_colour            colorless
_exptl_crystal_description       prism
_cell_formula_units_Z            2
loop_
_atom_site_label
_atom_site_type_symbol
_atom_site_fract_x
_atom_site_fract_y
_atom_site_fract_z
O1 O 0.44995(11) 0.73369(11) 0.37305(8)
H1 H 0.457683 0.667791 0.432957
O2 O 0.61386(12) 0.39948(11) 0.40348(8)
O3 O 0.63388(12) 0.99159(12) 0.11671(8)
C1 C 0.78104(15) 0.47387(16) 0.12203(11)
C2 C 0.87293(16) 0.38230(17) 0.03567(11)
H2 H 0.885450 0.440664 -0.035397
C3 C 0.94573(16) 0.20572(17) 0.05437(12)
H3 H 1.009174 0.146738 -0.003417
C4 C 0.92458(16) 0.11569(17) 0.15923(12)
H4 H 0.973441 -0.002895 0.171447
C5 C 0.83071(16) 0.20385(16) 0.24460(11)
H5 H 0.814239 0.144688 0.314223
C6 C 0.76004(15) 0.38247(16) 0.22667(11)
C7 C 0.65760(15) 0.47328(16) 0.31901(10)
C8 C 0.60298(15) 0.66779(15) 0.30918(10)
C9 C 0.55931(15) 0.75331(15) 0.18012(10)
C10 C 0.71331(16) 0.66548(16) 0.10444(11)
H6 H 0.678202 0.708820 0.024331
H7 H 0.807369 0.696742 0.119596
C11 C 0.39582(16) 0.73838(17) 0.13999(12)
H8 H 0.365530 0.797137 0.062619
H9 H 0.301356 0.788385 0.189904
H10 H 0.418705 0.620312 0.142430
C12 C 0.52915(16) 0.94342(16) 0.16662(10)
C13 C 0.36417(17) 1.06869(16) 0.21178(12)
H11 H 0.333868 1.013208 0.282607
H12 H 0.270779 1.100185 0.156251
C14 C 0.37814(19) 1.23038(18) 0.23507(13)
H13 H 0.458062 1.202381 0.298039
H14 H 0.265918 1.310218 0.254271
H15 H 0.419214 1.280207 0.167536
C15 C 0.74983(16) 0.70033(15) 0.35943(10)
C16 C 0.70573(17) 0.82560(16) 0.43004(11)
H16 H 0.589734 0.885053 0.447051
C17 C 0.83274(19) 0.86264(17) 0.47522(12)
H17 H 0.801079 0.946215 0.522311
C18 C 1.00566(19) 0.77629(18) 0.45074(12)
H18 H 1.090223 0.802719 0.480028
C19 C 1.05219(18) 0.64952(17) 0.38195(12)
H19 H 1.168558 0.589909 0.365903
C20 C 0.92551(16) 0.61132(16) 0.33695(11)
H20 H 0.958074 0.525706 0.291467
loop_
_geom_bond_atom_site_label_1
_geom_bond_atom_site_label_2
_geom_bond_site_symmetry_1
_geom_bond_site_symmetry_2
O1 H1 1_555 1_555
O2 C7 1_555 1_555
O3 C12 1_555 1_555
C1 C2 1_555 1_555
C2 H2 1_555 1_555
C3 C2 1_555 1_555
H3 C3 1_555 1_555
C4 C3 1_555 1_555
H4 C4 1_555 1_555
C5 C4 1_555 1_555
H5 C5 1_555 1_555
C6 C1 1_555 1_555
C7 C6 1_555 1_555
C8 O1 1_555 1_555
C9 C8 1_555 1_555
C10 C1 1_555 1_555
H6 C10 1_555 1_555
H7 C10 1_555 1_555
C11 C9 1_555 1_555
H8 C11 1_555 1_555
H9 C11 1_555 1_555
H10 C11 1_555 1_555
C12 C9 1_555 1_555
C13 C12 1_555 1_555
H11 C13 1_555 1_555
H12 C13 1_555 1_555
C14 C13 1_555 1_555
H13 C14 1_555 1_555
H14 C14 1_555 1_555
H15 C14 1_555 1_555
C15 C8 1_555 1_555
C16 C15 1_555 1_555
H16 C16 1_555 1_555
C17 C16 1_555 1_555
H17 C17 1_555 1_555
C18 C17 1_555 1_555
H18 C18 1_555 1_555
C19 C18 1_555 1_555
H19 C19 1_555 1_555
C20 C15 1_555 1_555
H20 C20 1_555 1_555
C5 C6 1_555 1_555
C7 C8 1_555 1_555
C9 C10 1_555 1_555
C19 C20 1_555 1_555

#END
