
#######################################################################
#
#                 Cambridge Crystallographic Data Centre
#                                CCDC 
#
#######################################################################
#
# If this CIF has been generated from an entry in the Cambridge 
# Structural Database, then it will include bibliographic, chemical, 
# crystal, experimental, refinement or atomic coordinate data resulting 
# from the CCDC's data processing and validation procedures.
#
#######################################################################

data_YILMEL01
_chemical_formula_moiety         'C16 H10 O4'
_chemical_name_systematic        "cis-2,2'-Ethynylenedibenzoic acid"
_symmetry_cell_setting           monoclinic
_symmetry_space_group_name_H-M   'C 2/c'
_symmetry_Int_Tables_number      15
_space_group_name_Hall           '-C 2yn'
loop_
_symmetry_equiv_pos_site_id
_symmetry_equiv_pos_as_xyz
1 x,y,z
2 -x,y,1/2-z
3 1/2+x,1/2+y,z
4 1/2-x,1/2+y,1/2-z
5 -x,-y,-z
6 x,-y,1/2+z
7 1/2-x,1/2-y,-z
8 1/2+x,1/2-y,1/2+z
_cell_length_a                   11.801(1)
_cell_length_b                   13.233(1)
_cell_length_c                   7.874(1)
_cell_angle_alpha                90
_cell_angle_beta                 90.326(1)
_cell_angle_gamma                90
_cell_volume                     1229.6
_cell_formula_units_Z            4
loop_
_atom_site_label
_atom_site_type_symbol
_atom_site_fract_x
_atom_site_fract_y
_atom_site_fract_z
O1 O 0.01932(8) 0.38216(7) 0.05393(12)
O2 O -0.10826(8) 0.44258(7) -0.13191(12)
C1 C -0.10587(6) 0.26669(6) -0.08362(9)
C2 C -0.08085(6) 0.18295(6) 0.02177(9)
C3 C -0.12199(7) 0.08753(6) -0.02639(10)
C4 C -0.18899(8) 0.07545(7) -0.17071(11)
C5 C -0.21586(8) 0.15867(8) -0.27167(11)
C6 C -0.17363(7) 0.25338(7) -0.22814(10)
C7 C -0.05968(6) 0.36861(6) -0.04584(9)
C8 C -0.02155(7) 0.18981(5) 0.17983(10)
H1 H -0.10196 0.02247 0.05211
H2 H -0.22040 0.00060 -0.20165
H3 H -0.26803 0.15057 -0.38480
H4 H -0.19274 0.31806 -0.30762
H5 H -0.07287 0.50427 -0.10008
C8A C 0.02155(7) 0.18981(5) 0.32017(10)
C2A C 0.08085(6) 0.18295(6) 0.47823(9)
C1A C 0.10587(6) 0.26669(6) 0.58362(9)
C6A C 0.17363(7) 0.25338(7) 0.72814(10)
C5A C 0.21586(8) 0.15867(8) 0.77167(11)
C4A C 0.18899(8) 0.07545(7) 0.67071(11)
C3A C 0.12199(7) 0.08753(6) 0.52639(10)
H1A H 0.10196 0.02247 0.44789
H2A H 0.22040 0.00060 0.70165
H3A H 0.26803 0.15057 0.88480
H4A H 0.19274 0.31806 0.80762
C7A C 0.05968(6) 0.36861(6) 0.54584(9)
O1A O -0.01932(8) 0.38216(7) 0.44607(12)
O2A O 0.10826(8) 0.44258(7) 0.63191(12)
H5A H 0.07287 0.50427 0.60008
loop_
_geom_bond_atom_site_label_1
_geom_bond_atom_site_label_2
_geom_bond_site_symmetry_1
_geom_bond_site_symmetry_2
O1 C7 1_555 1_555
O2 C7 1_555 1_555
C1 C2 1_555 1_555
C2 C3 1_555 1_555
C3 C4 1_555 1_555
C4 C5 1_555 1_555
C5 C6 1_555 1_555
C6 C1 1_555 1_555
C7 C1 1_555 1_555
C8 C2 1_555 1_555
H1 C3 1_555 1_555
H2 C4 1_555 1_555
H3 C5 1_555 1_555
H4 C6 1_555 1_555
H5 O2 1_555 1_555
C8A C8 1_555 1_555
C2A C8A 1_555 1_555
C1A C2A 1_555 1_555
C6A C1A 1_555 1_555
C5A C6A 1_555 1_555
C4A C5A 1_555 1_555
C3A C2A 1_555 1_555
H1A C3A 1_555 1_555
H2A C4A 1_555 1_555
H3A C5A 1_555 1_555
H4A C6A 1_555 1_555
C7A C1A 1_555 1_555
O1A C7A 1_555 1_555
O2A C7A 1_555 1_555
H5A O2A 1_555 1_555
C4A C3A 1_555 1_555

#END
