
#######################################################################
#
#                 Cambridge Crystallographic Data Centre
#                                CCDC 
#
#######################################################################
#
# If this CIF has been generated from an entry in the Cambridge 
# Structural Database, then it will include bibliographic, chemical, 
# crystal, experimental, refinement or atomic coordinate data resulting 
# from the CCDC's data processing and validation procedures.
#
#######################################################################

data_YILSUK
_chemical_formula_moiety         'C12 H11 F1 N2 O1'
_chemical_name_systematic        
(3-fluoro-1,4-dimethyl-2-oxo-2,3-dihydro-1H-indol-3-yl)acetonitrile
_symmetry_cell_setting           hexagonal
_symmetry_space_group_name_H-M   'P 65'
_symmetry_Int_Tables_number      170
_space_group_name_Hall           'P 65'
loop_
_symmetry_equiv_pos_site_id
_symmetry_equiv_pos_as_xyz
1 x,y,z
2 x-y,x,5/6+z
3 y,-x+y,1/6+z
4 -y,x-y,2/3+z
5 -x+y,-x,1/3+z
6 -x,-y,1/2+z
_cell_length_a                   9.5218(2)
_cell_length_b                   9.5218(2)
_cell_length_c                   20.5131(5)
_cell_angle_alpha                90
_cell_angle_beta                 90
_cell_angle_gamma                120
_cell_volume                     1610.65
_exptl_crystal_colour            yellow
_exptl_crystal_description       block
_cell_formula_units_Z            6
loop_
_atom_site_label
_atom_site_type_symbol
_atom_site_fract_x
_atom_site_fract_y
_atom_site_fract_z
F1 F 0.92805(10) 0.33836(10) 0.55589(4)
O1 O 1.24378(13) 0.55725(13) 0.49773(5)
N1 N 1.09773(15) 0.68580(14) 0.47915(6)
N2 N 1.13596(19) 0.17523(18) 0.46162(7)
C1 C 0.83522(18) 0.47204(17) 0.48235(6)
C2 C 0.94567(16) 0.40359(17) 0.49274(7)
C3 C 0.66731(18) 0.39943(18) 0.48214(7)
C4 C 0.93213(18) 0.63942(18) 0.47374(7)
C5 C 0.55698(19) 0.22189(19) 0.49514(8)
H1 H 0.5706(12) 0.15958(19) 0.4615(4)
H2 H 0.5834(11) 0.1944(4) 0.5366(3)
H3 H 0.4465(2) 0.1983(3) 0.4956(6)
C6 C 1.11687(17) 0.55665(17) 0.49030(7)
C7 C 1.0473(2) 0.22218(18) 0.45432(8)
C8 C 0.6024(2) 0.5009(2) 0.47115(8)
H4 H 0.4904(2) 0.4560(2) 0.46994(8)
C9 C 0.8682(2) 0.73931(19) 0.46353(8)
H5 H 0.9343(2) 0.85056(19) 0.45790(8)
C10 C 0.92755(19) 0.27503(18) 0.44452(7)
H6 H 0.81941(19) 0.18179(18) 0.44846(7)
H7 H 0.93893(19) 0.31749(18) 0.40066(7)
C11 C 1.23068(19) 0.85261(18) 0.47947(8)
H8 H 1.2284(9) 0.9055(5) 0.4400(3)
H9 H 1.2196(9) 0.9087(5) 0.5162(4)
H10 H 1.3319(2) 0.85375(18) 0.4824(6)
C12 C 0.7007(2) 0.6660(2) 0.46205(9)
H11 H 0.6532(2) 0.7295(2) 0.45477(9)
loop_
_geom_bond_atom_site_label_1
_geom_bond_atom_site_label_2
_geom_bond_site_symmetry_1
_geom_bond_site_symmetry_2
F1 C2 1_555 1_555
O1 C6 1_555 1_555
N1 C4 1_555 1_555
N2 C7 1_555 1_555
C1 C2 1_555 1_555
C2 C6 1_555 1_555
C3 C1 1_555 1_555
C4 C1 1_555 1_555
C5 C3 1_555 1_555
H1 C5 1_555 1_555
H2 C5 1_555 1_555
H3 C5 1_555 1_555
C6 N1 1_555 1_555
C7 C10 1_555 1_555
C8 C3 1_555 1_555
H4 C8 1_555 1_555
C9 C4 1_555 1_555
H5 C9 1_555 1_555
C10 C2 1_555 1_555
H6 C10 1_555 1_555
H7 C10 1_555 1_555
C11 N1 1_555 1_555
H8 C11 1_555 1_555
H9 C11 1_555 1_555
H10 C11 1_555 1_555
C12 C8 1_555 1_555
H11 C12 1_555 1_555
C9 C12 1_555 1_555

#END
