
#######################################################################
#
#                 Cambridge Crystallographic Data Centre
#                                CCDC 
#
#######################################################################
#
# If this CIF has been generated from an entry in the Cambridge 
# Structural Database, then it will include bibliographic, chemical, 
# crystal, experimental, refinement or atomic coordinate data resulting 
# from the CCDC's data processing and validation procedures.
#
#######################################################################

data_YILVUL
_chemical_formula_moiety         'C14 H12 N2 O4,H2 O1'
_chemical_name_systematic        
"2,6-Dimethyl-4,4'-bipyridinium-3,5-dicarboxylate monohydrate"
_symmetry_cell_setting           monoclinic
_symmetry_space_group_name_H-M   'P 21/n'
_symmetry_Int_Tables_number      14
_space_group_name_Hall           '-P 2yn'
loop_
_symmetry_equiv_pos_site_id
_symmetry_equiv_pos_as_xyz
1 x,y,z
2 1/2-x,1/2+y,1/2-z
3 -x,-y,-z
4 1/2+x,1/2-y,1/2+z
_cell_length_a                   7.850(2)
_cell_length_b                   12.247(3)
_cell_length_c                   13.592(4)
_cell_angle_alpha                90
_cell_angle_beta                 100.190(4)
_cell_angle_gamma                90
_cell_volume                     1286.11
_cell_formula_units_Z            4
_exptl_crystal_recrystallization_method ethanol/water
loop_
_atom_site_label
_atom_site_type_symbol
_atom_site_fract_x
_atom_site_fract_y
_atom_site_fract_z
N1 N 0.2508(3) -0.04902(17) 0.50101(14)
H1 H 0.2453 -0.1191 0.4991
N2 N 0.2600(3) 0.5216(2) 0.50757(17)
H2 H 0.2570 0.5917 0.5077
O1 O 0.2425(3) 0.16336(19) 0.24989(14)
O2 O 0.4786(3) 0.22912(18) 0.34649(13)
O3 O 0.3181(3) 0.15736(19) 0.76077(14)
O4 O 0.0643(3) 0.2175(2) 0.68468(14)
C1 C 0.2857(3) 0.0044(2) 0.42106(17)
C2 C 0.2940(3) 0.11800(19) 0.42207(16)
C3 C 0.2667(3) 0.1753(2) 0.50751(16)
C4 C 0.2332(3) 0.1157(2) 0.58978(16)
C5 C 0.2240(3) 0.0023(2) 0.58374(17)
C6 C 0.3142(4) -0.0642(2) 0.33352(19)
H5 H 0.3033 -0.1401 0.3492
H6 H 0.4280 -0.0507 0.3196
H7 H 0.2294 -0.0457 0.2760
C7 C 0.3359(3) 0.1742(2) 0.33050(18)
C8 C 0.2054(3) 0.1688(2) 0.68737(18)
C9 C 0.1820(4) -0.0681(2) 0.6667(2)
H8 H 0.1822 -0.1434 0.6472
H9 H 0.0697 -0.0490 0.6800
H10 H 0.2672 -0.0569 0.7258
C10 C 0.1581(4) 0.4657(2) 0.4368(2)
H11 H 0.0845 0.5037 0.3874
C11 C 0.1577(4) 0.3539(2) 0.43420(18)
H12 H 0.0848 0.3169 0.3837
C12 C 0.2679(3) 0.2961(2) 0.50810(17)
C13 C 0.3746(4) 0.3558(2) 0.58153(18)
H13 H 0.4501 0.3204 0.6320
C14 C 0.3667(4) 0.4680(2) 0.5783(2)
H14 H 0.4385 0.5078 0.6272
O5 O 0.1828(3) 0.73366(18) 0.48012(16)
H3 H 0.2700 0.7743 0.4748
H4 H 0.1112 0.7437 0.4262
loop_
_geom_bond_atom_site_label_1
_geom_bond_atom_site_label_2
_geom_bond_site_symmetry_1
_geom_bond_site_symmetry_2
N1 H1 1_555 1_555
N2 H2 1_555 1_555
O1 C7 1_555 1_555
O2 C7 1_555 1_555
O3 C8 1_555 1_555
O4 C8 1_555 1_555
O5 H3 1_555 1_555
H4 O5 1_555 1_555
C1 N1 1_555 1_555
C2 C1 1_555 1_555
C3 C2 1_555 1_555
C4 C3 1_555 1_555
C5 N1 1_555 1_555
C6 C1 1_555 1_555
H5 C6 1_555 1_555
H6 C6 1_555 1_555
H7 C6 1_555 1_555
C7 C2 1_555 1_555
C8 C4 1_555 1_555
C9 C5 1_555 1_555
H8 C9 1_555 1_555
H9 C9 1_555 1_555
H10 C9 1_555 1_555
C10 N2 1_555 1_555
H11 C10 1_555 1_555
C11 C10 1_555 1_555
H12 C11 1_555 1_555
C12 C3 1_555 1_555
C13 C12 1_555 1_555
H13 C13 1_555 1_555
C14 N2 1_555 1_555
H14 C14 1_555 1_555
C4 C5 1_555 1_555
C11 C12 1_555 1_555
C13 C14 1_555 1_555

#END
