
#######################################################################
#
#                 Cambridge Crystallographic Data Centre
#                                CCDC 
#
#######################################################################
#
# If this CIF has been generated from an entry in the Cambridge 
# Structural Database, then it will include bibliographic, chemical, 
# crystal, experimental, refinement or atomic coordinate data resulting 
# from the CCDC's data processing and validation procedures.
#
#######################################################################

data_YILZUQ
_chemical_formula_moiety         'C16 H9 F4 N1 O1'
_chemical_name_systematic        
1-(1-(2,3,5,6-Tetrafluorophenyl)-1H-indol-3-yl)ethanone
_symmetry_cell_setting           monoclinic
_symmetry_space_group_name_H-M   'P 21/c'
_symmetry_Int_Tables_number      14
_space_group_name_Hall           '-P 2ybc'
loop_
_symmetry_equiv_pos_site_id
_symmetry_equiv_pos_as_xyz
1 x,y,z
2 -x,1/2+y,1/2-z
3 -x,-y,-z
4 x,1/2-y,1/2+z
_cell_length_a                   30.48(4)
_cell_length_b                   7.758(9)
_cell_length_c                   11.345(14)
_cell_angle_alpha                90
_cell_angle_beta                 98.466(14)
_cell_angle_gamma                90
_cell_volume                     2653.45
_exptl_crystal_colour            colorless
_exptl_crystal_description       NEEDLE
_cell_formula_units_Z            8
loop_
_atom_site_label
_atom_site_type_symbol
_atom_site_fract_x
_atom_site_fract_y
_atom_site_fract_z
C1 C 0.07929(15) 0.6401(6) 0.5822(4)
H1 H 0.0594 0.6914 0.6262
C2 C 0.07226(16) 0.6196(6) 0.4607(4)
C3 C 0.11087(17) 0.5320(6) 0.4292(4)
C4 C 0.1235(2) 0.4757(7) 0.3232(4)
H2 H 0.1050 0.4912 0.2513
C5 C 0.1637(2) 0.3970(7) 0.3261(5)
H3 H 0.1721 0.3578 0.2552
C6 C 0.1925(2) 0.3738(7) 0.4318(5)
H4 H 0.2199 0.3216 0.4301
C7 C 0.18116(19) 0.4269(7) 0.5388(5)
H5 H 0.2001 0.4096 0.6100
C8 C 0.14068(16) 0.5067(6) 0.5366(4)
C9 C 0.13634(15) 0.5671(6) 0.7520(4)
C10 C 0.11081(17) 0.4974(6) 0.8313(4)
C11 C 0.1261(2) 0.4907(7) 0.9505(4)
C12 C 0.1676(2) 0.5504(7) 0.9955(5)
H6 H 0.1780 0.5446 1.0766
C13 C 0.19305(18) 0.6183(7) 0.9177(5)
C14 C 0.17753(17) 0.6273(7) 0.7964(4)
C15 C 0.03360(16) 0.6774(7) 0.3785(5)
C16 C -0.00316(19) 0.7664(8) 0.4272(6)
H7 H -0.0068 0.8805 0.3943
H8 H 0.0038 0.7735 0.5124
H9 H -0.0302 0.7026 0.4062
F1 F 0.07105(11) 0.4321(5) 0.7919(3)
F2 F 0.20304(10) 0.7022(5) 0.7234(3)
F3 F 0.10079(14) 0.4220(5) 1.0241(3)
F4 F 0.23433(12) 0.6792(5) 0.9550(3)
N1 N 0.11975(13) 0.5745(5) 0.6293(3)
O1 O 0.03230(14) 0.6531(6) 0.2715(3)
C17 C 0.42038(15) 0.3558(6) 0.5199(4)
H10 H 0.4403 0.3047 0.5796
C18 C 0.42768(16) 0.3793(6) 0.4049(4)
C19 C 0.38879(17) 0.4639(6) 0.3446(4)
C20 C 0.3772(2) 0.5264(7) 0.2274(5)
H11 H 0.3965 0.5171 0.1715
C21 C 0.3359(2) 0.6019(7) 0.1990(5)
H12 H 0.3271 0.6400 0.1214
C22 C 0.3072(2) 0.6231(8) 0.2817(6)
H13 H 0.2799 0.6762 0.2589
C23 C 0.31845(19) 0.5662(7) 0.3980(5)
H14 H 0.2995 0.5795 0.4544
C24 C 0.35920(17) 0.4892(6) 0.4252(4)
C25 C 0.36314(16) 0.4282(6) 0.6433(4)
C26 C 0.32212(18) 0.3653(7) 0.6586(5)
C27 C 0.30690(19) 0.3788(7) 0.7665(5)
C28 C 0.3321(2) 0.4505(7) 0.8639(5)
H15 H 0.3216 0.4580 0.9367
C29 C 0.3728(2) 0.5100(7) 0.8509(5)
C30 C 0.38886(18) 0.5019(7) 0.7447(5)
C31 C 0.46619(17) 0.3233(7) 0.3534(5)
C32 C 0.50329(19) 0.2340(8) 0.4317(6)
H16 H 0.5095 0.1259 0.3964
H17 H 0.4948 0.2138 0.5087
H18 H 0.5293 0.3051 0.4400
F5 F 0.29670(11) 0.2868(4) 0.5678(3)
F6 F 0.42841(12) 0.5666(5) 0.7352(3)
F7 F 0.26603(12) 0.3175(5) 0.7764(4)
F8 F 0.39846(14) 0.5825(5) 0.9442(3)
N2 N 0.37952(14) 0.4182(6) 0.5345(4)
O2 O 0.46850(15) 0.3493(6) 0.2476(4)
loop_
_geom_bond_atom_site_label_1
_geom_bond_atom_site_label_2
_geom_bond_site_symmetry_1
_geom_bond_site_symmetry_2
C1 H1 1_555 1_555
C2 C1 1_555 1_555
C3 C2 1_555 1_555
C4 C3 1_555 1_555
H2 C4 1_555 1_555
C5 C4 1_555 1_555
H3 C5 1_555 1_555
C6 C5 1_555 1_555
H4 C6 1_555 1_555
C7 C6 1_555 1_555
H5 C7 1_555 1_555
C8 C3 1_555 1_555
C9 C10 1_555 1_555
C10 C11 1_555 1_555
C11 C12 1_555 1_555
C12 H6 1_555 1_555
C13 C12 1_555 1_555
C14 C9 1_555 1_555
C15 C2 1_555 1_555
C16 C15 1_555 1_555
H7 C16 1_555 1_555
H8 C16 1_555 1_555
H9 C16 1_555 1_555
F1 C10 1_555 1_555
F2 C14 1_555 1_555
F3 C11 1_555 1_555
F4 C13 1_555 1_555
N1 C1 1_555 1_555
O1 C15 1_555 1_555
C17 H10 1_555 1_555
C18 C17 1_555 1_555
C19 C18 1_555 1_555
C20 C19 1_555 1_555
H11 C20 1_555 1_555
C21 C20 1_555 1_555
H12 C21 1_555 1_555
C22 C21 1_555 1_555
H13 C22 1_555 1_555
C23 C22 1_555 1_555
H14 C23 1_555 1_555
C24 C19 1_555 1_555
C25 C26 1_555 1_555
C26 C27 1_555 1_555
C27 C28 1_555 1_555
C28 H15 1_555 1_555
C29 C28 1_555 1_555
C30 C25 1_555 1_555
C31 C18 1_555 1_555
C32 C31 1_555 1_555
H16 C32 1_555 1_555
H17 C32 1_555 1_555
H18 C32 1_555 1_555
F5 C26 1_555 1_555
F6 C30 1_555 1_555
F7 C27 1_555 1_555
F8 C29 1_555 1_555
N2 C17 1_555 1_555
O2 C31 1_555 1_555
C7 C8 1_555 1_555
C8 N1 1_555 1_555
C9 N1 1_555 1_555
C13 C14 1_555 1_555
C23 C24 1_555 1_555
C24 N2 1_555 1_555
C25 N2 1_555 1_555
C29 C30 1_555 1_555

#END
