
#######################################################################
#
#                 Cambridge Crystallographic Data Centre
#                                CCDC 
#
#######################################################################
#
# If this CIF has been generated from an entry in the Cambridge 
# Structural Database, then it will include bibliographic, chemical, 
# crystal, experimental, refinement or atomic coordinate data resulting 
# from the CCDC's data processing and validation procedures.
#
#######################################################################

data_YIMDAB
_chemical_formula_moiety         'C16 H15 F3 O3 S2'
_chemical_name_systematic        
'Phenyl 3,3,3-trifluoro-2-((4-methoxyphenyl)sulfanyl)propyl sulfone'
_symmetry_cell_setting           orthorhombic
_symmetry_space_group_name_H-M   'P 21 21 21'
_symmetry_Int_Tables_number      19
_space_group_name_Hall           'P 2ac 2ab'
loop_
_symmetry_equiv_pos_site_id
_symmetry_equiv_pos_as_xyz
1 x,y,z
2 1/2-x,-y,1/2+z
3 -x,1/2+y,1/2-z
4 1/2+x,1/2-y,-z
_cell_length_a                   5.9814(8)
_cell_length_b                   13.5408(17)
_cell_length_c                   20.519(3)
_cell_angle_alpha                90
_cell_angle_beta                 90
_cell_angle_gamma                90
_cell_volume                     1661.89
_exptl_crystal_description       block
_cell_formula_units_Z            4
loop_
_atom_site_label
_atom_site_type_symbol
_atom_site_fract_x
_atom_site_fract_y
_atom_site_fract_z
S1 S 0.95645(7) 0.91815(3) 0.105197(19)
S2 S 0.54511(9) 0.83527(3) 0.24046(2)
C1 C 0.8754(3) 0.79379(13) 0.09783(7)
C2 C 1.0203(3) 0.72130(14) 0.11848(8)
H1 H 1.1564 0.7378 0.1375
C3 C 0.6142(3) 0.67224(16) 0.06295(8)
H2 H 0.4772 0.6552 0.0447
C4 C 0.6711(3) 0.77072(15) 0.07009(8)
H3 H 0.5741 0.8203 0.0565
C5 C 0.7592(4) 0.59988(16) 0.08263(10)
H4 H 0.7207 0.5339 0.0770
C6 C 0.9602(4) 0.62368(15) 0.11047(10)
H5 H 1.0566 0.5738 0.1240
O1 O 1.1958(2) 0.92293(10) 0.10414(6)
O2 O 0.8316(2) 0.97433(10) 0.05861(6)
C7 C 0.8736(3) 0.95794(13) 0.18423(8)
H6 H 0.9555 0.9199 0.2164
H7 H 0.9157 1.0267 0.1895
C8 C 0.6240(3) 0.94785(12) 0.19812(8)
H8 H 0.5506 0.9447 0.1555
C9 C 0.5384(3) 1.04089(13) 0.23035(9)
F1 F 0.6531(2) 1.06605(9) 0.28306(6)
F2 F 0.5515(3) 1.11714(8) 0.18941(6)
F3 F 0.32557(19) 1.03448(10) 0.24867(7)
C10 C 0.7225(3) 0.83341(13) 0.30986(8)
C11 C 0.7931(3) 0.87507(13) 0.42218(8)
H9 H 0.7475 0.9053 0.4607
C12 C 0.9246(3) 0.78385(13) 0.30813(8)
H10 H 0.9681 0.7516 0.2702
C13 C 0.9973(3) 0.82827(13) 0.41914(8)
C14 C 1.0619(4) 0.78170(14) 0.36182(9)
H11 H 1.1985 0.7490 0.3598
C15 C 0.6563(3) 0.87707(13) 0.36806(8)
H12 H 0.5178 0.9081 0.3706
O3 O 1.1481(3) 0.82379(12) 0.46831(6)
C16 C 1.0889(4) 0.86626(15) 0.52970(9)
H13 H 1.0602 0.9355 0.5242
H14 H 1.2096 0.8574 0.5600
H15 H 0.9570 0.8344 0.5462
loop_
_geom_bond_atom_site_label_1
_geom_bond_atom_site_label_2
_geom_bond_site_symmetry_1
_geom_bond_site_symmetry_2
S1 C1 1_555 1_555
S2 C8 1_555 1_555
C1 C2 1_555 1_555
C2 H1 1_555 1_555
C3 H2 1_555 1_555
C4 C1 1_555 1_555
H3 C4 1_555 1_555
C5 C3 1_555 1_555
H4 C5 1_555 1_555
C6 C2 1_555 1_555
H5 C6 1_555 1_555
O1 S1 1_555 1_555
O2 S1 1_555 1_555
C7 S1 1_555 1_555
H6 C7 1_555 1_555
H7 C7 1_555 1_555
C8 C7 1_555 1_555
H8 C8 1_555 1_555
C9 C8 1_555 1_555
F1 C9 1_555 1_555
F2 C9 1_555 1_555
F3 C9 1_555 1_555
C10 S2 1_555 1_555
C11 H9 1_555 1_555
C12 C10 1_555 1_555
H10 C12 1_555 1_555
C13 C11 1_555 1_555
C14 C12 1_555 1_555
H11 C14 1_555 1_555
C15 C10 1_555 1_555
H12 C15 1_555 1_555
O3 C13 1_555 1_555
C16 O3 1_555 1_555
H13 C16 1_555 1_555
H14 C16 1_555 1_555
H15 C16 1_555 1_555
C3 C4 1_555 1_555
C5 C6 1_555 1_555
C11 C15 1_555 1_555
C13 C14 1_555 1_555

#END
