
#######################################################################
#
#                 Cambridge Crystallographic Data Centre
#                                CCDC 
#
#######################################################################
#
# If this CIF has been generated from an entry in the Cambridge 
# Structural Database, then it will include bibliographic, chemical, 
# crystal, experimental, refinement or atomic coordinate data resulting 
# from the CCDC's data processing and validation procedures.
#
#######################################################################

data_YIMDAC
_chemical_formula_moiety         'C17 H11 Cl1 N2 O3'
_chemical_name_systematic        
'6-chloro-3-cyano-1-methyl-2-oxo-2,3-dihydro-1H-indol-3-yl benzoate'
_symmetry_cell_setting           triclinic
_symmetry_space_group_name_H-M   'P -1'
_symmetry_Int_Tables_number      2
_space_group_name_Hall           '-P 1'
loop_
_symmetry_equiv_pos_site_id
_symmetry_equiv_pos_as_xyz
1 x,y,z
2 -x,-y,-z
_cell_length_a                   8.0653(16)
_cell_length_b                   8.4613(17)
_cell_length_c                   12.124(2)
_cell_angle_alpha                99.73(3)
_cell_angle_beta                 96.54(3)
_cell_angle_gamma                97.78(3)
_cell_volume                     800.005
_exptl_crystal_colour            colorless
_exptl_crystal_description       prism
_cell_formula_units_Z            2
loop_
_atom_site_label
_atom_site_type_symbol
_atom_site_fract_x
_atom_site_fract_y
_atom_site_fract_z
Cl1 Cl 0.15684(5) 0.87939(6) -0.03360(4)
O1 O 0.97367(14) 0.62567(13) 0.14587(8)
O2 O 0.78851(13) 0.72347(11) 0.34145(8)
O3 O 0.63121(15) 0.49807(12) 0.23385(8)
N1 N 0.73506(15) 0.68643(14) 0.04690(9)
N2 N 1.0150(2) 1.05981(17) 0.30110(12)
C1 C 0.78760(18) 0.79611(16) 0.24214(11)
C2 C 0.84819(18) 0.68805(17) 0.13980(11)
C3 C 0.59848(17) 0.76442(16) 0.07503(11)
C4 C 0.62118(19) 0.83033(16) 0.19024(12)
C5 C 0.5026(2) 0.91451(18) 0.23617(14)
H1 H 0.519069 0.961480 0.314294
C6 C 0.3585(2) 0.92958(19) 0.16636(15)
H2 H 0.275081 0.986497 0.196536
C7 C 0.33751(19) 0.86108(18) 0.05266(14)
C8 C 0.45620(18) 0.77734(17) 0.00335(13)
H3 H 0.440423 0.731712 -0.074989
C9 C 0.7510(2) 0.60635(18) -0.06706(11)
H4 H 0.852079 0.553831 -0.064751
H5 H 0.760662 0.687082 -0.116145
H6 H 0.650852 0.524383 -0.096774
C10 C 0.9155(2) 0.94541(18) 0.27785(12)
C11 C 0.70562(19) 0.56751(17) 0.32496(12)
C12 C 0.72159(19) 0.49885(18) 0.42972(12)
C13 C 0.8143(2) 0.58583(19) 0.53020(12)
H7 H 0.866980 0.694462 0.534106
C14 C 0.8302(2) 0.5141(2) 0.62519(13)
H8 H 0.894148 0.573850 0.693781
C15 C 0.7538(3) 0.3573(2) 0.62019(14)
H9 H 0.766038 0.307849 0.684772
C16 C 0.6586(3) 0.2718(2) 0.52028(17)
H10 H 0.603723 0.164126 0.517115
C17 C 0.6428(3) 0.3419(2) 0.42485(15)
H11 H 0.578037 0.282199 0.356522
loop_
_geom_bond_atom_site_label_1
_geom_bond_atom_site_label_2
_geom_bond_site_symmetry_1
_geom_bond_site_symmetry_2
Cl1 C7 1_555 1_555
O1 C2 1_555 1_555
O2 C1 1_555 1_555
O3 C11 1_555 1_555
N1 C2 1_555 1_555
N2 C10 1_555 1_555
C1 C2 1_555 1_555
C3 N1 1_555 1_555
C4 C1 1_555 1_555
C5 C4 1_555 1_555
H1 C5 1_555 1_555
C6 C5 1_555 1_555
H2 C6 1_555 1_555
C7 C6 1_555 1_555
C8 C3 1_555 1_555
H3 C8 1_555 1_555
C9 N1 1_555 1_555
H4 C9 1_555 1_555
H5 C9 1_555 1_555
H6 C9 1_555 1_555
C10 C1 1_555 1_555
C11 O2 1_555 1_555
C12 C11 1_555 1_555
C13 C12 1_555 1_555
H7 C13 1_555 1_555
C14 C13 1_555 1_555
H8 C14 1_555 1_555
C15 C14 1_555 1_555
H9 C15 1_555 1_555
C16 C15 1_555 1_555
H10 C16 1_555 1_555
C17 C12 1_555 1_555
H11 C17 1_555 1_555
C3 C4 1_555 1_555
C7 C8 1_555 1_555
C16 C17 1_555 1_555

#END
