
#######################################################################
#
#                 Cambridge Crystallographic Data Centre
#                                CCDC 
#
#######################################################################
#
# If this CIF has been generated from an entry in the Cambridge 
# Structural Database, then it will include bibliographic, chemical, 
# crystal, experimental, refinement or atomic coordinate data resulting 
# from the CCDC's data processing and validation procedures.
#
#######################################################################

data_YIMFOS
_chemical_formula_moiety         'C15 H18 O3'
_chemical_name_systematic        
1-[6-hydroxy-2-methyl-3-(prop-1-en-2-yl)phenyl]pentane-1,4-dione
_symmetry_cell_setting           triclinic
_symmetry_space_group_name_H-M   'P -1'
_symmetry_Int_Tables_number      2
_space_group_name_Hall           '-P 1'
loop_
_symmetry_equiv_pos_site_id
_symmetry_equiv_pos_as_xyz
1 x,y,z
2 -x,-y,-z
_cell_length_a                   7.0433(12)
_cell_length_b                   7.9515(14)
_cell_length_c                   13.619(2)
_cell_angle_alpha                83.665(14)
_cell_angle_beta                 80.712(14)
_cell_angle_gamma                66.771(16)
_cell_volume                     690.793
_exptl_crystal_colour            'light colorless'
_exptl_crystal_description       block
_cell_formula_units_Z            2
loop_
_atom_site_label
_atom_site_type_symbol
_atom_site_fract_x
_atom_site_fract_y
_atom_site_fract_z
O1 O -0.2154(4) 1.2575(3) 0.33977(18)
H1 H -0.2965 1.3630 0.3293
O2 O 0.0546(4) 0.8135(3) 0.42157(18)
O3 O 0.5308(4) 0.6154(3) 0.33351(17)
C1 C 0.0720(5) 0.9096(4) 0.3481(2)
C2 C 0.2463(5) 0.9762(4) 0.3264(3)
H2 H 0.1877 1.1091 0.3242
H3 H 0.3203 0.9386 0.2610
C3 C 0.4003(5) 0.9071(4) 0.4014(3)
H4 H 0.4870 0.9783 0.3911
H5 H 0.3237 0.9287 0.4677
C4 C 0.5384(5) 0.7086(4) 0.3968(2)
C5 C -0.0783(5) 0.8448(4) 0.2068(2)
C6 C -0.2201(5) 0.9066(4) 0.1369(2)
C7 C -0.3621(5) 1.0866(4) 0.1385(3)
H6 H -0.4579 1.1276 0.0929
C8 C -0.3671(5) 1.2070(4) 0.2050(3)
H7 H -0.4651 1.3268 0.2046
C9 C -0.2248(5) 1.1475(4) 0.2720(2)
C10 C -0.0809(4) 0.9671(3) 0.2734(2)
C11 C -0.2178(5) 0.7857(4) 0.0594(3)
C12 C -0.3139(9) 0.6627(6) 0.0833(4)
H8 H -0.314(5) 0.595(4) 0.034(3)
H9 H -0.350(9) 0.637(7) 0.147(4)
C13 C -0.1232(7) 0.8104(6) -0.0383(3)
H10 H -0.1877 0.9358 -0.0617
H11 H -0.1406 0.7319 -0.0819
H12 H 0.0226 0.7801 -0.0374
C14 C 0.0818(6) 0.6506(4) 0.2084(3)
H13 H 0.1964 0.6450 0.2402
H14 H 0.1313 0.6126 0.1413
H15 H 0.0193 0.5707 0.2446
C15 C 0.6859(6) 0.6306(4) 0.4722(3)
H16 H 0.7427 0.4993 0.4715
H17 H 0.6134 0.6677 0.5371
H18 H 0.7967 0.6745 0.4566
loop_
_geom_bond_atom_site_label_1
_geom_bond_atom_site_label_2
_geom_bond_site_symmetry_1
_geom_bond_site_symmetry_2
O1 H1 1_555 1_555
O2 C1 1_555 1_555
O3 C4 1_555 1_555
C1 C2 1_555 1_555
C2 H2 1_555 1_555
H3 C2 1_555 1_555
C3 C2 1_555 1_555
H4 C3 1_555 1_555
H5 C3 1_555 1_555
C4 C3 1_555 1_555
C5 C6 1_555 1_555
C6 C7 1_555 1_555
C7 H6 1_555 1_555
C8 C7 1_555 1_555
H7 C8 1_555 1_555
C9 O1 1_555 1_555
C10 C1 1_555 1_555
C11 C6 1_555 1_555
C12 C11 1_555 1_555
H8 C12 1_555 1_555
H9 C12 1_555 1_555
C13 C11 1_555 1_555
H10 C13 1_555 1_555
H11 C13 1_555 1_555
H12 C13 1_555 1_555
C14 C5 1_555 1_555
H13 C14 1_555 1_555
H14 C14 1_555 1_555
H15 C14 1_555 1_555
C15 C4 1_555 1_555
H16 C15 1_555 1_555
H17 C15 1_555 1_555
H18 C15 1_555 1_555
C5 C10 1_555 1_555
C8 C9 1_555 1_555
C9 C10 1_555 1_555

#END
