
#######################################################################
#
#                 Cambridge Crystallographic Data Centre
#                                CCDC 
#
#######################################################################
#
# If this CIF has been generated from an entry in the Cambridge 
# Structural Database, then it will include bibliographic, chemical, 
# crystal, experimental, refinement or atomic coordinate data resulting 
# from the CCDC's data processing and validation procedures.
#
#######################################################################

data_YIMKUD
_chemical_formula_moiety         'C14 H22 N4 O1 S1'
_chemical_name_systematic        
2-{[4-(diethylamino)-2-hydroxyphenyl]methylidene}-N,N-dimethylhydrazine-1-carbothioamide
_symmetry_cell_setting           monoclinic
_symmetry_space_group_name_H-M   'P 21/n'
_symmetry_Int_Tables_number      14
_space_group_name_Hall           '-P 2yn'
loop_
_symmetry_equiv_pos_site_id
_symmetry_equiv_pos_as_xyz
1 x,y,z
2 1/2-x,1/2+y,1/2-z
3 -x,-y,-z
4 1/2+x,1/2-y,1/2+z
_cell_length_a                   10.8077(10)
_cell_length_b                   20.3800(17)
_cell_length_c                   14.9621(13)
_cell_angle_alpha                90
_cell_angle_beta                 105.997(5)
_cell_angle_gamma                90
_cell_volume                     3167.95
_exptl_crystal_colour            yellow
_exptl_crystal_description       block
_cell_formula_units_Z            8
loop_
_atom_site_label
_atom_site_type_symbol
_atom_site_fract_x
_atom_site_fract_y
_atom_site_fract_z
S1 S 0.36434(6) 0.42499(4) 0.35522(5)
O1 O 0.62695(16) 0.50053(11) 0.25379(12)
H1 H 0.5997 0.4836 0.2943
N1 N 0.64586(18) 0.43921(10) 0.41100(13)
N2 N 0.59399(18) 0.41321(11) 0.47748(14)
H2 H 0.6438 0.3991 0.5291
N3 N 0.4245(2) 0.39469(11) 0.53600(15)
C1 C 0.8283(2) 0.46946(12) 0.36273(15)
C2 C 0.7677(2) 0.43925(12) 0.42724(15)
H3 H 0.8183 0.4197 0.4811
C3 C 0.7578(2) 0.50106(12) 0.28153(16)
C4 C 0.4644(2) 0.40974(11) 0.46189(17)
C5 C 0.9621(2) 0.47139(13) 0.38162(17)
H4 H 1.0111 0.4495 0.4340
N4 N 1.0139(3) 0.57626(16) 0.19657(19)
C6 C 1.0245(2) 0.50372(14) 0.32702(18)
H5 H 1.1139 0.5025 0.3419
C7 C 0.8196(3) 0.53490(14) 0.22635(18)
H6 H 0.7706 0.5557 0.1730
C8 C 0.9545(3) 0.53880(14) 0.24843(18)
C9 C 0.5133(3) 0.38852(17) 0.62879(18)
H7 H 0.5605 0.3482 0.6329
H8 H 0.4655 0.3884 0.6742
H9 H 0.5721 0.4248 0.6403
C10 C 0.2893(3) 0.38218(16) 0.5280(2)
H10 H 0.2410 0.3837 0.4637
H11 H 0.2574 0.4150 0.5620
H12 H 0.2803 0.3396 0.5529
C11 C 1.1529(3) 0.5814(2) 0.2168(3)
H13 H 1.1901 0.5741 0.2829
H14 H 1.1744 0.6258 0.2033
C12 C 0.9383(4) 0.6148(2) 0.1170(3)
H15 H 0.8639 0.6334 0.1321
H16 H 0.9904 0.6508 0.1051
C13 C 1.2140(4) 0.5351(2) 0.1649(2)
H17 H 1.1886 0.4911 0.1740
H18 H 1.3059 0.5389 0.1872
H19 H 1.1868 0.5456 0.0998
C14 C 0.8955(4) 0.5744(2) 0.0335(3)
H20 H 0.9688 0.5608 0.0137
H21 H 0.8384 0.5995 -0.0150
H22 H 0.8512 0.5365 0.0470
S2 S 0.85177(9) 0.30355(4) 0.58127(6)
O2 O 0.5171(2) 0.24993(10) 0.51253(13)
H23 H 0.5914 0.2473 0.5455
N5 N 0.6988(2) 0.21630(11) 0.65911(15)
N6 N 0.8258(2) 0.21760(12) 0.70830(15)
H24 H 0.8531 0.1956 0.7590
N7 N 1.0326(2) 0.24933(12) 0.71918(17)
C15 C 0.4409(3) 0.20954(13) 0.54582(17)
C16 C 0.6209(3) 0.17871(14) 0.68418(19)
C17 C 0.4888(3) 0.17432(13) 0.62991(17)
C18 C 0.9080(3) 0.25475(13) 0.67465(18)
C19 C 0.3152(3) 0.20230(16) 0.49312(19)
H25 H 0.2862 0.2264 0.4385
C20 C 0.2301(3) 0.15985(18) 0.5193(2)
N8 N 0.1072(3) 0.1515(2) 0.4655(2)
C21 C 0.4018(3) 0.13301(16) 0.6554(2)
H26 H 0.4299 0.1093 0.7104
C22 C 1.0819(3) 0.20510(18) 0.7982(2)
H27 H 1.0396 0.2143 0.8454
H28 H 1.1729 0.2116 0.8230
H29 H 1.0654 0.1605 0.7779
C23 C 0.2778(3) 0.12561(18) 0.6039(2)
H30 H 0.2236 0.0976 0.6246
C24 C 1.1294(3) 0.28450(18) 0.6865(3)
H31 H 1.1310 0.2676 0.6270
H32 H 1.2124 0.2787 0.7301
H33 H 1.1084 0.3304 0.6810
C25 C 0.0581(4) 0.1845(3) 0.3738(3)
H34 H 0.1283 0.1901 0.3457
H35 H -0.0064 0.1569 0.3330
C26 C 0.0262(5) 0.0897(3) 0.4857(4)
H36 H -0.0341 0.0739 0.4291
H37 H 0.0823 0.0541 0.5149
C27 C 0.0033(6) 0.2467(4) 0.3826(4)
H38 H -0.0626 0.2417 0.4139
H39 H -0.0336 0.2650 0.3220
H40 H 0.0689 0.2756 0.4179
C28 C -0.0358(6) 0.1164(4) 0.5446(5)
H41 H 0.0261 0.1290 0.6014
H42 H -0.0941 0.0847 0.5578
H43 H -0.0831 0.1544 0.5162
H44 H 0.646(3) 0.1521(16) 0.738(2)
loop_
_geom_bond_atom_site_label_1
_geom_bond_atom_site_label_2
_geom_bond_site_symmetry_1
_geom_bond_site_symmetry_2
S1 C4 1_555 1_555
O1 H1 1_555 1_555
N1 N2 1_555 1_555
N2 H2 1_555 1_555
N3 C4 1_555 1_555
C1 C2 1_555 1_555
C2 N1 1_555 1_555
H3 C2 1_555 1_555
C3 O1 1_555 1_555
C4 N2 1_555 1_555
C5 C1 1_555 1_555
H4 C5 1_555 1_555
N4 C8 1_555 1_555
C6 C5 1_555 1_555
H5 C6 1_555 1_555
C7 C3 1_555 1_555
H6 C7 1_555 1_555
C8 C6 1_555 1_555
C9 N3 1_555 1_555
H7 C9 1_555 1_555
H8 C9 1_555 1_555
H9 C9 1_555 1_555
C10 N3 1_555 1_555
H10 C10 1_555 1_555
H11 C10 1_555 1_555
H12 C10 1_555 1_555
C11 N4 1_555 1_555
H13 C11 1_555 1_555
H14 C11 1_555 1_555
C12 N4 1_555 1_555
H15 C12 1_555 1_555
H16 C12 1_555 1_555
C13 C11 1_555 1_555
H17 C13 1_555 1_555
H18 C13 1_555 1_555
H19 C13 1_555 1_555
C14 C12 1_555 1_555
H20 C14 1_555 1_555
H21 C14 1_555 1_555
H22 C14 1_555 1_555
S2 C18 1_555 1_555
O2 H23 1_555 1_555
N5 N6 1_555 1_555
N6 H24 1_555 1_555
N7 C18 1_555 1_555
C15 O2 1_555 1_555
C16 N5 1_555 1_555
C17 C15 1_555 1_555
C18 N6 1_555 1_555
C19 C15 1_555 1_555
H25 C19 1_555 1_555
C20 C19 1_555 1_555
N8 C20 1_555 1_555
C21 C17 1_555 1_555
H26 C21 1_555 1_555
C22 N7 1_555 1_555
H27 C22 1_555 1_555
H28 C22 1_555 1_555
H29 C22 1_555 1_555
C23 C20 1_555 1_555
H30 C23 1_555 1_555
C24 N7 1_555 1_555
H31 C24 1_555 1_555
H32 C24 1_555 1_555
H33 C24 1_555 1_555
C25 N8 1_555 1_555
H34 C25 1_555 1_555
H35 C25 1_555 1_555
C26 N8 1_555 1_555
H36 C26 1_555 1_555
H37 C26 1_555 1_555
C27 C25 1_555 1_555
H38 C27 1_555 1_555
H39 C27 1_555 1_555
H40 C27 1_555 1_555
C28 C26 1_555 1_555
H41 C28 1_555 1_555
H42 C28 1_555 1_555
H43 C28 1_555 1_555
H44 C16 1_555 1_555
C1 C3 1_555 1_555
C7 C8 1_555 1_555
C16 C17 1_555 1_555
C21 C23 1_555 1_555

#END
