
#######################################################################
#
#                 Cambridge Crystallographic Data Centre
#                                CCDC 
#
#######################################################################
#
# If this CIF has been generated from an entry in the Cambridge 
# Structural Database, then it will include bibliographic, chemical, 
# crystal, experimental, refinement or atomic coordinate data resulting 
# from the CCDC's data processing and validation procedures.
#
#######################################################################

data_YIMLAK
_chemical_formula_moiety         'C26 H20 N2,0.5(C1 H1 Cl3)'
_chemical_name_systematic        
'3-(2,6-diphenylpyridin-4-yl)-6-methyl-1H-indole chloroform solvate'
_symmetry_cell_setting           monoclinic
_symmetry_space_group_name_H-M   'C 2/c'
_symmetry_Int_Tables_number      15
_space_group_name_Hall           '-C 2yn'
loop_
_symmetry_equiv_pos_site_id
_symmetry_equiv_pos_as_xyz
1 x,y,z
2 -x,y,1/2-z
3 1/2+x,1/2+y,z
4 1/2-x,1/2+y,1/2-z
5 -x,-y,-z
6 x,-y,1/2+z
7 1/2-x,1/2-y,-z
8 1/2+x,1/2-y,1/2+z
_cell_length_a                   25.4646(15)
_cell_length_b                   16.7733(9)
_cell_length_c                   10.4497(8)
_cell_angle_alpha                90
_cell_angle_beta                 100.998(6)
_cell_angle_gamma                90
_cell_volume                     4381.36
_exptl_crystal_colour            colorless
_exptl_crystal_description       block
_cell_formula_units_Z            8
loop_
_atom_site_label
_atom_site_type_symbol
_atom_site_fract_x
_atom_site_fract_y
_atom_site_fract_z
C1 C 0.50946(13) 0.8773(2) -0.0531(4)
H1 H 0.4852 0.8906 0.0034
H2 H 0.4910 0.8465 -0.1254
H3 H 0.5230 0.9253 -0.0849
C2 C 0.55532(10) 0.82908(15) 0.0215(3)
C3 C 0.60616(10) 0.85932(13) 0.0438(2)
H4 H 0.6130 0.9095 0.0127
C4 C 0.64715(9) 0.81380(12) 0.1134(2)
C5 C 0.63862(9) 0.73693(13) 0.1614(2)
C6 C 0.58650(10) 0.70767(15) 0.1405(3)
H5 H 0.5793 0.6580 0.1728
C7 C 0.54604(11) 0.75278(17) 0.0721(3)
H6 H 0.5113 0.7330 0.0583
C8 C 0.68949(9) 0.70972(13) 0.2302(3)
C9 C 0.72504(10) 0.77001(14) 0.2216(3)
H7 H 0.7612 0.7686 0.2587
C10 C 0.70397(9) 0.63166(13) 0.2887(2)
C11 C 0.74637(9) 0.62239(13) 0.3935(3)
H8 H 0.7648 0.6669 0.4317
C12 C 0.76116(9) 0.54662(13) 0.4411(2)
C13 C 0.69329(9) 0.48880(13) 0.2931(3)
C14 C 0.67718(9) 0.56274(14) 0.2406(3)
H9 H 0.6480 0.5662 0.1720
C15 C 0.80732(10) 0.53323(14) 0.5482(2)
C16 C 0.85071(11) 0.58488(17) 0.5688(3)
H10 H 0.8501 0.6303 0.5175
C17 C 0.89476(13) 0.5692(2) 0.6650(3)
H11 H 0.9238 0.6038 0.6785
C18 C 0.89526(15) 0.5016(2) 0.7410(3)
H12 H 0.9251 0.4904 0.8048
C19 C 0.85227(15) 0.4512(2) 0.7231(3)
H13 H 0.8528 0.4066 0.7761
C20 C 0.80828(12) 0.46611(17) 0.6270(3)
H14 H 0.7793 0.4314 0.6149
C21 C 0.66576(9) 0.41414(13) 0.2430(2)
C22 C 0.65076(11) 0.40136(16) 0.1103(3)
H15 H 0.6573 0.4403 0.0519
C23 C 0.62601(13) 0.33065(19) 0.0643(4)
H16 H 0.6167 0.3218 -0.0250
C24 C 0.61521(12) 0.27345(17) 0.1504(4)
H17 H 0.5982 0.2263 0.1190
C25 C 0.62942(12) 0.28585(17) 0.2818(4)
H18 H 0.6217 0.2475 0.3398
C26 C 0.65521(11) 0.35538(15) 0.3284(3)
H19 H 0.6656 0.3630 0.4178
N1 N 0.70027(8) 0.83191(11) 0.1517(2)
H20 H 0.7154 0.8754 0.1342
N2 N 0.73504(8) 0.48026(11) 0.3923(2)
C27? C 0.4835(4) 0.4782(4) 0.2700(9)
H21? H 0.4557 0.4880 0.3214
Cl1? Cl 0.5315(4) 0.5378(4) 0.3477(10)
Cl2? Cl 0.4524(3) 0.5114(4) 0.1255(8)
Cl3? Cl 0.4905(2) 0.3830(2) 0.2891(6)
loop_
_geom_bond_atom_site_label_1
_geom_bond_atom_site_label_2
_geom_bond_site_symmetry_1
_geom_bond_site_symmetry_2
C1 H1 1_555 1_555
H2 C1 1_555 1_555
H3 C1 1_555 1_555
C2 C1 1_555 1_555
C3 C2 1_555 1_555
H4 C3 1_555 1_555
C4 C3 1_555 1_555
C5 C4 1_555 1_555
C6 C5 1_555 1_555
H5 C6 1_555 1_555
C7 C2 1_555 1_555
H6 C7 1_555 1_555
C8 C5 1_555 1_555
C9 C8 1_555 1_555
H7 C9 1_555 1_555
C10 C8 1_555 1_555
C11 C10 1_555 1_555
H8 C11 1_555 1_555
C12 C11 1_555 1_555
C13 C14 1_555 1_555
C14 C10 1_555 1_555
H9 C14 1_555 1_555
C15 C12 1_555 1_555
C16 C15 1_555 1_555
H10 C16 1_555 1_555
C17 C16 1_555 1_555
H11 C17 1_555 1_555
C18 C17 1_555 1_555
H12 C18 1_555 1_555
C19 C18 1_555 1_555
H13 C19 1_555 1_555
C20 C15 1_555 1_555
H14 C20 1_555 1_555
C21 C13 1_555 1_555
C22 C21 1_555 1_555
H15 C22 1_555 1_555
C23 C22 1_555 1_555
H16 C23 1_555 1_555
C24 C23 1_555 1_555
H17 C24 1_555 1_555
C25 C24 1_555 1_555
H18 C25 1_555 1_555
C26 C21 1_555 1_555
H19 C26 1_555 1_555
N1 C4 1_555 1_555
H20 N1 1_555 1_555
N2 C12 1_555 1_555
C6 C7 1_555 1_555
C9 N1 1_555 1_555
C13 N2 1_555 1_555
C19 C20 1_555 1_555
C25 C26 1_555 1_555

#END
