
#######################################################################
#
#                 Cambridge Crystallographic Data Centre
#                                CCDC 
#
#######################################################################
#
# If this CIF has been generated from an entry in the Cambridge 
# Structural Database, then it will include bibliographic, chemical, 
# crystal, experimental, refinement or atomic coordinate data resulting 
# from the CCDC's data processing and validation procedures.
#
#######################################################################

data_YIMRIX
_chemical_formula_moiety         'C20 H16 O2'
_chemical_name_systematic        Biphenyl-4-yl(3-methoxyphenyl)methanone
_symmetry_cell_setting           orthorhombic
_symmetry_space_group_name_H-M   'P b c a'
_symmetry_Int_Tables_number      61
_space_group_name_Hall           '-P 2ac 2ab'
loop_
_symmetry_equiv_pos_site_id
_symmetry_equiv_pos_as_xyz
1 x,y,z
2 1/2-x,-y,1/2+z
3 -x,1/2+y,1/2-z
4 1/2+x,1/2-y,-z
5 -x,-y,-z
6 1/2+x,y,1/2-z
7 x,1/2-y,1/2+z
8 1/2-x,1/2+y,z
_cell_length_a                   7.8179(15)
_cell_length_b                   16.003(3)
_cell_length_c                   23.345(5)
_cell_angle_alpha                90
_cell_angle_beta                 90
_cell_angle_gamma                90
_cell_volume                     2920.69
_exptl_crystal_colour            colorless
_exptl_crystal_description       Block
_cell_formula_units_Z            8
loop_
_atom_site_label
_atom_site_type_symbol
_atom_site_fract_x
_atom_site_fract_y
_atom_site_fract_z
O1 O 0.55986(19) 0.27557(7) 0.23720(5)
O2 O 0.49551(14) 0.48942(6) 0.07711(4)
C1 C 0.56346(18) 0.42204(9) 0.22692(6)
C2 C 0.51543(18) 0.41727(9) 0.16899(6)
H1 H 0.4710 0.3667 0.1537
C3 C 0.53355(18) 0.48710(9) 0.13438(6)
C4 C 0.59715(19) 0.56177(9) 0.15699(6)
H2 H 0.6065 0.6098 0.1333
C5 C 0.64648(19) 0.56573(9) 0.21386(6)
H3 H 0.6918 0.6163 0.2289
C6 C 0.63015(19) 0.49604(9) 0.24923(6)
H4 H 0.6642 0.4989 0.2882
C7 C 0.5498(2) 0.34311(9) 0.26133(6)
C8 C 0.52657(18) 0.34641(9) 0.32493(6)
C9 C 0.57807(19) 0.27688(9) 0.35673(6)
H5 H 0.6258 0.2299 0.3377
C10 C 0.56019(18) 0.27582(9) 0.41578(6)
H6 H 0.5955 0.2279 0.4367
C11 C 0.49048(17) 0.34456(8) 0.44513(6)
C12 C 0.43339(17) 0.41267(9) 0.41271(6)
H7 H 0.3818 0.4589 0.4315
C13 C 0.45109(18) 0.41355(9) 0.35347(6)
H8 H 0.4114 0.4603 0.3322
C14 C 0.48401(17) 0.34551(8) 0.50879(6)
C15 C 0.60377(19) 0.30024(9) 0.54114(6)
H9 H 0.6907 0.2695 0.5220
C16 C 0.5974(2) 0.29957(9) 0.60043(6)
H10 H 0.6782 0.2677 0.6215
C17 C 0.47326(19) 0.34541(9) 0.62906(6)
H11 H 0.4690 0.3451 0.6697
C18 C 0.35559(19) 0.39162(9) 0.59795(6)
H12 H 0.2713 0.4236 0.6174
C19 C 0.36018(18) 0.39143(8) 0.53843(6)
H13 H 0.2781 0.4229 0.5176
C20 C 0.4254(2) 0.41540(10) 0.05249(6)
H14 H 0.5075 0.3695 0.0564
H15 H 0.4014 0.4250 0.0118
H16 H 0.3190 0.4008 0.0723
loop_
_geom_bond_atom_site_label_1
_geom_bond_atom_site_label_2
_geom_bond_site_symmetry_1
_geom_bond_site_symmetry_2
O1 C7 1_555 1_555
O2 C3 1_555 1_555
C1 C2 1_555 1_555
C2 H1 1_555 1_555
C3 C2 1_555 1_555
C4 C3 1_555 1_555
H2 C4 1_555 1_555
C5 C4 1_555 1_555
H3 C5 1_555 1_555
C6 C1 1_555 1_555
H4 C6 1_555 1_555
C7 C1 1_555 1_555
C8 C7 1_555 1_555
C9 C8 1_555 1_555
H5 C9 1_555 1_555
C10 C9 1_555 1_555
H6 C10 1_555 1_555
C11 C10 1_555 1_555
C12 C11 1_555 1_555
H7 C12 1_555 1_555
C13 C8 1_555 1_555
H8 C13 1_555 1_555
C14 C11 1_555 1_555
C15 C14 1_555 1_555
H9 C15 1_555 1_555
C16 C15 1_555 1_555
H10 C16 1_555 1_555
C17 C16 1_555 1_555
H11 C17 1_555 1_555
C18 C17 1_555 1_555
H12 C18 1_555 1_555
C19 C14 1_555 1_555
H13 C19 1_555 1_555
C20 O2 1_555 1_555
H14 C20 1_555 1_555
H15 C20 1_555 1_555
H16 C20 1_555 1_555
C5 C6 1_555 1_555
C12 C13 1_555 1_555
C18 C19 1_555 1_555

#END
