
#######################################################################
#
#                 Cambridge Crystallographic Data Centre
#                                CCDC 
#
#######################################################################
#
# If this CIF has been generated from an entry in the Cambridge 
# Structural Database, then it will include bibliographic, chemical, 
# crystal, experimental, refinement or atomic coordinate data resulting 
# from the CCDC's data processing and validation procedures.
#
#######################################################################

data_YIMRIY
_chemical_formula_moiety         'C35 H31 B1 O3'
_chemical_name_systematic        
8-[2-(4-methoxyphenyl)-1,2-diphenylethyl]-6b,9a-dimethyl-6b,9a-dihydro-8H-acenaphtho[1,2-d][1,3,2]dioxaborole
_symmetry_cell_setting           triclinic
_symmetry_space_group_name_H-M   'P 1'
_symmetry_Int_Tables_number      1
_space_group_name_Hall           'P 1'
loop_
_symmetry_equiv_pos_site_id
_symmetry_equiv_pos_as_xyz
1 x,y,z
_cell_length_a                   10.1118(3)
_cell_length_b                   11.8308(4)
_cell_length_c                   12.5795(4)
_cell_angle_alpha                83.3770(10)
_cell_angle_beta                 70.4740(10)
_cell_angle_gamma                72.0230(10)
_cell_volume                     1348.98
_exptl_crystal_colour            colorless
_exptl_crystal_description       prism
_cell_formula_units_Z            2
loop_
_atom_site_label
_atom_site_type_symbol
_atom_site_fract_x
_atom_site_fract_y
_atom_site_fract_z
O1 O 0.4672(2) 0.8507(2) 0.60179(17)
O2 O 0.40738(19) 0.32146(16) 0.84065(15)
O3 O 0.52153(19) 0.29948(16) 0.64976(15)
B1 B 0.3926(3) 0.3316(2) 0.7359(2)
C1 C 0.4580(4) 0.9395(3) 0.6731(3)
H1 H 0.356376 0.989585 0.700673
H2 H 0.521115 0.988560 0.630532
H3 H 0.490061 0.901513 0.737278
C2 C 0.3893(3) 0.7698(3) 0.6483(2)
C3 C 0.4155(3) 0.6776(3) 0.5788(2)
H4 H 0.483166 0.673350 0.504755
C4 C 0.3429(3) 0.5910(2) 0.6171(2)
H5 H 0.361987 0.528265 0.568317
C5 C 0.2434(3) 0.5938(2) 0.7248(2)
C6 C 0.2195(3) 0.6869(3) 0.7936(2)
H6 H 0.152990 0.690738 0.868151
C7 C 0.2915(3) 0.7755(3) 0.7556(3)
H7 H 0.272679 0.838749 0.803644
C8 C 0.1550(3) 0.5039(2) 0.7672(2)
H8 H 0.137185 0.494277 0.850415
C9 C 0.2394(3) 0.3790(2) 0.7145(2)
H9 H 0.258481 0.387957 0.631113
C10 C 0.1524(3) 0.2892(2) 0.7575(2)
C11 C 0.1382(4) 0.2187(3) 0.6836(3)
H10 H 0.179881 0.228921 0.604618
C12 C 0.0639(4) 0.1334(3) 0.7230(3)
H11 H 0.056077 0.085717 0.670923
C13 C 0.0016(3) 0.1175(3) 0.8371(3)
H12 H -0.048855 0.058971 0.863814
C14 C 0.0133(3) 0.1874(3) 0.9120(3)
H13 H -0.030074 0.177675 0.990802
C15 C 0.0886(3) 0.2723(3) 0.8725(2)
H14 H 0.096594 0.319532 0.924908
C16 C 0.0056(3) 0.5519(2) 0.7494(2)
C17 C -0.0068(3) 0.5735(2) 0.6408(2)
H15 H 0.078733 0.556724 0.576733
C18 C -0.1439(3) 0.6192(2) 0.6266(2)
H16 H -0.151609 0.633795 0.552764
C19 C -0.2694(3) 0.6438(2) 0.7193(3)
H17 H -0.362917 0.675024 0.708946
C20 C -0.2586(3) 0.6229(2) 0.8266(3)
H18 H -0.344593 0.639422 0.890356
C21 C -0.1214(3) 0.5775(2) 0.8411(2)
H19 H -0.114570 0.563791 0.915262
C22 C 0.5634(3) 0.2852(2) 0.8288(2)
C23 C 0.6414(3) 0.2646(2) 0.6972(2)
C24 C 0.6085(3) 0.1633(2) 0.8817(2)
C25 C 0.5863(3) 0.1260(2) 0.9918(2)
H20 H 0.529846 0.180272 1.051592
C26 C 0.6493(3) 0.0046(3) 1.0149(2)
H21 H 0.634148 -0.021549 1.091173
C27 C 0.7314(3) -0.0762(2) 0.9304(2)
H22 H 0.770631 -0.157031 0.949027
C28 C 0.7579(3) -0.0398(2) 0.8157(2)
C29 C 0.8460(3) -0.1100(2) 0.7193(2)
H23 H 0.893055 -0.191847 0.728173
C30 C 0.8637(3) -0.0601(2) 0.6125(2)
H24 H 0.921546 -0.109236 0.549033
C31 C 0.7984(3) 0.0620(2) 0.5944(2)
H25 H 0.812198 0.094619 0.520203
C32 C 0.7149(3) 0.1316(2) 0.6867(2)
C33 C 0.6940(3) 0.0809(2) 0.7950(2)
C34 C 0.5932(3) 0.3813(2) 0.8795(2)
H26 H 0.560665 0.457794 0.842876
H27 H 0.698507 0.361948 0.867780
H28 H 0.539726 0.386319 0.960480
C35 C 0.7470(3) 0.3368(2) 0.6381(2)
H29 H 0.789885 0.316416 0.558015
H30 H 0.825094 0.318749 0.672538
H31 H 0.694100 0.421660 0.645602
O4 O 0.5748(2) 0.14251(19) 0.26067(18)
O5 O 0.4948(2) 0.69669(17) 0.30359(15)
O6 O 0.56745(19) 0.68224(16) 0.11097(15)
B2 B 0.6079(3) 0.6697(3) 0.2057(2)
C36 C 0.4884(3) 0.0968(3) 0.3601(3)
H32 H 0.543584 0.070732 0.413786
H33 H 0.464559 0.029230 0.340740
H34 H 0.397724 0.159059 0.394145
C37 C 0.6230(3) 0.2349(2) 0.2721(2)
C38 C 0.7034(3) 0.2789(3) 0.1721(2)
H35 H 0.719928 0.244965 0.102289
C39 C 0.7596(3) 0.3714(3) 0.1735(2)
H36 H 0.814457 0.400123 0.104504
C40 C 0.7367(3) 0.4231(2) 0.2749(2)
C41 C 0.6527(3) 0.3804(3) 0.3732(2)
H37 H 0.633381 0.415821 0.442878
C42 C 0.5957(3) 0.2872(3) 0.3730(2)
H38 H 0.538567 0.259840 0.441700
C43 C 0.8049(3) 0.5195(2) 0.2813(2)
H39 H 0.758003 0.551344 0.359625
C44 C 0.7745(3) 0.6263(2) 0.1996(2)
H40 H 0.833831 0.598520 0.121134
C45 C 0.8232(3) 0.7286(2) 0.2220(2)
C46 C 0.9251(3) 0.7727(3) 0.1373(3)
H41 H 0.965755 0.737932 0.064770
C47 C 0.9685(4) 0.8673(3) 0.1573(3)
H42 H 1.036748 0.897277 0.098143
C48 C 0.9124(4) 0.9174(3) 0.2632(3)
H43 H 0.943095 0.980683 0.277527
C49 C 0.8112(4) 0.8743(3) 0.3478(3)
H44 H 0.772078 0.908322 0.420646
C50 C 0.7662(3) 0.7816(3) 0.3271(3)
H45 H 0.695247 0.753980 0.385775
C51 C 0.9681(3) 0.4669(2) 0.2649(2)
C52 C 1.0185(3) 0.4415(2) 0.3574(2)
H46 H 0.950997 0.458772 0.431110
C53 C 1.1670(3) 0.3911(2) 0.3431(3)
H47 H 1.200080 0.374333 0.407203
C54 C 1.2669(3) 0.3652(2) 0.2366(3)
H48 H 1.368323 0.331129 0.227251
C55 C 1.2182(3) 0.3892(2) 0.1432(2)
H49 H 1.285908 0.370625 0.069684
C56 C 1.0707(3) 0.4401(2) 0.1575(2)
H50 H 1.038302 0.457235 0.093112
C57 C 0.3578(3) 0.7328(2) 0.2778(2)
C58 C 0.4083(3) 0.7232(2) 0.1441(2)
C59 C 0.2813(3) 0.8640(2) 0.3005(2)
C60 C 0.2130(3) 0.9262(3) 0.3986(2)
H51 H 0.211262 0.887613 0.469428
C61 C 0.1443(3) 1.0503(3) 0.3918(2)
H52 H 0.095629 1.094061 0.459686
C62 C 0.1459(3) 1.1091(2) 0.2912(3)
H53 H 0.097198 1.191795 0.290448
C63 C 0.2201(3) 1.0468(2) 0.1879(2)
C64 C 0.2337(3) 1.0928(2) 0.0769(3)
H54 H 0.191017 1.174986 0.065637
C65 C 0.3079(3) 1.0200(3) -0.0144(2)
H55 H 0.317858 1.053693 -0.087947
C66 C 0.3703(3) 0.8962(2) -0.0029(2)
H56 H 0.419731 0.847123 -0.067354
C67 C 0.3573(3) 0.8492(2) 0.1035(2)
C68 C 0.2848(3) 0.9244(2) 0.1970(2)
C69 C 0.2639(3) 0.6545(3) 0.3455(2)
H57 H 0.318150 0.570871 0.328491
H58 H 0.173535 0.674464 0.325569
H59 H 0.239440 0.667506 0.426245
C70 C 0.3580(3) 0.6360(2) 0.0979(2)
H60 H 0.396725 0.636388 0.015371
H61 H 0.250652 0.659590 0.121753
H62 H 0.394180 0.555954 0.127008
loop_
_geom_bond_atom_site_label_1
_geom_bond_atom_site_label_2
_geom_bond_site_symmetry_1
_geom_bond_site_symmetry_2
O1 C1 1_555 1_555
O2 B1 1_555 1_555
O3 B1 1_555 1_555
B1 C9 1_555 1_555
C1 H1 1_555 1_555
H2 C1 1_555 1_555
H3 C1 1_555 1_555
C2 O1 1_555 1_555
C3 C2 1_555 1_555
H4 C3 1_555 1_555
C4 C3 1_555 1_555
H5 C4 1_555 1_555
C5 C4 1_555 1_555
C6 C5 1_555 1_555
H6 C6 1_555 1_555
C7 C2 1_555 1_555
H7 C7 1_555 1_555
C8 C5 1_555 1_555
H8 C8 1_555 1_555
C9 C8 1_555 1_555
H9 C9 1_555 1_555
C10 C9 1_555 1_555
C11 C10 1_555 1_555
H10 C11 1_555 1_555
C12 C11 1_555 1_555
H11 C12 1_555 1_555
C13 C12 1_555 1_555
H12 C13 1_555 1_555
C14 C13 1_555 1_555
H13 C14 1_555 1_555
C15 C10 1_555 1_555
H14 C15 1_555 1_555
C16 C8 1_555 1_555
C17 C16 1_555 1_555
H15 C17 1_555 1_555
C18 C17 1_555 1_555
H16 C18 1_555 1_555
C19 C18 1_555 1_555
H17 C19 1_555 1_555
C20 C19 1_555 1_555
H18 C20 1_555 1_555
C21 C16 1_555 1_555
H19 C21 1_555 1_555
C22 O2 1_555 1_555
C23 O3 1_555 1_555
C24 C22 1_555 1_555
C25 C24 1_555 1_555
H20 C25 1_555 1_555
C26 C25 1_555 1_555
H21 C26 1_555 1_555
C27 C26 1_555 1_555
H22 C27 1_555 1_555
C28 C27 1_555 1_555
C29 C28 1_555 1_555
H23 C29 1_555 1_555
C30 C29 1_555 1_555
H24 C30 1_555 1_555
C31 C30 1_555 1_555
H25 C31 1_555 1_555
C32 C23 1_555 1_555
C33 C24 1_555 1_555
C34 C22 1_555 1_555
H26 C34 1_555 1_555
H27 C34 1_555 1_555
H28 C34 1_555 1_555
C35 C23 1_555 1_555
H29 C35 1_555 1_555
H30 C35 1_555 1_555
H31 C35 1_555 1_555
O4 C36 1_555 1_555
O5 B2 1_555 1_555
O6 B2 1_555 1_555
B2 C44 1_555 1_555
C36 H32 1_555 1_555
H33 C36 1_555 1_555
H34 C36 1_555 1_555
C37 O4 1_555 1_555
C38 C37 1_555 1_555
H35 C38 1_555 1_555
C39 C38 1_555 1_555
H36 C39 1_555 1_555
C40 C39 1_555 1_555
C41 C40 1_555 1_555
H37 C41 1_555 1_555
C42 C37 1_555 1_555
H38 C42 1_555 1_555
C43 C40 1_555 1_555
H39 C43 1_555 1_555
C44 C43 1_555 1_555
H40 C44 1_555 1_555
C45 C44 1_555 1_555
C46 C45 1_555 1_555
H41 C46 1_555 1_555
C47 C46 1_555 1_555
H42 C47 1_555 1_555
C48 C47 1_555 1_555
H43 C48 1_555 1_555
C49 C48 1_555 1_555
H44 C49 1_555 1_555
C50 C45 1_555 1_555
H45 C50 1_555 1_555
C51 C43 1_555 1_555
C52 C51 1_555 1_555
H46 C52 1_555 1_555
C53 C52 1_555 1_555
H47 C53 1_555 1_555
C54 C53 1_555 1_555
H48 C54 1_555 1_555
C55 C54 1_555 1_555
H49 C55 1_555 1_555
C56 C51 1_555 1_555
H50 C56 1_555 1_555
C57 O5 1_555 1_555
C58 O6 1_555 1_555
C59 C57 1_555 1_555
C60 C59 1_555 1_555
H51 C60 1_555 1_555
C61 C60 1_555 1_555
H52 C61 1_555 1_555
C62 C61 1_555 1_555
H53 C62 1_555 1_555
C63 C62 1_555 1_555
C64 C63 1_555 1_555
H54 C64 1_555 1_555
C65 C64 1_555 1_555
H55 C65 1_555 1_555
C66 C65 1_555 1_555
H56 C66 1_555 1_555
C67 C58 1_555 1_555
C68 C59 1_555 1_555
C69 C57 1_555 1_555
H57 C69 1_555 1_555
H58 C69 1_555 1_555
H59 C69 1_555 1_555
C70 C58 1_555 1_555
H60 C70 1_555 1_555
H61 C70 1_555 1_555
H62 C70 1_555 1_555
C6 C7 1_555 1_555
C14 C15 1_555 1_555
C20 C21 1_555 1_555
C22 C23 1_555 1_555
C28 C33 1_555 1_555
C31 C32 1_555 1_555
C32 C33 1_555 1_555
C41 C42 1_555 1_555
C49 C50 1_555 1_555
C55 C56 1_555 1_555
C57 C58 1_555 1_555
C63 C68 1_555 1_555
C66 C67 1_555 1_555
C67 C68 1_555 1_555

#END
