
#######################################################################
#
#                 Cambridge Crystallographic Data Centre
#                                CCDC 
#
#######################################################################
#
# If this CIF has been generated from an entry in the Cambridge 
# Structural Database, then it will include bibliographic, chemical, 
# crystal, experimental, refinement or atomic coordinate data resulting 
# from the CCDC's data processing and validation procedures.
#
#######################################################################

data_YIMTOF
_chemical_formula_moiety         'C5 H7 N3 O1,0.5(H2 O1)'
_chemical_name_systematic        
'5-Methyl-1H-imidazole-4-carboxamide hemihydrate'
_symmetry_cell_setting           monoclinic
_symmetry_space_group_name_H-M   'C 2/c'
_symmetry_Int_Tables_number      15
_space_group_name_Hall           '-C 2yn'
loop_
_symmetry_equiv_pos_site_id
_symmetry_equiv_pos_as_xyz
1 x,y,z
2 -x,y,1/2-z
3 1/2+x,1/2+y,z
4 1/2-x,1/2+y,1/2-z
5 -x,-y,-z
6 x,-y,1/2+z
7 1/2-x,1/2-y,-z
8 1/2+x,1/2-y,1/2+z
_cell_length_a                   13.9968(7)
_cell_length_b                   6.5858(3)
_cell_length_c                   14.4893(8)
_cell_angle_alpha                90
_cell_angle_beta                 94.432(2)
_cell_angle_gamma                90
_cell_volume                     1331.63
_exptl_crystal_colour            colorless
_exptl_crystal_description       Block
_cell_formula_units_Z            8
loop_
_atom_site_label
_atom_site_type_symbol
_atom_site_fract_x
_atom_site_fract_y
_atom_site_fract_z
O1 O 0.93220(6) 0.17277(13) 0.91043(5)
N1 N 0.88601(7) -0.11234(15) 0.98248(7)
H1 H 0.8383(11) -0.192(2) 0.9995(10)
H2 H 0.9457(12) -0.132(2) 1.0062(11)
N2 N 0.69354(6) -0.03730(15) 0.92297(6)
N3 N 0.63199(7) 0.23596(16) 0.85207(7)
H3 H 0.5882(11) 0.322(3) 0.8247(11)
C1 C 0.86713(8) 0.05545(17) 0.93329(7)
C2 C 0.76615(8) 0.09820(17) 0.90571(7)
C3 C 0.61422(8) 0.05134(18) 0.88930(8)
H4 H 0.5458(9) 0.005(2) 0.8874(9)
C4 C 0.72876(8) 0.26953(17) 0.86216(7)
C5 C 0.77321(10) 0.45940(19) 0.83029(9)
H5 H 0.8270(14) 0.499(3) 0.8695(14)
H6 H 0.7993(13) 0.444(3) 0.7697(14)
H7 H 0.7295(13) 0.569(3) 0.8247(12)
O2 O 1.0000 0.01060(19) 0.7500
H8 H 0.9783(12) 0.089(3) 0.7906(12)
H8A H 1.0217(12) 0.089(3) 0.7094(12)
loop_
_geom_bond_atom_site_label_1
_geom_bond_atom_site_label_2
_geom_bond_site_symmetry_1
_geom_bond_site_symmetry_2
O1 C1 1_555 1_555
N1 H1 1_555 1_555
H2 N1 1_555 1_555
N2 C2 1_555 1_555
N3 H3 1_555 1_555
C1 N1 1_555 1_555
C2 C1 1_555 1_555
C3 N2 1_555 1_555
H4 C3 1_555 1_555
C4 N3 1_555 1_555
C5 C4 1_555 1_555
H5 C5 1_555 1_555
H6 C5 1_555 1_555
H7 C5 1_555 1_555
O2 H8 1_555 1_555
H8A O2 1_555 1_555
N3 C3 1_555 1_555
C2 C4 1_555 1_555

#END
