
#######################################################################
#
#                 Cambridge Crystallographic Data Centre
#                                CCDC 
#
#######################################################################
#
# If this CIF has been generated from an entry in the Cambridge 
# Structural Database, then it will include bibliographic, chemical, 
# crystal, experimental, refinement or atomic coordinate data resulting 
# from the CCDC's data processing and validation procedures.
#
#######################################################################

data_YIMVOI
_chemical_formula_moiety         'C20 H30 O3'
_chemical_name_systematic        
'14-ethenyl-3-oxopodocarpane-13-carboxylic acid'
_symmetry_cell_setting           orthorhombic
_symmetry_space_group_name_H-M   'P 21 21 21'
_symmetry_Int_Tables_number      19
_space_group_name_Hall           'P 2ac 2ab'
loop_
_symmetry_equiv_pos_site_id
_symmetry_equiv_pos_as_xyz
1 x,y,z
2 1/2-x,-y,1/2+z
3 -x,1/2+y,1/2-z
4 1/2+x,1/2-y,-z
_cell_length_a                   7.70960(10)
_cell_length_b                   12.04690(10)
_cell_length_c                   18.5504(2)
_cell_angle_alpha                90
_cell_angle_beta                 90
_cell_angle_gamma                90
_cell_volume                     1722.9
_exptl_crystal_colour            colorless
_exptl_crystal_description       block
_cell_formula_units_Z            4
loop_
_atom_site_label
_atom_site_type_symbol
_atom_site_fract_x
_atom_site_fract_y
_atom_site_fract_z
O1 O 0.5826(2) 0.73505(12) 0.89712(9)
C1 C 0.8781(3) 0.25217(15) 0.86187(10)
H1 H 0.8685 0.2106 0.9071
C2 C 0.7867(3) 0.60074(17) 0.94287(11)
C3 C 0.6640(2) 0.40067(15) 0.90700(10)
O2 O 0.6808(3) -0.09346(14) 0.81295(10)
H2 H 0.6646 -0.1395 0.8448
O3 O 0.7566(3) 0.01284(14) 0.90632(8)
C4 C 0.7685(3) 0.08746(16) 0.78456(10)
H3 H 0.7962 0.0484 0.7396
C5 C 0.7049(2) 0.31221(15) 0.84799(10)
H4 H 0.7197 0.3532 0.8028
C6 C 0.8135(3) 0.48701(15) 0.90301(10)
H5 H 0.8218 0.5065 0.8518
C7 C 0.6074(3) 0.64297(16) 0.92217(11)
C8 C 1.0264(3) 0.33651(17) 0.86922(11)
H6 H 1.1293 0.2980 0.8860
H7 H 1.0521 0.3669 0.8220
C9 C 0.9173(3) 0.16905(16) 0.79992(10)
H8 H 0.9264 0.2148 0.7564
C10 C 0.5572(3) 0.22934(17) 0.83494(12)
H9 H 0.5384 0.1858 0.8782
H10 H 0.4511 0.2696 0.8245
C11 C 0.7380(3) 0.00057(18) 0.84219(12)
C12 C 0.4924(3) 0.45821(17) 0.88774(12)
H11 H 0.4934 0.4768 0.8369
H12 H 0.3976 0.4067 0.8958
C13 C 0.9236(3) 0.68456(17) 0.91772(14)
H13 H 0.9289 0.6846 0.8660
H14 H 1.0348 0.6642 0.9370
H15 H 0.8929 0.7574 0.9345
C14 C 0.5991(3) 0.15216(17) 0.77233(11)
H16 H 0.6092 0.1955 0.7285
H17 H 0.5045 0.1000 0.7660
C15 C 0.4589(3) 0.56422(18) 0.93152(13)
H18 H 0.3524 0.5990 0.9153
H19 H 0.4459 0.5457 0.9821
C16 C 0.9873(3) 0.43214(17) 0.92074(12)
H20 H 1.0791 0.4870 0.9175
H21 H 0.9845 0.4044 0.9698
C17 C 0.6443(3) 0.34429(16) 0.98114(11)
H22 H 0.5690 0.2812 0.9768
H23 H 0.5956 0.3961 1.0149
H24 H 0.7560 0.3205 0.9980
C18 C 1.0926(3) 0.1135(2) 0.80741(14)
H25 H 1.1866 0.1613 0.8124
C19 C 1.1301(3) 0.0079(2) 0.80785(12)
H26 H 1.0423 -0.0445 0.8031
H27 H 1.2447 -0.0150 0.8129
C20 C 0.7958(3) 0.59269(19) 1.02575(12)
H28 H 0.7854 0.6656 1.0462
H29 H 0.9049 0.5607 1.0397
H30 H 0.7029 0.5468 1.0429
loop_
_geom_bond_atom_site_label_1
_geom_bond_atom_site_label_2
_geom_bond_site_symmetry_1
_geom_bond_site_symmetry_2
O1 C7 1_555 1_555
C1 H1 1_555 1_555
C2 C6 1_555 1_555
C3 C5 1_555 1_555
O2 H2 1_555 1_555
O3 C11 1_555 1_555
C4 H3 1_555 1_555
C5 C1 1_555 1_555
H4 C5 1_555 1_555
C6 C3 1_555 1_555
H5 C6 1_555 1_555
C7 C2 1_555 1_555
C8 C1 1_555 1_555
H6 C8 1_555 1_555
H7 C8 1_555 1_555
C9 C1 1_555 1_555
H8 C9 1_555 1_555
C10 C5 1_555 1_555
H9 C10 1_555 1_555
H10 C10 1_555 1_555
C11 O2 1_555 1_555
C12 C3 1_555 1_555
H11 C12 1_555 1_555
H12 C12 1_555 1_555
C13 C2 1_555 1_555
H13 C13 1_555 1_555
H14 C13 1_555 1_555
H15 C13 1_555 1_555
C14 C4 1_555 1_555
H16 C14 1_555 1_555
H17 C14 1_555 1_555
C15 C7 1_555 1_555
H18 C15 1_555 1_555
H19 C15 1_555 1_555
C16 C6 1_555 1_555
H20 C16 1_555 1_555
H21 C16 1_555 1_555
C17 C3 1_555 1_555
H22 C17 1_555 1_555
H23 C17 1_555 1_555
H24 C17 1_555 1_555
C18 C9 1_555 1_555
H25 C18 1_555 1_555
C19 C18 1_555 1_555
H26 C19 1_555 1_555
H27 C19 1_555 1_555
C20 C2 1_555 1_555
H28 C20 1_555 1_555
H29 C20 1_555 1_555
H30 C20 1_555 1_555
C4 C9 1_555 1_555
C4 C11 1_555 1_555
C8 C16 1_555 1_555
C10 C14 1_555 1_555
C12 C15 1_555 1_555

#END
