
#######################################################################
#
#                 Cambridge Crystallographic Data Centre
#                                CCDC 
#
#######################################################################
#
# If this CIF has been generated from an entry in the Cambridge 
# Structural Database, then it will include bibliographic, chemical, 
# crystal, experimental, refinement or atomic coordinate data resulting 
# from the CCDC's data processing and validation procedures.
#
#######################################################################

data_YIMWIA
_chemical_formula_moiety         'C6 H9 N3 O3,C6 H3 N3 O6'
_chemical_name_systematic        'Trimethylisocyanurate 1,3,5-trinitrobenzene'
_symmetry_cell_setting           hexagonal
_symmetry_space_group_name_H-M   'P -6'
_symmetry_Int_Tables_number      174
_space_group_name_Hall           'P -6'
loop_
_symmetry_equiv_pos_site_id
_symmetry_equiv_pos_as_xyz
1 x,y,z
2 -x+y,-x,-z
3 -y,x-y,z
4 x,y,-z
5 -x+y,-x,z
6 -y,x-y,-z
_cell_length_a                   8.708
_cell_length_b                   8.708
_cell_length_c                   6.085
_cell_angle_alpha                90
_cell_angle_beta                 90
_cell_angle_gamma                120
_cell_volume                     399.602
_exptl_crystal_colour            'light yellow'
_chemical_melting_point          110-112deg.C
_cell_formula_units_Z            1
loop_
_atom_site_label
_atom_site_type_symbol
_atom_site_fract_x
_atom_site_fract_y
_atom_site_fract_z
C1 C 0.855(2) 1.024(2) 0.500
C2 C 0.647(3) 0.713(2) 0.500
N1 N 0.830(1) 0.870(1) 0.500
O1 O 0.730(2) 1.075(2) 0.500
N1A N 1.040(1) 1.170(1) 0.500
C1B C 0.976(2) 0.831(3) 0.500
C1A C 1.169(3) 1.145(2) 0.500
C2A C 1.066(4) 1.353(3) 0.500
N1B N 1.130(1) 0.960(1) 0.500
O1B O 0.925(2) 0.655(3) 0.500
O1A O 1.345(3) 1.270(2) 0.500
C2B C 1.287(2) 0.934(4) 0.500
C3 C 0.652(2) 0.1674(9) 0.000
C4 C 0.501(1) 0.174(1) 0.000
N2 N 0.663(1) 0.0105(8) 0.000
O2 O 0.802(1) 0.012(1) 0.000
O3 O 0.513(1) -0.1316(9) 0.000
H1 H 0.3909 0.0703 0.000
C4B C 0.826(1) 0.327(1) 0.000
C3A C 0.5154(22) 0.348(2) 0.000
C3B C 0.8326(9) 0.4846(22) 0.000
H1B H 0.9297 0.3206 0.000
C4A C 0.673(1) 0.499(1) 0.000
N2A N 0.3475(13) 0.337(1) 0.000
N2B N 0.9895(8) 0.6525(13) 0.000
H1A H 0.6794 0.6091 0.000
O2A O 0.210(1) 0.198(1) 0.000
O3A O 0.3554(13) 0.487(1) 0.000
O2B O 0.988(1) 0.790(1) 0.000
O3B O 1.1316(9) 0.6446(13) 0.000
H2? H 0.59(1) 0.69(2) 0.665(7)
H3? H 0.651(5) 0.598(7) 0.44(4)
H4? H 0.564(9) 0.74(1) 0.39(3)
loop_
_geom_bond_atom_site_label_1
_geom_bond_atom_site_label_2
_geom_bond_site_symmetry_1
_geom_bond_site_symmetry_2
C1 N1 1_555 1_555
C2 N1 1_555 1_555
N1 C1B 1_555 1_555
O1 C1 1_555 1_555
C3 C4 1_555 1_555
C4 H1 1_555 1_555
N2 C3 1_555 1_555
O2 N2 1_555 1_555
O3 N2 1_555 1_555
N1A C1 1_555 1_555
C1B N1B 1_555 1_555
C1A N1A 1_555 1_555
C2A N1A 1_555 1_555
N1B C1A 1_555 1_555
O1B C1B 1_555 1_555
O1A C1A 1_555 1_555
C2B N1B 1_555 1_555
C4B C3 1_555 1_555
C3A C4 1_555 1_555
C3B C4B 1_555 1_555
H1B C4B 1_555 1_555
C4A C3A 1_555 1_555
N2A C3A 1_555 1_555
N2B C3B 1_555 1_555
H1A C4A 1_555 1_555
O2A N2A 1_555 1_555
O3A N2A 1_555 1_555
O2B N2B 1_555 1_555
O3B N2B 1_555 1_555
C3B C4A 1_555 1_555

#END
