
#######################################################################
#
#                 Cambridge Crystallographic Data Centre
#                                CCDC 
#
#######################################################################
#
# If this CIF has been generated from an entry in the Cambridge 
# Structural Database, then it will include bibliographic, chemical, 
# crystal, experimental, refinement or atomic coordinate data resulting 
# from the CCDC's data processing and validation procedures.
#
#######################################################################

data_YIMYAU
_chemical_formula_moiety         'C39 H70 O2,C37 H66 O2'
_chemical_name_systematic        'Cholesteryl caprate cholesteryl laurate'
_symmetry_cell_setting           monoclinic
_symmetry_space_group_name_H-M   'P 21'
_symmetry_Int_Tables_number      4
_space_group_name_Hall           'P 2yb'
loop_
_symmetry_equiv_pos_site_id
_symmetry_equiv_pos_as_xyz
1 x,y,z
2 -x,1/2+y,-z
_cell_length_a                   12.969
_cell_length_b                   9.048
_cell_length_c                   31.137
_cell_angle_alpha                90
_cell_angle_beta                 91.12
_cell_angle_gamma                90
_cell_volume                     3653.03
_cell_formula_units_Z            2
loop_
_atom_site_label
_atom_site_type_symbol
_atom_site_fract_x
_atom_site_fract_y
_atom_site_fract_z
C1 C -0.482583 0.227943 0.161670
C2 C -0.542807 0.183937 0.121499
C3 C -0.515344 0.027186 0.108598
C4 C -0.541147 -0.081873 0.142905
C5 C -0.489350 -0.036892 0.185195
C6 C -0.437115 -0.139633 0.207203
C7 C -0.382269 -0.111735 0.250155
C8 C -0.412859 0.034249 0.270187
C9 C -0.420436 0.157402 0.236522
C10 C -0.501715 0.117987 0.200756
C11 C -0.437707 0.312699 0.257287
C12 C -0.361156 0.351325 0.293201
C13 C -0.356269 0.224712 0.328780
C14 C -0.331870 0.077504 0.305432
C15 C -0.310322 -0.032572 0.340265
C16 C -0.255613 0.063007 0.376784
C17 C -0.266026 0.231356 0.359918
C18 C -0.457716 0.220873 0.354091
C19 C -0.616030 0.137623 0.217666
C20 C -0.270875 0.341715 0.399580
C21 C -0.281546 0.514101 0.382008
C22 C -0.167576 0.318578 0.423955
C23 C -0.171519 0.372524 0.469424
C24 C -0.072867 0.335322 0.499967
C25 C -0.086080 0.358630 0.545280
C26 C -0.175250 0.259290 0.560860
C27 C 0.014190 0.348230 0.573030
C28 C -0.552534 0.030481 0.032424
C29 C -0.622087 -0.033337 -0.003256
C30 C -0.608512 0.041177 -0.045018
C31 C -0.685406 -0.017110 -0.078740
C32 C -0.680425 0.057489 -0.120944
C33 C -0.768296 0.005430 -0.153008
C34 C -0.776181 0.091363 -0.194734
C35 C -0.873302 0.054999 -0.221267
C36 C -0.876626 0.147222 -0.263055
C37 C -0.976508 0.097140 -0.286050
C38 C -0.979911 0.197501 -0.324935
C39 C -1.09776 0.105306 -0.349909
O1 O -0.579208 -0.020494 0.071349
O2 O -0.481031 0.114931 0.027440
C40 C 0.718929 0.097445 0.951044
C41 C 0.669309 0.070893 0.905252
C42 C 0.760522 0.080479 0.873902
C43 C 0.839418 -0.039840 0.882036
C44 C 0.882065 -0.026561 0.928850
C45 C 0.981515 -0.023280 0.935244
C46 C 1.034817 -0.015315 0.979571
C47 C 0.957309 -0.038570 1.015713
C48 C 0.856809 0.039567 1.005958
C49 C 0.802621 -0.018335 0.964209
C50 C 0.781422 0.035642 1.043947
C51 C 0.834856 0.088608 1.087149
C52 C 0.934608 0.003163 1.096301
C53 C 1.002745 0.019357 1.057308
C54 C 1.109926 -0.042088 1.074881
C55 C 1.116369 0.011804 1.121077
C56 C 1.005704 0.069519 1.131910
C57 C 0.913402 -0.162038 1.107495
C58 C 0.753158 -0.172331 0.969693
C59 C 0.982337 0.037908 1.180808
C60 C 0.871972 0.086765 1.192033
C61 C 1.057328 0.128115 1.208575
C62 C 1.054985 0.084975 1.256648
C63 C 1.138129 0.184811 1.283522
C64 C 1.145424 0.118094 1.328740
C65 C 1.236446 0.217749 1.350176
C66 C 1.044168 0.179863 1.351711
C67 C 0.731429 0.132417 0.797777
C68 C 0.675271 0.093048 0.758365
C69 C 0.679525 0.206829 0.723798
C70 C 0.618852 0.153073 0.6835
C71 C 0.624925 0.260521 0.648132
C72 C 0.560133 0.213724 0.608874
C73 C 0.564445 0.321142 0.565312
C74 C 0.458254 0.281955 0.534012
C75 C 0.437562 0.336077 0.484854
C76 C 0.323142 0.305815 0.472056
O3 O 0.709954 0.053089 0.831123
O4 O 0.801949 0.220967 0.8019
loop_
_geom_bond_atom_site_label_1
_geom_bond_atom_site_label_2
_geom_bond_site_symmetry_1
_geom_bond_site_symmetry_2
C1 C2 1_555 1_555
C2 C3 1_555 1_555
C3 C4 1_555 1_555
C4 C5 1_555 1_555
C5 C6 1_555 1_555
C6 C7 1_555 1_555
C7 C8 1_555 1_555
C8 C9 1_555 1_555
C9 C10 1_555 1_555
C10 C1 1_555 1_555
C11 C9 1_555 1_555
C12 C11 1_555 1_555
C13 C12 1_555 1_555
C14 C8 1_555 1_555
C15 C14 1_555 1_555
C16 C15 1_555 1_555
C17 C13 1_555 1_555
C18 C13 1_555 1_555
C19 C10 1_555 1_555
C20 C17 1_555 1_555
C21 C20 1_555 1_555
C22 C20 1_555 1_555
C23 C22 1_555 1_555
C24 C23 1_555 1_555
C25 C24 1_555 1_555
C26 C25 1_555 1_555
C27 C25 1_555 1_555
C28 C29 1_555 1_555
C29 C30 1_555 1_555
C30 C31 1_555 1_555
C31 C32 1_555 1_555
C32 C33 1_555 1_555
C33 C34 1_555 1_555
C34 C35 1_555 1_555
C35 C36 1_555 1_555
C36 C37 1_555 1_555
C37 C38 1_555 1_555
C38 C39 1_555 1_555
O1 C3 1_555 1_555
O2 C28 1_555 1_555
C40 C41 1_555 1_555
C41 C42 1_555 1_555
C42 C43 1_555 1_555
C43 C44 1_555 1_555
C44 C45 1_555 1_555
C45 C46 1_555 1_555
C46 C47 1_555 1_555
C47 C48 1_555 1_555
C48 C49 1_555 1_555
C49 C40 1_555 1_555
C50 C48 1_555 1_555
C51 C50 1_555 1_555
C52 C51 1_555 1_555
C53 C47 1_555 1_555
C54 C53 1_555 1_555
C55 C54 1_555 1_555
C56 C52 1_555 1_555
C57 C52 1_555 1_555
C58 C49 1_555 1_555
C59 C56 1_555 1_555
C60 C59 1_555 1_555
C61 C59 1_555 1_555
C62 C61 1_555 1_555
C63 C62 1_555 1_555
C64 C63 1_555 1_555
C65 C64 1_555 1_555
C66 C64 1_555 1_555
C67 C68 1_555 1_555
C68 C69 1_555 1_555
C69 C70 1_555 1_555
C70 C71 1_555 1_555
C71 C72 1_555 1_555
C72 C73 1_555 1_555
C73 C74 1_555 1_555
C74 C75 1_555 1_555
C75 C76 1_555 1_555
O3 C42 1_555 1_555
O4 C67 1_555 1_555
C5 C10 1_555 1_555
C13 C14 1_555 1_555
C16 C17 1_555 1_555
C28 O1 1_555 1_555
C44 C49 1_555 1_555
C52 C53 1_555 1_555
C55 C56 1_555 1_555
C67 O3 1_555 1_555

#END
