
#######################################################################
#
#                 Cambridge Crystallographic Data Centre
#                                CCDC 
#
#######################################################################
#
# If this CIF has been generated from an entry in the Cambridge 
# Structural Database, then it will include bibliographic, chemical, 
# crystal, experimental, refinement or atomic coordinate data resulting 
# from the CCDC's data processing and validation procedures.
#
#######################################################################

data_YIMYAW
_chemical_formula_moiety         'C28 H25 Br1 O5'
_chemical_name_systematic        
't-Butyl 1-(1-(4-bromophenyl)-3-oxo-3-phenylpropyl)-3-oxo-1,3-dihydro-2-benzofuran-1-carboxylate'
_symmetry_cell_setting           orthorhombic
_symmetry_space_group_name_H-M   'P 21 21 21'
_symmetry_Int_Tables_number      19
_space_group_name_Hall           'P 2ac 2ab'
loop_
_symmetry_equiv_pos_site_id
_symmetry_equiv_pos_as_xyz
1 x,y,z
2 1/2-x,-y,1/2+z
3 -x,1/2+y,1/2-z
4 1/2+x,1/2-y,-z
_cell_length_a                   10.4115(5)
_cell_length_b                   12.5129(6)
_cell_length_c                   20.2574(10)
_cell_angle_alpha                90
_cell_angle_beta                 90
_cell_angle_gamma                90
_cell_volume                     2639.09
_exptl_crystal_colour            colorless
_exptl_crystal_description       Block
_cell_formula_units_Z            4
loop_
_atom_site_label
_atom_site_type_symbol
_atom_site_fract_x
_atom_site_fract_y
_atom_site_fract_z
Br1 Br 0.65534(3) 0.37512(3) 0.18604(2)
O1 O 0.3632(3) -0.04040(17) 0.04456(14)
O2 O 0.06290(16) 0.11893(13) 0.20808(7)
O3 O 0.0455(2) 0.21835(15) 0.29941(9)
O4 O -0.0524(2) 0.06906(16) 0.04499(9)
O5 O -0.13113(16) 0.03443(14) 0.14633(8)
C1 C 0.5090(3) 0.2899(2) 0.16507(15)
C2 C 0.4609(3) 0.2201(2) 0.21069(14)
H1 H 0.4961 0.2164 0.2528
C3 C 0.3588(3) 0.1547(2) 0.19336(13)
H2 H 0.3262 0.1069 0.2242
C4 C 0.3039(3) 0.15925(18) 0.13053(12)
C5 C 0.3561(3) 0.23369(18) 0.08640(13)
H3 H 0.3210 0.2390 0.0443
C6 C 0.4564(3) 0.2987(2) 0.10280(14)
H4 H 0.4887 0.3479 0.0726
C7 C 0.1916(2) 0.09095(19) 0.10984(13)
H5 H 0.1861 0.0954 0.0616
C8 C 0.2055(3) -0.02768(19) 0.12721(14)
H6 H 0.2275 -0.0337 0.1736
H7 H 0.1231 -0.0624 0.1209
C9 C 0.3052(3) -0.0863(2) 0.08716(16)
C10 C 0.3297(3) -0.2003(2) 0.10251(16)
C11 C 0.2540(3) -0.2576(2) 0.1451(2)
H8 H 0.1850 -0.2242 0.1657
C12 C 0.2786(4) -0.3644(3) 0.1580(2)
H9 H 0.2256 -0.4026 0.1864
C13 C 0.3787(6) -0.4123(3) 0.1293(3)
H10 H 0.3941 -0.4842 0.1378
C14 C 0.4604(5) -0.3571(4) 0.0871(2)
H11 H 0.5314 -0.3909 0.0687
C15 C 0.4344(4) -0.2503(3) 0.0729(2)
H12 H 0.4866 -0.2127 0.0438
C16 C 0.0627(2) 0.1338(2) 0.13745(11)
C17 C 0.0458(3) 0.2137(2) 0.24044(13)
C18 C 0.0311(2) 0.29788(19) 0.19072(13)
C19 C 0.0080(3) 0.4059(2) 0.19908(14)
H13 H 0.0035 0.4360 0.2410
C20 C -0.0079(3) 0.4668(2) 0.14357(16)
H14 H -0.0256 0.5394 0.1477
C21 C 0.0022(3) 0.4215(2) 0.08111(16)
H15 H -0.0076 0.4645 0.0440
C22 C 0.0266(3) 0.3137(2) 0.07314(13)
H16 H 0.0333 0.2835 0.0313
C23 C 0.0405(2) 0.25273(18) 0.12887(13)
C24 C -0.0484(3) 0.07387(19) 0.10433(13)
C25 C -0.2502(3) -0.0212(2) 0.12206(15)
C26 C -0.3169(3) -0.0499(3) 0.18550(19)
H17 H -0.3963 -0.0855 0.1758
H18 H -0.3340 0.0140 0.2102
H19 H -0.2628 -0.0965 0.2109
C27 C -0.2113(3) -0.1201(3) 0.08443(18)
H20 H -0.1710 -0.0997 0.0437
H21 H -0.2860 -0.1625 0.0752
H22 H -0.1520 -0.1611 0.1105
C28 C -0.3278(3) 0.0560(3) 0.08127(19)
H23 H -0.2851 0.0684 0.0400
H24 H -0.3364 0.1223 0.1047
H25 H -0.4115 0.0264 0.0732
loop_
_geom_bond_atom_site_label_1
_geom_bond_atom_site_label_2
_geom_bond_site_symmetry_1
_geom_bond_site_symmetry_2
Br1 C1 1_555 1_555
O1 C9 1_555 1_555
O2 C16 1_555 1_555
O3 C17 1_555 1_555
O4 C24 1_555 1_555
O5 C24 1_555 1_555
C1 C2 1_555 1_555
C2 H1 1_555 1_555
C3 C2 1_555 1_555
H2 C3 1_555 1_555
C4 C3 1_555 1_555
C5 C4 1_555 1_555
H3 C5 1_555 1_555
C6 C1 1_555 1_555
H4 C6 1_555 1_555
C7 C4 1_555 1_555
H5 C7 1_555 1_555
C8 C7 1_555 1_555
H6 C8 1_555 1_555
H7 C8 1_555 1_555
C9 C8 1_555 1_555
C10 C9 1_555 1_555
C11 C10 1_555 1_555
H8 C11 1_555 1_555
C12 C11 1_555 1_555
H9 C12 1_555 1_555
C13 C12 1_555 1_555
H10 C13 1_555 1_555
C14 C13 1_555 1_555
H11 C14 1_555 1_555
C15 C10 1_555 1_555
H12 C15 1_555 1_555
C16 C7 1_555 1_555
C17 O2 1_555 1_555
C18 C17 1_555 1_555
C19 C18 1_555 1_555
H13 C19 1_555 1_555
C20 C19 1_555 1_555
H14 C20 1_555 1_555
C21 C20 1_555 1_555
H15 C21 1_555 1_555
C22 C21 1_555 1_555
H16 C22 1_555 1_555
C23 C16 1_555 1_555
C24 C16 1_555 1_555
C25 O5 1_555 1_555
C26 C25 1_555 1_555
H17 C26 1_555 1_555
H18 C26 1_555 1_555
H19 C26 1_555 1_555
C27 C25 1_555 1_555
H20 C27 1_555 1_555
H21 C27 1_555 1_555
H22 C27 1_555 1_555
C28 C25 1_555 1_555
H23 C28 1_555 1_555
H24 C28 1_555 1_555
H25 C28 1_555 1_555
C5 C6 1_555 1_555
C14 C15 1_555 1_555
C18 C23 1_555 1_555
C22 C23 1_555 1_555

#END
