
#######################################################################
#
#                 Cambridge Crystallographic Data Centre
#                                CCDC 
#
#######################################################################
#
# If this CIF has been generated from an entry in the Cambridge 
# Structural Database, then it will include bibliographic, chemical, 
# crystal, experimental, refinement or atomic coordinate data resulting 
# from the CCDC's data processing and validation procedures.
#
#######################################################################

data_YIMZOL
_chemical_formula_moiety         'C48 H30 N6 O6'
_chemical_name_systematic        
"2,2',2'',2''',2'''',2'''''-Dipyrazino[2,3-f:2',3'-h]quinoxaline-2,3,6,7,10,11-hexaylhexaphenol unknown solvate"
_symmetry_cell_setting           triclinic
_symmetry_space_group_name_H-M   'P -1'
_symmetry_Int_Tables_number      2
_space_group_name_Hall           '-P 1'
loop_
_symmetry_equiv_pos_site_id
_symmetry_equiv_pos_as_xyz
1 x,y,z
2 -x,-y,-z
_cell_length_a                   10.4890(11)
_cell_length_b                   13.8215(14)
_cell_length_c                   16.4351(16)
_cell_angle_alpha                90.336(2)
_cell_angle_beta                 105.722(2)
_cell_angle_gamma                90.046(2)
_cell_volume                     2293.47
_exptl_crystal_colour            yellow
_exptl_crystal_description       prismatic
_cell_formula_units_Z            2
loop_
_atom_site_label
_atom_site_type_symbol
_atom_site_fract_x
_atom_site_fract_y
_atom_site_fract_z
N1 N 0.65167(17) 0.66330(12) 0.22457(10)
N2 N 0.71643(17) 0.59051(13) 0.38671(10)
N3 N 0.92975(17) 0.66857(12) 0.50932(10)
N4 N 1.05600(17) 0.83152(12) 0.47370(10)
N5 N 0.97219(17) 0.91605(13) 0.31485(11)
N6 N 0.75187(17) 0.84358(12) 0.19701(10)
O1 O 1.1024(2) 1.07968(16) 0.36723(12)
H1 H 1.0657 1.0291 0.3740
O2 O 0.6985(2) 0.82986(13) 0.02007(11)
H2 H 0.7051 0.8042 0.0659
O3 O 0.4394(2) 0.67718(14) 0.09034(12)
H3 H 0.5003 0.6998 0.1281
O4 O 0.7093(2) 0.42986(15) 0.47483(12)
H4 H 0.7463 0.4762 0.4601
O5 O 0.99353(19) 0.50253(11) 0.58896(10)
H5 H 0.9631 0.5365 0.5475
O6 O 1.15245(18) 0.99342(12) 0.55329(11)
H6 H 1.1008 0.9613 0.5166
C1 C 0.8013(2) 0.79806(15) 0.27091(12)
C2 C 0.7422(2) 0.70831(14) 0.28798(12)
C3 C 0.78252(19) 0.66631(14) 0.36776(12)
C4 C 0.8912(2) 0.70897(15) 0.43240(12)
C5 C 0.9522(2) 0.79292(15) 0.41523(12)
C6 C 0.9070(2) 0.83812(15) 0.33268(12)
C7 C 0.9312(2) 0.95673(15) 0.23943(12)
C8 C 0.8091(2) 0.92413(15) 0.18150(12)
C9 C 0.5942(2) 0.58303(15) 0.24133(13)
C10 C 0.6161(2) 0.55172(14) 0.32736(13)
C11 C 1.0303(2) 0.70727(15) 0.56851(12)
C12 C 1.0992(2) 0.78863(15) 0.54833(12)
C13 C 1.0184(2) 1.03153(16) 0.22011(14)
C14 C 1.1013(2) 1.08781(18) 0.28484(16)
C15 C 1.1838(3) 1.1581(2) 0.2664(2)
H7 H 1.2370 1.1959 0.3093
C16 C 1.1861(3) 1.1713(3) 0.1832(2)
H8 H 1.2396 1.2192 0.1703
C17 C 1.1106(3) 1.1147(2) 0.1206(2)
H9 H 1.1153 1.1225 0.0653
C18 C 1.0285(3) 1.0470(2) 0.13829(16)
H10 H 0.9771 1.0096 0.0943
C19 C 0.7405(2) 0.97692(16) 0.10379(13)
C20 C 0.7241(2) 1.07635(17) 0.10466(16)
H11 H 0.7550 1.1101 0.1553
C21 C 0.6633(3) 1.1263(2) 0.03254(17)
H12 H 0.6525 1.1930 0.0345
C22 C 0.6188(3) 1.0766(2) -0.04247(17)
H13 H 0.5794 1.1102 -0.0917
C23 C 0.6314(3) 0.9788(2) -0.04580(15)
H14 H 0.6012 0.9462 -0.0971
C24 C 0.6904(2) 0.92674(18) 0.02836(14)
C25 C 0.5125(2) 0.52911(16) 0.16718(13)
C26 C 0.4390(2) 0.57979(19) 0.09693(15)
C27 C 0.3584(3) 0.5278(2) 0.02876(17)
H15 H 0.3060 0.5610 -0.0173
C28 C 0.3556(3) 0.4297(2) 0.02890(18)
H16 H 0.3007 0.3964 -0.0166
C29 C 0.4336(3) 0.3790(2) 0.09592(17)
H17 H 0.4339 0.3117 0.0952
C30 C 0.5109(3) 0.42913(18) 0.16390(15)
H18 H 0.5639 0.3948 0.2091
C31 C 0.5308(2) 0.48340(16) 0.35690(14)
C32 C 0.3949(3) 0.4768(2) 0.31598(19)
H19 H 0.3599 0.5138 0.2681
C33 C 0.3128(3) 0.4173(3) 0.3449(2)
H20 H 0.2233 0.4134 0.3164
C34 C 0.3628(4) 0.3635(3) 0.4161(2)
H21 H 0.3073 0.3226 0.4356
C35 C 0.4953(4) 0.3696(2) 0.45893(19)
H22 H 0.5283 0.3334 0.5076
C36 C 0.5787(3) 0.42871(17) 0.43025(15)
C37 C 1.0579(2) 0.65979(16) 0.65239(13)
C38 C 1.0397(2) 0.55978(16) 0.65844(13)
C39 C 1.0689(3) 0.51497(19) 0.73618(15)
H23 H 1.0596 0.4483 0.7393
C40 C 1.1118(3) 0.5690(2) 0.80901(16)
H24 H 1.1341 0.5384 0.8612
C41 C 1.1221(3) 0.6683(2) 0.80534(16)
H25 H 1.1457 0.7051 0.8547
C42 C 1.0973(2) 0.71204(18) 0.72809(14)
H26 H 1.1069 0.7788 0.7260
C43 C 1.2207(2) 0.83289(16) 0.60509(13)
C44 C 1.3207(2) 0.77661(19) 0.65620(14)
H27 H 1.3114 0.7097 0.6553
C45 C 1.4332(3) 0.8183(2) 0.70798(17)
H28 H 1.5006 0.7796 0.7400
C46 C 1.4455(3) 0.9172(2) 0.71205(17)
H29 H 1.5193 0.9454 0.7493
C47 C 1.3494(3) 0.9752(2) 0.66147(16)
H30 H 1.3582 1.0422 0.6648
C48 C 1.2398(2) 0.93337(17) 0.60581(13)
loop_
_geom_bond_atom_site_label_1
_geom_bond_atom_site_label_2
_geom_bond_site_symmetry_1
_geom_bond_site_symmetry_2
N1 C2 1_555 1_555
N2 C3 1_555 1_555
N3 C4 1_555 1_555
N4 C5 1_555 1_555
N5 C6 1_555 1_555
N6 C1 1_555 1_555
O1 H1 1_555 1_555
O2 H2 1_555 1_555
O3 H3 1_555 1_555
O4 H4 1_555 1_555
O5 H5 1_555 1_555
O6 H6 1_555 1_555
C1 C2 1_555 1_555
C2 C3 1_555 1_555
C3 C4 1_555 1_555
C4 C5 1_555 1_555
C5 C6 1_555 1_555
C6 C1 1_555 1_555
C7 N5 1_555 1_555
C8 N6 1_555 1_555
C9 N1 1_555 1_555
C10 N2 1_555 1_555
C11 N3 1_555 1_555
C12 N4 1_555 1_555
C13 C7 1_555 1_555
C14 O1 1_555 1_555
C15 C14 1_555 1_555
H7 C15 1_555 1_555
C16 C15 1_555 1_555
H8 C16 1_555 1_555
C17 C16 1_555 1_555
H9 C17 1_555 1_555
C18 C13 1_555 1_555
H10 C18 1_555 1_555
C19 C8 1_555 1_555
C20 C19 1_555 1_555
H11 C20 1_555 1_555
C21 C20 1_555 1_555
H12 C21 1_555 1_555
C22 C21 1_555 1_555
H13 C22 1_555 1_555
C23 C22 1_555 1_555
H14 C23 1_555 1_555
C24 O2 1_555 1_555
C25 C9 1_555 1_555
C26 O3 1_555 1_555
C27 C26 1_555 1_555
H15 C27 1_555 1_555
C28 C27 1_555 1_555
H16 C28 1_555 1_555
C29 C28 1_555 1_555
H17 C29 1_555 1_555
C30 C25 1_555 1_555
H18 C30 1_555 1_555
C31 C10 1_555 1_555
C32 C31 1_555 1_555
H19 C32 1_555 1_555
C33 C32 1_555 1_555
H20 C33 1_555 1_555
C34 C33 1_555 1_555
H21 C34 1_555 1_555
C35 C34 1_555 1_555
H22 C35 1_555 1_555
C36 O4 1_555 1_555
C37 C11 1_555 1_555
C38 O5 1_555 1_555
C39 C38 1_555 1_555
H23 C39 1_555 1_555
C40 C39 1_555 1_555
H24 C40 1_555 1_555
C41 C40 1_555 1_555
H25 C41 1_555 1_555
C42 C37 1_555 1_555
H26 C42 1_555 1_555
C43 C12 1_555 1_555
C44 C43 1_555 1_555
H27 C44 1_555 1_555
C45 C44 1_555 1_555
H28 C45 1_555 1_555
C46 C45 1_555 1_555
H29 C46 1_555 1_555
C47 C46 1_555 1_555
H30 C47 1_555 1_555
C48 O6 1_555 1_555
C7 C8 1_555 1_555
C9 C10 1_555 1_555
C11 C12 1_555 1_555
C13 C14 1_555 1_555
C17 C18 1_555 1_555
C19 C24 1_555 1_555
C23 C24 1_555 1_555
C25 C26 1_555 1_555
C29 C30 1_555 1_555
C31 C36 1_555 1_555
C35 C36 1_555 1_555
C37 C38 1_555 1_555
C41 C42 1_555 1_555
C43 C48 1_555 1_555
C47 C48 1_555 1_555

#END
