
#######################################################################
#
#                 Cambridge Crystallographic Data Centre
#                                CCDC 
#
#######################################################################
#
# If this CIF has been generated from an entry in the Cambridge 
# Structural Database, then it will include bibliographic, chemical, 
# crystal, experimental, refinement or atomic coordinate data resulting 
# from the CCDC's data processing and validation procedures.
#
#######################################################################

data_YIMZOM
_chemical_formula_moiety         '2(C27 H18 O1),C10 H2 N4'
_chemical_name_systematic        
'benzene-1,2,4,5-tetracarbonitrile bis(3-(anthracen-9-yl)-1-(naphthalen-1-yl)prop-2-en-1-one)'
_symmetry_cell_setting           triclinic
_symmetry_space_group_name_H-M   'P -1'
_symmetry_Int_Tables_number      2
_space_group_name_Hall           '-P 1'
loop_
_symmetry_equiv_pos_site_id
_symmetry_equiv_pos_as_xyz
1 x,y,z
2 -x,-y,-z
_cell_length_a                   7.9623(5)
_cell_length_b                   11.7000(8)
_cell_length_c                   12.8163(9)
_cell_angle_alpha                95.942(6)
_cell_angle_beta                 98.629(5)
_cell_angle_gamma                98.722(5)
_cell_volume                     1157.01
_exptl_crystal_colour            orange
_exptl_crystal_description       block
_cell_formula_units_Z            1
loop_
_atom_site_label
_atom_site_type_symbol
_atom_site_fract_x
_atom_site_fract_y
_atom_site_fract_z
O1 O 0.6892(2) 0.91987(19) 0.23029(17)
C1 C 0.7956(3) 0.61300(19) 0.34992(19)
C2 C 0.8916(3) 0.70207(19) 0.42761(19)
C3 C 0.9608(3) 0.86113(19) 0.26170(19)
C4 C 0.7700(3) 0.8839(2) 0.4042(2)
H1 H 0.7196 0.9427 0.4351
C5 C 0.8114(3) 0.8029(2) 0.4632(2)
H2 H 0.7886 0.8094 0.5325
C6 C 0.7972(3) 0.8887(2) 0.2938(2)
C7 C 0.9620(3) 0.7862(2) 0.1669(2)
C8 C 0.8761(4) 0.5179(2) 0.3133(2)
C9 C 1.0613(3) 0.6965(2) 0.4731(2)
C10 C 1.1132(3) 0.9182(2) 0.3216(2)
H3 H 1.1125 0.9653 0.3845
C11 C 1.1409(3) 0.6014(2) 0.4354(2)
C12 C 0.6195(3) 0.6095(2) 0.3064(2)
H4 H 0.5641 0.6698 0.3288
C13 C 1.0454(4) 0.5161(2) 0.3564(2)
H5 H 1.0975 0.4552 0.3315
C14 C 1.1219(4) 0.7724(2) 0.1357(2)
C15 C 0.8108(4) 0.7203(2) 0.1035(2)
H6 H 0.7040 0.7278 0.1217
C16 C 1.2721(4) 0.9059(3) 0.2878(3)
H7 H 1.3752 0.9466 0.3275
C17 C 1.1597(4) 0.7826(2) 0.5547(2)
H8 H 1.1104 0.8448 0.5802
C18 C 0.7764(5) 0.4276(2) 0.2360(2)
H9 H 0.8275 0.3658 0.2117
C19 C 0.5302(4) 0.5208(3) 0.2335(2)
H10 H 0.4147 0.5206 0.2071
C20 C 1.1231(5) 0.6952(3) 0.0426(3)
H11 H 1.2274 0.6863 0.0213
C21 C 0.6113(5) 0.4291(3) 0.1973(3)
H12 H 0.5497 0.3691 0.1463
C22 C 1.3246(4) 0.7755(3) 0.5959(3)
H13 H 1.3872 0.8324 0.6495
C23 C 1.2733(4) 0.8345(3) 0.1975(3)
H14 H 1.3782 0.8269 0.1763
C24 C 0.9749(7) 0.6350(3) -0.0149(3)
H15 H 0.9778 0.5856 -0.0760
C25 C 1.3131(4) 0.5986(3) 0.4811(3)
H16 H 1.3662 0.5376 0.4574
C26 C 0.8192(6) 0.6458(3) 0.0159(3)
H17 H 0.7183 0.6017 -0.0235
C27 C 1.4015(4) 0.6819(4) 0.5576(3)
H18 H 1.5148 0.6781 0.5859
N1 N 0.4988(3) 0.1275(2) 0.0824(2)
C28 C 0.0573(3) 0.08144(18) 0.08960(18)
C29 C 0.1749(3) 0.04284(18) 0.02854(19)
C30 C -0.1168(3) 0.03901(18) 0.06058(18)
H19 H -0.1947 0.0653 0.1007
N2 N 0.1682(3) 0.2313(2) 0.2575(2)
C31 C 0.1197(3) 0.1656(2) 0.1837(2)
C32 C 0.3564(3) 0.0889(2) 0.0585(2)
N1A N -0.4988(3) -0.1275(2) -0.0824(2)
C28A C -0.0573(3) -0.08144(18) -0.08960(18)
C29A C -0.1749(3) -0.04284(18) -0.02854(19)
C30A C 0.1168(3) -0.03901(18) -0.06058(18)
H19A H 0.1947 -0.0653 -0.1007
N2A N -0.1682(3) -0.2313(2) -0.2575(2)
C31A C -0.1197(3) -0.1656(2) -0.1837(2)
C32A C -0.3564(3) -0.0889(2) -0.0585(2)
loop_
_geom_bond_atom_site_label_1
_geom_bond_atom_site_label_2
_geom_bond_site_symmetry_1
_geom_bond_site_symmetry_2
O1 C6 1_555 1_555
C1 C2 1_555 1_555
C2 C5 1_555 1_555
C3 C6 1_555 1_555
C4 H1 1_555 1_555
C5 C4 1_555 1_555
H2 C5 1_555 1_555
C6 C4 1_555 1_555
C7 C3 1_555 1_555
C8 C1 1_555 1_555
C9 C2 1_555 1_555
C10 C3 1_555 1_555
H3 C10 1_555 1_555
C11 C9 1_555 1_555
C12 C1 1_555 1_555
H4 C12 1_555 1_555
C13 C8 1_555 1_555
H5 C13 1_555 1_555
C14 C7 1_555 1_555
C15 C7 1_555 1_555
H6 C15 1_555 1_555
C16 C10 1_555 1_555
H7 C16 1_555 1_555
C17 C9 1_555 1_555
H8 C17 1_555 1_555
C18 C8 1_555 1_555
H9 C18 1_555 1_555
C19 C12 1_555 1_555
H10 C19 1_555 1_555
C20 C14 1_555 1_555
H11 C20 1_555 1_555
C21 C18 1_555 1_555
H12 C21 1_555 1_555
C22 C17 1_555 1_555
H13 C22 1_555 1_555
C23 C14 1_555 1_555
H14 C23 1_555 1_555
C24 C20 1_555 1_555
H15 C24 1_555 1_555
C25 C11 1_555 1_555
H16 C25 1_555 1_555
C26 C15 1_555 1_555
H17 C26 1_555 1_555
C27 C22 1_555 1_555
H18 C27 1_555 1_555
N1 C32 1_555 1_555
C28 C29 1_555 1_555
C29 C32 1_555 1_555
C30 C28 1_555 1_555
H19 C30 1_555 1_555
N2 C31 1_555 1_555
C31 C28 1_555 1_555
N1A C32A 1_555 1_555
C28A C29A 1_555 1_555
C29A C30 1_555 1_555
C30A C29 1_555 1_555
H19A C30A 1_555 1_555
N2A C31A 1_555 1_555
C31A C28A 1_555 1_555
C32A C29A 1_555 1_555
C11 C13 1_555 1_555
C16 C23 1_555 1_555
C19 C21 1_555 1_555
C24 C26 1_555 1_555
C25 C27 1_555 1_555
C28A C30A 1_555 1_555

#END
