
#######################################################################
#
#                 Cambridge Crystallographic Data Centre
#                                CCDC 
#
#######################################################################
#
# If this CIF has been generated from an entry in the Cambridge 
# Structural Database, then it will include bibliographic, chemical, 
# crystal, experimental, refinement or atomic coordinate data resulting 
# from the CCDC's data processing and validation procedures.
#
#######################################################################

data_YIMZEC
_chemical_formula_moiety         'C23 H16 O1,C10 H2 N4,C2 H4 O2'
_chemical_name_systematic        
'3-(anthracen-9-yl)-1-phenylprop-2-en-1-one benzene-1,2,4,5-tetracarbonitrile acetic acid solvate'
_symmetry_cell_setting           monoclinic
_symmetry_space_group_name_H-M   'P 21/c'
_symmetry_Int_Tables_number      14
_space_group_name_Hall           '-P 2ybc'
loop_
_symmetry_equiv_pos_site_id
_symmetry_equiv_pos_as_xyz
1 x,y,z
2 -x,1/2+y,1/2-z
3 -x,-y,-z
4 x,1/2-y,1/2+z
_cell_length_a                   7.4434(3)
_cell_length_b                   40.1197(18)
_cell_length_c                   9.4916(5)
_cell_angle_alpha                90
_cell_angle_beta                 94.227(4)
_cell_angle_gamma                90
_cell_volume                     2826.74
_exptl_crystal_colour            orange
_exptl_crystal_description       rod
_cell_formula_units_Z            4
loop_
_atom_site_label
_atom_site_type_symbol
_atom_site_fract_x
_atom_site_fract_y
_atom_site_fract_z
C1 C 0.4689(4) 0.68681(8) 0.9084(3)
C2 C 0.5530(4) 0.65465(8) 0.6619(3)
C3 C 0.5677(4) 0.68939(8) 0.6741(3)
N1 N 0.3916(5) 0.71735(8) 1.1342(4)
N2 N 0.6752(4) 0.72342(8) 0.4643(4)
C4 C 0.4543(4) 0.65189(8) 0.8960(3)
C5 C 0.5254(4) 0.70545(8) 0.7966(3)
H1 H 0.5349 0.7285 0.8039
C6 C 0.6279(4) 0.70860(9) 0.5570(4)
N3 N 0.6383(5) 0.62495(9) 0.4350(4)
C7 C 0.4957(4) 0.63624(8) 0.7729(3)
H2 H 0.4848 0.6132 0.7648
N4 N 0.3530(5) 0.61580(10) 1.1001(4)
C8 C 0.5991(4) 0.63839(9) 0.5339(4)
C9 C 0.3967(4) 0.63284(9) 1.0145(4)
C10 C 0.4250(4) 0.70301(10) 1.0368(4)
O1 O 0.4864(6) 0.56189(9) 0.6601(4)
O2 O 0.6323(5) 0.53690(11) 0.4978(4)
H3 H 0.7123 0.5364 0.5620
C11 C 0.4865(7) 0.55053(11) 0.5438(6)
C12 C 0.3320(8) 0.55117(15) 0.4359(7)
H4 H 0.2215 0.5494 0.4816
H5 H 0.3413 0.5328 0.3722
H6 H 0.3331 0.5717 0.3841
C13 C 1.0489(4) 0.35180(8) 0.1067(3)
O3 O 1.0496(4) 0.46868(7) 0.3411(3)
C14 C 1.0383(4) 0.31628(8) 0.0861(3)
C15 C 1.0028(4) 0.36574(8) 0.2352(3)
C16 C 0.9465(4) 0.34491(8) 0.3445(3)
C17 C 0.9335(4) 0.30946(9) 0.3217(4)
C18 C 1.0154(4) 0.40173(9) 0.2634(4)
H7 H 1.0882 0.4080 0.3428
C19 C 0.9810(4) 0.29632(9) 0.1940(4)
H8 H 0.9742 0.2734 0.1803
C20 C 1.1109(4) 0.37133(10) -0.0068(4)
H9 H 1.1191 0.3944 0.0028
C21 C 0.8946(4) 0.35742(11) 0.4763(4)
H10 H 0.9016 0.3802 0.4937
C22 C 0.9368(5) 0.42613(9) 0.1902(4)
H11 H 0.8678 0.4210 0.1074
C23 C 1.1580(5) 0.35682(11) -0.1282(4)
H12 H 1.1976 0.3701 -0.1998
C24 C 0.8704(4) 0.28896(10) 0.4302(4)
H13 H 0.8617 0.2661 0.4158
C25 C 0.8527(5) 0.48763(9) 0.1525(5)
C26 C 1.0908(4) 0.30272(10) -0.0428(4)
H14 H 1.0856 0.2798 -0.0560
C27 C 0.8231(5) 0.30185(13) 0.5527(5)
H15 H 0.7824 0.2879 0.6219
C28 C 1.1482(5) 0.32220(12) -0.1477(4)
H16 H 1.1807 0.3127 -0.2315
C29 C 0.8351(5) 0.33698(13) 0.5769(4)
H17 H 0.8022 0.3458 0.6617
C30 C 0.9534(5) 0.46127(9) 0.2342(5)
C31 C 0.7403(7) 0.54363(11) 0.1414(7)
H18 H 0.7224 0.5640 0.1848
C32 C 0.7847(5) 0.48308(10) 0.0142(5)
H19 H 0.7971 0.4625 -0.0290
C33 C 0.8314(6) 0.51846(10) 0.2172(6)
H20 H 0.8775 0.5221 0.3097
C34 C 0.6984(6) 0.50882(12) -0.0609(6)
H21 H 0.6556 0.5057 -0.1545
C35 C 0.6768(7) 0.53898(12) 0.0046(8)
H22 H 0.6184 0.5563 -0.0449
loop_
_geom_bond_atom_site_label_1
_geom_bond_atom_site_label_2
_geom_bond_site_symmetry_1
_geom_bond_site_symmetry_2
C1 C4 1_555 1_555
C2 C3 1_555 1_555
C3 C5 1_555 1_555
N1 C10 1_555 1_555
N2 C6 1_555 1_555
C4 C7 1_555 1_555
C5 C1 1_555 1_555
H1 C5 1_555 1_555
C6 C3 1_555 1_555
N3 C8 1_555 1_555
C7 C2 1_555 1_555
H2 C7 1_555 1_555
N4 C9 1_555 1_555
C8 C2 1_555 1_555
C9 C4 1_555 1_555
C10 C1 1_555 1_555
O1 C11 1_555 1_555
O2 H3 1_555 1_555
C11 O2 1_555 1_555
C12 C11 1_555 1_555
H4 C12 1_555 1_555
H5 C12 1_555 1_555
H6 C12 1_555 1_555
C13 C14 1_555 1_555
O3 C30 1_555 1_555
C14 C19 1_555 1_555
C15 C13 1_555 1_555
C16 C15 1_555 1_555
C17 C16 1_555 1_555
C18 C15 1_555 1_555
H7 C18 1_555 1_555
C19 C17 1_555 1_555
H8 C19 1_555 1_555
C20 C13 1_555 1_555
H9 C20 1_555 1_555
C21 C16 1_555 1_555
H10 C21 1_555 1_555
C22 C18 1_555 1_555
H11 C22 1_555 1_555
C23 C20 1_555 1_555
H12 C23 1_555 1_555
C24 C17 1_555 1_555
H13 C24 1_555 1_555
C25 C30 1_555 1_555
C26 C14 1_555 1_555
H14 C26 1_555 1_555
C27 C24 1_555 1_555
H15 C27 1_555 1_555
C28 C23 1_555 1_555
H16 C28 1_555 1_555
C29 C21 1_555 1_555
H17 C29 1_555 1_555
C30 C22 1_555 1_555
C31 H18 1_555 1_555
C32 C25 1_555 1_555
H19 C32 1_555 1_555
C33 C25 1_555 1_555
H20 C33 1_555 1_555
C34 C32 1_555 1_555
H21 C34 1_555 1_555
C35 C31 1_555 1_555
H22 C35 1_555 1_555
C26 C28 1_555 1_555
C27 C29 1_555 1_555
C31 C33 1_555 1_555
C34 C35 1_555 1_555

#END
