
#######################################################################
#
#                 Cambridge Crystallographic Data Centre
#                                CCDC 
#
#######################################################################
#
# If this CIF has been generated from an entry in the Cambridge 
# Structural Database, then it will include bibliographic, chemical, 
# crystal, experimental, refinement or atomic coordinate data resulting 
# from the CCDC's data processing and validation procedures.
#
#######################################################################

data_YIMZIG
_chemical_formula_moiety         '2(C24 H18 O2),3(C10 H2 N4)'
_chemical_name_systematic        
'tris(benzene-1,2,4,5-tetracarbonitrile) bis(3-(anthracen-9-yl)-1-(4-methoxyphenyl)prop-2-en-1-one)'
_symmetry_cell_setting           monoclinic
_symmetry_space_group_name_H-M   'P 21/c'
_symmetry_Int_Tables_number      14
_space_group_name_Hall           '-P 2ybc'
loop_
_symmetry_equiv_pos_site_id
_symmetry_equiv_pos_as_xyz
1 x,y,z
2 -x,1/2+y,1/2-z
3 -x,-y,-z
4 x,1/2-y,1/2+z
_cell_length_a                   7.2961(2)
_cell_length_b                   43.4216(12)
_cell_length_c                   9.6042(3)
_cell_angle_alpha                90
_cell_angle_beta                 91.664(3)
_cell_angle_gamma                90
_cell_volume                     3041.41
_exptl_crystal_colour            orange
_exptl_crystal_description       rod
_cell_formula_units_Z            2
loop_
_atom_site_label
_atom_site_type_symbol
_atom_site_fract_x
_atom_site_fract_y
_atom_site_fract_z
O1 O 0.1822(4) 0.54855(5) -0.1261(2)
O2 O 0.4263(3) 0.46106(4) 0.3723(2)
C1 C 0.2086(3) 0.64350(5) -0.0188(2)
C2 C 0.2654(3) 0.66330(5) -0.1262(2)
C3 C 0.2779(3) 0.69585(5) -0.1007(2)
C4 C 0.1585(3) 0.65566(5) 0.1116(2)
C5 C 0.1697(3) 0.68841(5) 0.1340(2)
C6 C 0.2018(3) 0.61027(5) -0.0484(3)
H1 H 0.1440 0.6045 -0.1319
C7 C 0.2993(3) 0.53040(5) 0.0891(3)
C8 C 0.2294(3) 0.70730(5) 0.0279(3)
H2 H 0.2371 0.7284 0.0437
C9 C 0.2684(4) 0.58769(5) 0.0302(3)
H3 H 0.3303 0.5925 0.1134
C10 C 0.3892(3) 0.53607(6) 0.2161(3)
H4 H 0.4214 0.5562 0.2400
C11 C 0.0902(3) 0.63741(6) 0.2220(2)
H5 H 0.0779 0.6163 0.2095
C12 C 0.3181(3) 0.65255(6) -0.2597(2)
H6 H 0.3117 0.6316 -0.2794
C13 C 0.3427(3) 0.71530(6) -0.2076(3)
H7 H 0.3521 0.7364 -0.1912
C14 C 0.1166(4) 0.70052(7) 0.2651(3)
H8 H 0.1232 0.7216 0.2803
C15 C 0.0427(4) 0.65015(7) 0.3448(3)
H9 H 0.0001 0.6376 0.4153
C16 C 0.3773(4) 0.67228(8) -0.3587(3)
H10 H 0.4093 0.6647 -0.4452
C17 C 0.2470(4) 0.55497(6) -0.0108(3)
C18 C 0.3825(4) 0.48251(6) 0.2737(3)
C19 C 0.3909(4) 0.70408(8) -0.3320(3)
H11 H 0.4331 0.7173 -0.4001
C20 C 0.4311(4) 0.51262(6) 0.3066(3)
H12 H 0.4924 0.5169 0.3906
C21 C 0.0571(4) 0.68211(8) 0.3672(3)
H13 H 0.0255 0.6905 0.4524
C22 C 0.2934(4) 0.47636(6) 0.1480(3)
H14 H 0.2608 0.4563 0.1244
C23 C 0.2535(4) 0.50015(6) 0.0580(3)
H15 H 0.1937 0.4958 -0.0266
C24 C 0.3770(5) 0.42966(7) 0.3468(4)
H16 H 0.4375 0.4224 0.2656
H17 H 0.2467 0.4282 0.3319
H18 H 0.4139 0.4173 0.4257
C25 C 0.2219(3) 0.30608(5) 1.1024(2)
N1 N 0.1144(3) 0.27434(6) 1.3117(3)
N2 N 0.4004(4) 0.28073(6) 0.6395(3)
C26 C 0.2367(3) 0.33828(5) 1.1133(2)
N3 N 0.1541(4) 0.36597(6) 1.3397(3)
C27 C 0.3228(3) 0.30883(6) 0.8672(2)
N4 N 0.4461(4) 0.37442(7) 0.6743(3)
C28 C 0.3383(3) 0.34107(6) 0.8785(2)
C29 C 0.2643(3) 0.29161(6) 0.9792(2)
H19 H 0.2537 0.2703 0.9715
C30 C 0.1619(3) 0.28846(6) 1.2191(3)
C31 C 0.2948(3) 0.35541(6) 1.0016(2)
H20 H 0.3047 0.3767 1.0094
C32 C 0.1910(4) 0.35341(6) 1.2410(3)
C33 C 0.3668(3) 0.29352(6) 0.7390(3)
C34 C 0.3984(4) 0.35905(7) 0.7625(3)
N5 N 0.8166(4) 0.41432(6) 0.4636(4)
C35 C 1.0482(4) 0.47835(6) 0.6017(3)
C36 C 0.9388(4) 0.47004(6) 0.4853(3)
C37 C 0.8711(4) 0.43877(7) 0.4734(3)
N6 N 1.1403(4) 0.43873(7) 0.7917(4)
C38 C 1.1078(4) 0.50865(6) 0.6154(3)
H21 H 1.1791 0.5145 0.6928
C39 C 1.0981(4) 0.45624(7) 0.7065(4)
N5B N 1.1834(4) 0.58568(6) 0.5364(4)
C35B C 0.9518(4) 0.52165(6) 0.3983(3)
C36B C 1.0612(4) 0.52996(6) 0.5147(3)
C37B C 1.1289(4) 0.56123(7) 0.5266(3)
N6B N 0.8597(4) 0.56127(7) 0.2083(4)
C38B C 0.8922(4) 0.49135(6) 0.3846(3)
H21B H 0.8209 0.4855 0.3072
C39B C 0.9019(4) 0.54376(7) 0.2935(4)
loop_
_geom_bond_atom_site_label_1
_geom_bond_atom_site_label_2
_geom_bond_site_symmetry_1
_geom_bond_site_symmetry_2
O1 C17 1_555 1_555
O2 C18 1_555 1_555
C1 C2 1_555 1_555
C2 C3 1_555 1_555
C3 C8 1_555 1_555
C4 C1 1_555 1_555
C5 C4 1_555 1_555
C6 C1 1_555 1_555
H1 C6 1_555 1_555
C7 C10 1_555 1_555
C8 C5 1_555 1_555
H2 C8 1_555 1_555
C9 C6 1_555 1_555
H3 C9 1_555 1_555
C10 H4 1_555 1_555
C11 C4 1_555 1_555
H5 C11 1_555 1_555
C12 C2 1_555 1_555
H6 C12 1_555 1_555
C13 C3 1_555 1_555
H7 C13 1_555 1_555
C14 C5 1_555 1_555
H8 C14 1_555 1_555
C15 C11 1_555 1_555
H9 C15 1_555 1_555
C16 C12 1_555 1_555
H10 C16 1_555 1_555
C17 C7 1_555 1_555
C18 C20 1_555 1_555
C19 C13 1_555 1_555
H11 C19 1_555 1_555
C20 C10 1_555 1_555
H12 C20 1_555 1_555
C21 C14 1_555 1_555
H13 C21 1_555 1_555
C22 C18 1_555 1_555
H14 C22 1_555 1_555
C23 C7 1_555 1_555
H15 C23 1_555 1_555
C24 O2 1_555 1_555
H16 C24 1_555 1_555
H17 C24 1_555 1_555
H18 C24 1_555 1_555
C25 C26 1_555 1_555
N1 C30 1_555 1_555
N2 C33 1_555 1_555
C26 C31 1_555 1_555
N3 C32 1_555 1_555
C27 C28 1_555 1_555
N4 C34 1_555 1_555
C28 C31 1_555 1_555
C29 C25 1_555 1_555
H19 C29 1_555 1_555
C30 C25 1_555 1_555
C31 H20 1_555 1_555
C32 C26 1_555 1_555
C33 C27 1_555 1_555
C34 C28 1_555 1_555
N5 C37 1_555 1_555
C35 C36 1_555 1_555
C36 C37 1_555 1_555
N6 C39 1_555 1_555
C38 C35 1_555 1_555
H21 C38 1_555 1_555
C39 C35 1_555 1_555
N5B C37B 1_555 1_555
C35B C36B 1_555 1_555
C36B C38 1_555 1_555
C37B C36B 1_555 1_555
N6B C39B 1_555 1_555
C38B C36 1_555 1_555
H21B C38B 1_555 1_555
C39B C35B 1_555 1_555
C9 C17 1_555 1_555
C15 C21 1_555 1_555
C16 C19 1_555 1_555
C22 C23 1_555 1_555
C27 C29 1_555 1_555
C35B C38B 1_555 1_555

#END
