
#######################################################################
#
#                 Cambridge Crystallographic Data Centre
#                                CCDC 
#
#######################################################################
#
# If this CIF has been generated from an entry in the Cambridge 
# Structural Database, then it will include bibliographic, chemical, 
# crystal, experimental, refinement or atomic coordinate data resulting 
# from the CCDC's data processing and validation procedures.
#
#######################################################################

data_YINFAE
_chemical_formula_moiety         'C14 H20 O5'
_chemical_name_systematic        
6a-Hydroxy-6-(hydroxymethyl)-5,6,8a-trimethylhexahydro-4H-pentaleno[1,6a-b]furan-2,4(3H)-dione
_symmetry_cell_setting           orthorhombic
_symmetry_space_group_name_H-M   'P 21 21 21'
_symmetry_Int_Tables_number      19
_space_group_name_Hall           'P 2ac 2ab'
loop_
_symmetry_equiv_pos_site_id
_symmetry_equiv_pos_as_xyz
1 x,y,z
2 1/2-x,-y,1/2+z
3 1/2+x,1/2-y,-z
4 -x,1/2+y,1/2-z
_cell_length_a                   8.0104(5)
_cell_length_b                   10.3459(6)
_cell_length_c                   17.0059(12)
_cell_angle_alpha                90
_cell_angle_beta                 90
_cell_angle_gamma                90
_cell_volume                     1409.36
_cell_formula_units_Z            4
loop_
_atom_site_label
_atom_site_type_symbol
_atom_site_fract_x
_atom_site_fract_y
_atom_site_fract_z
O1 O 0.39230(18) 0.15170(14) 0.30314(10)
O2 O 0.2128(2) -0.00758(14) 0.32396(12)
O3 O 0.3527(2) 0.31960(16) 0.50563(9)
O4 O 0.02327(17) 0.40119(12) 0.29129(8)
H1 H -0.033(3) 0.462(2) 0.2734(14)
O5 O -0.0030(3) 0.68436(16) 0.30505(13)
H2 H 0.003(4) 0.753(2) 0.2786(15)
C1 C 0.4092(2) 0.29040(18) 0.31708(12)
C2 C 0.3789(3) 0.3645(2) 0.24061(12)
H3 H 0.4831 0.3813 0.2134
H4 H 0.3051 0.3167 0.2059
C3 C 0.2980(3) 0.48946(19) 0.26762(12)
H5 H 0.2430 0.5329 0.2242
H6 H 0.3800 0.5474 0.2904
C4 C 0.1706(2) 0.44521(14) 0.32973(9)
C5 C 0.1321(2) 0.54562(17) 0.39591(10)
C6 C 0.2828(3) 0.52944(18) 0.45153(11)
H7 H 0.3796 0.5688 0.4257
C7 C 0.3088(2) 0.38416(18) 0.45078(10)
C8 C 0.2732(5) 0.5850(3) 0.53480(15)
H8 H 0.1826 0.5452 0.5627
H9 H 0.2551 0.6766 0.5321
H10 H 0.3760 0.5681 0.5619
C9 C 0.25788(19) 0.32935(15) 0.37097(9)
C10 C 0.1605(2) 0.20346(15) 0.38049(11)
H11 H 0.1552 0.1788 0.4355
H12 H 0.0475 0.2135 0.3609
C11 C 0.2519(2) 0.10331(17) 0.33396(11)
C12 C -0.0303(3) 0.5104(2) 0.43840(14)
H13 H -0.0242 0.4227 0.4566
H14 H -0.1226 0.5194 0.4028
H15 H -0.0459 0.5672 0.4825
C13 C 0.1214(3) 0.68324(18) 0.36390(14)
H16 H 0.0925 0.7429 0.4057
H17 H 0.2280 0.7091 0.3419
C14 C 0.5818(3) 0.3119(3) 0.35084(18)
H18 H 0.5915 0.2671 0.4001
H19 H 0.5994 0.4027 0.3591
H20 H 0.6641 0.2796 0.3148
loop_
_geom_bond_atom_site_label_1
_geom_bond_atom_site_label_2
_geom_bond_site_symmetry_1
_geom_bond_site_symmetry_2
O1 C1 1_555 1_555
O2 C11 1_555 1_555
O3 C7 1_555 1_555
O4 H1 1_555 1_555
O5 H2 1_555 1_555
C1 C2 1_555 1_555
C2 H3 1_555 1_555
H4 C2 1_555 1_555
C3 C2 1_555 1_555
H5 C3 1_555 1_555
H6 C3 1_555 1_555
C4 O4 1_555 1_555
C5 C4 1_555 1_555
C6 C5 1_555 1_555
H7 C6 1_555 1_555
C7 C6 1_555 1_555
C8 C6 1_555 1_555
H8 C8 1_555 1_555
H9 C8 1_555 1_555
H10 C8 1_555 1_555
C9 C1 1_555 1_555
C10 C9 1_555 1_555
H11 C10 1_555 1_555
H12 C10 1_555 1_555
C11 O1 1_555 1_555
C12 C5 1_555 1_555
H13 C12 1_555 1_555
H14 C12 1_555 1_555
H15 C12 1_555 1_555
C13 O5 1_555 1_555
H16 C13 1_555 1_555
H17 C13 1_555 1_555
C14 C1 1_555 1_555
H18 C14 1_555 1_555
H19 C14 1_555 1_555
H20 C14 1_555 1_555
C3 C4 1_555 1_555
C4 C9 1_555 1_555
C5 C13 1_555 1_555
C7 C9 1_555 1_555
C10 C11 1_555 1_555

#END
