
#######################################################################
#
#                 Cambridge Crystallographic Data Centre
#                                CCDC 
#
#######################################################################
#
# If this CIF has been generated from an entry in the Cambridge 
# Structural Database, then it will include bibliographic, chemical, 
# crystal, experimental, refinement or atomic coordinate data resulting 
# from the CCDC's data processing and validation procedures.
#
#######################################################################

data_YINKOW
_chemical_formula_moiety         'C19 H23 N1 O2'
_chemical_name_systematic        
3a-Butyl-5,6-dimethyl-5a,6-dihydro-3aH-furo(3',2':2,3)cyclopenta(1,2-b)indol-2(1H)-one
_symmetry_cell_setting           triclinic
_symmetry_space_group_name_H-M   'P -1'
_symmetry_Int_Tables_number      2
_space_group_name_Hall           '-P 1'
loop_
_symmetry_equiv_pos_site_id
_symmetry_equiv_pos_as_xyz
1 x,y,z
2 -x,-y,-z
_cell_length_a                   7.9387(2)
_cell_length_b                   9.9181(2)
_cell_length_c                   10.4955(2)
_cell_angle_alpha                93.2490(10)
_cell_angle_beta                 107.5680(10)
_cell_angle_gamma                94.0820(10)
_cell_volume                     783.182
_exptl_crystal_description       block
_cell_formula_units_Z            2
loop_
_atom_site_label
_atom_site_type_symbol
_atom_site_fract_x
_atom_site_fract_y
_atom_site_fract_z
C1 C 0.19830(10) -0.08431(7) 0.19256(8)
H1 H 0.1838 -0.1737 0.2183
C2 C 0.32281(10) -0.04915(8) 0.12766(8)
H2 H 0.3955 -0.1155 0.1105
C3 C 0.34311(10) 0.08069(8) 0.08738(8)
H3 H 0.4283 0.1018 0.0428
C4 C 0.23810(10) 0.18025(8) 0.11256(7)
H4 H 0.2499 0.2688 0.0842
C5 C 0.11686(9) 0.14748(7) 0.17945(7)
C6 C 0.09577(9) 0.01611(7) 0.21845(7)
C7 C -0.13587(9) 0.12406(7) 0.25672(7)
H5 H -0.2476 0.1014 0.1805
C8 C -0.01049(9) 0.23223(7) 0.22090(7)
C9 C -0.10322(10) 0.33002(7) 0.12057(7)
H6 H -0.0773 0.3143 0.0347
H7 H -0.2333 0.3171 0.1029
C10 C -0.03186(10) 0.47103(7) 0.18351(7)
C11 C 0.06786(9) 0.32789(7) 0.35380(7)
C12 C -0.06743(10) 0.30250(7) 0.42582(7)
H8 H -0.0760 0.3611 0.4980
C13 C -0.17435(10) 0.18892(7) 0.37781(7)
C14 C 0.25664(10) 0.31012(7) 0.43908(7)
H9 H 0.3390 0.3344 0.3878
H10 H 0.2652 0.2134 0.4564
C15 C 0.31591(10) 0.39608(7) 0.57332(7)
H11 H 0.3212 0.4931 0.5560
H12 H 0.2259 0.3799 0.6200
C16 C 0.49597(10) 0.36617(8) 0.66512(8)
H13 H 0.5889 0.3929 0.6239
H14 H 0.4958 0.2675 0.6749
C17 C 0.53971(13) 0.44215(11) 0.80324(9)
H15 H 0.5311 0.5393 0.7934
H16 H 0.6606 0.4275 0.8567
H17 H 0.4556 0.4085 0.8485
C18 C -0.31202(11) 0.12841(9) 0.43383(8)
H18 H -0.2723 0.0457 0.4759
H19 H -0.4238 0.1061 0.3614
H20 H -0.3302 0.1937 0.5010
C19 C -0.13009(11) -0.12507(8) 0.27959(8)
H21 H -0.2144 -0.1472 0.1897
H22 H -0.1949 -0.1210 0.3456
H23 H -0.0471 -0.1951 0.3004
N1 N -0.03232(9) 0.00540(6) 0.28413(6)
O1 O -0.05534(9) 0.57698(6) 0.13337(6)
O2 O 0.06830(8) 0.46683(5) 0.31245(6)
loop_
_geom_bond_atom_site_label_1
_geom_bond_atom_site_label_2
_geom_bond_site_symmetry_1
_geom_bond_site_symmetry_2
C1 H1 1_555 1_555
C2 C1 1_555 1_555
H2 C2 1_555 1_555
C3 C2 1_555 1_555
H3 C3 1_555 1_555
C4 C3 1_555 1_555
H4 C4 1_555 1_555
C5 C4 1_555 1_555
C6 C1 1_555 1_555
C7 H5 1_555 1_555
C8 C5 1_555 1_555
C9 C8 1_555 1_555
H6 C9 1_555 1_555
H7 C9 1_555 1_555
C10 C9 1_555 1_555
C11 C8 1_555 1_555
C12 C11 1_555 1_555
H8 C12 1_555 1_555
C13 C7 1_555 1_555
C14 C11 1_555 1_555
H9 C14 1_555 1_555
H10 C14 1_555 1_555
C15 C14 1_555 1_555
H11 C15 1_555 1_555
H12 C15 1_555 1_555
C16 C15 1_555 1_555
H13 C16 1_555 1_555
H14 C16 1_555 1_555
C17 C16 1_555 1_555
H15 C17 1_555 1_555
H16 C17 1_555 1_555
H17 C17 1_555 1_555
C18 C13 1_555 1_555
H18 C18 1_555 1_555
H19 C18 1_555 1_555
H20 C18 1_555 1_555
C19 H21 1_555 1_555
H22 C19 1_555 1_555
H23 C19 1_555 1_555
N1 C6 1_555 1_555
O1 C10 1_555 1_555
O2 C10 1_555 1_555
C5 C6 1_555 1_555
C7 C8 1_555 1_555
C7 N1 1_555 1_555
C11 O2 1_555 1_555
C12 C13 1_555 1_555
C19 N1 1_555 1_555

#END
