
#######################################################################
#
#                 Cambridge Crystallographic Data Centre
#                                CCDC 
#
#######################################################################
#
# If this CIF has been generated from an entry in the Cambridge 
# Structural Database, then it will include bibliographic, chemical, 
# crystal, experimental, refinement or atomic coordinate data resulting 
# from the CCDC's data processing and validation procedures.
#
#######################################################################

data_YINVID
_chemical_formula_moiety         'C31 H30 N2 O6'
_chemical_name_systematic        
'methyl 2-{1-benzyl-3-[(t-butoxycarbonyl)amino]-2-oxo-2,3-dihydro-1H-indol-3-yl}-1-hydroxy-2H-indene-2-carboxylate'
_symmetry_cell_setting           orthorhombic
_symmetry_space_group_name_H-M   'P 21 21 21'
_symmetry_Int_Tables_number      19
_space_group_name_Hall           'P 2ac 2ab'
loop_
_symmetry_equiv_pos_site_id
_symmetry_equiv_pos_as_xyz
1 x,y,z
2 1/2-x,-y,1/2+z
3 1/2+x,1/2-y,-z
4 -x,1/2+y,1/2-z
_cell_length_a                   8.4217(6)
_cell_length_b                   17.9017(12)
_cell_length_c                   18.0406(12)
_cell_angle_alpha                90
_cell_angle_beta                 90
_cell_angle_gamma                90
_cell_volume                     2719.85
_exptl_crystal_colour            white
_exptl_crystal_description       block
_cell_formula_units_Z            4
loop_
_atom_site_label
_atom_site_type_symbol
_atom_site_fract_x
_atom_site_fract_y
_atom_site_fract_z
O1 O 0.0037(3) -0.82976(14) -0.21158(14)
O2 O 0.4821(3) -0.96952(16) -0.30686(15)
O3 O 0.1050(4) -0.86453(17) -0.44128(14)
O4 O 0.5938(3) -0.94727(15) -0.19843(13)
O5 O 0.0981(4) -0.76234(15) -0.36694(14)
C1 C 0.1320(4) -0.80279(19) -0.22279(17)
C2 C 0.2738(4) -0.84215(16) -0.26172(16)
C3 C 0.4737(4) -0.94531(17) -0.2447(2)
N1 N 0.1833(3) -0.73351(15) -0.20008(15)
C4 C 0.4001(4) -0.78221(17) -0.25980(17)
C5 C 0.3420(4) -0.72100(18) -0.22141(18)
N2 N 0.2290(4) -0.86718(16) -0.33497(15)
H1 H 0.2620 -0.9101 -0.3500
C6 C 0.5528(4) -0.7814(2) -0.2869(2)
H2 H 0.5914 -0.8216 -0.3141
C7 C 0.3388(4) -0.8881(2) -0.12919(18)
H3 H 0.3992 -0.8495 -0.1093
C8 C 0.3231(4) -0.91032(18) -0.21244(18)
C9 C 0.4365(5) -0.6592(2) -0.2073(2)
H4 H 0.3977 -0.6188 -0.1805
C10 C 0.1381(4) -0.8261(2) -0.38054(18)
C11 C 0.1963(4) -0.9745(2) -0.2121(3)
C12 C -0.0371(5) -0.8508(2) -0.4849(2)
O6 O 0.1446(4) -1.00500(15) -0.2665(2)
C13 C 0.1287(4) -0.6790(2) -0.0768(2)
C14 C 0.2371(5) -0.9417(3) -0.0887(2)
C15 C 0.6487(5) -0.7195(2) -0.2731(2)
H5 H 0.7529 -0.7187 -0.2902
C16 C 0.0843(5) -0.6817(2) -0.15803(19)
H6 H -0.0260 -0.6967 -0.1626
H7 H 0.0947 -0.6321 -0.1790
C17 C 0.1608(5) -0.9909(3) -0.1342(3)
C18 C 0.2020(6) -0.6187(2) -0.0450(3)
H8 H 0.2217 -0.5764 -0.0734
C19 C 0.0994(5) -0.7404(2) -0.0327(2)
H9 H 0.0486 -0.7819 -0.0527
C20 C 0.1448(6) -0.7409(3) 0.0412(2)
H10 H 0.1253 -0.7826 0.0705
C21 C 0.5895(5) -0.6597(2) -0.2342(2)
H11 H 0.6543 -0.6185 -0.2258
C22 C 0.2192(6) -0.6789(4) 0.0713(3)
H12 H 0.2494 -0.6789 0.1209
C23 C 0.7438(5) -0.9757(3) -0.2257(3)
H13 H 0.7592 -0.9595 -0.2760
H14 H 0.7430 -1.0293 -0.2239
H15 H 0.8286 -0.9570 -0.1954
C24 C 0.2475(6) -0.6195(3) 0.0294(3)
H16 H 0.2980 -0.5781 0.0497
C25 C -0.0320(7) -0.9099(3) -0.5443(3)
H17 H 0.0620 -0.9035 -0.5737
H18 H -0.1241 -0.9055 -0.5753
H19 H -0.0306 -0.9584 -0.5216
C26 C -0.0362(7) -0.7753(3) -0.5198(3)
H20 H -0.0664 -0.7386 -0.4838
H21 H -0.1102 -0.7745 -0.5603
H22 H 0.0684 -0.7644 -0.5379
C27 C -0.1751(7) -0.8598(5) -0.4349(4)
H23 H -0.1809 -0.9107 -0.4184
H24 H -0.2707 -0.8472 -0.4611
H25 H -0.1633 -0.8274 -0.3929
C28 C 0.1219(12) -1.0035(7) 0.0137(6)
H26 H 0.1067 -1.0082 0.0645
C29 C 0.0515(11) -1.0528(6) -0.0309(8)
H27 H -0.0093 -1.0908 -0.0101
C30 C 0.2155(7) -0.9463(4) -0.0116(3)
H28 H 0.2623 -0.9123 0.0207
C31 C 0.0660(6) -1.0493(3) -0.1066(5)
H29 H 0.0162 -1.0834 -0.1378
loop_
_geom_bond_atom_site_label_1
_geom_bond_atom_site_label_2
_geom_bond_site_symmetry_1
_geom_bond_site_symmetry_2
O1 C1 1_555 1_555
O2 C3 1_555 1_555
O3 C10 1_555 1_555
O4 C3 1_555 1_555
O5 C10 1_555 1_555
C1 C2 1_555 1_555
C2 C4 1_555 1_555
C3 C8 1_555 1_555
N1 C1 1_555 1_555
C4 C5 1_555 1_555
C5 N1 1_555 1_555
N2 C2 1_555 1_555
H1 N2 1_555 1_555
C6 C4 1_555 1_555
H2 C6 1_555 1_555
C7 H3 1_555 1_555
C8 C2 1_555 1_555
C9 C5 1_555 1_555
H4 C9 1_555 1_555
C10 N2 1_555 1_555
C11 C8 1_555 1_555
C12 O3 1_555 1_555
O6 C11 1_555 1_555
C13 C16 1_555 1_555
C14 C7 1_555 1_555
C15 C6 1_555 1_555
H5 C15 1_555 1_555
C16 N1 1_555 1_555
H6 C16 1_555 1_555
H7 C16 1_555 1_555
C17 C11 1_555 1_555
C18 C13 1_555 1_555
H8 C18 1_555 1_555
C19 C13 1_555 1_555
H9 C19 1_555 1_555
C20 C19 1_555 1_555
H10 C20 1_555 1_555
C21 C9 1_555 1_555
H11 C21 1_555 1_555
C22 C20 1_555 1_555
H12 C22 1_555 1_555
C23 O4 1_555 1_555
H13 C23 1_555 1_555
H14 C23 1_555 1_555
H15 C23 1_555 1_555
C24 C18 1_555 1_555
H16 C24 1_555 1_555
C25 C12 1_555 1_555
H17 C25 1_555 1_555
H18 C25 1_555 1_555
H19 C25 1_555 1_555
C26 C12 1_555 1_555
H20 C26 1_555 1_555
H21 C26 1_555 1_555
H22 C26 1_555 1_555
C27 C12 1_555 1_555
H23 C27 1_555 1_555
H24 C27 1_555 1_555
H25 C27 1_555 1_555
C28 H26 1_555 1_555
C29 C28 1_555 1_555
H27 C29 1_555 1_555
C30 C14 1_555 1_555
H28 C30 1_555 1_555
C31 C17 1_555 1_555
H29 C31 1_555 1_555
C7 C8 1_555 1_555
C14 C17 1_555 1_555
C15 C21 1_555 1_555
C22 C24 1_555 1_555
C28 C30 1_555 1_555
C29 C31 1_555 1_555

#END
