
#######################################################################
#
#                 Cambridge Crystallographic Data Centre
#                                CCDC 
#
#######################################################################
#
# If this CIF has been generated from an entry in the Cambridge 
# Structural Database, then it will include bibliographic, chemical, 
# crystal, experimental, refinement or atomic coordinate data resulting 
# from the CCDC's data processing and validation procedures.
#
#######################################################################

data_YINZUR
_chemical_formula_moiety         'C34 H26 N8'
_chemical_name_systematic        
1,2-bis((3-(2,2'-Bipyridin-6-yl)pyrazol-1-yl)methyl)benzene
_symmetry_cell_setting           monoclinic
_symmetry_space_group_name_H-M   'P 21/n'
_symmetry_Int_Tables_number      14
_space_group_name_Hall           '-P 2yn'
loop_
_symmetry_equiv_pos_site_id
_symmetry_equiv_pos_as_xyz
1 x,y,z
2 1/2-x,1/2+y,1/2-z
3 -x,-y,-z
4 1/2+x,1/2-y,1/2+z
_cell_length_a                   10.181(5)
_cell_length_b                   23.562(12)
_cell_length_c                   11.711(6)
_cell_angle_alpha                90
_cell_angle_beta                 95.079(16)
_cell_angle_gamma                90
_cell_volume                     2798.26
_exptl_crystal_colour            colorless
_exptl_crystal_description       needle
_cell_formula_units_Z            4
_exptl_crystal_recrystallization_method dichloromethane
loop_
_atom_site_label
_atom_site_type_symbol
_atom_site_fract_x
_atom_site_fract_y
_atom_site_fract_z
N1 N 0.1725(3) -0.19505(13) 1.2632(2)
N2 N -0.1658(3) -0.16446(12) 1.1677(2)
N3 N -0.4466(3) -0.09394(12) 1.0217(2)
N4 N -0.5688(3) -0.09465(12) 1.0604(2)
N5 N -0.9625(3) 0.02776(12) 0.7738(2)
N6 N -1.0891(3) 0.01298(11) 0.7893(2)
N7 N -1.3713(3) 0.06211(11) 0.6081(2)
N8 N -1.7072(3) 0.09571(13) 0.5097(3)
C1 C 0.2439(4) -0.21246(16) 1.3578(3)
H1 H 0.3373 -0.2112 1.3588
C2 C 0.1895(4) -0.23218(16) 1.4542(3)
H2 H 0.2444 -0.2445 1.5194
C3 C 0.0535(4) -0.23365(15) 1.4542(3)
H3 H 0.0132 -0.2478 1.5186
C4 C -0.0228(4) -0.21399(14) 1.3582(3)
H4 H -0.1162 -0.2132 1.3567
C5 C 0.0403(4) -0.19533(15) 1.2638(3)
C6 C -0.0365(3) -0.17410(14) 1.1595(3)
C7 C 0.0229(4) -0.16373(15) 1.0592(3)
H5 H 0.1137 -0.1720 1.0554
C8 C -0.0506(4) -0.14129(15) 0.9652(3)
H6 H -0.0114 -0.1343 0.8959
C9 C -0.1825(4) -0.12913(14) 0.9736(3)
H7 H -0.2352 -0.1129 0.9110
C10 C -0.2360(3) -0.14137(14) 1.0768(3)
C11 C -0.3762(3) -0.13016(14) 1.0918(3)
C12 C -0.4538(3) -0.15340(15) 1.1745(3)
H8 H -0.4268 -0.1794 1.2340
C13 C -0.5764(4) -0.13033(15) 1.1502(3)
H9 H -0.6526 -0.1379 1.1890
C14 C -0.6738(3) -0.06085(15) 1.0015(3)
H10 H -0.6380 -0.0233 0.9825
H11 H -0.7437 -0.0546 1.0538
C15 C -0.7342(3) -0.08858(15) 0.8922(3)
C16 C -0.7058(3) -0.14419(15) 0.8631(3)
H12 H -0.6469 -0.1659 0.9132
C17 C -0.7613(3) -0.16843(15) 0.7632(3)
H13 H -0.7400 -0.2064 0.7445
C18 C -0.8485(3) -0.13732(15) 0.6899(3)
H14 H -0.8874 -0.1538 0.6210
C19 C -0.8783(3) -0.08183(15) 0.7181(3)
H15 H -0.9374 -0.0605 0.6674
C20 C -0.8236(3) -0.05681(14) 0.8184(3)
C21 C -0.8564(3) 0.00348(14) 0.8497(3)
H16 H -0.8820 0.0042 0.9293
H17 H -0.7766 0.0273 0.8471
C22 C -0.9531(3) 0.05686(15) 0.6751(3)
H18 H -0.8744 0.0705 0.6467
C23 C -1.0783(3) 0.06285(14) 0.6243(3)
H19 H -1.1047 0.0819 0.5545
C24 C -1.1600(3) 0.03476(14) 0.6975(3)
C25 C -1.3042(3) 0.02748(14) 0.6842(3)
C26 C -1.3657(3) -0.01291(15) 0.7475(3)
H20 H -1.3154 -0.0362 0.8013
C27 C -1.5014(3) -0.01882(15) 0.7310(3)
H21 H -1.5455 -0.0466 0.7724
C28 C -1.5714(4) 0.01639(15) 0.6536(3)
H22 H -1.6646 0.0133 0.6409
C29 C -1.5036(3) 0.05656(15) 0.5942(3)
C30 C -1.5742(3) 0.09641(15) 0.5122(3)
C31 C -1.5073(4) 0.13130(15) 0.4411(3)
H23 H -1.4137 0.1311 0.4456
C32 C -1.5793(4) 0.16644(17) 0.3632(3)
H24 H -1.5357 0.1903 0.3132
C33 C -1.7153(4) 0.16607(17) 0.3600(4)
H25 H -1.7672 0.1899 0.3085
C34 C -1.7738(4) 0.13012(18) 0.4336(3)
H26 H -1.8674 0.1297 0.4303
loop_
_geom_bond_atom_site_label_1
_geom_bond_atom_site_label_2
_geom_bond_site_symmetry_1
_geom_bond_site_symmetry_2
N1 C1 1_555 1_555
N2 C6 1_555 1_555
N3 N4 1_555 1_555
N4 C13 1_555 1_555
N5 N6 1_555 1_555
N6 C24 1_555 1_555
N7 C25 1_555 1_555
N8 C30 1_555 1_555
C1 H1 1_555 1_555
C2 C1 1_555 1_555
H2 C2 1_555 1_555
C3 C2 1_555 1_555
H3 C3 1_555 1_555
C4 C3 1_555 1_555
H4 C4 1_555 1_555
C5 N1 1_555 1_555
C6 C5 1_555 1_555
C7 C6 1_555 1_555
H5 C7 1_555 1_555
C8 C7 1_555 1_555
H6 C8 1_555 1_555
C9 C8 1_555 1_555
H7 C9 1_555 1_555
C10 N2 1_555 1_555
C11 N3 1_555 1_555
C12 C11 1_555 1_555
H8 C12 1_555 1_555
C13 C12 1_555 1_555
H9 C13 1_555 1_555
C14 N4 1_555 1_555
H10 C14 1_555 1_555
H11 C14 1_555 1_555
C15 C14 1_555 1_555
C16 C15 1_555 1_555
H12 C16 1_555 1_555
C17 C16 1_555 1_555
H13 C17 1_555 1_555
C18 C17 1_555 1_555
H14 C18 1_555 1_555
C19 C18 1_555 1_555
H15 C19 1_555 1_555
C20 C15 1_555 1_555
C21 N5 1_555 1_555
H16 C21 1_555 1_555
H17 C21 1_555 1_555
C22 N5 1_555 1_555
H18 C22 1_555 1_555
C23 C22 1_555 1_555
H19 C23 1_555 1_555
C24 C23 1_555 1_555
C25 C24 1_555 1_555
C26 C25 1_555 1_555
H20 C26 1_555 1_555
C27 C26 1_555 1_555
H21 C27 1_555 1_555
C28 C27 1_555 1_555
H22 C28 1_555 1_555
C29 N7 1_555 1_555
C30 C29 1_555 1_555
C31 C30 1_555 1_555
H23 C31 1_555 1_555
C32 C31 1_555 1_555
H24 C32 1_555 1_555
C33 C32 1_555 1_555
H25 C33 1_555 1_555
C34 N8 1_555 1_555
H26 C34 1_555 1_555
C4 C5 1_555 1_555
C9 C10 1_555 1_555
C10 C11 1_555 1_555
C19 C20 1_555 1_555
C20 C21 1_555 1_555
C28 C29 1_555 1_555
C33 C34 1_555 1_555

#END
