
#######################################################################
#
#                 Cambridge Crystallographic Data Centre
#                                CCDC 
#
#######################################################################
#
# If this CIF has been generated from an entry in the Cambridge 
# Structural Database, then it will include bibliographic, chemical, 
# crystal, experimental, refinement or atomic coordinate data resulting 
# from the CCDC's data processing and validation procedures.
#
#######################################################################

data_YIPBIL
_chemical_formula_moiety         'C35 H27 B1 N2'
_chemical_name_systematic        
N,N,6,6-tetraphenyl-6H-5\l^5^,6\l^5^-pyrido[1,2-b][2,1]benzazaborol-8-amine
_symmetry_cell_setting           monoclinic
_symmetry_space_group_name_H-M   'P 21/n'
_symmetry_Int_Tables_number      14
_space_group_name_Hall           '-P 2yn'
loop_
_symmetry_equiv_pos_site_id
_symmetry_equiv_pos_as_xyz
1 x,y,z
2 1/2-x,1/2+y,1/2-z
3 -x,-y,-z
4 1/2+x,1/2-y,1/2+z
_cell_length_a                   14.85425(18)
_cell_length_b                   10.61484(10)
_cell_length_c                   16.83686(18)
_cell_angle_alpha                90
_cell_angle_beta                 94.4742(10)
_cell_angle_gamma                90
_cell_volume                     2646.67
_exptl_crystal_colour            yellow
_exptl_crystal_description       block
_cell_formula_units_Z            4
loop_
_atom_site_label
_atom_site_type_symbol
_atom_site_fract_x
_atom_site_fract_y
_atom_site_fract_z
N1 N 0.57170(6) 0.21442(8) 0.17067(5)
N2 N 0.20262(6) 0.46669(9) 0.15552(6)
B1 B 0.54044(8) 0.35271(11) 0.20126(7)
C1 C 0.65601(8) 0.16829(12) 0.17148(7)
H1 H 0.7045 0.2172 0.1933
C2 C 0.67294(9) 0.05157(13) 0.14120(8)
H2 H 0.7324 0.0210 0.1414
C3 C 0.60093(10) -0.02033(13) 0.11029(9)
H3 H 0.6113 -0.1004 0.0890
C4 C 0.51436(9) 0.02484(12) 0.11058(8)
H4 H 0.4652 -0.0243 0.0903
C5 C 0.50033(8) 0.14431(10) 0.14132(6)
C6 C 0.41672(7) 0.21365(10) 0.14615(6)
C7 C 0.32942(8) 0.17251(11) 0.12448(7)
H5 H 0.3188 0.0894 0.1068
C8 C 0.25869(8) 0.25537(11) 0.12931(7)
H6 H 0.1994 0.2287 0.1146
C9 C 0.27436(7) 0.37885(10) 0.15593(6)
C10 C 0.36196(7) 0.41637(10) 0.18125(6)
H7 H 0.3720 0.4978 0.2020
C11 C 0.43428(7) 0.33532(9) 0.17626(6)
C12 C 0.56029(7) 0.36193(10) 0.29713(6)
C13 C 0.56648(8) 0.47988(12) 0.33379(7)
H8 H 0.5623 0.5525 0.3018
C14 C 0.57847(9) 0.49356(14) 0.41564(8)
H9 H 0.5820 0.5744 0.4384
C15 C 0.58519(9) 0.38860(15) 0.46363(7)
H10 H 0.5941 0.3973 0.5192
C16 C 0.57872(9) 0.27048(14) 0.42958(7)
H11 H 0.5831 0.1984 0.4621
C17 C 0.56568(8) 0.25769(11) 0.34738(7)
H12 H 0.5604 0.1766 0.3251
C18 C 0.59118(7) 0.46177(10) 0.15461(6)
C19 C 0.54747(8) 0.53636(10) 0.09555(6)
H13 H 0.4860 0.5220 0.0808
C20 C 0.59210(9) 0.63161(11) 0.05764(7)
H14 H 0.5606 0.6802 0.0179
C21 C 0.68213(9) 0.65509(11) 0.07796(8)
H15 H 0.7123 0.7195 0.0524
C22 C 0.72738(9) 0.58289(13) 0.13619(8)
H16 H 0.7889 0.5978 0.1504
C23 C 0.68257(8) 0.48862(12) 0.17376(7)
H17 H 0.7146 0.4408 0.2136
C24 C 0.21415(7) 0.58799(11) 0.12178(6)
C25 C 0.16847(8) 0.69113(12) 0.14962(7)
H18 H 0.1312 0.6811 0.1918
C26 C 0.17764(9) 0.80856(12) 0.11554(8)
H19 H 0.1451 0.8774 0.1337
C27 C 0.23390(10) 0.82563(12) 0.05522(8)
H20 H 0.2405 0.9058 0.0327
C28 C 0.28043(10) 0.72377(13) 0.02827(8)
H21 H 0.3197 0.7351 -0.0123
C29 C 0.27005(9) 0.60522(12) 0.06019(7)
H22 H 0.3008 0.5361 0.0402
C30 C 0.11470(8) 0.42240(11) 0.16827(8)
C31 C 0.10235(10) 0.34744(13) 0.23407(9)
H23 H 0.1514 0.3284 0.2708
C32 C 0.01687(12) 0.30076(16) 0.24527(12)
H24 H 0.0083 0.2493 0.2895
C33 C -0.05525(11) 0.32940(16) 0.19212(15)
H25 H -0.1129 0.2977 0.2002
C34 C -0.04325(10) 0.40371(15) 0.12760(13)
H26 H -0.0928 0.4232 0.0915
C35 C 0.04136(9) 0.45058(13) 0.11498(10)
H27 H 0.0492 0.5015 0.0704
loop_
_geom_bond_atom_site_label_1
_geom_bond_atom_site_label_2
_geom_bond_site_symmetry_1
_geom_bond_site_symmetry_2
N1 B1 1_555 1_555
N2 C9 1_555 1_555
B1 C11 1_555 1_555
C1 N1 1_555 1_555
H1 C1 1_555 1_555
C2 C1 1_555 1_555
H2 C2 1_555 1_555
C3 C2 1_555 1_555
H3 C3 1_555 1_555
C4 C3 1_555 1_555
H4 C4 1_555 1_555
C5 N1 1_555 1_555
C6 C5 1_555 1_555
C7 C6 1_555 1_555
H5 C7 1_555 1_555
C8 C7 1_555 1_555
H6 C8 1_555 1_555
C9 C8 1_555 1_555
C10 C9 1_555 1_555
H7 C10 1_555 1_555
C11 C6 1_555 1_555
C12 B1 1_555 1_555
C13 C12 1_555 1_555
H8 C13 1_555 1_555
C14 C13 1_555 1_555
H9 C14 1_555 1_555
C15 C14 1_555 1_555
H10 C15 1_555 1_555
C16 C15 1_555 1_555
H11 C16 1_555 1_555
C17 C12 1_555 1_555
H12 C17 1_555 1_555
C18 B1 1_555 1_555
C19 C18 1_555 1_555
H13 C19 1_555 1_555
C20 C19 1_555 1_555
H14 C20 1_555 1_555
C21 C20 1_555 1_555
H15 C21 1_555 1_555
C22 C21 1_555 1_555
H16 C22 1_555 1_555
C23 C18 1_555 1_555
H17 C23 1_555 1_555
C24 N2 1_555 1_555
C25 C24 1_555 1_555
H18 C25 1_555 1_555
C26 C25 1_555 1_555
H19 C26 1_555 1_555
C27 C26 1_555 1_555
H20 C27 1_555 1_555
C28 C27 1_555 1_555
H21 C28 1_555 1_555
C29 C24 1_555 1_555
H22 C29 1_555 1_555
C30 N2 1_555 1_555
C31 C30 1_555 1_555
H23 C31 1_555 1_555
C32 C31 1_555 1_555
H24 C32 1_555 1_555
C33 C32 1_555 1_555
H25 C33 1_555 1_555
C34 C33 1_555 1_555
H26 C34 1_555 1_555
C35 C30 1_555 1_555
H27 C35 1_555 1_555
C4 C5 1_555 1_555
C10 C11 1_555 1_555
C16 C17 1_555 1_555
C22 C23 1_555 1_555
C28 C29 1_555 1_555
C34 C35 1_555 1_555

#END
