
#######################################################################
#
#                 Cambridge Crystallographic Data Centre
#                                CCDC 
#
#######################################################################
#
# If this CIF has been generated from an entry in the Cambridge 
# Structural Database, then it will include bibliographic, chemical, 
# crystal, experimental, refinement or atomic coordinate data resulting 
# from the CCDC's data processing and validation procedures.
#
#######################################################################

data_YIPFUY01
_chemical_name_common            Tranilast
_chemical_formula_moiety         'C18 H17 N1 O5'
_chemical_name_systematic        
'2-((3-(3,4-dimethoxyphenyl)-1-oxo-2-propenyl)amino)benzoic acid'
_chemical_properties_biological  'orally active antiallergic agent'
_symmetry_cell_setting           monoclinic
_symmetry_space_group_name_H-M   'C 2/c'
_symmetry_Int_Tables_number      15
_space_group_name_Hall           '-C 2yn'
loop_
_symmetry_equiv_pos_site_id
_symmetry_equiv_pos_as_xyz
1 x,y,z
2 1/2+x,1/2+y,z
3 -x,y,1/2-z
4 1/2-x,1/2+y,1/2-z
5 -x,-y,-z
6 1/2-x,1/2-y,-z
7 x,-y,1/2+z
8 1/2+x,1/2-y,1/2+z
_cell_length_a                   16.240(9)
_cell_length_b                   27.589(9)
_cell_length_c                   16.508(7)
_cell_angle_alpha                90
_cell_angle_beta                 119.42(4)
_cell_angle_gamma                90
_cell_volume                     6442.52
_exptl_crystal_description       prisms
_chemical_melting_point          206.5deg.C
_cell_formula_units_Z            16
_exptl_crystal_recrystallization_method methanol/acetone
_exptl_crystal_preparation       
'There are two other polymorphs II (beta) and III (gamma) whose crystal structures could not be determined'
loop_
_atom_site_label
_atom_site_type_symbol
_atom_site_fract_x
_atom_site_fract_y
_atom_site_fract_z
O1 O 0.10690(12) 1.06302(5) -0.04003(10)
H1 H 0.111(2) 1.0436(11) -0.085(2)
O2 O 0.10521(11) 0.99221(5) 0.02268(9)
O3 O 0.11700(11) 0.98002(5) 0.32468(9)
O4 O 0.13155(13) 0.72484(5) 0.44493(11)
O5 O 0.12019(12) 0.67596(5) 0.30705(11)
N1 N 0.10517(12) 0.99328(6) 0.18338(12)
H2 H 0.1031(15) 0.9794(8) 0.1355(16)
C1 C 0.11120(13) 1.06554(7) 0.10404(13)
C2 C 0.10838(13) 1.04404(7) 0.18027(13)
C3 C 0.10977(14) 1.07389(7) 0.24945(14)
H3 H 0.1066 1.0599 0.3004
C4 C 0.11575(15) 1.12358(7) 0.24386(14)
H4 H 0.1166 1.1434 0.2913
C5 C 0.12050(15) 1.14504(7) 0.17078(14)
H5 H 0.1257 1.1792 0.1683
C6 C 0.11762(14) 1.11596(7) 0.10129(13)
H6 H 0.1200 1.1306 0.0504
C7 C 0.10777(13) 1.03638(7) 0.02679(13)
C8 C 0.11121(13) 0.96378(7) 0.25191(13)
C9 C 0.11245(14) 0.91177(7) 0.23364(14)
H7 H 0.1053 0.9014 0.1756
C10 C 0.12340(14) 0.87900(7) 0.29709(14)
H8 H 0.1315 0.8922 0.3537
C11 C 0.12509(14) 0.82626(7) 0.29464(14)
C12 C 0.13050(15) 0.80136(7) 0.37129(14)
H9 H 0.1358 0.8193 0.4227
C13 C 0.12835(16) 0.75171(7) 0.37365(15)
C14 C 0.12194(15) 0.72502(7) 0.29828(15)
C15 C 0.11739(16) 0.74913(8) 0.22307(15)
H10 H 0.1136 0.7312 0.1722
C16 C 0.11838(15) 0.79939(8) 0.22092(14)
H11 H 0.1144 0.8155 0.1683
C17 C 0.1284(2) 0.75090(9) 0.51824(17)
H12 H 0.1319 0.7280 0.5652
H13 H 0.0691 0.7692 0.4929
H14 H 0.1820 0.7733 0.5469
C18 C 0.1015(2) 0.64687(9) 0.22771(19)
H15 H 0.0931 0.6130 0.2400
H16 H 0.1548 0.6493 0.2158
H17 H 0.0439 0.6585 0.1732
O6 O 0.40484(12) 0.18944(5) 0.77262(12)
H18 H 0.449(2) 0.2063(11) 0.823(2)
O7 O 0.34507(10) 0.26022(5) 0.70523(10)
O8 O 0.03636(10) 0.26948(5) 0.42230(10)
O9 O -0.07371(11) 0.52652(5) 0.30403(11)
O10 O 0.07016(11) 0.57401(5) 0.42633(11)
N2 N 0.18183(12) 0.25842(6) 0.54748(12)
H19 H 0.2308(15) 0.2731(7) 0.5938(15)
C19 C 0.26889(13) 0.18642(7) 0.62707(13)
C20 C 0.19030(13) 0.20748(7) 0.55022(13)
C21 C 0.12417(14) 0.17740(7) 0.48071(13)
H20 H 0.0710 0.1912 0.4285
C22 C 0.13577(14) 0.12772(7) 0.48761(14)
H21 H 0.0898 0.1077 0.4402
C23 C 0.21304(14) 0.10662(7) 0.56235(14)
H22 H 0.2208 0.0724 0.5661
C24 C 0.27855(14) 0.13607(7) 0.63122(14)
H23 H 0.3316 0.1218 0.6828
C25 C 0.34183(14) 0.21610(7) 0.70401(14)
C26 C 0.10949(14) 0.28682(7) 0.48724(13)
C27 C 0.12563(14) 0.33918(7) 0.50484(14)
H24 H 0.1845 0.3502 0.5540
C28 C 0.05986(15) 0.37139(7) 0.45357(14)
H25 H 0.0000 0.3583 0.4103
C29 C 0.06664(14) 0.42420(7) 0.45433(14)
C30 C -0.00788(15) 0.44967(7) 0.38110(15)
H26 H -0.0612 0.4323 0.3359
C31 C -0.00519(15) 0.49919(7) 0.37357(15)
C32 C 0.07342(15) 0.52514(7) 0.44030(15)
C33 C 0.14621(15) 0.50048(7) 0.51242(15)
H27 H 0.1992 0.5179 0.5580
C34 C 0.14313(15) 0.45046(8) 0.51937(15)
H28 H 0.1942 0.4341 0.5694
C35 C -0.15207(17) 0.50111(9) 0.23262(18)
H29 H -0.1938 0.5241 0.1846
H30 H -0.1871 0.4849 0.2592
H31 H -0.1293 0.4769 0.2049
C36 C 0.14907(18) 0.60185(8) 0.49110(18)
H32 H 0.1386 0.6361 0.4730
H33 H 0.2064 0.5905 0.4914
H34 H 0.1565 0.5981 0.5534
loop_
_geom_bond_atom_site_label_1
_geom_bond_atom_site_label_2
_geom_bond_site_symmetry_1
_geom_bond_site_symmetry_2
O1 H1 1_555 1_555
O2 C7 1_555 1_555
O3 C8 1_555 1_555
O4 C13 1_555 1_555
O5 C14 1_555 1_555
N1 H2 1_555 1_555
C1 C2 1_555 1_555
C2 N1 1_555 1_555
C3 C2 1_555 1_555
H3 C3 1_555 1_555
C4 C3 1_555 1_555
H4 C4 1_555 1_555
C5 C4 1_555 1_555
H5 C5 1_555 1_555
C6 C1 1_555 1_555
H6 C6 1_555 1_555
C7 O1 1_555 1_555
C8 N1 1_555 1_555
C9 C8 1_555 1_555
H7 C9 1_555 1_555
C10 C9 1_555 1_555
H8 C10 1_555 1_555
C11 C10 1_555 1_555
C12 C11 1_555 1_555
H9 C12 1_555 1_555
C13 C12 1_555 1_555
C14 C13 1_555 1_555
C15 C14 1_555 1_555
H10 C15 1_555 1_555
C16 C11 1_555 1_555
H11 C16 1_555 1_555
C17 O4 1_555 1_555
H12 C17 1_555 1_555
H13 C17 1_555 1_555
H14 C17 1_555 1_555
C18 O5 1_555 1_555
H15 C18 1_555 1_555
H16 C18 1_555 1_555
H17 C18 1_555 1_555
O6 H18 1_555 1_555
O7 C25 1_555 1_555
O8 C26 1_555 1_555
O9 C31 1_555 1_555
O10 C32 1_555 1_555
N2 H19 1_555 1_555
C19 C20 1_555 1_555
C20 N2 1_555 1_555
C21 C20 1_555 1_555
H20 C21 1_555 1_555
C22 C21 1_555 1_555
H21 C22 1_555 1_555
C23 C22 1_555 1_555
H22 C23 1_555 1_555
C24 C19 1_555 1_555
H23 C24 1_555 1_555
C25 O6 1_555 1_555
C26 N2 1_555 1_555
C27 C26 1_555 1_555
H24 C27 1_555 1_555
C28 C27 1_555 1_555
H25 C28 1_555 1_555
C29 C28 1_555 1_555
C30 C29 1_555 1_555
H26 C30 1_555 1_555
C31 C30 1_555 1_555
C32 C31 1_555 1_555
C33 C32 1_555 1_555
H27 C33 1_555 1_555
C34 C29 1_555 1_555
H28 C34 1_555 1_555
C35 O9 1_555 1_555
H29 C35 1_555 1_555
H30 C35 1_555 1_555
H31 C35 1_555 1_555
C36 O10 1_555 1_555
H32 C36 1_555 1_555
H33 C36 1_555 1_555
H34 C36 1_555 1_555
C1 C7 1_555 1_555
C5 C6 1_555 1_555
C15 C16 1_555 1_555
C19 C25 1_555 1_555
C23 C24 1_555 1_555
C33 C34 1_555 1_555

#END
