
#######################################################################
#
#                 Cambridge Crystallographic Data Centre
#                                CCDC 
#
#######################################################################
#
# If this CIF has been generated from an entry in the Cambridge 
# Structural Database, then it will include bibliographic, chemical, 
# crystal, experimental, refinement or atomic coordinate data resulting 
# from the CCDC's data processing and validation procedures.
#
#######################################################################

data_YIPNUI
_chemical_formula_moiety         'C28 H24 F1 N3 O3,0.5(C4 H8 O2)'
_chemical_name_systematic        
'N-(9-(4-Fluorobenzoyl)-6-oxo-8-phenyl-1,3,4,6,7,8-hexahydro-2H-pyrido[1,2-a]pyrimidin-7-yl)benzamide ethyl acetate solvate'
_symmetry_cell_setting           monoclinic
_symmetry_space_group_name_H-M   'P 21'
_symmetry_Int_Tables_number      4
_space_group_name_Hall           'P 2yb'
loop_
_symmetry_equiv_pos_site_id
_symmetry_equiv_pos_as_xyz
1 x,y,z
2 -x,1/2+y,-z
_cell_length_a                   14.455(2)
_cell_length_b                   10.9518(15)
_cell_length_c                   16.561(2)
_cell_angle_alpha                90
_cell_angle_beta                 95.255(2)
_cell_angle_gamma                90
_cell_volume                     2610.72
_exptl_crystal_colour            colorless
_exptl_crystal_description       BLOCK
_cell_formula_units_Z            4
loop_
_atom_site_label
_atom_site_type_symbol
_atom_site_fract_x
_atom_site_fract_y
_atom_site_fract_z
C1 C 0.3695(6) -0.0558(7) 0.4274(4)
C2 C 0.4461(5) 0.0012(6) 0.4083(3)
H1 H 0.4973 0.0103 0.4461
C3 C 0.4468(4) 0.0464(6) 0.3297(3)
H2 H 0.4992 0.0862 0.3143
C4 C 0.3695(4) 0.0322(5) 0.2741(3)
C5 C 0.2930(4) -0.0289(6) 0.2974(3)
H3 H 0.2411 -0.0399 0.2607
C6 C 0.2935(5) -0.0745(6) 0.3766(4)
H4 H 0.2426 -0.1163 0.3932
C7 C 0.3765(4) 0.0718(5) 0.1875(3)
C8 C 0.3066(3) 0.1444(5) 0.1449(3)
C9 C 0.2270(3) 0.2011(5) 0.1843(3)
H5 H 0.2463 0.2069 0.2425
C10 C 0.2170(4) 0.3326(5) 0.1518(3)
H6 H 0.2778 0.3713 0.1640
C11 C 0.1985(4) 0.3338(6) 0.0621(3)
C12 C 0.3176(4) 0.1757(5) 0.0632(3)
C13 C 0.1341(4) 0.1296(5) 0.1754(4)
C14 C 0.0888(6) 0.1090(8) 0.2414(6)
H7 H 0.1134 0.1391 0.2913
C15 C 0.0040(7) 0.0421(10) 0.2366(10)
H8 H -0.0277 0.0281 0.2822
C16 C -0.0279(8) 0.0001(11) 0.1630(10)
H9 H -0.0817 -0.0470 0.1592
C17 C 0.0137(6) 0.0222(8) 0.0924(8)
H10 H -0.0134 -0.0051 0.0425
C18 C 0.0979(5) 0.0870(7) 0.0982(5)
H11 H 0.1291 0.1015 0.0524
C19 C 0.1792(4) 0.5076(5) 0.2360(3)
C20 C 0.1065(4) 0.5884(5) 0.2659(3)
C21 C 0.0191(4) 0.6046(6) 0.2277(4)
H12 H 0.0016 0.5626 0.1799
C22 C -0.0431(4) 0.6824(6) 0.2596(4)
H13 H -0.1017 0.6942 0.2327
C23 C -0.0187(5) 0.7419(7) 0.3304(5)
H14 H -0.0614 0.7922 0.3528
C24 C 0.0688(5) 0.7280(7) 0.3689(4)
H15 H 0.0858 0.7706 0.4165
C25 C 0.1315(5) 0.6508(6) 0.3369(4)
H16 H 0.1906 0.6408 0.3633
C26 C 0.2341(5) 0.2498(7) -0.0683(3)
H17 H 0.2476 0.3296 -0.0897
H18 H 0.1692 0.2316 -0.0837
C27 C 0.2948(5) 0.1543(7) -0.1041(3)
H19 H 0.2702 0.0733 -0.0960
H20 H 0.2960 0.1678 -0.1619
C28 C 0.3906(5) 0.1647(7) -0.0626(3)
H21 H 0.4320 0.1082 -0.0864
H22 H 0.4142 0.2469 -0.0684
F1 F 0.3697(3) -0.1017(5) 0.5052(2)
N1 N 0.1503(3) 0.4089(4) 0.1896(3)
H23 H 0.0921 0.3916 0.1827
N2 N 0.2511(3) 0.2513(5) 0.0211(2)
N3 N 0.3853(3) 0.1359(5) 0.0231(3)
H24 H 0.4279 0.0914 0.0479
O1 O 0.4498(3) 0.0371(4) 0.1563(2)
O2 O 0.1433(4) 0.4007(5) 0.0249(3)
O3 O 0.2627(3) 0.5269(4) 0.2519(2)
C29 C 0.8910(6) 0.4554(7) 0.4194(4)
C30 C 0.9624(5) 0.3950(7) 0.3967(4)
H25 H 1.0155 0.3831 0.4319
C31 C 0.9558(4) 0.3493(6) 0.3177(4)
H26 H 1.0055 0.3067 0.2995
C32 C 0.8753(4) 0.3667(5) 0.2659(3)
C33 C 0.8021(4) 0.4314(6) 0.2943(4)
H27 H 0.7481 0.4446 0.2604
C34 C 0.8091(5) 0.4760(7) 0.3726(4)
H28 H 0.7604 0.5183 0.3927
C35 C 0.8739(4) 0.3257(6) 0.1797(3)
C36 C 0.7966(3) 0.2587(6) 0.1415(3)
C37 C 0.7250(3) 0.1982(5) 0.1896(3)
H29 H 0.7552 0.1850 0.2443
C38 C 0.7059(3) 0.0692(5) 0.1520(3)
H30 H 0.7661 0.0277 0.1529
C39 C 0.6696(4) 0.0823(6) 0.0640(3)
C40 C 0.7919(4) 0.2318(5) 0.0582(3)
C41 C 0.6354(3) 0.2690(5) 0.1997(3)
C42 C 0.6041(4) 0.2805(6) 0.2763(4)
H31 H 0.6378 0.2436 0.3202
C43 C 0.5250(4) 0.3446(7) 0.2893(4)
H32 H 0.5069 0.3528 0.3415
C44 C 0.4735(5) 0.3959(6) 0.2254(5)
H33 H 0.4193 0.4375 0.2341
C45 C 0.5006(4) 0.3873(6) 0.1467(5)
H34 H 0.4655 0.4230 0.1030
C46 C 0.5826(4) 0.3230(6) 0.1357(4)
H35 H 0.6019 0.3166 0.0838
C47 C 0.6830(4) -0.0960(5) 0.2444(3)
C48 C 0.6165(4) -0.1793(5) 0.2816(3)
C49 C 0.6473(4) -0.2376(7) 0.3540(4)
H36 H 0.7078 -0.2252 0.3768
C50 C 0.5901(5) -0.3115(8) 0.3913(4)
H37 H 0.6117 -0.3474 0.4403
C51 C 0.5012(5) -0.3355(6) 0.3594(4)
H38 H 0.4626 -0.3861 0.3864
C52 C 0.4703(4) -0.2825(6) 0.2857(4)
H39 H 0.4112 -0.3002 0.2615
C53 C 0.5268(4) -0.2041(5) 0.2488(4)
H40 H 0.5046 -0.1665 0.2005
C54 C 0.6898(5) 0.1723(7) -0.0672(3)
H41 H 0.6254 0.1980 -0.0749
H42 H 0.6943 0.0922 -0.0915
C55 C 0.7494(5) 0.2622(8) -0.1098(4)
H43 H 0.7437 0.2465 -0.1677
H44 H 0.7290 0.3451 -0.1009
C56 C 0.8482(5) 0.2467(8) -0.0759(4)
H45 H 0.8689 0.1643 -0.0860
H46 H 0.8876 0.3032 -0.1022
F2 F 0.8957(3) 0.4987(5) 0.4992(2)
N4 N 0.6459(3) -0.0088(4) 0.1949(3)
H47 H 0.5867 0.0010 0.1886
N5 N 0.7187(3) 0.1641(4) 0.0201(3)
N6 N 0.8556(4) 0.2705(6) 0.0122(3)
H48 H 0.9025 0.3106 0.0340
O4 O 0.9429(3) 0.3568(4) 0.1412(2)
O5 O 0.6053(3) 0.0251(4) 0.0310(2)
O6 O 0.7673(3) -0.1097(4) 0.2591(2)
C57 C 0.8367(8) 1.0914(11) 0.4210(6)
H49 H 0.8112 1.1599 0.3904
H50 H 0.8602 1.0328 0.3849
H51 H 0.8863 1.1186 0.4593
C58 C 0.7697(11) 1.0390(14) 0.4611(8)
C59 C 0.6980(11) 0.9025(12) 0.5505(5)
H52 H 0.6433 0.8868 0.5135
H53 H 0.6820 0.9598 0.5916
C60 C 0.7352(10) 0.7879(13) 0.5877(6)
H54 H 0.7617 0.7394 0.5474
H55 H 0.6859 0.7432 0.6092
H56 H 0.7822 0.8066 0.6307
O7 O 0.6908(12) 1.0880(13) 0.4618(10)
O8 O 0.7732(5) 0.9488(6) 0.5075(3)
loop_
_geom_bond_atom_site_label_1
_geom_bond_atom_site_label_2
_geom_bond_site_symmetry_1
_geom_bond_site_symmetry_2
C1 C2 1_555 1_555
C2 H1 1_555 1_555
C3 C2 1_555 1_555
H2 C3 1_555 1_555
C4 C3 1_555 1_555
C5 C4 1_555 1_555
H3 C5 1_555 1_555
C6 C1 1_555 1_555
H4 C6 1_555 1_555
C7 C4 1_555 1_555
C8 C7 1_555 1_555
C9 C8 1_555 1_555
H5 C9 1_555 1_555
C10 C9 1_555 1_555
H6 C10 1_555 1_555
C11 C10 1_555 1_555
C12 C8 1_555 1_555
C13 C9 1_555 1_555
C14 C13 1_555 1_555
H7 C14 1_555 1_555
C15 C14 1_555 1_555
H8 C15 1_555 1_555
C16 C15 1_555 1_555
H9 C16 1_555 1_555
C17 C16 1_555 1_555
H10 C17 1_555 1_555
C18 C13 1_555 1_555
H11 C18 1_555 1_555
C19 C20 1_555 1_555
C20 C21 1_555 1_555
C21 H12 1_555 1_555
C22 C21 1_555 1_555
H13 C22 1_555 1_555
C23 C22 1_555 1_555
H14 C23 1_555 1_555
C24 C23 1_555 1_555
H15 C24 1_555 1_555
C25 C20 1_555 1_555
H16 C25 1_555 1_555
C26 H17 1_555 1_555
H18 C26 1_555 1_555
C27 C26 1_555 1_555
H19 C27 1_555 1_555
H20 C27 1_555 1_555
C28 C27 1_555 1_555
H21 C28 1_555 1_555
H22 C28 1_555 1_555
F1 C1 1_555 1_555
N1 C10 1_555 1_555
H23 N1 1_555 1_555
N2 C11 1_555 1_555
N3 C12 1_555 1_555
H24 N3 1_555 1_555
O1 C7 1_555 1_555
O2 C11 1_555 1_555
O3 C19 1_555 1_555
C29 C30 1_555 1_555
C30 H25 1_555 1_555
C31 C30 1_555 1_555
H26 C31 1_555 1_555
C32 C31 1_555 1_555
C33 C32 1_555 1_555
H27 C33 1_555 1_555
C34 C29 1_555 1_555
H28 C34 1_555 1_555
C35 C32 1_555 1_555
C36 C35 1_555 1_555
C37 C36 1_555 1_555
H29 C37 1_555 1_555
C38 C37 1_555 1_555
H30 C38 1_555 1_555
C39 C38 1_555 1_555
C40 C36 1_555 1_555
C41 C37 1_555 1_555
C42 C41 1_555 1_555
H31 C42 1_555 1_555
C43 C42 1_555 1_555
H32 C43 1_555 1_555
C44 C43 1_555 1_555
H33 C44 1_555 1_555
C45 C44 1_555 1_555
H34 C45 1_555 1_555
C46 C41 1_555 1_555
H35 C46 1_555 1_555
C47 C48 1_555 1_555
C48 C49 1_555 1_555
C49 H36 1_555 1_555
C50 C49 1_555 1_555
H37 C50 1_555 1_555
C51 C50 1_555 1_555
H38 C51 1_555 1_555
C52 C51 1_555 1_555
H39 C52 1_555 1_555
C53 C48 1_555 1_555
H40 C53 1_555 1_555
C54 H41 1_555 1_555
H42 C54 1_555 1_555
C55 C54 1_555 1_555
H43 C55 1_555 1_555
H44 C55 1_555 1_555
C56 C55 1_555 1_555
H45 C56 1_555 1_555
H46 C56 1_555 1_555
F2 C29 1_555 1_555
N4 C38 1_555 1_555
H47 N4 1_555 1_555
N5 C39 1_555 1_555
N6 C40 1_555 1_555
H48 N6 1_555 1_555
O4 C35 1_555 1_555
O5 C39 1_555 1_555
O6 C47 1_555 1_555
C57 H49 1_555 1_555
H50 C57 1_555 1_555
H51 C57 1_555 1_555
C58 C57 1_555 1_555
C59 H52 1_555 1_555
H53 C59 1_555 1_555
C60 C59 1_555 1_555
H54 C60 1_555 1_555
H55 C60 1_555 1_555
H56 C60 1_555 1_555
O7 C58 1_555 1_555
O8 C58 1_555 1_555
C5 C6 1_555 1_555
C12 N2 1_555 1_555
C17 C18 1_555 1_555
C19 N1 1_555 1_555
C24 C25 1_555 1_555
C26 N2 1_555 1_555
C28 N3 1_555 1_555
C33 C34 1_555 1_555
C40 N5 1_555 1_555
C45 C46 1_555 1_555
C47 N4 1_555 1_555
C52 C53 1_555 1_555
C54 N5 1_555 1_555
C56 N6 1_555 1_555
C59 O8 1_555 1_555

#END
