
#######################################################################
#
#                 Cambridge Crystallographic Data Centre
#                                CCDC 
#
#######################################################################
#
# If this CIF has been generated from an entry in the Cambridge 
# Structural Database, then it will include bibliographic, chemical, 
# crystal, experimental, refinement or atomic coordinate data resulting 
# from the CCDC's data processing and validation procedures.
#
#######################################################################

data_YIPSIC
_chemical_name_common            
1,2-O-isopropylidene-3-O-methyl-5-C-phenil-beta-L-ido-pentofuranose
_chemical_formula_moiety         'C15 H20 O5'
_chemical_name_systematic        
(6-methoxy-2,2-dimethyltetrahydro-2H-furo[2,3-d][1,3]dioxol-5-yl)(phenyl)methanol
_symmetry_cell_setting           orthorhombic
_symmetry_space_group_name_H-M   'P 21 21 21'
_symmetry_Int_Tables_number      19
_space_group_name_Hall           'P 2ac 2ab'
loop_
_symmetry_equiv_pos_site_id
_symmetry_equiv_pos_as_xyz
1 x,y,z
2 1/2-x,-y,1/2+z
3 -x,1/2+y,1/2-z
4 1/2+x,1/2-y,-z
_cell_length_a                   8.8306(3)
_cell_length_b                   10.0761(3)
_cell_length_c                   17.1204(6)
_cell_angle_alpha                90
_cell_angle_beta                 90
_cell_angle_gamma                90
_cell_volume                     1523.34
_exptl_crystal_colour            colorless
_exptl_crystal_description       prism
_chemical_melting_point          '370 K'
_cell_formula_units_Z            4
loop_
_atom_site_label
_atom_site_type_symbol
_atom_site_fract_x
_atom_site_fract_y
_atom_site_fract_z
O1 O 0.95555(17) 0.28368(14) 0.83788(8)
O2 O 0.8608(2) 0.10061(18) 0.77038(9)
O3 O 0.68451(15) 0.08995(13) 0.86560(7)
O4 O 0.92753(13) 0.24857(14) 1.00807(7)
O5 O 0.9085(2) 0.56718(16) 0.84634(10)
H1 H 0.985(4) 0.539(3) 0.8187(18)
C1 C 0.9340(2) 0.1457(2) 0.83846(12)
H2 H 1.0305 0.0993 0.8461
C2 C 0.8232(2) 0.11382(17) 0.90500(11)
H3 H 0.8559 0.0387 0.9372
C3 C 0.81206(18) 0.24329(16) 0.95069(9)
H4 H 0.7114 0.2552 0.9737
C4 C 0.8434(2) 0.34550(17) 0.88739(10)
H5 H 0.7507 0.3588 0.8569
C5 C 0.9034(2) 0.48030(18) 0.91259(11)
H6 H 1.0059 0.4697 0.9336
C6 C 0.8043(2) 0.54499(17) 0.97377(11)
C7 C 0.8431(3) 0.5405(2) 1.05208(12)
H7 H 0.9302 0.4957 1.0675
C8 C 0.7537(4) 0.6020(3) 1.10762(17)
H8 H 0.7808 0.5973 1.16
C9 C 0.6269(4) 0.6689(3) 1.0866(2)
H9 H 0.5686 0.7116 1.1242
C10 C 0.5854(3) 0.6732(3) 1.0100(2)
H10 H 0.4974 0.7175 0.9956
C11 C 0.6737(3) 0.6116(2) 0.95273(16)
H11 H 0.6447 0.6155 0.9006
C12 C 0.7185(3) 0.0419(2) 0.78942(12)
C13 C 0.5995(3) 0.0928(3) 0.73394(16)
H12 H 0.5939 0.1877 0.7376
H13 H 0.5031 0.0551 0.7473
H14 H 0.6257 0.068 0.6815
C14 C 0.7332(3) -0.1083(2) 0.78913(17)
H15 H 0.6363 -0.1475 0.7998
H16 H 0.8043 -0.135 0.8285
H17 H 0.7683 -0.1372 0.7389
C15 C 0.8826(3) 0.1901(3) 1.07978(12)
H18 H 0.792 0.2325 1.0982
H19 H 0.9618 0.2011 1.1177
H20 H 0.8636 0.0973 1.072
loop_
_geom_bond_atom_site_label_1
_geom_bond_atom_site_label_2
_geom_bond_site_symmetry_1
_geom_bond_site_symmetry_2
O1 C1 1_555 1_555
O2 C1 1_555 1_555
O3 C2 1_555 1_555
O4 C3 1_555 1_555
O5 H1 1_555 1_555
C1 H2 1_555 1_555
C2 C1 1_555 1_555
H3 C2 1_555 1_555
C3 C2 1_555 1_555
H4 C3 1_555 1_555
C4 O1 1_555 1_555
H5 C4 1_555 1_555
C5 O5 1_555 1_555
H6 C5 1_555 1_555
C6 C5 1_555 1_555
C7 C6 1_555 1_555
H7 C7 1_555 1_555
C8 C7 1_555 1_555
H8 C8 1_555 1_555
C9 C8 1_555 1_555
H9 C9 1_555 1_555
C10 C9 1_555 1_555
H10 C10 1_555 1_555
C11 C6 1_555 1_555
H11 C11 1_555 1_555
C12 O2 1_555 1_555
C13 C12 1_555 1_555
H12 C13 1_555 1_555
H13 C13 1_555 1_555
H14 C13 1_555 1_555
C14 C12 1_555 1_555
H15 C14 1_555 1_555
H16 C14 1_555 1_555
H17 C14 1_555 1_555
C15 O4 1_555 1_555
H18 C15 1_555 1_555
H19 C15 1_555 1_555
H20 C15 1_555 1_555
O3 C12 1_555 1_555
C3 C4 1_555 1_555
C4 C5 1_555 1_555
C10 C11 1_555 1_555

#END
