
#######################################################################
#
#                 Cambridge Crystallographic Data Centre
#                                CCDC 
#
#######################################################################
#
# If this CIF has been generated from an entry in the Cambridge 
# Structural Database, then it will include bibliographic, chemical, 
# crystal, experimental, refinement or atomic coordinate data resulting 
# from the CCDC's data processing and validation procedures.
#
#######################################################################

data_YIPXON
_chemical_formula_moiety         'C22 H19 N3 O2 S4'
_chemical_name_systematic        
"5-hexyl-2,8-bis(thiophen-2-yl)-4H-bis[1,3]thiazolo[4,5-c:5',4'-e]azepine-4,6(5H)-dione unknown solvate"
_symmetry_cell_setting           rhombohedral
_symmetry_space_group_name_H-M   'R -3'
_symmetry_Int_Tables_number      148
_space_group_name_Hall           '-R 3'
loop_
_symmetry_equiv_pos_site_id
_symmetry_equiv_pos_as_xyz
1 x,y,z
2 -y,x-y,z
3 -x+y,-x,z
4 2/3+x,1/3+y,1/3+z
5 2/3-y,1/3+x-y,1/3+z
6 2/3-x+y,1/3-x,1/3+z
7 1/3+x,2/3+y,2/3+z
8 1/3-y,2/3+x-y,2/3+z
9 1/3-x+y,2/3-x,2/3+z
10 -x,-y,-z
11 y,-x+y,-z
12 x-y,x,-z
13 1/3-x,2/3-y,2/3-z
14 1/3+y,2/3-x+y,2/3-z
15 1/3+x-y,2/3+x,2/3-z
16 2/3-x,1/3-y,1/3-z
17 2/3+y,1/3-x+y,1/3-z
18 2/3+x-y,1/3+x,1/3-z
_cell_length_a                   46.450(6)
_cell_length_b                   46.450(6)
_cell_length_c                   7.1640(14)
_cell_angle_alpha                90
_cell_angle_beta                 90
_cell_angle_gamma                120
_cell_volume                     13386.2
_cell_formula_units_Z            18
_exptl_crystal_recrystallization_method dichloromethane
loop_
_atom_site_label
_atom_site_type_symbol
_atom_site_fract_x
_atom_site_fract_y
_atom_site_fract_z
S1 S 0.59118(3) 0.02945(3) 0.48137(16)
S2 S 0.56552(4) 0.04816(4) 0.10957(17)
S3 S 0.52163(3) 0.04637(4) -0.43368(18)
S4 S 0.61358(4) -0.02205(4) 0.9175(2)
N1 N 0.57958(10) -0.02973(11) 0.5368(6)
C1 C 0.56421(11) -0.03041(13) 0.3706(7)
C2 C 0.59447(12) -0.00046(13) 0.6085(6)
C3 C 0.61225(12) 0.00807(13) 0.7864(7)
C4 C 0.64290(12) 0.03715(16) 1.0492(7)
C5 C 0.62999(11) 0.04061(14) 0.8695(6)
C6 C 0.63596(13) 0.00551(14) 1.0881(7)
C7 C 0.53800(11) -0.01219(14) 0.0062(6)
N2 N 0.53222(10) 0.00361(14) -0.1365(5)
C8 C 0.55610(11) 0.00791(13) 0.1520(6)
C9 C 0.54532(13) 0.03557(16) -0.1026(7)
C10 C 0.56771(11) -0.00074(12) 0.3187(6)
C11 C 0.52358(15) -0.04809(17) -0.0143(8)
N3 N 0.52841(12) -0.06914(12) 0.1089(7)
O1 O 0.50594(13) -0.06166(12) -0.1488(7)
C12 C 0.54349(14) 0.05878(17) -0.2297(7)
O2 O 0.55063(12) -0.08532(11) 0.3344(7)
C13 C 0.51183(18) -0.10410(16) 0.0468(11)
C14 C 0.54813(14) -0.06232(16) 0.2712(8)
C15 C 0.53291(18) 0.08649(17) -0.4873(9)
C16 C 0.5589(2) 0.09301(18) -0.2097(9)
C17 C 0.5517(2) 0.10770(19) -0.3587(10)
C18 C 0.5360(2) -0.1077(2) -0.0991(14)
C19 C 0.5412(4) -0.1485(4) -0.317(2)
C20 C 0.5164(3) -0.1442(3) -0.1917(19)
C21 C 0.5206(7) -0.1863(8) -0.411(4)
C22 C 0.5044(7) -0.1861(7) -0.556(5)
C23? C 0.4823(6) -0.2282(7) -0.692(4)
loop_
_geom_bond_atom_site_label_1
_geom_bond_atom_site_label_2
_geom_bond_site_symmetry_1
_geom_bond_site_symmetry_2
S1 C2 1_555 1_555
S2 C8 1_555 1_555
S3 C12 1_555 1_555
S4 C3 1_555 1_555
N1 C1 1_555 1_555
C1 C10 1_555 1_555
C2 N1 1_555 1_555
C3 C2 1_555 1_555
C4 C5 1_555 1_555
C5 C3 1_555 1_555
C6 S4 1_555 1_555
C7 N2 1_555 1_555
N2 C9 1_555 1_555
C8 C7 1_555 1_555
C9 S2 1_555 1_555
C10 S1 1_555 1_555
C11 C7 1_555 1_555
N3 C11 1_555 1_555
O1 C11 1_555 1_555
C12 C9 1_555 1_555
O2 C14 1_555 1_555
C13 N3 1_555 1_555
C14 C1 1_555 1_555
C15 S3 1_555 1_555
C16 C12 1_555 1_555
C17 C15 1_555 1_555
C18 C13 1_555 1_555
C19 C20 1_555 1_555
C20 C18 1_555 1_555
C21 C19 1_555 1_555
C22 C21 1_555 1_555
C4 C6 1_555 1_555
C8 C10 1_555 1_555
N3 C14 1_555 1_555
C16 C17 1_555 1_555

#END
