
#######################################################################
#
#                 Cambridge Crystallographic Data Centre
#                                CCDC 
#
#######################################################################
#
# If this CIF has been generated from an entry in the Cambridge 
# Structural Database, then it will include bibliographic, chemical, 
# crystal, experimental, refinement or atomic coordinate data resulting 
# from the CCDC's data processing and validation procedures.
#
#######################################################################

data_YIPYON
_chemical_formula_moiety         'C27 H39 O2 P1 S1'
_chemical_name_systematic        
'S-(4-t-Butylphenyl) O-(2-isopropyl-5-methylcyclohexyl) benzylphosphonothioate'
_symmetry_cell_setting           monoclinic
_symmetry_space_group_name_H-M   'P 21'
_symmetry_Int_Tables_number      4
_space_group_name_Hall           'P 2yb'
loop_
_symmetry_equiv_pos_site_id
_symmetry_equiv_pos_as_xyz
1 x,y,z
2 -x,1/2+y,-z
_cell_length_a                   6.0682(9)
_cell_length_b                   18.978(4)
_cell_length_c                   23.709(4)
_cell_angle_alpha                90
_cell_angle_beta                 91.264(14)
_cell_angle_gamma                90
_cell_volume                     2729.72
_exptl_crystal_colour            colorless
_exptl_crystal_description       needle
_cell_formula_units_Z            4
loop_
_atom_site_label
_atom_site_type_symbol
_atom_site_fract_x
_atom_site_fract_y
_atom_site_fract_z
P1 P 0.1048(5) 0.2238(2) 0.01814(15)
S1 S 0.1826(7) 0.1161(2) 0.02499(17)
O1 O 0.1372(13) 0.2324(6) -0.0486(3)
O2 O -0.1085(13) 0.2416(5) 0.0356(4)
C1 C 0.164(3) 0.1051(11) 0.0992(7)
C2 C 0.024(3) 0.2766(11) -0.1406(7)
H1 H 0.1316 0.2433 -0.1557
C3 C 0.137(3) 0.0785(11) 0.2155(8)
C4 C 0.326(3) 0.2703(11) 0.0502(8)
H2 H 0.3233 0.2626 0.0906
H3 H 0.4635 0.2507 0.0368
C5 C -0.025(3) 0.1166(11) 0.1272(8)
H4 H -0.1493 0.1320 0.1071
C6 C -0.155(3) 0.1738(11) -0.0968(8)
H5 H -0.2011 0.1536 -0.0614
H6 H -0.0419 0.1434 -0.1119
C7 C 0.120(3) 0.0634(11) 0.2787(8)
C8 C 0.154(3) 0.3494(11) -0.1318(8)
H7 H 0.2757 0.3394 -0.1051
C9 C 0.157(3) 0.3930(12) 0.0557(8)
H8 H 0.0386 0.3752 0.0753
C10 C 0.325(3) 0.3483(11) 0.0391(8)
C11 C -0.160(3) 0.2795(11) -0.1825(8)
H9 H -0.2648 0.3145 -0.1703
H10 H -0.1024 0.2951 -0.2183
C12 C -0.278(3) 0.2121(11) -0.1917(7)
H11 H -0.1837 0.1805 -0.2125
H12 H -0.4087 0.2209 -0.2147
C13 C 0.501(3) 0.3779(11) 0.0133(7)
H13 H 0.6192 0.3492 0.0044
C14 C -0.060(3) 0.2430(11) -0.0859(7)
H14 H -0.1675 0.2739 -0.0679
C15 C 0.345(3) 0.0830(11) 0.1285(8)
H15 H 0.4777 0.0771 0.1100
C16 C 0.335(3) 0.0693(11) 0.1843(8)
H16 H 0.4612 0.0534 0.2033
C17 C 0.511(3) 0.4517(11) -0.0007(8)
H17 H 0.6282 0.4707 -0.0203
C18 C 0.208(3) 0.1345(10) 0.3111(8)
H18 H 0.1979 0.1280 0.3511
H19 H 0.1180 0.1738 0.2996
H20 H 0.3580 0.1433 0.3016
C19 C -0.039(3) 0.1055(11) 0.1885(8)
H21 H -0.1664 0.1169 0.2078
C20 C -0.115(3) 0.0511(12) 0.2978(8)
H22 H -0.1866 0.0180 0.2728
H23 H -0.1942 0.0948 0.2969
H24 H -0.1119 0.0326 0.3355
C21 C 0.167(3) 0.4647(11) 0.0431(8)
H25 H 0.0527 0.4943 0.0534
C22 C 0.253(3) 0.3741(11) -0.1824(8)
H26 H 0.1479 0.4014 -0.2038
H27 H 0.2994 0.3345 -0.2044
H28 H 0.3786 0.4028 -0.1728
C23 C 0.016(3) 0.4052(11) -0.1047(8)
H29 H 0.0993 0.4481 -0.1014
H30 H -0.0256 0.3898 -0.0678
H31 H -0.1143 0.4135 -0.1275
C24 C 0.253(3) 0.0067(11) 0.2976(8)
H32 H 0.2267 -0.0335 0.2738
H33 H 0.2161 -0.0050 0.3357
H34 H 0.4052 0.0198 0.2963
C25 C -0.345(3) 0.1756(11) -0.1367(7)
H35 H -0.4532 0.2071 -0.1197
C26 C -0.467(3) 0.1066(12) -0.1480(8)
H36 H -0.3637 0.0708 -0.1582
H37 H -0.5730 0.1131 -0.1783
H38 H -0.5420 0.0924 -0.1146
C27 C 0.340(3) 0.4914(12) 0.0163(7)
H39 H 0.3426 0.5395 0.0089
P2 P 0.5806(6) 0.2016(2) 0.48029(15)
S2 S 0.6669(8) 0.3092(2) 0.47580(17)
O3 O 0.6172(16) 0.1883(5) 0.5471(3)
O4 O 0.3608(14) 0.1846(6) 0.4587(4)
C28 C 0.434(3) 0.1782(11) 0.5836(7)
H40 H 0.3282 0.1468 0.5644
C29 C 0.986(3) 0.0477(11) 0.4812(8)
H41 H 1.1072 0.0760 0.4900
C30 C 0.831(3) -0.0628(12) 0.4777(7)
H42 H 0.8411 -0.1109 0.4847
C31 C 0.677(3) 0.3201(11) 0.4019(7)
C32 C 0.641(3) -0.0391(11) 0.4515(7)
H43 H 0.5255 -0.0689 0.4416
C33 C 0.635(3) 0.0333(11) 0.4409(8)
H44 H 0.5120 0.0520 0.4222
C34 C 0.876(3) 0.3440(11) 0.3799(8)
H45 H 0.9948 0.3507 0.4047
C35 C 0.512(3) 0.3069(11) 0.3673(8)
H46 H 0.3836 0.2876 0.3812
C36 C 0.804(3) 0.0781(11) 0.4569(8)
C37 C 0.713(3) 0.3440(12) 0.2868(8)
C38 C 0.903(3) 0.3579(11) 0.3242(8)
H47 H 1.0352 0.3753 0.3107
C39 C 0.511(3) 0.1430(11) 0.6378(7)
H48 H 0.6200 0.1749 0.6552
C40 C 0.999(3) -0.0237(11) 0.4936(8)
H49 H 1.1209 -0.0429 0.5123
C41 C 0.213(3) 0.2083(11) 0.6889(7)
H50 H 0.3158 0.2397 0.7083
H51 H 0.0903 0.2001 0.7135
C42 C 0.317(3) 0.2510(11) 0.5942(8)
H52 H 0.4234 0.2843 0.6096
H53 H 0.2605 0.2696 0.5586
C43 C 0.636(3) 0.0725(11) 0.6267(8)
H54 H 0.7545 0.0834 0.6007
C44 C 0.526(3) 0.3218(11) 0.3078(7)
H55 H 0.4034 0.3156 0.2843
C45 C 0.327(3) 0.1387(11) 0.6775(8)
H56 H 0.3835 0.1199 0.7131
H57 H 0.2189 0.1057 0.6626
C46 C 0.129(3) 0.2436(11) 0.6345(7)
H58 H 0.0233 0.2109 0.6169
C47 C 0.007(3) 0.3129(12) 0.6430(8)
H59 H 0.1042 0.3466 0.6605
H60 H -0.1172 0.3050 0.6667
H61 H -0.0443 0.3306 0.6071
C48 C 0.730(3) 0.3570(11) 0.2208(8)
C49 C 0.838(3) 0.4274(11) 0.2088(8)
H62 H 0.8893 0.4278 0.1707
H63 H 0.9612 0.4341 0.2345
H64 H 0.7336 0.4646 0.2136
C50 C 0.747(3) 0.0470(11) 0.6825(8)
H65 H 0.6906 0.0737 0.7134
H66 H 0.9033 0.0536 0.6807
H67 H 0.7150 -0.0021 0.6879
C51 C 0.494(3) 0.0194(12) 0.5985(8)
H68 H 0.5103 0.0225 0.5584
H69 H 0.3426 0.0280 0.6075
H70 H 0.5356 -0.0269 0.6112
C52 C 0.863(3) 0.3056(12) 0.1974(8)
H71 H 0.8286 0.2606 0.2134
H72 H 1.0150 0.3166 0.2053
H73 H 0.8376 0.3040 0.1573
C53 C 0.815(3) 0.1581(11) 0.4481(8)
H74 H 0.8143 0.1684 0.4080
H75 H 0.9508 0.1762 0.4647
C54 C 0.545(3) 0.3570(11) 0.1937(8)
H76 H 0.4344 0.3781 0.2166
H77 H 0.5038 0.3094 0.1848
H78 H 0.5588 0.3835 0.1595
loop_
_geom_bond_atom_site_label_1
_geom_bond_atom_site_label_2
_geom_bond_site_symmetry_1
_geom_bond_site_symmetry_2
P1 S1 1_555 1_555
S1 C1 1_555 1_555
O1 P1 1_555 1_555
O2 P1 1_555 1_555
C1 C5 1_555 1_555
C2 H1 1_555 1_555
C3 C7 1_555 1_555
C4 P1 1_555 1_555
H2 C4 1_555 1_555
H3 C4 1_555 1_555
C5 H4 1_555 1_555
C6 H5 1_555 1_555
H6 C6 1_555 1_555
C7 C18 1_555 1_555
C8 C2 1_555 1_555
H7 C8 1_555 1_555
C9 H8 1_555 1_555
C10 C4 1_555 1_555
C11 C2 1_555 1_555
H9 C11 1_555 1_555
H10 C11 1_555 1_555
C12 C11 1_555 1_555
H11 C12 1_555 1_555
H12 C12 1_555 1_555
C13 C10 1_555 1_555
H13 C13 1_555 1_555
C14 O1 1_555 1_555
H14 C14 1_555 1_555
C15 C1 1_555 1_555
H15 C15 1_555 1_555
C16 C3 1_555 1_555
H16 C16 1_555 1_555
C17 C13 1_555 1_555
H17 C17 1_555 1_555
C18 H18 1_555 1_555
H19 C18 1_555 1_555
H20 C18 1_555 1_555
C19 C3 1_555 1_555
H21 C19 1_555 1_555
C20 C7 1_555 1_555
H22 C20 1_555 1_555
H23 C20 1_555 1_555
H24 C20 1_555 1_555
C21 C9 1_555 1_555
H25 C21 1_555 1_555
C22 C8 1_555 1_555
H26 C22 1_555 1_555
H27 C22 1_555 1_555
H28 C22 1_555 1_555
C23 C8 1_555 1_555
H29 C23 1_555 1_555
H30 C23 1_555 1_555
H31 C23 1_555 1_555
C24 C7 1_555 1_555
H32 C24 1_555 1_555
H33 C24 1_555 1_555
H34 C24 1_555 1_555
C25 C6 1_555 1_555
H35 C25 1_555 1_555
C26 C25 1_555 1_555
H36 C26 1_555 1_555
H37 C26 1_555 1_555
H38 C26 1_555 1_555
C27 C17 1_555 1_555
H39 C27 1_555 1_555
P2 S2 1_555 1_555
S2 C31 1_555 1_555
O3 P2 1_555 1_555
O4 P2 1_555 1_555
C28 O3 1_555 1_555
H40 C28 1_555 1_555
C29 H41 1_555 1_555
C30 H42 1_555 1_555
C31 C34 1_555 1_555
C32 C30 1_555 1_555
H43 C32 1_555 1_555
C33 C32 1_555 1_555
H44 C33 1_555 1_555
C34 H45 1_555 1_555
C35 C31 1_555 1_555
H46 C35 1_555 1_555
C36 C29 1_555 1_555
C37 C38 1_555 1_555
C38 C34 1_555 1_555
H47 C38 1_555 1_555
C39 C28 1_555 1_555
H48 C39 1_555 1_555
C40 C29 1_555 1_555
H49 C40 1_555 1_555
C41 H50 1_555 1_555
H51 C41 1_555 1_555
C42 C28 1_555 1_555
H52 C42 1_555 1_555
H53 C42 1_555 1_555
C43 C39 1_555 1_555
H54 C43 1_555 1_555
C44 C35 1_555 1_555
H55 C44 1_555 1_555
C45 C39 1_555 1_555
H56 C45 1_555 1_555
H57 C45 1_555 1_555
C46 C41 1_555 1_555
H58 C46 1_555 1_555
C47 C46 1_555 1_555
H59 C47 1_555 1_555
H60 C47 1_555 1_555
H61 C47 1_555 1_555
C48 C37 1_555 1_555
C49 C48 1_555 1_555
H62 C49 1_555 1_555
H63 C49 1_555 1_555
H64 C49 1_555 1_555
C50 C43 1_555 1_555
H65 C50 1_555 1_555
H66 C50 1_555 1_555
H67 C50 1_555 1_555
C51 C43 1_555 1_555
H68 C51 1_555 1_555
H69 C51 1_555 1_555
H70 C51 1_555 1_555
C52 C48 1_555 1_555
H71 C52 1_555 1_555
H72 C52 1_555 1_555
H73 C52 1_555 1_555
C53 P2 1_555 1_555
H74 C53 1_555 1_555
H75 C53 1_555 1_555
C54 C48 1_555 1_555
H76 C54 1_555 1_555
H77 C54 1_555 1_555
H78 C54 1_555 1_555
C2 C14 1_555 1_555
C5 C19 1_555 1_555
C6 C14 1_555 1_555
C9 C10 1_555 1_555
C12 C25 1_555 1_555
C15 C16 1_555 1_555
C21 C27 1_555 1_555
C30 C40 1_555 1_555
C33 C36 1_555 1_555
C36 C53 1_555 1_555
C37 C44 1_555 1_555
C41 C45 1_555 1_555
C42 C46 1_555 1_555

#END
