
#######################################################################
#
#                 Cambridge Crystallographic Data Centre
#                                CCDC 
#
#######################################################################
#
# If this CIF has been generated from an entry in the Cambridge 
# Structural Database, then it will include bibliographic, chemical, 
# crystal, experimental, refinement or atomic coordinate data resulting 
# from the CCDC's data processing and validation procedures.
#
#######################################################################

data_YIQDUZ
_chemical_formula_moiety         'C27 H19 N1 O2 S1'
_chemical_name_systematic        
"2',3'-Diphenylspiro[1,2-benzothiazole-3,1'-indene] 1,1-dioxide"
_symmetry_cell_setting           monoclinic
_symmetry_space_group_name_H-M   'P 21/n'
_symmetry_Int_Tables_number      14
_space_group_name_Hall           '-P 2yn'
loop_
_symmetry_equiv_pos_site_id
_symmetry_equiv_pos_as_xyz
1 x,y,z
2 1/2-x,1/2+y,1/2-z
3 -x,-y,-z
4 1/2+x,1/2-y,1/2+z
_cell_length_a                   13.739(3)
_cell_length_b                   9.2407(16)
_cell_length_c                   16.769(3)
_cell_angle_alpha                90
_cell_angle_beta                 105.278(2)
_cell_angle_gamma                90
_cell_volume                     2053.72
_exptl_crystal_colour            colorless
_exptl_crystal_description       Block
_cell_formula_units_Z            4
loop_
_atom_site_label
_atom_site_type_symbol
_atom_site_fract_x
_atom_site_fract_y
_atom_site_fract_z
S1 S 0.17298(3) 0.33709(4) 0.68904(2)
O1 O 0.19955(13) 0.28602(14) 0.77279(8)
O2 O 0.06784(9) 0.36630(14) 0.65468(10)
N1 N 0.24124(10) 0.47400(15) 0.67595(8)
C1 C 0.22390(10) 0.22244(15) 0.62760(8)
C2 C 0.20647(11) 0.07422(16) 0.61669(9)
H1 H 0.1611 0.0251 0.6414
C3 C 0.25836(11) 0.00147(16) 0.56813(9)
H2 H 0.2494 -0.0999 0.5599
C4 C 0.32356(12) 0.07596(17) 0.53137(9)
H3 H 0.3569 0.0249 0.4971
C5 C 0.34061(11) 0.22301(17) 0.54393(9)
H4 H 0.3854 0.2727 0.5189
C6 C 0.29090(10) 0.29633(15) 0.59380(8)
C7 C 0.30516(10) 0.45423(15) 0.61886(9)
C8 C 0.27913(10) 0.55309(15) 0.54401(9)
C9 C 0.19019(11) 0.56437(16) 0.48256(9)
H5 H 0.1324 0.5098 0.4850
C10 C 0.18724(12) 0.65826(17) 0.41659(10)
H6 H 0.1265 0.6692 0.3740
C11 C 0.27285(12) 0.73590(16) 0.41293(9)
H7 H 0.2701 0.7977 0.3671
C12 C 0.36270(11) 0.72440(15) 0.47548(9)
H8 H 0.4209 0.7774 0.4726
C13 C 0.36477(10) 0.63349(15) 0.54197(9)
C14 C 0.44661(10) 0.59924(15) 0.61671(9)
C15 C 0.41550(10) 0.49502(15) 0.66082(9)
C16 C 0.46742(10) 0.43679(16) 0.74311(9)
C17 C 0.51428(10) 0.53127(17) 0.80659(9)
H9 H 0.5175 0.6316 0.7952
C18 C 0.55623(12) 0.48049(19) 0.88614(10)
H10 H 0.5873 0.5463 0.9288
C19 C 0.55303(13) 0.3342(2) 0.90378(11)
H11 H 0.5814 0.2998 0.9584
C20 C 0.50830(13) 0.23894(19) 0.84151(11)
H12 H 0.5064 0.1385 0.8532
C21 C 0.46592(12) 0.28950(18) 0.76161(10)
H13 H 0.4356 0.2229 0.7192
C22 C 0.54314(10) 0.67953(16) 0.63922(9)
C23 C 0.54108(12) 0.82906(17) 0.65143(10)
H14 H 0.4783 0.8777 0.6435
C24 C 0.63069(13) 0.9067(2) 0.67522(11)
H15 H 0.6289 1.0079 0.6845
C25 C 0.72259(13) 0.8374(2) 0.68542(10)
H16 H 0.7836 0.8911 0.7013
C26 C 0.72506(12) 0.6900(2) 0.67237(10)
H17 H 0.7880 0.6427 0.6787
C27 C 0.63597(11) 0.61030(18) 0.65003(9)
H18 H 0.6384 0.5087 0.6421
H19 H 0.2291(16) 0.556(2) 0.6888(13)
loop_
_geom_bond_atom_site_label_1
_geom_bond_atom_site_label_2
_geom_bond_site_symmetry_1
_geom_bond_site_symmetry_2
S1 O1 1_555 1_555
O2 S1 1_555 1_555
N1 S1 1_555 1_555
C1 S1 1_555 1_555
C2 C1 1_555 1_555
H1 C2 1_555 1_555
C3 C2 1_555 1_555
H2 C3 1_555 1_555
C4 C3 1_555 1_555
H3 C4 1_555 1_555
C5 C4 1_555 1_555
H4 C5 1_555 1_555
C6 C1 1_555 1_555
C7 N1 1_555 1_555
C8 C7 1_555 1_555
C9 C8 1_555 1_555
H5 C9 1_555 1_555
C10 C9 1_555 1_555
H6 C10 1_555 1_555
C11 C10 1_555 1_555
H7 C11 1_555 1_555
C12 C11 1_555 1_555
H8 C12 1_555 1_555
C13 C8 1_555 1_555
C14 C13 1_555 1_555
C15 C7 1_555 1_555
C16 C15 1_555 1_555
C17 C16 1_555 1_555
H9 C17 1_555 1_555
C18 C17 1_555 1_555
H10 C18 1_555 1_555
C19 C18 1_555 1_555
H11 C19 1_555 1_555
C20 C19 1_555 1_555
H12 C20 1_555 1_555
C21 C16 1_555 1_555
H13 C21 1_555 1_555
C22 C14 1_555 1_555
C23 C22 1_555 1_555
H14 C23 1_555 1_555
C24 C23 1_555 1_555
H15 C24 1_555 1_555
C25 C24 1_555 1_555
H16 C25 1_555 1_555
C26 C25 1_555 1_555
H17 C26 1_555 1_555
C27 C22 1_555 1_555
H18 C27 1_555 1_555
H19 N1 1_555 1_555
C5 C6 1_555 1_555
C6 C7 1_555 1_555
C12 C13 1_555 1_555
C14 C15 1_555 1_555
C20 C21 1_555 1_555
C26 C27 1_555 1_555

#END
