
#######################################################################
#
#                 Cambridge Crystallographic Data Centre
#                                CCDC 
#
#######################################################################
#
# If this CIF has been generated from an entry in the Cambridge 
# Structural Database, then it will include bibliographic, chemical, 
# crystal, experimental, refinement or atomic coordinate data resulting 
# from the CCDC's data processing and validation procedures.
#
#######################################################################

data_YIQDAF
_chemical_formula_moiety         'C17 H27 O3 P1'
_chemical_name_systematic        
'Sp-(-)-2-isopropyl-5-methylcyclohexyl methyl phenylphosphonate'
_symmetry_cell_setting           monoclinic
_symmetry_space_group_name_H-M   'P 21'
_symmetry_Int_Tables_number      4
_space_group_name_Hall           'P 2yb'
loop_
_symmetry_equiv_pos_site_id
_symmetry_equiv_pos_as_xyz
1 x,y,z
2 -x,1/2+y,-z
_cell_length_a                   8.5429(7)
_cell_length_b                   6.2350(5)
_cell_length_c                   17.0775(19)
_cell_angle_alpha                90
_cell_angle_beta                 90.9350(10)
_cell_angle_gamma                90
_cell_volume                     909.512
_exptl_crystal_colour            colorless
_exptl_crystal_description       block
_cell_formula_units_Z            2
loop_
_atom_site_label
_atom_site_type_symbol
_atom_site_fract_x
_atom_site_fract_y
_atom_site_fract_z
O1 O 0.8974(2) -0.1459(4) 0.24635(9)
O2 O 0.9704(2) -0.0130(4) 0.10877(11)
O3 O 0.9357(3) -0.4068(4) 0.14808(11)
P1 P 0.88240(8) -0.16650(12) 0.15470(4)
C1 C 1.0200(4) 0.3819(6) 0.33916(19)
H1 H 0.9475 0.4766 0.3106
C2 C 1.0314(4) 0.1735(6) 0.29350(17)
H2 H 1.1050 0.0788 0.3201
H3 H 1.0717 0.2037 0.2419
C3 C 0.8758(3) 0.0612(5) 0.28485(15)
H4 H 0.8047 0.1498 0.2529
C4 C 0.8002(4) 0.0152(6) 0.36379(17)
H5 H 0.8722 -0.0794 0.3927
C5 C 0.7927(4) 0.2262(7) 0.4102(2)
H6 H 0.7199 0.3229 0.3840
H7 H 0.7526 0.1967 0.4619
C6 C 0.9502(4) 0.3356(7) 0.41860(17)
H8 H 1.0210 0.2444 0.4486
H9 H 0.9380 0.4690 0.4471
C7 C 1.1769(5) 0.4957(8) 0.3455(2)
H10 H 1.2533 0.4005 0.3683
H11 H 1.1669 0.6206 0.3780
H12 H 1.2097 0.5380 0.2943
C8 C 0.6440(4) -0.1034(7) 0.3571(2)
H13 H 0.6592 -0.2229 0.3208
C9 C 0.5976(5) -0.2017(9) 0.4361(2)
H14 H 0.6863 -0.2737 0.4592
H15 H 0.5141 -0.3026 0.4279
H16 H 0.5634 -0.0900 0.4706
C10 C 0.5105(4) 0.0339(10) 0.3233(3)
H17 H 0.4876 0.1482 0.3589
H18 H 0.4190 -0.0535 0.3157
H19 H 0.5413 0.0930 0.2739
C11 C 0.6786(3) -0.1543(7) 0.13080(15)
C12 C 0.5772(5) -0.3199(9) 0.1532(2)
H20 H 0.6164 -0.4420 0.1779
C13 C 0.4170(5) -0.2987(12) 0.1380(2)
H21 H 0.3479 -0.4064 0.1524
C14 C 0.3626(5) -0.1161(13) 0.1012(3)
H22 H 0.2553 -0.1004 0.0931
C15 C 0.4597(5) 0.0427(11) 0.0762(3)
H23 H 0.4206 0.1617 0.0495
C16 C 0.6184(4) 0.0207(8) 0.0919(2)
H24 H 0.6863 0.1278 0.0757
C17 C 0.9699(5) -0.4924(7) 0.07296(19)
H25 H 0.8851 -0.4614 0.0372
H26 H 0.9834 -0.6449 0.0770
H27 H 1.0644 -0.4287 0.0541
loop_
_geom_bond_atom_site_label_1
_geom_bond_atom_site_label_2
_geom_bond_site_symmetry_1
_geom_bond_site_symmetry_2
O1 P1 1_555 1_555
O2 P1 1_555 1_555
O3 P1 1_555 1_555
P1 C11 1_555 1_555
C1 H1 1_555 1_555
C2 C1 1_555 1_555
H2 C2 1_555 1_555
H3 C2 1_555 1_555
C3 O1 1_555 1_555
H4 C3 1_555 1_555
C4 C3 1_555 1_555
H5 C4 1_555 1_555
C5 C4 1_555 1_555
H6 C5 1_555 1_555
H7 C5 1_555 1_555
C6 C1 1_555 1_555
H8 C6 1_555 1_555
H9 C6 1_555 1_555
C7 C1 1_555 1_555
H10 C7 1_555 1_555
H11 C7 1_555 1_555
H12 C7 1_555 1_555
C8 C4 1_555 1_555
H13 C8 1_555 1_555
C9 C8 1_555 1_555
H14 C9 1_555 1_555
H15 C9 1_555 1_555
H16 C9 1_555 1_555
C10 C8 1_555 1_555
H17 C10 1_555 1_555
H18 C10 1_555 1_555
H19 C10 1_555 1_555
C11 C12 1_555 1_555
C12 H20 1_555 1_555
C13 C12 1_555 1_555
H21 C13 1_555 1_555
C14 C13 1_555 1_555
H22 C14 1_555 1_555
C15 C14 1_555 1_555
H23 C15 1_555 1_555
C16 C11 1_555 1_555
H24 C16 1_555 1_555
C17 O3 1_555 1_555
H25 C17 1_555 1_555
H26 C17 1_555 1_555
H27 C17 1_555 1_555
C2 C3 1_555 1_555
C5 C6 1_555 1_555
C15 C16 1_555 1_555

#END
