
#######################################################################
#
#                 Cambridge Crystallographic Data Centre
#                                CCDC 
#
#######################################################################
#
# If this CIF has been generated from an entry in the Cambridge 
# Structural Database, then it will include bibliographic, chemical, 
# crystal, experimental, refinement or atomic coordinate data resulting 
# from the CCDC's data processing and validation procedures.
#
#######################################################################

data_YIQDIN
_chemical_formula_moiety         'C87 H41 N1 O10,C1 H4 O1,C1 H1 Cl3'
_chemical_name_systematic        
'epoxy-(tert-butoxyimino)-bis(t-butylperoxy)-(1,4-diphenylbut-2-ene-1,4-diyl)-(open-cage)-C59fullerene-tetraone chloroform methanol solvate'
_symmetry_cell_setting           monoclinic
_symmetry_space_group_name_H-M   'P 21/c'
_symmetry_Int_Tables_number      14
_space_group_name_Hall           '-P 2ybc'
loop_
_symmetry_equiv_pos_site_id
_symmetry_equiv_pos_as_xyz
1 x,y,z
2 -x,1/2+y,1/2-z
3 -x,-y,-z
4 x,1/2-y,1/2+z
_cell_length_a                   21.8411(7)
_cell_length_b                   10.8737(5)
_cell_length_c                   25.5782(9)
_cell_angle_alpha                90
_cell_angle_beta                 93.269(3)
_cell_angle_gamma                90
_cell_volume                     6064.77
_cell_formula_units_Z            4
loop_
_atom_site_label
_atom_site_type_symbol
_atom_site_fract_x
_atom_site_fract_y
_atom_site_fract_z
C1 C 0.28238(18) 0.4454(4) 0.37605(14)
O1 O 0.28495(14) 0.5443(3) 0.38372(11)
C2 C 0.33252(14) 0.2158(3) 0.46585(12)
C3 C 0.26605(14) 0.1989(3) 0.44063(12)
C4 C 0.22541(14) 0.2971(3) 0.46119(11)
C5 C 0.14918(14) 0.2204(3) 0.35007(12)
C6 C 0.38855(14) 0.2118(3) 0.42696(13)
C7 C 0.26388(14) 0.3720(3) 0.49610(11)
C8 C 0.19277(15) 0.5435(3) 0.48533(12)
C9 C 0.37278(14) 0.1808(3) 0.36771(13)
C10 C 0.32695(15) 0.3372(3) 0.49340(12)
C11 C 0.17084(14) 0.3452(3) 0.43980(12)
C12 C 0.24791(15) 0.4916(3) 0.50925(12)
C13 C 0.36604(15) 0.3348(3) 0.29008(13)
C14 C 0.15615(14) 0.4714(3) 0.45163(12)
C15 C 0.43714(15) 0.1085(3) 0.44555(13)
H1 H 0.4171 0.0289 0.4393
C16 C 0.42028(14) 0.3351(3) 0.42310(13)
C17 C 0.14354(14) 0.0862(3) 0.35574(13)
C18 C 0.11955(14) 0.4361(3) 0.36577(13)
C19 C 0.39265(14) 0.2872(3) 0.33596(13)
C20 C 0.34012(15) 0.1066(3) 0.50761(13)
H2 H 0.3391 0.0296 0.4877
C21 C 0.16227(15) 0.1298(3) 0.27193(13)
C22 C 0.12876(14) 0.3092(3) 0.39066(12)
C23 C 0.42863(14) 0.3677(3) 0.37016(13)
C24 C 0.13863(16) 0.6499(3) 0.39340(13)
C25 C 0.16026(14) 0.2473(3) 0.29965(13)
C26 C 0.28841(15) 0.0992(3) 0.54523(13)
C27 C 0.35478(16) 0.5540(3) 0.50620(13)
C28 C 0.49406(15) 0.1095(3) 0.41337(14)
C29 C 0.30585(16) 0.2964(3) 0.26300(12)
C30 C 0.29371(16) 0.5865(3) 0.51336(13)
C31 C 0.20423(17) 0.6721(3) 0.47387(13)
C32 C 0.37120(15) 0.4283(3) 0.49764(12)
C33 C 0.12647(15) 0.5279(3) 0.40542(13)
C34 C 0.40319(16) 0.1172(3) 0.53368(14)
H3 H 0.4091 0.1220 0.5699
C35 C 0.41984(15) 0.4277(3) 0.46002(14)
C36 C 0.17859(17) 0.7236(3) 0.42784(14)
C37 C 0.28804(17) 0.1714(3) 0.59105(14)
H4 H 0.3198 0.2265 0.5988
C38 C 0.15592(16) 0.3747(3) 0.27537(12)
C39 C 0.27259(17) 0.4162(3) 0.25126(12)
C40 C 0.13132(15) 0.4646(3) 0.31569(13)
C41 C 0.01979(16) 0.2479(4) 0.48126(14)
C42 C 0.21198(17) 0.4485(3) 0.25804(12)
C43 C 0.26760(18) 0.6975(3) 0.49069(14)
C44 C 0.45008(16) 0.1196(4) 0.50330(14)
H5 H 0.4900 0.1279 0.5175
C45 C 0.37495(17) 0.4619(3) 0.27769(13)
C46 C 0.15027(17) 0.5858(4) 0.30348(13)
C47 C 0.43122(16) 0.5538(3) 0.44582(15)
C48 C 0.36620(18) 0.7390(3) 0.45205(15)
C49 C 0.31857(17) 0.5109(4) 0.25367(13)
C50 C 0.30348(19) 0.7719(3) 0.46009(15)
C51 C 0.24022(17) 0.0181(3) 0.53517(15)
H6 H 0.2390 -0.0296 0.5049
C52 C 0.19928(19) 0.7724(3) 0.34189(15)
C53 C 0.19850(18) 0.5777(4) 0.26708(13)
C54 C 0.39133(16) 0.6324(4) 0.47460(14)
C55 C 0.2769(2) 0.8235(3) 0.41138(15)
C56 C 0.49840(17) 0.0288(4) 0.37105(15)
H7 H 0.4660 -0.0237 0.3616
C57 C 0.54261(16) 0.1883(4) 0.42599(15)
H8 H 0.5395 0.2447 0.4530
C58 C 0.30554(19) 0.6353(4) 0.26016(14)
C59 C 0.15123(17) 0.6803(3) 0.34045(14)
C60 C 0.41395(17) 0.5367(4) 0.30835(15)
C61 C 0.41630(18) 0.6943(4) 0.37042(16)
C62 C 0.24311(19) 0.6691(4) 0.26761(14)
C63 C 0.21588(19) 0.7999(3) 0.39609(15)
C64 C 0.44150(15) 0.4888(3) 0.35586(15)
C65 C 0.37884(19) 0.7713(4) 0.39856(16)
C66 C 0.44349(16) 0.5846(3) 0.39465(15)
C67 C 0.07273(17) 0.1868(4) 0.51154(15)
H9 H 0.0959 0.1390 0.4881
H10 H 0.0573 0.1340 0.5378
H11 H 0.0987 0.2485 0.5280
C68 C 0.2417(2) 0.1607(4) 0.62372(14)
H12 H 0.2416 0.2109 0.6532
C69 C 0.3236(2) 0.8217(3) 0.37353(16)
C70 C 0.2401(2) -0.0148(5) 0.15093(19)
H13 H 0.2503 0.0691 0.1592
H14 H 0.2507 -0.0325 0.1158
H15 H 0.2626 -0.0684 0.1748
C71 C 0.2439(2) 0.7683(3) 0.30546(15)
C72 C 0.39871(19) 0.6651(4) 0.31621(16)
C73 C 0.3068(2) 0.7946(4) 0.32099(16)
C74 C 0.00978(18) 0.3834(4) 0.21085(16)
C75 C 0.3454(2) 0.7133(4) 0.29285(16)
C76 C 0.0150(2) 0.5244(5) 0.2078(3)
H16 H 0.0004 0.5603 0.2390
H17 H -0.0093 0.5539 0.1779
H18 H 0.0571 0.5470 0.2045
C77 C 0.55148(19) 0.0276(4) 0.34308(16)
H19 H 0.5540 -0.0243 0.3144
C78 C 0.19377(18) 0.0072(4) 0.56980(16)
H20 H 0.1619 -0.0481 0.5627
C79 C 0.19470(19) 0.0778(4) 0.61451(15)
H21 H 0.1641 0.0695 0.6381
C80 C -0.02426(19) 0.1551(4) 0.45505(18)
H22 H -0.0555 0.1979 0.4344
H23 H -0.0429 0.1072 0.4814
H24 H -0.0021 0.1018 0.4329
C81 C 0.1711(2) -0.0349(4) 0.15562(16)
C82 C -0.0456(2) 0.3409(6) 0.2380(2)
H25 H -0.0499 0.2535 0.2340
H26 H -0.0815 0.3811 0.2227
H27 H -0.0407 0.3610 0.2745
C83 C -0.0132(2) 0.3360(4) 0.51591(17)
H28 H 0.0145 0.3999 0.5279
H29 H -0.0274 0.2923 0.5455
H30 H -0.0475 0.3718 0.4963
C84 C 0.6000(2) 0.1029(5) 0.35778(18)
H31 H 0.6359 0.0989 0.3400
C85 C 0.59575(19) 0.1843(4) 0.39888(18)
H32 H 0.6284 0.2361 0.4083
C86 C 0.0128(2) 0.3233(7) 0.15836(19)
H33 H 0.0466 0.3567 0.1406
H34 H -0.0247 0.3384 0.1379
H35 H 0.0184 0.2363 0.1629
C87 C 0.1550(3) -0.1692(5) 0.14850(18)
H36 H 0.1764 -0.2166 0.1754
H37 H 0.1669 -0.1964 0.1148
H38 H 0.1116 -0.1798 0.1507
C88 C 0.1337(2) 0.0460(5) 0.12084(16)
H39 H 0.0910 0.0326 0.1262
H40 H 0.1415 0.0282 0.0851
H41 H 0.1440 0.1302 0.1284
N1 N 0.16455(14) 0.1131(3) 0.22250(11)
O2 O 0.04231(11) 0.3305(2) 0.44185(9)
O3 O 0.07224(10) 0.2523(2) 0.40390(9)
O4 O 0.11724(11) 0.3707(3) 0.22806(9)
O5 O 0.25112(10) 0.1185(2) 0.40989(9)
O6 O 0.12923(11) 0.0214(2) 0.39092(9)
O7 O 0.28843(12) 0.1928(3) 0.25341(10)
O8 O 0.35296(11) 0.0838(2) 0.35123(9)
O9 O 0.15490(11) 0.0348(2) 0.30687(9)
O10 O 0.15890(13) -0.0113(3) 0.21053(9)
O11 O 0.05739(12) 0.3299(3) 0.24562(10)
C89 C 0.4030(2) 0.0473(6) 0.2032(2)
Cl1 Cl 0.43636(8) -0.08663(16) 0.22761(7)
Cl2 Cl 0.45474(13) 0.1732(2) 0.21745(12)
Cl3 Cl 0.39515(9) 0.0404(2) 0.13208(7)
H42 H 0.375(5) 0.045(9) 0.233(4)
Cl4? Cl 0.4526(3) 0.0327(8) 0.2597(3)
Cl5? Cl 0.4027(3) -0.1058(7) 0.1791(4)
Cl6? Cl 0.4127(4) 0.1599(6) 0.1775(4)
loop_
_geom_bond_atom_site_label_1
_geom_bond_atom_site_label_2
_geom_bond_site_symmetry_1
_geom_bond_site_symmetry_2
C1 O1 1_555 1_555
C2 C3 1_555 1_555
C3 C4 1_555 1_555
C4 C7 1_555 1_555
C5 C17 1_555 1_555
C6 C2 1_555 1_555
C7 C10 1_555 1_555
C8 C12 1_555 1_555
C9 C6 1_555 1_555
C10 C2 1_555 1_555
C11 C4 1_555 1_555
C12 C7 1_555 1_555
C13 C19 1_555 1_555
C14 C8 1_555 1_555
C15 C6 1_555 1_555
H1 C15 1_555 1_555
C16 C6 1_555 1_555
C17 O6 1_555 1_555
C18 C22 1_555 1_555
C19 C9 1_555 1_555
C20 C2 1_555 1_555
H2 C20 1_555 1_555
C21 C25 1_555 1_555
C22 C5 1_555 1_555
C23 C16 1_555 1_555
C24 C33 1_555 1_555
C25 C5 1_555 1_555
C26 C20 1_555 1_555
C27 C30 1_555 1_555
C28 C15 1_555 1_555
C29 C13 1_555 1_555
C30 C12 1_555 1_555
C31 C8 1_555 1_555
C32 C10 1_555 1_555
C33 C14 1_555 1_555
C34 C20 1_555 1_555
H3 C34 1_555 1_555
C35 C16 1_555 1_555
C36 C24 1_555 1_555
C37 C26 1_555 1_555
H4 C37 1_555 1_555
C38 C25 1_555 1_555
C39 C29 1_555 1_555
C40 C18 1_555 1_555
C41 C67 1_555 1_555
C42 C38 1_555 1_555
C43 C30 1_555 1_555
C44 C15 1_555 1_555
H5 C44 1_555 1_555
C45 C13 1_555 1_555
C46 C40 1_555 1_555
C47 C35 1_555 1_555
C48 C50 1_555 1_555
C49 C39 1_555 1_555
C50 C43 1_555 1_555
C51 C26 1_555 1_555
H6 C51 1_555 1_555
C52 C59 1_555 1_555
C53 C42 1_555 1_555
C54 C27 1_555 1_555
C55 C50 1_555 1_555
C56 C28 1_555 1_555
H7 C56 1_555 1_555
C57 C28 1_555 1_555
H8 C57 1_555 1_555
C58 C49 1_555 1_555
C59 C24 1_555 1_555
C60 C45 1_555 1_555
C61 C65 1_555 1_555
C62 C53 1_555 1_555
C63 C36 1_555 1_555
C64 C23 1_555 1_555
C65 C48 1_555 1_555
C66 C47 1_555 1_555
C67 H9 1_555 1_555
H10 C67 1_555 1_555
H11 C67 1_555 1_555
C68 C37 1_555 1_555
H12 C68 1_555 1_555
C69 C55 1_555 1_555
C70 H13 1_555 1_555
H14 C70 1_555 1_555
H15 C70 1_555 1_555
C71 C52 1_555 1_555
C72 C60 1_555 1_555
C73 C69 1_555 1_555
C74 C76 1_555 1_555
C75 C58 1_555 1_555
C76 H16 1_555 1_555
H17 C76 1_555 1_555
H18 C76 1_555 1_555
C77 C56 1_555 1_555
H19 C77 1_555 1_555
C78 C51 1_555 1_555
H20 C78 1_555 1_555
C79 C68 1_555 1_555
H21 C79 1_555 1_555
C80 C41 1_555 1_555
H22 C80 1_555 1_555
H23 C80 1_555 1_555
H24 C80 1_555 1_555
C81 C70 1_555 1_555
C82 C74 1_555 1_555
H25 C82 1_555 1_555
H26 C82 1_555 1_555
H27 C82 1_555 1_555
C83 C41 1_555 1_555
H28 C83 1_555 1_555
H29 C83 1_555 1_555
H30 C83 1_555 1_555
C84 C77 1_555 1_555
H31 C84 1_555 1_555
C85 C57 1_555 1_555
H32 C85 1_555 1_555
C86 C74 1_555 1_555
H33 C86 1_555 1_555
H34 C86 1_555 1_555
H35 C86 1_555 1_555
C87 C81 1_555 1_555
H36 C87 1_555 1_555
H37 C87 1_555 1_555
H38 C87 1_555 1_555
C88 C81 1_555 1_555
H39 C88 1_555 1_555
H40 C88 1_555 1_555
H41 C88 1_555 1_555
N1 C21 1_555 1_555
O2 C41 1_555 1_555
O3 C22 1_555 1_555
O4 C38 1_555 1_555
O5 C3 1_555 1_555
O7 C29 1_555 1_555
O8 C9 1_555 1_555
O9 C17 1_555 1_555
O10 C81 1_555 1_555
O11 C74 1_555 1_555
C89 Cl1 1_555 1_555
Cl2 C89 1_555 1_555
Cl3 C89 1_555 1_555
H42 C89 1_555 1_555
C11 C14 1_555 1_555
C11 C22 1_555 1_555
C18 C33 1_555 1_555
C19 C23 1_555 1_555
C21 O9 1_555 1_555
C27 C32 1_555 1_555
C31 C36 1_555 1_555
C31 C43 1_555 1_555
C32 C35 1_555 1_555
C34 C44 1_555 1_555
C38 C40 1_555 1_555
C39 C42 1_555 1_555
C45 C49 1_555 1_555
C46 C53 1_555 1_555
C46 C59 1_555 1_555
C47 C54 1_555 1_555
C48 C54 1_555 1_555
C52 C63 1_555 1_555
C55 C63 1_555 1_555
C58 C62 1_555 1_555
C60 C64 1_555 1_555
C61 C66 1_555 1_555
C61 C72 1_555 1_555
C62 C71 1_555 1_555
C64 C66 1_555 1_555
C65 C69 1_555 1_555
C71 C73 1_555 1_555
C72 C75 1_555 1_555
C73 C75 1_555 1_555
C78 C79 1_555 1_555
C84 C85 1_555 1_555
N1 O10 1_555 1_555
O2 O3 1_555 1_555
O4 O11 1_555 1_555

#END
