
#######################################################################
#
#                 Cambridge Crystallographic Data Centre
#                                CCDC 
#
#######################################################################
#
# If this CIF has been generated from an entry in the Cambridge 
# Structural Database, then it will include bibliographic, chemical, 
# crystal, experimental, refinement or atomic coordinate data resulting 
# from the CCDC's data processing and validation procedures.
#
#######################################################################

data_YIQDEI
_chemical_formula_moiety         'C13 H11 N3 O1'
_chemical_name_systematic        '(E)-N-isonicotinoyl benzaldehydehydrazone'
_symmetry_cell_setting           orthorhombic
_symmetry_space_group_name_H-M   'P b c a'
_symmetry_Int_Tables_number      61
_space_group_name_Hall           '-P 2ac 2ab'
loop_
_symmetry_equiv_pos_site_id
_symmetry_equiv_pos_as_xyz
1 x,y,z
2 1/2-x,-y,1/2+z
3 -x,1/2+y,1/2-z
4 1/2+x,1/2-y,-z
5 -x,-y,-z
6 1/2+x,y,1/2-z
7 x,1/2-y,1/2+z
8 1/2-x,1/2+y,z
_cell_length_a                   7.1927(2)
_cell_length_b                   21.2168(7)
_cell_length_c                   28.6771(10)
_cell_angle_alpha                90
_cell_angle_beta                 90
_cell_angle_gamma                90
_cell_volume                     4376.3
_exptl_crystal_colour            colorless
_exptl_crystal_description       block
_chemical_melting_point          '444-445 K'
_cell_formula_units_Z            16
_exptl_crystal_recrystallization_method ethanol
loop_
_atom_site_label
_atom_site_type_symbol
_atom_site_fract_x
_atom_site_fract_y
_atom_site_fract_z
N1 N 0.30732(18) 0.89156(6) 0.36805(5)
C1 C 0.2246(2) 0.83490(7) 0.36854(6)
C2 C 0.2290(2) 0.79380(7) 0.40621(6)
C3 C 0.3232(2) 0.81130(7) 0.44618(6)
C4 C 0.4038(2) 0.87097(7) 0.44693(6)
C5 C 0.3932(2) 0.90872(8) 0.40765(6)
C6 C 0.3434(2) 0.77007(7) 0.48849(6)
O1 O 0.36608(18) 0.79234(5) 0.52721(4)
N2 N 0.33990(19) 0.70717(6) 0.47865(5)
N3 N 0.34698(18) 0.66458(6) 0.51498(5)
C7 C 0.3407(2) 0.60626(7) 0.50285(6)
C8 C 0.3361(2) 0.55639(7) 0.53793(6)
C9 C 0.2853(2) 0.49525(7) 0.52464(6)
C10 C 0.2727(2) 0.44764(7) 0.55815(6)
C11 C 0.3081(2) 0.46062(7) 0.60447(7)
C12 C 0.3610(2) 0.52110(7) 0.61772(7)
C13 C 0.3759(2) 0.56842(7) 0.58466(6)
H1 H 0.1590 0.8221 0.3414
H2 H 0.1680 0.7542 0.4045
H3 H 0.4654 0.8856 0.4741
H4 H 0.4499 0.9491 0.4088
H5 H 0.3333 0.6940 0.4496
H6 H 0.3390 0.5955 0.4707
H7 H 0.2595 0.4861 0.4929
H8 H 0.2396 0.4061 0.5490
H9 H 0.2964 0.4284 0.6272
H10 H 0.3871 0.5300 0.6495
H11 H 0.4135 0.6095 0.5939
N4 N 0.27932(19) 0.64135(6) 0.38413(5)
C14 C 0.1632(2) 0.59217(7) 0.38168(6)
C15 C 0.1536(2) 0.55171(7) 0.34394(6)
C16 C 0.2726(2) 0.56107(7) 0.30643(6)
C17 C 0.3915(2) 0.61300(7) 0.30806(6)
C18 C 0.3888(2) 0.65142(7) 0.34690(6)
C19 C 0.2776(2) 0.51940(7) 0.26428(6)
O2 O 0.31675(18) 0.54004(5) 0.22580(4)
N5 N 0.23655(19) 0.45787(6) 0.27330(5)
N6 N 0.24051(18) 0.41517(6) 0.23713(5)
C20 C 0.1826(2) 0.35949(7) 0.24720(6)
C21 C 0.1828(2) 0.30983(7) 0.21188(6)
C22 C 0.1062(2) 0.25101(8) 0.22278(6)
C23 C 0.0967(2) 0.20405(7) 0.18906(7)
C24 C 0.1613(2) 0.21547(7) 0.14450(6)
C25 C 0.2408(2) 0.27344(7) 0.13361(6)
C26 C 0.2536(2) 0.31989(7) 0.16711(6)
H12 H 0.0828 0.5846 0.4074
H13 H 0.0668 0.5180 0.3437
H14 H 0.4732 0.6218 0.2828
H15 H 0.4689 0.6870 0.3473
H16 H 0.2080 0.4456 0.3017
H17 H 0.1393 0.3506 0.2778
H18 H 0.0605 0.2432 0.2533
H19 H 0.0456 0.1641 0.1967
H20 H 0.1515 0.1837 0.1213
H21 H 0.2863 0.2810 0.1030
H22 H 0.3108 0.3590 0.1597
loop_
_geom_bond_atom_site_label_1
_geom_bond_atom_site_label_2
_geom_bond_site_symmetry_1
_geom_bond_site_symmetry_2
N1 C1 1_555 1_555
C1 C2 1_555 1_555
C2 C3 1_555 1_555
C3 C4 1_555 1_555
C4 C5 1_555 1_555
C5 N1 1_555 1_555
C6 C3 1_555 1_555
O1 C6 1_555 1_555
N2 C6 1_555 1_555
N3 N2 1_555 1_555
C7 N3 1_555 1_555
C8 C7 1_555 1_555
C9 C8 1_555 1_555
C10 C9 1_555 1_555
C11 C10 1_555 1_555
C12 C11 1_555 1_555
C13 C8 1_555 1_555
N4 C14 1_555 1_555
C14 C15 1_555 1_555
C15 C16 1_555 1_555
C16 C17 1_555 1_555
C17 C18 1_555 1_555
C18 N4 1_555 1_555
C19 C16 1_555 1_555
O2 C19 1_555 1_555
N5 C19 1_555 1_555
N6 N5 1_555 1_555
C20 N6 1_555 1_555
C21 C20 1_555 1_555
C22 C21 1_555 1_555
C23 C22 1_555 1_555
C24 C23 1_555 1_555
C25 C24 1_555 1_555
C26 C21 1_555 1_555
H1 C1 1_555 1_555
H2 C2 1_555 1_555
H3 C4 1_555 1_555
H4 C5 1_555 1_555
H5 N2 1_555 1_555
H6 C7 1_555 1_555
H7 C9 1_555 1_555
H8 C10 1_555 1_555
H9 C11 1_555 1_555
H10 C12 1_555 1_555
H11 C13 1_555 1_555
H12 C14 1_555 1_555
H13 C15 1_555 1_555
H14 C17 1_555 1_555
H15 C18 1_555 1_555
H16 N5 1_555 1_555
H17 C20 1_555 1_555
H18 C22 1_555 1_555
H19 C23 1_555 1_555
H20 C24 1_555 1_555
H21 C25 1_555 1_555
H22 C26 1_555 1_555
C12 C13 1_555 1_555
C25 C26 1_555 1_555

#END
