
#######################################################################
#
#                 Cambridge Crystallographic Data Centre
#                                CCDC 
#
#######################################################################
#
# If this CIF has been generated from an entry in the Cambridge 
# Structural Database, then it will include bibliographic, chemical, 
# crystal, experimental, refinement or atomic coordinate data resulting 
# from the CCDC's data processing and validation procedures.
#
#######################################################################

data_YIQFOU
_chemical_formula_moiety         'C15 H15 N3 O2'
_chemical_name_systematic        'N-isonicotinoyl 2-ethoxybenzaldehydehydrazone'
_symmetry_cell_setting           monoclinic
_symmetry_space_group_name_H-M   'P 21/c'
_symmetry_Int_Tables_number      14
_space_group_name_Hall           '-P 2ybc'
loop_
_symmetry_equiv_pos_site_id
_symmetry_equiv_pos_as_xyz
1 x,y,z
2 -x,1/2+y,1/2-z
3 -x,-y,-z
4 x,1/2-y,1/2+z
_cell_length_a                   8.3787(3)
_cell_length_b                   18.2450(7)
_cell_length_c                   17.8701(7)
_cell_angle_alpha                90
_cell_angle_beta                 90.975(2)
_cell_angle_gamma                90
_cell_volume                     2731.4
_exptl_crystal_colour            colorless
_exptl_crystal_description       block
_chemical_melting_point          '425-427 K'
_cell_formula_units_Z            8
_exptl_crystal_recrystallization_method ethanol
loop_
_atom_site_label
_atom_site_type_symbol
_atom_site_fract_x
_atom_site_fract_y
_atom_site_fract_z
N1 N 0.2340(2) 0.47253(11) -0.01027(11)
C1 C 0.3231(3) 0.42644(12) 0.02971(13)
C2 C 0.4060(2) 0.44493(11) 0.09511(12)
C3 C 0.4000(2) 0.51669(10) 0.11968(12)
C4 C 0.3099(2) 0.56605(12) 0.07790(13)
C5 C 0.2294(3) 0.54137(13) 0.01526(14)
C6 C 0.4894(2) 0.54463(11) 0.18730(12)
O1 O 0.54021(16) 0.60796(7) 0.18926(9)
N2 N 0.50727(19) 0.49675(8) 0.24398(10)
N3 N 0.58615(19) 0.51937(9) 0.30882(10)
C7 C 0.5863(2) 0.47283(11) 0.36289(12)
C8 C 0.6655(2) 0.49102(11) 0.43347(12)
C9 C 0.6866(2) 0.43837(11) 0.48994(12)
O2 O 0.62164(15) 0.37096(7) 0.47492(8)
C10 C 0.6323(3) 0.31602(11) 0.53255(13)
C11 C 0.5368(3) 0.25150(12) 0.50690(14)
C12 C 0.7679(2) 0.45541(12) 0.55578(13)
C13 C 0.8252(3) 0.52589(12) 0.56696(14)
C14 C 0.8025(3) 0.57936(12) 0.51301(14)
C15 C 0.7228(2) 0.56158(11) 0.44731(13)
H1 H 0.3309 0.3773 0.0125
H2 H 0.4653 0.4091 0.1223
H3 H 0.3039 0.6161 0.0923
H4 H 0.1659 0.5757 -0.0119
H5 H 0.4585 0.4540 0.2426
H6 H 0.5348 0.4268 0.3567
H7 H 0.5897 0.3354 0.5799
H8 H 0.7451 0.3017 0.5413
H9 H 0.5792 0.2332 0.4597
H10 H 0.4252 0.2661 0.4994
H11 H 0.5433 0.2128 0.5448
H12 H 0.7843 0.4190 0.5931
H13 H 0.8808 0.5376 0.6122
H14 H 0.8413 0.6277 0.5211
H15 H 0.7063 0.5985 0.4105
N4 N -0.09225(19) 0.22791(9) 0.41265(10)
C16 C 0.0442(2) 0.19013(11) 0.41047(12)
C17 C 0.1785(2) 0.21210(10) 0.37276(11)
C18 C 0.1738(2) 0.27779(10) 0.33334(11)
C19 C 0.0339(2) 0.31774(10) 0.33493(11)
C20 C -0.0937(2) 0.29143(11) 0.37458(12)
C21 C 0.3104(2) 0.30835(10) 0.28998(11)
O3 O 0.31086(15) 0.37316(7) 0.27039(8)
N5 N 0.42922(18) 0.26125(8) 0.27497(9)
N6 N 0.56225(19) 0.28542(9) 0.23692(9)
C22 C 0.6705(2) 0.23622(11) 0.22917(12)
C23 C 0.8199(2) 0.25275(11) 0.19229(12)
C24 C 0.9413(2) 0.19967(11) 0.19138(12)
O4 O 0.91086(16) 0.13473(7) 0.22608(9)
C25 C 1.0376(2) 0.08101(11) 0.22868(14)
C26 C 0.9849(3) 0.01803(12) 0.27611(14)
C27 C 1.0867(2) 0.21637(12) 0.15773(13)
C28 C 1.1110(3) 0.28414(13) 0.12689(13)
C29 C 0.9937(3) 0.33680(13) 0.12764(12)
C30 C 0.8488(2) 0.32095(12) 0.15984(12)
H16 H 0.0492 0.1449 0.4368
H17 H 0.2723 0.1829 0.3737
H18 H 0.0257 0.3630 0.3089
H19 H -0.1885 0.3200 0.3750
H20 H 0.4231 0.2142 0.2852
H21 H 0.6527 0.1882 0.2478
H22 H 1.1360 0.1031 0.2504
H23 H 1.0609 0.0637 0.1775
H24 H 0.8850 -0.0021 0.2555
H25 H 0.9678 0.0351 0.3273
H26 H 1.0673 -0.0201 0.2765
H27 H 1.1689 0.1805 0.1563
H28 H 1.2105 0.2949 0.1046
H29 H 1.0120 0.3837 0.1062
H30 H 0.7674 0.3572 0.1599
loop_
_geom_bond_atom_site_label_1
_geom_bond_atom_site_label_2
_geom_bond_site_symmetry_1
_geom_bond_site_symmetry_2
N1 C1 1_555 1_555
C1 C2 1_555 1_555
C2 C3 1_555 1_555
C3 C4 1_555 1_555
C4 C5 1_555 1_555
C5 N1 1_555 1_555
C6 C3 1_555 1_555
O1 C6 1_555 1_555
N2 C6 1_555 1_555
N3 N2 1_555 1_555
C7 N3 1_555 1_555
C8 C7 1_555 1_555
C9 C8 1_555 1_555
O2 C9 1_555 1_555
C10 O2 1_555 1_555
C11 C10 1_555 1_555
C12 C9 1_555 1_555
C13 C12 1_555 1_555
C14 C13 1_555 1_555
C15 C8 1_555 1_555
N4 C16 1_555 1_555
C16 C17 1_555 1_555
C17 C18 1_555 1_555
C18 C19 1_555 1_555
C19 C20 1_555 1_555
C20 N4 1_555 1_555
C21 C18 1_555 1_555
O3 C21 1_555 1_555
N5 C21 1_555 1_555
N6 N5 1_555 1_555
C22 N6 1_555 1_555
C23 C22 1_555 1_555
C24 C23 1_555 1_555
O4 C24 1_555 1_555
C25 O4 1_555 1_555
C26 C25 1_555 1_555
C27 C24 1_555 1_555
C28 C27 1_555 1_555
C29 C28 1_555 1_555
C30 C23 1_555 1_555
H1 C1 1_555 1_555
H2 C2 1_555 1_555
H3 C4 1_555 1_555
H4 C5 1_555 1_555
H5 N2 1_555 1_555
H6 C7 1_555 1_555
H7 C10 1_555 1_555
H8 C10 1_555 1_555
H9 C11 1_555 1_555
H10 C11 1_555 1_555
H11 C11 1_555 1_555
H12 C12 1_555 1_555
H13 C13 1_555 1_555
H14 C14 1_555 1_555
H15 C15 1_555 1_555
H16 C16 1_555 1_555
H17 C17 1_555 1_555
H18 C19 1_555 1_555
H19 C20 1_555 1_555
H20 N5 1_555 1_555
H21 C22 1_555 1_555
H22 C25 1_555 1_555
H23 C25 1_555 1_555
H24 C26 1_555 1_555
H25 C26 1_555 1_555
H26 C26 1_555 1_555
H27 C27 1_555 1_555
H28 C28 1_555 1_555
H29 C29 1_555 1_555
H30 C30 1_555 1_555
C14 C15 1_555 1_555
C29 C30 1_555 1_555

#END
