
#######################################################################
#
#                 Cambridge Crystallographic Data Centre
#                                CCDC 
#
#######################################################################
#
# If this CIF has been generated from an entry in the Cambridge 
# Structural Database, then it will include bibliographic, chemical, 
# crystal, experimental, refinement or atomic coordinate data resulting 
# from the CCDC's data processing and validation procedures.
#
#######################################################################

data_YIQFAG
_chemical_formula_moiety         'C13 H10 Br1 N3 O1'
_chemical_name_systematic        
'(Z)-N-isonicotinoyl 2-bromobenzaldehydehydrazone'
_symmetry_cell_setting           monoclinic
_symmetry_space_group_name_H-M   'P 21/c'
_symmetry_Int_Tables_number      14
_space_group_name_Hall           '-P 2ybc'
loop_
_symmetry_equiv_pos_site_id
_symmetry_equiv_pos_as_xyz
1 x,y,z
2 -x,1/2+y,1/2-z
3 -x,-y,-z
4 x,1/2-y,1/2+z
_cell_length_a                   8.0268(2)
_cell_length_b                   6.7134(3)
_cell_length_c                   22.5024(10)
_cell_angle_alpha                90
_cell_angle_beta                 99.297(3)
_cell_angle_gamma                90
_cell_volume                     1196.66
_exptl_crystal_colour            colorless
_exptl_crystal_description       lath
_chemical_melting_point          '502-503 K'
_cell_formula_units_Z            4
_exptl_crystal_recrystallization_method 2-propanol
loop_
_atom_site_label
_atom_site_type_symbol
_atom_site_fract_x
_atom_site_fract_y
_atom_site_fract_z
N1 N -0.0743(3) 0.1663(4) 0.67403(12)
C1 C 0.0136(4) 0.3048(5) 0.64913(14)
C2 C 0.1868(4) 0.3046(5) 0.65474(14)
C3 C 0.2776(3) 0.1554(4) 0.68826(13)
C4 C 0.1892(4) 0.0128(5) 0.71467(14)
C5 C 0.0146(4) 0.0233(5) 0.70585(14)
C6 C 0.4682(3) 0.1487(4) 0.70088(13)
O1 O 0.5423(2) 0.1039(3) 0.75071(9)
N2 N 0.5537(3) 0.1969(4) 0.65575(11)
N3 N 0.4743(3) 0.2120(4) 0.59707(11)
C7 C 0.5722(4) 0.2340(4) 0.55812(13)
C8 C 0.5022(4) 0.2478(4) 0.49409(13)
C9 C 0.6039(4) 0.2648(4) 0.44941(14)
Br1 Br 0.84348(4) 0.27171(5) 0.470142(14)
C10 C 0.5372(4) 0.2772(4) 0.38870(14)
C11 C 0.3636(4) 0.2694(4) 0.37134(14)
C12 C 0.2599(4) 0.2477(4) 0.41460(14)
C13 C 0.3274(4) 0.2390(4) 0.47474(14)
H1 H -0.0472 0.4085 0.6264
H2 H 0.2434 0.4051 0.6360
H3 H 0.2471 -0.0906 0.7384
H4 H -0.0451 -0.0771 0.7235
H5 H 0.6731 0.1758 0.6597
H6 H 0.6908 0.2415 0.5708
H7 H 0.6095 0.2908 0.3594
H8 H 0.3158 0.2788 0.3300
H9 H 0.1411 0.2388 0.4026
H10 H 0.2541 0.2268 0.5037
loop_
_geom_bond_atom_site_label_1
_geom_bond_atom_site_label_2
_geom_bond_site_symmetry_1
_geom_bond_site_symmetry_2
N1 C1 1_555 1_555
C1 C2 1_555 1_555
C2 C3 1_555 1_555
C3 C4 1_555 1_555
C4 C5 1_555 1_555
C5 N1 1_555 1_555
C6 C3 1_555 1_555
O1 C6 1_555 1_555
N2 C6 1_555 1_555
N3 N2 1_555 1_555
C7 N3 1_555 1_555
C8 C7 1_555 1_555
C9 C8 1_555 1_555
Br1 C9 1_555 1_555
C10 C9 1_555 1_555
C11 C10 1_555 1_555
C12 C11 1_555 1_555
C13 C8 1_555 1_555
H1 C1 1_555 1_555
H2 C2 1_555 1_555
H3 C4 1_555 1_555
H4 C5 1_555 1_555
H5 N2 1_555 1_555
H6 C7 1_555 1_555
H7 C10 1_555 1_555
H8 C11 1_555 1_555
H9 C12 1_555 1_555
H10 C13 1_555 1_555
C12 C13 1_555 1_555

#END
