
#######################################################################
#
#                 Cambridge Crystallographic Data Centre
#                                CCDC 
#
#######################################################################
#
# If this CIF has been generated from an entry in the Cambridge 
# Structural Database, then it will include bibliographic, chemical, 
# crystal, experimental, refinement or atomic coordinate data resulting 
# from the CCDC's data processing and validation procedures.
#
#######################################################################

data_YIQGEN
_chemical_formula_moiety         'C18 H15 N1 O3'
_chemical_name_systematic        
2-(2-methyl-3,4-dihydro-2H-1-benzopyran-4-yl)-1H-isoindole-1,3(2H)-dione
_symmetry_cell_setting           orthorhombic
_symmetry_space_group_name_H-M   'P 21 21 21'
_symmetry_Int_Tables_number      19
_space_group_name_Hall           'P 2ac 2ab'
loop_
_symmetry_equiv_pos_site_id
_symmetry_equiv_pos_as_xyz
1 x,y,z
2 1/2-x,-y,1/2+z
3 -x,1/2+y,1/2-z
4 1/2+x,1/2-y,-z
_cell_length_a                   10.598(5)
_cell_length_b                   11.469(5)
_cell_length_c                   12.275(5)
_cell_angle_alpha                90
_cell_angle_beta                 90
_cell_angle_gamma                90
_cell_volume                     1492.01
_exptl_crystal_colour            colorless
_exptl_crystal_description       block
_cell_formula_units_Z            4
loop_
_atom_site_label
_atom_site_type_symbol
_atom_site_fract_x
_atom_site_fract_y
_atom_site_fract_z
O1 O 0.6505(5) 0.3858(4) 0.5517(4)
C1 C 0.7248(6) 0.4259(5) 0.4868(6)
N1 N 0.7992(5) 0.3608(5) 0.4160(4)
O2 O 0.9437(5) 0.3976(5) 0.2796(5)
C2 C 0.7572(6) 0.5495(5) 0.4662(5)
C3 C 0.8484(10) 0.7588(8) 0.3972(9)
H1 H 0.879247 0.830716 0.374587
C4 C 0.7592(9) 0.7547(7) 0.4772(8)
H2 H 0.729936 0.823987 0.507387
O3 O 0.6556(4) 0.0431(4) 0.5003(4)
C5 C 0.7109(7) 0.6489(6) 0.5148(6)
H3 H 0.650616 0.645701 0.569796
C6 C 0.8937(8) 0.6588(8) 0.3492(8)
H4 H 0.953903 0.662147 0.294137
C7 C 0.8472(6) 0.5541(6) 0.3850(5)
C8 C 0.8748(6) 0.4328(6) 0.3499(6)
C9 C 0.6100(6) 0.0972(5) 0.4088(5)
C10 C 0.5011(6) 0.0516(7) 0.3645(6)
H5 H 0.464041 -0.014289 0.394982
C11 C 0.4476(7) 0.1040(9) 0.2749(7)
H6 H 0.373866 0.073679 0.245143
C12 C 0.5022(8) 0.2005(8) 0.2293(7)
H7 H 0.464996 0.236900 0.169699
C13 C 0.6120(7) 0.2430(6) 0.2725(6)
H8 H 0.649784 0.307649 0.240443
C14 C 0.6685(6) 0.1921(5) 0.3627(5)
C15 C 0.7960(6) 0.2343(6) 0.4038(6)
H9 H 0.857264 0.215196 0.346637
C16 C 0.8366(7) 0.1648(6) 0.5058(7)
H10 H 0.890520 0.100929 0.483050
H11 H 0.886281 0.215448 0.552362
C17 C 0.7300(7) 0.1166(6) 0.5704(6)
H12 H 0.677546 0.180958 0.597081
C18 C 0.7695(11) 0.0415(7) 0.6652(8)
H13 H 0.696247 0.006128 0.697173
H14 H 0.811408 0.088788 0.718613
H15 H 0.825929 -0.018175 0.640092
loop_
_geom_bond_atom_site_label_1
_geom_bond_atom_site_label_2
_geom_bond_site_symmetry_1
_geom_bond_site_symmetry_2
O1 C1 1_555 1_555
C1 N1 1_555 1_555
N1 C8 1_555 1_555
O2 C8 1_555 1_555
C2 C1 1_555 1_555
C3 H1 1_555 1_555
C4 C3 1_555 1_555
H2 C4 1_555 1_555
O3 C9 1_555 1_555
C5 C2 1_555 1_555
H3 C5 1_555 1_555
C6 C3 1_555 1_555
H4 C6 1_555 1_555
C7 C2 1_555 1_555
C8 C7 1_555 1_555
C9 C10 1_555 1_555
C10 H5 1_555 1_555
C11 C10 1_555 1_555
H6 C11 1_555 1_555
C12 C11 1_555 1_555
H7 C12 1_555 1_555
C13 C12 1_555 1_555
H8 C13 1_555 1_555
C14 C9 1_555 1_555
C15 N1 1_555 1_555
H9 C15 1_555 1_555
C16 C15 1_555 1_555
H10 C16 1_555 1_555
H11 C16 1_555 1_555
C17 O3 1_555 1_555
H12 C17 1_555 1_555
C18 C17 1_555 1_555
H13 C18 1_555 1_555
H14 C18 1_555 1_555
H15 C18 1_555 1_555
C4 C5 1_555 1_555
C6 C7 1_555 1_555
C13 C14 1_555 1_555
C14 C15 1_555 1_555
C16 C17 1_555 1_555

#END
