
#######################################################################
#
#                 Cambridge Crystallographic Data Centre
#                                CCDC 
#
#######################################################################
#
# If this CIF has been generated from an entry in the Cambridge 
# Structural Database, then it will include bibliographic, chemical, 
# crystal, experimental, refinement or atomic coordinate data resulting 
# from the CCDC's data processing and validation procedures.
#
#######################################################################

data_YIQKAM
_chemical_formula_moiety         'C38 H29 Cl1 N2 O1'
_chemical_name_systematic        
N-(6-Chloro-3-((1-methyl-2-(4-methylphenyl)-1H-indol-3-yl)(phenyl)methylene)-2-benzofuran-1(3H)-ylidene)-1-phenylmethanamine
_symmetry_cell_setting           triclinic
_symmetry_space_group_name_H-M   'P -1'
_symmetry_Int_Tables_number      2
_space_group_name_Hall           '-P 1'
loop_
_symmetry_equiv_pos_site_id
_symmetry_equiv_pos_as_xyz
1 x,y,z
2 -x,-y,-z
_cell_length_a                   10.4166(4)
_cell_length_b                   12.2040(5)
_cell_length_c                   12.8233(5)
_cell_angle_alpha                113.837(4)
_cell_angle_beta                 97.005(4)
_cell_angle_gamma                98.088(4)
_cell_volume                     1447.2
_exptl_crystal_colour            green
_exptl_crystal_description       plate
_cell_formula_units_Z            2
loop_
_atom_site_label
_atom_site_type_symbol
_atom_site_fract_x
_atom_site_fract_y
_atom_site_fract_z
Cl1 Cl 0.17509(5) 0.35737(4) 0.31355(3)
O1 O 0.54128(10) 0.51557(10) 0.79668(9)
N1 N 0.21728(12) 0.86306(12) 0.86623(11)
N2 N 0.60383(13) 0.36421(13) 0.64045(11)
C1 C 0.24900(16) 0.42883(15) 0.46001(14)
C2 C 0.19245(15) 0.51808(14) 0.53627(14)
H1 H 0.1169 0.5401 0.5070
C3 C 0.24558(15) 0.57455(14) 0.65401(14)
H2 H 0.2059 0.6338 0.7062
C4 C 0.35921(14) 0.54297(14) 0.69533(13)
C5 C 0.44184(14) 0.58330(13) 0.81107(13)
C6 C 0.52787(15) 0.43605(14) 0.68034(13)
C7 C 0.41224(15) 0.45351(14) 0.61645(13)
C8 C 0.35959(16) 0.39450(15) 0.49806(14)
H3 H 0.3977 0.3336 0.4459
C9 C 0.43434(14) 0.66790(13) 0.91642(13)
C10 C 0.51909(14) 0.69676(13) 1.02934(13)
C11 C 0.50021(16) 0.79296(14) 1.12923(13)
H4 H 0.4347 0.8378 1.1223
C12 C 0.57539(17) 0.82381(15) 1.23793(14)
H5 H 0.5599 0.8884 1.3045
C13 C 0.67284(16) 0.76116(15) 1.25006(14)
H6 H 0.7247 0.7829 1.3245
C14 C 0.69387(16) 0.66650(15) 1.15257(14)
H7 H 0.7612 0.6237 1.1603
C15 C 0.61762(15) 0.63348(14) 1.04366(13)
H8 H 0.6323 0.5672 0.9779
C16 C 0.33139(14) 0.74106(13) 0.91489(12)
C17 C 0.33659(14) 0.82445(13) 0.86831(12)
C18 C 0.13624(15) 0.80574(14) 0.91500(12)
C19 C 0.00901(15) 0.81777(15) 0.93541(14)
H9 H -0.0354 0.8713 0.9151
C20 C -0.04936(16) 0.74857(16) 0.98634(15)
H10 H -0.1358 0.7546 1.0012
C21 C 0.01605(17) 0.66952(16) 1.01659(15)
H11 H -0.0271 0.6229 1.0512
C22 C 0.14241(16) 0.65819(15) 0.99689(14)
H12 H 0.1860 0.6043 1.0174
C23 C 0.20463(14) 0.72788(13) 0.94602(12)
C24 C 0.18351(17) 0.95540(16) 0.82982(15)
H13 H 0.1221 0.9155 0.7545
H14 H 0.2640 1.0018 0.8226
H15 H 0.1416 1.0112 0.8878
C25 C 0.44710(15) 0.86491(13) 0.82187(13)
C26 C 0.57438(15) 0.90348(14) 0.89029(13)
H16 H 0.5867 0.9074 0.9664
C27 C 0.68231(16) 0.93593(15) 0.84827(14)
H17 H 0.7679 0.9625 0.8963
C28 C 0.66811(17) 0.93050(15) 0.73718(15)
C29 C 0.54146(18) 0.89101(16) 0.66848(15)
H18 H 0.5299 0.8862 0.5920
C30 C 0.43193(16) 0.85864(15) 0.70979(14)
H19 H 0.3464 0.8322 0.6616
C31 C 0.7875(2) 0.9634(2) 0.6922(2)
H20 H 0.8278 1.0505 0.7382
H21 H 0.7608 0.9473 0.6105
H22 H 0.8518 0.9139 0.6987
C32 C 0.71628(16) 0.36490(16) 0.72157(14)
H23 H 0.6847 0.3240 0.7692
H24 H 0.7610 0.4504 0.7745
C33 C 0.81229(16) 0.29875(15) 0.65417(13)
C34 C 0.94459(17) 0.35475(17) 0.67580(15)
H25 H 0.9763 0.4357 0.7351
C35 C 1.03046(18) 0.29290(19) 0.61117(18)
H26 H 1.1207 0.3318 0.6262
C36 C 0.9854(2) 0.1747(2) 0.52473(17)
H27 H 1.0446 0.1325 0.4808
C37 C 0.8540(2) 0.11850(18) 0.50267(16)
H28 H 0.8226 0.0374 0.4436
C38 C 0.76793(17) 0.18067(17) 0.56696(15)
H29 H 0.6775 0.1419 0.5511
loop_
_geom_bond_atom_site_label_1
_geom_bond_atom_site_label_2
_geom_bond_site_symmetry_1
_geom_bond_site_symmetry_2
Cl1 C1 1_555 1_555
O1 C5 1_555 1_555
N1 C17 1_555 1_555
N2 C6 1_555 1_555
C1 C2 1_555 1_555
C2 H1 1_555 1_555
C3 C2 1_555 1_555
H2 C3 1_555 1_555
C4 C3 1_555 1_555
C5 C4 1_555 1_555
C6 O1 1_555 1_555
C7 C4 1_555 1_555
C8 C1 1_555 1_555
H3 C8 1_555 1_555
C9 C5 1_555 1_555
C10 C9 1_555 1_555
C11 C10 1_555 1_555
H4 C11 1_555 1_555
C12 C11 1_555 1_555
H5 C12 1_555 1_555
C13 C12 1_555 1_555
H6 C13 1_555 1_555
C14 C13 1_555 1_555
H7 C14 1_555 1_555
C15 C10 1_555 1_555
H8 C15 1_555 1_555
C16 C9 1_555 1_555
C17 C16 1_555 1_555
C18 N1 1_555 1_555
C19 C18 1_555 1_555
H9 C19 1_555 1_555
C20 C19 1_555 1_555
H10 C20 1_555 1_555
C21 C20 1_555 1_555
H11 C21 1_555 1_555
C22 C21 1_555 1_555
H12 C22 1_555 1_555
C23 C16 1_555 1_555
C24 N1 1_555 1_555
H13 C24 1_555 1_555
H14 C24 1_555 1_555
H15 C24 1_555 1_555
C25 C17 1_555 1_555
C26 C25 1_555 1_555
H16 C26 1_555 1_555
C27 C26 1_555 1_555
H17 C27 1_555 1_555
C28 C27 1_555 1_555
C29 C28 1_555 1_555
H18 C29 1_555 1_555
C30 C25 1_555 1_555
H19 C30 1_555 1_555
C31 C28 1_555 1_555
H20 C31 1_555 1_555
H21 C31 1_555 1_555
H22 C31 1_555 1_555
C32 N2 1_555 1_555
H23 C32 1_555 1_555
H24 C32 1_555 1_555
C33 C32 1_555 1_555
C34 C33 1_555 1_555
H25 C34 1_555 1_555
C35 C34 1_555 1_555
H26 C35 1_555 1_555
C36 C35 1_555 1_555
H27 C36 1_555 1_555
C37 C36 1_555 1_555
H28 C37 1_555 1_555
C38 C33 1_555 1_555
H29 C38 1_555 1_555
C6 C7 1_555 1_555
C7 C8 1_555 1_555
C14 C15 1_555 1_555
C18 C23 1_555 1_555
C22 C23 1_555 1_555
C29 C30 1_555 1_555
C37 C38 1_555 1_555

#END
