
#######################################################################
#
#                 Cambridge Crystallographic Data Centre
#                                CCDC 
#
#######################################################################
#
# If this CIF has been generated from an entry in the Cambridge 
# Structural Database, then it will include bibliographic, chemical, 
# crystal, experimental, refinement or atomic coordinate data resulting 
# from the CCDC's data processing and validation procedures.
#
#######################################################################

data_YIQMAO
_chemical_formula_moiety         'C18 H15 Br1 O2'
_chemical_name_systematic        
6-(4-Bromophenyl)-3,4a-dimethyl-4a,5-dihydronaphthalene-1,4-dione
_symmetry_cell_setting           orthorhombic
_symmetry_space_group_name_H-M   'P 21 21 21'
_symmetry_Int_Tables_number      19
_space_group_name_Hall           'P 2ac 2ab'
loop_
_symmetry_equiv_pos_site_id
_symmetry_equiv_pos_as_xyz
1 x,y,z
2 1/2-x,-y,1/2+z
3 -x,1/2+y,1/2-z
4 1/2+x,1/2-y,-z
_cell_length_a                   5.81146(10)
_cell_length_b                   13.90092(19)
_cell_length_c                   18.8306(3)
_cell_angle_alpha                90
_cell_angle_beta                 90
_cell_angle_gamma                90
_cell_volume                     1521.22
_exptl_crystal_colour            'light yellow'
_exptl_crystal_description       block
_cell_formula_units_Z            4
loop_
_atom_site_label
_atom_site_type_symbol
_atom_site_fract_x
_atom_site_fract_y
_atom_site_fract_z
C1 C 1.0061(4) 0.47081(14) 0.83846(11)
C2 C 1.3942(4) 0.72884(18) 0.78793(12)
C3 C 0.5714(4) 0.30052(17) 0.91943(12)
H1 H 0.4286 0.3032 0.9416
C4 C 1.1017(3) 0.64370(15) 0.86994(11)
C5 C 1.2671(4) 0.64087(16) 0.80770(11)
C6 C 1.3041(4) 0.55767(18) 0.77463(13)
H2 H 1.4085 0.5562 0.7372
C7 C 0.9154(4) 0.56686(15) 0.86211(13)
H3 H 0.8380 0.5590 0.9074
H4 H 0.8023 0.5890 0.8279
C8 C 0.6764(4) 0.38376(16) 0.89541(12)
H5 H 0.6025 0.4425 0.9017
C9 C 0.8910(4) 0.20861(17) 0.87713(13)
H6 H 0.9630 0.1494 0.8710
C10 C 1.1892(4) 0.46970(17) 0.79445(12)
H7 H 1.2421 0.4114 0.7766
C11 C 0.9943(4) 0.29168(15) 0.85318(12)
H8 H 1.1363 0.2878 0.8306
C12 C 0.6805(4) 0.21411(17) 0.91013(12)
C13 C 0.9915(4) 0.74244(15) 0.87907(11)
O1 O 0.8024(3) 0.75110(12) 0.90583(11)
C14 C 1.2425(4) 0.62645(17) 0.93849(12)
H9 H 1.3051 0.5625 0.9379
H10 H 1.1442 0.6338 0.9791
H11 H 1.3657 0.6723 0.9411
C15 C 1.1265(5) 0.82873(17) 0.85894(13)
C16 C 1.3113(5) 0.81959(18) 0.81714(14)
H12 H 1.3927 0.8751 0.8059
C17 C 1.0428(6) 0.92369(17) 0.88620(18)
H13 H 0.8806 0.9295 0.8774
H14 H 1.1228 0.9747 0.8623
H15 H 1.0712 0.9278 0.9363
Br1 Br 0.53856(6) 0.09949(2) 0.942561(17)
O2 O 1.5615(3) 0.72688(13) 0.74830(9)
C18 C 0.8907(3) 0.38159(15) 0.86196(11)
loop_
_geom_bond_atom_site_label_1
_geom_bond_atom_site_label_2
_geom_bond_site_symmetry_1
_geom_bond_site_symmetry_2
C1 C7 1_555 1_555
C2 C5 1_555 1_555
C3 H1 1_555 1_555
C4 C5 1_555 1_555
C5 C6 1_555 1_555
C6 H2 1_555 1_555
C7 C4 1_555 1_555
H3 C7 1_555 1_555
H4 C7 1_555 1_555
C8 C3 1_555 1_555
H5 C8 1_555 1_555
C9 H6 1_555 1_555
C10 C1 1_555 1_555
H7 C10 1_555 1_555
C11 C9 1_555 1_555
H8 C11 1_555 1_555
C12 C3 1_555 1_555
C13 C4 1_555 1_555
O1 C13 1_555 1_555
C14 C4 1_555 1_555
H9 C14 1_555 1_555
H10 C14 1_555 1_555
H11 C14 1_555 1_555
C15 C13 1_555 1_555
C16 C2 1_555 1_555
H12 C16 1_555 1_555
C17 C15 1_555 1_555
H13 C17 1_555 1_555
H14 C17 1_555 1_555
H15 C17 1_555 1_555
Br1 C12 1_555 1_555
O2 C2 1_555 1_555
C18 C1 1_555 1_555
C6 C10 1_555 1_555
C8 C18 1_555 1_555
C9 C12 1_555 1_555
C11 C18 1_555 1_555
C15 C16 1_555 1_555

#END
