
#######################################################################
#
#                 Cambridge Crystallographic Data Centre
#                                CCDC 
#
#######################################################################
#
# If this CIF has been generated from an entry in the Cambridge 
# Structural Database, then it will include bibliographic, chemical, 
# crystal, experimental, refinement or atomic coordinate data resulting 
# from the CCDC's data processing and validation procedures.
#
#######################################################################

data_YIQREY
_chemical_formula_moiety         'C15 H21 N1 O1'
_chemical_name_systematic        3-ethyl-2-methyl-N-phenylhex-3-enamide
_symmetry_cell_setting           monoclinic
_symmetry_space_group_name_H-M   'P 21'
_symmetry_Int_Tables_number      4
_space_group_name_Hall           'P 2yb'
loop_
_symmetry_equiv_pos_site_id
_symmetry_equiv_pos_as_xyz
1 x,y,z
2 -x,1/2+y,-z
_cell_length_a                   17.078(4)
_cell_length_b                   9.4728(17)
_cell_length_c                   18.746(4)
_cell_angle_alpha                90
_cell_angle_beta                 112.816(16)
_cell_angle_gamma                90
_cell_volume                     2795.37
_exptl_crystal_colour            colorless
_exptl_crystal_description       plate
_cell_formula_units_Z            8
loop_
_atom_site_label
_atom_site_type_symbol
_atom_site_fract_x
_atom_site_fract_y
_atom_site_fract_z
O1 O 0.50487(9) 0.65001(15) 0.73411(10)
N1 N 0.55307(9) 0.87438(15) 0.75564(8)
H1 H 0.5375 0.9614 0.7513
C1 C 0.64161(10) 0.84718(19) 0.78898(9)
C2 C 0.67519(11) 0.7215(2) 0.82754(10)
H2 H 0.6394 0.6524 0.8334
C3 C 0.76261(12) 0.7004(2) 0.85719(11)
H3 H 0.7851 0.6162 0.8822
C4 C 0.81675(12) 0.8035(2) 0.84996(11)
H4 H 0.8751 0.7884 0.8699
C5 C 0.78328(12) 0.9291(2) 0.81277(10)
H5 H 0.8194 0.9989 0.8083
C6 C 0.69584(12) 0.9514(2) 0.78209(10)
H6 H 0.6737 1.0358 0.7570
C7 C 0.49077(11) 0.77635(19) 0.72997(10)
C8 C 0.40023(11) 0.8352(2) 0.69845(10)
H7 H 0.4026 0.9337 0.6835
C9 C 0.36930(14) 0.8335(3) 0.76500(12)
H8 H 0.3691 0.7382 0.7823
H9 H 0.3128 0.8715 0.7474
H10 H 0.4066 0.8898 0.8070
C10 C 0.34502(11) 0.7537(2) 0.62641(10)
C11 C 0.34114(13) 0.8165(2) 0.55112(11)
H11 H 0.3358 0.7411 0.5145
H12 H 0.3937 0.8665 0.5600
C12 C 0.26661(15) 0.9178(3) 0.51662(14)
H13 H 0.2692 0.9623 0.4716
H14 H 0.2694 0.9886 0.5542
H15 H 0.2143 0.8665 0.5024
C13 C 0.30285(12) 0.6373(2) 0.62910(11)
H16 H 0.3076 0.6070 0.6778
C14 C 0.24763(13) 0.5489(2) 0.56051(12)
H17 H 0.1950 0.5991 0.5327
H18 H 0.2767 0.5363 0.5256
C15 C 0.22718(13) 0.4055(2) 0.58462(13)
H19 H 0.1895 0.3557 0.5398
H20 H 0.2004 0.4174 0.6207
H21 H 0.2787 0.3525 0.6086
O2 O 0.02537(8) 0.62706(15) 0.22532(9)
N2 N 0.05993(9) 0.85577(15) 0.25674(8)
H22 H 0.0402 0.9396 0.2558
C16 C 0.14953(10) 0.83909(19) 0.28703(9)
C17 C 0.18862(11) 0.7165(2) 0.32684(10)
H23 H 0.1561 0.6437 0.3344
C18 C 0.27632(12) 0.7054(2) 0.35488(11)
H24 H 0.3025 0.6233 0.3802
C19 C 0.32584(12) 0.8149(3) 0.34582(12)
H25 H 0.3847 0.8066 0.3655
C20 C 0.28695(13) 0.9364(2) 0.30740(11)
H26 H 0.3198 1.0101 0.3013
C21 C 0.19885(12) 0.9489(2) 0.27777(10)
H27 H 0.1730 1.0306 0.2518
C22 C 0.00337(11) 0.74932(19) 0.22933(10)
C23 C -0.08953(11) 0.7871(2) 0.20880(10)
H28 H -0.0959 0.8896 0.2017
C24 C -0.10851(14) 0.7462(3) 0.28025(11)
H29 H -0.1674 0.7632 0.2696
H30 H -0.0739 0.8020 0.3238
H31 H -0.0960 0.6480 0.2917
C25 C -0.14570(11) 0.7157(2) 0.13379(10)
C26 C -0.14848(11) 0.7896(2) 0.06131(11)
H32 H -0.1534 0.7196 0.0220
H33 H -0.0957 0.8406 0.0727
C27 C -0.22305(13) 0.8928(2) 0.02983(12)
H34 H -0.2223 0.9383 -0.0156
H35 H -0.2182 0.9625 0.0685
H36 H -0.2755 0.8422 0.0169
C28 C -0.19001(11) 0.5999(2) 0.13188(10)
H37 H -0.1867 0.5643 0.1792
C29 C -0.24537(13) 0.5200(2) 0.06018(11)
H38 H -0.2151 0.5087 0.0262
H39 H -0.2964 0.5743 0.0327
C30 C -0.27018(13) 0.3749(2) 0.07989(12)
H40 H -0.3062 0.3283 0.0332
H41 H -0.3001 0.3856 0.1136
H42 H -0.2199 0.3195 0.1052
O3 O 0.50028(9) 0.15101(14) 0.70189(7)
N3 N 0.46719(9) 0.38003(16) 0.66643(9)
H43 H 0.4626 0.4630 0.6830
C31 C 0.44462(10) 0.36405(19) 0.58543(10)
C32 C 0.46470(11) 0.4745(2) 0.54600(11)
H44 H 0.4919 0.5549 0.5727
C33 C 0.44389(12) 0.4638(3) 0.46673(12)
H45 H 0.4580 0.5367 0.4407
C34 C 0.40246(13) 0.3456(3) 0.42643(12)
H46 H 0.3887 0.3387 0.3734
C35 C 0.38152(13) 0.2368(2) 0.46592(11)
H47 H 0.3531 0.1576 0.4389
C36 C 0.40255(11) 0.2454(2) 0.54499(11)
H48 H 0.3886 0.1720 0.5709
C37 C 0.49527(11) 0.27529(19) 0.71960(10)
C38 C 0.52325(12) 0.3222(2) 0.80388(10)
H49 H 0.5055 0.4206 0.8039
C39 C 0.62072(13) 0.3182(2) 0.84096(11)
H50 H 0.6398 0.2225 0.8425
H51 H 0.6399 0.3551 0.8926
H52 H 0.6434 0.3746 0.8109
C40 C 0.47823(12) 0.2345(2) 0.84431(11)
C41 C 0.38174(14) 0.2494(3) 0.80915(13)
H53 H 0.3620 0.2441 0.7532
H54 H 0.3567 0.1713 0.8264
C42 C 0.35167(16) 0.3879(3) 0.83137(17)
H55 H 0.2907 0.3914 0.8091
H56 H 0.3741 0.4657 0.8124
H57 H 0.3713 0.3940 0.8867
C43 C 0.51983(14) 0.1561(2) 0.90658(11)
H58 H 0.5786 0.1536 0.9228
C44 C 0.48306(19) 0.0713(3) 0.95365(14)
H59 H 0.5103 -0.0205 0.9643
H60 H 0.4230 0.0564 0.9235
C45 C 0.49361(18) 0.1412(3) 1.02997(13)
H61 H 0.4579 0.2231 1.0200
H62 H 0.5518 0.1687 1.0569
H63 H 0.4778 0.0758 1.0612
O4 O 0.01082(9) 0.13095(14) 0.20331(7)
N4 N -0.02221(9) 0.35857(15) 0.16552(8)
H64 H -0.0243 0.4426 0.1820
C46 C -0.04974(10) 0.34074(19) 0.08411(10)
C47 C -0.09181(11) 0.2198(2) 0.04627(10)
H65 H -0.1010 0.1452 0.0743
C48 C -0.12003(13) 0.2116(2) -0.03406(11)
H66 H -0.1489 0.1314 -0.0595
C49 C -0.10584(13) 0.3205(2) -0.07637(11)
H67 H -0.1242 0.3134 -0.1299
C50 C -0.06376(12) 0.4412(2) -0.03831(12)
H68 H -0.0543 0.5152 -0.0666
C51 C -0.03569(11) 0.4520(2) 0.04173(11)
H69 H -0.0077 0.5330 0.0669
C52 C 0.00690(11) 0.25620(19) 0.21932(10)
C53 C 0.03730(12) 0.3070(2) 0.30376(10)
H70 H 0.0197 0.4057 0.3029
C54 C 0.13449(12) 0.3033(2) 0.33952(11)
H71 H 0.1536 0.2079 0.3401
H72 H 0.1544 0.3389 0.3915
H73 H 0.1564 0.3609 0.3094
C55 C -0.00657(14) 0.2226(3) 0.34590(11)
C56 C -0.10235(16) 0.2507(4) 0.31672(15)
H74 H -0.1190 0.2503 0.3606
H75 H -0.1138 0.3442 0.2939
C57 C -0.15601(16) 0.1459(3) 0.25828(16)
H76 H -0.1402 0.1455 0.2144
H77 H -0.2148 0.1714 0.2419
H78 H -0.1474 0.0535 0.2811
C58 C 0.03460(18) 0.1340(3) 0.40319(12)
H79 H 0.0929 0.1261 0.4167
C59 C -0.0028(3) 0.0453(4) 0.44855(16)
H80 H -0.0641 0.0561 0.4267
H81 H 0.0100 -0.0532 0.4439
C60 C 0.0306(3) 0.0850(5) 0.53220(17)
H82 H 0.0901 0.1059 0.5497
H83 H 0.0223 0.0079 0.5618
H84 H 0.0008 0.1666 0.5389
loop_
_geom_bond_atom_site_label_1
_geom_bond_atom_site_label_2
_geom_bond_site_symmetry_1
_geom_bond_site_symmetry_2
O1 C7 1_555 1_555
N1 H1 1_555 1_555
C1 N1 1_555 1_555
C2 C1 1_555 1_555
H2 C2 1_555 1_555
C3 C2 1_555 1_555
H3 C3 1_555 1_555
C4 C3 1_555 1_555
H4 C4 1_555 1_555
C5 C4 1_555 1_555
H5 C5 1_555 1_555
C6 C1 1_555 1_555
H6 C6 1_555 1_555
C7 N1 1_555 1_555
C8 C7 1_555 1_555
H7 C8 1_555 1_555
C9 C8 1_555 1_555
H8 C9 1_555 1_555
H9 C9 1_555 1_555
H10 C9 1_555 1_555
C10 C8 1_555 1_555
C11 C10 1_555 1_555
H11 C11 1_555 1_555
H12 C11 1_555 1_555
C12 C11 1_555 1_555
H13 C12 1_555 1_555
H14 C12 1_555 1_555
H15 C12 1_555 1_555
C13 C10 1_555 1_555
H16 C13 1_555 1_555
C14 C13 1_555 1_555
H17 C14 1_555 1_555
H18 C14 1_555 1_555
C15 C14 1_555 1_555
H19 C15 1_555 1_555
H20 C15 1_555 1_555
H21 C15 1_555 1_555
O2 C22 1_555 1_555
N2 H22 1_555 1_555
C16 N2 1_555 1_555
C17 C16 1_555 1_555
H23 C17 1_555 1_555
C18 C17 1_555 1_555
H24 C18 1_555 1_555
C19 C18 1_555 1_555
H25 C19 1_555 1_555
C20 C19 1_555 1_555
H26 C20 1_555 1_555
C21 C16 1_555 1_555
H27 C21 1_555 1_555
C22 N2 1_555 1_555
C23 C22 1_555 1_555
H28 C23 1_555 1_555
C24 C23 1_555 1_555
H29 C24 1_555 1_555
H30 C24 1_555 1_555
H31 C24 1_555 1_555
C25 C23 1_555 1_555
C26 C25 1_555 1_555
H32 C26 1_555 1_555
H33 C26 1_555 1_555
C27 C26 1_555 1_555
H34 C27 1_555 1_555
H35 C27 1_555 1_555
H36 C27 1_555 1_555
C28 C25 1_555 1_555
H37 C28 1_555 1_555
C29 C28 1_555 1_555
H38 C29 1_555 1_555
H39 C29 1_555 1_555
C30 C29 1_555 1_555
H40 C30 1_555 1_555
H41 C30 1_555 1_555
H42 C30 1_555 1_555
O3 C37 1_555 1_555
N3 H43 1_555 1_555
C31 N3 1_555 1_555
C32 C31 1_555 1_555
H44 C32 1_555 1_555
C33 C32 1_555 1_555
H45 C33 1_555 1_555
C34 C33 1_555 1_555
H46 C34 1_555 1_555
C35 C34 1_555 1_555
H47 C35 1_555 1_555
C36 C31 1_555 1_555
H48 C36 1_555 1_555
C37 N3 1_555 1_555
C38 C37 1_555 1_555
H49 C38 1_555 1_555
C39 C38 1_555 1_555
H50 C39 1_555 1_555
H51 C39 1_555 1_555
H52 C39 1_555 1_555
C40 C38 1_555 1_555
C41 C40 1_555 1_555
H53 C41 1_555 1_555
H54 C41 1_555 1_555
C42 C41 1_555 1_555
H55 C42 1_555 1_555
H56 C42 1_555 1_555
H57 C42 1_555 1_555
C43 C40 1_555 1_555
H58 C43 1_555 1_555
C44 C43 1_555 1_555
H59 C44 1_555 1_555
H60 C44 1_555 1_555
C45 C44 1_555 1_555
H61 C45 1_555 1_555
H62 C45 1_555 1_555
H63 C45 1_555 1_555
O4 C52 1_555 1_555
N4 H64 1_555 1_555
C46 N4 1_555 1_555
C47 C46 1_555 1_555
H65 C47 1_555 1_555
C48 C47 1_555 1_555
H66 C48 1_555 1_555
C49 C48 1_555 1_555
H67 C49 1_555 1_555
C50 C49 1_555 1_555
H68 C50 1_555 1_555
C51 C46 1_555 1_555
H69 C51 1_555 1_555
C52 N4 1_555 1_555
C53 C52 1_555 1_555
H70 C53 1_555 1_555
C54 C53 1_555 1_555
H71 C54 1_555 1_555
H72 C54 1_555 1_555
H73 C54 1_555 1_555
C55 C53 1_555 1_555
C56 C55 1_555 1_555
H74 C56 1_555 1_555
H75 C56 1_555 1_555
C57 C56 1_555 1_555
H76 C57 1_555 1_555
H77 C57 1_555 1_555
H78 C57 1_555 1_555
C58 C55 1_555 1_555
H79 C58 1_555 1_555
C59 C58 1_555 1_555
H80 C59 1_555 1_555
H81 C59 1_555 1_555
C60 C59 1_555 1_555
H82 C60 1_555 1_555
H83 C60 1_555 1_555
H84 C60 1_555 1_555
C5 C6 1_555 1_555
C20 C21 1_555 1_555
C35 C36 1_555 1_555
C50 C51 1_555 1_555

#END
