
#######################################################################
#
#                 Cambridge Crystallographic Data Centre
#                                CCDC 
#
#######################################################################
#
# If this CIF has been generated from an entry in the Cambridge 
# Structural Database, then it will include bibliographic, chemical, 
# crystal, experimental, refinement or atomic coordinate data resulting 
# from the CCDC's data processing and validation procedures.
#
#######################################################################

data_YIQTEY
_chemical_formula_moiety         'C18 H20 N2 O4'
_chemical_name_systematic        
2,2'-(1,1'-(Ethylenedioxydinitrilo)diethylidyne)diphenol
_symmetry_cell_setting           monoclinic
_symmetry_space_group_name_H-M   'P 21/n'
_symmetry_Int_Tables_number      14
_space_group_name_Hall           '-P 2yn'
loop_
_symmetry_equiv_pos_site_id
_symmetry_equiv_pos_as_xyz
1 x,y,z
2 1/2-x,1/2+y,1/2-z
3 -x,-y,-z
4 1/2+x,1/2-y,1/2+z
_cell_length_a                   6.9018(12)
_cell_length_b                   17.2184(18)
_cell_length_c                   7.3063(14)
_cell_angle_alpha                90
_cell_angle_beta                 103.003(2)
_cell_angle_gamma                90
_cell_volume                     846.002
_exptl_crystal_colour            colorless
_exptl_crystal_description       prismatic
_chemical_melting_point          '387-389 K'
_cell_formula_units_Z            2
_exptl_crystal_recrystallization_method ethanol
loop_
_atom_site_label
_atom_site_type_symbol
_atom_site_fract_x
_atom_site_fract_y
_atom_site_fract_z
N1 N 0.7373(3) 0.04598(11) 0.7165(3)
O1 O 0.7376(2) 0.00177(11) 0.8782(2)
O2 O 0.8973(2) 0.09878(10) 0.4578(2)
H1 H 0.8928 0.0734 0.5516
C1 C 0.9323(4) -0.03004(15) 0.9451(4)
H2 H 0.9850 -0.0472 0.8395
H3 H 0.9250 -0.0747 1.0243
C2 C 0.3971(4) 0.07355(16) 0.7411(4)
H4 H 0.4379 0.0478 0.8600
H5 H 0.2932 0.0442 0.6613
H6 H 0.3488 0.1245 0.7600
C3 C 0.5701(3) 0.08004(13) 0.6508(3)
C4 C 0.5586(3) 0.12616(12) 0.4789(3)
C5 C 0.7196(3) 0.13387(13) 0.3919(3)
C6 C 0.7024(4) 0.17870(15) 0.2319(4)
H7 H 0.8099 0.1832 0.1753
C7 C 0.5280(5) 0.21646(16) 0.1564(4)
H8 H 0.5182 0.2471 0.0499
C8 C 0.3672(5) 0.20922(16) 0.2377(5)
H9 H 0.2484 0.2344 0.1853
C9 C 0.3829(4) 0.16474(15) 0.3962(4)
H10 H 0.2734 0.1602 0.4500
N1B N 1.2627(3) -0.04598(11) 1.2835(3)
O1B O 1.2624(2) -0.00177(11) 1.1218(2)
O2B O 1.1027(2) -0.09878(10) 1.5422(2)
H1B H 1.1072 -0.0734 1.4484
C1B C 1.0677(4) 0.03004(15) 1.0549(4)
H2B H 1.0150 0.0472 1.1605
H3B H 1.0750 0.0747 0.9757
C2B C 1.6029(4) -0.07355(16) 1.2589(4)
H4B H 1.5621 -0.0478 1.1400
H5B H 1.7068 -0.0442 1.3387
H6B H 1.6512 -0.1245 1.2400
C3B C 1.4299(3) -0.08004(13) 1.3492(3)
C4B C 1.4414(3) -0.12616(12) 1.5211(3)
C5B C 1.2804(3) -0.13387(13) 1.6081(3)
C6B C 1.2976(4) -0.17870(15) 1.7681(4)
H7B H 1.1901 -0.1832 1.8247
C7B C 1.4720(5) -0.21646(16) 1.8436(4)
H8B H 1.4818 -0.2471 1.9501
C8B C 1.6328(5) -0.20922(16) 1.7623(5)
H9B H 1.7516 -0.2344 1.8147
C9B C 1.6171(4) -0.16474(15) 1.6038(4)
H10B H 1.7266 -0.1602 1.5500
loop_
_geom_bond_atom_site_label_1
_geom_bond_atom_site_label_2
_geom_bond_site_symmetry_1
_geom_bond_site_symmetry_2
N1 O1 1_555 1_555
O1 C1 1_555 1_555
O2 H1 1_555 1_555
C1 H2 1_555 1_555
H3 C1 1_555 1_555
C2 H4 1_555 1_555
H5 C2 1_555 1_555
H6 C2 1_555 1_555
C3 N1 1_555 1_555
C4 C3 1_555 1_555
C5 O2 1_555 1_555
C6 C5 1_555 1_555
H7 C6 1_555 1_555
C7 C6 1_555 1_555
H8 C7 1_555 1_555
C8 C7 1_555 1_555
H9 C8 1_555 1_555
C9 C4 1_555 1_555
H10 C9 1_555 1_555
N1B O1B 1_555 1_555
O1B C1B 1_555 1_555
O2B H1B 1_555 1_555
C1B C1 1_555 1_555
H2B C1B 1_555 1_555
H3B C1B 1_555 1_555
C2B H4B 1_555 1_555
H5B C2B 1_555 1_555
H6B C2B 1_555 1_555
C3B N1B 1_555 1_555
C4B C3B 1_555 1_555
C5B O2B 1_555 1_555
C6B C5B 1_555 1_555
H7B C6B 1_555 1_555
C7B C6B 1_555 1_555
H8B C7B 1_555 1_555
C8B C7B 1_555 1_555
H9B C8B 1_555 1_555
C9B C4B 1_555 1_555
H10B C9B 1_555 1_555
C2 C3 1_555 1_555
C4 C5 1_555 1_555
C8 C9 1_555 1_555
C2B C3B 1_555 1_555
C4B C5B 1_555 1_555
C8B C9B 1_555 1_555

#END
