
#######################################################################
#
#                 Cambridge Crystallographic Data Centre
#                                CCDC 
#
#######################################################################
#
# If this CIF has been generated from an entry in the Cambridge 
# Structural Database, then it will include bibliographic, chemical, 
# crystal, experimental, refinement or atomic coordinate data resulting 
# from the CCDC's data processing and validation procedures.
#
#######################################################################

data_YIQTAV
_chemical_formula_moiety         'C18 H17 N3 O3 S1'
_chemical_name_systematic        
2-(4-Butoxyphenyl)-5-(4-nitrophenyl)-1,3,4-thiadiazole
_symmetry_cell_setting           triclinic
_symmetry_space_group_name_H-M   'P -1'
_symmetry_Int_Tables_number      2
_space_group_name_Hall           '-P 1'
loop_
_symmetry_equiv_pos_site_id
_symmetry_equiv_pos_as_xyz
1 x,y,z
2 -x,-y,-z
_cell_length_a                   7.064(18)
_cell_length_b                   9.42(2)
_cell_length_c                   13.32(3)
_cell_angle_alpha                102.79(4)
_cell_angle_beta                 95.54(4)
_cell_angle_gamma                92.09(4)
_cell_volume                     858.793
_cell_formula_units_Z            2
loop_
_atom_site_label
_atom_site_type_symbol
_atom_site_fract_x
_atom_site_fract_y
_atom_site_fract_z
S1 S -0.13594(8) 0.26901(6) 0.50318(5)
O1 O -0.7733(3) 0.6510(2) 0.20886(16)
O2 O -0.5691(3) 0.6695(2) 0.10331(17)
O3 O 0.4183(2) -0.05554(18) 0.81271(12)
N1 N -0.6185(3) 0.6288(2) 0.17753(18)
N2 N 0.0840(3) 0.3234(2) 0.37566(15)
N3 N 0.1908(3) 0.2543(2) 0.43936(16)
C1 C -0.4160(3) 0.4211(2) 0.36378(18)
H1 H -0.4557 0.3797 0.4160
C2 C -0.5433(3) 0.4919(3) 0.31097(19)
H2 H -0.6680 0.4997 0.3275
C3 C -0.4834(3) 0.5510(2) 0.23324(18)
C4 C -0.3001(3) 0.5412(3) 0.20777(19)
H3 H -0.2621 0.5813 0.1545
C5 C -0.1743(3) 0.4718(3) 0.26167(19)
H4 H -0.0494 0.4656 0.2453
C6 C -0.2294(3) 0.4101(2) 0.34069(17)
C7 C -0.0903(3) 0.3390(2) 0.39829(17)
C8 C 0.0959(3) 0.2189(2) 0.51045(17)
C9 C 0.1798(3) 0.1459(2) 0.58815(16)
C10 C 0.3699(3) 0.1157(2) 0.59146(18)
H5 H 0.4425 0.1417 0.5430
C11 C 0.4553(3) 0.0483(2) 0.66408(17)
H6 H 0.5833 0.0287 0.6642
C12 C 0.3488(3) 0.0097(2) 0.73739(18)
C13 C 0.1585(3) 0.0375(3) 0.73396(18)
H7 H 0.0855 0.0104 0.7819
C14 C 0.0754(3) 0.1042(2) 0.66130(18)
H8 H -0.0533 0.1221 0.6607
C15 C 0.6175(4) -0.0792(3) 0.8220(2)
H9 H 0.6910 0.0135 0.8372
H10 H 0.6517 -0.1375 0.7574
C16 C 0.6608(4) -0.1565(3) 0.90734(19)
H11 H 0.5761 -0.2432 0.8958
H12 H 0.6386 -0.0934 0.9728
C17 C 0.8658(4) -0.1993(3) 0.9129(2)
H13 H 0.8894 -0.2551 0.8453
H14 H 0.9491 -0.1113 0.9288
C18 C 0.9166(5) -0.2868(4) 0.9912(2)
H15 H 0.8967 -0.2317 1.0588
H16 H 1.0481 -0.3091 0.9903
H17 H 0.8379 -0.3758 0.9750
loop_
_geom_bond_atom_site_label_1
_geom_bond_atom_site_label_2
_geom_bond_site_symmetry_1
_geom_bond_site_symmetry_2
S1 C7 1_555 1_555
O1 N1 1_555 1_555
O2 N1 1_555 1_555
O3 C12 1_555 1_555
N1 C3 1_555 1_555
N2 N3 1_555 1_555
N3 C8 1_555 1_555
C1 H1 1_555 1_555
C2 C1 1_555 1_555
H2 C2 1_555 1_555
C3 C2 1_555 1_555
C4 C3 1_555 1_555
H3 C4 1_555 1_555
C5 C4 1_555 1_555
H4 C5 1_555 1_555
C6 C1 1_555 1_555
C7 N2 1_555 1_555
C8 S1 1_555 1_555
C9 C8 1_555 1_555
C10 C9 1_555 1_555
H5 C10 1_555 1_555
C11 C10 1_555 1_555
H6 C11 1_555 1_555
C12 C11 1_555 1_555
C13 C12 1_555 1_555
H7 C13 1_555 1_555
C14 C9 1_555 1_555
H8 C14 1_555 1_555
C15 O3 1_555 1_555
H9 C15 1_555 1_555
H10 C15 1_555 1_555
C16 C15 1_555 1_555
H11 C16 1_555 1_555
H12 C16 1_555 1_555
C17 C16 1_555 1_555
H13 C17 1_555 1_555
H14 C17 1_555 1_555
C18 C17 1_555 1_555
H15 C18 1_555 1_555
H16 C18 1_555 1_555
H17 C18 1_555 1_555
C5 C6 1_555 1_555
C6 C7 1_555 1_555
C13 C14 1_555 1_555

#END
