
#######################################################################
#
#                 Cambridge Crystallographic Data Centre
#                                CCDC 
#
#######################################################################
#
# If this CIF has been generated from an entry in the Cambridge 
# Structural Database, then it will include bibliographic, chemical, 
# crystal, experimental, refinement or atomic coordinate data resulting 
# from the CCDC's data processing and validation procedures.
#
#######################################################################

data_YIQVEC02
_chemical_formula_moiety         'C26 H19 N1 O1 S1'
_chemical_name_systematic        
(3-methyl-4-(10H-phenothiazin-10-yl)phenyl)(phenyl)methanone
_symmetry_cell_setting           triclinic
_symmetry_space_group_name_H-M   'P -1'
_symmetry_Int_Tables_number      2
_space_group_name_Hall           '-P 1'
loop_
_symmetry_equiv_pos_site_id
_symmetry_equiv_pos_as_xyz
1 x,y,z
2 -x,-y,-z
_cell_length_a                   8.4890(9)
_cell_length_b                   10.4104(10)
_cell_length_c                   11.9336(12)
_cell_angle_alpha                109.891(3)
_cell_angle_beta                 92.687(4)
_cell_angle_gamma                95.692(4)
_cell_volume                     983.142
_exptl_crystal_colour            colorless
_cell_formula_units_Z            2
_exptl_crystal_recrystallization_method dichloromethane/hexane
_exptl_crystal_preparation       ', Luminescent'
loop_
_atom_site_label
_atom_site_type_symbol
_atom_site_fract_x
_atom_site_fract_y
_atom_site_fract_z
S1 S 0.42487(4) 0.16712(3) 0.09513(3)
O1 O 0.69491(11) 1.03105(9) 0.67040(8)
N1 N 0.48753(11) 0.46582(10) 0.23358(8)
C1 C 0.77393(14) 0.93894(11) 0.62077(10)
C2 C 0.69722(12) 0.81302(11) 0.52181(9)
C3 C 0.58742(13) 0.82921(11) 0.43874(10)
H1 H 0.5599 0.9182 0.4475
C4 C 0.51810(13) 0.71570(11) 0.34324(10)
H2 H 0.4469 0.7275 0.2847
C5 C 0.55296(12) 0.58457(11) 0.33323(9)
C6 C 0.65897(12) 0.56483(11) 0.41781(9)
C7 C 0.73253(12) 0.68097(11) 0.51054(9)
H3 H 0.8079 0.6701 0.5670
C8 C 0.32506(13) 0.41409(11) 0.22098(9)
C9 C 0.27811(13) 0.27559(12) 0.15167(10)
C10 C 0.11855(14) 0.22186(13) 0.13199(11)
H4 H 0.0880 0.1289 0.0820
C11 C 0.00361(14) 0.30337(14) 0.18504(11)
H5 H -0.1053 0.2663 0.1727
C12 C 0.04977(14) 0.43967(14) 0.25632(11)
H6 H -0.0281 0.4956 0.2936
C13 C 0.20875(13) 0.49533(12) 0.27381(10)
H7 H 0.2383 0.5891 0.3220
C14 C 0.57816(12) 0.42353(11) 0.13375(9)
C15 C 0.55629(13) 0.28590(11) 0.05778(10)
C16 C 0.64124(14) 0.24277(12) -0.04295(10)
H8 H 0.6231 0.1499 -0.0958
C17 C 0.75240(14) 0.33599(13) -0.06586(10)
H9 H 0.8120 0.3065 -0.1335
C18 C 0.77632(14) 0.47249(13) 0.01037(10)
H10 H 0.8528 0.5359 -0.0052
C19 C 0.68909(13) 0.51661(12) 0.10905(10)
H11 H 0.7049 0.6104 0.1599
C20 C 0.94740(13) 0.95150(11) 0.65503(10)
C21 C 1.05043(14) 0.87854(11) 0.57673(11)
H12 H 1.0103 0.8175 0.4992
C22 C 1.21138(15) 0.89469(13) 0.61154(13)
H13 H 1.2813 0.8451 0.5578
C23 C 1.27051(16) 0.98324(15) 0.72483(14)
H14 H 1.3804 0.9923 0.7492
C24 C 1.16951(16) 1.05848(15) 0.80237(12)
H15 H 1.2105 1.1204 0.8793
C25 C 1.00870(15) 1.04337(13) 0.76770(11)
H16 H 0.9398 1.0957 0.8207
C26 C 0.69256(13) 0.42247(11) 0.40883(10)
H17 H 0.6000 0.3744 0.4301
H18 H 0.7850 0.4292 0.4638
H19 H 0.7146 0.3713 0.3267
loop_
_geom_bond_atom_site_label_1
_geom_bond_atom_site_label_2
_geom_bond_site_symmetry_1
_geom_bond_site_symmetry_2
S1 C9 1_555 1_555
O1 C1 1_555 1_555
N1 C5 1_555 1_555
C1 C2 1_555 1_555
C2 C3 1_555 1_555
C3 H1 1_555 1_555
C4 C3 1_555 1_555
H2 C4 1_555 1_555
C5 C4 1_555 1_555
C6 C5 1_555 1_555
C7 C2 1_555 1_555
H3 C7 1_555 1_555
C8 N1 1_555 1_555
C9 C8 1_555 1_555
C10 C9 1_555 1_555
H4 C10 1_555 1_555
C11 C10 1_555 1_555
H5 C11 1_555 1_555
C12 C11 1_555 1_555
H6 C12 1_555 1_555
C13 C8 1_555 1_555
H7 C13 1_555 1_555
C14 N1 1_555 1_555
C15 S1 1_555 1_555
C16 C15 1_555 1_555
H8 C16 1_555 1_555
C17 C16 1_555 1_555
H9 C17 1_555 1_555
C18 C17 1_555 1_555
H10 C18 1_555 1_555
C19 C14 1_555 1_555
H11 C19 1_555 1_555
C20 C1 1_555 1_555
C21 C20 1_555 1_555
H12 C21 1_555 1_555
C22 C21 1_555 1_555
H13 C22 1_555 1_555
C23 C22 1_555 1_555
H14 C23 1_555 1_555
C24 C23 1_555 1_555
H15 C24 1_555 1_555
C25 C20 1_555 1_555
H16 C25 1_555 1_555
C26 C6 1_555 1_555
H17 C26 1_555 1_555
H18 C26 1_555 1_555
H19 C26 1_555 1_555
C6 C7 1_555 1_555
C12 C13 1_555 1_555
C14 C15 1_555 1_555
C18 C19 1_555 1_555
C24 C25 1_555 1_555

#END
