
#######################################################################
#
#                 Cambridge Crystallographic Data Centre
#                                CCDC 
#
#######################################################################
#
# If this CIF has been generated from an entry in the Cambridge 
# Structural Database, then it will include bibliographic, chemical, 
# crystal, experimental, refinement or atomic coordinate data resulting 
# from the CCDC's data processing and validation procedures.
#
#######################################################################

data_YIQVOK
_chemical_formula_moiety         'C13 H12 N4 O1 S2'
_chemical_name_systematic        
2-Methyl-5-(3-(2-methylphenyl)-1,2,4-oxadiazol-5-ylmethylsulfanyl)-1,3,4-thiadiazole
_symmetry_cell_setting           monoclinic
_symmetry_space_group_name_H-M   'P 21/c'
_symmetry_Int_Tables_number      14
_space_group_name_Hall           '-P 2ybc'
loop_
_symmetry_equiv_pos_site_id
_symmetry_equiv_pos_as_xyz
1 x,y,z
2 -x,1/2+y,1/2-z
3 -x,-y,-z
4 x,1/2-y,1/2+z
_cell_length_a                   10.309(2)
_cell_length_b                   12.992(3)
_cell_length_c                   10.600(2)
_cell_angle_alpha                90
_cell_angle_beta                 100.63(3)
_cell_angle_gamma                90
_cell_volume                     1395.34
_exptl_crystal_colour            colorless
_exptl_crystal_description       Block
_cell_formula_units_Z            4
_exptl_crystal_recrystallization_method ethanol
loop_
_atom_site_label
_atom_site_type_symbol
_atom_site_fract_x
_atom_site_fract_y
_atom_site_fract_z
O1 O 0.1434(4) 0.1828(2) 0.0705(3)
S1 S 0.53469(12) 0.38060(11) 0.12681(13)
N1 N 0.2889(4) 0.3910(3) 0.0430(4)
C1 C 0.4913(6) 0.5355(4) 0.3034(5)
H1 H 0.4209 0.5770 0.3239
H2 H 0.5582 0.5793 0.2804
H3 H 0.5286 0.4947 0.3766
S2 S 0.39670(13) 0.24762(10) -0.09151(13)
N2 N 0.3157(4) 0.4621(3) 0.1412(4)
C2 C 0.4386(4) 0.4665(3) 0.1935(4)
N3 N 0.1246(5) 0.0994(3) 0.1516(4)
C3 C 0.3944(4) 0.3437(3) 0.0250(4)
N4 N 0.2023(3) 0.0434(3) -0.0210(3)
C4 C 0.2240(4) 0.2126(4) -0.1264(4)
H4 H 0.1706 0.2743 -0.1294
H5 H 0.2041 0.1801 -0.2101
C5 C 0.1892(4) 0.1415(3) -0.0289(4)
C6 C 0.1615(4) 0.0195(3) 0.0926(4)
C7 C 0.1625(4) -0.0868(3) 0.1392(4)
C8 C 0.2228(5) -0.1601(3) 0.0731(4)
H6 H 0.2607 -0.1397 0.0041
C9 C 0.2273(5) -0.2620(4) 0.1082(5)
H7 H 0.2672 -0.3102 0.0628
C10 C 0.1719(5) -0.2925(4) 0.2116(5)
H8 H 0.1757 -0.3611 0.2367
C11 C 0.1115(5) -0.2215(4) 0.2769(5)
H9 H 0.0727 -0.2438 0.3446
C12 C 0.1061(4) -0.1176(3) 0.2458(4)
C13 C 0.0405(5) -0.0452(4) 0.3241(5)
H10 H 0.0105 -0.0827 0.3913
H11 H -0.0335 -0.0131 0.2701
H12 H 0.1023 0.0067 0.3610
loop_
_geom_bond_atom_site_label_1
_geom_bond_atom_site_label_2
_geom_bond_site_symmetry_1
_geom_bond_site_symmetry_2
O1 N3 1_555 1_555
S1 C2 1_555 1_555
N1 N2 1_555 1_555
C1 H1 1_555 1_555
H2 C1 1_555 1_555
H3 C1 1_555 1_555
S2 C3 1_555 1_555
N2 C2 1_555 1_555
C2 C1 1_555 1_555
N3 C6 1_555 1_555
C3 S1 1_555 1_555
N4 C5 1_555 1_555
C4 S2 1_555 1_555
H4 C4 1_555 1_555
H5 C4 1_555 1_555
C5 O1 1_555 1_555
C6 N4 1_555 1_555
C7 C6 1_555 1_555
C8 C7 1_555 1_555
H6 C8 1_555 1_555
C9 C8 1_555 1_555
H7 C9 1_555 1_555
C10 C9 1_555 1_555
H8 C10 1_555 1_555
C11 C10 1_555 1_555
H9 C11 1_555 1_555
C12 C7 1_555 1_555
C13 C12 1_555 1_555
H10 C13 1_555 1_555
H11 C13 1_555 1_555
H12 C13 1_555 1_555
N1 C3 1_555 1_555
C4 C5 1_555 1_555
C11 C12 1_555 1_555

#END
