
#######################################################################
#
#                 Cambridge Crystallographic Data Centre
#                                CCDC 
#
#######################################################################
#
# If this CIF has been generated from an entry in the Cambridge 
# Structural Database, then it will include bibliographic, chemical, 
# crystal, experimental, refinement or atomic coordinate data resulting 
# from the CCDC's data processing and validation procedures.
#
#######################################################################

data_YIQXON
_chemical_formula_moiety         'C27 H26 Cl1 N1 O5'
_chemical_name_systematic        
'5-Ethyl 2-methyl 1-(4-chlorophenyl)-3-hydroxy-2,3-diphenylpyrrolidine-2,5-dicarboxylate'
_symmetry_cell_setting           monoclinic
_symmetry_space_group_name_H-M   'P 21/c'
_symmetry_Int_Tables_number      14
_space_group_name_Hall           '-P 2ybc'
loop_
_symmetry_equiv_pos_site_id
_symmetry_equiv_pos_as_xyz
1 x,y,z
2 -x,1/2+y,1/2-z
3 -x,-y,-z
4 x,1/2-y,1/2+z
_cell_length_a                   11.4794(5)
_cell_length_b                   12.1946(6)
_cell_length_c                   16.9347(8)
_cell_angle_alpha                90
_cell_angle_beta                 92.8730(10)
_cell_angle_gamma                90
_cell_volume                     2367.65
_exptl_crystal_colour            colorless
_exptl_crystal_description       block
_cell_formula_units_Z            4
loop_
_atom_site_label
_atom_site_type_symbol
_atom_site_fract_x
_atom_site_fract_y
_atom_site_fract_z
Cl1 Cl 0.52326(6) 0.60893(5) 0.06761(3)
O1 O 0.09034(11) 1.02523(15) -0.14638(9)
O2 O 0.24541(11) 1.01673(12) -0.06317(7)
O3 O 0.68697(11) 1.02150(11) -0.20258(10)
O4 O 0.59279(11) 0.86906(10) -0.24247(8)
O5 O 0.29997(11) 1.17780(10) -0.18483(7)
H1 H 0.2850 1.1497 -0.1425
N1 N 0.39344(11) 0.95179(11) -0.16764(8)
C1 C 0.41728(14) 0.87284(13) -0.10931(10)
C2 C 0.51818(16) 0.88175(15) -0.06022(11)
H2 H 0.5653 0.9433 -0.0641
C3 C 0.54939(16) 0.80134(16) -0.00621(11)
H3 H 0.6172 0.8085 0.0258
C4 C 0.48029(17) 0.71099(16) 0.00006(11)
C5 C 0.37736(18) 0.70151(16) -0.04454(12)
H4 H 0.3291 0.6413 -0.0381
C6 C 0.34606(16) 0.78214(16) -0.09908(11)
H5 H 0.2765 0.7756 -0.1293
C7 C 0.21845(16) 1.12167(14) -0.31340(11)
C8 C 0.11901(17) 1.18173(17) -0.30071(14)
H6 H 0.1056 1.2066 -0.2500
C9 C 0.0391(2) 1.2054(2) -0.36218(17)
H7 H -0.0271 1.2463 -0.3526
C10 C 0.0569(3) 1.1692(3) -0.43667(17)
H8 H 0.0026 1.1843 -0.4779
C11 C 0.1557(3) 1.1103(3) -0.45034(15)
H9 H 0.1684 1.0856 -0.5012
C12 C 0.2362(2) 1.0874(2) -0.38979(13)
H10 H 0.3034 1.0484 -0.4002
C13 C 0.22684(15) 0.89612(14) -0.25937(10)
C14 C 0.10911(17) 0.89128(17) -0.28326(12)
H11 H 0.0561 0.9374 -0.2600
C15 C 0.07050(19) 0.81842(19) -0.34134(13)
H12 H -0.0086 0.8151 -0.3561
C16 C 0.1469(2) 0.75108(17) -0.37753(13)
H13 H 0.1202 0.7028 -0.4169
C17 C 0.26346(19) 0.75558(16) -0.35505(12)
H14 H 0.3161 0.7107 -0.3798
C18 C 0.30300(16) 0.82646(14) -0.29576(11)
H15 H 0.3818 0.8274 -0.2801
C19 C 0.27712(14) 0.98214(13) -0.19984(10)
C20 C 0.30305(15) 1.09509(13) -0.24404(10)
C21 C 0.42934(15) 1.07884(14) -0.26532(11)
H16 H 0.4341 1.0327 -0.3117
H17 H 0.4666 1.1486 -0.2752
C22 C 0.48506(14) 1.02332(13) -0.19269(11)
H18 H 0.5056 1.0775 -0.1516
C23 C 0.19234(15) 1.00949(15) -0.13438(11)
C24 C 0.1718(2) 1.0456(3) -0.00009(14)
H19 H 0.2175 1.0482 0.0489
H20 H 0.1114 0.9916 0.0036
H21 H 0.1373 1.1161 -0.0106
C25 C 0.59275(14) 0.95971(14) -0.21519(11)
C26 C 0.79636(16) 0.98247(18) -0.23179(14)
H22 H 0.8025 0.9039 -0.2238
H23 H 0.8610 1.0171 -0.2023
C27 C 0.8029(2) 1.0076(3) -0.31626(18)
H24 H 0.8759 0.9819 -0.3345
H25 H 0.7973 1.0854 -0.3240
H26 H 0.7399 0.9719 -0.3455
loop_
_geom_bond_atom_site_label_1
_geom_bond_atom_site_label_2
_geom_bond_site_symmetry_1
_geom_bond_site_symmetry_2
Cl1 C4 1_555 1_555
O1 C23 1_555 1_555
O2 C23 1_555 1_555
O3 C25 1_555 1_555
O4 C25 1_555 1_555
O5 H1 1_555 1_555
N1 C1 1_555 1_555
C1 C2 1_555 1_555
C2 H2 1_555 1_555
C3 C2 1_555 1_555
H3 C3 1_555 1_555
C4 C3 1_555 1_555
C5 C4 1_555 1_555
H4 C5 1_555 1_555
C6 C1 1_555 1_555
H5 C6 1_555 1_555
C7 C8 1_555 1_555
C8 H6 1_555 1_555
C9 C8 1_555 1_555
H7 C9 1_555 1_555
C10 C9 1_555 1_555
H8 C10 1_555 1_555
C11 C10 1_555 1_555
H9 C11 1_555 1_555
C12 C7 1_555 1_555
H10 C12 1_555 1_555
C13 C14 1_555 1_555
C14 H11 1_555 1_555
C15 C14 1_555 1_555
H12 C15 1_555 1_555
C16 C15 1_555 1_555
H13 C16 1_555 1_555
C17 C16 1_555 1_555
H14 C17 1_555 1_555
C18 C13 1_555 1_555
H15 C18 1_555 1_555
C19 N1 1_555 1_555
C20 O5 1_555 1_555
C21 C20 1_555 1_555
H16 C21 1_555 1_555
H17 C21 1_555 1_555
C22 N1 1_555 1_555
H18 C22 1_555 1_555
C23 C19 1_555 1_555
C24 O2 1_555 1_555
H19 C24 1_555 1_555
H20 C24 1_555 1_555
H21 C24 1_555 1_555
C25 C22 1_555 1_555
C26 O3 1_555 1_555
H22 C26 1_555 1_555
H23 C26 1_555 1_555
C27 C26 1_555 1_555
H24 C27 1_555 1_555
H25 C27 1_555 1_555
H26 C27 1_555 1_555
C5 C6 1_555 1_555
C7 C20 1_555 1_555
C11 C12 1_555 1_555
C13 C19 1_555 1_555
C17 C18 1_555 1_555
C19 C20 1_555 1_555
C21 C22 1_555 1_555

#END
