
#######################################################################
#
#                 Cambridge Crystallographic Data Centre
#                                CCDC 
#
#######################################################################
#
# If this CIF has been generated from an entry in the Cambridge 
# Structural Database, then it will include bibliographic, chemical, 
# crystal, experimental, refinement or atomic coordinate data resulting 
# from the CCDC's data processing and validation procedures.
#
#######################################################################

data_YIQXUU
_chemical_formula_moiety         'C25 H17 N1 O1 S1'
_chemical_name_systematic        
'[4-(10H-phenothiazin-10-yl)phenyl](phenyl)methanone'
_symmetry_cell_setting           triclinic
_symmetry_space_group_name_H-M   'P -1'
_symmetry_Int_Tables_number      2
_space_group_name_Hall           '-P 1'
loop_
_symmetry_equiv_pos_site_id
_symmetry_equiv_pos_as_xyz
1 x,y,z
2 -x,-y,-z
_cell_length_a                   9.0469(5)
_cell_length_b                   9.5125(5)
_cell_length_c                   12.6771(6)
_cell_angle_alpha                92.5837(19)
_cell_angle_beta                 106.8158(18)
_cell_angle_gamma                117.8412(17)
_cell_volume                     902.272
_exptl_crystal_colour            yellow
_exptl_crystal_description       tablet
_cell_formula_units_Z            2
_exptl_crystal_recrystallization_method 'dichloromethane /hexane'
_exptl_crystal_preparation       Luminescent
loop_
_atom_site_label
_atom_site_type_symbol
_atom_site_fract_x
_atom_site_fract_y
_atom_site_fract_z
S1 S 0.18210(4) 0.94481(4) 0.73352(2)
N1 N 0.21990(13) 0.78614(12) 0.53709(8)
C1 C 0.31506(15) 0.85874(14) 0.37746(9)
H1 H 0.3462 0.9675 0.4034
C2 C 0.01754(15) 0.84334(14) 0.59961(9)
C3 C 0.29999(15) 0.83984(14) 0.74190(9)
O1 O 0.41566(13) 0.73059(12) 0.09861(8)
C4 C 0.25263(15) 0.74182(14) 0.43997(9)
C5 C 0.21212(16) 0.58359(14) 0.40351(9)
H2 H 0.1728 0.5044 0.4473
C6 C 0.28568(15) 0.65679(14) 0.23775(9)
C7 C 0.33187(15) 0.81643(14) 0.27723(9)
H3 H 0.3752 0.8968 0.2350
C8 C 0.30560(15) 0.62081(15) 0.12782(9)
C9 C 0.05341(15) 0.77954(13) 0.51459(9)
C10 C 0.19298(15) 0.45395(14) 0.05403(9)
C11 C 0.22922(16) 0.54140(14) 0.30295(10)
H4 H 0.2024 0.4336 0.2785
C12 C 0.31719(14) 0.78087(13) 0.64509(9)
C13 C 0.03023(16) 0.33632(15) 0.05937(10)
H5 H -0.0157 0.3607 0.1117
C14 C 0.39293(16) 0.83367(15) 0.84843(10)
H6 H 0.3737 0.8675 0.9124
C15 C 0.25413(17) 0.41727(16) -0.02691(10)
H7 H 0.3618 0.4981 -0.0337
C16 C -0.14620(16) 0.83626(15) 0.57740(10)
H8 H -0.1701 0.8771 0.6364
C17 C 0.51375(16) 0.77853(15) 0.86234(10)
H9 H 0.5788 0.7763 0.9354
C18 C -0.24018(16) 0.70651(15) 0.38528(10)
H10 H -0.3276 0.6606 0.3116
C19 C -0.07891(15) 0.70935(14) 0.40732(10)
H11 H -0.0584 0.6632 0.3489
C20 C 0.53766(17) 0.72691(16) 0.76771(11)
H12 H 0.6225 0.6921 0.7764
C21 C 0.43891(16) 0.72548(15) 0.66014(10)
H13 H 0.4544 0.6864 0.5962
C22 C 0.15953(19) 0.26464(17) -0.09722(11)
H14 H 0.2033 0.2406 -0.1511
C23 C -0.06459(18) 0.18360(16) -0.01182(11)
H15 H -0.1750 0.1038 -0.0077
C24 C -0.27469(16) 0.77005(16) 0.46989(11)
H16 H -0.3848 0.7683 0.4545
C25 C 0.00089(19) 0.14694(16) -0.08892(11)
H17 H -0.0629 0.0414 -0.1359
loop_
_geom_bond_atom_site_label_1
_geom_bond_atom_site_label_2
_geom_bond_site_symmetry_1
_geom_bond_site_symmetry_2
S1 C2 1_555 1_555
N1 C4 1_555 1_555
C1 H1 1_555 1_555
C2 C9 1_555 1_555
C3 S1 1_555 1_555
O1 C8 1_555 1_555
C4 C1 1_555 1_555
C5 C4 1_555 1_555
H2 C5 1_555 1_555
C6 C7 1_555 1_555
C7 C1 1_555 1_555
H3 C7 1_555 1_555
C8 C6 1_555 1_555
C9 N1 1_555 1_555
C10 C8 1_555 1_555
C11 C5 1_555 1_555
H4 C11 1_555 1_555
C12 N1 1_555 1_555
C13 C10 1_555 1_555
H5 C13 1_555 1_555
C14 C3 1_555 1_555
H6 C14 1_555 1_555
C15 C10 1_555 1_555
H7 C15 1_555 1_555
C16 C2 1_555 1_555
H8 C16 1_555 1_555
C17 C14 1_555 1_555
H9 C17 1_555 1_555
C18 H10 1_555 1_555
C19 C9 1_555 1_555
H11 C19 1_555 1_555
C20 C17 1_555 1_555
H12 C20 1_555 1_555
C21 C12 1_555 1_555
H13 C21 1_555 1_555
C22 C15 1_555 1_555
H14 C22 1_555 1_555
C23 C13 1_555 1_555
H15 C23 1_555 1_555
C24 C16 1_555 1_555
H16 C24 1_555 1_555
C25 C22 1_555 1_555
H17 C25 1_555 1_555
C3 C12 1_555 1_555
C6 C11 1_555 1_555
C18 C19 1_555 1_555
C18 C24 1_555 1_555
C20 C21 1_555 1_555
C23 C25 1_555 1_555

#END
