
#######################################################################
#
#                 Cambridge Crystallographic Data Centre
#                                CCDC 
#
#######################################################################
#
# If this CIF has been generated from an entry in the Cambridge 
# Structural Database, then it will include bibliographic, chemical, 
# crystal, experimental, refinement or atomic coordinate data resulting 
# from the CCDC's data processing and validation procedures.
#
#######################################################################

data_YIQXUT
_chemical_formula_moiety         'C26 H25 N1 O5'
_chemical_name_systematic        
'Dimethyl 2-anilino-3-(2-oxo-2-phenylethyl)-2-phenylsuccinate'
_symmetry_cell_setting           orthorhombic
_symmetry_space_group_name_H-M   'P b c a'
_symmetry_Int_Tables_number      61
_space_group_name_Hall           '-P 2ac 2ab'
loop_
_symmetry_equiv_pos_site_id
_symmetry_equiv_pos_as_xyz
1 x,y,z
2 1/2-x,-y,1/2+z
3 -x,1/2+y,1/2-z
4 1/2+x,1/2-y,-z
5 -x,-y,-z
6 1/2+x,y,1/2-z
7 x,1/2-y,1/2+z
8 1/2-x,1/2+y,z
_cell_length_a                   8.4429(18)
_cell_length_b                   21.926(5)
_cell_length_c                   24.158(5)
_cell_angle_alpha                90
_cell_angle_beta                 90
_cell_angle_gamma                90
_cell_volume                     4472.11
_exptl_crystal_colour            colorless
_exptl_crystal_description       block
_cell_formula_units_Z            8
loop_
_atom_site_label
_atom_site_type_symbol
_atom_site_fract_x
_atom_site_fract_y
_atom_site_fract_z
O1 O 0.2289(4) -0.06643(15) 0.60848(15)
O2 O 0.2198(4) -0.02166(14) 0.52611(14)
O3 O 0.2176(3) 0.05094(14) 0.70341(13)
O4 O 0.3817(3) 0.05940(13) 0.63131(12)
O5 O -0.1489(5) -0.08322(16) 0.57278(14)
N1 N 0.1767(4) 0.10720(14) 0.56374(12)
H1 H 0.1652 0.0883 0.5328
C1 C -0.3306(6) -0.1536(2) 0.6456(2)
H2 H -0.3299 -0.1647 0.6085
C2 C -0.4200(7) -0.1865(2) 0.6826(2)
H3 H -0.4799 -0.2194 0.6702
C3 C -0.4214(6) -0.1716(2) 0.7371(2)
H4 H -0.4819 -0.1940 0.7619
C4 C -0.3331(6) -0.1231(2) 0.7551(2)
H5 H -0.3326 -0.1130 0.7925
C5 C -0.2449(5) -0.0891(2) 0.71829(18)
H6 H -0.1872 -0.0558 0.7310
C6 C -0.2416(5) -0.10399(17) 0.66291(17)
C7 C -0.1479(5) -0.06888(18) 0.6215(2)
C8 C -0.0555(5) -0.01453(17) 0.64011(16)
H7 H 0.0148 -0.0268 0.6698
H8 H -0.1285 0.0154 0.6550
C9 C 0.0418(4) 0.01515(17) 0.59484(16)
H9 H -0.0278 0.0216 0.5629
C10 C 0.1111(4) 0.07933(16) 0.61251(15)
C11 C -0.0266(4) 0.11761(17) 0.63490(17)
C12 C -0.1337(5) 0.1397(2) 0.5966(2)
H10 H -0.1160 0.1328 0.5592
C13 C -0.2669(6) 0.1719(2) 0.6128(3)
H11 H -0.3378 0.1862 0.5864
C14 C -0.2943(6) 0.1828(2) 0.6679(3)
H12 H -0.3842 0.2041 0.6789
C15 C -0.1887(6) 0.1623(2) 0.7063(2)
H13 H -0.2058 0.1704 0.7436
C16 C -0.0567(5) 0.12943(18) 0.69051(18)
H14 H 0.0129 0.1150 0.7173
C17 C 0.2575(5) 0.16249(17) 0.56302(16)
C18 C 0.2602(5) 0.20363(19) 0.60699(18)
H15 H 0.2091 0.1939 0.6400
C19 C 0.3379(6) 0.2585(2) 0.6019(2)
H16 H 0.3364 0.2858 0.6314
C20 C 0.4181(6) 0.2741(2) 0.5541(2)
H17 H 0.4711 0.3111 0.5512
C21 C 0.4173(6) 0.2333(2) 0.5109(2)
H18 H 0.4707 0.2428 0.4784
C22 C 0.3389(5) 0.17885(19) 0.51527(18)
H19 H 0.3401 0.1521 0.4854
C23 C 0.1719(6) -0.0287(2) 0.5773(2)
C24 C 0.3590(8) -0.0635(3) 0.5151(3)
H20 H 0.3933 -0.0587 0.4775
H21 H 0.3274 -0.1051 0.5211
H22 H 0.4443 -0.0534 0.5397
C25 C 0.2413(5) 0.06349(17) 0.6556(2)
C26 C 0.5066(5) 0.0336(2) 0.6652(2)
H23 H 0.6034 0.0326 0.6444
H24 H 0.4781 -0.0070 0.6760
H25 H 0.5210 0.0583 0.6976
loop_
_geom_bond_atom_site_label_1
_geom_bond_atom_site_label_2
_geom_bond_site_symmetry_1
_geom_bond_site_symmetry_2
O1 C23 1_555 1_555
O2 C23 1_555 1_555
O3 C25 1_555 1_555
O4 C25 1_555 1_555
O5 C7 1_555 1_555
N1 H1 1_555 1_555
C1 H2 1_555 1_555
C2 C1 1_555 1_555
H3 C2 1_555 1_555
C3 C2 1_555 1_555
H4 C3 1_555 1_555
C4 C3 1_555 1_555
H5 C4 1_555 1_555
C5 C4 1_555 1_555
H6 C5 1_555 1_555
C6 C1 1_555 1_555
C7 C6 1_555 1_555
C8 C7 1_555 1_555
H7 C8 1_555 1_555
H8 C8 1_555 1_555
C9 C8 1_555 1_555
H9 C9 1_555 1_555
C10 N1 1_555 1_555
C11 C10 1_555 1_555
C12 C11 1_555 1_555
H10 C12 1_555 1_555
C13 C12 1_555 1_555
H11 C13 1_555 1_555
C14 C13 1_555 1_555
H12 C14 1_555 1_555
C15 C14 1_555 1_555
H13 C15 1_555 1_555
C16 C11 1_555 1_555
H14 C16 1_555 1_555
C17 N1 1_555 1_555
C18 C17 1_555 1_555
H15 C18 1_555 1_555
C19 C18 1_555 1_555
H16 C19 1_555 1_555
C20 C19 1_555 1_555
H17 C20 1_555 1_555
C21 C20 1_555 1_555
H18 C21 1_555 1_555
C22 C17 1_555 1_555
H19 C22 1_555 1_555
C23 C9 1_555 1_555
C24 O2 1_555 1_555
H20 C24 1_555 1_555
H21 C24 1_555 1_555
H22 C24 1_555 1_555
C25 C10 1_555 1_555
C26 O4 1_555 1_555
H23 C26 1_555 1_555
H24 C26 1_555 1_555
H25 C26 1_555 1_555
C5 C6 1_555 1_555
C9 C10 1_555 1_555
C15 C16 1_555 1_555
C21 C22 1_555 1_555

#END
