
#######################################################################
#
#                 Cambridge Crystallographic Data Centre
#                                CCDC 
#
#######################################################################
#
# If this CIF has been generated from an entry in the Cambridge 
# Structural Database, then it will include bibliographic, chemical, 
# crystal, experimental, refinement or atomic coordinate data resulting 
# from the CCDC's data processing and validation procedures.
#
#######################################################################

data_YIQZEE
_chemical_formula_moiety         'C16 H13 F6 N3 O2'
_chemical_name_systematic        
1,5-Dimethyl-4-(3-oxo-1,3-bis(trifluoromethyl)prop-1-enylamino)-2-phenyl-1H-pyrazol-3(2H)-one
_symmetry_cell_setting           monoclinic
_symmetry_space_group_name_H-M   'P 21/c'
_symmetry_Int_Tables_number      14
_space_group_name_Hall           '-P 2ybc'
loop_
_symmetry_equiv_pos_site_id
_symmetry_equiv_pos_as_xyz
1 x,y,z
2 -x,1/2+y,1/2-z
3 -x,-y,-z
4 x,1/2-y,1/2+z
_cell_length_a                   15.807(5)
_cell_length_b                   8.324(3)
_cell_length_c                   13.715(5)
_cell_angle_alpha                90
_cell_angle_beta                 107.644(6)
_cell_angle_gamma                90
_cell_volume                     1719.69
_exptl_crystal_colour            yellow
_exptl_crystal_description       block
_chemical_melting_point          '440-442 K'
_cell_formula_units_Z            4
loop_
_atom_site_label
_atom_site_type_symbol
_atom_site_fract_x
_atom_site_fract_y
_atom_site_fract_z
O1 O 0.60740(12) 0.2162(3) 0.45906(15)
O2 O 0.85903(15) 0.5621(3) 0.51390(17)
N1 N 0.56744(14) 0.1180(3) 0.29188(15)
N2 N 0.60661(14) 0.1235(3) 0.21240(15)
N3 N 0.78198(15) 0.2900(4) 0.41904(18)
C1 C 0.85016(16) 0.2205(4) 0.4883(2)
C2 C 0.8539(2) 0.0401(4) 0.4874(2)
F1 F 0.78609(13) -0.0247(2) 0.51143(15)
F2 F 0.85204(11) -0.0198(2) 0.39737(13)
F3 F 0.92697(12) -0.0163(2) 0.55386(14)
C3 C 0.91335(19) 0.4700(5) 0.5685(2)
C4 C 0.9825(2) 0.5457(5) 0.6604(3)
C5 C 0.62664(18) 0.1871(3) 0.3800(2)
C6 C 0.69184(17) 0.1733(3) 0.2536(2)
C7 C 0.70543(16) 0.2138(3) 0.35296(19)
C8 C 0.91552(17) 0.3029(4) 0.55891(19)
H1 H 0.9629 0.2461 0.6019
C9 C 0.75420(18) 0.1735(4) 0.1918(2)
H2 H 0.8061 0.2348 0.2265
H3 H 0.7258 0.2208 0.1262
H4 H 0.7712 0.0651 0.1827
C10 C 0.47364(17) 0.1192(3) 0.2692(2)
C11 C 0.4196(2) 0.1857(4) 0.1797(2)
H5 H 0.4439 0.2289 0.1316
C12 C 0.3289(2) 0.1871(4) 0.1628(3)
H6 H 0.2918 0.2286 0.1019
C13 C 0.2929(2) 0.1281(5) 0.2345(4)
H7 H 0.2319 0.1317 0.2228
C14 C 0.3469(3) 0.0638(4) 0.3232(3)
H8 H 0.3222 0.0246 0.3720
C15 C 0.4372(2) 0.0562(4) 0.3413(2)
H9 H 0.4735 0.0095 0.4010
C16 C 0.58075(19) 0.0024(4) 0.1319(2)
H10 H 0.5903 0.0436 0.0706
H11 H 0.5191 -0.0234 0.1186
H12 H 0.6159 -0.0926 0.1534
F4 F 0.9963(12) 0.6977(12) 0.6454(13)
F5 F 0.9608(7) 0.524(2) 0.7431(5)
F6 F 1.0624(5) 0.4819(17) 0.6763(13)
H13 H 0.7816(18) 0.391(4) 0.423(2)
F7? F 0.9411(9) 0.609(3) 0.7246(13)
F8? F 1.0448(10) 0.4480(14) 0.7120(11)
F9? F 1.0209(11) 0.6712(16) 0.6377(12)
loop_
_geom_bond_atom_site_label_1
_geom_bond_atom_site_label_2
_geom_bond_site_symmetry_1
_geom_bond_site_symmetry_2
O1 C5 1_555 1_555
O2 C3 1_555 1_555
N1 N2 1_555 1_555
N2 C6 1_555 1_555
N3 C1 1_555 1_555
C1 C2 1_555 1_555
C2 F1 1_555 1_555
F2 C2 1_555 1_555
F3 C2 1_555 1_555
C3 C4 1_555 1_555
C4 F4 1_555 1_555
C5 N1 1_555 1_555
C6 C7 1_555 1_555
C7 N3 1_555 1_555
C8 C1 1_555 1_555
H1 C8 1_555 1_555
C9 C6 1_555 1_555
H2 C9 1_555 1_555
H3 C9 1_555 1_555
H4 C9 1_555 1_555
C10 N1 1_555 1_555
C11 C10 1_555 1_555
H5 C11 1_555 1_555
C12 C11 1_555 1_555
H6 C12 1_555 1_555
C13 C12 1_555 1_555
H7 C13 1_555 1_555
C14 C13 1_555 1_555
H8 C14 1_555 1_555
C15 C10 1_555 1_555
H9 C15 1_555 1_555
C16 N2 1_555 1_555
H10 C16 1_555 1_555
H11 C16 1_555 1_555
H12 C16 1_555 1_555
F5 C4 1_555 1_555
F6 C4 1_555 1_555
H13 N3 1_555 1_555
C3 C8 1_555 1_555
C5 C7 1_555 1_555
C14 C15 1_555 1_555

#END
