
#######################################################################
#
#                 Cambridge Crystallographic Data Centre
#                                CCDC 
#
#######################################################################
#
# If this CIF has been generated from an entry in the Cambridge 
# Structural Database, then it will include bibliographic, chemical, 
# crystal, experimental, refinement or atomic coordinate data resulting 
# from the CCDC's data processing and validation procedures.
#
#######################################################################

data_YIQZUV
_chemical_formula_moiety         'C20 H17 N1'
_chemical_name_systematic        9-Butyl-2,7-diethynyl-9H-carbazole
_symmetry_cell_setting           monoclinic
_symmetry_space_group_name_H-M   'P 21/n'
_symmetry_Int_Tables_number      14
_space_group_name_Hall           '-P 2yn'
loop_
_symmetry_equiv_pos_site_id
_symmetry_equiv_pos_as_xyz
1 x,y,z
2 1/2-x,1/2+y,1/2-z
3 -x,-y,-z
4 1/2+x,1/2-y,1/2+z
_cell_length_a                   16.5223(14)
_cell_length_b                   9.1790(8)
_cell_length_c                   21.5418(18)
_cell_angle_alpha                90
_cell_angle_beta                 108.692(2)
_cell_angle_gamma                90
_cell_volume                     3094.67
_exptl_crystal_colour            yellow
_exptl_crystal_description       block
_cell_formula_units_Z            8
loop_
_atom_site_label
_atom_site_type_symbol
_atom_site_fract_x
_atom_site_fract_y
_atom_site_fract_z
C1 C 0.17649(16) 0.2093(3) -0.01361(13)
H1 H 0.1917 0.1209 -0.0279
C2 C 0.15768(13) 0.3188(3) 0.00415(10)
C3 C 0.13344(11) 0.4550(2) 0.02635(9)
C4 C 0.15096(12) 0.5878(3) 0.00048(10)
H2 H 0.1785 0.5868 -0.0310
C5 C 0.12821(12) 0.7185(3) 0.02078(9)
H3 H 0.1404 0.8052 0.0032
C6 C 0.08667(11) 0.7212(2) 0.06803(8)
C7 C 0.07019(10) 0.5875(2) 0.09409(8)
C8 C 0.09259(11) 0.4549(2) 0.07351(9)
H4 H 0.0805 0.3679 0.0909
C9 C 0.05224(11) 0.8339(2) 0.09875(9)
C10 C 0.04493(13) 0.9848(2) 0.09203(10)
H5 H 0.0679 1.0334 0.0637
C11 C 0.00345(14) 1.0610(2) 0.12770(11)
H6 H -0.0018 1.1616 0.1228
C12 C -0.03101(11) 0.9910(2) 0.17114(9)
C13 C -0.02375(11) 0.8407(2) 0.17929(9)
H7 H -0.0456 0.7933 0.2086
C14 C 0.01695(10) 0.7636(2) 0.14248(8)
C15 C -0.07536(12) 1.0748(2) 0.20701(10)
C16 C -0.11219(14) 1.1414(3) 0.23588(11)
H8 H -0.1414 1.1942 0.2588
C17 C 0.00417(12) 0.5039(2) 0.17857(9)
H9 H -0.0254 0.4259 0.1498
H10 H -0.0356 0.5465 0.1981
C18 C 0.07929(14) 0.4395(2) 0.23276(10)
H11 H 0.0573 0.3691 0.2569
H12 H 0.1154 0.3871 0.2126
C19 C 0.13310(15) 0.5467(3) 0.28013(11)
H13 H 0.0970 0.6019 0.2993
H14 H 0.1577 0.6145 0.2566
C20 C 0.20491(16) 0.4766(4) 0.33490(13)
H15 H 0.2368 0.5508 0.3639
H16 H 0.2421 0.4245 0.3164
H17 H 0.1811 0.4102 0.3589
N1 N 0.02876(9) 0.61448(16) 0.13962(7)
C21 C 0.24805(13) 0.1743(2) -0.17305(10)
H18 H 0.2340 0.0853 -0.1944
C22 C 0.26559(11) 0.2855(2) -0.14645(9)
C23 C 0.29017(10) 0.42288(19) -0.11265(8)
C24 C 0.25620(11) 0.5542(2) -0.14343(9)
H19 H 0.2163 0.5523 -0.1852
C25 C 0.28102(11) 0.6854(2) -0.11264(8)
H20 H 0.2583 0.7718 -0.1335
C26 C 0.34041(10) 0.68826(18) -0.04989(8)
C27 C 0.37293(10) 0.55522(17) -0.01883(8)
C28 C 0.34801(10) 0.42267(18) -0.04981(8)
H21 H 0.3696 0.3357 -0.0289
C29 C 0.38176(10) 0.80286(18) -0.00514(8)
C30 C 0.37796(11) 0.95440(18) -0.00729(9)
H22 H 0.3404 1.0017 -0.0432
C31 C 0.43026(12) 1.03342(19) 0.04413(9)
H23 H 0.4271 1.1346 0.0431
C32 C 0.48829(11) 0.96402(19) 0.09820(8)
C33 C 0.49179(11) 0.81347(19) 0.10210(8)
H24 H 0.5291 0.7669 0.1384
C34 C 0.43821(10) 0.73394(17) 0.05039(8)
C35 C 0.54732(12) 1.0508(2) 0.14906(9)
C36 C 0.59551(14) 1.1218(2) 0.18836(11)
H25 H 0.6342 1.1787 0.2199
C37 C 0.46770(11) 0.47504(18) 0.09277(8)
H26 H 0.5171 0.5162 0.1257
H27 H 0.4869 0.3920 0.0734
C38 C 0.40403(13) 0.4233(2) 0.12575(9)
H28 H 0.3581 0.3719 0.0936
H29 H 0.4325 0.3543 0.1599
C39 C 0.36605(14) 0.5412(3) 0.15536(11)
H30 H 0.3314 0.6037 0.1206
H31 H 0.4118 0.6001 0.1837
C40 C 0.31111(14) 0.4845(3) 0.19483(12)
H32 H 0.2889 0.5652 0.2127
H33 H 0.3451 0.4240 0.2298
H34 H 0.2646 0.4285 0.1668
N2 N 0.43167(8) 0.58396(14) 0.04195(6)
loop_
_geom_bond_atom_site_label_1
_geom_bond_atom_site_label_2
_geom_bond_site_symmetry_1
_geom_bond_site_symmetry_2
C1 H1 1_555 1_555
C2 C1 1_555 1_555
C3 C2 1_555 1_555
C4 C3 1_555 1_555
H2 C4 1_555 1_555
C5 C4 1_555 1_555
H3 C5 1_555 1_555
C6 C5 1_555 1_555
C7 C6 1_555 1_555
C8 C3 1_555 1_555
H4 C8 1_555 1_555
C9 C6 1_555 1_555
C10 C9 1_555 1_555
H5 C10 1_555 1_555
C11 C10 1_555 1_555
H6 C11 1_555 1_555
C12 C11 1_555 1_555
C13 C12 1_555 1_555
H7 C13 1_555 1_555
C14 C9 1_555 1_555
C15 C12 1_555 1_555
C16 C15 1_555 1_555
H8 C16 1_555 1_555
C17 H9 1_555 1_555
H10 C17 1_555 1_555
C18 C17 1_555 1_555
H11 C18 1_555 1_555
H12 C18 1_555 1_555
C19 C18 1_555 1_555
H13 C19 1_555 1_555
H14 C19 1_555 1_555
C20 C19 1_555 1_555
H15 C20 1_555 1_555
H16 C20 1_555 1_555
H17 C20 1_555 1_555
N1 C7 1_555 1_555
C21 H18 1_555 1_555
C22 C21 1_555 1_555
C23 C22 1_555 1_555
C24 C23 1_555 1_555
H19 C24 1_555 1_555
C25 C24 1_555 1_555
H20 C25 1_555 1_555
C26 C25 1_555 1_555
C27 C26 1_555 1_555
C28 C23 1_555 1_555
H21 C28 1_555 1_555
C29 C26 1_555 1_555
C30 C29 1_555 1_555
H22 C30 1_555 1_555
C31 C30 1_555 1_555
H23 C31 1_555 1_555
C32 C31 1_555 1_555
C33 C32 1_555 1_555
H24 C33 1_555 1_555
C34 C29 1_555 1_555
C35 C32 1_555 1_555
C36 C35 1_555 1_555
H25 C36 1_555 1_555
C37 H26 1_555 1_555
H27 C37 1_555 1_555
C38 C37 1_555 1_555
H28 C38 1_555 1_555
H29 C38 1_555 1_555
C39 C38 1_555 1_555
H30 C39 1_555 1_555
H31 C39 1_555 1_555
C40 C39 1_555 1_555
H32 C40 1_555 1_555
H33 C40 1_555 1_555
H34 C40 1_555 1_555
N2 C27 1_555 1_555
C7 C8 1_555 1_555
C13 C14 1_555 1_555
C14 N1 1_555 1_555
C17 N1 1_555 1_555
C27 C28 1_555 1_555
C33 C34 1_555 1_555
C34 N2 1_555 1_555
C37 N2 1_555 1_555

#END
