
#######################################################################
#
#                 Cambridge Crystallographic Data Centre
#                                CCDC 
#
#######################################################################
#
# If this CIF has been generated from an entry in the Cambridge 
# Structural Database, then it will include bibliographic, chemical, 
# crystal, experimental, refinement or atomic coordinate data resulting 
# from the CCDC's data processing and validation procedures.
#
#######################################################################

data_YIQZIK
_chemical_formula_moiety         'C20 H14 N2 O3 S1,0.2(C1 H2 Cl2)'
_chemical_name_systematic        
"4,9-dihydroxy-1'-methyl-3-sulfanylidene-2,3-dihydrospiro[benzo[f]isoindole-1,3'-indol]-2'(1'H)-one dichloromethane unknown solvate"
_symmetry_cell_setting           monoclinic
_symmetry_space_group_name_H-M   'P 21'
_symmetry_Int_Tables_number      4
_space_group_name_Hall           'P 2yb'
loop_
_symmetry_equiv_pos_site_id
_symmetry_equiv_pos_as_xyz
1 x,y,z
2 -x,1/2+y,-z
_cell_length_a                   14.7536(4)
_cell_length_b                   20.4278(4)
_cell_length_c                   18.6688(4)
_cell_angle_alpha                90
_cell_angle_beta                 102.0870(10)
_cell_angle_gamma                90
_cell_volume                     5501.74
_exptl_crystal_colour            brown
_exptl_crystal_description       block
_cell_formula_units_Z            10
loop_
_atom_site_label
_atom_site_type_symbol
_atom_site_fract_x
_atom_site_fract_y
_atom_site_fract_z
S1 S 0.94587(11) 0.26976(8) 0.38283(9)
O1 O 0.7674(3) 0.2578(2) 0.2576(2)
H1 H 0.8118 0.2329 0.2623
O2 O 0.7449(3) 0.3290(2) 0.5561(2)
O3 O 0.5691(3) 0.2089(2) 0.4751(2)
H2 H 0.5185 0.2272 0.4664
N1 N 0.8615(4) 0.2354(3) 0.4914(3)
H3 H 0.9127 0.2379 0.5234
N2 N 0.7332(4) 0.2376(3) 0.6244(3)
C1 C 0.7779(4) 0.1556(3) 0.5529(4)
C2 C 0.7621(4) 0.2368(3) 0.3840(3)
C3 C 0.7192(5) 0.2448(3) 0.3091(3)
C4 C 0.7544(4) 0.1698(3) 0.6199(3)
C5 C 0.7491(4) 0.2694(3) 0.5662(3)
C6 C 0.6227(4) 0.2396(3) 0.2892(3)
C7 C 0.7739(4) 0.2189(3) 0.5108(3)
C8 C 0.8569(4) 0.2463(3) 0.4194(3)
C9 C 0.6139(4) 0.2210(3) 0.4195(3)
C10 C 0.7082(4) 0.2236(3) 0.4368(3)
C11 C 0.5688(4) 0.2282(3) 0.3435(3)
C12 C 0.8077(4) 0.0941(3) 0.5388(4)
H4 H 0.8245 0.0850 0.4946
C13 C 0.5758(5) 0.2462(3) 0.2159(4)
H5 H 0.6097 0.2526 0.1797
C14 C 0.8120(5) 0.0456(4) 0.5924(4)
H6 H 0.8313 0.0036 0.5831
C15 C 0.7889(5) 0.0585(4) 0.6572(5)
H7 H 0.7937 0.0254 0.6921
C16 C 0.7570(5) 0.1218(4) 0.6736(4)
H8 H 0.7390 0.1305 0.7175
C17 C 0.4814(5) 0.2433(4) 0.1969(4)
H9 H 0.4520 0.2471 0.1479
C18 C 0.4698(4) 0.2251(3) 0.3215(3)
H10 H 0.4339 0.2167 0.3558
C19 C 0.7062(6) 0.2670(5) 0.6867(4)
H11 H 0.6462 0.2510 0.6905
H12 H 0.7037 0.3137 0.6808
H13 H 0.7506 0.2560 0.7304
C20 C 0.4286(5) 0.2348(4) 0.2495(4)
H14 H 0.3643 0.2356 0.2357
S2 S 0.23112(12) 0.39424(8) 0.25177(8)
O4 O 0.4036(3) 0.2706(2) 0.4702(2)
O5 O 0.5959(3) 0.3961(2) 0.4942(2)
H15 H 0.6440 0.3748 0.4998
O6 O 0.4165(4) 0.4149(2) 0.2017(2)
H16 H 0.3656 0.3970 0.1951
N3 N 0.4115(4) 0.3409(3) 0.5675(3)
N4 N 0.3043(3) 0.3902(3) 0.3959(3)
H17 H 0.2509 0.3874 0.4073
C21 C 0.5556(4) 0.3983(3) 0.4221(3)
C22 C 0.4618(4) 0.3979(3) 0.4032(3)
C23 C 0.4080(4) 0.4084(3) 0.5778(3)
C24 C 0.6088(5) 0.4133(3) 0.2335(4)
H18 H 0.5772 0.4177 0.1851
C25 C 0.4026(4) 0.3254(3) 0.4948(3)
C26 C 0.4133(4) 0.4011(3) 0.3293(3)
C27 C 0.3157(5) 0.3947(3) 0.3270(3)
C28 C 0.3975(4) 0.4414(3) 0.5110(3)
C29 C 0.3947(4) 0.5076(3) 0.5076(3)
H19 H 0.3875 0.5292 0.4629
C30 C 0.6073(5) 0.4043(3) 0.3654(4)
C31 C 0.4608(5) 0.4080(3) 0.2740(3)
C32 C 0.7049(5) 0.4050(3) 0.3801(4)
H20 H 0.7381 0.4036 0.4282
C33 C 0.7029(6) 0.4112(3) 0.2497(4)
H21 H 0.7358 0.4122 0.2123
C34 C 0.3923(4) 0.3903(3) 0.4505(3)
C35 C 0.5587(5) 0.4088(3) 0.2905(3)
C36 C 0.4120(5) 0.5108(3) 0.6393(4)
H22 H 0.4143 0.5351 0.6817
C37 C 0.4175(5) 0.4425(3) 0.6438(4)
H23 H 0.4270 0.4209 0.6886
C38 C 0.7508(6) 0.4076(3) 0.3237(4)
H24 H 0.8153 0.4069 0.3343
C39 C 0.4216(5) 0.2924(3) 0.6261(4)
H25 H 0.4813 0.2973 0.6581
H26 H 0.4162 0.2493 0.6054
H27 H 0.3740 0.2989 0.6535
C40 C 0.4032(5) 0.5429(3) 0.5735(4)
H28 H 0.4029 0.5884 0.5725
S3 S -0.07381(14) 0.51232(9) 0.46948(12)
O7 O 0.2270(3) 0.35793(19) 0.6942(2)
H29 H 0.2460 0.3573 0.7387
O8 O 0.1842(3) 0.3580(2) 0.4834(2)
O9 O 0.0475(4) 0.5916(2) 0.5959(3)
H30 H 0.0005 0.5839 0.5648
N5 N 0.1487(4) 0.2645(3) 0.5400(3)
N6 N 0.0001(3) 0.3952(2) 0.5123(3)
H31 H -0.0386 0.3752 0.4786
C41 C 0.1828(4) 0.4154(3) 0.6743(3)
C42 C 0.1613(5) 0.5353(3) 0.6853(3)
C43 C 0.1428(4) 0.3292(3) 0.5234(4)
C44 C 0.0875(4) 0.2484(3) 0.5855(3)
C45 C 0.0682(4) 0.4750(3) 0.5853(3)
C46 C 0.1148(4) 0.4165(3) 0.6136(3)
C47 C 0.0904(5) 0.5337(3) 0.6205(4)
C48 C 0.0735(4) 0.3607(3) 0.5643(3)
C49 C 0.2085(4) 0.4766(3) 0.7125(3)
C50 C 0.0417(4) 0.3029(3) 0.6034(3)
C51 C -0.0217(5) 0.2972(3) 0.6481(3)
H32 H -0.0533 0.3338 0.6593
C52 C -0.0023(4) 0.4595(3) 0.5215(4)
C53 C 0.2780(5) 0.4797(3) 0.7761(3)
H33 H 0.3084 0.4415 0.7948
C54 C 0.0701(5) 0.1861(3) 0.6127(4)
H34 H 0.1003 0.1490 0.6008
C55 C -0.0374(5) 0.2378(4) 0.6754(4)
H35 H -0.0785 0.2345 0.7069
C56 C 0.2572(6) 0.5962(3) 0.7858(3)
H36 H 0.2731 0.6355 0.8103
C57 C 0.0058(5) 0.1821(4) 0.6579(4)
H37 H -0.0077 0.1417 0.6762
C58 C 0.3023(5) 0.5384(3) 0.8116(4)
H38 H 0.3494 0.5393 0.8534
C59 C 0.1868(5) 0.5941(3) 0.7213(4)
H39 H 0.1572 0.6325 0.7028
C60 C 0.2024(5) 0.2175(4) 0.5098(5)
H40 H 0.2319 0.2387 0.4749
H41 H 0.1624 0.1834 0.4860
H42 H 0.2487 0.1991 0.5484
S4 S 0.75301(16) 0.05401(11) 0.87163(13)
O10 O 0.4042(4) 0.2339(2) 0.7827(2)
H43 H 0.3826 0.2618 0.8059
O11 O 0.4072(5) 0.0935(3) 0.8882(3)
O12 O 0.7827(5) 0.2028(3) 0.8871(4)
H44 H 0.8068 0.2391 0.8937
N7 N 0.5702(4) 0.0591(3) 0.8155(3)
H45 H 0.5642 0.0173 0.8150
N8 N 0.3334(4) 0.0800(3) 0.7680(4)
C61 C 0.4511(4) 0.0946(3) 0.7067(3)
C62 C 0.6301(5) 0.1595(4) 0.8374(4)
C63 C 0.3596(5) 0.0809(3) 0.6990(4)
C64 C 0.6508(5) 0.0884(4) 0.8412(4)
C65 C 0.4911(5) 0.0997(3) 0.6464(4)
H46 H 0.5539 0.1090 0.6518
C66 C 0.5550(6) 0.2845(3) 0.8322(3)
C67 C 0.4958(6) 0.2293(3) 0.8088(3)
C68 C 0.4922(5) 0.1031(3) 0.7884(3)
C69 C 0.4349(5) 0.0906(3) 0.5770(4)
H47 H 0.4602 0.0939 0.5355
C70 C 0.3432(5) 0.0767(4) 0.5699(4)
H48 H 0.3070 0.0708 0.5232
C71 C 0.5184(8) 0.3486(4) 0.8322(4)
H49 H 0.4548 0.3551 0.8173
C72 C 0.6913(6) 0.2094(4) 0.8623(4)
C73 C 0.5366(5) 0.1682(3) 0.8103(3)
C74 C 0.4076(6) 0.0909(3) 0.8229(4)
C75 C 0.6497(7) 0.2746(4) 0.8577(4)
C76 C 0.3012(5) 0.0711(3) 0.6307(4)
H50 H 0.2386 0.0614 0.6257
C77 C 0.5729(9) 0.3988(4) 0.8529(4)
H51 H 0.5478 0.4407 0.8504
C78 C 0.7070(10) 0.3311(5) 0.8812(5)
H52 H 0.7707 0.3265 0.8979
C79 C 0.6671(10) 0.3904(4) 0.8785(5)
H53 H 0.7038 0.4268 0.8943
C80 C 0.2373(7) 0.0729(4) 0.7769(7)
H54 H 0.2046 0.1133 0.7640
H55 H 0.2371 0.0623 0.8269
H56 H 0.2075 0.0385 0.7456
S5 S 0.5556(3) 0.99737(11) -0.01361(12)
O13 O 0.7049(5) 0.8251(3) 0.1645(3)
O14 O 0.6225(5) 0.6959(3) 0.0343(3)
H57 H 0.6267 0.6737 -0.0015
O15 O 0.3835(6) 0.9069(4) -0.0497(3)
H58 H 0.4125 0.9382 -0.0609
N9 N 0.6832(8) 0.9017(4) 0.0239(4)
H59 H 0.7292 0.9284 0.0339
N10 N 0.8096(7) 0.7752(5) 0.1108(4)
C81 C 0.7371(8) 0.8104(4) 0.1110(4)
C82 C 0.5625(7) 0.7477(4) 0.0122(4)
C83 C 0.7620(8) 0.8023(5) -0.0095(4)
C84 C 0.4637(7) 0.7372(4) -0.0116(4)
C85 C 0.7630(9) 0.7995(5) -0.0838(5)
H60 H 0.7181 0.8220 -0.1172
C86 C 0.6922(8) 0.8307(4) 0.0316(4)
C87 C 0.5947(7) 0.8074(4) 0.0104(4)
C88 C 0.5955(8) 0.9208(4) -0.0005(4)
C89 C 0.4233(8) 0.6739(5) -0.0116(4)
H61 H 0.4608 0.6378 0.0039
C90 C 0.4420(9) 0.8556(5) -0.0305(4)
C91 C 0.5387(8) 0.8625(4) -0.0092(4)
C92 C 0.4028(8) 0.7930(5) -0.0329(4)
C93 C 0.3311(10) 0.6659(6) -0.0338(5)
H62 H 0.3061 0.6241 -0.0340
C94 C 0.3105(9) 0.7806(6) -0.0560(5)
H63 H 0.2709 0.8154 -0.0721
C95 C 0.8243(8) 0.7653(6) 0.0401(5)
C96 C 0.2732(8) 0.7177(6) -0.0563(5)
H64 H 0.2097 0.7111 -0.0715
C97 C 0.8289(10) 0.7644(6) -0.1082(6)
H65 H 0.8293 0.7624 -0.1579
C98 C 0.8680(9) 0.7404(8) 0.1761(5)
H66 H 0.8460 0.7514 0.2194
H67 H 0.9314 0.7539 0.1818
H68 H 0.8635 0.6940 0.1683
C99 C 0.8984(11) 0.7260(7) 0.0198(6)
H69 H 0.9412 0.7011 0.0523
C100 C 0.8956(10) 0.7314(9) -0.0574(7)
H70 H 0.9428 0.7110 -0.0750
Cl1 Cl 0.6760(4) 0.58083(19) 0.6341(2)
Cl2 Cl 0.6588(3) 0.45447(17) 0.70505(18)
C101 C 0.6576(11) 0.4947(6) 0.6205(6)
H71 H 0.5985 0.4872 0.5874
H72 H 0.7059 0.4765 0.5982
loop_
_geom_bond_atom_site_label_1
_geom_bond_atom_site_label_2
_geom_bond_site_symmetry_1
_geom_bond_site_symmetry_2
S1 C8 1_555 1_555
O1 H1 1_555 1_555
O2 C5 1_555 1_555
O3 H2 1_555 1_555
N1 H3 1_555 1_555
N2 C4 1_555 1_555
C1 C4 1_555 1_555
C2 C3 1_555 1_555
C3 O1 1_555 1_555
C4 C16 1_555 1_555
C5 N2 1_555 1_555
C6 C3 1_555 1_555
C7 N1 1_555 1_555
C8 N1 1_555 1_555
C9 O3 1_555 1_555
C10 C2 1_555 1_555
C11 C6 1_555 1_555
C12 C1 1_555 1_555
H4 C12 1_555 1_555
C13 C6 1_555 1_555
H5 C13 1_555 1_555
C14 C12 1_555 1_555
H6 C14 1_555 1_555
C15 C14 1_555 1_555
H7 C15 1_555 1_555
C16 C15 1_555 1_555
H8 C16 1_555 1_555
C17 C13 1_555 1_555
H9 C17 1_555 1_555
C18 C11 1_555 1_555
H10 C18 1_555 1_555
C19 N2 1_555 1_555
H11 C19 1_555 1_555
H12 C19 1_555 1_555
H13 C19 1_555 1_555
C20 C17 1_555 1_555
H14 C20 1_555 1_555
S2 C27 1_555 1_555
O4 C25 1_555 1_555
O5 H15 1_555 1_555
O6 H16 1_555 1_555
N3 C23 1_555 1_555
N4 H17 1_555 1_555
C21 O5 1_555 1_555
C22 C21 1_555 1_555
C23 C28 1_555 1_555
C24 H18 1_555 1_555
C25 N3 1_555 1_555
C26 C22 1_555 1_555
C27 N4 1_555 1_555
C28 C29 1_555 1_555
C29 H19 1_555 1_555
C30 C21 1_555 1_555
C31 O6 1_555 1_555
C32 C30 1_555 1_555
H20 C32 1_555 1_555
C33 C24 1_555 1_555
H21 C33 1_555 1_555
C34 N4 1_555 1_555
C35 C24 1_555 1_555
C36 H22 1_555 1_555
C37 C23 1_555 1_555
H23 C37 1_555 1_555
C38 C32 1_555 1_555
H24 C38 1_555 1_555
C39 N3 1_555 1_555
H25 C39 1_555 1_555
H26 C39 1_555 1_555
H27 C39 1_555 1_555
C40 C29 1_555 1_555
H28 C40 1_555 1_555
S3 C52 1_555 1_555
O7 H29 1_555 1_555
O8 C43 1_555 1_555
O9 H30 1_555 1_555
N5 C43 1_555 1_555
N6 H31 1_555 1_555
C41 O7 1_555 1_555
C42 C47 1_555 1_555
C43 C48 1_555 1_555
C44 N5 1_555 1_555
C45 C46 1_555 1_555
C46 C41 1_555 1_555
C47 O9 1_555 1_555
C48 N6 1_555 1_555
C49 C41 1_555 1_555
C50 C44 1_555 1_555
C51 C50 1_555 1_555
H32 C51 1_555 1_555
C52 N6 1_555 1_555
C53 C49 1_555 1_555
H33 C53 1_555 1_555
C54 C44 1_555 1_555
H34 C54 1_555 1_555
C55 C51 1_555 1_555
H35 C55 1_555 1_555
C56 H36 1_555 1_555
C57 C54 1_555 1_555
H37 C57 1_555 1_555
C58 C53 1_555 1_555
H38 C58 1_555 1_555
C59 C42 1_555 1_555
H39 C59 1_555 1_555
C60 N5 1_555 1_555
H40 C60 1_555 1_555
H41 C60 1_555 1_555
H42 C60 1_555 1_555
S4 C64 1_555 1_555
O10 H43 1_555 1_555
O11 C74 1_555 1_555
O12 H44 1_555 1_555
N7 H45 1_555 1_555
N8 C63 1_555 1_555
C61 C63 1_555 1_555
C62 C64 1_555 1_555
C63 C76 1_555 1_555
C64 N7 1_555 1_555
C65 C61 1_555 1_555
H46 C65 1_555 1_555
C66 C67 1_555 1_555
C67 O10 1_555 1_555
C68 N7 1_555 1_555
C69 C65 1_555 1_555
H47 C69 1_555 1_555
C70 C69 1_555 1_555
H48 C70 1_555 1_555
C71 C66 1_555 1_555
H49 C71 1_555 1_555
C72 O12 1_555 1_555
C73 C62 1_555 1_555
C74 N8 1_555 1_555
C75 C66 1_555 1_555
C76 C70 1_555 1_555
H50 C76 1_555 1_555
C77 C71 1_555 1_555
H51 C77 1_555 1_555
C78 C75 1_555 1_555
H52 C78 1_555 1_555
C79 C77 1_555 1_555
H53 C79 1_555 1_555
C80 N8 1_555 1_555
H54 C80 1_555 1_555
H55 C80 1_555 1_555
H56 C80 1_555 1_555
S5 C88 1_555 1_555
O13 C81 1_555 1_555
O14 H57 1_555 1_555
O15 H58 1_555 1_555
N9 H59 1_555 1_555
N10 C81 1_555 1_555
C81 C86 1_555 1_555
C82 O14 1_555 1_555
C83 C85 1_555 1_555
C84 C82 1_555 1_555
C85 H60 1_555 1_555
C86 N9 1_555 1_555
C87 C82 1_555 1_555
C88 N9 1_555 1_555
C89 C84 1_555 1_555
H61 C89 1_555 1_555
C90 O15 1_555 1_555
C91 C87 1_555 1_555
C92 C84 1_555 1_555
C93 C89 1_555 1_555
H62 C93 1_555 1_555
C94 C92 1_555 1_555
H63 C94 1_555 1_555
C95 N10 1_555 1_555
C96 C93 1_555 1_555
H64 C96 1_555 1_555
C97 C85 1_555 1_555
H65 C97 1_555 1_555
C98 N10 1_555 1_555
H66 C98 1_555 1_555
H67 C98 1_555 1_555
H68 C98 1_555 1_555
C99 C95 1_555 1_555
H69 C99 1_555 1_555
C100 C97 1_555 1_555
H70 C100 1_555 1_555
Cl1 C101 1_555 1_555
Cl2 C101 1_555 1_555
C101 H71 1_555 1_555
H72 C101 1_555 1_555
C1 C7 1_555 1_555
C2 C8 1_555 1_555
C5 C7 1_555 1_555
C7 C10 1_555 1_555
C9 C10 1_555 1_555
C9 C11 1_555 1_555
C18 C20 1_555 1_555
C22 C34 1_555 1_555
C25 C34 1_555 1_555
C26 C27 1_555 1_555
C26 C31 1_555 1_555
C28 C34 1_555 1_555
C30 C35 1_555 1_555
C31 C35 1_555 1_555
C33 C38 1_555 1_555
C36 C37 1_555 1_555
C36 C40 1_555 1_555
C42 C49 1_555 1_555
C45 C47 1_555 1_555
C45 C52 1_555 1_555
C46 C48 1_555 1_555
C48 C50 1_555 1_555
C55 C57 1_555 1_555
C56 C58 1_555 1_555
C56 C59 1_555 1_555
C61 C68 1_555 1_555
C62 C72 1_555 1_555
C67 C73 1_555 1_555
C68 C73 1_555 1_555
C68 C74 1_555 1_555
C72 C75 1_555 1_555
C78 C79 1_555 1_555
C83 C86 1_555 1_555
C83 C95 1_555 1_555
C86 C87 1_555 1_555
C88 C91 1_555 1_555
C90 C91 1_555 1_555
C90 C92 1_555 1_555
C94 C96 1_555 1_555
C99 C100 1_555 1_555

#END
