
#######################################################################
#
#                 Cambridge Crystallographic Data Centre
#                                CCDC 
#
#######################################################################
#
# If this CIF has been generated from an entry in the Cambridge 
# Structural Database, then it will include bibliographic, chemical, 
# crystal, experimental, refinement or atomic coordinate data resulting 
# from the CCDC's data processing and validation procedures.
#
#######################################################################

data_YIRBIL01
_chemical_name_common            
"N'-(4-(Diethylamino)benzylidene)pyrazine-2-carbohydrazide dihydrate"
_chemical_formula_moiety         'C16 H19 N5 O1,2(H2 O1)'
_chemical_name_systematic        
'4-Diethylaminobenzaldehyde (pyrazin-2-ylcarbonyl)hydrazone dihydrate'
_symmetry_cell_setting           monoclinic
_symmetry_space_group_name_H-M   'P 21/c'
_symmetry_Int_Tables_number      14
_space_group_name_Hall           '-P 2ybc'
loop_
_symmetry_equiv_pos_site_id
_symmetry_equiv_pos_as_xyz
1 x,y,z
2 -x,1/2+y,1/2-z
3 -x,-y,-z
4 x,1/2-y,1/2+z
_cell_length_a                   13.2169(3)
_cell_length_b                   10.7726(2)
_cell_length_c                   12.6585(3)
_cell_angle_alpha                90
_cell_angle_beta                 109.4742(13)
_cell_angle_gamma                90
_cell_volume                     1699.21
_exptl_crystal_colour            yellow
_exptl_crystal_description       block
_cell_formula_units_Z            4
loop_
_atom_site_label
_atom_site_type_symbol
_atom_site_fract_x
_atom_site_fract_y
_atom_site_fract_z
O1 O 0.33637(8) 0.41153(9) 0.61299(8)
N1 N 0.42275(9) 0.76806(10) 0.54687(10)
N2 N 0.38560(9) 0.57523(10) 0.39038(9)
N3 N 0.32861(9) 0.34678(10) 0.43931(9)
H5 H 0.3392 0.3646 0.3759
N4 N 0.29453(9) 0.22896(10) 0.45825(9)
N5 N 0.07783(10) -0.31447(11) 0.35231(10)
C1 C 0.37525(10) 0.55883(12) 0.49122(11)
C2 C 0.39361(11) 0.65410(12) 0.56862(12)
H6 H 0.3854 0.6384 0.6392
C3 C 0.43233(10) 0.78460(12) 0.44652(12)
H7 H 0.4525 0.8639 0.4274
C4 C 0.41355(11) 0.68879(13) 0.36890(12)
H8 H 0.4209 0.7048 0.2980
C5 C 0.34482(10) 0.43200(12) 0.52008(11)
C6 C 0.28281(10) 0.15169(12) 0.37771(11)
H9 H 0.3031 0.1762 0.3155
C7 C 0.23940(10) 0.02778(12) 0.37882(11)
C8 C 0.20812(10) -0.01701(12) 0.46727(11)
H10 H 0.2226 0.0311 0.5336
C9 C 0.15675(11) -0.12971(13) 0.45962(11)
H11 H 0.1366 -0.1577 0.5210
C10 C 0.13321(10) -0.20476(12) 0.36256(11)
C11 C 0.16911(11) -0.16103(12) 0.27608(11)
H12 H 0.1581 -0.2104 0.2110
C12 C 0.22000(10) -0.04760(12) 0.28436(11)
H13 H 0.2423 -0.0202 0.2243
C13 C 0.03658(11) -0.37986(13) 0.24524(12)
H14 H 0.0231 -0.3187 0.1837
H15 H -0.0330 -0.4186 0.2394
C14 C 0.11145(13) -0.47931(15) 0.22972(14)
H16 H 0.1797 -0.4414 0.2326
H17 H 0.0787 -0.5198 0.1569
H18 H 0.1244 -0.5411 0.2896
C15 C 0.04127(12) -0.36086(13) 0.44153(13)
H19 H 0.0986 -0.3472 0.5144
H20 H 0.0292 -0.4515 0.4318
C16 C -0.06185(13) -0.29937(15) 0.44472(14)
H21 H -0.0493 -0.2104 0.4594
H22 H -0.0836 -0.3371 0.5043
H23 H -0.1188 -0.3112 0.3725
O2 O 0.50229(9) 0.48050(10) 0.81632(9)
H1 H 0.5293(19) 0.410(2) 0.859(2)
H2 H 0.451(2) 0.455(2) 0.754(2)
O3 O 0.64459(10) 0.65600(11) 0.78113(9)
H3 H 0.6031(15) 0.5939(19) 0.7969(16)
H4 H 0.6602(16) 0.706(2) 0.8384(18)
loop_
_geom_bond_atom_site_label_1
_geom_bond_atom_site_label_2
_geom_bond_site_symmetry_1
_geom_bond_site_symmetry_2
O1 C5 1_555 1_555
O2 H1 1_555 1_555
H2 O2 1_555 1_555
O3 H3 1_555 1_555
H4 O3 1_555 1_555
N1 C2 1_555 1_555
N2 C1 1_555 1_555
N3 H5 1_555 1_555
N4 N3 1_555 1_555
N5 C10 1_555 1_555
C1 C2 1_555 1_555
C2 H6 1_555 1_555
C3 N1 1_555 1_555
H7 C3 1_555 1_555
C4 N2 1_555 1_555
H8 C4 1_555 1_555
C5 N3 1_555 1_555
C6 N4 1_555 1_555
H9 C6 1_555 1_555
C7 C6 1_555 1_555
C8 C7 1_555 1_555
H10 C8 1_555 1_555
C9 C8 1_555 1_555
H11 C9 1_555 1_555
C10 C9 1_555 1_555
C11 C10 1_555 1_555
H12 C11 1_555 1_555
C12 C7 1_555 1_555
H13 C12 1_555 1_555
C13 N5 1_555 1_555
H14 C13 1_555 1_555
H15 C13 1_555 1_555
C14 C13 1_555 1_555
H16 C14 1_555 1_555
H17 C14 1_555 1_555
H18 C14 1_555 1_555
C15 N5 1_555 1_555
H19 C15 1_555 1_555
H20 C15 1_555 1_555
C16 C15 1_555 1_555
H21 C16 1_555 1_555
H22 C16 1_555 1_555
H23 C16 1_555 1_555
C1 C5 1_555 1_555
C3 C4 1_555 1_555
C11 C12 1_555 1_555

#END
