
#######################################################################
#
#                 Cambridge Crystallographic Data Centre
#                                CCDC 
#
#######################################################################
#
# If this CIF has been generated from an entry in the Cambridge 
# Structural Database, then it will include bibliographic, chemical, 
# crystal, experimental, refinement or atomic coordinate data resulting 
# from the CCDC's data processing and validation procedures.
#
#######################################################################

data_YIRGOW
_chemical_formula_moiety         'C28 H16 N2 O5'
_chemical_name_systematic        N,N'-(Oxydi-p-phenylene)diphthalimide
_symmetry_cell_setting           orthorhombic
_symmetry_space_group_name_H-M   'P 21 21 21'
_symmetry_Int_Tables_number      19
_space_group_name_Hall           'P 2ac 2ab'
loop_
_symmetry_equiv_pos_site_id
_symmetry_equiv_pos_as_xyz
1 x,y,z
2 1/2-x,-y,1/2+z
3 -x,1/2+y,1/2-z
4 1/2+x,1/2-y,-z
_cell_length_a                   7.5059(11)
_cell_length_b                   16.480(3)
_cell_length_c                   17.551(3)
_cell_angle_alpha                90
_cell_angle_beta                 90
_cell_angle_gamma                90
_cell_volume                     2171.01
_exptl_crystal_colour            colorless
_exptl_crystal_description       block
_cell_formula_units_Z            4
_exptl_crystal_recrystallization_method dimethylformamide
loop_
_atom_site_label
_atom_site_type_symbol
_atom_site_fract_x
_atom_site_fract_y
_atom_site_fract_z
C1 C 0.8558(3) 0.62700(13) 1.04648(13)
C2 C 0.9322(4) 0.70185(14) 1.05712(13)
H1 H 0.9588 0.7202 1.1059
C3 C 0.9691(4) 0.74958(14) 0.99444(15)
H2 H 1.0231 0.7999 1.0009
C4 C 0.9259(3) 0.72283(12) 0.92192(12)
C5 C 0.8447(4) 0.64854(13) 0.91224(12)
H3 H 0.8124 0.6313 0.8637
C6 C 0.8115(4) 0.59984(13) 0.97454(13)
H4 H 0.7595 0.5491 0.9681
C7 C 0.9251(4) 0.85440(13) 0.84975(13)
C8 C 1.0414(4) 0.74006(15) 0.78915(14)
C9 C 0.9801(3) 0.87704(15) 0.77128(14)
C10 C 1.0480(3) 0.80952(15) 0.73544(13)
C11 C 1.1046(4) 0.81216(19) 0.66035(15)
H5 H 1.1511 0.7665 0.6363
C12 C 1.0891(5) 0.8850(2) 0.62283(15)
H6 H 1.1250 0.8886 0.5722
C13 C 1.0219(4) 0.9526(2) 0.65846(17)
H7 H 1.0131 1.0009 0.6313
C14 C 0.9667(4) 0.95066(17) 0.73407(16)
H8 H 0.9228 0.9966 0.7584
C15 C 0.8345(4) 0.49870(14) 1.10677(13)
C16 C 0.6860(4) 0.45102(17) 1.11019(18)
H9 H 0.5730 0.4742 1.1105
C17 C 0.7065(4) 0.36759(17) 1.11325(19)
H10 H 0.6066 0.3343 1.1156
C18 C 0.8727(4) 0.33395(13) 1.11278(13)
C19 C 1.0208(4) 0.38264(17) 1.1071(2)
H11 H 1.1340 0.3598 1.1052
C20 C 0.9999(4) 0.46591(17) 1.1043(2)
H12 H 1.0993 0.4994 1.1006
C21 C 0.9359(4) 0.20766(15) 1.18659(14)
C22 C 0.8648(4) 0.19351(15) 1.05848(15)
C23 C 0.9404(4) 0.12045(15) 1.16640(15)
C24 C 0.8952(4) 0.11189(15) 1.09096(15)
C25 C 0.8777(5) 0.03623(17) 1.0583(2)
H13 H 0.8460 0.0300 1.0074
C26 C 0.9095(6) -0.03000(18) 1.1046(3)
H14 H 0.8972 -0.0819 1.0844
C27 C 0.9587(6) -0.0216(2) 1.1793(3)
H15 H 0.9808 -0.0676 1.2085
C28 C 0.9758(5) 0.05402(19) 1.2116(2)
H16 H 1.0101 0.0601 1.2622
N1 N 0.9654(3) 0.77149(11) 0.85670(10)
N2 N 0.8933(3) 0.24810(11) 1.11843(11)
O1 O 0.8144(3) 0.58251(10) 1.11128(10)
O2 O 0.8594(3) 0.89603(10) 0.89869(11)
O3 O 1.0881(3) 0.67169(11) 0.77944(11)
O4 O 0.9586(4) 0.24056(13) 1.24656(11)
O5 O 0.8234(4) 0.21334(12) 0.99506(11)
loop_
_geom_bond_atom_site_label_1
_geom_bond_atom_site_label_2
_geom_bond_site_symmetry_1
_geom_bond_site_symmetry_2
C1 C2 1_555 1_555
C2 H1 1_555 1_555
C3 C2 1_555 1_555
H2 C3 1_555 1_555
C4 C3 1_555 1_555
C5 C4 1_555 1_555
H3 C5 1_555 1_555
C6 C1 1_555 1_555
H4 C6 1_555 1_555
C7 C9 1_555 1_555
C8 C10 1_555 1_555
C9 C10 1_555 1_555
C10 C11 1_555 1_555
C11 H5 1_555 1_555
C12 C11 1_555 1_555
H6 C12 1_555 1_555
C13 C12 1_555 1_555
H7 C13 1_555 1_555
C14 C9 1_555 1_555
H8 C14 1_555 1_555
C15 C16 1_555 1_555
C16 H9 1_555 1_555
C17 C16 1_555 1_555
H10 C17 1_555 1_555
C18 C17 1_555 1_555
C19 C18 1_555 1_555
H11 C19 1_555 1_555
C20 C15 1_555 1_555
H12 C20 1_555 1_555
C21 C23 1_555 1_555
C22 C24 1_555 1_555
C23 C24 1_555 1_555
C24 C25 1_555 1_555
C25 H13 1_555 1_555
C26 C25 1_555 1_555
H14 C26 1_555 1_555
C27 C26 1_555 1_555
H15 C27 1_555 1_555
C28 C23 1_555 1_555
H16 C28 1_555 1_555
N1 C4 1_555 1_555
N2 C18 1_555 1_555
O1 C1 1_555 1_555
O2 C7 1_555 1_555
O3 C8 1_555 1_555
O4 C21 1_555 1_555
O5 C22 1_555 1_555
C5 C6 1_555 1_555
C7 N1 1_555 1_555
C8 N1 1_555 1_555
C13 C14 1_555 1_555
C15 O1 1_555 1_555
C19 C20 1_555 1_555
C21 N2 1_555 1_555
C22 N2 1_555 1_555
C27 C28 1_555 1_555

#END
