
#######################################################################
#
#                 Cambridge Crystallographic Data Centre
#                                CCDC 
#
#######################################################################
#
# If this CIF has been generated from an entry in the Cambridge 
# Structural Database, then it will include bibliographic, chemical, 
# crystal, experimental, refinement or atomic coordinate data resulting 
# from the CCDC's data processing and validation procedures.
#
#######################################################################

data_YIRHEN
_chemical_formula_moiety         'C17 H15 N5 O3 S1'
_chemical_name_systematic        
'Ethyl 5-(6-(furan-2-yl)-1,2,4-triazolo(3,4-b)(1,3,4)thiadiazol-3-yl)-2,6-dimethylnicotinate'
_symmetry_cell_setting           triclinic
_symmetry_space_group_name_H-M   'P -1'
_symmetry_Int_Tables_number      2
_space_group_name_Hall           '-P 1'
loop_
_symmetry_equiv_pos_site_id
_symmetry_equiv_pos_as_xyz
1 x,y,z
2 -x,-y,-z
_cell_length_a                   8.094(4)
_cell_length_b                   10.535(5)
_cell_length_c                   10.996(5)
_cell_angle_alpha                66.699(5)
_cell_angle_beta                 73.683(5)
_cell_angle_gamma                80.998(5)
_cell_volume                     825.379
_exptl_crystal_colour            brown
_exptl_crystal_description       block
_chemical_melting_point          '501-502 K'
_cell_formula_units_Z            2
_exptl_crystal_recrystallization_method chloroform
loop_
_atom_site_label
_atom_site_type_symbol
_atom_site_fract_x
_atom_site_fract_y
_atom_site_fract_z
N1 N 0.82163(19) 0.64436(15) -0.06646(15)
N2 N 0.6722(2) 0.25738(17) -0.06479(16)
N3 N 0.5890(2) 0.13509(17) -0.02295(17)
N4 N 0.54173(18) 0.20294(14) 0.15000(14)
N5 N 0.46583(19) 0.19007(14) 0.28238(15)
O1 O 0.19535(18) -0.07982(13) 0.53282(14)
O2 O 0.7628(2) 0.63716(16) 0.33760(15)
O3 O 0.7023(2) 0.41744(14) 0.41061(14)
S1 S 0.37936(6) -0.01525(5) 0.23778(5)
C1 C 0.8076(2) 0.65217(18) 0.05519(19)
C2 C 0.7476(2) 0.54134(18) 0.17662(18)
C3 C 0.6956(2) 0.42634(18) 0.16808(18)
H1 H 0.6540 0.3523 0.2477
C4 C 0.7047(2) 0.42024(17) 0.04290(18)
C5 C 0.7739(2) 0.53224(18) -0.07487(18)
C6 C 0.8008(3) 0.5362(2) -0.21624(19)
H2 H 0.8492 0.6220 -0.2808
H3 H 0.6922 0.5286 -0.2315
H4 H 0.8782 0.4604 -0.2274
C7 C 0.8615(3) 0.7848(2) 0.0491(2)
H5 H 0.8978 0.8454 -0.0444
H6 H 0.9552 0.7655 0.0925
H7 H 0.7660 0.8284 0.0955
C8 C 0.7393(2) 0.54110(19) 0.31403(19)
C9 C 0.6430(2) 0.29802(18) 0.03893(18)
C10 C 0.5122(2) 0.10682(18) 0.10579(19)
C11 C 0.3772(2) 0.07975(17) 0.33896(18)
C12 C 0.2798(2) 0.04004(17) 0.47908(18)
C13 C 0.2505(3) 0.0984(2) 0.5722(2)
H8 H 0.2936 0.1803 0.5607
C14 C 0.1413(3) 0.0111(2) 0.6913(2)
H9 H 0.0985 0.0245 0.7734
C15 C 0.1114(3) -0.0941(2) 0.6634(2)
H10 H 0.0428 -0.1670 0.7245
C16 C 0.7021(3) 0.3943(2) 0.5502(2)
H11 H 0.6072 0.3378 0.6130
H12 H 0.6864 0.4822 0.5622
C17 C 0.8677(3) 0.3237(2) 0.5807(2)
H13 H 0.8826 0.2366 0.5692
H14 H 0.8664 0.3083 0.6730
H15 H 0.9611 0.3807 0.5195
loop_
_geom_bond_atom_site_label_1
_geom_bond_atom_site_label_2
_geom_bond_site_symmetry_1
_geom_bond_site_symmetry_2
N1 C1 1_555 1_555
N2 N3 1_555 1_555
N3 C10 1_555 1_555
N4 N5 1_555 1_555
N5 C11 1_555 1_555
O1 C12 1_555 1_555
O2 C8 1_555 1_555
O3 C8 1_555 1_555
S1 C10 1_555 1_555
C1 C2 1_555 1_555
C2 C3 1_555 1_555
C3 H1 1_555 1_555
C4 C3 1_555 1_555
C5 N1 1_555 1_555
C6 C5 1_555 1_555
H2 C6 1_555 1_555
H3 C6 1_555 1_555
H4 C6 1_555 1_555
C7 C1 1_555 1_555
H5 C7 1_555 1_555
H6 C7 1_555 1_555
H7 C7 1_555 1_555
C8 C2 1_555 1_555
C9 N2 1_555 1_555
C10 N4 1_555 1_555
C11 S1 1_555 1_555
C12 C11 1_555 1_555
C13 C12 1_555 1_555
H8 C13 1_555 1_555
C14 C13 1_555 1_555
H9 C14 1_555 1_555
C15 O1 1_555 1_555
H10 C15 1_555 1_555
C16 O3 1_555 1_555
H11 C16 1_555 1_555
H12 C16 1_555 1_555
C17 C16 1_555 1_555
H13 C17 1_555 1_555
H14 C17 1_555 1_555
H15 C17 1_555 1_555
N4 C9 1_555 1_555
C4 C5 1_555 1_555
C4 C9 1_555 1_555
C14 C15 1_555 1_555

#END
