
#######################################################################
#
#                 Cambridge Crystallographic Data Centre
#                                CCDC 
#
#######################################################################
#
# If this CIF has been generated from an entry in the Cambridge 
# Structural Database, then it will include bibliographic, chemical, 
# crystal, experimental, refinement or atomic coordinate data resulting 
# from the CCDC's data processing and validation procedures.
#
#######################################################################

data_YIRKIV
_chemical_formula_moiety         'C11 H7 N5'
_chemical_name_systematic        
5-Amino[1,2,3]triazolo[5,1-a]isoquinoline-6-carbonitrile
_symmetry_cell_setting           monoclinic
_symmetry_space_group_name_H-M   'P 21/c'
_symmetry_Int_Tables_number      14
_space_group_name_Hall           '-P 2ybc'
loop_
_symmetry_equiv_pos_site_id
_symmetry_equiv_pos_as_xyz
1 x,y,z
2 -x,1/2+y,1/2-z
3 -x,-y,-z
4 x,1/2-y,1/2+z
_cell_length_a                   7.2363(14)
_cell_length_b                   8.0680(15)
_cell_length_c                   17.736(3)
_cell_angle_alpha                90
_cell_angle_beta                 113.780(7)
_cell_angle_gamma                90
_cell_volume                     947.56
_exptl_crystal_colour            colorless
_exptl_crystal_description       block
_cell_formula_units_Z            4
loop_
_atom_site_label
_atom_site_type_symbol
_atom_site_fract_x
_atom_site_fract_y
_atom_site_fract_z
C1 C 0.7877(4) 0.2453(3) 0.62835(14)
H1 H 0.7319 0.1396 0.6210
C2 C 0.7639(3) 0.3561(3) 0.56628(14)
C3 C 0.6643(3) 0.3614(3) 0.47813(13)
C4 C 0.6834(3) 0.5071(3) 0.43841(13)
C5 C 0.8011(3) 0.6443(3) 0.48719(13)
C6 C 0.8953(3) 0.6387(3) 0.57211(13)
C7 C 0.8179(4) 0.7936(3) 0.44815(14)
C8 C 0.5842(4) 0.5153(3) 0.35244(14)
H2 H 0.5965 0.6101 0.3250
C9 C 0.4694(4) 0.3854(3) 0.30837(15)
H3 H 0.4027 0.3937 0.2514
C10 C 0.4515(4) 0.2410(3) 0.34788(16)
H4 H 0.3739 0.1532 0.3174
C11 C 0.5484(4) 0.2290(3) 0.43171(15)
H5 H 0.5374 0.1323 0.4581
N1 N 0.9040(3) 0.3134(3) 0.70140(12)
N2 N 0.9588(3) 0.4631(2) 0.69059(11)
N3 N 0.8728(3) 0.4901(2) 0.60787(10)
N4 N 1.0023(3) 0.7560(2) 0.62283(11)
H6 H 1.0198 0.8498 0.6036
H7 H 1.0545 0.7387 0.6751
N5 N 0.8318(4) 0.9135(3) 0.41680(13)
loop_
_geom_bond_atom_site_label_1
_geom_bond_atom_site_label_2
_geom_bond_site_symmetry_1
_geom_bond_site_symmetry_2
C1 H1 1_555 1_555
C2 C1 1_555 1_555
C3 C2 1_555 1_555
C4 C3 1_555 1_555
C5 C4 1_555 1_555
C6 C5 1_555 1_555
C7 C5 1_555 1_555
C8 C4 1_555 1_555
H2 C8 1_555 1_555
C9 C8 1_555 1_555
H3 C9 1_555 1_555
C10 C9 1_555 1_555
H4 C10 1_555 1_555
C11 C3 1_555 1_555
H5 C11 1_555 1_555
N1 C1 1_555 1_555
N2 N1 1_555 1_555
N3 C2 1_555 1_555
N4 C6 1_555 1_555
H6 N4 1_555 1_555
H7 N4 1_555 1_555
N5 C7 1_555 1_555
C6 N3 1_555 1_555
C10 C11 1_555 1_555
N2 N3 1_555 1_555

#END
