
#######################################################################
#
#                 Cambridge Crystallographic Data Centre
#                                CCDC 
#
#######################################################################
#
# If this CIF has been generated from an entry in the Cambridge 
# Structural Database, then it will include bibliographic, chemical, 
# crystal, experimental, refinement or atomic coordinate data resulting 
# from the CCDC's data processing and validation procedures.
#
#######################################################################

data_YIRNAQ
_chemical_formula_moiety         'C25 H19 Br1 Cl1 N1 O4 S1'
_chemical_name_systematic        
'(3-Bromo-2-chloro-5-(2-nitrophenyl)tetrahydro-2H-thiopyran-2,6-diyl)bis(phenylmethanone) unknown solvate'
_symmetry_cell_setting           monoclinic
_symmetry_space_group_name_H-M   'P 21'
_symmetry_Int_Tables_number      4
_space_group_name_Hall           'P 2yb'
loop_
_symmetry_equiv_pos_site_id
_symmetry_equiv_pos_as_xyz
1 x,y,z
2 -x,1/2+y,-z
_cell_length_a                   12.933(3)
_cell_length_b                   6.1668(13)
_cell_length_c                   17.271(4)
_cell_angle_alpha                90
_cell_angle_beta                 104.696(4)
_cell_angle_gamma                90
_cell_volume                     1332.39
_exptl_crystal_colour            colorless
_exptl_crystal_description       block
_cell_formula_units_Z            2
loop_
_atom_site_label
_atom_site_type_symbol
_atom_site_fract_x
_atom_site_fract_y
_atom_site_fract_z
Br1 Br 0.37321(4) 1.08838(9) 0.88611(3)
Cl1 Cl 0.30857(9) 0.53401(16) 0.71128(6)
S1 S 0.43091(9) 0.9431(2) 0.70625(7)
N1 N 0.7267(4) 0.9448(8) 0.9985(2)
O1 O 0.6948(3) 1.0201(7) 0.7600(2)
O2 O 0.6356(3) 0.9947(7) 0.9950(2)
O3 O 0.8031(4) 1.0465(9) 1.0388(3)
O4 O 0.2281(3) 1.0761(8) 0.6681(2)
C1 C 0.5498(4) 0.7831(8) 0.7531(3)
H1 H 0.5394 0.6306 0.7349
C2 C 0.5729(4) 0.7934(8) 0.8445(3)
H2 H 0.5789 0.9476 0.8610
C3 C 0.4823(4) 0.6900(9) 0.8735(3)
H3 H 0.4775 0.5366 0.8582
H4 H 0.5005 0.6968 0.9320
C4 C 0.3737(4) 0.7929(8) 0.8415(3)
H5 H 0.3209 0.7050 0.8604
C5 C 0.3348(4) 0.8108(8) 0.7505(3)
C6 C 0.6355(4) 0.8888(9) 0.7198(3)
C7 C 0.6393(4) 0.8421(10) 0.6361(3)
C8 C 0.5923(5) 0.6600(10) 0.5946(3)
H6 H 0.5553 0.5606 0.6189
C9 C 0.6004(5) 0.6256(13) 0.5167(3)
H7 H 0.5720 0.4988 0.4892
C10 C 0.6506(6) 0.7793(14) 0.4792(4)
H8 H 0.6546 0.7571 0.4262
C11 C 0.6939(6) 0.9609(14) 0.5194(4)
H9 H 0.7271 1.0642 0.4937
C12 C 0.6894(5) 0.9950(11) 0.5979(4)
H10 H 0.7199 1.1204 0.6253
C13 C 0.6773(4) 0.6784(8) 0.8855(3)
C14 C 0.7484(4) 0.7514(9) 0.9547(3)
C15 C 0.8432(4) 0.6422(10) 0.9909(3)
H11 H 0.8897 0.6986 1.0374
C16 C 0.8675(5) 0.4549(12) 0.9585(4)
H12 H 0.9300 0.3783 0.9833
C17 C 0.7999(5) 0.3771(11) 0.8888(3)
H13 H 0.8176 0.2498 0.8651
C18 C 0.7064(4) 0.4861(9) 0.8538(3)
H14 H 0.6607 0.4288 0.8071
C19 C 0.2295(4) 0.9385(9) 0.7194(3)
C20 C 0.1343(4) 0.9025(9) 0.7513(3)
C21 C 0.0618(4) 1.0747(13) 0.7407(3)
H15 H 0.0745 1.2025 0.7150
C22 C -0.0290(5) 1.0545(14) 0.7687(4)
H16 H -0.0772 1.1712 0.7627
C23 C -0.0506(5) 0.8638(15) 0.8058(4)
H17 H -0.1131 0.8517 0.8238
C24 C 0.0211(4) 0.6934(13) 0.8157(4)
H18 H 0.0079 0.5648 0.8407
C25 C 0.1128(4) 0.7138(11) 0.7882(3)
H19 H 0.1613 0.5975 0.7948
loop_
_geom_bond_atom_site_label_1
_geom_bond_atom_site_label_2
_geom_bond_site_symmetry_1
_geom_bond_site_symmetry_2
Br1 C4 1_555 1_555
Cl1 C5 1_555 1_555
S1 C1 1_555 1_555
N1 O2 1_555 1_555
O1 C6 1_555 1_555
O3 N1 1_555 1_555
O4 C19 1_555 1_555
C1 H1 1_555 1_555
C2 C1 1_555 1_555
H2 C2 1_555 1_555
C3 C2 1_555 1_555
H3 C3 1_555 1_555
H4 C3 1_555 1_555
C4 C3 1_555 1_555
H5 C4 1_555 1_555
C5 S1 1_555 1_555
C6 C1 1_555 1_555
C7 C6 1_555 1_555
C8 C7 1_555 1_555
H6 C8 1_555 1_555
C9 C8 1_555 1_555
H7 C9 1_555 1_555
C10 C9 1_555 1_555
H8 C10 1_555 1_555
C11 C10 1_555 1_555
H9 C11 1_555 1_555
C12 C7 1_555 1_555
H10 C12 1_555 1_555
C13 C2 1_555 1_555
C14 N1 1_555 1_555
C15 C14 1_555 1_555
H11 C15 1_555 1_555
C16 C15 1_555 1_555
H12 C16 1_555 1_555
C17 C16 1_555 1_555
H13 C17 1_555 1_555
C18 C13 1_555 1_555
H14 C18 1_555 1_555
C19 C5 1_555 1_555
C20 C19 1_555 1_555
C21 C20 1_555 1_555
H15 C21 1_555 1_555
C22 C21 1_555 1_555
H16 C22 1_555 1_555
C23 C22 1_555 1_555
H17 C23 1_555 1_555
C24 C23 1_555 1_555
H18 C24 1_555 1_555
C25 C20 1_555 1_555
H19 C25 1_555 1_555
C4 C5 1_555 1_555
C11 C12 1_555 1_555
C13 C14 1_555 1_555
C17 C18 1_555 1_555
C24 C25 1_555 1_555

#END
