
#######################################################################
#
#                 Cambridge Crystallographic Data Centre
#                                CCDC 
#
#######################################################################
#
# If this CIF has been generated from an entry in the Cambridge 
# Structural Database, then it will include bibliographic, chemical, 
# crystal, experimental, refinement or atomic coordinate data resulting 
# from the CCDC's data processing and validation procedures.
#
#######################################################################

data_YIRNEU
_chemical_formula_moiety         'C15 H14 O6,0.5(C3 H6 O1)'
_chemical_name_systematic        
'3,6,14-Trihydroxy-12-oxatetracyclo[8.3.3.0^1,10^.0^2,7^]hexadeca-2,4,6-triene-8,11-dione acetone solvate'
_symmetry_cell_setting           orthorhombic
_symmetry_space_group_name_H-M   'P n a 21'
_symmetry_Int_Tables_number      33
_space_group_name_Hall           'P 2c -2n'
loop_
_symmetry_equiv_pos_site_id
_symmetry_equiv_pos_as_xyz
1 x,y,z
2 -x,-y,1/2+z
3 1/2-x,1/2+y,1/2+z
4 1/2+x,1/2-y,z
_cell_length_a                   15.1637(3)
_cell_length_b                   6.91300(10)
_cell_length_c                   27.6452(5)
_cell_angle_alpha                90
_cell_angle_beta                 90
_cell_angle_gamma                90
_cell_volume                     2897.95
_exptl_crystal_colour            yellow
_exptl_crystal_description       rhombus
_cell_formula_units_Z            8
loop_
_atom_site_label
_atom_site_type_symbol
_atom_site_fract_x
_atom_site_fract_y
_atom_site_fract_z
O1 O 0.86080(14) 0.0345(3) 0.48177(9)
C1 C 0.9336(2) 0.2302(5) 0.53941(13)
H1 H 0.9826 0.1394 0.5349
H2 H 0.9106 0.2180 0.5724
H3 H 0.9546 0.3626 0.5342
C2 C 0.86250(18) 0.1854(4) 0.50417(11)
C3 C 0.7905(2) 0.3315(4) 0.49849(12)
H4 H 0.7442 0.2788 0.4776
H5 H 0.8146 0.4495 0.4839
H6 H 0.7656 0.3621 0.5303
O2 O 0.83340(12) -0.0692(3) 0.89765(8)
O3 O 0.95607(13) 0.8213(3) 0.76693(8)
H7 H 0.9047 0.7756 0.7669
O4 O 0.83095(13) 0.5815(3) 0.79068(8)
O5 O 1.17236(11) 0.4053(3) 0.88863(7)
H8 H 1.2224 0.4574 0.8898
O6 O 0.97755(11) -0.0435(2) 0.88915(7)
O7 O 0.99349(12) 0.2130(3) 0.97521(7)
H9 H 1.0420 0.1550 0.9769
C4 C 0.89720(16) 0.0323(3) 0.89116(10)
C5 C 0.89808(16) 0.2502(3) 0.88287(10)
C6 C 0.99725(16) 0.2999(3) 0.88882(10)
C7 C 1.03074(17) 0.4562(3) 0.85553(9)
C8 C 1.11895(17) 0.5085(4) 0.85787(10)
C9 C 1.15160(17) 0.6597(4) 0.82964(10)
H10 H 1.2123 0.6927 0.8313
C10 C 1.09645(19) 0.7614(4) 0.79935(10)
H11 H 1.1192 0.8651 0.7805
C11 C 1.00800(18) 0.7132(4) 0.79617(10)
C12 C 0.97503(17) 0.5557(3) 0.82331(10)
C13 C 0.88506(17) 0.4875(4) 0.81422(10)
C14 C 0.86289(16) 0.2865(4) 0.83160(10)
H12 H 0.8888 0.1904 0.8092
H13 H 0.7981 0.2692 0.8314
C15 C 0.84703(17) 0.3656(4) 0.92192(10)
H14 H 0.8012 0.4481 0.9069
H15 H 0.8185 0.2771 0.9453
C16 C 0.91746(17) 0.4895(3) 0.94683(10)
H16 H 0.9239 0.6160 0.9304
H17 H 0.9023 0.5119 0.9812
C17 C 1.00090(17) 0.3713(4) 0.94238(10)
H18 H 1.0547 0.4507 0.9488
C18 C 1.04368(17) 0.1053(3) 0.88011(10)
H19 H 1.0655 0.0971 0.8464
H20 H 1.0943 0.0900 0.9024
O8 O 0.65821(14) 1.3023(3) 0.75698(8)
H21 H 0.7101 1.2600 0.7559
O9 O 0.78439(12) 0.4199(2) 0.62438(8)
O10 O 0.64045(12) 0.4390(2) 0.63629(7)
O11 O 0.62201(13) 0.6731(3) 0.55176(7)
H22 H 0.5930 0.6867 0.5261
O12 O 0.44280(11) 0.8938(3) 0.63350(8)
H23 H 0.3966 0.9573 0.6282
O13 O 0.78331(12) 1.0650(3) 0.73329(8)
C19 C 0.60634(18) 1.1959(3) 0.72714(10)
C20 C 0.63938(18) 1.0392(3) 0.70035(10)
C21 C 0.58391(17) 0.9408(3) 0.66746(10)
C22 C 0.61799(16) 0.7821(3) 0.63451(10)
C23 C 0.71744(16) 0.7363(4) 0.64042(10)
C24 C 0.71939(17) 0.5177(4) 0.63209(11)
C25 C 0.57324(17) 0.5864(4) 0.64407(11)
H24 H 0.5508 0.5805 0.6777
H25 H 0.5232 0.5671 0.6216
C26 C 0.61417(17) 0.8439(4) 0.58053(10)
H26 H 0.5592 0.9179 0.5729
C27 C 0.69624(17) 0.9672(4) 0.57495(11)
H27 H 0.6877 1.0964 0.5897
H28 H 0.7118 0.9835 0.5404
C28 C 0.76735(17) 0.8533(4) 0.60176(10)
H29 H 0.8105 0.9419 0.6170
H30 H 0.7991 0.7660 0.5793
C29 C 0.75227(18) 0.7706(4) 0.69193(10)
H31 H 0.7262 0.6737 0.7141
H32 H 0.8171 0.7537 0.6923
C30 C 0.72944(18) 0.9718(4) 0.70943(10)
C31 C 0.49595(17) 0.9949(4) 0.66433(11)
C32 C 0.46343(17) 1.1450(4) 0.69300(11)
H33 H 0.4028 1.1786 0.6911
C33 C 0.51789(19) 1.2452(4) 0.72405(10)
H34 H 0.4949 1.3474 0.7432
loop_
_geom_bond_atom_site_label_1
_geom_bond_atom_site_label_2
_geom_bond_site_symmetry_1
_geom_bond_site_symmetry_2
O1 C2 1_555 1_555
C1 H1 1_555 1_555
H2 C1 1_555 1_555
H3 C1 1_555 1_555
C2 C1 1_555 1_555
C3 C2 1_555 1_555
H4 C3 1_555 1_555
H5 C3 1_555 1_555
H6 C3 1_555 1_555
O2 C4 1_555 1_555
O3 H7 1_555 1_555
O4 C13 1_555 1_555
O5 H8 1_555 1_555
O6 C4 1_555 1_555
O7 H9 1_555 1_555
C4 C5 1_555 1_555
C5 C6 1_555 1_555
C6 C7 1_555 1_555
C7 C8 1_555 1_555
C8 O5 1_555 1_555
C9 C8 1_555 1_555
H10 C9 1_555 1_555
C10 C9 1_555 1_555
H11 C10 1_555 1_555
C11 O3 1_555 1_555
C12 C7 1_555 1_555
C13 C12 1_555 1_555
C14 C5 1_555 1_555
H12 C14 1_555 1_555
H13 C14 1_555 1_555
C15 C5 1_555 1_555
H14 C15 1_555 1_555
H15 C15 1_555 1_555
C16 C15 1_555 1_555
H16 C16 1_555 1_555
H17 C16 1_555 1_555
C17 O7 1_555 1_555
H18 C17 1_555 1_555
C18 O6 1_555 1_555
H19 C18 1_555 1_555
H20 C18 1_555 1_555
O8 H21 1_555 1_555
O9 C24 1_555 1_555
O10 C24 1_555 1_555
O11 H22 1_555 1_555
O12 H23 1_555 1_555
O13 C30 1_555 1_555
C19 O8 1_555 1_555
C20 C19 1_555 1_555
C21 C20 1_555 1_555
C22 C21 1_555 1_555
C23 C22 1_555 1_555
C24 C23 1_555 1_555
C25 O10 1_555 1_555
H24 C25 1_555 1_555
H25 C25 1_555 1_555
C26 O11 1_555 1_555
H26 C26 1_555 1_555
C27 C26 1_555 1_555
H27 C27 1_555 1_555
H28 C27 1_555 1_555
C28 C23 1_555 1_555
H29 C28 1_555 1_555
H30 C28 1_555 1_555
C29 C23 1_555 1_555
H31 C29 1_555 1_555
H32 C29 1_555 1_555
C30 C20 1_555 1_555
C31 O12 1_555 1_555
C32 C31 1_555 1_555
H33 C32 1_555 1_555
C33 C19 1_555 1_555
H34 C33 1_555 1_555
C6 C17 1_555 1_555
C6 C18 1_555 1_555
C10 C11 1_555 1_555
C11 C12 1_555 1_555
C13 C14 1_555 1_555
C16 C17 1_555 1_555
C21 C31 1_555 1_555
C22 C25 1_555 1_555
C22 C26 1_555 1_555
C27 C28 1_555 1_555
C29 C30 1_555 1_555
C32 C33 1_555 1_555

#END
