
#######################################################################
#
#                 Cambridge Crystallographic Data Centre
#                                CCDC 
#
#######################################################################
#
# If this CIF has been generated from an entry in the Cambridge 
# Structural Database, then it will include bibliographic, chemical, 
# crystal, experimental, refinement or atomic coordinate data resulting 
# from the CCDC's data processing and validation procedures.
#
#######################################################################

data_YIRQAS
_chemical_formula_moiety         'C16 H10 N2 O8,2(H2 O1)'
_chemical_name_systematic        "3,3'-Diazenediyldiphthalic acid dihydrate"
_symmetry_cell_setting           triclinic
_symmetry_space_group_name_H-M   'P -1'
_symmetry_Int_Tables_number      2
_space_group_name_Hall           '-P 1'
loop_
_symmetry_equiv_pos_site_id
_symmetry_equiv_pos_as_xyz
1 x,y,z
2 -x,-y,-z
_cell_length_a                   6.6914(14)
_cell_length_b                   7.8566(17)
_cell_length_c                   8.7665(19)
_cell_angle_alpha                95.658(3)
_cell_angle_beta                 100.628(3)
_cell_angle_gamma                105.601(3)
_cell_volume                     430.896
_exptl_crystal_colour            colorless
_exptl_crystal_description       block
_cell_formula_units_Z            1
_exptl_crystal_recrystallization_method 'diethyl ether'
loop_
_atom_site_label
_atom_site_type_symbol
_atom_site_fract_x
_atom_site_fract_y
_atom_site_fract_z
C1 C 0.1413(5) 0.2366(4) 0.1954(4)
C2 C 0.0818(5) 0.2502(4) 0.3535(3)
C3 C -0.1122(5) 0.1482(4) 0.3774(4)
C4 C -0.2663(5) 0.0169(4) 0.2462(4)
C5 C -0.1571(6) 0.1709(5) 0.5259(4)
H1 H -0.2867 0.1042 0.5425
C6 C -0.0133(7) 0.2900(6) 0.6479(4)
H2 H -0.0472 0.3046 0.7457
C7 C 0.1814(7) 0.3884(5) 0.6264(4)
H3 H 0.2792 0.4681 0.7095
C8 C 0.2295(5) 0.3672(4) 0.4798(4)
N1 N 0.4269(5) 0.4597(4) 0.4434(3)
O1 O 0.1017(4) 0.3301(3) 0.1000(3)
O2 O 0.2414(5) 0.1183(4) 0.1782(3)
H4 H 0.2913 0.1285 0.0997
O3 O -0.2418(5) 0.0128(4) 0.1130(3)
O4 O -0.4243(4) -0.0911(4) 0.2846(3)
H5 H -0.4939 -0.1658 0.2080
C1A C 0.8587(5) 0.7634(4) 0.8046(4)
C2A C 0.9182(5) 0.7498(4) 0.6465(3)
C3A C 1.1122(5) 0.8518(4) 0.6226(4)
C4A C 1.2663(5) 0.9831(4) 0.7538(4)
C5A C 1.1571(6) 0.8291(5) 0.4741(4)
H1A H 1.2867 0.8958 0.4575
C6A C 1.0133(7) 0.7100(6) 0.3521(4)
H2A H 1.0472 0.6954 0.2543
C7A C 0.8186(7) 0.6116(5) 0.3736(4)
H3A H 0.7208 0.5319 0.2905
C8A C 0.7705(5) 0.6328(4) 0.5202(4)
N1A N 0.5731(5) 0.5403(4) 0.5566(3)
O1A O 0.8983(4) 0.6699(3) 0.9000(3)
O2A O 0.7586(5) 0.8817(4) 0.8218(3)
H4A H 0.7087 0.8715 0.9003
O3A O 1.2418(5) 0.9872(4) 0.8870(3)
O4A O 1.4243(4) 1.0911(4) 0.7154(3)
H5A H 1.4939 1.1658 0.7920
O5 O 0.3401(5) 0.6712(4) 0.0411(4)
H6 H 0.306(7) 0.563(3) 0.057(8)
H7 H 0.228(5) 0.705(6) 0.025(8)
loop_
_geom_bond_atom_site_label_1
_geom_bond_atom_site_label_2
_geom_bond_site_symmetry_1
_geom_bond_site_symmetry_2
C1 C2 1_555 1_555
C2 C3 1_555 1_555
C3 C4 1_555 1_555
C4 O3 1_555 1_555
C5 C3 1_555 1_555
H1 C5 1_555 1_555
C6 C5 1_555 1_555
H2 C6 1_555 1_555
C7 C6 1_555 1_555
H3 C7 1_555 1_555
C8 C2 1_555 1_555
N1 C8 1_555 1_555
O1 C1 1_555 1_555
O2 C1 1_555 1_555
H4 O2 1_555 1_555
O4 C4 1_555 1_555
H5 O4 1_555 1_555
O5 H6 1_555 1_555
H7 O5 1_555 1_555
C1A C2A 1_555 1_555
C2A C3A 1_555 1_555
C3A C4A 1_555 1_555
C4A O3A 1_555 1_555
C5A C3A 1_555 1_555
H1A C5A 1_555 1_555
C6A C5A 1_555 1_555
H2A C6A 1_555 1_555
C7A C6A 1_555 1_555
H3A C7A 1_555 1_555
C8A C2A 1_555 1_555
N1A N1 1_555 1_555
O1A C1A 1_555 1_555
O2A C1A 1_555 1_555
H4A O2A 1_555 1_555
O4A C4A 1_555 1_555
H5A O4A 1_555 1_555
C7 C8 1_555 1_555
C7A C8A 1_555 1_555
C8A N1A 1_555 1_555

#END
