
#######################################################################
#
#                 Cambridge Crystallographic Data Centre
#                                CCDC 
#
#######################################################################
#
# If this CIF has been generated from an entry in the Cambridge 
# Structural Database, then it will include bibliographic, chemical, 
# crystal, experimental, refinement or atomic coordinate data resulting 
# from the CCDC's data processing and validation procedures.
#
#######################################################################

data_YIRRIC
_chemical_formula_moiety         'C84 H60 N16 2+,2(C1 H4 O1),2(H2 O1),2(Cl1 1-)'
_chemical_name_systematic        
"4,4'-{(10,20-bis{4-[di(pyridin-4-yl)amino]phenyl}porphyrin-5,15-diyl)bis[benzene-4,1-diyl(pyridin-4-ylimino)]}dipyridinium dichloride methanol solvate dihydrate"
_symmetry_cell_setting           triclinic
_symmetry_space_group_name_H-M   'P -1'
_symmetry_Int_Tables_number      2
_space_group_name_Hall           '-P 1'
loop_
_symmetry_equiv_pos_site_id
_symmetry_equiv_pos_as_xyz
1 x,y,z
2 -x,-y,-z
_cell_length_a                   8.9460(7)
_cell_length_b                   14.9280(13)
_cell_length_c                   15.2330(15)
_cell_angle_alpha                106.191(2)
_cell_angle_beta                 98.1700(10)
_cell_angle_gamma                99.7930(10)
_cell_volume                     1886.14
_exptl_crystal_colour            red
_exptl_crystal_description       prism
_cell_formula_units_Z            1
loop_
_atom_site_label
_atom_site_type_symbol
_atom_site_fract_x
_atom_site_fract_y
_atom_site_fract_z
Cl1 Cl 0.7297(2) 0.05989(16) 0.10618(13)
N1 N 0.4766(4) 0.6034(3) 0.6208(3)
H1 H 0.4853 0.5616 0.5710
N2 N 0.3116(4) 0.5231(3) 0.4289(3)
N3 N 1.0884(5) 0.7282(3) 1.0890(3)
N4 N 0.9293(7) 0.8923(4) 1.3147(4)
N5 N 1.5095(7) 0.6388(5) 1.1127(5)
N6 N -0.2107(5) 0.8700(3) 0.6272(3)
N7 N -0.2717(7) 0.9854(4) 0.8946(4)
H2 H -0.2835 1.0098 0.9508
N8 N -0.4983(7) 0.8909(5) 0.3929(4)
C1 C 0.7022(5) 0.5913(3) 0.7260(3)
C2 C 0.5759(5) 0.6296(3) 0.7048(3)
C3 C 0.5194(6) 0.7016(4) 0.7682(4)
H3 H 0.5648 0.7333 0.8305
C4 C 0.3898(6) 0.7148(4) 0.7215(4)
H4 H 0.3294 0.7566 0.7463
C5 C 0.3609(5) 0.6531(3) 0.6268(3)
C6 C 0.2434(5) 0.6467(3) 0.5532(3)
C7 C 0.2253(5) 0.5886(3) 0.4616(3)
C8 C 0.1119(6) 0.5904(3) 0.3837(4)
H5 H 0.0409 0.6295 0.3865
C9 C 0.1289(6) 0.5264(4) 0.3084(4)
H6 H 0.0724 0.5125 0.2482
C10 C 0.2502(5) 0.4818(3) 0.3359(3)
C11 C 0.7996(6) 0.6327(4) 0.8232(4)
C12 C 0.7434(6) 0.6186(4) 0.8988(4)
H7 H 0.6411 0.5870 0.8906
C13 C 0.8357(7) 0.6503(4) 0.9859(4)
H8 H 0.7962 0.6398 1.0364
C14 C 0.9874(7) 0.6980(4) 0.9988(4)
C15 C 1.0439(6) 0.7169(4) 0.9250(4)
H9 H 1.1439 0.7527 0.9342
C16 C 0.9495(6) 0.6820(4) 0.8362(4)
H10 H 0.9884 0.6921 0.7855
C17 C 0.8955(8) 0.8994(5) 1.2302(5)
H11 H 0.8350 0.9422 1.2214
C18 C 0.9445(7) 0.8470(4) 1.1537(4)
H12 H 0.9166 0.8545 1.0954
C19 C 1.0357(6) 0.7834(4) 1.1653(4)
C20 C 1.0670(7) 0.7737(4) 1.2542(4)
H13 H 1.1241 0.7301 1.2658
C21 C 1.0117(8) 0.8295(5) 1.3233(5)
H14 H 1.0345 0.8224 1.3821
C22 C 1.4881(8) 0.7152(6) 1.1727(5)
H15 H 1.5712 0.7506 1.2209
C23 C 1.3512(8) 0.7477(5) 1.1703(5)
H16 H 1.3436 0.8019 1.2162
C24 C 1.2279(7) 0.6983(4) 1.0990(4)
C25 C 1.2480(7) 0.6185(4) 1.0345(4)
H17 H 1.1676 0.5823 0.9850
C26 C 1.3899(9) 0.5926(5) 1.0441(5)
H18 H 1.4015 0.5390 0.9990
C27 C 0.1271(5) 0.7068(3) 0.5737(3)
C28 C 0.1654(6) 0.8049(4) 0.6016(4)
H19 H 0.2681 0.8359 0.6095
C29 C 0.0550(6) 0.8586(4) 0.6181(4)
H20 H 0.0833 0.9249 0.6354
C30 C -0.0961(6) 0.8141(4) 0.6091(4)
C31 C -0.1365(6) 0.7165(4) 0.5807(4)
H21 H -0.2395 0.6858 0.5723
C32 C -0.0262(6) 0.6633(4) 0.5644(4)
H22 H -0.0552 0.5970 0.5469
C33 C -0.5428(8) 0.8319(6) 0.4370(6)
H23 H -0.6414 0.7927 0.4147
C34 C -0.4533(8) 0.8227(5) 0.5159(5)
H24 H -0.4925 0.7800 0.5456
C35 C -0.3086(6) 0.8777(4) 0.5477(4)
C36 C -0.2600(7) 0.9389(5) 0.5017(5)
H25 H -0.1611 0.9780 0.5213
C37 C -0.3587(9) 0.9425(5) 0.4254(5)
H26 H -0.3226 0.9852 0.3948
C38 C -0.3581(8) 1.0009(5) 0.8242(5)
H27 H -0.4335 1.0360 0.8361
C39 C -0.3385(7) 0.9668(4) 0.7356(4)
H28 H -0.3973 0.9811 0.6879
C40 C -0.2298(6) 0.9097(4) 0.7144(4)
C41 C -0.1404(6) 0.8957(4) 0.7923(4)
H29 H -0.0633 0.8614 0.7837
C42 C -0.1667(8) 0.9320(5) 0.8788(5)
H30 H -0.1105 0.9196 0.9286
N1A N 0.5234(4) 0.3966(3) 0.3792(3)
H1A H 0.5147 0.4384 0.4290
N2A N 0.6884(4) 0.4769(3) 0.5711(3)
N3A N -0.0884(5) 0.2718(3) -0.0890(3)
N4A N 0.0707(7) 0.1077(4) -0.3147(4)
N5A N -0.5095(7) 0.3612(5) -0.1127(5)
N6A N 1.2107(5) 0.1300(3) 0.3728(3)
N7A N 1.2717(7) 0.0146(4) 0.1054(4)
H2A H 1.2835 -0.0098 0.0492
N8A N 1.4983(7) 0.1091(5) 0.6071(4)
C1A C 0.2978(5) 0.4087(3) 0.2740(3)
C2A C 0.4241(5) 0.3704(3) 0.2952(3)
C3A C 0.4806(6) 0.2984(4) 0.2318(4)
H3A H 0.4352 0.2667 0.1695
C4A C 0.6102(6) 0.2852(4) 0.2785(4)
H4A H 0.6706 0.2434 0.2537
C5A C 0.6391(5) 0.3469(3) 0.3732(3)
C6A C 0.7566(5) 0.3533(3) 0.4468(3)
C7A C 0.7747(5) 0.4114(3) 0.5384(3)
C8A C 0.8881(6) 0.4096(3) 0.6163(4)
H5A H 0.9591 0.3705 0.6135
C9A C 0.8711(6) 0.4736(4) 0.6916(4)
H6A H 0.9276 0.4875 0.7518
C10A C 0.7498(5) 0.5182(3) 0.6641(3)
C11A C 0.2004(6) 0.3673(4) 0.1768(4)
C12A C 0.2566(6) 0.3814(4) 0.1012(4)
H7A H 0.3589 0.4130 0.1094
C13A C 0.1643(7) 0.3497(4) 0.0141(4)
H8A H 0.2038 0.3602 -0.0364
C14A C 0.0126(7) 0.3020(4) 0.0012(4)
C15A C -0.0439(6) 0.2831(4) 0.0750(4)
H9A H -0.1439 0.2473 0.0658
C16A C 0.0505(6) 0.3180(4) 0.1638(4)
H10A H 0.0116 0.3079 0.2145
C17A C 0.1045(8) 0.1006(5) -0.2302(5)
H11A H 0.1650 0.0578 -0.2214
C18A C 0.0555(7) 0.1530(4) -0.1537(4)
H12A H 0.0834 0.1455 -0.0954
C19A C -0.0357(6) 0.2166(4) -0.1653(4)
C20A C -0.0670(7) 0.2263(4) -0.2542(4)
H13A H -0.1241 0.2699 -0.2658
C21A C -0.0117(8) 0.1705(5) -0.3233(5)
H14A H -0.0345 0.1776 -0.3821
C22A C -0.4881(8) 0.2848(6) -0.1727(5)
H15A H -0.5712 0.2494 -0.2209
C23A C -0.3512(8) 0.2523(5) -0.1703(5)
H16A H -0.3436 0.1981 -0.2162
C24A C -0.2279(7) 0.3017(4) -0.0990(4)
C25A C -0.2480(7) 0.3815(4) -0.0345(4)
H17A H -0.1676 0.4177 0.0150
C26A C -0.3899(9) 0.4074(5) -0.0441(5)
H18A H -0.4015 0.4610 0.0010
C27A C 0.8729(5) 0.2932(3) 0.4263(3)
C28A C 0.8346(6) 0.1951(4) 0.3984(4)
H19A H 0.7319 0.1641 0.3905
C29A C 0.9450(6) 0.1414(4) 0.3819(4)
H20A H 0.9167 0.0751 0.3646
C30A C 1.0961(6) 0.1859(4) 0.3909(4)
C31A C 1.1365(6) 0.2835(4) 0.4193(4)
H21A H 1.2395 0.3142 0.4277
C32A C 1.0262(6) 0.3367(4) 0.4356(4)
H22A H 1.0552 0.4030 0.4531
C33A C 1.5428(8) 0.1681(6) 0.5630(6)
H23A H 1.6414 0.2073 0.5853
C34A C 1.4533(8) 0.1773(5) 0.4841(5)
H24A H 1.4925 0.2200 0.4544
C35A C 1.3086(6) 0.1223(4) 0.4523(4)
C36A C 1.2600(7) 0.0611(5) 0.4983(5)
H25A H 1.1611 0.0220 0.4787
C37A C 1.3587(9) 0.0575(5) 0.5746(5)
H26A H 1.3226 0.0148 0.6052
C38A C 1.3581(8) -0.0009(5) 0.1758(5)
H27A H 1.4335 -0.0360 0.1639
C39A C 1.3385(7) 0.0332(4) 0.2644(4)
H28A H 1.3973 0.0189 0.3121
C40A C 1.2298(6) 0.0903(4) 0.2856(4)
C41A C 1.1404(6) 0.1043(4) 0.2077(4)
H29A H 1.0633 0.1386 0.2163
C42A C 1.1667(8) 0.0680(5) 0.1212(5)
H30A H 1.1105 0.0804 0.0714
O1 O 0.7611(11) 0.5661(7) 0.1918(8)
H31 H 0.7013 0.5854 0.1592
C43 C 0.7065(16) 0.5653(11) 0.2747(12)
H32 H 0.7439 0.5182 0.2983
H33 H 0.5953 0.5499 0.2613
H34 H 0.7432 0.6272 0.3206
O2 O 0.5142(10) 0.8376(5) 0.9961(6)
H35 H 0.5799 0.8885 1.0286
H36 H 0.4421 0.8534 0.9650
loop_
_geom_bond_atom_site_label_1
_geom_bond_atom_site_label_2
_geom_bond_site_symmetry_1
_geom_bond_site_symmetry_2
N1 H1 1_555 1_555
N2 C7 1_555 1_555
N3 C14 1_555 1_555
N4 C17 1_555 1_555
N5 C22 1_555 1_555
N6 C30 1_555 1_555
N7 H2 1_555 1_555
N8 C33 1_555 1_555
C1 C2 1_555 1_555
C2 N1 1_555 1_555
C3 C2 1_555 1_555
H3 C3 1_555 1_555
C4 C3 1_555 1_555
H4 C4 1_555 1_555
C5 N1 1_555 1_555
C6 C5 1_555 1_555
C7 C6 1_555 1_555
C8 C7 1_555 1_555
H5 C8 1_555 1_555
C9 C8 1_555 1_555
H6 C9 1_555 1_555
C10 N2 1_555 1_555
C11 C1 1_555 1_555
C12 C11 1_555 1_555
H7 C12 1_555 1_555
C13 C12 1_555 1_555
H8 C13 1_555 1_555
C14 C13 1_555 1_555
C15 C14 1_555 1_555
H9 C15 1_555 1_555
C16 C11 1_555 1_555
H10 C16 1_555 1_555
C17 H11 1_555 1_555
C18 C17 1_555 1_555
H12 C18 1_555 1_555
C19 N3 1_555 1_555
C20 C19 1_555 1_555
H13 C20 1_555 1_555
C21 N4 1_555 1_555
H14 C21 1_555 1_555
C22 H15 1_555 1_555
C23 C22 1_555 1_555
H16 C23 1_555 1_555
C24 N3 1_555 1_555
C25 C24 1_555 1_555
H17 C25 1_555 1_555
C26 N5 1_555 1_555
H18 C26 1_555 1_555
C27 C6 1_555 1_555
C28 C27 1_555 1_555
H19 C28 1_555 1_555
C29 C28 1_555 1_555
H20 C29 1_555 1_555
C30 C29 1_555 1_555
C31 C30 1_555 1_555
H21 C31 1_555 1_555
C32 C27 1_555 1_555
H22 C32 1_555 1_555
C33 H23 1_555 1_555
C34 C33 1_555 1_555
H24 C34 1_555 1_555
C35 N6 1_555 1_555
C36 C35 1_555 1_555
H25 C36 1_555 1_555
C37 N8 1_555 1_555
H26 C37 1_555 1_555
C38 N7 1_555 1_555
H27 C38 1_555 1_555
C39 C38 1_555 1_555
H28 C39 1_555 1_555
C40 N6 1_555 1_555
C41 C40 1_555 1_555
H29 C41 1_555 1_555
C42 N7 1_555 1_555
H30 C42 1_555 1_555
O1 H31 1_555 1_555
C43 O1 1_555 1_555
H32 C43 1_555 1_555
H33 C43 1_555 1_555
H34 C43 1_555 1_555
O2 H35 1_555 1_555
H36 O2 1_555 1_555
N1A H1A 1_555 1_555
N2A C7A 1_555 1_555
N3A C14A 1_555 1_555
N4A C17A 1_555 1_555
N5A C22A 1_555 1_555
N6A C30A 1_555 1_555
N7A H2A 1_555 1_555
N8A C33A 1_555 1_555
C1A C10 1_555 1_555
C2A N1A 1_555 1_555
C3A C2A 1_555 1_555
H3A C3A 1_555 1_555
C4A C3A 1_555 1_555
H4A C4A 1_555 1_555
C5A N1A 1_555 1_555
C6A C5A 1_555 1_555
C7A C6A 1_555 1_555
C8A C7A 1_555 1_555
H5A C8A 1_555 1_555
C9A C8A 1_555 1_555
H6A C9A 1_555 1_555
C10A C1 1_555 1_555
C11A C1A 1_555 1_555
C12A C11A 1_555 1_555
H7A C12A 1_555 1_555
C13A C12A 1_555 1_555
H8A C13A 1_555 1_555
C14A C13A 1_555 1_555
C15A C14A 1_555 1_555
H9A C15A 1_555 1_555
C16A C11A 1_555 1_555
H10A C16A 1_555 1_555
C17A H11A 1_555 1_555
C18A C17A 1_555 1_555
H12A C18A 1_555 1_555
C19A N3A 1_555 1_555
C20A C19A 1_555 1_555
H13A C20A 1_555 1_555
C21A N4A 1_555 1_555
H14A C21A 1_555 1_555
C22A H15A 1_555 1_555
C23A C22A 1_555 1_555
H16A C23A 1_555 1_555
C24A N3A 1_555 1_555
C25A C24A 1_555 1_555
H17A C25A 1_555 1_555
C26A N5A 1_555 1_555
H18A C26A 1_555 1_555
C27A C6A 1_555 1_555
C28A C27A 1_555 1_555
H19A C28A 1_555 1_555
C29A C28A 1_555 1_555
H20A C29A 1_555 1_555
C30A C29A 1_555 1_555
C31A C30A 1_555 1_555
H21A C31A 1_555 1_555
C32A C27A 1_555 1_555
H22A C32A 1_555 1_555
C33A H23A 1_555 1_555
C34A C33A 1_555 1_555
H24A C34A 1_555 1_555
C35A N6A 1_555 1_555
C36A C35A 1_555 1_555
H25A C36A 1_555 1_555
C37A N8A 1_555 1_555
H26A C37A 1_555 1_555
C38A N7A 1_555 1_555
H27A C38A 1_555 1_555
C39A C38A 1_555 1_555
H28A C39A 1_555 1_555
C40A N6A 1_555 1_555
C41A C40A 1_555 1_555
H29A C41A 1_555 1_555
C42A N7A 1_555 1_555
H30A C42A 1_555 1_555
C4 C5 1_555 1_555
C9 C10 1_555 1_555
C15 C16 1_555 1_555
C18 C19 1_555 1_555
C20 C21 1_555 1_555
C23 C24 1_555 1_555
C25 C26 1_555 1_555
C31 C32 1_555 1_555
C34 C35 1_555 1_555
C36 C37 1_555 1_555
C39 C40 1_555 1_555
C41 C42 1_555 1_555
N2A C10A 1_555 1_555
C1A C2A 1_555 1_555
C4A C5A 1_555 1_555
C9A C10A 1_555 1_555
C15A C16A 1_555 1_555
C18A C19A 1_555 1_555
C20A C21A 1_555 1_555
C23A C24A 1_555 1_555
C25A C26A 1_555 1_555
C31A C32A 1_555 1_555
C34A C35A 1_555 1_555
C36A C37A 1_555 1_555
C39A C40A 1_555 1_555
C41A C42A 1_555 1_555

#END
