
#######################################################################
#
#                 Cambridge Crystallographic Data Centre
#                                CCDC 
#
#######################################################################
#
# If this CIF has been generated from an entry in the Cambridge 
# Structural Database, then it will include bibliographic, chemical, 
# crystal, experimental, refinement or atomic coordinate data resulting 
# from the CCDC's data processing and validation procedures.
#
#######################################################################

data_YIRRAT
_chemical_formula_moiety         'C18 H9 Cl3 N6 O3'
_chemical_name_systematic        1,3,5-tris(6-Chloropyrazin-2-yloxy)benzene
_symmetry_cell_setting           triclinic
_symmetry_space_group_name_H-M   'P -1'
_symmetry_Int_Tables_number      2
_space_group_name_Hall           '-P 1'
loop_
_symmetry_equiv_pos_site_id
_symmetry_equiv_pos_as_xyz
1 x,y,z
2 -x,-y,-z
_cell_length_a                   9.680(2)
_cell_length_b                   10.658(2)
_cell_length_c                   11.039(3)
_cell_angle_alpha                72.768(3)
_cell_angle_beta                 68.308(3)
_cell_angle_gamma                69.342(3)
_cell_volume                     972.014
_exptl_crystal_colour            colorless
_exptl_crystal_description       prism
_cell_formula_units_Z            2
_exptl_crystal_recrystallization_method 'ethyl acetate'
loop_
_atom_site_label
_atom_site_type_symbol
_atom_site_fract_x
_atom_site_fract_y
_atom_site_fract_z
Cl1 Cl 0.04661(7) 0.67966(7) 0.44208(6)
Cl2 Cl 0.43548(9) 1.27994(7) -0.59901(7)
Cl3 Cl 0.32169(10) 1.47146(8) 0.07383(9)
O1 O 0.43622(16) 0.85408(15) 0.05573(15)
O2 O 0.1867(2) 0.93858(16) -0.27062(15)
O3 O -0.01216(16) 1.23869(14) 0.03280(16)
N1 N -0.1102(3) 1.4653(2) 0.2505(2)
N2 N 0.4938(2) 0.6220(2) 0.3517(2)
N3 N 0.2331(3) 1.0283(2) -0.6181(2)
N4 N 0.1437(2) 1.34503(17) 0.05891(17)
N5 N 0.3057(2) 1.09657(17) -0.42807(17)
N6 N 0.25692(18) 0.76867(16) 0.23874(16)
C1 C 0.0239(4) 1.4929(3) 0.2147(3)
H1 H 0.0338 1.5541 0.2539
C2 C 0.3070(3) 1.1226(3) -0.6499(2)
H2 H 0.3358 1.1674 -0.7377
C3 C -0.1181(3) 1.3782(3) 0.1916(2)
H3 H -0.2104 1.3560 0.2147
C4 C 0.5191(3) 0.7021(3) 0.2337(2)
H4 H 0.6188 0.7094 0.1867
C5 C 0.1484(3) 1.4320(2) 0.1203(2)
C6 C 0.1940(3) 0.9688(3) -0.4911(2)
H5 H 0.1415 0.9025 -0.4643
C7 C 0.3414(2) 1.1549(2) -0.5553(2)
C8 C 0.2308(3) 1.0047(2) -0.3975(2)
C9 C 0.3493(3) 0.6156(2) 0.4159(2)
H6 H 0.3264 0.5614 0.5000
C10 C 0.2025(3) 0.9832(2) -0.1693(2)
C11 C 0.3125(2) 0.8988(2) -0.1081(2)
H7 H 0.3812 0.8202 -0.1386
C12 C 0.2348(2) 0.68880(19) 0.3581(2)
C13 C 0.3169(2) 0.9348(2) -0.0002(2)
C14 C 0.0097(2) 1.3191(2) 0.0952(2)
C15 C 0.1076(2) 1.12977(19) -0.0168(2)
C16 C 0.2156(2) 1.0492(2) 0.0488(2)
H8 H 0.2196 1.0713 0.1226
C17 C 0.0996(2) 1.0992(2) -0.1265(2)
H9 H 0.0268 1.1553 -0.1699
C18 C 0.3995(2) 0.77556(19) 0.1787(2)
loop_
_geom_bond_atom_site_label_1
_geom_bond_atom_site_label_2
_geom_bond_site_symmetry_1
_geom_bond_site_symmetry_2
Cl1 C12 1_555 1_555
Cl2 C7 1_555 1_555
Cl3 C5 1_555 1_555
O1 C13 1_555 1_555
O2 C8 1_555 1_555
O3 C14 1_555 1_555
N1 C1 1_555 1_555
N2 C4 1_555 1_555
N3 C2 1_555 1_555
N4 C5 1_555 1_555
N5 C7 1_555 1_555
N6 C12 1_555 1_555
C1 H1 1_555 1_555
C2 H2 1_555 1_555
C3 N1 1_555 1_555
H3 C3 1_555 1_555
C4 H4 1_555 1_555
C5 C1 1_555 1_555
C6 N3 1_555 1_555
H5 C6 1_555 1_555
C7 C2 1_555 1_555
C8 N5 1_555 1_555
C9 N2 1_555 1_555
H6 C9 1_555 1_555
C10 O2 1_555 1_555
C11 C10 1_555 1_555
H7 C11 1_555 1_555
C12 C9 1_555 1_555
C13 C11 1_555 1_555
C14 N4 1_555 1_555
C15 O3 1_555 1_555
C16 C13 1_555 1_555
H8 C16 1_555 1_555
C17 C10 1_555 1_555
H9 C17 1_555 1_555
C18 O1 1_555 1_555
N6 C18 1_555 1_555
C3 C14 1_555 1_555
C4 C18 1_555 1_555
C6 C8 1_555 1_555
C15 C16 1_555 1_555
C15 C17 1_555 1_555

#END
