
#######################################################################
#
#                 Cambridge Crystallographic Data Centre
#                                CCDC 
#
#######################################################################
#
# If this CIF has been generated from an entry in the Cambridge 
# Structural Database, then it will include bibliographic, chemical, 
# crystal, experimental, refinement or atomic coordinate data resulting 
# from the CCDC's data processing and validation procedures.
#
#######################################################################

data_YIRRUN
_chemical_formula_moiety         'C16 H20 N2 O4 S1'
_chemical_name_systematic        bis(4-(2-Hydroxyethylamino)phenyl)sulfone
_symmetry_cell_setting           monoclinic
_symmetry_space_group_name_H-M   'C 2/c'
_symmetry_Int_Tables_number      15
_space_group_name_Hall           '-C 2yn'
loop_
_symmetry_equiv_pos_site_id
_symmetry_equiv_pos_as_xyz
1 x,y,z
2 1/2+x,1/2+y,z
3 -x,y,1/2-z
4 1/2-x,1/2+y,1/2-z
5 -x,-y,-z
6 1/2-x,1/2-y,-z
7 x,-y,1/2+z
8 1/2+x,1/2-y,1/2+z
_cell_length_a                   25.643(17)
_cell_length_b                   8.118(6)
_cell_length_c                   15.340(11)
_cell_angle_alpha                90
_cell_angle_beta                 102.989(12)
_cell_angle_gamma                90
_cell_volume                     3111.62
_exptl_crystal_colour            colorless
_exptl_crystal_description       Needle
_chemical_melting_point          '464-466 K'
_cell_formula_units_Z            8
_exptl_crystal_recrystallization_method dimethylformamide/water
loop_
_atom_site_label
_atom_site_type_symbol
_atom_site_fract_x
_atom_site_fract_y
_atom_site_fract_z
S1 S 0.13804(2) 0.13061(7) 0.27577(4)
O1 O -0.11464(7) 0.7991(2) 0.07807(12)
H1 H -0.1153 0.8496 0.1241
O2 O 0.16477(7) 0.1933(2) 0.36085(10)
O3 O 0.11181(7) -0.0265(2) 0.27233(11)
O4 O 0.37876(7) -0.1123(3) 0.00979(13)
H2 H 0.3659 -0.1633 0.0460
N1 N -0.02318(8) 0.5964(3) 0.09390(13)
N2 N 0.29293(8) 0.0802(3) 0.05074(14)
C1 C -0.06999(11) 0.8469(3) 0.04713(18)
H3 H -0.0667 0.9659 0.0504
H4 H -0.0749 0.8150 -0.0151
C2 C -0.01965(10) 0.7710(3) 0.09995(18)
H5 H 0.0106 0.8089 0.0771
H6 H -0.0140 0.8045 0.1621
C3 C 0.01441(8) 0.4931(3) 0.13841(14)
C4 C 0.06235(9) 0.5465(3) 0.19253(16)
H7 H 0.0692 0.6588 0.1996
C5 C 0.09948(9) 0.4366(3) 0.23534(16)
H8 H 0.1314 0.4743 0.2712
C6 C 0.09002(8) 0.2708(3) 0.22587(14)
C7 C 0.04241(9) 0.2161(3) 0.17295(15)
H9 H 0.0358 0.1036 0.1664
C8 C 0.00543(9) 0.3235(3) 0.13085(15)
H10 H -0.0267 0.2844 0.0961
C9 C 0.18453(8) 0.1155(3) 0.21042(14)
C10 C 0.23154(9) 0.2043(3) 0.23028(15)
H11 H 0.2389 0.2729 0.2801
C11 C 0.26711(9) 0.1918(3) 0.17704(16)
H12 H 0.2989 0.2510 0.1914
C12 C 0.25677(9) 0.0920(3) 0.10144(14)
C13 C 0.20852(8) 0.0063(3) 0.08150(15)
H13 H 0.2002 -0.0593 0.0305
C14 C 0.17353(9) 0.0173(3) 0.13568(15)
H14 H 0.1418 -0.0423 0.1221
C15 C 0.28658(9) -0.0244(3) -0.02587(15)
H15 H 0.2595 0.0214 -0.0743
H16 H 0.2745 -0.1321 -0.0115
C16 C 0.33752(10) -0.0418(4) -0.05525(17)
H17 H 0.3313 -0.1096 -0.1087
H18 H 0.3489 0.0661 -0.0709
H19 H -0.0542(6) 0.548(3) 0.0693(15)
H20 H 0.3197(7) 0.153(2) 0.0623(15)
loop_
_geom_bond_atom_site_label_1
_geom_bond_atom_site_label_2
_geom_bond_site_symmetry_1
_geom_bond_site_symmetry_2
S1 O2 1_555 1_555
O1 H1 1_555 1_555
O3 S1 1_555 1_555
O4 H2 1_555 1_555
N1 C2 1_555 1_555
N2 C12 1_555 1_555
C1 O1 1_555 1_555
H3 C1 1_555 1_555
H4 C1 1_555 1_555
C2 C1 1_555 1_555
H5 C2 1_555 1_555
H6 C2 1_555 1_555
C3 N1 1_555 1_555
C4 C3 1_555 1_555
H7 C4 1_555 1_555
C5 C4 1_555 1_555
H8 C5 1_555 1_555
C6 S1 1_555 1_555
C7 C6 1_555 1_555
H9 C7 1_555 1_555
C8 C3 1_555 1_555
H10 C8 1_555 1_555
C9 S1 1_555 1_555
C10 C9 1_555 1_555
H11 C10 1_555 1_555
C11 C10 1_555 1_555
H12 C11 1_555 1_555
C12 C11 1_555 1_555
C13 C12 1_555 1_555
H13 C13 1_555 1_555
C14 C9 1_555 1_555
H14 C14 1_555 1_555
C15 N2 1_555 1_555
H15 C15 1_555 1_555
H16 C15 1_555 1_555
C16 O4 1_555 1_555
H17 C16 1_555 1_555
H18 C16 1_555 1_555
H19 N1 1_555 1_555
H20 N2 1_555 1_555
C5 C6 1_555 1_555
C7 C8 1_555 1_555
C13 C14 1_555 1_555
C15 C16 1_555 1_555

#END
