
#######################################################################
#
#                 Cambridge Crystallographic Data Centre
#                                CCDC 
#
#######################################################################
#
# If this CIF has been generated from an entry in the Cambridge 
# Structural Database, then it will include bibliographic, chemical, 
# crystal, experimental, refinement or atomic coordinate data resulting 
# from the CCDC's data processing and validation procedures.
#
#######################################################################

data_YIRVOK
_chemical_formula_moiety         '2(C19 H16 O3 S3),C8 H16'
_chemical_name_systematic        
'bis(tris(5-Acetyl-3-thienyl)methane) cyclo-octane clathrate'
_symmetry_cell_setting           triclinic
_symmetry_space_group_name_H-M   'P -1'
_symmetry_Int_Tables_number      2
_space_group_name_Hall           '-P 1'
loop_
_symmetry_equiv_pos_site_id
_symmetry_equiv_pos_as_xyz
1 x,y,z
2 -x,-y,-z
_cell_length_a                   11.914(1)
_cell_length_b                   14.013(2)
_cell_length_c                   13.986(2)
_cell_angle_alpha                89.46(1)
_cell_angle_beta                 77.15(1)
_cell_angle_gamma                75.22(1)
_cell_volume                     2198.4
_exptl_crystal_colour            'pale yellow'
_cell_formula_units_Z            2
loop_
_atom_site_label
_atom_site_type_symbol
_atom_site_fract_x
_atom_site_fract_y
_atom_site_fract_z
S1 S 0.86857(12) 0.63344(9) 0.92327(9)
S2 S 1.07525(11) 0.29813(10) 0.57436(9)
S3 S 0.51779(11) 0.35493(9) 0.93536(10)
O1 O 0.8166(3) 0.6994(3) 1.1341(2)
O2 O 0.9917(3) 0.3870(3) 0.4047(3)
O3 O 0.6205(3) 0.0694(2) 0.9393(3)
C1 C 0.8694(4) 0.3525(3) 0.8533(3)
C2 C 0.8679(4) 0.4517(3) 0.8976(3)
C3 C 0.8847(4) 0.5335(3) 0.8466(3)
C4 C 0.8403(4) 0.5656(3) 1.0266(3)
C5 C 0.8434(3) 0.4712(3) 0.9997(3)
C6 C 0.8186(4) 0.6123(4) 1.1241(3)
C7 C 0.7988(5) 0.5497(4) 1.2117(3)
C8 C 0.9218(4) 0.3420(3) 0.7420(3)
C9 C 1.0362(4) 0.2919(3) 0.6985(3)
C10 C 0.9371(4) 0.3706(3) 0.5760(3)
C11 C 0.8658(4) 0.3874(3) 0.6703(3)
C12 C 0.9146(5) 0.4046(3) 0.4825(3)
C13 C 0.7914(5) 0.4623(5) 0.4860(4)
C14 C 0.7456(4) 0.3326(3) 0.8840(3)
C15 C 0.6409(4) 0.4029(3) 0.9019(3)
C16 C 0.6043(4) 0.2372(3) 0.9280(3)
C17 C 0.7251(4) 0.2351(3) 0.9006(3)
C18 C 0.5535(4) 0.1498(3) 0.9461(3)
C19 C 0.4210(4) 0.1620(4) 0.9714(4)
H1 H 0.922 0.304 0.879
H2 H 0.903 0.535 0.777
H3 H 0.830 0.423 1.047
H4 H 0.865 0.495 1.202
H5 H 0.728 0.527 1.216
H6 H 0.790(3) 0.583(3) 1.272(3)
H7 H 1.088 0.257 0.735
H8 H 0.786 0.426 0.686
H9 H 0.769 0.512 0.538
H10 H 0.739 0.419 0.499
H11 H 0.784(3) 0.493(3) 0.427(3)
H12 H 0.638 0.471 0.896
H13 H 0.786 0.177 0.894
H14 H 0.385 0.213 1.022
H15 H 0.402 0.102 0.995
H16 H 0.393(3) 0.177(3) 0.918(3)
S4 S 0.87445(12) 1.12997(9) 0.63075(9)
S5 S 1.07938(10) 0.79083(9) 0.89168(9)
S6 S 0.51507(12) 0.85572(11) 0.79468(10)
O4 O 0.8333(3) 1.1984(2) 0.4401(2)
O5 O 1.0041(3) 0.8862(3) 1.093(3)
O6 O 0.6051(4) 0.5710(3) 0.7385(3)
C20 C 0.8679(4) 0.8497(3) 0.7049(3)
C21 C 0.8660(4) 0.9497(3) 0.6604(3)
C22 C 0.8843(4) 1.0303(3) 0.7029(3)
C23 C 0.8468(4) 1.0640(3) 0.5397(3)
C24 C 0.8447(4) 0.9694(3) 0.5668(3)
C25 C 0.8288(4) 1.1119(3) 0.4503(3)
C26 C 0.8040(5) 1.0529(4) 0.3717(3)
C27 C 0.9239(4) 0.8394(3) 0.7914(3)
C28 C 1.0365(4) 0.7838(3) 0.7844(3)
C29 C 0.9447(4) 0.8686(3) 0.9491(3)
C30 C 0.8724(4) 0.8866(3) 0.8856(3)
C31 C 0.9247(4) 0.9053(3) 1.0503(4)
C32 C 0.8039(5) 0.9666(4) 1.0988(4)
C33 C 0.7429(4) 0.8306(3) 0.7333(3)
C34 C 0.6399(4) 0.9008(4) 0.7666(3)
C35 C 0.5981(4) 0.7375(3) 0.7611(3)
C36 C 0.7218(4) 0.7309(3) 0.7269(3)
C37 C 0.5432(5) 0.6516(4) 0.7656(4)
C38 C 0.4100(5) 0.6685(5) 0.8057(5)
H17 H 0.917 0.801 0.656
H18 H 0.901 1.031 0.766
H19 H 0.830 0.922 0.526
H20 H 0.722 1.073 0.375
H21 H 0.822 0.986 0.386
H22 H 0.847(3) 1.060(3) 0.307(3)
H23 H 1.085 0.746 0.727
H24 H 0.794 0.927 0.904
H25 H 0.779 1.035 1.089
H26 H 0.737 0.941 1.128
H27 H 0.803(3) 0.985(3) 1.165(3)
H28 H 0.638 0.969 0.773
H29 H 0.781 0.673 0.704
H30 H 0.371 0.712 0.765
H31 H 0.387 0.608 0.807
H32 H 0.391(3) 0.693(3) 0.866(3)
C39 C 0.5154(8) 0.6368(6) 0.4144(6)
C40 C 0.4360(8) 0.7015(6) 0.3565(7)
C41 C 0.4757(10) 0.7896(7) 0.3042(8)
C42 C 0.5403(9) 0.8645(7) 0.3303(8)
C43 C 0.6332(8) 0.8264(8) 0.3877(6)
C44 C 0.5929(8) 0.8195(8) 0.4995(6)
C45 C 0.4828(8) 0.7783(7) 0.5420(6)
C46 C 0.4943(10) 0.6694(7) 0.5223(7)
H33 H 0.596 0.636 0.382
H34 H 0.502 0.572 0.413
H35 H 0.361 0.726 0.402
H36 H 0.427 0.660 0.307
H37 H 0.404 0.829 0.296
H38 H 0.525 0.762 0.242
H39 H 0.580 0.889 0.270
H40 H 0.482 0.917 0.369
H41 H 0.688 0.868 0.376
H42 H 0.674 0.762 0.361
H43 H 0.657 0.779 0.520
H44 H 0.577 0.884 0.528
H45 H 0.421 0.813 0.515
H46 H 0.461 0.791 0.612
H47 H 0.560 0.634 0.545
H48 H 0.423 0.653 0.559
C47? C 0.4461(18) 0.8424(13) 0.3254(16)
C48? C 0.4644(21) 0.9017(23) 0.4097(21)
C49? C 0.5940(19) 0.8739(19) 0.4172(17)
C50? C 0.5693(32) 0.8219(18) 0.5151(19)
C51? C 0.6061(21) 0.7103(19) 0.4918(24)
C52? C 0.4900(22) 0.6866(23) 0.4805(19)
C53? C 0.4639(26) 0.6703(21) 0.3806(16)
C54? C 0.5131(20) 0.7350(13) 0.2982(17)
H49? H 0.364 0.843 0.342
H50? H 0.465 0.877 0.267
H51? H 0.446 0.970 0.397
H52? H 0.412 0.890 0.470
H53? H 0.646 0.832 0.364
H54? H 0.625 0.930 0.423
H55? H 0.618 0.837 0.554
H56? H 0.488 0.842 0.551
H57? H 0.632 0.675 0.544
H58? H 0.667 0.694 0.432
H59? H 0.483 0.629 0.515
H60? H 0.428 0.740 0.514
H61? H 0.380 0.682 0.390
H62? H 0.499 0.604 0.359
H63? H 0.503 0.714 0.237
H64? H 0.596 0.729 0.292
loop_
_geom_bond_atom_site_label_1
_geom_bond_atom_site_label_2
_geom_bond_site_symmetry_1
_geom_bond_site_symmetry_2
S1 C3 1_555 1_555
S2 C9 1_555 1_555
S3 C15 1_555 1_555
O1 C6 1_555 1_555
O2 C12 1_555 1_555
O3 C18 1_555 1_555
C1 C2 1_555 1_555
C2 C3 1_555 1_555
C3 H2 1_555 1_555
C4 S1 1_555 1_555
C5 C2 1_555 1_555
C6 C4 1_555 1_555
C7 C6 1_555 1_555
C8 C1 1_555 1_555
C9 C8 1_555 1_555
C10 S2 1_555 1_555
C11 C8 1_555 1_555
C12 C10 1_555 1_555
C13 C12 1_555 1_555
C14 C1 1_555 1_555
C15 C14 1_555 1_555
C16 S3 1_555 1_555
C17 C14 1_555 1_555
C18 C16 1_555 1_555
C19 C18 1_555 1_555
H1 C1 1_555 1_555
H3 C5 1_555 1_555
H4 C7 1_555 1_555
H5 C7 1_555 1_555
H6 C7 1_555 1_555
H7 C9 1_555 1_555
H8 C11 1_555 1_555
H9 C13 1_555 1_555
H10 C13 1_555 1_555
H11 C13 1_555 1_555
H12 C15 1_555 1_555
H13 C17 1_555 1_555
H14 C19 1_555 1_555
H15 C19 1_555 1_555
H16 C19 1_555 1_555
S4 C22 1_555 1_555
S5 C28 1_555 1_555
S6 C34 1_555 1_555
O4 C25 1_555 1_555
O5 C31 1_555 1_555
O6 C37 1_555 1_555
C20 C21 1_555 1_555
C21 C22 1_555 1_555
C22 H18 1_555 1_555
C23 S4 1_555 1_555
C24 C21 1_555 1_555
C25 C23 1_555 1_555
C26 C25 1_555 1_555
C27 C20 1_555 1_555
C28 C27 1_555 1_555
C29 S5 1_555 1_555
C30 C27 1_555 1_555
C31 C29 1_555 1_555
C32 C31 1_555 1_555
C33 C20 1_555 1_555
C34 C33 1_555 1_555
C35 S6 1_555 1_555
C36 C33 1_555 1_555
C37 C35 1_555 1_555
C38 C37 1_555 1_555
H17 C20 1_555 1_555
H19 C24 1_555 1_555
H20 C26 1_555 1_555
H21 C26 1_555 1_555
H22 C26 1_555 1_555
H23 C28 1_555 1_555
H24 C30 1_555 1_555
H25 C32 1_555 1_555
H26 C32 1_555 1_555
H27 C32 1_555 1_555
H28 C34 1_555 1_555
H29 C36 1_555 1_555
H30 C38 1_555 1_555
H31 C38 1_555 1_555
H32 C38 1_555 1_555
C39 C40 1_555 1_555
C40 C41 1_555 1_555
C41 C42 1_555 1_555
C42 C43 1_555 1_555
C43 C44 1_555 1_555
C44 C45 1_555 1_555
C45 C46 1_555 1_555
C46 C39 1_555 1_555
H33 C39 1_555 1_555
H34 C39 1_555 1_555
H35 C40 1_555 1_555
H36 C40 1_555 1_555
H37 C41 1_555 1_555
H38 C41 1_555 1_555
H39 C42 1_555 1_555
H40 C42 1_555 1_555
H41 C43 1_555 1_555
H42 C43 1_555 1_555
H43 C44 1_555 1_555
H44 C44 1_555 1_555
H45 C45 1_555 1_555
H46 C45 1_555 1_555
H47 C46 1_555 1_555
H48 C46 1_555 1_555
C4 C5 1_555 1_555
C10 C11 1_555 1_555
C16 C17 1_555 1_555
C23 C24 1_555 1_555
C29 C30 1_555 1_555
C35 C36 1_555 1_555

#END
