
#######################################################################
#
#                 Cambridge Crystallographic Data Centre
#                                CCDC 
#
#######################################################################
#
# If this CIF has been generated from an entry in the Cambridge 
# Structural Database, then it will include bibliographic, chemical, 
# crystal, experimental, refinement or atomic coordinate data resulting 
# from the CCDC's data processing and validation procedures.
#
#######################################################################

data_YIRVAW01
_chemical_formula_moiety         '2(C19 H16 O3 S3),C6 H12'
_chemical_name_systematic        
'bis(tris(5-Acetyl-3-thienyl)methane) cyclohexane clathrate'
_symmetry_cell_setting           triclinic
_symmetry_space_group_name_H-M   'P -1'
_symmetry_Int_Tables_number      2
_space_group_name_Hall           '-P 1'
loop_
_symmetry_equiv_pos_site_id
_symmetry_equiv_pos_as_xyz
1 x,y,z
2 -x,-y,-z
_cell_length_a                   11.668(4)
_cell_length_b                   13.729(3)
_cell_length_c                   14.227(4)
_cell_angle_alpha                89.40(3)
_cell_angle_beta                 77.15(4)
_cell_angle_gamma                76.24(4)
_cell_volume                     2156.01
_exptl_crystal_colour            'pale yellow'
_cell_formula_units_Z            2
loop_
_atom_site_label
_atom_site_type_symbol
_atom_site_fract_x
_atom_site_fract_y
_atom_site_fract_z
S1 S 0.5804(2) 0.4019(2) 0.2905(2)
S2 S 0.0159(2) 0.2801(2) 0.3580(2)
S3 S 0.3769(2) 0.1292(2) 0.6294(2)
O1 O 0.4973(6) 0.6077(5) 0.3841(5)
O2 O 0.1037(7) 0.2278(6) 0.0808(5)
O3 O 0.3167(6) -0.0598(4) 0.7023(4)
C1 C 0.3721(7) 0.2019(5) 0.3527(5)
C2 C 0.4283(7) 0.2921(6) 0.3403(5)
C3 C 0.5393(7) 0.2902(6) 0.2854(5)
C4 C 0.4451(7) 0.4551(6) 0.3682(6)
C5 C 0.3726(7) 0.3871(6) 0.3899(5)
C6 C 0.4195(8) 0.5615(6) 0.4066(6)
C7 C 0.2991(8) 0.6046(7) 0.4696(7)
C8 C 0.2477(7) 0.2246(5) 0.3325(6)
C9 C 0.1424(8) 0.2570(6) 0.4003(7)
C10 C 0.1031(9) 0.2483(6) 0.2419(6)
C11 C 0.2287(6) 0.2171(5) 0.2332(6)
C12 C 0.0427(10) 0.2511(8) 0.1611(8)
C13 C -0.0928(10) 0.2849(9) 0.1759(9)
C14 C 0.3708(7) 0.1567(6) 0.4510(6)
C15 C 0.3935(7) 0.2001(6) 0.5292(6)
C16 C 0.3418(7) 0.0371(6) 0.5671(6)
C17 C 0.3425(7) 0.0622(6) 0.4735(6)
C18 C 0.3133(8) -0.0514(6) 0.6187(7)
C19 C 0.2816(9) -0.1280(7) 0.5621(7)
H1 H 0.423 0.152 0.305
H2 H 0.589 0.232 0.247
H3 H 0.294 0.402 0.433
H4 H 0.307 0.650 0.515
H5 H 0.268 0.551 0.501
H6 H 0.241(5) 0.640(5) 0.434(5)
H7 H 0.140 0.265 0.466
H8 H 0.289 0.195 0.175
H9 H -0.115 0.344 0.142
H10 H -0.130 0.296 0.242
H11 H -0.114(6) 0.218(5) 0.145(5)
H12 H 0.416 0.262 0.528
H13 H 0.325 0.020 0.428
H14 H 0.294 -0.193 0.588
H15 H 0.322 -0.133 0.496
H16 H 0.202(5) -0.095(5) 0.573(5)
S4 S 0.5676(2) 0.0594(2) 0.8114(2)
S5 S 0.3694(2) 0.4206(2) 1.1307(2)
S6 S 0.0132(2) 0.4297(2) 0.8527(2)
O4 O 0.4632(7) -0.1101(5) 0.8894(5)
O5 O 0.3117(6) 0.6374(4) 1.1946(4)
O6 O 0.1238(6) 0.4344(5) 0.5732(4)
C20 C 0.3686(7) 0.3467(5) 0.8558(6)
C21 C 0.4179(7) 0.2329(6) 0.8485(5)
C22 C 0.5342(8) 0.1876(6) 0.8044(6)
C23 C 0.4210(8) 0.0655(6) 0.8749(6)
C24 C 0.3526(8) 0.1625(6) 0.8891(6)
C25 C 0.3874(10) -0.0302(7) 0.9041(7)
C26 C 0.2574(10) -0.0215(7) 0.9511(8)
C27 C 0.3667(7) 0.3928(6) 0.9529(6)
C28 C 0.3848(7) 0.3427(6) 1.0339(6)
C29 C 0.3371(7) 0.5254(6) 1.0648(6)
C30 C 0.3389(7) 0.4990(6) 0.9725(6)
C31 C 0.3115(7) 0.6257(6) 1.1100(7)
C32 C 0.2821(9) 0.7149(7) 1.0509(7)
C33 C 0.2449(7) 0.3784(5) 0.8334(6)
C34 C 0.1357(7) 0.3958(6) 0.9001(6)
C35 C 0.1057(7) 0.4222(6) 0.7382(6)
C36 C 0.2278(7) 0.3944(5) 0.7359(6)
C37 C 0.0551(8) 0.4426(6) 0.6513(6)
C38 C -0.0774(8) 0.4724(7) 0.6610(7)
H17 H 0.423 0.372 0.808
H18 H 0.591 0.223 0.772
H19 H 0.269 0.180 0.922
H20 H 0.210 0.000 0.904
H21 H 0.233 0.027 1.002
H22 H 0.247(6) -0.076(5) 0.979(5)
H23 H 0.404 0.271 1.036
H24 H 0.323 0.547 0.925
H25 H 0.289 0.773 1.082
H26 H 0.201 0.724 1.043
H27 H 0.335(4) 0.704(4) 0.992(3)
H28 H 0.130 0.389 0.967
H29 H 0.291 0.386 0.679
H30 H -0.095 0.496 0.602
H31 H -0.113 0.523 0.710
H32 H -0.106(5) 0.416(4) 0.676(4)
C39 C -0.018(2) 0.830(2) 0.248(2)
C40 C 0.001(3) 0.924(2) 0.195(2)
C41 C 0.100(2) 0.965(2) 0.221(1)
C42 C 0.107(3) 0.964(2) 0.326(2)
C43 C 0.092(3) 0.862(2) 0.370(2)
C44 C -0.026(2) 0.843(2) 0.357(2)
H33 H -0.091 0.816 0.239
H34 H 0.048 0.774 0.222
H35 H -0.073 0.974 0.211
H36 H 0.021 0.908 0.128
H37 H 0.176 0.926 0.184
H38 H 0.089 1.033 0.202
H39 H 0.183 0.974 0.330
H40 H 0.044 1.017 0.360
H41 H 0.090 0.864 0.436
H42 H 0.157 0.809 0.338
H43 H -0.039 0.783 0.387
H44 H -0.091 0.898 0.383
C45? C 0.060(2) 1.002(2) 0.278(2)
C46? C 0.109(3) 0.942(2) 0.357(2)
C47? C 0.026(3) 0.871(2) 0.403(2)
C48? C 0.024(3) 0.809(2) 0.315(2)
C49? C -0.038(3) 0.866(2) 0.239(2)
C50? C 0.048(3) 0.935(2) 0.198(2)
C51? C 0.018(3) 0.974(2) 0.217(2)
C52? C 0.122(2) 0.963(2) 0.268(2)
C53? C 0.085(4) 0.929(3) 0.371(2)
C54? C 0.050(3) 0.829(2) 0.373(3)
C55? C -0.042(3) 0.826(2) 0.312(2)
C56? C -0.023(4) 0.874(3) 0.215(2)
H45? H 0.113 1.043 0.250
H46? H -0.017 1.044 0.305
H47? H 0.188 0.90 1.329
H48? H 0.112 0.986 0.405
H49? H -0.052 0.908 0.433
H50? H 0.060 0.829 0.447
H51? H -0.017 0.758 0.337
H52? H 0.105 0.777 0.283
H53? H -0.041 0.820 0.190
H54? H -0.117 0.903 0.267
H55? H 0.015 0.976 0.151
H56? H 0.126 0.894 0.168
H57? H -0.048 1.025 0.249
H58? H 0.044 0.992 0.152
H59? H 0.190 0.913 0.233
H60? H 0.143 1.025 0.269
H61? H 0.017 0.979 0.404
H62? H 0.151 0.923 0.400
H63? H 0.121 0.776 0.350
H64? H 0.014 0.817 0.437
H65? H -0.119 0.859 0.348
H66? H -0.038 0.757 0.299
H67? H 0.037 0.827 0.169
H68? H -0.097 0.887 0.195
loop_
_geom_bond_atom_site_label_1
_geom_bond_atom_site_label_2
_geom_bond_site_symmetry_1
_geom_bond_site_symmetry_2
S1 C3 1_555 1_555
S2 C9 1_555 1_555
S3 C15 1_555 1_555
O1 C6 1_555 1_555
O2 C12 1_555 1_555
O3 C18 1_555 1_555
C1 C2 1_555 1_555
C2 C3 1_555 1_555
C3 H2 1_555 1_555
C4 S1 1_555 1_555
C5 C2 1_555 1_555
C6 C4 1_555 1_555
C7 C6 1_555 1_555
C8 C1 1_555 1_555
C9 C8 1_555 1_555
C10 S2 1_555 1_555
C11 C8 1_555 1_555
C12 C10 1_555 1_555
C13 C12 1_555 1_555
C14 C1 1_555 1_555
C15 C14 1_555 1_555
C16 S3 1_555 1_555
C17 C14 1_555 1_555
C18 C16 1_555 1_555
C19 C18 1_555 1_555
H1 C1 1_555 1_555
H3 C5 1_555 1_555
H4 C7 1_555 1_555
H5 C7 1_555 1_555
H6 C7 1_555 1_555
H7 C9 1_555 1_555
H8 C11 1_555 1_555
H9 C13 1_555 1_555
H10 C13 1_555 1_555
H11 C13 1_555 1_555
H12 C15 1_555 1_555
H13 C17 1_555 1_555
H14 C19 1_555 1_555
H15 C19 1_555 1_555
H16 C19 1_555 1_555
S4 C22 1_555 1_555
S5 C28 1_555 1_555
S6 C34 1_555 1_555
O4 C25 1_555 1_555
O5 C31 1_555 1_555
O6 C37 1_555 1_555
C20 C21 1_555 1_555
C21 C22 1_555 1_555
C22 H18 1_555 1_555
C23 S4 1_555 1_555
C24 C21 1_555 1_555
C25 C23 1_555 1_555
C26 C25 1_555 1_555
C27 C20 1_555 1_555
C28 C27 1_555 1_555
C29 S5 1_555 1_555
C30 C27 1_555 1_555
C31 C29 1_555 1_555
C32 C31 1_555 1_555
C33 C20 1_555 1_555
C34 C33 1_555 1_555
C35 S6 1_555 1_555
C36 C33 1_555 1_555
C37 C35 1_555 1_555
C38 C37 1_555 1_555
H17 C20 1_555 1_555
H19 C24 1_555 1_555
H20 C26 1_555 1_555
H21 C26 1_555 1_555
H22 C26 1_555 1_555
H23 C28 1_555 1_555
H24 C30 1_555 1_555
H25 C32 1_555 1_555
H26 C32 1_555 1_555
H27 C32 1_555 1_555
H28 C34 1_555 1_555
H29 C36 1_555 1_555
H30 C38 1_555 1_555
H31 C38 1_555 1_555
H32 C38 1_555 1_555
C39 C40 1_555 1_555
C40 C41 1_555 1_555
C41 C42 1_555 1_555
C42 C43 1_555 1_555
C43 C44 1_555 1_555
C44 C39 1_555 1_555
H33 C39 1_555 1_555
H34 C39 1_555 1_555
H35 C40 1_555 1_555
H36 C40 1_555 1_555
H37 C41 1_555 1_555
H38 C41 1_555 1_555
H39 C42 1_555 1_555
H40 C42 1_555 1_555
H41 C43 1_555 1_555
H42 C43 1_555 1_555
H43 C44 1_555 1_555
H44 C44 1_555 1_555
C4 C5 1_555 1_555
C10 C11 1_555 1_555
C16 C17 1_555 1_555
C23 C24 1_555 1_555
C29 C30 1_555 1_555
C35 C36 1_555 1_555

#END
