
#######################################################################
#
#                 Cambridge Crystallographic Data Centre
#                                CCDC 
#
#######################################################################
#
# If this CIF has been generated from an entry in the Cambridge 
# Structural Database, then it will include bibliographic, chemical, 
# crystal, experimental, refinement or atomic coordinate data resulting 
# from the CCDC's data processing and validation procedures.
#
#######################################################################

data_YIRVAW
_chemical_formula_moiety         '2(C19 H16 O3 S3),C6 H12'
_chemical_name_systematic        
'bis(tris(5-Acetyl-3-thienyl)methane) cyclohexane clathrate'
_symmetry_cell_setting           triclinic
_symmetry_space_group_name_H-M   'P -1'
_symmetry_Int_Tables_number      2
_space_group_name_Hall           '-P 1'
loop_
_symmetry_equiv_pos_site_id
_symmetry_equiv_pos_as_xyz
1 x,y,z
2 -x,-y,-z
_cell_length_a                   8.622(2)
_cell_length_b                   10.194(2)
_cell_length_c                   12.795(2)
_cell_angle_alpha                79.09(1)
_cell_angle_beta                 72.74(1)
_cell_angle_gamma                84.89(1)
_cell_volume                     1053.88
_exptl_crystal_colour            'pale yellow'
_cell_formula_units_Z            1
loop_
_atom_site_label
_atom_site_type_symbol
_atom_site_fract_x
_atom_site_fract_y
_atom_site_fract_z
S1 S 0.99779(9) 0.27894(8) 0.46565(5)
S2 S 1.21799(8) 0.05128(6) 0.01288(5)
S3 S 0.45394(8) 0.31390(6) 0.15531(6)
O1 O 0.8366(3) 0.0702(2) 0.6502(2)
O2 O 1.2813(2) 0.0648(2) -0.2318(2)
O3 O 0.2472(2) 0.5576(2) 0.1364(2)
C1 C 0.9168(3) 0.3292(2) 0.1660(2)
C2 C 0.9210(3) 0.2868(2) 0.2853(2)
C3 C 1.0136(3) 0.3484(3) 0.3310(2)
C4 C 0.8628(3) 0.1639(2) 0.4647(2)
C5 C 0.8346(3) 0.1794(2) 0.3634(2)
C6 C 0.7948(3) 0.0703(3) 0.5676(2)
C7 C 0.6673(4) -0.0211(3) 0.5688(3)
C8 C 1.0151(3) 0.2334(2) 0.0913(2)
C9 C 1.1129(3) 0.1288(2) 0.1217(2)
C10 C 1.1317(3) 0.1584(2) -0.0775(2)
C11 C 1.0249(3) 0.2490(2) -0.0225(2)
C12 C 1.1759(3) 0.1458(2) -0.1945(2)
C13 C 1.0899(4) 0.2361(3) -0.2676(2)
C14 C 0.7432(3) 0.3522(2) 0.1582(2)
C15 C 0.6423(3) 0.2542(2) 0.1613(2)
C16 C 0.5052(3) 0.4758(2) 0.1468(2)
C17 C 0.6643(3) 0.4820(2) 0.1490(2)
C18 C 0.3819(3) 0.5834(3) 0.1394(2)
C19 C 0.4235(4) 0.7238(3) 0.1386(3)
H1 H 0.973(2) 0.424(2) 0.136(2)
H2 H 1.074(3) 0.428(3) 0.295(2)
H3 H 0.775(3) 0.127(2) 0.351(2)
H4 H 0.655(4) -0.090(3) 0.630(3)
H5 H 0.557(5) 0.023(4) 0.586(3)
H6 H 0.690(4) -0.044(3) 0.503(3)
H7 H 1.120(3) 0.102(2) 0.192(2)
H8 H 0.969(3) 0.314(2) -0.059(2)
H9 H 1.128(4) 0.233(3) -0.335(2)
H10 H 0.993(5) 0.218(4) -0.250(3)
H11 H 1.084(5) 0.325(4) -0.255(3)
H12 H 0.667(3) 0.163(2) 0.171(2)
H13 H 0.710(2) 0.552(2) 0.143(2)
H14 H 0.335(5) 0.785(4) 0.121(4)
H15 H 0.408(5) 0.744(4) 0.216(3)
H16 H 0.503(5) 0.754(4) 0.086(3)
C20 C 0.3706(4) 0.5025(4) 0.4481(3)
C21 C 0.4585(5) 0.3730(3) 0.4802(3)
C22 C 0.4780(4) 0.6199(3) 0.4233(3)
H17 H 0.345(4) 0.496(3) 0.378(3)
H18 H 0.276(4) 0.512(3) 0.517(3)
H19 H 0.386(4) 0.304(3) 0.502(3)
H20 H 0.544(3) 0.363(3) 0.417(2)
H21 H 0.568(3) 0.614(3) 0.351(2)
H22 H 0.430(4) 0.701(3) 0.403(3)
C22A C 0.5220(4) 0.3801(3) 0.5767(3)
C21A C 0.5415(5) 0.6270(3) 0.5198(3)
C20A C 0.6294(4) 0.4975(4) 0.5519(3)
H21A H 0.432(3) 0.386(3) 0.649(2)
H22A H 0.570(4) 0.299(3) 0.597(3)
H19A H 0.614(4) 0.696(3) 0.498(3)
H20A H 0.456(3) 0.637(3) 0.583(2)
H17A H 0.655(4) 0.504(3) 0.622(3)
H18A H 0.724(4) 0.488(3) 0.483(3)
loop_
_geom_bond_atom_site_label_1
_geom_bond_atom_site_label_2
_geom_bond_site_symmetry_1
_geom_bond_site_symmetry_2
S1 C3 1_555 1_555
S2 C9 1_555 1_555
S3 C15 1_555 1_555
O1 C6 1_555 1_555
O2 C12 1_555 1_555
O3 C18 1_555 1_555
C1 C2 1_555 1_555
C2 C3 1_555 1_555
C3 H2 1_555 1_555
C4 S1 1_555 1_555
C5 C2 1_555 1_555
C6 C4 1_555 1_555
C7 C6 1_555 1_555
C8 C1 1_555 1_555
C9 C8 1_555 1_555
C10 S2 1_555 1_555
C11 C8 1_555 1_555
C12 C10 1_555 1_555
C13 C12 1_555 1_555
C14 C1 1_555 1_555
C15 C14 1_555 1_555
C16 S3 1_555 1_555
C17 C14 1_555 1_555
C18 C16 1_555 1_555
C19 C18 1_555 1_555
H1 C1 1_555 1_555
H3 C5 1_555 1_555
H4 C7 1_555 1_555
H5 C7 1_555 1_555
H6 C7 1_555 1_555
H7 C9 1_555 1_555
H8 C11 1_555 1_555
H9 C13 1_555 1_555
H10 C13 1_555 1_555
H11 C13 1_555 1_555
H12 C15 1_555 1_555
H13 C17 1_555 1_555
H14 C19 1_555 1_555
H15 C19 1_555 1_555
H16 C19 1_555 1_555
C20 C21 1_555 1_555
C21 H19 1_555 1_555
C22 C20 1_555 1_555
H17 C20 1_555 1_555
H18 C20 1_555 1_555
H20 C21 1_555 1_555
H21 C22 1_555 1_555
H22 C22 1_555 1_555
C22A C21 1_555 1_555
C21A C22 1_555 1_555
C20A C22A 1_555 1_555
H21A C22A 1_555 1_555
H22A C22A 1_555 1_555
H19A C21A 1_555 1_555
H20A C21A 1_555 1_555
H17A C20A 1_555 1_555
H18A C20A 1_555 1_555
C4 C5 1_555 1_555
C10 C11 1_555 1_555
C16 C17 1_555 1_555
C21A C20A 1_555 1_555

#END
