
#######################################################################
#
#                 Cambridge Crystallographic Data Centre
#                                CCDC 
#
#######################################################################
#
# If this CIF has been generated from an entry in the Cambridge 
# Structural Database, then it will include bibliographic, chemical, 
# crystal, experimental, refinement or atomic coordinate data resulting 
# from the CCDC's data processing and validation procedures.
#
#######################################################################

data_YIRWUR01
_chemical_formula_moiety         'C22 H23 N1 O5'
_chemical_name_systematic        
'Methyl (R,S)-2,3,4,5-tetrahydro-4-(2-phenylethyl)-3-oxo-1H-benzo(c)azepine-8-carboxylic acid-2-acetate'
_symmetry_cell_setting           monoclinic
_symmetry_space_group_name_H-M   'P 21/c'
_symmetry_Int_Tables_number      14
_space_group_name_Hall           '-P 2ybc'
loop_
_symmetry_equiv_pos_site_id
_symmetry_equiv_pos_as_xyz
1 x,y,z
2 -x,1/2+y,1/2-z
3 -x,-y,-z
4 x,1/2-y,1/2+z
_cell_length_a                   8.4661(2)
_cell_length_b                   22.2667(2)
_cell_length_c                   10.0896(3)
_cell_angle_alpha                90
_cell_angle_beta                 94.730(1)
_cell_angle_gamma                90
_cell_volume                     1895.53
_cell_formula_units_Z            4
loop_
_atom_site_label
_atom_site_type_symbol
_atom_site_fract_x
_atom_site_fract_y
_atom_site_fract_z
O1 O 0.4651(2) 0.5066(1) 0.3300(1)
O2 O 0.7862(2) 0.5518(1) 0.2148(2)
O3 O 0.8976(2) 0.5652(1) 0.4204(2)
O4 O 0.4766(2) 0.1205(1) 0.1207(2)
O5 O 0.6569(2) 0.1437(1) 0.2866(2)
N1 N 0.4139(2) 0.4528(1) 0.1429(2)
C1 C 0.5084(2) 0.4686(1) 0.2496(2)
C2 C 0.6686(2) 0.4380(1) 0.2710(2)
C3 C 0.6506(3) 0.3727(1) 0.3145(2)
C4 C 0.5709(2) 0.3287(1) 0.2157(2)
C5 C 0.5924(2) 0.2678(1) 0.2452(2)
C6 C 0.5239(2) 0.2230(1) 0.1636(2)
C7 C 0.4290(3) 0.2389(1) 0.0511(2)
C8 C 0.4080(3) 0.2990(1) 0.0201(2)
C9 C 0.4793(2) 0.3441(1) 0.0990(2)
C10 C 0.4624(2) 0.4079(1) 0.0478(2)
C11 C 0.2623(2) 0.4843(1) 0.1164(2)
C12 C 0.1333(3) 0.4626(1) 0.2010(2)
C13 C 0.0837(2) 0.3982(1) 0.1785(2)
C14 C 0.1285(3) 0.3545(1) 0.2712(3)
C15 C 0.0764(3) 0.2957(1) 0.2535(3)
C16 C -0.0207(3) 0.2806(1) 0.1418(4)
C17 C -0.0644(3) 0.3234(1) 0.0475(3)
C18 C -0.0115(3) 0.3817(1) 0.0654(3)
C19 C 0.7730(3) 0.4725(1) 0.3744(2)
C20 C 0.8158(2) 0.5335(1) 0.3259(2)
C21 C 0.9502(3) 0.6237(1) 0.3794(3)
C22 C 0.5607(3) 0.1592(1) 0.1982(2)
H1 H 0.4990 0.0814 0.1639
H2 H 0.7262 0.4360 0.1757
H3 H 0.7503 0.3553 0.3565
H4 H 0.5872 0.3707 0.4098
H5 H 0.6629 0.2582 0.3274
H6 H 0.3823 0.2068 -0.0098
H7 H 0.3387 0.3118 -0.0629
H8 H 0.3870 0.4085 -0.0302
H9 H 0.5659 0.4249 0.0169
H10 H 0.2780 0.5303 0.1392
H11 H 0.2258 0.4824 0.0170
H12 H 0.1670 0.4707 0.3058
H13 H 0.0280 0.4905 0.1819
H14 H 0.1977 0.3643 0.3577
H15 H 0.1135 0.2677 0.3284
H16 H -0.0594 0.2371 0.1399
H17 H -0.1173 0.3112 -0.0537
H18 H -0.0507 0.4139 -0.0018
H19 H 0.7204 0.4749 0.4582
H20 H 0.8675 0.4522 0.4056
H21 H 1.0220 0.6203 0.3078
H22 H 1.0042 0.6374 0.4637
H23 H 0.8616 0.6470 0.3413
loop_
_geom_bond_atom_site_label_1
_geom_bond_atom_site_label_2
_geom_bond_site_symmetry_1
_geom_bond_site_symmetry_2
O1 C1 1_555 1_555
O2 C20 1_555 1_555
O3 C20 1_555 1_555
O4 C22 1_555 1_555
O5 C22 1_555 1_555
N1 C1 1_555 1_555
C1 C2 1_555 1_555
C2 C3 1_555 1_555
C3 C4 1_555 1_555
C4 C5 1_555 1_555
C5 C6 1_555 1_555
C6 C7 1_555 1_555
C7 C8 1_555 1_555
C8 C9 1_555 1_555
C9 C4 1_555 1_555
C10 N1 1_555 1_555
C11 N1 1_555 1_555
C12 C11 1_555 1_555
C13 C12 1_555 1_555
C14 C13 1_555 1_555
C15 C14 1_555 1_555
C16 C15 1_555 1_555
C17 C16 1_555 1_555
C18 C13 1_555 1_555
C19 C2 1_555 1_555
C20 C19 1_555 1_555
C21 O3 1_555 1_555
C22 C6 1_555 1_555
H1 O4 1_555 1_555
H2 C2 1_555 1_555
H3 C3 1_555 1_555
H4 C3 1_555 1_555
H5 C5 1_555 1_555
H6 C7 1_555 1_555
H7 C8 1_555 1_555
H8 C10 1_555 1_555
H9 C10 1_555 1_555
H10 C11 1_555 1_555
H11 C11 1_555 1_555
H12 C12 1_555 1_555
H13 C12 1_555 1_555
H14 C14 1_555 1_555
H15 C15 1_555 1_555
H16 C16 1_555 1_555
H17 C17 1_555 1_555
H18 C18 1_555 1_555
H19 C19 1_555 1_555
H20 C19 1_555 1_555
H21 C21 1_555 1_555
H22 C21 1_555 1_555
H23 C21 1_555 1_555
C9 C10 1_555 1_555
C17 C18 1_555 1_555

#END
