
#######################################################################
#
#                 Cambridge Crystallographic Data Centre
#                                CCDC 
#
#######################################################################
#
# If this CIF has been generated from an entry in the Cambridge 
# Structural Database, then it will include bibliographic, chemical, 
# crystal, experimental, refinement or atomic coordinate data resulting 
# from the CCDC's data processing and validation procedures.
#
#######################################################################

data_YIRXED
_chemical_formula_moiety         'C18 H24 N1 O2 1+,Cl1 1-'
_chemical_name_systematic        
'N-((S)-1-(3,5-Dimethyl-2-hydroxyphenyl)ethyl)-N-((R)-2-hydroxy-1-phenylethyl)ammonium chloride'
_symmetry_cell_setting           orthorhombic
_symmetry_space_group_name_H-M   'P 21 21 21'
_symmetry_Int_Tables_number      19
_space_group_name_Hall           'P 2ac 2ab'
loop_
_symmetry_equiv_pos_site_id
_symmetry_equiv_pos_as_xyz
1 x,y,z
2 1/2-x,-y,1/2+z
3 -x,1/2+y,1/2-z
4 1/2+x,1/2-y,-z
_cell_length_a                   7.6500(15)
_cell_length_b                   13.764(3)
_cell_length_c                   16.420(3)
_cell_angle_alpha                90
_cell_angle_beta                 90
_cell_angle_gamma                90
_cell_volume                     1728.94
_exptl_crystal_colour            colorless
_exptl_crystal_description       block
_cell_formula_units_Z            4
_exptl_crystal_recrystallization_method benzene/2-propanol
loop_
_atom_site_label
_atom_site_type_symbol
_atom_site_fract_x
_atom_site_fract_y
_atom_site_fract_z
C1 C 0.1767(4) 0.09660(19) 0.63609(17)
H1 H 0.1916 0.1312 0.5879
C2 C 0.1117(5) 0.1430(2) 0.7031(2)
H2 H 0.0825 0.2085 0.6998
C3 C 0.0893(4) 0.0945(2) 0.77455(17)
H3 H 0.0458 0.1263 0.8202
C4 C 0.1318(4) -0.0016(2) 0.77788(15)
H4 H 0.1172 -0.0354 0.8265
C5 C 0.1958(4) -0.04971(18) 0.71078(14)
H5 H 0.2225 -0.1155 0.7142
C6 C 0.2206(3) -0.00047(17) 0.63832(13)
C7 C 0.2868(3) -0.04882(17) 0.56183(13)
H6 H 0.3156 0.0023 0.5226
C8 C 0.1534(3) -0.1151(2) 0.52276(15)
H7 H 0.1227 -0.1673 0.5598
H8 H 0.0482 -0.0790 0.5098
C9 C 0.5988(3) -0.05219(16) 0.61594(12)
H9 H 0.5552 -0.0224 0.6662
C10 C 0.7415(3) -0.1235(2) 0.63911(15)
H10 H 0.6954 -0.1706 0.6765
H11 H 0.8363 -0.0891 0.6644
H12 H 0.7831 -0.1559 0.5911
C11 C 0.6644(3) 0.02824(16) 0.56161(13)
C12 C 0.6896(3) 0.12039(17) 0.59373(15)
H13 H 0.6527 0.1333 0.6466
C13 C 0.7678(3) 0.19304(18) 0.54931(15)
C14 C 0.7978(4) 0.29279(19) 0.58643(18)
H14 H 0.7111 0.3372 0.5664
H15 H 0.9120 0.3157 0.5717
H16 H 0.7892 0.2885 0.6446
C15 C 0.8203(4) 0.17215(17) 0.47075(15)
H17 H 0.8747 0.2208 0.4407
C16 C 0.7957(3) 0.08221(16) 0.43472(13)
C17 C 0.8537(4) 0.0637(2) 0.34898(14)
H18 H 0.8875 0.1239 0.3241
H19 H 0.7592 0.0353 0.3187
H20 H 0.9514 0.0199 0.3492
C18 C 0.7165(3) 0.01038(16) 0.48159(13)
N1 N 0.4501(2) -0.10661(13) 0.57750(11)
H21 H 0.4225 -0.1570 0.6100
H22 H 0.4874 -0.1313 0.5298
O1 O 0.6813(2) -0.08114(12) 0.45252(9)
H23 H 0.7531 -0.0954 0.4174
O2 O 0.2279(3) -0.15362(19) 0.45100(12)
H24 H 0.1519 -0.1591 0.4160
Cl1 Cl 0.60116(9) 0.19629(5) 0.83115(4)
loop_
_geom_bond_atom_site_label_1
_geom_bond_atom_site_label_2
_geom_bond_site_symmetry_1
_geom_bond_site_symmetry_2
C1 H1 1_555 1_555
C2 C1 1_555 1_555
H2 C2 1_555 1_555
C3 C2 1_555 1_555
H3 C3 1_555 1_555
C4 C3 1_555 1_555
H4 C4 1_555 1_555
C5 C4 1_555 1_555
H5 C5 1_555 1_555
C6 C1 1_555 1_555
C7 C6 1_555 1_555
H6 C7 1_555 1_555
C8 C7 1_555 1_555
H7 C8 1_555 1_555
H8 C8 1_555 1_555
C9 H9 1_555 1_555
C10 C9 1_555 1_555
H10 C10 1_555 1_555
H11 C10 1_555 1_555
H12 C10 1_555 1_555
C11 C9 1_555 1_555
C12 C11 1_555 1_555
H13 C12 1_555 1_555
C13 C12 1_555 1_555
C14 C13 1_555 1_555
H14 C14 1_555 1_555
H15 C14 1_555 1_555
H16 C14 1_555 1_555
C15 C13 1_555 1_555
H17 C15 1_555 1_555
C16 C15 1_555 1_555
C17 C16 1_555 1_555
H18 C17 1_555 1_555
H19 C17 1_555 1_555
H20 C17 1_555 1_555
C18 C11 1_555 1_555
N1 C7 1_555 1_555
H21 N1 1_555 1_555
H22 N1 1_555 1_555
O1 C18 1_555 1_555
H23 O1 1_555 1_555
O2 C8 1_555 1_555
H24 O2 1_555 1_555
C5 C6 1_555 1_555
C9 N1 1_555 1_555
C16 C18 1_555 1_555

#END
