
#######################################################################
#
#                 Cambridge Crystallographic Data Centre
#                                CCDC 
#
#######################################################################
#
# If this CIF has been generated from an entry in the Cambridge 
# Structural Database, then it will include bibliographic, chemical, 
# crystal, experimental, refinement or atomic coordinate data resulting 
# from the CCDC's data processing and validation procedures.
#
#######################################################################

data_YIRXUT
_chemical_formula_moiety         'C8 H11 Br1 N1 1+,Br1 1-,H2 O1'
_chemical_name_systematic        
'4-Bromo-2,6-dimethylanilinium bromide monohydrate'
_symmetry_cell_setting           monoclinic
_symmetry_space_group_name_H-M   'P 21/n'
_symmetry_Int_Tables_number      14
_space_group_name_Hall           '-P 2yn'
loop_
_symmetry_equiv_pos_site_id
_symmetry_equiv_pos_as_xyz
1 x,y,z
2 1/2-x,1/2+y,1/2-z
3 -x,-y,-z
4 1/2+x,1/2-y,1/2+z
_cell_length_a                   7.1630(14)
_cell_length_b                   18.649(4)
_cell_length_c                   8.4770(17)
_cell_angle_alpha                90
_cell_angle_beta                 109.98(3)
_cell_angle_gamma                90
_cell_volume                     1064.23
_exptl_crystal_colour            colorless
_exptl_crystal_description       block
_cell_formula_units_Z            4
loop_
_atom_site_label
_atom_site_type_symbol
_atom_site_fract_x
_atom_site_fract_y
_atom_site_fract_z
Br1 Br 0.93285(11) 0.38204(3) 0.77315(8)
C1 C 0.7335(8) 0.5937(3) 0.4804(7)
C2 C 0.6858(8) 0.5297(3) 0.3931(7)
C3 C 0.7483(8) 0.4664(3) 0.4828(7)
H1 H 0.7195 0.4224 0.4282
C4 C 0.8528(9) 0.4691(3) 0.6521(7)
C5 C 0.9007(8) 0.5334(3) 0.7373(7)
H2 H 0.9728 0.5338 0.8517
C6 C 0.8412(8) 0.5966(3) 0.6519(6)
C7 C 0.5756(9) 0.5250(3) 0.2060(6)
H3 H 0.4469 0.5466 0.1799
H4 H 0.5605 0.4755 0.1723
H5 H 0.6494 0.5497 0.1472
C8 C 0.8945(9) 0.6665(3) 0.7470(7)
H6 H 0.7752 0.6910 0.7436
H7 H 0.9682 0.6960 0.6964
H8 H 0.9739 0.6569 0.8616
N1 N 0.6621(7) 0.6625(2) 0.3935(5)
H9 H 0.6039 0.6545 0.2841
H10 H 0.7645 0.6921 0.4099
H11 H 0.5749 0.6822 0.4343
Br2 Br 0.47862(10) 0.69675(3) 0.95867(8)
O1 O 0.4192(8) 0.7175(3) 0.5552(6)
H12 H 0.442(3) 0.710(4) 0.657(3)
H13 H 0.306(3) 0.736(4) 0.518(3)
loop_
_geom_bond_atom_site_label_1
_geom_bond_atom_site_label_2
_geom_bond_site_symmetry_1
_geom_bond_site_symmetry_2
Br1 C4 1_555 1_555
C1 C2 1_555 1_555
C2 C3 1_555 1_555
C3 H1 1_555 1_555
C4 C3 1_555 1_555
C5 C4 1_555 1_555
H2 C5 1_555 1_555
C6 C1 1_555 1_555
C7 C2 1_555 1_555
H3 C7 1_555 1_555
H4 C7 1_555 1_555
H5 C7 1_555 1_555
C8 C6 1_555 1_555
H6 C8 1_555 1_555
H7 C8 1_555 1_555
H8 C8 1_555 1_555
N1 C1 1_555 1_555
H9 N1 1_555 1_555
H10 N1 1_555 1_555
H11 N1 1_555 1_555
O1 H12 1_555 1_555
H13 O1 1_555 1_555
C5 C6 1_555 1_555

#END
