
#######################################################################
#
#                 Cambridge Crystallographic Data Centre
#                                CCDC 
#
#######################################################################
#
# If this CIF has been generated from an entry in the Cambridge 
# Structural Database, then it will include bibliographic, chemical, 
# crystal, experimental, refinement or atomic coordinate data resulting 
# from the CCDC's data processing and validation procedures.
#
#######################################################################

data_YIRZOQ
_chemical_formula_moiety         'C13 H10 F3 N1 O2'
_chemical_name_systematic        
'Methyl 4-methyl-2-(trifluoromethyl)quinoline-3-carboxylate'
_symmetry_cell_setting           monoclinic
_symmetry_space_group_name_H-M   'P 21/c'
_symmetry_Int_Tables_number      14
_space_group_name_Hall           '-P 2ybc'
loop_
_symmetry_equiv_pos_site_id
_symmetry_equiv_pos_as_xyz
1 x,y,z
2 -x,1/2+y,1/2-z
3 -x,-y,-z
4 x,1/2-y,1/2+z
_cell_length_a                   10.146(12)
_cell_length_b                   7.733(9)
_cell_length_c                   16.335(19)
_cell_angle_alpha                90
_cell_angle_beta                 103.611(12)
_cell_angle_gamma                90
_cell_volume                     1245.63
_cell_formula_units_Z            4
loop_
_atom_site_label
_atom_site_type_symbol
_atom_site_fract_x
_atom_site_fract_y
_atom_site_fract_z
C1 C 1.0172(3) 0.7939(4) 0.0780(2)
C2 C 1.1230(3) 0.7226(5) 0.0452(2)
H1 H 1.1136 0.6129 0.0212
C3 C 1.2388(4) 0.8158(6) 0.0491(2)
H2 H 1.3073 0.7700 0.0265
C4 C 1.2553(4) 0.9798(6) 0.0867(3)
H3 H 1.3350 1.0413 0.0894
C5 C 1.1552(4) 1.0501(5) 0.1195(2)
H4 H 1.1680 1.1585 0.1448
C6 C 1.0324(3) 0.9601(4) 0.11556(19)
C7 C 0.9236(3) 1.0275(4) 0.14810(19)
C8 C 0.8084(3) 0.9267(4) 0.14039(19)
C9 C 0.8032(3) 0.7634(4) 0.0999(2)
C10 C 0.6800(4) 0.6500(5) 0.0872(3)
C11 C 0.6929(4) 0.9922(5) 0.1754(2)
C12 C 0.9354(4) 1.2022(6) 0.1893(3)
H5 H 0.8591 1.2209 0.2135
H6 H 0.9371 1.2899 0.1480
H7 H 1.0176 1.2076 0.2327
C13 C 0.5845(6) 0.9630(8) 0.2879(3)
H8 H 0.5904 1.0845 0.3002
H9 H 0.5931 0.8990 0.3392
H10 H 0.4985 0.9379 0.2505
F1 F 0.6615(4) 0.5542(6) 0.0231(3)
F2 F 0.6906(4) 0.5386(5) 0.1504(3)
F3 F 0.5689(3) 0.7284(4) 0.0903(3)
N1 N 0.9010(3) 0.6974(4) 0.07044(18)
O1 O 0.6936(3) 0.9134(4) 0.24787(16)
O2 O 0.6141(3) 1.1004(4) 0.1440(2)
loop_
_geom_bond_atom_site_label_1
_geom_bond_atom_site_label_2
_geom_bond_site_symmetry_1
_geom_bond_site_symmetry_2
C1 C2 1_555 1_555
C2 H1 1_555 1_555
C3 C2 1_555 1_555
H2 C3 1_555 1_555
C4 C3 1_555 1_555
H3 C4 1_555 1_555
C5 C4 1_555 1_555
H4 C5 1_555 1_555
C6 C1 1_555 1_555
C7 C6 1_555 1_555
C8 C7 1_555 1_555
C9 C8 1_555 1_555
C10 C9 1_555 1_555
C11 C8 1_555 1_555
C12 C7 1_555 1_555
H5 C12 1_555 1_555
H6 C12 1_555 1_555
H7 C12 1_555 1_555
C13 H8 1_555 1_555
H9 C13 1_555 1_555
H10 C13 1_555 1_555
F1 C10 1_555 1_555
F2 C10 1_555 1_555
F3 C10 1_555 1_555
N1 C1 1_555 1_555
O1 C11 1_555 1_555
O2 C11 1_555 1_555
C5 C6 1_555 1_555
C9 N1 1_555 1_555
C13 O1 1_555 1_555

#END
