
#######################################################################
#
#                 Cambridge Crystallographic Data Centre
#                                CCDC 
#
#######################################################################
#
# If this CIF has been generated from an entry in the Cambridge 
# Structural Database, then it will include bibliographic, chemical, 
# crystal, experimental, refinement or atomic coordinate data resulting 
# from the CCDC's data processing and validation procedures.
#
#######################################################################

data_YISCAH
_chemical_formula_moiety         'C24 H18 Br1 N1'
_chemical_name_systematic        7-bromo-N,N-dimethylpentahelicen-5-amine
_symmetry_cell_setting           monoclinic
_symmetry_space_group_name_H-M   'P 21/c'
_symmetry_Int_Tables_number      14
_space_group_name_Hall           '-P 2ybc'
loop_
_symmetry_equiv_pos_site_id
_symmetry_equiv_pos_as_xyz
1 x,y,z
2 -x,1/2+y,1/2-z
3 -x,-y,-z
4 x,1/2-y,1/2+z
_cell_length_a                   7.670(5)
_cell_length_b                   23.705(16)
_cell_length_c                   9.924(7)
_cell_angle_alpha                90
_cell_angle_beta                 96.598(7)
_cell_angle_gamma                90
_cell_volume                     1792.4
_exptl_crystal_colour            'light yellow'
_exptl_crystal_description       block
_cell_formula_units_Z            4
_exptl_crystal_recrystallization_method 'Re-crystallisation from solvent'
loop_
_atom_site_label
_atom_site_type_symbol
_atom_site_fract_x
_atom_site_fract_y
_atom_site_fract_z
Br1 Br 0.29614(6) 0.50906(2) 0.79617(4)
N1 N 0.8312(4) 0.64825(12) 0.8909(3)
C1 C 0.8462(5) 0.70899(16) 0.9107(4)
H1 H 0.8634 0.7268 0.8264
H2 H 0.9443 0.7171 0.9769
H3 H 0.7406 0.7232 0.9420
C2 C 0.9848(4) 0.65997(14) 0.6452(3)
H4 H 1.0489 0.6692 0.7276
C3 C 1.0627(4) 0.66375(14) 0.5288(4)
H5 H 1.1786 0.6757 0.5321
C4 C 0.9689(4) 0.64965(14) 0.4053(3)
H6 H 1.0222 0.6518 0.3259
C5 C 0.7985(4) 0.63260(13) 0.4005(3)
H7 H 0.7381 0.6229 0.3171
C6 C 0.7104(4) 0.62914(12) 0.5174(3)
C7 C 0.8089(4) 0.64240(13) 0.6432(3)
C8 C 0.7899(5) 0.61921(18) 1.0126(3)
H8 H 0.6748 0.6300 1.0320
H9 H 0.8746 0.6293 1.0876
H10 H 0.7932 0.5792 0.9983
C9 C 0.7350(4) 0.63116(13) 0.7679(3)
C10 C 0.5877(4) 0.59930(13) 0.7629(3)
H11 H 0.5476 0.5880 0.8437
C11 C 0.4926(4) 0.58262(13) 0.6381(3)
C12 C 0.5370(4) 0.60446(13) 0.5143(3)
C13 C 0.4174(4) 0.59489(13) 0.3920(3)
C14 C 0.2989(4) 0.54980(13) 0.3919(3)
C15 C 0.2694(4) 0.52343(14) 0.5150(3)
H12 H 0.1924 0.4931 0.5146
C16 C 0.3536(4) 0.54245(14) 0.6327(3)
C17 C 0.2017(4) 0.53167(15) 0.2681(4)
H13 H 0.1318 0.4996 0.2677
C18 C 0.2100(4) 0.56030(16) 0.1524(4)
H14 H 0.1551 0.5459 0.0713
C19 C 0.3017(4) 0.61239(15) 0.1525(3)
C20 C 0.4029(4) 0.63133(14) 0.2729(3)
C21 C 0.4659(4) 0.68674(14) 0.2739(3)
H15 H 0.5270 0.7007 0.3533
C22 C 0.4411(5) 0.72109(17) 0.1630(4)
H16 H 0.4841 0.7578 0.1673
C23 C 0.3504(5) 0.70052(18) 0.0428(4)
H17 H 0.3366 0.7232 -0.0342
C24 C 0.2830(5) 0.64794(18) 0.0383(4)
H18 H 0.2227 0.6349 -0.0423
loop_
_geom_bond_atom_site_label_1
_geom_bond_atom_site_label_2
_geom_bond_site_symmetry_1
_geom_bond_site_symmetry_2
Br1 C16 1_555 1_555
N1 C1 1_555 1_555
C1 H1 1_555 1_555
H2 C1 1_555 1_555
H3 C1 1_555 1_555
C2 H4 1_555 1_555
C3 C2 1_555 1_555
H5 C3 1_555 1_555
C4 C3 1_555 1_555
H6 C4 1_555 1_555
C5 C4 1_555 1_555
H7 C5 1_555 1_555
C6 C5 1_555 1_555
C7 C2 1_555 1_555
C8 N1 1_555 1_555
H8 C8 1_555 1_555
H9 C8 1_555 1_555
H10 C8 1_555 1_555
C9 N1 1_555 1_555
C10 C9 1_555 1_555
H11 C10 1_555 1_555
C11 C10 1_555 1_555
C12 C6 1_555 1_555
C13 C12 1_555 1_555
C14 C13 1_555 1_555
C15 C14 1_555 1_555
H12 C15 1_555 1_555
C16 C11 1_555 1_555
C17 C14 1_555 1_555
H13 C17 1_555 1_555
C18 C17 1_555 1_555
H14 C18 1_555 1_555
C19 C18 1_555 1_555
C20 C13 1_555 1_555
C21 C20 1_555 1_555
H15 C21 1_555 1_555
C22 C21 1_555 1_555
H16 C22 1_555 1_555
C23 C22 1_555 1_555
H17 C23 1_555 1_555
C24 C19 1_555 1_555
H18 C24 1_555 1_555
C6 C7 1_555 1_555
C7 C9 1_555 1_555
C11 C12 1_555 1_555
C15 C16 1_555 1_555
C19 C20 1_555 1_555
C23 C24 1_555 1_555

#END
