
#######################################################################
#
#                 Cambridge Crystallographic Data Centre
#                                CCDC 
#
#######################################################################
#
# If this CIF has been generated from an entry in the Cambridge 
# Structural Database, then it will include bibliographic, chemical, 
# crystal, experimental, refinement or atomic coordinate data resulting 
# from the CCDC's data processing and validation procedures.
#
#######################################################################

data_YISCIP
_chemical_formula_moiety         'C19 H14 O1 S1'
_chemical_name_systematic        
1-phenyl-1,4-dihydro-2H-naphtho[2,1-c]thiopyran-2-one
_symmetry_cell_setting           orthorhombic
_symmetry_space_group_name_H-M   'P 21 21 21'
_symmetry_Int_Tables_number      19
_space_group_name_Hall           'P 2ac 2ab'
loop_
_symmetry_equiv_pos_site_id
_symmetry_equiv_pos_as_xyz
1 x,y,z
2 1/2-x,-y,1/2+z
3 -x,1/2+y,1/2-z
4 1/2+x,1/2-y,-z
_cell_length_a                   9.497(2)
_cell_length_b                   10.580(3)
_cell_length_c                   13.750(4)
_cell_angle_alpha                90
_cell_angle_beta                 90
_cell_angle_gamma                90
_cell_volume                     1381.58
_exptl_crystal_colour            colorless
_exptl_crystal_description       block
_cell_formula_units_Z            4
_exptl_crystal_recrystallization_method 
'Re-crystallisation from solvent: hexane and ethyl acetate'
loop_
_atom_site_label
_atom_site_type_symbol
_atom_site_fract_x
_atom_site_fract_y
_atom_site_fract_z
S1 S 0.84347(9) 0.51192(8) 0.94550(6)
O1 O 0.7640(2) 0.2817(2) 0.95651(17)
C1 C 0.7749(3) 0.3697(3) 0.9029(2)
C2 C 0.7323(3) 0.3597(3) 0.7963(2)
H1 H 0.7403 0.2700 0.7796
C3 C 0.8296(3) 0.4283(2) 0.72763(19)
C4 C 0.8727(3) 0.5480(3) 0.7494(2)
C5 C 0.8230(3) 0.6110(3) 0.8402(2)
H2 H 0.7245 0.6333 0.8331
H3 H 0.8758 0.6885 0.8498
C6 C 0.5763(3) 0.3924(3) 0.7854(2)
C7 C 0.4788(3) 0.3272(3) 0.8410(2)
H4 H 0.5094 0.2677 0.8860
C8 C 0.3369(3) 0.3499(3) 0.8300(2)
H5 H 0.2723 0.3062 0.8682
C9 C 0.2899(3) 0.4367(3) 0.7631(2)
H6 H 0.1940 0.4513 0.7553
C10 C 0.3864(3) 0.5015(3) 0.7079(2)
H7 H 0.3555 0.5602 0.6623
C11 C 0.5288(3) 0.4803(3) 0.7194(2)
H8 H 0.5932 0.5257 0.6823
C12 C 0.8734(3) 0.3706(3) 0.6393(2)
C13 C 0.8269(3) 0.2503(3) 0.6085(2)
H9 H 0.7651 0.2046 0.6475
C14 C 0.8710(3) 0.2003(3) 0.5227(2)
H10 H 0.8388 0.1210 0.5037
C15 C 0.9637(3) 0.2661(3) 0.4628(2)
H11 H 0.9941 0.2305 0.4047
C16 C 1.0091(3) 0.3820(3) 0.4895(2)
H12 H 1.0707 0.4257 0.4491
C17 C 0.9653(3) 0.4379(3) 0.5770(2)
C18 C 1.0080(3) 0.5602(3) 0.6026(2)
H13 H 1.0682 0.6047 0.5617
C19 C 0.9627(3) 0.6140(3) 0.6858(2)
H14 H 0.9912 0.6956 0.7014
loop_
_geom_bond_atom_site_label_1
_geom_bond_atom_site_label_2
_geom_bond_site_symmetry_1
_geom_bond_site_symmetry_2
S1 C1 1_555 1_555
O1 C1 1_555 1_555
C1 C2 1_555 1_555
C2 H1 1_555 1_555
C3 C2 1_555 1_555
C4 C3 1_555 1_555
C5 S1 1_555 1_555
H2 C5 1_555 1_555
H3 C5 1_555 1_555
C6 C2 1_555 1_555
C7 C6 1_555 1_555
H4 C7 1_555 1_555
C8 C7 1_555 1_555
H5 C8 1_555 1_555
C9 C8 1_555 1_555
H6 C9 1_555 1_555
C10 C9 1_555 1_555
H7 C10 1_555 1_555
C11 C6 1_555 1_555
H8 C11 1_555 1_555
C12 C3 1_555 1_555
C13 C12 1_555 1_555
H9 C13 1_555 1_555
C14 C13 1_555 1_555
H10 C14 1_555 1_555
C15 C14 1_555 1_555
H11 C15 1_555 1_555
C16 C15 1_555 1_555
H12 C16 1_555 1_555
C17 C12 1_555 1_555
C18 C17 1_555 1_555
H13 C18 1_555 1_555
C19 C4 1_555 1_555
H14 C19 1_555 1_555
C4 C5 1_555 1_555
C10 C11 1_555 1_555
C16 C17 1_555 1_555
C18 C19 1_555 1_555

#END
