
#######################################################################
#
#                 Cambridge Crystallographic Data Centre
#                                CCDC 
#
#######################################################################
#
# If this CIF has been generated from an entry in the Cambridge 
# Structural Database, then it will include bibliographic, chemical, 
# crystal, experimental, refinement or atomic coordinate data resulting 
# from the CCDC's data processing and validation procedures.
#
#######################################################################

data_YISCOV
_chemical_formula_moiety         'C15 H13 N1 O3 S2'
_chemical_name_systematic        
4-[(4-methylphenyl)sulfonyl]-2H-1,4-benzothiazin-3(4H)-one
_symmetry_cell_setting           monoclinic
_symmetry_space_group_name_H-M   'P 21/c'
_symmetry_Int_Tables_number      14
_space_group_name_Hall           '-P 2ybc'
loop_
_symmetry_equiv_pos_site_id
_symmetry_equiv_pos_as_xyz
1 x,y,z
2 -x,1/2+y,1/2-z
3 -x,-y,-z
4 x,1/2-y,1/2+z
_cell_length_a                   14.329(6)
_cell_length_b                   6.322(3)
_cell_length_c                   15.155(6)
_cell_angle_alpha                90
_cell_angle_beta                 90
_cell_angle_gamma                90
_cell_volume                     1372.86
_exptl_crystal_colour            colorless
_exptl_crystal_description       block
_cell_formula_units_Z            4
_exptl_crystal_recrystallization_method 
'Re-crystallisation from solvent: hexane and ethyl acetate'
loop_
_atom_site_label
_atom_site_type_symbol
_atom_site_fract_x
_atom_site_fract_y
_atom_site_fract_z
S1 S 0.21124(5) 0.70764(11) 0.40116(5)
S2 S 0.41713(6) 0.21232(11) 0.36194(5)
O1 O 0.36507(15) 0.7288(3) 0.28186(14)
O2 O 0.15951(14) 0.6383(4) 0.47523(14)
O3 O 0.22094(16) 0.9252(3) 0.38452(16)
N1 N 0.31955(15) 0.6048(4) 0.41488(14)
C1 C 0.33359(17) 0.4589(4) 0.48446(17)
C2 C 0.16845(18) 0.5809(4) 0.30910(17)
C3 C 0.38013(19) 0.6171(4) 0.34308(18)
C4 C 0.37154(19) 0.2624(4) 0.46654(19)
C5 C 0.1626(2) 0.6858(5) 0.2310(2)
H1 H 0.1837 0.8245 0.2264
C6 C 0.31015(18) 0.5116(5) 0.56999(18)
H2 H 0.2899 0.6478 0.5831
C7 C 0.1379(2) 0.3760(5) 0.3174(2)
H3 H 0.1420 0.3052 0.3711
C8 C 0.31666(19) 0.3641(5) 0.6354(2)
H4 H 0.2994 0.3985 0.6928
C9 C 0.46092(19) 0.4733(5) 0.34748(19)
H5 H 0.5010 0.5116 0.3966
H6 H 0.4970 0.4822 0.2935
C10 C 0.3486(2) 0.1650(5) 0.6163(2)
H7 H 0.3503 0.0623 0.6602
C11 C 0.09573(19) 0.3808(6) 0.1656(2)
C12 C 0.3779(2) 0.1170(5) 0.5336(2)
H8 H 0.4027 -0.0162 0.5222
C13 C 0.1261(2) 0.5866(5) 0.1604(2)
H9 H 0.1213 0.6587 0.1071
C14 C 0.1015(2) 0.2795(5) 0.2449(2)
H10 H 0.0799 0.1411 0.2496
C15 C 0.0604(3) 0.2705(7) 0.0864(3)
H11 H 0.0065 0.3433 0.0643
H12 H 0.0437 0.1280 0.1017
H13 H 0.1080 0.2685 0.0419
loop_
_geom_bond_atom_site_label_1
_geom_bond_atom_site_label_2
_geom_bond_site_symmetry_1
_geom_bond_site_symmetry_2
S1 O2 1_555 1_555
S2 C4 1_555 1_555
O1 C3 1_555 1_555
O3 S1 1_555 1_555
N1 S1 1_555 1_555
C1 N1 1_555 1_555
C2 S1 1_555 1_555
C3 N1 1_555 1_555
C4 C1 1_555 1_555
C5 C2 1_555 1_555
H1 C5 1_555 1_555
C6 C1 1_555 1_555
H2 C6 1_555 1_555
C7 C2 1_555 1_555
H3 C7 1_555 1_555
C8 C6 1_555 1_555
H4 C8 1_555 1_555
C9 S2 1_555 1_555
H5 C9 1_555 1_555
H6 C9 1_555 1_555
C10 C8 1_555 1_555
H7 C10 1_555 1_555
C11 C13 1_555 1_555
C12 C4 1_555 1_555
H8 C12 1_555 1_555
C13 C5 1_555 1_555
H9 C13 1_555 1_555
C14 C7 1_555 1_555
H10 C14 1_555 1_555
C15 C11 1_555 1_555
H11 C15 1_555 1_555
H12 C15 1_555 1_555
H13 C15 1_555 1_555
C3 C9 1_555 1_555
C10 C12 1_555 1_555
C11 C14 1_555 1_555

#END
