
#######################################################################
#
#                 Cambridge Crystallographic Data Centre
#                                CCDC 
#
#######################################################################
#
# If this CIF has been generated from an entry in the Cambridge 
# Structural Database, then it will include bibliographic, chemical, 
# crystal, experimental, refinement or atomic coordinate data resulting 
# from the CCDC's data processing and validation procedures.
#
#######################################################################

data_YISCAG
_chemical_formula_moiety         'C84 H32 N2 O6'
_chemical_name_systematic        
'bis(4,5-Dimethylcyclohex-4-eno)-(4-oxo-3,5-bis(phenylimino)cyclopenteno)-dihydroxy-trioxo-open-cage-C60fullerene unknown solvate'
_symmetry_cell_setting           orthorhombic
_symmetry_space_group_name_H-M   'P n m a'
_symmetry_Int_Tables_number      62
_space_group_name_Hall           '-P 2ac 2n'
loop_
_symmetry_equiv_pos_site_id
_symmetry_equiv_pos_as_xyz
1 x,y,z
2 1/2-x,-y,1/2+z
3 1/2+x,1/2-y,1/2-z
4 -x,1/2+y,-z
5 -x,-y,-z
6 1/2+x,y,1/2-z
7 1/2-x,1/2+y,1/2+z
8 x,1/2-y,z
_cell_length_a                   25.3428(9)
_cell_length_b                   17.6994(6)
_cell_length_c                   12.6455(5)
_cell_angle_alpha                90
_cell_angle_beta                 90
_cell_angle_gamma                90
_cell_volume                     5672.17
_cell_formula_units_Z            4
loop_
_atom_site_label
_atom_site_type_symbol
_atom_site_fract_x
_atom_site_fract_y
_atom_site_fract_z
C1 C 0.10327(10) 0.21168(16) 0.9942(2)
C2 C 0.14462(10) 0.18209(16) 0.9247(2)
C3 C 0.16706(16) 0.2500 0.8660(4)
C4 C 0.07167(11) 0.16257(15) 1.0674(2)
C5 C 0.19617(11) 0.07864(16) 0.8615(3)
C6 C 0.23857(16) 0.0425(3) 0.9036(4)
H1 H 0.2445 0.0453 0.9776
C7 C 0.2726(2) 0.0025(3) 0.8427(5)
H2 H 0.3029 -0.0197 0.8741
C8 C 0.26390(16) -0.0062(2) 0.7393(4)
H3 H 0.2861 -0.0378 0.6979
C9 C 0.22108(17) 0.0323(4) 0.6926(4)
H4 H 0.2156 0.0300 0.6184
C10 C 0.18771(15) 0.0730(3) 0.7551(4)
H5 H 0.1582 0.0977 0.7243
C11 C -0.00630(13) 0.04137(18) 0.6758(2)
H6 H 0.0253 0.0546 0.6337
H7 H 0.0033 -0.0002 0.7245
C12 C -0.04978(13) 0.01599(18) 0.6032(2)
C13 C -0.06858(12) 0.06861(19) 0.5388(2)
C14 C -0.04358(12) 0.14544(18) 0.5458(2)
H8 H -0.0633 0.1809 0.4999
H9 H -0.0069 0.1425 0.5189
C15 C -0.11308(15) 0.0592(2) 0.4606(3)
H10 H -0.1260 0.0070 0.4629
H11 H -0.1003 0.0707 0.3892
H12 H -0.1419 0.0938 0.4788
C16 C -0.06938(17) -0.0628(2) 0.6156(3)
H13 H -0.0888 -0.0672 0.6824
H14 H -0.0394 -0.0977 0.6161
H15 H -0.0929 -0.0753 0.5566
C17 C -0.00793(16) 0.2500 0.6524(3)
C18 C -0.04277(11) 0.17724(16) 0.6620(2)
C19 C -0.02492(11) 0.11210(16) 0.7414(2)
C20 C 0.02074(11) 0.12681(16) 0.8207(2)
C21 C 0.00464(11) 0.09859(15) 0.9279(2)
C22 C 0.02330(11) 0.11652(14) 1.0271(2)
C23 C -0.04306(13) 0.20937(16) 1.2377(2)
C24 C 0.04353(11) 0.21161(15) 1.1497(2)
C25 C -0.00152(12) 0.17188(16) 1.1881(2)
C26 C -0.01253(12) 0.11111(14) 1.1157(2)
C27 C -0.06410(12) 0.08511(15) 1.1046(2)
C28 C -0.08227(12) 0.06148(14) 1.0029(2)
C29 C -0.04870(11) 0.07018(14) 0.9169(2)
C30 C -0.06909(11) 0.08736(15) 0.8146(2)
C31 C -0.12128(11) 0.10546(15) 0.8049(2)
C32 C -0.13537(10) 0.17110(16) 0.7400(2)
C33 C -0.09578(10) 0.21026(16) 0.6889(2)
C34 C -0.17702(10) 0.21015(17) 0.7925(3)
C35 C -0.19000(10) 0.16978(17) 0.8885(3)
C36 C -0.15562(11) 0.10523(16) 0.8960(3)
C37 C -0.13693(12) 0.08120(16) 0.9934(2)
C38 C -0.15224(12) 0.12076(17) 1.0895(3)
C39 C -0.18452(12) 0.18400(18) 1.0822(3)
C40 C -0.20372(11) 0.20885(17) 0.9801(3)
C41 C -0.10713(12) 0.12128(16) 1.1590(2)
C42 C -0.09658(12) 0.18398(16) 1.2227(2)
C43 C -0.13051(18) 0.2500 1.2143(3)
C44 C -0.17356(17) 0.2500 1.1449(4)
N1 N 0.15904(9) 0.11314(14) 0.9291(2)
O1 O 0.03679(11) 0.2500 0.6222(3)
O2 O 0.06219(8) 0.15502(15) 0.79709(17)
O3 O 0.10662(8) 0.11148(11) 1.12108(16)
H16 H 0.1267 0.0908 1.0769
O4 O 0.19925(15) 0.2500 0.7964(4)
C1G C 0.10327(10) 0.28832(16) 0.9942(2)
C2G C 0.14462(10) 0.31791(16) 0.9247(2)
C4G C 0.07167(11) 0.33743(15) 1.0674(2)
C5G C 0.19617(11) 0.42136(16) 0.8615(3)
C6G C 0.23857(16) 0.4575(3) 0.9036(4)
H1G H 0.2445 0.4547 0.9776
C7G C 0.2726(2) 0.4975(3) 0.8427(5)
H2G H 0.3029 0.5197 0.8741
C8G C 0.26390(16) 0.5062(2) 0.7393(4)
H3G H 0.2861 0.5378 0.6979
C9G C 0.22108(17) 0.4677(4) 0.6926(4)
H4G H 0.2156 0.4700 0.6184
C10G C 0.18771(15) 0.4270(3) 0.7551(4)
H5G H 0.1582 0.4023 0.7243
C11G C -0.00630(13) 0.45863(18) 0.6758(2)
H6G H 0.0253 0.4454 0.6337
H7G H 0.0033 0.5002 0.7245
C12G C -0.04978(13) 0.48401(18) 0.6032(2)
C13G C -0.06858(12) 0.43139(19) 0.5388(2)
C14G C -0.04358(12) 0.35456(18) 0.5458(2)
H8G H -0.0633 0.3191 0.4999
H9G H -0.0069 0.3575 0.5189
C15G C -0.11308(15) 0.4408(2) 0.4606(3)
H10G H -0.1260 0.4930 0.4629
H11G H -0.1003 0.4293 0.3892
H12G H -0.1419 0.4062 0.4788
C16G C -0.06938(17) 0.5628(2) 0.6156(3)
H13G H -0.0888 0.5672 0.6824
H14G H -0.0394 0.5977 0.6161
H15G H -0.0929 0.5753 0.5566
C18G C -0.04277(11) 0.32276(16) 0.6620(2)
C19G C -0.02492(11) 0.38790(16) 0.7414(2)
C20G C 0.02074(11) 0.37319(16) 0.8207(2)
C21G C 0.00464(11) 0.40141(15) 0.9279(2)
C22G C 0.02330(11) 0.38348(14) 1.0271(2)
C23G C -0.04306(13) 0.29063(16) 1.2377(2)
C24G C 0.04353(11) 0.28839(15) 1.1497(2)
C25G C -0.00152(12) 0.32812(16) 1.1881(2)
C26G C -0.01253(12) 0.38889(14) 1.1157(2)
C27G C -0.06410(12) 0.41489(15) 1.1046(2)
C28G C -0.08227(12) 0.43852(14) 1.0029(2)
C29G C -0.04870(11) 0.42982(14) 0.9169(2)
C30G C -0.06909(11) 0.41264(15) 0.8146(2)
C31G C -0.12128(11) 0.39454(15) 0.8049(2)
C32G C -0.13537(10) 0.32890(16) 0.7400(2)
C33G C -0.09578(10) 0.28974(16) 0.6889(2)
C34G C -0.17702(10) 0.28985(17) 0.7925(3)
C35G C -0.19000(10) 0.33022(17) 0.8885(3)
C36G C -0.15562(11) 0.39477(16) 0.8960(3)
C37G C -0.13693(12) 0.41880(16) 0.9934(2)
C38G C -0.15224(12) 0.37924(17) 1.0895(3)
C39G C -0.18452(12) 0.31600(18) 1.0822(3)
C40G C -0.20372(11) 0.29115(17) 0.9801(3)
C41G C -0.10713(12) 0.37872(16) 1.1590(2)
C42G C -0.09658(12) 0.31602(16) 1.2227(2)
N1G N 0.15904(9) 0.38686(14) 0.9291(2)
O2G O 0.06219(8) 0.34498(15) 0.79709(17)
O3G O 0.10662(8) 0.38852(11) 1.12108(16)
H16G H 0.1267 0.4092 1.0769
loop_
_geom_bond_atom_site_label_1
_geom_bond_atom_site_label_2
_geom_bond_site_symmetry_1
_geom_bond_site_symmetry_2
C1 C2 1_555 1_555
C2 C3 1_555 1_555
C3 O4 1_555 1_555
C4 C1 1_555 1_555
C5 C6 1_555 1_555
C6 H1 1_555 1_555
C7 C6 1_555 1_555
H2 C7 1_555 1_555
C8 C7 1_555 1_555
H3 C8 1_555 1_555
C9 C8 1_555 1_555
H4 C9 1_555 1_555
C10 C5 1_555 1_555
H5 C10 1_555 1_555
C11 H6 1_555 1_555
H7 C11 1_555 1_555
C12 C11 1_555 1_555
C13 C12 1_555 1_555
C14 C13 1_555 1_555
H8 C14 1_555 1_555
H9 C14 1_555 1_555
C15 C13 1_555 1_555
H10 C15 1_555 1_555
H11 C15 1_555 1_555
H12 C15 1_555 1_555
C16 C12 1_555 1_555
H13 C16 1_555 1_555
H14 C16 1_555 1_555
H15 C16 1_555 1_555
C17 C18 1_555 1_555
C18 C14 1_555 1_555
C19 C11 1_555 1_555
C20 C19 1_555 1_555
C21 C20 1_555 1_555
C22 C4 1_555 1_555
C23 C25 1_555 1_555
C24 C4 1_555 1_555
C25 C24 1_555 1_555
C26 C22 1_555 1_555
C27 C26 1_555 1_555
C28 C27 1_555 1_555
C29 C21 1_555 1_555
C30 C19 1_555 1_555
C31 C30 1_555 1_555
C32 C31 1_555 1_555
C33 C18 1_555 1_555
C34 C32 1_555 1_555
C35 C34 1_555 1_555
C36 C31 1_555 1_555
C37 C28 1_555 1_555
C38 C37 1_555 1_555
C39 C38 1_555 1_555
C40 C35 1_555 1_555
C41 C27 1_555 1_555
C42 C23 1_555 1_555
C43 C42 1_555 1_555
C44 C39 1_555 1_555
N1 C2 1_555 1_555
O1 C17 1_555 1_555
O2 C20 1_555 1_555
O3 C4 1_555 1_555
H16 O3 1_555 1_555
C1G C1 1_555 1_555
C2G C3 1_555 1_555
C4G C1G 1_555 1_555
C5G C6G 1_555 1_555
C6G H1G 1_555 1_555
C7G C6G 1_555 1_555
H2G C7G 1_555 1_555
C8G C7G 1_555 1_555
H3G C8G 1_555 1_555
C9G C8G 1_555 1_555
H4G C9G 1_555 1_555
C10G C5G 1_555 1_555
H5G C10G 1_555 1_555
C11G H6G 1_555 1_555
H7G C11G 1_555 1_555
C12G C11G 1_555 1_555
C13G C12G 1_555 1_555
C14G C13G 1_555 1_555
H8G C14G 1_555 1_555
H9G C14G 1_555 1_555
C15G C13G 1_555 1_555
H10G C15G 1_555 1_555
H11G C15G 1_555 1_555
H12G C15G 1_555 1_555
C16G C12G 1_555 1_555
H13G C16G 1_555 1_555
H14G C16G 1_555 1_555
H15G C16G 1_555 1_555
C18G C17 1_555 1_555
C19G C11G 1_555 1_555
C20G C19G 1_555 1_555
C21G C20G 1_555 1_555
C22G C4G 1_555 1_555
C23G C23 1_555 1_555
C24G C24 1_555 1_555
C25G C23G 1_555 1_555
C26G C22G 1_555 1_555
C27G C26G 1_555 1_555
C28G C27G 1_555 1_555
C29G C21G 1_555 1_555
C30G C19G 1_555 1_555
C31G C30G 1_555 1_555
C32G C31G 1_555 1_555
C33G C33 1_555 1_555
C34G C34 1_555 1_555
C35G C34G 1_555 1_555
C36G C31G 1_555 1_555
C37G C28G 1_555 1_555
C38G C37G 1_555 1_555
C39G C44 1_555 1_555
C40G C40 1_555 1_555
C41G C27G 1_555 1_555
C42G C43 1_555 1_555
N1G C2G 1_555 1_555
O2G C20G 1_555 1_555
O3G C4G 1_555 1_555
H16G O3G 1_555 1_555
C5 N1 1_555 1_555
C9 C10 1_555 1_555
C18 C19 1_555 1_555
C21 C22 1_555 1_555
C25 C26 1_555 1_555
C28 C29 1_555 1_555
C29 C30 1_555 1_555
C32 C33 1_555 1_555
C35 C36 1_555 1_555
C36 C37 1_555 1_555
C38 C41 1_555 1_555
C39 C40 1_555 1_555
C41 C42 1_555 1_555
C43 C44 1_555 1_555
C1G C2G 1_555 1_555
C4G C24G 1_555 1_555
C5G N1G 1_555 1_555
C9G C10G 1_555 1_555
C14G C18G 1_555 1_555
C18G C19G 1_555 1_555
C18G C33G 1_555 1_555
C21G C22G 1_555 1_555
C23G C42G 1_555 1_555
C24G C25G 1_555 1_555
C25G C26G 1_555 1_555
C28G C29G 1_555 1_555
C29G C30G 1_555 1_555
C32G C33G 1_555 1_555
C32G C34G 1_555 1_555
C35G C36G 1_555 1_555
C35G C40G 1_555 1_555
C36G C37G 1_555 1_555
C38G C39G 1_555 1_555
C38G C41G 1_555 1_555
C39G C40G 1_555 1_555
C41G C42G 1_555 1_555

#END
