
#######################################################################
#
#                 Cambridge Crystallographic Data Centre
#                                CCDC 
#
#######################################################################
#
# If this CIF has been generated from an entry in the Cambridge 
# Structural Database, then it will include bibliographic, chemical, 
# crystal, experimental, refinement or atomic coordinate data resulting 
# from the CCDC's data processing and validation procedures.
#
#######################################################################

data_YISDUB
_chemical_formula_moiety         'C20 H13 N3 O1'
_chemical_name_systematic        5-Phenylindazolo[3,2-b]quinazolin-7(5H)-one
_symmetry_cell_setting           monoclinic
_symmetry_space_group_name_H-M   'P 21/c'
_symmetry_Int_Tables_number      14
_space_group_name_Hall           '-P 2ybc'
loop_
_symmetry_equiv_pos_site_id
_symmetry_equiv_pos_as_xyz
1 x,y,z
2 -x,1/2+y,1/2-z
3 -x,-y,-z
4 x,1/2-y,1/2+z
_cell_length_a                   10.534(2)
_cell_length_b                   18.887(4)
_cell_length_c                   8.1159(19)
_cell_angle_alpha                90
_cell_angle_beta                 108.767(3)
_cell_angle_gamma                90
_cell_volume                     1528.86
_exptl_crystal_colour            colorless
_exptl_crystal_description       Prism
_cell_formula_units_Z            4
loop_
_atom_site_label
_atom_site_type_symbol
_atom_site_fract_x
_atom_site_fract_y
_atom_site_fract_z
O1 O 0.46603(13) 0.30203(8) 0.18606(18)
N1 N 0.44241(14) 0.15527(8) 0.2244(2)
N2 N 0.36752(13) 0.20823(8) 0.27350(18)
N3 N 0.17285(14) 0.21599(9) 0.3571(2)
C1 C 0.2804(2) 0.39493(12) 0.2729(3)
H1 H 0.3442 0.4166 0.2328
C2 C 0.1879(2) 0.43524(14) 0.3153(3)
H2 H 0.1888 0.4842 0.3041
C3 C 0.0927(2) 0.40318(14) 0.3749(3)
H3 H 0.0308 0.4310 0.4051
C4 C 0.08871(19) 0.33132(12) 0.3898(3)
H4 H 0.0240 0.3106 0.4297
C5 C 0.18154(17) 0.28840(11) 0.3452(2)
C6 C 0.27981(17) 0.32116(10) 0.2895(2)
C7 C 0.37974(17) 0.27966(10) 0.2433(2)
C8 C 0.26318(16) 0.17917(10) 0.3207(2)
C9 C 0.27831(18) 0.10401(11) 0.3137(2)
C10 C 0.2058(2) 0.04760(12) 0.3499(3)
H5 H 0.1303 0.0555 0.3831
C11 C 0.2492(2) -0.02000(13) 0.3350(3)
H6 H 0.2023 -0.0584 0.3581
C12 C 0.3616(2) -0.03166(12) 0.2861(3)
H7 H 0.3896 -0.0780 0.2793
C13 C 0.4331(2) 0.02288(11) 0.2472(3)
H8 H 0.5081 0.0144 0.2135
C14 C 0.38887(18) 0.09124(10) 0.2602(2)
C15 C 0.58599(18) 0.16299(10) 0.2721(3)
C16 C 0.66025(18) 0.19153(11) 0.4293(3)
H9 H 0.6187 0.2090 0.5061
C17 C 0.7979(2) 0.19372(13) 0.4706(4)
H10 H 0.8495 0.2127 0.5768
C18 C 0.8593(2) 0.16852(15) 0.3583(5)
H11 H 0.9522 0.1702 0.3879
C19 C 0.7839(3) 0.14071(14) 0.2021(5)
H12 H 0.8258 0.1230 0.1259
C20 C 0.6454(2) 0.13874(13) 0.1562(3)
H13 H 0.5938 0.1212 0.0483
H14? H 0.1101 0.1963 0.3874
loop_
_geom_bond_atom_site_label_1
_geom_bond_atom_site_label_2
_geom_bond_site_symmetry_1
_geom_bond_site_symmetry_2
O1 C7 1_555 1_555
N1 N2 1_555 1_555
N2 C7 1_555 1_555
N3 C5 1_555 1_555
C1 H1 1_555 1_555
C2 C1 1_555 1_555
H2 C2 1_555 1_555
C3 C2 1_555 1_555
H3 C3 1_555 1_555
C4 C3 1_555 1_555
H4 C4 1_555 1_555
C5 C4 1_555 1_555
C6 C1 1_555 1_555
C7 C6 1_555 1_555
C8 N2 1_555 1_555
C9 C8 1_555 1_555
C10 C9 1_555 1_555
H5 C10 1_555 1_555
C11 C10 1_555 1_555
H6 C11 1_555 1_555
C12 C11 1_555 1_555
H7 C12 1_555 1_555
C13 C12 1_555 1_555
H8 C13 1_555 1_555
C14 N1 1_555 1_555
C15 N1 1_555 1_555
C16 C15 1_555 1_555
H9 C16 1_555 1_555
C17 C16 1_555 1_555
H10 C17 1_555 1_555
C18 C17 1_555 1_555
H11 C18 1_555 1_555
C19 C18 1_555 1_555
H12 C19 1_555 1_555
C20 C15 1_555 1_555
H13 C20 1_555 1_555
N3 C8 1_555 1_555
C5 C6 1_555 1_555
C9 C14 1_555 1_555
C13 C14 1_555 1_555
C19 C20 1_555 1_555

#END
