
#######################################################################
#
#                 Cambridge Crystallographic Data Centre
#                                CCDC 
#
#######################################################################
#
# If this CIF has been generated from an entry in the Cambridge 
# Structural Database, then it will include bibliographic, chemical, 
# crystal, experimental, refinement or atomic coordinate data resulting 
# from the CCDC's data processing and validation procedures.
#
#######################################################################

data_YISDIQ
_chemical_formula_moiety         'C21 H15 Cl1 F1 N5'
_chemical_name_systematic        
7-(5-chloro-1-(4-fluorobenzyl)-1H-indol-3-yl)-5-methyl-[1,2,4]triazolo[1,5-a]pyrimidine
_symmetry_cell_setting           monoclinic
_symmetry_space_group_name_H-M   'P 21/n'
_symmetry_Int_Tables_number      14
_space_group_name_Hall           '-P 2yn'
loop_
_symmetry_equiv_pos_site_id
_symmetry_equiv_pos_as_xyz
1 x,y,z
2 1/2-x,1/2+y,1/2-z
3 -x,-y,-z
4 1/2+x,1/2-y,1/2+z
_cell_length_a                   4.7788(8)
_cell_length_b                   40.600(7)
_cell_length_c                   9.5430(16)
_cell_angle_alpha                90
_cell_angle_beta                 99.570(6)
_cell_angle_gamma                90
_cell_volume                     1825.76
_exptl_crystal_colour            colorless
_exptl_crystal_description       needle
_chemical_melting_point          '248 deg.C'
_cell_formula_units_Z            4
_chemical_properties_physical    
Moisture-sensitive,Heat-sensitive,Oxygen-sensitive
_exptl_crystal_recrystallization_method 'Vapour deposition'
loop_
_atom_site_label
_atom_site_type_symbol
_atom_site_fract_x
_atom_site_fract_y
_atom_site_fract_z
Cl1 Cl 0.3108(2) 0.51680(2) 0.64764(14)
F1 F 0.3354(7) 0.76221(7) 0.8290(4)
N1 N 1.3335(7) 0.58574(8) 0.1389(3)
N2 N 1.2994(6) 0.62099(6) 0.3365(3)
N3 N 1.0368(6) 0.63267(7) 0.7427(3)
N4 N 1.5638(8) 0.63820(8) 0.1796(4)
N5 N 1.3998(7) 0.65136(7) 0.3850(4)
C1 C 1.0858(10) 0.53380(9) 0.1136(4)
H1 H 1.0939 0.5372 0.0148
H2 H 0.8969 0.5275 0.1242
H3 H 1.2164 0.5167 0.1506
C2 C 0.6189(9) 0.72305(10) 0.9636(5)
H4 H 0.5626 0.7313 1.0455
C3 C 0.8070(8) 0.69656(9) 0.9699(4)
H5 H 0.8785 0.6872 1.0574
C4 C 0.5259(7) 0.55189(8) 0.6819(4)
C5 C 0.5287(8) 0.56807(9) 0.8095(4)
H6 H 0.4206 0.5603 0.8751
C6 C 0.5211(10) 0.73634(10) 0.8347(6)
C7 C 0.8877(7) 0.68420(8) 0.8489(4)
C8 C 1.4001(8) 0.61367(9) 0.2127(4)
C9 C 0.5945(11) 0.72485(12) 0.7120(6)
H7 H 0.5235 0.7345 0.6250
C10 C 1.1646(8) 0.56522(9) 0.1941(4)
C11 C 0.8511(7) 0.58965(8) 0.6073(4)
C12 C 1.0658(7) 0.57164(8) 0.3219(4)
H8 H 0.9527 0.5559 0.3562
C13 C 0.6936(8) 0.59575(9) 0.8380(4)
H9 H 0.6988 0.6072 0.9227
C14 C 0.7782(10) 0.69826(11) 0.7205(5)
H10 H 0.8285 0.6898 0.6377
C15 C 1.0990(8) 0.65615(9) 0.8585(4)
H11 H 1.2870 0.6652 0.8589
H12 H 1.1010 0.6447 0.9478
C16 C 0.8511(7) 0.60603(8) 0.7377(4)
C17 C 1.0437(7) 0.60790(8) 0.5324(4)
C18 C 1.1287(7) 0.60002(7) 0.3985(4)
C19 C 1.5520(10) 0.65932(10) 0.2852(5)
H13 H 1.6483 0.6793 0.2891
C20 C 0.6806(7) 0.56164(8) 0.5804(4)
H14 H 0.6724 0.5499 0.4960
C21 C 1.1466(7) 0.63336(8) 0.6214(4)
H15 H 1.2753 0.6491 0.6005
loop_
_geom_bond_atom_site_label_1
_geom_bond_atom_site_label_2
_geom_bond_site_symmetry_1
_geom_bond_site_symmetry_2
Cl1 C4 1_555 1_555
F1 C6 1_555 1_555
N1 C8 1_555 1_555
N2 N5 1_555 1_555
N3 C15 1_555 1_555
N4 C8 1_555 1_555
N5 C19 1_555 1_555
C1 H1 1_555 1_555
H2 C1 1_555 1_555
H3 C1 1_555 1_555
C2 H4 1_555 1_555
C3 C2 1_555 1_555
H5 C3 1_555 1_555
C4 C5 1_555 1_555
C5 H6 1_555 1_555
C6 C2 1_555 1_555
C7 C3 1_555 1_555
C8 N2 1_555 1_555
C9 C6 1_555 1_555
H7 C9 1_555 1_555
C10 N1 1_555 1_555
C11 C16 1_555 1_555
C12 C10 1_555 1_555
H8 C12 1_555 1_555
C13 C5 1_555 1_555
H9 C13 1_555 1_555
C14 C7 1_555 1_555
H10 C14 1_555 1_555
C15 C7 1_555 1_555
H11 C15 1_555 1_555
H12 C15 1_555 1_555
C16 N3 1_555 1_555
C17 C11 1_555 1_555
C18 N2 1_555 1_555
C19 N4 1_555 1_555
H13 C19 1_555 1_555
C20 C4 1_555 1_555
H14 C20 1_555 1_555
C21 N3 1_555 1_555
H15 C21 1_555 1_555
C1 C10 1_555 1_555
C9 C14 1_555 1_555
C11 C20 1_555 1_555
C12 C18 1_555 1_555
C13 C16 1_555 1_555
C17 C18 1_555 1_555
C17 C21 1_555 1_555

#END
