
#######################################################################
#
#                 Cambridge Crystallographic Data Centre
#                                CCDC 
#
#######################################################################
#
# If this CIF has been generated from an entry in the Cambridge 
# Structural Database, then it will include bibliographic, chemical, 
# crystal, experimental, refinement or atomic coordinate data resulting 
# from the CCDC's data processing and validation procedures.
#
#######################################################################

data_YISFEM
_chemical_formula_moiety         'C25 H17 B1 N2 S4'
_chemical_name_systematic        
3,4,4-tris(3-Thienyl)-8-(2-thienyl)-4-bora-3a,4a-diaza-s-indacene
_symmetry_cell_setting           triclinic
_symmetry_space_group_name_H-M   'P -1'
_symmetry_Int_Tables_number      2
_space_group_name_Hall           '-P 1'
loop_
_symmetry_equiv_pos_site_id
_symmetry_equiv_pos_as_xyz
1 x,y,z
2 -x,-y,-z
_cell_length_a                   10.0954(5)
_cell_length_b                   10.0984(5)
_cell_length_c                   12.9732(6)
_cell_angle_alpha                76.6430(10)
_cell_angle_beta                 72.4810(10)
_cell_angle_gamma                64.6380(10)
_cell_volume                     1131.66
_chemical_melting_point          184deg.C
_cell_formula_units_Z            2
_exptl_crystal_preparation       fluorescent
loop_
_atom_site_label
_atom_site_type_symbol
_atom_site_fract_x
_atom_site_fract_y
_atom_site_fract_z
B1 B 0.8617(6) -0.2752(6) 0.7570(4)
N1 N 0.7974(5) -0.3762(4) 0.7274(3)
N2 N 0.8382(5) -0.3081(5) 0.8855(3)
C1 C 0.7713(6) -0.5164(5) 0.9090(4)
C2 C 0.7641(5) -0.3722(6) 0.6330(4)
C3 C 0.7053(6) -0.4792(6) 0.6422(4)
H1 H 0.6718 -0.4962 0.5881
C4 C 0.7059(6) -0.5548(6) 0.7462(4)
H2 H 0.6737 -0.6331 0.7761
C5 C 0.7653(6) -0.4903(5) 0.7986(4)
C6 C 0.8689(7) -0.2387(6) 0.9463(5)
H3 H 0.8993 -0.1588 0.9204
C7 C 0.8484(7) -0.3042(7) 1.0550(4)
H4 H 0.8589 -0.2732 1.1140
C8 C 0.8105(6) -0.4205(6) 1.0599(4)
H5 H 0.7928 -0.4863 1.1216
C9 C 0.8033(5) -0.4215(5) 0.9514(4)
S1 S 0.8211(3) -0.81599(18) 0.94544(15)
C10 C 0.7346(6) -0.6379(6) 0.9805(4)
C11 C 0.6374(8) -0.6318(7) 1.0801(5)
H6 H 0.5826 -0.5454 1.1145
C12 C 0.6278(9) -0.7707(8) 1.1264(5)
H7 H 0.5612 -0.7847 1.1923
C13 C 0.7262(12) -0.8817(9) 1.0641(6)
H8 H 0.7398 -0.9815 1.0842
S2 S 1.32049(19) -0.4939(2) 0.63340(14)
C14 C 1.0409(5) -0.3303(5) 0.7062(4)
C15 C 1.1342(6) -0.4676(6) 0.6726(4)
H9 H 1.0988 -0.5393 0.6714
C16 C 1.1309(7) -0.2482(8) 0.6967(6)
H10 H 1.0905 -0.1526 0.7169
C17 C 1.2941(7) -0.3289(7) 0.6518(5)
H11 H 1.3695 -0.2913 0.6366
S3 S 0.6678(3) 0.1635(2) 0.63285(19)
C18 C 0.7670(6) -0.1035(5) 0.7275(4)
C19 C 0.8065(8) -0.0076(6) 0.6321(5)
H12 H 0.8960 -0.0362 0.5778
C20 C 0.6244(7) -0.0205(7) 0.7945(6)
H13 H 0.5790 -0.0639 0.8596
C21 C 0.5527(6) 0.1412(6) 0.7533(6)
H14 H 0.4634 0.2130 0.7875
S4 S 0.7361(3) -0.1017(3) 0.3578(2)
C22 C 0.7865(6) -0.2740(6) 0.5310(4)
C23 C 0.6733(8) -0.1903(7) 0.4758(5)
H15 H 0.5735 -0.1840 0.5013
C24 C 0.9242(7) -0.2654(7) 0.4710(4)
H16 H 1.0146 -0.3141 0.4947
C25 C 0.9092(5) -0.1633(5) 0.3577(3)
H17 H 0.9863 -0.1439 0.3028
loop_
_geom_bond_atom_site_label_1
_geom_bond_atom_site_label_2
_geom_bond_site_symmetry_1
_geom_bond_site_symmetry_2
B1 N1 1_555 1_555
N1 C2 1_555 1_555
N2 B1 1_555 1_555
C1 C5 1_555 1_555
C2 C3 1_555 1_555
C3 H1 1_555 1_555
C4 C3 1_555 1_555
H2 C4 1_555 1_555
C5 N1 1_555 1_555
C6 N2 1_555 1_555
H3 C6 1_555 1_555
C7 C6 1_555 1_555
H4 C7 1_555 1_555
C8 C7 1_555 1_555
H5 C8 1_555 1_555
C9 N2 1_555 1_555
S1 C10 1_555 1_555
C10 C1 1_555 1_555
C11 C10 1_555 1_555
H6 C11 1_555 1_555
C12 C11 1_555 1_555
H7 C12 1_555 1_555
C13 S1 1_555 1_555
H8 C13 1_555 1_555
S2 C15 1_555 1_555
C14 B1 1_555 1_555
C15 C14 1_555 1_555
H9 C15 1_555 1_555
C16 C14 1_555 1_555
H10 C16 1_555 1_555
C17 S2 1_555 1_555
H11 C17 1_555 1_555
S3 C19 1_555 1_555
C18 B1 1_555 1_555
C19 C18 1_555 1_555
H12 C19 1_555 1_555
C20 C18 1_555 1_555
H13 C20 1_555 1_555
C21 S3 1_555 1_555
H14 C21 1_555 1_555
S4 C23 1_555 1_555
C22 C2 1_555 1_555
C23 C22 1_555 1_555
H15 C23 1_555 1_555
C24 C22 1_555 1_555
H16 C24 1_555 1_555
C25 S4 1_555 1_555
H17 C25 1_555 1_555
C1 C9 1_555 1_555
C4 C5 1_555 1_555
C8 C9 1_555 1_555
C12 C13 1_555 1_555
C16 C17 1_555 1_555
C20 C21 1_555 1_555
C24 C25 1_555 1_555

#END
