
#######################################################################
#
#                 Cambridge Crystallographic Data Centre
#                                CCDC 
#
#######################################################################
#
# If this CIF has been generated from an entry in the Cambridge 
# Structural Database, then it will include bibliographic, chemical, 
# crystal, experimental, refinement or atomic coordinate data resulting 
# from the CCDC's data processing and validation procedures.
#
#######################################################################

data_YISJOZ
_chemical_formula_moiety         'C7 H8 N2 O1 S1'
_chemical_name_systematic        
1-(2,3-Dihydroimidazo(2,1-b)thiazol-6-yl)ethanone
_symmetry_cell_setting           monoclinic
_symmetry_space_group_name_H-M   'P 21/c'
_symmetry_Int_Tables_number      14
_space_group_name_Hall           '-P 2ybc'
loop_
_symmetry_equiv_pos_site_id
_symmetry_equiv_pos_as_xyz
1 x,y,z
2 -x,1/2+y,1/2-z
3 -x,-y,-z
4 x,1/2-y,1/2+z
_cell_length_a                   4.956(2)
_cell_length_b                   10.059(1)
_cell_length_c                   16.889(6)
_cell_angle_alpha                90
_cell_angle_beta                 114.85(3)
_cell_angle_gamma                90
_cell_volume                     764.001
_chemical_melting_point          159.6deg.C
_cell_formula_units_Z            4
loop_
_atom_site_label
_atom_site_type_symbol
_atom_site_fract_x
_atom_site_fract_y
_atom_site_fract_z
C1 C 0.9034(1) 0.2689(4) 0.2843(3)
C2 C 0.7881(11) 0.3861(5) 0.2398(3)
N1 N 0.5189(9) 0.3526(4) 0.1764(2)
C3 C 0.4838(11) 0.2181(5) 0.1836(3)
N2 N 0.7068(9) 0.1642(4) 0.2478(3)
C4 C 0.2891(12) 0.4220(5) 0.1029(3)
C5 C 0.0287(12) 0.3275(6) 0.0669(4)
S1 S 0.1558(3) 0.1590(1) 0.1017(1)
C6 C 1.1858(12) 0.2519(5) 0.3605(3)
O1 O 1.2567(8) 0.1435(4) 0.3969(2)
C7 C 1.3866(12) 0.3693(6) 0.3924(4)
H1 H 0.884 0.476 0.251
H2 H 0.361 0.443 0.055
H3 H 0.232 0.506 0.124
H4 H -0.066 0.332 0.000
H5 H -0.121 0.353 0.090
H6 H 1.571 0.343 0.444
H7 H 1.281 0.441 0.410
H8 H 1.437 0.403 0.343
loop_
_geom_bond_atom_site_label_1
_geom_bond_atom_site_label_2
_geom_bond_site_symmetry_1
_geom_bond_site_symmetry_2
C1 C2 1_555 1_555
C2 N1 1_555 1_555
N1 C3 1_555 1_555
C3 N2 1_555 1_555
N2 C1 1_555 1_555
C4 N1 1_555 1_555
C5 C4 1_555 1_555
S1 C3 1_555 1_555
C6 C1 1_555 1_555
O1 C6 1_555 1_555
C7 C6 1_555 1_555
H1 C2 1_555 1_555
H2 C4 1_555 1_555
H3 C4 1_555 1_555
H4 C5 1_555 1_555
H5 C5 1_555 1_555
H6 C7 1_555 1_555
H7 C7 1_555 1_555
H8 C7 1_555 1_555
C5 S1 1_555 1_555

#END
