
#######################################################################
#
#                 Cambridge Crystallographic Data Centre
#                                CCDC 
#
#######################################################################
#
# If this CIF has been generated from an entry in the Cambridge 
# Structural Database, then it will include bibliographic, chemical, 
# crystal, experimental, refinement or atomic coordinate data resulting 
# from the CCDC's data processing and validation procedures.
#
#######################################################################

data_YISLAP
_chemical_formula_moiety         'C23 H20 N2 O3'
_chemical_name_systematic        
2-Phenyl-3-(3,4,5-trimethoxyphenyl)quinoxaline
_symmetry_cell_setting           monoclinic
_symmetry_space_group_name_H-M   'P 21/n'
_symmetry_Int_Tables_number      14
_space_group_name_Hall           '-P 2yn'
loop_
_symmetry_equiv_pos_site_id
_symmetry_equiv_pos_as_xyz
1 x,y,z
2 1/2-x,1/2+y,1/2-z
3 -x,-y,-z
4 1/2+x,1/2-y,1/2+z
_cell_length_a                   11.8687(5)
_cell_length_b                   9.3229(4)
_cell_length_c                   17.0802(8)
_cell_angle_alpha                90
_cell_angle_beta                 102.051(4)
_cell_angle_gamma                90
_cell_volume                     1848.29
_exptl_crystal_colour            orange
_exptl_crystal_description       parallelepiped
_cell_formula_units_Z            4
loop_
_atom_site_label
_atom_site_type_symbol
_atom_site_fract_x
_atom_site_fract_y
_atom_site_fract_z
O1 O 0.61549(8) 0.05861(11) 0.24409(5)
O2 O 0.84484(8) 0.01857(11) 0.28564(5)
O3 O 0.94147(8) -0.12483(10) 0.41618(5)
N1 N 0.51575(9) -0.28247(12) 0.60447(6)
N2 N 0.46632(9) -0.28330(12) 0.43626(6)
C1 C 0.71754(12) -0.00784(15) 0.59913(8)
H1 H 0.6750 0.0430 0.5544
C2 C 0.80918(12) 0.05771(17) 0.64936(8)
H2 H 0.8288 0.1538 0.6393
C3 C 0.87283(12) -0.01568(17) 0.71438(9)
H3 H 0.9366 0.0294 0.7484
C4 C 0.84321(12) -0.15450(18) 0.72950(8)
H4 H 0.8866 -0.2051 0.7740
C5 C 0.75051(12) -0.21997(17) 0.67999(8)
H5 H 0.7297 -0.3150 0.6912
C6 C 0.68712(11) -0.14773(15) 0.61359(7)
C7 C 0.58491(11) -0.21967(15) 0.56392(8)
C8 C 0.41775(11) -0.34552(15) 0.56243(8)
C9 C 0.33950(12) -0.40742(15) 0.60423(8)
H6 H 0.3557 -0.4068 0.6611
C10 C 0.24020(12) -0.46833(15) 0.56268(8)
H7 H 0.1869 -0.5091 0.5908
C11 C 0.21629(12) -0.47104(15) 0.47844(8)
H8 H 0.1471 -0.5143 0.4503
C12 C 0.29114(12) -0.41236(16) 0.43673(8)
H9 H 0.2744 -0.4158 0.3799
C13 C 0.39357(11) -0.34637(14) 0.47810(8)
C14 C 0.56003(11) -0.22077(15) 0.47732(8)
C15 C 0.63617(11) -0.15228(15) 0.42917(7)
C16 C 0.58625(12) -0.07355(15) 0.36153(7)
H10 H 0.5051 -0.0603 0.3481
C17 C 0.65547(12) -0.01457(15) 0.31386(7)
C18 C 0.77504(12) -0.03137(15) 0.33424(7)
C19 C 0.82416(12) -0.11104(15) 0.40201(8)
C20 C 0.75493(12) -0.17087(14) 0.44904(7)
H11 H 0.7886 -0.2249 0.4951
C21 C 0.49432(12) 0.08437(18) 0.22194(8)
H12 H 0.4769 0.1371 0.1712
H13 H 0.4698 0.1411 0.2637
H14 H 0.4532 -0.0074 0.2157
C22 C 0.85106(13) 0.17149(16) 0.27930(9)
H15 H 0.9030 0.1966 0.2437
H16 H 0.8804 0.2126 0.3324
H17 H 0.7741 0.2099 0.2574
C23 C 0.99581(12) -0.18868(17) 0.49046(9)
H18 H 1.0792 -0.1932 0.4938
H19 H 0.9657 -0.2859 0.4937
H20 H 0.9799 -0.1308 0.5348
loop_
_geom_bond_atom_site_label_1
_geom_bond_atom_site_label_2
_geom_bond_site_symmetry_1
_geom_bond_site_symmetry_2
O1 C17 1_555 1_555
O2 C18 1_555 1_555
O3 C19 1_555 1_555
N1 C7 1_555 1_555
N2 C13 1_555 1_555
C1 H1 1_555 1_555
C2 C1 1_555 1_555
H2 C2 1_555 1_555
C3 C2 1_555 1_555
H3 C3 1_555 1_555
C4 C3 1_555 1_555
H4 C4 1_555 1_555
C5 C4 1_555 1_555
H5 C5 1_555 1_555
C6 C1 1_555 1_555
C7 C6 1_555 1_555
C8 N1 1_555 1_555
C9 C8 1_555 1_555
H6 C9 1_555 1_555
C10 C9 1_555 1_555
H7 C10 1_555 1_555
C11 C10 1_555 1_555
H8 C11 1_555 1_555
C12 C11 1_555 1_555
H9 C12 1_555 1_555
C13 C8 1_555 1_555
C14 N2 1_555 1_555
C15 C14 1_555 1_555
C16 C15 1_555 1_555
H10 C16 1_555 1_555
C17 C16 1_555 1_555
C18 C17 1_555 1_555
C19 C18 1_555 1_555
C20 C15 1_555 1_555
H11 C20 1_555 1_555
C21 O1 1_555 1_555
H12 C21 1_555 1_555
H13 C21 1_555 1_555
H14 C21 1_555 1_555
C22 O2 1_555 1_555
H15 C22 1_555 1_555
H16 C22 1_555 1_555
H17 C22 1_555 1_555
C23 O3 1_555 1_555
H18 C23 1_555 1_555
H19 C23 1_555 1_555
H20 C23 1_555 1_555
C5 C6 1_555 1_555
C7 C14 1_555 1_555
C12 C13 1_555 1_555
C19 C20 1_555 1_555

#END
