
#######################################################################
#
#                 Cambridge Crystallographic Data Centre
#                                CCDC 
#
#######################################################################
#
# If this CIF has been generated from an entry in the Cambridge 
# Structural Database, then it will include bibliographic, chemical, 
# crystal, experimental, refinement or atomic coordinate data resulting 
# from the CCDC's data processing and validation procedures.
#
#######################################################################

data_YISMIZ
_chemical_formula_moiety         'C27 H18 O9'
_chemical_name_systematic        
"4,4',4''-[benzene-1,3,5-triyltris(oxy)]tribenzoic acid"
_symmetry_cell_setting           monoclinic
_symmetry_space_group_name_H-M   'P 21/n'
_symmetry_Int_Tables_number      14
_space_group_name_Hall           '-P 2yn'
loop_
_symmetry_equiv_pos_site_id
_symmetry_equiv_pos_as_xyz
1 x,y,z
2 1/2-x,1/2+y,1/2-z
3 -x,-y,-z
4 1/2+x,1/2-y,1/2+z
_cell_length_a                   12.2928(16)
_cell_length_b                   13.0408(15)
_cell_length_c                   27.679(4)
_cell_angle_alpha                90
_cell_angle_beta                 93.341(4)
_cell_angle_gamma                90
_cell_volume                     4429.62
_exptl_crystal_colour            white
_exptl_crystal_description       needle
_cell_formula_units_Z            8
loop_
_atom_site_label
_atom_site_type_symbol
_atom_site_fract_x
_atom_site_fract_y
_atom_site_fract_z
O1 O 0.44275(17) 0.77257(16) 0.26897(8)
O2 O 0.23523(17) 0.51287(15) 0.18662(8)
O3 O 0.60176(17) 0.57651(17) 0.46846(7)
H1 H 0.6430 0.5585 0.4922
O4 O 0.76034(18) 0.60543(19) 0.43622(8)
C1 C 0.5974(2) 0.6392(2) 0.38906(10)
C2 C 0.4894(2) 0.7191(2) 0.30772(10)
C3 C -0.1425(2) 0.8683(2) 0.11662(11)
H2 H -0.2170 0.8839 0.1206
C4 C 0.0409(2) 0.8548(2) 0.14864(11)
O5 O -0.20554(18) 0.4284(2) 0.06501(8)
C5 C 0.3482(2) 0.7389(2) 0.24474(10)
C6 C -0.1100(2) 0.8355(2) 0.07249(10)
C7 C 0.1685(2) 0.6883(2) 0.18538(9)
H3 H 0.1063 0.6709 0.1650
C8 C 0.2750(2) 0.8148(2) 0.23031(10)
H4 H 0.2855 0.8836 0.2409
C9 C -0.0007(2) 0.8155(2) 0.06618(10)
H5 H 0.0215 0.7946 0.0354
C10 C 0.3333(2) 0.6376(2) 0.23119(10)
H6 H 0.3831 0.5860 0.2423
C11 C 0.1868(2) 0.7886(2) 0.20037(10)
C12 C 0.6601(3) 0.6050(2) 0.43320(11)
C13 C 0.4847(2) 0.6449(2) 0.38600(11)
H7 H 0.4447 0.6214 0.4122
C14 C 0.6016(2) 0.7116(2) 0.30962(11)
H8 H 0.6412 0.7341 0.2831
C15 C -0.1900(3) 0.8222(2) 0.03089(11)
C16 C 0.6551(2) 0.6714(2) 0.34998(11)
H9 H 0.7322 0.6654 0.3514
C17 C 0.2433(2) 0.6141(2) 0.20088(10)
C18 C 0.0753(3) 0.8259(2) 0.10421(11)
H10 H 0.1503 0.8134 0.0999
C19 C -0.0669(2) 0.8786(2) 0.15503(11)
H11 H -0.0886 0.9017 0.1856
C20 C -0.0403(3) 0.4585(2) 0.13647(11)
H12 H -0.1131 0.4591 0.1462
C21 C 0.1722(3) 0.4580(2) 0.10819(12)
H13 H 0.2453 0.4582 0.0987
C22 C -0.0187(3) 0.4319(2) 0.08971(11)
C23 C -0.1107(3) 0.4071(2) 0.05480(11)
C24 C 0.0447(3) 0.4842(2) 0.16898(11)
H14 H 0.0307 0.5005 0.2015
C25 C 0.1485(2) 0.4861(2) 0.15451(11)
C26 C 0.4302(2) 0.6845(2) 0.34513(11)
H15 H 0.3529 0.6878 0.3429
C27 C 0.0882(3) 0.4298(2) 0.07606(12)
H16 H 0.1033 0.4088 0.0443
O6 O -0.15082(18) 0.7888(2) -0.00855(8)
O7 O -0.0876(2) 0.3663(2) 0.01464(9)
O8 O -0.28851(17) 0.84148(17) 0.03411(8)
O9 O 0.11482(16) 0.86724(15) 0.18786(7)
O10 O 0.28558(18) 0.23888(18) 0.08150(8)
O11 O 0.68971(18) 0.72444(14) 0.17350(8)
O12 O 0.66105(17) 0.37890(15) 0.23197(7)
O13 O 0.42757(19) 0.22696(18) 0.03531(8)
O14 O 1.11315(17) 0.43209(18) 0.48426(8)
H17 H 1.1527 0.4183 0.5092
C28 C 0.8671(2) 0.5731(2) 0.25345(10)
C29 C 1.0111(2) 0.5495(2) 0.31732(10)
C30 C 1.0011(2) 0.4961(2) 0.39882(11)
H18 H 0.9591 0.4785 0.4254
C31 C 0.4579(2) 0.2858(2) 0.11562(10)
C32 C 0.4373(2) 0.6692(2) 0.07142(10)
C33 C 1.1136(2) 0.4919(2) 0.40419(10)
C34 C 0.7287(2) 0.6408(2) 0.19986(10)
C35 C 0.8273(2) 0.6530(2) 0.22547(10)
H19 H 0.8668 0.7154 0.2238
C36 C 1.1241(2) 0.5448(2) 0.32160(10)
H20 H 1.1657 0.5615 0.2948
C37 C 1.1749(2) 0.5158(2) 0.36487(10)
H21 H 1.2522 0.5119 0.3681
C38 C 0.9487(2) 0.5253(2) 0.35560(10)
H22 H 0.8714 0.5287 0.3522
C39 C 0.6055(2) 0.7050(2) 0.13903(10)
C40 C 0.4836(3) 0.3366(2) 0.19893(11)
H23 H 0.4551 0.3484 0.2296
C41 C 0.5062(3) 0.7484(2) 0.14551(11)
H24 H 0.4957 0.7905 0.1729
C42 C 0.4212(2) 0.7300(2) 0.11156(11)
H25 H 0.3516 0.7592 0.1158
C43 C 0.3850(3) 0.2489(2) 0.07551(11)
C44 C 0.5398(3) 0.6273(2) 0.06553(11)
H26 H 0.5515 0.5861 0.0380
C45 C 0.6237(3) 0.6450(2) 0.09914(11)
H27 H 0.6936 0.6164 0.0951
C46 C 0.7155(2) 0.4715(2) 0.22932(10)
C47 C 0.6707(2) 0.5507(2) 0.20192(10)
H28 H 0.6018 0.5434 0.1849
C48 C 0.8135(2) 0.4797(2) 0.25563(10)
H29 H 0.8430 0.4243 0.2744
C49 C 0.5923(2) 0.3519(2) 0.19224(10)
C50 C 0.5680(3) 0.3027(2) 0.10966(12)
H30 H 0.5971 0.2901 0.0792
C51 C 0.4169(2) 0.3038(2) 0.16029(11)
H31 H 0.3415 0.2934 0.1644
C52 C 0.6344(3) 0.3372(2) 0.14752(12)
H32 H 0.7090 0.3511 0.1431
C53 C 1.1738(2) 0.4651(2) 0.45036(10)
C54 C 0.3455(3) 0.6498(2) 0.03616(12)
O15 O 0.25427(19) 0.6894(2) 0.04194(9)
O16 O 0.36328(19) 0.58979(19) 0.00085(8)
O17 O 1.27237(17) 0.47500(18) 0.45550(7)
O18 O 0.97066(16) 0.58911(16) 0.27360(7)
loop_
_geom_bond_atom_site_label_1
_geom_bond_atom_site_label_2
_geom_bond_site_symmetry_1
_geom_bond_site_symmetry_2
O1 C2 1_555 1_555
O2 C17 1_555 1_555
O3 H1 1_555 1_555
O4 C12 1_555 1_555
C1 C12 1_555 1_555
C2 C14 1_555 1_555
C3 H2 1_555 1_555
C4 C18 1_555 1_555
O5 C23 1_555 1_555
C5 O1 1_555 1_555
C6 C3 1_555 1_555
C7 H3 1_555 1_555
C8 C5 1_555 1_555
H4 C8 1_555 1_555
C9 C6 1_555 1_555
H5 C9 1_555 1_555
C10 C5 1_555 1_555
H6 C10 1_555 1_555
C11 C7 1_555 1_555
C12 O3 1_555 1_555
C13 C1 1_555 1_555
H7 C13 1_555 1_555
C14 H8 1_555 1_555
C15 C6 1_555 1_555
C16 C1 1_555 1_555
H9 C16 1_555 1_555
C17 C7 1_555 1_555
C18 C9 1_555 1_555
H10 C18 1_555 1_555
C19 C3 1_555 1_555
H11 C19 1_555 1_555
C20 H12 1_555 1_555
C21 H13 1_555 1_555
C22 C20 1_555 1_555
C23 C22 1_555 1_555
C24 C20 1_555 1_555
H14 C24 1_555 1_555
C25 O2 1_555 1_555
C26 C2 1_555 1_555
H15 C26 1_555 1_555
C27 C21 1_555 1_555
H16 C27 1_555 1_555
O6 C15 1_555 1_555
O7 C23 1_555 1_555
O8 C15 1_555 1_555
O9 C4 1_555 1_555
O10 C43 1_555 1_555
O11 C34 1_555 1_555
O12 C46 1_555 1_555
O13 C43 1_555 1_555
O14 H17 1_555 1_555
C28 C35 1_555 1_555
C29 C36 1_555 1_555
C30 H18 1_555 1_555
C31 C43 1_555 1_555
C32 C42 1_555 1_555
C33 C30 1_555 1_555
C34 C35 1_555 1_555
C35 H19 1_555 1_555
C36 H20 1_555 1_555
C37 C33 1_555 1_555
H21 C37 1_555 1_555
C38 C29 1_555 1_555
H22 C38 1_555 1_555
C39 O11 1_555 1_555
C40 H23 1_555 1_555
C41 C39 1_555 1_555
H24 C41 1_555 1_555
C42 C41 1_555 1_555
H25 C42 1_555 1_555
C44 C32 1_555 1_555
H26 C44 1_555 1_555
C45 C39 1_555 1_555
H27 C45 1_555 1_555
C46 C47 1_555 1_555
C47 C34 1_555 1_555
H28 C47 1_555 1_555
C48 C28 1_555 1_555
H29 C48 1_555 1_555
C49 O12 1_555 1_555
C50 C31 1_555 1_555
H30 C50 1_555 1_555
C51 C31 1_555 1_555
H31 C51 1_555 1_555
C52 C49 1_555 1_555
H32 C52 1_555 1_555
C53 O14 1_555 1_555
C54 C32 1_555 1_555
O15 C54 1_555 1_555
O16 C54 1_555 1_555
O17 C53 1_555 1_555
O18 C28 1_555 1_555
C4 C19 1_555 1_555
C8 C11 1_555 1_555
C10 C17 1_555 1_555
C11 O9 1_555 1_555
C13 C26 1_555 1_555
C14 C16 1_555 1_555
C21 C25 1_555 1_555
C22 C27 1_555 1_555
C24 C25 1_555 1_555
C29 O18 1_555 1_555
C30 C38 1_555 1_555
C33 C53 1_555 1_555
C36 C37 1_555 1_555
C40 C49 1_555 1_555
C40 C51 1_555 1_555
C44 C45 1_555 1_555
C46 C48 1_555 1_555
C50 C52 1_555 1_555

#END
