
#######################################################################
#
#                 Cambridge Crystallographic Data Centre
#                                CCDC 
#
#######################################################################
#
# If this CIF has been generated from an entry in the Cambridge 
# Structural Database, then it will include bibliographic, chemical, 
# crystal, experimental, refinement or atomic coordinate data resulting 
# from the CCDC's data processing and validation procedures.
#
#######################################################################

data_YISNOG
_chemical_formula_moiety         'C27 H18 O9,C10 H8 N2 S2,H2 O1'
_chemical_name_systematic        
"4,4',4''-[benzene-1,3,5-triyltris(oxy)]tribenzoic acid 4,4'-disulfanediyldipyridine monohydrate"
_symmetry_cell_setting           triclinic
_symmetry_space_group_name_H-M   'P -1'
_symmetry_Int_Tables_number      2
_space_group_name_Hall           '-P 1'
loop_
_symmetry_equiv_pos_site_id
_symmetry_equiv_pos_as_xyz
1 x,y,z
2 -x,-y,-z
_cell_length_a                   7.8654(8)
_cell_length_b                   9.5964(9)
_cell_length_c                   22.652(2)
_cell_angle_alpha                92.607(3)
_cell_angle_beta                 97.703(3)
_cell_angle_gamma                95.618(3)
_cell_volume                     1683.22
_exptl_crystal_colour            white
_exptl_crystal_description       block
_cell_formula_units_Z            2
loop_
_atom_site_label
_atom_site_type_symbol
_atom_site_fract_x
_atom_site_fract_y
_atom_site_fract_z
S1 S 0.43295(12) 0.05791(10) 0.29601(4)
S2 S 0.51106(12) 0.23389(9) 0.25668(4)
N1 N 0.9050(6) -0.0632(4) 0.41361(16)
C1 C 0.7474(9) -0.1081(5) 0.42186(19)
H1 H 0.7340 -0.1688 0.4521
C2 C 0.5984(6) -0.0705(4) 0.38810(16)
H2 H 0.4891 -0.1027 0.3963
C3 C 0.6200(5) 0.0164(3) 0.34212(14)
C4 C 0.7845(5) 0.0610(4) 0.33375(17)
H3 H 0.8045 0.1198 0.3033
C5 C 0.9204(6) 0.0185(5) 0.37064(19)
H4 H 1.0313 0.0509 0.3642
N2 N 0.6597(4) 0.1266(3) 0.07456(11)
C6 C 0.6379(5) 0.0266(3) 0.11187(15)
H5 H 0.6550 -0.0640 0.0994
C7 C 0.5912(5) 0.0471(3) 0.16819(15)
H6 H 0.5786 -0.0270 0.1928
C8 C 0.5643(4) 0.1804(3) 0.18647(13)
C9 C 0.5826(4) 0.2861(3) 0.14747(13)
H7 H 0.5628 0.3772 0.1583
C10 C 0.6301(5) 0.2552(3) 0.09281(14)
H8 H 0.6424 0.3273 0.0671
O1 O 0.6274(3) 0.4167(2) 0.61558(10)
O2 O 1.1422(3) 0.2934(2) 0.71727(11)
O3 O 0.9894(3) 0.7648(2) 0.74579(9)
C11 C 0.7752(4) 0.4618(3) 0.65457(12)
C12 C 0.8075(4) 0.5956(3) 0.68160(12)
H9 H 0.7317 0.6627 0.6727
C13 C 0.9536(4) 0.6269(3) 0.72171(12)
C14 C 1.0683(4) 0.5310(3) 0.73560(13)
H10 H 1.1675 0.5549 0.7628
C15 C 1.0330(4) 0.3977(3) 0.70811(13)
C16 C 0.8868(4) 0.3611(3) 0.66720(13)
H11 H 0.8642 0.2714 0.6487
O4 O 0.2010(6) 0.8455(4) 0.47279(16)
H12 H 0.1222 0.8874 0.4573
O5 O -0.0106(6) 0.7306(4) 0.5138(2)
C17 C 0.5191(5) 0.5138(4) 0.59178(14)
C18 C 0.3472(5) 0.4865(4) 0.59792(17)
H13 H 0.3112 0.4131 0.6203
C19 C 0.2300(6) 0.5679(5) 0.57095(19)
H14 H 0.1141 0.5486 0.5751
C20 C 0.2779(6) 0.6746(5) 0.53877(18)
C21 C 0.4511(7) 0.7034(4) 0.53312(16)
H15 H 0.4855 0.7784 0.5113
C22 C 0.5757(6) 0.6213(4) 0.55980(16)
H16 H 0.6917 0.6397 0.5557
C23 C 0.1405(10) 0.7537(6) 0.5078(3)
O6 O 0.7689(3) 0.8501(3) 1.00485(10)
O7 O 0.7716(4) 1.0649(2) 0.97203(10)
H17 H 0.7213 1.0789 1.0009
C24 C 0.9426(4) 0.7999(3) 0.80049(12)
C25 C 0.9008(4) 0.7017(3) 0.84012(13)
H18 H 0.9032 0.6066 0.8308
C26 C 0.8549(5) 0.7473(3) 0.89430(13)
H19 H 0.8269 0.6816 0.9213
C27 C 0.8498(4) 0.8884(3) 0.90904(13)
C28 C 0.8934(4) 0.9851(3) 0.86824(14)
H20 H 0.8907 1.0803 0.8773
C29 C 0.9407(4) 0.9415(3) 0.81443(14)
H21 H 0.9711 1.0070 0.7877
C30 C 0.7946(4) 0.9316(3) 0.96662(14)
O8 O 1.6858(3) 0.4021(3) 0.95326(10)
O9 O 1.8563(3) 0.3631(2) 0.88449(9)
H22 H 1.9325 0.3825 0.9129
C31 C 1.2796(4) 0.3134(3) 0.76355(14)
C32 C 1.4430(4) 0.3185(3) 0.74851(14)
H23 H 1.4600 0.3116 0.7087
C33 C 1.5823(4) 0.3341(3) 0.79334(13)
H24 H 1.6936 0.3370 0.7835
C34 C 1.5579(4) 0.3455(3) 0.85286(12)
C35 C 1.3919(4) 0.3386(3) 0.86680(14)
H25 H 1.3737 0.3455 0.9065
C36 C 1.2521(4) 0.3213(3) 0.82175(15)
H26 H 1.1402 0.3151 0.8312
C37 C 1.7056(4) 0.3718(3) 0.90202(13)
O10 O 0.1224(3) 0.4000(3) 0.96438(10)
loop_
_geom_bond_atom_site_label_1
_geom_bond_atom_site_label_2
_geom_bond_site_symmetry_1
_geom_bond_site_symmetry_2
S1 S2 1_555 1_555
S2 C8 1_555 1_555
N1 C1 1_555 1_555
C1 H1 1_555 1_555
C2 C1 1_555 1_555
H2 C2 1_555 1_555
C3 S1 1_555 1_555
C4 C3 1_555 1_555
H3 C4 1_555 1_555
C5 N1 1_555 1_555
H4 C5 1_555 1_555
N2 C6 1_555 1_555
C6 H5 1_555 1_555
C7 C6 1_555 1_555
H6 C7 1_555 1_555
C8 C7 1_555 1_555
C9 C8 1_555 1_555
H7 C9 1_555 1_555
C10 N2 1_555 1_555
H8 C10 1_555 1_555
O1 C11 1_555 1_555
O2 C15 1_555 1_555
O3 C13 1_555 1_555
C11 C12 1_555 1_555
C12 H9 1_555 1_555
C13 C12 1_555 1_555
C14 C13 1_555 1_555
H10 C14 1_555 1_555
C15 C14 1_555 1_555
C16 C11 1_555 1_555
H11 C16 1_555 1_555
O4 H12 1_555 1_555
O5 C23 1_555 1_555
C17 O1 1_555 1_555
C18 C17 1_555 1_555
H13 C18 1_555 1_555
C19 C18 1_555 1_555
H14 C19 1_555 1_555
C20 C19 1_555 1_555
C21 C20 1_555 1_555
H15 C21 1_555 1_555
C22 C17 1_555 1_555
H16 C22 1_555 1_555
C23 O4 1_555 1_555
O6 C30 1_555 1_555
O7 H17 1_555 1_555
C24 O3 1_555 1_555
C25 C24 1_555 1_555
H18 C25 1_555 1_555
C26 C25 1_555 1_555
H19 C26 1_555 1_555
C27 C26 1_555 1_555
C28 C27 1_555 1_555
H20 C28 1_555 1_555
C29 C24 1_555 1_555
H21 C29 1_555 1_555
C30 O7 1_555 1_555
O8 C37 1_555 1_555
O9 H22 1_555 1_555
C31 O2 1_555 1_555
C32 C31 1_555 1_555
H23 C32 1_555 1_555
C33 C32 1_555 1_555
H24 C33 1_555 1_555
C34 C33 1_555 1_555
C35 C34 1_555 1_555
H25 C35 1_555 1_555
C36 C31 1_555 1_555
H26 C36 1_555 1_555
C37 O9 1_555 1_555
C2 C3 1_555 1_555
C4 C5 1_555 1_555
C9 C10 1_555 1_555
C15 C16 1_555 1_555
C20 C23 1_555 1_555
C21 C22 1_555 1_555
C27 C30 1_555 1_555
C28 C29 1_555 1_555
C34 C37 1_555 1_555
C35 C36 1_555 1_555

#END
