
#######################################################################
#
#                 Cambridge Crystallographic Data Centre
#                                CCDC 
#
#######################################################################
#
# If this CIF has been generated from an entry in the Cambridge 
# Structural Database, then it will include bibliographic, chemical, 
# crystal, experimental, refinement or atomic coordinate data resulting 
# from the CCDC's data processing and validation procedures.
#
#######################################################################

data_YISNIA
_chemical_formula_moiety         '2(C27 H21 N3 O6),C12 H12 N2,4(C1 H4 O1)'
_chemical_name_systematic        
"bis(4,4',4''-(benzene-1,3,5-triyltriazanediyl)tribenzoic acid) 4,4'-(ethane-1,2-diyl)dipyridine methanol solvate"
_symmetry_cell_setting           triclinic
_symmetry_space_group_name_H-M   'P -1'
_symmetry_Int_Tables_number      2
_space_group_name_Hall           '-P 1'
loop_
_symmetry_equiv_pos_site_id
_symmetry_equiv_pos_as_xyz
1 x,y,z
2 -x,-y,-z
_cell_length_a                   6.874(5)
_cell_length_b                   12.860(9)
_cell_length_c                   18.821(12)
_cell_angle_alpha                103.912(18)
_cell_angle_beta                 97.77(2)
_cell_angle_gamma                100.062(19)
_cell_volume                     1562.55
_exptl_crystal_colour            brown
_exptl_crystal_description       needle
_cell_formula_units_Z            1
loop_
_atom_site_label
_atom_site_type_symbol
_atom_site_fract_x
_atom_site_fract_y
_atom_site_fract_z
O1 O 0.2027(10) 0.8434(5) 0.6338(4)
H1 H 0.2985 0.8593 0.6139
C1 C 0.1623(15) 0.9440(7) 0.6801(6)
H2 H 0.1249 0.9306 0.7250
H3 H 0.0546 0.9656 0.6531
H4 H 0.2810 1.0015 0.6926
O2 O 0.7030(10) 1.0562(5) 0.7265(3)
H5 H 0.6580 1.0193 0.6835
C2 C 0.7010(14) 0.9843(8) 0.7760(5)
H6 H 0.8274 0.9623 0.7817
H7 H 0.5945 0.9205 0.7550
H8 H 0.6799 1.0228 0.8238
C3 C 0.9031(13) 0.6464(8) 0.0752(6)
C4 C 0.9500(13) 0.7285(8) 0.1423(5)
H9 H 1.0425 0.7933 0.1479
C5 C 0.8548(14) 0.7115(8) 0.2014(5)
C6 C 0.7216(13) 0.6131(7) 0.1926(5)
H10 H 0.6727 0.5976 0.2334
C7 C 0.6613(13) 0.5381(8) 0.1236(6)
C8 C 0.7554(13) 0.5512(7) 0.0639(5)
H11 H 0.7208 0.4983 0.0182
O3 O 1.8786(9) 0.9485(5) 0.0666(4)
H12 H 1.9822 0.9821 0.0584
O4 O 1.7770(8) 0.9413(5) -0.0528(4)
N1 N 0.9845(12) 0.6662(6) 0.0138(5)
H13 H 0.9100 0.6348 -0.0293
C9 C 1.1724(14) 0.7311(7) 0.0137(5)
C10 C 1.3335(14) 0.7581(8) 0.0768(6)
H14 H 1.3146 0.7364 0.1195
C11 C 1.5189(15) 0.8178(7) 0.0720(5)
H15 H 1.6256 0.8327 0.1116
C12 C 1.5506(14) 0.8553(7) 0.0120(5)
C13 C 1.3830(15) 0.8300(7) -0.0499(6)
H16 H 1.3990 0.8547 -0.0918
C14 C 1.2053(16) 0.7708(7) -0.0463(5)
H17 H 1.0994 0.7560 -0.0862
C15 C 1.7368(14) 0.9149(7) 0.0037(6)
O5 O 0.3545(10) 0.8287(5) 0.5139(3)
H18 H 0.3209 0.8340 0.5546
O6 O 0.6507(10) 0.9138(5) 0.5874(4)
N2 N 0.9254(11) 0.7890(6) 0.2702(4)
H19 H 1.0398 0.8326 0.2757
C16 C 0.8261(14) 0.8025(7) 0.3321(6)
C17 C 0.9431(15) 0.8464(7) 0.4028(6)
H20 H 1.0826 0.8611 0.4089
C18 C 0.8494(14) 0.8685(7) 0.4650(6)
H21 H 0.9298 0.9008 0.5118
C19 C 0.6451(15) 0.8447(7) 0.4598(6)
C20 C 0.5215(14) 0.8006(7) 0.3856(5)
H22 H 0.3822 0.7871 0.3802
C21 C 0.6104(14) 0.7784(6) 0.3223(6)
H23 H 0.5315 0.7488 0.2751
C22 C 0.5529(14) 0.8650(7) 0.5236(6)
O7 O -0.1928(9) 0.2777(6) 0.2740(4)
O8 O -0.1690(10) 0.4583(5) 0.3056(4)
H24 H -0.2451 0.4426 0.3332
N3 N 0.5271(11) 0.4348(6) 0.1156(4)
H25 H 0.5422 0.3783 0.0833
C23 C 0.3764(14) 0.4198(8) 0.1559(5)
C24 C 0.3114(14) 0.3228(8) 0.1710(5)
H26 H 0.3733 0.2649 0.1549
C25 C 0.1572(14) 0.3078(8) 0.2092(5)
H27 H 0.1190 0.2402 0.2188
C26 C 0.0570(13) 0.3894(8) 0.2340(5)
C27 C 0.1234(14) 0.4907(8) 0.2207(5)
H28 H 0.0648 0.5491 0.2392
C28 C 0.2772(15) 0.5054(9) 0.1799(5)
H29 H 0.3139 0.5718 0.1686
C29 C -0.1108(14) 0.3708(8) 0.2725(5)
N4 N 0.5262(11) 0.4300(6) 0.3685(4)
C30 C 0.4100(14) 0.3432(8) 0.3815(5)
H30 H 0.4405 0.2752 0.3632
C31 C 0.2563(13) 0.3443(7) 0.4175(5)
H31 H 0.1880 0.2792 0.4241
C32 C 0.1959(13) 0.4432(7) 0.4458(5)
C33 C 0.3087(14) 0.5339(8) 0.4329(5)
H32 H 0.2783 0.6022 0.4501
C34 C 0.4675(13) 0.5257(8) 0.3947(5)
H33 H 0.5376 0.5891 0.3865
C35 C 0.0266(13) 0.4450(6) 0.4868(5)
H34 H 0.0589 0.4178 0.5298
H35 H -0.0916 0.3943 0.4548
N4A N -0.5262(11) 0.5700(6) 0.6315(4)
C30A C -0.4100(14) 0.6568(8) 0.6185(5)
H30A H -0.4405 0.7248 0.6368
C31A C -0.2563(13) 0.6557(7) 0.5825(5)
H31A H -0.1880 0.7208 0.5759
C32A C -0.1959(13) 0.5568(7) 0.5542(5)
C33A C -0.3087(14) 0.4661(8) 0.5671(5)
H32A H -0.2783 0.3978 0.5499
C34A C -0.4675(13) 0.4743(8) 0.6053(5)
H33A H -0.5376 0.4109 0.6135
C35A C -0.0266(13) 0.5550(6) 0.5132(5)
H34A H -0.0589 0.5822 0.4702
H35A H 0.0916 0.6057 0.5452
loop_
_geom_bond_atom_site_label_1
_geom_bond_atom_site_label_2
_geom_bond_site_symmetry_1
_geom_bond_site_symmetry_2
O1 H1 1_555 1_555
C1 O1 1_555 1_555
H2 C1 1_555 1_555
H3 C1 1_555 1_555
H4 C1 1_555 1_555
O2 H5 1_555 1_555
C2 O2 1_555 1_555
H6 C2 1_555 1_555
H7 C2 1_555 1_555
H8 C2 1_555 1_555
C3 C4 1_555 1_555
C4 H9 1_555 1_555
C5 C4 1_555 1_555
C6 C5 1_555 1_555
H10 C6 1_555 1_555
C7 C6 1_555 1_555
C8 C3 1_555 1_555
H11 C8 1_555 1_555
O3 H12 1_555 1_555
O4 C15 1_555 1_555
N1 C3 1_555 1_555
H13 N1 1_555 1_555
C9 N1 1_555 1_555
C10 C9 1_555 1_555
H14 C10 1_555 1_555
C11 C10 1_555 1_555
H15 C11 1_555 1_555
C12 C11 1_555 1_555
C13 C12 1_555 1_555
H16 C13 1_555 1_555
C14 C9 1_555 1_555
H17 C14 1_555 1_555
C15 O3 1_555 1_555
O5 H18 1_555 1_555
O6 C22 1_555 1_555
N2 C5 1_555 1_555
H19 N2 1_555 1_555
C16 N2 1_555 1_555
C17 C16 1_555 1_555
H20 C17 1_555 1_555
C18 C17 1_555 1_555
H21 C18 1_555 1_555
C19 C18 1_555 1_555
C20 C19 1_555 1_555
H22 C20 1_555 1_555
C21 C16 1_555 1_555
H23 C21 1_555 1_555
C22 O5 1_555 1_555
O7 C29 1_555 1_555
O8 H24 1_555 1_555
N3 C7 1_555 1_555
H25 N3 1_555 1_555
C23 N3 1_555 1_555
C24 C23 1_555 1_555
H26 C24 1_555 1_555
C25 C24 1_555 1_555
H27 C25 1_555 1_555
C26 C25 1_555 1_555
C27 C26 1_555 1_555
H28 C27 1_555 1_555
C28 C23 1_555 1_555
H29 C28 1_555 1_555
C29 O8 1_555 1_555
N4 C30 1_555 1_555
C30 H30 1_555 1_555
C31 C30 1_555 1_555
H31 C31 1_555 1_555
C32 C31 1_555 1_555
C33 C32 1_555 1_555
H32 C33 1_555 1_555
C34 N4 1_555 1_555
H33 C34 1_555 1_555
C35 C32 1_555 1_555
H34 C35 1_555 1_555
H35 C35 1_555 1_555
N4A C30A 1_555 1_555
C30A H30A 1_555 1_555
C31A C30A 1_555 1_555
H31A C31A 1_555 1_555
C32A C31A 1_555 1_555
C33A C32A 1_555 1_555
H32A C33A 1_555 1_555
C34A N4A 1_555 1_555
H33A C34A 1_555 1_555
C35A C35 1_555 1_555
H34A C35A 1_555 1_555
H35A C35A 1_555 1_555
C7 C8 1_555 1_555
C12 C15 1_555 1_555
C13 C14 1_555 1_555
C19 C22 1_555 1_555
C20 C21 1_555 1_555
C26 C29 1_555 1_555
C27 C28 1_555 1_555
C33 C34 1_555 1_555
C32A C35A 1_555 1_555
C33A C34A 1_555 1_555

#END
