
#######################################################################
#
#                 Cambridge Crystallographic Data Centre
#                                CCDC 
#
#######################################################################
#
# If this CIF has been generated from an entry in the Cambridge 
# Structural Database, then it will include bibliographic, chemical, 
# crystal, experimental, refinement or atomic coordinate data resulting 
# from the CCDC's data processing and validation procedures.
#
#######################################################################

data_YISPEY
_chemical_formula_moiety         'C27 H21 N3 O6,C13 H14 N2'
_chemical_name_systematic        
"4,4',4''-(benzene-1,3,5-triyltriazanediyl)tribenzoic acid 4,4'-(propane-1,3-diyl)dipyridine"
_symmetry_cell_setting           triclinic
_symmetry_space_group_name_H-M   'P -1'
_symmetry_Int_Tables_number      2
_space_group_name_Hall           '-P 1'
loop_
_symmetry_equiv_pos_site_id
_symmetry_equiv_pos_as_xyz
1 x,y,z
2 -x,-y,-z
_cell_length_a                   8.40(5)
_cell_length_b                   13.02(6)
_cell_length_c                   15.42(7)
_cell_angle_alpha                92.7(2)
_cell_angle_beta                 98.8(2)
_cell_angle_gamma                96.2(3)
_cell_volume                     1653.38
_exptl_crystal_colour            brown
_exptl_crystal_description       block
_cell_formula_units_Z            2
loop_
_atom_site_label
_atom_site_type_symbol
_atom_site_fract_x
_atom_site_fract_y
_atom_site_fract_z
O1 O 1.3802(3) 0.0932(2) 1.0122(2)
O2 O -0.4809(4) 0.4006(2) 0.5559(2)
O3 O 1.3367(3) -0.0543(2) 0.9237(2)
O4 O -0.2800(3) 0.4993(2) 0.5092(2)
H1 H -0.3556 0.5293 0.4868
O5 O 0.4942(4) 0.9078(2) 0.7200(2)
O6 O 0.3527(4) 0.7979(2) 0.6107(2)
H2 H 0.3441 0.8518 0.5858
N1 N 0.5819(4) 0.4561(2) 0.8686(2)
H3 H 0.6492 0.4655 0.9170
N2 N 0.6363(4) 0.0852(2) 0.8386(2)
H4 H 0.5806 0.0266 0.8213
N3 N 0.1229(4) 0.1976(3) 0.7457(2)
H5 H 0.0826 0.1369 0.7567
C1 C 0.3496(5) 0.3295(3) 0.8055(3)
H6 H 0.2820 0.3817 0.7993
C2 C 0.8633(5) -0.0049(3) 0.8337(3)
H7 H 0.7984 -0.0508 0.7914
C3 C 0.0672(5) 0.3334(3) 0.6437(3)
H8 H 0.1769 0.3488 0.6408
C4 C 1.1223(5) 0.0487(3) 0.9235(3)
C5 C 0.5101(5) 0.3523(3) 0.8408(3)
C6 C 0.7979(5) 0.0787(3) 0.8688(3)
C7 C 0.8988(5) 0.1485(3) 0.9330(3)
H9 H 0.8576 0.2045 0.9577
C8 C 0.6119(5) 0.2740(3) 0.8558(3)
H10 H 0.7200 0.2900 0.8815
C9 C 1.0586(5) 0.1324(3) 0.9585(3)
H11 H 1.1248 0.1786 1.0001
C10 C -0.3365(6) 0.4216(3) 0.5532(3)
C11 C 1.0212(5) -0.0205(3) 0.8606(3)
H12 H 1.0619 -0.0774 0.8371
C12 C -0.2106(5) 0.3663(3) 0.6003(3)
C13 C 0.5747(5) 0.7311(3) 0.8178(3)
H13 H 0.6131 0.7962 0.8450
C14 C 0.6072(5) 0.6436(3) 0.8631(3)
H14 H 0.6660 0.6504 0.9198
C15 C 0.2879(5) 0.2260(3) 0.7787(3)
C16 C 0.4665(5) 0.5364(3) 0.7365(3)
H15 H 0.4319 0.4716 0.7078
C17 C -0.1479(5) 0.2340(3) 0.7009(3)
H16 H -0.1826 0.1823 0.7357
C18 C 0.5488(5) 0.5433(3) 0.8213(3)
C19 C -0.2598(5) 0.2886(3) 0.6529(3)
H17 H -0.3695 0.2731 0.6558
C20 C -0.0460(5) 0.3870(3) 0.5950(3)
H18 H -0.0119 0.4369 0.5585
C21 C 0.4447(5) 0.8184(3) 0.6888(3)
C22 C 0.5458(5) 0.1701(3) 0.8310(3)
C23 C 0.3862(5) 0.1474(3) 0.7916(3)
H19 H 0.3445 0.0794 0.7738
C24 C 1.2900(5) 0.0300(3) 0.9567(3)
C25 C 0.0173(5) 0.2566(3) 0.6971(3)
C26 C 0.4342(5) 0.6250(3) 0.6931(3)
H20 H 0.3765 0.6186 0.6363
C27 C 0.4876(5) 0.7241(3) 0.7340(3)
N4 N -0.2040(4) 0.4359(3) 0.0453(3)
N5 N 0.2777(5) -0.0350(3) 0.5291(3)
C28 C -0.0299(5) 0.3847(3) 0.2064(3)
C29 C 0.2104(6) 0.1479(3) 0.4464(3)
C30 C 0.0042(6) 0.4798(3) 0.1722(3)
H21 H 0.0865 0.5282 0.2018
C31 C -0.2381(6) 0.3450(4) 0.0809(3)
H22 H -0.3242 0.2991 0.0517
C32 C 0.0727(6) 0.2500(3) 0.3181(3)
H23 H -0.0355 0.2165 0.3201
H24 H 0.1187 0.2122 0.2742
C33 C -0.1525(5) 0.3157(3) 0.1586(3)
H25 H -0.1775 0.2504 0.1782
C34 C -0.0857(6) 0.5024(3) 0.0930(3)
H26 H -0.0624 0.5673 0.0720
C35 C 0.0646(6) 0.3636(3) 0.2940(3)
H27 H 0.0191 0.3989 0.3396
H28 H 0.1750 0.3957 0.2966
C36 C 0.1283(6) 0.0516(3) 0.4150(3)
H29 H 0.0489 0.0457 0.3653
C37 C 0.1785(6) 0.2504(3) 0.4079(3)
H30 H 0.2828 0.2886 0.4044
H31 H 0.1292 0.2895 0.4497
C38 C 0.1660(6) -0.0358(3) 0.4588(3)
H32 H 0.1085 -0.0992 0.4371
C39 C 0.3293(6) 0.1492(4) 0.5184(3)
H33 H 0.3893 0.2115 0.5409
C40 C 0.3611(6) 0.0573(4) 0.5585(3)
H34 H 0.4427 0.0603 0.6070
loop_
_geom_bond_atom_site_label_1
_geom_bond_atom_site_label_2
_geom_bond_site_symmetry_1
_geom_bond_site_symmetry_2
O1 C24 1_555 1_555
O2 C10 1_555 1_555
O3 C24 1_555 1_555
O4 H1 1_555 1_555
O5 C21 1_555 1_555
O6 H2 1_555 1_555
N1 H3 1_555 1_555
N2 H4 1_555 1_555
N3 H5 1_555 1_555
C1 H6 1_555 1_555
C2 H7 1_555 1_555
C3 H8 1_555 1_555
C4 C9 1_555 1_555
C5 N1 1_555 1_555
C6 N2 1_555 1_555
C7 C6 1_555 1_555
H9 C7 1_555 1_555
C8 C5 1_555 1_555
H10 C8 1_555 1_555
C9 C7 1_555 1_555
H11 C9 1_555 1_555
C10 O4 1_555 1_555
C11 C2 1_555 1_555
H12 C11 1_555 1_555
C12 C10 1_555 1_555
C13 H13 1_555 1_555
C14 C13 1_555 1_555
H14 C14 1_555 1_555
C15 N3 1_555 1_555
C16 H15 1_555 1_555
C17 H16 1_555 1_555
C18 N1 1_555 1_555
C19 C12 1_555 1_555
H17 C19 1_555 1_555
C20 C3 1_555 1_555
H18 C20 1_555 1_555
C21 O6 1_555 1_555
C22 N2 1_555 1_555
C23 C15 1_555 1_555
H19 C23 1_555 1_555
C24 C4 1_555 1_555
C25 N3 1_555 1_555
C26 C16 1_555 1_555
H20 C26 1_555 1_555
C27 C13 1_555 1_555
N4 C31 1_555 1_555
N5 C38 1_555 1_555
C28 C30 1_555 1_555
C29 C36 1_555 1_555
C30 H21 1_555 1_555
C31 H22 1_555 1_555
C32 H23 1_555 1_555
H24 C32 1_555 1_555
C33 C28 1_555 1_555
H25 C33 1_555 1_555
C34 N4 1_555 1_555
H26 C34 1_555 1_555
C35 C28 1_555 1_555
H27 C35 1_555 1_555
H28 C35 1_555 1_555
C36 H29 1_555 1_555
C37 C29 1_555 1_555
H30 C37 1_555 1_555
H31 C37 1_555 1_555
C38 C36 1_555 1_555
H32 C38 1_555 1_555
C39 C29 1_555 1_555
H33 C39 1_555 1_555
C40 N5 1_555 1_555
H34 C40 1_555 1_555
C1 C5 1_555 1_555
C1 C15 1_555 1_555
C2 C6 1_555 1_555
C3 C25 1_555 1_555
C4 C11 1_555 1_555
C8 C22 1_555 1_555
C12 C20 1_555 1_555
C14 C18 1_555 1_555
C16 C18 1_555 1_555
C17 C19 1_555 1_555
C17 C25 1_555 1_555
C21 C27 1_555 1_555
C22 C23 1_555 1_555
C26 C27 1_555 1_555
C30 C34 1_555 1_555
C31 C33 1_555 1_555
C32 C35 1_555 1_555
C32 C37 1_555 1_555
C39 C40 1_555 1_555

#END
