
#######################################################################
#
#                 Cambridge Crystallographic Data Centre
#                                CCDC 
#
#######################################################################
#
# If this CIF has been generated from an entry in the Cambridge 
# Structural Database, then it will include bibliographic, chemical, 
# crystal, experimental, refinement or atomic coordinate data resulting 
# from the CCDC's data processing and validation procedures.
#
#######################################################################

data_YISPAU
_chemical_formula_moiety         'C27 H21 N3 O6,C10 H8 N2,C1 H4 O1'
_chemical_name_systematic        
"4,4',4''-(benzene-1,3,5-triyltriazanediyl)tribenzoic acid 4,4'-bipyridine methanol solvate"
_symmetry_cell_setting           triclinic
_symmetry_space_group_name_H-M   'P -1'
_symmetry_Int_Tables_number      2
_space_group_name_Hall           '-P 1'
loop_
_symmetry_equiv_pos_site_id
_symmetry_equiv_pos_as_xyz
1 x,y,z
2 -x,-y,-z
_cell_length_a                   9.179(9)
_cell_length_b                   13.799(9)
_cell_length_c                   14.211(10)
_cell_angle_alpha                109.83(3)
_cell_angle_beta                 100.42(6)
_cell_angle_gamma                97.41(5)
_cell_volume                     1629.71
_exptl_crystal_colour            brown
_exptl_crystal_description       needle
_cell_formula_units_Z            2
loop_
_atom_site_label
_atom_site_type_symbol
_atom_site_fract_x
_atom_site_fract_y
_atom_site_fract_z
O1 O 0.0871(3) 0.1137(2) 0.1995(2)
H1 H 0.0134 0.0767 0.1532
O2 O 0.4660(3) 0.4718(2) 0.09874(18)
O3 O 0.6698(3) 0.5781(2) 0.09647(19)
H2 H 0.6247 0.5585 0.0357
O4 O 1.4348(3) 0.8202(2) 1.2688(2)
O5 O 0.0634(3) -0.0261(2) 0.2450(2)
N1 N 0.8772(3) 0.5988(2) 0.5530(2)
H3 H 0.9563 0.6486 0.5813
O6 O 1.5403(3) 0.7859(2) 1.1356(2)
H4 H 1.6179 0.8106 1.1819
N2 N 0.8587(3) 0.5904(2) 0.8872(2)
H5 H 0.7801 0.5929 0.9123
N3 N 0.6499(3) 0.2755(2) 0.5871(2)
H6 H 0.6834 0.2365 0.6185
C1 C 0.6658(4) 0.5513(3) 0.2495(3)
C2 C 0.8688(4) 0.5938(3) 0.7185(3)
H7 H 0.9148 0.6648 0.7489
C3 C 0.5882(4) 0.5115(3) 0.3081(3)
H8 H 0.4895 0.4732 0.2792
C4 C 0.8333(4) 0.5382(3) 0.7789(3)
C5 C 0.8050(4) 0.5825(3) 0.4539(3)
C6 C 0.7230(4) 0.3822(3) 0.6277(3)
C7 C 0.3406(4) 0.2194(3) 0.3562(3)
H9 H 0.3001 0.2528 0.3139
C8 C 0.8821(4) 0.6251(3) 0.3958(3)
H10 H 0.9806 0.6640 0.4250
C9 C 0.4669(4) 0.2727(3) 0.4350(3)
H11 H 0.5115 0.3407 0.4441
C10 C 0.7665(4) 0.4363(3) 0.5682(3)
H12 H 0.7496 0.4011 0.4973
C11 C 0.8351(4) 0.5426(3) 0.6122(3)
C12 C 0.5921(4) 0.5306(3) 0.1441(3)
C13 C 0.5285(4) 0.2265(3) 0.5010(3)
C14 C 0.9968(4) 0.6372(3) 0.9560(3)
C15 C 0.2725(4) 0.1177(3) 0.3385(3)
C16 C 1.0041(4) 0.6912(3) 1.0601(3)
H13 H 0.9151 0.6957 1.0823
C17 C 1.2767(4) 0.7331(3) 1.1001(3)
C18 C 0.6549(4) 0.5279(3) 0.4074(3)
H14 H 0.5994 0.5021 0.4455
C19 C 0.7591(4) 0.4333(3) 0.7341(3)
H15 H 0.7336 0.3972 0.7753
C20 C 1.1341(4) 0.6323(3) 0.9257(3)
H16 H 1.1332 0.5969 0.8570
C21 C 1.4208(4) 0.7831(3) 1.1764(3)
C22 C 1.1406(4) 0.7376(3) 1.1299(3)
H17 H 1.1423 0.7728 1.1988
C23 C 0.1318(4) 0.0619(3) 0.2575(3)
C24 C 0.8136(4) 0.6099(3) 0.2965(3)
H18 H 0.8666 0.6391 0.2593
C25 C 1.2692(4) 0.6795(3) 0.9972(3)
H19 H 1.3588 0.6753 0.9756
C26 C 0.4625(4) 0.1225(3) 0.4809(3)
H20 H 0.5056 0.0881 0.5214
C27 C 0.3352(5) 0.0697(3) 0.4029(3)
H21 H 0.2909 0.0014 0.3931
N4 N 0.1651(3) 0.7538(3) 0.6642(2)
N5 N 0.8493(3) 1.0100(3) 1.0493(2)
C28 C 0.3727(4) 0.7518(3) 0.7920(3)
H22 H 0.4178 0.7134 0.8273
C29 C 0.5838(4) 0.9080(3) 0.8935(3)
C30 C 0.4408(4) 0.8549(3) 0.8138(3)
C31 C 0.2383(4) 0.7057(3) 0.7183(3)
H23 H 0.1961 0.6362 0.7058
C32 C 0.3673(4) 0.9050(3) 0.7566(3)
H24 H 0.4084 0.9741 0.7669
C33 C 0.2322(4) 0.8531(3) 0.6839(3)
H25 H 0.1856 0.8893 0.6466
C34 C 0.6451(4) 1.0126(3) 0.9223(3)
H26 H 0.5976 1.0524 0.8899
C35 C 0.7763(5) 1.0597(3) 0.9987(3)
H27 H 0.8151 1.1307 1.0153
C36 C 0.7925(5) 0.9088(4) 1.0221(3)
H28 H 0.8428 0.8715 1.0563
C37 C 0.6627(5) 0.8555(4) 0.9459(3)
H29 H 0.6281 0.7840 0.9297
O7 O 0.8076(3) 0.8694(3) 0.2670(2)
H30 H 0.8780 0.9042 0.2566
C38 C 0.8323(6) 0.8889(4) 0.3725(4)
H31 H 0.9297 0.8760 0.3967
H32 H 0.7551 0.8432 0.3839
H33 H 0.8289 0.9609 0.4092
loop_
_geom_bond_atom_site_label_1
_geom_bond_atom_site_label_2
_geom_bond_site_symmetry_1
_geom_bond_site_symmetry_2
O1 H1 1_555 1_555
O2 C12 1_555 1_555
O3 H2 1_555 1_555
O4 C21 1_555 1_555
O5 C23 1_555 1_555
N1 H3 1_555 1_555
O6 H4 1_555 1_555
N2 H5 1_555 1_555
N3 H6 1_555 1_555
C1 C3 1_555 1_555
C2 H7 1_555 1_555
C3 H8 1_555 1_555
C4 N2 1_555 1_555
C5 N1 1_555 1_555
C6 N3 1_555 1_555
C7 H9 1_555 1_555
C8 C5 1_555 1_555
H10 C8 1_555 1_555
C9 C7 1_555 1_555
H11 C9 1_555 1_555
C10 C6 1_555 1_555
H12 C10 1_555 1_555
C11 N1 1_555 1_555
C12 O3 1_555 1_555
C13 N3 1_555 1_555
C14 N2 1_555 1_555
C15 C7 1_555 1_555
C16 C14 1_555 1_555
H13 C16 1_555 1_555
C17 C21 1_555 1_555
C18 C3 1_555 1_555
H14 C18 1_555 1_555
C19 C4 1_555 1_555
H15 C19 1_555 1_555
C20 C14 1_555 1_555
H16 C20 1_555 1_555
C21 O6 1_555 1_555
C22 C16 1_555 1_555
H17 C22 1_555 1_555
C23 O1 1_555 1_555
C24 C1 1_555 1_555
H18 C24 1_555 1_555
C25 C17 1_555 1_555
H19 C25 1_555 1_555
C26 C13 1_555 1_555
H20 C26 1_555 1_555
C27 C15 1_555 1_555
H21 C27 1_555 1_555
N4 C31 1_555 1_555
N5 C35 1_555 1_555
C28 H22 1_555 1_555
C29 C30 1_555 1_555
C30 C28 1_555 1_555
C31 C28 1_555 1_555
H23 C31 1_555 1_555
C32 C30 1_555 1_555
H24 C32 1_555 1_555
C33 N4 1_555 1_555
H25 C33 1_555 1_555
C34 C29 1_555 1_555
H26 C34 1_555 1_555
C35 C34 1_555 1_555
H27 C35 1_555 1_555
C36 N5 1_555 1_555
H28 C36 1_555 1_555
C37 C29 1_555 1_555
H29 C37 1_555 1_555
O7 H30 1_555 1_555
C38 O7 1_555 1_555
H31 C38 1_555 1_555
H32 C38 1_555 1_555
H33 C38 1_555 1_555
C1 C12 1_555 1_555
C2 C4 1_555 1_555
C2 C11 1_555 1_555
C5 C18 1_555 1_555
C6 C19 1_555 1_555
C8 C24 1_555 1_555
C9 C13 1_555 1_555
C10 C11 1_555 1_555
C15 C23 1_555 1_555
C17 C22 1_555 1_555
C20 C25 1_555 1_555
C26 C27 1_555 1_555
C32 C33 1_555 1_555
C36 C37 1_555 1_555

#END
