
#######################################################################
#
#                 Cambridge Crystallographic Data Centre
#                                CCDC 
#
#######################################################################
#
# If this CIF has been generated from an entry in the Cambridge 
# Structural Database, then it will include bibliographic, chemical, 
# crystal, experimental, refinement or atomic coordinate data resulting 
# from the CCDC's data processing and validation procedures.
#
#######################################################################

data_YISTIF
_chemical_formula_moiety         'C25 H27 N1 O6 S1,0.5(C1 H2 Cl2)'
_chemical_name_systematic        
'Dimethyl 2-((4-methylphenyl)sulfonyl)-6-phenyl-1,2,3,6,7,7a-hexahydro-3aH-isoindole-3a,7-dicarboxylate dichloromethane solvate'
_symmetry_cell_setting           triclinic
_symmetry_space_group_name_H-M   'P -1'
_symmetry_Int_Tables_number      2
_space_group_name_Hall           '-P 1'
loop_
_symmetry_equiv_pos_site_id
_symmetry_equiv_pos_as_xyz
1 x,y,z
2 -x,-y,-z
_cell_length_a                   10.4754(8)
_cell_length_b                   12.0409(9)
_cell_length_c                   20.6294(14)
_cell_angle_alpha                84.180(4)
_cell_angle_beta                 85.502(4)
_cell_angle_gamma                79.063(4)
_cell_volume                     2536.95
_cell_formula_units_Z            4
loop_
_atom_site_label
_atom_site_type_symbol
_atom_site_fract_x
_atom_site_fract_y
_atom_site_fract_z
S1 S 0.51816(8) 0.65930(7) 0.36998(4)
O1 O 1.0416(2) 0.66863(18) 0.36477(9)
O2 O 0.4308(2) 0.58665(19) 0.39667(11)
O3 O 0.5143(2) 0.7397(2) 0.61081(12)
O4 O 0.9281(2) 0.84377(18) 0.37466(10)
O5 O 0.4769(2) 0.7524(2) 0.32345(11)
O6 O 0.5947(3) 0.8882(2) 0.56492(13)
C1 C 0.6571(3) 0.5742(3) 0.33525(13)
C2 C 0.6926(3) 0.4626(3) 0.35950(15)
H1 H 0.6384 0.4297 0.3921
C3 C 0.7372(4) 0.6206(3) 0.28724(16)
H2 H 0.7130 0.6970 0.2695
C4 C 0.8076(3) 0.3987(3) 0.33606(17)
H3 H 0.8309 0.3215 0.3525
C5 C 0.8516(4) 0.5549(5) 0.26569(18)
H4 H 0.9064 0.5874 0.2332
C6 C 0.8890(3) 0.4439(5) 0.28966(17)
C7 C 0.6799(3) 0.7030(2) 0.52714(13)
C8 C 0.8779(3) 0.6889(2) 0.44899(12)
H5 H 0.8545 0.6190 0.4344
C9 C 0.6525(3) 0.7974(2) 0.41937(15)
H6 H 0.6023 0.8750 0.4237
H7 H 0.6961 0.7945 0.3751
C10 C 0.8965(3) 0.6065(2) 0.56418(13)
H8 H 0.9453 0.5613 0.5975
C11 C 0.7694(3) 0.6251(2) 0.57319(13)
H9 H 0.7315 0.5877 0.6105
C12 C 0.9709(3) 0.6510(2) 0.50531(12)
H10 H 1.0380 0.5860 0.4909
C13 C 0.7520(3) 0.7649(2) 0.47123(13)
H11 H 0.7726 0.8353 0.4865
C14 C 0.5992(3) 0.6368(2) 0.49092(13)
H12 H 0.6511 0.5627 0.4800
H13 H 0.5197 0.6237 0.5175
C15 C 0.5915(3) 0.7893(3) 0.56792(15)
C16 C 0.4361(4) 0.8096(4) 0.65688(18)
H14 H 0.4926 0.8329 0.6866
H15 H 0.3755 0.7664 0.6820
H16 H 0.3868 0.8771 0.6335
C17 C 0.9493(3) 0.7443(3) 0.39192(13)
C18 C 1.0436(3) 0.7431(2) 0.51971(13)
C19 C 0.9898(3) 0.8285(2) 0.55910(14)
H17 H 0.9049 0.8295 0.5792
C20 C 1.1694(3) 0.7427(3) 0.49197(15)
H18 H 1.2094 0.6840 0.4655
C21 C 1.0568(4) 0.9123(3) 0.56985(18)
H19 H 1.0176 0.9706 0.5967
C22 C 1.1236(4) 0.7119(4) 0.31184(17)
H20 H 1.0700 0.7465 0.2756
H21 H 1.1899 0.6493 0.2968
H22 H 1.1663 0.7691 0.3273
C23 C 1.1793(4) 0.9116(3) 0.5420(2)
H23 H 1.2253 0.9693 0.5497
C24 C 1.2366(3) 0.8275(3) 0.50271(18)
H24 H 1.3217 0.8275 0.4831
N1 N 0.5660(2) 0.7121(2) 0.43148(11)
C25 C 1.0159(4) 0.3744(6) 0.2660(2)
H25 H 1.0450 0.4088 0.2236
H26 H 1.0038 0.2970 0.2613
H27 H 1.0817 0.3722 0.2976
S2 S 0.47462(8) 0.24226(8) 0.93932(4)
O7 O 0.9929(2) 0.26006(19) 0.94851(10)
O8 O 0.4220(2) 0.3452(2) 0.90330(12)
O9 O 0.3905(2) 0.1695(2) 0.97098(12)
O10 O 0.9347(2) 0.30705(19) 0.84644(11)
O11 O 0.7590(2) 0.0169(2) 0.74671(12)
O12 O 0.6193(3) -0.0821(2) 0.80002(15)
C26 C 0.5694(3) 0.2749(3) 0.99890(15)
C27 C 0.6172(3) 0.3748(3) 0.99075(17)
H28 H 0.5983 0.4265 0.9533
C28 C 0.5988(3) 0.1997(3) 1.05256(17)
H29 H 0.5669 0.1304 1.0582
C29 C 0.7228(4) 0.3261(3) 1.09123(19)
C30 C 0.6756(4) 0.2262(3) 1.09839(18)
H30 H 0.6960 0.1742 1.1355
C31 C 0.6922(4) 0.3988(3) 1.0372(2)
H31 H 0.7239 0.4682 1.0316
C32 C 0.7961(3) 0.1262(2) 0.85049(13)
H32 H 0.8463 0.1280 0.8072
C33 C 0.8850(3) 0.1346(2) 0.90453(13)
H33 H 0.8325 0.1333 0.9472
C34 C 0.6738(3) 0.2179(2) 0.84808(15)
H34 H 0.6887 0.2875 0.8658
H35 H 0.6472 0.2373 0.8027
C35 C 1.0007(3) 0.0316(2) 0.90807(13)
H36 H 1.0430 0.0329 0.9497
C36 C 0.7412(3) 0.0153(2) 0.86257(15)
C37 C 0.6222(3) 0.0466(3) 0.90973(17)
H37 H 0.5559 -0.0004 0.9053
H38 H 0.6473 0.0366 0.9555
C38 C 0.8347(3) -0.0847(3) 0.89274(16)
H39 H 0.8099 -0.1572 0.8974
C39 C 0.9483(3) -0.0767(3) 0.91282(15)
H40 H 1.0006 -0.1437 0.9315
C40 C 1.1053(3) 0.0367(2) 0.85281(13)
C41 C 0.9376(3) 0.2437(3) 0.89488(15)
C42 C 1.0966(3) -0.0047(3) 0.79360(14)
H41 H 1.0232 -0.0366 0.7865
C43 C 0.6980(3) -0.0217(3) 0.80012(19)
C44 C 1.2136(3) 0.0827(3) 0.86221(16)
H42 H 1.2214 0.1111 0.9028
C45 C 1.1939(3) -0.0001(3) 0.74460(15)
H43 H 1.1870 -0.0286 0.7040
C46 C 1.3100(3) 0.0875(3) 0.81307(18)
H44 H 1.3833 0.1200 0.8198
C47 C 1.0573(4) 0.3569(3) 0.9445(2)
H45 H 1.1275 0.3492 0.9101
H46 H 1.0937 0.3605 0.9864
H47 H 0.9942 0.4265 0.9343
C48 C 0.7242(5) -0.0152(4) 0.6853(2)
H48 H 0.7444 -0.0980 0.6851
H49 H 0.7740 0.0193 0.6491
H50 H 0.6309 0.0115 0.6803
N2 N 0.5735(2) 0.1670(2) 0.88926(12)
C49 C 0.8037(5) 0.3553(4) 1.1421(3)
H51 H 0.8922 0.3112 1.1377
H52 H 0.7646 0.3371 1.1857
H53 H 0.8068 0.4365 1.1360
C50 C 1.3010(3) 0.0460(3) 0.75467(17)
H54 H 1.3681 0.0488 0.7211
Cl1 Cl 0.7345(2) 0.60302(18) 0.87886(10)
Cl2 Cl 0.6045(3) 0.5476(2) 0.77188(18)
C51 C 0.6216(8) 0.6406(6) 0.8220(5)
H55 H 0.5360 0.6639 0.8454
H56 H 0.6422 0.7086 0.7952
loop_
_geom_bond_atom_site_label_1
_geom_bond_atom_site_label_2
_geom_bond_site_symmetry_1
_geom_bond_site_symmetry_2
S1 O2 1_555 1_555
O1 C17 1_555 1_555
O3 C15 1_555 1_555
O4 C17 1_555 1_555
O5 S1 1_555 1_555
O6 C15 1_555 1_555
C1 S1 1_555 1_555
C2 C1 1_555 1_555
H1 C2 1_555 1_555
C3 C1 1_555 1_555
H2 C3 1_555 1_555
C4 C2 1_555 1_555
H3 C4 1_555 1_555
C5 C3 1_555 1_555
H4 C5 1_555 1_555
C6 C4 1_555 1_555
C7 C11 1_555 1_555
C8 H5 1_555 1_555
C9 H6 1_555 1_555
H7 C9 1_555 1_555
C10 H8 1_555 1_555
C11 C10 1_555 1_555
H9 C11 1_555 1_555
C12 C8 1_555 1_555
H10 C12 1_555 1_555
C13 C7 1_555 1_555
H11 C13 1_555 1_555
C14 C7 1_555 1_555
H12 C14 1_555 1_555
H13 C14 1_555 1_555
C15 C7 1_555 1_555
C16 O3 1_555 1_555
H14 C16 1_555 1_555
H15 C16 1_555 1_555
H16 C16 1_555 1_555
C17 C8 1_555 1_555
C18 C12 1_555 1_555
C19 C18 1_555 1_555
H17 C19 1_555 1_555
C20 C18 1_555 1_555
H18 C20 1_555 1_555
C21 C19 1_555 1_555
H19 C21 1_555 1_555
C22 O1 1_555 1_555
H20 C22 1_555 1_555
H21 C22 1_555 1_555
H22 C22 1_555 1_555
C23 C21 1_555 1_555
H23 C23 1_555 1_555
C24 C20 1_555 1_555
H24 C24 1_555 1_555
N1 S1 1_555 1_555
C25 C6 1_555 1_555
H25 C25 1_555 1_555
H26 C25 1_555 1_555
H27 C25 1_555 1_555
S2 O8 1_555 1_555
O7 C41 1_555 1_555
O9 S2 1_555 1_555
O10 C41 1_555 1_555
O11 C43 1_555 1_555
O12 C43 1_555 1_555
C26 S2 1_555 1_555
C27 C26 1_555 1_555
H28 C27 1_555 1_555
C28 C26 1_555 1_555
H29 C28 1_555 1_555
C29 C30 1_555 1_555
C30 C28 1_555 1_555
H30 C30 1_555 1_555
C31 C27 1_555 1_555
H31 C31 1_555 1_555
C32 H32 1_555 1_555
C33 C32 1_555 1_555
H33 C33 1_555 1_555
C34 C32 1_555 1_555
H34 C34 1_555 1_555
H35 C34 1_555 1_555
C35 C33 1_555 1_555
H36 C35 1_555 1_555
C36 C32 1_555 1_555
C37 C36 1_555 1_555
H37 C37 1_555 1_555
H38 C37 1_555 1_555
C38 C36 1_555 1_555
H39 C38 1_555 1_555
C39 C35 1_555 1_555
H40 C39 1_555 1_555
C40 C35 1_555 1_555
C41 C33 1_555 1_555
C42 C40 1_555 1_555
H41 C42 1_555 1_555
C43 C36 1_555 1_555
C44 C40 1_555 1_555
H42 C44 1_555 1_555
C45 C42 1_555 1_555
H43 C45 1_555 1_555
C46 C44 1_555 1_555
H44 C46 1_555 1_555
C47 O7 1_555 1_555
H45 C47 1_555 1_555
H46 C47 1_555 1_555
H47 C47 1_555 1_555
C48 O11 1_555 1_555
H48 C48 1_555 1_555
H49 C48 1_555 1_555
H50 C48 1_555 1_555
N2 S2 1_555 1_555
C49 C29 1_555 1_555
H51 C49 1_555 1_555
H52 C49 1_555 1_555
H53 C49 1_555 1_555
C50 C45 1_555 1_555
H54 C50 1_555 1_555
Cl1 C51 1_555 1_555
Cl2 C51 1_555 1_555
C51 H55 1_555 1_555
H56 C51 1_555 1_555
C5 C6 1_555 1_555
C8 C13 1_555 1_555
C9 C13 1_555 1_555
C9 N1 1_555 1_555
C10 C12 1_555 1_555
C14 N1 1_555 1_555
C23 C24 1_555 1_555
C29 C31 1_555 1_555
C34 N2 1_555 1_555
C37 N2 1_555 1_555
C38 C39 1_555 1_555
C46 C50 1_555 1_555

#END
