
#######################################################################
#
#                 Cambridge Crystallographic Data Centre
#                                CCDC 
#
#######################################################################
#
# If this CIF has been generated from an entry in the Cambridge 
# Structural Database, then it will include bibliographic, chemical, 
# crystal, experimental, refinement or atomic coordinate data resulting 
# from the CCDC's data processing and validation procedures.
#
#######################################################################

data_YISTID
_chemical_formula_moiety         
'C33 H42 N4 O12 Rb1 1+,C6 H2 N3 O7 1-,C1 H4 O1,H2 O1'
_chemical_name_systematic        
"(3-Nitro-2,6-diamino-N,N'-bis(4'-benzo-15-crown-5)pyridine)-rubidium picrate methanol solvate monohydrate"
_symmetry_cell_setting           triclinic
_symmetry_space_group_name_H-M   'P -1'
_symmetry_Int_Tables_number      2
_space_group_name_Hall           '-P 1'
loop_
_symmetry_equiv_pos_site_id
_symmetry_equiv_pos_as_xyz
1 x,y,z
2 -x,-y,-z
_cell_length_a                   11.481(4)
_cell_length_b                   14.519(4)
_cell_length_c                   15.960(6)
_cell_angle_alpha                63.28(3)
_cell_angle_beta                 73.75(3)
_cell_angle_gamma                80.66(3)
_cell_volume                     2279.32
_exptl_crystal_colour            yellow
_chemical_melting_point          249deg.C
_cell_formula_units_Z            2
loop_
_atom_site_label
_atom_site_type_symbol
_atom_site_fract_x
_atom_site_fract_y
_atom_site_fract_z
Rb1 Rb 0.4128(3) 0.3497(3) 0.3509(2)
O1 O 0.284(1) 0.438(1) 0.493(1)
O2 O 0.307(1) 0.228(1) 0.549(1)
O3 O 0.567(1) 0.234(1) 0.4803(9)
O4 O 0.655(1) 0.421(1) 0.3085(9)
O5 O 0.459(1) 0.536(1) 0.3609(9)
O6 O 0.308(1) 0.500(1) 0.189(1)
O7 O 0.155(1) 0.368(1) 0.347(1)
O8 O 0.309(1) 0.191(1) 0.335(1)
O9 O 0.566(1) 0.228(1) 0.258(1)
O10 O 0.521(1) 0.428(1) 0.138(1)
O11 O 0.462(2) 1.031(1) -0.167(1)
O12 O 0.362(2) 1.164(1) -0.156(1)
N1 N 0.323(1) 0.859(1) 0.1264(9)
N2 N 0.213(1) 0.857(1) 0.271(1)
N3 N 0.438(1) 0.855(1) -0.011(1)
N4 N 0.394(2) 1.071(1) -0.118(1)
C1 C 0.190(2) 0.535(1) 0.220(1)
C2 C 0.184(2) 0.368(1) 0.557(1)
C3 C 0.114(2) 0.438(2) 0.269(2)
C4 C 0.236(2) 0.270(1) 0.614(1)
C5 C 0.122(2) 0.263(2) 0.381(2)
C6 C 0.394(2) 0.147(2) 0.586(1)
C7 C 0.186(2) 0.214(2) 0.322(2)
C8 C 0.511(2) 0.188(2) 0.578(1)
C9 C 0.385(2) 0.144(2) 0.280(2)
C10 C 0.680(2) 0.280(2) 0.459(1)
C11 C 0.512(2) 0.130(2) 0.295(1)
C12 C 0.729(2) 0.335(1) 0.356(1)
C13 C 0.618(2) 0.264(2) 0.159(1)
C14 C 0.671(2) 0.510(1) 0.316(1)
C15 C 0.636(2) 0.377(2) 0.120(1)
C16 C 0.568(1) 0.586(1) 0.292(1)
C17 C 0.256(1) 0.907(1) 0.175(1)
C18 C 0.223(2) 1.014(2) 0.135(1)
C19 C 0.270(1) 1.064(1) 0.036(1)
C20 C 0.345(2) 1.015(1) -0.018(1)
C21 C 0.372(2) 0.908(1) 0.034(1)
C22 C 0.232(2) 0.749(1) 0.324(1)
C23 C 0.134(2) 0.695(1) 0.397(1)
C24 C 0.145(2) 0.594(1) 0.454(1)
C25 C 0.255(1) 0.538(1) 0.4438(9)
C26 C 0.356(2) 0.594(1) 0.369(1)
C27 C 0.340(2) 0.694(1) 0.312(1)
C28 C 0.465(2) 0.746(1) 0.031(1)
C29 C 0.372(2) 0.678(2) 0.093(1)
C30 C 0.393(2) 0.573(1) 0.126(1)
C31 C 0.509(2) 0.534(1) 0.098(1)
C32 C 0.599(2) 0.602(2) 0.038(1)
C33 C 0.580(2) 0.700(2) 0.007(1)
O13 O 1.066(2) 0.812(1) -0.230(1)
O14 O 1.069(2) 0.600(1) -0.147(1)
O15 O 0.898(2) 0.576(2) -0.051(1)
O16 O 1.006(2) 0.806(2) 0.172(1)
O17 O 0.929(2) 0.664(2) 0.213(1)
O18 O 1.087(2) 1.015(2) -0.260(1)
O19 O 1.193(2) 1.012(2) -0.168(2)
N5 N 0.990(2) 0.625(2) -0.092(1)
N6 N 0.980(2) 0.740(2) 0.152(1)
N7 N 1.125(2) 0.970(2) -0.185(2)
C34 C 1.049(2) 0.800(2) -0.144(1)
C35 C 1.004(2) 0.708(2) -0.067(1)
C36 C 0.982(2) 0.688(2) 0.026(1)
C37 C 1.004(2) 0.763(2) 0.051(1)
C38 C 1.054(2) 0.854(2) -0.021(1)
C39 C 1.073(2) 0.869(2) -0.113(1)
O20 O 1.127(2) 0.924(1) -0.419(1)
C40 C 1.242(2) 0.972(2) -0.445(2)
O21 O 0.924(1) 1.067(1) -0.412(1)
loop_
_geom_bond_atom_site_label_1
_geom_bond_atom_site_label_2
_geom_bond_site_symmetry_1
_geom_bond_site_symmetry_2
Rb1 O1 1_555 1_555
O1 C2 1_555 1_555
O2 Rb1 1_555 1_555
O3 Rb1 1_555 1_555
O4 Rb1 1_555 1_555
O5 Rb1 1_555 1_555
O6 Rb1 1_555 1_555
O7 Rb1 1_555 1_555
O8 Rb1 1_555 1_555
O9 Rb1 1_555 1_555
O10 Rb1 1_555 1_555
O11 N4 1_555 1_555
O12 N4 1_555 1_555
N1 C17 1_555 1_555
N2 C17 1_555 1_555
N3 C21 1_555 1_555
N4 C20 1_555 1_555
C1 O6 1_555 1_555
C2 C4 1_555 1_555
C3 O7 1_555 1_555
C4 O2 1_555 1_555
C5 O7 1_555 1_555
C6 O2 1_555 1_555
C7 O8 1_555 1_555
C8 O3 1_555 1_555
C9 O8 1_555 1_555
C10 O3 1_555 1_555
C11 O9 1_555 1_555
C12 O4 1_555 1_555
C13 O9 1_555 1_555
C14 O4 1_555 1_555
C15 O10 1_555 1_555
C16 O5 1_555 1_555
C17 C18 1_555 1_555
C18 C19 1_555 1_555
C19 C20 1_555 1_555
C20 C21 1_555 1_555
C21 N1 1_555 1_555
C22 N2 1_555 1_555
C23 C22 1_555 1_555
C24 C23 1_555 1_555
C25 O1 1_555 1_555
C26 O5 1_555 1_555
C27 C22 1_555 1_555
C28 N3 1_555 1_555
C29 C28 1_555 1_555
C30 O6 1_555 1_555
C31 O10 1_555 1_555
C32 C31 1_555 1_555
C33 C28 1_555 1_555
O13 C34 1_555 1_555
O14 N5 1_555 1_555
O15 N5 1_555 1_555
O16 N6 1_555 1_555
O17 N6 1_555 1_555
O18 N7 1_555 1_555
O19 N7 1_555 1_555
N5 C35 1_555 1_555
N6 C37 1_555 1_555
N7 C39 1_555 1_555
C34 C35 1_555 1_555
C35 C36 1_555 1_555
C36 C37 1_555 1_555
C37 C38 1_555 1_555
C38 C39 1_555 1_555
C39 C34 1_555 1_555
O20 C40 1_555 1_555
C1 C3 1_555 1_555
C5 C7 1_555 1_555
C6 C8 1_555 1_555
C9 C11 1_555 1_555
C10 C12 1_555 1_555
C13 C15 1_555 1_555
C14 C16 1_555 1_555
C24 C25 1_555 1_555
C25 C26 1_555 1_555
C26 C27 1_555 1_555
C29 C30 1_555 1_555
C30 C31 1_555 1_555
C32 C33 1_555 1_555

#END
