
#######################################################################
#
#                 Cambridge Crystallographic Data Centre
#                                CCDC 
#
#######################################################################
#
# If this CIF has been generated from an entry in the Cambridge 
# Structural Database, then it will include bibliographic, chemical, 
# crystal, experimental, refinement or atomic coordinate data resulting 
# from the CCDC's data processing and validation procedures.
#
#######################################################################

data_YISXUU
_chemical_formula_moiety         'C18 H21 Br1 O8'
_chemical_name_systematic        
'Trimethyl 2-bromo-1-methyl-10-oxo-1,2,6,7,8,8a-hexahydro-5H-4a,2-(epoxymethano)naphthalene-1,5,5-tricarboxylate'
_symmetry_cell_setting           monoclinic
_symmetry_space_group_name_H-M   'P 21/c'
_symmetry_Int_Tables_number      14
_space_group_name_Hall           '-P 2ybc'
loop_
_symmetry_equiv_pos_site_id
_symmetry_equiv_pos_as_xyz
1 x,y,z
2 -x,1/2+y,1/2-z
3 -x,-y,-z
4 x,1/2-y,1/2+z
_cell_length_a                   6.6117(3)
_cell_length_b                   19.4403(16)
_cell_length_c                   14.6195(13)
_cell_angle_alpha                90
_cell_angle_beta                 101.003(3)
_cell_angle_gamma                90
_cell_volume                     1844.55
_exptl_crystal_colour            colorless
_chemical_melting_point          '156-170 deg.C'
_cell_formula_units_Z            4
_exptl_crystal_recrystallization_method dichloromethane/hexanes
loop_
_atom_site_label
_atom_site_type_symbol
_atom_site_fract_x
_atom_site_fract_y
_atom_site_fract_z
Br1 Br 0.22485(4) 0.684729(15) 0.00713(2)
O1 O 0.0184(3) 0.68926(11) 0.19245(14)
O2 O 0.2607(3) 0.67193(10) 0.31957(14)
O3 O 0.5675(3) 0.79041(10) 0.01517(14)
O4 O 0.5019(3) 0.85857(9) 0.12753(13)
O5 O 0.5955(3) 1.01711(11) 0.15675(16)
O6 O 0.2525(3) 1.00331(9) 0.12125(15)
O7 O 0.1630(3) 0.91721(9) 0.33477(14)
O8 O 0.3101(3) 1.02118(10) 0.33400(15)
C1 C 0.2879(4) 0.75887(13) 0.09693(19)
C2 C 0.1050(4) 0.80645(13) 0.09438(18)
H1 H -0.0275 0.7976 0.0580
C3 C 0.1473(4) 0.86084(14) 0.14712(19)
H2 H 0.0474 0.8948 0.1530
C4 C 0.3680(4) 0.86505(13) 0.19780(19)
C5 C 0.4156(4) 0.80115(12) 0.26184(19)
H3 H 0.3174 0.8021 0.3060
C6 C 0.3644(4) 0.73434(13) 0.19969(19)
C7 C 0.5477(4) 0.68430(15) 0.2057(2)
H4 H 0.6014 0.6728 0.2712
H5 H 0.6566 0.7061 0.1788
H6 H 0.5016 0.6422 0.1711
C8 C 0.1915(4) 0.69630(13) 0.2347(2)
C9 C 0.1088(4) 0.63676(15) 0.3626(2)
H7 H 0.0033 0.6696 0.3732
H8 H 0.1766 0.6170 0.4222
H9 H 0.0441 0.6000 0.3213
C10 C 0.4658(4) 0.80211(13) 0.07279(19)
C11 C 0.4347(4) 0.93497(13) 0.24529(19)
C12 C 0.6527(4) 0.93027(15) 0.3073(2)
H10 H 0.7564 0.9256 0.2670
H11 H 0.6822 0.9734 0.3435
C13 C 0.6723(4) 0.87029(14) 0.3736(2)
H12 H 0.5714 0.8754 0.4152
H13 H 0.8121 0.8700 0.4128
C14 C 0.6345(4) 0.80295(13) 0.32112(19)
H14 H 0.6520 0.7643 0.3660
H15 H 0.7367 0.7974 0.2802
C15 C 0.4393(5) 0.99042(14) 0.1703(2)
C16 C 0.2494(5) 1.05246(15) 0.0463(2)
H16 H 0.3154 1.0953 0.0717
H17 H 0.1065 1.0618 0.0164
H18 H 0.3242 1.0334 0.0004
C17 C 0.2832(4) 0.95529(14) 0.3078(2)
C18 C 0.1813(5) 1.04529(15) 0.3980(2)
H19 H 0.0358 1.0399 0.3690
H20 H 0.2106 1.0939 0.4124
H21 H 0.2110 1.0183 0.4556
loop_
_geom_bond_atom_site_label_1
_geom_bond_atom_site_label_2
_geom_bond_site_symmetry_1
_geom_bond_site_symmetry_2
Br1 C1 1_555 1_555
O1 C8 1_555 1_555
O2 C8 1_555 1_555
O3 C10 1_555 1_555
O4 C4 1_555 1_555
O5 C15 1_555 1_555
O6 C15 1_555 1_555
O7 C17 1_555 1_555
O8 C17 1_555 1_555
C1 C2 1_555 1_555
C2 H1 1_555 1_555
C3 C2 1_555 1_555
H2 C3 1_555 1_555
C4 C3 1_555 1_555
C5 C4 1_555 1_555
H3 C5 1_555 1_555
C6 C1 1_555 1_555
C7 C6 1_555 1_555
H4 C7 1_555 1_555
H5 C7 1_555 1_555
H6 C7 1_555 1_555
C8 C6 1_555 1_555
C9 O2 1_555 1_555
H7 C9 1_555 1_555
H8 C9 1_555 1_555
H9 C9 1_555 1_555
C10 O4 1_555 1_555
C11 C4 1_555 1_555
C12 C11 1_555 1_555
H10 C12 1_555 1_555
H11 C12 1_555 1_555
C13 C12 1_555 1_555
H12 C13 1_555 1_555
H13 C13 1_555 1_555
C14 C5 1_555 1_555
H14 C14 1_555 1_555
H15 C14 1_555 1_555
C15 C11 1_555 1_555
C16 O6 1_555 1_555
H16 C16 1_555 1_555
H17 C16 1_555 1_555
H18 C16 1_555 1_555
C17 C11 1_555 1_555
C18 O8 1_555 1_555
H19 C18 1_555 1_555
H20 C18 1_555 1_555
H21 C18 1_555 1_555
C1 C10 1_555 1_555
C5 C6 1_555 1_555
C13 C14 1_555 1_555

#END
