
#######################################################################
#
#                 Cambridge Crystallographic Data Centre
#                                CCDC 
#
#######################################################################
#
# If this CIF has been generated from an entry in the Cambridge 
# Structural Database, then it will include bibliographic, chemical, 
# crystal, experimental, refinement or atomic coordinate data resulting 
# from the CCDC's data processing and validation procedures.
#
#######################################################################

data_YISXED
_chemical_formula_moiety         'C12 H9 Cl2 N3 O2'
_chemical_name_systematic        
5-Acetyl-1-(2,4-dichlorobenzoyl)methyl-1H-1,2,4-triazole
_symmetry_cell_setting           monoclinic
_symmetry_space_group_name_H-M   'P 1 1 21/n'
_symmetry_Int_Tables_number      14
_space_group_name_Hall           '-P 2n'
loop_
_symmetry_equiv_pos_site_id
_symmetry_equiv_pos_as_xyz
1 x,y,z
2 1/2-x,1/2-y,1/2+z
3 -x,-y,-z
4 1/2+x,1/2+y,1/2-z
_cell_length_a                   7.519(3)
_cell_length_b                   8.395(3)
_cell_length_c                   21.048(5)
_cell_angle_alpha                90
_cell_angle_beta                 90
_cell_angle_gamma                97.88(3)
_cell_volume                     1316.05
_chemical_melting_point          95-96deg.C
_cell_formula_units_Z            4
loop_
_atom_site_label
_atom_site_type_symbol
_atom_site_fract_x
_atom_site_fract_y
_atom_site_fract_z
Cl1 Cl 0.2416(6) 0.2875(7) 0.3667(3)
Cl2 Cl 0.8058(7) 0.0958(7) 0.4876(2)
O1 O 0.4365(16) 0.3000(15) 0.2174(6)
O2 O 0.0018(18) 0.1724(19) 0.2187(6)
N1 N 0.2750(21) 0.0521(21) 0.1444(8)
N2 N 0.3840(19) 0.0180(21) 0.0977(8)
N3 N 0.1442(23) 0.1324(22) 0.0600(3)
C1 C 0.5020(20) 0.1463(20) 0.3075(7)
C2 C 0.4424(19) 0.2012(21) 0.3651(7)
C3 C 0.5289(21) 0.1838(21) 0.4207(7)
C4 C 0.6878(20) 0.1133(21) 0.4190(8)
C5 C 0.7523(21) 0.0597(21) 0.3634(7)
C6 C 0.6554(22) 0.0703(23) 0.3074(7)
C7 C 0.4161(22) 0.1733(22) 0.2439(8)
C8 C 0.3212(28) 0.0153(25) 0.2110(8)
C9 C 0.1337(19) 0.1184(21) 0.1236(7)
C10 C 0.3014(23) 0.0712(26) 0.0437(9)
C11 C -0.0066(26) 0.1736(25) 0.1643(8)
C12 C -0.1463(25) 0.2364(25) 0.1283(8)
loop_
_geom_bond_atom_site_label_1
_geom_bond_atom_site_label_2
_geom_bond_site_symmetry_1
_geom_bond_site_symmetry_2
Cl1 C2 1_555 1_555
Cl2 C4 1_555 1_555
O1 C7 1_555 1_555
O2 C11 1_555 1_555
N1 N2 1_555 1_555
N2 C10 1_555 1_555
N3 C9 1_555 1_555
C1 C2 1_555 1_555
C2 C3 1_555 1_555
C3 C4 1_555 1_555
C4 C5 1_555 1_555
C5 C6 1_555 1_555
C6 C1 1_555 1_555
C7 C1 1_555 1_555
C8 N1 1_555 1_555
C9 N1 1_555 1_555
C10 N3 1_555 1_555
C11 C9 1_555 1_555
C12 C11 1_555 1_555
C7 C8 1_555 1_555

#END
