
#######################################################################
#
#                 Cambridge Crystallographic Data Centre
#                                CCDC 
#
#######################################################################
#
# If this CIF has been generated from an entry in the Cambridge 
# Structural Database, then it will include bibliographic, chemical, 
# crystal, experimental, refinement or atomic coordinate data resulting 
# from the CCDC's data processing and validation procedures.
#
#######################################################################

data_YISXAZ
_chemical_formula_moiety         'C12 H9 Cl2 N3 O2'
_chemical_name_systematic        
1-(2-Acetyloxy-2-(2,4-dichlorophenyl)ethenyl)-1H-1,2,4-triazole
_symmetry_cell_setting           orthorhombic
_symmetry_space_group_name_H-M   'P 21 21 21'
_symmetry_Int_Tables_number      19
_space_group_name_Hall           'P 2ac 2ab'
loop_
_symmetry_equiv_pos_site_id
_symmetry_equiv_pos_as_xyz
1 x,y,z
2 1/2+x,1/2-y,-z
3 -x,1/2+y,1/2-z
4 1/2-x,-y,1/2+z
_cell_length_a                   11.452(7)
_cell_length_b                   7.462(5)
_cell_length_c                   15.354(8)
_cell_angle_alpha                90
_cell_angle_beta                 90
_cell_angle_gamma                90
_cell_volume                     1312.07
_chemical_melting_point          137-138deg.C
_cell_formula_units_Z            4
loop_
_atom_site_label
_atom_site_type_symbol
_atom_site_fract_x
_atom_site_fract_y
_atom_site_fract_z
Cl1 Cl -0.2853(3) 0.6355(7) -0.3419(2)
Cl2 Cl -0.7276(3) 0.6599(6) -0.2217(3)
O1 O -0.1372(6) 0.7015(10) -0.1862(5)
O2 O -0.1569(8) 0.9089(12) -0.0790(5)
N1 N -0.0712(8) 0.4379(13) -0.0601(6)
N2 N -0.0315(11) 0.2835(18) -0.0236(8)
N3 N 0.1030(12) 0.4709(20) -0.0276(9)
C1 C -0.3455(9) 0.6150(15) -0.1700(7)
C2 C -0.3818(9) 0.6353(18) -0.2540(7)
C3 C -0.5008(10) 0.6504(20) -0.2756(8)
C4 C -0.5775(10) 0.6431(18) -0.2068(9)
C5 C -0.5449(10) 0.6335(21) -0.1222(2)
C6 C -0.4272(9) 0.6155(19) -0.1028(8)
C7 C -0.2218(10) 0.5886(15) -0.1440(22)
C8 C -0.1866(9) 0.4660(17) -0.0900(7)
C9 C 0.0165(9) 0.5580(15) -0.0651(9)
C10 C 0.0796(10) 0.3039(14) -0.0019(7)
C11 C -0.1091(9) 0.8610(16) -0.1444(8)
C12 C -0.0124(10) 0.9546(20) -0.1932(9)
loop_
_geom_bond_atom_site_label_1
_geom_bond_atom_site_label_2
_geom_bond_site_symmetry_1
_geom_bond_site_symmetry_2
Cl1 C2 1_555 1_555
Cl2 C4 1_555 1_555
O1 C7 1_555 1_555
O2 C11 1_555 1_555
N1 N2 1_555 1_555
N2 C10 1_555 1_555
N3 C9 1_555 1_555
C1 C2 1_555 1_555
C2 C3 1_555 1_555
C3 C4 1_555 1_555
C4 C5 1_555 1_555
C5 C6 1_555 1_555
C6 C1 1_555 1_555
C7 C1 1_555 1_555
C8 N1 1_555 1_555
C9 N1 1_555 1_555
C10 N3 1_555 1_555
C11 O1 1_555 1_555
C12 C11 1_555 1_555
C7 C8 1_555 1_555

#END
