
#######################################################################
#
#                 Cambridge Crystallographic Data Centre
#                                CCDC 
#
#######################################################################
#
# If this CIF has been generated from an entry in the Cambridge 
# Structural Database, then it will include bibliographic, chemical, 
# crystal, experimental, refinement or atomic coordinate data resulting 
# from the CCDC's data processing and validation procedures.
#
#######################################################################

data_YISZAE
_chemical_formula_moiety         'C23 H18 O3'
_chemical_name_systematic        
7-hydroxy-7-phenyl-6a,7,12,12a-tetrahydro-6H-benzo[b]naphtho[2,3-d]pyran-6-one
_symmetry_cell_setting           orthorhombic
_symmetry_space_group_name_H-M   'P b c a'
_symmetry_Int_Tables_number      61
_space_group_name_Hall           '-P 2ac 2ab'
loop_
_symmetry_equiv_pos_site_id
_symmetry_equiv_pos_as_xyz
1 x,y,z
2 1/2-x,-y,1/2+z
3 1/2+x,1/2-y,-z
4 -x,1/2+y,1/2-z
5 -x,-y,-z
6 1/2+x,y,1/2-z
7 1/2-x,1/2+y,z
8 x,1/2-y,1/2+z
_cell_length_a                   14.6629(5)
_cell_length_b                   7.5142(2)
_cell_length_c                   30.7557(9)
_cell_angle_alpha                90
_cell_angle_beta                 90
_cell_angle_gamma                90
_cell_volume                     3388.66
_exptl_crystal_colour            colorless
_exptl_crystal_description       block
_cell_formula_units_Z            8
loop_
_atom_site_label
_atom_site_type_symbol
_atom_site_fract_x
_atom_site_fract_y
_atom_site_fract_z
O1 O 0.60173(9) 0.47738(17) 0.71809(4)
O2 O 0.56959(9) 0.32781(16) 0.65886(4)
O3 O 0.45050(8) 0.48819(14) 0.60114(4)
H1 H 0.4663 0.4011 0.6153
C1 C 0.56920(12) 0.4703(2) 0.67662(5)
C2 C 0.53586(11) 0.64424(19) 0.65787(5)
H2 H 0.4799 0.6772 0.6734
C3 C 0.60707(11) 0.7886(2) 0.66689(5)
H3 H 0.5844 0.9034 0.6563
C4 C 0.62069(11) 0.7982(2) 0.71541(5)
C5 C 0.63981(13) 0.9544(3) 0.73789(6)
H4 H 0.6432 1.0620 0.7230
C6 C 0.65393(14) 0.9499(4) 0.78253(7)
H5 H 0.6687 1.0540 0.7973
C7 C 0.64628(15) 0.7924(4) 0.80506(7)
H6 H 0.6545 0.7912 0.8350
C8 C 0.62652(14) 0.6372(4) 0.78353(6)
H7 H 0.6210 0.5305 0.7986
C9 C 0.61494(12) 0.6423(3) 0.73891(5)
C10 C 0.51263(11) 0.63225(19) 0.60895(5)
C11 C 0.60000(11) 0.6107(2) 0.58257(5)
C12 C 0.59444(14) 0.5413(2) 0.54063(5)
H8 H 0.5384 0.5021 0.5302
C13 C 0.67015(15) 0.5297(2) 0.51433(6)
H9 H 0.6651 0.4838 0.4864
C14 C 0.75342(15) 0.5865(2) 0.52964(6)
H10 H 0.8048 0.5793 0.5120
C15 C 0.76046(13) 0.6539(2) 0.57119(5)
H11 H 0.8171 0.6908 0.5815
C16 C 0.68420(11) 0.6680(2) 0.59813(5)
C17 C 0.69626(11) 0.7427(2) 0.64342(5)
H12 H 0.7333 0.8494 0.6416
H13 H 0.7295 0.6567 0.6608
C18 C 0.45994(11) 0.7992(2) 0.59524(5)
C19 C 0.49724(13) 0.9307(2) 0.56917(5)
H14 H 0.5572 0.9199 0.5596
C20 C 0.44635(15) 1.0785(2) 0.55708(6)
H15 H 0.4725 1.1656 0.5396
C21 C 0.35774(14) 1.0970(2) 0.57075(6)
H16 H 0.3239 1.1962 0.5626
C22 C 0.31960(13) 0.9676(2) 0.59654(6)
H17 H 0.2595 0.9791 0.6058
C23 C 0.36978(12) 0.8207(2) 0.60888(6)
H18 H 0.3432 0.7346 0.6265
loop_
_geom_bond_atom_site_label_1
_geom_bond_atom_site_label_2
_geom_bond_site_symmetry_1
_geom_bond_site_symmetry_2
O1 C1 1_555 1_555
O2 C1 1_555 1_555
O3 H1 1_555 1_555
C1 C2 1_555 1_555
C2 H2 1_555 1_555
C3 C2 1_555 1_555
H3 C3 1_555 1_555
C4 C3 1_555 1_555
C5 C4 1_555 1_555
H4 C5 1_555 1_555
C6 C5 1_555 1_555
H5 C6 1_555 1_555
C7 C6 1_555 1_555
H6 C7 1_555 1_555
C8 C7 1_555 1_555
H7 C8 1_555 1_555
C9 O1 1_555 1_555
C10 O3 1_555 1_555
C11 C10 1_555 1_555
C12 C11 1_555 1_555
H8 C12 1_555 1_555
C13 C12 1_555 1_555
H9 C13 1_555 1_555
C14 C13 1_555 1_555
H10 C14 1_555 1_555
C15 C14 1_555 1_555
H11 C15 1_555 1_555
C16 C11 1_555 1_555
C17 C3 1_555 1_555
H12 C17 1_555 1_555
H13 C17 1_555 1_555
C18 C10 1_555 1_555
C19 C18 1_555 1_555
H14 C19 1_555 1_555
C20 C19 1_555 1_555
H15 C20 1_555 1_555
C21 C20 1_555 1_555
H16 C21 1_555 1_555
C22 C21 1_555 1_555
H17 C22 1_555 1_555
C23 C18 1_555 1_555
H18 C23 1_555 1_555
C2 C10 1_555 1_555
C4 C9 1_555 1_555
C8 C9 1_555 1_555
C15 C16 1_555 1_555
C16 C17 1_555 1_555
C22 C23 1_555 1_555

#END
