
#######################################################################
#
#                 Cambridge Crystallographic Data Centre
#                                CCDC 
#
#######################################################################
#
# If this CIF has been generated from an entry in the Cambridge 
# Structural Database, then it will include bibliographic, chemical, 
# crystal, experimental, refinement or atomic coordinate data resulting 
# from the CCDC's data processing and validation procedures.
#
#######################################################################

data_YITCOW
_chemical_formula_moiety         'C23 H18 O3'
_chemical_name_systematic        
11-hydroxy-11-phenyl-5a,6,11,11a-tetrahydro-12H-benzo[b]xanthen-12-one
_symmetry_cell_setting           orthorhombic
_symmetry_space_group_name_H-M   'P 21 21 21'
_symmetry_Int_Tables_number      19
_space_group_name_Hall           'P 2ac 2ab'
loop_
_symmetry_equiv_pos_site_id
_symmetry_equiv_pos_as_xyz
1 x,y,z
2 1/2-x,-y,1/2+z
3 -x,1/2+y,1/2-z
4 1/2+x,1/2-y,-z
_cell_length_a                   10.00942(16)
_cell_length_b                   11.49917(17)
_cell_length_c                   14.7105(2)
_cell_angle_alpha                90
_cell_angle_beta                 90
_cell_angle_gamma                90
_cell_volume                     1693.18
_exptl_crystal_colour            colorless
_exptl_crystal_description       Block
_cell_formula_units_Z            4
loop_
_atom_site_label
_atom_site_type_symbol
_atom_site_fract_x
_atom_site_fract_y
_atom_site_fract_z
O1 O 0.70473(15) 0.75496(13) 1.01890(10)
O2 O 0.95552(17) 0.66482(14) 0.81018(11)
O3 O 0.96308(14) 0.44692(12) 0.87283(11)
H1 H 0.9921 0.5034 0.8452
C1 C 0.70179(19) 0.63896(16) 0.98031(13)
H2 H 0.6751 0.5847 1.0283
C2 C 0.83956(17) 0.60237(16) 0.94596(12)
H3 H 0.9013 0.6054 0.9976
C3 C 0.88766(18) 0.69072(17) 0.87578(13)
C4 C 0.85127(19) 0.81215(17) 0.89597(13)
C5 C 0.9078(2) 0.9029(2) 0.84605(16)
H4 H 0.9633 0.8862 0.7971
C6 C 0.8821(3) 1.0172(2) 0.8687(2)
H5 H 0.9192 1.0774 0.8348
C7 C 0.8005(2) 1.04154(19) 0.94242(18)
H6 H 0.7849 1.1185 0.9586
C8 C 0.7420(2) 0.95364(19) 0.99211(15)
H7 H 0.6869 0.9711 1.0411
C9 C 0.76618(18) 0.83807(17) 0.96819(13)
C10 C 0.83609(17) 0.47488(16) 0.91118(12)
C11 C 0.72553(19) 0.46012(18) 0.84084(12)
C12 C 0.7360(2) 0.3717(2) 0.77677(15)
H8 H 0.8101 0.3230 0.7773
C13 C 0.6368(3) 0.3556(3) 0.71210(15)
H9 H 0.6456 0.2974 0.6686
C14 C 0.5255(3) 0.4259(2) 0.71246(17)
H10 H 0.4586 0.4150 0.6694
C15 C 0.5133(3) 0.5117(2) 0.77625(19)
H11 H 0.4369 0.5578 0.7766
C16 C 0.6129(2) 0.53182(18) 0.84087(14)
C17 C 0.5976(2) 0.63330(19) 0.90518(17)
H12 H 0.5097 0.6293 0.9329
H13 H 0.6017 0.7048 0.8703
C18 C 0.81621(19) 0.39186(15) 0.99203(12)
C19 C 0.9275(2) 0.3523(2) 1.03933(15)
H14 H 1.0124 0.3753 1.0210
C20 C 0.9137(3) 0.2792(2) 1.11323(17)
H15 H 0.9891 0.2524 1.1436
C21 C 0.7879(3) 0.2457(2) 1.14222(15)
H16 H 0.7785 0.1971 1.1923
C22 C 0.6773(2) 0.2847(2) 1.09655(16)
H17 H 0.5926 0.2627 1.1161
C23 C 0.6907(2) 0.35689(18) 1.02116(15)
H18 H 0.6151 0.3819 0.9901
loop_
_geom_bond_atom_site_label_1
_geom_bond_atom_site_label_2
_geom_bond_site_symmetry_1
_geom_bond_site_symmetry_2
O1 C1 1_555 1_555
O2 C3 1_555 1_555
O3 H1 1_555 1_555
C1 H2 1_555 1_555
C2 C1 1_555 1_555
H3 C2 1_555 1_555
C3 C2 1_555 1_555
C4 C3 1_555 1_555
C5 C4 1_555 1_555
H4 C5 1_555 1_555
C6 C5 1_555 1_555
H5 C6 1_555 1_555
C7 C6 1_555 1_555
H6 C7 1_555 1_555
C8 C7 1_555 1_555
H7 C8 1_555 1_555
C9 O1 1_555 1_555
C10 O3 1_555 1_555
C11 C10 1_555 1_555
C12 C11 1_555 1_555
H8 C12 1_555 1_555
C13 C12 1_555 1_555
H9 C13 1_555 1_555
C14 C13 1_555 1_555
H10 C14 1_555 1_555
C15 C14 1_555 1_555
H11 C15 1_555 1_555
C16 C11 1_555 1_555
C17 C1 1_555 1_555
H12 C17 1_555 1_555
H13 C17 1_555 1_555
C18 C10 1_555 1_555
C19 C18 1_555 1_555
H14 C19 1_555 1_555
C20 C19 1_555 1_555
H15 C20 1_555 1_555
C21 C20 1_555 1_555
H16 C21 1_555 1_555
C22 C21 1_555 1_555
H17 C22 1_555 1_555
C23 C18 1_555 1_555
H18 C23 1_555 1_555
C2 C10 1_555 1_555
C4 C9 1_555 1_555
C8 C9 1_555 1_555
C15 C16 1_555 1_555
C16 C17 1_555 1_555
C22 C23 1_555 1_555

#END
