
#######################################################################
#
#                 Cambridge Crystallographic Data Centre
#                                CCDC 
#
#######################################################################
#
# If this CIF has been generated from an entry in the Cambridge 
# Structural Database, then it will include bibliographic, chemical, 
# crystal, experimental, refinement or atomic coordinate data resulting 
# from the CCDC's data processing and validation procedures.
#
#######################################################################

data_YITDOX
_chemical_formula_moiety         'C25 H25 N1 O6'
_chemical_name_systematic        
'ethyl 1-cyano-4-(2-ethoxy-2-oxoethyl)-4-hydroxy-2-methyl-3-(naphthalene-1-carbonyl)cyclopent-2-ene-1-carboxylate'
_symmetry_cell_setting           orthorhombic
_symmetry_space_group_name_H-M   'P b c a'
_symmetry_Int_Tables_number      61
_space_group_name_Hall           '-P 2ac 2ab'
loop_
_symmetry_equiv_pos_site_id
_symmetry_equiv_pos_as_xyz
1 x,y,z
2 1/2-x,-y,1/2+z
3 -x,1/2+y,1/2-z
4 1/2+x,1/2-y,-z
5 -x,-y,-z
6 1/2+x,y,1/2-z
7 x,1/2-y,1/2+z
8 1/2-x,1/2+y,z
_cell_length_a                   10.932(3)
_cell_length_b                   15.037(4)
_cell_length_c                   28.078(7)
_cell_angle_alpha                90
_cell_angle_beta                 90
_cell_angle_gamma                90
_cell_volume                     4615.59
_exptl_crystal_colour            colorless
_exptl_crystal_description       plate
_cell_formula_units_Z            8
loop_
_atom_site_label
_atom_site_type_symbol
_atom_site_fract_x
_atom_site_fract_y
_atom_site_fract_z
N1 N 0.0908(3) 0.17454(18) 0.47475(10)
O1 O 0.36805(17) -0.05168(13) 0.35016(8)
O2 O 0.13678(15) 0.05192(12) 0.35551(7)
H1 H 0.164591 0.001294 0.354857
O3 O 0.36385(18) 0.34655(13) 0.38503(7)
O4 O 0.2683(2) 0.34780(12) 0.45538(7)
O5 O 0.3159(3) 0.24184(19) 0.25587(10)
O6 O 0.4482(2) 0.1300(2) 0.25899(9)
C1 C 0.5578(2) 0.02074(18) 0.36457(8)
C2 C 0.6153(2) 0.0971(2) 0.34945(9)
H2 H 0.569022 0.147114 0.342038
C3 C 0.7441(3) 0.1003(3) 0.34507(10)
H3 H 0.782257 0.151918 0.334513
C4 C 0.8122(3) 0.0271(3) 0.35645(11)
H4 H 0.896504 0.028804 0.352195
C5 C 0.7580(2) -0.0509(2) 0.37444(10)
C6 C 0.8282(3) -0.1259(3) 0.38938(14)
H5 H 0.912680 -0.125077 0.385410
C7 C 0.7744(4) -0.1983(3) 0.40927(17)
H6 H 0.822332 -0.246264 0.418763
C8 C 0.6477(3) -0.2014(2) 0.41559(14)
H7 H 0.611701 -0.250446 0.430105
C9 C 0.5771(3) -0.13257(19) 0.40049(10)
H8 H 0.492686 -0.136220 0.404192
C10 C 0.6277(2) -0.05553(18) 0.37932(8)
C11 C 0.4219(2) 0.01691(18) 0.36118(9)
C12 C 0.3462(2) 0.09779(16) 0.36976(9)
C13 C 0.2298(2) 0.11400(17) 0.34075(9)
C14 C 0.1891(2) 0.20556(17) 0.35744(9)
H9 H 0.100540 0.208724 0.359044
H10 H 0.218058 0.251138 0.335760
C15 C 0.2457(2) 0.21849(17) 0.40754(8)
C16 C 0.3528(2) 0.15177(16) 0.40774(9)
C17 C 0.4382(3) 0.15066(19) 0.44949(9)
H11 H 0.392219 0.141721 0.478226
H12 H 0.480877 0.206341 0.451243
H13 H 0.496091 0.103187 0.445734
C18 C 0.1583(2) 0.19474(18) 0.44587(10)
C19 C 0.2986(2) 0.31228(18) 0.41431(9)
C20 C 0.3238(4) 0.4339(2) 0.46674(11)
H14 H 0.412261 0.429127 0.466153
H15 H 0.299190 0.478094 0.443451
C21 C 0.2830(5) 0.4600(3) 0.51367(13)
H16 H 0.195422 0.464964 0.513823
H17 H 0.318514 0.516273 0.521898
H18 H 0.307828 0.415922 0.536450
C22 C 0.2443(2) 0.1058(2) 0.28613(9)
H19 H 0.256885 0.043755 0.278114
H20 H 0.168873 0.124847 0.271078
C23 C 0.3480(3) 0.1592(2) 0.26600(10)
C24 C 0.4089(6) 0.2964(3) 0.2345(2)
H21 H 0.485214 0.263603 0.233686
H22 H 0.385771 0.309798 0.201942
C25 C 0.4273(9) 0.3784(4) 0.2600(2)
H23 H 0.489891 0.412632 0.244539
H24 H 0.352388 0.411782 0.260373
H25 H 0.451806 0.365599 0.292109
loop_
_geom_bond_atom_site_label_1
_geom_bond_atom_site_label_2
_geom_bond_site_symmetry_1
_geom_bond_site_symmetry_2
N1 C18 1_555 1_555
O1 C11 1_555 1_555
O2 H1 1_555 1_555
O3 C19 1_555 1_555
O4 C19 1_555 1_555
O5 C23 1_555 1_555
O6 C23 1_555 1_555
C1 C2 1_555 1_555
C2 H2 1_555 1_555
C3 C2 1_555 1_555
H3 C3 1_555 1_555
C4 C3 1_555 1_555
H4 C4 1_555 1_555
C5 C4 1_555 1_555
C6 C5 1_555 1_555
H5 C6 1_555 1_555
C7 C6 1_555 1_555
H6 C7 1_555 1_555
C8 C7 1_555 1_555
H7 C8 1_555 1_555
C9 C8 1_555 1_555
H8 C9 1_555 1_555
C10 C1 1_555 1_555
C11 C1 1_555 1_555
C12 C11 1_555 1_555
C13 O2 1_555 1_555
C14 C13 1_555 1_555
H9 C14 1_555 1_555
H10 C14 1_555 1_555
C15 C14 1_555 1_555
C16 C12 1_555 1_555
C17 C16 1_555 1_555
H11 C17 1_555 1_555
H12 C17 1_555 1_555
H13 C17 1_555 1_555
C18 C15 1_555 1_555
C19 C15 1_555 1_555
C20 O4 1_555 1_555
H14 C20 1_555 1_555
H15 C20 1_555 1_555
C21 C20 1_555 1_555
H16 C21 1_555 1_555
H17 C21 1_555 1_555
H18 C21 1_555 1_555
C22 C13 1_555 1_555
H19 C22 1_555 1_555
H20 C22 1_555 1_555
C23 C22 1_555 1_555
C24 O5 1_555 1_555
H21 C24 1_555 1_555
H22 C24 1_555 1_555
C25 C24 1_555 1_555
H23 C25 1_555 1_555
H24 C25 1_555 1_555
H25 C25 1_555 1_555
C5 C10 1_555 1_555
C9 C10 1_555 1_555
C12 C13 1_555 1_555
C15 C16 1_555 1_555

#END
