
#######################################################################
#
#                 Cambridge Crystallographic Data Centre
#                                CCDC 
#
#######################################################################
#
# If this CIF has been generated from an entry in the Cambridge 
# Structural Database, then it will include bibliographic, chemical, 
# crystal, experimental, refinement or atomic coordinate data resulting 
# from the CCDC's data processing and validation procedures.
#
#######################################################################

data_YITFAJ
_chemical_formula_moiety         'C18 H16 O8,2(C3 H7 N1 O1)'
_chemical_name_systematic        
'bis(5-Carboxy-1,3-phenylene)-14-crown-4 dimethylformamide solvate'
_symmetry_cell_setting           monoclinic
_symmetry_space_group_name_H-M   'P 21/n'
_symmetry_Int_Tables_number      14
_space_group_name_Hall           '-P 2yn'
loop_
_symmetry_equiv_pos_site_id
_symmetry_equiv_pos_as_xyz
1 x,y,z
2 1/2-x,1/2+y,1/2-z
3 -x,-y,-z
4 1/2+x,1/2-y,1/2+z
_cell_length_a                   9.0561(12)
_cell_length_b                   9.7381(13)
_cell_length_c                   13.7349(19)
_cell_angle_alpha                90.00
_cell_angle_beta                 106.580(2)
_cell_angle_gamma                90.00
_cell_volume                     1160.91
_chemical_melting_point          390deg.C(dec)
_cell_formula_units_Z            2
loop_
_atom_site_label
_atom_site_type_symbol
_atom_site_fract_x
_atom_site_fract_y
_atom_site_fract_z
O1 O 0.3380(4) 0.4419(4) -0.0907(3)
O2 O 0.4587(4) 0.6035(4) -0.1535(3)
O3 O 0.0050(4) 0.7034(4) 0.0772(3)
O4 O 0.3097(4) 1.0457(4) -0.0379(3)
C1 C 0.2942(6) 0.6753(5) -0.0564(4)
C2 C 0.1836(6) 0.6412(5) -0.0094(4)
H1 H 0.1556 0.5480 -0.0046
C3 C 0.1138(6) 0.7446(6) 0.0309(4)
C4 C 0.1516(6) 0.8810(5) 0.0215(4)
H2 H 0.1020 0.9516 0.0481
C5 C 0.2622(6) 0.9140(5) -0.0270(4)
C6 C 0.3329(6) 0.8105(6) -0.0666(4)
H3 H 0.4075 0.8325 -0.1007
C7 C -0.0922(6) 0.8046(5) 0.1048(4)
H4 H -0.0313 0.8884 0.1300
H5 H -0.1311 0.7683 0.1601
C8 C 0.2266(6) 1.1596(5) -0.0142(4)
H6 H 0.2960 1.2399 0.0048
H7 H 0.1883 1.1361 0.0445
C9 C 0.3648(6) 0.5621(6) -0.1014(4)
H15 H 0.494(8) 0.523(8) -0.182(5)
O1B O -0.3380(4) 1.5581(4) 0.0907(3)
O2B O -0.4587(4) 1.3965(4) 0.1535(3)
O3B O -0.0050(4) 1.2966(4) -0.0772(3)
O4B O -0.3097(4) 0.9543(4) 0.0379(3)
C1B C -0.2942(6) 1.3247(5) 0.0564(4)
C2B C -0.1836(6) 1.3588(5) 0.0094(4)
H1B H -0.1556 1.4520 0.0046
C3B C -0.1138(6) 1.2554(6) -0.0309(4)
C4B C -0.1516(6) 1.1190(5) -0.0215(4)
H2B H -0.1020 1.0484 -0.0481
C5B C -0.2622(6) 1.0860(5) 0.0270(4)
C6B C -0.3329(6) 1.1895(6) 0.0666(4)
H3B H -0.4075 1.1675 0.1007
C7B C 0.0922(6) 1.1954(5) -0.1048(4)
H4B H 0.0313 1.1116 -0.1300
H5B H 0.1311 1.2317 -0.1601
C8B C -0.2266(6) 0.8404(5) 0.0142(4)
H6B H -0.2960 0.7601 -0.0048
H7B H -0.1883 0.8639 -0.0445
C9B C -0.3648(6) 1.4379(6) 0.1014(4)
H15B H -0.494(8) 1.477(8) 0.182(5)
O5 O 0.5619(4) 0.3993(4) -0.2383(3)
N1 N 0.5689(5) 0.1665(4) -0.2456(3)
C10 C 0.5164(6) 0.2833(6) -0.2214(4)
H8 H 0.4375 0.2791 -0.1884
C11 C 0.6925(7) 0.1619(6) -0.2924(4)
H9 H 0.7265 0.2556 -0.3007
H10 H 0.6561 0.1176 -0.3591
H11 H 0.7789 0.1093 -0.2492
C12 C 0.5052(6) 0.0358(6) -0.2268(4)
H12 H 0.4230 0.0517 -0.1947
H13 H 0.5865 -0.0199 -0.1817
H14 H 0.4631 -0.0126 -0.2913
loop_
_geom_bond_atom_site_label_1
_geom_bond_atom_site_label_2
_geom_bond_site_symmetry_1
_geom_bond_site_symmetry_2
O1 C9 1_555 1_555
O2 C9 1_555 1_555
O3 C3 1_555 1_555
O4 C5 1_555 1_555
O5 C10 1_555 1_555
N1 C10 1_555 1_555
C1 C2 1_555 1_555
C2 H1 1_555 1_555
C3 C2 1_555 1_555
C4 C3 1_555 1_555
H2 C4 1_555 1_555
C5 C4 1_555 1_555
C6 C1 1_555 1_555
H3 C6 1_555 1_555
C7 O3 1_555 1_555
H4 C7 1_555 1_555
H5 C7 1_555 1_555
C8 O4 1_555 1_555
H6 C8 1_555 1_555
H7 C8 1_555 1_555
C9 C1 1_555 1_555
C10 H8 1_555 1_555
C11 N1 1_555 1_555
H9 C11 1_555 1_555
H10 C11 1_555 1_555
H11 C11 1_555 1_555
C12 N1 1_555 1_555
H12 C12 1_555 1_555
H13 C12 1_555 1_555
H14 C12 1_555 1_555
H15 O2 1_555 1_555
O1B C9B 1_555 1_555
O2B C9B 1_555 1_555
O3B C3B 1_555 1_555
O4B C5B 1_555 1_555
C1B C2B 1_555 1_555
C2B H1B 1_555 1_555
C3B C2B 1_555 1_555
C4B C3B 1_555 1_555
H2B C4B 1_555 1_555
C5B C4B 1_555 1_555
C6B C1B 1_555 1_555
H3B C6B 1_555 1_555
C7B C8 1_555 1_555
H4B C7B 1_555 1_555
H5B C7B 1_555 1_555
C8B C7 1_555 1_555
H6B C8B 1_555 1_555
H7B C8B 1_555 1_555
C9B C1B 1_555 1_555
H15B O2B 1_555 1_555
C5 C6 1_555 1_555
O3B C7B 1_555 1_555
O4B C8B 1_555 1_555
C5B C6B 1_555 1_555

#END
