
#######################################################################
#
#                 Cambridge Crystallographic Data Centre
#                                CCDC 
#
#######################################################################
#
# If this CIF has been generated from an entry in the Cambridge 
# Structural Database, then it will include bibliographic, chemical, 
# crystal, experimental, refinement or atomic coordinate data resulting 
# from the CCDC's data processing and validation procedures.
#
#######################################################################

data_YITGAJ
_chemical_formula_moiety         'C1 H3 N1 O1,H4 N1 1+,H4 B5 O10 1-'
_chemical_name_systematic        
'Ammonium tetrahydroxypentaborate formamide solvate'
_symmetry_cell_setting           triclinic
_symmetry_space_group_name_H-M   'P -1'
_symmetry_Int_Tables_number      2
_space_group_name_Hall           '-P 1'
loop_
_symmetry_equiv_pos_site_id
_symmetry_equiv_pos_as_xyz
1 x,y,z
2 -x,-y,-z
_cell_length_a                   8.489
_cell_length_b                   8.854
_cell_length_c                   9.113
_cell_angle_alpha                84.38
_cell_angle_beta                 64.27
_cell_angle_gamma                72.16
_cell_volume                     586.874
_exptl_crystal_colour            colorless
_cell_formula_units_Z            2
loop_
_atom_site_label
_atom_site_type_symbol
_atom_site_fract_x
_atom_site_fract_y
_atom_site_fract_z
O1 O 0.1481(1) 0.8490(1) 0.3441(1)
O2 O 0.3218(2) 0.6480(1) 0.4568(1)
O3 O 0.4014(1) 0.6349(1) 0.1710(1)
O4 O 0.1358(1) 0.7418(1) 0.1183(1)
O5 O 0.2107(1) 0.9065(1) -0.1125(1)
O6 O 0.3444(2) 0.8960(1) 0.0719(1)
O7 O 0.0755(2) 0.8517(1) 0.6270(1)
O8 O 0.5911(2) 0.4575(2) 0.2729(1)
O9 O 0.0127(2) 0.7516(1) -0.0708(1)
O10 O 0.4208(2) 1.0469(1) -0.1669(1)
B1 B 0.2564(2) 0.7801(2) 0.1762(2)
B2 B 0.1782(2) 0.7844(2) 0.4743(2)
B3 B 0.4367(2) 0.5786(2) 0.3009(2)
B4 B 0.1203(2) 0.7997(2) -0.0207(2)
B5 B 0.3255(2) 0.9505(2) -0.0665(2)
H2 H 0.003(4) 0.934(4) 0.634(4)
H3 H 0.618(4) 0.435(3) 0.342(3)
H4 H 0.027(3) 0.775(3) -0.157(3)
H5 H 0.494(4) 1.055(3) -0.142(3)
O11 O -0.2256(3) 0.6951(2) 0.6112(2)
N1 N -0.2530(3) 0.8049(3) 0.3877(2)
C1 C -0.3193(3) 0.7651(2) 0.5396(2)
H1 H -0.464(4) 0.811(3) 0.591(3)
H10 H -0.345(5) 0.859(4) 0.351(4)
H11 H -0.119(5) 0.773(4) 0.323(4)
N2 N 0.2384(2) 0.4000(2) 0.0893(2)
H6 H 0.187(3) 0.501(3) 0.103(3)
H7 H 0.175(3) 0.357(3) 0.057(3)
H8 H 0.242(3) 0.360(3) 0.184(3)
H9 H 0.355(4) 0.378(3) 0.011(3)
loop_
_geom_bond_atom_site_label_1
_geom_bond_atom_site_label_2
_geom_bond_site_symmetry_1
_geom_bond_site_symmetry_2
O1 B1 1_555 1_555
O2 B2 1_555 1_555
O3 B1 1_555 1_555
O4 B1 1_555 1_555
O5 B4 1_555 1_555
O6 B1 1_555 1_555
O7 B2 1_555 1_555
O8 B3 1_555 1_555
O9 B4 1_555 1_555
O10 B5 1_555 1_555
O11 C1 1_555 1_555
N1 C1 1_555 1_555
N2 H6 1_555 1_555
C1 H1 1_555 1_555
B2 O1 1_555 1_555
B3 O2 1_555 1_555
B4 O4 1_555 1_555
B5 O5 1_555 1_555
H2 O7 1_555 1_555
H3 O8 1_555 1_555
H4 O9 1_555 1_555
H5 O10 1_555 1_555
H7 N2 1_555 1_555
H8 N2 1_555 1_555
H9 N2 1_555 1_555
H10 N1 1_555 1_555
H11 N1 1_555 1_555
O3 B3 1_555 1_555
O6 B5 1_555 1_555

#END
