
#######################################################################
#
#                 Cambridge Crystallographic Data Centre
#                                CCDC 
#
#######################################################################
#
# If this CIF has been generated from an entry in the Cambridge 
# Structural Database, then it will include bibliographic, chemical, 
# crystal, experimental, refinement or atomic coordinate data resulting 
# from the CCDC's data processing and validation procedures.
#
#######################################################################

data_YITGOZ
_chemical_formula_moiety         'C10 H14 B10 F4'
_chemical_name_systematic        
1,2-(2-(Benzene-1,2-diyl)ethyl)-8,9,10,12-tetrafluoro-1,2-dicarba-closo-dodecaborane(6)
_symmetry_cell_setting           orthorhombic
_symmetry_space_group_name_H-M   'P 21 21 21'
_symmetry_Int_Tables_number      19
_space_group_name_Hall           'P 2ac 2ab'
loop_
_symmetry_equiv_pos_site_id
_symmetry_equiv_pos_as_xyz
1 x,y,z
2 1/2-x,-y,1/2+z
3 -x,1/2+y,1/2-z
4 1/2+x,1/2-y,-z
_cell_length_a                   7.1817(16)
_cell_length_b                   8.6876(18)
_cell_length_c                   24.463(5)
_cell_angle_alpha                90
_cell_angle_beta                 90
_cell_angle_gamma                90
_cell_volume                     1526.29
_exptl_crystal_colour            colorless
_exptl_crystal_description       block
_cell_formula_units_Z            4
loop_
_atom_site_label
_atom_site_type_symbol
_atom_site_fract_x
_atom_site_fract_y
_atom_site_fract_z
F1 F 0.3667(4) 0.2856(3) 0.44176(9)
F2 F 0.6721(4) 0.0401(3) 0.40536(10)
F3 F 0.7993(4) 0.1223(2) 0.28125(9)
F4 F 0.3699(4) 0.1625(3) 0.31823(10)
C1 C 0.8365(5) 0.4786(4) 0.38575(13)
C2 C 0.6794(5) 0.5389(4) 0.34035(13)
C3 C 0.9757(5) 0.5960(4) 0.40422(14)
C4 C 1.0789(6) 0.5695(5) 0.45184(16)
H1 H 1.0627 0.4784 0.4713
C5 C 1.2036(6) 0.6773(6) 0.4698(2)
H2 H 1.2719 0.6591 0.5015
C6 C 1.2284(7) 0.8107(6) 0.4418(2)
H3 H 1.3124 0.8839 0.4545
C7 C 1.1291(7) 0.8376(5) 0.3946(2)
H4 H 1.1490 0.9287 0.3755
C8 C 0.9998(6) 0.7323(4) 0.37466(16)
C9 C 0.8947(7) 0.7630(5) 0.32298(17)
H5 H 0.9596 0.7140 0.2929
H6 H 0.8946 0.8730 0.3162
C10 C 0.6961(7) 0.7066(4) 0.32375(16)
H7 H 0.6425 0.7198 0.2876
H8 H 0.6248 0.7692 0.3491
B1 B 0.6121(6) 0.5084(5) 0.40734(16)
H9 H 0.5711 0.5995 0.4362
B2 B 0.7389(7) 0.3464(5) 0.42845(17)
H10 H 0.7795 0.3314 0.4715
B3 B 0.8888(7) 0.2884(5) 0.37417(18)
H11 H 1.0257 0.2361 0.3819
B4 B 0.8504(7) 0.4149(5) 0.31841(17)
H12 H 0.9630 0.4457 0.2899
B5 B 0.4704(7) 0.4544(5) 0.35084(17)
H13 H 0.3357 0.5106 0.3431
B6 B 0.5046(7) 0.3247(5) 0.40666(17)
B7 B 0.6770(8) 0.1881(5) 0.3862(2)
B8 B 0.7448(7) 0.2348(5) 0.31780(19)
B9 B 0.6169(7) 0.3972(5) 0.29726(17)
H14 H 0.5761 0.4165 0.2545
B10 B 0.5096(8) 0.2553(6) 0.33762(17)
loop_
_geom_bond_atom_site_label_1
_geom_bond_atom_site_label_2
_geom_bond_site_symmetry_1
_geom_bond_site_symmetry_2
F1 B6 1_555 1_555
F2 B7 1_555 1_555
F3 B8 1_555 1_555
F4 B10 1_555 1_555
C1 C2 1_555 1_555
C2 C10 1_555 1_555
C3 C1 1_555 1_555
C4 C3 1_555 1_555
H1 C4 1_555 1_555
C5 C4 1_555 1_555
H2 C5 1_555 1_555
C6 C5 1_555 1_555
H3 C6 1_555 1_555
C7 C6 1_555 1_555
H4 C7 1_555 1_555
C8 C3 1_555 1_555
C9 C8 1_555 1_555
H5 C9 1_555 1_555
H6 C9 1_555 1_555
C10 C9 1_555 1_555
H7 C10 1_555 1_555
H8 C10 1_555 1_555
B1 C1 1_555 1_555
H9 B1 1_555 1_555
B2 C1 1_555 1_555
H10 B2 1_555 1_555
B3 C1 1_555 1_555
H11 B3 1_555 1_555
B4 C1 1_555 1_555
H12 B4 1_555 1_555
B5 C2 1_555 1_555
H13 B5 1_555 1_555
B6 B1 1_555 1_555
B7 B2 1_555 1_555
B8 B3 1_555 1_555
B9 C2 1_555 1_555
H14 B9 1_555 1_555
B10 B5 1_555 1_555
C2 B1 1_555 1_555
C2 B4 1_555 1_555
C7 C8 1_555 1_555
B1 B2 1_555 1_555
B1 B5 1_555 1_555
B2 B3 1_555 1_555
B2 B6 1_555 1_555
B3 B4 1_555 1_555
B3 B7 1_555 1_555
B4 B8 1_555 1_555
B4 B9 1_555 1_555
B5 B6 1_555 1_555
B5 B9 1_555 1_555
B6 B7 1_555 1_555
B6 B10 1_555 1_555
B7 B8 1_555 1_555
B7 B10 1_555 1_555
B8 B9 1_555 1_555
B8 B10 1_555 1_555
B9 B10 1_555 1_555

#END
