
#######################################################################
#
#                 Cambridge Crystallographic Data Centre
#                                CCDC 
#
#######################################################################
#
# If this CIF has been generated from an entry in the Cambridge 
# Structural Database, then it will include bibliographic, chemical, 
# crystal, experimental, refinement or atomic coordinate data resulting 
# from the CCDC's data processing and validation procedures.
#
#######################################################################

data_YITGUF
_chemical_formula_moiety         'C5 H15 B10 F3'
_chemical_name_systematic        
8,9,10-Trifluoro-1,2,12-trimethyl-1,2-dicarba-closo-dodecaborate(6)
_symmetry_cell_setting           triclinic
_symmetry_space_group_name_H-M   'P -1'
_symmetry_Int_Tables_number      2
_space_group_name_Hall           '-P 1'
loop_
_symmetry_equiv_pos_site_id
_symmetry_equiv_pos_as_xyz
1 x,y,z
2 -x,-y,-z
_cell_length_a                   8.1749(7)
_cell_length_b                   12.7530(9)
_cell_length_c                   13.7568(11)
_cell_angle_alpha                110.6000(10)
_cell_angle_beta                 102.586(2)
_cell_angle_gamma                98.7370(10)
_cell_volume                     1268.57
_exptl_crystal_colour            colorless
_exptl_crystal_description       block
_cell_formula_units_Z            4
loop_
_atom_site_label
_atom_site_type_symbol
_atom_site_fract_x
_atom_site_fract_y
_atom_site_fract_z
F1 F 0.2100(2) 0.93644(13) 0.15425(13)
F2 F -0.1222(2) 0.78490(16) 0.17588(15)
F3 F 0.0028(2) 0.72295(16) 0.38526(14)
C1 C 0.2777(3) 0.6379(2) 0.1727(2)
C2 C 0.4293(3) 0.7370(2) 0.2864(2)
C3 C 0.3243(5) 0.5307(3) 0.1052(3)
H1 H 0.2631 0.4643 0.1119
H2 H 0.4467 0.5393 0.1305
H3 H 0.2926 0.5204 0.0304
C4 C 0.6063(4) 0.7147(3) 0.3165(3)
H4 H 0.6215 0.6983 0.3804
H5 H 0.6939 0.7819 0.3306
H6 H 0.6157 0.6498 0.2577
C5 C 0.1618(5) 0.9904(3) 0.4063(2)
H7 H 0.1526 0.9832 0.4722
H8 H 0.0551 1.0009 0.3699
H9 H 0.2545 1.0560 0.4234
B1 B 0.3757(4) 0.7678(2) 0.1732(2)
H10 H 0.4642 0.7760 0.1250
B2 B 0.1496(4) 0.7044(2) 0.1129(2)
H11 H 0.0901 0.6727 0.0247
B3 B 0.0783(4) 0.6316(3) 0.1905(3)
H12 H -0.0277 0.5525 0.1527
B4 B 0.2597(4) 0.6503(2) 0.2981(2)
H13 H 0.2738 0.5831 0.3299
B5 B 0.4057(4) 0.8727(2) 0.3055(2)
H14 H 0.5137 0.9508 0.3429
B6 B 0.2266(4) 0.8562(2) 0.1974(2)
B7 B 0.0407(4) 0.7704(3) 0.2085(2)
B8 B 0.1096(4) 0.7361(3) 0.3240(2)
B9 B 0.3355(4) 0.8001(3) 0.3825(2)
H15 H 0.3981 0.8309 0.4702
B10 B 0.2001(4) 0.8764(2) 0.3295(2)
F4 F 0.4278(2) 0.18707(15) 0.33490(15)
F5 F 0.5084(3) 0.43496(15) 0.31885(16)
F6 F 0.6620(2) 0.40661(15) 0.11591(14)
C6 C 0.9126(3) 0.2920(2) 0.3279(2)
C7 C 0.8323(3) 0.1708(2) 0.2131(2)
C8 C 1.0974(4) 0.3156(3) 0.3978(3)
H16 H 1.1692 0.3800 0.3937
H17 H 1.1410 0.2484 0.3720
H18 H 1.0986 0.3335 0.4719
C9 C 0.9464(4) 0.0870(3) 0.1828(3)
H19 H 0.9025 0.0174 0.1912
H20 H 1.0628 0.1225 0.2295
H21 H 0.9453 0.0684 0.1087
C10 C 0.3276(4) 0.1970(3) 0.0858(3)
H22 H 0.3341 0.2070 0.0207
H23 H 0.2636 0.2476 0.1215
H24 H 0.2702 0.1182 0.0677
B11 B 0.7592(4) 0.1799(2) 0.3228(2)
H25 H 0.7851 0.1273 0.3701
B12 B 0.7541(4) 0.3270(2) 0.3847(2)
H26 H 0.7753 0.3705 0.4727
B13 B 0.8316(4) 0.4007(2) 0.3097(3)
H27 H 0.9029 0.4924 0.3492
B14 B 0.8882(4) 0.3012(2) 0.2039(2)
H28 H 0.9970 0.3266 0.1752
B15 B 0.6174(4) 0.1194(2) 0.1888(2)
H29 H 0.5497 0.0270 0.1493
B16 B 0.5595(4) 0.2185(2) 0.2966(2)
B17 B 0.6047(4) 0.3565(2) 0.2877(3)
B18 B 0.6893(4) 0.3411(3) 0.1751(3)
B19 B 0.6948(4) 0.1933(2) 0.1151(2)
H30 H 0.6771 0.1490 0.0276
B20 B 0.5181(4) 0.2273(3) 0.1648(3)
loop_
_geom_bond_atom_site_label_1
_geom_bond_atom_site_label_2
_geom_bond_site_symmetry_1
_geom_bond_site_symmetry_2
F1 B6 1_555 1_555
F2 B7 1_555 1_555
F3 B8 1_555 1_555
C1 C2 1_555 1_555
C2 C4 1_555 1_555
C3 C1 1_555 1_555
H1 C3 1_555 1_555
H2 C3 1_555 1_555
H3 C3 1_555 1_555
C4 H4 1_555 1_555
H5 C4 1_555 1_555
H6 C4 1_555 1_555
C5 H7 1_555 1_555
H8 C5 1_555 1_555
H9 C5 1_555 1_555
B1 C1 1_555 1_555
H10 B1 1_555 1_555
B2 C1 1_555 1_555
H11 B2 1_555 1_555
B3 C1 1_555 1_555
H12 B3 1_555 1_555
B4 C1 1_555 1_555
H13 B4 1_555 1_555
B5 C2 1_555 1_555
H14 B5 1_555 1_555
B6 B1 1_555 1_555
B7 B2 1_555 1_555
B8 B3 1_555 1_555
B9 C2 1_555 1_555
H15 B9 1_555 1_555
B10 C5 1_555 1_555
F4 B16 1_555 1_555
F5 B17 1_555 1_555
F6 B18 1_555 1_555
C6 C7 1_555 1_555
C7 C9 1_555 1_555
C8 C6 1_555 1_555
H16 C8 1_555 1_555
H17 C8 1_555 1_555
H18 C8 1_555 1_555
C9 H19 1_555 1_555
H20 C9 1_555 1_555
H21 C9 1_555 1_555
C10 H22 1_555 1_555
H23 C10 1_555 1_555
H24 C10 1_555 1_555
B11 C6 1_555 1_555
H25 B11 1_555 1_555
B12 C6 1_555 1_555
H26 B12 1_555 1_555
B13 C6 1_555 1_555
H27 B13 1_555 1_555
B14 C6 1_555 1_555
H28 B14 1_555 1_555
B15 C7 1_555 1_555
H29 B15 1_555 1_555
B16 B11 1_555 1_555
B17 B12 1_555 1_555
B18 B13 1_555 1_555
B19 C7 1_555 1_555
H30 B19 1_555 1_555
B20 C10 1_555 1_555
C2 B1 1_555 1_555
C2 B4 1_555 1_555
B1 B2 1_555 1_555
B1 B5 1_555 1_555
B2 B3 1_555 1_555
B2 B6 1_555 1_555
B3 B4 1_555 1_555
B3 B7 1_555 1_555
B4 B8 1_555 1_555
B4 B9 1_555 1_555
B5 B6 1_555 1_555
B5 B9 1_555 1_555
B5 B10 1_555 1_555
B6 B7 1_555 1_555
B6 B10 1_555 1_555
B7 B8 1_555 1_555
B7 B10 1_555 1_555
B8 B9 1_555 1_555
B8 B10 1_555 1_555
B9 B10 1_555 1_555
C7 B11 1_555 1_555
C7 B14 1_555 1_555
B11 B12 1_555 1_555
B11 B15 1_555 1_555
B12 B13 1_555 1_555
B12 B16 1_555 1_555
B13 B14 1_555 1_555
B13 B17 1_555 1_555
B14 B18 1_555 1_555
B14 B19 1_555 1_555
B15 B16 1_555 1_555
B15 B19 1_555 1_555
B15 B20 1_555 1_555
B16 B17 1_555 1_555
B16 B20 1_555 1_555
B17 B18 1_555 1_555
B17 B20 1_555 1_555
B18 B19 1_555 1_555
B18 B20 1_555 1_555
B19 B20 1_555 1_555

#END
