
#######################################################################
#
#                 Cambridge Crystallographic Data Centre
#                                CCDC 
#
#######################################################################
#
# If this CIF has been generated from an entry in the Cambridge 
# Structural Database, then it will include bibliographic, chemical, 
# crystal, experimental, refinement or atomic coordinate data resulting 
# from the CCDC's data processing and validation procedures.
#
#######################################################################

data_YITGIT
_chemical_formula_moiety         'C14 H26 B10 F4'
_chemical_name_systematic        
1,2-(4,5-Diethylocta-3,5-diene-3,6-diyl)-8,9,10,12-tetrafluoro-1,2-dicarba-closo-dodecaborane(6)
_symmetry_cell_setting           monoclinic
_symmetry_space_group_name_H-M   'P 21/n'
_symmetry_Int_Tables_number      14
_space_group_name_Hall           '-P 2yn'
loop_
_symmetry_equiv_pos_site_id
_symmetry_equiv_pos_as_xyz
1 x,y,z
2 1/2-x,1/2+y,1/2-z
3 -x,-y,-z
4 1/2+x,1/2-y,1/2+z
_cell_length_a                   9.5043(12)
_cell_length_b                   11.4940(14)
_cell_length_c                   18.438(2)
_cell_angle_alpha                90
_cell_angle_beta                 95.337(2)
_cell_angle_gamma                90
_cell_volume                     2005.48
_exptl_crystal_colour            colorless
_exptl_crystal_description       block
_cell_formula_units_Z            4
loop_
_atom_site_label
_atom_site_type_symbol
_atom_site_fract_x
_atom_site_fract_y
_atom_site_fract_z
C1 C 0.07753(16) 0.76061(14) 0.20328(9)
C2 C -0.06671(17) 0.76594(14) 0.14559(9)
C3 C 0.05545(18) 0.78162(14) 0.28132(9)
C4 C 0.18791(19) 0.77798(17) 0.33395(10)
H1 H 0.1826 0.8389 0.3700
H2 H 0.2693 0.7938 0.3074
C5 C 0.2093(2) 0.6611(2) 0.37306(12)
H3 H 0.2945 0.6637 0.4054
H4 H 0.2166 0.6004 0.3378
H5 H 0.1303 0.6458 0.4005
C6 C -0.07545(18) 0.79982(14) 0.30194(9)
C7 C -0.0924(2) 0.82744(17) 0.38131(10)
H6 H -0.0136 0.7945 0.4117
H7 H -0.1784 0.7916 0.3950
C8 C -0.0986(3) 0.9580(2) 0.39484(12)
H8 H -0.1094 0.9720 0.4454
H9 H -0.1775 0.9907 0.3655
H10 H -0.0128 0.9936 0.3822
C9 C -0.20444(18) 0.80191(14) 0.25035(9)
C10 C -0.34671(19) 0.80896(16) 0.28137(10)
H11 H -0.4147 0.8462 0.2463
H12 H -0.3380 0.8559 0.3253
C11 C -0.3994(2) 0.68747(18) 0.29911(12)
H13 H -0.4893 0.6936 0.3186
H14 H -0.3327 0.6511 0.3343
H15 H -0.4093 0.6414 0.2555
C12 C -0.20206(17) 0.79035(15) 0.17747(9)
C13 C -0.33245(18) 0.80015(18) 0.12404(10)
H16 H -0.4100 0.7598 0.1438
H17 H -0.3144 0.7617 0.0790
C14 C -0.3768(2) 0.9261(2) 0.10713(12)
H18 H -0.4596 0.9267 0.0731
H19 H -0.3015 0.9662 0.0865
H20 H -0.3972 0.9643 0.1513
B1 B 0.0541(2) 0.87813(17) 0.14455(10)
H21 H 0.0349 0.9677 0.1621
B2 B 0.2213(2) 0.81091(17) 0.16199(11)
H22 H 0.3112 0.8574 0.1907
B3 B 0.1937(2) 0.65910(17) 0.17572(11)
H23 H 0.2658 0.6078 0.2134
B4 B 0.0101(2) 0.63161(16) 0.16622(11)
H24 H -0.0376 0.5630 0.1975
B5 B -0.0300(2) 0.81969(18) 0.06301(11)
H25 H -0.1043 0.8720 0.0272
B6 B 0.1553(2) 0.84677(18) 0.07102(11)
B7 B 0.2440(2) 0.71065(18) 0.09046(11)
B8 B 0.1112(2) 0.59913(18) 0.09294(11)
B9 B -0.0574(2) 0.66748(18) 0.07638(11)
H26 H -0.1493 0.6216 0.0492
B10 B 0.0853(2) 0.71583(19) 0.02787(11)
F1 F 0.21467(12) 0.93136(10) 0.03240(6)
F2 F 0.37240(11) 0.68763(10) 0.06664(6)
F3 F 0.13572(13) 0.48815(9) 0.07284(6)
F4 F 0.08932(12) 0.69814(11) -0.04498(6)
loop_
_geom_bond_atom_site_label_1
_geom_bond_atom_site_label_2
_geom_bond_site_symmetry_1
_geom_bond_site_symmetry_2
C1 C2 1_555 1_555
C2 C12 1_555 1_555
C3 C1 1_555 1_555
C4 C3 1_555 1_555
H1 C4 1_555 1_555
H2 C4 1_555 1_555
C5 C4 1_555 1_555
H3 C5 1_555 1_555
H4 C5 1_555 1_555
H5 C5 1_555 1_555
C6 C3 1_555 1_555
C7 C6 1_555 1_555
H6 C7 1_555 1_555
H7 C7 1_555 1_555
C8 C7 1_555 1_555
H8 C8 1_555 1_555
H9 C8 1_555 1_555
H10 C8 1_555 1_555
C9 C6 1_555 1_555
C10 C9 1_555 1_555
H11 C10 1_555 1_555
H12 C10 1_555 1_555
C11 C10 1_555 1_555
H13 C11 1_555 1_555
H14 C11 1_555 1_555
H15 C11 1_555 1_555
C12 C9 1_555 1_555
C13 C12 1_555 1_555
H16 C13 1_555 1_555
H17 C13 1_555 1_555
C14 C13 1_555 1_555
H18 C14 1_555 1_555
H19 C14 1_555 1_555
H20 C14 1_555 1_555
B1 C1 1_555 1_555
H21 B1 1_555 1_555
B2 C1 1_555 1_555
H22 B2 1_555 1_555
B3 C1 1_555 1_555
H23 B3 1_555 1_555
B4 C1 1_555 1_555
H24 B4 1_555 1_555
B5 C2 1_555 1_555
H25 B5 1_555 1_555
B6 B1 1_555 1_555
B7 B2 1_555 1_555
B8 B3 1_555 1_555
B9 C2 1_555 1_555
H26 B9 1_555 1_555
B10 B5 1_555 1_555
F1 B6 1_555 1_555
F2 B7 1_555 1_555
F3 B8 1_555 1_555
F4 B10 1_555 1_555
C2 B1 1_555 1_555
C2 B4 1_555 1_555
B1 B2 1_555 1_555
B1 B5 1_555 1_555
B2 B3 1_555 1_555
B2 B6 1_555 1_555
B3 B4 1_555 1_555
B3 B7 1_555 1_555
B4 B8 1_555 1_555
B4 B9 1_555 1_555
B5 B6 1_555 1_555
B5 B9 1_555 1_555
B6 B7 1_555 1_555
B6 B10 1_555 1_555
B7 B8 1_555 1_555
B7 B10 1_555 1_555
B8 B9 1_555 1_555
B8 B10 1_555 1_555
B9 B10 1_555 1_555

#END
