
#######################################################################
#
#                 Cambridge Crystallographic Data Centre
#                                CCDC 
#
#######################################################################
#
# If this CIF has been generated from an entry in the Cambridge 
# Structural Database, then it will include bibliographic, chemical, 
# crystal, experimental, refinement or atomic coordinate data resulting 
# from the CCDC's data processing and validation procedures.
#
#######################################################################

data_YITJAN
_chemical_formula_moiety         'C24 H16'
_chemical_name_systematic        5-Phenyltetraphene
_symmetry_cell_setting           monoclinic
_symmetry_space_group_name_H-M   'P 21/c'
_symmetry_Int_Tables_number      14
_space_group_name_Hall           '-P 2ybc'
loop_
_symmetry_equiv_pos_site_id
_symmetry_equiv_pos_as_xyz
1 x,y,z
2 -x,1/2+y,1/2-z
3 -x,-y,-z
4 x,1/2-y,1/2+z
_cell_length_a                   13.615(3)
_cell_length_b                   30.332(8)
_cell_length_c                   7.689(2)
_cell_angle_alpha                90
_cell_angle_beta                 90.561(5)
_cell_angle_gamma                90
_cell_volume                     3175.18
_exptl_crystal_colour            white
_exptl_crystal_description       needle
_chemical_melting_point          133-135deg.C
_cell_formula_units_Z            8
loop_
_atom_site_label
_atom_site_type_symbol
_atom_site_fract_x
_atom_site_fract_y
_atom_site_fract_z
C1 C 0.47362(16) 0.16910(6) 1.1512(3)
H1 H 0.5378 0.1602 1.1744
C2 C 0.42470(17) 0.19515(7) 1.2715(3)
H2 H 0.4560 0.2035 1.3743
C3 C 0.32974(17) 0.20846(7) 1.2378(3)
H3 H 0.2972 0.2262 1.3172
C4 C 0.28275(16) 0.19547(7) 1.0862(3)
H4 H 0.2183 0.2042 1.0642
C5 C 0.33201(16) 0.16936(7) 0.9667(3)
H5 H 0.3001 0.1606 0.8650
C6 C 0.42812(16) 0.15621(7) 0.9972(3)
C7 C 0.48400(16) 0.12941(7) 0.8678(3)
C8 C 0.47856(16) 0.08508(7) 0.8658(3)
H6 H 0.4350 0.0712 0.9405
C9 C 0.53737(16) 0.05831(6) 0.7527(3)
C10 C 0.53008(16) 0.01261(6) 0.7534(3)
H7 H 0.4840 -0.0007 0.8250
C11 C 0.58982(16) -0.01418(7) 0.6500(2)
C12 C 0.58404(16) -0.06087(7) 0.6487(3)
H8 H 0.5375 -0.0749 0.7168
C13 C 0.64573(16) -0.08543(7) 0.5489(3)
H9 H 0.6412 -0.1160 0.5503
C14 C 0.71654(17) -0.06466(7) 0.4433(3)
H10 H 0.7579 -0.0816 0.3749
C15 C 0.72423(16) -0.01986(7) 0.4417(3)
H11 H 0.7717 -0.0066 0.3731
C16 C 0.66111(16) 0.00701(7) 0.5427(3)
C17 C 0.66710(16) 0.05316(6) 0.5396(3)
H12 H 0.7133 0.0666 0.4686
C18 C 0.60609(16) 0.07937(6) 0.6394(2)
C19 C 0.60713(15) 0.12770(6) 0.6317(2)
C20 C 0.66617(15) 0.15112(7) 0.5137(3)
H13 H 0.7064 0.1356 0.4382
C21 C 0.66554(15) 0.19648(7) 0.5078(3)
H14 H 0.7053 0.2112 0.4291
C22 C 0.60587(15) 0.22041(7) 0.6190(2)
H15 H 0.6058 0.2510 0.6147
C23 C 0.54705(15) 0.19874(6) 0.7352(3)
H16 H 0.5071 0.2149 0.8089
C24 C 0.54635(15) 0.15235(6) 0.7447(3)
C25 C 0.95847(16) 0.17371(6) 0.6279(3)
H17 H 0.8923 0.1664 0.6354
C26 C 0.99858(17) 0.20358(7) 0.7450(3)
H18 H 0.9597 0.2160 0.8308
C27 C 1.09676(18) 0.21484(7) 0.7335(3)
H19 H 1.1237 0.2354 0.8098
C28 C 1.15471(17) 0.19545(7) 0.6085(3)
H20 H 1.2209 0.2027 0.6019
C29 C 1.11465(16) 0.16516(7) 0.4928(3)
H21 H 1.1546 0.1520 0.4102
C30 C 1.01559(16) 0.15431(7) 0.4987(3)
C31 C 0.96988(15) 0.12332(7) 0.3711(3)
C32 C 0.99304(16) 0.08014(7) 0.3699(3)
H22 H 1.0413 0.0700 0.4464
C33 C 0.94593(15) 0.04897(6) 0.2548(2)
C34 C 0.97231(16) 0.00475(6) 0.2563(3)
H23 H 1.0227 -0.0045 0.3303
C35 C 0.92537(16) -0.02646(6) 0.1498(2)
C36 C 0.95077(16) -0.07193(6) 0.1498(3)
H24 H 1.0013 -0.0819 0.2220
C37 C 0.90208(16) -0.10106(7) 0.0456(3)
H25 H 0.9192 -0.1307 0.0477
C38 C 0.82523(16) -0.08639(7) -0.0662(3)
H26 H 0.7922 -0.1065 -0.1371
C39 C 0.79977(16) -0.04324(7) -0.0702(3)
H27 H 0.7498 -0.0340 -0.1450
C40 C 0.84780(16) -0.01190(7) 0.0376(3)
C41 C 0.82252(15) 0.03299(6) 0.0350(2)
H28 H 0.7725 0.0423 -0.0396
C42 C 0.86935(16) 0.06394(6) 0.1392(3)
C43 C 0.84861(15) 0.11108(7) 0.1321(3)
C44 C 0.78154(16) 0.12924(7) 0.0106(3)
H29 H 0.7465 0.1105 -0.0629
C45 C 0.76680(16) 0.17393(7) -0.0016(3)
H30 H 0.7222 0.1851 -0.0828
C46 C 0.81850(15) 0.20262(7) 0.1072(3)
H31 H 0.8093 0.2329 0.0975
C47 C 0.88305(15) 0.18604(7) 0.2287(3)
H32 H 0.9170 0.2053 0.3017
C48 C 0.89860(15) 0.14041(7) 0.2446(3)
loop_
_geom_bond_atom_site_label_1
_geom_bond_atom_site_label_2
_geom_bond_site_symmetry_1
_geom_bond_site_symmetry_2
C1 H1 1_555 1_555
C2 C1 1_555 1_555
H2 C2 1_555 1_555
C3 C2 1_555 1_555
H3 C3 1_555 1_555
C4 C3 1_555 1_555
H4 C4 1_555 1_555
C5 C4 1_555 1_555
H5 C5 1_555 1_555
C6 C1 1_555 1_555
C7 C6 1_555 1_555
C8 C7 1_555 1_555
H6 C8 1_555 1_555
C9 C8 1_555 1_555
C10 C9 1_555 1_555
H7 C10 1_555 1_555
C11 C10 1_555 1_555
C12 C11 1_555 1_555
H8 C12 1_555 1_555
C13 C12 1_555 1_555
H9 C13 1_555 1_555
C14 C13 1_555 1_555
H10 C14 1_555 1_555
C15 C14 1_555 1_555
H11 C15 1_555 1_555
C16 C11 1_555 1_555
C17 C16 1_555 1_555
H12 C17 1_555 1_555
C18 C9 1_555 1_555
C19 C18 1_555 1_555
C20 C19 1_555 1_555
H13 C20 1_555 1_555
C21 C20 1_555 1_555
H14 C21 1_555 1_555
C22 C21 1_555 1_555
H15 C22 1_555 1_555
C23 C22 1_555 1_555
H16 C23 1_555 1_555
C24 C7 1_555 1_555
C25 H17 1_555 1_555
C26 C25 1_555 1_555
H18 C26 1_555 1_555
C27 C26 1_555 1_555
H19 C27 1_555 1_555
C28 C27 1_555 1_555
H20 C28 1_555 1_555
C29 C28 1_555 1_555
H21 C29 1_555 1_555
C30 C25 1_555 1_555
C31 C30 1_555 1_555
C32 C31 1_555 1_555
H22 C32 1_555 1_555
C33 C32 1_555 1_555
C34 C33 1_555 1_555
H23 C34 1_555 1_555
C35 C34 1_555 1_555
C36 C35 1_555 1_555
H24 C36 1_555 1_555
C37 C36 1_555 1_555
H25 C37 1_555 1_555
C38 C37 1_555 1_555
H26 C38 1_555 1_555
C39 C38 1_555 1_555
H27 C39 1_555 1_555
C40 C35 1_555 1_555
C41 C40 1_555 1_555
H28 C41 1_555 1_555
C42 C33 1_555 1_555
C43 C42 1_555 1_555
C44 C43 1_555 1_555
H29 C44 1_555 1_555
C45 C44 1_555 1_555
H30 C45 1_555 1_555
C46 C45 1_555 1_555
H31 C46 1_555 1_555
C47 C46 1_555 1_555
H32 C47 1_555 1_555
C48 C31 1_555 1_555
C5 C6 1_555 1_555
C15 C16 1_555 1_555
C17 C18 1_555 1_555
C19 C24 1_555 1_555
C23 C24 1_555 1_555
C29 C30 1_555 1_555
C39 C40 1_555 1_555
C41 C42 1_555 1_555
C43 C48 1_555 1_555
C47 C48 1_555 1_555

#END
