
#######################################################################
#
#                 Cambridge Crystallographic Data Centre
#                                CCDC 
#
#######################################################################
#
# If this CIF has been generated from an entry in the Cambridge 
# Structural Database, then it will include bibliographic, chemical, 
# crystal, experimental, refinement or atomic coordinate data resulting 
# from the CCDC's data processing and validation procedures.
#
#######################################################################

data_YITKUI
_chemical_formula_moiety         'C9 H9 N1 O6 S1,H2 O1'
_chemical_name_systematic        
'N-((3-Carboxyphenyl)sulfonyl)glycine monohydrate'
_symmetry_cell_setting           monoclinic
_symmetry_space_group_name_H-M   'C 2/c'
_symmetry_Int_Tables_number      15
_space_group_name_Hall           '-C 2yn'
loop_
_symmetry_equiv_pos_site_id
_symmetry_equiv_pos_as_xyz
1 x,y,z
2 1/2+x,1/2+y,z
3 -x,y,1/2-z
4 1/2-x,1/2+y,1/2-z
5 -x,-y,-z
6 1/2-x,1/2-y,-z
7 x,-y,1/2+z
8 1/2+x,1/2-y,1/2+z
_cell_length_a                   40.620(6)
_cell_length_b                   5.1473(7)
_cell_length_c                   11.3259(16)
_cell_angle_alpha                90
_cell_angle_beta                 99.170(2)
_cell_angle_gamma                90
_cell_volume                     2337.79
_exptl_crystal_colour            colorless
_cell_formula_units_Z            8
_exptl_crystal_recrystallization_method alcohol
loop_
_atom_site_label
_atom_site_type_symbol
_atom_site_fract_x
_atom_site_fract_y
_atom_site_fract_z
S1 S 0.360116(11) 0.23608(8) 0.83945(4)
O1 O 0.49378(4) 0.7502(3) 1.10297(15)
H1 H 0.5063 0.8655 1.0874
O2 O 0.46526(4) 0.8676(3) 0.92595(14)
O3 O 0.34856(4) -0.0209(3) 0.85942(15)
O4 O 0.36989(4) 0.3033(3) 0.72735(13)
O5 O 0.29976(5) 0.1728(4) 1.11027(15)
H2 H 0.2861 0.0604 1.1200
O6 O 0.27836(4) 0.1189(4) 0.91883(14)
N1 N 0.33084(4) 0.4373(3) 0.85922(15)
H3 H 0.3219 0.5361 0.8018
C1 C 0.39441(5) 0.2896(4) 0.95488(17)
C2 C 0.39808(5) 0.1360(4) 1.05696(18)
H4 H 0.3827 0.0056 1.0648
C3 C 0.42492(5) 0.1791(4) 1.14727(18)
H5 H 0.4274 0.0783 1.2163
C4 C 0.44794(5) 0.3715(4) 1.13496(18)
H6 H 0.4659 0.3993 1.1956
C5 C 0.44425(5) 0.5239(4) 1.03196(17)
C6 C 0.41718(5) 0.4845(4) 0.94168(16)
H7 H 0.4144 0.5874 0.8733
C7 C 0.46894(5) 0.7295(4) 1.01652(18)
C8 C 0.31988(5) 0.4489(4) 0.9759(2)
H8 H 0.3083 0.6117 0.9823
H9 H 0.3393 0.4467 1.0380
C9 C 0.29714(5) 0.2271(4) 0.99690(19)
O7 O 0.26231(6) 0.8063(4) 0.16812(18)
H10 H 0.2690(11) 0.789(8) 0.2443(12)
H11 H 0.2532(9) 0.670(5) 0.131(3)
loop_
_geom_bond_atom_site_label_1
_geom_bond_atom_site_label_2
_geom_bond_site_symmetry_1
_geom_bond_site_symmetry_2
S1 O3 1_555 1_555
O1 H1 1_555 1_555
O2 C7 1_555 1_555
O4 S1 1_555 1_555
O5 H2 1_555 1_555
O6 C9 1_555 1_555
O7 H10 1_555 1_555
N1 S1 1_555 1_555
H3 N1 1_555 1_555
C1 S1 1_555 1_555
C2 C1 1_555 1_555
H4 C2 1_555 1_555
C3 C2 1_555 1_555
H5 C3 1_555 1_555
C4 C3 1_555 1_555
H6 C4 1_555 1_555
C5 C4 1_555 1_555
C6 C1 1_555 1_555
H7 C6 1_555 1_555
C7 O1 1_555 1_555
C8 N1 1_555 1_555
H8 C8 1_555 1_555
H9 C8 1_555 1_555
C9 O5 1_555 1_555
H11 O7 1_555 1_555
C5 C6 1_555 1_555
C5 C7 1_555 1_555
C8 C9 1_555 1_555

#END
