
#######################################################################
#
#                 Cambridge Crystallographic Data Centre
#                                CCDC 
#
#######################################################################
#
# If this CIF has been generated from an entry in the Cambridge 
# Structural Database, then it will include bibliographic, chemical, 
# crystal, experimental, refinement or atomic coordinate data resulting 
# from the CCDC's data processing and validation procedures.
#
#######################################################################

data_YITPAU
_chemical_formula_moiety         'C25 H32 F3 N1 O4 S1'
_chemical_name_systematic        
N-(1-(5,7-Di-t-butyl-2,3-dihydro-1,4-benzodioxin-2-yl)-2,2,2-trifluoroethyl)-4-methylbenzenesulfonamide
_symmetry_cell_setting           monoclinic
_symmetry_space_group_name_H-M   'C 2/c'
_symmetry_Int_Tables_number      15
_space_group_name_Hall           '-C 2yn'
loop_
_symmetry_equiv_pos_site_id
_symmetry_equiv_pos_as_xyz
1 x,y,z
2 -x,y,1/2-z
3 1/2+x,1/2+y,z
4 1/2-x,1/2+y,1/2-z
5 -x,-y,-z
6 x,-y,1/2+z
7 1/2-x,1/2-y,-z
8 1/2+x,1/2-y,1/2+z
_cell_length_a                   24.7043(12)
_cell_length_b                   12.4393(6)
_cell_length_c                   18.8780(9)
_cell_angle_alpha                90
_cell_angle_beta                 118.8810(10)
_cell_angle_gamma                90
_cell_volume                     5079.75
_exptl_crystal_colour            colorless
_exptl_crystal_description       pinacoid
_chemical_melting_point          '211-212 deg.C'
_cell_formula_units_Z            8
loop_
_atom_site_label
_atom_site_type_symbol
_atom_site_fract_x
_atom_site_fract_y
_atom_site_fract_z
S1 S -0.032595(9) 0.527807(17) 0.370631(11)
F1 F 0.15955(3) 0.61916(5) 0.38785(5)
O1 O -0.06068(3) 0.47806(6) 0.41364(4)
N1 N 0.04089(3) 0.50464(6) 0.42500(4)
H1 H 0.0554(6) 0.5082(10) 0.4767(8)
C1 C 0.08354(4) 0.50992(6) 0.39288(5)
H2 H 0.0584 0.5126 0.3326
F2 F 0.08509(3) 0.69943(4) 0.39474(4)
O2 O -0.04986(3) 0.49337(6) 0.28980(4)
C2 C 0.12183(4) 0.61242(7) 0.42015(5)
F3 F 0.15634(3) 0.62060(5) 0.50014(4)
O3 O 0.15149(3) 0.39606(5) 0.50054(4)
C3 C 0.12372(4) 0.40880(7) 0.41482(5)
H3 H 0.1567 0.4186 0.3991
O4 O 0.12299(3) 0.21735(5) 0.39527(4)
C4 C 0.17206(4) 0.29360(6) 0.52922(5)
C5 C 0.15739(4) 0.20463(7) 0.47822(5)
C6 C 0.08507(4) 0.31090(7) 0.37223(5)
H4 H 0.0518 0.3021 0.3867
H5 H 0.0656 0.3209 0.3129
C7 C 0.17741(4) 0.10169(6) 0.51086(5)
C8 C 0.21287(4) 0.09373(7) 0.59520(5)
H6 H 0.2272 0.0247 0.6182
C9 C 0.22821(4) 0.18217(7) 0.64732(5)
C10 C 0.20689(4) 0.28295(7) 0.61245(5)
H7 H 0.2163 0.3447 0.6460
C11 C 0.26757(4) 0.17229(7) 0.73942(5)
C12 C 0.23470(5) 0.22652(9) 0.78120(6)
H8 H 0.2598 0.2185 0.8399
H9 H 0.1943 0.1926 0.7630
H10 H 0.2290 0.3031 0.7673
C13 C 0.28024(6) 0.05509(8) 0.76775(6)
H11 H 0.3038 0.0201 0.7448
H12 H 0.2409 0.0173 0.7497
H13 H 0.3041 0.0529 0.8269
C14 C 0.32995(5) 0.22843(10) 0.76653(6)
H14 H 0.3518 0.1930 0.7414
H15 H 0.3549 0.2241 0.8255
H16 H 0.3228 0.3040 0.7500
C15 C 0.15980(4) 0.00200(7) 0.45603(6)
C16 C 0.18636(5) 0.01119(8) 0.39746(7)
H17 H 0.1753 -0.0531 0.3632
H18 H 0.2315 0.0175 0.4285
H19 H 0.1692 0.0750 0.3634
C17 C 0.08896(4) -0.00983(8) 0.40831(6)
H20 H 0.0725 -0.0135 0.4462
H21 H 0.0782 -0.0758 0.3760
H22 H 0.0711 0.0522 0.3725
C18 C 0.18521(5) -0.10148(7) 0.50522(7)
H23 H 0.2302 -0.0961 0.5381
H24 H 0.1747 -0.1629 0.4683
H25 H 0.1669 -0.1116 0.5407
C19 C -0.04574(4) 0.66706(7) 0.36834(5)
C20 C -0.04717(6) 0.71596(8) 0.43353(7)
H26 H -0.0416 0.6744 0.4788
C21 C -0.05681(6) 0.82598(9) 0.43195(8)
H27 H -0.0580 0.8594 0.4764
C22 C -0.06471(5) 0.88833(8) 0.36652(7)
C23 C -0.06222(5) 0.83802(9) 0.30255(6)
H28 H -0.0667 0.8798 0.2579
C24 C -0.05324(5) 0.72781(9) 0.30242(6)
H29 H -0.0522 0.6944 0.2578
C25 C -0.07725(6) 1.00724(9) 0.36450(10)
H30 H -0.1201 1.0186 0.3525
H31 H -0.0707 1.0414 0.3225
H32 H -0.0491 1.0390 0.4172
loop_
_geom_bond_atom_site_label_1
_geom_bond_atom_site_label_2
_geom_bond_site_symmetry_1
_geom_bond_site_symmetry_2
S1 O1 1_555 1_555
F1 C2 1_555 1_555
N1 S1 1_555 1_555
H1 N1 1_555 1_555
C1 N1 1_555 1_555
H2 C1 1_555 1_555
F2 C2 1_555 1_555
O2 S1 1_555 1_555
C2 C1 1_555 1_555
F3 C2 1_555 1_555
O3 C3 1_555 1_555
C3 C1 1_555 1_555
H3 C3 1_555 1_555
O4 C5 1_555 1_555
C4 O3 1_555 1_555
C5 C4 1_555 1_555
C6 C3 1_555 1_555
H4 C6 1_555 1_555
H5 C6 1_555 1_555
C7 C5 1_555 1_555
C8 C7 1_555 1_555
H6 C8 1_555 1_555
C9 C8 1_555 1_555
C10 C4 1_555 1_555
H7 C10 1_555 1_555
C11 C9 1_555 1_555
C12 C11 1_555 1_555
H8 C12 1_555 1_555
H9 C12 1_555 1_555
H10 C12 1_555 1_555
C13 C11 1_555 1_555
H11 C13 1_555 1_555
H12 C13 1_555 1_555
H13 C13 1_555 1_555
C14 C11 1_555 1_555
H14 C14 1_555 1_555
H15 C14 1_555 1_555
H16 C14 1_555 1_555
C15 C7 1_555 1_555
C16 C15 1_555 1_555
H17 C16 1_555 1_555
H18 C16 1_555 1_555
H19 C16 1_555 1_555
C17 C15 1_555 1_555
H20 C17 1_555 1_555
H21 C17 1_555 1_555
H22 C17 1_555 1_555
C18 C15 1_555 1_555
H23 C18 1_555 1_555
H24 C18 1_555 1_555
H25 C18 1_555 1_555
C19 S1 1_555 1_555
C20 C19 1_555 1_555
H26 C20 1_555 1_555
C21 C20 1_555 1_555
H27 C21 1_555 1_555
C22 C21 1_555 1_555
C23 C22 1_555 1_555
H28 C23 1_555 1_555
C24 C19 1_555 1_555
H29 C24 1_555 1_555
C25 C22 1_555 1_555
H30 C25 1_555 1_555
H31 C25 1_555 1_555
H32 C25 1_555 1_555
O4 C6 1_555 1_555
C9 C10 1_555 1_555
C23 C24 1_555 1_555

#END
