
#######################################################################
#
#                 Cambridge Crystallographic Data Centre
#                                CCDC 
#
#######################################################################
#
# If this CIF has been generated from an entry in the Cambridge 
# Structural Database, then it will include bibliographic, chemical, 
# crystal, experimental, refinement or atomic coordinate data resulting 
# from the CCDC's data processing and validation procedures.
#
#######################################################################

data_YITPIC
_chemical_formula_moiety         'C88 H26 N2 O6,3(C1 S2)'
_chemical_name_systematic        
'(3,6-Diphenylcyclohex-4-eno)-(4-oxo-3,5-bis(phenylimino)cyclopenteno)-dihydroxy-trioxo-open-cage-C60fullerene carbon disulfide solvate'
_symmetry_cell_setting           triclinic
_symmetry_space_group_name_H-M   'P -1'
_symmetry_Int_Tables_number      2
_space_group_name_Hall           '-P 1'
loop_
_symmetry_equiv_pos_site_id
_symmetry_equiv_pos_as_xyz
1 x,y,z
2 -x,-y,-z
_cell_length_a                   12.746(3)
_cell_length_b                   14.404(3)
_cell_length_c                   18.266(4)
_cell_angle_alpha                86.86(3)
_cell_angle_beta                 83.82(3)
_cell_angle_gamma                66.77(3)
_cell_volume                     3063.46
_exptl_crystal_colour            'dark red'
_exptl_crystal_description       block
_cell_formula_units_Z            2
loop_
_atom_site_label
_atom_site_type_symbol
_atom_site_fract_x
_atom_site_fract_y
_atom_site_fract_z
S1 S 0.26694(19) -0.0391(2) -0.12836(14)
S2 S 0.3618(2) 0.0241(2) -0.00273(11)
C1 C 0.3120(4) -0.0064(4) -0.0652(2)
S3 S 0.08852(17) -0.03205(14) 0.35472(13)
S4 S 0.21880(17) 0.04050(14) 0.45207(12)
C2 C 0.1534(4) 0.0050(3) 0.4025(3)
S5 S -0.1095(2) 0.80860(12) 0.38502(10)
S6 S 0.05458(9) 0.59568(13) 0.33581(7)
C3 C -0.0241(4) 0.7020(3) 0.3596(2)
O1 O 0.80047(16) 0.18320(14) 0.22893(10)
O2 O 0.92119(17) 0.30510(14) 0.22225(10)
O3 O 0.72951(17) 0.28972(14) 0.08510(10)
O4 O 1.06903(19) 0.18169(15) 0.02323(13)
O5 O 0.75327(14) 0.52671(13) -0.05945(9)
H1 H 0.7665 0.4678 -0.0725
O6 O 1.01158(14) 0.54195(13) 0.11210(10)
H2 H 1.0678 0.4874 0.1179
N1 N 0.85960(17) 0.31689(15) -0.05550(11)
N2 N 1.10690(17) 0.33162(15) 0.12518(11)
C4 C 0.7260(2) 0.25093(18) 0.26309(13)
C5 C 0.7348(2) 0.28530(18) 0.34153(13)
C6 C 0.8224(2) 0.34018(17) 0.34614(13)
C7 C 0.87884(19) 0.36465(17) 0.27140(13)
C8 C 0.87056(19) 0.47161(17) 0.27220(13)
C9 C 0.6053(2) 0.30779(17) 0.24401(13)
C10 C 0.5652(2) 0.34586(18) 0.17682(13)
C11 C 0.6378(2) 0.35241(18) 0.10697(13)
C12 C 0.5756(2) 0.45754(18) 0.07636(12)
C13 C 0.61914(19) 0.52548(17) 0.04454(12)
C14 C 0.74367(19) 0.51687(17) 0.01933(12)
C15 C 0.7382(2) 0.61281(17) 0.05346(13)
C16 C 0.81107(19) 0.61544(16) 0.10223(13)
C17 C 0.90912(19) 0.52443(17) 0.12950(13)
C18 C 0.89674(19) 0.33176(17) 0.00274(13)
C19 C 1.02189(19) 0.33732(17) 0.09122(13)
C20 C 0.84780(19) 0.42828(17) 0.04157(12)
C21 C 0.91942(19) 0.43165(17) 0.09024(12)
C22 C 1.0049(2) 0.26621(18) 0.03930(14)
C23 C 0.7665(2) 0.44341(18) 0.38033(13)
C24 C 0.87676(19) 0.53630(17) 0.21419(13)
C25 C 0.4616(2) 0.49516(19) 0.11423(13)
C26 C 0.7561(2) 0.68328(17) 0.29218(14)
C27 C 0.5777(2) 0.43612(19) 0.40877(12)
C28 C 0.5484(2) 0.63280(18) 0.05188(13)
C29 C 0.6598(2) 0.48219(18) 0.41915(12)
C30 C 1.2022(2) 0.24162(18) 0.13793(14)
C31 C 0.6107(4) 0.0228(3) 0.3445(3)
H3 H 0.6196 -0.0272 0.3098
C32 C 0.5154(4) 0.0546(3) 0.3951(3)
H4 H 0.4599 0.0257 0.3960
C33 C 0.9952(3) 0.1193(3) -0.1954(2)
H5 H 1.0341 0.1117 -0.2435
C34 C 0.9198(3) 0.0496(2) -0.0928(2)
H6 H 0.9051 -0.0054 -0.0697
C35 C 0.5013(3) 0.1290(3) 0.4446(2)
H7 H 0.4357 0.1517 0.4794
C36 C 0.6936(3) 0.0629(2) 0.34379(19)
H8 H 0.7600 0.0386 0.3097
C37 C 1.2112(3) 0.2986(3) 0.3516(2)
H9 H 1.2754 0.2777 0.3157
C38 C 1.4026(3) 0.1666(2) 0.1569(2)
H10 H 1.4755 0.1707 0.1545
C39 C 1.2101(3) 0.3537(3) 0.4115(2)
H11 H 1.2748 0.3684 0.4181
C40 C 1.3908(3) 0.0777(2) 0.1805(2)
H12 H 1.4553 0.0214 0.1951
C41 C 0.5829(3) 0.1704(2) 0.44325(17)
H13 H 0.5725 0.2215 0.4773
C42 C 0.9754(3) 0.0387(3) -0.1617(2)
H14 H 1.0004 -0.0237 -0.1865
C43 C 1.1179(2) 0.2736(2) 0.34383(17)
H15 H 1.1196 0.2347 0.3030
C44 C 1.2850(3) 0.0706(2) 0.18271(19)
H16 H 1.2773 0.0097 0.1991
C45 C 1.1150(3) 0.3869(3) 0.46120(19)
H17 H 1.1133 0.4266 0.5015
C46 C 0.8843(3) 0.1405(2) -0.05588(17)
H18 H 0.8460 0.1474 -0.0076
C47 C 0.9590(3) 0.2112(2) -0.16027(17)
H19 H 0.9713 0.2668 -0.1843
C48 C 1.0208(2) 0.3633(2) 0.45346(16)
H20 H 0.9553 0.3872 0.4883
C49 C 0.3303(2) 0.6953(2) 0.32986(14)
C50 C 1.3080(2) 0.2494(2) 0.13694(17)
H21 H 1.3152 0.3112 0.1226
C51 C 0.4092(2) 0.6994(2) 0.38024(14)
C52 C 0.4114(2) 0.80875(18) 0.28087(15)
C53 C 0.8799(2) 0.2407(2) 0.46284(15)
H22 H 0.9045 0.2520 0.5076
C54 C 0.3325(2) 0.7625(2) 0.26824(15)
C55 C 0.3174(2) 0.5751(2) 0.24492(14)
C56 C 0.4717(2) 0.80089(18) 0.14746(14)
C57 C 0.4593(2) 0.76960(19) 0.34968(15)
C58 C 0.7694(2) 0.18390(19) 0.38989(14)
H23 H 0.8406 0.1341 0.3636
C59 C 0.3898(2) 0.5134(2) 0.35827(14)
C60 C 0.3210(2) 0.6389(2) 0.18579(14)
C61 C 0.5958(2) 0.59020(19) 0.42418(13)
C62 C 0.9273(2) 0.26735(19) 0.39003(14)
H24 H 0.9632 0.2031 0.3617
C63 C 0.9049(2) 0.22080(19) -0.08977(14)
C64 C 0.3269(2) 0.7350(2) 0.19726(15)
C65 C 0.3978(2) 0.75450(19) 0.13574(14)
C66 C 0.7539(2) 0.61669(18) 0.35264(13)
C67 C 0.6448(2) 0.76695(18) 0.29419(14)
C68 C 1.1905(2) 0.15219(19) 0.16120(15)
H25 H 1.1182 0.1472 0.1623
C69 C 0.4759(2) 0.6118(2) 0.41714(13)
C70 C 0.6801(2) 0.1384(2) 0.39281(15)
C71 C 0.4792(2) 0.82742(18) 0.22166(15)
C72 C 1.0222(2) 0.30501(19) 0.39506(14)
C73 C 0.8021(2) 0.2008(2) 0.46263(15)
H26 H 0.7683 0.1835 0.5074
C74 C 0.6217(2) 0.68612(17) 0.06011(13)
C75 C 0.4281(2) 0.4301(2) 0.30864(14)
C76 C 0.3218(2) 0.6041(2) 0.31895(14)
C77 C 0.8091(2) 0.51274(18) 0.34193(13)
C78 C 0.5853(2) 0.76659(17) 0.10852(14)
C79 C 0.6438(2) 0.65686(18) 0.39409(13)
C80 C 0.7716(2) 0.69167(17) 0.15751(14)
C81 C 0.4660(2) 0.5172(2) 0.40608(13)
C82 C 0.6121(2) 0.35450(18) 0.36340(13)
C83 C 0.81618(19) 0.64402(17) 0.22560(13)
C84 C 0.4383(2) 0.66828(19) 0.08722(13)
C85 C 0.3846(2) 0.4676(2) 0.23891(14)
C86 C 0.3925(2) 0.59707(19) 0.11858(13)
C87 C 0.5985(2) 0.80681(17) 0.22872(14)
C88 C 0.5741(2) 0.74914(18) 0.35643(14)
C89 C 0.5374(2) 0.35463(19) 0.31009(13)
C90 C 0.4562(2) 0.42824(19) 0.17491(13)
C91 C 0.6634(2) 0.76986(17) 0.15907(14)
loop_
_geom_bond_atom_site_label_1
_geom_bond_atom_site_label_2
_geom_bond_site_symmetry_1
_geom_bond_site_symmetry_2
S1 C1 1_555 1_555
S2 C1 1_555 1_555
S3 C2 1_555 1_555
S4 C2 1_555 1_555
S5 C3 1_555 1_555
S6 C3 1_555 1_555
O1 C4 1_555 1_555
O2 C7 1_555 1_555
O3 C11 1_555 1_555
O4 C22 1_555 1_555
O5 H1 1_555 1_555
O6 H2 1_555 1_555
N1 C18 1_555 1_555
N2 C19 1_555 1_555
C4 C5 1_555 1_555
C5 C6 1_555 1_555
C6 C7 1_555 1_555
C7 C8 1_555 1_555
C8 C24 1_555 1_555
C9 C4 1_555 1_555
C10 C9 1_555 1_555
C11 C10 1_555 1_555
C12 C11 1_555 1_555
C13 C12 1_555 1_555
C14 O5 1_555 1_555
C15 C14 1_555 1_555
C16 C15 1_555 1_555
C17 O6 1_555 1_555
C18 C20 1_555 1_555
C19 C21 1_555 1_555
C20 C14 1_555 1_555
C21 C17 1_555 1_555
C22 C18 1_555 1_555
C23 C6 1_555 1_555
C24 C17 1_555 1_555
C25 C12 1_555 1_555
C26 C66 1_555 1_555
C27 C29 1_555 1_555
C28 C13 1_555 1_555
C29 C23 1_555 1_555
C30 N2 1_555 1_555
C31 H3 1_555 1_555
C32 C31 1_555 1_555
H4 C32 1_555 1_555
C33 H5 1_555 1_555
C34 H6 1_555 1_555
C35 C32 1_555 1_555
H7 C35 1_555 1_555
C36 C31 1_555 1_555
H8 C36 1_555 1_555
C37 H9 1_555 1_555
C38 H10 1_555 1_555
C39 C37 1_555 1_555
H11 C39 1_555 1_555
C40 C38 1_555 1_555
H12 C40 1_555 1_555
C41 C35 1_555 1_555
H13 C41 1_555 1_555
C42 C33 1_555 1_555
H14 C42 1_555 1_555
C43 C37 1_555 1_555
H15 C43 1_555 1_555
C44 C40 1_555 1_555
H16 C44 1_555 1_555
C45 C39 1_555 1_555
H17 C45 1_555 1_555
C46 C34 1_555 1_555
H18 C46 1_555 1_555
C47 C33 1_555 1_555
H19 C47 1_555 1_555
C48 C45 1_555 1_555
H20 C48 1_555 1_555
C49 C51 1_555 1_555
C50 C30 1_555 1_555
H21 C50 1_555 1_555
C51 C57 1_555 1_555
C52 C54 1_555 1_555
C53 H22 1_555 1_555
C54 C49 1_555 1_555
C55 C60 1_555 1_555
C56 C65 1_555 1_555
C57 C52 1_555 1_555
C58 C5 1_555 1_555
H23 C58 1_555 1_555
C59 C75 1_555 1_555
C60 C64 1_555 1_555
C61 C29 1_555 1_555
C62 C6 1_555 1_555
H24 C62 1_555 1_555
C63 N1 1_555 1_555
C64 C54 1_555 1_555
C65 C64 1_555 1_555
C66 C77 1_555 1_555
C67 C26 1_555 1_555
C68 C30 1_555 1_555
H25 C68 1_555 1_555
C69 C51 1_555 1_555
C70 C36 1_555 1_555
C71 C52 1_555 1_555
C72 C43 1_555 1_555
C73 C53 1_555 1_555
H26 C73 1_555 1_555
C74 C15 1_555 1_555
C75 C85 1_555 1_555
C76 C49 1_555 1_555
C77 C8 1_555 1_555
C78 C56 1_555 1_555
C79 C61 1_555 1_555
C80 C16 1_555 1_555
C81 C27 1_555 1_555
C82 C5 1_555 1_555
C83 C24 1_555 1_555
C84 C28 1_555 1_555
C85 C55 1_555 1_555
C86 C25 1_555 1_555
C87 C67 1_555 1_555
C88 C57 1_555 1_555
C89 C9 1_555 1_555
C90 C10 1_555 1_555
C91 C78 1_555 1_555
C13 C14 1_555 1_555
C16 C17 1_555 1_555
C19 C22 1_555 1_555
C20 C21 1_555 1_555
C23 C77 1_555 1_555
C25 C90 1_555 1_555
C26 C83 1_555 1_555
C27 C82 1_555 1_555
C28 C74 1_555 1_555
C34 C42 1_555 1_555
C38 C50 1_555 1_555
C41 C70 1_555 1_555
C44 C68 1_555 1_555
C46 C63 1_555 1_555
C47 C63 1_555 1_555
C48 C72 1_555 1_555
C53 C62 1_555 1_555
C55 C76 1_555 1_555
C56 C71 1_555 1_555
C58 C70 1_555 1_555
C58 C73 1_555 1_555
C59 C76 1_555 1_555
C59 C81 1_555 1_555
C60 C86 1_555 1_555
C61 C69 1_555 1_555
C62 C72 1_555 1_555
C65 C84 1_555 1_555
C66 C79 1_555 1_555
C67 C88 1_555 1_555
C69 C81 1_555 1_555
C71 C87 1_555 1_555
C74 C78 1_555 1_555
C75 C89 1_555 1_555
C79 C88 1_555 1_555
C80 C83 1_555 1_555
C80 C91 1_555 1_555
C82 C89 1_555 1_555
C84 C86 1_555 1_555
C85 C90 1_555 1_555
C87 C91 1_555 1_555

#END
