
#######################################################################
#
#                 Cambridge Crystallographic Data Centre
#                                CCDC 
#
#######################################################################
#
# If this CIF has been generated from an entry in the Cambridge 
# Structural Database, then it will include bibliographic, chemical, 
# crystal, experimental, refinement or atomic coordinate data resulting 
# from the CCDC's data processing and validation procedures.
#
#######################################################################

data_YITROL
_chemical_formula_moiety         'C12 H11 N1 O2 S1'
_chemical_name_systematic        "[1,1'-biphenyl]-2-sulfonamide"
_symmetry_cell_setting           monoclinic
_symmetry_space_group_name_H-M   'P 21/c'
_symmetry_Int_Tables_number      14
_space_group_name_Hall           '-P 2ybc'
loop_
_symmetry_equiv_pos_site_id
_symmetry_equiv_pos_as_xyz
1 x,y,z
2 -x,1/2+y,1/2-z
3 -x,-y,-z
4 x,1/2-y,1/2+z
_cell_length_a                   11.1231(2)
_cell_length_b                   11.9525(2)
_cell_length_c                   8.55770(10)
_cell_angle_alpha                90
_cell_angle_beta                 99.993(2)
_cell_angle_gamma                90
_cell_volume                     1120.48
_exptl_crystal_colour            'light colorless'
_exptl_crystal_description       block
_cell_formula_units_Z            4
loop_
_atom_site_label
_atom_site_type_symbol
_atom_site_fract_x
_atom_site_fract_y
_atom_site_fract_z
S1 S 0.83082(4) 0.38960(3) 0.55548(4)
O1 O 0.86675(12) 0.49980(11) 0.60912(14)
O2 O 0.83564(15) 0.30396(14) 0.67256(18)
N1 N 0.91655(13) 0.35494(14) 0.43223(19)
H1 H 0.956046 0.292790 0.443854
H2 H 0.923283 0.398399 0.354117
C1 C 0.47237(19) 0.32202(19) 0.4475(3)
H3 H 0.416771 0.280199 0.492715
C2 C 0.67677(15) 0.38979(13) 0.45312(19)
C3 C 0.59352(19) 0.32826(16) 0.5222(2)
H4 H 0.618898 0.291456 0.618014
C4 C 0.43498(19) 0.37703(19) 0.3083(3)
H5 H 0.353711 0.373307 0.259003
C5 C 0.51762(17) 0.43837(17) 0.2402(2)
H6 H 0.490557 0.475471 0.145116
C6 C 0.64084(15) 0.44645(14) 0.30994(19)
C7 C 0.72399(14) 0.51113(14) 0.22447(18)
C8 C 0.77254(18) 0.61381(15) 0.2778(2)
H7 H 0.755714 0.643198 0.372291
C9 C 0.8457(2) 0.67301(18) 0.1919(2)
H8 H 0.876478 0.742452 0.228063
C10 C 0.87340(19) 0.63010(19) 0.0537(2)
H9 H 0.923364 0.669877 -0.003084
C11 C 0.8265(2) 0.5273(2) -0.0006(2)
H10 H 0.845960 0.497373 -0.093371
C12 C 0.75110(19) 0.46924(16) 0.0825(2)
H11 H 0.717893 0.401282 0.043509
loop_
_geom_bond_atom_site_label_1
_geom_bond_atom_site_label_2
_geom_bond_site_symmetry_1
_geom_bond_site_symmetry_2
S1 O1 1_555 1_555
O2 S1 1_555 1_555
N1 S1 1_555 1_555
H1 N1 1_555 1_555
H2 N1 1_555 1_555
C1 H3 1_555 1_555
C2 S1 1_555 1_555
C3 C1 1_555 1_555
H4 C3 1_555 1_555
C4 C1 1_555 1_555
H5 C4 1_555 1_555
C5 C4 1_555 1_555
H6 C5 1_555 1_555
C6 C2 1_555 1_555
C7 C6 1_555 1_555
C8 C7 1_555 1_555
H7 C8 1_555 1_555
C9 C8 1_555 1_555
H8 C9 1_555 1_555
C10 C9 1_555 1_555
H9 C10 1_555 1_555
C11 C10 1_555 1_555
H10 C11 1_555 1_555
C12 C7 1_555 1_555
H11 C12 1_555 1_555
C2 C3 1_555 1_555
C5 C6 1_555 1_555
C11 C12 1_555 1_555

#END
