
#######################################################################
#
#                 Cambridge Crystallographic Data Centre
#                                CCDC 
#
#######################################################################
#
# If this CIF has been generated from an entry in the Cambridge 
# Structural Database, then it will include bibliographic, chemical, 
# crystal, experimental, refinement or atomic coordinate data resulting 
# from the CCDC's data processing and validation procedures.
#
#######################################################################

data_YITVEF
_chemical_formula_moiety         'C54 H38 N4'
_chemical_name_systematic        
1,4,5-triphenyl-2-(2'-(1,4,5-triphenyl-1H-imidazol-2-yl)biphenyl-2-yl)-1H-imidazole
_symmetry_cell_setting           triclinic
_symmetry_space_group_name_H-M   'P -1'
_symmetry_Int_Tables_number      2
_space_group_name_Hall           '-P 1'
loop_
_symmetry_equiv_pos_site_id
_symmetry_equiv_pos_as_xyz
1 x,y,z
2 -x,-y,-z
_cell_length_a                   13.224(3)
_cell_length_b                   16.378(3)
_cell_length_c                   20.907(4)
_cell_angle_alpha                106.65(3)
_cell_angle_beta                 96.56(3)
_cell_angle_gamma                106.17(3)
_cell_volume                     4072.93
_exptl_crystal_colour            white
_exptl_crystal_description       block
_cell_formula_units_Z            4
loop_
_atom_site_label
_atom_site_type_symbol
_atom_site_fract_x
_atom_site_fract_y
_atom_site_fract_z
C1 C 0.78100(16) 0.84852(13) 0.26359(10)
C2 C 0.47256(15) 0.70851(12) 0.32041(9)
C3 C 0.88597(16) 0.85249(13) 0.29809(10)
C4 C 0.54330(15) 0.77963(13) 0.38255(9)
C5 C 0.50549(15) 0.90054(12) 0.33879(10)
C6 C 0.55892(15) 0.87001(13) 0.39010(9)
C7 C 0.40491(15) 0.58206(12) 0.23131(9)
C8 C 0.53542(16) 0.89986(12) 0.27624(10)
C9 C 0.57570(16) 0.59872(13) 0.30727(10)
C10 C 0.34041(15) 0.63494(12) 0.23313(9)
C11 C 0.48052(18) 0.93179(14) 0.23338(11)
H1 H 0.5009 0.9326 0.1924
C12 C 0.55441(17) 0.79771(14) 0.12988(10)
C13 C 0.24412(16) 0.62482(14) 0.18462(10)
C14 C 0.39972(16) 0.49583(13) 0.18132(10)
C15 C 0.76899(16) 0.76962(14) 0.13439(10)
C16 C 0.93390(19) 0.91569(15) 0.36203(11)
H2 H 0.8972 0.9530 0.3832
C17 C 0.62660(16) 0.87015(12) 0.25743(10)
C18 C 0.42164(18) 0.93309(14) 0.35473(11)
H3 H 0.4019 0.9347 0.3963
C19 C 0.59366(17) 0.75845(16) 0.43517(10)
H4 H 0.5823 0.6983 0.4309
C20 C 0.73273(16) 0.81357(13) 0.19586(10)
C21 C 0.68048(17) 0.64780(15) 0.31171(11)
H5 H 0.6961 0.6996 0.2995
C22 C 0.65955(18) 0.82481(19) 0.49307(11)
H6 H 0.6937 0.8095 0.5271
C23 C 0.36710(19) 0.96285(15) 0.31137(12)
H7 H 0.3106 0.9833 0.3231
C24 C 0.94210(19) 0.79594(17) 0.26939(12)
H8 H 0.9122 0.7522 0.2266
C25 C 0.62402(18) 0.93555(15) 0.45004(11)
H9 H 0.6335 0.9959 0.4561
C26 C 0.84256(19) 0.82127(17) 0.10736(12)
H10 H 0.8668 0.8838 0.1269
C27 C 0.39672(19) 0.96223(15) 0.25026(12)
H11 H 0.3603 0.9823 0.2205
C28 C 0.67484(19) 0.91342(19) 0.50064(11)
H12 H 0.7194 0.9586 0.5398
C29 C 0.20905(18) 0.69809(16) 0.19070(11)
H13 H 0.2454 0.7520 0.2260
C30 C 0.55167(19) 0.52068(15) 0.32399(11)
H14 H 0.4805 0.4876 0.3208
C31 C 0.7352(2) 0.67785(16) 0.10456(12)
H15 H 0.6864 0.6417 0.1220
C32 C 1.0415(2) 0.80414(19) 0.30380(13)
H16 H 1.0772 0.7651 0.2841
C33 C 0.8458(2) 0.6908(2) 0.02338(12)
H17 H 0.8719 0.6641 -0.0138
C34 C 0.1212(2) 0.69283(19) 0.14537(12)
H18 H 0.0985 0.7428 0.1507
C35 C 1.0346(2) 0.92474(17) 0.39517(12)
H19 H 1.0659 0.9695 0.4374
C36 C 0.46026(19) 0.72863(16) 0.11928(11)
H20 H 0.4489 0.7001 0.1517
C37 C 0.5722(2) 0.83942(17) 0.08155(12)
H21 H 0.6356 0.8862 0.0882
C38 C 0.46387(19) 0.49292(18) 0.13438(12)
H22 H 0.5128 0.5458 0.1338
C39 C 0.3264(2) 0.41523(14) 0.17994(12)
H23 H 0.2820 0.4164 0.2114
C40 C 0.1881(2) 0.54628(17) 0.13125(12)
H24 H 0.2096 0.4957 0.1257
C41 C 1.0890(2) 0.86899(18) 0.36682(13)
H25 H 1.1566 0.8746 0.3895
C42 C 0.7385(2) 0.5417(2) 0.35078(15)
H26 H 0.7939 0.5225 0.3656
C43 C 0.0680(2) 0.6156(2) 0.09349(13)
H27 H 0.0091 0.6125 0.0628
C44 C 0.4924(3) 0.8096(2) 0.02239(13)
H28 H 0.5034 0.8364 -0.0110
C45 C 0.7731(2) 0.63820(19) 0.04868(13)
H29 H 0.7490 0.5758 0.0284
C46 C 0.8800(2) 0.7814(2) 0.05218(13)
H30 H 0.9292 0.8169 0.0345
C47 C 0.7624(2) 0.6194(2) 0.33448(13)
H31 H 0.8338 0.6529 0.3388
C48 C 0.6341(2) 0.49272(19) 0.34531(14)
H32 H 0.6187 0.4399 0.3561
C49 C 0.3831(3) 0.3329(2) 0.08870(16)
H33 H 0.3784 0.2776 0.0579
C50 C 0.3824(2) 0.7014(2) 0.06042(13)
H34 H 0.3185 0.6551 0.0537
C51 C 0.1009(2) 0.5420(2) 0.08616(14)
H35 H 0.0640 0.4886 0.0504
C52 C 0.3183(3) 0.33507(17) 0.13369(15)
H36 H 0.2684 0.2820 0.1332
C53 C 0.4553(2) 0.4093(2) 0.08684(15)
H37 H 0.4984 0.4063 0.0547
C54 C 0.3985(3) 0.7417(3) 0.01273(13)
H38 H 0.3457 0.7232 -0.0266
N1 N 0.38318(13) 0.71283(10) 0.28918(8)
N2 N 0.48952(12) 0.62954(10) 0.28743(8)
N3 N 0.71447(13) 0.88402(10) 0.30111(8)
N4 N 0.63322(13) 0.82699(11) 0.19175(8)
C55 C 1.01837(15) 0.29582(12) 0.19064(9)
C56 C 0.83918(16) 0.11245(12) 0.22483(10)
C57 C 0.57700(16) 0.12426(13) 0.18267(10)
C58 C 0.68269(16) 0.13037(13) 0.21751(10)
C59 C 0.69518(16) 0.20847(13) 0.34791(10)
C60 C 0.72941(15) 0.16419(13) 0.28569(10)
C61 C 0.90182(16) 0.17134(13) 0.35335(10)
C62 C 0.91099(16) 0.40259(13) 0.21022(9)
C63 C 1.08001(15) 0.41427(12) 0.28582(9)
C64 C 0.93310(15) 0.08560(12) 0.20791(10)
C65 C 0.97511(15) 0.09774(12) 0.15154(9)
C66 C 0.97870(18) 0.04414(14) 0.24716(11)
H39 H 0.9503 0.0353 0.2843
C67 C 1.14284(15) 0.36010(12) 0.28231(10)
C68 C 0.95447(15) 0.23411(13) 0.12291(9)
C69 C 0.93302(15) 0.14074(13) 0.10501(9)
C70 C 1.08463(17) 0.49875(13) 0.33722(10)
C71 C 1.23490(16) 0.36611(13) 0.33209(10)
C72 C 0.91694(17) 0.26816(16) 0.07394(10)
H40 H 0.9314 0.3301 0.0851
C73 C 1.06460(19) 0.01585(15) 0.23264(12)
H41 H 1.0947 -0.0107 0.2601
C74 C 0.53202(18) 0.06346(15) 0.11781(11)
H42 H 0.5709 0.0288 0.0959
C75 C 0.73943(18) 0.29997(14) 0.38129(11)
H43 H 0.7904 0.3348 0.3642
C76 C 0.87547(18) 0.08622(16) 0.03974(10)
H44 H 0.8616 0.0242 0.0270
C77 C 0.8692(2) 0.12387(15) 0.39613(11)
H45 H 0.8004 0.0819 0.3848
C78 C 0.61912(19) 0.15894(16) 0.37420(12)
H46 H 0.5875 0.0971 0.3521
C79 C 1.06072(18) 0.06696(15) 0.13720(11)
H47 H 1.0885 0.0735 0.0994
C80 C 0.51737(19) 0.17645(17) 0.21250(12)
H48 H 0.5460 0.2188 0.2560
C81 C 0.6348(2) 0.2902(2) 0.46599(12)
H49 H 0.6156 0.3176 0.5061
C82 C 0.80731(17) 0.34831(15) 0.20268(10)
H50 H 0.7943 0.2934 0.2103
C83 C 1.10547(19) 0.02717(16) 0.17734(12)
H51 H 1.1634 0.0080 0.1669
C84 C 0.8383(2) 0.12201(19) -0.00681(11)
H52 H 0.7986 0.0839 -0.0499
C85 C 1.00300(19) 0.23392(16) 0.37001(12)
H53 H 1.0245 0.2672 0.3417
C86 C 1.2786(2) 0.43591(16) 0.39385(12)
H54 H 1.2515 0.4837 0.4043
C87 C 0.9374(3) 0.1382(2) 0.45490(13)
H55 H 0.9147 0.1066 0.4840
C88 C 0.85952(19) 0.21240(19) 0.01003(11)
H56 H 0.8352 0.2364 -0.0216
C89 C 1.27891(19) 0.29752(16) 0.31834(12)
H57 H 1.2516 0.2498 0.2773
C90 C 0.7227(2) 0.37609(19) 0.18369(13)
H58 H 0.6522 0.3395 0.1778
C91 C 0.9306(2) 0.48450(15) 0.20029(12)
H59 H 1.0010 0.5214 0.2061
C92 C 0.4168(2) 0.1668(2) 0.17906(14)
H60 H 0.3784 0.2027 0.2000
C93 C 0.4303(2) 0.05289(18) 0.08461(13)
H61 H 0.4007 0.0103 0.0413
C94 C 0.7089(2) 0.34041(18) 0.43979(12)
H62 H 0.7389 0.4024 0.4616
C95 C 0.3732(2) 0.1050(2) 0.11534(14)
H63 H 0.3049 0.0983 0.0929
C96 C 1.0392(3) 0.1989(2) 0.47161(13)
H64 H 1.0860 0.2076 0.5116
C97 C 1.3630(2) 0.29880(19) 0.36469(14)
H65 H 1.3925 0.2525 0.3541
C98 C 1.4034(2) 0.3671(2) 0.42583(14)
H66 H 1.4588 0.3667 0.4573
C99 C 0.5894(2) 0.2002(2) 0.43315(13)
H67 H 0.5380 0.1660 0.4504
C100 C 1.1567(2) 0.57987(15) 0.33933(13)
H68 H 1.2002 0.5798 0.3074
C101 C 0.8458(2) 0.51131(18) 0.18182(14)
H69 H 0.8587 0.5666 0.1749
C102 C 1.3615(2) 0.43561(19) 0.44002(14)
H70 H 1.3892 0.4828 0.4813
C103 C 1.0724(2) 0.2468(2) 0.42938(14)
H71 H 1.1416 0.2880 0.4407
C104 C 1.0216(2) 0.4992(2) 0.38436(13)
H72 H 0.9741 0.4456 0.3848
C105 C 1.1019(4) 0.6609(3) 0.4326(2)
H73 H 1.1074 0.7156 0.4646
C106 C 0.7426(2) 0.4575(2) 0.17343(15)
H74 H 0.6855 0.4762 0.1607
C107 C 1.1652(4) 0.65917(19) 0.38660(19)
H75 H 1.2148 0.7125 0.3872
C108 C 1.0295(3) 0.5829(3) 0.43285(17)
H76 H 0.9856 0.5847 0.4646
N5 N 1.10393(13) 0.28732(10) 0.22281(8)
N6 N 0.99937(12) 0.37260(10) 0.22701(8)
N7 N 0.75196(13) 0.09820(11) 0.18011(8)
N8 N 0.82976(13) 0.15316(10) 0.29048(8)
loop_
_geom_bond_atom_site_label_1
_geom_bond_atom_site_label_2
_geom_bond_site_symmetry_1
_geom_bond_site_symmetry_2
C1 C3 1_555 1_555
C2 C4 1_555 1_555
C3 C16 1_555 1_555
C4 C6 1_555 1_555
C5 C6 1_555 1_555
C6 C25 1_555 1_555
C7 C10 1_555 1_555
C8 C5 1_555 1_555
C9 C21 1_555 1_555
C10 C13 1_555 1_555
C11 C8 1_555 1_555
H1 C11 1_555 1_555
C12 C36 1_555 1_555
C13 C29 1_555 1_555
C14 C7 1_555 1_555
C15 C20 1_555 1_555
C16 H2 1_555 1_555
C17 C8 1_555 1_555
C18 C5 1_555 1_555
H3 C18 1_555 1_555
C19 C4 1_555 1_555
H4 C19 1_555 1_555
C20 C1 1_555 1_555
C21 H5 1_555 1_555
C22 C19 1_555 1_555
H6 C22 1_555 1_555
C23 C18 1_555 1_555
H7 C23 1_555 1_555
C24 C3 1_555 1_555
H8 C24 1_555 1_555
C25 H9 1_555 1_555
C26 C15 1_555 1_555
H10 C26 1_555 1_555
C27 C11 1_555 1_555
H11 C27 1_555 1_555
C28 C22 1_555 1_555
H12 C28 1_555 1_555
C29 H13 1_555 1_555
C30 C9 1_555 1_555
H14 C30 1_555 1_555
C31 C15 1_555 1_555
H15 C31 1_555 1_555
C32 C24 1_555 1_555
H16 C32 1_555 1_555
C33 H17 1_555 1_555
C34 C29 1_555 1_555
H18 C34 1_555 1_555
C35 C16 1_555 1_555
H19 C35 1_555 1_555
C36 H20 1_555 1_555
C37 C12 1_555 1_555
H21 C37 1_555 1_555
C38 C14 1_555 1_555
H22 C38 1_555 1_555
C39 C14 1_555 1_555
H23 C39 1_555 1_555
C40 C13 1_555 1_555
H24 C40 1_555 1_555
C41 C32 1_555 1_555
H25 C41 1_555 1_555
C42 H26 1_555 1_555
C43 C34 1_555 1_555
H27 C43 1_555 1_555
C44 C37 1_555 1_555
H28 C44 1_555 1_555
C45 C31 1_555 1_555
H29 C45 1_555 1_555
C46 C26 1_555 1_555
H30 C46 1_555 1_555
C47 C21 1_555 1_555
H31 C47 1_555 1_555
C48 C30 1_555 1_555
H32 C48 1_555 1_555
C49 H33 1_555 1_555
C50 C36 1_555 1_555
H34 C50 1_555 1_555
C51 C40 1_555 1_555
H35 C51 1_555 1_555
C52 C39 1_555 1_555
H36 C52 1_555 1_555
C53 C38 1_555 1_555
H37 C53 1_555 1_555
C54 C44 1_555 1_555
H38 C54 1_555 1_555
N1 C2 1_555 1_555
N2 C2 1_555 1_555
N3 C1 1_555 1_555
N4 C12 1_555 1_555
C55 C68 1_555 1_555
C56 C64 1_555 1_555
C57 C58 1_555 1_555
C58 C60 1_555 1_555
C59 C60 1_555 1_555
C60 N8 1_555 1_555
C61 C77 1_555 1_555
C62 C82 1_555 1_555
C63 C67 1_555 1_555
C64 C65 1_555 1_555
C65 C69 1_555 1_555
C66 C64 1_555 1_555
H39 C66 1_555 1_555
C67 C71 1_555 1_555
C68 C69 1_555 1_555
C69 C76 1_555 1_555
C70 C63 1_555 1_555
C71 C86 1_555 1_555
C72 C68 1_555 1_555
H40 C72 1_555 1_555
C73 C66 1_555 1_555
H41 C73 1_555 1_555
C74 C57 1_555 1_555
H42 C74 1_555 1_555
C75 C59 1_555 1_555
H43 C75 1_555 1_555
C76 H44 1_555 1_555
C77 H45 1_555 1_555
C78 C59 1_555 1_555
H46 C78 1_555 1_555
C79 C65 1_555 1_555
H47 C79 1_555 1_555
C80 C57 1_555 1_555
H48 C80 1_555 1_555
C81 H49 1_555 1_555
C82 H50 1_555 1_555
C83 C73 1_555 1_555
H51 C83 1_555 1_555
C84 C76 1_555 1_555
H52 C84 1_555 1_555
C85 C61 1_555 1_555
H53 C85 1_555 1_555
C86 H54 1_555 1_555
C87 C77 1_555 1_555
H55 C87 1_555 1_555
C88 C72 1_555 1_555
H56 C88 1_555 1_555
C89 C71 1_555 1_555
H57 C89 1_555 1_555
C90 C82 1_555 1_555
H58 C90 1_555 1_555
C91 C62 1_555 1_555
H59 C91 1_555 1_555
C92 C80 1_555 1_555
H60 C92 1_555 1_555
C93 C74 1_555 1_555
H61 C93 1_555 1_555
C94 C75 1_555 1_555
H62 C94 1_555 1_555
C95 C92 1_555 1_555
H63 C95 1_555 1_555
C96 C87 1_555 1_555
H64 C96 1_555 1_555
C97 C89 1_555 1_555
H65 C97 1_555 1_555
C98 C97 1_555 1_555
H66 C98 1_555 1_555
C99 C78 1_555 1_555
H67 C99 1_555 1_555
C100 C70 1_555 1_555
H68 C100 1_555 1_555
C101 C91 1_555 1_555
H69 C101 1_555 1_555
C102 C86 1_555 1_555
H70 C102 1_555 1_555
C103 C85 1_555 1_555
H71 C103 1_555 1_555
C104 C70 1_555 1_555
H72 C104 1_555 1_555
C105 H73 1_555 1_555
C106 C90 1_555 1_555
H74 C106 1_555 1_555
C107 C100 1_555 1_555
H75 C107 1_555 1_555
C108 C104 1_555 1_555
H76 C108 1_555 1_555
N5 C55 1_555 1_555
N6 C55 1_555 1_555
N7 C56 1_555 1_555
N8 C56 1_555 1_555
C7 N2 1_555 1_555
C9 N2 1_555 1_555
C10 N1 1_555 1_555
C17 N3 1_555 1_555
C17 N4 1_555 1_555
C20 N4 1_555 1_555
C23 C27 1_555 1_555
C25 C28 1_555 1_555
C33 C45 1_555 1_555
C33 C46 1_555 1_555
C35 C41 1_555 1_555
C42 C47 1_555 1_555
C42 C48 1_555 1_555
C43 C51 1_555 1_555
C49 C52 1_555 1_555
C49 C53 1_555 1_555
C50 C54 1_555 1_555
C58 N7 1_555 1_555
C61 N8 1_555 1_555
C62 N6 1_555 1_555
C63 N6 1_555 1_555
C67 N5 1_555 1_555
C79 C83 1_555 1_555
C81 C94 1_555 1_555
C81 C99 1_555 1_555
C84 C88 1_555 1_555
C93 C95 1_555 1_555
C96 C103 1_555 1_555
C98 C102 1_555 1_555
C101 C106 1_555 1_555
C105 C107 1_555 1_555
C105 C108 1_555 1_555

#END
