
#######################################################################
#
#                 Cambridge Crystallographic Data Centre
#                                CCDC 
#
#######################################################################
#
# If this CIF has been generated from an entry in the Cambridge 
# Structural Database, then it will include bibliographic, chemical, 
# crystal, experimental, refinement or atomic coordinate data resulting 
# from the CCDC's data processing and validation procedures.
#
#######################################################################

data_YIVFEQ
_chemical_formula_moiety         'C20 H32 O1'
_chemical_name_systematic        
2-(but-3-en-1-yl)-6-isopropyl-3-methyl-9-methylenebicyclo[5.3.1]undecan-11-one
_symmetry_cell_setting           triclinic
_symmetry_space_group_name_H-M   'P -1'
_symmetry_Int_Tables_number      2
_space_group_name_Hall           '-P 1'
loop_
_symmetry_equiv_pos_site_id
_symmetry_equiv_pos_as_xyz
1 x,y,z
2 -x,-y,-z
_cell_length_a                   9.401(4)
_cell_length_b                   9.421(4)
_cell_length_c                   10.588(5)
_cell_angle_alpha                108.301(10)
_cell_angle_beta                 93.150(9)
_cell_angle_gamma                94.391(10)
_cell_volume                     884.605
_exptl_crystal_colour            colorless
_exptl_crystal_description       prismatic
_cell_formula_units_Z            2
loop_
_atom_site_label
_atom_site_type_symbol
_atom_site_fract_x
_atom_site_fract_y
_atom_site_fract_z
O1 O 0.9653(2) 0.5066(2) 0.2341(2)
C1 C 0.8642(3) 0.5724(3) 0.2237(3)
C2 C 0.7477(3) 0.5137(3) 0.1110(2)
H1 H 0.6621 0.5588 0.1473
C3 C 0.7936(3) 0.5961(3) 0.0134(3)
H2 H 0.8798 0.5586 -0.0256
H3 H 0.7187 0.5787 -0.0581
C4 C 0.8213(3) 0.7627(3) 0.0887(3)
C5 C 0.7758(3) 0.8126(3) 0.2288(3)
H4 H 0.6723 0.7971 0.2260
H5 H 0.8044 0.9191 0.2701
C6 C 0.8436(3) 0.7246(3) 0.3138(3)
H6 H 0.9375 0.7765 0.3539
C7 C 0.7530(3) 0.7053(3) 0.4262(2)
H7 H 0.7116 0.8005 0.4638
C8 C 0.6262(3) 0.5831(3) 0.3767(3)
H8 H 0.5720 0.6033 0.3046
H9 H 0.5643 0.5948 0.4489
C9 C 0.6572(3) 0.4166(3) 0.3265(3)
H10 H 0.7595 0.4145 0.3424
H11 H 0.6110 0.3669 0.3831
C10 C 0.6137(3) 0.3192(3) 0.1805(3)
H12 H 0.5167 0.3399 0.1578
C11 C 0.7094(3) 0.3459(3) 0.0739(3)
H13 H 0.7979 0.2988 0.0795
C12 C 0.8864(5) 0.8564(4) 0.0377(4)
H14 H 0.9060 0.9572 0.0881
H15 H 0.9133 0.8224 -0.0492
C13 C 0.8483(3) 0.6838(3) 0.5411(3)
H16 H 0.9035 0.5986 0.5027
C14 C 0.9539(4) 0.8206(5) 0.6095(3)
H17 H 0.9026 0.9068 0.6446
H18 H 1.0164 0.8381 0.5461
H19 H 1.0095 0.8032 0.6811
C15 C 0.7610(4) 0.6481(5) 0.6462(3)
H20 H 0.7005 0.7266 0.6806
H21 H 0.8245 0.6409 0.7176
H22 H 0.7030 0.5544 0.6066
C16 C 0.6059(5) 0.1555(4) 0.1748(4)
H23 H 0.6977 0.1337 0.2041
H24 H 0.5794 0.0921 0.0847
H25 H 0.5357 0.1373 0.2318
C17 C 0.6361(3) 0.2739(3) -0.0671(3)
H26 H 0.5711 0.1885 -0.0680
H27 H 0.5795 0.3461 -0.0891
C18 C 0.7390(4) 0.2218(4) -0.1734(3)
H28 H 0.8016 0.3079 -0.1750
H29 H 0.7981 0.1526 -0.1497
C19 C 0.6672(5) 0.1473(4) -0.3084(3)
H30 H 0.6005 0.0677 -0.3119
C20 C 0.676(4) 0.168(3) -0.4208(14)
H31 H 0.7344 0.2490 -0.4274
H32 H 0.6251 0.1009 -0.4966
H33? H 0.5979 0.0615 -0.3275
C21? C 0.705(6) 0.206(5) -0.397(2)
H34? H 0.6695 0.1622 -0.4858
H35? H 0.7685 0.2931 -0.3728
loop_
_geom_bond_atom_site_label_1
_geom_bond_atom_site_label_2
_geom_bond_site_symmetry_1
_geom_bond_site_symmetry_2
O1 C1 1_555 1_555
C1 C2 1_555 1_555
C2 H1 1_555 1_555
C3 C2 1_555 1_555
H2 C3 1_555 1_555
H3 C3 1_555 1_555
C4 C3 1_555 1_555
C5 C4 1_555 1_555
H4 C5 1_555 1_555
H5 C5 1_555 1_555
C6 C1 1_555 1_555
H6 C6 1_555 1_555
C7 C6 1_555 1_555
H7 C7 1_555 1_555
C8 C7 1_555 1_555
H8 C8 1_555 1_555
H9 C8 1_555 1_555
C9 C8 1_555 1_555
H10 C9 1_555 1_555
H11 C9 1_555 1_555
C10 C9 1_555 1_555
H12 C10 1_555 1_555
C11 C2 1_555 1_555
H13 C11 1_555 1_555
C12 C4 1_555 1_555
H14 C12 1_555 1_555
H15 C12 1_555 1_555
C13 C7 1_555 1_555
H16 C13 1_555 1_555
C14 C13 1_555 1_555
H17 C14 1_555 1_555
H18 C14 1_555 1_555
H19 C14 1_555 1_555
C15 C13 1_555 1_555
H20 C15 1_555 1_555
H21 C15 1_555 1_555
H22 C15 1_555 1_555
C16 C10 1_555 1_555
H23 C16 1_555 1_555
H24 C16 1_555 1_555
H25 C16 1_555 1_555
C17 C11 1_555 1_555
H26 C17 1_555 1_555
H27 C17 1_555 1_555
C18 C17 1_555 1_555
H28 C18 1_555 1_555
H29 C18 1_555 1_555
C19 C18 1_555 1_555
H30 C19 1_555 1_555
C20 C19 1_555 1_555
H31 C20 1_555 1_555
H32 C20 1_555 1_555
C5 C6 1_555 1_555
C10 C11 1_555 1_555

#END
