
#######################################################################
#
#                 Cambridge Crystallographic Data Centre
#                                CCDC 
#
#######################################################################
#
# If this CIF has been generated from an entry in the Cambridge 
# Structural Database, then it will include bibliographic, chemical, 
# crystal, experimental, refinement or atomic coordinate data resulting 
# from the CCDC's data processing and validation procedures.
#
#######################################################################

data_YIVHER
_chemical_formula_moiety         'C11 H5 F6 I1 O6'
_chemical_name_systematic        '3-(bis(Trifluoroacetoxy)iodo)benzoic acid'
_symmetry_cell_setting           triclinic
_symmetry_space_group_name_H-M   'P -1'
_symmetry_Int_Tables_number      2
_space_group_name_Hall           '-P 1'
loop_
_symmetry_equiv_pos_site_id
_symmetry_equiv_pos_as_xyz
1 x,y,z
2 -x,-y,-z
_cell_length_a                   14.302(3)
_cell_length_b                   15.142(3)
_cell_length_c                   17.101(3)
_cell_angle_alpha                97.53(3)
_cell_angle_beta                 101.25(3)
_cell_angle_gamma                90.66(3)
_cell_volume                     3598.3
_exptl_crystal_colour            colorless
_exptl_crystal_description       block
_chemical_melting_point          125-127deg.C(dec.)
_cell_formula_units_Z            10
loop_
_atom_site_label
_atom_site_type_symbol
_atom_site_fract_x
_atom_site_fract_y
_atom_site_fract_z
I1 I 0.02336(2) 0.356078(19) 0.319533(17)
F1 F -0.0246(5) 0.1415(4) 0.4904(4)
F2 F 0.0311(4) 0.0699(3) 0.3915(3)
F3 F 0.1199(3) 0.1050(3) 0.5061(2)
F4 F 0.1071(4) 0.6476(3) 0.2028(3)
F5 F -0.0387(3) 0.6048(3) 0.1705(3)
F6 F 0.0662(4) 0.5351(3) 0.1131(3)
O1 O 0.0362(3) 0.0817(2) 0.0830(2)
H1 H 0.0573 0.0764 0.0401
O2 O -0.1099(3) 0.0367(2) 0.01239(18)
O3 O -0.0021(3) 0.2528(3) 0.3887(2)
O4 O 0.1548(4) 0.2543(4) 0.4457(4)
O5 O 0.1021(4) 0.5409(3) 0.3154(3)
O6 O 0.0185(3) 0.4393(2) 0.2236(2)
C1 C -0.0690(5) 0.2765(4) 0.2273(3)
C2 C -0.0287(4) 0.2098(3) 0.1817(3)
H2 H 0.0378 0.2003 0.1921
C3 C -0.1658(4) 0.2940(3) 0.2139(3)
H3 H -0.1890 0.3415 0.2461
C4 C -0.0926(4) 0.1574(3) 0.1196(3)
C5 C -0.2296(5) 0.2394(3) 0.1510(3)
H4 H -0.2962 0.2488 0.1408
C6 C -0.1910(4) 0.1722(4) 0.1051(3)
H5 H -0.2322 0.1352 0.0629
C7 C -0.0545(4) 0.0853(3) 0.0665(3)
C8 C 0.0749(5) 0.2227(4) 0.4284(4)
C9 C 0.0473(7) 0.1329(5) 0.4563(4)
C10 C 0.0613(4) 0.5164(4) 0.2496(3)
C11 C 0.0474(5) 0.5772(4) 0.1823(4)
I2 I 0.22343(2) 0.356020(19) 0.119516(16)
F7 F 0.1752(5) 0.1406(4) 0.2897(4)
F8 F 0.2308(3) 0.0699(3) 0.1908(3)
F9 F 0.3196(3) 0.1051(3) 0.3062(2)
F10 F 0.1612(3) 0.6039(3) -0.0303(3)
F11 F 0.2661(4) 0.5357(3) -0.0872(3)
F12 F 0.3075(4) 0.6476(3) 0.0023(3)
O7 O 0.0903(3) 0.0366(2) -0.18714(19)
O8 O 0.2359(3) 0.0820(2) -0.1165(2)
H6 H 0.2575 0.0760 -0.1591
O9 O 0.3544(4) 0.2545(5) 0.2455(3)
O10 O 0.1979(3) 0.2528(3) 0.1882(2)
O11 O 0.3028(4) 0.5410(3) 0.1156(3)
O12 O 0.2182(3) 0.4384(2) 0.0235(2)
C12 C 0.1315(4) 0.2765(3) 0.0281(3)
C13 C 0.0338(4) 0.2942(3) 0.0144(3)
H7 H 0.0102 0.3414 0.0466
C14 C -0.0289(5) 0.2395(4) -0.0490(3)
H8 H -0.0954 0.2494 -0.0595
C15 C 0.0088(4) 0.1709(4) -0.0957(3)
H9 H -0.0324 0.1339 -0.1379
C16 C 0.1081(4) 0.1568(3) -0.0804(3)
C17 C 0.1701(4) 0.2096(3) -0.0186(3)
H10 H 0.2367 0.2002 -0.0086
C18 C 0.1462(4) 0.0853(3) -0.1335(3)
C19 C 0.2735(5) 0.2217(4) 0.2282(4)
C20 C 0.2477(7) 0.1319(5) 0.2548(4)
C21 C 0.2615(5) 0.5161(4) 0.0496(4)
C22 C 0.2468(5) 0.5768(4) -0.0167(4)
I3 I 0.57658(2) 0.643930(19) 0.080502(16)
F13 F 0.6245(5) 0.8597(4) -0.0895(4)
F14 F 0.5688(4) 0.9302(3) 0.0090(3)
F15 F 0.4801(3) 0.8950(3) -0.1063(2)
F16 F 0.4923(4) 0.3525(3) 0.1972(3)
F17 F 0.6385(3) 0.3951(3) 0.2296(3)
F18 F 0.5349(4) 0.4649(3) 0.2874(3)
O13 O 0.5634(3) 0.9179(3) 0.3170(2)
H11 H 0.5428 0.9287 0.3599
O14 O 0.6014(3) 0.7471(3) 0.0121(2)
O15 O 0.7105(3) 0.9634(2) 0.38723(18)
O16 O 0.4447(4) 0.7454(4) -0.0454(4)
O17 O 0.4983(4) 0.4590(3) 0.0847(3)
O18 O 0.5819(3) 0.5607(2) 0.1760(2)
C23 C 0.6696(4) 0.7231(3) 0.1725(3)
C24 C 0.7666(4) 0.7066(3) 0.1857(3)
H12 H 0.7901 0.6602 0.1526
C25 C 0.8295(4) 0.7593(4) 0.2484(3)
H13 H 0.8959 0.7490 0.2597
C26 C 0.7891(4) 0.8285(4) 0.2942(3)
H14 H 0.8302 0.8667 0.3355
C27 C 0.6915(4) 0.8426(3) 0.2807(3)
C28 C 0.6297(4) 0.7904(3) 0.2185(3)
H15 H 0.5631 0.8000 0.2077
C29 C 0.6531(4) 0.9147(3) 0.3332(3)
C30 C 0.5243(5) 0.7782(4) -0.0296(4)
C31 C 0.5519(7) 0.8687(5) -0.0550(4)
C32 C 0.5392(4) 0.4825(4) 0.1504(3)
C33 C 0.5536(5) 0.4226(4) 0.2183(4)
I4 I 0.37654(2) 0.643976(19) 0.280443(16)
F19 F 0.4251(5) 0.8591(4) 0.1104(4)
F20 F 0.3697(3) 0.9303(3) 0.2086(3)
F21 F 0.2801(4) 0.8949(3) 0.0937(2)
F22 F 0.2925(4) 0.3522(3) 0.3971(3)
F23 F 0.4387(3) 0.3956(3) 0.4305(3)
F24 F 0.3346(4) 0.4646(3) 0.4871(3)
O19 O 0.5105(3) 0.9635(2) 0.58686(19)
O20 O 0.3632(3) 0.9184(3) 0.5167(2)
H16 H 0.3419 0.9208 0.5594
O21 O 0.2451(4) 0.7460(4) 0.1548(3)
O22 O 0.4024(3) 0.7466(3) 0.2116(2)
O23 O 0.2979(4) 0.4583(3) 0.2843(3)
O24 O 0.3818(3) 0.5605(3) 0.3757(2)
C34 C 0.4695(4) 0.7244(3) 0.3720(3)
C35 C 0.5672(4) 0.7064(3) 0.3862(3)
H17 H 0.5901 0.6587 0.3541
C36 C 0.6308(5) 0.7595(4) 0.4483(3)
H18 H 0.6973 0.7500 0.4587
C37 C 0.5902(5) 0.8278(4) 0.4944(3)
H19 H 0.6310 0.8646 0.5370
C38 C 0.4921(4) 0.8435(3) 0.4796(3)
C39 C 0.4297(4) 0.7893(3) 0.4191(3)
H20 H 0.3627 0.7965 0.4104
C40 C 0.4527(4) 0.9141(3) 0.5329(3)
C41 C 0.3260(5) 0.7770(4) 0.1724(4)
C42 C 0.3512(7) 0.8679(5) 0.1449(4)
C43 C 0.3379(4) 0.4827(4) 0.3505(3)
C44 C 0.3516(5) 0.4230(4) 0.4170(4)
I5 I 0.17653(2) 0.643951(19) 0.480480(16)
F25 F 0.2241(5) 0.8581(4) 0.3098(4)
F26 F 0.1692(3) 0.9301(3) 0.4092(3)
F27 F 0.0803(3) 0.8949(3) 0.2941(2)
F28 F 0.0922(4) 0.3524(3) 0.5969(3)
F29 F 0.2391(3) 0.3950(3) 0.6295(3)
F30 F 0.1348(4) 0.4651(3) 0.6869(3)
O25 O 0.3101(3) 0.9631(2) 0.78649(19)
O26 O 0.1625(3) 0.9179(3) 0.7174(2)
H21 H 0.1422 0.9281 0.7604
O27 O 0.2011(3) 0.7471(3) 0.4117(2)
O28 O 0.0456(4) 0.7453(4) 0.3539(3)
O29 O 0.0967(4) 0.4589(3) 0.4838(3)
O30 O 0.1807(3) 0.5614(2) 0.5766(2)
C45 C 0.2705(4) 0.7239(3) 0.5730(3)
C46 C 0.3661(4) 0.7055(3) 0.5856(3)
H22 H 0.3889 0.6580 0.5531
C47 C 0.4298(4) 0.7599(3) 0.6487(3)
H23 H 0.4963 0.7501 0.6592
C48 C 0.3914(5) 0.8275(4) 0.6941(3)
H24 H 0.4330 0.8645 0.7361
C49 C 0.2927(4) 0.8437(3) 0.6804(3)
C50 C 0.2300(4) 0.7897(3) 0.6187(3)
H25 H 0.1631 0.7978 0.6088
C51 C 0.2520(4) 0.9144(3) 0.7332(3)
C52 C 0.1258(5) 0.7786(4) 0.3720(4)
C53 C 0.1508(7) 0.8682(5) 0.3450(4)
C54 C 0.1369(4) 0.4835(4) 0.5500(4)
C55 C 0.1514(5) 0.4219(4) 0.6174(4)
loop_
_geom_bond_atom_site_label_1
_geom_bond_atom_site_label_2
_geom_bond_site_symmetry_1
_geom_bond_site_symmetry_2
I1 O3 1_555 1_555
F1 C9 1_555 1_555
F2 C9 1_555 1_555
F3 C9 1_555 1_555
F4 C11 1_555 1_555
F5 C11 1_555 1_555
F6 C11 1_555 1_555
O1 H1 1_555 1_555
O2 C7 1_555 1_555
O3 C8 1_555 1_555
O4 C8 1_555 1_555
O5 C10 1_555 1_555
O6 I1 1_555 1_555
C1 I1 1_555 1_555
C2 C1 1_555 1_555
H2 C2 1_555 1_555
C3 C1 1_555 1_555
H3 C3 1_555 1_555
C4 C2 1_555 1_555
C5 C3 1_555 1_555
H4 C5 1_555 1_555
C6 C4 1_555 1_555
H5 C6 1_555 1_555
C7 O1 1_555 1_555
C8 C9 1_555 1_555
C10 O6 1_555 1_555
C11 C10 1_555 1_555
I2 O10 1_555 1_555
F7 C20 1_555 1_555
F8 C20 1_555 1_555
F9 C20 1_555 1_555
F10 C22 1_555 1_555
F11 C22 1_555 1_555
F12 C22 1_555 1_555
O7 C18 1_555 1_555
O8 H6 1_555 1_555
O9 C19 1_555 1_555
O10 C19 1_555 1_555
O11 C21 1_555 1_555
O12 I2 1_555 1_555
C12 I2 1_555 1_555
C13 C12 1_555 1_555
H7 C13 1_555 1_555
C14 C13 1_555 1_555
H8 C14 1_555 1_555
C15 C14 1_555 1_555
H9 C15 1_555 1_555
C16 C15 1_555 1_555
C17 C12 1_555 1_555
H10 C17 1_555 1_555
C18 O8 1_555 1_555
C19 C20 1_555 1_555
C21 O12 1_555 1_555
C22 C21 1_555 1_555
I3 O14 1_555 1_555
F13 C31 1_555 1_555
F14 C31 1_555 1_555
F15 C31 1_555 1_555
F16 C33 1_555 1_555
F17 C33 1_555 1_555
F18 C33 1_555 1_555
O13 H11 1_555 1_555
O14 C30 1_555 1_555
O15 C29 1_555 1_555
O16 C30 1_555 1_555
O17 C32 1_555 1_555
O18 I3 1_555 1_555
C23 I3 1_555 1_555
C24 C23 1_555 1_555
H12 C24 1_555 1_555
C25 C24 1_555 1_555
H13 C25 1_555 1_555
C26 C25 1_555 1_555
H14 C26 1_555 1_555
C27 C26 1_555 1_555
C28 C23 1_555 1_555
H15 C28 1_555 1_555
C29 O13 1_555 1_555
C30 C31 1_555 1_555
C32 O18 1_555 1_555
C33 C32 1_555 1_555
I4 O22 1_555 1_555
F19 C42 1_555 1_555
F20 C42 1_555 1_555
F21 C42 1_555 1_555
F22 C44 1_555 1_555
F23 C44 1_555 1_555
F24 C44 1_555 1_555
O19 C40 1_555 1_555
O20 H16 1_555 1_555
O21 C41 1_555 1_555
O22 C41 1_555 1_555
O23 C43 1_555 1_555
O24 I4 1_555 1_555
C34 I4 1_555 1_555
C35 C34 1_555 1_555
H17 C35 1_555 1_555
C36 C35 1_555 1_555
H18 C36 1_555 1_555
C37 C36 1_555 1_555
H19 C37 1_555 1_555
C38 C37 1_555 1_555
C39 C34 1_555 1_555
H20 C39 1_555 1_555
C40 O20 1_555 1_555
C41 C42 1_555 1_555
C43 O24 1_555 1_555
C44 C43 1_555 1_555
I5 O27 1_555 1_555
F25 C53 1_555 1_555
F26 C53 1_555 1_555
F27 C53 1_555 1_555
F28 C55 1_555 1_555
F29 C55 1_555 1_555
F30 C55 1_555 1_555
O25 C51 1_555 1_555
O26 H21 1_555 1_555
O27 C52 1_555 1_555
O28 C52 1_555 1_555
O29 C54 1_555 1_555
O30 I5 1_555 1_555
C45 I5 1_555 1_555
C46 C45 1_555 1_555
H22 C46 1_555 1_555
C47 C46 1_555 1_555
H23 C47 1_555 1_555
C48 C47 1_555 1_555
H24 C48 1_555 1_555
C49 C48 1_555 1_555
C50 C45 1_555 1_555
H25 C50 1_555 1_555
C51 O26 1_555 1_555
C52 C53 1_555 1_555
C54 O30 1_555 1_555
C55 C54 1_555 1_555
C4 C7 1_555 1_555
C5 C6 1_555 1_555
C16 C17 1_555 1_555
C16 C18 1_555 1_555
C27 C28 1_555 1_555
C27 C29 1_555 1_555
C38 C39 1_555 1_555
C38 C40 1_555 1_555
C49 C50 1_555 1_555
C49 C51 1_555 1_555

#END
