
#######################################################################
#
#                 Cambridge Crystallographic Data Centre
#                                CCDC 
#
#######################################################################
#
# If this CIF has been generated from an entry in the Cambridge 
# Structural Database, then it will include bibliographic, chemical, 
# crystal, experimental, refinement or atomic coordinate data resulting 
# from the CCDC's data processing and validation procedures.
#
#######################################################################

data_YIVJAP
_chemical_formula_moiety         'C17 H20 O3'
_chemical_name_systematic        
(1S*,2'S*)-5-Acetoxy-1',6-dimethyl-3H-spiro[benzofuran-2,2'-bicyclo[3.2.1]hexane]
_symmetry_cell_setting           monoclinic
_symmetry_space_group_name_H-M   'P 21/n'
_symmetry_Int_Tables_number      14
_space_group_name_Hall           '-P 2yn'
loop_
_symmetry_equiv_pos_site_id
_symmetry_equiv_pos_as_xyz
1 x,y,z
2 1/2-x,1/2+y,1/2-z
3 -x,-y,-z
4 1/2+x,1/2-y,1/2+z
_cell_length_a                   12.4762(15)
_cell_length_b                   6.1157(8)
_cell_length_c                   19.823(3)
_cell_angle_alpha                90
_cell_angle_beta                 103.667(2)
_cell_angle_gamma                90
_cell_volume                     1469.68
_exptl_crystal_colour            colorless
_exptl_crystal_description       prismatic
_chemical_melting_point          80-82deg.C
_cell_formula_units_Z            4
loop_
_atom_site_label
_atom_site_type_symbol
_atom_site_fract_x
_atom_site_fract_y
_atom_site_fract_z
O1 O 0.5122(2) 0.5208(4) 0.15827(18)
O2 O 0.8518(2) 1.0614(5) 0.13669(13)
O3 O 0.8623(5) 0.9189(10) 0.0369(3)
C1 C 0.3269(4) 0.5287(8) 0.0895(3)
C2 C 0.2685(4) 0.3608(8) 0.1225(3)
H1 H 0.2358 0.2371 0.0945
H2 H 0.2981 0.3284 0.1713
C3 C 0.2191(3) 0.5769(8) 0.1044(3)
H3 H 0.1530 0.5935 0.0666
C4 C 0.2391(5) 0.7289(10) 0.1683(3)
H4 H 0.2194 0.8785 0.1545
H5 H 0.1961 0.6819 0.2005
C5 C 0.3596(5) 0.7099(9) 0.2002(3)
H6 H 0.3743 0.5922 0.2340
H7 H 0.3886 0.8453 0.2228
C6 C 0.4126(3) 0.6578(7) 0.1349(3)
C7 C 0.4528(3) 0.8661(7) 0.1050(3)
H8 H 0.4257 0.8721 0.0550
H9 H 0.4288 0.9961 0.1253
C8 C 0.5757(3) 0.8459(6) 0.12470(18)
C9 C 0.6024(3) 0.6438(6) 0.15534(18)
C10 C 0.7093(3) 0.5757(6) 0.17957(18)
H10 H 0.7247 0.4389 0.2001
C11 C 0.7935(3) 0.7138(6) 0.17297(17)
C12 C 0.7671(3) 0.9139(6) 0.14172(17)
C13 C 0.6590(3) 0.9824(6) 0.11780(18)
H11 H 0.6434 1.1192 0.0974
C14 C 0.3457(6) 0.4971(9) 0.0209(3)
H12 H 0.3854 0.6201 0.0090
H13 H 0.2762 0.4839 -0.0122
H14 H 0.3880 0.3663 0.0204
C15 C 0.9142(3) 0.6479(9) 0.2021(2)
H15 H 0.9534 0.6559 0.1659
H16 H 0.9173 0.5011 0.2196
H17 H 0.9475 0.7455 0.2390
C16 C 0.8949(4) 1.0460(10) 0.0810(3)
C17 C 0.9824(4) 1.2083(10) 0.0821(3)
H18 H 1.0174 1.1789 0.0448
H19 H 1.0360 1.1998 0.1256
H20 H 0.9507 1.3522 0.0765
loop_
_geom_bond_atom_site_label_1
_geom_bond_atom_site_label_2
_geom_bond_site_symmetry_1
_geom_bond_site_symmetry_2
O1 C6 1_555 1_555
O2 C12 1_555 1_555
O3 C16 1_555 1_555
C1 C2 1_555 1_555
C2 H1 1_555 1_555
H2 C2 1_555 1_555
C3 C1 1_555 1_555
H3 C3 1_555 1_555
C4 C3 1_555 1_555
H4 C4 1_555 1_555
H5 C4 1_555 1_555
C5 C4 1_555 1_555
H6 C5 1_555 1_555
H7 C5 1_555 1_555
C6 C1 1_555 1_555
C7 C6 1_555 1_555
H8 C7 1_555 1_555
H9 C7 1_555 1_555
C8 C7 1_555 1_555
C9 O1 1_555 1_555
C10 C9 1_555 1_555
H10 C10 1_555 1_555
C11 C10 1_555 1_555
C12 C11 1_555 1_555
C13 C8 1_555 1_555
H11 C13 1_555 1_555
C14 C1 1_555 1_555
H12 C14 1_555 1_555
H13 C14 1_555 1_555
H14 C14 1_555 1_555
C15 C11 1_555 1_555
H15 C15 1_555 1_555
H16 C15 1_555 1_555
H17 C15 1_555 1_555
C16 O2 1_555 1_555
C17 C16 1_555 1_555
H18 C17 1_555 1_555
H19 C17 1_555 1_555
H20 C17 1_555 1_555
C2 C3 1_555 1_555
C5 C6 1_555 1_555
C8 C9 1_555 1_555
C12 C13 1_555 1_555

#END
