
#######################################################################
#
#                 Cambridge Crystallographic Data Centre
#                                CCDC 
#
#######################################################################
#
# If this CIF has been generated from an entry in the Cambridge 
# Structural Database, then it will include bibliographic, chemical, 
# crystal, experimental, refinement or atomic coordinate data resulting 
# from the CCDC's data processing and validation procedures.
#
#######################################################################

data_YIVRAW
_chemical_formula_moiety         'C17 H15 Cl1 O2'
_chemical_name_systematic        2'-Hydroxy-4',6'-dimethyl-2-chlorochalcone
_symmetry_cell_setting           monoclinic
_symmetry_space_group_name_H-M   'P 21/n'
_symmetry_Int_Tables_number      14
_space_group_name_Hall           '-P 2yn'
loop_
_symmetry_equiv_pos_site_id
_symmetry_equiv_pos_as_xyz
1 x,y,z
2 1/2-x,1/2+y,1/2-z
3 -x,-y,-z
4 1/2+x,1/2-y,1/2+z
_cell_length_a                   7.699
_cell_length_b                   12.486
_cell_length_c                   14.5820
_cell_angle_alpha                90
_cell_angle_beta                 95.87
_cell_angle_gamma                90
_cell_volume                     1394.41
_cell_formula_units_Z            4
loop_
_atom_site_label
_atom_site_type_symbol
_atom_site_fract_x
_atom_site_fract_y
_atom_site_fract_z
Cl1 Cl 0.2039(1) 0.6025(1) 0.1193(1)
C1 C 0.4079(3) 0.6462(2) 0.0953(2)
C2 C 0.4204(5) 0.7468(3) 0.0630(2)
C3 C 0.5768(5) 0.7841(3) 0.0421(3)
C4 C 0.7233(5) 0.7213(3) 0.0522(3)
C5 C 0.7091(4) 0.6212(3) 0.0842(2)
C6 C 0.5514(3) 0.5801(2) 0.1064(2)
C7 C 0.5402(4) 0.4739(2) 0.1411(2)
C8 C 0.6577(4) 0.3997(2) 0.1363(2)
C9 C 0.6385(3) 0.2959(2) 0.1764(2)
C10 C 0.7720(3) 0.2150(2) 0.1687(2)
C11 C 0.9505(3) 0.2343(2) 0.1623(2)
C12 C 1.0586(4) 0.1515(2) 0.1458(2)
C13 C 0.9993(4) 0.0501(2) 0.1357(2)
C14 C 0.8263(4) 0.0307(2) 0.1460(2)
C15 C 0.7150(3) 0.1105(2) 0.1652(2)
C16 C 1.0376(5) 0.3391(3) 0.1780(4)
C17 C 1.1225(6) -0.0374(3) 0.1171(3)
O1 O 0.5502(3) 0.0834(2) 0.1792(2)
O2 O 0.5015(3) 0.2749(2) 0.2108(2)
H1 H 0.324(4) 0.789(2) 0.058(2)
H2 H 0.595(4) 0.849(3) 0.023(2)
H3 H 0.837(4) 0.749(3) 0.038(2)
H4 H 0.809(4) 0.574(2) 0.092(2)
H5 H 0.438(4) 0.458(2) 0.170(2)
H6 H 0.749(3) 0.412(2) 0.105(2)
H7 H 1.175(3) 0.168(2) 0.143(2)
H8 H 0.779(4) -0.037(2) 0.140(2)
H9 H 0.977(4) 0.384(3) 0.218(2)
H10 H 1.154(5) 0.325(3) 0.205(2)
H11 H 1.041(5) 0.380(3) 0.122(2)
H12 H 1.100(6) -0.099(4) 0.147(3)
H13 H 1.109(5) -0.061(3) 0.058(3)
H14 H 1.238(6) -0.023(4) 0.139(3)
H15 H 0.507(5) 0.135(3) 0.199(3)
loop_
_geom_bond_atom_site_label_1
_geom_bond_atom_site_label_2
_geom_bond_site_symmetry_1
_geom_bond_site_symmetry_2
Cl1 C1 1_555 1_555
C1 C2 1_555 1_555
C2 C3 1_555 1_555
C3 C4 1_555 1_555
C4 C5 1_555 1_555
C5 C6 1_555 1_555
C6 C1 1_555 1_555
C7 C6 1_555 1_555
C8 C7 1_555 1_555
C9 C8 1_555 1_555
C10 C9 1_555 1_555
C11 C10 1_555 1_555
C12 C11 1_555 1_555
C13 C12 1_555 1_555
C14 C13 1_555 1_555
C15 C10 1_555 1_555
C16 C11 1_555 1_555
C17 C13 1_555 1_555
O1 C15 1_555 1_555
O2 C9 1_555 1_555
H1 C2 1_555 1_555
H2 C3 1_555 1_555
H3 C4 1_555 1_555
H4 C5 1_555 1_555
H5 C7 1_555 1_555
H6 C8 1_555 1_555
H7 C12 1_555 1_555
H8 C14 1_555 1_555
H9 C16 1_555 1_555
H10 C16 1_555 1_555
H11 C16 1_555 1_555
H12 C17 1_555 1_555
H13 C17 1_555 1_555
H14 C17 1_555 1_555
H15 O1 1_555 1_555
C14 C15 1_555 1_555

#END
