
#######################################################################
#
#                 Cambridge Crystallographic Data Centre
#                                CCDC 
#
#######################################################################
#
# If this CIF has been generated from an entry in the Cambridge 
# Structural Database, then it will include bibliographic, chemical, 
# crystal, experimental, refinement or atomic coordinate data resulting 
# from the CCDC's data processing and validation procedures.
#
#######################################################################

data_YIWMAU
_chemical_formula_moiety         'C46 H42 N2 O4'
_chemical_name_systematic        
2,9-bis(2,4-Dimethylpentan-3-yl)-5-(phenylethynyl)isoquinolino[4',5',6':6,5,10]anthra[2,1,9-def]isoquinoline-1,3,8,10(2H,9H)-tetrone
_symmetry_cell_setting           monoclinic
_symmetry_space_group_name_H-M   'C 2/c'
_symmetry_Int_Tables_number      15
_space_group_name_Hall           '-C 2yn'
loop_
_symmetry_equiv_pos_site_id
_symmetry_equiv_pos_as_xyz
1 x,y,z
2 -x,y,1/2-z
3 1/2+x,1/2+y,z
4 1/2-x,1/2+y,1/2-z
5 -x,-y,-z
6 x,-y,1/2+z
7 1/2-x,1/2-y,-z
8 1/2+x,1/2-y,1/2+z
_cell_length_a                   32.107(3)
_cell_length_b                   7.8134(8)
_cell_length_c                   28.604(3)
_cell_angle_alpha                90
_cell_angle_beta                 104.323(4)
_cell_angle_gamma                90
_cell_volume                     6952.69
_exptl_crystal_description       plate
_cell_formula_units_Z            8
loop_
_atom_site_label
_atom_site_type_symbol
_atom_site_fract_x
_atom_site_fract_y
_atom_site_fract_z
N1 N 0.42370(10) 0.8588(5) 0.53967(14)
N2 N 0.14843(10) 0.0650(4) 0.31340(11)
O1 O 0.38696(9) 0.8754(4) 0.59918(11)
O2 O 0.45550(10) 0.8455(5) 0.47648(13)
O3 O 0.11581(9) 0.0651(4) 0.37533(10)
O4 O 0.18017(9) 0.0906(4) 0.25045(10)
C1 C 0.28137(11) 0.5337(5) 0.47504(14)
C2 C 0.24552(12) 0.4318(5) 0.44542(13)
C3 C 0.24738(11) 0.3844(5) 0.39757(13)
C4 C 0.28221(12) 0.4338(5) 0.37746(14)
C5 C 0.31896(12) 0.5222(5) 0.40816(14)
C6 C 0.31732(11) 0.5715(5) 0.45556(14)
C7 C 0.28251(13) 0.5910(5) 0.52188(14)
C8 C 0.31797(13) 0.6854(5) 0.54802(14)
H1 H 0.3179 0.7234 0.5788
C9 C 0.35259(12) 0.7235(5) 0.52995(15)
C10 C 0.35315(13) 0.6645(5) 0.48365(15)
C11 C 0.38905(12) 0.7039(5) 0.46522(16)
C12 C 0.38987(13) 0.6491(6) 0.41974(16)
H2 H 0.4136 0.6721 0.4076
C13 C 0.35523(13) 0.5594(5) 0.39199(15)
H3 H 0.3564 0.5229 0.3614
C14 C 0.20990(12) 0.3785(5) 0.46146(13)
H4 H 0.2075 0.4102 0.4920
C15 C 0.17760(12) 0.2774(5) 0.43197(15)
H5 H 0.1545 0.2421 0.4438
C16 C 0.17910(12) 0.2299(5) 0.38678(13)
C17 C 0.21338(12) 0.2852(5) 0.36813(14)
C18 C 0.21412(12) 0.2395(5) 0.32131(13)
C19 C 0.24704(13) 0.2947(6) 0.30236(14)
H6 H 0.2470 0.2674 0.2707
C20 C 0.28030(13) 0.3905(5) 0.32994(14)
H7 H 0.3021 0.4272 0.3162
C21 C 0.17966(13) 0.1287(6) 0.29203(15)
C22 C 0.14497(13) 0.1168(5) 0.35914(14)
C23 C 0.42565(15) 0.8063(6) 0.49310(18)
C24 C 0.38912(14) 0.8242(6) 0.55955(17)
C25 C 0.11682(13) -0.0655(6) 0.28737(16)
H8 H 0.1045 -0.1049 0.3136
C26 C 0.13543(16) -0.2252(7) 0.2748(2)
H9 H 0.1442 -0.2027 0.2450
C27 C 0.17529(16) -0.2866(6) 0.31157(16)
H10 H 0.1955 -0.1941 0.3198
H11 H 0.1882 -0.3791 0.2981
H12 H 0.1674 -0.3254 0.3401
C28 C 0.10161(17) -0.3672(7) 0.2633(2)
H13 H 0.0901 -0.3865 0.2908
H14 H 0.1147 -0.4706 0.2556
H15 H 0.0789 -0.3336 0.2362
C29 C 0.07723(13) 0.0139(6) 0.25319(16)
H16 H 0.0538 -0.0687 0.2505
C30 C 0.08251(18) 0.0407(9) 0.20281(18)
H17 H 0.0980 0.1451 0.2016
H18 H 0.0547 0.0477 0.1806
H19 H 0.0982 -0.0536 0.1941
C31 C 0.06210(17) 0.1785(9) 0.2709(2)
H20 H 0.0544 0.1581 0.3008
H21 H 0.0375 0.2204 0.2473
H22 H 0.0847 0.2618 0.2759
C32 C 0.46194(13) 0.9640(7) 0.56754(18)
H23 H 0.4783 0.9871 0.5435
C33 C 0.44982(17) 1.1363(7) 0.58079(18)
H24 H 0.4289 1.1222 0.6003
C34 C 0.48870(15) 1.2327(7) 0.61158(19)
H25 H 0.4994 1.1730 0.6415
H26 H 0.4802 1.3462 0.6181
H27 H 0.5109 1.2391 0.5945
C35 C 0.42906(14) 1.2407(6) 0.53745(17)
H28 H 0.4504 1.2754 0.5211
H29 H 0.4160 1.3402 0.5474
H30 H 0.4075 1.1734 0.5160
C36 C 0.49292(15) 0.8500(7) 0.60556(18)
H31 H 0.5178 0.9229 0.6192
C37 C 0.51045(17) 0.7044(8) 0.5810(2)
H32 H 0.5331 0.6476 0.6040
H33 H 0.5216 0.7492 0.5553
H34 H 0.4878 0.6244 0.5681
C38 C 0.47751(16) 0.7887(10) 0.64796(19)
H35 H 0.4571 0.6978 0.6380
H36 H 0.4640 0.8816 0.6606
H37 H 0.5015 0.7474 0.6725
C39 C 0.2516(2) 0.5596(10) 0.5490(3)
C40 C 0.2279(2) 0.5449(10) 0.5753(3)
C41 C 0.1596(3) 0.4221(13) 0.5797(4)
H38 H 0.1564 0.3795 0.5487
C42 C 0.1953(3) 0.5116(14) 0.6005(4)
C43 C 0.1280(3) 0.3927(14) 0.6034(4)
H39 H 0.1041 0.3281 0.5886
C44 C 0.2004(3) 0.5801(13) 0.6466(4)
H40 H 0.2246 0.6448 0.6608
C45 C 0.1315(4) 0.4587(19) 0.6496(4)
H41 H 0.1098 0.4426 0.6655
C46 C 0.1688(3) 0.5498(18) 0.6709(4)
H42 H 0.1724 0.5911 0.7021
H43? H 0.2598 0.5665 0.5356
C47? C 0.2001(2) 0.4130(10) 0.5072(3)
C48? C 0.1883(2) 0.4310(10) 0.5435(3)
C49? C 0.1794(4) 0.4660(14) 0.5890(3)
C50? C 0.2072(3) 0.5630(14) 0.6217(4)
H44? H 0.2319 0.6060 0.6146
C51? C 0.1420(3) 0.4029(15) 0.5986(4)
H45? H 0.1229 0.3384 0.5755
C52? C 0.1983(3) 0.5973(14) 0.6657(3)
H46? H 0.2174 0.6635 0.6882
C53? C 0.1332(5) 0.437(2) 0.6432(5)
H47? H 0.1084 0.3935 0.6501
C54? C 0.1614(3) 0.5355(19) 0.6771(4)
H48? H 0.1559 0.5597 0.7068
loop_
_geom_bond_atom_site_label_1
_geom_bond_atom_site_label_2
_geom_bond_site_symmetry_1
_geom_bond_site_symmetry_2
N1 C23 1_555 1_555
N2 C21 1_555 1_555
O1 C24 1_555 1_555
O2 C23 1_555 1_555
O3 C22 1_555 1_555
O4 C21 1_555 1_555
C1 C2 1_555 1_555
C2 C3 1_555 1_555
C3 C4 1_555 1_555
C4 C5 1_555 1_555
C5 C6 1_555 1_555
C6 C1 1_555 1_555
C7 C1 1_555 1_555
C8 C7 1_555 1_555
H1 C8 1_555 1_555
C9 C8 1_555 1_555
C10 C6 1_555 1_555
C11 C10 1_555 1_555
C12 C11 1_555 1_555
H2 C12 1_555 1_555
C13 C5 1_555 1_555
H3 C13 1_555 1_555
C14 C2 1_555 1_555
H4 C14 1_555 1_555
C15 C14 1_555 1_555
H5 C15 1_555 1_555
C16 C15 1_555 1_555
C17 C3 1_555 1_555
C18 C17 1_555 1_555
C19 C18 1_555 1_555
H6 C19 1_555 1_555
C20 C4 1_555 1_555
H7 C20 1_555 1_555
C21 C18 1_555 1_555
C22 N2 1_555 1_555
C23 C11 1_555 1_555
C24 N1 1_555 1_555
C25 N2 1_555 1_555
H8 C25 1_555 1_555
C26 C25 1_555 1_555
H9 C26 1_555 1_555
C27 C26 1_555 1_555
H10 C27 1_555 1_555
H11 C27 1_555 1_555
H12 C27 1_555 1_555
C28 C26 1_555 1_555
H13 C28 1_555 1_555
H14 C28 1_555 1_555
H15 C28 1_555 1_555
C29 C25 1_555 1_555
H16 C29 1_555 1_555
C30 C29 1_555 1_555
H17 C30 1_555 1_555
H18 C30 1_555 1_555
H19 C30 1_555 1_555
C31 C29 1_555 1_555
H20 C31 1_555 1_555
H21 C31 1_555 1_555
H22 C31 1_555 1_555
C32 N1 1_555 1_555
H23 C32 1_555 1_555
C33 C32 1_555 1_555
H24 C33 1_555 1_555
C34 C33 1_555 1_555
H25 C34 1_555 1_555
H26 C34 1_555 1_555
H27 C34 1_555 1_555
C35 C33 1_555 1_555
H28 C35 1_555 1_555
H29 C35 1_555 1_555
H30 C35 1_555 1_555
C36 C32 1_555 1_555
H31 C36 1_555 1_555
C37 C36 1_555 1_555
H32 C37 1_555 1_555
H33 C37 1_555 1_555
H34 C37 1_555 1_555
C38 C36 1_555 1_555
H35 C38 1_555 1_555
H36 C38 1_555 1_555
H37 C38 1_555 1_555
C39 C7 1_555 1_555
C40 C39 1_555 1_555
C41 H38 1_555 1_555
C42 C40 1_555 1_555
C43 C41 1_555 1_555
H39 C43 1_555 1_555
C44 C42 1_555 1_555
H40 C44 1_555 1_555
C45 C43 1_555 1_555
H41 C45 1_555 1_555
C46 C44 1_555 1_555
H42 C46 1_555 1_555
C9 C10 1_555 1_555
C9 C24 1_555 1_555
C12 C13 1_555 1_555
C16 C17 1_555 1_555
C16 C22 1_555 1_555
C19 C20 1_555 1_555
C41 C42 1_555 1_555
C45 C46 1_555 1_555

#END
