
#######################################################################
#
#                 Cambridge Crystallographic Data Centre
#                                CCDC 
#
#######################################################################
#
# If this CIF has been generated from an entry in the Cambridge 
# Structural Database, then it will include bibliographic, chemical, 
# crystal, experimental, refinement or atomic coordinate data resulting 
# from the CCDC's data processing and validation procedures.
#
#######################################################################

data_YIWQAW
_chemical_formula_moiety         'C8 H12 N1 1+,C39 H39 N3 O3,F6 P1 1-'
_chemical_name_systematic        
'1,3,5-tris(4-Phenyl-1,3-oxazolin-2-ylmethyl)-2,4,6-trimethylbenzene (R)-1-phenylethylammonium clathrate hexafluorophosphate'
_symmetry_cell_setting           monoclinic
_symmetry_space_group_name_H-M   'P 21'
_symmetry_Int_Tables_number      4
_space_group_name_Hall           'P 2yb'
loop_
_symmetry_equiv_pos_site_id
_symmetry_equiv_pos_as_xyz
1 x,y,z
2 -x,1/2+y,-z
_cell_length_a                   11.0996(5)
_cell_length_b                   19.4934(9)
_cell_length_c                   20.9147(10)
_cell_angle_alpha                90
_cell_angle_beta                 101.0440(10)
_cell_angle_gamma                90
_cell_volume                     4441.48
_cell_formula_units_Z            4
loop_
_atom_site_label
_atom_site_type_symbol
_atom_site_fract_x
_atom_site_fract_y
_atom_site_fract_z
P1 P 0.3435(5) 0.7380(2) 0.6525(2)
F1 F 0.2770(16) 0.7966(9) 0.6232(8)
F2 F 0.4184(14) 0.6743(7) 0.6940(8)
F3 F 0.3713(13) 0.7713(11) 0.7185(5)
F4 F 0.2165(12) 0.7133(7) 0.6708(7)
F5 F 0.2981(17) 0.7018(12) 0.5918(7)
F6 F 0.4586(12) 0.7598(9) 0.6339(9)
O1 O -0.0379(6) 0.5982(3) 0.6163(3)
O2 O 0.2178(5) 0.1589(3) 0.6913(3)
O3 O 0.6303(4) 0.4804(3) 0.8101(2)
N1 N 0.0914(6) 0.5174(4) 0.5899(3)
N2 N 0.2493(6) 0.2597(3) 0.6443(3)
N3 N 0.5116(4) 0.4410(3) 0.7179(2)
C1 C 0.0946(5) 0.4515(4) 0.7167(3)
C2 C 0.0764(6) 0.3799(4) 0.7125(3)
C3 C 0.1695(6) 0.3368(4) 0.7443(3)
C4 C 0.2827(6) 0.3633(5) 0.7786(3)
C5 C 0.2991(6) 0.4350(4) 0.7795(3)
C6 C 0.2089(6) 0.4782(4) 0.7490(3)
C7 C 0.2318(8) 0.5547(5) 0.7496(4)
H4 H 0.3133 0.5643 0.7744
H5 H 0.1712 0.5778 0.7697
H6 H 0.2257 0.5709 0.7053
C8 C -0.0408(7) 0.3513(5) 0.6732(5)
H7 H -0.0382 0.3015 0.6748
H8 H -0.0496 0.3663 0.6283
H9 H -0.1101 0.3676 0.6910
C9 C 0.3830(6) 0.3149(5) 0.8091(4)
H10 H 0.4535 0.3411 0.8308
H11 H 0.4067 0.2864 0.7756
H12 H 0.3536 0.2861 0.8407
C10 C -0.0050(7) 0.5008(4) 0.6864(4)
H13 H -0.0823 0.4754 0.6743
H14 H -0.0162 0.5351 0.7190
C11 C 0.0211(7) 0.5371(4) 0.6271(4)
C12 C -0.0040(12) 0.6242(5) 0.5582(5)
H15 H 0.0324 0.6700 0.5659
H16 H -0.0760 0.6271 0.5229
C13 C 0.0903(9) 0.5731(5) 0.5406(4)
H17 H 0.1721 0.5951 0.5473
C14 C 0.0567(9) 0.5470(6) 0.4715(4)
C15 C 0.1060(13) 0.5805(12) 0.4253(7)
H18 H 0.1617 0.6168 0.4366
C16 C 0.072(3) 0.5596(18) 0.3624(9)
H19 H 0.1038 0.5831 0.3299
C17 C -0.006(4) 0.506(2) 0.3445(11)
H20 H -0.0193 0.4895 0.3016
C18 C -0.065(2) 0.4767(10) 0.3900(10)
H21 H -0.1289 0.4448 0.3774
C19 C -0.0283(12) 0.4958(6) 0.4551(5)
H22 H -0.0615 0.4736 0.4876
C20 C 0.1508(7) 0.2601(4) 0.7409(4)
H23 H 0.1861 0.2399 0.7832
H24 H 0.0627 0.2502 0.7318
C21 C 0.2082(7) 0.2278(4) 0.6898(4)
C22 C 0.2696(9) 0.1393(5) 0.6351(4)
H25 H 0.2099 0.1132 0.6038
H26 H 0.3434 0.1112 0.6485
C23 C 0.3009(8) 0.2065(4) 0.6055(4)
H27 H 0.2562 0.2087 0.5598
C24 C 0.4351(8) 0.2175(4) 0.6066(4)
C25 C 0.4804(12) 0.2183(7) 0.5486(5)
H28 H 0.4276 0.2113 0.5083
C26 C 0.6097(13) 0.2299(9) 0.5518(7)
H29 H 0.6398 0.2332 0.5129
C27 C 0.6881(11) 0.2363(8) 0.6087(7)
H30 H 0.7728 0.2401 0.6094
C28 C 0.6445(9) 0.2372(6) 0.6660(6)
H31 H 0.6991 0.2443 0.7058
C29 C 0.5208(9) 0.2277(5) 0.6653(4)
H32 H 0.4927 0.2281 0.7050
C30 C 0.4215(6) 0.4620(5) 0.8151(3)
H33 H 0.4102 0.5093 0.8287
H34 H 0.4475 0.4346 0.8546
C31 C 0.5210(5) 0.4612(4) 0.7772(3)
C32 C 0.7155(7) 0.4755(6) 0.7650(4)
H35 H 0.7866 0.4471 0.7832
H36 H 0.7443 0.5211 0.7548
C33 C 0.6384(6) 0.4418(5) 0.7038(3)
H37 H 0.6667 0.3941 0.7002
C34 C 0.6449(6) 0.4796(5) 0.6422(4)
C35 C 0.6752(7) 0.4468(8) 0.5886(4)
H38 H 0.6914 0.3995 0.5910
C36 C 0.6825(10) 0.4812(11) 0.5321(5)
H39 H 0.7023 0.4575 0.4964
C37 C 0.6606(17) 0.5497(14) 0.5286(8)
H40 H 0.6668 0.5732 0.4901
C38 C 0.6295(17) 0.5858(9) 0.5799(6)
H41 H 0.6150 0.6333 0.5768
C39 C 0.6199(12) 0.5498(6) 0.6370(5)
H42 H 0.5964 0.5732 0.6719
N4 N 0.2928(5) 0.4049(3) 0.6154(3)
H1 H 0.362(4) 0.417(4) 0.644(3)
H2 H 0.266(6) 0.3622(18) 0.623(4)
H3 H 0.227(4) 0.431(3) 0.618(3)
C40 C 0.3414(7) 0.4003(5) 0.5537(3)
H43 H 0.4217 0.3765 0.5628
C41 C 0.3598(7) 0.4713(5) 0.5291(4)
H44 H 0.3911 0.4682 0.4890
H45 H 0.4181 0.4959 0.5615
H46 H 0.2820 0.4955 0.5210
C42 C 0.2554(9) 0.3607(5) 0.5016(4)
C43 C 0.2983(14) 0.3376(7) 0.4471(5)
H47 H 0.3804 0.3467 0.4445
C44 C 0.228(2) 0.3029(9) 0.3977(6)
H48 H 0.2618 0.2855 0.3630
C45 C 0.102(2) 0.2936(7) 0.4000(6)
H49 H 0.0491 0.2731 0.3645
C46 C 0.0560(14) 0.3139(6) 0.4525(7)
H50 H -0.0262 0.3051 0.4552
C47 C 0.1353(10) 0.3484(5) 0.5029(4)
H51 H 0.1037 0.3638 0.5390
P2 P 0.2365(2) 0.77883(19) 0.12349(19)
F7 F 0.1681(17) 0.7269(10) 0.0728(7)
F8 F 0.3088(10) 0.8285(7) 0.1741(8)
F9 F 0.1793(13) 0.8276(8) 0.0697(7)
F10 F 0.1269(7) 0.7831(8) 0.1577(5)
F11 F 0.2835(14) 0.7200(6) 0.1694(6)
F12 F 0.3473(7) 0.7761(10) 0.0909(5)
N5 N 0.3688(5) 0.2632(4) 0.1030(3)
N6 N 0.0175(5) 0.4412(4) -0.0003(3)
N7 N 0.4144(6) 0.5233(3) 0.1152(3)
O4 O 0.4824(6) 0.1745(3) 0.0766(3)
O5 O -0.1024(4) 0.4765(4) -0.0951(2)
O6 O 0.5510(5) 0.6033(3) 0.0969(3)
C48 C 0.3776(6) 0.3350(4) -0.0172(3)
C49 C 0.2579(6) 0.3495(5) -0.0504(3)
C50 C 0.2222(6) 0.4158(5) -0.0642(3)
C51 C 0.3019(6) 0.4710(4) -0.0427(3)
C52 C 0.4207(6) 0.4567(4) -0.0073(3)
C53 C 0.4582(5) 0.3884(4) 0.0051(3)
C54 C 0.5842(6) 0.3730(5) 0.0453(4)
H55 H 0.5954 0.3237 0.0493
H56 H 0.5911 0.3931 0.0882
H57 H 0.6467 0.3923 0.0239
C55 C 0.1665(8) 0.2887(6) -0.0697(5)
H58 H 0.0886 0.3064 -0.0928
H59 H 0.1542 0.2650 -0.0307
H60 H 0.2000 0.2571 -0.0975
C56 C 0.2583(8) 0.5441(6) -0.0527(4)
H61 H 0.3248 0.5750 -0.0350
H62 H 0.1900 0.5515 -0.0307
H63 H 0.2319 0.5529 -0.0990
C57 C 0.4230(7) 0.2617(5) -0.0062(4)
H64 H 0.3718 0.2319 -0.0381
H65 H 0.5071 0.2592 -0.0140
C58 C 0.4214(7) 0.2352(5) 0.0606(4)
C59 C 0.4719(10) 0.1591(6) 0.1413(6)
H66 H 0.5528 0.1585 0.1700
H67 H 0.4325 0.1144 0.1436
C60 C 0.3899(8) 0.2185(5) 0.1612(4)
H68 H 0.4344 0.2436 0.1997
C61 C 0.2698(11) 0.1906(5) 0.1738(6)
C62 C 0.1783(12) 0.1678(7) 0.1196(9)
H69 H 0.1938 0.1705 0.0771
C63 C 0.0662(14) 0.1416(8) 0.1303(11)
H70 H 0.0076 0.1250 0.0952
C64 C 0.044(3) 0.1405(12) 0.1875(16)
H71 H -0.0316 0.1213 0.1917
C65 C 0.114(3) 0.1631(8) 0.2426(13)
H72 H 0.0873 0.1631 0.2826
C66 C 0.2491(16) 0.1904(6) 0.2358(8)
H73 H 0.3080 0.2049 0.2717
C67 C 0.0946(6) 0.4323(6) -0.1029(3)
H74 H 0.1011 0.4710 -0.1321
H75 H 0.0645 0.3927 -0.1302
C68 C 0.0035(5) 0.4497(5) -0.0623(3)
C69 C -0.1768(6) 0.4870(6) -0.0461(4)
H76 H -0.2547 0.4622 -0.0577
H77 H -0.1943 0.5359 -0.0419
C70 C -0.1022(5) 0.4595(4) 0.0172(3)
H78 H -0.1417 0.4173 0.0295
C71 C -0.0865(7) 0.5097(4) 0.0734(4)
C72 C -0.1487(7) 0.4989(6) 0.1232(4)
H79 H -0.1995 0.4602 0.1225
C73 C -0.1363(10) 0.5455(8) 0.1750(5)
H80 H -0.1845 0.5390 0.2069
C74 C -0.0620(15) 0.5969(8) 0.1811(8)
H81 H -0.0515 0.6250 0.2182
C75 C 0.0023(18) 0.6098(8) 0.1315(8)
H82 H 0.0535 0.6486 0.1341
C76 C -0.0085(11) 0.5648(6) 0.0763(6)
H83 H 0.0364 0.5728 0.0433
C77 C 0.5073(7) 0.5153(5) 0.0159(4)
H84 H 0.5921 0.4989 0.0216
H85 H 0.4963 0.5514 -0.0174
C78 C 0.4855(6) 0.5449(4) 0.0792(4)
C79 C 0.5215(8) 0.6236(4) 0.1584(5)
H86 H 0.4888 0.6705 0.1559
H87 H 0.5945 0.6216 0.1931
C80 C 0.4257(7) 0.5729(4) 0.1711(4)
H88 H 0.3465 0.5970 0.1689
C81 C 0.4587(7) 0.5360(4) 0.2354(4)
C82 C 0.3946(12) 0.5499(6) 0.2848(5)
H89 H 0.3307 0.5823 0.2788
C83 C 0.4276(17) 0.5143(9) 0.3441(6)
H90 H 0.3822 0.5229 0.3768
C84 C 0.5152(15) 0.4712(9) 0.3561(6)
H91 H 0.5350 0.4501 0.3972
C85 C 0.5833(10) 0.4552(7) 0.3063(5)
H92 H 0.6464 0.4224 0.3135
C86 C 0.5524(8) 0.4906(5) 0.2456(4)
H93 H 0.5975 0.4823 0.2126
N8 N 0.2284(5) 0.4011(4) 0.1016(3)
H52 H 0.262(6) 0.3594(19) 0.102(4)
H53 H 0.164(4) 0.407(4) 0.070(2)
H54 H 0.281(5) 0.436(3) 0.101(4)
C87 C 0.1799(7) 0.4034(4) 0.1644(3)
H94 H 0.1603 0.4518 0.1725
C88 C 0.2796(8) 0.3810(5) 0.2192(4)
H95 H 0.3516 0.4094 0.2200
H96 H 0.3002 0.3335 0.2129
H97 H 0.2516 0.3857 0.2601
C89 C 0.0654(7) 0.3621(5) 0.1626(4)
C90 C 0.0094(10) 0.3643(8) 0.2166(6)
H98 H 0.0463 0.3902 0.2530
C91 C -0.0976(14) 0.3301(14) 0.2187(11)
H99 H -0.1320 0.3309 0.2565
C92 C -0.1554(11) 0.2933(11) 0.1622(11)
H100 H -0.2313 0.2719 0.1620
C93 C -0.1028(9) 0.2885(7) 0.1079(8)
H101 H -0.1399 0.2626 0.0714
C94 C 0.0083(8) 0.3235(5) 0.1086(5)
H102 H 0.0455 0.3209 0.0719
loop_
_geom_bond_atom_site_label_1
_geom_bond_atom_site_label_2
_geom_bond_site_symmetry_1
_geom_bond_site_symmetry_2
P1 F1 1_555 1_555
F2 P1 1_555 1_555
F3 P1 1_555 1_555
F4 P1 1_555 1_555
F5 P1 1_555 1_555
F6 P1 1_555 1_555
O1 C11 1_555 1_555
O2 C21 1_555 1_555
O3 C31 1_555 1_555
N1 C11 1_555 1_555
N2 C21 1_555 1_555
N3 C31 1_555 1_555
N4 H1 1_555 1_555
H2 N4 1_555 1_555
H3 N4 1_555 1_555
C1 C2 1_555 1_555
C2 C3 1_555 1_555
C3 C4 1_555 1_555
C4 C5 1_555 1_555
C5 C6 1_555 1_555
C6 C1 1_555 1_555
C7 C6 1_555 1_555
H4 C7 1_555 1_555
H5 C7 1_555 1_555
H6 C7 1_555 1_555
C8 C2 1_555 1_555
H7 C8 1_555 1_555
H8 C8 1_555 1_555
H9 C8 1_555 1_555
C9 C4 1_555 1_555
H10 C9 1_555 1_555
H11 C9 1_555 1_555
H12 C9 1_555 1_555
C10 C1 1_555 1_555
H13 C10 1_555 1_555
H14 C10 1_555 1_555
C11 C10 1_555 1_555
C12 O1 1_555 1_555
H15 C12 1_555 1_555
H16 C12 1_555 1_555
C13 N1 1_555 1_555
H17 C13 1_555 1_555
C14 C13 1_555 1_555
C15 C14 1_555 1_555
H18 C15 1_555 1_555
C16 C15 1_555 1_555
H19 C16 1_555 1_555
C17 C16 1_555 1_555
H20 C17 1_555 1_555
C18 C17 1_555 1_555
H21 C18 1_555 1_555
C19 C14 1_555 1_555
H22 C19 1_555 1_555
C20 C3 1_555 1_555
H23 C20 1_555 1_555
H24 C20 1_555 1_555
C21 C20 1_555 1_555
C22 O2 1_555 1_555
H25 C22 1_555 1_555
H26 C22 1_555 1_555
C23 N2 1_555 1_555
H27 C23 1_555 1_555
C24 C23 1_555 1_555
C25 C24 1_555 1_555
H28 C25 1_555 1_555
C26 C25 1_555 1_555
H29 C26 1_555 1_555
C27 C26 1_555 1_555
H30 C27 1_555 1_555
C28 C27 1_555 1_555
H31 C28 1_555 1_555
C29 C24 1_555 1_555
H32 C29 1_555 1_555
C30 C5 1_555 1_555
H33 C30 1_555 1_555
H34 C30 1_555 1_555
C31 C30 1_555 1_555
C32 O3 1_555 1_555
H35 C32 1_555 1_555
H36 C32 1_555 1_555
C33 N3 1_555 1_555
H37 C33 1_555 1_555
C34 C33 1_555 1_555
C35 C34 1_555 1_555
H38 C35 1_555 1_555
C36 C35 1_555 1_555
H39 C36 1_555 1_555
C37 C36 1_555 1_555
H40 C37 1_555 1_555
C38 C37 1_555 1_555
H41 C38 1_555 1_555
C39 C34 1_555 1_555
H42 C39 1_555 1_555
C40 N4 1_555 1_555
H43 C40 1_555 1_555
C41 C40 1_555 1_555
H44 C41 1_555 1_555
H45 C41 1_555 1_555
H46 C41 1_555 1_555
C42 C40 1_555 1_555
C43 C42 1_555 1_555
H47 C43 1_555 1_555
C44 C43 1_555 1_555
H48 C44 1_555 1_555
C45 C44 1_555 1_555
H49 C45 1_555 1_555
C46 C45 1_555 1_555
H50 C46 1_555 1_555
C47 C42 1_555 1_555
H51 C47 1_555 1_555
P2 F7 1_555 1_555
F8 P2 1_555 1_555
F9 P2 1_555 1_555
F10 P2 1_555 1_555
F11 P2 1_555 1_555
F12 P2 1_555 1_555
N5 C58 1_555 1_555
N6 C68 1_555 1_555
N7 C78 1_555 1_555
N8 H52 1_555 1_555
H53 N8 1_555 1_555
H54 N8 1_555 1_555
O4 C58 1_555 1_555
O5 C68 1_555 1_555
O6 C78 1_555 1_555
C48 C49 1_555 1_555
C49 C50 1_555 1_555
C50 C51 1_555 1_555
C51 C52 1_555 1_555
C52 C53 1_555 1_555
C53 C48 1_555 1_555
C54 C53 1_555 1_555
H55 C54 1_555 1_555
H56 C54 1_555 1_555
H57 C54 1_555 1_555
C55 C49 1_555 1_555
H58 C55 1_555 1_555
H59 C55 1_555 1_555
H60 C55 1_555 1_555
C56 C51 1_555 1_555
H61 C56 1_555 1_555
H62 C56 1_555 1_555
H63 C56 1_555 1_555
C57 C48 1_555 1_555
H64 C57 1_555 1_555
H65 C57 1_555 1_555
C58 C57 1_555 1_555
C59 O4 1_555 1_555
H66 C59 1_555 1_555
H67 C59 1_555 1_555
C60 N5 1_555 1_555
H68 C60 1_555 1_555
C61 C60 1_555 1_555
C62 C61 1_555 1_555
H69 C62 1_555 1_555
C63 C62 1_555 1_555
H70 C63 1_555 1_555
C64 C63 1_555 1_555
H71 C64 1_555 1_555
C65 C64 1_555 1_555
H72 C65 1_555 1_555
C66 C61 1_555 1_555
H73 C66 1_555 1_555
C67 C50 1_555 1_555
H74 C67 1_555 1_555
H75 C67 1_555 1_555
C68 C67 1_555 1_555
C69 O5 1_555 1_555
H76 C69 1_555 1_555
H77 C69 1_555 1_555
C70 N6 1_555 1_555
H78 C70 1_555 1_555
C71 C70 1_555 1_555
C72 C71 1_555 1_555
H79 C72 1_555 1_555
C73 C72 1_555 1_555
H80 C73 1_555 1_555
C74 C73 1_555 1_555
H81 C74 1_555 1_555
C75 C74 1_555 1_555
H82 C75 1_555 1_555
C76 C71 1_555 1_555
H83 C76 1_555 1_555
C77 C52 1_555 1_555
H84 C77 1_555 1_555
H85 C77 1_555 1_555
C78 C77 1_555 1_555
C79 O6 1_555 1_555
H86 C79 1_555 1_555
H87 C79 1_555 1_555
C80 N7 1_555 1_555
H88 C80 1_555 1_555
C81 C80 1_555 1_555
C82 C81 1_555 1_555
H89 C82 1_555 1_555
C83 C82 1_555 1_555
H90 C83 1_555 1_555
C84 C83 1_555 1_555
H91 C84 1_555 1_555
C85 C84 1_555 1_555
H92 C85 1_555 1_555
C86 C81 1_555 1_555
H93 C86 1_555 1_555
C87 N8 1_555 1_555
H94 C87 1_555 1_555
C88 C87 1_555 1_555
H95 C88 1_555 1_555
H96 C88 1_555 1_555
H97 C88 1_555 1_555
C89 C87 1_555 1_555
C90 C89 1_555 1_555
H98 C90 1_555 1_555
C91 C90 1_555 1_555
H99 C91 1_555 1_555
C92 C91 1_555 1_555
H100 C92 1_555 1_555
C93 C92 1_555 1_555
H101 C93 1_555 1_555
C94 C89 1_555 1_555
H102 C94 1_555 1_555
C12 C13 1_555 1_555
C18 C19 1_555 1_555
C22 C23 1_555 1_555
C28 C29 1_555 1_555
C32 C33 1_555 1_555
C38 C39 1_555 1_555
C46 C47 1_555 1_555
C59 C60 1_555 1_555
C65 C66 1_555 1_555
C69 C70 1_555 1_555
C75 C76 1_555 1_555
C79 C80 1_555 1_555
C85 C86 1_555 1_555
C93 C94 1_555 1_555

#END
