
#######################################################################
#
#                 Cambridge Crystallographic Data Centre
#                                CCDC 
#
#######################################################################
#
# If this CIF has been generated from an entry in the Cambridge 
# Structural Database, then it will include bibliographic, chemical, 
# crystal, experimental, refinement or atomic coordinate data resulting 
# from the CCDC's data processing and validation procedures.
#
#######################################################################

data_YIWQEA
_chemical_formula_moiety         'C8 H12 N1 1+,C39 H39 N3 O3,F6 P1 1-'
_chemical_name_systematic        
'1,3,5-tris(4-Phenyl-1,3-oxazolin-2-ylmethyl)-2,4,6-trimethylbenzene (S)-1-phenylethylammonium clathrate hexafluorophosphate'
_symmetry_cell_setting           monoclinic
_symmetry_space_group_name_H-M   'P 21'
_symmetry_Int_Tables_number      4
_space_group_name_Hall           'P 2yb'
loop_
_symmetry_equiv_pos_site_id
_symmetry_equiv_pos_as_xyz
1 x,y,z
2 -x,1/2+y,-z
_cell_length_a                   10.9878(2)
_cell_length_b                   12.2344(3)
_cell_length_c                   16.0947(3)
_cell_angle_alpha                90
_cell_angle_beta                 96.8810(10)
_cell_angle_gamma                90
_cell_volume                     2148.01
_cell_formula_units_Z            2
loop_
_atom_site_label
_atom_site_type_symbol
_atom_site_fract_x
_atom_site_fract_y
_atom_site_fract_z
P1 P 0.19784(11) 0.45745(11) 0.75905(8)
F1 F 0.3347(3) 0.4459(3) 0.7397(2)
F2 F 0.0604(3) 0.4692(3) 0.7773(2)
F3 F 0.2130(5) 0.5834(4) 0.7664(4)
F4 F 0.2393(5) 0.4770(8) 0.8553(3)
F5 F 0.2079(7) 0.3482(6) 0.8050(5)
F7 F 0.1591(6) 0.4890(8) 0.6677(3)
O1 O -0.0117(3) 0.4537(3) 0.47227(19)
O2 O 0.3241(3) -0.0114(2) 0.16413(17)
O3 O 0.6245(3) 0.5892(3) 0.4085(2)
N1 N 0.0805(3) 0.4335(3) 0.3558(2)
N2 N 0.3251(3) 0.1722(3) 0.17708(19)
N3 N 0.4589(3) 0.5280(3) 0.3249(2)
C1 C 0.2533(4) 0.2802(3) 0.4387(2)
C2 C 0.2552(4) 0.1878(3) 0.3872(2)
C3 C 0.3657(4) 0.1605(3) 0.3564(2)
C4 C 0.4689(4) 0.2280(3) 0.3702(2)
C5 C 0.4622(4) 0.3240(4) 0.4181(2)
C6 C 0.3558(4) 0.3480(3) 0.4546(2)
C7 C 0.3508(4) 0.4478(4) 0.5091(3)
H4 H 0.2713 0.4517 0.5295
H5 H 0.3633 0.5129 0.4767
H6 H 0.4145 0.4431 0.5563
C8 C 0.1417(5) 0.1200(4) 0.3641(3)
H7 H 0.0742 0.1505 0.3903
H8 H 0.1568 0.0455 0.3834
H9 H 0.1209 0.1202 0.3038
C9 C 0.5844(5) 0.1994(5) 0.3324(3)
H10 H 0.6463 0.2548 0.3475
H11 H 0.5664 0.1961 0.2719
H12 H 0.6146 0.1289 0.3534
C10 C 0.1378(5) 0.3118(4) 0.4758(3)
H13 H 0.0843 0.2477 0.4757
H14 H 0.1598 0.3344 0.5341
C11 C 0.0702(4) 0.4009(4) 0.4297(3)
C12 C -0.0538(5) 0.5459(5) 0.4213(3)
H15 H -0.0192 0.6141 0.4458
H16 H -0.1434 0.5508 0.4151
C13 C -0.0075(4) 0.5234(4) 0.3366(3)
H17 H 0.0362 0.5887 0.3190
C14 C -0.1095(4) 0.4936(4) 0.2690(3)
C15 C -0.1659(8) 0.5743(6) 0.2194(4)
H18 H -0.1367 0.6465 0.2246
C16 C -0.2656(9) 0.5498(7) 0.1616(5)
H19 H -0.3050 0.6061 0.1289
C17 C -0.3080(6) 0.4454(9) 0.1511(4)
H20 H -0.3742 0.4296 0.1103
C18 C -0.2533(5) 0.3636(6) 0.2004(3)
H21 H -0.2816 0.2913 0.1940
C19 C -0.1567(4) 0.3888(4) 0.2593(3)
H22 H -0.1211 0.3330 0.2943
C20 C 0.3713(5) 0.0590(3) 0.3042(3)
H23 H 0.4545 0.0288 0.3133
H24 H 0.3152 0.0042 0.3225
C21 C 0.3380(4) 0.0806(3) 0.2130(2)
C22 C 0.2842(5) 0.0270(4) 0.0805(3)
H25 H 0.1974 0.0099 0.0643
H26 H 0.3327 -0.0064 0.0400
C23 C 0.3043(4) 0.1505(3) 0.0847(2)
H27 H 0.2294 0.1888 0.0596
C24 C 0.4139(4) 0.1890(3) 0.0437(2)
C25 C 0.3975(5) 0.2607(4) -0.0240(3)
H28 H 0.3186 0.2864 -0.0436
C26 C 0.4986(5) 0.2945(4) -0.0625(3)
H29 H 0.4879 0.3425 -0.1083
C27 C 0.6126(5) 0.2575(4) -0.0332(3)
H30 H 0.6806 0.2807 -0.0589
C28 C 0.6292(5) 0.1869(4) 0.0330(3)
H31 H 0.7082 0.1617 0.0527
C29 C 0.5297(4) 0.1526(4) 0.0709(3)
H32 H 0.5416 0.1035 0.1160
C30 C 0.5689(4) 0.4038(4) 0.4301(3)
H33 H 0.5873 0.4204 0.4899
H34 H 0.6414 0.3687 0.4120
C31 C 0.5449(4) 0.5088(4) 0.3829(3)
C32 C 0.5884(5) 0.6818(4) 0.3554(3)
H35 H 0.6512 0.6986 0.3189
H36 H 0.5752 0.7465 0.3890
C33 C 0.4695(4) 0.6466(3) 0.3040(3)
H37 H 0.4787 0.6537 0.2438
C34 C 0.3556(4) 0.7050(3) 0.3212(3)
C35 C 0.2721(5) 0.7452(4) 0.2582(3)
H38 H 0.2885 0.7378 0.2024
C36 C 0.1644(5) 0.7961(4) 0.2740(4)
H39 H 0.1096 0.8232 0.2294
C37 C 0.1383(5) 0.8069(4) 0.3548(3)
H40 H 0.0651 0.8407 0.3660
C38 C 0.2196(4) 0.7680(4) 0.4190(3)
H41 H 0.2022 0.7756 0.4745
C39 C 0.3264(5) 0.7179(4) 0.4034(3)
H42 H 0.3809 0.6917 0.4485
N4 N 0.2625(3) 0.3905(3) 0.2426(2)
H1 H 0.205(3) 0.377(3) 0.277(2)
H2 H 0.297(4) 0.325(2) 0.235(3)
H3 H 0.330(3) 0.424(3) 0.270(2)
C40 C 0.2175(4) 0.4470(4) 0.1638(2)
H43 H 0.1767 0.5153 0.1783
C41 C 0.3257(5) 0.4776(5) 0.1201(3)
H44 H 0.3823 0.5212 0.1573
H45 H 0.2982 0.5196 0.0703
H46 H 0.3667 0.4119 0.1044
C42 C 0.1229(4) 0.3774(4) 0.1114(3)
C43 C 0.0997(5) 0.3959(5) 0.0255(3)
H47 H 0.1385 0.4542 0.0012
C44 C 0.0199(6) 0.3288(6) -0.0245(3)
H48 H 0.0040 0.3430 -0.0822
C45 C -0.0367(5) 0.2416(7) 0.0093(4)
H49 H -0.0865 0.1936 -0.0255
C46 C -0.0190(5) 0.2257(6) 0.0950(3)
H50 H -0.0607 0.1692 0.1194
C47 C 0.0605(4) 0.2935(4) 0.1446(3)
H51 H 0.0721 0.2819 0.2028
F6? F 0.1649(7) 0.3576(7) 0.7001(7)
loop_
_geom_bond_atom_site_label_1
_geom_bond_atom_site_label_2
_geom_bond_site_symmetry_1
_geom_bond_site_symmetry_2
P1 F1 1_555 1_555
F2 P1 1_555 1_555
F3 P1 1_555 1_555
F4 P1 1_555 1_555
F5 P1 1_555 1_555
F7 P1 1_555 1_555
O1 C11 1_555 1_555
O2 C21 1_555 1_555
O3 C31 1_555 1_555
N1 C11 1_555 1_555
N2 C21 1_555 1_555
N3 C31 1_555 1_555
N4 H1 1_555 1_555
H2 N4 1_555 1_555
H3 N4 1_555 1_555
C1 C2 1_555 1_555
C2 C3 1_555 1_555
C3 C4 1_555 1_555
C4 C5 1_555 1_555
C5 C6 1_555 1_555
C6 C1 1_555 1_555
C7 C6 1_555 1_555
H4 C7 1_555 1_555
H5 C7 1_555 1_555
H6 C7 1_555 1_555
C8 C2 1_555 1_555
H7 C8 1_555 1_555
H8 C8 1_555 1_555
H9 C8 1_555 1_555
C9 C4 1_555 1_555
H10 C9 1_555 1_555
H11 C9 1_555 1_555
H12 C9 1_555 1_555
C10 C1 1_555 1_555
H13 C10 1_555 1_555
H14 C10 1_555 1_555
C11 C10 1_555 1_555
C12 O1 1_555 1_555
H15 C12 1_555 1_555
H16 C12 1_555 1_555
C13 N1 1_555 1_555
H17 C13 1_555 1_555
C14 C13 1_555 1_555
C15 C14 1_555 1_555
H18 C15 1_555 1_555
C16 C15 1_555 1_555
H19 C16 1_555 1_555
C17 C16 1_555 1_555
H20 C17 1_555 1_555
C18 C17 1_555 1_555
H21 C18 1_555 1_555
C19 C14 1_555 1_555
H22 C19 1_555 1_555
C20 C3 1_555 1_555
H23 C20 1_555 1_555
H24 C20 1_555 1_555
C21 C20 1_555 1_555
C22 O2 1_555 1_555
H25 C22 1_555 1_555
H26 C22 1_555 1_555
C23 N2 1_555 1_555
H27 C23 1_555 1_555
C24 C23 1_555 1_555
C25 C24 1_555 1_555
H28 C25 1_555 1_555
C26 C25 1_555 1_555
H29 C26 1_555 1_555
C27 C26 1_555 1_555
H30 C27 1_555 1_555
C28 C27 1_555 1_555
H31 C28 1_555 1_555
C29 C24 1_555 1_555
H32 C29 1_555 1_555
C30 C5 1_555 1_555
H33 C30 1_555 1_555
H34 C30 1_555 1_555
C31 C30 1_555 1_555
C32 O3 1_555 1_555
H35 C32 1_555 1_555
H36 C32 1_555 1_555
C33 N3 1_555 1_555
H37 C33 1_555 1_555
C34 C33 1_555 1_555
C35 C34 1_555 1_555
H38 C35 1_555 1_555
C36 C35 1_555 1_555
H39 C36 1_555 1_555
C37 C36 1_555 1_555
H40 C37 1_555 1_555
C38 C37 1_555 1_555
H41 C38 1_555 1_555
C39 C34 1_555 1_555
H42 C39 1_555 1_555
C40 N4 1_555 1_555
H43 C40 1_555 1_555
C41 C40 1_555 1_555
H44 C41 1_555 1_555
H45 C41 1_555 1_555
H46 C41 1_555 1_555
C42 C40 1_555 1_555
C43 C42 1_555 1_555
H47 C43 1_555 1_555
C44 C43 1_555 1_555
H48 C44 1_555 1_555
C45 C44 1_555 1_555
H49 C45 1_555 1_555
C46 C45 1_555 1_555
H50 C46 1_555 1_555
C47 C42 1_555 1_555
H51 C47 1_555 1_555
C12 C13 1_555 1_555
C18 C19 1_555 1_555
C22 C23 1_555 1_555
C28 C29 1_555 1_555
C32 C33 1_555 1_555
C38 C39 1_555 1_555
C46 C47 1_555 1_555

#END
