
#######################################################################
#
#                 Cambridge Crystallographic Data Centre
#                                CCDC 
#
#######################################################################
#
# If this CIF has been generated from an entry in the Cambridge 
# Structural Database, then it will include bibliographic, chemical, 
# crystal, experimental, refinement or atomic coordinate data resulting 
# from the CCDC's data processing and validation procedures.
#
#######################################################################

data_YIXMIC
_chemical_formula_moiety         'C20 H32 N2 O2 S2'
_chemical_name_systematic        
'2-(Methylsulfanyl)cyclododecanone p-toluenesulfanylhydrazone'
_symmetry_cell_setting           monoclinic
_symmetry_space_group_name_H-M   'P 21/n'
_symmetry_Int_Tables_number      14
_space_group_name_Hall           '-P 2yn'
loop_
_symmetry_equiv_pos_site_id
_symmetry_equiv_pos_as_xyz
1 x,y,z
2 1/2-x,1/2+y,1/2-z
3 -x,-y,-z
4 1/2+x,1/2-y,1/2+z
_cell_length_a                   8.4374(7)
_cell_length_b                   11.5276(10)
_cell_length_c                   21.7836(19)
_cell_angle_alpha                90
_cell_angle_beta                 92.530(2)
_cell_angle_gamma                90
_cell_volume                     2116.67
_exptl_crystal_colour            colorless
_exptl_crystal_description       prismatic
_chemical_melting_point          136-138deg.C
_cell_formula_units_Z            4
_exptl_crystal_recrystallization_method methanol
loop_
_atom_site_label
_atom_site_type_symbol
_atom_site_fract_x
_atom_site_fract_y
_atom_site_fract_z
S1 S 0.84188(7) 0.86341(5) 0.29057(3)
S2 S 0.28829(5) 1.10533(4) 0.20128(2)
O1 O 0.24538(17) 1.21632(12) 0.17655(6)
O2 O 0.19940(15) 1.00460(12) 0.18414(7)
N1 N 0.53858(18) 0.97987(13) 0.19883(7)
N2 N 0.47071(18) 1.08519(14) 0.17949(7)
C1 C 0.6872(2) 0.96614(16) 0.19183(8)
C2 C 0.8013(2) 1.05110(18) 0.16582(9)
H1 H 0.8964 1.0541 0.1925
H2 H 0.7536 1.1277 0.1655
C3 C 0.8478(2) 1.02089(19) 0.10087(9)
H3 H 0.9303 1.0739 0.0889
H4 H 0.8918 0.9431 0.1010
C4 C 0.7115(3) 1.0267(2) 0.05364(10)
H5 H 0.6746 1.1063 0.0507
H6 H 0.6249 0.9799 0.0678
C5 C 0.7525(3) 0.9853(2) -0.01033(10)
H7 H 0.6654 1.0047 -0.0391
H8 H 0.8456 1.0269 -0.0229
C6 C 0.7844(3) 0.8560(2) -0.01425(11)
H9 H 0.8664 0.8360 0.0165
H10 H 0.8255 0.8393 -0.0542
C7 C 0.6409(3) 0.7787(2) -0.00514(11)
H11 H 0.5638 0.8216 0.0175
H12 H 0.5921 0.7598 -0.0451
C8 C 0.6798(3) 0.6672(2) 0.02873(12)
H13 H 0.7644 0.6280 0.0083
H14 H 0.5874 0.6172 0.0262
C9 C 0.7308(3) 0.6842(2) 0.09646(11)
H15 H 0.7750 0.6119 0.1123
H16 H 0.8141 0.7422 0.0993
C10 C 0.5981(3) 0.72134(18) 0.13636(10)
H17 H 0.5183 0.6607 0.1355
H18 H 0.5491 0.7904 0.1186
C11 C 0.6475(3) 0.74684(18) 0.20316(10)
H19 H 0.5527 0.7598 0.2259
H20 H 0.7006 0.6790 0.2206
C12 C 0.7559(2) 0.85050(17) 0.21215(9)
H21 H 0.8455 0.8364 0.1860
C13 C 0.6686(3) 0.8781(2) 0.33481(11)
H22 H 0.6090 0.9447 0.3208
H23 H 0.7000 0.8877 0.3774
H24 H 0.6041 0.8099 0.3299
C14 C 0.2972(2) 1.11577(16) 0.28203(9)
C15 C 0.3174(2) 1.22352(17) 0.30923(9)
H25 H 0.3252 1.2896 0.2851
C16 C 0.3258(2) 1.23198(18) 0.37211(10)
H26 H 0.3384 1.3045 0.3903
C17 C 0.3159(3) 1.13478(19) 0.40892(10)
C18 C 0.2959(3) 1.02835(18) 0.38062(10)
H27 H 0.2896 0.9622 0.4048
C19 C 0.2849(3) 1.01732(17) 0.31766(10)
H28 H 0.2695 0.9450 0.2995
C20 C 0.3224(4) 1.1469(2) 0.47810(11)
H29 H 0.3608 1.2228 0.4893
H30 H 0.3924 1.0892 0.4959
H31 H 0.2180 1.1365 0.4931
H32 H 0.522(2) 1.1482(14) 0.1827(10)
loop_
_geom_bond_atom_site_label_1
_geom_bond_atom_site_label_2
_geom_bond_site_symmetry_1
_geom_bond_site_symmetry_2
S1 C12 1_555 1_555
S2 O1 1_555 1_555
O2 S2 1_555 1_555
N1 N2 1_555 1_555
N2 S2 1_555 1_555
C1 N1 1_555 1_555
C2 C1 1_555 1_555
H1 C2 1_555 1_555
H2 C2 1_555 1_555
C3 C2 1_555 1_555
H3 C3 1_555 1_555
H4 C3 1_555 1_555
C4 C3 1_555 1_555
H5 C4 1_555 1_555
H6 C4 1_555 1_555
C5 C4 1_555 1_555
H7 C5 1_555 1_555
H8 C5 1_555 1_555
C6 C5 1_555 1_555
H9 C6 1_555 1_555
H10 C6 1_555 1_555
C7 C6 1_555 1_555
H11 C7 1_555 1_555
H12 C7 1_555 1_555
C8 C7 1_555 1_555
H13 C8 1_555 1_555
H14 C8 1_555 1_555
C9 C8 1_555 1_555
H15 C9 1_555 1_555
H16 C9 1_555 1_555
C10 C9 1_555 1_555
H17 C10 1_555 1_555
H18 C10 1_555 1_555
C11 C10 1_555 1_555
H19 C11 1_555 1_555
H20 C11 1_555 1_555
C12 C1 1_555 1_555
H21 C12 1_555 1_555
C13 S1 1_555 1_555
H22 C13 1_555 1_555
H23 C13 1_555 1_555
H24 C13 1_555 1_555
C14 S2 1_555 1_555
C15 C14 1_555 1_555
H25 C15 1_555 1_555
C16 C15 1_555 1_555
H26 C16 1_555 1_555
C17 C16 1_555 1_555
C18 C17 1_555 1_555
H27 C18 1_555 1_555
C19 C14 1_555 1_555
H28 C19 1_555 1_555
C20 C17 1_555 1_555
H29 C20 1_555 1_555
H30 C20 1_555 1_555
H31 C20 1_555 1_555
H32 N2 1_555 1_555
C11 C12 1_555 1_555
C18 C19 1_555 1_555

#END
