
#######################################################################
#
#                 Cambridge Crystallographic Data Centre
#                                CCDC 
#
#######################################################################
#
# If this CIF has been generated from an entry in the Cambridge 
# Structural Database, then it will include bibliographic, chemical, 
# crystal, experimental, refinement or atomic coordinate data resulting 
# from the CCDC's data processing and validation procedures.
#
#######################################################################

data_YIXMAU
_chemical_formula_moiety         'C9 H20 N1 O1 1+,Cl1 O4 1-'
_chemical_name_systematic        
'4-Hydroxy-2,2,6,6-tetramethylpiperidinium perchlorate'
_symmetry_cell_setting           monoclinic
_symmetry_space_group_name_H-M   'P 21/n'
_symmetry_Int_Tables_number      14
_space_group_name_Hall           '-P 2yn'
loop_
_symmetry_equiv_pos_site_id
_symmetry_equiv_pos_as_xyz
1 x,y,z
2 1/2-x,1/2+y,1/2-z
3 -x,-y,-z
4 1/2+x,1/2-y,1/2+z
_cell_length_a                   7.5712(15)
_cell_length_b                   13.927(3)
_cell_length_c                   12.007(2)
_cell_angle_alpha                90
_cell_angle_beta                 100.71(3)
_cell_angle_gamma                90
_cell_volume                     1244.01
_exptl_crystal_colour            colorless
_exptl_crystal_description       block
_cell_formula_units_Z            4
loop_
_atom_site_label
_atom_site_type_symbol
_atom_site_fract_x
_atom_site_fract_y
_atom_site_fract_z
O1 O 0.8859(2) 0.66280(10) 0.28774(12)
H1 H 0.9165 0.6118 0.2631
N1 N 0.6419(2) 0.74364(13) -0.04347(15)
H2 H 0.694(4) 0.6951(17) -0.078(2)
H3 H 0.570(4) 0.7733(17) -0.099(2)
C1 C 0.7957(3) 0.80834(14) 0.01410(18)
C2 C 0.8982(3) 0.75325(14) 0.11605(18)
H4 H 0.9652 0.7001 0.0882
H5 H 0.9874 0.7969 0.1609
C3 C 0.7796(3) 0.71199(14) 0.19322(16)
H6 H 0.7150 0.7661 0.2230
C4 C 0.6403(3) 0.64456(14) 0.12660(17)
H7 H 0.5646 0.6181 0.1782
H8 H 0.7030 0.5902 0.0977
C5 C 0.5198(3) 0.69386(14) 0.02718(17)
C6 C 0.3909(3) 0.76627(15) 0.06528(19)
H9 H 0.3364 0.8060 0.0006
H10 H 0.4574 0.8073 0.1250
H11 H 0.2963 0.7318 0.0946
C7 C 0.4117(3) 0.62072(15) -0.05253(19)
H12 H 0.4940 0.5759 -0.0797
H13 H 0.3397 0.6542 -0.1172
H14 H 0.3319 0.5851 -0.0118
C8 C 0.9141(3) 0.82429(17) -0.0744(2)
H15 H 1.0164 0.8651 -0.0422
H16 H 0.8437 0.8557 -0.1412
H17 H 0.9582 0.7623 -0.0965
C9 C 0.7249(3) 0.90544(15) 0.0458(2)
H18 H 0.6607 0.8970 0.1088
H19 H 0.6427 0.9320 -0.0197
H20 H 0.8259 0.9496 0.0685
Cl1 Cl 0.15810(8) 0.46849(3) 0.19458(5)
O2 O -0.0091(3) 0.47048(12) 0.23547(17)
O3 O 0.2067(3) 0.56462(12) 0.17449(16)
O4 O 0.1359(3) 0.41692(15) 0.08989(19)
O5 O 0.2955(3) 0.42562(16) 0.2770(2)
loop_
_geom_bond_atom_site_label_1
_geom_bond_atom_site_label_2
_geom_bond_site_symmetry_1
_geom_bond_site_symmetry_2
O1 H1 1_555 1_555
N1 H2 1_555 1_555
H3 N1 1_555 1_555
C1 N1 1_555 1_555
C2 C1 1_555 1_555
H4 C2 1_555 1_555
H5 C2 1_555 1_555
C3 O1 1_555 1_555
H6 C3 1_555 1_555
C4 C3 1_555 1_555
H7 C4 1_555 1_555
H8 C4 1_555 1_555
C5 N1 1_555 1_555
C6 C5 1_555 1_555
H9 C6 1_555 1_555
H10 C6 1_555 1_555
H11 C6 1_555 1_555
C7 C5 1_555 1_555
H12 C7 1_555 1_555
H13 C7 1_555 1_555
H14 C7 1_555 1_555
C8 C1 1_555 1_555
H15 C8 1_555 1_555
H16 C8 1_555 1_555
H17 C8 1_555 1_555
C9 C1 1_555 1_555
H18 C9 1_555 1_555
H19 C9 1_555 1_555
H20 C9 1_555 1_555
Cl1 O2 1_555 1_555
O3 Cl1 1_555 1_555
O4 Cl1 1_555 1_555
O5 Cl1 1_555 1_555
C2 C3 1_555 1_555
C4 C5 1_555 1_555

#END
