
#######################################################################
#
#                 Cambridge Crystallographic Data Centre
#                                CCDC 
#
#######################################################################
#
# If this CIF has been generated from an entry in the Cambridge 
# Structural Database, then it will include bibliographic, chemical, 
# crystal, experimental, refinement or atomic coordinate data resulting 
# from the CCDC's data processing and validation procedures.
#
#######################################################################

data_YIXNEY
_chemical_name_common            
3,6,16,16-Tetramethyl-4,5-di-azahexacyclo(6.6.1.1$3,6!.1$10,13!.0$2,7!.0$9,14!)heptadecan-4,11-diene
_chemical_formula_moiety         'C19 H26 N2'
_chemical_name_systematic        
(4ac,5ac,9ac,10ac)-1,4,4a,5,6,9,9a,10,10a-Decahydro-1,4,13,13-tetramethyl-1r,4c:5t,10t;6c,9c-trimethanobenzo(g)phthalazine
_symmetry_cell_setting           monoclinic
_symmetry_space_group_name_H-M   'P 21/c'
_symmetry_Int_Tables_number      14
_space_group_name_Hall           '-P 2ybc'
loop_
_symmetry_equiv_pos_site_id
_symmetry_equiv_pos_as_xyz
1 x,y,z
2 -x,1/2+y,1/2-z
3 -x,-y,-z
4 x,1/2-y,1/2+z
_cell_length_a                   11.079
_cell_length_b                   11.304
_cell_length_c                   12.478
_cell_angle_alpha                90
_cell_angle_beta                 92.57
_cell_angle_gamma                90
_cell_volume                     1561.14
_exptl_crystal_colour            colorless
_chemical_melting_point          178-180deg.C
_cell_formula_units_Z            4
loop_
_atom_site_label
_atom_site_type_symbol
_atom_site_fract_x
_atom_site_fract_y
_atom_site_fract_z
C1 C 0.8901(2) 0.2799(3) 0.4339(2)
C2 C 0.7751(2) 0.3188(2) 0.4909(2)
N1 N 0.7625(2) 0.2157(2) 0.5658(2)
N2 N 0.7962(2) 0.1233(2) 0.5199(2)
C3 C 0.8355(2) 0.1554(2) 0.4110(2)
C4 C 0.7170(2) 0.1883(2) 0.3438(2)
C5 C 0.6013(2) 0.1111(2) 0.3394(2)
C6 C 0.5205(2) 0.1746(2) 0.2525(2)
C7 C 0.3988(2) 0.1216(2) 0.2034(2)
C8 C 0.3337(3) 0.2376(3) 0.1746(2)
C9 C 0.3360(2) 0.2813(3) 0.2912(2)
C10 C 0.2849(2) 0.1718(3) 0.3433(2)
C11 C 0.3211(3) 0.0782(3) 0.2918(2)
C12 C 0.4769(2) 0.2869(2) 0.3117(2)
C13 C 0.5411(22) 0.2765(2) 0.4236(2)
C14 C 0.6757(2) 0.3020(2) 0.4004(2)
C15 C 0.5404(2) 0.1422(2) 0.4436(2)
C16 C 0.7720(3) 0.4362(2) 0.5496(2)
C17 C 0.9121(3) 0.0604(3) 0.3630(2)
C18 C 0.9219(3) 0.3522(3) 0.3356(2)
C19 C 1.0030(2) 0.2772(3) 0.5111(2)
H1 H 0.7415 0.1857 0.2711
H2 H 0.6137 0.0281 0.3279
H3 H 0.5715 0.1770 0.1923
H4 H 0.4110 0.0616 0.1505
H5 H 0.2534 0.2262 0.1442
H6 H 0.3783 0.2872 0.1281
H7 H 0.2960 0.3525 0.3119
H8 H 0.2346 0.1712 0.4040
H9 H 0.3022 -0.0028 0.3073
H10 H 0.4965 0.3661 0.2911
H11 H 0.5079 0.3240 0.4789
H12 H 0.6718 0.3775 0.3653
H13 H 0.4605 0.1101 0.4473
H14 H 0.5879 0.1196 0.5065
H15 H 0.7803 0.4994 0.4991
H16 H 0.8373 0.4395 0.6027
H17 H 0.6965 0.4441 0.5837
H18 H 0.9356 0.0843 0.2931
H19 H 0.8659 -0.0113 0.3570
H20 H 0.9830 0.0471 0.4085
H21 H 0.8532 0.3551 0.2860
H22 H 0.9887 0.3162 0.3015
H23 H 0.9435 0.4311 0.3576
H24 H 0.9857 0.2318 0.5736
H25 H 1.0241 0.3565 0.5320
H26 H 1.0693 0.2417 0.4759
loop_
_geom_bond_atom_site_label_1
_geom_bond_atom_site_label_2
_geom_bond_site_symmetry_1
_geom_bond_site_symmetry_2
C1 C2 1_555 1_555
C2 N1 1_555 1_555
N1 N2 1_555 1_555
N2 C3 1_555 1_555
C3 C1 1_555 1_555
C4 C3 1_555 1_555
C5 C4 1_555 1_555
C6 C5 1_555 1_555
C7 C6 1_555 1_555
C8 C7 1_555 1_555
C9 C8 1_555 1_555
C10 C9 1_555 1_555
C11 C7 1_555 1_555
C12 C6 1_555 1_555
C13 C12 1_555 1_555
C14 C2 1_555 1_555
C15 C5 1_555 1_555
C16 C2 1_555 1_555
C17 C3 1_555 1_555
C18 C1 1_555 1_555
C19 C1 1_555 1_555
H1 C4 1_555 1_555
H2 C5 1_555 1_555
H3 C6 1_555 1_555
H4 C7 1_555 1_555
H5 C8 1_555 1_555
H6 C8 1_555 1_555
H7 C9 1_555 1_555
H8 C10 1_555 1_555
H9 C11 1_555 1_555
H10 C12 1_555 1_555
H11 C13 1_555 1_555
H12 C14 1_555 1_555
H13 C15 1_555 1_555
H14 C15 1_555 1_555
H15 C16 1_555 1_555
H16 C16 1_555 1_555
H17 C16 1_555 1_555
H18 C17 1_555 1_555
H19 C17 1_555 1_555
H20 C17 1_555 1_555
H21 C18 1_555 1_555
H22 C18 1_555 1_555
H23 C18 1_555 1_555
H24 C19 1_555 1_555
H25 C19 1_555 1_555
H26 C19 1_555 1_555
C4 C14 1_555 1_555
C9 C12 1_555 1_555
C10 C11 1_555 1_555
C13 C14 1_555 1_555
C13 C15 1_555 1_555

#END
