
#######################################################################
#
#                 Cambridge Crystallographic Data Centre
#                                CCDC 
#
#######################################################################
#
# If this CIF has been generated from an entry in the Cambridge 
# Structural Database, then it will include bibliographic, chemical, 
# crystal, experimental, refinement or atomic coordinate data resulting 
# from the CCDC's data processing and validation procedures.
#
#######################################################################

data_YIXSUV
_chemical_formula_moiety         'C19 H24 N2 O8 S2'
_chemical_name_systematic        
N-(2-Methoxy-5-(((2-(2,4,6-trimethoxyphenyl)vinyl)sulfonyl)methyl)pyridin-3-yl)methanesulfonamide
_symmetry_cell_setting           monoclinic
_symmetry_space_group_name_H-M   'P 21/c'
_symmetry_Int_Tables_number      14
_space_group_name_Hall           '-P 2ybc'
loop_
_symmetry_equiv_pos_site_id
_symmetry_equiv_pos_as_xyz
1 x,y,z
2 -x,1/2+y,1/2-z
3 -x,-y,-z
4 x,1/2-y,1/2+z
_cell_length_a                   20.6775(11)
_cell_length_b                   9.6773(3)
_cell_length_c                   10.8980(4)
_cell_angle_alpha                90
_cell_angle_beta                 91.130(4)
_cell_angle_gamma                90
_cell_volume                     2180.29
_exptl_crystal_colour            colorless
_exptl_crystal_description       plate
_cell_formula_units_Z            4
loop_
_atom_site_label
_atom_site_type_symbol
_atom_site_fract_x
_atom_site_fract_y
_atom_site_fract_z
N1 N 0.31792(7) 0.31708(15) 0.50253(13)
C1 C 0.36441(8) 0.27838(17) 0.57954(15)
C2 C 0.39509(8) 0.36859(17) 0.66410(14)
C3 C 0.37311(8) 0.50301(17) 0.66968(15)
H1 H 0.3917 0.5659 0.7272
C4 C 0.32309(8) 0.54596(17) 0.58977(15)
C5 C 0.29822(9) 0.44990(18) 0.50803(16)
H2 H 0.2651 0.4791 0.4521
O1 O 0.38494(6) 0.14580(12) 0.58132(12)
C6 C 0.35040(10) 0.05089(18) 0.50191(18)
H3 H 0.3050 0.0466 0.5258
H4 H 0.3698 -0.0412 0.5092
H5 H 0.3529 0.0827 0.4168
N2 N 0.44652(7) 0.32011(14) 0.74263(13)
H6 H 0.4389 0.2616 0.8025
S1 S 0.52016(2) 0.37630(4) 0.71837(4)
O2 O 0.51667(6) 0.52336(13) 0.70196(13)
O3 O 0.56001(6) 0.32000(13) 0.81511(12)
C7 C 0.54325(11) 0.3016(2) 0.57853(19)
H7 H 0.5881 0.3270 0.5616
H8 H 0.5148 0.3354 0.5121
H9 H 0.5397 0.2008 0.5841
C8 C 0.29685(8) 0.69035(17) 0.59577(15)
H10 H 0.2794 0.7176 0.5141
H11 H 0.3322 0.7551 0.6184
S2 S 0.23410(2) 0.70145(4) 0.70668(4)
O4 O 0.26352(8) 0.68242(14) 0.82674(12)
O5 O 0.18318(6) 0.60823(13) 0.66848(13)
C9 C 0.20822(9) 0.87222(18) 0.69147(16)
H12 H 0.2265 0.9432 0.7414
C10 C 0.16187(8) 0.90069(18) 0.60753(16)
H13 H 0.1432 0.8219 0.5688
C11 C 0.13556(8) 1.03202(18) 0.56616(15)
C12 C 0.15347(8) 1.16227(18) 0.61503(15)
C13 C 0.12883(9) 1.28609(18) 0.56645(16)
H14 H 0.1418 1.3728 0.5995
C14 C 0.08488(9) 1.27837(18) 0.46842(16)
C15 C 0.06463(9) 1.1522(2) 0.41918(16)
H15 H 0.0336 1.1496 0.3537
C16 C 0.09004(9) 1.03104(18) 0.46651(16)
O6 O 0.19629(6) 1.15873(12) 0.71095(11)
C17 C 0.21644(9) 1.28770(17) 0.76564(16)
H16 H 0.2380 1.3444 0.7041
H17 H 0.2465 1.2694 0.8344
H18 H 0.1785 1.3371 0.7956
O7 O 0.05834(7) 1.39113(14) 0.41198(13)
C18 C 0.08385(11) 1.5243(2) 0.4423(2)
H19 H 0.0749 1.5454 0.5283
H20 H 0.0635 1.5942 0.3892
H21 H 0.1307 1.5247 0.4302
O8 O 0.07477(7) 0.90358(13) 0.42170(12)
C19 C 0.03509(10) 0.8969(2) 0.31250(17)
H22 H -0.0081 0.9329 0.3298
H23 H 0.0316 0.8007 0.2851
H24 H 0.0547 0.9526 0.2479
loop_
_geom_bond_atom_site_label_1
_geom_bond_atom_site_label_2
_geom_bond_site_symmetry_1
_geom_bond_site_symmetry_2
N1 C1 1_555 1_555
C1 C2 1_555 1_555
C2 C3 1_555 1_555
C3 H1 1_555 1_555
C4 C3 1_555 1_555
C5 N1 1_555 1_555
H2 C5 1_555 1_555
O1 C1 1_555 1_555
C6 O1 1_555 1_555
H3 C6 1_555 1_555
H4 C6 1_555 1_555
H5 C6 1_555 1_555
N2 C2 1_555 1_555
H6 N2 1_555 1_555
S1 N2 1_555 1_555
O2 S1 1_555 1_555
O3 S1 1_555 1_555
C7 S1 1_555 1_555
H7 C7 1_555 1_555
H8 C7 1_555 1_555
H9 C7 1_555 1_555
C8 C4 1_555 1_555
H10 C8 1_555 1_555
H11 C8 1_555 1_555
S2 C8 1_555 1_555
O4 S2 1_555 1_555
O5 S2 1_555 1_555
C9 S2 1_555 1_555
H12 C9 1_555 1_555
C10 C9 1_555 1_555
H13 C10 1_555 1_555
C11 C10 1_555 1_555
C12 C11 1_555 1_555
C13 C12 1_555 1_555
H14 C13 1_555 1_555
C14 C13 1_555 1_555
C15 C14 1_555 1_555
H15 C15 1_555 1_555
C16 C11 1_555 1_555
O6 C12 1_555 1_555
C17 O6 1_555 1_555
H16 C17 1_555 1_555
H17 C17 1_555 1_555
H18 C17 1_555 1_555
O7 C14 1_555 1_555
C18 O7 1_555 1_555
H19 C18 1_555 1_555
H20 C18 1_555 1_555
H21 C18 1_555 1_555
O8 C16 1_555 1_555
C19 O8 1_555 1_555
H22 C19 1_555 1_555
H23 C19 1_555 1_555
H24 C19 1_555 1_555
C4 C5 1_555 1_555
C15 C16 1_555 1_555

#END
