
#######################################################################
#
#                 Cambridge Crystallographic Data Centre
#                                CCDC 
#
#######################################################################
#
# If this CIF has been generated from an entry in the Cambridge 
# Structural Database, then it will include bibliographic, chemical, 
# crystal, experimental, refinement or atomic coordinate data resulting 
# from the CCDC's data processing and validation procedures.
#
#######################################################################

data_YIXVEI
_chemical_formula_moiety         'C2 H10 N2 2+,2(C2 H3 O2 1-)'
_chemical_name_systematic        '1,2-Diammonioethane diacetate'
_symmetry_cell_setting           triclinic
_symmetry_space_group_name_H-M   'P -1'
_symmetry_Int_Tables_number      2
_space_group_name_Hall           '-P 1'
loop_
_symmetry_equiv_pos_site_id
_symmetry_equiv_pos_as_xyz
1 x,y,z
2 -x,-y,-z
_cell_length_a                   5.5513(10)
_cell_length_b                   5.5589(11)
_cell_length_c                   7.4437(14)
_cell_angle_alpha                94.332(4)
_cell_angle_beta                 104.497(4)
_cell_angle_gamma                103.487(4)
_cell_volume                     214.06
_exptl_crystal_colour            colorless
_exptl_crystal_description       prismatic
_cell_formula_units_Z            1
loop_
_atom_site_label
_atom_site_type_symbol
_atom_site_fract_x
_atom_site_fract_y
_atom_site_fract_z
O1 O 1.1729(2) 0.4582(2) 0.71399(18)
O2 O 0.8387(2) 0.1362(2) 0.67505(18)
C1 C 0.9427(3) 0.3656(3) 0.7053(2)
C2 C 0.7843(4) 0.5403(4) 0.7374(3)
H1 H 0.8162 0.5879 0.8696
H2 H 0.6048 0.4585 0.6833
H3 H 0.8303 0.6867 0.6797
N1 N 0.3491(3) -0.0277(3) 0.74250(18)
C3 C 0.3995(3) 0.0555(3) 0.9441(2)
H4 H 0.2416 0.0042 0.9810
H5 H 0.4585 0.2364 0.9693
H6 H 0.288(4) -0.196(3) 0.720(3)
H7 H 0.492(3) 0.020(4) 0.709(3)
H8 H 0.238(4) 0.044(4) 0.681(3)
N1A N 0.6509(3) 0.0277(3) 1.25750(18)
C3A C 0.6005(3) -0.0555(3) 1.0559(2)
H4A H 0.7584 -0.0042 1.0190
H5A H 0.5415 -0.2364 1.0307
H6A H 0.712(4) 0.196(3) 1.280(3)
H7A H 0.508(3) -0.020(4) 1.291(3)
H8A H 0.762(4) -0.044(4) 1.319(3)
loop_
_geom_bond_atom_site_label_1
_geom_bond_atom_site_label_2
_geom_bond_site_symmetry_1
_geom_bond_site_symmetry_2
O1 C1 1_555 1_555
O2 C1 1_555 1_555
C1 C2 1_555 1_555
C2 H1 1_555 1_555
H2 C2 1_555 1_555
H3 C2 1_555 1_555
N1 C3 1_555 1_555
C3 H4 1_555 1_555
H5 C3 1_555 1_555
H6 N1 1_555 1_555
H7 N1 1_555 1_555
H8 N1 1_555 1_555
N1A C3A 1_555 1_555
C3A C3 1_555 1_555
H4A C3A 1_555 1_555
H5A C3A 1_555 1_555
H6A N1A 1_555 1_555
H7A N1A 1_555 1_555
H8A N1A 1_555 1_555

#END
