
#######################################################################
#
#                 Cambridge Crystallographic Data Centre
#                                CCDC 
#
#######################################################################
#
# If this CIF has been generated from an entry in the Cambridge 
# Structural Database, then it will include bibliographic, chemical, 
# crystal, experimental, refinement or atomic coordinate data resulting 
# from the CCDC's data processing and validation procedures.
#
#######################################################################

data_YIXYUA
_chemical_formula_moiety         'C17 H14 Cl2 N4 O2 S1,C4 H8 O2'
_chemical_name_systematic        
'5-(p-Tolyl)-4-(2-(2,4-dichlorophenoxy)acetamido)-1,2,4-triazole-3-thione ethyl acetate solvate'
_chemical_properties_biological  
'preliminary biological tests indicate herbicidal activity'
_symmetry_cell_setting           triclinic
_symmetry_space_group_name_H-M   'P -1'
_symmetry_Int_Tables_number      2
_space_group_name_Hall           '-P 1'
loop_
_symmetry_equiv_pos_site_id
_symmetry_equiv_pos_as_xyz
1 x,y,z
2 -x,-y,-z
_cell_length_a                   9.780(5)
_cell_length_b                   10.876(6)
_cell_length_c                   11.615(6)
_cell_angle_alpha                104.822(7)
_cell_angle_beta                 94.105(6)
_cell_angle_gamma                94.305(6)
_cell_volume                     1185.68
_exptl_crystal_colour            colorless
_chemical_melting_point          119-120deg.C
_cell_formula_units_Z            2
_exptl_crystal_recrystallization_method 'petroleum ether/ethyl acetate'
loop_
_atom_site_label
_atom_site_type_symbol
_atom_site_fract_x
_atom_site_fract_y
_atom_site_fract_z
S1 S 0.54304(12) 0.32647(12) 0.08326(11)
Cl1 Cl 1.06864(9) 0.02310(9) 0.29959(8)
Cl2 Cl 0.64150(13) 0.12782(16) 0.56081(11)
N1 N 0.7563(4) 0.4368(3) -0.1504(3)
N2 N 0.6464(4) 0.4351(3) -0.0831(3)
H1 H 0.5802 0.4825 -0.0852
N3 N 0.7715(3) 0.2990(3) -0.0413(3)
N4 N 0.8107(3) 0.1952(3) -0.0047(3)
H2 H 0.8749 0.2037 0.0521
O1 O 0.6592(3) 0.0591(3) -0.1467(2)
O2 O 0.8749(2) 0.0060(2) 0.0970(2)
C1 C 1.3559(6) 0.2668(6) -0.3132(6)
H3 H 1.4036 0.3485 -0.3091
H4 H 1.3422 0.2169 -0.3950
H5 H 1.4097 0.2230 -0.2668
C2 C 1.2181(5) 0.2857(4) -0.2640(4)
C3 C 1.1028(5) 0.2935(4) -0.3375(4)
H6 H 1.1102 0.2848 -0.4185
C4 C 0.9776(5) 0.3138(4) -0.2926(4)
H7 H 0.9018 0.3207 -0.3429
C5 C 0.9643(4) 0.3243(3) -0.1717(3)
C6 C 1.0782(4) 0.3150(4) -0.0985(4)
H8 H 1.0705 0.3212 -0.0179
C7 C 1.2039(5) 0.2967(4) -0.1443(4)
H9 H 1.2802 0.2916 -0.0937
C8 C 0.8317(4) 0.3521(3) -0.1248(3)
C9 C 0.6507(4) 0.3548(4) -0.0147(4)
C10 C 0.7443(4) 0.0779(3) -0.0615(3)
C11 C 0.7904(4) -0.0309(3) -0.0139(3)
H10 H 0.7091 -0.0828 -0.0042
H11 H 0.8407 -0.0841 -0.0734
C12 C 0.8115(3) 0.0336(3) 0.2011(3)
C13 C 0.6732(4) 0.0501(4) 0.2085(3)
H12 H 0.6157 0.0423 0.1391
C14 C 0.6194(4) 0.0786(4) 0.3190(4)
H13 H 0.5262 0.0888 0.3237
C15 C 0.7048(4) 0.0913(4) 0.4207(3)
C16 C 0.8433(4) 0.0746(3) 0.4166(3)
H14 H 0.8997 0.0831 0.4867
C17 C 0.8972(4) 0.0448(3) 0.3060(3)
C18 C -0.1166(6) 0.3819(5) 0.3435(6)
H15 H -0.1850 0.3908 0.2833
H16 H -0.0970 0.4618 0.4033
H17 H -0.1504 0.3172 0.3799
C19 C 0.0107(5) 0.3450(4) 0.2877(4)
C20 C 0.2535(6) 0.3451(6) 0.3139(5)
H18 H 0.2552 0.3597 0.2350
H19 H 0.2635 0.2555 0.3069
C21 C 0.3664(8) 0.4248(10) 0.3951(7)
H20 H 0.4527 0.4040 0.3644
H21 H 0.3644 0.4093 0.4727
H22 H 0.3559 0.5132 0.4013
O3 O 0.0145(4) 0.2880(3) 0.1834(3)
O4 O 0.1237(4) 0.3786(3) 0.3623(3)
loop_
_geom_bond_atom_site_label_1
_geom_bond_atom_site_label_2
_geom_bond_site_symmetry_1
_geom_bond_site_symmetry_2
S1 C9 1_555 1_555
Cl1 C17 1_555 1_555
Cl2 C15 1_555 1_555
N1 N2 1_555 1_555
N2 H1 1_555 1_555
N3 N4 1_555 1_555
N4 H2 1_555 1_555
O1 C10 1_555 1_555
O2 C11 1_555 1_555
C1 H3 1_555 1_555
H4 C1 1_555 1_555
H5 C1 1_555 1_555
C2 C1 1_555 1_555
C3 C2 1_555 1_555
H6 C3 1_555 1_555
C4 C3 1_555 1_555
H7 C4 1_555 1_555
C5 C4 1_555 1_555
C6 C5 1_555 1_555
H8 C6 1_555 1_555
C7 C2 1_555 1_555
H9 C7 1_555 1_555
C8 N1 1_555 1_555
C9 N2 1_555 1_555
C10 N4 1_555 1_555
C11 C10 1_555 1_555
H10 C11 1_555 1_555
H11 C11 1_555 1_555
C12 O2 1_555 1_555
C13 C12 1_555 1_555
H12 C13 1_555 1_555
C14 C13 1_555 1_555
H13 C14 1_555 1_555
C15 C14 1_555 1_555
C16 C15 1_555 1_555
H14 C16 1_555 1_555
C17 C12 1_555 1_555
C18 H15 1_555 1_555
H16 C18 1_555 1_555
H17 C18 1_555 1_555
C19 C18 1_555 1_555
C20 H18 1_555 1_555
H19 C20 1_555 1_555
C21 C20 1_555 1_555
H20 C21 1_555 1_555
H21 C21 1_555 1_555
H22 C21 1_555 1_555
O3 C19 1_555 1_555
O4 C19 1_555 1_555
N3 C8 1_555 1_555
N3 C9 1_555 1_555
C5 C8 1_555 1_555
C6 C7 1_555 1_555
C16 C17 1_555 1_555
C20 O4 1_555 1_555

#END
