
#######################################################################
#
#                 Cambridge Crystallographic Data Centre
#                                CCDC 
#
#######################################################################
#
# If this CIF has been generated from an entry in the Cambridge 
# Structural Database, then it will include bibliographic, chemical, 
# crystal, experimental, refinement or atomic coordinate data resulting 
# from the CCDC's data processing and validation procedures.
#
#######################################################################

data_YIXZOV
_chemical_formula_moiety         'C19 H18 O5 S2'
_chemical_name_systematic        
3,3-Dimethyl-7,11-bis(thiophen-2-yl)-2,4-dioxyspiro[5.5]undecane-1,5,9-trione
_symmetry_cell_setting           monoclinic
_symmetry_space_group_name_H-M   'P 21/n'
_symmetry_Int_Tables_number      14
_space_group_name_Hall           '-P 2yn'
loop_
_symmetry_equiv_pos_site_id
_symmetry_equiv_pos_as_xyz
1 x,y,z
2 1/2-x,1/2+y,1/2-z
3 -x,-y,-z
4 1/2+x,1/2-y,1/2+z
_cell_length_a                   9.4872(15)
_cell_length_b                   9.5148(13)
_cell_length_c                   20.634(3)
_cell_angle_alpha                90
_cell_angle_beta                 92.209(2)
_cell_angle_gamma                90
_cell_volume                     1861.22
_exptl_crystal_colour            colorless
_exptl_crystal_description       block
_chemical_melting_point          217-220deg.C
_cell_formula_units_Z            4
_exptl_crystal_recrystallization_method '95% ethanol'
loop_
_atom_site_label
_atom_site_type_symbol
_atom_site_fract_x
_atom_site_fract_y
_atom_site_fract_z
O1 O -0.1589(4) 1.1752(4) 0.2060(2)
O2 O 0.2714(4) 0.7338(4) 0.06108(14)
O3 O 0.1305(4) 0.8625(4) 0.00165(15)
O4 O 0.2704(4) 0.7361(4) 0.17665(15)
O5 O 0.1433(4) 0.8800(4) 0.22954(17)
S1 S 0.3698(4) 1.1205(4) 0.03755(9)
S2 S -0.1103(3) 0.6218(3) 0.04387(11)
C3 C -0.0806(5) 1.0968(5) 0.1790(3)
C4 C 0.0647(5) 1.1401(5) 0.1634(2)
H3 H 0.1236 1.1329 0.2028
H4 H 0.0620 1.2384 0.1510
C5 C 0.1361(5) 1.0579(5) 0.1100(2)
H5 H 0.0918 1.0878 0.0686
C6 C 0.1121(5) 0.8946(5) 0.1158(2)
C7 C -0.0523(5) 0.8688(5) 0.1126(2)
H6 H -0.0875 0.9073 0.0709
C8 C -0.1272(6) 0.9495(5) 0.1649(3)
H7 H -0.2270 0.9518 0.1528
H8 H -0.1170 0.8962 0.2049
C9 C 0.2894(5) 1.0956(5) 0.1082(2)
C10 C 0.388(2) 1.1273(19) 0.1578(7)
H9 H 0.3643 1.1268 0.2012
C11 C 0.5214(6) 1.1595(7) 0.1387(3)
H10 H 0.5991 1.1752 0.1667
C12 C 0.5227(6) 1.1648(7) 0.0731(3)
H11 H 0.6014 1.1906 0.0504
C13 C -0.0912(5) 0.7171(5) 0.1121(2)
C14 C -0.120(3) 0.624(3) 0.1629(11)
H12 H -0.1168 0.6537 0.2059
C15 C -0.1537(7) 0.4874(7) 0.1459(4)
H13 H -0.1721 0.4146 0.1745
C16 C -0.1551(7) 0.4780(6) 0.0805(4)
H14 H -0.1796 0.3961 0.0582
C17 C 0.1706(5) 0.8293(5) 0.0553(2)
C18 C 0.1764(5) 0.8389(5) 0.1777(2)
C19 C 0.3294(6) 0.6769(6) 0.1206(2)
C20 C 0.4819(7) 0.7108(10) 0.1237(4)
H15 H 0.5242 0.6740 0.1631
H16 H 0.4941 0.8109 0.1227
H17 H 0.5262 0.6694 0.0872
C21 C 0.2917(10) 0.5246(7) 0.1214(4)
H18 H 0.3292 0.4825 0.1607
H19 H 0.3308 0.4787 0.0847
H20 H 0.1909 0.5147 0.1193
C1? C 0.379(9) 1.136(9) 0.059(3)
H1? H 0.3434 1.1444 0.0169
C2? C -0.139(6) 0.621(6) 0.065(2)
H2? H -0.1611 0.6514 0.0230
S3? S 0.387(4) 1.093(3) 0.1762(13)
S4? S -0.109(4) 0.634(3) 0.1805(11)
loop_
_geom_bond_atom_site_label_1
_geom_bond_atom_site_label_2
_geom_bond_site_symmetry_1
_geom_bond_site_symmetry_2
O1 C3 1_555 1_555
O2 C17 1_555 1_555
O3 C17 1_555 1_555
O4 C18 1_555 1_555
O5 C18 1_555 1_555
S1 C9 1_555 1_555
S2 C13 1_555 1_555
C3 C4 1_555 1_555
C4 H3 1_555 1_555
H4 C4 1_555 1_555
C5 C4 1_555 1_555
H5 C5 1_555 1_555
C6 C5 1_555 1_555
C7 C6 1_555 1_555
H6 C7 1_555 1_555
C8 C3 1_555 1_555
H7 C8 1_555 1_555
H8 C8 1_555 1_555
C9 C5 1_555 1_555
C10 C9 1_555 1_555
H9 C10 1_555 1_555
C11 C10 1_555 1_555
H10 C11 1_555 1_555
C12 S1 1_555 1_555
H11 C12 1_555 1_555
C13 C7 1_555 1_555
C14 C13 1_555 1_555
H12 C14 1_555 1_555
C15 C14 1_555 1_555
H13 C15 1_555 1_555
C16 S2 1_555 1_555
H14 C16 1_555 1_555
C17 C6 1_555 1_555
C18 C6 1_555 1_555
C19 O2 1_555 1_555
C20 C19 1_555 1_555
H15 C20 1_555 1_555
H16 C20 1_555 1_555
H17 C20 1_555 1_555
C21 C19 1_555 1_555
H18 C21 1_555 1_555
H19 C21 1_555 1_555
H20 C21 1_555 1_555
O4 C19 1_555 1_555
C7 C8 1_555 1_555
C11 C12 1_555 1_555
C15 C16 1_555 1_555

#END
