
#######################################################################
#
#                 Cambridge Crystallographic Data Centre
#                                CCDC 
#
#######################################################################
#
# If this CIF has been generated from an entry in the Cambridge 
# Structural Database, then it will include bibliographic, chemical, 
# crystal, experimental, refinement or atomic coordinate data resulting 
# from the CCDC's data processing and validation procedures.
#
#######################################################################

data_YIYMEZ
_chemical_formula_moiety         'C11 H20 O5 S2'
_chemical_name_systematic        
3,4,6-Trihydroxy-4-methyl-5-methoxy-2-(1,3-dithian-2-yl)-tetrahydropyran
_symmetry_cell_setting           orthorhombic
_symmetry_space_group_name_H-M   'P 21 21 21'
_symmetry_Int_Tables_number      19
_space_group_name_Hall           'P 2ac 2ab'
loop_
_symmetry_equiv_pos_site_id
_symmetry_equiv_pos_as_xyz
1 x,y,z
2 1/2-x,-y,1/2+z
3 -x,1/2+y,1/2-z
4 1/2+x,1/2-y,-z
_cell_length_a                   8.3287(3)
_cell_length_b                   9.0129(3)
_cell_length_c                   17.6383(5)
_cell_angle_alpha                90
_cell_angle_beta                 90
_cell_angle_gamma                90
_cell_volume                     1324.03
_exptl_crystal_colour            colorless
_cell_formula_units_Z            4
_exptl_crystal_recrystallization_method 'ethyl acetate'
loop_
_atom_site_label
_atom_site_type_symbol
_atom_site_fract_x
_atom_site_fract_y
_atom_site_fract_z
S1 S 0.24005(3) 0.91374(3) 0.105593(15)
S2 S 0.27141(3) 0.61731(3) 0.026158(16)
O1 O 0.56402(9) 0.71936(11) 0.23702(5)
H1 H 0.6025 0.8042 0.2293
O2 O 0.41516(10) 0.51068(9) 0.32549(5)
H2 H 0.5154 0.5152 0.3301
O3 O 0.09362(10) 0.77935(10) 0.33907(5)
O4 O 0.13393(15) 0.41503(15) 0.25922(7)
H3 H 0.0596 0.3662 0.2389
O6 O 0.14144(10) 0.64272(10) 0.19151(5)
C1 C 0.31105(12) 0.65116(13) 0.17982(6)
H5 H 0.3551 0.5483 0.1754
C2 C 0.39422(12) 0.73045(13) 0.24640(6)
H6 H 0.3621 0.8373 0.2469
C3 C 0.34995(12) 0.65851(13) 0.32258(6)
C4 C 0.16671(12) 0.63728(13) 0.32857(7)
H7 H 0.1428 0.5740 0.3737
C5 C 0.09544(13) 0.56385(14) 0.25822(7)
H8 H -0.0240 0.5713 0.2625
C6 C 0.41427(14) 0.74834(14) 0.38892(7)
H10 H 0.3833 0.7004 0.4366
H11 H 0.3694 0.8488 0.3872
H12 H 0.5316 0.7537 0.3857
C7 C -0.03577(16) 0.77638(17) 0.39221(9)
H13 H -0.1249 0.7185 0.3712
H14 H -0.0719 0.8780 0.4023
H15 H 0.0007 0.7307 0.4396
C8 C 0.33828(12) 0.73270(12) 0.10489(7)
H16 H 0.4563 0.7493 0.0990
C9 C 0.32161(13) 0.98139(13) 0.01646(6)
H17 H 0.2889 1.0861 0.0095
H18 H 0.4403 0.9785 0.0190
C10 C 0.26621(14) 0.89152(13) -0.05204(6)
H19 H 0.1474 0.8874 -0.0522
H20 H 0.3006 0.9431 -0.0989
C11 C 0.33173(14) 0.73403(14) -0.05315(7)
H21 H 0.4505 0.7391 -0.0541
H22 H 0.2966 0.6857 -0.1007
O5? O -0.0608(4) 0.5515(4) 0.25234(18)
H4? H -0.1026 0.5593 0.2955
H9? H 0.1419 0.4618 0.2546
loop_
_geom_bond_atom_site_label_1
_geom_bond_atom_site_label_2
_geom_bond_site_symmetry_1
_geom_bond_site_symmetry_2
S1 C8 1_555 1_555
S2 C8 1_555 1_555
O1 H1 1_555 1_555
O2 H2 1_555 1_555
O3 C4 1_555 1_555
O4 H3 1_555 1_555
O6 C1 1_555 1_555
C1 H5 1_555 1_555
C2 O1 1_555 1_555
H6 C2 1_555 1_555
C3 O2 1_555 1_555
C4 C3 1_555 1_555
H7 C4 1_555 1_555
C5 O4 1_555 1_555
H8 C5 1_555 1_555
C6 C3 1_555 1_555
H10 C6 1_555 1_555
H11 C6 1_555 1_555
H12 C6 1_555 1_555
C7 O3 1_555 1_555
H13 C7 1_555 1_555
H14 C7 1_555 1_555
H15 C7 1_555 1_555
C8 C1 1_555 1_555
H16 C8 1_555 1_555
C9 S1 1_555 1_555
H17 C9 1_555 1_555
H18 C9 1_555 1_555
C10 C9 1_555 1_555
H19 C10 1_555 1_555
H20 C10 1_555 1_555
C11 S2 1_555 1_555
H21 C11 1_555 1_555
H22 C11 1_555 1_555
O6 C5 1_555 1_555
C1 C2 1_555 1_555
C2 C3 1_555 1_555
C4 C5 1_555 1_555
C10 C11 1_555 1_555

#END
