
#######################################################################
#
#                 Cambridge Crystallographic Data Centre
#                                CCDC 
#
#######################################################################
#
# If this CIF has been generated from an entry in the Cambridge 
# Structural Database, then it will include bibliographic, chemical, 
# crystal, experimental, refinement or atomic coordinate data resulting 
# from the CCDC's data processing and validation procedures.
#
#######################################################################

data_YIZBOZ
_chemical_formula_moiety         'C26 H23 F6 N1 O4'
_chemical_name_systematic        
3,6-bis(4,4,4-Trifluoro-1-hydroxybut-1-en-3-one)-9-n-hexylcarbazole
_symmetry_cell_setting           orthorhombic
_symmetry_space_group_name_H-M   'P b c a'
_symmetry_Int_Tables_number      61
_space_group_name_Hall           '-P 2ac 2ab'
loop_
_symmetry_equiv_pos_site_id
_symmetry_equiv_pos_as_xyz
1 x,y,z
2 1/2-x,-y,1/2+z
3 -x,1/2+y,1/2-z
4 1/2+x,1/2-y,-z
5 -x,-y,-z
6 1/2+x,y,1/2-z
7 x,1/2-y,1/2+z
8 1/2-x,1/2+y,z
_cell_length_a                   24.286(7)
_cell_length_b                   8.025(3)
_cell_length_c                   25.041(8)
_cell_angle_alpha                90
_cell_angle_beta                 90
_cell_angle_gamma                90
_cell_volume                     4880.37
_exptl_crystal_colour            yellowish
_cell_formula_units_Z            8
_exptl_crystal_recrystallization_method dichloromethane
_exptl_crystal_preparation       fluorescent
loop_
_atom_site_label
_atom_site_type_symbol
_atom_site_fract_x
_atom_site_fract_y
_atom_site_fract_z
F1 F 0.4320(6) 0.254(3) 0.4658(5)
F2 F 0.5184(6) 0.257(3) 0.4423(6)
F3 F 0.4711(8) 0.4907(14) 0.4472(5)
F10 F 0.3642(8) 0.5481(19) -0.0677(11)
F11 F 0.3851(8) 0.737(3) -0.0078(6)
F12 F 0.3598(7) 0.813(2) -0.0860(6)
N1 N 0.1699(2) 0.2769(8) 0.2302(3)
O1 O 0.4229(2) 0.3059(7) 0.2710(2)
H1 H 0.4533 0.3160 0.2850
O2 O 0.4945(2) 0.3300(7) 0.3428(2)
O3 O 0.1875(3) 0.6622(10) 0.0122(3)
H2 H 0.2003 0.7063 -0.0146
O4 O 0.2561(3) 0.7553(11) -0.0556(3)
C1 C 0.2202(3) 0.2648(9) 0.2555(3)
C2 C 0.2332(3) 0.2028(9) 0.3056(3)
H3 H 0.2062 0.1585 0.3277
C3 C 0.2870(3) 0.2084(10) 0.3216(3)
H4 H 0.2963 0.1692 0.3554
C4 C 0.3289(3) 0.2718(9) 0.2883(3)
C5 C 0.3158(3) 0.3300(9) 0.2372(3)
H5 H 0.3433 0.3689 0.2146
C6 C 0.2619(3) 0.3290(8) 0.2208(3)
C7 C 0.2337(3) 0.3892(9) 0.1733(3)
C8 C 0.2503(3) 0.4669(9) 0.1274(3)
H6 H 0.2874 0.4889 0.1217
C9 C 0.2117(3) 0.5128(10) 0.0896(3)
C10 C 0.1559(3) 0.4751(11) 0.0985(3)
H7 H 0.1302 0.5061 0.0728
C11 C 0.1379(3) 0.3953(10) 0.1431(3)
H8 H 0.1009 0.3689 0.1478
C12 C 0.1768(3) 0.3551(9) 0.1812(3)
C13 C 0.3858(3) 0.2860(8) 0.3079(3)
C14 C 0.4007(3) 0.2889(10) 0.3613(3)
H9 H 0.3740 0.2765 0.3876
C15 C 0.4557(4) 0.3106(9) 0.3754(3)
C16 C 0.4691(4) 0.3221(13) 0.4337(4)
C17 C 0.2272(4) 0.5976(11) 0.0404(3)
C18 C 0.2804(3) 0.6152(10) 0.0220(3)
H10 H 0.3093 0.5747 0.0427
C19 C 0.2924(4) 0.6916(12) -0.0263(3)
C20 C 0.3498(4) 0.6976(13) -0.0474(4)
C21 C 0.1180(3) 0.2182(9) 0.2518(3)
H11 H 0.1253 0.1234 0.2748
H12 H 0.0953 0.1793 0.2225
C22 C 0.0859(3) 0.3458(9) 0.2831(3)
H13 H 0.0726 0.4315 0.2591
H14 H 0.1100 0.3982 0.3091
C23 C 0.0373(3) 0.2654(10) 0.3119(3)
H15 H 0.0152 0.2066 0.2856
H16 H 0.0515 0.1831 0.3366
C24 C 0.0001(3) 0.3820(10) 0.3422(3)
H17 H 0.0219 0.4413 0.3686
H18 H -0.0148 0.4637 0.3176
C25 C -0.0467(3) 0.2960(11) 0.3701(4)
H19 H -0.0317 0.2176 0.3957
H20 H -0.0675 0.2327 0.3439
C26 C -0.0858(4) 0.4128(13) 0.3989(4)
H21 H -0.0668 0.4658 0.4279
H22 H -0.1165 0.3505 0.4126
H23 H -0.0989 0.4960 0.3745
F4? F 0.3512(9) 0.605(3) -0.0925(7)
F5? F 0.3890(8) 0.643(4) -0.0148(8)
F6? F 0.3565(11) 0.8583(18) -0.0612(13)
F7? F 0.5195(6) 0.389(2) 0.4424(6)
F8? F 0.4326(6) 0.394(3) 0.4654(6)
F9? F 0.4743(9) 0.1608(14) 0.4542(5)
loop_
_geom_bond_atom_site_label_1
_geom_bond_atom_site_label_2
_geom_bond_site_symmetry_1
_geom_bond_site_symmetry_2
F1 C16 1_555 1_555
F2 C16 1_555 1_555
F3 C16 1_555 1_555
F10 C20 1_555 1_555
F11 C20 1_555 1_555
F12 C20 1_555 1_555
N1 C1 1_555 1_555
O1 H1 1_555 1_555
O2 C15 1_555 1_555
O3 H2 1_555 1_555
O4 C19 1_555 1_555
C1 C2 1_555 1_555
C2 H3 1_555 1_555
C3 C2 1_555 1_555
H4 C3 1_555 1_555
C4 C3 1_555 1_555
C5 C4 1_555 1_555
H5 C5 1_555 1_555
C6 C1 1_555 1_555
C7 C6 1_555 1_555
C8 C7 1_555 1_555
H6 C8 1_555 1_555
C9 C8 1_555 1_555
C10 C9 1_555 1_555
H7 C10 1_555 1_555
C11 C10 1_555 1_555
H8 C11 1_555 1_555
C12 N1 1_555 1_555
C13 O1 1_555 1_555
C14 C13 1_555 1_555
H9 C14 1_555 1_555
C15 C14 1_555 1_555
C16 C15 1_555 1_555
C17 O3 1_555 1_555
C18 C17 1_555 1_555
H10 C18 1_555 1_555
C19 C18 1_555 1_555
C20 C19 1_555 1_555
C21 N1 1_555 1_555
H11 C21 1_555 1_555
H12 C21 1_555 1_555
C22 C21 1_555 1_555
H13 C22 1_555 1_555
H14 C22 1_555 1_555
C23 C22 1_555 1_555
H15 C23 1_555 1_555
H16 C23 1_555 1_555
C24 C23 1_555 1_555
H17 C24 1_555 1_555
H18 C24 1_555 1_555
C25 C24 1_555 1_555
H19 C25 1_555 1_555
H20 C25 1_555 1_555
C26 C25 1_555 1_555
H21 C26 1_555 1_555
H22 C26 1_555 1_555
H23 C26 1_555 1_555
C4 C13 1_555 1_555
C5 C6 1_555 1_555
C7 C12 1_555 1_555
C9 C17 1_555 1_555
C11 C12 1_555 1_555

#END
