
#######################################################################
#
#                 Cambridge Crystallographic Data Centre
#                                CCDC 
#
#######################################################################
#
# If this CIF has been generated from an entry in the Cambridge 
# Structural Database, then it will include bibliographic, chemical, 
# crystal, experimental, refinement or atomic coordinate data resulting 
# from the CCDC's data processing and validation procedures.
#
#######################################################################

data_YIZCAM
_chemical_formula_moiety         'C16 H26 N2 O5 S1'
_chemical_name_systematic        
'(3R,6S,8S)-Methyl 6-isopropyl-6-(t-butoxycarbonylamino)-5-oxohexahydropyrrolo(2,1-b)thiazole-3-carboxylate'
_symmetry_cell_setting           monoclinic
_symmetry_space_group_name_H-M   'P 21/n'
_symmetry_Int_Tables_number      14
_space_group_name_Hall           '-P 2yn'
loop_
_symmetry_equiv_pos_site_id
_symmetry_equiv_pos_as_xyz
1 x,y,z
2 1/2-x,1/2+y,1/2-z
3 -x,-y,-z
4 1/2+x,1/2-y,1/2+z
_cell_length_a                   10.2647(9)
_cell_length_b                   9.6273(8)
_cell_length_c                   18.3939(16)
_cell_angle_alpha                90
_cell_angle_beta                 90.571(2)
_cell_angle_gamma                90
_cell_volume                     1817.62
_exptl_crystal_colour            colorless
_cell_formula_units_Z            4
loop_
_atom_site_label
_atom_site_type_symbol
_atom_site_fract_x
_atom_site_fract_y
_atom_site_fract_z
S1 S -0.01214(5) 0.13280(6) 0.86261(3)
N1 N 0.16835(14) -0.03579(16) 0.90072(8)
N2 N 0.42336(13) 0.17498(16) 0.96051(8)
H1 H 0.5068 0.1823 0.9617
O1 O 0.30443(12) -0.09435(14) 0.99401(7)
O2 O 0.1078(2) -0.28137(19) 0.82387(10)
O3 O 0.04724(16) -0.36307(15) 0.93052(8)
O4 O 0.23434(12) 0.24645(15) 1.01121(8)
O5 O 0.43214(12) 0.31668(15) 1.05452(7)
C1 C 0.27773(16) -0.02464(19) 0.94074(9)
C2 C 0.36303(16) 0.08665(19) 0.90560(10)
C3 C 0.26635(17) 0.1666(2) 0.85558(10)
H2 H 0.2387 0.2524 0.8784
H3 H 0.3062 0.1883 0.8093
C4 C 0.15138(17) 0.0685(2) 0.84497(10)
C5 C -0.0624(2) -0.0435(3) 0.88172(14)
C6 C 0.05435(19) -0.1199(2) 0.91752(11)
C7 C 0.47344(17) 0.0119(2) 0.86350(10)
C8 C 0.5721(2) 0.1129(2) 0.83093(13)
H4 H 0.5289 0.1719 0.7962
H5 H 0.6396 0.0614 0.8072
H6 H 0.6098 0.1687 0.8690
C9 C 0.4194(2) -0.0838(2) 0.80484(12)
H7 H 0.4900 -0.1308 0.7814
H8 H 0.3716 -0.0301 0.7696
H9 H 0.3626 -0.1510 0.8265
C10 C 0.07336(19) -0.2624(2) 0.88534(11)
C11 C 0.0617(3) -0.5026(2) 0.90373(15)
H10 H 0.1479 -0.5144 0.8850
H11 H -0.0011 -0.5191 0.8657
H12 H 0.0480 -0.5672 0.9427
C12 C 0.35243(17) 0.24583(19) 1.00964(10)
C13 C 0.38068(19) 0.4216(2) 1.10502(11)
C14 C 0.2929(2) 0.3538(3) 1.16073(13)
H13 H 0.3370 0.2757 1.1822
H14 H 0.2141 0.3228 1.1373
H15 H 0.2720 0.4199 1.1979
C15 C 0.3114(2) 0.5342(2) 1.06256(14)
H16 H 0.2369 0.4954 1.0380
H17 H 0.3697 0.5730 1.0275
H18 H 0.2835 0.6058 1.0952
C16 C 0.5040(2) 0.4764(3) 1.14059(13)
H19 H 0.5590 0.5164 1.1042
H20 H 0.5493 0.4016 1.1643
H21 H 0.4820 0.5460 1.1758
H22 H 0.149(2) 0.028(2) 0.8004(13)
H23 H -0.079(2) -0.095(2) 0.8359(15)
H24 H -0.139(3) -0.037(3) 0.9096(16)
H25 H 0.0453(17) -0.1290(17) 0.9681(11)
H26 H 0.5170(19) -0.0425(19) 0.8998(11)
loop_
_geom_bond_atom_site_label_1
_geom_bond_atom_site_label_2
_geom_bond_site_symmetry_1
_geom_bond_site_symmetry_2
S1 C4 1_555 1_555
N1 C1 1_555 1_555
N2 H1 1_555 1_555
O1 C1 1_555 1_555
O2 C10 1_555 1_555
O3 C10 1_555 1_555
O4 C12 1_555 1_555
O5 C12 1_555 1_555
C1 C2 1_555 1_555
C2 N2 1_555 1_555
C3 C2 1_555 1_555
H2 C3 1_555 1_555
H3 C3 1_555 1_555
C4 N1 1_555 1_555
C5 S1 1_555 1_555
C6 N1 1_555 1_555
C7 C2 1_555 1_555
C8 C7 1_555 1_555
H4 C8 1_555 1_555
H5 C8 1_555 1_555
H6 C8 1_555 1_555
C9 C7 1_555 1_555
H7 C9 1_555 1_555
H8 C9 1_555 1_555
H9 C9 1_555 1_555
C10 C6 1_555 1_555
C11 O3 1_555 1_555
H10 C11 1_555 1_555
H11 C11 1_555 1_555
H12 C11 1_555 1_555
C12 N2 1_555 1_555
C13 O5 1_555 1_555
C14 C13 1_555 1_555
H13 C14 1_555 1_555
H14 C14 1_555 1_555
H15 C14 1_555 1_555
C15 C13 1_555 1_555
H16 C15 1_555 1_555
H17 C15 1_555 1_555
H18 C15 1_555 1_555
C16 C13 1_555 1_555
H19 C16 1_555 1_555
H20 C16 1_555 1_555
H21 C16 1_555 1_555
H22 C4 1_555 1_555
H23 C5 1_555 1_555
H24 C5 1_555 1_555
H25 C6 1_555 1_555
H26 C7 1_555 1_555
C3 C4 1_555 1_555
C5 C6 1_555 1_555

#END
