
#######################################################################
#
#                 Cambridge Crystallographic Data Centre
#                                CCDC 
#
#######################################################################
#
# If this CIF has been generated from an entry in the Cambridge 
# Structural Database, then it will include bibliographic, chemical, 
# crystal, experimental, refinement or atomic coordinate data resulting 
# from the CCDC's data processing and validation procedures.
#
#######################################################################

data_YIZFEU
_chemical_formula_moiety         'C20 H25 N3 O3'
_chemical_name_systematic        
N'-(4-(diethylamino)-2-hydroxybenzylidene)-4-methoxy-N-methylbenzohydrazide
_symmetry_cell_setting           monoclinic
_symmetry_space_group_name_H-M   'P 21/c'
_symmetry_Int_Tables_number      14
_space_group_name_Hall           '-P 2ybc'
loop_
_symmetry_equiv_pos_site_id
_symmetry_equiv_pos_as_xyz
1 x,y,z
2 -x,1/2+y,1/2-z
3 -x,-y,-z
4 x,1/2-y,1/2+z
_cell_length_a                   10.3190(15)
_cell_length_b                   15.155(2)
_cell_length_c                   13.3440(19)
_cell_angle_alpha                90
_cell_angle_beta                 109.348(2)
_cell_angle_gamma                90
_cell_volume                     1968.94
_exptl_crystal_colour            colorless
_exptl_crystal_description       block
_cell_formula_units_Z            4
loop_
_atom_site_label
_atom_site_type_symbol
_atom_site_fract_x
_atom_site_fract_y
_atom_site_fract_z
C1 C 1.4220(3) 0.12904(16) 0.4189(2)
H1 H 1.3768 0.1242 0.3436
H2 H 1.4529 0.0718 0.4479
H3 H 1.4994 0.1680 0.4328
C2 C 1.27469(16) 0.24566(11) 0.43684(13)
C3 C 1.29644(17) 0.29580(11) 0.35744(14)
H4 H 1.3506 0.2742 0.3194
C4 C 1.23701(18) 0.37834(11) 0.33514(13)
H5 H 1.2499 0.4116 0.2806
C5 C 1.15854(16) 0.41256(11) 0.39241(12)
C6 C 1.13784(18) 0.36106(12) 0.47188(14)
H6 H 1.0855 0.3830 0.5112
C7 C 1.19398(19) 0.27791(12) 0.49308(14)
H7 H 1.1776 0.2434 0.5453
C8 C 1.10608(17) 0.50505(11) 0.38000(13)
C9 C 0.9957(2) 0.62866(11) 0.26547(16)
H8 H 0.8982 0.6327 0.2499
H9 H 1.0198 0.6530 0.2076
H10 H 1.0416 0.6611 0.3292
C10 C 0.91007(17) 0.50142(11) 0.10777(13)
H11 H 0.8891 0.5611 0.0968
C11 C 0.85278(17) 0.43984(11) 0.02163(12)
C12 C 0.88619(17) 0.34949(11) 0.02843(12)
C13 C 0.82616(19) 0.29232(12) -0.05464(14)
H12 H 0.8503 0.2330 -0.0475
C14 C 0.7295(2) 0.32217(14) -0.14940(14)
C15 C 0.6970(2) 0.41283(14) -0.15694(15)
H13 H 0.6341 0.4350 -0.2191
C16 C 0.75725(19) 0.46877(13) -0.07363(14)
H14 H 0.7335 0.5282 -0.0809
C17 C 0.7231(3) 0.1766(2) -0.2383(2)
H15 H 0.7211 0.1660 -0.3105
H16 H 0.8179 0.1737 -0.1919
C18 C 0.6423(5) 0.1083(3) -0.2074(3)
H17 H 0.6406 0.1204 -0.1372
H18 H 0.6834 0.0516 -0.2081
H19 H 0.5501 0.1082 -0.2566
C19 C 0.5569(2) 0.2951(2) -0.32578(17)
H20 H 0.4991 0.3365 -0.3045
H21 H 0.5006 0.2448 -0.3584
C20 C 0.6083(3) 0.3386(3) -0.4066(2)
H22 H 0.6619 0.3895 -0.3755
H23 H 0.5316 0.3563 -0.4667
H24 H 0.6642 0.2977 -0.4291
N1 N 1.03783(15) 0.53615(8) 0.28039(11)
N2 N 0.98915(14) 0.47543(8) 0.19889(10)
N3 N 0.6668(2) 0.26538(15) -0.23131(15)
O1 O 1.32862(14) 0.16334(8) 0.46698(12)
O2 O 1.12583(15) 0.55265(9) 0.45772(10)
O3 O 0.97866(14) 0.31510(8) 0.11729(9)
H25 H 0.9990 0.3524 0.1645
loop_
_geom_bond_atom_site_label_1
_geom_bond_atom_site_label_2
_geom_bond_site_symmetry_1
_geom_bond_site_symmetry_2
C1 H1 1_555 1_555
H2 C1 1_555 1_555
H3 C1 1_555 1_555
C2 C3 1_555 1_555
C3 H4 1_555 1_555
C4 C3 1_555 1_555
H5 C4 1_555 1_555
C5 C4 1_555 1_555
C6 C5 1_555 1_555
H6 C6 1_555 1_555
C7 C2 1_555 1_555
H7 C7 1_555 1_555
C8 C5 1_555 1_555
C9 H8 1_555 1_555
H9 C9 1_555 1_555
H10 C9 1_555 1_555
C10 H11 1_555 1_555
C11 C10 1_555 1_555
C12 C11 1_555 1_555
C13 C12 1_555 1_555
H12 C13 1_555 1_555
C14 C13 1_555 1_555
C15 C14 1_555 1_555
H13 C15 1_555 1_555
C16 C11 1_555 1_555
H14 C16 1_555 1_555
C17 H15 1_555 1_555
H16 C17 1_555 1_555
C18 C17 1_555 1_555
H17 C18 1_555 1_555
H18 C18 1_555 1_555
H19 C18 1_555 1_555
C19 H20 1_555 1_555
H21 C19 1_555 1_555
C20 C19 1_555 1_555
H22 C20 1_555 1_555
H23 C20 1_555 1_555
H24 C20 1_555 1_555
N1 C8 1_555 1_555
N2 C10 1_555 1_555
N3 C14 1_555 1_555
O1 C1 1_555 1_555
O2 C8 1_555 1_555
O3 C12 1_555 1_555
H25 O3 1_555 1_555
C2 O1 1_555 1_555
C6 C7 1_555 1_555
C9 N1 1_555 1_555
C15 C16 1_555 1_555
C17 N3 1_555 1_555
C19 N3 1_555 1_555
N1 N2 1_555 1_555

#END
