
#######################################################################
#
#                 Cambridge Crystallographic Data Centre
#                                CCDC 
#
#######################################################################
#
# If this CIF has been generated from an entry in the Cambridge 
# Structural Database, then it will include bibliographic, chemical, 
# crystal, experimental, refinement or atomic coordinate data resulting 
# from the CCDC's data processing and validation procedures.
#
#######################################################################

data_YIZPII
_chemical_formula_moiety         'C15 H14 O2 S1'
_chemical_name_systematic        1-methyl-2-(1-(phenylsulfonyl)vinyl)benzene
_symmetry_cell_setting           orthorhombic
_symmetry_space_group_name_H-M   'P b c a'
_symmetry_Int_Tables_number      61
_space_group_name_Hall           '-P 2ac 2ab'
loop_
_symmetry_equiv_pos_site_id
_symmetry_equiv_pos_as_xyz
1 x,y,z
2 1/2-x,-y,1/2+z
3 -x,1/2+y,1/2-z
4 1/2+x,1/2-y,-z
5 -x,-y,-z
6 1/2+x,y,1/2-z
7 x,1/2-y,1/2+z
8 1/2-x,1/2+y,z
_cell_length_a                   7.2653(6)
_cell_length_b                   13.8948(11)
_cell_length_c                   26.614(2)
_cell_angle_alpha                90
_cell_angle_beta                 90
_cell_angle_gamma                90
_cell_volume                     2686.68
_exptl_crystal_colour            'light yellow'
_exptl_crystal_description       block
_cell_formula_units_Z            8
loop_
_atom_site_label
_atom_site_type_symbol
_atom_site_fract_x
_atom_site_fract_y
_atom_site_fract_z
S1 S 0.09788(7) 0.33730(3) 0.343078(16)
O1 O 0.0288(2) 0.37889(12) 0.38847(6)
O2 O 0.0865(2) 0.39227(10) 0.29757(5)
C1 C 0.3317(2) 0.30483(12) 0.35309(6)
C2 C 0.4520(3) 0.33161(16) 0.31888(8)
H1 H 0.5760 0.3173 0.3231
H2 H 0.4129 0.3648 0.2905
C3 C 0.3754(2) 0.25155(11) 0.40002(6)
C4 C 0.3391(3) 0.15347(12) 0.40282(7)
H3 H 0.2841 0.1224 0.3757
C5 C 0.3838(3) 0.10162(15) 0.44540(8)
H4 H 0.3589 0.0360 0.4469
C6 C 0.4648(3) 0.14694(17) 0.48525(8)
H5 H 0.4947 0.1123 0.5140
C7 C 0.5017(3) 0.24314(16) 0.48285(7)
H6 H 0.5578 0.2729 0.5102
C8 C 0.4582(2) 0.29800(13) 0.44084(6)
C9 C 0.5058(4) 0.40311(16) 0.43965(9)
H7 H 0.6205 0.4119 0.4224
H8 H 0.5166 0.4268 0.4734
H9 H 0.4106 0.4379 0.4224
C10 C -0.0158(2) 0.22720(13) 0.33298(7)
C11 C 0.0116(3) 0.17947(14) 0.28824(8)
H10 H 0.0890 0.2054 0.2639
C12 C -0.0762(4) 0.09310(17) 0.27965(12)
H11 H -0.0592 0.0607 0.2494
C13 C -0.1878(4) 0.0555(2) 0.31558(17)
H12 H -0.2460 -0.0030 0.3096
C14 C -0.2163(3) 0.1010(2) 0.35968(16)
H13 H -0.2947 0.0741 0.3835
C15 C -0.1285(3) 0.1885(2) 0.36981(10)
H14 H -0.1453 0.2198 0.4004
loop_
_geom_bond_atom_site_label_1
_geom_bond_atom_site_label_2
_geom_bond_site_symmetry_1
_geom_bond_site_symmetry_2
S1 O1 1_555 1_555
O2 S1 1_555 1_555
C1 S1 1_555 1_555
C2 C1 1_555 1_555
H1 C2 1_555 1_555
H2 C2 1_555 1_555
C3 C1 1_555 1_555
C4 C3 1_555 1_555
H3 C4 1_555 1_555
C5 C4 1_555 1_555
H4 C5 1_555 1_555
C6 C5 1_555 1_555
H5 C6 1_555 1_555
C7 C6 1_555 1_555
H6 C7 1_555 1_555
C8 C3 1_555 1_555
C9 C8 1_555 1_555
H7 C9 1_555 1_555
H8 C9 1_555 1_555
H9 C9 1_555 1_555
C10 S1 1_555 1_555
C11 C10 1_555 1_555
H10 C11 1_555 1_555
C12 C11 1_555 1_555
H11 C12 1_555 1_555
C13 C12 1_555 1_555
H12 C13 1_555 1_555
C14 C13 1_555 1_555
H13 C14 1_555 1_555
C15 C10 1_555 1_555
H14 C15 1_555 1_555
C7 C8 1_555 1_555
C14 C15 1_555 1_555

#END
