
#######################################################################
#
#                 Cambridge Crystallographic Data Centre
#                                CCDC 
#
#######################################################################
#
# If this CIF has been generated from an entry in the Cambridge 
# Structural Database, then it will include bibliographic, chemical, 
# crystal, experimental, refinement or atomic coordinate data resulting 
# from the CCDC's data processing and validation procedures.
#
#######################################################################

data_YIZPOO
_chemical_formula_moiety         'C21 H24 N2 O4'
_chemical_name_systematic        
'methyl 6-ethyl-3-(3-methoxy-3-oxoprop-1-en-1-yl)-2,3,4,7-tetrahydro-1H-azocino[5,4-b]indole-2-carboxylate'
_symmetry_cell_setting           orthorhombic
_symmetry_space_group_name_H-M   'P 21 21 21'
_symmetry_Int_Tables_number      19
_space_group_name_Hall           'P 2ac 2ab'
loop_
_symmetry_equiv_pos_site_id
_symmetry_equiv_pos_as_xyz
1 x,y,z
2 1/2-x,-y,1/2+z
3 1/2+x,1/2-y,-z
4 -x,1/2+y,1/2-z
_cell_length_a                   16.733(3)
_cell_length_b                   22.800(5)
_cell_length_c                   5.2000(10)
_cell_angle_alpha                90
_cell_angle_beta                 90
_cell_angle_gamma                90
_cell_volume                     1983.86
_cell_formula_units_Z            4
loop_
_atom_site_label
_atom_site_type_symbol
_atom_site_fract_x
_atom_site_fract_y
_atom_site_fract_z
O1 O 0.03485(18) 0.00955(14) 0.5729(7)
N1 N 0.1052(2) 0.23516(15) 0.8139(8)
H1 H 0.1029 0.2693 0.8837
C1 C 0.1602(3) 0.1928(2) 0.8713(9)
N2 N -0.10595(19) 0.12264(14) 0.4042(7)
O2 O -0.0689(2) 0.04296(14) 0.7938(7)
C2 C 0.2218(3) 0.1927(3) 1.0548(11)
H2 H 0.2317 0.2254 1.1571
O3 O -0.27762(18) 0.07710(13) -0.0995(7)
C3 C 0.2663(3) 0.1434(3) 1.0774(14)
H3 H 0.3068 0.1419 1.1996
O4 O -0.36497(19) 0.14492(14) 0.0274(7)
C4 C 0.2524(3) 0.0949(3) 0.9209(14)
H4 H 0.2846 0.0619 0.9388
C5 C 0.1921(3) 0.0945(2) 0.7398(11)
H5 H 0.1840 0.0618 0.6359
C6 C 0.1430(3) 0.14410(19) 0.7145(10)
C7 C 0.0753(2) 0.15854(18) 0.5575(9)
C8 C 0.0425(2) 0.12388(18) 0.3371(9)
H6 H 0.0841 0.0973 0.2791
H7 H 0.0320 0.1509 0.1972
C9 C -0.0340(2) 0.08743(17) 0.3824(9)
H8 H -0.0409 0.0628 0.2295
C10 C -0.1093(3) 0.16972(17) 0.5970(9)
H9 H -0.0751 0.1593 0.7404
H10 H -0.1636 0.1727 0.6615
C11 C -0.0842(3) 0.22845(17) 0.4962(9)
H11 H -0.1223 0.2509 0.4109
C12 C -0.0112(3) 0.25069(19) 0.5203(9)
C13 C 0.0538(3) 0.21443(19) 0.6249(9)
C14 C 0.0121(3) 0.31254(19) 0.4424(10)
H12 H 0.0217 0.3352 0.5974
H13 H 0.0620 0.3107 0.3483
C15 C -0.0482(3) 0.3450(2) 0.2799(12)
H14 H -0.0279 0.3832 0.2384
H15 H -0.0973 0.3490 0.3737
H16 H -0.0578 0.3235 0.1242
C16 C -0.0264(3) 0.04593(18) 0.6084(9)
C17 C 0.0484(3) -0.0326(2) 0.7783(12)
H17 H 0.0937 -0.0566 0.7364
H18 H 0.0020 -0.0569 0.7978
H19 H 0.0585 -0.0121 0.9362
C18 C -0.1670(2) 0.11332(17) 0.2414(9)
H20 H -0.1596 0.0832 0.1233
C19 C -0.2377(2) 0.14182(18) 0.2259(9)
H21 H -0.2472 0.1740 0.3318
C20 C -0.2984(3) 0.12319(19) 0.0483(9)
C21 C -0.3346(3) 0.0554(2) -0.2778(11)
H22 H -0.3119 0.0233 -0.3718
H23 H -0.3492 0.0861 -0.3953
H24 H -0.3812 0.0423 -0.1870
loop_
_geom_bond_atom_site_label_1
_geom_bond_atom_site_label_2
_geom_bond_site_symmetry_1
_geom_bond_site_symmetry_2
O1 C16 1_555 1_555
N1 H1 1_555 1_555
C1 N1 1_555 1_555
N2 C9 1_555 1_555
O2 C16 1_555 1_555
C2 C1 1_555 1_555
H2 C2 1_555 1_555
O3 C20 1_555 1_555
C3 C2 1_555 1_555
H3 C3 1_555 1_555
O4 C20 1_555 1_555
C4 C3 1_555 1_555
H4 C4 1_555 1_555
C5 C4 1_555 1_555
H5 C5 1_555 1_555
C6 C1 1_555 1_555
C7 C6 1_555 1_555
C8 C7 1_555 1_555
H6 C8 1_555 1_555
H7 C8 1_555 1_555
C9 C8 1_555 1_555
H8 C9 1_555 1_555
C10 N2 1_555 1_555
H9 C10 1_555 1_555
H10 C10 1_555 1_555
C11 C10 1_555 1_555
H11 C11 1_555 1_555
C12 C11 1_555 1_555
C13 N1 1_555 1_555
C14 C12 1_555 1_555
H12 C14 1_555 1_555
H13 C14 1_555 1_555
C15 C14 1_555 1_555
H14 C15 1_555 1_555
H15 C15 1_555 1_555
H16 C15 1_555 1_555
C16 C9 1_555 1_555
C17 O1 1_555 1_555
H17 C17 1_555 1_555
H18 C17 1_555 1_555
H19 C17 1_555 1_555
C18 N2 1_555 1_555
H20 C18 1_555 1_555
C19 C18 1_555 1_555
H21 C19 1_555 1_555
C20 C19 1_555 1_555
C21 O3 1_555 1_555
H22 C21 1_555 1_555
H23 C21 1_555 1_555
H24 C21 1_555 1_555
C5 C6 1_555 1_555
C7 C13 1_555 1_555
C12 C13 1_555 1_555

#END
