
#######################################################################
#
#                 Cambridge Crystallographic Data Centre
#                                CCDC 
#
#######################################################################
#
# If this CIF has been generated from an entry in the Cambridge 
# Structural Database, then it will include bibliographic, chemical, 
# crystal, experimental, refinement or atomic coordinate data resulting 
# from the CCDC's data processing and validation procedures.
#
#######################################################################

data_YIZQUV
_chemical_formula_moiety         'C44 H42 N2,C6 H14'
_chemical_name_systematic        
"N,N'-Ditritylcyclohexane-1,2-diamine n-hexane solvate"
_symmetry_cell_setting           orthorhombic
_symmetry_space_group_name_H-M   'C 2 2 21'
_symmetry_Int_Tables_number      20
_space_group_name_Hall           'C 2n 2'
loop_
_symmetry_equiv_pos_site_id
_symmetry_equiv_pos_as_xyz
1 x,y,z
2 -x,-y,1/2+z
3 -x,y,1/2-z
4 x,-y,-z
5 1/2+x,1/2+y,z
6 1/2-x,1/2-y,1/2+z
7 1/2-x,1/2+y,1/2-z
8 1/2+x,1/2-y,-z
_cell_length_a                   9.29420(10)
_cell_length_b                   18.5216(3)
_cell_length_c                   22.9537(3)
_cell_angle_alpha                90
_cell_angle_beta                 90
_cell_angle_gamma                90
_cell_volume                     3951.33
_exptl_crystal_colour            colorless
_exptl_crystal_description       plate
_cell_formula_units_Z            4
loop_
_atom_site_label
_atom_site_type_symbol
_atom_site_fract_x
_atom_site_fract_y
_atom_site_fract_z
C1 C 0.13632(14) 0.03445(7) 0.48104(6)
H1 H 0.1253 0.0764 0.5066
C2 C 0.27600(15) 0.04306(9) 0.44639(7)
H2 H 0.2791 0.0067 0.4160
H3 H 0.2764 0.0900 0.4277
C3 C 0.41041(16) 0.03600(11) 0.48435(7)
H4 H 0.4957 0.0398 0.4602
H5 H 0.4126 0.0749 0.5127
N1 N 0.00804(13) 0.02955(7) 0.44299(5)
C4 C -0.05933(14) 0.09593(8) 0.41948(6)
C5 C -0.20221(15) 0.07446(8) 0.38941(6)
C6 C -0.23778(17) 0.00336(9) 0.37688(7)
H6 H -0.1761 -0.0336 0.3881
C7 C -0.36515(19) -0.01323(9) 0.34755(8)
H7 H -0.3875 -0.0611 0.3395
C8 C -0.45829(16) 0.04087(10) 0.33038(7)
H8 H -0.5433 0.0296 0.3110
C9 C -0.42361(16) 0.11218(9) 0.34232(6)
H9 H -0.4855 0.1490 0.3310
C10 C -0.29685(16) 0.12851(8) 0.37119(6)
H10 H -0.2742 0.1765 0.3786
C11 C 0.02964(15) 0.13022(8) 0.36970(6)
C12 C 0.09945(16) 0.08484(8) 0.33010(6)
H11 H 0.0952 0.0351 0.3355
C13 C 0.17510(17) 0.11239(10) 0.28288(7)
H12 H 0.2211 0.0812 0.2571
C14 C 0.18189(17) 0.18673(10) 0.27415(7)
H13 H 0.2351 0.2056 0.2434
C15 C 0.10923(19) 0.23193(9) 0.31143(6)
H14 H 0.1116 0.2815 0.3052
C16 C 0.03194(17) 0.20423(8) 0.35849(6)
H15 H -0.0187 0.2355 0.3827
C17 C -0.08924(15) 0.14653(7) 0.47143(6)
C18 C -0.21069(15) 0.13485(8) 0.50606(6)
H16 H -0.2767 0.0995 0.4954
C19 C -0.23442(17) 0.17506(8) 0.55600(7)
H17 H -0.3156 0.1663 0.5786
C20 C -0.13766(19) 0.22844(9) 0.57258(7)
H18 H -0.1548 0.2563 0.6056
C21 C -0.01576(19) 0.23961(9) 0.53941(7)
H19 H 0.0501 0.2749 0.5504
C22 C 0.00934(16) 0.19847(8) 0.48964(6)
H20 H 0.0931 0.2058 0.4683
H21 H 0.033(4) -0.003(2) 0.4177(16)
C1C C 0.13632(14) -0.03445(7) 0.51896(6)
H1C H 0.1253 -0.0764 0.4934
C2C C 0.27600(15) -0.04306(9) 0.55361(7)
H2C H 0.2791 -0.0067 0.5840
H3C H 0.2764 -0.0900 0.5723
C3C C 0.41041(16) -0.03600(11) 0.51565(7)
H4C H 0.4957 -0.0398 0.5398
H5C H 0.4126 -0.0749 0.4873
N1C N 0.00804(13) -0.02955(7) 0.55701(5)
C4C C -0.05933(14) -0.09593(8) 0.58052(6)
C5C C -0.20221(15) -0.07446(8) 0.61059(6)
C6C C -0.23778(17) -0.00336(9) 0.62312(7)
H6C H -0.1761 0.0336 0.6119
C7C C -0.36515(19) 0.01323(9) 0.65245(8)
H7C H -0.3875 0.0611 0.6605
C8C C -0.45829(16) -0.04087(10) 0.66962(7)
H8C H -0.5433 -0.0296 0.6890
C9C C -0.42361(16) -0.11218(9) 0.65768(6)
H9C H -0.4855 -0.1490 0.6690
C10C C -0.29685(16) -0.12851(8) 0.62881(6)
H10C H -0.2742 -0.1765 0.6214
C11C C 0.02964(15) -0.13022(8) 0.63030(6)
C12C C 0.09945(16) -0.08484(8) 0.66990(6)
H11C H 0.0952 -0.0351 0.6645
C13C C 0.17510(17) -0.11239(10) 0.71712(7)
H12C H 0.2211 -0.0812 0.7429
C14C C 0.18189(17) -0.18673(10) 0.72585(7)
H13C H 0.2351 -0.2056 0.7566
C15C C 0.10923(19) -0.23193(9) 0.68857(6)
H14C H 0.1116 -0.2815 0.6948
C16C C 0.03194(17) -0.20423(8) 0.64151(6)
H15C H -0.0187 -0.2355 0.6173
C17C C -0.08924(15) -0.14653(7) 0.52857(6)
C18C C -0.21069(15) -0.13485(8) 0.49394(6)
H16C H -0.2767 -0.0995 0.5046
C19C C -0.23442(17) -0.17506(8) 0.44400(7)
H17C H -0.3156 -0.1663 0.4214
C20C C -0.13766(19) -0.22844(9) 0.42742(7)
H18C H -0.1548 -0.2563 0.3944
C21C C -0.01576(19) -0.23961(9) 0.46059(7)
H19C H 0.0501 -0.2749 0.4496
C22C C 0.00934(16) -0.19847(8) 0.51036(6)
H20C H 0.0931 -0.2058 0.5317
H21C H 0.033(4) 0.003(2) 0.5823(16)
C23 C 0.0833(4) 0.13080(19) 0.74311(18)
H23 H 0.1281 0.1696 0.7650
H24 H 0.1240 0.0857 0.7569
C24 C 0.1208(4) 0.13942(19) 0.68180(18)
H25 H 0.0884 0.1864 0.6686
H26 H 0.0705 0.1031 0.6592
C25 C 0.2779(4) 0.1328(2) 0.6708(3)
H27 H 0.3101 0.0858 0.6827
H28 H 0.3283 0.1691 0.6926
H29 H 0.2966 0.1392 0.6300
C23B C -0.0833(4) 0.13080(19) 0.75689(18)
H23B H -0.1281 0.1696 0.7350
H24B H -0.1240 0.0857 0.7431
C24B C -0.1208(4) 0.13942(19) 0.81820(18)
H25B H -0.0884 0.1864 0.8314
H26B H -0.0705 0.1031 0.8408
C25B C -0.2779(4) 0.1328(2) 0.8292(3)
H27B H -0.3101 0.0858 0.8173
H28B H -0.3283 0.1691 0.8074
H29B H -0.2966 0.1392 0.8700
H22? H -0.063(4) 0.009(2) 0.4675(17)
loop_
_geom_bond_atom_site_label_1
_geom_bond_atom_site_label_2
_geom_bond_site_symmetry_1
_geom_bond_site_symmetry_2
C1 H1 1_555 1_555
C2 C1 1_555 1_555
H2 C2 1_555 1_555
H3 C2 1_555 1_555
C3 C2 1_555 1_555
H4 C3 1_555 1_555
H5 C3 1_555 1_555
N1 C1 1_555 1_555
C4 N1 1_555 1_555
C5 C4 1_555 1_555
C6 C5 1_555 1_555
H6 C6 1_555 1_555
C7 C6 1_555 1_555
H7 C7 1_555 1_555
C8 C7 1_555 1_555
H8 C8 1_555 1_555
C9 C8 1_555 1_555
H9 C9 1_555 1_555
C10 C5 1_555 1_555
H10 C10 1_555 1_555
C11 C4 1_555 1_555
C12 C11 1_555 1_555
H11 C12 1_555 1_555
C13 C12 1_555 1_555
H12 C13 1_555 1_555
C14 C13 1_555 1_555
H13 C14 1_555 1_555
C15 C14 1_555 1_555
H14 C15 1_555 1_555
C16 C11 1_555 1_555
H15 C16 1_555 1_555
C17 C4 1_555 1_555
C18 C17 1_555 1_555
H16 C18 1_555 1_555
C19 C18 1_555 1_555
H17 C19 1_555 1_555
C20 C19 1_555 1_555
H18 C20 1_555 1_555
C21 C20 1_555 1_555
H19 C21 1_555 1_555
C22 C17 1_555 1_555
H20 C22 1_555 1_555
H21 N1 1_555 1_555
C23 H23 1_555 1_555
H24 C23 1_555 1_555
C24 C23 1_555 1_555
H25 C24 1_555 1_555
H26 C24 1_555 1_555
C25 C24 1_555 1_555
H27 C25 1_555 1_555
H28 C25 1_555 1_555
H29 C25 1_555 1_555
C1C C1 1_555 1_555
H1C C1C 1_555 1_555
C2C C1C 1_555 1_555
H2C C2C 1_555 1_555
H3C C2C 1_555 1_555
C3C C3 1_555 1_555
H4C C3C 1_555 1_555
H5C C3C 1_555 1_555
N1C C1C 1_555 1_555
C4C N1C 1_555 1_555
C5C C4C 1_555 1_555
C6C C5C 1_555 1_555
H6C C6C 1_555 1_555
C7C C6C 1_555 1_555
H7C C7C 1_555 1_555
C8C C7C 1_555 1_555
H8C C8C 1_555 1_555
C9C C8C 1_555 1_555
H9C C9C 1_555 1_555
C10C C5C 1_555 1_555
H10C C10C 1_555 1_555
C11C C4C 1_555 1_555
C12C C11C 1_555 1_555
H11C C12C 1_555 1_555
C13C C12C 1_555 1_555
H12C C13C 1_555 1_555
C14C C13C 1_555 1_555
H13C C14C 1_555 1_555
C15C C14C 1_555 1_555
H14C C15C 1_555 1_555
C16C C11C 1_555 1_555
H15C C16C 1_555 1_555
C17C C4C 1_555 1_555
C18C C17C 1_555 1_555
H16C C18C 1_555 1_555
C19C C18C 1_555 1_555
H17C C19C 1_555 1_555
C20C C19C 1_555 1_555
H18C C20C 1_555 1_555
C21C C20C 1_555 1_555
H19C C21C 1_555 1_555
C22C C17C 1_555 1_555
H20C C22C 1_555 1_555
H21C N1C 1_555 1_555
C23B C23 1_555 1_555
H23B C23B 1_555 1_555
H24B C23B 1_555 1_555
C24B C23B 1_555 1_555
H25B C24B 1_555 1_555
H26B C24B 1_555 1_555
C25B C24B 1_555 1_555
H27B C25B 1_555 1_555
H28B C25B 1_555 1_555
H29B C25B 1_555 1_555
C9 C10 1_555 1_555
C15 C16 1_555 1_555
C21 C22 1_555 1_555
C2C C3C 1_555 1_555
C9C C10C 1_555 1_555
C15C C16C 1_555 1_555
C21C C22C 1_555 1_555

#END
