
#######################################################################
#
#                 Cambridge Crystallographic Data Centre
#                                CCDC 
#
#######################################################################
#
# If this CIF has been generated from an entry in the Cambridge 
# Structural Database, then it will include bibliographic, chemical, 
# crystal, experimental, refinement or atomic coordinate data resulting 
# from the CCDC's data processing and validation procedures.
#
#######################################################################

data_YIZQIJ
_chemical_formula_moiety         'C44 H40 O2'
_chemical_name_systematic        
1,1',1'',1''',1'''',1'''''-(Cyclohexane-1,2-diylbis(oxymethanetetrayl))hexabenzene
_symmetry_cell_setting           monoclinic
_symmetry_space_group_name_H-M   'P 21'
_symmetry_Int_Tables_number      4
_space_group_name_Hall           'P 2yb'
loop_
_symmetry_equiv_pos_site_id
_symmetry_equiv_pos_as_xyz
1 x,y,z
2 -x,1/2+y,-z
_cell_length_a                   9.8394(1)
_cell_length_b                   29.8430(2)
_cell_length_c                   11.6504(1)
_cell_angle_alpha                90
_cell_angle_beta                 96.374(1)
_cell_angle_gamma                90
_cell_volume                     3399.84
_exptl_crystal_colour            colorless
_exptl_crystal_description       needle
_cell_formula_units_Z            4
loop_
_atom_site_label
_atom_site_type_symbol
_atom_site_fract_x
_atom_site_fract_y
_atom_site_fract_z
C1 C 0.60240(12) 0.67290(4) 0.34520(10)
H1 H 0.6521 0.6477 0.3843
C2 C 0.58145(12) 0.66506(4) 0.21450(10)
H2 H 0.5304 0.6372 0.1973
C3 C 0.50331(14) 0.70452(5) 0.15633(12)
H3 H 0.4904 0.6996 0.0735
H4 H 0.4137 0.7063 0.1834
C4 C 0.57854(19) 0.74853(5) 0.18162(15)
H5 H 0.5244 0.7730 0.1458
H6 H 0.6649 0.7478 0.1488
C5 C 0.60495(19) 0.75651(5) 0.31132(16)
H7 H 0.5186 0.7613 0.3423
H8 H 0.6599 0.7833 0.3258
C6 C 0.67897(15) 0.71671(5) 0.37252(12)
H9 H 0.7701 0.7144 0.3487
H10 H 0.6882 0.7218 0.4553
O1 O 0.46669(8) 0.67623(3) 0.38037(7)
C7 C 0.43307(12) 0.65192(4) 0.48015(10)
C8 C 0.29357(12) 0.67092(5) 0.50391(12)
C9 C 0.22233(17) 0.70077(6) 0.43024(17)
H11 H 0.2615 0.7117 0.3668
C10 C 0.0916(2) 0.71476(8) 0.4499(2)
H12 H 0.0438 0.7347 0.3990
C11 C 0.03343(17) 0.69923(8) 0.5435(2)
H13 H -0.0537 0.7087 0.5565
C12 C 0.10356(17) 0.66991(8) 0.61782(17)
H14 H 0.0645 0.6596 0.6820
C13 C 0.23302(15) 0.65534(6) 0.59828(14)
H15 H 0.2795 0.6350 0.6488
C14 C 0.40547(12) 0.60236(4) 0.44925(12)
C15 C 0.34633(15) 0.59202(6) 0.33878(15)
H16 H 0.3325 0.6146 0.2836
C16 C 0.3077(2) 0.54849(8) 0.3098(2)
H17 H 0.2694 0.5420 0.2351
C17 C 0.3252(2) 0.51477(7) 0.3903(3)
H18 H 0.3000 0.4855 0.3703
C18 C 0.3803(2) 0.52480(6) 0.5005(2)
H19 H 0.3908 0.5022 0.5558
C19 C 0.42077(17) 0.56833(5) 0.53085(16)
H20 H 0.4582 0.5746 0.6060
C20 C 0.54366(12) 0.66070(4) 0.58116(10)
C21 C 0.54030(16) 0.70011(6) 0.64388(13)
H21 H 0.4663 0.7195 0.6294
C22 C 0.6465(2) 0.71096(8) 0.72811(16)
H22 H 0.6441 0.7378 0.7683
C23 C 0.75543(19) 0.68208(9) 0.75238(16)
H23 H 0.8252 0.6890 0.8102
C24 C 0.75994(16) 0.64311(8) 0.69047(15)
H24 H 0.8334 0.6236 0.7063
C25 C 0.65591(14) 0.63253(6) 0.60459(12)
H25 H 0.6612 0.6063 0.5622
O2 O 0.71206(9) 0.66276(3) 0.16958(7)
C26 C 0.76521(12) 0.61937(4) 0.14391(10)
C27 C 0.90231(12) 0.62912(4) 0.09671(10)
C28 C 0.96434(18) 0.67068(5) 0.10832(16)
H26 H 0.9189 0.6946 0.1383
C29 C 1.0948(2) 0.67681(6) 0.0752(2)
H27 H 1.1360 0.7048 0.0843
C30 C 1.16322(17) 0.64243(6) 0.02967(17)
H28 H 1.2505 0.6469 0.0083
C31 C 1.10174(16) 0.60136(5) 0.01582(14)
H29 H 1.1470 0.5778 -0.0158
C32 C 0.97216(14) 0.59483(5) 0.04885(12)
H30 H 0.9313 0.5668 0.0386
C33 C 0.67002(13) 0.59625(5) 0.04804(10)
C34 C 0.59567(18) 0.62263(6) -0.03463(12)
H31 H 0.6034 0.6537 -0.0308
C35 C 0.5101(2) 0.60297(9) -0.12268(14)
H32 H 0.4591 0.6210 -0.1765
C36 C 0.4997(2) 0.55731(10) -0.13147(17)
H33 H 0.4396 0.5444 -0.1894
C37 C 0.5790(2) 0.53049(7) -0.05364(16)
H34 H 0.5757 0.4995 -0.0614
C38 C 0.66298(17) 0.54981(5) 0.03562(13)
H35 H 0.7155 0.5316 0.0881
C39 C 0.79269(13) 0.59150(4) 0.25562(10)
C40 C 0.91526(15) 0.59651(5) 0.32630(11)
H36 H 0.9808 0.6165 0.3052
C41 C 0.9412(2) 0.57217(6) 0.42790(13)
H37 H 1.0237 0.5760 0.4741
C42 C 0.8461(2) 0.54252(5) 0.46073(12)
H38 H 0.8650 0.5256 0.5276
C43 C 0.72297(18) 0.53808(5) 0.39385(13)
H39 H 0.6574 0.5186 0.4167
C44 C 0.69526(14) 0.56251(4) 0.29222(11)
H40 H 0.6109 0.5595 0.2483
C45 C 0.73616(11) 0.36677(4) 0.38107(10)
H41 H 0.8289 0.3601 0.3630
C46 C 0.74082(12) 0.40059(4) 0.48107(10)
H42 H 0.7886 0.4280 0.4623
C47 C 0.59517(15) 0.41122(6) 0.50615(13)
H43 H 0.5465 0.4257 0.4393
H44 H 0.5984 0.4319 0.5706
C48 C 0.51771(16) 0.36903(7) 0.53475(16)
H45 H 0.5587 0.3569 0.6077
H46 H 0.4236 0.3768 0.5432
C49 C 0.52039(17) 0.33368(7) 0.44105(15)
H47 H 0.4662 0.3439 0.3714
H48 H 0.4795 0.3063 0.4659
C50 C 0.66550(15) 0.32404(5) 0.41451(12)
H49 H 0.6631 0.3026 0.3517
H50 H 0.7173 0.3109 0.4818
O3 O 0.65853(8) 0.38837(3) 0.28385(7)
C51 C 0.69788(11) 0.38172(4) 0.16957(10)
C52 C 0.57627(13) 0.39950(5) 0.08788(11)
C53 C 0.47455(16) 0.42435(7) 0.12730(16)
H51 H 0.4760 0.4298 0.2060
C54 C 0.36898(19) 0.44159(10) 0.0510(2)
H52 H 0.3017 0.4589 0.0794
C55 C 0.3620(2) 0.43366(9) -0.0640(2)
H53 H 0.2896 0.4448 -0.1141
C56 C 0.4623(2) 0.40926(8) -0.10474(17)
H54 H 0.4590 0.4039 -0.1836
C57 C 0.56995(18) 0.39214(7) -0.03077(14)
H55 H 0.6383 0.3757 -0.0605
C58 C 0.81931(11) 0.41181(4) 0.14878(10)
C59 C 0.84366(12) 0.45074(4) 0.21339(11)
H56 H 0.7922 0.4566 0.2740
C60 C 0.94338(14) 0.48084(4) 0.18887(13)
H57 H 0.9601 0.5063 0.2342
C61 C 1.01816(14) 0.47317(5) 0.09747(15)
H58 H 1.0840 0.4937 0.0801
C62 C 0.99477(15) 0.43487(5) 0.03194(14)
H59 H 1.0448 0.4296 -0.0299
C63 C 0.89682(14) 0.40431(5) 0.05809(12)
H60 H 0.8828 0.3784 0.0142
C64 C 0.72221(15) 0.33178(4) 0.15028(10)
C65 C 0.6104(2) 0.30358(6) 0.12090(13)
H61 H 0.5238 0.3158 0.1023
C66 C 0.6275(3) 0.25776(7) 0.11933(15)
H62 H 0.5525 0.2393 0.0993
C67 C 0.7537(4) 0.23927(6) 0.14684(17)
H63 H 0.7643 0.2083 0.1466
C68 C 0.8653(3) 0.26643(6) 0.17500(16)
H64 H 0.9513 0.2538 0.1935
C69 C 0.85029(17) 0.31287(5) 0.17602(12)
H65 H 0.9263 0.3311 0.1940
O4 O 0.80808(9) 0.38010(3) 0.58368(7)
C70 C 0.94966(13) 0.38911(4) 0.62057(10)
C71 C 0.98304(15) 0.35804(4) 0.72531(10)
C72 C 0.88493(19) 0.33109(5) 0.76697(14)
H66 H 0.7959 0.3312 0.7306
C73 C 0.9184(3) 0.30393(6) 0.86260(16)
H67 H 0.8513 0.2863 0.8903
C74 C 1.0504(3) 0.30293(6) 0.91703(15)
H68 H 1.0730 0.2842 0.9801
C75 C 1.1473(2) 0.32964(6) 0.87729(14)
H69 H 1.2359 0.3294 0.9144
C76 C 1.11532(18) 0.35714(5) 0.78211(13)
H70 H 1.1827 0.3751 0.7560
C77 C 0.96712(14) 0.43762(4) 0.66606(10)
C78 C 0.86217(19) 0.45659(5) 0.71989(12)
H71 H 0.7815 0.4407 0.7235
C79 C 0.8759(2) 0.49914(6) 0.76855(14)
H72 H 0.8042 0.5116 0.8035
C80 C 0.9947(2) 0.52281(6) 0.76510(15)
H73 H 1.0035 0.5514 0.7970
C81 C 1.1000(2) 0.50429(6) 0.71472(17)
H74 H 1.1810 0.5202 0.7134
C82 C 1.08781(17) 0.46160(5) 0.66493(14)
H75 H 1.1606 0.4493 0.6311
C83 C 1.03718(12) 0.37723(4) 0.52338(10)
C84 C 1.07905(15) 0.33317(5) 0.51068(13)
H76 H 1.0612 0.3119 0.5655
C85 C 1.14694(17) 0.32030(6) 0.41775(15)
H77 H 1.1743 0.2907 0.4110
C86 C 1.17396(15) 0.35121(6) 0.33552(14)
H78 H 1.2192 0.3426 0.2731
C87 C 1.13332(13) 0.39498(6) 0.34666(13)
H79 H 1.1514 0.4160 0.2915
C88 C 1.06533(13) 0.40792(5) 0.43975(11)
H80 H 1.0383 0.4376 0.4460
loop_
_geom_bond_atom_site_label_1
_geom_bond_atom_site_label_2
_geom_bond_site_symmetry_1
_geom_bond_site_symmetry_2
C1 H1 1_555 1_555
C2 C1 1_555 1_555
H2 C2 1_555 1_555
C3 C2 1_555 1_555
H3 C3 1_555 1_555
H4 C3 1_555 1_555
C4 C3 1_555 1_555
H5 C4 1_555 1_555
H6 C4 1_555 1_555
C5 C4 1_555 1_555
H7 C5 1_555 1_555
H8 C5 1_555 1_555
C6 C1 1_555 1_555
H9 C6 1_555 1_555
H10 C6 1_555 1_555
O1 C1 1_555 1_555
C7 O1 1_555 1_555
C8 C7 1_555 1_555
C9 C8 1_555 1_555
H11 C9 1_555 1_555
C10 C9 1_555 1_555
H12 C10 1_555 1_555
C11 C10 1_555 1_555
H13 C11 1_555 1_555
C12 C11 1_555 1_555
H14 C12 1_555 1_555
C13 C8 1_555 1_555
H15 C13 1_555 1_555
C14 C7 1_555 1_555
C15 C14 1_555 1_555
H16 C15 1_555 1_555
C16 C15 1_555 1_555
H17 C16 1_555 1_555
C17 C16 1_555 1_555
H18 C17 1_555 1_555
C18 C17 1_555 1_555
H19 C18 1_555 1_555
C19 C14 1_555 1_555
H20 C19 1_555 1_555
C20 C7 1_555 1_555
C21 C20 1_555 1_555
H21 C21 1_555 1_555
C22 C21 1_555 1_555
H22 C22 1_555 1_555
C23 C22 1_555 1_555
H23 C23 1_555 1_555
C24 C23 1_555 1_555
H24 C24 1_555 1_555
C25 C20 1_555 1_555
H25 C25 1_555 1_555
O2 C2 1_555 1_555
C26 O2 1_555 1_555
C27 C26 1_555 1_555
C28 C27 1_555 1_555
H26 C28 1_555 1_555
C29 C28 1_555 1_555
H27 C29 1_555 1_555
C30 C29 1_555 1_555
H28 C30 1_555 1_555
C31 C30 1_555 1_555
H29 C31 1_555 1_555
C32 C27 1_555 1_555
H30 C32 1_555 1_555
C33 C26 1_555 1_555
C34 C33 1_555 1_555
H31 C34 1_555 1_555
C35 C34 1_555 1_555
H32 C35 1_555 1_555
C36 C35 1_555 1_555
H33 C36 1_555 1_555
C37 C36 1_555 1_555
H34 C37 1_555 1_555
C38 C33 1_555 1_555
H35 C38 1_555 1_555
C39 C26 1_555 1_555
C40 C39 1_555 1_555
H36 C40 1_555 1_555
C41 C40 1_555 1_555
H37 C41 1_555 1_555
C42 C41 1_555 1_555
H38 C42 1_555 1_555
C43 C42 1_555 1_555
H39 C43 1_555 1_555
C44 C39 1_555 1_555
H40 C44 1_555 1_555
C45 H41 1_555 1_555
C46 C45 1_555 1_555
H42 C46 1_555 1_555
C47 C46 1_555 1_555
H43 C47 1_555 1_555
H44 C47 1_555 1_555
C48 C47 1_555 1_555
H45 C48 1_555 1_555
H46 C48 1_555 1_555
C49 C48 1_555 1_555
H47 C49 1_555 1_555
H48 C49 1_555 1_555
C50 C45 1_555 1_555
H49 C50 1_555 1_555
H50 C50 1_555 1_555
O3 C45 1_555 1_555
C51 O3 1_555 1_555
C52 C51 1_555 1_555
C53 C52 1_555 1_555
H51 C53 1_555 1_555
C54 C53 1_555 1_555
H52 C54 1_555 1_555
C55 C54 1_555 1_555
H53 C55 1_555 1_555
C56 C55 1_555 1_555
H54 C56 1_555 1_555
C57 C52 1_555 1_555
H55 C57 1_555 1_555
C58 C51 1_555 1_555
C59 C58 1_555 1_555
H56 C59 1_555 1_555
C60 C59 1_555 1_555
H57 C60 1_555 1_555
C61 C60 1_555 1_555
H58 C61 1_555 1_555
C62 C61 1_555 1_555
H59 C62 1_555 1_555
C63 C58 1_555 1_555
H60 C63 1_555 1_555
C64 C51 1_555 1_555
C65 C64 1_555 1_555
H61 C65 1_555 1_555
C66 C65 1_555 1_555
H62 C66 1_555 1_555
C67 C66 1_555 1_555
H63 C67 1_555 1_555
C68 C67 1_555 1_555
H64 C68 1_555 1_555
C69 C64 1_555 1_555
H65 C69 1_555 1_555
O4 C46 1_555 1_555
C70 O4 1_555 1_555
C71 C70 1_555 1_555
C72 C71 1_555 1_555
H66 C72 1_555 1_555
C73 C72 1_555 1_555
H67 C73 1_555 1_555
C74 C73 1_555 1_555
H68 C74 1_555 1_555
C75 C74 1_555 1_555
H69 C75 1_555 1_555
C76 C71 1_555 1_555
H70 C76 1_555 1_555
C77 C70 1_555 1_555
C78 C77 1_555 1_555
H71 C78 1_555 1_555
C79 C78 1_555 1_555
H72 C79 1_555 1_555
C80 C79 1_555 1_555
H73 C80 1_555 1_555
C81 C80 1_555 1_555
H74 C81 1_555 1_555
C82 C77 1_555 1_555
H75 C82 1_555 1_555
C83 C70 1_555 1_555
C84 C83 1_555 1_555
H76 C84 1_555 1_555
C85 C84 1_555 1_555
H77 C85 1_555 1_555
C86 C85 1_555 1_555
H78 C86 1_555 1_555
C87 C86 1_555 1_555
H79 C87 1_555 1_555
C88 C83 1_555 1_555
H80 C88 1_555 1_555
C5 C6 1_555 1_555
C12 C13 1_555 1_555
C18 C19 1_555 1_555
C24 C25 1_555 1_555
C31 C32 1_555 1_555
C37 C38 1_555 1_555
C43 C44 1_555 1_555
C49 C50 1_555 1_555
C56 C57 1_555 1_555
C62 C63 1_555 1_555
C68 C69 1_555 1_555
C75 C76 1_555 1_555
C81 C82 1_555 1_555
C87 C88 1_555 1_555

#END
