
#######################################################################
#
#                 Cambridge Crystallographic Data Centre
#                                CCDC 
#
#######################################################################
#
# If this CIF has been generated from an entry in the Cambridge 
# Structural Database, then it will include bibliographic, chemical, 
# crystal, experimental, refinement or atomic coordinate data resulting 
# from the CCDC's data processing and validation procedures.
#
#######################################################################

data_YIZROQ
_chemical_formula_moiety         'C42 H36 O2 S1'
_chemical_name_systematic        3,4-bis(Trityloxy)tetrahydrothiophene
_symmetry_cell_setting           monoclinic
_symmetry_space_group_name_H-M   'P 21'
_symmetry_Int_Tables_number      4
_space_group_name_Hall           'P 2yb'
loop_
_symmetry_equiv_pos_site_id
_symmetry_equiv_pos_as_xyz
1 x,y,z
2 -x,1/2+y,-z
_cell_length_a                   9.60690(12)
_cell_length_b                   15.6847(2)
_cell_length_c                   22.2505(3)
_cell_angle_alpha                90
_cell_angle_beta                 98.2870(10)
_cell_angle_gamma                90
_cell_volume                     3317.73
_exptl_crystal_colour            colorless
_exptl_crystal_description       plate
_cell_formula_units_Z            4
loop_
_atom_site_label
_atom_site_type_symbol
_atom_site_fract_x
_atom_site_fract_y
_atom_site_fract_z
C1 C 0.16495(17) 0.19951(11) 0.07367(8)
H1 H 0.0980 0.1651 0.0926
C2 C 0.16559(17) 0.29281(11) 0.09397(8)
H2 H 0.1999 0.2987 0.1374
C3 C 0.2608(2) 0.33805(14) 0.05550(11)
H3 H 0.3588 0.3288 0.0720
H4 H 0.2424 0.3989 0.0546
S1 S 0.22297(8) 0.29363(5) -0.02003(3)
C4 C 0.1255(2) 0.20387(15) 0.00501(10)
H5 H 0.0251 0.2127 -0.0058
H6 H 0.1512 0.1514 -0.0137
O1 O 0.30280(12) 0.16426(8) 0.08355(6)
C5 C 0.35108(17) 0.11524(12) 0.13768(8)
C6 C 0.50045(19) 0.08752(12) 0.12813(9)
C7 C 0.5665(2) 0.12266(18) 0.08287(12)
H7 H 0.5209 0.1641 0.0574
C8 C 0.7006(3) 0.0963(2) 0.07532(15)
H8 H 0.7441 0.1208 0.0448
C9 C 0.7703(3) 0.0351(2) 0.11156(18)
H9 H 0.8594 0.0171 0.1054
C10 C 0.7065(3) 0.0009(2) 0.15714(18)
H10 H 0.7532 -0.0402 0.1826
C11 C 0.5721(2) 0.02720(19) 0.16567(14)
H11 H 0.5303 0.0038 0.1971
C12 C 0.26113(18) 0.03505(12) 0.13990(8)
C13 C 0.1915(2) -0.00020(13) 0.08635(9)
H12 H 0.1979 0.0262 0.0494
C14 C 0.1126(2) -0.07424(14) 0.08751(11)
H13 H 0.0645 -0.0961 0.0515
C15 C 0.1051(3) -0.11539(16) 0.14149(13)
H14 H 0.0524 -0.1650 0.1421
C16 C 0.1761(2) -0.08270(16) 0.19473(11)
H15 H 0.1720 -0.1109 0.2312
C17 C 0.2530(2) -0.00855(14) 0.19438(9)
H16 H 0.3001 0.0128 0.2307
C18 C 0.35551(19) 0.17230(14) 0.19401(8)
C19 C 0.4687(2) 0.22587(19) 0.21056(13)
H17 H 0.5451 0.2244 0.1892
C20 C 0.4693(3) 0.2818(2) 0.25876(16)
H18 H 0.5465 0.3172 0.2696
C21 C 0.3587(3) 0.2857(2) 0.29053(13)
H19 H 0.3608 0.3232 0.3230
C22 C 0.2443(3) 0.23422(19) 0.27461(10)
H20 H 0.1683 0.2369 0.2961
C23 C 0.2421(2) 0.17813(15) 0.22637(9)
H21 H 0.1636 0.1438 0.2154
O2 O 0.02156(12) 0.32043(8) 0.07941(6)
C24 C -0.03332(17) 0.38397(12) 0.11651(8)
C25 C -0.17594(18) 0.40777(13) 0.08005(8)
C26 C -0.2463(2) 0.35152(15) 0.03905(10)
H22 H -0.2041 0.2999 0.0317
C27 C -0.3798(2) 0.37030(18) 0.00835(13)
H23 H -0.4256 0.3312 -0.0190
C28 C -0.4432(2) 0.44532(19) 0.01817(13)
H24 H -0.5316 0.4580 -0.0028
C29 C -0.3762(3) 0.5019(2) 0.05904(14)
H25 H -0.4200 0.5531 0.0662
C30 C -0.2433(2) 0.48413(18) 0.09013(12)
H26 H -0.1990 0.5234 0.1178
C31 C -0.06812(18) 0.34438(14) 0.17571(9)
C32 C -0.0980(2) 0.25820(17) 0.17834(11)
H27 H -0.0878 0.2234 0.1454
C33 C -0.1428(3) 0.2231(2) 0.22928(14)
H28 H -0.1615 0.1649 0.2303
C34 C -0.1600(3) 0.2725(3) 0.27780(14)
H29 H -0.1899 0.2484 0.3119
C35 C -0.1329(3) 0.3580(3) 0.27620(12)
H30 H -0.1447 0.3917 0.3095
C36 C -0.0877(2) 0.3954(2) 0.22531(10)
H31 H -0.0708 0.4538 0.2245
C37 C 0.07059(19) 0.45851(12) 0.12658(9)
C38 C 0.0714(2) 0.52165(14) 0.08274(11)
H32 H 0.0018 0.5225 0.0490
C39 C 0.1766(3) 0.58379(17) 0.08930(15)
H33 H 0.1751 0.6268 0.0605
C40 C 0.2825(3) 0.58196(19) 0.13800(16)
H34 H 0.3534 0.6228 0.1415
C41 C 0.2832(3) 0.52003(19) 0.18131(14)
H35 H 0.3541 0.5194 0.2145
C42 C 0.1782(2) 0.45782(15) 0.17601(10)
H36 H 0.1799 0.4157 0.2055
C43 C 0.70673(15) 0.80306(11) 0.44804(8)
H37 H 0.6679 0.8586 0.4340
C44 C 0.67769(16) 0.73493(10) 0.39879(8)
H38 H 0.7273 0.7474 0.3643
C45 C 0.7297(2) 0.65208(13) 0.42996(12)
H39 H 0.8305 0.6466 0.4310
H40 H 0.6842 0.6036 0.4083
S2 S 0.68599(8) 0.65636(5) 0.50600(4)
C46 C 0.6398(2) 0.76942(17) 0.50095(10)
H41 H 0.5385 0.7767 0.4935
H42 H 0.6767 0.7989 0.5382
O3 O 0.85586(11) 0.80586(7) 0.46315(6)
C47 C 0.92684(16) 0.88480(10) 0.48156(8)
C48 C 1.07325(16) 0.85528(12) 0.51168(8)
C49 C 1.0990(2) 0.77159(14) 0.52825(10)
H43 H 1.0274 0.7316 0.5200
C50 C 1.2302(2) 0.74588(18) 0.55718(11)
H44 H 1.2457 0.6889 0.5676
C51 C 1.3363(2) 0.8036(2) 0.57041(10)
H45 H 1.4238 0.7865 0.5901
C52 C 1.3125(2) 0.8864(2) 0.55442(16)
H46 H 1.3844 0.9261 0.5635
C53 C 1.1822(2) 0.91293(17) 0.52458(14)
H47 H 1.1685 0.9697 0.5133
C54 C 0.94338(16) 0.93732(11) 0.42495(8)
C55 C 0.94704(18) 0.89604(14) 0.37025(9)
H48 H 0.9345 0.8373 0.3680
C56 C 0.9691(2) 0.94089(19) 0.31881(10)
H49 H 0.9689 0.9124 0.2822
C57 C 0.9911(3) 1.02744(19) 0.32182(13)
H50 H 1.0064 1.0574 0.2873
C58 C 0.9904(3) 1.06977(16) 0.37597(13)
H51 H 1.0063 1.1283 0.3781
C59 C 0.9660(2) 1.02538(13) 0.42726(10)
H52 H 0.9647 1.0545 0.4636
C60 C 0.84904(17) 0.93223(11) 0.52703(8)
C61 C 0.73622(19) 0.98622(12) 0.50762(10)
H53 H 0.7138 0.9986 0.4665
C62 C 0.6570(2) 1.02171(15) 0.54849(12)
H54 H 0.5808 1.0565 0.5346
C63 C 0.6912(3) 1.00545(16) 0.60986(12)
H55 H 0.6389 1.0299 0.6374
C64 C 0.8019(3) 0.95343(16) 0.62990(10)
H56 H 0.8246 0.9424 0.6712
C65 C 0.8810(2) 0.91673(13) 0.58923(9)
H57 H 0.9561 0.8814 0.6036
O4 O 0.53022(11) 0.72400(8) 0.37965(6)
C66 C 0.46176(16) 0.76667(11) 0.32512(8)
C67 C 0.52921(17) 0.73854(12) 0.26953(9)
C68 C 0.5907(2) 0.65870(14) 0.26850(11)
H58 H 0.5898 0.6219 0.3012
C69 C 0.6540(3) 0.63291(18) 0.21877(14)
H59 H 0.6962 0.5795 0.2189
C70 C 0.6542(3) 0.6864(2) 0.16944(14)
H60 H 0.6995 0.6701 0.1370
C71 C 0.5876(3) 0.7633(2) 0.16864(12)
H61 H 0.5842 0.7986 0.1349
C72 C 0.5249(2) 0.78905(16) 0.21809(10)
H62 H 0.4789 0.8413 0.2167
C73 C 0.30987(16) 0.73215(11) 0.32001(9)
C74 C 0.2503(2) 0.71568(15) 0.37205(11)
H63 H 0.3028 0.7247 0.4100
C75 C 0.1129(2) 0.68571(17) 0.36805(13)
H64 H 0.0743 0.6749 0.4033
C76 C 0.0337(2) 0.67199(17) 0.31236(14)
H65 H -0.0581 0.6520 0.3097
C77 C 0.0915(2) 0.68803(18) 0.26095(14)
H66 H 0.0384 0.6788 0.2232
C78 C 0.2293(2) 0.71814(15) 0.26414(11)
H67 H 0.2669 0.7288 0.2286
C79 C 0.46765(16) 0.86402(11) 0.33472(8)
C80 C 0.58223(19) 0.91156(12) 0.32231(9)
H68 H 0.6539 0.8846 0.3056
C81 C 0.5920(2) 0.99828(13) 0.33427(10)
H69 H 0.6702 1.0286 0.3259
C82 C 0.4869(2) 1.03943(13) 0.35837(11)
H70 H 0.4927 1.0978 0.3658
C83 C 0.3731(2) 0.99383(15) 0.37137(12)
H71 H 0.3021 1.0214 0.3881
C84 C 0.36283(19) 0.90675(13) 0.35981(9)
H72 H 0.2850 0.8767 0.3689
loop_
_geom_bond_atom_site_label_1
_geom_bond_atom_site_label_2
_geom_bond_site_symmetry_1
_geom_bond_site_symmetry_2
C1 H1 1_555 1_555
C2 C1 1_555 1_555
H2 C2 1_555 1_555
C3 C2 1_555 1_555
H3 C3 1_555 1_555
H4 C3 1_555 1_555
S1 C3 1_555 1_555
C4 C1 1_555 1_555
H5 C4 1_555 1_555
H6 C4 1_555 1_555
O1 C1 1_555 1_555
C5 O1 1_555 1_555
C6 C5 1_555 1_555
C7 C6 1_555 1_555
H7 C7 1_555 1_555
C8 C7 1_555 1_555
H8 C8 1_555 1_555
C9 C8 1_555 1_555
H9 C9 1_555 1_555
C10 C9 1_555 1_555
H10 C10 1_555 1_555
C11 C6 1_555 1_555
H11 C11 1_555 1_555
C12 C5 1_555 1_555
C13 C12 1_555 1_555
H12 C13 1_555 1_555
C14 C13 1_555 1_555
H13 C14 1_555 1_555
C15 C14 1_555 1_555
H14 C15 1_555 1_555
C16 C15 1_555 1_555
H15 C16 1_555 1_555
C17 C12 1_555 1_555
H16 C17 1_555 1_555
C18 C5 1_555 1_555
C19 C18 1_555 1_555
H17 C19 1_555 1_555
C20 C19 1_555 1_555
H18 C20 1_555 1_555
C21 C20 1_555 1_555
H19 C21 1_555 1_555
C22 C21 1_555 1_555
H20 C22 1_555 1_555
C23 C18 1_555 1_555
H21 C23 1_555 1_555
O2 C2 1_555 1_555
C24 O2 1_555 1_555
C25 C24 1_555 1_555
C26 C25 1_555 1_555
H22 C26 1_555 1_555
C27 C26 1_555 1_555
H23 C27 1_555 1_555
C28 C27 1_555 1_555
H24 C28 1_555 1_555
C29 C28 1_555 1_555
H25 C29 1_555 1_555
C30 C25 1_555 1_555
H26 C30 1_555 1_555
C31 C24 1_555 1_555
C32 C31 1_555 1_555
H27 C32 1_555 1_555
C33 C32 1_555 1_555
H28 C33 1_555 1_555
C34 C33 1_555 1_555
H29 C34 1_555 1_555
C35 C34 1_555 1_555
H30 C35 1_555 1_555
C36 C31 1_555 1_555
H31 C36 1_555 1_555
C37 C24 1_555 1_555
C38 C37 1_555 1_555
H32 C38 1_555 1_555
C39 C38 1_555 1_555
H33 C39 1_555 1_555
C40 C39 1_555 1_555
H34 C40 1_555 1_555
C41 C40 1_555 1_555
H35 C41 1_555 1_555
C42 C37 1_555 1_555
H36 C42 1_555 1_555
C43 H37 1_555 1_555
C44 C43 1_555 1_555
H38 C44 1_555 1_555
C45 C44 1_555 1_555
H39 C45 1_555 1_555
H40 C45 1_555 1_555
S2 C45 1_555 1_555
C46 C43 1_555 1_555
H41 C46 1_555 1_555
H42 C46 1_555 1_555
O3 C43 1_555 1_555
C47 O3 1_555 1_555
C48 C47 1_555 1_555
C49 C48 1_555 1_555
H43 C49 1_555 1_555
C50 C49 1_555 1_555
H44 C50 1_555 1_555
C51 C50 1_555 1_555
H45 C51 1_555 1_555
C52 C51 1_555 1_555
H46 C52 1_555 1_555
C53 C48 1_555 1_555
H47 C53 1_555 1_555
C54 C47 1_555 1_555
C55 C54 1_555 1_555
H48 C55 1_555 1_555
C56 C55 1_555 1_555
H49 C56 1_555 1_555
C57 C56 1_555 1_555
H50 C57 1_555 1_555
C58 C57 1_555 1_555
H51 C58 1_555 1_555
C59 C54 1_555 1_555
H52 C59 1_555 1_555
C60 C47 1_555 1_555
C61 C60 1_555 1_555
H53 C61 1_555 1_555
C62 C61 1_555 1_555
H54 C62 1_555 1_555
C63 C62 1_555 1_555
H55 C63 1_555 1_555
C64 C63 1_555 1_555
H56 C64 1_555 1_555
C65 C60 1_555 1_555
H57 C65 1_555 1_555
O4 C44 1_555 1_555
C66 O4 1_555 1_555
C67 C66 1_555 1_555
C68 C67 1_555 1_555
H58 C68 1_555 1_555
C69 C68 1_555 1_555
H59 C69 1_555 1_555
C70 C69 1_555 1_555
H60 C70 1_555 1_555
C71 C70 1_555 1_555
H61 C71 1_555 1_555
C72 C67 1_555 1_555
H62 C72 1_555 1_555
C73 C66 1_555 1_555
C74 C73 1_555 1_555
H63 C74 1_555 1_555
C75 C74 1_555 1_555
H64 C75 1_555 1_555
C76 C75 1_555 1_555
H65 C76 1_555 1_555
C77 C76 1_555 1_555
H66 C77 1_555 1_555
C78 C73 1_555 1_555
H67 C78 1_555 1_555
C79 C66 1_555 1_555
C80 C79 1_555 1_555
H68 C80 1_555 1_555
C81 C80 1_555 1_555
H69 C81 1_555 1_555
C82 C81 1_555 1_555
H70 C82 1_555 1_555
C83 C82 1_555 1_555
H71 C83 1_555 1_555
C84 C79 1_555 1_555
H72 C84 1_555 1_555
S1 C4 1_555 1_555
C10 C11 1_555 1_555
C16 C17 1_555 1_555
C22 C23 1_555 1_555
C29 C30 1_555 1_555
C35 C36 1_555 1_555
C41 C42 1_555 1_555
S2 C46 1_555 1_555
C52 C53 1_555 1_555
C58 C59 1_555 1_555
C64 C65 1_555 1_555
C71 C72 1_555 1_555
C77 C78 1_555 1_555
C83 C84 1_555 1_555

#END
