
#######################################################################
#
#                 Cambridge Crystallographic Data Centre
#                                CCDC 
#
#######################################################################
#
# If this CIF has been generated from an entry in the Cambridge 
# Structural Database, then it will include bibliographic, chemical, 
# crystal, experimental, refinement or atomic coordinate data resulting 
# from the CCDC's data processing and validation procedures.
#
#######################################################################

data_YIZRIJ
_chemical_formula_moiety         'C18 H14 N4'
_chemical_name_systematic        2-Phenyl-9-hydrazino-1,10-phenanthroline
_symmetry_cell_setting           monoclinic
_symmetry_space_group_name_H-M   'P 21/c'
_symmetry_Int_Tables_number      14
_space_group_name_Hall           '-P 2ybc'
loop_
_symmetry_equiv_pos_site_id
_symmetry_equiv_pos_as_xyz
1 x,y,z
2 -x,1/2+y,1/2-z
3 -x,-y,-z
4 x,1/2-y,1/2+z
_cell_length_a                   11.7738(3)
_cell_length_b                   20.9998(6)
_cell_length_c                   12.4546(4)
_cell_angle_alpha                90
_cell_angle_beta                 106.7500(10)
_cell_angle_gamma                90
_cell_volume                     2948.71
_exptl_crystal_colour            orange
_exptl_crystal_description       Block
_cell_formula_units_Z            8
_exptl_crystal_recrystallization_method 'ethyl acetate'
loop_
_atom_site_label
_atom_site_type_symbol
_atom_site_fract_x
_atom_site_fract_y
_atom_site_fract_z
N1 N 0.5492(2) 0.08672(10) 0.87170(16)
N2 N 0.58625(18) 0.07670(10) 0.66278(16)
N3 N 0.5104(2) 0.07964(11) 0.47260(16)
H1 H 0.4431 0.0889 0.4828
N4 N 0.5175(2) 0.07167(11) 0.36286(16)
H2 H 0.5842 0.0624 0.3515
H3 H 0.4550 0.0761 0.3069
C1 C 0.3272(3) 0.13387(14) 0.8913(2)
H7 H 0.3488 0.1481 0.8293
C2 C 0.2138(3) 0.14338(15) 0.8967(3)
H8 H 0.1592 0.1644 0.8384
C3 C 0.1798(3) 0.12206(17) 0.9875(3)
H9 H 0.1029 0.1290 0.9909
C4 C 0.2605(4) 0.09047(16) 1.0731(3)
H10 H 0.2382 0.0755 1.1344
C5 C 0.3737(3) 0.08126(14) 1.0677(2)
H11 H 0.4277 0.0598 1.1257
C6 C 0.4098(3) 0.10307(13) 0.9779(2)
C7 C 0.5319(3) 0.09322(12) 0.9727(2)
C8 C 0.6283(3) 0.09042(14) 1.0721(2)
H12 H 0.6150 0.0959 1.1416
C9 C 0.7393(3) 0.07971(15) 1.0658(2)
H13 H 0.8020 0.0766 1.1311
C10 C 0.7603(3) 0.07339(14) 0.9618(2)
C11 C 0.8752(3) 0.06217(17) 0.9518(3)
H14 H 0.9392 0.0588 1.0160
C12 C 0.8925(3) 0.05630(17) 0.8507(3)
H15 H 0.9687 0.0489 0.8456
C13 C 0.7969(2) 0.06112(14) 0.7513(2)
C14 C 0.8130(3) 0.05614(16) 0.6437(3)
H16 H 0.8884 0.0483 0.6371
C15 C 0.7210(2) 0.06254(14) 0.5501(2)
H17 H 0.7323 0.0601 0.4793
C16 C 0.6066(2) 0.07311(12) 0.5629(2)
C17 C 0.6812(2) 0.07155(13) 0.7558(2)
C18 C 0.6611(2) 0.07772(12) 0.8654(2)
N5 N 0.3568(3) 0.19427(11) 0.33109(18)
N6 N 0.27474(18) 0.12179(10) 0.47818(17)
N7 N 0.3177(2) 0.06401(11) 0.63961(17)
H4 H 0.3888 0.0787 0.6561
N8 N 0.2891(2) 0.01705(11) 0.70804(18)
H5 H 0.2181 0.0022 0.6920
H6 H 0.3426 0.0032 0.7659
C19 C 0.5978(4) 0.23157(18) 0.3994(3)
H18 H 0.5623 0.2195 0.4539
C20 C 0.7177(4) 0.2415(2) 0.4287(4)
H19 H 0.7627 0.2365 0.5029
C21 C 0.7715(5) 0.2587(2) 0.3500(5)
H20 H 0.8532 0.2649 0.3703
C22 C 0.7070(6) 0.2667(2) 0.2438(5)
H21 H 0.7437 0.2792 0.1904
C23 C 0.5864(5) 0.2564(2) 0.2124(3)
H22 H 0.5427 0.2611 0.1376
C24 C 0.5295(4) 0.23911(14) 0.2910(3)
C25 C 0.3988(4) 0.22976(14) 0.2607(2)
C26 C 0.3205(5) 0.25781(16) 0.1655(3)
H23 H 0.3510 0.2813 0.1169
C27 C 0.2040(5) 0.25143(17) 0.1436(3)
H24 H 0.1534 0.2713 0.0813
C28 C 0.1571(4) 0.21417(16) 0.2155(3)
C29 C 0.0341(4) 0.2040(2) 0.1971(3)
H25 H -0.0194 0.2224 0.1349
C30 C -0.0074(3) 0.1683(2) 0.2675(3)
H26 H -0.0886 0.1625 0.2535
C31 C 0.0734(3) 0.13922(16) 0.3637(3)
C32 C 0.0347(3) 0.10061(18) 0.4388(3)
H27 H -0.0460 0.0930 0.4253
C33 C 0.1128(3) 0.07413(16) 0.5306(3)
H28 H 0.0868 0.0488 0.5801
C34 C 0.2347(2) 0.08642(13) 0.5481(2)
C35 C 0.1961(3) 0.14777(13) 0.3869(2)
C36 C 0.2383(3) 0.18674(13) 0.3098(2)
loop_
_geom_bond_atom_site_label_1
_geom_bond_atom_site_label_2
_geom_bond_site_symmetry_1
_geom_bond_site_symmetry_2
N1 C7 1_555 1_555
N2 C16 1_555 1_555
N3 H1 1_555 1_555
N4 N3 1_555 1_555
H2 N4 1_555 1_555
H3 N4 1_555 1_555
N5 C25 1_555 1_555
N6 C34 1_555 1_555
N7 H4 1_555 1_555
N8 N7 1_555 1_555
H5 N8 1_555 1_555
H6 N8 1_555 1_555
C1 H7 1_555 1_555
C2 C1 1_555 1_555
H8 C2 1_555 1_555
C3 C2 1_555 1_555
H9 C3 1_555 1_555
C4 C3 1_555 1_555
H10 C4 1_555 1_555
C5 C4 1_555 1_555
H11 C5 1_555 1_555
C6 C1 1_555 1_555
C7 C6 1_555 1_555
C8 C7 1_555 1_555
H12 C8 1_555 1_555
C9 C8 1_555 1_555
H13 C9 1_555 1_555
C10 C9 1_555 1_555
C11 C10 1_555 1_555
H14 C11 1_555 1_555
C12 C11 1_555 1_555
H15 C12 1_555 1_555
C13 C12 1_555 1_555
C14 C13 1_555 1_555
H16 C14 1_555 1_555
C15 C14 1_555 1_555
H17 C15 1_555 1_555
C16 N3 1_555 1_555
C17 N2 1_555 1_555
C18 N1 1_555 1_555
C19 H18 1_555 1_555
C20 C19 1_555 1_555
H19 C20 1_555 1_555
C21 C20 1_555 1_555
H20 C21 1_555 1_555
C22 C21 1_555 1_555
H21 C22 1_555 1_555
C23 C22 1_555 1_555
H22 C23 1_555 1_555
C24 C19 1_555 1_555
C25 C24 1_555 1_555
C26 C25 1_555 1_555
H23 C26 1_555 1_555
C27 C26 1_555 1_555
H24 C27 1_555 1_555
C28 C27 1_555 1_555
C29 C28 1_555 1_555
H25 C29 1_555 1_555
C30 C29 1_555 1_555
H26 C30 1_555 1_555
C31 C30 1_555 1_555
C32 C31 1_555 1_555
H27 C32 1_555 1_555
C33 C32 1_555 1_555
H28 C33 1_555 1_555
C34 N7 1_555 1_555
C35 N6 1_555 1_555
C36 N5 1_555 1_555
C5 C6 1_555 1_555
C10 C18 1_555 1_555
C13 C17 1_555 1_555
C15 C16 1_555 1_555
C17 C18 1_555 1_555
C23 C24 1_555 1_555
C28 C36 1_555 1_555
C31 C35 1_555 1_555
C33 C34 1_555 1_555
C35 C36 1_555 1_555

#END
