
#######################################################################
#
#                 Cambridge Crystallographic Data Centre
#                                CCDC 
#
#######################################################################
#
# If this CIF has been generated from an entry in the Cambridge 
# Structural Database, then it will include bibliographic, chemical, 
# crystal, experimental, refinement or atomic coordinate data resulting 
# from the CCDC's data processing and validation procedures.
#
#######################################################################

data_YIZRIK
_chemical_formula_moiety         'C42 H36 O3'
_chemical_name_systematic        3,4-bis(Trityloxy)tetrahydrofuran
_symmetry_cell_setting           triclinic
_symmetry_space_group_name_H-M   'P 1'
_symmetry_Int_Tables_number      1
_space_group_name_Hall           'P 1'
loop_
_symmetry_equiv_pos_site_id
_symmetry_equiv_pos_as_xyz
1 x,y,z
_cell_length_a                   9.5406(2)
_cell_length_b                   13.2207(4)
_cell_length_c                   14.2879(5)
_cell_angle_alpha                113.143(3)
_cell_angle_beta                 90.733(2)
_cell_angle_gamma                107.930(2)
_cell_volume                     1558.13
_exptl_crystal_colour            colorless
_exptl_crystal_description       prism
_cell_formula_units_Z            2
loop_
_atom_site_label
_atom_site_type_symbol
_atom_site_fract_x
_atom_site_fract_y
_atom_site_fract_z
C1 C 0.11693(14) 0.61926(11) 0.40466(11)
H1 H 0.0569 0.6420 0.4592
C2 C 0.26542(14) 0.71954(11) 0.42811(10)
H2 H 0.3439 0.6882 0.4002
C3 C 0.23152(18) 0.78774(15) 0.37004(14)
H3 H 0.2489 0.8683 0.4174
H4 H 0.2953 0.7873 0.3176
O1 O 0.08051(14) 0.73182(11) 0.32427(13)
C4 C 0.04496(19) 0.61213(15) 0.30507(15)
H5 H 0.0871 0.5716 0.2463
H6 H -0.0620 0.5727 0.2930
O2 O 0.14615(9) 0.51763(7) 0.39905(7)
C5 C 0.02524(13) 0.42458(10) 0.40712(10)
C6 C -0.00933(14) 0.45907(11) 0.51784(10)
C7 C 0.08760(15) 0.55568(12) 0.59944(11)
H7 H 0.1701 0.6051 0.5863
C8 C 0.06394(19) 0.57993(14) 0.69994(12)
H8 H 0.1309 0.6448 0.7536
C9 C -0.0584(2) 0.50860(15) 0.72132(13)
H9 H -0.0742 0.5252 0.7890
C10 C -0.15700(19) 0.41235(14) 0.64115(13)
H10 H -0.2408 0.3645 0.6547
C11 C -0.13123(16) 0.38718(13) 0.54089(12)
H11 H -0.1967 0.3208 0.4876
C12 C 0.08781(15) 0.32474(11) 0.38647(10)
C13 C 0.23799(17) 0.34871(14) 0.41274(14)
H12 H 0.3034 0.4253 0.4369
C14 C 0.2920(2) 0.26035(18) 0.40355(17)
H13 H 0.3935 0.2779 0.4213
C15 C 0.1971(2) 0.14616(16) 0.36831(14)
H14 H 0.2337 0.0870 0.3635
C16 C 0.0482(2) 0.12092(13) 0.34048(12)
H15 H -0.0164 0.0440 0.3156
C17 C -0.00706(17) 0.20970(12) 0.34914(11)
H16 H -0.1082 0.1917 0.3297
C18 C -0.10650(14) 0.38709(10) 0.32424(10)
C19 C -0.08589(16) 0.34053(12) 0.22226(11)
H17 H 0.0018 0.3252 0.2065
C20 C -0.19388(18) 0.31645(13) 0.14340(12)
H18 H -0.1778 0.2863 0.0753
C21 C -0.32514(17) 0.33720(14) 0.16575(13)
H19 H -0.3974 0.3218 0.1130
C22 C -0.34851(16) 0.38068(14) 0.26627(13)
H20 H -0.4380 0.3931 0.2814
C23 C -0.23988(15) 0.40636(12) 0.34570(11)
H21 H -0.2566 0.4366 0.4136
O3 O 0.30307(9) 0.78414(7) 0.53700(7)
C24 C 0.45559(13) 0.85885(10) 0.58076(9)
C25 C 0.44977(13) 0.91824(10) 0.69658(9)
C26 C 0.32223(16) 0.88741(13) 0.73850(11)
H22 H 0.2368 0.8284 0.6961
C27 C 0.32036(18) 0.94351(16) 0.84322(13)
H23 H 0.2335 0.9220 0.8702
C28 C 0.44540(19) 1.03040(15) 0.90743(12)
H24 H 0.4433 1.0685 0.9774
C29 C 0.57378(18) 1.06045(14) 0.86695(12)
H25 H 0.6596 1.1182 0.9100
C30 C 0.57617(16) 1.00535(13) 0.76268(11)
H26 H 0.6636 1.0268 0.7363
C31 C 0.55859(13) 0.78624(11) 0.56820(9)
C32 C 0.50279(15) 0.67372(12) 0.56278(11)
H27 H 0.4009 0.6396 0.5599
C33 C 0.59642(17) 0.61128(13) 0.56157(12)
H28 H 0.5570 0.5362 0.5586
C34 C 0.74724(17) 0.65978(13) 0.56473(12)
H29 H 0.8102 0.6183 0.5646
C35 C 0.80407(16) 0.77105(14) 0.56815(12)
H30 H 0.9056 0.8038 0.5688
C36 C 0.71159(15) 0.83399(12) 0.57062(11)
H31 H 0.7517 0.9092 0.5739
C37 C 0.50557(13) 0.94873(11) 0.53478(10)
C38 C 0.56343(15) 0.92133(12) 0.44264(11)
H32 H 0.5838 0.8519 0.4136
C39 C 0.59123(18) 0.99555(15) 0.39337(12)
H33 H 0.6292 0.9756 0.3316
C40 C 0.56249(19) 1.09925(14) 0.43606(13)
H34 H 0.5800 1.1488 0.4027
C41 C 0.50788(19) 1.12913(13) 0.52799(13)
H35 H 0.4901 1.1996 0.5574
C42 C 0.47916(15) 1.05420(12) 0.57694(11)
H36 H 0.4417 1.0749 0.6389
C43 C 0.46266(15) 0.53957(11) 0.87344(10)
H37 H 0.5268 0.5186 0.9115
C44 C 0.31450(15) 0.43837(11) 0.82533(10)
H38 H 0.2352 0.4684 0.8174
C45 C 0.3470(2) 0.36689(17) 0.71943(14)
H39 H 0.3417 0.2903 0.7141
H40 H 0.2736 0.3564 0.6657
O4 O 0.48902(16) 0.42647(11) 0.70768(11)
C46 C 0.5273(2) 0.54530(14) 0.77774(13)
H41 H 0.4833 0.5869 0.7502
H42 H 0.6346 0.5838 0.7932
O5 O 0.43473(9) 0.64169(7) 0.94137(7)
C47 C 0.55787(14) 0.73634(11) 1.01532(10)
C48 C 0.59852(15) 0.70562(11) 1.10315(10)
C49 C 0.50069(17) 0.61368(13) 1.11871(12)
H43 H 0.4137 0.5660 1.0720
C50 C 0.5302(2) 0.59143(16) 1.20282(14)
H44 H 0.4624 0.5298 1.2123
C51 C 0.6584(3) 0.65968(16) 1.27177(13)
H45 H 0.6782 0.6443 1.3278
C52 C 0.7578(2) 0.75123(15) 1.25772(13)
H46 H 0.8458 0.7971 1.3038
C53 C 0.72729(18) 0.77542(13) 1.17533(12)
H47 H 0.7937 0.8392 1.1680
C54 C 0.49828(15) 0.83773(12) 1.06547(10)
C55 C 0.34853(19) 0.81730(16) 1.06944(15)
H48 H 0.2807 0.7414 1.0387
C56 C 0.2990(2) 0.9111(2) 1.11977(18)
H49 H 0.1977 0.8975 1.1216
C57 C 0.3985(2) 1.02345(17) 1.16677(14)
H50 H 0.3646 1.0853 1.2008
C58 C 0.5466(2) 1.04390(14) 1.16344(12)
H51 H 0.6140 1.1199 1.1951
C59 C 0.59700(18) 0.95180(12) 1.11291(11)
H52 H 0.6984 0.9665 1.1107
C60 C 0.68589(14) 0.77046(11) 0.95829(10)
C61 C 0.66219(16) 0.81710(12) 0.88979(11)
H53 H 0.5754 0.8344 0.8863
C62 C 0.76527(18) 0.83781(14) 0.82756(12)
H54 H 0.7464 0.8668 0.7808
C63 C 0.89717(18) 0.81595(15) 0.83376(13)
H55 H 0.9669 0.8299 0.7914
C64 C 0.92387(17) 0.77338(14) 0.90318(13)
H56 H 1.0134 0.7605 0.9090
C65 C 0.81877(16) 0.74945(12) 0.96471(12)
H57 H 0.8374 0.7192 1.0104
O6 O 0.27952(9) 0.37893(8) 0.89069(7)
C66 C 0.12854(13) 0.30146(11) 0.87690(10)
C67 C 0.13296(14) 0.24663(11) 0.95289(10)
C68 C 0.25263(17) 0.28980(15) 1.02981(13)
H58 H 0.3355 0.3524 1.0347
C69 C 0.2503(2) 0.24084(18) 1.09955(15)
H59 H 0.3318 0.2709 1.1508
C70 C 0.12966(19) 0.14859(15) 1.09416(13)
H60 H 0.1288 0.1164 1.1416
C71 C 0.01007(18) 0.10414(14) 1.01807(13)
H61 H -0.0720 0.0412 1.0135
C72 C 0.01137(16) 0.15271(13) 0.94821(12)
H62 H -0.0705 0.1221 0.8971
C73 C 0.02071(14) 0.37073(12) 0.91143(10)
C74 C 0.07265(17) 0.48419(13) 0.98709(11)
H63 H 0.1745 0.5215 1.0100
C75 C -0.0246(2) 0.54305(15) 1.02931(14)
H64 H 0.0123 0.6190 1.0804
C76 C -0.1761(2) 0.48935(16) 0.99575(15)
H65 H -0.2417 0.5283 1.0246
C77 C -0.22895(17) 0.37742(16) 0.91901(15)
H66 H -0.3307 0.3413 0.8949
C78 C -0.13234(16) 0.31832(13) 0.87749(12)
H67 H -0.1699 0.2425 0.8262
C79 C 0.08532(14) 0.20800(11) 0.76599(10)
C80 C 0.13727(16) 0.11390(12) 0.73748(11)
H68 H 0.1883 0.1043 0.7875
C81 C 0.11373(18) 0.03456(14) 0.63544(13)
H69 H 0.1499 -0.0273 0.6174
C82 C 0.0369(2) 0.04702(16) 0.56060(13)
H70 H 0.0207 -0.0066 0.4922
C83 C -0.0154(2) 0.13879(17) 0.58744(13)
H71 H -0.0681 0.1468 0.5371
C84 C 0.00988(17) 0.21967(14) 0.68912(12)
H72 H -0.0241 0.2826 0.7061
loop_
_geom_bond_atom_site_label_1
_geom_bond_atom_site_label_2
_geom_bond_site_symmetry_1
_geom_bond_site_symmetry_2
C1 H1 1_555 1_555
C2 C1 1_555 1_555
H2 C2 1_555 1_555
C3 C2 1_555 1_555
H3 C3 1_555 1_555
H4 C3 1_555 1_555
O1 C3 1_555 1_555
C4 C1 1_555 1_555
H5 C4 1_555 1_555
H6 C4 1_555 1_555
O2 C1 1_555 1_555
C5 O2 1_555 1_555
C6 C5 1_555 1_555
C7 C6 1_555 1_555
H7 C7 1_555 1_555
C8 C7 1_555 1_555
H8 C8 1_555 1_555
C9 C8 1_555 1_555
H9 C9 1_555 1_555
C10 C9 1_555 1_555
H10 C10 1_555 1_555
C11 C6 1_555 1_555
H11 C11 1_555 1_555
C12 C5 1_555 1_555
C13 C12 1_555 1_555
H12 C13 1_555 1_555
C14 C13 1_555 1_555
H13 C14 1_555 1_555
C15 C14 1_555 1_555
H14 C15 1_555 1_555
C16 C15 1_555 1_555
H15 C16 1_555 1_555
C17 C12 1_555 1_555
H16 C17 1_555 1_555
C18 C5 1_555 1_555
C19 C18 1_555 1_555
H17 C19 1_555 1_555
C20 C19 1_555 1_555
H18 C20 1_555 1_555
C21 C20 1_555 1_555
H19 C21 1_555 1_555
C22 C21 1_555 1_555
H20 C22 1_555 1_555
C23 C18 1_555 1_555
H21 C23 1_555 1_555
O3 C2 1_555 1_555
C24 O3 1_555 1_555
C25 C24 1_555 1_555
C26 C25 1_555 1_555
H22 C26 1_555 1_555
C27 C26 1_555 1_555
H23 C27 1_555 1_555
C28 C27 1_555 1_555
H24 C28 1_555 1_555
C29 C28 1_555 1_555
H25 C29 1_555 1_555
C30 C25 1_555 1_555
H26 C30 1_555 1_555
C31 C24 1_555 1_555
C32 C31 1_555 1_555
H27 C32 1_555 1_555
C33 C32 1_555 1_555
H28 C33 1_555 1_555
C34 C33 1_555 1_555
H29 C34 1_555 1_555
C35 C34 1_555 1_555
H30 C35 1_555 1_555
C36 C31 1_555 1_555
H31 C36 1_555 1_555
C37 C24 1_555 1_555
C38 C37 1_555 1_555
H32 C38 1_555 1_555
C39 C38 1_555 1_555
H33 C39 1_555 1_555
C40 C39 1_555 1_555
H34 C40 1_555 1_555
C41 C40 1_555 1_555
H35 C41 1_555 1_555
C42 C37 1_555 1_555
H36 C42 1_555 1_555
C43 H37 1_555 1_555
C44 C43 1_555 1_555
H38 C44 1_555 1_555
C45 C44 1_555 1_555
H39 C45 1_555 1_555
H40 C45 1_555 1_555
O4 C45 1_555 1_555
C46 C43 1_555 1_555
H41 C46 1_555 1_555
H42 C46 1_555 1_555
O5 C43 1_555 1_555
C47 O5 1_555 1_555
C48 C47 1_555 1_555
C49 C48 1_555 1_555
H43 C49 1_555 1_555
C50 C49 1_555 1_555
H44 C50 1_555 1_555
C51 C50 1_555 1_555
H45 C51 1_555 1_555
C52 C51 1_555 1_555
H46 C52 1_555 1_555
C53 C48 1_555 1_555
H47 C53 1_555 1_555
C54 C47 1_555 1_555
C55 C54 1_555 1_555
H48 C55 1_555 1_555
C56 C55 1_555 1_555
H49 C56 1_555 1_555
C57 C56 1_555 1_555
H50 C57 1_555 1_555
C58 C57 1_555 1_555
H51 C58 1_555 1_555
C59 C54 1_555 1_555
H52 C59 1_555 1_555
C60 C47 1_555 1_555
C61 C60 1_555 1_555
H53 C61 1_555 1_555
C62 C61 1_555 1_555
H54 C62 1_555 1_555
C63 C62 1_555 1_555
H55 C63 1_555 1_555
C64 C63 1_555 1_555
H56 C64 1_555 1_555
C65 C60 1_555 1_555
H57 C65 1_555 1_555
O6 C44 1_555 1_555
C66 O6 1_555 1_555
C67 C66 1_555 1_555
C68 C67 1_555 1_555
H58 C68 1_555 1_555
C69 C68 1_555 1_555
H59 C69 1_555 1_555
C70 C69 1_555 1_555
H60 C70 1_555 1_555
C71 C70 1_555 1_555
H61 C71 1_555 1_555
C72 C67 1_555 1_555
H62 C72 1_555 1_555
C73 C66 1_555 1_555
C74 C73 1_555 1_555
H63 C74 1_555 1_555
C75 C74 1_555 1_555
H64 C75 1_555 1_555
C76 C75 1_555 1_555
H65 C76 1_555 1_555
C77 C76 1_555 1_555
H66 C77 1_555 1_555
C78 C73 1_555 1_555
H67 C78 1_555 1_555
C79 C66 1_555 1_555
C80 C79 1_555 1_555
H68 C80 1_555 1_555
C81 C80 1_555 1_555
H69 C81 1_555 1_555
C82 C81 1_555 1_555
H70 C82 1_555 1_555
C83 C82 1_555 1_555
H71 C83 1_555 1_555
C84 C79 1_555 1_555
H72 C84 1_555 1_555
O1 C4 1_555 1_555
C10 C11 1_555 1_555
C16 C17 1_555 1_555
C22 C23 1_555 1_555
C29 C30 1_555 1_555
C35 C36 1_555 1_555
C41 C42 1_555 1_555
O4 C46 1_555 1_555
C52 C53 1_555 1_555
C58 C59 1_555 1_555
C64 C65 1_555 1_555
C71 C72 1_555 1_555
C77 C78 1_555 1_555
C83 C84 1_555 1_555

#END
