
#######################################################################
#
#                 Cambridge Crystallographic Data Centre
#                                CCDC 
#
#######################################################################
#
# If this CIF has been generated from an entry in the Cambridge 
# Structural Database, then it will include bibliographic, chemical, 
# crystal, experimental, refinement or atomic coordinate data resulting 
# from the CCDC's data processing and validation procedures.
#
#######################################################################

data_YIZREE
_chemical_formula_moiety         'C16 H16 N4 O5,H2 O1'
_chemical_name_systematic        
'3-Benzyl-4,5,7-tetrahydro-6-methoxy-6-methoxycarbonyl-6H-imidazo(4,5-e)(1,4)diazepine-5,8-dione monohydrate'
_symmetry_cell_setting           triclinic
_symmetry_space_group_name_H-M   'P -1'
_symmetry_Int_Tables_number      2
_space_group_name_Hall           '-P 1'
loop_
_symmetry_equiv_pos_site_id
_symmetry_equiv_pos_as_xyz
1 x,y,z
2 -x,-y,-z
_cell_length_a                   9.070
_cell_length_b                   10.019
_cell_length_c                   10.315
_cell_angle_alpha                80.54
_cell_angle_beta                 83.14
_cell_angle_gamma                67.03
_cell_volume                     849.709
_chemical_melting_point          '172-175 deg.C'
_cell_formula_units_Z            2
loop_
_atom_site_label
_atom_site_type_symbol
_atom_site_fract_x
_atom_site_fract_y
_atom_site_fract_z
N1 N 0.3211(3) 0.6943(3) 0.3871(2)
C1 C 0.2748(4) 0.5853(3) 0.4183(3)
N2 N 0.2733(3) 0.5394(3) 0.5497(2)
N3 N 0.3430(3) 0.6053(3) 0.7390(2)
C2 C 0.3437(3) 0.7068(3) 0.8091(3)
O1 O 0.3805(3) 0.6749(2) 0.9225(2)
C3 C 0.2962(3) 0.8649(3) 0.7422(3)
O2 O 0.1369(2) 0.9059(2) 0.7110(2)
N4 N 0.4022(3) 0.8809(3) 0.6307(3)
C4 C 0.4131(4) 0.8351(3) 0.5118(3)
O3 O 0.4767(3) 0.8841(3) 0.4142(2)
C5 C 0.3229(3) 0.6276(3) 0.6055(3)
C6 C 0.3512(3) 0.7235(3) 0.5055(3)
C7 C 0.2138(4) 0.4296(4) 0.6188(3)
C8 C 0.0618(4) 0.4948(4) 0.7002(3)
C9 C 0.0228(6) 0.4111(6) 0.8075(4)
C10 C -0.1158(11) 0.4668(13) 0.8812(5)
C11 C -0.2179(8) 0.6039(15) 0.8526(9)
C12 C -0.1813(6) 0.6895(8) 0.7477(7)
C13 C -0.0439(4) 0.6365(5) 0.6721(4)
C14 C 0.3138(5) 0.9507(4) 0.8456(3)
O4 O 0.4346(4) 0.9699(3) 0.8512(2)
O5 O 0.1889(3) 0.9867(3) 0.9288(3)
C15 C 0.2045(6) 1.0508(5) 1.0414(4)
C16 C 0.0639(5) 1.0517(4) 0.6489(4)
H1 H 0.2448(37) 0.5410(36) 0.3570(33)
H2 H 0.3820(39) 0.5126(41) 0.7789(33)
H3 H 0.4302(42) 0.9394(39) 0.6325(35)
H4 H 0.2990(41) 0.3627(37) 0.6693(33)
H5 H 0.1925(37) 0.3855(35) 0.5532(33)
H6 H 0.0851(47) 0.3383(41) 0.8268(41)
H7 H -0.1244(41) 0.4051(36) 0.9513(39)
H8 H -0.2943(47) 0.6579(40) 0.8760(37)
H9 H -0.2368(49) 0.7653(41) 0.7391(42)
H10 H -0.0225(41) 0.6883(37) 0.5967(37)
H11 H 0.1075 1.0738 1.0971
H12 H 0.2927 0.9823 1.0905
H13 H 0.2241 1.1384 1.0102
H14 H -0.0441 1.0707 0.6302
H15 H 0.0631 1.1193 0.7053
H16 H 0.1249 1.0634 0.5681
O6 O 0.5228(3) 0.6809(2) 1.1500(2)
H17 H 0.4454(40) 0.7031(35) 1.2147(36)
H18 H 0.4686(42) 0.6898(38) 1.0877(37)
loop_
_geom_bond_atom_site_label_1
_geom_bond_atom_site_label_2
_geom_bond_site_symmetry_1
_geom_bond_site_symmetry_2
N1 C1 1_555 1_555
C1 N2 1_555 1_555
N2 C5 1_555 1_555
N3 C2 1_555 1_555
C2 O1 1_555 1_555
C3 C2 1_555 1_555
O2 C3 1_555 1_555
N4 C3 1_555 1_555
C4 N4 1_555 1_555
O3 C4 1_555 1_555
C5 N3 1_555 1_555
C6 N1 1_555 1_555
C7 N2 1_555 1_555
C8 C7 1_555 1_555
C9 C8 1_555 1_555
C10 C9 1_555 1_555
C11 C10 1_555 1_555
C12 C11 1_555 1_555
C13 C8 1_555 1_555
C14 C3 1_555 1_555
O4 C14 1_555 1_555
O5 C14 1_555 1_555
C15 O5 1_555 1_555
C16 O2 1_555 1_555
H1 C1 1_555 1_555
H2 N3 1_555 1_555
H3 N4 1_555 1_555
H4 C7 1_555 1_555
H5 C7 1_555 1_555
H6 C9 1_555 1_555
H7 C10 1_555 1_555
H8 C11 1_555 1_555
H9 C12 1_555 1_555
H10 C13 1_555 1_555
H11 C15 1_555 1_555
H12 C15 1_555 1_555
H13 C15 1_555 1_555
H14 C16 1_555 1_555
H15 C16 1_555 1_555
H16 C16 1_555 1_555
O6 H17 1_555 1_555
H18 O6 1_555 1_555
C4 C6 1_555 1_555
C5 C6 1_555 1_555
C12 C13 1_555 1_555

#END
