
#######################################################################
#
#                 Cambridge Crystallographic Data Centre
#                                CCDC 
#
#######################################################################
#
# If this CIF has been generated from an entry in the Cambridge 
# Structural Database, then it will include bibliographic, chemical, 
# crystal, experimental, refinement or atomic coordinate data resulting 
# from the CCDC's data processing and validation procedures.
#
#######################################################################

data_YIZREG
_chemical_formula_moiety         'C43 H40 N2'
_chemical_name_systematic        N,N'-Ditritylcyclopentane-1,2-diamine
_symmetry_cell_setting           triclinic
_symmetry_space_group_name_H-M   'P 1'
_symmetry_Int_Tables_number      1
_space_group_name_Hall           'P 1'
loop_
_symmetry_equiv_pos_site_id
_symmetry_equiv_pos_as_xyz
1 x,y,z
_cell_length_a                   9.5553(5)
_cell_length_b                   13.4727(9)
_cell_length_c                   14.3753(9)
_cell_angle_alpha                111.869(6)
_cell_angle_beta                 91.461(5)
_cell_angle_gamma                108.180(6)
_cell_volume                     1610.49
_exptl_crystal_colour            colorless
_exptl_crystal_description       plate
_cell_formula_units_Z            2
loop_
_atom_site_label
_atom_site_type_symbol
_atom_site_fract_x
_atom_site_fract_y
_atom_site_fract_z
C1 C 1.1199(2) 0.42597(15) 0.84779(14)
H1 H 1.1960 0.4119 0.8831
C2 C 0.9820(2) 0.31553(15) 0.80450(14)
H2 H 0.8969 0.3332 0.7844
C3 C 1.0289(4) 0.2419(2) 0.7077(2)
H3 H 1.0854 0.2004 0.7242
H4 H 0.9416 0.1875 0.6581
C4 C 1.1195(5) 0.3197(2) 0.6683(2)
H5 H 1.0610 0.3185 0.6115
H6 H 1.2033 0.2969 0.6445
C5 C 1.1753(3) 0.4378(2) 0.75101(17)
H7 H 1.1360 0.4878 0.7333
H8 H 1.2835 0.4691 0.7616
N1 N 1.08743(17) 0.52303(13) 0.92081(11)
C6 C 1.2122(2) 0.61998(14) 0.99489(13)
C7 C 1.2553(2) 0.59055(15) 1.08332(14)
C8 C 1.1635(3) 0.49731(18) 1.09819(16)
H9 H 1.0784 0.4474 1.0510
C9 C 1.1974(3) 0.4775(2) 1.18302(19)
H10 H 1.1344 0.4145 1.1919
C10 C 1.3219(4) 0.5494(2) 1.25325(18)
H11 H 1.3441 0.5354 1.3096
C11 C 1.4141(3) 0.6426(2) 1.23976(18)
H12 H 1.4989 0.6922 1.2874
C12 C 1.3814(3) 0.66317(18) 1.15570(16)
H13 H 1.4448 0.7265 1.1475
C13 C 1.1544(2) 0.71919(16) 1.04552(14)
C14 C 1.0050(3) 0.6987(2) 1.05454(19)
H14 H 0.9374 0.6243 1.0265
C15 C 0.9552(3) 0.7882(3) 1.1050(2)
H15 H 0.8544 0.7735 1.1093
C16 C 1.0544(3) 0.8985(2) 1.14874(19)
H16 H 1.0208 0.9582 1.1830
C17 C 1.2027(3) 0.92001(19) 1.14142(17)
H17 H 1.2701 0.9943 1.1711
C18 C 1.2525(3) 0.83117(17) 1.08983(15)
H18 H 1.3533 0.8468 1.0848
C19 C 1.3443(2) 0.65628(14) 0.94129(14)
C20 C 1.3299(2) 0.70887(17) 0.87629(15)
H19 H 1.2475 0.7312 0.8739
C21 C 1.4353(3) 0.7285(2) 0.81545(18)
H20 H 1.4227 0.7628 0.7720
C22 C 1.5595(3) 0.6974(2) 0.81855(19)
H21 H 1.6301 0.7100 0.7770
C23 C 1.5777(3) 0.6475(2) 0.88384(19)
H22 H 1.6620 0.6278 0.8875
C24 C 1.4704(2) 0.62648(16) 0.94425(16)
H23 H 1.4834 0.5919 0.9874
N2 N 0.94408(18) 0.26592(13) 0.87937(12)
C25 C 0.7914(2) 0.18458(15) 0.86597(14)
C26 C 0.7928(2) 0.13225(16) 0.94518(14)
C27 C 0.9017(3) 0.1848(2) 1.02994(19)
H24 H 0.9763 0.2533 1.0401
C28 C 0.9015(3) 0.1368(3) 1.1004(2)
H25 H 0.9762 0.1733 1.1569
C29 C 0.7928(3) 0.0363(2) 1.0875(2)
H26 H 0.7946 0.0036 1.1340
C30 C 0.6806(3) -0.0157(2) 1.00495(19)
H27 H 0.6047 -0.0829 0.9965
C31 C 0.6806(3) 0.03191(18) 0.93422(17)
H28 H 0.6043 -0.0039 0.8787
C32 C 0.6805(2) 0.24935(16) 0.89410(14)
C33 C 0.7291(3) 0.36474(18) 0.95590(16)
H29 H 0.8307 0.4060 0.9759
C34 C 0.6264(3) 0.4187(2) 0.98788(19)
H30 H 0.6605 0.4963 1.0287
C35 C 0.4761(3) 0.3603(2) 0.9608(2)
H31 H 0.4087 0.3973 0.9846
C36 C 0.4256(3) 0.2456(2) 0.8975(2)
H32 H 0.3238 0.2052 0.8772
C37 C 0.5273(2) 0.19116(18) 0.86464(19)
H33 H 0.4927 0.1141 0.8220
C38 C 0.7457(2) 0.09111(16) 0.75739(15)
C39 C 0.7992(2) 0.00073(17) 0.73166(17)
H34 H 0.8517 -0.0080 0.7818
C40 C 0.7743(3) -0.07613(19) 0.6316(2)
H35 H 0.8099 -0.1364 0.6153
C41 C 0.6978(3) -0.0652(2) 0.55557(19)
H36 H 0.6829 -0.1168 0.4885
C42 C 0.6439(3) 0.0233(2) 0.58027(19)
H37 H 0.5901 0.0309 0.5300
C43 C 0.6698(3) 0.10118(19) 0.68025(16)
H38 H 0.6351 0.1618 0.6958
H39 H 1.016(3) 0.224(2) 0.8776(19)
H40 H 1.041(3) 0.550(2) 0.885(2)
C44 C 0.9160(2) 0.59769(15) 0.40067(14)
H41 H 1.0001 0.5787 0.3708
C45 C 0.7765(2) 0.48801(15) 0.36556(14)
H42 H 0.7022 0.5039 0.4091
C46 C 0.7179(3) 0.4722(2) 0.25762(19)
H43 H 0.7482 0.4151 0.2067
H44 H 0.6097 0.4475 0.2466
C47 C 0.7845(4) 0.5869(3) 0.2507(3)
H45 H 0.8509 0.5824 0.2006
H46 H 0.7061 0.6104 0.2312
C48 C 0.8666(3) 0.6679(2) 0.3512(2)
H47 H 0.8034 0.7050 0.3914
H48 H 0.9528 0.7258 0.3457
N3 N 0.95614(17) 0.65172(12) 0.51143(11)
C49 C 1.11017(19) 0.73065(14) 0.55887(12)
C50 C 1.1070(2) 0.78681(15) 0.67413(13)
C51 C 0.9890(2) 0.7448(2) 0.71871(16)
H49 H 0.9101 0.6790 0.6789
C52 C 0.9854(3) 0.7980(3) 0.82092(18)
H50 H 0.9040 0.7681 0.8486
C53 C 1.1005(3) 0.8945(2) 0.88208(16)
H51 H 1.0968 0.9314 0.9505
C54 C 1.2210(3) 0.93532(19) 0.84033(16)
H52 H 1.3014 0.9990 0.8815
C55 C 1.2249(2) 0.88321(18) 0.73778(15)
H53 H 1.3074 0.9130 0.7109
C56 C 1.2174(2) 0.66367(15) 0.54677(13)
C57 C 1.1645(2) 0.54800(17) 0.52657(16)
H54 H 1.0622 0.5092 0.5155
C58 C 1.2624(3) 0.48970(19) 0.52273(19)
H55 H 1.2250 0.4124 0.5093
C59 C 1.4147(3) 0.54518(19) 0.53864(17)
H56 H 1.4801 0.5061 0.5372
C60 C 1.4682(2) 0.6592(2) 0.55665(18)
H57 H 1.5705 0.6971 0.5659
C61 C 1.3709(2) 0.71782(17) 0.56116(16)
H58 H 1.4090 0.7950 0.5741
C62 C 1.1607(2) 0.82161(14) 0.51394(13)
C63 C 1.1245(2) 0.92037(17) 0.55175(16)
H59 H 1.0821 0.9370 0.6107
C64 C 1.1510(3) 0.99434(18) 0.50263(18)
H60 H 1.1255 1.0596 0.5287
C65 C 1.2142(3) 0.9718(2) 0.41617(19)
H61 H 1.2308 1.0212 0.3832
C66 C 1.2529(3) 0.8758(2) 0.37819(17)
H62 H 1.2966 0.8605 0.3198
C67 C 1.2267(2) 0.80149(17) 0.42724(15)
H63 H 1.2539 0.7371 0.4012
N4 N 0.80977(17) 0.39151(12) 0.37351(12)
C68 C 0.6858(2) 0.29675(14) 0.38037(13)
C69 C 0.6498(2) 0.32972(15) 0.48983(14)
C70 C 0.7427(2) 0.42653(17) 0.56965(14)
H64 H 0.8241 0.4768 0.5572
C71 C 0.7142(3) 0.4488(2) 0.66907(16)
H65 H 0.7774 0.5140 0.7222
C72 C 0.5945(3) 0.3762(2) 0.68965(18)
H66 H 0.5760 0.3919 0.7559
C73 C 0.5026(3) 0.2796(2) 0.61026(19)
H67 H 0.4215 0.2294 0.6230
C74 C 0.5296(3) 0.25666(19) 0.51193(17)
H68 H 0.4662 0.1910 0.4594
C75 C 0.7433(2) 0.19729(15) 0.36356(13)
C76 C 0.8934(2) 0.21764(18) 0.39100(16)
H69 H 0.9612 0.2918 0.4150
C77 C 0.9439(3) 0.1291(2) 0.3832(2)
H70 H 1.0450 0.1444 0.4011
C78 C 0.8453(3) 0.0188(2) 0.34912(18)
H71 H 0.8788 -0.0404 0.3446
C79 C 0.6963(3) -0.00259(18) 0.32191(17)
H72 H 0.6290 -0.0769 0.2987
C80 C 0.6451(3) 0.08524(17) 0.32862(16)
H73 H 0.5441 0.0691 0.3096
C81 C 0.5493(2) 0.25927(14) 0.30043(14)
C82 C 0.5563(2) 0.20405(17) 0.19865(15)
H74 H 0.6382 0.1818 0.1813
C83 C 0.4452(3) 0.18106(19) 0.12222(17)
H75 H 0.4539 0.1453 0.0546
C84 C 0.3216(3) 0.2113(2) 0.1467(2)
H76 H 0.2464 0.1961 0.0958
C85 C 0.3104(3) 0.2642(2) 0.2471(2)
H77 H 0.2266 0.2838 0.2639
C86 C 0.4235(2) 0.28855(18) 0.32367(17)
H78 H 0.4148 0.3249 0.3912
H79 H 0.854(3) 0.365(2) 0.3211(19)
H80 H 0.892(3) 0.686(2) 0.5359(19)
loop_
_geom_bond_atom_site_label_1
_geom_bond_atom_site_label_2
_geom_bond_site_symmetry_1
_geom_bond_site_symmetry_2
C1 H1 1_555 1_555
C2 C1 1_555 1_555
H2 C2 1_555 1_555
C3 C2 1_555 1_555
H3 C3 1_555 1_555
H4 C3 1_555 1_555
C4 C3 1_555 1_555
H5 C4 1_555 1_555
H6 C4 1_555 1_555
C5 C1 1_555 1_555
H7 C5 1_555 1_555
H8 C5 1_555 1_555
N1 C1 1_555 1_555
C6 N1 1_555 1_555
C7 C6 1_555 1_555
C8 C7 1_555 1_555
H9 C8 1_555 1_555
C9 C8 1_555 1_555
H10 C9 1_555 1_555
C10 C9 1_555 1_555
H11 C10 1_555 1_555
C11 C10 1_555 1_555
H12 C11 1_555 1_555
C12 C7 1_555 1_555
H13 C12 1_555 1_555
C13 C6 1_555 1_555
C14 C13 1_555 1_555
H14 C14 1_555 1_555
C15 C14 1_555 1_555
H15 C15 1_555 1_555
C16 C15 1_555 1_555
H16 C16 1_555 1_555
C17 C16 1_555 1_555
H17 C17 1_555 1_555
C18 C13 1_555 1_555
H18 C18 1_555 1_555
C19 C6 1_555 1_555
C20 C19 1_555 1_555
H19 C20 1_555 1_555
C21 C20 1_555 1_555
H20 C21 1_555 1_555
C22 C21 1_555 1_555
H21 C22 1_555 1_555
C23 C22 1_555 1_555
H22 C23 1_555 1_555
C24 C19 1_555 1_555
H23 C24 1_555 1_555
N2 C2 1_555 1_555
C25 N2 1_555 1_555
C26 C25 1_555 1_555
C27 C26 1_555 1_555
H24 C27 1_555 1_555
C28 C27 1_555 1_555
H25 C28 1_555 1_555
C29 C28 1_555 1_555
H26 C29 1_555 1_555
C30 C29 1_555 1_555
H27 C30 1_555 1_555
C31 C26 1_555 1_555
H28 C31 1_555 1_555
C32 C25 1_555 1_555
C33 C32 1_555 1_555
H29 C33 1_555 1_555
C34 C33 1_555 1_555
H30 C34 1_555 1_555
C35 C34 1_555 1_555
H31 C35 1_555 1_555
C36 C35 1_555 1_555
H32 C36 1_555 1_555
C37 C32 1_555 1_555
H33 C37 1_555 1_555
C38 C25 1_555 1_555
C39 C38 1_555 1_555
H34 C39 1_555 1_555
C40 C39 1_555 1_555
H35 C40 1_555 1_555
C41 C40 1_555 1_555
H36 C41 1_555 1_555
C42 C41 1_555 1_555
H37 C42 1_555 1_555
C43 C38 1_555 1_555
H38 C43 1_555 1_555
H39 N2 1_555 1_555
H40 N1 1_555 1_555
C44 H41 1_555 1_555
C45 C44 1_555 1_555
H42 C45 1_555 1_555
C46 C45 1_555 1_555
H43 C46 1_555 1_555
H44 C46 1_555 1_555
C47 C46 1_555 1_555
H45 C47 1_555 1_555
H46 C47 1_555 1_555
C48 C44 1_555 1_555
H47 C48 1_555 1_555
H48 C48 1_555 1_555
N3 C44 1_555 1_555
C49 N3 1_555 1_555
C50 C49 1_555 1_555
C51 C50 1_555 1_555
H49 C51 1_555 1_555
C52 C51 1_555 1_555
H50 C52 1_555 1_555
C53 C52 1_555 1_555
H51 C53 1_555 1_555
C54 C53 1_555 1_555
H52 C54 1_555 1_555
C55 C50 1_555 1_555
H53 C55 1_555 1_555
C56 C49 1_555 1_555
C57 C56 1_555 1_555
H54 C57 1_555 1_555
C58 C57 1_555 1_555
H55 C58 1_555 1_555
C59 C58 1_555 1_555
H56 C59 1_555 1_555
C60 C59 1_555 1_555
H57 C60 1_555 1_555
C61 C56 1_555 1_555
H58 C61 1_555 1_555
C62 C49 1_555 1_555
C63 C62 1_555 1_555
H59 C63 1_555 1_555
C64 C63 1_555 1_555
H60 C64 1_555 1_555
C65 C64 1_555 1_555
H61 C65 1_555 1_555
C66 C65 1_555 1_555
H62 C66 1_555 1_555
C67 C62 1_555 1_555
H63 C67 1_555 1_555
N4 C45 1_555 1_555
C68 N4 1_555 1_555
C69 C68 1_555 1_555
C70 C69 1_555 1_555
H64 C70 1_555 1_555
C71 C70 1_555 1_555
H65 C71 1_555 1_555
C72 C71 1_555 1_555
H66 C72 1_555 1_555
C73 C72 1_555 1_555
H67 C73 1_555 1_555
C74 C69 1_555 1_555
H68 C74 1_555 1_555
C75 C68 1_555 1_555
C76 C75 1_555 1_555
H69 C76 1_555 1_555
C77 C76 1_555 1_555
H70 C77 1_555 1_555
C78 C77 1_555 1_555
H71 C78 1_555 1_555
C79 C78 1_555 1_555
H72 C79 1_555 1_555
C80 C75 1_555 1_555
H73 C80 1_555 1_555
C81 C68 1_555 1_555
C82 C81 1_555 1_555
H74 C82 1_555 1_555
C83 C82 1_555 1_555
H75 C83 1_555 1_555
C84 C83 1_555 1_555
H76 C84 1_555 1_555
C85 C84 1_555 1_555
H77 C85 1_555 1_555
C86 C81 1_555 1_555
H78 C86 1_555 1_555
H79 N4 1_555 1_555
H80 N3 1_555 1_555
C4 C5 1_555 1_555
C11 C12 1_555 1_555
C17 C18 1_555 1_555
C23 C24 1_555 1_555
C30 C31 1_555 1_555
C36 C37 1_555 1_555
C42 C43 1_555 1_555
C47 C48 1_555 1_555
C54 C55 1_555 1_555
C60 C61 1_555 1_555
C66 C67 1_555 1_555
C73 C74 1_555 1_555
C79 C80 1_555 1_555
C85 C86 1_555 1_555

#END
