
#######################################################################
#
#                 Cambridge Crystallographic Data Centre
#                                CCDC 
#
#######################################################################
#
# If this CIF has been generated from an entry in the Cambridge 
# Structural Database, then it will include bibliographic, chemical, 
# crystal, experimental, refinement or atomic coordinate data resulting 
# from the CCDC's data processing and validation procedures.
#
#######################################################################

data_YIZWIO
_chemical_formula_moiety         'C32 H60 N6 O18 P6,12.75(H2 O1)'
_chemical_name_systematic        
'3,6,10,17,20,24-Hexaazoniatricyclo(24.2.2.2^12,15^)dotriaconta-1(28),12,14,26,29,31-hexaene-3,6,10,17,20,24-hexakis(methylenephosphonate) hydrate'
_symmetry_cell_setting           monoclinic
_symmetry_space_group_name_H-M   'P 21/c'
_symmetry_Int_Tables_number      14
_space_group_name_Hall           '-P 2ybc'
loop_
_symmetry_equiv_pos_site_id
_symmetry_equiv_pos_as_xyz
1 x,y,z
2 -x,1/2+y,1/2-z
3 -x,-y,-z
4 x,1/2-y,1/2+z
_cell_length_a                   11.680(4)
_cell_length_b                   16.698(6)
_cell_length_c                   14.403(5)
_cell_angle_alpha                90.00
_cell_angle_beta                 104.464(7)
_cell_angle_gamma                90.00
_cell_volume                     2720.02
_cell_formula_units_Z            2
loop_
_atom_site_label
_atom_site_type_symbol
_atom_site_fract_x
_atom_site_fract_y
_atom_site_fract_z
P1 P 0.72600(9) 1.10269(6) 0.50264(7)
P2 P 1.01666(8) 1.12082(5) -0.06393(6)
P3 P 0.90113(8) 0.71122(5) -0.17737(6)
O1 O 0.8557(2) 1.08138(16) 0.56308(18)
H1 H 0.8882 1.1227 0.5910
O3 O 0.6657(3) 1.15833(18) 0.5567(2)
O5 O 0.6672(2) 1.02552(17) 0.46744(19)
O9 O 1.0626(2) 1.08339(14) -0.14166(16)
O11 O 1.0660(2) 1.08847(13) 0.03563(16)
O13 O 1.0298(2) 1.21423(14) -0.06435(16)
H5 H 1.0702 1.2296 -0.0106
O15 O 1.0331(2) 0.70596(15) -0.15359(19)
O16 O 0.8392(2) 0.63720(15) -0.23392(18)
H6 H 0.8766 0.6227 -0.2738
O17 O 0.8502(2) 0.72505(14) -0.09255(17)
N1 N 0.7547(3) 1.11842(18) 0.3117(2)
N2 N 0.8030(3) 1.03291(17) -0.1292(2)
N3 N 0.8886(3) 0.87430(17) -0.2227(2)
C1 C 0.7477(4) 1.1624(2) 0.4016(2)
C2 C 0.6362(3) 1.0821(2) 0.2603(3)
C3 C 0.6342(3) 1.0658(2) 0.1569(3)
C4 C 0.6566(3) 0.9899(2) 0.1269(3)
C5 C 0.6668(3) 0.9772(2) 0.0344(3)
C6 C 0.6550(3) 1.0406(2) -0.0289(2)
C7 C 0.6246(3) 1.1158(2) -0.0010(3)
C8 C 0.6148(3) 1.1285(2) 0.0913(3)
C9 C 0.6736(3) 1.0284(2) -0.1274(3)
C10 C 0.8555(3) 1.1131(2) -0.0941(3)
C11 C 0.8150(3) 1.0189(2) -0.2301(2)
C12 C 0.7933(3) 0.9343(2) -0.2664(3)
C13 C 0.8513(3) 0.7923(2) -0.2621(3)
C14 C 1.0118(3) 0.8959(2) -0.2283(2)
C15 C 1.0256(3) 0.9077(2) -0.3298(3)
C16 C 0.8534(3) 1.0577(2) 0.3282(3)
H9 H 0.590(3) 1.177(2) 0.109(3)
H10 H 0.626(3) 1.039(2) 0.293(3)
H11 H 0.664(3) 0.950(2) 0.168(2)
H12 H 0.633(3) 1.067(2) -0.172(3)
H13 H 0.612(3) 1.158(2) -0.044(3)
H14 H 0.759(3) 1.051(2) -0.271(2)
H15 H 0.646(3) 0.978(2) -0.148(3)
H16 H 0.722(4) 0.913(2) -0.255(3)
H17 H 0.766(3) 1.155(2) 0.272(3)
H18 H 0.886(3) 1.038(2) -0.235(2)
H19 H 0.784(3) 0.932(2) -0.330(3)
H20 H 0.895(3) 0.874(2) -0.162(3)
H21 H 0.830(3) 1.020(2) 0.278(2)
H22 H 0.771(3) 0.791(2) -0.279(2)
H23 H 0.685(3) 1.197(2) 0.382(2)
H24 H 0.681(3) 0.925(2) 0.018(2)
H26 H 0.831(3) 1.127(2) -0.039(3)
H27 H 1.030(3) 0.939(2) -0.196(2)
H28 H 0.822(3) 1.193(2) 0.423(3)
H29 H 0.880(3) 0.784(2) -0.313(3)
H30 H 0.856(3) 1.029(2) 0.391(3)
H31 H 0.574(4) 1.121(2) 0.262(3)
H32 H 0.823(4) 1.151(2) -0.146(3)
H33 H 0.967(4) 0.944(3) -0.363(3)
H34 H 1.013(3) 0.855(2) -0.364(3)
H35 H 1.061(3) 0.855(2) -0.199(3)
H36 H 0.848(3) 0.997(2) -0.091(2)
P1B P 1.27400(9) 0.89731(6) -0.50264(7)
P2B P 0.98334(8) 0.87918(5) 0.06393(6)
P3B P 1.09887(8) 1.28878(5) 0.17737(6)
O1B O 1.1443(2) 0.91862(16) -0.56308(18)
H1B H 1.1118 0.8773 -0.5910
O3B O 1.3343(3) 0.84167(18) -0.5567(2)
O5B O 1.3328(2) 0.97448(17) -0.46744(19)
O9B O 0.9374(2) 0.91661(14) 0.14166(16)
O11B O 0.9340(2) 0.91153(13) -0.03563(16)
O13B O 0.9702(2) 0.78577(14) 0.06435(16)
H5B H 0.9298 0.7704 0.0106
O15B O 0.9669(2) 1.29404(15) 0.15359(19)
O16B O 1.1608(2) 1.36280(15) 0.23392(18)
H6B H 1.1234 1.3773 0.2738
O17B O 1.1498(2) 1.27495(14) 0.09255(17)
N1B N 1.2453(3) 0.88158(18) -0.3117(2)
N2B N 1.1970(3) 0.96709(17) 0.1292(2)
N3B N 1.1114(3) 1.12570(17) 0.2227(2)
C1B C 1.2523(4) 0.8376(2) -0.4016(2)
C2B C 1.3638(3) 0.9179(2) -0.2603(3)
C3B C 1.3658(3) 0.9342(2) -0.1569(3)
C4B C 1.3434(3) 1.0101(2) -0.1269(3)
C5B C 1.3332(3) 1.0228(2) -0.0344(3)
C6B C 1.3450(3) 0.9594(2) 0.0289(2)
C7B C 1.3754(3) 0.8842(2) 0.0010(3)
C8B C 1.3852(3) 0.8715(2) -0.0913(3)
C9B C 1.3264(3) 0.9716(2) 0.1274(3)
C10B C 1.1445(3) 0.8869(2) 0.0941(3)
C11B C 1.1850(3) 0.9811(2) 0.2301(2)
C12B C 1.2067(3) 1.0657(2) 0.2664(3)
C13B C 1.1487(3) 1.2077(2) 0.2621(3)
C14B C 0.9882(3) 1.1041(2) 0.2283(2)
C15B C 0.9744(3) 1.0923(2) 0.3298(3)
C16B C 1.1466(3) 0.9423(2) -0.3282(3)
H9B H 1.410(3) 0.823(2) -0.109(3)
H10B H 1.374(3) 0.961(2) -0.293(3)
H11B H 1.336(3) 1.050(2) -0.168(2)
H12B H 1.367(3) 0.933(2) 0.172(3)
H13B H 1.388(3) 0.842(2) 0.044(3)
H14B H 1.241(3) 0.949(2) 0.271(2)
H15B H 1.354(3) 1.022(2) 0.148(3)
H16B H 1.278(4) 1.087(2) 0.255(3)
H17B H 1.234(3) 0.845(2) -0.272(3)
H18B H 1.114(3) 0.962(2) 0.235(2)
H19B H 1.216(3) 1.068(2) 0.330(3)
H20B H 1.105(3) 1.126(2) 0.162(3)
H21B H 1.170(3) 0.980(2) -0.278(2)
H22B H 1.229(3) 1.209(2) 0.279(2)
H23B H 1.315(3) 0.803(2) -0.382(2)
H24B H 1.319(3) 1.075(2) -0.018(2)
H26B H 1.169(3) 0.873(2) 0.039(3)
H27B H 0.970(3) 1.061(2) 0.196(2)
H28B H 1.178(3) 0.807(2) -0.423(3)
H29B H 1.120(3) 1.216(2) 0.313(3)
H30B H 1.144(3) 0.971(2) -0.391(3)
H31B H 1.426(4) 0.879(2) -0.262(3)
H32B H 1.177(4) 0.849(2) 0.146(3)
H33B H 1.033(4) 1.056(3) 0.363(3)
H34B H 0.987(3) 1.145(2) 0.364(3)
H35B H 0.939(3) 1.145(2) 0.199(3)
H36B H 1.152(3) 1.003(2) 0.091(2)
O2 O 0.3484(3) 0.1687(2) 0.1366(3)
H37 H 0.302(5) 0.202(4) 0.104(4)
H40 H 0.405(5) 0.204(4) 0.171(4)
O4 O 0.2633(3) 0.1305(2) 0.4868(2)
H2 H 0.2487 0.0948 0.4433
H25 H 0.305(6) 0.098(4) 0.539(5)
O6 O 0.5134(4) 0.0782(4) 0.6549(3)
O10 O 0.4426(4) 0.2152(3) 0.4293(4)
H3 H 0.4759 0.2507 0.4029
H8 H 0.447(3) 0.2202(19) 0.495(3)
O12 O 0.5035(4) 0.2715(3) 0.2649(4)
H4 H 0.4545 0.2998 0.2246
H7 H 0.479(3) 0.240(2) 0.307(2)
O14 O 0.2161(3) 0.73947(16) 0.77467(19)
H38 H 0.266(4) 0.719(3) 0.827(4)
H39 H 0.154(6) 0.728(4) 0.789(4)
O7? O 0.5574(10) -0.0084(11) 0.6190(9)
O8? O 0.477(2) 0.1217(9) 0.6853(13)
loop_
_geom_bond_atom_site_label_1
_geom_bond_atom_site_label_2
_geom_bond_site_symmetry_1
_geom_bond_site_symmetry_2
P1 O1 1_555 1_555
P2 O9 1_555 1_555
P3 O15 1_555 1_555
O1 H1 1_555 1_555
O2 H37 1_555 1_555
O3 P1 1_555 1_555
O4 H2 1_555 1_555
O5 P1 1_555 1_555
O10 H3 1_555 1_555
O11 P2 1_555 1_555
O12 H4 1_555 1_555
O13 P2 1_555 1_555
H5 O13 1_555 1_555
O14 H38 1_555 1_555
O16 P3 1_555 1_555
H6 O16 1_555 1_555
O17 P3 1_555 1_555
N1 C1 1_555 1_555
N2 C9 1_555 1_555
N3 C12 1_555 1_555
C1 P1 1_555 1_555
C2 N1 1_555 1_555
C3 C2 1_555 1_555
C4 C3 1_555 1_555
C5 C4 1_555 1_555
C6 C5 1_555 1_555
C7 C6 1_555 1_555
C8 C3 1_555 1_555
C9 C6 1_555 1_555
C10 P2 1_555 1_555
C11 N2 1_555 1_555
C12 C11 1_555 1_555
C13 P3 1_555 1_555
C14 N3 1_555 1_555
C15 C14 1_555 1_555
C16 N1 1_555 1_555
H7 O12 1_555 1_555
H8 O10 1_555 1_555
H9 C8 1_555 1_555
H10 C2 1_555 1_555
H11 C4 1_555 1_555
H12 C9 1_555 1_555
H13 C7 1_555 1_555
H14 C11 1_555 1_555
H15 C9 1_555 1_555
H16 C12 1_555 1_555
H17 N1 1_555 1_555
H18 C11 1_555 1_555
H19 C12 1_555 1_555
H20 N3 1_555 1_555
H21 C16 1_555 1_555
H22 C13 1_555 1_555
H23 C1 1_555 1_555
H24 C5 1_555 1_555
H25 O4 1_555 1_555
H26 C10 1_555 1_555
H27 C14 1_555 1_555
H28 C1 1_555 1_555
H29 C13 1_555 1_555
H30 C16 1_555 1_555
H31 C2 1_555 1_555
H32 C10 1_555 1_555
H33 C15 1_555 1_555
H34 C15 1_555 1_555
H35 C14 1_555 1_555
H36 N2 1_555 1_555
H39 O14 1_555 1_555
H40 O2 1_555 1_555
P1B O1B 1_555 1_555
P2B O9B 1_555 1_555
P3B O15B 1_555 1_555
O1B H1B 1_555 1_555
O3B P1B 1_555 1_555
O5B P1B 1_555 1_555
O11B P2B 1_555 1_555
O13B P2B 1_555 1_555
H5B O13B 1_555 1_555
O16B P3B 1_555 1_555
H6B O16B 1_555 1_555
O17B P3B 1_555 1_555
N1B C1B 1_555 1_555
N2B C9B 1_555 1_555
N3B C12B 1_555 1_555
C1B P1B 1_555 1_555
C2B N1B 1_555 1_555
C3B C2B 1_555 1_555
C4B C3B 1_555 1_555
C5B C4B 1_555 1_555
C6B C5B 1_555 1_555
C7B C6B 1_555 1_555
C8B C3B 1_555 1_555
C9B C6B 1_555 1_555
C10B P2B 1_555 1_555
C11B N2B 1_555 1_555
C12B C11B 1_555 1_555
C13B P3B 1_555 1_555
C14B N3B 1_555 1_555
C15B C16 1_555 1_555
C16B C15 1_555 1_555
H9B C8B 1_555 1_555
H10B C2B 1_555 1_555
H11B C4B 1_555 1_555
H12B C9B 1_555 1_555
H13B C7B 1_555 1_555
H14B C11B 1_555 1_555
H15B C9B 1_555 1_555
H16B C12B 1_555 1_555
H17B N1B 1_555 1_555
H18B C11B 1_555 1_555
H19B C12B 1_555 1_555
H20B N3B 1_555 1_555
H21B C16B 1_555 1_555
H22B C13B 1_555 1_555
H23B C1B 1_555 1_555
H24B C5B 1_555 1_555
H26B C10B 1_555 1_555
H27B C14B 1_555 1_555
H28B C1B 1_555 1_555
H29B C13B 1_555 1_555
H30B C16B 1_555 1_555
H31B C2B 1_555 1_555
H32B C10B 1_555 1_555
H33B C15B 1_555 1_555
H34B C15B 1_555 1_555
H35B C14B 1_555 1_555
H36B N2B 1_555 1_555
N2 C10 1_555 1_555
N3 C13 1_555 1_555
C7 C8 1_555 1_555
N1B C16B 1_555 1_555
N2B C10B 1_555 1_555
N3B C13B 1_555 1_555
C7B C8B 1_555 1_555
C14B C15B 1_555 1_555

#END
