
#######################################################################
#
#                 Cambridge Crystallographic Data Centre
#                                CCDC 
#
#######################################################################
#
# If this CIF has been generated from an entry in the Cambridge 
# Structural Database, then it will include bibliographic, chemical, 
# crystal, experimental, refinement or atomic coordinate data resulting 
# from the CCDC's data processing and validation procedures.
#
#######################################################################

data_YIZWEK
_chemical_formula_moiety         'C30 H58 N6 O18 P6 2+,2(Cl1 1-),5(H2 O1)'
_chemical_name_systematic        
'3,6,9,16,19,22-Hexaazonia-tricyclo(22.2.2.2^11,14^)triaconta-1(26),11,13,24,27,29-hexaene-6,9,19,22-tetrakis(methylenephosphonate)-3,16-bis(methylenephosphonic acid) dichloride pentahydrate'
_symmetry_cell_setting           triclinic
_symmetry_space_group_name_H-M   'P -1'
_symmetry_Int_Tables_number      2
_space_group_name_Hall           '-P 1'
loop_
_symmetry_equiv_pos_site_id
_symmetry_equiv_pos_as_xyz
1 x,y,z
2 -x,-y,-z
_cell_length_a                   8.855(5)
_cell_length_b                   13.219(7)
_cell_length_c                   20.228(11)
_cell_angle_alpha                95.850(9)
_cell_angle_beta                 92.366(9)
_cell_angle_gamma                96.160(9)
_cell_volume                     2338.58
_exptl_crystal_colour            colorless
_exptl_crystal_description       thin
_cell_formula_units_Z            2
loop_
_atom_site_label
_atom_site_type_symbol
_atom_site_fract_x
_atom_site_fract_y
_atom_site_fract_z
P1 P 0.46569(17) 0.20590(10) -0.25072(6)
P2 P 0.50995(13) 0.81009(8) -0.26562(6)
P3 P 0.11824(13) 0.51231(9) -0.59142(6)
P4 P 0.34569(14) 0.99975(9) 0.09502(6)
P5 P 0.02090(13) 1.31973(9) -0.23912(6)
P6 P 0.03708(13) 0.65738(8) -0.23511(6)
N1 N 0.4548(4) 0.4201(3) -0.21806(18)
N2 N 0.3904(4) 0.6224(3) -0.33514(18)
N3 N 0.1724(4) 0.6767(3) -0.48919(17)
N4 N 0.3104(4) 0.8533(3) -0.01364(19)
N5 N 0.1470(4) 0.8587(3) -0.18721(18)
N6 N 0.0274(4) 1.1033(3) -0.25250(19)
C1 C 0.5348(5) 0.4274(4) -0.1489(2)
H1 H 0.5076 0.3628 -0.1292
H2 H 0.6462 0.4352 -0.1536
C2 C 0.4736(5) 0.5230(3) -0.2435(2)
H3 H 0.5829 0.5492 -0.2410
H4 H 0.4202 0.5714 -0.2148
C3 C 0.4107(5) 0.5184(3) -0.3149(2)
H5 H 0.4810 0.4856 -0.3450
H6 H 0.3114 0.4754 -0.3200
C4 C 0.3331(5) 0.6068(3) -0.4067(2)
H7 H 0.2455 0.5528 -0.4122
H8 H 0.4143 0.5828 -0.4346
C5 C 0.2842(5) 0.7041(3) -0.4310(2)
H9 H 0.2371 0.7437 -0.3947
H10 H 0.3741 0.7472 -0.4442
C6 C 0.1131(5) 0.7710(3) -0.5139(2)
H11 H 0.1931 0.8060 -0.5390
C7 C 0.0669(5) 0.8472(3) -0.4596(2)
C8 C -0.0546(5) 0.8239(4) -0.4209(2)
H12 H -0.1084 0.7572 -0.4264
C9 C -0.0979(5) 0.8973(4) -0.3741(3)
H13 H -0.1826 0.8809 -0.3483
C10 C -0.0194(5) 0.9950(3) -0.3643(2)
C11 C 0.1040(5) 1.0180(4) -0.4027(2)
H14 H 0.1583 1.0845 -0.3969
C12 C 0.1479(5) 0.9440(3) -0.4492(2)
H15 H 0.2341 0.9596 -0.4743
C13 C -0.0734(5) 1.0765(4) -0.3152(3)
H16 H -0.0800 1.1392 -0.3375
H17 H -0.1771 1.0523 -0.3028
C14 C 0.0283(6) 1.0162(3) -0.2111(3)
H18 H -0.0733 0.9761 -0.2156
H19 H 0.0477 1.0437 -0.1637
C15 C 0.1492(5) 0.9448(3) -0.2306(2)
H20 H 0.1295 0.9162 -0.2777
H21 H 0.2511 0.9846 -0.2263
C16 C 0.1756(5) 0.8978(4) -0.1147(2)
H22 H 0.0831 0.9245 -0.0972
H23 H 0.2594 0.9544 -0.1095
C17 C 0.2177(5) 0.8109(3) -0.0757(2)
H24 H 0.1239 0.7703 -0.0639
H25 H 0.2765 0.7650 -0.1036
C18 C 0.3628(6) 0.7694(4) 0.0241(2)
H26 H 0.4484 0.7991 0.0556
H27 H 0.2786 0.7431 0.0506
C19 C 0.4131(5) 0.6812(4) -0.0190(2)
C20 C 0.3213(5) 0.5880(4) -0.0265(2)
H28 H 0.2306 0.5808 -0.0031
C21 C 0.3610(5) 0.5048(4) -0.0681(2)
H29 H 0.2976 0.4415 -0.0729
C22 C 0.4938(5) 0.5154(4) -0.1024(2)
C23 C 0.5885(5) 0.6080(4) -0.0933(2)
H30 H 0.6807 0.6149 -0.1157
C24 C 0.5485(5) 0.6896(4) -0.0519(2)
H31 H 0.6140 0.7520 -0.0458
C25 C 0.5172(5) 0.3403(3) -0.2638(2)
H32 H 0.6296 0.3540 -0.2603
H33 H 0.4839 0.3492 -0.3100
C26 C 0.5329(5) 0.6974(3) -0.3229(2)
H34 H 0.5642 0.7200 -0.3660
H35 H 0.6157 0.6618 -0.3048
C27 C 0.2419(5) 0.6180(3) -0.5468(2)
H36 H 0.3339 0.5910 -0.5294
H37 H 0.2750 0.6667 -0.5788
C28 C 0.2268(6) 0.9265(5) 0.0301(3)
H38 H 0.1425 0.8868 0.0501
H39 H 0.1816 0.9737 0.0020
C29 C 0.0043(5) 0.7842(3) -0.1996(2)
H40 H -0.0670 0.8122 -0.2301
H41 H -0.0452 0.7784 -0.1570
C30 C -0.0284(5) 1.1933(3) -0.2117(2)
H42 H 0.0125 1.1948 -0.1652
H43 H -0.1406 1.1808 -0.2112
O2 O 0.4762(7) 0.1878(4) -0.1787(2)
O3 O 0.5753(4) 0.1548(3) -0.2998(2)
H44 H 0.5636 0.0911 -0.2988
O4 O 0.3052(4) 0.1760(3) -0.2738(2)
O5 O 0.4284(4) 0.8823(2) -0.30924(15)
O6 O 0.4047(3) 0.7796(2) -0.21335(14)
O7 O 0.6692(3) 0.8544(2) -0.24324(16)
O8 O -0.0293(3) 0.5540(2) -0.61400(15)
O9 O 0.0853(3) 0.4289(2) -0.54799(15)
O10 O 0.2195(4) 0.4875(3) -0.64907(17)
O11 O 0.3214(5) 0.9226(4) 0.1532(2)
O12 O 0.4987(5) 1.0185(3) 0.0793(2)
O15 O 0.2530(4) 1.0773(3) 0.12627(19)
H45 H 0.2872 1.0961 0.1655
O16 O 0.0098(4) 1.3077(2) -0.31426(16)
O17 O -0.1191(3) 1.3740(2) -0.21254(17)
H46 H -0.0908 1.4141 -0.1783
O18 O 0.1640(3) 1.3714(2) -0.20485(16)
O19 O 0.1233(3) 0.6684(2) -0.29645(15)
O20 O 0.1390(3) 0.6142(2) -0.18171(15)
H47 H 0.0833 0.5811 -0.1569
O21 O -0.1204(3) 0.5987(2) -0.24255(14)
H55 H 0.317(5) 0.644(3) -0.314(2)
H56 H 0.231(5) 0.831(3) -0.198(2)
H57 H 0.391(6) 0.890(4) -0.029(2)
H58 H 0.119(6) 1.120(4) -0.263(3)
H59 H 0.092(6) 0.637(4) -0.472(2)
H61 H 0.362(7) 0.400(4) -0.211(3)
H66 H 0.027(5) 0.741(3) -0.547(2)
H67 H -0.014(8) 0.609(5) -0.640(4)
H68 H 0.180(7) 0.466(5) -0.678(3)
Cl1 Cl -0.05089(13) 0.67279(9) 0.02056(6)
Cl2 Cl 0.52255(19) 0.83434(11) 0.44421(7)
O22 O 0.0300(4) 0.4934(3) 0.10023(18)
H60 H 0.050(6) 0.452(4) 0.070(3)
H64 H -0.007(7) 0.535(5) 0.082(3)
O23 O 0.6256(5) 0.6210(3) 0.4963(3)
H62 H 0.703(6) 0.614(4) 0.513(3)
H63 H 0.626(6) 0.669(4) 0.474(3)
O24 O 0.4377(4) 0.0489(3) 0.41102(19)
H48 H 0.4878 0.0838 0.3845
H65 H 0.436(8) 0.073(5) 0.446(3)
O25 O 0.7378(17) 0.7080(12) 0.4000(7)
H49 H 0.6805 0.7555 0.4052
H50 H 0.7177 0.6674 0.4292
O27 O 0.7735(6) 0.8542(4) 0.0870(3)
H53 H 0.8137 0.8018 0.0716
H54 H 0.7040 0.8354 0.1124
O1? O 0.5759(11) 0.1861(6) -0.1887(4)
O13? O 0.4160(9) 1.0759(6) 0.0427(4)
O14? O 0.4839(8) 0.9604(6) 0.1251(4)
O26? O 0.8364(11) 0.8851(7) 0.0439(5)
H51? H 0.7627 0.8787 0.0149
H52? H 0.8915 0.8431 0.0249
loop_
_geom_bond_atom_site_label_1
_geom_bond_atom_site_label_2
_geom_bond_site_symmetry_1
_geom_bond_site_symmetry_2
P1 C25 1_555 1_555
P2 C26 1_555 1_555
P3 C27 1_555 1_555
P4 C28 1_555 1_555
P5 C30 1_555 1_555
P6 C29 1_555 1_555
N1 C1 1_555 1_555
N2 C3 1_555 1_555
N3 C5 1_555 1_555
N4 C17 1_555 1_555
N5 C15 1_555 1_555
N6 C13 1_555 1_555
C1 H1 1_555 1_555
H2 C1 1_555 1_555
C2 N1 1_555 1_555
H3 C2 1_555 1_555
H4 C2 1_555 1_555
C3 C2 1_555 1_555
H5 C3 1_555 1_555
H6 C3 1_555 1_555
C4 N2 1_555 1_555
H7 C4 1_555 1_555
H8 C4 1_555 1_555
C5 C4 1_555 1_555
H9 C5 1_555 1_555
H10 C5 1_555 1_555
C6 N3 1_555 1_555
H11 C6 1_555 1_555
C7 C6 1_555 1_555
C8 C7 1_555 1_555
H12 C8 1_555 1_555
C9 C8 1_555 1_555
H13 C9 1_555 1_555
C10 C9 1_555 1_555
C11 C10 1_555 1_555
H14 C11 1_555 1_555
C12 C7 1_555 1_555
H15 C12 1_555 1_555
C13 C10 1_555 1_555
H16 C13 1_555 1_555
H17 C13 1_555 1_555
C14 N6 1_555 1_555
H18 C14 1_555 1_555
H19 C14 1_555 1_555
C15 C14 1_555 1_555
H20 C15 1_555 1_555
H21 C15 1_555 1_555
C16 N5 1_555 1_555
H22 C16 1_555 1_555
H23 C16 1_555 1_555
C17 C16 1_555 1_555
H24 C17 1_555 1_555
H25 C17 1_555 1_555
C18 N4 1_555 1_555
H26 C18 1_555 1_555
H27 C18 1_555 1_555
C19 C18 1_555 1_555
C20 C19 1_555 1_555
H28 C20 1_555 1_555
C21 C20 1_555 1_555
H29 C21 1_555 1_555
C22 C1 1_555 1_555
C23 C22 1_555 1_555
H30 C23 1_555 1_555
C24 C19 1_555 1_555
H31 C24 1_555 1_555
C25 N1 1_555 1_555
H32 C25 1_555 1_555
H33 C25 1_555 1_555
C26 N2 1_555 1_555
H34 C26 1_555 1_555
H35 C26 1_555 1_555
C27 N3 1_555 1_555
H36 C27 1_555 1_555
H37 C27 1_555 1_555
C28 N4 1_555 1_555
H38 C28 1_555 1_555
H39 C28 1_555 1_555
C29 N5 1_555 1_555
H40 C29 1_555 1_555
H41 C29 1_555 1_555
C30 N6 1_555 1_555
H42 C30 1_555 1_555
H43 C30 1_555 1_555
O2 P1 1_555 1_555
O3 P1 1_555 1_555
H44 O3 1_555 1_555
O4 P1 1_555 1_555
O5 P2 1_555 1_555
O6 P2 1_555 1_555
O7 P2 1_555 1_555
O8 P3 1_555 1_555
O9 P3 1_555 1_555
O10 P3 1_555 1_555
O11 P4 1_555 1_555
O12 P4 1_555 1_555
O15 P4 1_555 1_555
H45 O15 1_555 1_555
O16 P5 1_555 1_555
O17 P5 1_555 1_555
H46 O17 1_555 1_555
O18 P5 1_555 1_555
O19 P6 1_555 1_555
O20 P6 1_555 1_555
H47 O20 1_555 1_555
O21 P6 1_555 1_555
O22 H60 1_555 1_555
O23 H62 1_555 1_555
O24 H48 1_555 1_555
O25 H49 1_555 1_555
H50 O25 1_555 1_555
O27 H53 1_555 1_555
H54 O27 1_555 1_555
H55 N2 1_555 1_555
H56 N5 1_555 1_555
H57 N4 1_555 1_555
H58 N6 1_555 1_555
H59 N3 1_555 1_555
H61 N1 1_555 1_555
H63 O23 1_555 1_555
H64 O22 1_555 1_555
H65 O24 1_555 1_555
H66 C6 1_555 1_555
H67 O8 1_555 1_555
H68 O10 1_555 1_555
C11 C12 1_555 1_555
C21 C22 1_555 1_555
C23 C24 1_555 1_555

#END
