
#######################################################################
#
#                 Cambridge Crystallographic Data Centre
#                                CCDC 
#
#######################################################################
#
# If this CIF has been generated from an entry in the Cambridge 
# Structural Database, then it will include bibliographic, chemical, 
# crystal, experimental, refinement or atomic coordinate data resulting 
# from the CCDC's data processing and validation procedures.
#
#######################################################################

data_YIZXOW
_chemical_formula_moiety         'C42 H34 Mg2 N6 O16 S4,4(H2 O1)'
_chemical_name_systematic        
"bis(\m~2~-4-(2,2':6',2''-terpyridin-4'-yl)benzene-1,3-disulfonato)-tetra-aqua-di-magnesium tetrahydrate"
_symmetry_cell_setting           triclinic
_symmetry_space_group_name_H-M   'P -1'
_symmetry_Int_Tables_number      2
_space_group_name_Hall           '-P 1'
loop_
_symmetry_equiv_pos_site_id
_symmetry_equiv_pos_as_xyz
1 x,y,z
2 -x,-y,-z
_cell_length_a                   9.1013(11)
_cell_length_b                   10.8625(14)
_cell_length_c                   12.5697(16)
_cell_angle_alpha                76.698(2)
_cell_angle_beta                 86.585(2)
_cell_angle_gamma                79.993(2)
_cell_volume                     1190.69
_exptl_crystal_colour            colorless
_exptl_crystal_description       block
_cell_formula_units_Z            1
loop_
_atom_site_label
_atom_site_type_symbol
_atom_site_fract_x
_atom_site_fract_y
_atom_site_fract_z
Mg1 Mg 1.37888(10) -0.76520(9) 1.18872(7)
C1 C 1.1435(4) -0.6863(3) 0.9960(2)
H1 H 1.2284 -0.6958 0.9517
C2 C 1.0072(4) -0.6537(4) 0.9471(3)
H2 H 1.0000 -0.6417 0.8717
C3 C 0.8803(4) -0.6392(4) 1.0127(3)
H3 H 0.7860 -0.6168 0.9824
C4 C 0.8970(3) -0.6588(3) 1.1245(3)
H4 H 0.8135 -0.6498 1.1702
C5 C 1.0373(3) -0.6916(3) 1.1678(2)
C6 C 1.0665(3) -0.7127(3) 1.2866(2)
C7 C 0.9574(3) -0.6918(3) 1.3656(2)
H5 H 0.8580 -0.6652 1.3461
C8 C 0.9973(3) -0.7109(3) 1.4740(2)
C9 C 1.1472(3) -0.7520(3) 1.4995(2)
H6 H 1.1776 -0.7663 1.5713
C10 C 1.2507(3) -0.7716(3) 1.4169(2)
C11 C 1.4137(3) -0.8147(3) 1.4348(2)
C12 C 1.4766(3) -0.8421(3) 1.5368(2)
H7 H 1.4178 -0.8317 1.5982
C13 C 1.6291(3) -0.8853(3) 1.5456(3)
H8 H 1.6732 -0.9049 1.6136
C14 C 1.7145(3) -0.8990(3) 1.4546(3)
H9 H 1.8166 -0.9287 1.4594
C15 C 1.6446(3) -0.8675(3) 1.3557(3)
H10 H 1.7025 -0.8765 1.2936
C16 C 0.8818(3) -0.6750(3) 1.5562(2)
C17 C 0.8700(3) -0.7410(3) 1.6671(2)
C18 C 0.7614(3) -0.6918(3) 1.7353(2)
H11 H 0.7557 -0.7343 1.8083
C19 C 0.6609(3) -0.5806(3) 1.6970(2)
C20 C 0.6670(3) -0.5186(3) 1.5882(2)
H12 H 0.5976 -0.4462 1.5608
C21 C 0.7777(3) -0.5656(3) 1.5201(2)
H13 H 0.7823 -0.5219 1.4474
N1 N 1.1613(3) -0.7052(2) 1.1035(2)
N2 N 1.2106(3) -0.7524(2) 1.31311(18)
N3 N 1.4977(3) -0.8246(2) 1.34332(19)
O1 O 1.5499(3) -0.7710(2) 1.07927(19)
H14 H 1.551(4) -0.704(2) 1.025(2)
H15 H 1.622(3) -0.826(3) 1.066(3)
O2 O 1.1203(3) -0.8713(2) 1.75218(19)
O3 O 0.8935(2) -0.9453(2) 1.82399(17)
O4 O 1.3612(3) -0.9498(2) 1.1828(2)
H16 H 1.430(3) -1.013(3) 1.180(3)
H17 H 1.280(2) -0.974(4) 1.173(4)
O5 O 0.9825(3) -0.9697(2) 1.64355(18)
O6 O 0.5010(3) -0.6242(2) 1.87402(17)
O7 O 0.3999(2) -0.4518(2) 1.72376(18)
O8 O 0.6036(2) -0.42832(19) 1.82879(17)
S1 S 0.97701(8) -0.89518(7) 1.72519(6)
S2 S 0.52866(8) -0.51529(7) 1.78713(6)
Mg1A Mg 0.62112(10) -0.23480(9) 1.81128(7)
C1A C 0.8565(4) -0.3137(3) 2.0040(2)
H1A H 0.7716 -0.3042 2.0483
C2A C 0.9928(4) -0.3463(4) 2.0529(3)
H2A H 1.0000 -0.3583 2.1283
C3A C 1.1197(4) -0.3608(4) 1.9873(3)
H3A H 1.2140 -0.3832 2.0176
C4A C 1.1030(3) -0.3412(3) 1.8755(3)
H4A H 1.1865 -0.3502 1.8298
C5A C 0.9627(3) -0.3084(3) 1.8322(2)
C6A C 0.9335(3) -0.2873(3) 1.7134(2)
C7A C 1.0426(3) -0.3082(3) 1.6344(2)
H5A H 1.1420 -0.3348 1.6539
C8A C 1.0027(3) -0.2891(3) 1.5260(2)
C9A C 0.8528(3) -0.2480(3) 1.5005(2)
H6A H 0.8224 -0.2337 1.4287
C10A C 0.7493(3) -0.2284(3) 1.5831(2)
C11A C 0.5863(3) -0.1853(3) 1.5652(2)
C12A C 0.5234(3) -0.1579(3) 1.4632(2)
H7A H 0.5822 -0.1683 1.4018
C13A C 0.3709(3) -0.1147(3) 1.4544(3)
H8A H 0.3268 -0.0951 1.3864
C14A C 0.2855(3) -0.1010(3) 1.5454(3)
H9A H 0.1834 -0.0713 1.5406
C15A C 0.3554(3) -0.1325(3) 1.6443(3)
H10A H 0.2975 -0.1235 1.7064
C16A C 1.1182(3) -0.3250(3) 1.4438(2)
C17A C 1.1300(3) -0.2590(3) 1.3329(2)
C18A C 1.2386(3) -0.3082(3) 1.2647(2)
H11A H 1.2443 -0.2657 1.1917
C19A C 1.3391(3) -0.4194(3) 1.3030(2)
C20A C 1.3330(3) -0.4814(3) 1.4118(2)
H12A H 1.4024 -0.5538 1.4392
C21A C 1.2223(3) -0.4344(3) 1.4799(2)
H13A H 1.2177 -0.4781 1.5526
N1A N 0.8387(3) -0.2948(2) 1.8965(2)
N2A N 0.7894(3) -0.2476(2) 1.68689(18)
N3A N 0.5023(3) -0.1754(2) 1.65668(19)
O1A O 0.4501(3) -0.2290(2) 1.92073(19)
H14A H 0.449(4) -0.296(2) 1.975(2)
H15A H 0.378(3) -0.174(3) 1.934(3)
O2A O 0.8797(3) -0.1287(2) 1.24782(19)
O3A O 1.1065(2) -0.0547(2) 1.17601(17)
O4A O 0.6388(3) -0.0502(2) 1.8172(2)
H16A H 0.570(3) 0.013(3) 1.820(3)
H17A H 0.720(2) -0.026(4) 1.827(4)
O5A O 1.0175(3) -0.0303(2) 1.35645(18)
O6A O 1.4990(3) -0.3758(2) 1.12598(17)
O7A O 1.6001(2) -0.5482(2) 1.27624(18)
O8A O 1.3964(2) -0.57168(19) 1.17121(17)
S1A S 1.02299(8) -0.10482(7) 1.27481(6)
S2A S 1.47134(8) -0.48471(7) 1.21287(6)
O9 O 1.5781(4) -1.1564(4) 1.1900(4)
H18 H 1.569(8) -1.235(3) 1.191(5)
H19 H 1.573(6) -1.119(4) 1.1186(18)
O10 O 1.7722(4) -0.9585(4) 1.0434(2)
H20 H 1.824(5) -0.955(5) 0.983(2)
H21 H 1.835(5) -0.997(5) 1.094(3)
loop_
_geom_bond_atom_site_label_1
_geom_bond_atom_site_label_2
_geom_bond_site_symmetry_1
_geom_bond_site_symmetry_2
Mg1 N1 1_555 1_555
C1 H1 1_555 1_555
C2 C1 1_555 1_555
H2 C2 1_555 1_555
C3 C2 1_555 1_555
H3 C3 1_555 1_555
C4 C3 1_555 1_555
H4 C4 1_555 1_555
C5 C4 1_555 1_555
C6 C5 1_555 1_555
C7 C6 1_555 1_555
H5 C7 1_555 1_555
C8 C7 1_555 1_555
C9 C8 1_555 1_555
H6 C9 1_555 1_555
C10 C9 1_555 1_555
C11 C10 1_555 1_555
C12 C11 1_555 1_555
H7 C12 1_555 1_555
C13 C12 1_555 1_555
H8 C13 1_555 1_555
C14 C13 1_555 1_555
H9 C14 1_555 1_555
C15 C14 1_555 1_555
H10 C15 1_555 1_555
C16 C8 1_555 1_555
C17 C16 1_555 1_555
C18 C17 1_555 1_555
H11 C18 1_555 1_555
C19 C18 1_555 1_555
C20 C19 1_555 1_555
H12 C20 1_555 1_555
C21 C16 1_555 1_555
H13 C21 1_555 1_555
N1 C1 1_555 1_555
N2 Mg1 1_555 1_555
N3 Mg1 1_555 1_555
O1 Mg1 1_555 1_555
H14 O1 1_555 1_555
H15 O1 1_555 1_555
O2 S1 1_555 1_555
O3 S1 1_555 1_555
O4 Mg1 1_555 1_555
H16 O4 1_555 1_555
H17 O4 1_555 1_555
O5 S1 1_555 1_555
O6 S2 1_555 1_555
O7 S2 1_555 1_555
O8 S2 1_555 1_555
S1 C17 1_555 1_555
S2 C19 1_555 1_555
O9 H18 1_555 1_555
H19 O9 1_555 1_555
O10 H20 1_555 1_555
H21 O10 1_555 1_555
Mg1A O8 1_555 1_555
C1A H1A 1_555 1_555
C2A C1A 1_555 1_555
H2A C2A 1_555 1_555
C3A C2A 1_555 1_555
H3A C3A 1_555 1_555
C4A C3A 1_555 1_555
H4A C4A 1_555 1_555
C5A C4A 1_555 1_555
C6A C5A 1_555 1_555
C7A C6A 1_555 1_555
H5A C7A 1_555 1_555
C8A C7A 1_555 1_555
C9A C8A 1_555 1_555
H6A C9A 1_555 1_555
C10A C9A 1_555 1_555
C11A C10A 1_555 1_555
C12A C11A 1_555 1_555
H7A C12A 1_555 1_555
C13A C12A 1_555 1_555
H8A C13A 1_555 1_555
C14A C13A 1_555 1_555
H9A C14A 1_555 1_555
C15A C14A 1_555 1_555
H10A C15A 1_555 1_555
C16A C8A 1_555 1_555
C17A C16A 1_555 1_555
C18A C17A 1_555 1_555
H11A C18A 1_555 1_555
C19A C18A 1_555 1_555
C20A C19A 1_555 1_555
H12A C20A 1_555 1_555
C21A C16A 1_555 1_555
H13A C21A 1_555 1_555
N1A Mg1A 1_555 1_555
N2A Mg1A 1_555 1_555
N3A Mg1A 1_555 1_555
O1A Mg1A 1_555 1_555
H14A O1A 1_555 1_555
H15A O1A 1_555 1_555
O2A S1A 1_555 1_555
O3A S1A 1_555 1_555
O4A Mg1A 1_555 1_555
H16A O4A 1_555 1_555
H17A O4A 1_555 1_555
O5A S1A 1_555 1_555
O6A S2A 1_555 1_555
O7A S2A 1_555 1_555
O8A Mg1 1_555 1_555
S1A C17A 1_555 1_555
S2A C19A 1_555 1_555
C5 N1 1_555 1_555
C6 N2 1_555 1_555
C10 N2 1_555 1_555
C11 N3 1_555 1_555
C15 N3 1_555 1_555
C20 C21 1_555 1_555
C1A N1A 1_555 1_555
C5A N1A 1_555 1_555
C6A N2A 1_555 1_555
C10A N2A 1_555 1_555
C11A N3A 1_555 1_555
C15A N3A 1_555 1_555
C20A C21A 1_555 1_555
O8A S2A 1_555 1_555

#END
