
#######################################################################
#
#                 Cambridge Crystallographic Data Centre
#                                CCDC 
#
#######################################################################
#
# If this CIF has been generated from an entry in the Cambridge 
# Structural Database, then it will include bibliographic, chemical, 
# crystal, experimental, refinement or atomic coordinate data resulting 
# from the CCDC's data processing and validation procedures.
#
#######################################################################

data_YIZYEL
_chemical_formula_moiety         'C21 H18 N2 O5,3(H2 O1)'
_chemical_name_systematic        '5\b-Hydroxymethyl camptothecin trihydrate'
_symmetry_cell_setting           triclinic
_symmetry_space_group_name_H-M   'P 1'
_symmetry_Int_Tables_number      1
_space_group_name_Hall           'P 1'
loop_
_symmetry_equiv_pos_site_id
_symmetry_equiv_pos_as_xyz
1 x,y,z
_cell_length_a                   8.075
_cell_length_b                   10.370
_cell_length_c                   6.497
_cell_angle_alpha                100.32
_cell_angle_beta                 95.37
_cell_angle_gamma                109.84
_cell_volume                     496.417
_exptl_crystal_colour            colorless
_chemical_melting_point          269-270deg.C
_cell_formula_units_Z            1
loop_
_atom_site_label
_atom_site_type_symbol
_atom_site_fract_x
_atom_site_fract_y
_atom_site_fract_z
N1 N -0.1167(4) -0.1336(3) -0.4707(4)
C1 C -0.0871(4) -0.2160(3) -0.3517(5)
C2 C 0.0345(5) -0.1671(3) -0.1485(5)
N2 N 0.0294(4) -0.2844(3) -0.0754(4)
C3 C -0.0832(5) -0.4187(3) -0.2289(5)
C4 C -0.1636(4) -0.3637(4) -0.3957(5)
C5 C -0.2826(5) -0.4331(4) -0.5797(6)
C6 C -0.3201(5) -0.3513(4) -0.7154(6)
C7 C -0.4417(5) -0.4125(5) -0.9103(6)
C8 C -0.4728(6) -0.3315(6) -1.0396(7)
C9 C -0.3876(6) -0.1838(5) -0.9844(6)
C10 C -0.2685(5) -0.1191(4) -0.7952(6)
C11 C -0.2349(4) -0.2027(4) -0.6575(5)
C12 C 0.1388(6) -0.0357(4) -0.0374(6)
C13 C 0.2408(5) -0.0240(4) 0.1590(5)
C14 C 0.2346(5) -0.1400(4) 0.2322(5)
C15 C 0.1214(4) -0.2800(3) 0.1176(5)
C16 C 0.3439(5) -0.1273(4) 0.4401(5)
C17 C 0.3323(9) 0.2964(6) 0.6244(10)
C18 C 0.2341(7) 0.1577(5) 0.4603(8)
C19 C 0.3489(6) 0.1208(4) 0.3007(6)
C20 C 0.5155(6) 0.1146(4) 0.4247(6)
C21 C 0.0326(5) -0.4984(4) -0.3173(6)
O1 O 0.5000 0.0000 0.5000
O2 O 0.6567(5) 0.2093(4) 0.4651(7)
O3 O 0.3981(7) 0.2255(3) 0.1842(5)
O4 O 0.1021(4) -0.3898(3) 0.1797(4)
O5 O 0.1730(4) -0.4128(3) -0.4039(4)
H1 H -0.181(5) -0.493(4) -0.175(7)
H2 H -0.345(7) -0.542(5) -0.616(8)
H3 H -0.488(6) -0.513(5) -0.942(8)
H4 H -0.562(9) -0.391(7) -1.177(11)
H5 H -0.431(8) -0.120(6) -1.082(11)
H6 H -0.183(5) -0.015(4) -0.753(6)
H7 H 0.146(6) 0.044(5) -0.082(8)
H8 H 0.282(7) -0.135(5) 0.549(8)
H9 H 0.387(6) -0.208(4) 0.441(7)
H10 H 0.246 0.315 0.728
H11 H 0.444 0.290 0.712
H12 H 0.374 0.379 0.546
H13 H 0.150(8) 0.075(6) 0.493(11)
H14 H 0.144(9) 0.182(7) 0.344(12)
H15 H -0.031(10) -0.600(8) -0.417(14)
H16 H 0.082(6) -0.539(5) -0.203(9)
H17 H 0.483(14) 0.266(11) 0.141(18)
H18 H 0.125(7) -0.412(5) -0.536(9)
O6 O 0.0622(12) -0.6763(6) 0.1198(12)
H19 H 0.076 -0.580 0.140
H20 H -0.063 -0.717 0.069
O7 O -0.3096(13) -0.7985(12) -0.0320(10)
O8 O -0.095(2) -0.842(2) -0.222(5)
loop_
_geom_bond_atom_site_label_1
_geom_bond_atom_site_label_2
_geom_bond_site_symmetry_1
_geom_bond_site_symmetry_2
N1 C1 1_555 1_555
C1 C2 1_555 1_555
C2 N2 1_555 1_555
N2 C3 1_555 1_555
C3 C4 1_555 1_555
C4 C1 1_555 1_555
C5 C4 1_555 1_555
C6 C5 1_555 1_555
C7 C6 1_555 1_555
C8 C7 1_555 1_555
C9 C8 1_555 1_555
C10 C9 1_555 1_555
C11 N1 1_555 1_555
C12 C2 1_555 1_555
C13 C12 1_555 1_555
C14 C13 1_555 1_555
C15 N2 1_555 1_555
C16 C14 1_555 1_555
C17 C18 1_555 1_555
C18 C19 1_555 1_555
C19 C13 1_555 1_555
C20 C19 1_555 1_555
C21 C3 1_555 1_555
O1 C16 1_555 1_555
O2 C20 1_555 1_555
O3 C19 1_555 1_555
O4 C15 1_555 1_555
O5 C21 1_555 1_555
O6 H19 1_555 1_555
H1 C3 1_555 1_555
H2 C5 1_555 1_555
H3 C7 1_555 1_555
H4 C8 1_555 1_555
H5 C9 1_555 1_555
H6 C10 1_555 1_555
H7 C12 1_555 1_555
H8 C16 1_555 1_555
H9 C16 1_555 1_555
H10 C17 1_555 1_555
H11 C17 1_555 1_555
H12 C17 1_555 1_555
H13 C18 1_555 1_555
H14 C18 1_555 1_555
H15 C21 1_555 1_555
H16 C21 1_555 1_555
H17 O3 1_555 1_555
H18 O5 1_555 1_555
H20 O6 1_555 1_555
C6 C11 1_555 1_555
C10 C11 1_555 1_555
C14 C15 1_555 1_555
C20 O1 1_555 1_555

#END
