
#######################################################################
#
#                 Cambridge Crystallographic Data Centre
#                                CCDC 
#
#######################################################################
#
# If this CIF has been generated from an entry in the Cambridge 
# Structural Database, then it will include bibliographic, chemical, 
# crystal, experimental, refinement or atomic coordinate data resulting 
# from the CCDC's data processing and validation procedures.
#
#######################################################################

data_YIZYUD
_chemical_formula_moiety         'C19 H16 N2 O6 S1'
_chemical_name_systematic        
'dimethyl 2-(1-(pyridin-2-ylsulfonyl)-1H-indol-2-yl)but-2-enedioate'
_symmetry_cell_setting           monoclinic
_symmetry_space_group_name_H-M   'P 21/c'
_symmetry_Int_Tables_number      14
_space_group_name_Hall           '-P 2ybc'
loop_
_symmetry_equiv_pos_site_id
_symmetry_equiv_pos_as_xyz
1 x,y,z
2 -x,1/2+y,1/2-z
3 -x,-y,-z
4 x,1/2-y,1/2+z
_cell_length_a                   10.9911(12)
_cell_length_b                   10.6188(11)
_cell_length_c                   16.1647(17)
_cell_angle_alpha                90
_cell_angle_beta                 101.997(2)
_cell_angle_gamma                90
_cell_volume                     1845.41
_cell_formula_units_Z            4
loop_
_atom_site_label
_atom_site_type_symbol
_atom_site_fract_x
_atom_site_fract_y
_atom_site_fract_z
S1 S 0.17514(4) 0.72752(5) 0.16586(3)
N1 N 0.18435(14) 0.83142(14) 0.09099(9)
O1 O 0.07040(14) 0.76058(15) 0.19980(10)
O2 O 0.18322(14) 0.60558(12) 0.13096(9)
O3 O 0.32705(14) 0.49403(13) -0.00587(10)
O4 O 0.54028(17) 0.89471(16) 0.12935(14)
O5 O 0.17902(13) 0.63056(13) -0.06355(9)
O6 O 0.66125(14) 0.72851(16) 0.15035(11)
C1 C 0.14331(16) 0.95863(17) 0.08933(11)
C2 C 0.05443(18) 1.0154(2) 0.12664(13)
H1 H 0.0118 0.9700 0.1608
C3 C 0.0321(2) 1.1413(2) 0.11090(14)
H2 H -0.0265 1.1821 0.1353
C4 C 0.0949(2) 1.2091(2) 0.05952(14)
H3 H 0.0773 1.2942 0.0500
C5 C 0.1818(2) 1.15328(19) 0.02279(14)
H4 H 0.2234 1.1995 -0.0116
C6 C 0.20745(17) 1.02558(17) 0.03762(11)
C7 C 0.29196(17) 0.94009(17) 0.01061(12)
H5 H 0.3465 0.9604 -0.0243
C8 C 0.27999(16) 0.82594(17) 0.04362(11)
C9 C 0.34982(17) 0.71031(17) 0.03444(11)
C10 C 0.28504(18) 0.59858(18) -0.01241(12)
C11 C 0.1115(2) 0.5290(2) -0.11251(16)
H6 H 0.1632 0.4905 -0.1465
H7 H 0.0377 0.5619 -0.1485
H8 H 0.0889 0.4674 -0.0750
C12 C 0.47253(17) 0.69840(18) 0.06193(12)
H9 H 0.5085 0.6258 0.0455
C13 C 0.55762(18) 0.7873(2) 0.11537(13)
C14 C 0.7561(2) 0.8007(3) 0.20603(18)
H10 H 0.7726 0.8766 0.1780
H11 H 0.8309 0.7517 0.2205
H12 H 0.7277 0.8218 0.2566
N2 N 0.33282(18) 0.87180(16) 0.26641(11)
C15 C 0.4389(2) 0.8947(2) 0.32194(14)
H13 H 0.4553 0.9770 0.3406
C16 C 0.5243(2) 0.8041(3) 0.35272(14)
H14 H 0.5970 0.8251 0.3909
C17 C 0.5021(2) 0.6828(2) 0.32700(16)
H15 H 0.5585 0.6194 0.3478
C18 C 0.3938(2) 0.6559(2) 0.26925(14)
H16 H 0.3756 0.5744 0.2495
C19 C 0.31461(18) 0.75305(17) 0.24225(11)
loop_
_geom_bond_atom_site_label_1
_geom_bond_atom_site_label_2
_geom_bond_site_symmetry_1
_geom_bond_site_symmetry_2
S1 N1 1_555 1_555
N1 C1 1_555 1_555
O1 S1 1_555 1_555
O2 S1 1_555 1_555
O3 C10 1_555 1_555
O4 C13 1_555 1_555
O5 C10 1_555 1_555
O6 C13 1_555 1_555
C1 C2 1_555 1_555
C2 H1 1_555 1_555
C3 C2 1_555 1_555
H2 C3 1_555 1_555
C4 C3 1_555 1_555
H3 C4 1_555 1_555
C5 C4 1_555 1_555
H4 C5 1_555 1_555
C6 C1 1_555 1_555
C7 C6 1_555 1_555
H5 C7 1_555 1_555
C8 N1 1_555 1_555
C9 C8 1_555 1_555
C10 C9 1_555 1_555
C11 O5 1_555 1_555
H6 C11 1_555 1_555
H7 C11 1_555 1_555
H8 C11 1_555 1_555
C12 C9 1_555 1_555
H9 C12 1_555 1_555
C13 C12 1_555 1_555
C14 O6 1_555 1_555
H10 C14 1_555 1_555
H11 C14 1_555 1_555
H12 C14 1_555 1_555
N2 C15 1_555 1_555
C15 H13 1_555 1_555
C16 C15 1_555 1_555
H14 C16 1_555 1_555
C17 C16 1_555 1_555
H15 C17 1_555 1_555
C18 C17 1_555 1_555
H16 C18 1_555 1_555
C19 S1 1_555 1_555
C5 C6 1_555 1_555
C7 C8 1_555 1_555
N2 C19 1_555 1_555
C18 C19 1_555 1_555

#END
