
#######################################################################
#
#                 Cambridge Crystallographic Data Centre
#                                CCDC 
#
#######################################################################
#
# If this CIF has been generated from an entry in the Cambridge 
# Structural Database, then it will include bibliographic, chemical, 
# crystal, experimental, refinement or atomic coordinate data resulting 
# from the CCDC's data processing and validation procedures.
#
#######################################################################

data_YOBKAD
_chemical_formula_moiety         'C19 H17 N1 O2'
_chemical_name_systematic        
4-((1-phenyl-2-(tetrahydrofuran-2-yl)vinyl)oxy)benzonitrile
_symmetry_cell_setting           monoclinic
_symmetry_space_group_name_H-M   'P 21/c'
_symmetry_Int_Tables_number      14
_space_group_name_Hall           '-P 2ybc'
loop_
_symmetry_equiv_pos_site_id
_symmetry_equiv_pos_as_xyz
1 x,y,z
2 -x,1/2+y,1/2-z
3 -x,-y,-z
4 x,1/2-y,1/2+z
_cell_length_a                   8.7226(16)
_cell_length_b                   19.987(4)
_cell_length_c                   9.9442(19)
_cell_angle_alpha                90
_cell_angle_beta                 114.349(3)
_cell_angle_gamma                90
_cell_volume                     1579.45
_exptl_crystal_colour            colorless
_exptl_crystal_description       needle
_cell_formula_units_Z            4
loop_
_atom_site_label
_atom_site_type_symbol
_atom_site_fract_x
_atom_site_fract_y
_atom_site_fract_z
O1 O 0.54973(16) 0.23273(6) 0.20973(14)
C1 C 0.4208(2) 0.19288(8) 0.2091(2)
C2 C 0.1565(2) 0.11223(9) 0.1856(2)
C3 C 0.6590(2) 0.26069(9) 0.3440(2)
C4 C 0.3675(2) 0.19219(9) 0.3217(2)
H1 H 0.4202 0.2188 0.4049
C5 C 0.3440(3) 0.15392(9) 0.0853(2)
H2 H 0.3812 0.1549 0.0101
O2 O 0.4494(2) 0.41045(7) 0.33421(18)
C6 C 0.2120(3) 0.11358(9) 0.0736(2)
H3 H 0.1596 0.0870 -0.0097
C7 C 0.2351(2) 0.15153(10) 0.3092(2)
H4 H 0.1982 0.1505 0.3846
C8 C 0.7815(2) 0.21372(9) 0.4468(2)
C9 C 0.6512(3) 0.32583(9) 0.3614(2)
H5 H 0.7316 0.3444 0.4472
C10 C 0.5256(3) 0.37227(10) 0.2562(2)
H6 H 0.4389 0.3464 0.1778
C11 C 0.0204(3) 0.06883(11) 0.1719(3)
C12 C 0.8092(3) 0.15137(10) 0.3990(3)
H7 H 0.7483 0.1386 0.3014
C13 C 0.8713(3) 0.23048(11) 0.5939(3)
H8 H 0.8513 0.2713 0.6287
C14 C 0.5995(3) 0.42383(11) 0.1883(3)
H9 H 0.7158 0.4335 0.2528
H10 H 0.5934 0.4089 0.0934
C15 C 0.9266(3) 0.10839(12) 0.4957(3)
H11 H 0.9442 0.0667 0.4627
C16 C 0.4898(3) 0.48326(11) 0.1717(3)
H12 H 0.5477 0.5245 0.1703
H13 H 0.3867 0.4804 0.0825
N1 N -0.0875(3) 0.03391(11) 0.1581(3)
C17 C 0.4561(4) 0.47872(11) 0.3041(3)
H14 H 0.5448 0.5006 0.3867
H15 H 0.3500 0.5002 0.2871
C18 C 0.9894(3) 0.18766(14) 0.6891(3)
H16 H 1.0502 0.2001 0.7869
C19 C 1.0183(3) 0.12653(14) 0.6407(4)
H17 H 1.0989 0.0977 0.7051
loop_
_geom_bond_atom_site_label_1
_geom_bond_atom_site_label_2
_geom_bond_site_symmetry_1
_geom_bond_site_symmetry_2
O1 C1 1_555 1_555
C1 C4 1_555 1_555
C2 C6 1_555 1_555
C3 O1 1_555 1_555
C4 H1 1_555 1_555
C5 C1 1_555 1_555
H2 C5 1_555 1_555
O2 C10 1_555 1_555
C6 C5 1_555 1_555
H3 C6 1_555 1_555
C7 C2 1_555 1_555
H4 C7 1_555 1_555
C8 C3 1_555 1_555
C9 C3 1_555 1_555
H5 C9 1_555 1_555
C10 C9 1_555 1_555
H6 C10 1_555 1_555
C11 C2 1_555 1_555
C12 C8 1_555 1_555
H7 C12 1_555 1_555
C13 C8 1_555 1_555
H8 C13 1_555 1_555
C14 C10 1_555 1_555
H9 C14 1_555 1_555
H10 C14 1_555 1_555
C15 C12 1_555 1_555
H11 C15 1_555 1_555
C16 C14 1_555 1_555
H12 C16 1_555 1_555
H13 C16 1_555 1_555
N1 C11 1_555 1_555
C17 O2 1_555 1_555
H14 C17 1_555 1_555
H15 C17 1_555 1_555
C18 C13 1_555 1_555
H16 C18 1_555 1_555
C19 C15 1_555 1_555
H17 C19 1_555 1_555
C4 C7 1_555 1_555
C16 C17 1_555 1_555
C18 C19 1_555 1_555

#END
