
#######################################################################
#
#                 Cambridge Crystallographic Data Centre
#                                CCDC 
#
#######################################################################
#
# If this CIF has been generated from an entry in the Cambridge 
# Structural Database, then it will include bibliographic, chemical, 
# crystal, experimental, refinement or atomic coordinate data resulting 
# from the CCDC's data processing and validation procedures.
#
#######################################################################

data_YOBSEP
_chemical_formula_moiety         'C12 H19 N1 O3,0.5(H2 O1)'
_chemical_name_systematic        
'5-((4-methoxyphenyl)amino)pentane-1,2-diol hemihydrate'
_symmetry_cell_setting           monoclinic
_symmetry_space_group_name_H-M   'C 2/c'
_symmetry_Int_Tables_number      15
_space_group_name_Hall           '-C 2yn'
loop_
_symmetry_equiv_pos_site_id
_symmetry_equiv_pos_as_xyz
1 x,y,z
2 -x,y,1/2-z
3 1/2+x,1/2+y,z
4 1/2-x,1/2+y,1/2-z
5 -x,-y,-z
6 x,-y,1/2+z
7 1/2-x,1/2-y,-z
8 1/2+x,1/2-y,1/2+z
_cell_length_a                   14.488(2)
_cell_length_b                   6.9113(9)
_cell_length_c                   26.720(4)
_cell_angle_alpha                90
_cell_angle_beta                 100.845(2)
_cell_angle_gamma                90
_cell_volume                     2627.71
_exptl_crystal_colour            gray
_cell_formula_units_Z            8
loop_
_atom_site_label
_atom_site_type_symbol
_atom_site_fract_x
_atom_site_fract_y
_atom_site_fract_z
C1 C 0.57971(16) 0.9100(3) 0.62941(8)
H1 H 0.5772 0.9565 0.6618
C2 C 0.54253(15) 0.7292(3) 0.61476(8)
C3 C 0.62500(17) 0.9571(4) 0.54850(8)
C4 C 0.62025(17) 1.0211(3) 0.59680(9)
H2 H 0.6449 1.1416 0.6075
O1 O 0.66859(16) 1.0801(3) 0.51989(7)
C5 C 0.54726(19) 0.6674(4) 0.56616(9)
H3 H 0.5223 0.5473 0.5552
C6 C 0.58847(19) 0.7803(4) 0.53314(9)
H4 H 0.5911 0.7351 0.5006
C7 C 0.6710(2) 1.0257(5) 0.46925(10)
H5 H 0.7056 0.9072 0.4693
H6 H 0.7011 1.1256 0.4532
H7 H 0.6080 1.0073 0.4509
C8 C 0.43857(17) 0.4638(3) 0.63173(9)
H8 H 0.4688 0.3634 0.6152
H9 H 0.3882 0.5185 0.6066
N1 N 0.50653(13) 0.6138(3) 0.65020(7)
H10 H 0.5247 0.6322 0.6824
C9 C 0.39792(17) 0.3759(3) 0.67463(9)
H11 H 0.3588 0.4706 0.6875
H12 H 0.4485 0.3400 0.7023
O2 O 0.34139(11) 0.0720(2) 0.74163(5)
H13 H 0.3458 0.1671 0.7603
C10 C 0.28319(15) 0.1177(3) 0.69353(8)
H14 H 0.2361 0.2135 0.6989
C11 C 0.33949(16) 0.1976(3) 0.65620(8)
H15 H 0.2967 0.2301 0.6249
H16 H 0.3812 0.0971 0.6483
O3 O 0.15999(12) -0.1196(3) 0.69787(7)
H17 H 0.1151 -0.0469 0.6892
C12 C 0.23386(17) -0.0653(3) 0.67281(9)
H18 H 0.2086 -0.0477 0.6368
H19 H 0.2794 -0.1696 0.6760
O4 O 0.5000 0.8344(3) 0.7500
H20 H 0.444(2) 0.914(5) 0.7442(13)
H20A H 0.556(2) 0.914(5) 0.7558(13)
loop_
_geom_bond_atom_site_label_1
_geom_bond_atom_site_label_2
_geom_bond_site_symmetry_1
_geom_bond_site_symmetry_2
C1 H1 1_555 1_555
C2 C1 1_555 1_555
C3 C4 1_555 1_555
C4 C1 1_555 1_555
H2 C4 1_555 1_555
O1 C3 1_555 1_555
C5 C2 1_555 1_555
H3 C5 1_555 1_555
C6 C3 1_555 1_555
H4 C6 1_555 1_555
C7 O1 1_555 1_555
H5 C7 1_555 1_555
H6 C7 1_555 1_555
H7 C7 1_555 1_555
C8 H8 1_555 1_555
H9 C8 1_555 1_555
N1 C2 1_555 1_555
H10 N1 1_555 1_555
C9 C8 1_555 1_555
H11 C9 1_555 1_555
H12 C9 1_555 1_555
O2 H13 1_555 1_555
C10 O2 1_555 1_555
H14 C10 1_555 1_555
C11 C9 1_555 1_555
H15 C11 1_555 1_555
H16 C11 1_555 1_555
O3 H17 1_555 1_555
C12 C10 1_555 1_555
H18 C12 1_555 1_555
H19 C12 1_555 1_555
O4 H20 1_555 1_555
H20A O4 1_555 1_555
C5 C6 1_555 1_555
C8 N1 1_555 1_555
C10 C11 1_555 1_555
O3 C12 1_555 1_555

#END
