
#######################################################################
#
#                 Cambridge Crystallographic Data Centre
#                                CCDC 
#
#######################################################################
#
# If this CIF has been generated from an entry in the Cambridge 
# Structural Database, then it will include bibliographic, chemical, 
# crystal, experimental, refinement or atomic coordinate data resulting 
# from the CCDC's data processing and validation procedures.
#
#######################################################################

data_YOCHIJ
_chemical_formula_moiety         'C16 H9 Br2 N3 O1,C2 H6 O1'
_chemical_name_systematic        
"5,5'-dibromo-N-hydroxy-1'H,3H-2,3'-biindol-3-imine ethanol solvate"
_symmetry_cell_setting           monoclinic
_symmetry_space_group_name_H-M   'P 21'
_symmetry_Int_Tables_number      4
_space_group_name_Hall           'P 2yb'
loop_
_symmetry_equiv_pos_site_id
_symmetry_equiv_pos_as_xyz
1 x,y,z
2 -x,1/2+y,-z
_cell_length_a                   4.832(5)
_cell_length_b                   13.690(5)
_cell_length_c                   13.624(5)
_cell_angle_alpha                90
_cell_angle_beta                 98.913(5)
_cell_angle_gamma                90
_cell_volume                     890.346
_cell_formula_units_Z            2
loop_
_atom_site_label
_atom_site_type_symbol
_atom_site_fract_x
_atom_site_fract_y
_atom_site_fract_z
C1 C 1.1333(13) 0.0875(5) -0.1341(4)
C2 C 0.9357(14) 0.1617(5) -0.1317(5)
H1 H 0.8773 0.2012 -0.1865
C3 C 0.8315(12) 0.1734(4) -0.0433(4)
C4 C 0.9198(14) 0.1133(4) 0.0385(5)
C5 C 1.1149(14) 0.0398(4) 0.0350(4)
H2 H 1.1706 -0.0006 0.0894
C6 C 1.2249(13) 0.0289(4) -0.0536(5)
H3 H 1.3608 -0.0183 -0.0580
C7 C 0.6219(13) 0.2124(4) 0.0973(5)
C8 C 0.6317(12) 0.2413(4) -0.0083(5)
C9 C 0.4986(16) 0.1695(5) 0.4284(5)
C10 C 0.5707(15) 0.1689(5) 0.3348(5)
H4 H 0.7017 0.1245 0.3182
C11 C 0.4432(13) 0.2363(4) 0.2649(5)
C12 C 0.2458(14) 0.3006(4) 0.2955(5)
C13 C 0.1762(17) 0.3000(5) 0.3906(6)
H5 H 0.0461 0.3438 0.4088
C14 C 0.3055(16) 0.2327(5) 0.4567(6)
H6 H 0.2623 0.2299 0.5209
C15 C 0.4530(13) 0.2577(5) 0.1627(5)
C16 C 0.2674(15) 0.3336(5) 0.1363(5)
H7 H 0.2324 0.3629 0.0740
N1 N 0.7877(12) 0.1374(3) 0.1217(4)
N2 N 0.1438(12) 0.3586(4) 0.2165(4)
H8 H 0.0208 0.4039 0.2171
N3 N 0.4824(11) 0.3100(3) -0.0515(4)
O1 O 0.5183(10) 0.3213(3) -0.1495(3)
H9 H 0.4186 0.3660 -0.1746
Br1 Br 1.27941(13) 0.06750(6) -0.25495(4)
Br2 Br 0.6718(2) 0.07792(9) 0.52353(5)
C17 C 1.061(2) -0.1325(8) 0.3609(7)
H10 H 1.2277 -0.1339 0.4092
H11 H 1.0565 -0.1887 0.3185
H12 H 0.8994 -0.1333 0.3942
C18 C 1.0575(18) -0.0452(6) 0.3020(6)
H13 H 1.0665 0.0115 0.3451
H14 H 1.2214 -0.0443 0.2689
O2 O 0.8144(11) -0.0396(3) 0.2303(3)
H15 H 0.8188 0.0105 0.1976
loop_
_geom_bond_atom_site_label_1
_geom_bond_atom_site_label_2
_geom_bond_site_symmetry_1
_geom_bond_site_symmetry_2
C1 C2 1_555 1_555
C2 H1 1_555 1_555
C3 C2 1_555 1_555
C4 C3 1_555 1_555
C5 C4 1_555 1_555
H2 C5 1_555 1_555
C6 C1 1_555 1_555
H3 C6 1_555 1_555
C7 C8 1_555 1_555
C8 C3 1_555 1_555
C9 C10 1_555 1_555
C10 H4 1_555 1_555
C11 C10 1_555 1_555
C12 C11 1_555 1_555
C13 C12 1_555 1_555
H5 C13 1_555 1_555
C14 C9 1_555 1_555
H6 C14 1_555 1_555
C15 C7 1_555 1_555
C16 C15 1_555 1_555
H7 C16 1_555 1_555
N1 C4 1_555 1_555
N2 C12 1_555 1_555
H8 N2 1_555 1_555
N3 C8 1_555 1_555
O1 N3 1_555 1_555
H9 O1 1_555 1_555
Br1 C1 1_555 1_555
Br2 C9 1_555 1_555
C17 H10 1_555 1_555
H11 C17 1_555 1_555
H12 C17 1_555 1_555
C18 C17 1_555 1_555
H13 C18 1_555 1_555
H14 C18 1_555 1_555
O2 C18 1_555 1_555
H15 O2 1_555 1_555
C5 C6 1_555 1_555
C7 N1 1_555 1_555
C11 C15 1_555 1_555
C13 C14 1_555 1_555
C16 N2 1_555 1_555

#END
