
#######################################################################
#
#                 Cambridge Crystallographic Data Centre
#                                CCDC 
#
#######################################################################
#
# If this CIF has been generated from an entry in the Cambridge 
# Structural Database, then it will include bibliographic, chemical, 
# crystal, experimental, refinement or atomic coordinate data resulting 
# from the CCDC's data processing and validation procedures.
#
#######################################################################

data_YOCJAD
_chemical_formula_moiety         'C32 H24 Cl10 O6 P2 S2,2(C1 H1 Cl3)'
_chemical_name_systematic        
'1,3,7,9,11,17,19,23,25,27-Decachloro-14,15,30,31-tetrahydro-5H,13H,21H,29H-tetrabenzo[h,k,t,w][1,3,7,13,15,19,2,14]hexaoxadiphosphacyclotetracosine 11,27-disulfide chloroform solvate'
_symmetry_cell_setting           triclinic
_symmetry_space_group_name_H-M   'P -1'
_symmetry_Int_Tables_number      2
_space_group_name_Hall           '-P 1'
loop_
_symmetry_equiv_pos_site_id
_symmetry_equiv_pos_as_xyz
1 x,y,z
2 -x,-y,-z
_cell_length_a                   8.3269(6)
_cell_length_b                   9.8261(7)
_cell_length_c                   15.8216(10)
_cell_angle_alpha                94.680(2)
_cell_angle_beta                 102.939(4)
_cell_angle_gamma                94.898(2)
_cell_volume                     1250.28
_cell_formula_units_Z            1
loop_
_atom_site_label
_atom_site_type_symbol
_atom_site_fract_x
_atom_site_fract_y
_atom_site_fract_z
Cl1 Cl 0.28695(13) 0.05125(11) 0.44776(8)
P1 P 0.12212(11) 0.18667(10) 0.42180(6)
O1 O -0.0456(3) 0.0880(2) 0.39378(14)
O2 O -0.1887(3) -0.2905(2) 0.25284(14)
O3 O -0.1097(3) -0.2458(3) 0.48508(17)
Cl2 Cl -0.30630(14) 0.25036(11) 0.43291(7)
Cl3 Cl -0.58166(13) 0.13898(13) 0.09108(8)
Cl4 Cl -0.00478(14) -0.25156(11) -0.08108(6)
Cl5 Cl -0.30915(14) -0.53510(10) 0.12504(7)
S1 S 0.16576(14) 0.31021(11) 0.34271(7)
C1 C -0.1698(4) 0.1020(3) 0.3204(2)
C2 C -0.3011(4) 0.1741(4) 0.3309(2)
C3 C -0.4303(4) 0.1858(4) 0.2605(3)
H1 H -0.5188 0.2342 0.2669
C4 C -0.4230(4) 0.1236(4) 0.1810(3)
C5 C -0.2946(4) 0.0489(3) 0.1703(2)
H2 H -0.2954 0.0061 0.1155
C6 C -0.1648(4) 0.0369(3) 0.2400(2)
C7 C -0.0197(4) -0.0402(3) 0.2299(2)
H3 H 0.0649 0.0230 0.2165
H4 H 0.0273 -0.0740 0.2851
C8 C -0.0644(4) -0.1598(3) 0.1597(2)
C9 C -0.0228(4) -0.1522(3) 0.0801(2)
H5 H 0.0345 -0.0724 0.0694
C10 C -0.0652(4) -0.2612(4) 0.0168(2)
C11 C -0.1524(4) -0.3801(4) 0.0295(2)
H6 H -0.1823 -0.4533 -0.0140
C12 C -0.1944(4) -0.3878(3) 0.1087(2)
C13 C -0.1475(4) -0.2804(3) 0.1739(2)
C14 C -0.0774(5) -0.3652(4) 0.3116(3)
H7 H 0.0172 -0.3033 0.3441
H8 H -0.0373 -0.4369 0.2785
C15 C -0.1668(6) -0.4268(4) 0.3727(3)
H9 H -0.0899 -0.4752 0.4117
H10 H -0.2538 -0.4947 0.3390
C16 C -0.2436(6) -0.3318(5) 0.4272(3)
H11 H -0.3158 -0.2767 0.3906
H12 H -0.3083 -0.3836 0.4600
Cl1A Cl -0.28695(13) -0.05125(11) 0.55224(8)
P1A P -0.12212(11) -0.18667(10) 0.57820(6)
O1A O 0.0456(3) -0.0880(2) 0.60622(14)
O2A O 0.1887(3) 0.2905(2) 0.74716(14)
O3A O 0.1097(3) 0.2458(3) 0.51492(17)
Cl2A Cl 0.30630(14) -0.25036(11) 0.56709(7)
Cl3A Cl 0.58166(13) -0.13898(13) 0.90892(8)
Cl4A Cl 0.00478(14) 0.25156(11) 1.08108(6)
Cl5A Cl 0.30915(14) 0.53510(10) 0.87496(7)
S1A S -0.16576(14) -0.31021(11) 0.65729(7)
C1A C 0.1698(4) -0.1020(3) 0.6796(2)
C2A C 0.3011(4) -0.1741(4) 0.6691(2)
C3A C 0.4303(4) -0.1858(4) 0.7395(3)
H1A H 0.5188 -0.2342 0.7331
C4A C 0.4230(4) -0.1236(4) 0.8190(3)
C5A C 0.2946(4) -0.0489(3) 0.8297(2)
H2A H 0.2954 -0.0061 0.8845
C6A C 0.1648(4) -0.0369(3) 0.7600(2)
C7A C 0.0197(4) 0.0402(3) 0.7701(2)
H3A H -0.0649 -0.0230 0.7835
H4A H -0.0273 0.0740 0.7149
C8A C 0.0644(4) 0.1598(3) 0.8403(2)
C9A C 0.0228(4) 0.1522(3) 0.9199(2)
H5A H -0.0345 0.0724 0.9306
C10A C 0.0652(4) 0.2612(4) 0.9832(2)
C11A C 0.1524(4) 0.3801(4) 0.9705(2)
H6A H 0.1823 0.4533 1.0140
C12A C 0.1944(4) 0.3878(3) 0.8913(2)
C13A C 0.1475(4) 0.2804(3) 0.8261(2)
C14A C 0.0774(5) 0.3652(4) 0.6884(3)
H7A H -0.0172 0.3033 0.6559
H8A H 0.0373 0.4369 0.7215
C15A C 0.1668(6) 0.4268(4) 0.6273(3)
H9A H 0.0899 0.4752 0.5883
H10A H 0.2538 0.4947 0.6610
C16A C 0.2436(6) 0.3318(5) 0.5728(3)
H11A H 0.3158 0.2767 0.6094
H12A H 0.3083 0.3836 0.5400
C17 C -0.4201(5) -0.7002(4) -0.2060(3)
H13 H -0.5363 -0.6828 -0.2244
Cl6 Cl -0.38612(17) -0.83557(15) -0.27721(9)
Cl7 Cl -0.38717(15) -0.74361(14) -0.10053(8)
Cl8 Cl -0.2974(2) -0.55017(15) -0.21021(11)
loop_
_geom_bond_atom_site_label_1
_geom_bond_atom_site_label_2
_geom_bond_site_symmetry_1
_geom_bond_site_symmetry_2
Cl1 P1 1_555 1_555
P1 O1 1_555 1_555
O1 C1 1_555 1_555
O2 C13 1_555 1_555
O3 C16 1_555 1_555
Cl2 C2 1_555 1_555
Cl3 C4 1_555 1_555
Cl4 C10 1_555 1_555
Cl5 C12 1_555 1_555
S1 P1 1_555 1_555
C1 C2 1_555 1_555
C2 C3 1_555 1_555
C3 H1 1_555 1_555
C4 C3 1_555 1_555
C5 C4 1_555 1_555
H2 C5 1_555 1_555
C6 C1 1_555 1_555
C7 C6 1_555 1_555
H3 C7 1_555 1_555
H4 C7 1_555 1_555
C8 C7 1_555 1_555
C9 C8 1_555 1_555
H5 C9 1_555 1_555
C10 C9 1_555 1_555
C11 C10 1_555 1_555
H6 C11 1_555 1_555
C12 C11 1_555 1_555
C13 C8 1_555 1_555
C14 O2 1_555 1_555
H7 C14 1_555 1_555
H8 C14 1_555 1_555
C15 C14 1_555 1_555
H9 C15 1_555 1_555
H10 C15 1_555 1_555
C16 C15 1_555 1_555
H11 C16 1_555 1_555
H12 C16 1_555 1_555
C17 H13 1_555 1_555
Cl6 C17 1_555 1_555
Cl7 C17 1_555 1_555
Cl8 C17 1_555 1_555
Cl1A P1A 1_555 1_555
P1A O3 1_555 1_555
O1A P1A 1_555 1_555
O2A C13A 1_555 1_555
O3A P1 1_555 1_555
Cl2A C2A 1_555 1_555
Cl3A C4A 1_555 1_555
Cl4A C10A 1_555 1_555
Cl5A C12A 1_555 1_555
S1A P1A 1_555 1_555
C1A O1A 1_555 1_555
C2A C1A 1_555 1_555
C3A C2A 1_555 1_555
H1A C3A 1_555 1_555
C4A C3A 1_555 1_555
C5A C4A 1_555 1_555
H2A C5A 1_555 1_555
C6A C1A 1_555 1_555
C7A C6A 1_555 1_555
H3A C7A 1_555 1_555
H4A C7A 1_555 1_555
C8A C7A 1_555 1_555
C9A C8A 1_555 1_555
H5A C9A 1_555 1_555
C10A C9A 1_555 1_555
C11A C10A 1_555 1_555
H6A C11A 1_555 1_555
C12A C11A 1_555 1_555
C13A C8A 1_555 1_555
C14A O2A 1_555 1_555
H7A C14A 1_555 1_555
H8A C14A 1_555 1_555
C15A C14A 1_555 1_555
H9A C15A 1_555 1_555
H10A C15A 1_555 1_555
C16A O3A 1_555 1_555
H11A C16A 1_555 1_555
H12A C16A 1_555 1_555
C5 C6 1_555 1_555
C12 C13 1_555 1_555
C5A C6A 1_555 1_555
C12A C13A 1_555 1_555
C15A C16A 1_555 1_555

#END
