
#######################################################################
#
#                 Cambridge Crystallographic Data Centre
#                                CCDC 
#
#######################################################################
#
# If this CIF has been generated from an entry in the Cambridge 
# Structural Database, then it will include bibliographic, chemical, 
# crystal, experimental, refinement or atomic coordinate data resulting 
# from the CCDC's data processing and validation procedures.
#
#######################################################################

data_YOCJIL
_chemical_formula_moiety         'C15 H10 Cl5 O3 P1 S1'
_chemical_name_systematic        
'2,4,6,11,13-Pentachloro-8,9-dihydro-15H-dibenzo[g,j][1,3,6,2]trioxaphosphacycloundecine 6-sulfide'
_symmetry_cell_setting           triclinic
_symmetry_space_group_name_H-M   'P -1'
_symmetry_Int_Tables_number      2
_space_group_name_Hall           '-P 1'
loop_
_symmetry_equiv_pos_site_id
_symmetry_equiv_pos_as_xyz
1 x,y,z
2 -x,-y,-z
_cell_length_a                   8.8145(10)
_cell_length_b                   10.8876(10)
_cell_length_c                   11.8022(10)
_cell_angle_alpha                101.863(7)
_cell_angle_beta                 111.921(2)
_cell_angle_gamma                108.376(4)
_cell_volume                     927.519
_cell_formula_units_Z            2
loop_
_atom_site_label
_atom_site_type_symbol
_atom_site_fract_x
_atom_site_fract_y
_atom_site_fract_z
P1 P -0.24392(7) -0.59830(5) 0.08762(5)
S1 S -0.18280(7) -0.74160(5) 0.12846(5)
Cl1 Cl 0.04915(7) 0.05952(5) 0.20208(5)
Cl2 Cl -0.42034(7) -0.03677(5) 0.39437(5)
Cl3 Cl -0.33769(7) -0.58123(6) 0.64956(5)
Cl4 Cl -0.62351(7) -0.78427(5) 0.12365(5)
Cl5 Cl -0.44098(7) -0.65273(5) -0.09419(4)
O1 O -0.32306(17) -0.52710(13) 0.16929(12)
O2 O -0.08042(17) -0.47457(13) 0.10075(12)
O3 O 0.11303(17) -0.17654(14) 0.27876(13)
C1 C -0.0151(2) -0.14486(19) 0.30064(17)
C2 C -0.0615(3) -0.03986(19) 0.26893(18)
C3 C -0.1868(3) -0.00755(19) 0.29549(18)
H1 H -0.2198 0.0594 0.2701
C4 C -0.2620(3) -0.07676(19) 0.36068(18)
C5 C -0.2144(2) -0.17717(19) 0.39778(17)
H2 H -0.2644 -0.2210 0.4435
C6 C -0.0926(2) -0.21319(18) 0.36749(17)
C7 C -0.0340(3) -0.31986(19) 0.41139(18)
H3 H 0.0141 -0.3548 0.3570
H4 H 0.0630 -0.2741 0.5012
C8 C -0.1854(2) -0.44210(19) 0.40393(18)
C9 C -0.1930(3) -0.4540(2) 0.51669(18)
H5 H -0.1057 -0.3857 0.5984
C10 C -0.3312(3) -0.5681(2) 0.50721(19)
C11 C -0.4627(3) -0.6716(2) 0.38833(19)
H6 H -0.5529 -0.7485 0.3838
C12 C -0.4571(3) -0.6583(2) 0.27572(18)
C13 C -0.3198(3) -0.54424(19) 0.28429(18)
C14 C -0.0978(3) -0.35922(19) 0.05995(19)
H7 H -0.1958 -0.3436 0.0690
H8 H -0.1251 -0.3814 -0.0314
C15 C 0.0769(3) -0.2317(2) 0.14478(19)
H9 H 0.1753 -0.2534 0.1443
H10 H 0.0750 -0.1605 0.1073
loop_
_geom_bond_atom_site_label_1
_geom_bond_atom_site_label_2
_geom_bond_site_symmetry_1
_geom_bond_site_symmetry_2
P1 S1 1_555 1_555
Cl1 C2 1_555 1_555
Cl2 C4 1_555 1_555
Cl3 C10 1_555 1_555
Cl4 C12 1_555 1_555
Cl5 P1 1_555 1_555
O1 P1 1_555 1_555
O2 P1 1_555 1_555
O3 C1 1_555 1_555
C1 C2 1_555 1_555
C2 C3 1_555 1_555
C3 H1 1_555 1_555
C4 C3 1_555 1_555
C5 C4 1_555 1_555
H2 C5 1_555 1_555
C6 C1 1_555 1_555
C7 C6 1_555 1_555
H3 C7 1_555 1_555
H4 C7 1_555 1_555
C8 C7 1_555 1_555
C9 C8 1_555 1_555
H5 C9 1_555 1_555
C10 C9 1_555 1_555
C11 C10 1_555 1_555
H6 C11 1_555 1_555
C12 C11 1_555 1_555
C13 O1 1_555 1_555
C14 O2 1_555 1_555
H7 C14 1_555 1_555
H8 C14 1_555 1_555
C15 O3 1_555 1_555
H9 C15 1_555 1_555
H10 C15 1_555 1_555
C5 C6 1_555 1_555
C8 C13 1_555 1_555
C12 C13 1_555 1_555
C14 C15 1_555 1_555

#END
