
#######################################################################
#
#                 Cambridge Crystallographic Data Centre
#                                CCDC 
#
#######################################################################
#
# If this CIF has been generated from an entry in the Cambridge 
# Structural Database, then it will include bibliographic, chemical, 
# crystal, experimental, refinement or atomic coordinate data resulting 
# from the CCDC's data processing and validation procedures.
#
#######################################################################

data_YOCPUB
_chemical_name_common            
"5,O$6!:11,O$10!:17,O$18!:23,O$22!-tetrakis(epithiomethano)-12,16:24,4-O,O'-bis(methylene)-C-n-pentylcalix(4)resorcinarene dichloromethane clathrate"
_chemical_formula_moiety         'C54 H64 O8 S4,C1 H2 Cl2'
_chemical_name_systematic        
'2,8,13,14-Tetrapentyl-4,6,10,12-tetraoxa-1,3,7,9-tetrakis((4,5,7)benzothioxola)tricyclo(7.3.1.1^3,7^)tetradecaphane dichloromethane clathrate'
_symmetry_cell_setting           triclinic
_symmetry_space_group_name_H-M   'P -1'
_symmetry_Int_Tables_number      2
_space_group_name_Hall           '-P 1'
loop_
_symmetry_equiv_pos_site_id
_symmetry_equiv_pos_as_xyz
1 x,y,z
2 -x,-y,-z
_cell_length_a                   12.755
_cell_length_b                   12.956
_cell_length_c                   19.716
_cell_angle_alpha                83.361
_cell_angle_beta                 73.574
_cell_angle_gamma                61.416
_cell_volume                     2743.51
_exptl_crystal_colour            colorless
_cell_formula_units_Z            2
loop_
_atom_site_label
_atom_site_type_symbol
_atom_site_fract_x
_atom_site_fract_y
_atom_site_fract_z
C1 C -0.0257(17) 0.9055(17) 0.0931(10)
C2 C -0.0910(14) 1.0019(14) 0.1347(9)
C3 C -0.0140(12) 1.0082(11) 0.1835(6)
C4 C 0.0726(9) 1.0587(9) 0.1467(5)
C5 C 0.1600(7) 1.0536(7) 0.1900(4)
S1 S -0.3622(2) 1.4178(2) 0.3494(1)
C6 C -0.2983(7) 1.2578(8) 0.3544(5)
O1 O -0.1687(5) 1.2084(5) 0.3452(3)
O2 O 0.1036(5) 0.980(5) 0.3958(3)
C7 C 0.1542(9) 0.8869(8) 0.4432(5)
S2 S 0.2569(3) 0.9143(2) 0.4781(1)
O3 O 0.4326(5) 1.0271(5) 0.4252(3)
C8 C 0.4027(8) 1.1268(8) 0.4643(4)
O4 O 0.4739(5) 1.1840(5) 0.4303(3)
S3 S 0.3825(2) 1.4237(2) 0.5001(1)
C9 C 0.3152(9) 1.5786(7) 0.4787(5)
O5 O 0.2871(5) 1.5965(5) 0.4121(3)
C10 C 0.4904(16) 1.6936(14) -0.0362(8)
C11 C 0.4055(26) 1.6993(31) 0.0358(10)
C12 C 0.413(19) 1.6952(20) 0.0899(9)
C13 C 0.3183(11) 1.7012(10) 0.1601(6)
C14 C 0.3552(8) 1.5865(8) 0.1965(5)
O6 O 0.0428(5) 1.8024(5) 0.3407(3)
C15 C -0.0750(8) 1.8908(9) 0.3771(5)
S4 S -0.1960(2) 1.8910(2) 0.3465(1)
O7 O -0.2280(5) 1.7386(5) 0.2515(3)
C16 C -0.2927(7) 1.6788(8) 0.2918(5)
O8 O -0.2804(5) 1.5871(5) 0.2535(3)
C17 C 0.0705(7) 1.4782(7) 0.1017(4)
C18 C 0.0727(9) 1.5782(8) 0.0525(4)
C19 C 0.1751(8) 1.5371(8) -0.0151(5)
C20 C 0.1701(10) 1.6401(10) -0.0638(5)
C21 C 0.2766(12) 1.6082(13) -0.1266(6)
C22 C 0.7096(15) 0.8389(13) 0.0073(8)
C23 C 0.6704(11) 0.8522(9) 0.0855(6)
C24 C 0.6113(9) 0.9849(8) 0.1079(5)
C25 C 0.5715(8) 1.0021(8) 0.1884(5)
C26 C 0.5109(7) 1.1318(7) 0.2119(4)
H1 H -0.073 0.897 0.058
H2 H 0.037 0.819 0.107
H3 H 0.026 0.951 0.067
H4 H -0.116 1.079 0.102
H5 H -0.174 1.001 0.168
H6 H 0.041 0.920 0.199
H7 H -0.077 1.062 0.230
H8 H 0.129 1.010 0.098
H9 H 0.017 1.150 0.136
H10 H 0.210 1.100 0.162
H11 H 0.224 0.963 0.195
C27 C 0.0910(7) 1.1101(6) 0.2644(4)
H12 H 0.036 1.068 0.293
C28 C 0.0270(3) 1.3219(4) 0.2194(2)
C29 C -0.0627(3) 1.4382(4) 0.2171(2)
C30 C -0.1845(3) 1.4745(4) 0.2567(2)
C31 C -0.2167(3) 1.3945(4) 0.2987(2)
C32 C -0.1271(3) 1.2782(4) 0.3011(2)
C33 C -0.0052(3) 1.2419(4) 0.2614(2)
H13 H 0.121 1.294 0.189
H14 H -0.316 1.225 0.313
H15 H -0.340 1.235 0.405
H16 H 0.080 0.885 0.486
H17 H 0.206 0.804 0.415
C34 C 0.2711(5) 1.1315(4) 0.2822(2)
C35 C 0.1856(5) 1.0886(4) 0.3057(2)
C36 C 0.1857(5) 1.0234(4) 0.3672(2)
C37 C 0.2713(5) 1.0011(4) 0.4052(2)
C38 C 0.3567(5) 1.0440(4) 0.3817(2)
C39 C 0.3566(5) 1.1092(4) 0.3202(2)
H18 H 0.271 1.182 0.235
H19 H 0.419 1.100 0.516
H20 H 0.306 1.188 0.470
C40 C 0.3609(4) 1.3719(4) 0.2825(2)
C41 C 0.3173(4) 1.4825(4) 0.3119(2)
C42 C 0.3243(4) 1.4922(4) 0.3801(2)
C43 C 0.3748(4) 1.3914(4) 0.4188(2)
C44 C 0.4184(4) 1.2808(4) 0.3893(2)
C45 C 0.4114(4) 1.2711(4) 0.3212(2)
H21 H 0.356 1.364 0.230
H22 H 0.380 1.611 0.477
H23 H 0.231 1.627 0.519
H24 H 0.447 1.726 -0.079
H25 H 0.557 1.602 -0.046
H26 H 0.536 1.743 -0.032
H27 H 0.376 1.635 0.032
H28 H 0.330 1.787 0.036
H29 H 0.488 1.609 0.090
H30 H 0.435 1.762 0.096
H31 H 0.229 1.729 0.150
H32 H 0.311 1.765 0.194
H33 H 0.357 1.524 0.164
H34 H 0.446 1.555 0.204
C46 C 0.2631(7) 1.5979(7) 0.2702(4)
H35 H 0.252 1.669 0.300
C47 C 0.1126(4) 1.5655(3) 0.2212(2)
C48 C -0.0069(4) 1.5992(3) 0.2171(2)
C49 C -0.1068(4) 1.6983(3) 0.2549(2)
C50 C -0.0872(4) 1.7638(3) 0.2967(2)
C51 C 0.0323(4) 1.7301(3) 0.3009(2)
C52 C 0.1322(4) 1.6310(3) 0.2631(2)
H36 H 0.190 1.489 0.192
H37 H -0.090 1.874 0.433
H38 H -0.078 1.973 0.368
H39 H -0.390 1.741 0.309
H40 H -0.257 1.642 0.337
C53 C -0.0327(7) 1.5298(7) 0.1708(4)
H41 H -0.112 1.589 0.152
H42 H 0.053 1.421 0.076
H43 H 0.159 1.428 0.114
H44 H 0.084 1.637 0.081
H45 H -0.015 1.624 0.039
H46 H 0.263 1.494 -0.002
H47 H 0.167 1.475 -0.043
H48 H 0.166 1.707 -0.033
H49 H 0.087 1.675 -0.082
H50 H 0.267 1.678 -0.164
H51 H 0.278 1.536 -0.150
H52 H 0.362 1.578 -0.112
H53 H 0.749 0.745 -0.001
H54 H 0.780 0.866 -0.014
H55 H 0.635 0.885 -0.018
H56 H 0.603 0.821 0.107
H57 H 0.750 0.801 0.106
H58 H 0.531 1.035 0.088
H59 H 0.678 1.016 0.086
H60 H 0.506 0.969 0.211
H61 H 0.652 0.953 0.208
H62 H 0.579 1.163 0.195
H63 H 0.436 1.183 0.187
C54 C 0.4593(7) 1.1465(7) 0.2928(4)
H64 H 0.538 1.088 0.313
Cl1 Cl 0.0349(6) 1.2983(5) 0.4649(4)
Cl2 Cl -0.0544(7) 1.5166(7) 0.4099(3)
C55 C 0.0607(14) 1.3892(14) 0.4058(9)
H65 H 0.090 1.351 0.354
H66 H 0.134 1.401 0.415
loop_
_geom_bond_atom_site_label_1
_geom_bond_atom_site_label_2
_geom_bond_site_symmetry_1
_geom_bond_site_symmetry_2
C1 C2 1_555 1_555
C2 C3 1_555 1_555
C3 C4 1_555 1_555
C4 C5 1_555 1_555
C5 H10 1_555 1_555
S1 C6 1_555 1_555
C6 O1 1_555 1_555
O1 C32 1_555 1_555
O2 C7 1_555 1_555
C7 S2 1_555 1_555
S2 C37 1_555 1_555
O3 C8 1_555 1_555
C8 O4 1_555 1_555
O4 C44 1_555 1_555
S3 C9 1_555 1_555
C9 O5 1_555 1_555
O5 C42 1_555 1_555
C10 C11 1_555 1_555
C11 C12 1_555 1_555
C12 C13 1_555 1_555
C13 C14 1_555 1_555
C14 H33 1_555 1_555
O6 C15 1_555 1_555
C15 S4 1_555 1_555
S4 C50 1_555 1_555
O7 C16 1_555 1_555
C16 O8 1_555 1_555
O8 C30 1_555 1_555
C17 C18 1_555 1_555
C18 C19 1_555 1_555
C19 C20 1_555 1_555
C20 C21 1_555 1_555
C21 H50 1_555 1_555
C22 C23 1_555 1_555
C23 C24 1_555 1_555
C24 C25 1_555 1_555
C25 C26 1_555 1_555
C26 H62 1_555 1_555
H1 C1 1_555 1_555
H2 C1 1_555 1_555
H3 C1 1_555 1_555
H4 C2 1_555 1_555
H5 C2 1_555 1_555
H6 C3 1_555 1_555
H7 C3 1_555 1_555
H8 C4 1_555 1_555
H9 C4 1_555 1_555
H11 C5 1_555 1_555
C27 C5 1_555 1_555
H12 C27 1_555 1_555
C28 C29 1_555 1_555
C29 C30 1_555 1_555
C30 C31 1_555 1_555
C31 S1 1_555 1_555
C32 C31 1_555 1_555
C33 C27 1_555 1_555
H13 C28 1_555 1_555
H14 C6 1_555 1_555
H15 C6 1_555 1_555
H16 C7 1_555 1_555
H17 C7 1_555 1_555
C34 C35 1_555 1_555
C35 C27 1_555 1_555
C36 O2 1_555 1_555
C37 C36 1_555 1_555
C38 O3 1_555 1_555
C39 C34 1_555 1_555
H18 C34 1_555 1_555
H19 C8 1_555 1_555
H20 C8 1_555 1_555
C40 C41 1_555 1_555
C41 C42 1_555 1_555
C42 C43 1_555 1_555
C43 S3 1_555 1_555
C44 C43 1_555 1_555
C45 C40 1_555 1_555
H21 C40 1_555 1_555
H22 C9 1_555 1_555
H23 C9 1_555 1_555
H24 C10 1_555 1_555
H25 C10 1_555 1_555
H26 C10 1_555 1_555
H27 C11 1_555 1_555
H28 C11 1_555 1_555
H29 C12 1_555 1_555
H30 C12 1_555 1_555
H31 C13 1_555 1_555
H32 C13 1_555 1_555
H34 C14 1_555 1_555
C46 C14 1_555 1_555
H35 C46 1_555 1_555
C47 C48 1_555 1_555
C48 C49 1_555 1_555
C49 O7 1_555 1_555
C50 C49 1_555 1_555
C51 O6 1_555 1_555
C52 C46 1_555 1_555
H36 C47 1_555 1_555
H37 C15 1_555 1_555
H38 C15 1_555 1_555
H39 C16 1_555 1_555
H40 C16 1_555 1_555
C53 C17 1_555 1_555
H41 C53 1_555 1_555
H42 C17 1_555 1_555
H43 C17 1_555 1_555
H44 C18 1_555 1_555
H45 C18 1_555 1_555
H46 C19 1_555 1_555
H47 C19 1_555 1_555
H48 C20 1_555 1_555
H49 C20 1_555 1_555
H51 C21 1_555 1_555
H52 C21 1_555 1_555
H53 C22 1_555 1_555
H54 C22 1_555 1_555
H55 C22 1_555 1_555
H56 C23 1_555 1_555
H57 C23 1_555 1_555
H58 C24 1_555 1_555
H59 C24 1_555 1_555
H60 C25 1_555 1_555
H61 C25 1_555 1_555
H63 C26 1_555 1_555
C54 C26 1_555 1_555
H64 C54 1_555 1_555
Cl1 C55 1_555 1_555
Cl2 C55 1_555 1_555
C55 H65 1_555 1_555
H66 C55 1_555 1_555
C28 C33 1_555 1_555
C29 C53 1_555 1_555
C32 C33 1_555 1_555
C35 C36 1_555 1_555
C37 C38 1_555 1_555
C38 C39 1_555 1_555
C39 C54 1_555 1_555
C41 C46 1_555 1_555
C44 C45 1_555 1_555
C45 C54 1_555 1_555
C47 C52 1_555 1_555
C48 C53 1_555 1_555
C50 C51 1_555 1_555
C51 C52 1_555 1_555

#END
