
#######################################################################
#
#                 Cambridge Crystallographic Data Centre
#                                CCDC 
#
#######################################################################
#
# If this CIF has been generated from an entry in the Cambridge 
# Structural Database, then it will include bibliographic, chemical, 
# crystal, experimental, refinement or atomic coordinate data resulting 
# from the CCDC's data processing and validation procedures.
#
#######################################################################

data_YOCRAJ
_chemical_name_common            
"5,5':11,11':17,17':23,23'-tetrakis(methane-1,2-dithiolato)-bis(6,10:12,16:18,22:24,4-O,O'-tetrakis(methylene)-C-pentylcalix[4]resorcinarene) dimethylacetamide clathrate nitrobenzene solvate"
_chemical_formula_moiety         'C108 H128 O16 S8,C4 H9 N1 O1,4(C6 H5 N1 O2)'
_chemical_name_systematic        
"33,33':34,34':35,35':36,36'-tetrakis(1,3-Dithiapropano)bis(37,38,39,40-tetra-n-pentyl-2,4,10,12,18,20,26,28-octaoxanonacyclo(27.3.1.1^5,9^.1^6,32^.1^8,14^.1^13,17^.1^16,22^.1^21,25^.1^24,30^.)tetraconta-1(32),5,7,9(34),13,17(35),21,25(36),29-nonene) dimethylacetamide clathrate nitrobenzene solvate"
_symmetry_cell_setting           triclinic
_symmetry_space_group_name_H-M   'P -1'
_symmetry_Int_Tables_number      2
_space_group_name_Hall           '-P 1'
loop_
_symmetry_equiv_pos_site_id
_symmetry_equiv_pos_as_xyz
1 x,y,z
2 -x,-y,-z
_cell_length_a                   12.3514
_cell_length_b                   21.501
_cell_length_c                   12.326
_cell_angle_alpha                98.54
_cell_angle_beta                 93.294
_cell_angle_gamma                99.389
_cell_volume                     3182.51
_exptl_crystal_colour            colorless
_cell_formula_units_Z            1
loop_
_atom_site_label
_atom_site_type_symbol
_atom_site_fract_x
_atom_site_fract_y
_atom_site_fract_z
N2 N 0.9599(14) 0.2997(11) 0.0006(17)
O3 O 0.8995(11) 0.3008(7) 0.0801(13)
O4 O 0.9986(15) 0.3385(9) -0.0369(19)
C7 C 0.9452(6) 0.1814(7) 0.0248(5)
C8 C 0.9762(6) 0.1233(7) -0.0154(5)
C9 C 1.0339(6) 0.1177(7) -0.1094(5)
C10 C 1.0606(6) 0.1701(7) -0.1631(5)
C11 C 1.0295(6) 0.2282(7) -0.1229(5)
C12 C 0.9718(6) 0.2338(7) -0.0290(5)
H6 H 0.900 0.186 0.098
H7 H 0.956 0.083 0.026
H8 H 1.058 0.073 -0.140
H9 H 1.105 0.166 -0.236
C13 C 0.4821(30) 0.0295(16) 0.4946(26)
O5 O 0.3866(30) 0.0369(16) 0.4699(24)
N3 N 0.5161(19) 0.0115(10) 0.4876(20)
C13A C 0.5179(30) -0.0295(16) 0.5054(26)
O5A O 0.6134(30) -0.0369(16) 0.5301(24)
N3A N 0.4839(19) -0.0115(10) 0.5124(20)
S1 S 0.1865(2) 0.0895(1) 0.2081(2)
C14 C 0.2165(7) 0.0110(3) 0.2195(6)
S2 S 0.1474(2) -0.0121(1) 0.3350(2)
S3 S 0.7459(23) -0.0074(1) 0.1052(1)
C15 C 0.6341(6) -0.0615(3) 0.1482(6)
S4 S 0.6928(2) -0.1089(1) 0.2325(2)
C16 C 0.7561(9) 0.4609(4) 0.9719(9)
C17 C 0.8201(13) 0.5274(5) 0.9954(11)
C18 C 1.1830(9) 0.3390(6) 0.2404(9)
C19 C 1.2580(12) 0.4029(7) 0.2640(12)
C20 C 0.4101(10) 0.3320(5) -0.0121(9)
C21 C 0.3322(13) 0.3055(7) -0.1033(11)
C22 C 0.4245(13) 0.5018(6) 0.7208(10)
C23 C 0.4714(17) 0.4920(8) 0.8207(13)
O6 O 0.2580(4) 0.1848(2) 0.6163(4)
C24 C 0.2191(6) 0.1440(4) 0.5153(6)
H10 H 0.274 0.110 0.499
H11 H 0.137 0.119 0.524
O7 O 0.2143(4) 0.1772(2) 0.4240(4)
C25 C 0.3073(5) 0.1829(3) 0.3657(5)
C26 C 0.3952(5) 0.2325(3) 0.4033(5)
C27 C 0.4859(5) 0.2391(3) 0.3417(5)
H12 H 0.555 0.277 0.371
C28 C 0.4904(5) 0.1990(3) 0.2453(5)
C29 C 0.4028(6) 0.1495(3) 0.2107(5)
C30 C 0.3078(5) 0.1417(3) 0.2676(5)
H13 H 0.304 0.013 0.234
H14 H 0.186 -0.022 0.146
O8 O 0.4052(4) 0.1073(2) 0.1134(4)
C31 C 0.4737(5) 0.0608(3) 0.1201(6)
H15 H 0.485 0.055 0.205
H16 H 0.433 0.016 0.072
O9 O 0.5797(3) 0.0771(2) 0.0809(3)
C32 C 0.6652(5) 0.1048(3) 0.1622(5)
C33 C 0.6722(5) 0.1675(3) 0.2095(5)
C34 C 0.7586(5) 0.1931(3) 0.2912(5)
H17 H 0.766 0.242 0.330
C35 C 0.8347(5) 0.1569(3) 0.3228(5)
C36 C 0.8244(5) 0.0944(3) 0.2720(5)
C37 C 0.7408(5) 0.0675(3) 0.1886(5)
H18 H 0.588 -0.092 0.077
H19 H 0.580 -0.035 0.194
O10 O 0.9009(4) 0.0577(2) 0.2991(4)
C38 C 0.8832(6) 0.0282(3) 0.3948(5)
H20 H 0.913 -0.017 0.383
H21 H 0.796 0.020 0.404
O11 O 0.9384(4) 0.0665(2) 0.4927(4)
C39 C 0.8799(5) 0.1088(3) 0.5515(5)
C40 C 0.8758(5) 0.1674(3) 0.5222(5)
C41 C 0.8217(5) 0.2090(3) 0.5879(5)
H22 H 0.816 0.255 0.565
C42 C 0.7750(5) 0.1930(3) 0.6815(5)
C43 C 0.7802(5) 0.1331(3) 0.7077(5)
C44 C 0.1680(6) -0.0893(3) 0.3558(5)
O12 O 0.7393(4) 0.1174(2) 0.8060(4)
C45 C 0.6234(6) 0.0975(3) 0.8052(6)
H23 H 0.592 0.076 0.722
H24 H 0.609 0.062 0.859
O13 O 0.5655(3) 0.1480(2) 0.8397(3)
C46 C 0.5235(5) 0.1778(3) 0.7566(5)
C47 C 0.5946(5) 0.2243(3) 0.7160(5)
C48 C 0.5508(5) 0.2565(3) 0.6379(5)
H25 H 0.605 0.293 0.605
C49 C 0.4400(6) 0.2435(3) 0.6012(5)
C50 C 0.3732(6) 0.1965(3) 0.6440(6)
C51 C 0.5877(6) -0.1629(3) 0.2778(6)
C52 C 0.7174(5) 0.2388(3) 0.7545(6)
H26 H 0.727 0.231 0.839
C53 C 0.7707(6) 0.3089(3) 0.7621(6)
H27 H 0.859 0.313 0.779
H28 H 0.753 0.325 0.685
C54 C 0.7265(6) 0.3520(4) 0.8541(6)
H29 H 0.734 0.332 0.929
H30 H 0.641 0.352 0.832
C55 C 0.7883(7) 0.4198(4) 0.8746(7)
H31 H 0.772 0.441 0.803
H32 H 0.875 0.419 0.886
H33 H 0.670 0.464 0.958
H34 H 0.769 0.438 1.043
H35 H 0.789 0.558 1.060
H36 H 0.813 0.546 0.919
H37 H 0.906 0.526 1.017
C56 C 0.9243(6) 0.1825(3) 0.4160(5)
H38 H 0.994 0.159 0.399
C57 C 0.9764(6) 0.2534(3) 0.4250(6)
H39 H 0.912 0.282 0.431
H40 H 1.033 0.267 0.498
C58 C 1.0386(6) 0.2647(4) 0.3238(6)
H41 H 0.979 0.264 0.255
H42 H 1.085 0.227 0.304
C59 C 1.1182(7) 0.3285(4) 0.3426(7)
H43 H 1.072 0.367 0.360
H44 H 1.176 0.330 0.412
H45 H 1.126 0.338 0.170
H46 H 1.231 0.302 0.223
H47 H 1.294 0.404 0.186
H48 H 1.322 0.405 0.329
H49 H 1.216 0.443 0.282
C60 C 0.5873(5) 0.2060(3) 0.1744(5)
H50 H 0.558 0.186 0.090
C61 C 0.6355(6) 0.2765(3) 0.1711(6)
H51 H 0.700 0.278 0.116
H52 H 0.670 0.299 0.253
C62 C 0.5517(7) 0.3153(4) 0.1320(7)
H53 H 0.596 0.361 0.120
H54 H 0.496 0.322 0.196
C63 C 0.4835(7) 0.2857(4) 0.0269(7)
H55 H 0.538 0.274 -0.036
H56 H 0.431 0.243 0.040
H57 H 0.464 0.372 -0.034
H58 H 0.364 0.348 0.056
H59 H 0.278 0.336 -0.130
H60 H 0.284 0.266 -0.072
H61 H 0.374 0.287 -0.172
C64 C 0.3915(6) 0.2756(3) 0.5132(5)
H62 H 0.308 0.280 0.528
C65 C 0.4458(6) 0.3449(3) 0.5155(6)
H63 H 0.534 0.348 0.516
H64 H 0.415 0.362 0.443
C66 C 0.4194(8) 0.3870(4) 0.6185(7)
H65 H 0.458 0.373 0.690
H66 H 0.331 0.379 0.623
C67 C 0.4588(10) 0.4562(6) 0.6187(10)
H67 H 0.548 0.464 0.621
H68 H 0.425 0.469 0.544
H69 H 0.336 0.492 0.721
H70 H 0.450 0.551 0.711
H71 H 0.465 0.525 0.894
H72 H 0.556 0.496 0.802
H73 H 0.441 0.444 0.835
C39A C 0.1201(5) -0.1088(3) 0.4485(5)
O11A O 0.0616(4) -0.0665(2) 0.5073(4)
C38A C 0.1168(6) -0.0282(3) 0.6052(5)
O10A O 0.0991(4) -0.0577(2) 0.7009(4)
C36A C 0.1756(5) -0.0944(3) 0.7280(5)
C35A C 0.1653(5) -0.1569(3) 0.6772(5)
C34A C 0.2414(5) -0.1931(3) 0.7088(5)
C33A C 0.3278(5) -0.1675(3) 0.7905(5)
C32A C 0.3348(5) -0.1048(3) 0.8378(5)
O9A O 0.4203(3) -0.0771(2) 0.9191(3)
C31A C 0.5263(5) -0.0608(3) 0.8799(6)
O8A O 0.5948(4) -0.1073(2) 0.8866(4)
C29A C 0.5972(6) -0.1495(3) 0.7893(5)
C28A C 0.5096(5) -0.1990(3) 0.7547(5)
C27A C 0.5141(5) -0.2391(3) 0.6583(5)
C26A C 0.6048(5) -0.2325(3) 0.5967(5)
C25A C 0.6927(5) -0.1829(3) 0.6343(5)
O7A O 0.7857(4) -0.1772(2) 0.5760(4)
C24A C 0.7809(6) -0.1440(4) 0.4847(6)
O6A O 0.7420(4) -0.1848(2) 0.3837(4)
C50A C 0.6268(6) -0.1965(3) 0.3560(6)
C49A C 0.5600(6) -0.2435(3) 0.3988(5)
C48A C 0.4492(5) -0.2565(3) 0.3621(5)
C47A C 0.4054(5) -0.2243(3) 0.2840(5)
C46A C 0.4765(5) -0.1778(3) 0.2434(5)
O13A O 0.4345(3) -0.1480(2) 0.1603(3)
C45A C 0.3766(6) -0.0975(3) 0.1948(6)
O12A O 0.2607(4) -0.1174(2) 0.1940(4)
C43A C 0.2198(5) -0.1331(3) 0.2923(5)
C42A C 0.2250(5) -0.1930(3) 0.3185(5)
C41A C 0.1783(5) -0.2090(3) 0.4121(5)
C40A C 0.1242(5) -0.1674(3) 0.4778(5)
C56A C 0.0757(6) -0.1825(3) 0.5840(5)
H38A H 0.006 -0.159 0.601
C57A C 0.0236(6) -0.2534(3) 0.5750(6)
H39A H 0.088 -0.282 0.569
H40A H -0.033 -0.267 0.502
C58A C -0.0386(6) -0.2647(4) 0.6762(6)
H41A H 0.021 -0.264 0.745
H42A H -0.085 -0.227 0.696
C59A C -0.1182(7) -0.3285(4) 0.6574(7)
C18A C -0.1830(9) -0.3390(6) 0.7596(9)
C19A C -0.2580(12) -0.4029(7) 0.7360(12)
H47A H -0.294 -0.404 0.814
H48A H -0.322 -0.405 0.671
H49A H -0.216 -0.443 0.718
H45A H -0.126 -0.338 0.830
H46A H -0.231 -0.302 0.777
H43A H -0.072 -0.367 0.640
H44A H -0.176 -0.330 0.588
H22A H 0.184 -0.255 0.435
C52A C 0.2826(5) -0.2388(3) 0.2455(6)
H26A H 0.273 -0.231 0.161
C53A C 0.2293(6) -0.3089(3) 0.2379(6)
H27A H 0.141 -0.313 0.221
H28A H 0.247 -0.325 0.315
C54A C 0.2735(6) -0.3520(4) 0.1459(6)
H29A H 0.266 -0.332 0.071
H30A H 0.359 -0.352 0.168
C55A C 0.2117(7) -0.4198(4) 0.1254(7)
C16A C 0.2439(9) -0.4609(4) 0.0281(9)
C17A C 0.1799(13) -0.5274(5) 0.0046(11)
H35A H 0.211 -0.558 -0.060
H36A H 0.187 -0.546 0.081
H37A H 0.094 -0.526 -0.017
H33A H 0.330 -0.464 0.042
H34A H 0.231 -0.438 -0.043
H31A H 0.228 -0.441 0.197
H32A H 0.125 -0.419 0.114
H23A H 0.408 -0.076 0.278
H24A H 0.391 -0.062 0.141
C44A C 0.8320(6) 0.0893(3) 0.6442(5)
S2A S 0.8526(2) 0.0121(1) 0.6650(2)
C14A C 0.7835(7) -0.0110(3) 0.7805(6)
S1A S 0.8135(2) -0.0895(1) 0.7919(2)
C30A C 0.6922(5) -0.1417(3) 0.7324(5)
H13A H 0.696 -0.013 0.766
H14A H 0.814 0.022 0.854
C51A C 0.4123(6) 0.1629(3) 0.7222(6)
S4A S 0.3072(2) 0.1089(1) 0.7675(2)
C15A C 0.3659(6) 0.0615(3) 0.8518(6)
S3A S 0.2541(23) 0.0074(1) 0.8948(1)
C37A C 0.2592(5) -0.0675(3) 0.8114(5)
H18A H 0.412 0.092 0.923
H19A H 0.420 0.035 0.806
H25A H 0.395 -0.293 0.395
C64A C 0.6085(6) -0.2756(3) 0.4868(5)
H62A H 0.692 -0.280 0.472
C65A C 0.5542(6) -0.3449(3) 0.4845(6)
H63A H 0.466 -0.348 0.484
H64A H 0.585 -0.362 0.557
C66A C 0.5806(8) -0.3870(4) 0.3815(7)
H65A H 0.542 -0.373 0.310
H66A H 0.669 -0.379 0.377
C67A C 0.5412(10) -0.4562(6) 0.3813(10)
C22A C 0.5755(13) -0.5018(6) 0.2792(10)
C23A C 0.5286(17) -0.4920(8) 0.1793(13)
H71A H 0.535 -0.525 0.106
H72A H 0.444 -0.496 0.198
H73A H 0.559 -0.444 0.165
H69A H 0.664 -0.492 0.279
H70A H 0.550 -0.551 0.289
H67A H 0.452 -0.464 0.379
H68A H 0.575 -0.469 0.456
H10A H 0.726 -0.110 0.501
H11A H 0.863 -0.119 0.476
H12A H 0.445 -0.277 0.629
C60A C 0.4127(5) -0.2060(3) 0.8256(5)
H50A H 0.442 -0.186 0.910
C61A C 0.3645(6) -0.2765(3) 0.8289(6)
H51A H 0.300 -0.278 0.884
H52A H 0.330 -0.299 0.747
C62A C 0.4483(7) -0.3153(4) 0.8680(7)
H53A H 0.404 -0.361 0.880
H54A H 0.504 -0.322 0.804
C63A C 0.5165(7) -0.2857(4) 0.9731(7)
C20A C 0.5899(10) -0.3320(5) 1.0121(9)
C21A C 0.6678(13) -0.3055(7) 1.1033(11)
H59A H 0.722 -0.336 1.130
H60A H 0.716 -0.266 1.072
H61A H 0.626 -0.287 1.172
H57A H 0.536 -0.372 1.034
H58A H 0.636 -0.348 0.944
H55A H 0.462 -0.274 1.036
H56A H 0.569 -0.243 0.960
H15A H 0.515 -0.055 0.795
H16A H 0.567 -0.016 0.928
H17A H 0.234 -0.242 0.670
H20A H 0.087 0.017 0.617
H21A H 0.204 -0.020 0.596
O1 O 0.7572(7) 0.3519(4) 0.4514(6)
O2 O 0.7475(8) 0.4332(4) 0.5676(7)
N1 N 0.7763(7) 0.4094(4) 0.4828(8)
C1 C 0.8615(6) 0.5152(4) 0.4491(5)
C2 C 0.9202(6) 0.5547(4) 0.3846(5)
C3 C 0.9565(6) 0.5282(4) 0.2859(5)
C4 C 0.9340(6) 0.4622(4) 0.2517(5)
C5 C 0.8753(6) 0.4228(4) 0.3162(5)
C6 C 0.8390(6) 0.4492(4) 0.4149(5)
H1 H 0.833 0.536 0.526
H2 H 0.938 0.606 0.411
H3 H 1.002 0.559 0.236
H4 H 0.962 0.442 0.175
H5 H 0.858 0.372 0.290
C68? C 0.5782(31) 0.0805(18) 0.4807(38)
N4? N 0.4967(31) 0.0206(16) 0.4650(25)
C69? C 0.3855(32) 0.0311(20) 0.4303(34)
C70? C 0.5887(33) 0.0685(17) 0.4455(33)
C71? C 0.6321(20) -0.0019(12) 0.3929(21)
C72? C 0.5468(17) 0.0260(10) 0.4592(18)
O14? O 0.5369(17) 0.0825(10) 0.4588(20)
C73? C 0.3964(20) 0.0133(12) 0.5716(22)
C74? C 0.5088(25) 0.0791(10) 0.4832(25)
N5? N 1.0542(35) 0.2988(25) -0.1714(41)
O15? O 1.0390(45) 0.3458(26) -0.1145(46)
O16? O 1.0837(34) 0.2769(20) -0.2635(37)
loop_
_geom_bond_atom_site_label_1
_geom_bond_atom_site_label_2
_geom_bond_site_symmetry_1
_geom_bond_site_symmetry_2
O1 N1 1_555 1_555
O2 N1 1_555 1_555
N1 C6 1_555 1_555
C1 C2 1_555 1_555
C2 C3 1_555 1_555
C3 C4 1_555 1_555
C4 C5 1_555 1_555
C5 C6 1_555 1_555
C6 C1 1_555 1_555
H1 C1 1_555 1_555
H2 C2 1_555 1_555
H3 C3 1_555 1_555
H4 C4 1_555 1_555
H5 C5 1_555 1_555
N2 O3 1_555 1_555
O4 N2 1_555 1_555
C7 C8 1_555 1_555
C8 C9 1_555 1_555
C9 C10 1_555 1_555
C10 C11 1_555 1_555
C11 C12 1_555 1_555
C12 N2 1_555 1_555
H6 C7 1_555 1_555
H7 C8 1_555 1_555
H8 C9 1_555 1_555
H9 C10 1_555 1_555
C13 O5 1_555 1_555
N3 C13 1_555 1_555
S1 C14 1_555 1_555
C14 S2 1_555 1_555
S2 C44 1_555 1_555
S3 C15 1_555 1_555
C15 S4 1_555 1_555
S4 C51 1_555 1_555
C16 C17 1_555 1_555
C17 H35 1_555 1_555
C18 C19 1_555 1_555
C19 H47 1_555 1_555
C20 C21 1_555 1_555
C21 H59 1_555 1_555
C22 C23 1_555 1_555
C23 H71 1_555 1_555
O6 C24 1_555 1_555
C24 H10 1_555 1_555
H11 C24 1_555 1_555
O7 C24 1_555 1_555
C25 O7 1_555 1_555
C26 C25 1_555 1_555
C27 C26 1_555 1_555
H12 C27 1_555 1_555
C28 C27 1_555 1_555
C29 C28 1_555 1_555
C30 S1 1_555 1_555
H13 C14 1_555 1_555
H14 C14 1_555 1_555
O8 C29 1_555 1_555
C31 O8 1_555 1_555
H15 C31 1_555 1_555
H16 C31 1_555 1_555
O9 C31 1_555 1_555
C32 O9 1_555 1_555
C33 C32 1_555 1_555
C34 C33 1_555 1_555
H17 C34 1_555 1_555
C35 C34 1_555 1_555
C36 C35 1_555 1_555
C37 S3 1_555 1_555
H18 C15 1_555 1_555
H19 C15 1_555 1_555
O10 C36 1_555 1_555
C38 O10 1_555 1_555
H20 C38 1_555 1_555
H21 C38 1_555 1_555
O11 C38 1_555 1_555
C39 O11 1_555 1_555
C40 C39 1_555 1_555
C41 C40 1_555 1_555
H22 C41 1_555 1_555
C42 C41 1_555 1_555
C43 C42 1_555 1_555
C44 C39A 1_555 1_555
O12 C43 1_555 1_555
C45 O12 1_555 1_555
H23 C45 1_555 1_555
H24 C45 1_555 1_555
O13 C45 1_555 1_555
C46 O13 1_555 1_555
C47 C46 1_555 1_555
C48 C47 1_555 1_555
H25 C48 1_555 1_555
C49 C48 1_555 1_555
C50 O6 1_555 1_555
C51 C50A 1_555 1_555
C52 C42 1_555 1_555
H26 C52 1_555 1_555
C53 C52 1_555 1_555
H27 C53 1_555 1_555
H28 C53 1_555 1_555
C54 C53 1_555 1_555
H29 C54 1_555 1_555
H30 C54 1_555 1_555
C55 C16 1_555 1_555
H31 C55 1_555 1_555
H32 C55 1_555 1_555
H33 C16 1_555 1_555
H34 C16 1_555 1_555
H36 C17 1_555 1_555
H37 C17 1_555 1_555
C56 C35 1_555 1_555
H38 C56 1_555 1_555
C57 C56 1_555 1_555
H39 C57 1_555 1_555
H40 C57 1_555 1_555
C58 C57 1_555 1_555
H41 C58 1_555 1_555
H42 C58 1_555 1_555
C59 C18 1_555 1_555
H43 C59 1_555 1_555
H44 C59 1_555 1_555
H45 C18 1_555 1_555
H46 C18 1_555 1_555
H48 C19 1_555 1_555
H49 C19 1_555 1_555
C60 C28 1_555 1_555
H50 C60 1_555 1_555
C61 C60 1_555 1_555
H51 C61 1_555 1_555
H52 C61 1_555 1_555
C62 C61 1_555 1_555
H53 C62 1_555 1_555
H54 C62 1_555 1_555
C63 C20 1_555 1_555
H55 C63 1_555 1_555
H56 C63 1_555 1_555
H57 C20 1_555 1_555
H58 C20 1_555 1_555
H60 C21 1_555 1_555
H61 C21 1_555 1_555
C64 C26 1_555 1_555
H62 C64 1_555 1_555
C65 C64 1_555 1_555
H63 C65 1_555 1_555
H64 C65 1_555 1_555
C66 C65 1_555 1_555
H65 C66 1_555 1_555
H66 C66 1_555 1_555
C67 C22 1_555 1_555
H67 C67 1_555 1_555
H68 C67 1_555 1_555
H69 C22 1_555 1_555
H70 C22 1_555 1_555
H72 C23 1_555 1_555
H73 C23 1_555 1_555
C13A C13 1_555 1_555
O5A C13A 1_555 1_555
N3A C13 1_555 1_555
C39A O11A 1_555 1_555
O11A C38A 1_555 1_555
C38A O10A 1_555 1_555
O10A C36A 1_555 1_555
C36A C35A 1_555 1_555
C35A C34A 1_555 1_555
C34A C33A 1_555 1_555
C33A C32A 1_555 1_555
C32A O9A 1_555 1_555
O9A C31A 1_555 1_555
C31A O8A 1_555 1_555
O8A C29A 1_555 1_555
C29A C28A 1_555 1_555
C28A C27A 1_555 1_555
C27A C26A 1_555 1_555
C26A C25A 1_555 1_555
C25A O7A 1_555 1_555
O7A C24A 1_555 1_555
C24A O6A 1_555 1_555
O6A C50A 1_555 1_555
C50A C49A 1_555 1_555
C49A C48A 1_555 1_555
C48A C47A 1_555 1_555
C47A C46A 1_555 1_555
C46A C51 1_555 1_555
O13A C46A 1_555 1_555
C45A O13A 1_555 1_555
O12A C45A 1_555 1_555
C43A C44 1_555 1_555
C42A C43A 1_555 1_555
C41A C42A 1_555 1_555
C40A C39A 1_555 1_555
C56A C35A 1_555 1_555
H38A C56A 1_555 1_555
C57A C56A 1_555 1_555
H39A C57A 1_555 1_555
H40A C57A 1_555 1_555
C58A C57A 1_555 1_555
H41A C58A 1_555 1_555
H42A C58A 1_555 1_555
C59A C58A 1_555 1_555
C18A C59A 1_555 1_555
C19A C18A 1_555 1_555
H47A C19A 1_555 1_555
H48A C19A 1_555 1_555
H49A C19A 1_555 1_555
H45A C18A 1_555 1_555
H46A C18A 1_555 1_555
H43A C59A 1_555 1_555
H44A C59A 1_555 1_555
H22A C41A 1_555 1_555
C52A C47A 1_555 1_555
H26A C52A 1_555 1_555
C53A C52A 1_555 1_555
H27A C53A 1_555 1_555
H28A C53A 1_555 1_555
C54A C53A 1_555 1_555
H29A C54A 1_555 1_555
H30A C54A 1_555 1_555
C55A C54A 1_555 1_555
C16A C55A 1_555 1_555
C17A C16A 1_555 1_555
H35A C17A 1_555 1_555
H36A C17A 1_555 1_555
H37A C17A 1_555 1_555
H33A C16A 1_555 1_555
H34A C16A 1_555 1_555
H31A C55A 1_555 1_555
H32A C55A 1_555 1_555
H23A C45A 1_555 1_555
H24A C45A 1_555 1_555
C44A C39 1_555 1_555
S2A C44A 1_555 1_555
C14A S2A 1_555 1_555
S1A C14A 1_555 1_555
C30A C29A 1_555 1_555
H13A C14A 1_555 1_555
H14A C14A 1_555 1_555
C51A C46 1_555 1_555
S4A C51A 1_555 1_555
C15A S4A 1_555 1_555
S3A C15A 1_555 1_555
C37A C36A 1_555 1_555
H18A C15A 1_555 1_555
H19A C15A 1_555 1_555
H25A C48A 1_555 1_555
C64A C26A 1_555 1_555
H62A C64A 1_555 1_555
C65A C64A 1_555 1_555
H63A C65A 1_555 1_555
H64A C65A 1_555 1_555
C66A C65A 1_555 1_555
H65A C66A 1_555 1_555
H66A C66A 1_555 1_555
C67A C66A 1_555 1_555
C22A C67A 1_555 1_555
C23A C22A 1_555 1_555
H71A C23A 1_555 1_555
H72A C23A 1_555 1_555
H73A C23A 1_555 1_555
H69A C22A 1_555 1_555
H70A C22A 1_555 1_555
H67A C67A 1_555 1_555
H68A C67A 1_555 1_555
H10A C24A 1_555 1_555
H11A C24A 1_555 1_555
H12A C27A 1_555 1_555
C60A C33A 1_555 1_555
H50A C60A 1_555 1_555
C61A C60A 1_555 1_555
H51A C61A 1_555 1_555
H52A C61A 1_555 1_555
C62A C61A 1_555 1_555
H53A C62A 1_555 1_555
H54A C62A 1_555 1_555
C63A C62A 1_555 1_555
C20A C63A 1_555 1_555
C21A C20A 1_555 1_555
H59A C21A 1_555 1_555
H60A C21A 1_555 1_555
H61A C21A 1_555 1_555
H57A C20A 1_555 1_555
H58A C20A 1_555 1_555
H55A C63A 1_555 1_555
H56A C63A 1_555 1_555
H15A C31A 1_555 1_555
H16A C31A 1_555 1_555
H17A C34A 1_555 1_555
H20A C38A 1_555 1_555
H21A C38A 1_555 1_555
C7 C12 1_555 1_555
N3 C13A 1_555 1_555
N3 N3A 1_555 1_555
C25 C30 1_555 1_555
C29 C30 1_555 1_555
C32 C37 1_555 1_555
C33 C60 1_555 1_555
C36 C37 1_555 1_555
C40 C56 1_555 1_555
C43 C44A 1_555 1_555
C47 C52 1_555 1_555
C49 C50 1_555 1_555
C49 C64 1_555 1_555
C50 C51A 1_555 1_555
C54 C55 1_555 1_555
C58 C59 1_555 1_555
C62 C63 1_555 1_555
C66 C67 1_555 1_555
C13A N3A 1_555 1_555
C32A C37A 1_555 1_555
C28A C60A 1_555 1_555
C25A C30A 1_555 1_555
C49A C64A 1_555 1_555
O12A C43A 1_555 1_555
C42A C52A 1_555 1_555
C41A C40A 1_555 1_555
C40A C56A 1_555 1_555
S1A C30A 1_555 1_555
S3A C37A 1_555 1_555

#END
