
#######################################################################
#
#                 Cambridge Crystallographic Data Centre
#                                CCDC 
#
#######################################################################
#
# If this CIF has been generated from an entry in the Cambridge 
# Structural Database, then it will include bibliographic, chemical, 
# crystal, experimental, refinement or atomic coordinate data resulting 
# from the CCDC's data processing and validation procedures.
#
#######################################################################

data_YOCRIS
_chemical_formula_moiety         'C6 H6 N1 O2 1+,C7 H5 O6 S1 1-'
_chemical_name_systematic        
'4-Carboxypyridinium 3-carboxy-4-hydroxybenzenesulfonate'
_symmetry_cell_setting           orthorhombic
_symmetry_space_group_name_H-M   'P 21 21 21'
_symmetry_Int_Tables_number      19
_space_group_name_Hall           'P 2ac 2ab'
loop_
_symmetry_equiv_pos_site_id
_symmetry_equiv_pos_as_xyz
1 x,y,z
2 1/2-x,-y,1/2+z
3 -x,1/2+y,1/2-z
4 1/2+x,1/2-y,-z
_cell_length_a                   6.6358(6)
_cell_length_b                   13.0514(12)
_cell_length_c                   16.7415(14)
_cell_angle_alpha                90
_cell_angle_beta                 90
_cell_angle_gamma                90
_cell_volume                     1449.92
_exptl_crystal_colour            colorless
_exptl_crystal_description       needle
_cell_formula_units_Z            4
loop_
_atom_site_label
_atom_site_type_symbol
_atom_site_fract_x
_atom_site_fract_y
_atom_site_fract_z
C1 C 0.5027(9) 0.7437(4) 0.2884(4)
C2 C 0.4566(8) 0.6435(4) 0.2645(3)
C3 C 0.4291(9) 0.5677(4) 0.3235(3)
H1 H 0.3988 0.5009 0.3082
C4 C 0.4464(9) 0.5908(4) 0.4022(3)
C5 C 0.4945(12) 0.6910(4) 0.4256(4)
H2 H 0.5083 0.7069 0.4794
C6 C 0.5212(12) 0.7655(4) 0.3689(4)
H3 H 0.5524 0.8319 0.3848
C7 C 0.4373(9) 0.6190(4) 0.1788(3)
O1 O 0.3740(8) 0.5263(3) 0.1634(2)
H4 H 0.335(11) 0.517(5) 0.1176(19)
O2 O 0.4714(6) 0.6826(3) 0.1260(2)
O3 O 0.5284(8) 0.8216(3) 0.2371(2)
H5 H 0.524(13) 0.799(5) 0.1914(18)
O4 O 0.5754(7) 0.5082(3) 0.5343(2)
O5 O 0.2154(6) 0.5225(3) 0.5150(2)
O6 O 0.4088(7) 0.3976(2) 0.4391(2)
S1 S 0.4079(2) 0.49700(10) 0.47738(8)
C8 C 0.4478(9) 0.1284(4) 0.6933(4)
C9 C 0.5068(10) 0.2291(5) 0.6931(4)
H6 H 0.5412 0.2611 0.7409
C10 C 0.5153(10) 0.2820(5) 0.6234(4)
H7 H 0.5557 0.3503 0.6230
C11 C 0.4091(10) 0.1365(5) 0.5529(4)
H8 H 0.3762 0.1060 0.5045
C12 C 0.4005(9) 0.0804(4) 0.6229(4)
H9 H 0.3635 0.0117 0.6223
C13 C 0.4301(10) 0.0658(5) 0.7697(4)
N1 N 0.4651(8) 0.2351(4) 0.5553(4)
H10 H 0.480(8) 0.267(4) 0.511(2)
O7 O 0.4546(8) 0.1208(3) 0.8342(3)
H11 H 0.478(13) 0.078(4) 0.870(3)
O8 O 0.3980(8) -0.0253(3) 0.7684(3)
loop_
_geom_bond_atom_site_label_1
_geom_bond_atom_site_label_2
_geom_bond_site_symmetry_1
_geom_bond_site_symmetry_2
C1 C2 1_555 1_555
C2 C3 1_555 1_555
C3 H1 1_555 1_555
C4 C3 1_555 1_555
C5 C4 1_555 1_555
H2 C5 1_555 1_555
C6 C1 1_555 1_555
H3 C6 1_555 1_555
C7 C2 1_555 1_555
O1 C7 1_555 1_555
H4 O1 1_555 1_555
O2 C7 1_555 1_555
O3 C1 1_555 1_555
H5 O3 1_555 1_555
O4 S1 1_555 1_555
O5 S1 1_555 1_555
O6 S1 1_555 1_555
S1 C4 1_555 1_555
C8 C9 1_555 1_555
C9 H6 1_555 1_555
C10 C9 1_555 1_555
H7 C10 1_555 1_555
C11 H8 1_555 1_555
C12 C8 1_555 1_555
H9 C12 1_555 1_555
C13 C8 1_555 1_555
N1 C10 1_555 1_555
H10 N1 1_555 1_555
O7 C13 1_555 1_555
H11 O7 1_555 1_555
O8 C13 1_555 1_555
C5 C6 1_555 1_555
C11 C12 1_555 1_555
C11 N1 1_555 1_555

#END
