
#######################################################################
#
#                 Cambridge Crystallographic Data Centre
#                                CCDC 
#
#######################################################################
#
# If this CIF has been generated from an entry in the Cambridge 
# Structural Database, then it will include bibliographic, chemical, 
# crystal, experimental, refinement or atomic coordinate data resulting 
# from the CCDC's data processing and validation procedures.
#
#######################################################################

data_YOCSAL
_chemical_formula_moiety         'C12 H16 N3 O2,C2 H1 Cl3 O2'
_chemical_name_systematic        
'4,4,5,5-Tetramethyl-2-(4-pyridyl)imidazolidin-1-oxyl-3-oxide trichloroacetic acid solvate'
_symmetry_cell_setting           monoclinic
_symmetry_space_group_name_H-M   'P 21/c'
_symmetry_Int_Tables_number      14
_space_group_name_Hall           '-P 2ybc'
loop_
_symmetry_equiv_pos_site_id
_symmetry_equiv_pos_as_xyz
1 x,y,z
2 -x,1/2+y,1/2-z
3 -x,-y,-z
4 x,1/2-y,1/2+z
_cell_length_a                   10.003(2)
_cell_length_b                   21.036(4)
_cell_length_c                   9.2796(19)
_cell_angle_alpha                90
_cell_angle_beta                 115.33(3)
_cell_angle_gamma                90
_cell_volume                     1764.91
_exptl_crystal_colour            colorless
_exptl_crystal_description       prism
_cell_formula_units_Z            4
loop_
_atom_site_label
_atom_site_type_symbol
_atom_site_fract_x
_atom_site_fract_y
_atom_site_fract_z
Cl1 Cl 0.23783(13) 0.11481(6) 0.16145(14)
Cl2 Cl 0.44021(13) 0.19710(5) 0.40583(14)
Cl3 Cl 0.50692(15) 0.06513(6) 0.41125(15)
C1 C 0.5057(4) 0.1426(2) 0.1725(5)
O2 O 0.5301(4) 0.09179(15) 0.1183(4)
H1 H 0.5706 0.0995 0.0598
O4 O 0.5285(4) 0.19655(16) 0.1466(4)
C7 C 0.4289(4) 0.13093(18) 0.2862(5)
N1 N 1.0715(4) -0.17317(15) 0.4059(4)
O1 O 0.9245(3) -0.03239(13) 0.2203(3)
N2 N 0.9604(3) -0.08379(15) 0.2999(4)
N3 N 1.3320(4) -0.10702(18) 0.0574(4)
C2 C 1.0677(4) -0.12466(18) 0.3092(4)
C3 C 1.1616(4) -0.11841(18) 0.2243(4)
O3 O 1.1539(4) -0.22208(15) 0.4388(4)
C4 C 0.8677(4) -0.11090(19) 0.3775(5)
C5 C 0.9750(4) -0.15972(19) 0.4916(5)
C6 C 1.3255(5) -0.1617(2) 0.1249(5)
H2 H 1.3779 -0.1963 0.1134
C8 C 1.2440(4) -0.16910(19) 0.2113(5)
H3 H 1.2443 -0.2077 0.2604
C9 C 1.1702(5) -0.0613(2) 0.1541(5)
H4 H 1.1178 -0.0260 0.1622
C10 C 0.9050(5) -0.2207(2) 0.5118(6)
H5 H 0.8399 -0.2370 0.4090
H6 H 0.8498 -0.2125 0.5727
H7 H 0.9809 -0.2514 0.5667
C11 C 0.7334(5) -0.1403(2) 0.2419(5)
H8 H 0.7651 -0.1739 0.1936
H9 H 0.6828 -0.1084 0.1636
H10 H 0.6677 -0.1573 0.2832
C12 C 1.0795(5) -0.1329(2) 0.6540(5)
H11 H 1.1223 -0.0940 0.6393
H12 H 1.1566 -0.1631 0.7088
H13 H 1.0252 -0.1247 0.7160
C13 C 1.2570(5) -0.0571(2) 0.0721(5)
H14 H 1.2633 -0.0186 0.0262
C14 C 0.8203(5) -0.0578(2) 0.4560(6)
H15 H 0.9059 -0.0399 0.5413
H16 H 0.7546 -0.0744 0.4976
H17 H 0.7705 -0.0254 0.3786
loop_
_geom_bond_atom_site_label_1
_geom_bond_atom_site_label_2
_geom_bond_site_symmetry_1
_geom_bond_site_symmetry_2
Cl1 C7 1_555 1_555
Cl2 C7 1_555 1_555
Cl3 C7 1_555 1_555
N1 C2 1_555 1_555
O1 N2 1_555 1_555
N2 C2 1_555 1_555
N3 C6 1_555 1_555
C1 O2 1_555 1_555
C2 C3 1_555 1_555
O2 H1 1_555 1_555
C3 C8 1_555 1_555
O3 N1 1_555 1_555
O4 C1 1_555 1_555
C4 N2 1_555 1_555
C5 N1 1_555 1_555
C6 H2 1_555 1_555
C7 C1 1_555 1_555
C8 C6 1_555 1_555
H3 C8 1_555 1_555
C9 C3 1_555 1_555
H4 C9 1_555 1_555
C10 C5 1_555 1_555
H5 C10 1_555 1_555
H6 C10 1_555 1_555
H7 C10 1_555 1_555
C11 C4 1_555 1_555
H8 C11 1_555 1_555
H9 C11 1_555 1_555
H10 C11 1_555 1_555
C12 C5 1_555 1_555
H11 C12 1_555 1_555
H12 C12 1_555 1_555
H13 C12 1_555 1_555
C13 N3 1_555 1_555
H14 C13 1_555 1_555
C14 C4 1_555 1_555
H15 C14 1_555 1_555
H16 C14 1_555 1_555
H17 C14 1_555 1_555
C4 C5 1_555 1_555
C9 C13 1_555 1_555

#END
