
#######################################################################
#
#                 Cambridge Crystallographic Data Centre
#                                CCDC 
#
#######################################################################
#
# If this CIF has been generated from an entry in the Cambridge 
# Structural Database, then it will include bibliographic, chemical, 
# crystal, experimental, refinement or atomic coordinate data resulting 
# from the CCDC's data processing and validation procedures.
#
#######################################################################

data_YOCTEQ
_chemical_formula_moiety         'C17 H19 N3 O2,2(H2 O1)'
_chemical_name_systematic        
'2-(4-Methyl-2-phenylpiperazin-4-ium-1-yl)pyridine-3-carboxylate dihydrate'
_symmetry_cell_setting           monoclinic
_symmetry_space_group_name_H-M   'P 21/n'
_symmetry_Int_Tables_number      14
_space_group_name_Hall           '-P 2yn'
loop_
_symmetry_equiv_pos_site_id
_symmetry_equiv_pos_as_xyz
1 x,y,z
2 1/2-x,1/2+y,1/2-z
3 -x,-y,-z
4 1/2+x,1/2-y,1/2+z
_cell_length_a                   12.730(7)
_cell_length_b                   8.157(4)
_cell_length_c                   16.814(9)
_cell_angle_alpha                90
_cell_angle_beta                 94.031(10)
_cell_angle_gamma                90
_cell_volume                     1741.62
_exptl_crystal_colour            colorless
_exptl_crystal_description       block
_cell_formula_units_Z            4
_exptl_crystal_recrystallization_method methanol/toluene
loop_
_atom_site_label
_atom_site_type_symbol
_atom_site_fract_x
_atom_site_fract_y
_atom_site_fract_z
O1 O 0.23746(11) -0.07865(17) 0.91677(8)
O2 O 0.09369(12) -0.19110(17) 0.85735(9)
N1 N 0.01524(12) 0.33067(19) 0.81432(9)
N2 N 0.09094(11) 0.12896(18) 0.73567(8)
N3 N 0.18394(12) 0.11644(19) 0.58307(8)
H1 H 0.2110 0.2203 0.5847
C1 C 0.14487(17) -0.0721(2) 0.88370(10)
C2 C 0.09270(14) 0.0949(2) 0.88117(10)
C3 C 0.06312(16) 0.1573(2) 0.95305(11)
H2 H 0.0816 0.1015 1.0002
C4 C 0.00669(17) 0.3009(3) 0.95524(12)
H3 H -0.0156 0.3411 1.0030
C5 C -0.01572(17) 0.3828(3) 0.88490(12)
H4 H -0.0543 0.4795 0.8860
C6 C 0.06542(14) 0.1873(2) 0.81196(10)
C7 C 0.20574(14) 0.1119(2) 0.72897(10)
H5 H 0.2362 0.0515 0.7746
H6 H 0.2377 0.2198 0.7296
C8 C 0.23032(16) 0.0240(2) 0.65354(10)
H7 H 0.3060 0.0155 0.6509
H8 H 0.2013 -0.0860 0.6535
C9 C 0.06793(15) 0.1316(2) 0.58939(10)
H9 H 0.0367 0.0231 0.5880
H10 H 0.0375 0.1924 0.5439
C10 C 0.04152(14) 0.2186(2) 0.66603(10)
H11 H 0.0702 0.3300 0.6658
C11 C -0.07784(15) 0.2284(2) 0.66480(10)
C12 C -0.12829(16) 0.3603(3) 0.62727(11)
H12 H -0.0887 0.4409 0.6042
C13 C -0.23716(18) 0.3743(3) 0.62352(13)
H13 H -0.2699 0.4638 0.5981
C14 C -0.29645(18) 0.2561(3) 0.65735(13)
H14 H -0.3693 0.2660 0.6556
C15 C -0.24739(17) 0.1225(3) 0.69391(13)
H15 H -0.2875 0.0418 0.7164
C16 C -0.13856(16) 0.1075(3) 0.69733(11)
H16 H -0.1062 0.0162 0.7215
C17 C 0.20966(18) 0.0401(3) 0.50601(11)
H17 H 0.1818 -0.0693 0.5028
H18 H 0.2847 0.0364 0.5033
H19 H 0.1790 0.1040 0.4624
O3 O 0.40776(15) 0.1829(2) 0.92970(9)
H20 H 0.3615 0.1080 0.9385
H21 H 0.4310 0.1736 0.8827
O4 O 0.01683(14) 0.6489(2) 0.72071(9)
H22 H 0.0391 0.7172 0.7563
H23 H 0.0095 0.5500 0.7353
loop_
_geom_bond_atom_site_label_1
_geom_bond_atom_site_label_2
_geom_bond_site_symmetry_1
_geom_bond_site_symmetry_2
O1 C1 1_555 1_555
O2 C1 1_555 1_555
N1 C5 1_555 1_555
N2 C6 1_555 1_555
N3 H1 1_555 1_555
C1 C2 1_555 1_555
C2 C3 1_555 1_555
C3 H2 1_555 1_555
C4 C3 1_555 1_555
H3 C4 1_555 1_555
C5 C4 1_555 1_555
H4 C5 1_555 1_555
C6 N1 1_555 1_555
C7 N2 1_555 1_555
H5 C7 1_555 1_555
H6 C7 1_555 1_555
C8 N3 1_555 1_555
H7 C8 1_555 1_555
H8 C8 1_555 1_555
C9 N3 1_555 1_555
H9 C9 1_555 1_555
H10 C9 1_555 1_555
C10 N2 1_555 1_555
H11 C10 1_555 1_555
C11 C10 1_555 1_555
C12 C11 1_555 1_555
H12 C12 1_555 1_555
C13 C12 1_555 1_555
H13 C13 1_555 1_555
C14 C13 1_555 1_555
H14 C14 1_555 1_555
C15 C14 1_555 1_555
H15 C15 1_555 1_555
C16 C11 1_555 1_555
H16 C16 1_555 1_555
C17 N3 1_555 1_555
H17 C17 1_555 1_555
H18 C17 1_555 1_555
H19 C17 1_555 1_555
O3 H20 1_555 1_555
H21 O3 1_555 1_555
O4 H22 1_555 1_555
H23 O4 1_555 1_555
C2 C6 1_555 1_555
C7 C8 1_555 1_555
C9 C10 1_555 1_555
C15 C16 1_555 1_555

#END
