
#######################################################################
#
#                 Cambridge Crystallographic Data Centre
#                                CCDC 
#
#######################################################################
#
# If this CIF has been generated from an entry in the Cambridge 
# Structural Database, then it will include bibliographic, chemical, 
# crystal, experimental, refinement or atomic coordinate data resulting 
# from the CCDC's data processing and validation procedures.
#
#######################################################################

data_YOCVIW
_chemical_formula_moiety         'C17 H33 O1 Se1 Si1 1+,Br1 1-'
_chemical_name_systematic        
'((1S,2S,3R,4R)-3-Hydroxy-4,7,7-trimethylbicyclo(2.2.1)heptan-2-yl)(methyl)((E)-3-(trimethylsilyl)prop-2-enyl)selenonium bromide'
_symmetry_cell_setting           monoclinic
_symmetry_space_group_name_H-M   'P 21'
_symmetry_Int_Tables_number      4
_space_group_name_Hall           'P 2yb'
loop_
_symmetry_equiv_pos_site_id
_symmetry_equiv_pos_as_xyz
1 x,y,z
2 -x,1/2+y,-z
_cell_length_a                   7.555(2)
_cell_length_b                   10.023(2)
_cell_length_c                   14.423(3)
_cell_angle_alpha                90
_cell_angle_beta                 101.29(3)
_cell_angle_gamma                90
_cell_volume                     1071.03
_exptl_crystal_colour            colorless
_exptl_crystal_description       block
_cell_formula_units_Z            2
_exptl_crystal_recrystallization_method methanol
loop_
_atom_site_label
_atom_site_type_symbol
_atom_site_fract_x
_atom_site_fract_y
_atom_site_fract_z
Br1 Br 0.32321(7) 1.05851(10) 0.09364(5)
C1 C 0.6248(8) 0.4347(6) 0.3285(4)
H1 H 0.6335 0.3442 0.3079
H2 H 0.5363 0.4400 0.3679
H3 H 0.7399 0.4630 0.3637
C2 C 0.7389(6) 0.5504(10) 0.2095(4)
H4 H 0.8154 0.6083 0.2529
H5 H 0.7085 0.5928 0.1488
H6 H 0.8013 0.4683 0.2036
C3 C 0.5706(8) 0.5219(6) 0.2454(5)
C4 C 0.4232(11) 0.4559(8) 0.1682(5)
H7 H 0.4615 0.3724 0.1428
C5 C 0.3867(6) 0.5695(8) 0.0960(4)
H8 H 0.4822 0.5710 0.0588
C6 C 0.3996(9) 0.6917(8) 0.1552(5)
H9 H 0.4963 0.7496 0.1422
C7 C 0.4459(9) 0.6398(7) 0.2553(4)
C8 C 0.2804(6) 0.5707(9) 0.2761(4)
H10 H 0.1744 0.6264 0.2578
H11 H 0.2955 0.5499 0.3428
C9 C 0.2627(8) 0.4411(7) 0.2161(5)
H12 H 0.2728 0.3619 0.2555
H13 H 0.1499 0.4384 0.1704
C10 C 0.5215(9) 0.7500(7) 0.3273(5)
H14 H 0.6407 0.7741 0.3196
H15 H 0.5262 0.7175 0.3903
H16 H 0.4444 0.8269 0.3166
C11 C 0.2014(9) 0.3828(7) -0.0510(5)
H17 H 0.3020 0.3955 -0.0816
H18 H 0.0971 0.3576 -0.0970
H19 H 0.2294 0.3137 -0.0043
C12 C 0.2030(8) 0.6908(7) -0.0809(4)
H20 H 0.1683 0.7780 -0.0614
H21 H 0.3310 0.6926 -0.0820
C13 C 0.0925(8) 0.6561(7) -0.1810(4)
H22 H -0.0322 0.6663 -0.1918
C14 C 0.1643(8) 0.6141(6) -0.2502(4)
H23 H 0.2893 0.6068 -0.2395
C15 C -0.0572(9) 0.3993(7) -0.3683(5)
H24 H -0.1696 0.4027 -0.3468
H25 H 0.0262 0.3436 -0.3267
H26 H -0.0771 0.3631 -0.4311
C16 C -0.1393(8) 0.6949(7) -0.4057(5)
H27 H -0.2022 0.6764 -0.4689
H28 H -0.0837 0.7813 -0.4039
H29 H -0.2231 0.6937 -0.3636
C17 C 0.1943(7) 0.5796(7) -0.4543(4)
H30 H 0.2631 0.4987 -0.4522
H31 H 0.2746 0.6536 -0.4372
H32 H 0.1259 0.5926 -0.5171
O1 O 0.2297(6) 0.7626(5) 0.1376(3)
H33 H 0.248(10) 0.845(8) 0.125(5)
Se1 Se 0.15165(6) 0.54982(7) 0.01059(4)
Si1 Si 0.03564(18) 0.5673(2) -0.36882(11)
loop_
_geom_bond_atom_site_label_1
_geom_bond_atom_site_label_2
_geom_bond_site_symmetry_1
_geom_bond_site_symmetry_2
C1 H1 1_555 1_555
H2 C1 1_555 1_555
H3 C1 1_555 1_555
C2 H4 1_555 1_555
H5 C2 1_555 1_555
H6 C2 1_555 1_555
C3 C1 1_555 1_555
C4 C3 1_555 1_555
H7 C4 1_555 1_555
C5 C4 1_555 1_555
H8 C5 1_555 1_555
C6 C5 1_555 1_555
H9 C6 1_555 1_555
C7 C3 1_555 1_555
C8 C7 1_555 1_555
H10 C8 1_555 1_555
H11 C8 1_555 1_555
C9 C4 1_555 1_555
H12 C9 1_555 1_555
H13 C9 1_555 1_555
C10 C7 1_555 1_555
H14 C10 1_555 1_555
H15 C10 1_555 1_555
H16 C10 1_555 1_555
C11 H17 1_555 1_555
H18 C11 1_555 1_555
H19 C11 1_555 1_555
C12 H20 1_555 1_555
H21 C12 1_555 1_555
C13 C12 1_555 1_555
H22 C13 1_555 1_555
C14 C13 1_555 1_555
H23 C14 1_555 1_555
C15 H24 1_555 1_555
H25 C15 1_555 1_555
H26 C15 1_555 1_555
C16 H27 1_555 1_555
H28 C16 1_555 1_555
H29 C16 1_555 1_555
C17 H30 1_555 1_555
H31 C17 1_555 1_555
H32 C17 1_555 1_555
O1 C6 1_555 1_555
H33 O1 1_555 1_555
Se1 C5 1_555 1_555
Si1 C14 1_555 1_555
C2 C3 1_555 1_555
C6 C7 1_555 1_555
C8 C9 1_555 1_555
C11 Se1 1_555 1_555
C12 Se1 1_555 1_555
C15 Si1 1_555 1_555
C16 Si1 1_555 1_555
C17 Si1 1_555 1_555

#END
