
#######################################################################
#
#                 Cambridge Crystallographic Data Centre
#                                CCDC 
#
#######################################################################
#
# If this CIF has been generated from an entry in the Cambridge 
# Structural Database, then it will include bibliographic, chemical, 
# crystal, experimental, refinement or atomic coordinate data resulting 
# from the CCDC's data processing and validation procedures.
#
#######################################################################

data_YOCZUN
_chemical_formula_moiety         
'2(C5 H8 N3 O1 1+),C8 H2 F4 O4,C8 F4 O4 2-,2(H2 O1)'
_chemical_name_systematic        
'bis(2-Amino-4-methyl-6-oxo-3,6-dihydropyrimidin-1-ium) 2,3,5,6-tetrafluoroterephthalic acid 2,3,5,6-tetrafluoroterephthalate dihydrate'
_symmetry_cell_setting           monoclinic
_symmetry_space_group_name_H-M   'P 21/n'
_symmetry_Int_Tables_number      14
_space_group_name_Hall           '-P 2yn'
loop_
_symmetry_equiv_pos_site_id
_symmetry_equiv_pos_as_xyz
1 x,y,z
2 1/2-x,1/2+y,1/2-z
3 -x,-y,-z
4 1/2+x,1/2-y,1/2+z
_cell_length_a                   6.1044(4)
_cell_length_b                   12.0203(6)
_cell_length_c                   20.6007(13)
_cell_angle_alpha                90
_cell_angle_beta                 97.195(5)
_cell_angle_gamma                90
_cell_volume                     1499.71
_exptl_crystal_colour            colorless
_exptl_crystal_description       block
_cell_formula_units_Z            2
loop_
_atom_site_label
_atom_site_type_symbol
_atom_site_fract_x
_atom_site_fract_y
_atom_site_fract_z
N1 N 0.0752(3) 0.37821(13) 0.24739(9)
H1 H 0.1521 0.4093 0.2202
O3 O -0.1105(2) 0.53893(12) 0.25430(8)
N2 N 0.0001(3) 0.22296(14) 0.30624(9)
H2 H 0.0319 0.1560 0.3188
N3 N 0.2879(3) 0.22148(14) 0.24336(10)
H3 H 0.3204 0.1543 0.2553
H4 H 0.3641 0.2552 0.2170
C5 C 0.1229(3) 0.27218(16) 0.26525(11)
C6 C -0.1762(3) 0.27566(17) 0.32919(11)
C7 C -0.0905(3) 0.43979(17) 0.27030(11)
C8 C -0.2229(4) 0.38114(17) 0.31130(11)
H5 H -0.3433 0.4165 0.3258
C9 C -0.2986(4) 0.20905(18) 0.37416(12)
H6 H -0.3546 0.1424 0.3524
H7 H -0.4193 0.2522 0.3864
H8 H -0.2005 0.1897 0.4126
O4 O -0.2782(3) 0.67333(15) 0.34753(11)
H9 H -0.1917 0.7286 0.3550
H10 H -0.2284 0.6300 0.3202
F3 F 0.3047(2) 0.82803(10) 0.05511(7)
F4 F 0.6009(2) 0.78629(10) -0.02391(7)
O5 O 0.1756(3) 0.99341(17) 0.13927(10)
C10 C 0.4018(4) 0.91511(18) 0.02911(12)
C11 C 0.5565(4) 0.89339(17) -0.01219(11)
C12 C 0.3401(3) 1.02258(18) 0.04254(11)
C13 C 0.1752(4) 1.0444(2) 0.08937(13)
O6 O 0.0374(3) 1.12358(17) 0.06952(9)
H11 H -0.0473 1.1339 0.0968
F3B F 0.6953(2) 1.17197(10) -0.05511(7)
F4B F 0.3991(2) 1.21371(10) 0.02391(7)
O5B O 0.8244(3) 1.00659(17) -0.13927(10)
C10B C 0.5982(4) 1.08489(18) -0.02911(12)
C11B C 0.4435(4) 1.10661(17) 0.01219(11)
C12B C 0.6599(3) 0.97742(18) -0.04254(11)
C13B C 0.8248(4) 0.9556(2) -0.08937(13)
O6B O 0.9626(3) 0.87642(17) -0.06952(9)
H11B H 1.0473 0.8661 -0.0968
F1 F 0.8111(2) 0.37827(11) 0.07321(7)
F2 F 0.8680(2) 0.42779(11) -0.04777(7)
O1 O 0.5220(3) 0.65953(13) -0.15105(8)
O2 O 0.6534(3) 0.49217(12) -0.16926(8)
C1 C 0.6828(3) 0.46427(17) -0.02567(11)
C2 C 0.5709(4) 0.56223(18) -0.13419(11)
C3 C 0.6524(4) 0.43796(16) 0.03756(12)
C4 C 0.5322(3) 0.52816(16) -0.06574(11)
F1B F 0.1889(2) 0.62173(11) -0.07321(7)
F2B F 0.1320(2) 0.57221(11) 0.04777(7)
O1B O 0.4780(3) 0.34047(13) 0.15105(8)
O2B O 0.3466(3) 0.50783(12) 0.16926(8)
C1B C 0.3172(3) 0.53573(17) 0.02567(11)
C2B C 0.4291(4) 0.43777(18) 0.13419(11)
C3B C 0.3476(4) 0.56204(16) -0.03756(12)
C4B C 0.4678(3) 0.47184(16) 0.06574(11)
loop_
_geom_bond_atom_site_label_1
_geom_bond_atom_site_label_2
_geom_bond_site_symmetry_1
_geom_bond_site_symmetry_2
F1 C3 1_555 1_555
F2 C1 1_555 1_555
O1 C2 1_555 1_555
O2 C2 1_555 1_555
C1 C3 1_555 1_555
C2 C4 1_555 1_555
C3 C4B 1_555 1_555
C4 C1 1_555 1_555
N1 H1 1_555 1_555
O3 C7 1_555 1_555
N2 H2 1_555 1_555
N3 H3 1_555 1_555
H4 N3 1_555 1_555
C5 N1 1_555 1_555
C6 N2 1_555 1_555
C7 N1 1_555 1_555
C8 C6 1_555 1_555
H5 C8 1_555 1_555
C9 C6 1_555 1_555
H6 C9 1_555 1_555
H7 C9 1_555 1_555
H8 C9 1_555 1_555
O4 H9 1_555 1_555
H10 O4 1_555 1_555
F3 C10 1_555 1_555
F4 C11 1_555 1_555
O5 C13 1_555 1_555
C10 C11 1_555 1_555
C11 C12B 1_555 1_555
C12 C10 1_555 1_555
C13 C12 1_555 1_555
O6 C13 1_555 1_555
H11 O6 1_555 1_555
F1B C3B 1_555 1_555
F2B C1B 1_555 1_555
O1B C2B 1_555 1_555
O2B C2B 1_555 1_555
C1B C3B 1_555 1_555
C2B C4B 1_555 1_555
C3B C4 1_555 1_555
C4B C1B 1_555 1_555
F3B C10B 1_555 1_555
F4B C11B 1_555 1_555
O5B C13B 1_555 1_555
C10B C11B 1_555 1_555
C11B C12 1_555 1_555
C12B C10B 1_555 1_555
C13B C12B 1_555 1_555
O6B C13B 1_555 1_555
H11B O6B 1_555 1_555
N2 C5 1_555 1_555
N3 C5 1_555 1_555
C7 C8 1_555 1_555

#END
