
#######################################################################
#
#                 Cambridge Crystallographic Data Centre
#                                CCDC 
#
#######################################################################
#
# If this CIF has been generated from an entry in the Cambridge 
# Structural Database, then it will include bibliographic, chemical, 
# crystal, experimental, refinement or atomic coordinate data resulting 
# from the CCDC's data processing and validation procedures.
#
#######################################################################

data_YOCZOH
_chemical_formula_moiety         '2(C9 H10 N5 1+),C8 H2 F4 O4,C8 F4 O4 2-'
_chemical_name_systematic        
'bis(4-Amino-6-phenyl-1,3,5-triazin-2-aminium) 2,3,5,6-tetrafluoroterephthalic acid 2,3,5,6-tetrafluoroterephthalate'
_symmetry_cell_setting           triclinic
_symmetry_space_group_name_H-M   'P -1'
_symmetry_Int_Tables_number      2
_space_group_name_Hall           '-P 1'
loop_
_symmetry_equiv_pos_site_id
_symmetry_equiv_pos_as_xyz
1 x,y,z
2 -x,-y,-z
_cell_length_a                   7.6570(4)
_cell_length_b                   10.0492(8)
_cell_length_c                   11.3387(4)
_cell_angle_alpha                89.108(4)
_cell_angle_beta                 86.461(3)
_cell_angle_gamma                83.070(5)
_cell_volume                     864.421
_exptl_crystal_colour            colorless
_exptl_crystal_description       block
_cell_formula_units_Z            1
loop_
_atom_site_label
_atom_site_type_symbol
_atom_site_fract_x
_atom_site_fract_y
_atom_site_fract_z
F1 F 0.23544(15) 0.05779(13) 0.32524(9)
F2 F -0.05132(16) -0.03939(14) 0.26946(9)
O1 O -0.35747(18) -0.20660(16) 0.50513(12)
H1 H -0.4481 -0.2333 0.4849
O2 O -0.4045(2) -0.06054(17) 0.35712(13)
C1 C -0.0299(2) -0.0196(2) 0.38444(15)
C2 C -0.3202(2) -0.1078(2) 0.43790(16)
C3 C 0.1199(2) 0.0320(2) 0.41342(16)
C4 C -0.1546(2) -0.05366(19) 0.46993(15)
F1A F -0.23544(15) -0.05779(13) 0.67476(9)
F2A F 0.05132(16) 0.03939(14) 0.73054(9)
O1A O 0.35747(18) 0.20660(16) 0.49487(12)
H1A H 0.4481 0.2333 0.5151
O2A O 0.4045(2) 0.06054(17) 0.64288(13)
C1A C 0.0299(2) 0.0196(2) 0.61556(15)
C2A C 0.3202(2) 0.1078(2) 0.56210(16)
C3A C -0.1199(2) -0.0320(2) 0.58658(16)
C4A C 0.1546(2) 0.05366(19) 0.53007(15)
F3 F -0.70184(16) -0.51846(14) 0.61840(11)
F4 F -0.94499(17) -0.67203(13) 0.68357(10)
O3 O -0.6583(2) -0.27731(17) 0.50958(12)
O4 O -0.6904(2) -0.31114(19) 0.32026(12)
C5 C -0.7264(3) -0.3281(2) 0.42605(16)
C6 C -0.8488(2) -0.5058(2) 0.55896(15)
C7 C -0.9777(3) -0.5856(2) 0.59328(15)
C8 C -0.8677(2) -0.4170(2) 0.46400(15)
F3A F -1.29816(16) -0.48154(14) 0.38160(11)
F4A F -1.05501(17) -0.32797(13) 0.31643(10)
O3A O -1.3417(2) -0.72269(17) 0.49042(12)
O4A O -1.3096(2) -0.68886(19) 0.67974(12)
C5A C -1.2736(3) -0.6719(2) 0.57395(16)
C6A C -1.1512(2) -0.4942(2) 0.44104(15)
C7A C -1.0223(3) -0.4144(2) 0.40672(15)
C8A C -1.1323(2) -0.5830(2) 0.53600(15)
N1 N -0.5958(2) -0.15099(18) -0.06210(13)
N2 N -0.6798(2) -0.36443(18) -0.11705(13)
N3 N -0.6713(2) -0.30959(18) 0.08093(13)
N4 N -0.6241(3) -0.2060(2) -0.25411(14)
H2 H -0.5946 -0.1289 -0.2754
H3 H -0.6476 -0.2613 -0.3064
C9 C -0.7012(2) -0.3957(2) -0.00575(16)
C10 C -0.6332(3) -0.2394(2) -0.14209(16)
C11 C -0.7596(3) -0.5263(2) 0.02857(17)
C12 C -0.6130(3) -0.1901(2) 0.04993(16)
N5 N -0.5728(3) -0.1131(2) 0.13504(14)
H4 H -0.5912 -0.1529 0.2046
H5 H -0.6402 -0.0346 0.1331
H6 H -0.4600 -0.1000 0.1248
C13 C -0.7896(3) -0.6133(2) -0.06049(19)
H7 H -0.7701 -0.5893 -0.1393
C14 C -0.7885(4) -0.5639(2) 0.1459(2)
H8 H -0.7675 -0.5071 0.2061
C15 C -0.8484(4) -0.6852(3) 0.1730(2)
H9 H -0.8694 -0.7093 0.2517
C16 C -0.8773(4) -0.7711(3) 0.0846(3)
H10 H -0.9165 -0.8532 0.1038
C17 C -0.8482(3) -0.7353(3) -0.0318(2)
H11 H -0.8681 -0.7932 -0.0914
loop_
_geom_bond_atom_site_label_1
_geom_bond_atom_site_label_2
_geom_bond_site_symmetry_1
_geom_bond_site_symmetry_2
F1 C3 1_555 1_555
F2 C1 1_555 1_555
O1 H1 1_555 1_555
O2 C2 1_555 1_555
C1 C3 1_555 1_555
C2 O1 1_555 1_555
C3 C4A 1_555 1_555
C4 C1 1_555 1_555
F3 C6 1_555 1_555
F4 C7 1_555 1_555
O3 C5 1_555 1_555
O4 C5 1_555 1_555
C5 C8 1_555 1_555
C6 C7 1_555 1_555
C7 C8A 1_555 1_555
C8 C6 1_555 1_555
N1 C10 1_555 1_555
N2 C9 1_555 1_555
N3 C9 1_555 1_555
N4 H2 1_555 1_555
H3 N4 1_555 1_555
C9 C11 1_555 1_555
C10 N2 1_555 1_555
C11 C13 1_555 1_555
C12 N1 1_555 1_555
N5 C12 1_555 1_555
H4 N5 1_555 1_555
H5 N5 1_555 1_555
H6 N5 1_555 1_555
C13 H7 1_555 1_555
C14 C11 1_555 1_555
H8 C14 1_555 1_555
C15 C14 1_555 1_555
H9 C15 1_555 1_555
C16 C15 1_555 1_555
H10 C16 1_555 1_555
C17 C13 1_555 1_555
H11 C17 1_555 1_555
F1A C3A 1_555 1_555
F2A C1A 1_555 1_555
O1A H1A 1_555 1_555
O2A C2A 1_555 1_555
C1A C3A 1_555 1_555
C2A O1A 1_555 1_555
C3A C4 1_555 1_555
C4A C1A 1_555 1_555
F3A C6A 1_555 1_555
F4A C7A 1_555 1_555
O3A C5A 1_555 1_555
O4A C5A 1_555 1_555
C5A C8A 1_555 1_555
C6A C7A 1_555 1_555
C7A C8 1_555 1_555
C8A C6A 1_555 1_555
C2 C4 1_555 1_555
N3 C12 1_555 1_555
N4 C10 1_555 1_555
C16 C17 1_555 1_555
C2A C4A 1_555 1_555

#END
