
#######################################################################
#
#                 Cambridge Crystallographic Data Centre
#                                CCDC 
#
#######################################################################
#
# If this CIF has been generated from an entry in the Cambridge 
# Structural Database, then it will include bibliographic, chemical, 
# crystal, experimental, refinement or atomic coordinate data resulting 
# from the CCDC's data processing and validation procedures.
#
#######################################################################

data_YODBAW
_chemical_formula_moiety         'C16 H20 N4 2+,2(C8 H1 F4 O4 1-),H2 O1'
_chemical_name_systematic        
"1,1'-(1,2-Phenylenebis(methylene))bis(2-methyl-1H-imidazol-3-ium) bis(4-carboxy-2,3,5,6-tetrafluorobenzoate) monohydrate"
_symmetry_cell_setting           monoclinic
_symmetry_space_group_name_H-M   'P 21/c'
_symmetry_Int_Tables_number      14
_space_group_name_Hall           '-P 2ybc'
loop_
_symmetry_equiv_pos_site_id
_symmetry_equiv_pos_as_xyz
1 x,y,z
2 -x,1/2+y,1/2-z
3 -x,-y,-z
4 x,1/2-y,1/2+z
_cell_length_a                   9.0755(4)
_cell_length_b                   36.884(2)
_cell_length_c                   9.7005(3)
_cell_angle_alpha                90
_cell_angle_beta                 93.508(3)
_cell_angle_gamma                90
_cell_volume                     3241.07
_exptl_crystal_colour            colorless
_exptl_crystal_description       block
_cell_formula_units_Z            4
loop_
_atom_site_label
_atom_site_type_symbol
_atom_site_fract_x
_atom_site_fract_y
_atom_site_fract_z
F1 F 0.33780(14) 0.00835(4) 0.14495(12)
F2 F 0.26998(16) 0.00268(4) -0.12132(12)
F3 F -0.07239(16) 0.08573(4) 0.18866(12)
O1 O 0.06045(16) 0.04843(5) 0.40734(13)
O2 O 0.13242(18) 0.04449(5) -0.33930(13)
H1 H 0.1038 0.0427 -0.4209
F4 F -0.13165(16) 0.08231(5) -0.07844(13)
O3 O 0.30090(17) 0.05136(5) 0.37482(14)
O4 O -0.10384(18) 0.03301(5) -0.30079(14)
C1 C 0.1849(2) 0.02411(6) -0.04667(18)
C2 C 0.2193(2) 0.02664(6) 0.09365(19)
C3 C 0.1709(2) 0.04897(6) 0.33420(18)
C4 C 0.0223(2) 0.03918(6) -0.26237(19)
C5 C 0.0154(2) 0.06464(6) 0.11534(19)
C6 C -0.0173(2) 0.06269(7) -0.02504(19)
C7 C 0.1343(2) 0.04671(6) 0.17900(18)
C8 C 0.0663(2) 0.04206(6) -0.10990(18)
N1 N -0.36282(18) 0.08226(5) -0.38855(16)
N2 N -0.61539(19) 0.14348(5) -0.45711(17)
C9 C -0.5454(2) 0.08576(6) -0.2092(2)
C10 C -0.7179(2) 0.12452(7) -0.3683(2)
H2 H -0.7554 0.1031 -0.4164
H3 H -0.8013 0.1403 -0.3546
C11 C -0.2907(2) 0.11323(7) -0.3426(2)
H4 H -0.3156 0.1276 -0.2687
C12 C -0.5531(2) 0.17599(7) -0.4355(2)
C13 C -0.6499(2) 0.11321(6) -0.2277(2)
C14 C -0.2934(2) 0.06892(7) -0.4954(2)
N3 N -0.4771(2) 0.18354(6) -0.5444(2)
H5 H -0.4267 0.2030 -0.5550
C15 C -0.4894(2) 0.06435(6) -0.3275(2)
H6 H -0.4596 0.0404 -0.2949
H7 H -0.5687 0.0613 -0.3983
C16 C -0.4935(3) 0.07647(7) -0.0756(2)
H8 H -0.4226 0.0584 -0.0626
C17 C -0.7031(3) 0.12994(7) -0.1124(2)
H9 H -0.7745 0.1480 -0.1242
N4 N -0.1834(2) 0.09135(6) -0.51805(19)
H10 H -0.1236 0.0889 -0.5829
C18 C -0.5464(3) 0.09383(8) 0.0380(2)
H11 H -0.5105 0.0876 0.1267
C19 C -0.5783(3) 0.13046(7) -0.5844(2)
H12 H -0.6078 0.1086 -0.6252
C20 C -0.1783(3) 0.11899(8) -0.4234(2)
H13 H -0.1105 0.1379 -0.4167
C21 C -0.4912(3) 0.15564(8) -0.6370(3)
H14 H -0.4480 0.1544 -0.7214
C22 C -0.6518(3) 0.12023(8) 0.0193(2)
H15 H -0.6888 0.1316 0.0954
C23 C -0.3299(3) 0.03515(8) -0.5702(2)
H16 H -0.2638 0.0320 -0.6429
H17 H -0.4296 0.0364 -0.6092
H18 H -0.3202 0.0150 -0.5076
C24 C -0.5647(3) 0.19977(8) -0.3142(3)
H19 H -0.6253 0.1883 -0.2492
H20 H -0.6082 0.2225 -0.3430
H21 H -0.4680 0.2040 -0.2714
F5 F 0.21809(16) 0.22836(4) 0.92089(13)
F6 F 0.25467(15) 0.21513(4) 1.19032(13)
F7 F -0.25018(16) 0.17261(4) 0.91028(13)
F8 F -0.21132(16) 0.15920(5) 1.18016(14)
C25 C 0.1090(2) 0.21156(6) 0.9823(2)
O5 O 0.0470(2) 0.19528(5) 0.67732(15)
C26 C 0.0220(2) 0.18699(6) 1.19191(19)
O6 O -0.1495(2) 0.22919(5) 0.71698(15)
C27 C -0.1038(2) 0.17636(7) 1.1165(2)
C28 C -0.1237(2) 0.18358(6) 0.9775(2)
C29 C 0.1287(2) 0.20467(6) 1.1224(2)
C30 C 0.0421(2) 0.17860(7) 1.3447(2)
C31 C -0.0181(2) 0.20147(6) 0.90679(19)
C32 C -0.0440(3) 0.20979(7) 0.7525(2)
O7 O 0.0261(3) 0.20641(5) 1.41996(16)
H22 H 0.0371 0.2006 1.5016
O8 O 0.0657(3) 0.14850(6) 1.38568(17)
O9 O 0.7026(2) 0.24106(7) 0.4511(2)
H23 H 0.743(4) 0.2459(12) 0.381(2)
H24 H 0.765(3) 0.2381(11) 0.516(2)
loop_
_geom_bond_atom_site_label_1
_geom_bond_atom_site_label_2
_geom_bond_site_symmetry_1
_geom_bond_site_symmetry_2
F1 C2 1_555 1_555
F2 C1 1_555 1_555
F3 C5 1_555 1_555
O1 C3 1_555 1_555
O2 H1 1_555 1_555
F4 C6 1_555 1_555
O3 C3 1_555 1_555
O4 C4 1_555 1_555
C1 C2 1_555 1_555
C2 C7 1_555 1_555
C3 C7 1_555 1_555
C4 O2 1_555 1_555
C5 C6 1_555 1_555
C6 C8 1_555 1_555
C7 C5 1_555 1_555
C8 C1 1_555 1_555
N1 C11 1_555 1_555
N2 C10 1_555 1_555
C9 C13 1_555 1_555
C10 H2 1_555 1_555
H3 C10 1_555 1_555
C11 H4 1_555 1_555
C12 N2 1_555 1_555
C13 C10 1_555 1_555
C14 N1 1_555 1_555
N3 C12 1_555 1_555
H5 N3 1_555 1_555
C15 N1 1_555 1_555
H6 C15 1_555 1_555
H7 C15 1_555 1_555
C16 C9 1_555 1_555
H8 C16 1_555 1_555
C17 C13 1_555 1_555
H9 C17 1_555 1_555
N4 C14 1_555 1_555
H10 N4 1_555 1_555
C18 C16 1_555 1_555
H11 C18 1_555 1_555
C19 N2 1_555 1_555
H12 C19 1_555 1_555
C20 C11 1_555 1_555
H13 C20 1_555 1_555
C21 N3 1_555 1_555
H14 C21 1_555 1_555
C22 C17 1_555 1_555
H15 C22 1_555 1_555
C23 C14 1_555 1_555
H16 C23 1_555 1_555
H17 C23 1_555 1_555
H18 C23 1_555 1_555
C24 C12 1_555 1_555
H19 C24 1_555 1_555
H20 C24 1_555 1_555
H21 C24 1_555 1_555
F5 C25 1_555 1_555
F6 C29 1_555 1_555
F7 C28 1_555 1_555
F8 C27 1_555 1_555
C25 C29 1_555 1_555
O5 C32 1_555 1_555
C26 C27 1_555 1_555
O6 C32 1_555 1_555
C27 C28 1_555 1_555
C28 C31 1_555 1_555
C29 C26 1_555 1_555
C30 C26 1_555 1_555
C31 C25 1_555 1_555
C32 C31 1_555 1_555
O7 C30 1_555 1_555
H22 O7 1_555 1_555
O8 C30 1_555 1_555
O9 H23 1_555 1_555
H24 O9 1_555 1_555
C4 C8 1_555 1_555
C9 C15 1_555 1_555
N4 C20 1_555 1_555
C18 C22 1_555 1_555
C19 C21 1_555 1_555

#END
