
#######################################################################
#
#                 Cambridge Crystallographic Data Centre
#                                CCDC 
#
#######################################################################
#
# If this CIF has been generated from an entry in the Cambridge 
# Structural Database, then it will include bibliographic, chemical, 
# crystal, experimental, refinement or atomic coordinate data resulting 
# from the CCDC's data processing and validation procedures.
#
#######################################################################

data_YODBOK
_chemical_formula_moiety         'C10 H16 N4 2+,2(C8 H1 F4 O4 1-)'
_chemical_name_systematic        
"1,1'-Butane-1,4-diylbis-1H-imidazol-3-ium bis(4-carboxy-2,3,5,6-tetrafluorobenzoate)"
_symmetry_cell_setting           triclinic
_symmetry_space_group_name_H-M   'P -1'
_symmetry_Int_Tables_number      2
_space_group_name_Hall           '-P 1'
loop_
_symmetry_equiv_pos_site_id
_symmetry_equiv_pos_as_xyz
1 x,y,z
2 -x,-y,-z
_cell_length_a                   7.3027(6)
_cell_length_b                   9.6227(7)
_cell_length_c                   9.7417(7)
_cell_angle_alpha                94.022(6)
_cell_angle_beta                 109.536(7)
_cell_angle_gamma                90.479(6)
_cell_volume                     643.199
_exptl_crystal_colour            colorless
_exptl_crystal_description       block
_cell_formula_units_Z            1
loop_
_atom_site_label
_atom_site_type_symbol
_atom_site_fract_x
_atom_site_fract_y
_atom_site_fract_z
F1 F 0.40138(18) 0.23164(12) 0.64770(12)
F2 F 0.02019(18) -0.07494(12) 0.14349(12)
F3 F 0.06340(18) 0.19581(12) 0.13900(12)
F4 F 0.3482(2) -0.03726(12) 0.65413(12)
O1 O 0.2830(2) -0.28731(14) 0.48459(17)
O2 O 0.2279(2) 0.45554(14) 0.48375(16)
H1 H 0.2466 0.5378 0.4740
C1 C 0.1803(3) -0.06800(18) 0.39950(19)
C2 C 0.3027(3) 0.15923(18) 0.52115(19)
C3 C 0.2346(2) 0.22434(18) 0.39287(19)
C4 C 0.1115(3) -0.00168(18) 0.27104(19)
C5 C 0.2771(3) 0.01704(19) 0.52374(19)
C6 C 0.1382(3) 0.13972(19) 0.26796(18)
O3 O 0.3150(2) 0.41854(15) 0.28607(17)
C7 C 0.2654(3) 0.37846(19) 0.3827(2)
C8 C 0.1455(3) -0.22421(19) 0.4012(2)
O4 O -0.0133(2) -0.27330(15) 0.32187(19)
N1 N 0.3891(2) 0.68144(16) 0.93643(17)
N2 N 0.2010(2) 0.51078(17) 0.8143(2)
H2 H 0.1341 0.4538 0.7427
C9 C 0.5252(3) 0.8030(2) 0.9714(3)
H3 H 0.5798 0.8088 0.8937
H4 H 0.6313 0.7899 1.0608
C10 C 0.4299(3) 0.9376(2) 0.9898(2)
H5 H 0.3876 0.9363 1.0740
H6 H 0.3161 0.9469 0.9043
C11 C 0.3090(3) 0.6180(2) 0.8042(2)
H7 H 0.3258 0.6443 0.7191
C12 C 0.3296(3) 0.6121(2) 1.0333(2)
H8 H 0.3638 0.6349 1.1333
C13 C 0.2127(3) 0.5053(2) 0.9564(3)
H9 H 0.1511 0.4396 0.9931
N1A N 0.6109(2) 1.31856(16) 1.06357(17)
N2A N 0.7990(2) 1.48922(17) 1.1857(2)
H2A H 0.8659 1.5462 1.2573
C9A C 0.4748(3) 1.1970(2) 1.0286(3)
H3A H 0.4202 1.1912 1.1063
H4A H 0.3687 1.2101 0.9392
C10A C 0.5701(3) 1.0624(2) 1.0102(2)
H5A H 0.6124 1.0637 0.9260
H6A H 0.6839 1.0531 1.0957
C11A C 0.6910(3) 1.3820(2) 1.1958(2)
H7A H 0.6742 1.3557 1.2809
C12A C 0.6704(3) 1.3879(2) 0.9667(2)
H8A H 0.6362 1.3651 0.8667
C13A C 0.7873(3) 1.4947(2) 1.0436(3)
H9A H 0.8489 1.5604 1.0069
loop_
_geom_bond_atom_site_label_1
_geom_bond_atom_site_label_2
_geom_bond_site_symmetry_1
_geom_bond_site_symmetry_2
F1 C2 1_555 1_555
F2 C4 1_555 1_555
F3 C6 1_555 1_555
F4 C5 1_555 1_555
O1 C8 1_555 1_555
O2 H1 1_555 1_555
C1 C4 1_555 1_555
C2 C3 1_555 1_555
C3 C6 1_555 1_555
C4 C6 1_555 1_555
C5 C1 1_555 1_555
O3 C7 1_555 1_555
C7 O2 1_555 1_555
C8 C1 1_555 1_555
O4 C8 1_555 1_555
N1 C9 1_555 1_555
N2 H2 1_555 1_555
C9 H3 1_555 1_555
H4 C9 1_555 1_555
C10 C9 1_555 1_555
H5 C10 1_555 1_555
H6 C10 1_555 1_555
C11 N1 1_555 1_555
H7 C11 1_555 1_555
C12 N1 1_555 1_555
H8 C12 1_555 1_555
C13 N2 1_555 1_555
H9 C13 1_555 1_555
N1A C9A 1_555 1_555
N2A H2A 1_555 1_555
C9A H3A 1_555 1_555
H4A C9A 1_555 1_555
C10A C10 1_555 1_555
H5A C10A 1_555 1_555
H6A C10A 1_555 1_555
C11A N1A 1_555 1_555
H7A C11A 1_555 1_555
C12A N1A 1_555 1_555
H8A C12A 1_555 1_555
C13A N2A 1_555 1_555
H9A C13A 1_555 1_555
C2 C5 1_555 1_555
C3 C7 1_555 1_555
N2 C11 1_555 1_555
C12 C13 1_555 1_555
N2A C11A 1_555 1_555
C9A C10A 1_555 1_555
C12A C13A 1_555 1_555

#END
