
#######################################################################
#
#                 Cambridge Crystallographic Data Centre
#                                CCDC 
#
#######################################################################
#
# If this CIF has been generated from an entry in the Cambridge 
# Structural Database, then it will include bibliographic, chemical, 
# crystal, experimental, refinement or atomic coordinate data resulting 
# from the CCDC's data processing and validation procedures.
#
#######################################################################

data_YODBIE
_chemical_formula_moiety         'C8 H9 N2 1+,C8 H1 F4 O4 1-'
_chemical_name_systematic        
'2-Methyl-1H-3,1-benzimidazol-3-ium 4-carboxy-2,3,5,6-tetrafluorobenzoate'
_symmetry_cell_setting           monoclinic
_symmetry_space_group_name_H-M   'C 2/c'
_symmetry_Int_Tables_number      15
_space_group_name_Hall           '-C 2yn'
loop_
_symmetry_equiv_pos_site_id
_symmetry_equiv_pos_as_xyz
1 x,y,z
2 -x,y,1/2-z
3 1/2+x,1/2+y,z
4 1/2-x,1/2+y,1/2-z
5 -x,-y,-z
6 x,-y,1/2+z
7 1/2-x,1/2-y,-z
8 1/2+x,1/2-y,1/2+z
_cell_length_a                   28.889(2)
_cell_length_b                   9.7001(8)
_cell_length_c                   19.7288(16)
_cell_angle_alpha                90
_cell_angle_beta                 129.1980(10)
_cell_angle_gamma                90
_cell_volume                     4284.42
_exptl_crystal_colour            colorless
_exptl_crystal_description       block
_cell_formula_units_Z            12
loop_
_atom_site_label
_atom_site_type_symbol
_atom_site_fract_x
_atom_site_fract_y
_atom_site_fract_z
F1 F 0.16058(6) 0.06763(14) 0.43750(10)
F2 F 0.13515(6) 0.32804(14) 0.40867(11)
O1 O 0.17081(8) 0.57834(17) 0.39730(12)
O2 O 0.26088(8) 0.62835(16) 0.52047(12)
C1 C 0.19280(10) 0.2937(2) 0.45366(16)
C2 C 0.21997(10) 0.5461(2) 0.46440(15)
C3 C 0.20619(10) 0.1543(2) 0.46917(15)
C4 C 0.23602(10) 0.3933(2) 0.48399(15)
F1F F 0.33942(6) 0.43237(14) 0.56250(10)
F2F F 0.36485(6) 0.17196(14) 0.59133(11)
O1F O 0.32919(8) -0.07834(17) 0.60270(12)
O2F O 0.23912(8) -0.12835(16) 0.47953(12)
C1F C 0.30720(10) 0.2063(2) 0.54634(16)
C2F C 0.28003(10) -0.0461(2) 0.53560(15)
C3F C 0.29381(10) 0.3457(2) 0.53083(15)
C4F C 0.26398(10) 0.1067(2) 0.51601(15)
F3 F 0.03521(6) 0.69394(15) 0.10141(11)
F4 F -0.17078(6) 0.58908(14) -0.07042(11)
F5 F -0.19527(6) 0.84817(15) -0.09380(11)
F6 F 0.01058(6) 0.95194(14) 0.07610(10)
O3 O -0.15959(8) 1.10006(17) -0.09669(12)
O4 O -0.09307(8) 0.39328(18) -0.01921(13)
O5 O 0.00001(8) 0.43891(18) 0.09437(13)
C5 C -0.12428(11) 0.6750(2) -0.03304(16)
O6 O -0.06738(8) 1.14715(17) 0.02273(13)
H1 H -0.0787 1.2273 0.0088
C6 C -0.02277(10) 0.7270(2) 0.05179(16)
C7 C -0.05077(11) 0.4733(2) 0.03254(16)
C8 C -0.13752(10) 0.8146(2) -0.04624(16)
C9 C -0.09351(10) 0.9146(2) -0.01157(15)
C10 C -0.11033(11) 1.0655(2) -0.03259(16)
C11 C -0.03572(10) 0.8662(2) 0.03833(15)
C12 C -0.06618(11) 0.6265(2) 0.01668(15)
N1 N 0.04811(9) 0.5608(2) 0.29255(13)
H2 H 0.0843 0.5313 0.3245
C13 C 0.03102(10) 0.6987(2) 0.27751(16)
C14 C 0.06409(11) 0.8195(2) 0.30704(17)
H3 H 0.1056 0.8194 0.3440
C15 C 0.0000 0.4826(3) 0.2500
C16 C 0.03134(12) 0.9394(2) 0.27800(18)
H4 H 0.0514 1.0234 0.2961
C17 C 0.0000 0.3288(4) 0.2500
N1A N -0.04811(9) 0.5608(2) 0.20745(13)
H2A H -0.0843 0.5313 0.1755
C13A C -0.03102(10) 0.6987(2) 0.22249(16)
C14A C -0.06409(11) 0.8195(2) 0.19296(17)
H3A H -0.1056 0.8194 0.1560
C16A C -0.03134(12) 0.9394(2) 0.22200(18)
H4A H -0.0514 1.0234 0.2039
N2 N 0.12131(9) 0.4404(2) 0.20163(13)
H5 H 0.0853 0.4711 0.1672
N3 N 0.21739(9) 0.4359(2) 0.28959(13)
H6 H 0.2539 0.4633 0.3216
C18 C 0.19937(11) 0.2994(2) 0.27916(16)
C19 C 0.13722(11) 0.3032(2) 0.22236(16)
C20 C 0.13491(12) 0.0612(3) 0.23236(18)
H7 H 0.1141 -0.0212 0.2175
C21 C 0.19765(12) 0.0591(3) 0.29026(17)
H8 H 0.2172 -0.0251 0.3126
C22 C 0.10344(12) 0.1830(3) 0.19698(17)
H9 H 0.0619 0.1848 0.1583
C23 C 0.23110(11) 0.1774(2) 0.31503(17)
H10 H 0.2726 0.1757 0.3537
C24 C 0.17013(11) 0.5171(3) 0.24305(16)
C25 C 0.17097(12) 0.6699(3) 0.23961(18)
H11 H 0.2116 0.7015 0.2750
H12 H 0.1520 0.7080 0.2614
H13 H 0.1499 0.6990 0.1802
H14? H -0.0404 0.2958 0.2141
H15? H 0.0213 0.2958 0.3087
H16? H 0.0191 0.2958 0.2272
loop_
_geom_bond_atom_site_label_1
_geom_bond_atom_site_label_2
_geom_bond_site_symmetry_1
_geom_bond_site_symmetry_2
F1 C3 1_555 1_555
F2 C1 1_555 1_555
O1 C2 1_555 1_555
O2 C2 1_555 1_555
C1 C3 1_555 1_555
C2 C4 1_555 1_555
C3 C4F 1_555 1_555
C4 C1 1_555 1_555
F3 C6 1_555 1_555
F4 C5 1_555 1_555
F5 C8 1_555 1_555
F6 C11 1_555 1_555
O3 C10 1_555 1_555
O4 C7 1_555 1_555
O5 C7 1_555 1_555
C5 C8 1_555 1_555
O6 H1 1_555 1_555
C6 C11 1_555 1_555
C7 C12 1_555 1_555
C8 C9 1_555 1_555
C9 C10 1_555 1_555
C10 O6 1_555 1_555
C11 C9 1_555 1_555
C12 C5 1_555 1_555
N1 H2 1_555 1_555
C13 N1 1_555 1_555
C14 C13 1_555 1_555
H3 C14 1_555 1_555
C15 N1 1_555 1_555
C16 C14 1_555 1_555
H4 C16 1_555 1_555
C17 C15 1_555 1_555
N2 H5 1_555 1_555
N3 H6 1_555 1_555
C18 N3 1_555 1_555
C19 N2 1_555 1_555
C20 H7 1_555 1_555
C21 C20 1_555 1_555
H8 C21 1_555 1_555
C22 C19 1_555 1_555
H9 C22 1_555 1_555
C23 C18 1_555 1_555
H10 C23 1_555 1_555
C24 N2 1_555 1_555
C25 C24 1_555 1_555
H11 C25 1_555 1_555
H12 C25 1_555 1_555
H13 C25 1_555 1_555
F1F C3F 1_555 1_555
F2F C1F 1_555 1_555
O1F C2F 1_555 1_555
O2F C2F 1_555 1_555
C1F C3F 1_555 1_555
C2F C4F 1_555 1_555
C3F C4 1_555 1_555
C4F C1F 1_555 1_555
N1A C15 1_555 1_555
H2A N1A 1_555 1_555
C13A C13 1_555 1_555
C14A C13A 1_555 1_555
H3A C14A 1_555 1_555
C16A C16 1_555 1_555
H4A C16A 1_555 1_555
C6 C12 1_555 1_555
N3 C24 1_555 1_555
C18 C19 1_555 1_555
C20 C22 1_555 1_555
C21 C23 1_555 1_555
N1A C13A 1_555 1_555
C14A C16A 1_555 1_555

#END
