
#######################################################################
#
#                 Cambridge Crystallographic Data Centre
#                                CCDC 
#
#######################################################################
#
# If this CIF has been generated from an entry in the Cambridge 
# Structural Database, then it will include bibliographic, chemical, 
# crystal, experimental, refinement or atomic coordinate data resulting 
# from the CCDC's data processing and validation procedures.
#
#######################################################################

data_YODCEB
_chemical_formula_moiety         'C21 H21 N3 O3'
_chemical_name_systematic        
2-(1H-Benzimidazol-2-yl)-8-(2-(2-methoxyethoxy)ethoxy)quinoline
_symmetry_cell_setting           orthorhombic
_symmetry_space_group_name_H-M   'P b c n'
_symmetry_Int_Tables_number      60
_space_group_name_Hall           '-P 2n 2ab'
loop_
_symmetry_equiv_pos_site_id
_symmetry_equiv_pos_as_xyz
1 x,y,z
2 1/2-x,1/2-y,1/2+z
3 1/2+x,1/2-y,-z
4 -x,y,1/2-z
5 -x,-y,-z
6 1/2+x,1/2+y,1/2-z
7 1/2-x,1/2+y,z
8 x,-y,1/2+z
_cell_length_a                   15.625(4)
_cell_length_b                   9.194(2)
_cell_length_c                   27.403(7)
_cell_angle_alpha                90
_cell_angle_beta                 90
_cell_angle_gamma                90
_cell_volume                     3936.61
_exptl_crystal_colour            colorless
_exptl_crystal_description       block
_cell_formula_units_Z            8
loop_
_atom_site_label
_atom_site_type_symbol
_atom_site_fract_x
_atom_site_fract_y
_atom_site_fract_z
O1 O 0.66048(14) -0.0986(2) 0.05880(8)
N1 N 0.45084(16) 0.1319(3) 0.15355(9)
C1 C 0.39496(18) 0.1719(3) 0.19061(12)
O2 O 0.63949(17) -0.3706(3) 0.10550(9)
N2 N 0.36873(17) 0.3088(3) 0.12279(11)
H1 H 0.3474 0.3715 0.1029
C2 C 0.3863(2) 0.1233(4) 0.23802(12)
H2 H 0.4203 0.0490 0.2505
N3 N 0.54098(15) 0.1092(3) 0.06572(9)
O3 O 0.5140(2) -0.3436(3) 0.18014(16)
C3 C 0.3244(2) 0.1914(4) 0.26605(14)
H3 H 0.3166 0.1625 0.2983
C4 C 0.2732(2) 0.3029(5) 0.24685(15)
H4 H 0.2325 0.3468 0.2667
C5 C 0.2816(2) 0.3481(4) 0.20013(16)
H5 H 0.2466 0.4211 0.1877
C6 C 0.3445(2) 0.2821(4) 0.17063(13)
C7 C 0.43172(18) 0.2166(3) 0.11448(11)
C8 C 0.4803(2) 0.2079(3) 0.06813(11)
C9 C 0.4594(3) 0.3038(4) 0.02989(13)
H6 H 0.4156 0.3715 0.0334
C10 C 0.5050(3) 0.2950(4) -0.01244(14)
H7 H 0.4927 0.3576 -0.0381
C11 C 0.5711(2) 0.1906(4) -0.01733(12)
C12 C 0.6210(3) 0.1766(5) -0.05998(13)
H8 H 0.6111 0.2376 -0.0865
C13 C 0.6831(3) 0.0748(5) -0.06228(15)
H9 H 0.7166 0.0682 -0.0902
C14 C 0.6980(2) -0.0210(4) -0.02366(13)
H10 H 0.7401 -0.0920 -0.0266
C15 C 0.6508(2) -0.0111(4) 0.01889(11)
C16 C 0.5863(2) 0.0974(3) 0.02282(10)
C17 C 0.7216(2) -0.2146(4) 0.05575(14)
H11 H 0.7786 -0.1751 0.0512
H12 H 0.7084 -0.2767 0.0281
C18 C 0.7182(2) -0.3004(4) 0.10172(13)
H13 H 0.7640 -0.3718 0.1019
H14 H 0.7263 -0.2363 0.1295
C19 C 0.6309(3) -0.4600(5) 0.14833(17)
H15 H 0.6551 -0.5553 0.1420
H16 H 0.6624 -0.4165 0.1751
C20 C 0.5432(3) -0.4750(5) 0.16169(18)
H17 H 0.5096 -0.5024 0.1334
H18 H 0.5371 -0.5505 0.1862
C21 C 0.4260(4) -0.3415(8) 0.1955(3)
H19 H 0.4114 -0.2459 0.2069
H20 H 0.4178 -0.4105 0.2213
H21 H 0.3899 -0.3667 0.1684
loop_
_geom_bond_atom_site_label_1
_geom_bond_atom_site_label_2
_geom_bond_site_symmetry_1
_geom_bond_site_symmetry_2
O1 C15 1_555 1_555
N1 C1 1_555 1_555
C1 C2 1_555 1_555
O2 C18 1_555 1_555
N2 H1 1_555 1_555
C2 H2 1_555 1_555
N3 C8 1_555 1_555
O3 C20 1_555 1_555
C3 C2 1_555 1_555
H3 C3 1_555 1_555
C4 C3 1_555 1_555
H4 C4 1_555 1_555
C5 C4 1_555 1_555
H5 C5 1_555 1_555
C6 C1 1_555 1_555
C7 N1 1_555 1_555
C8 C7 1_555 1_555
C9 C8 1_555 1_555
H6 C9 1_555 1_555
C10 C9 1_555 1_555
H7 C10 1_555 1_555
C11 C10 1_555 1_555
C12 C11 1_555 1_555
H8 C12 1_555 1_555
C13 C12 1_555 1_555
H9 C13 1_555 1_555
C14 C13 1_555 1_555
H10 C14 1_555 1_555
C15 C14 1_555 1_555
C16 N3 1_555 1_555
C17 O1 1_555 1_555
H11 C17 1_555 1_555
H12 C17 1_555 1_555
C18 C17 1_555 1_555
H13 C18 1_555 1_555
H14 C18 1_555 1_555
C19 O2 1_555 1_555
H15 C19 1_555 1_555
H16 C19 1_555 1_555
C20 C19 1_555 1_555
H17 C20 1_555 1_555
H18 C20 1_555 1_555
C21 O3 1_555 1_555
H19 C21 1_555 1_555
H20 C21 1_555 1_555
H21 C21 1_555 1_555
N2 C6 1_555 1_555
N2 C7 1_555 1_555
C5 C6 1_555 1_555
C11 C16 1_555 1_555
C15 C16 1_555 1_555

#END
