
#######################################################################
#
#                 Cambridge Crystallographic Data Centre
#                                CCDC 
#
#######################################################################
#
# If this CIF has been generated from an entry in the Cambridge 
# Structural Database, then it will include bibliographic, chemical, 
# crystal, experimental, refinement or atomic coordinate data resulting 
# from the CCDC's data processing and validation procedures.
#
#######################################################################

data_YODFUT01
_chemical_formula_moiety         'C12 H16 N2 O4'
_chemical_name_systematic        'Ethyl 3-nitro-4-(n-propylamino)benzoate'
_symmetry_cell_setting           triclinic
_symmetry_space_group_name_H-M   'P -1'
_symmetry_Int_Tables_number      2
_space_group_name_Hall           '-P 1'
loop_
_symmetry_equiv_pos_site_id
_symmetry_equiv_pos_as_xyz
1 x,y,z
2 -x,-y,-z
_cell_length_a                   4.4400(9)
_cell_length_b                   12.606(3)
_cell_length_c                   13.209(3)
_cell_angle_alpha                61.710(19)
_cell_angle_beta                 83.02(3)
_cell_angle_gamma                81.75(3)
_cell_volume                     643.059
_exptl_crystal_colour            colorless
_exptl_crystal_description       block
_cell_formula_units_Z            2
_exptl_crystal_recrystallization_method ethanol
loop_
_atom_site_label
_atom_site_type_symbol
_atom_site_fract_x
_atom_site_fract_y
_atom_site_fract_z
O1 O -0.3870(7) -0.0274(2) 0.8647(2)
O2 O -0.2837(8) -0.1310(3) 0.7632(3)
O3 O -0.0492(8) 0.3592(2) 0.7202(2)
O4 O 0.2630(7) 0.4310(3) 0.5801(2)
N1 N 0.1072(8) 0.3526(3) 0.6413(3)
N2 N 0.4396(8) 0.3293(3) 0.4457(3)
H1 H 0.4491 0.3936 0.4521
C1 C -0.3968(13) -0.2145(4) 1.0388(4)
H2 H -0.5267 -0.2746 1.0918
H3 H -0.3079 -0.1811 1.0788
H4 H -0.2379 -0.2511 1.0058
C2 C -0.5738(10) -0.1193(4) 0.9484(4)
H5 H -0.7339 -0.0825 0.9819
H6 H -0.6696 -0.1538 0.9100
C3 C -0.2502(11) -0.0448(4) 0.7781(4)
C4 C -0.0655(9) 0.0540(3) 0.6944(3)
C5 C -0.0537(8) 0.1582(3) 0.7019(3)
H7 H -0.1638 0.1678 0.7620
C6 C 0.1163(8) 0.2486(3) 0.6230(3)
C7 C 0.2859(8) 0.2413(3) 0.5268(3)
C8 C 0.2554(10) 0.1315(4) 0.5233(3)
H8 H 0.3503 0.1217 0.4612
C9 C 0.1030(11) 0.0445(4) 0.6018(4)
H9 H 0.1064 -0.0264 0.5961
C10 C 0.5976(13) 0.3193(4) 0.3427(4)
H10 H 0.8040 0.2821 0.3610
H11 H 0.4927 0.2659 0.3281
C11 C 0.6104(14) 0.4292(5) 0.2425(4)
H12 H 0.7199 0.4821 0.2561
H13 H 0.4046 0.4674 0.2246
C12 C 0.7633(11) 0.4158(4) 0.1409(3)
H14 H 0.7768 0.4944 0.0758
H15 H 0.6465 0.3692 0.1229
H16 H 0.9645 0.3752 0.1591
loop_
_geom_bond_atom_site_label_1
_geom_bond_atom_site_label_2
_geom_bond_site_symmetry_1
_geom_bond_site_symmetry_2
O1 C2 1_555 1_555
O2 C3 1_555 1_555
O3 N1 1_555 1_555
O4 N1 1_555 1_555
N1 C6 1_555 1_555
N2 H1 1_555 1_555
C1 H2 1_555 1_555
H3 C1 1_555 1_555
H4 C1 1_555 1_555
C2 C1 1_555 1_555
H5 C2 1_555 1_555
H6 C2 1_555 1_555
C3 O1 1_555 1_555
C4 C3 1_555 1_555
C5 C4 1_555 1_555
H7 C5 1_555 1_555
C6 C5 1_555 1_555
C7 N2 1_555 1_555
C8 C7 1_555 1_555
H8 C8 1_555 1_555
C9 C4 1_555 1_555
H9 C9 1_555 1_555
C10 N2 1_555 1_555
H10 C10 1_555 1_555
H11 C10 1_555 1_555
C11 C10 1_555 1_555
H12 C11 1_555 1_555
H13 C11 1_555 1_555
C12 C11 1_555 1_555
H14 C12 1_555 1_555
H15 C12 1_555 1_555
H16 C12 1_555 1_555
C6 C7 1_555 1_555
C8 C9 1_555 1_555

#END
