
#######################################################################
#
#                 Cambridge Crystallographic Data Centre
#                                CCDC 
#
#######################################################################
#
# If this CIF has been generated from an entry in the Cambridge 
# Structural Database, then it will include bibliographic, chemical, 
# crystal, experimental, refinement or atomic coordinate data resulting 
# from the CCDC's data processing and validation procedures.
#
#######################################################################

data_YODGOO
_chemical_formula_moiety         'C13 H14 O4'
_chemical_name_systematic        
'(E)-2-Methoxy-4-(3-oxobut-1-enyl)phenyl acetate'
_chemical_properties_biological  
'potential bactericidal, fungicidal, antitumour and anti-inflammatory properties'
_symmetry_cell_setting           triclinic
_symmetry_space_group_name_H-M   'P -1'
_symmetry_Int_Tables_number      2
_space_group_name_Hall           '-P 1'
loop_
_symmetry_equiv_pos_site_id
_symmetry_equiv_pos_as_xyz
1 x,y,z
2 -x,-y,-z
_cell_length_a                   6.2534(5)
_cell_length_b                   7.5797(5)
_cell_length_c                   13.9718(8)
_cell_angle_alpha                96.611(2)
_cell_angle_beta                 91.487(2)
_cell_angle_gamma                110.599(2)
_cell_volume                     614.211
_exptl_crystal_colour            colorless
_exptl_crystal_description       block
_cell_formula_units_Z            2
_exptl_crystal_recrystallization_method dichloromethane/methanol
loop_
_atom_site_label
_atom_site_type_symbol
_atom_site_fract_x
_atom_site_fract_y
_atom_site_fract_z
C1 C 0.7293(5) 0.3948(4) 0.2545(3)
C2 C 0.9194(5) 0.5292(4) 0.3052(2)
H1 H 0.9074 0.5763 0.3685
C3 C 1.1270(4) 0.5962(3) 0.26515(19)
C4 C 1.1411(4) 0.5259(3) 0.16982(19)
C5 C 0.9549(5) 0.3919(4) 0.1173(2)
H2 H 0.9673 0.3460 0.0538
C6 C 0.7504(5) 0.3261(4) 0.1588(3)
H3 H 0.6241 0.2349 0.1232
C7 C 0.4817(6) 0.2784(6) 0.2726(3)
H4 H 0.3809 0.1860 0.2267
C8 C 0.4287(6) 0.3213(5) 0.3572(2)
H5 H 0.5350 0.4157 0.4006
C11 C 0.1831(5) 0.2135(5) 0.3871(3)
C12 C -0.0103(8) 0.0611(5) 0.3285(3)
H8 H -0.1400 0.0213 0.3668
H9 H 0.0349 -0.0452 0.3082
H10 H -0.0506 0.1090 0.2728
C13 C 1.3290(6) 0.7714(5) 0.4125(2)
H11 H 1.2309 0.8425 0.4272
H12 H 1.4830 0.8466 0.4371
H13 H 1.2771 0.6568 0.4420
C14 C 1.4400(5) 0.7588(4) 0.10439(18)
C15 C 1.6743(5) 0.7974(5) 0.0730(2)
H14 H 1.6724 0.6999 0.0222
H15 H 1.7741 0.7986 0.1266
H16 H 1.7286 0.9187 0.0497
O1 O 0.1650(4) 0.2704(4) 0.46647(19)
O2 O 1.3230(3) 0.7243(3) 0.31006(13)
O3 O 1.3305(3) 0.8606(3) 0.10693(14)
O4 O 1.3533(3) 0.5806(2) 0.13013(12)
C9? C 0.5396(6) 0.3583(5) 0.3256(2)
H6? H 0.5659 0.4348 0.3849
C10? C 0.3469(9) 0.2245(8) 0.3042(3)
H7? H 0.3087 0.1433 0.2462
loop_
_geom_bond_atom_site_label_1
_geom_bond_atom_site_label_2
_geom_bond_site_symmetry_1
_geom_bond_site_symmetry_2
C1 C2 1_555 1_555
C2 H1 1_555 1_555
C3 C2 1_555 1_555
C4 C3 1_555 1_555
C5 C4 1_555 1_555
H2 C5 1_555 1_555
C6 C1 1_555 1_555
H3 C6 1_555 1_555
C7 C1 1_555 1_555
H4 C7 1_555 1_555
C8 C7 1_555 1_555
H5 C8 1_555 1_555
C11 C8 1_555 1_555
C12 C11 1_555 1_555
H8 C12 1_555 1_555
H9 C12 1_555 1_555
H10 C12 1_555 1_555
C13 H11 1_555 1_555
H12 C13 1_555 1_555
H13 C13 1_555 1_555
C14 C15 1_555 1_555
C15 H14 1_555 1_555
H15 C15 1_555 1_555
H16 C15 1_555 1_555
O1 C11 1_555 1_555
O2 C3 1_555 1_555
O3 C14 1_555 1_555
O4 C4 1_555 1_555
C5 C6 1_555 1_555
C13 O2 1_555 1_555
C14 O4 1_555 1_555

#END
