
#######################################################################
#
#                 Cambridge Crystallographic Data Centre
#                                CCDC 
#
#######################################################################
#
# If this CIF has been generated from an entry in the Cambridge 
# Structural Database, then it will include bibliographic, chemical, 
# crystal, experimental, refinement or atomic coordinate data resulting 
# from the CCDC's data processing and validation procedures.
#
#######################################################################

data_YODJIL
_chemical_formula_moiety         'C12 H10 Cl1 N1 O2'
_chemical_name_systematic        '5-(Chloromethyl)quinolin-8-yl acetate'
_symmetry_cell_setting           triclinic
_symmetry_space_group_name_H-M   'P -1'
_symmetry_Int_Tables_number      2
_space_group_name_Hall           '-P 1'
loop_
_symmetry_equiv_pos_site_id
_symmetry_equiv_pos_as_xyz
1 x,y,z
2 -x,-y,-z
_cell_length_a                   9.2299(10)
_cell_length_b                   11.0042(13)
_cell_length_c                   11.2429(13)
_cell_angle_alpha                105.073(4)
_cell_angle_beta                 94.1050(10)
_cell_angle_gamma                90.815(2)
_cell_volume                     1099.16
_exptl_crystal_colour            colorless
_exptl_crystal_description       block
_chemical_melting_point          '400 K'
_cell_formula_units_Z            4
_exptl_crystal_recrystallization_method ethanol
loop_
_atom_site_label
_atom_site_type_symbol
_atom_site_fract_x
_atom_site_fract_y
_atom_site_fract_z
Cl1 Cl 0.45143(5) 0.67427(5) 0.57622(4)
O1 O 0.52846(13) 1.00138(12) 0.17138(11)
O2 O 0.74973(16) 1.02523(15) 0.27180(14)
N1 N 0.60339(17) 0.75273(15) 0.11659(13)
C1 C 0.6356(2) 0.6329(2) 0.09146(18)
H1 H 0.6942 0.6023 0.0270
C2 C 0.5871(2) 0.54890(18) 0.15594(19)
H2 H 0.6132 0.4652 0.1338
C3 C 0.5019(2) 0.59019(17) 0.25069(17)
H3 H 0.4689 0.5351 0.2938
C4 C 0.46384(17) 0.71804(15) 0.28332(15)
C5 C 0.37582(18) 0.77105(17) 0.38191(15)
C6 C 0.3457(2) 0.89608(18) 0.40698(17)
H4 H 0.2883 0.9305 0.4713
C7 C 0.3996(2) 0.97351(17) 0.33765(17)
H5 H 0.3782 1.0584 0.3562
C8 C 0.48297(18) 0.92409(16) 0.24364(15)
C9 C 0.51836(17) 0.79539(16) 0.21255(15)
C10 C 0.3155(2) 0.6929(2) 0.45894(18)
H6 H 0.2836 0.6108 0.4065
H7 H 0.2319 0.7332 0.4979
C11 C 0.6674(2) 1.04787(17) 0.19412(17)
C12 C 0.6965(3) 1.1301(2) 0.1117(2)
H8 H 0.6399 1.2041 0.1332
H9 H 0.6704 1.0851 0.0274
H10 H 0.7979 1.1542 0.1213
Cl2 Cl -0.04871(6) 0.86602(4) 0.57393(5)
O3 O 0.03984(14) 0.32842(11) 0.17193(12)
O4 O 0.25535(16) 0.36297(15) 0.28101(15)
N2 N 0.11712(16) 0.54988(15) 0.11822(13)
C13 C 0.1446(2) 0.6560(2) 0.09004(18)
H11 H 0.2051 0.6536 0.0268
C14 C 0.0896(2) 0.7722(2) 0.14814(19)
H12 H 0.1119 0.8437 0.1226
C15 C 0.0033(2) 0.77951(17) 0.24219(17)
H13 H -0.0332 0.8563 0.2826
C16 C -0.03079(17) 0.66915(16) 0.27844(15)
C17 C -0.11980(18) 0.66651(17) 0.37671(16)
C18 C -0.1492(2) 0.55457(19) 0.40301(17)
H14 H -0.2071 0.5533 0.4671
C19 C -0.0938(2) 0.44153(18) 0.33514(17)
H15 H -0.1159 0.3661 0.3535
C20 C -0.00775(18) 0.44301(16) 0.24263(16)
C21 C 0.02808(17) 0.55580(16) 0.21112(14)
C22 C -0.1815(2) 0.78404(19) 0.45259(18)
H16 H -0.2676 0.7626 0.4887
H17 H -0.2098 0.8385 0.4001
C23 C 0.1777(2) 0.29749(18) 0.19924(18)
C24 C 0.2111(3) 0.1743(2) 0.1156(2)
H18 H 0.2125 0.1823 0.0326
H19 H 0.1380 0.1123 0.1183
H20 H 0.3044 0.1486 0.1417
loop_
_geom_bond_atom_site_label_1
_geom_bond_atom_site_label_2
_geom_bond_site_symmetry_1
_geom_bond_site_symmetry_2
Cl1 C10 1_555 1_555
Cl2 C22 1_555 1_555
O1 C8 1_555 1_555
O2 C11 1_555 1_555
O3 C20 1_555 1_555
O4 C23 1_555 1_555
N1 C1 1_555 1_555
N2 C13 1_555 1_555
C1 H1 1_555 1_555
C2 C1 1_555 1_555
H2 C2 1_555 1_555
C3 C2 1_555 1_555
H3 C3 1_555 1_555
C4 C3 1_555 1_555
C5 C4 1_555 1_555
C6 C5 1_555 1_555
H4 C6 1_555 1_555
C7 C6 1_555 1_555
H5 C7 1_555 1_555
C8 C7 1_555 1_555
C9 N1 1_555 1_555
C10 C5 1_555 1_555
H6 C10 1_555 1_555
H7 C10 1_555 1_555
C11 O1 1_555 1_555
C12 C11 1_555 1_555
H8 C12 1_555 1_555
H9 C12 1_555 1_555
H10 C12 1_555 1_555
C13 H11 1_555 1_555
C14 C13 1_555 1_555
H12 C14 1_555 1_555
C15 C14 1_555 1_555
H13 C15 1_555 1_555
C16 C15 1_555 1_555
C17 C16 1_555 1_555
C18 C17 1_555 1_555
H14 C18 1_555 1_555
C19 C18 1_555 1_555
H15 C19 1_555 1_555
C20 C19 1_555 1_555
C21 N2 1_555 1_555
C22 C17 1_555 1_555
H16 C22 1_555 1_555
H17 C22 1_555 1_555
C23 O3 1_555 1_555
C24 C23 1_555 1_555
H18 C24 1_555 1_555
H19 C24 1_555 1_555
H20 C24 1_555 1_555
C4 C9 1_555 1_555
C8 C9 1_555 1_555
C16 C21 1_555 1_555
C20 C21 1_555 1_555

#END
