
#######################################################################
#
#                 Cambridge Crystallographic Data Centre
#                                CCDC 
#
#######################################################################
#
# If this CIF has been generated from an entry in the Cambridge 
# Structural Database, then it will include bibliographic, chemical, 
# crystal, experimental, refinement or atomic coordinate data resulting 
# from the CCDC's data processing and validation procedures.
#
#######################################################################

data_YODLIO
_chemical_name_common            
11-Hydroxy-6,16-diaza-2,4,8,13-tetraoxa-1,4(1,4),3(1,3),8,14(1,2)-pentabenzenacyclohexadecaphane
_chemical_formula_moiety         'C35 H32 N2 O5'
_chemical_name_systematic        
2,8,21,25-tetraoxa-13,33-diazahexacyclo[32.2.2.2^9,12^.1^3,7^.0^15,20^.0^26,31^]hentetraconta-1(36),3(41),4,6,9,11,15,17,19,26,28,30,34,37,39-pentadecaen-23-ol
_symmetry_cell_setting           triclinic
_symmetry_space_group_name_H-M   'P -1'
_symmetry_Int_Tables_number      2
_space_group_name_Hall           '-P 1'
loop_
_symmetry_equiv_pos_site_id
_symmetry_equiv_pos_as_xyz
1 x,y,z
2 -x,-y,-z
_cell_length_a                   10.9446(15)
_cell_length_b                   11.4129(16)
_cell_length_c                   13.9447(19)
_cell_angle_alpha                66.702(4)
_cell_angle_beta                 82.740(4)
_cell_angle_gamma                78.729(4)
_cell_volume                     1566.62
_cell_formula_units_Z            2
loop_
_atom_site_label
_atom_site_type_symbol
_atom_site_fract_x
_atom_site_fract_y
_atom_site_fract_z
C1 C 0.5472(3) 0.8550(3) -0.0529(4)
H1 H 0.6076 0.8985 -0.0470
C2 C 0.5012(3) 0.7659(3) 0.0349(3)
H2 H 0.5302 0.7478 0.0999
C3 C 0.4091(2) 0.7018(2) 0.0256(3)
C4 C 0.3666(2) 0.7270(2) -0.0698(2)
H3 H 0.3056 0.6840 -0.0753
C5 C 0.4161(3) 0.8177(3) -0.1582(3)
C6 C 0.5073(3) 0.8826(3) -0.1497(4)
H4 H 0.5404 0.9436 -0.2088
C7 C 0.2712(3) 0.5490(2) 0.1167(2)
C8 C 0.1571(3) 0.5752(2) 0.1627(2)
H5 H 0.1424 0.6397 0.1896
C9 C 0.0634(3) 0.5066(2) 0.1695(2)
H6 H -0.0141 0.5256 0.2006
C10 C 0.0835(3) 0.4089(2) 0.1300(2)
C11 C 0.2004(3) 0.3835(2) 0.0840(2)
H7 H 0.2162 0.3188 0.0572
C12 C 0.2937(3) 0.4531(2) 0.0772(2)
H8 H 0.3715 0.4352 0.0460
C13 C 0.0030(3) 0.2453(3) 0.0910(3)
H9 H 0.0393 0.2817 0.0204
H10 H -0.0793 0.2292 0.0860
C14 C 0.0829(2) 0.1173(2) 0.1492(2)
C15 C 0.1019(3) 0.0728(3) 0.2536(3)
H11 H 0.0655 0.1240 0.2907
C16 C 0.1732(3) -0.0455(3) 0.3064(3)
H12 H 0.1835 -0.0736 0.3777
C17 C 0.2292(3) -0.1214(3) 0.2503(3)
H13 H 0.2778 -0.2009 0.2841
C18 C 0.2125(3) -0.0790(2) 0.1454(2)
H14 H 0.2497 -0.1299 0.1082
C19 C 0.1402(2) 0.0395(2) 0.0949(2)
C20 C 0.2001(3) 0.0373(3) -0.0773(2)
H15 H 0.1698 -0.0368 -0.0780
H16 H 0.2841 0.0093 -0.0529
C21 C 0.2003(4) 0.1411(3) -0.1853(3)
H17 H 0.2510 0.1028 -0.2320
C22 C 0.0770(3) 0.1865(3) -0.2239(3)
H18 H 0.0485 0.1177 -0.2349
H19 H 0.0206 0.2076 -0.1714
C23 C 0.1232(3) 0.2851(3) -0.4099(3)
C24 C 0.1251(5) 0.1808(4) -0.4332(4)
H20 H 0.0909 0.1102 -0.3853
C25 C 0.1771(5) 0.1785(5) -0.5272(5)
H21 H 0.1827 0.1038 -0.5403
C26 C 0.2221(5) 0.2864(5) -0.6043(4)
H22 H 0.2526 0.2862 -0.6696
C27 C 0.2196(5) 0.3932(4) -0.5798(4)
H23 H 0.2513 0.4649 -0.6286
C28 C 0.1713(3) 0.3950(3) -0.4853(3)
C29 C 0.1710(4) 0.5086(3) -0.4581(3)
H24 H 0.1855 0.5827 -0.5210
H25 H 0.0904 0.5298 -0.4259
C30 C 0.2896(3) 0.5743(3) -0.3535(2)
C31 C 0.2113(3) 0.6919(3) -0.3715(3)
H26 H 0.1394 0.7109 -0.4074
C32 C 0.2395(3) 0.7811(3) -0.3363(3)
H27 H 0.1863 0.8593 -0.3493
C33 C 0.3443(3) 0.7555(3) -0.2828(2)
C34 C 0.4239(3) 0.6393(3) -0.2645(3)
H28 H 0.4958 0.6213 -0.2288
C35 C 0.3966(3) 0.5506(3) -0.2992(3)
H29 H 0.4507 0.4729 -0.2862
N1 N -0.0104(2) 0.3392(2) 0.1379(2)
H30 H -0.0791 0.3527 0.1721
N2 N 0.2684(3) 0.4788(2) -0.3860(2)
H31 H 0.3127 0.4031 -0.3635
O1 O 0.36622(18) 0.61519(18) 0.11808(17)
O2 O 0.3718(2) 0.85244(19) -0.2556(2)
O3 O 0.0716(2) 0.2980(2) -0.3197(2)
O4 O 0.1207(2) 0.08997(19) -0.01027(17)
O5 O 0.2586(3) 0.2389(2) -0.1852(2)
H32 H 0.2373 0.3056 -0.2352
loop_
_geom_bond_atom_site_label_1
_geom_bond_atom_site_label_2
_geom_bond_site_symmetry_1
_geom_bond_site_symmetry_2
C1 H1 1_555 1_555
C2 C1 1_555 1_555
H2 C2 1_555 1_555
C3 C2 1_555 1_555
C4 C3 1_555 1_555
H3 C4 1_555 1_555
C5 C4 1_555 1_555
C6 C1 1_555 1_555
H4 C6 1_555 1_555
C7 C8 1_555 1_555
C8 H5 1_555 1_555
C9 C8 1_555 1_555
H6 C9 1_555 1_555
C10 C9 1_555 1_555
C11 C10 1_555 1_555
H7 C11 1_555 1_555
C12 C7 1_555 1_555
H8 C12 1_555 1_555
C13 H9 1_555 1_555
H10 C13 1_555 1_555
C14 C13 1_555 1_555
C15 C14 1_555 1_555
H11 C15 1_555 1_555
C16 C15 1_555 1_555
H12 C16 1_555 1_555
C17 C16 1_555 1_555
H13 C17 1_555 1_555
C18 C17 1_555 1_555
H14 C18 1_555 1_555
C19 C14 1_555 1_555
C20 H15 1_555 1_555
H16 C20 1_555 1_555
C21 C20 1_555 1_555
H17 C21 1_555 1_555
C22 C21 1_555 1_555
H18 C22 1_555 1_555
H19 C22 1_555 1_555
C23 C24 1_555 1_555
C24 H20 1_555 1_555
C25 C24 1_555 1_555
H21 C25 1_555 1_555
C26 C25 1_555 1_555
H22 C26 1_555 1_555
C27 C26 1_555 1_555
H23 C27 1_555 1_555
C28 C23 1_555 1_555
C29 C28 1_555 1_555
H24 C29 1_555 1_555
H25 C29 1_555 1_555
C30 C31 1_555 1_555
C31 H26 1_555 1_555
C32 C31 1_555 1_555
H27 C32 1_555 1_555
C33 C32 1_555 1_555
C34 C33 1_555 1_555
H28 C34 1_555 1_555
C35 C30 1_555 1_555
H29 C35 1_555 1_555
N1 C10 1_555 1_555
H30 N1 1_555 1_555
N2 C29 1_555 1_555
H31 N2 1_555 1_555
O1 C3 1_555 1_555
O2 C5 1_555 1_555
O3 C22 1_555 1_555
O4 C19 1_555 1_555
O5 C21 1_555 1_555
H32 O5 1_555 1_555
C5 C6 1_555 1_555
C7 O1 1_555 1_555
C11 C12 1_555 1_555
C13 N1 1_555 1_555
C18 C19 1_555 1_555
C20 O4 1_555 1_555
C23 O3 1_555 1_555
C27 C28 1_555 1_555
C30 N2 1_555 1_555
C33 O2 1_555 1_555
C34 C35 1_555 1_555

#END
