
#######################################################################
#
#                 Cambridge Crystallographic Data Centre
#                                CCDC 
#
#######################################################################
#
# If this CIF has been generated from an entry in the Cambridge 
# Structural Database, then it will include bibliographic, chemical, 
# crystal, experimental, refinement or atomic coordinate data resulting 
# from the CCDC's data processing and validation procedures.
#
#######################################################################

data_YODNUB
_chemical_formula_moiety         'C18 H17 N7 S1'
_chemical_name_systematic        
3-Benzylsulfanyl-5-(4-phenyl-1H-1,2,3-triazol-1-ylmethyl)-4H-1,2,4-triazol-4-amine
_symmetry_cell_setting           orthorhombic
_symmetry_space_group_name_H-M   'P n a 21'
_symmetry_Int_Tables_number      33
_space_group_name_Hall           'P 2c -2n'
loop_
_symmetry_equiv_pos_site_id
_symmetry_equiv_pos_as_xyz
1 x,y,z
2 -x,-y,1/2+z
3 1/2+x,1/2-y,z
4 1/2-x,1/2+y,1/2+z
_cell_length_a                   8.0487(15)
_cell_length_b                   5.4689(10)
_cell_length_c                   38.721(7)
_cell_angle_alpha                90
_cell_angle_beta                 90
_cell_angle_gamma                90
_cell_volume                     1704.4
_exptl_crystal_colour            colorless
_exptl_crystal_description       plate
_cell_formula_units_Z            4
_exptl_crystal_recrystallization_method acetone
loop_
_atom_site_label
_atom_site_type_symbol
_atom_site_fract_x
_atom_site_fract_y
_atom_site_fract_z
S1 S 0.0735(2) 0.5751(3) 0.34992(5)
N1 N -0.0030(7) 0.2276(10) 0.39829(15)
C1 C 0.0723(7) 0.4329(11) 0.38974(17)
N2 N 0.1621(6) 0.5157(9) 0.41739(14)
C2 C -0.0955(7) 0.3110(10) 0.60677(16)
H1 H -0.0314 0.1797 0.5993
C3 C -0.0485(7) 0.5171(11) 0.55000(16)
N3 N 0.0366(7) 0.1806(11) 0.43251(16)
C4 C -0.0838(8) 0.4412(12) 0.29074(17)
N4 N -0.0513(8) 0.7223(11) 0.53032(15)
C5 C -0.2600(7) 0.4969(12) 0.65095(18)
H2 H -0.3061 0.4923 0.6730
N5 N 0.0363(8) 0.6895(11) 0.50221(17)
C6 C -0.2313(8) 0.6963(10) 0.59606(18)
H3 H -0.2576 0.8261 0.5815
C7 C -0.0064(8) 0.2866(11) 0.26757(19)
H4 H 0.0496 0.1498 0.2758
N6 N 0.0979(6) 0.4597(10) 0.50423(14)
C8 C -0.0919(9) 0.5334(14) 0.2199(2)
H5 H -0.0967 0.5634 0.1963
N7 N 0.2650(7) 0.7185(10) 0.41686(15)
H6 H 0.3227 0.7555 0.4348
H7 H 0.2712 0.8075 0.3986
C9 C -0.1574(9) 0.3117(11) 0.63972(17)
H8 H -0.1299 0.1853 0.6547
C10 C -0.2935(8) 0.6914(11) 0.62878(17)
H9 H -0.3594 0.8201 0.6365
C11 C -0.1276(7) 0.5067(11) 0.58396(16)
C12 C -0.1648(8) 0.6881(11) 0.24299(18)
H10 H -0.2206 0.8245 0.2346
C13 C 0.1372(7) 0.3584(12) 0.44322(16)
C14 C -0.1598(8) 0.6523(11) 0.27809(18)
H11 H -0.2062 0.7662 0.2931
C15 C 0.0472(7) 0.3493(11) 0.53312(16)
H12 H 0.0720 0.1910 0.5403
C16 C -0.0103(8) 0.3297(13) 0.2329(2)
H13 H 0.0421 0.2220 0.2178
C17 C 0.2124(8) 0.3702(15) 0.47810(17)
H14 H 0.2502 0.2082 0.4846
H15 H 0.3088 0.4766 0.4774
C18 C -0.0816(10) 0.3877(15) 0.3288(2)
H16 H -0.0565 0.2162 0.3325
H17 H -0.1901 0.4213 0.3386
loop_
_geom_bond_atom_site_label_1
_geom_bond_atom_site_label_2
_geom_bond_site_symmetry_1
_geom_bond_site_symmetry_2
S1 C1 1_555 1_555
N1 C1 1_555 1_555
C1 N2 1_555 1_555
N2 N7 1_555 1_555
C2 H1 1_555 1_555
C3 N4 1_555 1_555
N3 N1 1_555 1_555
C4 C7 1_555 1_555
N4 N5 1_555 1_555
C5 H2 1_555 1_555
N5 N6 1_555 1_555
C6 H3 1_555 1_555
C7 H4 1_555 1_555
N6 C15 1_555 1_555
C8 H5 1_555 1_555
N7 H6 1_555 1_555
H7 N7 1_555 1_555
C9 C2 1_555 1_555
H8 C9 1_555 1_555
C10 C5 1_555 1_555
H9 C10 1_555 1_555
C11 C2 1_555 1_555
C12 C8 1_555 1_555
H10 C12 1_555 1_555
C13 N2 1_555 1_555
C14 C4 1_555 1_555
H11 C14 1_555 1_555
C15 C3 1_555 1_555
H12 C15 1_555 1_555
C16 C7 1_555 1_555
H13 C16 1_555 1_555
C17 N6 1_555 1_555
H14 C17 1_555 1_555
H15 C17 1_555 1_555
C18 S1 1_555 1_555
H16 C18 1_555 1_555
H17 C18 1_555 1_555
C3 C11 1_555 1_555
N3 C13 1_555 1_555
C4 C18 1_555 1_555
C5 C9 1_555 1_555
C6 C10 1_555 1_555
C6 C11 1_555 1_555
C8 C16 1_555 1_555
C12 C14 1_555 1_555
C13 C17 1_555 1_555

#END
