
#######################################################################
#
#                 Cambridge Crystallographic Data Centre
#                                CCDC 
#
#######################################################################
#
# If this CIF has been generated from an entry in the Cambridge 
# Structural Database, then it will include bibliographic, chemical, 
# crystal, experimental, refinement or atomic coordinate data resulting 
# from the CCDC's data processing and validation procedures.
#
#######################################################################

data_YODNIQ
_chemical_formula_moiety         'C25 H22 O5 S1'
_chemical_name_systematic        
'isopropyl 4-oxo-2-(2-oxo-3-phenyl-2,3-dihydro-1-benzofuran-3-yl)-4-(2-thienyl)butanoate'
_symmetry_cell_setting           monoclinic
_symmetry_space_group_name_H-M   'P 21'
_symmetry_Int_Tables_number      4
_space_group_name_Hall           'P 2yb'
loop_
_symmetry_equiv_pos_site_id
_symmetry_equiv_pos_as_xyz
1 x,y,z
2 -x,1/2+y,-z
_cell_length_a                   7.7042(4)
_cell_length_b                   15.7653(7)
_cell_length_c                   9.1879(4)
_cell_angle_alpha                90
_cell_angle_beta                 104.370(5)
_cell_angle_gamma                90
_cell_volume                     1081.04
_exptl_crystal_colour            colorless
_exptl_crystal_description       block
_cell_formula_units_Z            2
loop_
_atom_site_label
_atom_site_type_symbol
_atom_site_fract_x
_atom_site_fract_y
_atom_site_fract_z
S1 S 1.0132(3) 0.73070(11) 1.03405(16)
O1 O 0.9011(4) 0.5210(2) 0.2931(3)
O2 O 1.0961(5) 0.4629(3) 0.4889(4)
O3 O 0.9562(6) 0.5550(2) 0.9166(4)
O4 O 0.5350(5) 0.5264(2) 0.7230(4)
O5 O 0.6105(5) 0.3901(2) 0.7222(4)
C1 C 0.9895(10) 0.8345(4) 0.9849(8)
H1 H 1.0213 0.8791 1.0526
C2 C 0.9195(8) 0.8448(4) 0.8370(7)
H2 H 0.8965 0.8979 0.7922
C3 C 0.8842(6) 0.7692(3) 0.7558(5)
H3 H 0.8385 0.7656 0.6523
C4 C 0.9276(6) 0.6987(3) 0.8533(5)
C5 C 0.9129(6) 0.6078(3) 0.8186(5)
C6 C 0.8420(7) 0.5832(3) 0.6571(5)
H4 H 0.9308 0.5965 0.6020
H5 H 0.7352 0.6161 0.6140
C7 C 0.7965(6) 0.4879(3) 0.6405(5)
H6 H 0.8969 0.4569 0.7049
C8 C 0.7725(6) 0.4548(3) 0.4764(5)
C9 C 0.9430(7) 0.4779(3) 0.4265(5)
C10 C 0.6334(6) 0.5010(3) 0.3583(4)
C11 C 0.7158(7) 0.5340(3) 0.2534(5)
C12 C 0.6258(8) 0.5735(4) 0.1236(5)
H7 H 0.6852 0.5939 0.0542
C13 C 0.4413(8) 0.5815(4) 0.1009(6)
H8 H 0.3751 0.6078 0.0142
C14 C 0.3551(8) 0.5511(3) 0.2047(6)
H9 H 0.2318 0.5581 0.1881
C15 C 0.4499(7) 0.5104(3) 0.3335(5)
H10 H 0.3907 0.4895 0.4028
C16 C 0.7549(6) 0.3575(3) 0.4623(5)
C17 C 0.6281(7) 0.3188(3) 0.3491(6)
H11 H 0.5472 0.3518 0.2801
C18 C 0.6201(8) 0.2306(4) 0.3371(6)
H12 H 0.5343 0.2055 0.2598
C19 C 0.7360(8) 0.1809(3) 0.4369(7)
H13 H 0.7282 0.1221 0.4291
C20 C 0.8654(8) 0.2182(3) 0.5500(6)
H14 H 0.9454 0.1845 0.6184
C21 C 0.8762(7) 0.3053(3) 0.5617(5)
H15 H 0.9657 0.3298 0.6369
C22 C 0.6315(6) 0.4715(3) 0.7001(5)
C23 C 0.4497(7) 0.3617(4) 0.7678(6)
H16 H 0.3547 0.4043 0.7388
C24 C 0.3937(10) 0.2817(5) 0.6834(8)
H17 H 0.3737 0.2923 0.5776
H18 H 0.2851 0.2613 0.7045
H19 H 0.4862 0.2399 0.7136
C25 C 0.4984(10) 0.3506(6) 0.9345(7)
H20 H 0.5954 0.3109 0.9627
H21 H 0.3966 0.3296 0.9660
H22 H 0.5345 0.4042 0.9820
loop_
_geom_bond_atom_site_label_1
_geom_bond_atom_site_label_2
_geom_bond_site_symmetry_1
_geom_bond_site_symmetry_2
S1 C1 1_555 1_555
O1 C9 1_555 1_555
O2 C9 1_555 1_555
O3 C5 1_555 1_555
O4 C22 1_555 1_555
O5 C22 1_555 1_555
C1 H1 1_555 1_555
C2 C1 1_555 1_555
H2 C2 1_555 1_555
C3 C2 1_555 1_555
H3 C3 1_555 1_555
C4 S1 1_555 1_555
C5 C4 1_555 1_555
C6 C5 1_555 1_555
H4 C6 1_555 1_555
H5 C6 1_555 1_555
C7 C6 1_555 1_555
H6 C7 1_555 1_555
C8 C7 1_555 1_555
C9 C8 1_555 1_555
C10 C8 1_555 1_555
C11 O1 1_555 1_555
C12 C11 1_555 1_555
H7 C12 1_555 1_555
C13 C12 1_555 1_555
H8 C13 1_555 1_555
C14 C13 1_555 1_555
H9 C14 1_555 1_555
C15 C10 1_555 1_555
H10 C15 1_555 1_555
C16 C8 1_555 1_555
C17 C16 1_555 1_555
H11 C17 1_555 1_555
C18 C17 1_555 1_555
H12 C18 1_555 1_555
C19 C18 1_555 1_555
H13 C19 1_555 1_555
C20 C19 1_555 1_555
H14 C20 1_555 1_555
C21 C16 1_555 1_555
H15 C21 1_555 1_555
C22 C7 1_555 1_555
C23 O5 1_555 1_555
H16 C23 1_555 1_555
C24 C23 1_555 1_555
H17 C24 1_555 1_555
H18 C24 1_555 1_555
H19 C24 1_555 1_555
C25 C23 1_555 1_555
H20 C25 1_555 1_555
H21 C25 1_555 1_555
H22 C25 1_555 1_555
C3 C4 1_555 1_555
C10 C11 1_555 1_555
C14 C15 1_555 1_555
C20 C21 1_555 1_555

#END
