
#######################################################################
#
#                 Cambridge Crystallographic Data Centre
#                                CCDC 
#
#######################################################################
#
# If this CIF has been generated from an entry in the Cambridge 
# Structural Database, then it will include bibliographic, chemical, 
# crystal, experimental, refinement or atomic coordinate data resulting 
# from the CCDC's data processing and validation procedures.
#
#######################################################################

data_YODPAJ
_chemical_formula_moiety         'C17 H16 N4 O1'
_chemical_name_systematic        
2-(4-Phenyl-1H-1,2,3-triazol-1-yl)-N-(p-tolyl)acetamide
_symmetry_cell_setting           monoclinic
_symmetry_space_group_name_H-M   'P 21/c'
_symmetry_Int_Tables_number      14
_space_group_name_Hall           '-P 2ybc'
loop_
_symmetry_equiv_pos_site_id
_symmetry_equiv_pos_as_xyz
1 x,y,z
2 -x,1/2+y,1/2-z
3 -x,-y,-z
4 x,1/2-y,1/2+z
_cell_length_a                   5.5923(7)
_cell_length_b                   30.438(4)
_cell_length_c                   9.6112(10)
_cell_angle_alpha                90
_cell_angle_beta                 115.595(6)
_cell_angle_gamma                90
_cell_volume                     1475.46
_exptl_crystal_colour            colorless
_exptl_crystal_description       plate
_cell_formula_units_Z            4
_exptl_crystal_recrystallization_method 'ethyl acetate'
loop_
_atom_site_label
_atom_site_type_symbol
_atom_site_fract_x
_atom_site_fract_y
_atom_site_fract_z
N1 N 0.5557(4) 0.72043(6) 0.6455(2)
H1 H 0.6141 0.7249 0.7431
N2 N 0.9051(4) 0.81474(6) 0.5865(2)
O1 O 0.5915(4) 0.74454(5) 0.43200(19)
C1 C 0.9236(4) 0.87351(7) 0.4663(3)
N3 N 1.1547(4) 0.85049(7) 0.5105(2)
N4 N 1.1417(4) 0.81467(7) 0.5828(2)
C2 C 0.3715(4) 0.68575(7) 0.5825(2)
C3 C 0.7636(5) 0.85028(7) 0.5150(3)
H2 H 0.5935 0.8576 0.5014
C4 C 0.3509(5) 0.66145(7) 0.4563(3)
H3 H 0.4596 0.6679 0.4081
C5 C 0.2094(5) 0.67507(8) 0.6535(3)
H4 H 0.2224 0.6909 0.7393
C6 C 0.6489(5) 0.74713(7) 0.5694(3)
C7 C 0.1688(5) 0.62767(7) 0.4016(3)
H5 H 0.1568 0.6117 0.3164
C8 C 0.8802(5) 0.91601(8) 0.3866(3)
C9 C 0.0036(5) 0.61689(8) 0.4702(3)
C10 C 0.0295(5) 0.64126(8) 0.5975(3)
H6 H -0.0775 0.6346 0.6465
C11 C 0.8423(5) 0.78126(8) 0.6729(3)
H7 H 0.7666 0.7952 0.7355
H8 H 1.0047 0.7667 0.7420
C12 C 0.6276(5) 0.92969(9) 0.2884(3)
H9 H 0.4834 0.9117 0.2715
C13 C 1.0916(6) 0.94323(9) 0.4090(3)
H10 H 1.2632 0.9345 0.4743
C14 C 0.5868(6) 0.96997(10) 0.2147(4)
H11 H 0.4158 0.9788 0.1487
C15 C 0.7971(7) 0.99692(10) 0.2385(4)
H12 H 0.7693 1.0241 0.1900
C16 C 1.0483(7) 0.98348(9) 0.3341(4)
H13 H 1.1918 1.0015 0.3492
C17 C -0.1951(6) 0.58006(9) 0.4079(4)
H14 H -0.1834 0.5672 0.3198
H15 H -0.3706 0.5914 0.3780
H16 H -0.1578 0.5581 0.4862
loop_
_geom_bond_atom_site_label_1
_geom_bond_atom_site_label_2
_geom_bond_site_symmetry_1
_geom_bond_site_symmetry_2
N1 H1 1_555 1_555
N2 N4 1_555 1_555
O1 C6 1_555 1_555
C1 N3 1_555 1_555
N3 N4 1_555 1_555
C2 N1 1_555 1_555
C3 N2 1_555 1_555
H2 C3 1_555 1_555
C4 C2 1_555 1_555
H3 C4 1_555 1_555
C5 C2 1_555 1_555
H4 C5 1_555 1_555
C6 N1 1_555 1_555
C7 C4 1_555 1_555
H5 C7 1_555 1_555
C8 C1 1_555 1_555
C9 C7 1_555 1_555
C10 C5 1_555 1_555
H6 C10 1_555 1_555
C11 N2 1_555 1_555
H7 C11 1_555 1_555
H8 C11 1_555 1_555
C12 C8 1_555 1_555
H9 C12 1_555 1_555
C13 C8 1_555 1_555
H10 C13 1_555 1_555
C14 C12 1_555 1_555
H11 C14 1_555 1_555
C15 C14 1_555 1_555
H12 C15 1_555 1_555
C16 C13 1_555 1_555
H13 C16 1_555 1_555
C17 C9 1_555 1_555
H14 C17 1_555 1_555
H15 C17 1_555 1_555
H16 C17 1_555 1_555
C1 C3 1_555 1_555
C6 C11 1_555 1_555
C9 C10 1_555 1_555
C15 C16 1_555 1_555

#END
