
#######################################################################
#
#                 Cambridge Crystallographic Data Centre
#                                CCDC 
#
#######################################################################
#
# If this CIF has been generated from an entry in the Cambridge 
# Structural Database, then it will include bibliographic, chemical, 
# crystal, experimental, refinement or atomic coordinate data resulting 
# from the CCDC's data processing and validation procedures.
#
#######################################################################

data_YODVOC
_chemical_formula_moiety         'C13 H13 F6 N1 O3'
_chemical_name_systematic        
O,O'-Dimethyl-N-trifluoroacetyl-6-trifluoromethyldopamine
_symmetry_cell_setting           monoclinic
_symmetry_space_group_name_H-M   'C 2/c'
_symmetry_Int_Tables_number      15
_space_group_name_Hall           '-C 2yn'
loop_
_symmetry_equiv_pos_site_id
_symmetry_equiv_pos_as_xyz
1 x,y,z
2 -x,y,1/2-z
3 1/2+x,1/2+y,z
4 1/2-x,1/2+y,1/2-z
5 -x,-y,-z
6 x,-y,1/2+z
7 1/2-x,1/2-y,-z
8 1/2+x,1/2-y,1/2+z
_cell_length_a                   23.171
_cell_length_b                   10.619
_cell_length_c                   15.048
_cell_angle_alpha                90
_cell_angle_beta                 126.71
_cell_angle_gamma                90
_cell_volume                     2968.27
_exptl_crystal_colour            colorless
_chemical_melting_point          150-151deg.C
_cell_formula_units_Z            8
loop_
_atom_site_label
_atom_site_type_symbol
_atom_site_fract_x
_atom_site_fract_y
_atom_site_fract_z
C1 C 1.0991(1) 0.1463(2) 0.2025(2)
C2 C 1.0747(1) 0.0225(2) 0.1830(2)
C3 C 1.0030(1) -0.0068(2) 0.1268(2)
C4 C 0.9523(1) 0.0900(2) 0.0885(2)
C5 C 0.9754(1) 0.2128(2) 0.1080(2)
C6 C 1.0485(1) 0.2418(2) 0.1646(2)
C7 C 1.1794(1) 0.1659(2) 0.2635(2)
C8 C 1.2066(1) 0.1205(2) 0.1988(2)
C9 C 1.2163(2) 0.3024(3) 0.1129(2)
C10 C 1.1837(2) 0.3793(3) 0.0065(3)
C11 C 1.0259(2) -0.2273(3) 0.1442(3)
C12 C 0.8290(1) 0.1478(3) -0.0121(3)
C13 C 1.0689(2) 0.3779(3) 0.1834(3)
F1 F 1.2326(1) 0.4040(2) -0.0085(2)
F2 F 1.1622(1) 0.4902(2) 0.0159(2)
F3 F 1.1304(2) 0.3266(3) -0.0813(2)
F4 F 1.1022(1) 0.4148(2) 0.1407(2)
F5 F 1.1151(1) 0.4064(2) 0.2918(2)
F6 F 1.0138(1) 0.4541(2) 0.1436(2)
N1 N 1.1814(1) 0.1984(2) 0.1025(2)
O1 O 1.2705(1) 0.3420(2) 0.1982(2)
O2 O 0.9757(1) -0.1266(2) 0.1041(2)
O3 O 0.8824(1) 0.0522(2) 0.0338(2)
loop_
_geom_bond_atom_site_label_1
_geom_bond_atom_site_label_2
_geom_bond_site_symmetry_1
_geom_bond_site_symmetry_2
C1 C2 1_555 1_555
C2 C3 1_555 1_555
C3 C4 1_555 1_555
C4 C5 1_555 1_555
C5 C6 1_555 1_555
C6 C1 1_555 1_555
C7 C1 1_555 1_555
C8 C7 1_555 1_555
C9 C10 1_555 1_555
C10 F1 1_555 1_555
C11 O2 1_555 1_555
C12 O3 1_555 1_555
C13 C6 1_555 1_555
F2 C10 1_555 1_555
F3 C10 1_555 1_555
F4 C13 1_555 1_555
F5 C13 1_555 1_555
F6 C13 1_555 1_555
N1 C8 1_555 1_555
O1 C9 1_555 1_555
O2 C3 1_555 1_555
O3 C4 1_555 1_555
C9 N1 1_555 1_555

#END
