
#######################################################################
#
#                 Cambridge Crystallographic Data Centre
#                                CCDC 
#
#######################################################################
#
# If this CIF has been generated from an entry in the Cambridge 
# Structural Database, then it will include bibliographic, chemical, 
# crystal, experimental, refinement or atomic coordinate data resulting 
# from the CCDC's data processing and validation procedures.
#
#######################################################################

data_YOFPUF
_chemical_formula_moiety         'C117 H86 N4,3(C1 H2 Cl2)'
_chemical_name_systematic        
'2,7-Di(10-(4-(diphenylamino)phenyl)anthracene-9-yl)-9,9-di(4-(di-p-tolylamino)phenyl)fluorene dichloromethane solvate'
_symmetry_cell_setting           monoclinic
_symmetry_space_group_name_H-M   'P 21/n'
_symmetry_Int_Tables_number      14
_space_group_name_Hall           '-P 2yn'
loop_
_symmetry_equiv_pos_site_id
_symmetry_equiv_pos_as_xyz
1 x,y,z
2 1/2-x,1/2+y,1/2-z
3 -x,-y,-z
4 1/2+x,1/2-y,1/2+z
_cell_length_a                   15.4261(12)
_cell_length_b                   33.863(3)
_cell_length_c                   20.3229(19)
_cell_angle_alpha                90
_cell_angle_beta                 97.722(4)
_cell_angle_gamma                90
_cell_volume                     10519.9
_exptl_crystal_colour            yellow
_exptl_crystal_description       prism
_cell_formula_units_Z            4
_exptl_crystal_preparation       luminescent
loop_
_atom_site_label
_atom_site_type_symbol
_atom_site_fract_x
_atom_site_fract_y
_atom_site_fract_z
N1 N 0.8858(3) 1.01212(12) 0.6318(2)
N2 N 0.6064(3) 0.84701(12) 0.9549(2)
N3 N 0.9290(3) 1.21203(11) 1.2444(2)
N4 N 0.2973(3) 0.69827(12) 0.3213(2)
C1 C 0.5945(3) 1.03125(13) 0.8544(2)
H1 H 0.6501 1.0224 0.8750
C2 C 0.5551(3) 1.06441(13) 0.8791(2)
C3 C 0.4716(3) 1.07618(13) 0.8485(2)
H2 H 0.4442 1.0984 0.8655
C4 C 0.4285(3) 1.05620(13) 0.7945(2)
H3 H 0.3720 1.0644 0.7749
C5 C 0.4695(3) 1.02346(12) 0.7687(2)
C6 C 0.4422(3) 0.99720(12) 0.7119(2)
C7 C 0.3657(3) 0.99600(13) 0.6665(2)
H4 H 0.3204 1.0148 0.6685
C8 C 0.3579(3) 0.96613(13) 0.6179(2)
H5 H 0.3068 0.9653 0.5861
C9 C 0.4222(4) 0.93801(13) 0.6150(2)
C10 C 0.5001(3) 0.94013(12) 0.6600(2)
H6 H 0.5457 0.9216 0.6575
C11 C 0.5096(3) 0.96965(12) 0.7082(2)
C12 C 0.5858(3) 0.97529(12) 0.7642(2)
C13 C 0.5522(3) 1.01143(12) 0.7997(2)
C14 C 0.6694(3) 0.98513(12) 0.7336(2)
C15 C 0.6949(3) 1.02417(14) 0.7249(2)
H7 H 0.6631 1.0449 0.7421
C16 C 0.7657(4) 1.03358(14) 0.6915(3)
H8 H 0.7817 1.0604 0.6867
C17 C 0.8130(4) 1.00365(14) 0.6653(3)
C18 C 0.7873(3) 0.96413(14) 0.6741(3)
H9 H 0.8184 0.9434 0.6563
C19 C 0.7186(3) 0.95503(14) 0.7077(2)
H10 H 0.7038 0.9282 0.7137
C20 C 0.6024(4) 0.87877(13) 0.9081(3)
C21 C 0.5226(4) 0.88843(13) 0.8690(2)
H11 H 0.4710 0.8742 0.8746
C22 C 0.5192(3) 0.91839(12) 0.8226(2)
H12 H 0.4649 0.9244 0.7966
C23 C 0.5934(3) 0.94016(12) 0.8130(2)
C24 C 0.6712(3) 0.93110(13) 0.8534(2)
H13 H 0.7225 0.9458 0.8490
C25 C 0.6751(4) 0.90053(14) 0.9005(3)
H14 H 0.7289 0.8949 0.9275
C26 C 0.6685(4) 0.84814(15) 1.0130(3)
C27 C 0.6810(4) 0.88202(16) 1.0502(3)
H15 H 0.6467 0.9047 1.0372
C28 C 0.7423(5) 0.88373(19) 1.1060(3)
H16 H 0.7499 0.9079 1.1299
C29 C 0.7936(5) 0.8515(2) 1.1285(3)
C30 C 0.7801(5) 0.8171(2) 1.0897(3)
H17 H 0.8139 0.7943 1.1029
C31 C 0.7194(4) 0.81526(18) 1.0330(3)
H18 H 0.7126 0.7916 1.0078
C32 C 0.8577(8) 0.8516(3) 1.1920(4)
H19 H 0.8255 0.8497 1.2303
H20 H 0.8917 0.8761 1.1948
H21 H 0.8973 0.8289 1.1920
C33 C 0.5504(4) 0.81297(15) 0.9421(3)
C34 C 0.5121(4) 0.79501(17) 0.9934(3)
H22 H 0.5216 0.8062 1.0366
C35 C 0.4614(4) 0.76174(18) 0.9831(4)
H23 H 0.4394 0.7495 1.0195
C36 C 0.4418(4) 0.74559(16) 0.9195(4)
C37 C 0.4781(4) 0.76337(16) 0.8678(3)
H24 H 0.4660 0.7527 0.8242
C38 C 0.5326(4) 0.79685(14) 0.8788(3)
H25 H 0.5571 0.8084 0.8429
C39 C 0.3820(5) 0.70919(19) 0.9060(4)
H26 H 0.3211 0.7169 0.9078
H27 H 0.3993 0.6890 0.9398
H28 H 0.3876 0.6985 0.8620
C40 C 0.8903(4) 1.04757(14) 0.5947(3)
C41 C 0.8146(4) 1.06290(15) 0.5570(3)
H29 H 0.7608 1.0491 0.5551
C42 C 0.8183(4) 1.09845(15) 0.5224(3)
H30 H 0.7664 1.1087 0.4980
C43 C 0.8972(4) 1.11923(15) 0.5232(3)
C44 C 0.9707(4) 1.10360(16) 0.5595(3)
H31 H 1.0247 1.1172 0.5601
C45 C 0.9693(4) 1.06850(15) 0.5954(3)
H32 H 1.0214 1.0588 0.6203
C46 C 0.9011(5) 1.15777(16) 0.4845(3)
H33 H 0.9105 1.1799 0.5156
H34 H 0.8459 1.1616 0.4552
H35 H 0.9495 1.1565 0.4578
C47 C 0.9656(4) 0.98958(15) 0.6497(3)
C48 C 1.0136(4) 0.97646(14) 0.6012(3)
H36 H 0.9943 0.9822 0.5559
C49 C 1.0902(4) 0.95477(14) 0.6184(3)
H37 H 1.1225 0.9462 0.5844
C50 C 1.1202(4) 0.94548(15) 0.6834(3)
C51 C 1.0711(4) 0.95930(17) 0.7332(3)
H38 H 1.0902 0.9537 0.7786
C52 C 0.9948(4) 0.98116(16) 0.7152(3)
H39 H 0.9625 0.9904 0.7488
C53 C 1.2011(4) 0.92045(17) 0.7037(3)
H40 H 1.2161 0.9061 0.6649
H41 H 1.1894 0.9016 0.7379
H42 H 1.2500 0.9376 0.7212
C54 C 0.6039(3) 1.08745(13) 0.9355(2)
C55 C 0.6330(3) 1.12598(13) 0.9241(2)
C56 C 0.6159(4) 1.14506(13) 0.8596(3)
H43 H 0.5827 1.1315 0.8238
C57 C 0.6465(4) 1.18170(15) 0.8496(3)
H44 H 0.6334 1.1937 0.8072
C58 C 0.6981(4) 1.20248(15) 0.9019(3)
H45 H 0.7195 1.2281 0.8940
C59 C 0.7170(4) 1.18588(14) 0.9628(3)
H46 H 0.7515 1.2002 0.9970
C60 C 0.6862(4) 1.14727(13) 0.9769(2)
C61 C 0.7085(3) 1.12901(13) 1.0391(2)
C62 C 0.6788(3) 1.09026(13) 1.0504(2)
C63 C 0.6992(4) 1.07114(14) 1.1143(3)
H47 H 0.7341 1.0848 1.1492
C64 C 0.6700(4) 1.03433(16) 1.1258(3)
H48 H 0.6835 1.0227 1.1685
C65 C 0.6186(4) 1.01288(15) 1.0734(3)
H49 H 0.6000 0.9867 1.0809
C66 C 0.5965(4) 1.03033(14) 1.0127(3)
H50 H 0.5604 1.0163 0.9791
C67 C 0.6261(3) 1.06934(13) 0.9983(3)
C68 C 0.7663(3) 1.15018(13) 1.0940(2)
C69 C 0.7328(4) 1.18128(14) 1.1286(3)
H51 H 0.6733 1.1888 1.1177
C70 C 0.7854(3) 1.20108(13) 1.1784(3)
H52 H 0.7613 1.2216 1.2023
C71 C 0.8736(4) 1.19108(13) 1.1939(3)
C72 C 0.9065(4) 1.15965(14) 1.1606(3)
H53 H 0.9656 1.1516 1.1720
C73 C 0.8526(4) 1.13998(14) 1.1105(3)
H54 H 0.8762 1.1191 1.0873
C74 C 0.9150(3) 1.25368(13) 1.2504(3)
C75 C 0.9048(4) 1.27685(15) 1.1926(3)
H55 H 0.9093 1.2651 1.1508
C76 C 0.8882(4) 1.31715(15) 1.1969(3)
H56 H 0.8804 1.3329 1.1578
C77 C 0.8830(5) 1.33432(15) 1.2585(3)
H57 H 0.8709 1.3617 1.2614
C78 C 0.8953(4) 1.31188(16) 1.3152(3)
H58 H 0.8928 1.3239 1.3571
C79 C 0.9115(4) 1.27118(15) 1.3115(3)
H59 H 0.9201 1.2557 1.3509
C80 C 0.9912(4) 1.19217(14) 1.2906(3)
C81 C 1.0705(4) 1.21048(15) 1.3152(3)
H60 H 1.0824 1.2365 1.3014
C82 C 1.1316(4) 1.19079(16) 1.3597(3)
H61 H 1.1851 1.2034 1.3760
C83 C 1.1153(4) 1.15273(17) 1.3808(3)
H62 H 1.1569 1.1397 1.4122
C84 C 1.0392(4) 1.13424(16) 1.3560(3)
H63 H 1.0285 1.1079 1.3690
C85 C 0.9775(4) 1.15388(14) 1.3118(3)
H64 H 0.9244 1.1408 1.2956
C86 C 0.4076(3) 0.90268(13) 0.5689(2)
C87 C 0.4221(3) 0.90591(13) 0.5022(2)
C88 C 0.4498(4) 0.94198(14) 0.4752(3)
H65 H 0.4572 0.9648 0.5027
C89 C 0.4660(4) 0.94453(16) 0.4102(3)
H66 H 0.4859 0.9686 0.3934
C90 C 0.4525(4) 0.91066(15) 0.3685(3)
H67 H 0.4639 0.9123 0.3238
C91 C 0.4240(4) 0.87621(15) 0.3912(3)
H68 H 0.4142 0.8545 0.3616
C92 C 0.4081(3) 0.87149(14) 0.4586(2)
C93 C 0.3785(3) 0.83511(14) 0.4852(3)
C94 C 0.3665(3) 0.83254(13) 0.5517(2)
C95 C 0.3375(4) 0.79661(14) 0.5797(3)
H69 H 0.3265 0.7740 0.5523
C96 C 0.3256(4) 0.79445(15) 0.6448(3)
H70 H 0.3054 0.7705 0.6618
C97 C 0.3428(4) 0.82726(15) 0.6871(3)
H71 H 0.3356 0.8250 0.7327
C98 C 0.3696(4) 0.86216(15) 0.6637(3)
H72 H 0.3800 0.8840 0.6930
C99 C 0.3826(3) 0.86644(13) 0.5950(2)
C100 C 0.3588(4) 0.80045(14) 0.4401(3)
C101 C 0.2726(4) 0.78836(14) 0.4221(3)
H73 H 0.2269 0.8035 0.4364
C102 C 0.2512(4) 0.75480(14) 0.3836(3)
H74 H 0.1918 0.7468 0.3735
C103 C 0.3165(4) 0.73322(14) 0.3604(3)
C104 C 0.4042(4) 0.74511(16) 0.3773(3)
H75 H 0.4500 0.7303 0.3622
C105 C 0.4234(4) 0.77852(17) 0.4162(3)
H76 H 0.4827 0.7865 0.4266
C106 C 0.2236(4) 0.69919(14) 0.2714(3)
C107 C 0.2036(4) 0.73401(15) 0.2351(3)
H77 H 0.2423 0.7559 0.2423
C108 C 0.1299(5) 0.73741(17) 0.1894(3)
H78 H 0.1165 0.7616 0.1666
C109 C 0.0749(5) 0.70477(18) 0.1771(3)
H79 H 0.0241 0.7066 0.1451
C110 C 0.0935(4) 0.67006(17) 0.2108(3)
H80 H 0.0554 0.6481 0.2022
C111 C 0.1674(4) 0.66693(15) 0.2573(3)
H81 H 0.1802 0.6426 0.2798
C112 C 0.3407(3) 0.66202(14) 0.3414(3)
C113 C 0.3538(4) 0.63354(15) 0.2930(3)
H82 H 0.3350 0.6380 0.2471
C114 C 0.3963(4) 0.59792(16) 0.3156(3)
H83 H 0.4050 0.5782 0.2839
C115 C 0.4250(4) 0.59077(17) 0.3806(4)
H84 H 0.4530 0.5665 0.3940
C116 C 0.4127(4) 0.61968(17) 0.4272(3)
H85 H 0.4336 0.6152 0.4728
C117 C 0.3705(4) 0.65494(17) 0.4083(3)
H86 H 0.3618 0.6742 0.4409
C118 C 0.6356(7) 0.6392(2) 0.8042(4)
H87 H 0.5993 0.6170 0.7842
H88 H 0.6607 0.6312 0.8497
Cl1 Cl 0.72103(14) 0.64744(5) 0.75729(10)
Cl2 Cl 0.56884(14) 0.68018(5) 0.80930(11)
C119 C 0.756(2) 0.9179(8) 0.4260(9)
H89 H 0.6922 0.9224 0.4195
H90 H 0.7662 0.8927 0.4504
Cl3 Cl 0.7989(3) 0.95263(13) 0.4765(2)
Cl4 Cl 0.7864(4) 0.90985(16) 0.3464(3)
C120 C 0.6407(7) 0.8385(3) 0.5359(5)
H91 H 0.6504 0.8258 0.5800
H92 H 0.5768 0.8370 0.5219
Cl5 Cl 0.6582(3) 0.8908(3) 0.5555(3)
Cl6 Cl 0.6763(3) 0.80895(17) 0.4919(2)
loop_
_geom_bond_atom_site_label_1
_geom_bond_atom_site_label_2
_geom_bond_site_symmetry_1
_geom_bond_site_symmetry_2
N1 C17 1_555 1_555
N2 C20 1_555 1_555
N3 C71 1_555 1_555
N4 C103 1_555 1_555
C1 H1 1_555 1_555
C2 C1 1_555 1_555
C3 C2 1_555 1_555
H2 C3 1_555 1_555
C4 C3 1_555 1_555
H3 C4 1_555 1_555
C5 C4 1_555 1_555
C6 C5 1_555 1_555
C7 C6 1_555 1_555
H4 C7 1_555 1_555
C8 C7 1_555 1_555
H5 C8 1_555 1_555
C9 C8 1_555 1_555
C10 C9 1_555 1_555
H6 C10 1_555 1_555
C11 C6 1_555 1_555
C12 C11 1_555 1_555
C13 C1 1_555 1_555
C14 C12 1_555 1_555
C15 C14 1_555 1_555
H7 C15 1_555 1_555
C16 C15 1_555 1_555
H8 C16 1_555 1_555
C17 C16 1_555 1_555
C18 C17 1_555 1_555
H9 C18 1_555 1_555
C19 C14 1_555 1_555
H10 C19 1_555 1_555
C20 C21 1_555 1_555
C21 H11 1_555 1_555
C22 C21 1_555 1_555
H12 C22 1_555 1_555
C23 C12 1_555 1_555
C24 C23 1_555 1_555
H13 C24 1_555 1_555
C25 C20 1_555 1_555
H14 C25 1_555 1_555
C26 N2 1_555 1_555
C27 C26 1_555 1_555
H15 C27 1_555 1_555
C28 C27 1_555 1_555
H16 C28 1_555 1_555
C29 C28 1_555 1_555
C30 C29 1_555 1_555
H17 C30 1_555 1_555
C31 C26 1_555 1_555
H18 C31 1_555 1_555
C32 C29 1_555 1_555
H19 C32 1_555 1_555
H20 C32 1_555 1_555
H21 C32 1_555 1_555
C33 N2 1_555 1_555
C34 C33 1_555 1_555
H22 C34 1_555 1_555
C35 C34 1_555 1_555
H23 C35 1_555 1_555
C36 C35 1_555 1_555
C37 C36 1_555 1_555
H24 C37 1_555 1_555
C38 C33 1_555 1_555
H25 C38 1_555 1_555
C39 C36 1_555 1_555
H26 C39 1_555 1_555
H27 C39 1_555 1_555
H28 C39 1_555 1_555
C40 N1 1_555 1_555
C41 C40 1_555 1_555
H29 C41 1_555 1_555
C42 C41 1_555 1_555
H30 C42 1_555 1_555
C43 C42 1_555 1_555
C44 C43 1_555 1_555
H31 C44 1_555 1_555
C45 C40 1_555 1_555
H32 C45 1_555 1_555
C46 C43 1_555 1_555
H33 C46 1_555 1_555
H34 C46 1_555 1_555
H35 C46 1_555 1_555
C47 N1 1_555 1_555
C48 C47 1_555 1_555
H36 C48 1_555 1_555
C49 C48 1_555 1_555
H37 C49 1_555 1_555
C50 C49 1_555 1_555
C51 C50 1_555 1_555
H38 C51 1_555 1_555
C52 C47 1_555 1_555
H39 C52 1_555 1_555
C53 C50 1_555 1_555
H40 C53 1_555 1_555
H41 C53 1_555 1_555
H42 C53 1_555 1_555
C54 C2 1_555 1_555
C55 C54 1_555 1_555
C56 C55 1_555 1_555
H43 C56 1_555 1_555
C57 C56 1_555 1_555
H44 C57 1_555 1_555
C58 C57 1_555 1_555
H45 C58 1_555 1_555
C59 C58 1_555 1_555
H46 C59 1_555 1_555
C60 C55 1_555 1_555
C61 C60 1_555 1_555
C62 C61 1_555 1_555
C63 C62 1_555 1_555
H47 C63 1_555 1_555
C64 C63 1_555 1_555
H48 C64 1_555 1_555
C65 C64 1_555 1_555
H49 C65 1_555 1_555
C66 C65 1_555 1_555
H50 C66 1_555 1_555
C67 C54 1_555 1_555
C68 C61 1_555 1_555
C69 C68 1_555 1_555
H51 C69 1_555 1_555
C70 C69 1_555 1_555
H52 C70 1_555 1_555
C71 C70 1_555 1_555
C72 C71 1_555 1_555
H53 C72 1_555 1_555
C73 C68 1_555 1_555
H54 C73 1_555 1_555
C74 N3 1_555 1_555
C75 C74 1_555 1_555
H55 C75 1_555 1_555
C76 C75 1_555 1_555
H56 C76 1_555 1_555
C77 C76 1_555 1_555
H57 C77 1_555 1_555
C78 C77 1_555 1_555
H58 C78 1_555 1_555
C79 C74 1_555 1_555
H59 C79 1_555 1_555
C80 N3 1_555 1_555
C81 C80 1_555 1_555
H60 C81 1_555 1_555
C82 C81 1_555 1_555
H61 C82 1_555 1_555
C83 C82 1_555 1_555
H62 C83 1_555 1_555
C84 C83 1_555 1_555
H63 C84 1_555 1_555
C85 C80 1_555 1_555
H64 C85 1_555 1_555
C86 C9 1_555 1_555
C87 C86 1_555 1_555
C88 C87 1_555 1_555
H65 C88 1_555 1_555
C89 C88 1_555 1_555
H66 C89 1_555 1_555
C90 C89 1_555 1_555
H67 C90 1_555 1_555
C91 C90 1_555 1_555
H68 C91 1_555 1_555
C92 C87 1_555 1_555
C93 C92 1_555 1_555
C94 C93 1_555 1_555
C95 C94 1_555 1_555
H69 C95 1_555 1_555
C96 C95 1_555 1_555
H70 C96 1_555 1_555
C97 C96 1_555 1_555
H71 C97 1_555 1_555
C98 C97 1_555 1_555
H72 C98 1_555 1_555
C99 C86 1_555 1_555
C100 C93 1_555 1_555
C101 C100 1_555 1_555
H73 C101 1_555 1_555
C102 C101 1_555 1_555
H74 C102 1_555 1_555
C103 C102 1_555 1_555
C104 C103 1_555 1_555
H75 C104 1_555 1_555
C105 C100 1_555 1_555
H76 C105 1_555 1_555
C106 N4 1_555 1_555
C107 C106 1_555 1_555
H77 C107 1_555 1_555
C108 C107 1_555 1_555
H78 C108 1_555 1_555
C109 C108 1_555 1_555
H79 C109 1_555 1_555
C110 C109 1_555 1_555
H80 C110 1_555 1_555
C111 C106 1_555 1_555
H81 C111 1_555 1_555
C112 N4 1_555 1_555
C113 C112 1_555 1_555
H82 C113 1_555 1_555
C114 C113 1_555 1_555
H83 C114 1_555 1_555
C115 C114 1_555 1_555
H84 C115 1_555 1_555
C116 C115 1_555 1_555
H85 C116 1_555 1_555
C117 C112 1_555 1_555
H86 C117 1_555 1_555
C118 H87 1_555 1_555
H88 C118 1_555 1_555
C119 H89 1_555 1_555
H90 C119 1_555 1_555
C120 H91 1_555 1_555
H92 C120 1_555 1_555
Cl1 C118 1_555 1_555
Cl2 C118 1_555 1_555
Cl3 C119 1_555 1_555
Cl4 C119 1_555 1_555
Cl5 C120 1_555 1_555
Cl6 C120 1_555 1_555
C5 C13 1_555 1_555
C10 C11 1_555 1_555
C12 C13 1_555 1_555
C18 C19 1_555 1_555
C22 C23 1_555 1_555
C24 C25 1_555 1_555
C30 C31 1_555 1_555
C37 C38 1_555 1_555
C44 C45 1_555 1_555
C51 C52 1_555 1_555
C59 C60 1_555 1_555
C62 C67 1_555 1_555
C66 C67 1_555 1_555
C72 C73 1_555 1_555
C78 C79 1_555 1_555
C84 C85 1_555 1_555
C91 C92 1_555 1_555
C94 C99 1_555 1_555
C98 C99 1_555 1_555
C104 C105 1_555 1_555
C110 C111 1_555 1_555
C116 C117 1_555 1_555

#END
