
#######################################################################
#
#                 Cambridge Crystallographic Data Centre
#                                CCDC 
#
#######################################################################
#
# If this CIF has been generated from an entry in the Cambridge 
# Structural Database, then it will include bibliographic, chemical, 
# crystal, experimental, refinement or atomic coordinate data resulting 
# from the CCDC's data processing and validation procedures.
#
#######################################################################

data_YOFPIT
_chemical_formula_moiety         'C85 H65 N3,C1 H2 Cl2'
_chemical_name_systematic        
'2-(10-(4-Diphenylaminophenyl)anthracene-9-yl)-9,9-di(4-(di-p-tolylamino)phenyl)fluorene dichloromethane solvate'
_symmetry_cell_setting           triclinic
_symmetry_space_group_name_H-M   'P -1'
_symmetry_Int_Tables_number      2
_space_group_name_Hall           '-P 1'
loop_
_symmetry_equiv_pos_site_id
_symmetry_equiv_pos_as_xyz
1 x,y,z
2 -x,-y,-z
_cell_length_a                   13.855(6)
_cell_length_b                   15.200(7)
_cell_length_c                   18.423(7)
_cell_angle_alpha                90.392(4)
_cell_angle_beta                 90.605(7)
_cell_angle_gamma                114.892(10)
_cell_volume                     3518.92
_exptl_crystal_colour            colorless
_exptl_crystal_description       prism
_cell_formula_units_Z            2
_exptl_crystal_preparation       luminescent
loop_
_atom_site_label
_atom_site_type_symbol
_atom_site_fract_x
_atom_site_fract_y
_atom_site_fract_z
Cl1 Cl 0.23798(12) 0.25490(13) 0.32426(9)
Cl2 Cl 0.38596(14) 0.45757(15) 0.33995(10)
C86 C 0.3689(5) 0.3380(4) 0.3195(4)
H66 H 0.3952 0.3362 0.2700
H67 H 0.4124 0.3196 0.3539
N1 N 1.2367(2) 0.7347(2) 0.02132(18)
N2 N 0.9177(3) 1.1153(2) 0.26603(17)
N3 N 0.6120(3) 0.1747(3) 0.6184(2)
C1 C 0.8603(3) 0.8680(3) -0.0636(2)
H1 H 0.9347 0.9075 -0.0624
C2 C 0.7996(3) 0.8690(3) -0.1233(2)
H2 H 0.8322 0.9093 -0.1633
C3 C 0.6896(3) 0.8103(3) -0.1249(2)
H3 H 0.6477 0.8123 -0.1655
C4 C 0.6423(3) 0.7502(3) -0.0682(2)
H4 H 0.5684 0.7089 -0.0701
C5 C 0.7032(3) 0.7499(3) -0.0076(2)
C6 C 0.6754(3) 0.6929(3) 0.0589(2)
C7 C 0.5774(3) 0.6225(3) 0.0822(2)
H5 H 0.5147 0.6066 0.0537
C8 C 0.5734(3) 0.5766(3) 0.1474(2)
H6 H 0.5073 0.5293 0.1639
C9 C 0.6661(3) 0.5990(3) 0.1897(2)
C10 C 0.7629(3) 0.6698(3) 0.1660(2)
H7 H 0.8259 0.6862 0.1944
C11 C 0.7664(3) 0.7155(3) 0.1017(2)
C12 C 0.8620(3) 0.8019(3) 0.0678(2)
C13 C 0.8127(3) 0.8099(3) -0.0062(2)
C14 C 0.9606(3) 0.7818(3) 0.05645(19)
C15 C 0.9551(3) 0.6890(3) 0.0516(2)
H8 H 0.8886 0.6349 0.0574
C16 C 1.0449(3) 0.6737(3) 0.0384(2)
H9 H 1.0389 0.6093 0.0340
C17 C 1.1443(3) 0.7514(3) 0.0315(2)
C18 C 1.1497(3) 0.8433(3) 0.0343(2)
H10 H 1.2161 0.8972 0.0274
C19 C 1.0598(3) 0.8590(3) 0.0469(2)
H11 H 1.0658 0.9235 0.0491
C20 C 0.9087(3) 1.0420(3) 0.2163(2)
C21 C 0.8503(3) 1.0267(3) 0.1516(2)
H12 H 0.8165 1.0681 0.1408
C22 C 0.8399(3) 0.9557(3) 0.1040(2)
H13 H 0.8008 0.9500 0.0602
C23 C 0.8844(3) 0.8901(3) 0.1166(2)
C24 C 0.9440(3) 0.9055(3) 0.1814(2)
H14 H 0.9777 0.8639 0.1919
C25 C 0.9556(3) 0.9772(3) 0.2297(2)
H15 H 0.9958 0.9838 0.2731
C26 C 0.9231(3) 1.1052(3) 0.3423(2)
C27 C 0.9840(4) 1.1855(3) 0.3855(3)
H16 H 1.0236 1.2461 0.3632
C28 C 0.9879(3) 1.1788(3) 0.4607(3)
H17 H 1.0274 1.2349 0.4895
C29 C 0.9332(4) 1.0887(4) 0.4936(2)
C30 C 0.8760(4) 1.0120(4) 0.4511(2)
H18 H 0.8382 0.9510 0.4733
C31 C 0.8693(4) 1.0176(3) 0.3757(2)
H19 H 0.8278 0.9613 0.3477
C32 C 0.9353(5) 1.0832(5) 0.5767(3)
H20 H 0.8685 1.0805 0.5959
H21 H 0.9950 1.1408 0.5963
H22 H 0.9439 1.0249 0.5909
C33 C 0.9158(3) 1.2034(3) 0.2388(2)
C34 C 0.8497(3) 1.2403(3) 0.2684(2)
H23 H 0.8054 1.2080 0.3077
C35 C 0.8472(3) 1.3240(3) 0.2415(2)
H24 H 0.8007 1.3481 0.2626
C36 C 0.9113(3) 1.3738(3) 0.1842(2)
C37 C 0.9768(3) 1.3340(3) 0.1543(2)
H25 H 1.0201 1.3650 0.1142
C38 C 0.9800(3) 1.2508(3) 0.1814(2)
H26 H 1.0263 1.2261 0.1607
C39 C 0.9085(3) 1.4635(3) 0.1532(3)
H27 H 0.8593 1.4812 0.1809
H28 H 0.8845 1.4513 0.1023
H29 H 0.9800 1.5167 0.1559
C40 C 1.3234(3) 0.8014(3) -0.0193(2)
C41 C 1.3041(3) 0.8366(3) -0.0851(2)
H30 H 1.2338 0.8133 -0.1044
C42 C 1.3878(3) 0.9055(3) -0.1220(2)
H31 H 1.3730 0.9315 -0.1652
C43 C 1.4924(3) 0.9381(3) -0.0984(2)
C44 C 1.5106(3) 0.8994(3) -0.0341(2)
H32 H 1.5815 0.9199 -0.0165
C45 C 1.4275(3) 0.8314(3) 0.0052(2)
H33 H 1.4422 0.8057 0.0487
C46 C 1.5825(3) 1.0103(3) -0.1420(2)
H34 H 1.6200 0.9768 -0.1668
H35 H 1.6322 1.0605 -0.1094
H36 H 1.5537 1.0403 -0.1780
C47 C 1.2450(3) 0.6527(3) 0.0537(2)
C48 C 1.2823(3) 0.5971(3) 0.0141(2)
H37 H 1.3043 0.6141 -0.0345
C49 C 1.2880(3) 0.5146(3) 0.0451(2)
H38 H 1.3135 0.4762 0.0172
C50 C 1.2564(3) 0.4893(3) 0.1165(2)
C51 C 1.2207(3) 0.5495(3) 0.1559(2)
H39 H 1.2002 0.5344 0.2049
C52 C 1.2149(3) 0.6294(3) 0.1252(2)
H40 H 1.1903 0.6686 0.1530
C53 C 1.2589(4) 0.4017(3) 0.1503(3)
H41 H 1.2188 0.3447 0.1196
H42 H 1.2267 0.3924 0.1984
H43 H 1.3328 0.4102 0.1552
C54 C 0.6607(3) 0.5424(3) 0.2577(2)
C55 C 0.6820(3) 0.5922(3) 0.3267(2)
C56 C 0.7015(3) 0.6912(3) 0.3335(2)
H44 H 0.7007 0.7263 0.2913
C57 C 0.7216(3) 0.7376(3) 0.4001(2)
H45 H 0.7323 0.8035 0.4039
C58 C 0.7261(4) 0.6861(3) 0.4628(2)
H46 H 0.7436 0.7187 0.5085
C59 C 0.7057(3) 0.5905(3) 0.4585(2)
H47 H 0.7080 0.5573 0.5016
C60 C 0.6811(3) 0.5388(3) 0.3911(2)
C61 C 0.6551(3) 0.4377(3) 0.3863(2)
C62 C 0.6283(3) 0.3905(3) 0.3198(2)
C63 C 0.5901(3) 0.2871(3) 0.3137(2)
H48 H 0.5801 0.2502 0.3566
C64 C 0.5675(3) 0.2401(3) 0.2475(2)
H49 H 0.5425 0.1715 0.2447
C65 C 0.5820(3) 0.2950(3) 0.1834(2)
H50 H 0.5694 0.2630 0.1375
C66 C 0.6131(3) 0.3912(3) 0.1863(2)
H51 H 0.6210 0.4256 0.1423
C67 C 0.6351(3) 0.4439(3) 0.2544(2)
C68 C 0.6510(3) 0.3799(3) 0.4524(2)
C69 C 0.5706(3) 0.3566(3) 0.5036(2)
H52 H 0.5232 0.3869 0.5008
C70 C 0.5580(3) 0.2911(3) 0.5578(2)
H53 H 0.5018 0.2765 0.5912
C71 C 0.6270(3) 0.2456(3) 0.5643(2)
C72 C 0.7129(3) 0.2734(3) 0.5158(2)
H54 H 0.7640 0.2472 0.5205
C73 C 0.7224(3) 0.3386(3) 0.4619(2)
H55 H 0.7804 0.3561 0.4296
C74 C 0.6284(4) 0.0889(3) 0.6046(3)
C75 C 0.6205(4) 0.0494(3) 0.5350(3)
H56 H 0.6077 0.0809 0.4941
C76 C 0.6315(4) -0.0357(4) 0.5264(3)
H57 H 0.6267 -0.0621 0.4789
C77 C 0.6494(4) -0.0843(4) 0.5848(3)
H58 H 0.6545 -0.1442 0.5781
C78 C 0.6597(5) -0.0427(4) 0.6529(3)
H59 H 0.6738 -0.0738 0.6936
C79 C 0.6499(4) 0.0429(4) 0.6630(3)
H60 H 0.6580 0.0706 0.7103
C80 C 0.5499(3) 0.1758(3) 0.6801(2)
C81 C 0.5852(4) 0.2506(4) 0.7289(3)
H61 H 0.6534 0.3024 0.7229
C82 C 0.5243(4) 0.2529(4) 0.7869(2)
H62 H 0.5502 0.3061 0.8202
C83 C 0.4248(4) 0.1771(4) 0.7964(3)
H63 H 0.3826 0.1783 0.8364
C84 C 0.3877(4) 0.1008(4) 0.7482(3)
H64 H 0.3193 0.0494 0.7546
C85 C 0.4500(4) 0.0977(3) 0.6893(3)
H65 H 0.4252 0.0441 0.6565
loop_
_geom_bond_atom_site_label_1
_geom_bond_atom_site_label_2
_geom_bond_site_symmetry_1
_geom_bond_site_symmetry_2
Cl1 C86 1_555 1_555
Cl2 C86 1_555 1_555
N1 C17 1_555 1_555
N2 C20 1_555 1_555
N3 C71 1_555 1_555
C1 H1 1_555 1_555
C2 C1 1_555 1_555
H2 C2 1_555 1_555
C3 C2 1_555 1_555
H3 C3 1_555 1_555
C4 C3 1_555 1_555
H4 C4 1_555 1_555
C5 C4 1_555 1_555
C6 C5 1_555 1_555
C7 C6 1_555 1_555
H5 C7 1_555 1_555
C8 C7 1_555 1_555
H6 C8 1_555 1_555
C9 C8 1_555 1_555
C10 C9 1_555 1_555
H7 C10 1_555 1_555
C11 C6 1_555 1_555
C12 C11 1_555 1_555
C13 C1 1_555 1_555
C14 C12 1_555 1_555
C15 C14 1_555 1_555
H8 C15 1_555 1_555
C16 C15 1_555 1_555
H9 C16 1_555 1_555
C17 C16 1_555 1_555
C18 C17 1_555 1_555
H10 C18 1_555 1_555
C19 C14 1_555 1_555
H11 C19 1_555 1_555
C20 C21 1_555 1_555
C21 H12 1_555 1_555
C22 C21 1_555 1_555
H13 C22 1_555 1_555
C23 C12 1_555 1_555
C24 C23 1_555 1_555
H14 C24 1_555 1_555
C25 C20 1_555 1_555
H15 C25 1_555 1_555
C26 N2 1_555 1_555
C27 C26 1_555 1_555
H16 C27 1_555 1_555
C28 C27 1_555 1_555
H17 C28 1_555 1_555
C29 C28 1_555 1_555
C30 C29 1_555 1_555
H18 C30 1_555 1_555
C31 C26 1_555 1_555
H19 C31 1_555 1_555
C32 C29 1_555 1_555
H20 C32 1_555 1_555
H21 C32 1_555 1_555
H22 C32 1_555 1_555
C33 N2 1_555 1_555
C34 C33 1_555 1_555
H23 C34 1_555 1_555
C35 C34 1_555 1_555
H24 C35 1_555 1_555
C36 C35 1_555 1_555
C37 C36 1_555 1_555
H25 C37 1_555 1_555
C38 C33 1_555 1_555
H26 C38 1_555 1_555
C39 C36 1_555 1_555
H27 C39 1_555 1_555
H28 C39 1_555 1_555
H29 C39 1_555 1_555
C40 N1 1_555 1_555
C41 C40 1_555 1_555
H30 C41 1_555 1_555
C42 C41 1_555 1_555
H31 C42 1_555 1_555
C43 C42 1_555 1_555
C44 C43 1_555 1_555
H32 C44 1_555 1_555
C45 C40 1_555 1_555
H33 C45 1_555 1_555
C46 C43 1_555 1_555
H34 C46 1_555 1_555
H35 C46 1_555 1_555
H36 C46 1_555 1_555
C47 N1 1_555 1_555
C48 C47 1_555 1_555
H37 C48 1_555 1_555
C49 C48 1_555 1_555
H38 C49 1_555 1_555
C50 C49 1_555 1_555
C51 C50 1_555 1_555
H39 C51 1_555 1_555
C52 C47 1_555 1_555
H40 C52 1_555 1_555
C53 C50 1_555 1_555
H41 C53 1_555 1_555
H42 C53 1_555 1_555
H43 C53 1_555 1_555
C54 C9 1_555 1_555
C55 C54 1_555 1_555
C56 C55 1_555 1_555
H44 C56 1_555 1_555
C57 C56 1_555 1_555
H45 C57 1_555 1_555
C58 C57 1_555 1_555
H46 C58 1_555 1_555
C59 C58 1_555 1_555
H47 C59 1_555 1_555
C60 C55 1_555 1_555
C61 C60 1_555 1_555
C62 C61 1_555 1_555
C63 C62 1_555 1_555
H48 C63 1_555 1_555
C64 C63 1_555 1_555
H49 C64 1_555 1_555
C65 C64 1_555 1_555
H50 C65 1_555 1_555
C66 C65 1_555 1_555
H51 C66 1_555 1_555
C67 C54 1_555 1_555
C68 C61 1_555 1_555
C69 C68 1_555 1_555
H52 C69 1_555 1_555
C70 C69 1_555 1_555
H53 C70 1_555 1_555
C71 C70 1_555 1_555
C72 C71 1_555 1_555
H54 C72 1_555 1_555
C73 C68 1_555 1_555
H55 C73 1_555 1_555
C74 N3 1_555 1_555
C75 C74 1_555 1_555
H56 C75 1_555 1_555
C76 C75 1_555 1_555
H57 C76 1_555 1_555
C77 C76 1_555 1_555
H58 C77 1_555 1_555
C78 C77 1_555 1_555
H59 C78 1_555 1_555
C79 C74 1_555 1_555
H60 C79 1_555 1_555
C80 N3 1_555 1_555
C81 C80 1_555 1_555
H61 C81 1_555 1_555
C82 C81 1_555 1_555
H62 C82 1_555 1_555
C83 C82 1_555 1_555
H63 C83 1_555 1_555
C84 C83 1_555 1_555
H64 C84 1_555 1_555
C85 C80 1_555 1_555
H65 C85 1_555 1_555
C86 H66 1_555 1_555
H67 C86 1_555 1_555
C5 C13 1_555 1_555
C10 C11 1_555 1_555
C12 C13 1_555 1_555
C18 C19 1_555 1_555
C22 C23 1_555 1_555
C24 C25 1_555 1_555
C30 C31 1_555 1_555
C37 C38 1_555 1_555
C44 C45 1_555 1_555
C51 C52 1_555 1_555
C59 C60 1_555 1_555
C62 C67 1_555 1_555
C66 C67 1_555 1_555
C72 C73 1_555 1_555
C78 C79 1_555 1_555
C84 C85 1_555 1_555

#END
