
#######################################################################
#
#                 Cambridge Crystallographic Data Centre
#                                CCDC 
#
#######################################################################
#
# If this CIF has been generated from an entry in the Cambridge 
# Structural Database, then it will include bibliographic, chemical, 
# crystal, experimental, refinement or atomic coordinate data resulting 
# from the CCDC's data processing and validation procedures.
#
#######################################################################

data_YOFSES
_chemical_formula_moiety         '2(C10 H18 N1 1+),C6 H7 O9 P3 2-,2(H2 O1)'
_chemical_name_systematic        
'bis(Adamantan-1-ylammonium) 3,5-diphosphonatobenzene-1-phosphonic acid dihydrate'
_symmetry_cell_setting           orthorhombic
_symmetry_space_group_name_H-M   'P 21 21 21'
_symmetry_Int_Tables_number      19
_space_group_name_Hall           'P 2ac 2ab'
loop_
_symmetry_equiv_pos_site_id
_symmetry_equiv_pos_as_xyz
1 x,y,z
2 1/2-x,-y,1/2+z
3 -x,1/2+y,1/2-z
4 1/2+x,1/2-y,-z
_cell_length_a                   10.974(3)
_cell_length_b                   13.124(4)
_cell_length_c                   21.098(6)
_cell_angle_alpha                90
_cell_angle_beta                 90
_cell_angle_gamma                90
_cell_volume                     3038.59
_cell_formula_units_Z            4
loop_
_atom_site_label
_atom_site_type_symbol
_atom_site_fract_x
_atom_site_fract_y
_atom_site_fract_z
P1 P 0.75362(5) 0.51862(4) 0.06618(3)
P2 P 0.24951(6) 0.53812(4) 0.03684(3)
P3 P 0.49282(5) 0.16641(4) 0.03208(3)
O1 O 0.80768(15) 0.53291(11) 0.00107(8)
O2 O 0.83396(16) 0.44013(12) 0.10453(8)
H1 H 0.882(3) 0.410(2) 0.0824(12)
O3 O 0.74128(15) 0.61312(11) 0.10488(7)
O4 O 0.20441(14) 0.52492(12) -0.03037(8)
O5 O 0.15492(15) 0.48905(13) 0.08395(8)
H2 H 0.119(3) 0.445(2) 0.0652(15)
O6 O 0.27413(14) 0.64514(12) 0.05616(9)
O7 O 0.50827(14) 0.14231(11) -0.03714(7)
O8 O 0.60287(16) 0.12967(13) 0.07124(8)
H3 H 0.639(3) 0.077(3) 0.0542(16)
O9 O 0.37114(15) 0.12543(12) 0.05802(8)
H4 H 0.346(4) 0.062(3) 0.0364(19)
C1 C 0.6073(2) 0.45597(17) 0.05769(10)
C2 C 0.6024(2) 0.35100(16) 0.05247(10)
H5 H 0.6754 0.3122 0.0549
C3 C 0.4910(2) 0.30167(16) 0.04362(10)
C4 C 0.3836(2) 0.35767(16) 0.04032(11)
H6 H 0.3078 0.3239 0.0347
C5 C 0.3876(2) 0.46386(16) 0.04524(10)
C6 C 0.4994(2) 0.51143(16) 0.05397(9)
H7 H 0.5023 0.5836 0.0575
O10 O 0.42787(19) 0.77666(16) 0.00171(10)
H8 H 0.370(3) 0.739(3) 0.0168(15)
H9 H 0.396(3) 0.829(3) -0.0012(17)
O11 O 0.0923(2) 0.76977(18) 0.10089(11)
H10 H 0.0468 0.7553 0.0696
H11 H 0.167(4) 0.805(4) 0.095(2)
N1 N -0.0206(2) 0.61601(17) 0.16522(10)
H12 H 0.0172 0.6720 0.1491
H13 H -0.1011 0.6176 0.1548
H14 H 0.0141 0.5588 0.1489
C7 C 0.1156(2) 0.6862(2) 0.34977(12)
H15 H 0.1245 0.6867 0.3965
H16 H 0.1787 0.7316 0.3316
C8 C -0.0105(3) 0.7252(2) 0.33169(12)
H17 H -0.0212 0.7963 0.3478
C9 C -0.0076(2) 0.61547(18) 0.23605(11)
C10 C 0.1199(3) 0.5779(2) 0.25289(13)
H18 H 0.1322 0.5080 0.2363
H19 H 0.1820 0.6230 0.2335
C11 C -0.0224(2) 0.7244(2) 0.25964(12)
H20 H -0.1033 0.7511 0.2471
H21 H 0.0410 0.7684 0.2406
C12 C -0.1073(3) 0.6565(3) 0.36052(15)
H22 H -0.1893 0.6814 0.3486
H23 H -0.1008 0.6579 0.4073
C13 C -0.1046(3) 0.5463(2) 0.26419(14)
H24 H -0.0948 0.4761 0.2478
H25 H -0.1867 0.5711 0.2524
C14 C 0.0376(3) 0.5087(3) 0.35384(16)
H26 H 0.0470 0.5075 0.4005
H27 H 0.0487 0.4384 0.3378
C15 C -0.0899(3) 0.5471(3) 0.33649(15)
H28 H -0.1527 0.5018 0.3561
C16 C 0.1334(3) 0.5783(2) 0.32483(13)
H29 H 0.2165 0.5535 0.3366
N2 N 0.11255(12) 0.70370(11) 0.90874(6)
H30 H 0.1592 0.7610 0.9073
H31 H 0.1592 0.6500 0.9212
H32 H 0.0506 0.7128 0.9368
C17 C 0.06107(12) 0.68284(11) 0.84424(6)
C18 C 0.16774(12) 0.67272(19) 0.79849(6)
H33 H 0.2216 0.6163 0.8121
H34 H 0.2160 0.7364 0.7983
C19 C -0.0129(3) 0.58475(18) 0.84566(12)
H35 H -0.0815 0.5916 0.8758
H36 H 0.0391 0.5274 0.8597
C20 C -0.0192(2) 0.77171(18) 0.82430(11)
H37 H 0.0289 0.8355 0.8241
H38 H -0.0873 0.7798 0.8547
C21 C -0.0692(3) 0.7505(2) 0.75805(13)
H39 H -0.1221 0.8085 0.7444
C22 C 0.1184(3) 0.6514(2) 0.73207(13)
H40 H 0.1877 0.6445 0.7016
C23 C -0.1442(3) 0.6518(2) 0.75883(14)
H41 H -0.2130 0.6585 0.7889
H42 H -0.1779 0.6384 0.7161
C24 C -0.0617(3) 0.56380(19) 0.77903(13)
H43 H -0.1099 0.4991 0.7794
C25 C 0.0446(3) 0.5528(2) 0.73323(14)
H44 H 0.0136 0.5376 0.6902
H45 H 0.0974 0.4955 0.7467
C26 C 0.0369(3) 0.7390(2) 0.71173(12)
H46 H 0.0051 0.7259 0.6686
H47 H 0.0848 0.8029 0.7106
loop_
_geom_bond_atom_site_label_1
_geom_bond_atom_site_label_2
_geom_bond_site_symmetry_1
_geom_bond_site_symmetry_2
P1 O1 1_555 1_555
P2 O4 1_555 1_555
P3 O7 1_555 1_555
O2 P1 1_555 1_555
H1 O2 1_555 1_555
O3 P1 1_555 1_555
O5 P2 1_555 1_555
H2 O5 1_555 1_555
O6 P2 1_555 1_555
O8 P3 1_555 1_555
H3 O8 1_555 1_555
O9 P3 1_555 1_555
H4 O9 1_555 1_555
C1 P1 1_555 1_555
C2 C1 1_555 1_555
H5 C2 1_555 1_555
C3 P3 1_555 1_555
C4 C3 1_555 1_555
H6 C4 1_555 1_555
C5 P2 1_555 1_555
C6 C1 1_555 1_555
H7 C6 1_555 1_555
O10 H8 1_555 1_555
H9 O10 1_555 1_555
O11 H10 1_555 1_555
H11 O11 1_555 1_555
N1 H12 1_555 1_555
H13 N1 1_555 1_555
H14 N1 1_555 1_555
C7 H15 1_555 1_555
H16 C7 1_555 1_555
C8 C7 1_555 1_555
H17 C8 1_555 1_555
C9 N1 1_555 1_555
C10 C9 1_555 1_555
H18 C10 1_555 1_555
H19 C10 1_555 1_555
C11 C8 1_555 1_555
H20 C11 1_555 1_555
H21 C11 1_555 1_555
C12 C8 1_555 1_555
H22 C12 1_555 1_555
H23 C12 1_555 1_555
C13 C9 1_555 1_555
H24 C13 1_555 1_555
H25 C13 1_555 1_555
C14 H26 1_555 1_555
H27 C14 1_555 1_555
C15 C12 1_555 1_555
H28 C15 1_555 1_555
C16 C7 1_555 1_555
H29 C16 1_555 1_555
N2 H30 1_555 1_555
H31 N2 1_555 1_555
H32 N2 1_555 1_555
C17 N2 1_555 1_555
C18 C17 1_555 1_555
H33 C18 1_555 1_555
H34 C18 1_555 1_555
C19 C17 1_555 1_555
H35 C19 1_555 1_555
H36 C19 1_555 1_555
C20 C17 1_555 1_555
H37 C20 1_555 1_555
H38 C20 1_555 1_555
C21 C20 1_555 1_555
H39 C21 1_555 1_555
C22 C18 1_555 1_555
H40 C22 1_555 1_555
C23 C21 1_555 1_555
H41 C23 1_555 1_555
H42 C23 1_555 1_555
C24 C19 1_555 1_555
H43 C24 1_555 1_555
C25 C22 1_555 1_555
H44 C25 1_555 1_555
H45 C25 1_555 1_555
C26 C21 1_555 1_555
H46 C26 1_555 1_555
H47 C26 1_555 1_555
C2 C3 1_555 1_555
C4 C5 1_555 1_555
C5 C6 1_555 1_555
C9 C11 1_555 1_555
C10 C16 1_555 1_555
C13 C15 1_555 1_555
C14 C15 1_555 1_555
C14 C16 1_555 1_555
C22 C26 1_555 1_555
C23 C24 1_555 1_555
C24 C25 1_555 1_555

#END
