
#######################################################################
#
#                 Cambridge Crystallographic Data Centre
#                                CCDC 
#
#######################################################################
#
# If this CIF has been generated from an entry in the Cambridge 
# Structural Database, then it will include bibliographic, chemical, 
# crystal, experimental, refinement or atomic coordinate data resulting 
# from the CCDC's data processing and validation procedures.
#
#######################################################################

data_YOFSOC
_chemical_formula_moiety         
'6(C10 H18 N1 1+),C6 H3 O9 P3 6-,12(H2 O1),0.44(C1 H4 O1),C2 H6 O1'
_chemical_name_systematic        
'hexakis(Adamantan-1-ylammonium) benzene-1,3,5-triphosphonate ethanol methanol solvate dodecahydrate'
_symmetry_cell_setting           triclinic
_symmetry_space_group_name_H-M   'P -1'
_symmetry_Int_Tables_number      2
_space_group_name_Hall           '-P 1'
loop_
_symmetry_equiv_pos_site_id
_symmetry_equiv_pos_as_xyz
1 x,y,z
2 -x,-y,-z
_cell_length_a                   11.002(8)
_cell_length_b                   19.264(13)
_cell_length_c                   20.600(14)
_cell_angle_alpha                72.623(12)
_cell_angle_beta                 84.532(13)
_cell_angle_gamma                76.059(12)
_cell_volume                     4042.73
_cell_formula_units_Z            2
loop_
_atom_site_label
_atom_site_type_symbol
_atom_site_fract_x
_atom_site_fract_y
_atom_site_fract_z
O2 O 0.0247(7) 0.1450(5) 0.0389(4)
O3 O 0.4432(3) 0.63558(14) 0.44406(13)
H3 H 0.4106 0.6030 0.4730
H4 H 0.4265 0.6407 0.4002
O4 O 0.7642(6) 0.9894(3) 0.0441(3)
O5 O 0.6398(2) 0.70004(13) 0.44127(12)
H5 H 0.5757 0.6763 0.4483
H6 H 0.7066 0.6990 0.4178
O6 O 0.3718(7) 0.8691(5) 0.0234(4)
O7 O 0.1455(3) -0.01459(18) 0.11609(17)
H7 H 0.1227 0.0294 0.0873
H8 H 0.1758 -0.0486 0.0946
O8 O 0.1469(2) 0.66522(12) 0.36292(12)
H9 H 0.2224 0.6560 0.3494
H10 H 0.1109 0.6326 0.3497
O9 O 0.6596(5) 0.4666(3) 0.4657(3)
O10 O 0.1398(2) 0.81622(13) 0.30843(12)
H11 H 0.2052 0.8101 0.2934
H12 H 0.1025 0.7837 0.3298
O11 O 0.5973(2) 0.91936(13) 0.22469(13)
H13 H 0.6699 0.8977 0.2126
H14 H 0.5403 0.9218 0.1977
O12 O 0.3856(3) 0.91333(16) 0.16406(15)
H15 H 0.3177 0.9444 0.1528
H16 H 0.4350 0.9251 0.1311
O13 O 0.0936(2) 0.51630(15) 0.24355(13)
H17 H 0.0729 0.5287 0.2795
C1 C 0.0047(5) 0.4796(3) 0.2307(2)
H18 H -0.0259 0.4503 0.2739
H19 H 0.0445 0.4464 0.2030
H20 H -0.0658 0.5169 0.2062
O14 O 0.5673(2) 0.65206(16) 0.09028(13)
H21 H 0.5174 0.6575 0.1228
C2 C 0.6764(5) 0.5984(2) 0.1155(2)
H22 H 0.7489 0.6115 0.0871
H23 H 0.6681 0.5492 0.1145
H24 H 0.6883 0.5971 0.1624
O15 O 0.2046(3) 0.83118(18) 0.11969(18)
H25 H 0.1604 0.8079 0.1499
C3 C 0.1336(10) 0.8689(6) 0.0608(5)
H26 H 0.1876 0.8676 0.0203
H27 H 0.0989 0.9209 0.0604
H28 H 0.0651 0.8445 0.0608
C4 C 0.2789(3) 0.5530(2) 0.09933(18)
H29 H 0.2455 0.5149 0.1354
H30 H 0.3611 0.5550 0.1137
C5 C 0.2950(4) 0.5320(2) 0.0323(2)
H31 H 0.3535 0.4820 0.0386
C6 C 0.1676(4) 0.5299(2) 0.0097(2)
H32 H 0.1317 0.4919 0.0447
H33 H 0.1781 0.5160 -0.0334
C7 C 0.0784(3) 0.6069(2) -0.00050(19)
H34 H -0.0047 0.6055 -0.0152
C8 C 0.1337(4) 0.6654(2) -0.05520(18)
H35 H 0.1444 0.6524 -0.0988
H36 H 0.0762 0.7150 -0.0624
C9 C 0.2607(4) 0.6675(2) -0.03224(19)
H37 H 0.2966 0.7058 -0.0679
C10 C 0.2431(3) 0.6888(2) 0.03439(18)
H38 H 0.1850 0.7383 0.0279
H39 H 0.3245 0.6917 0.0489
C11 C 0.3500(4) 0.5921(3) -0.0222(2)
H40 H 0.4320 0.5939 -0.0076
H41 H 0.3633 0.5790 -0.0658
C12 C 0.0617(3) 0.6272(2) 0.06623(17)
H42 H 0.0246 0.5900 0.1014
H43 H 0.0040 0.6767 0.0601
C13 C 0.1889(3) 0.62886(19) 0.08918(17)
N1 N 0.1726(2) 0.64796(15) 0.15485(13)
H44 H 0.1193 0.6934 0.1494
H45 H 0.2482 0.6494 0.1683
H46 H 0.1404 0.6128 0.1871
C14 C 0.3855(3) 0.69645(19) 0.65962(17)
H47 H 0.3432 0.7453 0.6284
C15 C 0.4937(4) 0.7075(2) 0.6938(2)
H48 H 0.4615 0.7438 0.7201
H49 H 0.5542 0.7277 0.6587
C16 C 0.5596(4) 0.6325(2) 0.7414(2)
H50 H 0.6306 0.6395 0.7639
C17 C 0.4641(4) 0.6036(2) 0.79527(19)
H51 H 0.5052 0.5558 0.8273
H52 H 0.4313 0.6400 0.8215
C18 C 0.3561(3) 0.59179(19) 0.76151(19)
H53 H 0.2949 0.5722 0.7972
C19 C 0.4067(3) 0.53565(19) 0.7206(2)
H54 H 0.4481 0.4870 0.7512
H55 H 0.3369 0.5280 0.6985
C20 C 0.6087(3) 0.5769(2) 0.7004(2)
H56 H 0.6705 0.5956 0.6654
H57 H 0.6512 0.5284 0.7309
C21 C 0.2907(3) 0.6663(2) 0.71383(19)
H58 H 0.2564 0.7024 0.7401
H59 H 0.2204 0.6592 0.6917
C22 C 0.4379(3) 0.64111(18) 0.61848(18)
H60 H 0.3692 0.6345 0.5948
H61 H 0.4994 0.6606 0.5838
C23 C 0.5010(3) 0.56634(18) 0.66640(18)
N2 N 0.5492(3) 0.51206(15) 0.62604(15)
H62 H 0.4842 0.5062 0.6055
H63 H 0.5870 0.4673 0.6542
H64 H 0.6055 0.5296 0.5938
C24 C 0.4422(3) 0.86552(17) 0.37798(16)
C25 C 0.3651(3) 0.82158(18) 0.43467(17)
H65 H 0.3009 0.8066 0.4145
H66 H 0.4205 0.7759 0.4624
C26 C 0.3021(3) 0.87163(18) 0.47923(16)
H67 H 0.2525 0.8436 0.5168
C27 C 0.4019(3) 0.89527(19) 0.50981(17)
H68 H 0.3610 0.9267 0.5395
H69 H 0.4586 0.8505 0.5379
C28 C 0.4775(3) 0.93891(17) 0.45314(17)
H70 H 0.5422 0.9544 0.4732
C29 C 0.3891(3) 1.00784(18) 0.40994(18)
H71 H 0.4377 1.0367 0.3733
H72 H 0.3474 1.0402 0.4387
C30 C 0.2903(3) 0.98460(18) 0.37859(17)
H73 H 0.2333 1.0301 0.3503
C31 C 0.3555(3) 0.93496(18) 0.33379(16)
H74 H 0.4047 0.9628 0.2968
H75 H 0.2922 0.9200 0.3130
C32 C 0.2140(3) 0.94136(18) 0.43578(17)
H76 H 0.1491 0.9264 0.4161
H77 H 0.1714 0.9735 0.4646
C33 C 0.5411(3) 0.88916(18) 0.40831(17)
H78 H 0.5907 0.9168 0.3713
H79 H 0.5988 0.8444 0.4358
N3 N 0.5082(2) 0.81708(14) 0.33441(13)
H80 H 0.4507 0.8023 0.3157
H81 H 0.5608 0.7763 0.3604
H82 H 0.5532 0.8433 0.3007
C34 C 0.9131(3) -0.01597(18) 0.24894(18)
C35 C 0.8440(3) -0.05200(18) 0.31319(18)
H83 H 0.9037 -0.0922 0.3442
H84 H 0.7800 -0.0743 0.3012
C36 C 0.7806(3) 0.00790(18) 0.34860(18)
H85 H 0.7342 -0.0152 0.3905
C37 C 0.8793(3) 0.0413(2) 0.36801(19)
H86 H 0.9386 0.0018 0.4000
H87 H 0.8386 0.0798 0.3908
C38 C 0.9505(3) 0.07637(19) 0.3034(2)
H88 H 1.0154 0.0982 0.3159
C39 C 0.8578(3) 0.13822(19) 0.2549(2)
H89 H 0.8167 0.1769 0.2774
H90 H 0.9031 0.1620 0.2136
C40 C 0.7590(3) 0.10459(19) 0.23535(19)
H91 H 0.6990 0.1449 0.2035
C41 C 0.8225(3) 0.04501(19) 0.20037(18)
H92 H 0.7586 0.0237 0.1871
H93 H 0.8682 0.0676 0.1587
C42 C 0.6877(3) 0.0695(2) 0.29924(19)
H94 H 0.6234 0.0478 0.2868
H95 H 0.6449 0.1081 0.3215
C43 C 1.0139(3) 0.01708(19) 0.26838(19)
H96 H 1.0741 -0.0228 0.2994
H97 H 1.0605 0.0396 0.2270
N4 N 0.9762(3) -0.07475(15) 0.21525(15)
H98 H 1.0305 -0.1113 0.2445
H99 H 1.0190 -0.0540 0.1773
H100 H 0.9175 -0.0947 0.2035
C44 C 0.0171(3) 0.30715(17) 0.47093(16)
C45 C 0.0893(3) 0.23918(17) 0.52341(17)
H101 H 0.0318 0.2201 0.5609
H102 H 0.1554 0.2533 0.5429
C46 C 0.1487(3) 0.17839(18) 0.48819(18)
H103 H 0.1974 0.1338 0.5219
C47 C 0.0451(3) 0.15582(18) 0.45942(18)
H104 H 0.0827 0.1165 0.4370
H105 H -0.0117 0.1357 0.4968
C48 C -0.0287(3) 0.22469(18) 0.40775(18)
H106 H -0.0967 0.2103 0.3891
C49 C 0.0588(3) 0.25406(19) 0.34980(17)
H107 H 0.0112 0.2977 0.3157
H108 H 0.0965 0.2149 0.3272
C50 C 0.1623(3) 0.27682(18) 0.37818(17)
H109 H 0.2199 0.2963 0.3402
C51 C 0.1051(3) 0.33705(18) 0.41329(16)
H110 H 0.1723 0.3514 0.4316
H111 H 0.0582 0.3819 0.3801
C52 C -0.0873(3) 0.28533(18) 0.44253(17)
H112 H -0.1451 0.2665 0.4799
H113 H -0.1358 0.3295 0.4093
C53 C 0.2365(3) 0.20889(19) 0.43040(18)
H114 H 0.2765 0.1698 0.4081
H115 H 0.3033 0.2234 0.4488
N5 N -0.0394(3) 0.36855(14) 0.50307(13)
H116 H 0.0225 0.3815 0.5201
H117 H -0.0935 0.3524 0.5374
H118 H -0.0814 0.4089 0.4712
C54 C 0.6494(3) 0.7956(2) 0.94584(17)
C55 C 0.5459(3) 0.7766(2) 0.91416(18)
H119 H 0.4654 0.8123 0.9170
H120 H 0.5356 0.7257 0.9391
C56 C 0.5827(4) 0.7812(2) 0.83900(19)
H121 H 0.5159 0.7690 0.8175
C57 C 0.7051(4) 0.7261(3) 0.8358(2)
H122 H 0.7283 0.7281 0.7878
H123 H 0.6951 0.6750 0.8601
C58 C 0.8093(4) 0.7437(2) 0.86814(18)
H124 H 0.8898 0.7069 0.8658
C59 C 0.8249(4) 0.8227(2) 0.83130(19)
H125 H 0.8520 0.8260 0.7835
H126 H 0.8904 0.8344 0.8534
C60 C 0.7012(4) 0.8792(2) 0.83317(18)
H127 H 0.7120 0.9306 0.8081
C61 C 0.6635(3) 0.8751(2) 0.90809(17)
H128 H 0.7284 0.8880 0.9296
H129 H 0.5833 0.9112 0.9104
C62 C 0.7714(3) 0.7394(2) 0.94266(17)
H130 H 0.7609 0.6884 0.9674
H131 H 0.8380 0.7501 0.9648
C63 C 0.5984(4) 0.8609(2) 0.80061(19)
H132 H 0.6208 0.8643 0.7522
H133 H 0.5184 0.8973 0.8026
N6 N 0.6157(3) 0.79252(16) 1.01836(14)
H134 H 0.5427 0.8263 1.0205
H135 H 0.6777 0.8035 1.0371
H136 H 0.6060 0.7459 1.0417
P1 P 0.85888(7) 0.80159(4) 0.14189(4)
P2 P 0.42893(7) 0.69488(4) 0.24961(4)
P3 P 0.88931(7) 0.56282(4) 0.37821(4)
O16 O 0.8090(2) 0.87654(12) 0.15722(11)
O17 O 0.8214(2) 0.80417(12) 0.07238(11)
O18 O 0.99869(19) 0.77480(12) 0.15259(11)
O19 O 0.4013(2) 0.67783(15) 0.18619(12)
O20 O 0.36957(19) 0.77547(12) 0.24937(12)
O21 O 0.39275(19) 0.63938(12) 0.31489(11)
O22 O 1.02751(19) 0.55622(12) 0.35701(11)
O23 O 0.85862(19) 0.59713(12) 0.43741(10)
O24 O 0.8498(2) 0.48908(12) 0.39412(11)
C64 C 0.7839(3) 0.73465(17) 0.20462(15)
C65 C 0.6560(3) 0.73723(17) 0.20243(15)
H137 H 0.6075 0.7739 0.1669
C66 C 0.5979(3) 0.68669(16) 0.25160(15)
C67 C 0.6709(3) 0.63232(16) 0.30315(15)
H138 H 0.6327 0.5973 0.3362
C68 C 0.7982(3) 0.62842(16) 0.30712(15)
C69 C 0.8534(3) 0.67990(16) 0.25733(15)
H139 H 0.9403 0.6776 0.2594
O1 O 0.7754(2) 0.51924(12) 0.55923(11)
H1 H 0.8421 0.4986 0.5855
H2 H 0.7927 0.5480 0.5197
O25? O 0.0583(5) 0.1086(3) 0.0274(3)
O26? O 0.6800(11) 0.9863(6) 0.0469(5)
O27? O 0.4563(4) 0.9343(2) 0.0304(2)
O28? O 0.6148(6) 0.4916(4) 0.4550(4)
O29? O 0.2078(4) 0.8662(3) -0.0257(2)
loop_
_geom_bond_atom_site_label_1
_geom_bond_atom_site_label_2
_geom_bond_site_symmetry_1
_geom_bond_site_symmetry_2
O1 H1 1_555 1_555
H2 O1 1_555 1_555
O3 H3 1_555 1_555
H4 O3 1_555 1_555
O5 H5 1_555 1_555
H6 O5 1_555 1_555
O7 H7 1_555 1_555
H8 O7 1_555 1_555
O8 H9 1_555 1_555
H10 O8 1_555 1_555
O10 H11 1_555 1_555
H12 O10 1_555 1_555
O11 H13 1_555 1_555
H14 O11 1_555 1_555
O12 H15 1_555 1_555
H16 O12 1_555 1_555
O13 H17 1_555 1_555
C1 O13 1_555 1_555
H18 C1 1_555 1_555
H19 C1 1_555 1_555
H20 C1 1_555 1_555
O14 H21 1_555 1_555
C2 O14 1_555 1_555
H22 C2 1_555 1_555
H23 C2 1_555 1_555
H24 C2 1_555 1_555
O15 H25 1_555 1_555
C3 O15 1_555 1_555
H26 C3 1_555 1_555
H27 C3 1_555 1_555
H28 C3 1_555 1_555
C4 H29 1_555 1_555
H30 C4 1_555 1_555
C5 C4 1_555 1_555
H31 C5 1_555 1_555
C6 C5 1_555 1_555
H32 C6 1_555 1_555
H33 C6 1_555 1_555
C7 C6 1_555 1_555
H34 C7 1_555 1_555
C8 C7 1_555 1_555
H35 C8 1_555 1_555
H36 C8 1_555 1_555
C9 C8 1_555 1_555
H37 C9 1_555 1_555
C10 C9 1_555 1_555
H38 C10 1_555 1_555
H39 C10 1_555 1_555
C11 C5 1_555 1_555
H40 C11 1_555 1_555
H41 C11 1_555 1_555
C12 C7 1_555 1_555
H42 C12 1_555 1_555
H43 C12 1_555 1_555
C13 C4 1_555 1_555
N1 C13 1_555 1_555
H44 N1 1_555 1_555
H45 N1 1_555 1_555
H46 N1 1_555 1_555
C14 H47 1_555 1_555
C15 C14 1_555 1_555
H48 C15 1_555 1_555
H49 C15 1_555 1_555
C16 C15 1_555 1_555
H50 C16 1_555 1_555
C17 C16 1_555 1_555
H51 C17 1_555 1_555
H52 C17 1_555 1_555
C18 C17 1_555 1_555
H53 C18 1_555 1_555
C19 C18 1_555 1_555
H54 C19 1_555 1_555
H55 C19 1_555 1_555
C20 C16 1_555 1_555
H56 C20 1_555 1_555
H57 C20 1_555 1_555
C21 C14 1_555 1_555
H58 C21 1_555 1_555
H59 C21 1_555 1_555
C22 C14 1_555 1_555
H60 C22 1_555 1_555
H61 C22 1_555 1_555
C23 C19 1_555 1_555
N2 C23 1_555 1_555
H62 N2 1_555 1_555
H63 N2 1_555 1_555
H64 N2 1_555 1_555
C24 C25 1_555 1_555
C25 H65 1_555 1_555
H66 C25 1_555 1_555
C26 C25 1_555 1_555
H67 C26 1_555 1_555
C27 C26 1_555 1_555
H68 C27 1_555 1_555
H69 C27 1_555 1_555
C28 C27 1_555 1_555
H70 C28 1_555 1_555
C29 C28 1_555 1_555
H71 C29 1_555 1_555
H72 C29 1_555 1_555
C30 C29 1_555 1_555
H73 C30 1_555 1_555
C31 C24 1_555 1_555
H74 C31 1_555 1_555
H75 C31 1_555 1_555
C32 C26 1_555 1_555
H76 C32 1_555 1_555
H77 C32 1_555 1_555
C33 C24 1_555 1_555
H78 C33 1_555 1_555
H79 C33 1_555 1_555
N3 C24 1_555 1_555
H80 N3 1_555 1_555
H81 N3 1_555 1_555
H82 N3 1_555 1_555
C34 C35 1_555 1_555
C35 H83 1_555 1_555
H84 C35 1_555 1_555
C36 C35 1_555 1_555
H85 C36 1_555 1_555
C37 C36 1_555 1_555
H86 C37 1_555 1_555
H87 C37 1_555 1_555
C38 C37 1_555 1_555
H88 C38 1_555 1_555
C39 C38 1_555 1_555
H89 C39 1_555 1_555
H90 C39 1_555 1_555
C40 C39 1_555 1_555
H91 C40 1_555 1_555
C41 C34 1_555 1_555
H92 C41 1_555 1_555
H93 C41 1_555 1_555
C42 C36 1_555 1_555
H94 C42 1_555 1_555
H95 C42 1_555 1_555
C43 C34 1_555 1_555
H96 C43 1_555 1_555
H97 C43 1_555 1_555
N4 C34 1_555 1_555
H98 N4 1_555 1_555
H99 N4 1_555 1_555
H100 N4 1_555 1_555
C44 C45 1_555 1_555
C45 H101 1_555 1_555
H102 C45 1_555 1_555
C46 C45 1_555 1_555
H103 C46 1_555 1_555
C47 C46 1_555 1_555
H104 C47 1_555 1_555
H105 C47 1_555 1_555
C48 C47 1_555 1_555
H106 C48 1_555 1_555
C49 C48 1_555 1_555
H107 C49 1_555 1_555
H108 C49 1_555 1_555
C50 C49 1_555 1_555
H109 C50 1_555 1_555
C51 C44 1_555 1_555
H110 C51 1_555 1_555
H111 C51 1_555 1_555
C52 C44 1_555 1_555
H112 C52 1_555 1_555
H113 C52 1_555 1_555
C53 C46 1_555 1_555
H114 C53 1_555 1_555
H115 C53 1_555 1_555
N5 C44 1_555 1_555
H116 N5 1_555 1_555
H117 N5 1_555 1_555
H118 N5 1_555 1_555
C54 C55 1_555 1_555
C55 H119 1_555 1_555
H120 C55 1_555 1_555
C56 C55 1_555 1_555
H121 C56 1_555 1_555
C57 C56 1_555 1_555
H122 C57 1_555 1_555
H123 C57 1_555 1_555
C58 C57 1_555 1_555
H124 C58 1_555 1_555
C59 C58 1_555 1_555
H125 C59 1_555 1_555
H126 C59 1_555 1_555
C60 C59 1_555 1_555
H127 C60 1_555 1_555
C61 C54 1_555 1_555
H128 C61 1_555 1_555
H129 C61 1_555 1_555
C62 C54 1_555 1_555
H130 C62 1_555 1_555
H131 C62 1_555 1_555
C63 C56 1_555 1_555
H132 C63 1_555 1_555
H133 C63 1_555 1_555
N6 C54 1_555 1_555
H134 N6 1_555 1_555
H135 N6 1_555 1_555
H136 N6 1_555 1_555
P1 O16 1_555 1_555
P2 O19 1_555 1_555
P3 O22 1_555 1_555
O17 P1 1_555 1_555
O18 P1 1_555 1_555
O20 P2 1_555 1_555
O21 P2 1_555 1_555
O23 P3 1_555 1_555
O24 P3 1_555 1_555
C64 P1 1_555 1_555
C65 C64 1_555 1_555
H137 C65 1_555 1_555
C66 P2 1_555 1_555
C67 C66 1_555 1_555
H138 C67 1_555 1_555
C68 P3 1_555 1_555
C69 C64 1_555 1_555
H139 C69 1_555 1_555
C9 C11 1_555 1_555
C10 C13 1_555 1_555
C12 C13 1_555 1_555
C18 C21 1_555 1_555
C20 C23 1_555 1_555
C22 C23 1_555 1_555
C28 C33 1_555 1_555
C30 C31 1_555 1_555
C30 C32 1_555 1_555
C38 C43 1_555 1_555
C40 C41 1_555 1_555
C40 C42 1_555 1_555
C48 C52 1_555 1_555
C50 C51 1_555 1_555
C50 C53 1_555 1_555
C58 C62 1_555 1_555
C60 C61 1_555 1_555
C60 C63 1_555 1_555
C65 C66 1_555 1_555
C67 C68 1_555 1_555
C68 C69 1_555 1_555

#END
