
#######################################################################
#
#                 Cambridge Crystallographic Data Centre
#                                CCDC 
#
#######################################################################
#
# If this CIF has been generated from an entry in the Cambridge 
# Structural Database, then it will include bibliographic, chemical, 
# crystal, experimental, refinement or atomic coordinate data resulting 
# from the CCDC's data processing and validation procedures.
#
#######################################################################

data_YOGROD
_chemical_formula_moiety         'C28 H31 N3 O7 S2'
_chemical_name_systematic        
'16-Methoxy-21-methyl-5-phenyl-4,7,21-triazapentacyclo[9.7.3.0^1,10^.0^3,8^.0^13,18^]henicosa-3,5,7,13,15,17-hexaene-6,17-diyl dimethanesulfonate'
_symmetry_cell_setting           monoclinic
_symmetry_space_group_name_H-M   'P 21'
_symmetry_Int_Tables_number      4
_space_group_name_Hall           'P 2yb'
loop_
_symmetry_equiv_pos_site_id
_symmetry_equiv_pos_as_xyz
1 x,y,z
2 -x,1/2+y,-z
_cell_length_a                   12.185(3)
_cell_length_b                   7.963(2)
_cell_length_c                   15.027(3)
_cell_angle_alpha                90
_cell_angle_beta                 109.063(4)
_cell_angle_gamma                90
_cell_volume                     1378.1
_exptl_crystal_colour            colorless
_exptl_crystal_description       block
_cell_formula_units_Z            2
loop_
_atom_site_label
_atom_site_type_symbol
_atom_site_fract_x
_atom_site_fract_y
_atom_site_fract_z
C1 C 1.46332(13) 0.7260(4) 0.40108(12)
H1 H 1.5387 0.6944 0.4355
C2 C 1.39135(15) 0.6146(3) 0.33865(13)
H2 H 1.4177 0.5074 0.3316
C3 C 1.42425(15) 0.8831(3) 0.41269(13)
H3 H 1.4729 0.9569 0.4558
C4 C 1.27902(14) 0.6633(3) 0.28614(12)
H4 H 1.2306 0.5882 0.2438
C5 C 1.31178(13) 0.9331(3) 0.36020(11)
H5 H 1.2859 1.0403 0.3679
C6 C 1.23873(13) 0.8225(3) 0.29642(10)
C7 C 1.11602(13) 0.8681(3) 0.24313(10)
C8 C 1.08102(14) 1.0222(3) 0.19970(10)
C9 C 0.92155(13) 0.7942(3) 0.19615(10)
C10 C 0.89042(13) 0.9529(3) 0.15843(11)
C11 C 1.05327(17) 1.3952(4) 0.09274(17)
H6 H 1.0545 1.4712 0.0435
H7 H 1.0666 1.4564 0.1503
H8 H 0.9790 1.3408 0.0760
C12 C 0.82988(13) 0.6628(3) 0.18840(10)
H9 H 0.8585 0.5829 0.2395
H10 H 0.8151 0.6022 0.1296
C13 C 0.76569(15) 1.0084(4) 0.11774(16)
H11 H 0.7534 1.0541 0.0554
H12 H 0.7521 1.0981 0.1566
C14 C 0.71497(12) 0.7401(3) 0.19198(9)
C15 C 0.67639(13) 0.8696(3) 0.11032(11)
H13 H 0.6668 0.8084 0.0517
C16 C 0.72107(12) 0.8289(3) 0.28516(10)
C17 C 0.65172(12) 0.9705(3) 0.28336(11)
C18 C 0.56979(15) 1.0446(3) 0.19285(13)
H14 H 0.5967 1.1565 0.1850
H15 H 0.4935 1.0559 0.1994
C19 C 0.55766(13) 0.9434(4) 0.10342(11)
H16 H 0.5350 1.0213 0.0500
C20 C 0.78732(12) 0.7694(3) 0.37433(10)
C21 C 0.65578(15) 1.0492(3) 0.36736(13)
H17 H 0.6103 1.1442 0.3647
C22 C 0.79107(13) 0.8507(3) 0.45835(10)
C23 C 0.72466(14) 0.9915(3) 0.45412(12)
H18 H 0.7261 1.0471 0.5089
C24 C 0.88154(17) 0.8685(4) 0.62510(11)
H19 H 0.9025 0.9823 0.6169
H20 H 0.9430 0.8165 0.6746
H21 H 0.8116 0.8679 0.6414
C25 C 0.90889(18) 0.4012(4) 0.51980(13)
H22 H 0.8962 0.2887 0.5372
H23 H 0.8962 0.4787 0.5644
H24 H 0.9872 0.4119 0.5194
C26 C 0.62081(14) 0.6017(3) 0.16999(11)
H25 H 0.6207 0.5411 0.1140
H26 H 0.6392 0.5226 0.2219
C27 C 0.50016(13) 0.6758(3) 0.15450(11)
H27 H 0.4427 0.5870 0.1360
H28 H 0.4973 0.7234 0.2131
C28 C 0.35417(14) 0.8701(4) 0.06826(13)
H29 H 0.2987 0.7813 0.0459
H30 H 0.3374 0.9592 0.0227
H31 H 0.3497 0.9122 0.1269
N1 N 0.97213(12) 1.0673(3) 0.15937(10)
N2 N 1.03366(10) 0.7517(2) 0.23874(8)
N3 N 0.47177(11) 0.8051(3) 0.08246(9)
O1 O 1.16575(9) 1.1438(2) 0.20183(8)
O2 O 1.12979(12) 1.1295(3) 0.03115(9)
O3 O 1.27224(11) 1.3242(2) 0.13437(10)
O4 O 0.83323(13) 0.3323(2) 0.34171(10)
O5 O 0.85823(9) 0.6252(2) 0.38400(7)
O6 O 0.69719(10) 0.4664(2) 0.41046(9)
O7 O 0.86277(10) 0.7773(2) 0.53915(7)
S1 S 1.16206(3) 1.24389(7) 0.10801(3)
S2 S 0.81197(4) 0.44573(7) 0.40707(3)
loop_
_geom_bond_atom_site_label_1
_geom_bond_atom_site_label_2
_geom_bond_site_symmetry_1
_geom_bond_site_symmetry_2
C1 H1 1_555 1_555
C2 C1 1_555 1_555
H2 C2 1_555 1_555
C3 C1 1_555 1_555
H3 C3 1_555 1_555
C4 C2 1_555 1_555
H4 C4 1_555 1_555
C5 C3 1_555 1_555
H5 C5 1_555 1_555
C6 C4 1_555 1_555
C7 C6 1_555 1_555
C8 C7 1_555 1_555
C9 C10 1_555 1_555
C10 C13 1_555 1_555
C11 H6 1_555 1_555
H7 C11 1_555 1_555
H8 C11 1_555 1_555
C12 C9 1_555 1_555
H9 C12 1_555 1_555
H10 C12 1_555 1_555
C13 H11 1_555 1_555
H12 C13 1_555 1_555
C14 C12 1_555 1_555
C15 C13 1_555 1_555
H13 C15 1_555 1_555
C16 C14 1_555 1_555
C17 C16 1_555 1_555
C18 C17 1_555 1_555
H14 C18 1_555 1_555
H15 C18 1_555 1_555
C19 C15 1_555 1_555
H16 C19 1_555 1_555
C20 C16 1_555 1_555
C21 C17 1_555 1_555
H17 C21 1_555 1_555
C22 C20 1_555 1_555
C23 C21 1_555 1_555
H18 C23 1_555 1_555
C24 H19 1_555 1_555
H20 C24 1_555 1_555
H21 C24 1_555 1_555
C25 H22 1_555 1_555
H23 C25 1_555 1_555
H24 C25 1_555 1_555
C26 C14 1_555 1_555
H25 C26 1_555 1_555
H26 C26 1_555 1_555
C27 C26 1_555 1_555
H27 C27 1_555 1_555
H28 C27 1_555 1_555
C28 H29 1_555 1_555
H30 C28 1_555 1_555
H31 C28 1_555 1_555
N1 C8 1_555 1_555
N2 C7 1_555 1_555
N3 C19 1_555 1_555
O1 C8 1_555 1_555
O2 S1 1_555 1_555
O3 S1 1_555 1_555
O4 S2 1_555 1_555
O5 C20 1_555 1_555
O6 S2 1_555 1_555
O7 C22 1_555 1_555
S1 C11 1_555 1_555
S2 C25 1_555 1_555
C5 C6 1_555 1_555
C9 N2 1_555 1_555
C10 N1 1_555 1_555
C14 C15 1_555 1_555
C18 C19 1_555 1_555
C22 C23 1_555 1_555
C24 O7 1_555 1_555
C27 N3 1_555 1_555
C28 N3 1_555 1_555
O1 S1 1_555 1_555
O5 S2 1_555 1_555

#END
