
#######################################################################
#
#                 Cambridge Crystallographic Data Centre
#                                CCDC 
#
#######################################################################
#
# If this CIF has been generated from an entry in the Cambridge 
# Structural Database, then it will include bibliographic, chemical, 
# crystal, experimental, refinement or atomic coordinate data resulting 
# from the CCDC's data processing and validation procedures.
#
#######################################################################

data_YOGSIY
_chemical_formula_moiety         'C26 H23 N1 O4'
_chemical_name_systematic        
2,2'-Dihydroxy-3'-(morpholin-4-ylmethyl)-1,1'-binaphthalene-3-carbaldehyde
_symmetry_cell_setting           orthorhombic
_symmetry_space_group_name_H-M   'P 21 21 21'
_symmetry_Int_Tables_number      19
_space_group_name_Hall           'P 2ac 2ab'
loop_
_symmetry_equiv_pos_site_id
_symmetry_equiv_pos_as_xyz
1 x,y,z
2 1/2-x,-y,1/2+z
3 -x,1/2+y,1/2-z
4 1/2+x,1/2-y,-z
_cell_length_a                   6.8886(4)
_cell_length_b                   12.7939(8)
_cell_length_c                   23.5069(15)
_cell_angle_alpha                90
_cell_angle_beta                 90
_cell_angle_gamma                90
_cell_volume                     2071.71
_exptl_crystal_colour            green
_exptl_crystal_description       prismatic
_cell_formula_units_Z            4
loop_
_atom_site_label
_atom_site_type_symbol
_atom_site_fract_x
_atom_site_fract_y
_atom_site_fract_z
N1 N 0.3261(2) 0.39157(9) 0.15651(5)
O1 O 0.42974(17) 0.57673(9) 0.11925(4)
O2 O 0.7572(2) 1.03536(9) 0.08948(6)
O3 O 0.7220(2) 0.85968(9) 0.14984(5)
O4 O 0.2345(3) 0.22258(12) 0.08357(7)
C1 C 0.5681(2) 0.57679(11) 0.16047(6)
C2 C 0.5437(2) 0.51022(11) 0.20850(6)
C3 C 0.6810(3) 0.51292(12) 0.25041(6)
H1 H 0.6659 0.4699 0.2820
C4 C 0.8451(2) 0.57896(11) 0.24742(6)
C5 C 0.9858(3) 0.58160(12) 0.29093(6)
H2 H 0.9679 0.5411 0.3234
C6 C 1.1476(3) 0.64234(13) 0.28642(7)
H3 H 1.2387 0.6434 0.3156
C7 C 1.1757(3) 0.70306(13) 0.23760(7)
H4 H 1.2868 0.7439 0.2343
C8 C 1.0417(3) 0.70306(12) 0.19479(7)
H5 H 1.0635 0.7438 0.1627
C9 C 0.8710(2) 0.64266(11) 0.19820(6)
C10 C 0.7291(2) 0.63999(10) 0.15408(6)
C11 C 0.7534(2) 0.70058(11) 0.10026(6)
C12 C 0.7735(2) 0.64698(11) 0.04716(6)
C13 C 0.7785(3) 0.53685(13) 0.04332(7)
H6 H 0.7773 0.4972 0.0765
C14 C 0.7851(3) 0.48764(15) -0.00799(8)
H7 H 0.7859 0.4150 -0.0093
C15 C 0.7906(3) 0.54466(16) -0.05889(8)
H8 H 0.7920 0.5100 -0.0937
C16 C 0.7941(2) 0.65017(16) -0.05726(7)
H9 H 0.8017 0.6877 -0.0911
C17 C 0.7863(2) 0.70468(13) -0.00466(6)
C18 C 0.7891(2) 0.81378(13) -0.00202(6)
H10 H 0.8021 0.8519 -0.0355
C19 C 0.7734(2) 0.86572(12) 0.04846(6)
C20 C 0.7503(2) 0.80823(11) 0.10010(6)
C21 C 0.7761(3) 0.97928(14) 0.04826(8)
H11 H 0.7940 1.0120 0.0133
C22 C 0.3670(3) 0.44139(13) 0.21157(6)
H12 H 0.3872 0.3878 0.2402
H13 H 0.2559 0.4830 0.2230
C23 C 0.1308(3) 0.34666(14) 0.15486(8)
H14 H 0.0354 0.4007 0.1624
H15 H 0.1183 0.2934 0.1840
C24 C 0.0946(3) 0.29940(18) 0.09726(10)
H16 H -0.0335 0.2680 0.0967
H17 H 0.0976 0.3541 0.0687
C25 C 0.4230(4) 0.26621(19) 0.08501(10)
H18 H 0.4329 0.3211 0.0567
H19 H 0.5177 0.2127 0.0758
C26 C 0.4670(3) 0.31071(14) 0.14297(9)
H20 H 0.4613 0.2557 0.1713
H21 H 0.5969 0.3401 0.1433
H22 H 0.728(3) 0.9242(18) 0.1408(9)
H23 H 0.372(3) 0.5153(17) 0.1243(8)
loop_
_geom_bond_atom_site_label_1
_geom_bond_atom_site_label_2
_geom_bond_site_symmetry_1
_geom_bond_site_symmetry_2
N1 C22 1_555 1_555
O1 C1 1_555 1_555
O2 C21 1_555 1_555
O3 C20 1_555 1_555
O4 C24 1_555 1_555
C1 C2 1_555 1_555
C2 C3 1_555 1_555
C3 H1 1_555 1_555
C4 C3 1_555 1_555
C5 C4 1_555 1_555
H2 C5 1_555 1_555
C6 C5 1_555 1_555
H3 C6 1_555 1_555
C7 C6 1_555 1_555
H4 C7 1_555 1_555
C8 C7 1_555 1_555
H5 C8 1_555 1_555
C9 C4 1_555 1_555
C10 C1 1_555 1_555
C11 C10 1_555 1_555
C12 C11 1_555 1_555
C13 C12 1_555 1_555
H6 C13 1_555 1_555
C14 C13 1_555 1_555
H7 C14 1_555 1_555
C15 C14 1_555 1_555
H8 C15 1_555 1_555
C16 C15 1_555 1_555
H9 C16 1_555 1_555
C17 C12 1_555 1_555
C18 C17 1_555 1_555
H10 C18 1_555 1_555
C19 C18 1_555 1_555
C20 C11 1_555 1_555
C21 C19 1_555 1_555
H11 C21 1_555 1_555
C22 C2 1_555 1_555
H12 C22 1_555 1_555
H13 C22 1_555 1_555
C23 N1 1_555 1_555
H14 C23 1_555 1_555
H15 C23 1_555 1_555
C24 C23 1_555 1_555
H16 C24 1_555 1_555
H17 C24 1_555 1_555
C25 O4 1_555 1_555
H18 C25 1_555 1_555
H19 C25 1_555 1_555
C26 N1 1_555 1_555
H20 C26 1_555 1_555
H21 C26 1_555 1_555
H22 O3 1_555 1_555
H23 O1 1_555 1_555
C8 C9 1_555 1_555
C9 C10 1_555 1_555
C16 C17 1_555 1_555
C19 C20 1_555 1_555
C25 C26 1_555 1_555

#END
