
#######################################################################
#
#                 Cambridge Crystallographic Data Centre
#                                CCDC 
#
#######################################################################
#
# If this CIF has been generated from an entry in the Cambridge 
# Structural Database, then it will include bibliographic, chemical, 
# crystal, experimental, refinement or atomic coordinate data resulting 
# from the CCDC's data processing and validation procedures.
#
#######################################################################

data_YOGVAR
_chemical_formula_moiety         'C22 H20 S2'
_chemical_name_systematic        
1-(Benzo(b)thiophen-2-yl)-1,3,3-trimethyl-cyclopentene(d)benzo(b)thiophene
_symmetry_cell_setting           triclinic
_symmetry_space_group_name_H-M   'P 1'
_symmetry_Int_Tables_number      1
_space_group_name_Hall           'P 1'
loop_
_symmetry_equiv_pos_site_id
_symmetry_equiv_pos_as_xyz
1 x,y,z
_cell_length_a                   11.673(4)
_cell_length_b                   9.084(3)
_cell_length_c                   9.075(3)
_cell_angle_alpha                107.41
_cell_angle_beta                 85.02
_cell_angle_gamma                97.94
_cell_volume                     908.35
_exptl_crystal_colour            white
_chemical_melting_point          '125-127 deg.C'
_cell_formula_units_Z            2
loop_
_atom_site_label
_atom_site_type_symbol
_atom_site_fract_x
_atom_site_fract_y
_atom_site_fract_z
S1 S 0.3525(1) 0.3422(1) 0.7481(1)
S2 S 0.5142(1) 0.7970(1) 1.1758(1)
C1 C 0.4213(3) 0.2993(4) 0.8941(4)
C2 C 0.3920(4) 0.1710(4) 0.9495(5)
C3 C 0.4558(4) 0.1563(4) 1.0653(5)
C4 C 0.5450(4) 0.2715(4) 1.1279(5)
C5 C 0.5737(3) 0.3989(4) 1.0748(4)
C6 C 0.5128(3) 0.4160(3) 0.9553(4)
C7 C 0.5253(3) 0.5349(4) 0.8792(4)
C8 C 0.4465(3) 0.5122(4) 0.7707(4)
C9 C 0.6132(3) 0.6741(4) 0.8808(4)
C10 C 0.6287(3) 0.7878(3) 1.0411(4)
C11 C 0.7240(3) 0.9007(4) 1.0892(4)
C12 C 0.6982(3) 0.9965(4) 1.2479(4)
C13 C 0.5884(3) 0.9547(4) 1.3091(4)
C14 C 0.5479(4) 1.0366(5) 1.4553(5)
C15 C 0.6180(4) 1.1613(5) 1.5407(5)
C16 C 0.7285(4) 1.2039(4) 1.4838(5)
C17 C 0.7684(3) 1.1247(4) 1.3397(4)
C18 C 0.4630(3) 0.6270(4) 0.6789(4)
C19 C 0.3519(4) 0.6971(5) 0.6733(5)
C20 C 0.5090(4) 0.5529(5) 0.5138(5)
C21 C 0.5552(4) 0.7499(4) 0.7760(5)
C22 C 0.7311(5) 0.6213(5) 0.8106(5)
H1 H 0.7933(8) 0.9135(8) 1.0278(8)
H2 H 0.5804(8) 0.5068(8) 0.5166(8)
H3 H 0.5259(7) 0.6336(8) 0.4596(8)
H4 H 0.4505(8) 0.4719(8) 0.4576(8)
H5 H 0.5889(8) 0.2610(8) 1.2122(8)
H6 H 0.3212(8) 0.7450(8) 0.7802(8)
H7 H 0.2930(8) 0.6153(8) 0.6169(8)
H8 H 0.3690(8) 0.7785(8) 0.6182(8)
H9 H 0.7211(8) 0.5472(8) 0.7059(8)
H10 H 0.7630(8) 0.5699(8) 0.8779(8)
H11 H 0.7864(8) 0.7129(8) 0.8030(8)
H12 H 0.6162(8) 0.7855(8) 0.7051(8)
H13 H 0.5173(8) 0.8409(8) 0.8415(8)
H14 H 0.4702(7) 1.0002(8) 1.5006(8)
H15 H 0.3447(8) 0.0715(8) 0.8869(8)
H16 H 0.7859(8) 1.2933(8) 1.5316(8)
H17 H 0.5946(8) 1.2330(8) 1.6541(8)
H18 H 0.6300(8) 0.4880(8) 1.1385(8)
H19 H 0.4326(8) 0.0632(8) 1.1150(8)
H20 H 0.8264(8) 1.1348(8) 1.2823(8)
S3 S 0.2279(1) 0.5086(1) 0.1777(1)
S4 S 0.0679(1) 0.9007(1) 0.6316(1)
C23 C 0.1642(3) 0.4345(4) 0.3305(4)
C24 C 0.1981(4) 0.3115(4) 0.3737(5)
C25 C 0.1375(4) 0.2677(4) 0.4941(5)
C26 C 0.0447(4) 0.3448(4) 0.5742(5)
C27 C 0.0114(4) 0.4657(4) 0.5312(4)
C28 C 0.0704(3) 0.5113(3) 0.4081(4)
C29 C 0.0509(3) 0.6284(4) 0.3393(4)
C30 C 0.1270(3) 0.6392(4) 0.2205(4)
C31 C -0.0422(3) 0.7359(3) 0.3595(4)
C32 C -0.0523(3) 0.8450(4) 0.5211(4)
C33 C -0.1443(3) 0.9222(4) 0.5918(4)
C34 C -0.1191(3) 1.0320(4) 0.7392(4)
C35 C -0.0053(3) 1.0340(4) 0.7796(4)
C36 C 0.0375(4) 1.1341(4) 0.9173(4)
C37 C -0.0333(4) 1.2330(5) 1.0138(5)
C38 C -0.1473(4) 1.2322(4) 0.9772(4)
C39 C -0.1902(3) 1.1335(4) 0.8420(4)
C40 C 0.1027(3) 0.7510(4) 0.1316(4)
C41 C 0.2081(4) 0.8681(5) 0.1257(5)
C42 C 0.0614(4) 0.6648(5) -0.0243(5)
C43 C 0.0048(4) 0.8323(5) 0.2446(5)
C44 C -0.1592(4) 0.6408(5) 0.3119(5)
H21 H 0.0437(7) 0.7135(7) -0.0989(7)
H22 H -0.0047(7) 1.3049(7) 1.1120(7)
H23 H 0.1592(7) 0.1804(7) 0.5248(7)
H24 H 0.2650(7) 0.8146(7) 0.0467(7)
H25 H 0.2431(7) 0.9088(7) 0.2267(7)
H26 H 0.1836(7) 0.9551(7) 0.0953(7)
H27 H -0.2127(7) 0.7085(7) 0.3072(7)
H28 H -0.1842(7) 0.5881(7) 0.3850(7)
H29 H -0.2156(7) 0.9084(7) 0.5489(7)
H30 H -0.0051(7) 0.6119(7) -0.0023(7)
H31 H 0.1189(7) 0.6196(7) -0.0610(7)
H32 H -0.2668(7) 1.1462(7) 0.8196(7)
H33 H 0.2602(7) 0.2735(7) 0.3238(7)
H34 H -0.0058(7) 0.3035(7) 0.6592(7)
H35 H 0.1119(7) 1.1124(7) 0.9580(7)
H36 H -0.0555(7) 0.5178(7) 0.5716(7)
H37 H -0.1945(7) 1.2876(7) 1.0639(7)
H38 H -0.1521(7) 0.5578(7) 0.2016(7)
H39 H -0.0606(7) 0.8203(7) 0.1735(7)
H40 H 0.0428(7) 0.9453(7) 0.3083(7)
loop_
_geom_bond_atom_site_label_1
_geom_bond_atom_site_label_2
_geom_bond_site_symmetry_1
_geom_bond_site_symmetry_2
S1 C1 1_555 1_555
S2 C10 1_555 1_555
C1 C2 1_555 1_555
C2 C3 1_555 1_555
C3 C4 1_555 1_555
C4 C5 1_555 1_555
C5 C6 1_555 1_555
C6 C1 1_555 1_555
C7 C6 1_555 1_555
C8 S1 1_555 1_555
C9 C7 1_555 1_555
C10 C9 1_555 1_555
C11 C10 1_555 1_555
C12 C11 1_555 1_555
C13 S2 1_555 1_555
C14 C13 1_555 1_555
C15 C14 1_555 1_555
C16 C15 1_555 1_555
C17 C12 1_555 1_555
C18 C8 1_555 1_555
C19 C18 1_555 1_555
C20 C18 1_555 1_555
C21 C9 1_555 1_555
C22 C9 1_555 1_555
S3 C23 1_555 1_555
S4 C32 1_555 1_555
C23 C24 1_555 1_555
C24 C25 1_555 1_555
C25 C26 1_555 1_555
C26 C27 1_555 1_555
C27 C28 1_555 1_555
C28 C23 1_555 1_555
C29 C28 1_555 1_555
C30 S3 1_555 1_555
C31 C29 1_555 1_555
C32 C31 1_555 1_555
C33 C32 1_555 1_555
C34 C33 1_555 1_555
C35 S4 1_555 1_555
C36 C35 1_555 1_555
C37 C36 1_555 1_555
C38 C37 1_555 1_555
C39 C34 1_555 1_555
C40 C30 1_555 1_555
C41 C40 1_555 1_555
C42 C40 1_555 1_555
C43 C31 1_555 1_555
C44 C31 1_555 1_555
H1 C11 1_555 1_555
H2 C20 1_555 1_555
H3 C20 1_555 1_555
H4 C20 1_555 1_555
H5 C4 1_555 1_555
H6 C19 1_555 1_555
H7 C19 1_555 1_555
H8 C19 1_555 1_555
H9 C22 1_555 1_555
H10 C22 1_555 1_555
H11 C22 1_555 1_555
H12 C21 1_555 1_555
H13 C21 1_555 1_555
H14 C14 1_555 1_555
H15 C2 1_555 1_555
H16 C16 1_555 1_555
H17 C15 1_555 1_555
H18 C5 1_555 1_555
H19 C3 1_555 1_555
H20 C17 1_555 1_555
H21 C42 1_555 1_555
H22 C37 1_555 1_555
H23 C25 1_555 1_555
H24 C41 1_555 1_555
H25 C41 1_555 1_555
H26 C41 1_555 1_555
H27 C44 1_555 1_555
H28 C44 1_555 1_555
H29 C33 1_555 1_555
H30 C42 1_555 1_555
H31 C42 1_555 1_555
H32 C39 1_555 1_555
H33 C24 1_555 1_555
H34 C26 1_555 1_555
H35 C36 1_555 1_555
H36 C27 1_555 1_555
H37 C38 1_555 1_555
H38 C44 1_555 1_555
H39 C43 1_555 1_555
H40 C43 1_555 1_555
C7 C8 1_555 1_555
C12 C13 1_555 1_555
C16 C17 1_555 1_555
C18 C21 1_555 1_555
C29 C30 1_555 1_555
C34 C35 1_555 1_555
C38 C39 1_555 1_555
C40 C43 1_555 1_555

#END
