
#######################################################################
#
#                 Cambridge Crystallographic Data Centre
#                                CCDC 
#
#######################################################################
#
# If this CIF has been generated from an entry in the Cambridge 
# Structural Database, then it will include bibliographic, chemical, 
# crystal, experimental, refinement or atomic coordinate data resulting 
# from the CCDC's data processing and validation procedures.
#
#######################################################################

data_YOGWIC
_chemical_formula_moiety         'C22 H12 N2 O2 S1'
_chemical_name_systematic        
6-((4-methoxyphenyl)sulfanyl)-1-oxo-1H-phenalene-2,3-dicarbonitrile
_symmetry_cell_setting           triclinic
_symmetry_space_group_name_H-M   'P -1'
_symmetry_Int_Tables_number      2
_space_group_name_Hall           '-P 1'
loop_
_symmetry_equiv_pos_site_id
_symmetry_equiv_pos_as_xyz
1 x,y,z
2 -x,-y,-z
_cell_length_a                   7.913(4)
_cell_length_b                   9.237(5)
_cell_length_c                   12.614(6)
_cell_angle_alpha                87.571(10)
_cell_angle_beta                 76.617(10)
_cell_angle_gamma                66.990(9)
_cell_volume                     824.394
_exptl_crystal_colour            'dark red'
_exptl_crystal_description       plate
_cell_formula_units_Z            2
loop_
_atom_site_label
_atom_site_type_symbol
_atom_site_fract_x
_atom_site_fract_y
_atom_site_fract_z
S1 S 0.53364(10) 0.55642(7) 0.13250(6)
O1 O 0.9420(2) 0.22013(18) 0.61552(14)
O2 O 0.1763(3) 1.14993(19) -0.07081(15)
N1 N 0.9124(3) 0.5341(2) 0.78501(18)
N2 N 0.6790(3) 0.8993(2) 0.62958(19)
C1 C 0.8594(3) 0.3353(3) 0.5675(2)
C2 C 0.8181(3) 0.4961(3) 0.6086(2)
C3 C 0.7396(3) 0.6240(3) 0.5507(2)
C4 C 0.6923(3) 0.6120(3) 0.4500(2)
C5 C 0.7193(3) 0.4603(3) 0.4104(2)
C6 C 0.7968(3) 0.3244(3) 0.4683(2)
C7 C 0.6226(4) 0.7409(3) 0.3890(2)
H1 H 0.6064 0.8416 0.4150
C8 C 0.5758(3) 0.7285(3) 0.2918(2)
H2 H 0.5299 0.8199 0.2522
C9 C 0.5953(3) 0.5836(3) 0.2514(2)
C10 C 0.6694(3) 0.4456(3) 0.3119(2)
C11 C 0.6946(3) 0.2948(3) 0.2750(2)
H3 H 0.6599 0.2831 0.2096
C12 C 0.7691(4) 0.1638(3) 0.3330(2)
H4 H 0.7851 0.0630 0.3072
C13 C 0.8206(4) 0.1785(3) 0.4283(2)
H5 H 0.8730 0.0874 0.4669
C14 C 0.8708(4) 0.5139(3) 0.7067(2)
C15 C 0.7065(4) 0.7787(3) 0.5940(2)
C16 C 0.4299(4) 0.7455(3) 0.0830(2)
C17 C 0.2611(4) 0.8594(3) 0.1403(2)
H6 H 0.2054 0.8427 0.2125
C18 C 0.1745(4) 0.9978(3) 0.0914(2)
H7 H 0.0619 1.0779 0.1313
C19 C 0.2512(4) 1.0197(3) -0.0151(2)
C20 C 0.4184(4) 0.9041(3) -0.0734(2)
H8 H 0.4709 0.9186 -0.1467
C21 C 0.5070(4) 0.7686(3) -0.0239(2)
H9 H 0.6218 0.6903 -0.0632
C22 C 0.0108(4) 1.2763(3) -0.0113(2)
H10 H -0.0258 1.3654 -0.0580
H11 H 0.0381 1.3095 0.0534
H12 H -0.0927 1.2403 0.0113
loop_
_geom_bond_atom_site_label_1
_geom_bond_atom_site_label_2
_geom_bond_site_symmetry_1
_geom_bond_site_symmetry_2
S1 C9 1_555 1_555
O1 C1 1_555 1_555
O2 C19 1_555 1_555
N1 C14 1_555 1_555
N2 C15 1_555 1_555
C1 C2 1_555 1_555
C2 C3 1_555 1_555
C3 C4 1_555 1_555
C4 C5 1_555 1_555
C5 C6 1_555 1_555
C6 C1 1_555 1_555
C7 C4 1_555 1_555
H1 C7 1_555 1_555
C8 C7 1_555 1_555
H2 C8 1_555 1_555
C9 C8 1_555 1_555
C10 C5 1_555 1_555
C11 C10 1_555 1_555
H3 C11 1_555 1_555
C12 C11 1_555 1_555
H4 C12 1_555 1_555
C13 C6 1_555 1_555
H5 C13 1_555 1_555
C14 C2 1_555 1_555
C15 C3 1_555 1_555
C16 S1 1_555 1_555
C17 C16 1_555 1_555
H6 C17 1_555 1_555
C18 C17 1_555 1_555
H7 C18 1_555 1_555
C19 C18 1_555 1_555
C20 C19 1_555 1_555
H8 C20 1_555 1_555
C21 C16 1_555 1_555
H9 C21 1_555 1_555
C22 O2 1_555 1_555
H10 C22 1_555 1_555
H11 C22 1_555 1_555
H12 C22 1_555 1_555
C9 C10 1_555 1_555
C12 C13 1_555 1_555
C20 C21 1_555 1_555

#END
