
#######################################################################
#
#                 Cambridge Crystallographic Data Centre
#                                CCDC 
#
#######################################################################
#
# If this CIF has been generated from an entry in the Cambridge 
# Structural Database, then it will include bibliographic, chemical, 
# crystal, experimental, refinement or atomic coordinate data resulting 
# from the CCDC's data processing and validation procedures.
#
#######################################################################

data_YOGWUO
_chemical_formula_moiety         'C19 H12 N2 O3 S1'
_chemical_name_systematic        
'methyl 3-((2,3-dicyano-1-oxo-1H-phenalen-6-yl)sulfanyl)propanoate'
_symmetry_cell_setting           monoclinic
_symmetry_space_group_name_H-M   'P 21/c'
_symmetry_Int_Tables_number      14
_space_group_name_Hall           '-P 2ybc'
loop_
_symmetry_equiv_pos_site_id
_symmetry_equiv_pos_as_xyz
1 x,y,z
2 -x,1/2+y,1/2-z
3 -x,-y,-z
4 x,1/2-y,1/2+z
_cell_length_a                   4.325(3)
_cell_length_b                   28.31(2)
_cell_length_c                   12.418(10)
_cell_angle_alpha                90
_cell_angle_beta                 97.447(16)
_cell_angle_gamma                90
_cell_volume                     1507.64
_exptl_crystal_colour            orange
_exptl_crystal_description       'flat needle'
_cell_formula_units_Z            4
loop_
_atom_site_label
_atom_site_type_symbol
_atom_site_fract_x
_atom_site_fract_y
_atom_site_fract_z
S1 S 0.3790(4) 0.05560(6) 0.48066(13)
O1 O 1.1007(11) 0.24199(16) 0.1634(4)
O2 O 0.0905(10) 0.01379(16) 0.8078(4)
O3 O 0.4098(10) 0.06770(15) 0.8926(4)
N1 N 0.9746(13) 0.3533(2) 0.2557(5)
N2 N 0.4853(14) 0.3245(2) 0.5037(5)
C1 C 0.9547(15) 0.2309(2) 0.2381(6)
C2 C 0.8479(14) 0.2681(2) 0.3073(5)
C3 C 0.6900(15) 0.2568(2) 0.3919(5)
C4 C 0.6189(14) 0.2088(2) 0.4174(5)
C5 C 0.7117(14) 0.1723(2) 0.3504(5)
C6 C 0.8815(14) 0.1823(2) 0.2629(5)
C7 C 0.4595(14) 0.1976(2) 0.5036(5)
H1 H 0.3976 0.2223 0.5481
C8 C 0.3882(14) 0.1516(2) 0.5268(6)
H2 H 0.2839 0.1448 0.5878
C9 C 0.4684(14) 0.1149(2) 0.4612(5)
C10 C 0.6387(14) 0.1249(2) 0.3726(5)
C11 C 0.7342(14) 0.0894(2) 0.3047(5)
H3 H 0.6833 0.0575 0.3176
C12 C 0.8994(14) 0.0998(2) 0.2201(5)
H4 H 0.9628 0.0752 0.1759
C13 C 0.9725(14) 0.1462(2) 0.1998(6)
H5 H 1.0872 0.1532 0.1415
C14 C 0.9178(15) 0.3160(2) 0.2806(6)
C15 C 0.5814(15) 0.2945(2) 0.4560(6)
C16 C 0.2062(15) 0.0531(2) 0.6045(5)
H6 H 0.0565 0.0796 0.6049
H7 H 0.0869 0.0233 0.6056
C17 C 0.4374(15) 0.0558(2) 0.7073(5)
H8 H 0.6134 0.0341 0.7008
H9 H 0.5221 0.0883 0.7158
C18 C 0.2896(14) 0.0430(2) 0.8054(5)
C19 C 0.2639(16) 0.0606(2) 0.9889(6)
H10 H 0.0439 0.0698 0.9746
H11 H 0.3693 0.0799 1.0480
H12 H 0.2789 0.0272 1.0096
loop_
_geom_bond_atom_site_label_1
_geom_bond_atom_site_label_2
_geom_bond_site_symmetry_1
_geom_bond_site_symmetry_2
S1 C9 1_555 1_555
O1 C1 1_555 1_555
O2 C18 1_555 1_555
O3 C18 1_555 1_555
N1 C14 1_555 1_555
N2 C15 1_555 1_555
C1 C2 1_555 1_555
C2 C3 1_555 1_555
C3 C4 1_555 1_555
C4 C5 1_555 1_555
C5 C6 1_555 1_555
C6 C1 1_555 1_555
C7 C4 1_555 1_555
H1 C7 1_555 1_555
C8 C7 1_555 1_555
H2 C8 1_555 1_555
C9 C8 1_555 1_555
C10 C5 1_555 1_555
C11 C10 1_555 1_555
H3 C11 1_555 1_555
C12 C11 1_555 1_555
H4 C12 1_555 1_555
C13 C6 1_555 1_555
H5 C13 1_555 1_555
C14 C2 1_555 1_555
C15 C3 1_555 1_555
C16 S1 1_555 1_555
H6 C16 1_555 1_555
H7 C16 1_555 1_555
C17 C16 1_555 1_555
H8 C17 1_555 1_555
H9 C17 1_555 1_555
C18 C17 1_555 1_555
C19 O3 1_555 1_555
H10 C19 1_555 1_555
H11 C19 1_555 1_555
H12 C19 1_555 1_555
C9 C10 1_555 1_555
C12 C13 1_555 1_555

#END
