
#######################################################################
#
#                 Cambridge Crystallographic Data Centre
#                                CCDC 
#
#######################################################################
#
# If this CIF has been generated from an entry in the Cambridge 
# Structural Database, then it will include bibliographic, chemical, 
# crystal, experimental, refinement or atomic coordinate data resulting 
# from the CCDC's data processing and validation procedures.
#
#######################################################################

data_YOHBIH
_chemical_formula_moiety         'C25 H23 N1 O6'
_chemical_name_systematic        
'(2R*,3R*,4S*,5R*)-(4-Nitrobenzoic acid)-2-(4-methoxyphenyl)-3-methyl-5-phenyltetrahydrofuran-4-yl ester'
_symmetry_cell_setting           triclinic
_symmetry_space_group_name_H-M   'P -1'
_symmetry_Int_Tables_number      2
_space_group_name_Hall           '-P 1'
loop_
_symmetry_equiv_pos_site_id
_symmetry_equiv_pos_as_xyz
1 x,y,z
2 -x,-y,-z
_cell_length_a                   9.8258(17)
_cell_length_b                   10.8177(19)
_cell_length_c                   11.603(2)
_cell_angle_alpha                65.954(5)
_cell_angle_beta                 74.125(6)
_cell_angle_gamma                83.048(5)
_cell_volume                     1083.26
_exptl_crystal_colour            colorless
_exptl_crystal_description       prism
_chemical_melting_point          '127-129 deg.C'
_cell_formula_units_Z            2
loop_
_atom_site_label
_atom_site_type_symbol
_atom_site_fract_x
_atom_site_fract_y
_atom_site_fract_z
O1 O 0.33898(10) 0.76071(9) 0.21499(10)
C1 C 0.43813(12) 0.65244(12) 0.25250(12)
H1 H 0.5138 0.6582 0.1741
C2 C 0.50373(12) 0.68035(12) 0.34664(12)
H2 H 0.4925 0.6022 0.4314
C3 C 0.42391(13) 0.80444(12) 0.36160(12)
H3 H 0.3371 0.7723 0.4326
C4 C 0.37853(13) 0.87324(12) 0.23433(12)
H4 H 0.4604 0.9198 0.1630
C5 C 0.50182(16) 0.89354(15) 0.39505(15)
H5 H 0.5856 0.9299 0.3254
H6 H 0.5293 0.8402 0.4756
H7 H 0.4402 0.9674 0.4054
C6 C 0.25439(13) 0.96916(12) 0.23287(12)
C7 C 0.26259(15) 1.09964(13) 0.13859(13)
H8 H 0.3485 1.1299 0.0761
C8 C 0.14665(17) 1.18626(13) 0.13468(14)
H9 H 0.1546 1.2746 0.0700
C9 C 0.01980(15) 1.14394(13) 0.22493(13)
C10 C 0.00926(15) 1.01422(14) 0.31948(15)
H10 H -0.0769 0.9840 0.3816
C11 C 0.12652(15) 0.92880(14) 0.32233(15)
H11 H 0.1185 0.8407 0.3873
C12 C 0.36274(13) 0.52081(12) 0.30443(13)
C13 C 0.23962(16) 0.49450(16) 0.40204(15)
H12 H 0.2038 0.5576 0.4398
C14 C 0.16875(19) 0.37471(19) 0.44428(17)
H13 H 0.0851 0.3565 0.5112
C15 C 0.2200(2) 0.28189(17) 0.38889(18)
H14 H 0.1703 0.2017 0.4168
C16 C 0.3427(2) 0.30663(16) 0.29374(19)
H15 H 0.3786 0.2427 0.2570
C17 C 0.41439(16) 0.42558(14) 0.25121(15)
H16 H 0.4991 0.4421 0.1855
O2 O -0.08927(12) 1.23617(10) 0.21380(11)
C18 C -0.22051(17) 1.19571(17) 0.30557(18)
H17 H -0.2558 1.1195 0.2991
H18 H -0.2877 1.2704 0.2881
H19 H -0.2081 1.1695 0.3926
O3 O 0.70184(10) 0.49587(9) 0.32770(11)
O4 O 0.65116(9) 0.71544(8) 0.28496(9)
C19 C 0.73875(13) 0.61187(12) 0.28010(13)
C20 C 0.88512(13) 0.65785(12) 0.20619(13)
C21 C 0.98228(14) 0.56416(14) 0.17641(15)
H20 H 0.9559 0.4735 0.2068
C22 C 1.11730(15) 0.60401(15) 0.10241(15)
H21 H 1.1842 0.5417 0.0815
C23 C 1.15123(13) 0.73753(14) 0.06009(12)
C24 C 1.05876(14) 0.83202(13) 0.09039(14)
H22 H 1.0869 0.9219 0.0616
C25 C 0.92365(13) 0.79148(13) 0.16418(14)
H23 H 0.8579 0.8540 0.1860
N1 N 1.29314(13) 0.78243(14) -0.02197(12)
O5 O 1.38140(12) 0.69619(14) -0.03446(13)
O6 O 1.31520(13) 0.90391(13) -0.07413(12)
loop_
_geom_bond_atom_site_label_1
_geom_bond_atom_site_label_2
_geom_bond_site_symmetry_1
_geom_bond_site_symmetry_2
O1 C1 1_555 1_555
C1 H1 1_555 1_555
C2 C1 1_555 1_555
H2 C2 1_555 1_555
C3 C2 1_555 1_555
H3 C3 1_555 1_555
C4 O1 1_555 1_555
H4 C4 1_555 1_555
C5 C3 1_555 1_555
H5 C5 1_555 1_555
H6 C5 1_555 1_555
H7 C5 1_555 1_555
C6 C4 1_555 1_555
C7 C6 1_555 1_555
H8 C7 1_555 1_555
C8 C7 1_555 1_555
H9 C8 1_555 1_555
C9 C8 1_555 1_555
C10 C9 1_555 1_555
H10 C10 1_555 1_555
C11 C6 1_555 1_555
H11 C11 1_555 1_555
C12 C1 1_555 1_555
C13 C12 1_555 1_555
H12 C13 1_555 1_555
C14 C13 1_555 1_555
H13 C14 1_555 1_555
C15 C14 1_555 1_555
H14 C15 1_555 1_555
C16 C15 1_555 1_555
H15 C16 1_555 1_555
C17 C12 1_555 1_555
H16 C17 1_555 1_555
O2 C9 1_555 1_555
C18 O2 1_555 1_555
H17 C18 1_555 1_555
H18 C18 1_555 1_555
H19 C18 1_555 1_555
O3 C19 1_555 1_555
O4 C2 1_555 1_555
C19 O4 1_555 1_555
C20 C19 1_555 1_555
C21 C20 1_555 1_555
H20 C21 1_555 1_555
C22 C21 1_555 1_555
H21 C22 1_555 1_555
C23 C22 1_555 1_555
C24 C23 1_555 1_555
H22 C24 1_555 1_555
C25 C20 1_555 1_555
H23 C25 1_555 1_555
N1 C23 1_555 1_555
O5 N1 1_555 1_555
O6 N1 1_555 1_555
C3 C4 1_555 1_555
C10 C11 1_555 1_555
C16 C17 1_555 1_555
C24 C25 1_555 1_555

#END
