
#######################################################################
#
#                 Cambridge Crystallographic Data Centre
#                                CCDC 
#
#######################################################################
#
# If this CIF has been generated from an entry in the Cambridge 
# Structural Database, then it will include bibliographic, chemical, 
# crystal, experimental, refinement or atomic coordinate data resulting 
# from the CCDC's data processing and validation procedures.
#
#######################################################################

data_YOHBED
_chemical_formula_moiety         'C13 H18 O3'
_chemical_name_systematic        
(2S*,3S*,4R*,5S*)-3,5-Dimethyl-2-(4-methoxyphenyl)tetrahydrofuran-4-ol
_symmetry_cell_setting           orthorhombic
_symmetry_space_group_name_H-M   'P 21 21 21'
_symmetry_Int_Tables_number      19
_space_group_name_Hall           'P 2ac 2ab'
loop_
_symmetry_equiv_pos_site_id
_symmetry_equiv_pos_as_xyz
1 x,y,z
2 1/2-x,-y,1/2+z
3 -x,1/2+y,1/2-z
4 1/2+x,1/2-y,-z
_cell_length_a                   5.1187(4)
_cell_length_b                   8.2508(7)
_cell_length_c                   28.156(2)
_cell_angle_alpha                90
_cell_angle_beta                 90
_cell_angle_gamma                90
_cell_volume                     1189.12
_exptl_crystal_colour            colorless
_exptl_crystal_description       plate
_chemical_melting_point          '93-94 deg.C'
_cell_formula_units_Z            4
loop_
_atom_site_label
_atom_site_type_symbol
_atom_site_fract_x
_atom_site_fract_y
_atom_site_fract_z
O1 O 0.79570(18) 0.47578(10) 0.39927(3)
C1 C 0.9096(2) 0.45973(13) 0.44537(4)
H1 H 0.7729 0.4826 0.4698
C2 C 1.1247(2) 0.58875(13) 0.44921(4)
H2 H 1.2999 0.5354 0.4505
C3 C 1.0990(2) 0.68820(13) 0.40309(4)
H3 H 1.2333 0.6482 0.3801
O2 O 1.0810(2) 0.67966(10) 0.49191(3)
H4 H 1.229(4) 0.725(2) 0.4972(6)
C4 C 0.8297(2) 0.64142(13) 0.38410(4)
H5 H 0.6937 0.7110 0.3994
C5 C 0.7967(2) 0.64702(13) 0.33091(4)
C6 C 0.6124(2) 0.74574(13) 0.30957(4)
H6 H 0.5090 0.8152 0.3288
C7 C 0.5745(2) 0.74580(13) 0.26045(4)
H7 H 0.4463 0.8140 0.2465
C8 C 0.7268(2) 0.64483(13) 0.23233(4)
C9 C 0.9186(2) 0.54767(14) 0.25312(4)
H8 H 1.0266 0.4812 0.2338
C10 C 0.9509(2) 0.54832(13) 0.30167(4)
H9 H 1.0801 0.4807 0.3156
O3 O 0.70352(18) 0.63145(10) 0.18403(3)
C11 C 0.4920(3) 0.71475(16) 0.16201(4)
H10 H 0.3270 0.6798 0.1764
H11 H 0.4900 0.6900 0.1280
H12 H 0.5136 0.8318 0.1665
C12 C 0.9995(3) 0.28624(15) 0.45073(5)
H13 H 0.8518 0.2130 0.4452
H14 H 1.0676 0.2696 0.4829
H15 H 1.1375 0.2636 0.4275
C13 C 1.1339(3) 0.87078(14) 0.40847(4)
H16 H 1.1143 0.9229 0.3774
H17 H 1.3083 0.8937 0.4211
H18 H 1.0014 0.9131 0.4303
loop_
_geom_bond_atom_site_label_1
_geom_bond_atom_site_label_2
_geom_bond_site_symmetry_1
_geom_bond_site_symmetry_2
O1 C1 1_555 1_555
C1 H1 1_555 1_555
C2 C1 1_555 1_555
H2 C2 1_555 1_555
C3 C2 1_555 1_555
H3 C3 1_555 1_555
O2 C2 1_555 1_555
H4 O2 1_555 1_555
C4 O1 1_555 1_555
H5 C4 1_555 1_555
C5 C4 1_555 1_555
C6 C5 1_555 1_555
H6 C6 1_555 1_555
C7 C6 1_555 1_555
H7 C7 1_555 1_555
C8 C7 1_555 1_555
C9 C8 1_555 1_555
H8 C9 1_555 1_555
C10 C5 1_555 1_555
H9 C10 1_555 1_555
O3 C8 1_555 1_555
C11 O3 1_555 1_555
H10 C11 1_555 1_555
H11 C11 1_555 1_555
H12 C11 1_555 1_555
C12 C1 1_555 1_555
H13 C12 1_555 1_555
H14 C12 1_555 1_555
H15 C12 1_555 1_555
C13 C3 1_555 1_555
H16 C13 1_555 1_555
H17 C13 1_555 1_555
H18 C13 1_555 1_555
C3 C4 1_555 1_555
C9 C10 1_555 1_555

#END
