
#######################################################################
#
#                 Cambridge Crystallographic Data Centre
#                                CCDC 
#
#######################################################################
#
# If this CIF has been generated from an entry in the Cambridge 
# Structural Database, then it will include bibliographic, chemical, 
# crystal, experimental, refinement or atomic coordinate data resulting 
# from the CCDC's data processing and validation procedures.
#
#######################################################################

data_YOHDEG
_chemical_formula_moiety         'C18 H14 Br1 N1 O3 S1'
_chemical_name_systematic        
(3-Bromophenyl)(5-((4-methylphenyl)sulfonyl)-1H-pyrrol-3-yl)methanone
_symmetry_cell_setting           triclinic
_symmetry_space_group_name_H-M   'P 1'
_symmetry_Int_Tables_number      1
_space_group_name_Hall           'P 1'
loop_
_symmetry_equiv_pos_site_id
_symmetry_equiv_pos_as_xyz
1 x,y,z
_cell_length_a                   7.1457(7)
_cell_length_b                   9.8623(11)
_cell_length_c                   11.5311(11)
_cell_angle_alpha                96.2120(10)
_cell_angle_beta                 94.4590(10)
_cell_angle_gamma                97.0610(10)
_cell_volume                     798.312
_cell_formula_units_Z            2
loop_
_atom_site_label
_atom_site_type_symbol
_atom_site_fract_x
_atom_site_fract_y
_atom_site_fract_z
Br1 Br 0.55525(16) 0.07282(12) 0.78852(12)
S1 S 0.4561(5) -0.4846(4) 1.3038(4)
O1 O 0.5911(17) -0.3951(13) 1.3839(13)
O2 O 0.2854(17) -0.5461(13) 1.3436(12)
N1 N 0.5241(18) -0.3050(14) 1.1445(13)
C1 C 0.282(2) -0.0990(16) 0.8752(15)
C2 C 0.435(2) -0.2480(17) 1.0577(16)
C3 C 0.106(2) -0.1653(17) 0.8852(15)
C4 C -0.0063(18) -0.0490(13) 0.7204(12)
C5 C 0.220(2) -0.3881(17) 1.1285(16)
C6 C 0.242(2) -0.2972(17) 1.0488(16)
C7 C 0.581(2) -0.6162(15) 1.2384(14)
C8 C 0.765(2) -0.5942(18) 1.2330(17)
C9 C 0.566(3) -0.8489(18) 1.1524(17)
C10 C 0.396(3) -0.3914(19) 1.1894(18)
C11 C 0.300(2) -0.0160(17) 0.7974(16)
C12 C 0.762(2) -0.8262(17) 1.1411(16)
C13 C -0.042(2) -0.1456(16) 0.8070(14)
C14 C 0.866(3) -0.697(2) 1.185(2)
C15 C 0.089(2) -0.2542(16) 0.9646(14)
C16 C 0.477(2) -0.7431(16) 1.1989(14)
C17 C 0.849(3) -0.9454(18) 1.0822(17)
C18 C 0.155(3) 0.010(2) 0.7197(18)
O3 O -0.074(2) -0.3080(16) 0.9826(15)
Br2 Br 0.94682(16) 0.31671(12) 0.85253(12)
S2 S 1.0495(5) 0.8728(4) 0.3354(4)
O4 O 1.5827(16) 0.7112(12) 0.6550(11)
O5 O 0.9090(16) 0.7809(12) 0.2538(12)
C19 C 1.212(2) 0.4898(16) 0.7605(15)
O6 O 1.2223(16) 0.9313(13) 0.2973(12)
C20 C 1.056(2) 0.6351(18) 0.5881(16)
N2 N 0.9720(19) 0.6963(15) 0.5013(14)
C21 C 1.539(3) 0.4564(18) 0.9062(17)
C22 C 1.259(2) 0.6848(18) 0.5918(17)
C23 C 1.387(3) 0.551(2) 0.7567(18)
C24 C 1.286(2) 0.7794(16) 0.5025(15)
C25 C 1.195(3) 0.4050(18) 0.8416(18)
C26 C 0.752(3) 1.218(2) 0.4977(17)
C27 C 1.110(2) 0.7819(16) 0.4483(14)
C28 C 0.736(3) 0.983(2) 0.404(2)
C29 C 1.333(3) 0.3683(18) 0.9211(17)
C30 C 1.043(3) 1.138(2) 0.4309(17)
C31 C 0.634(3) 1.323(2) 0.5501(18)
C32 C 0.944(3) 1.239(2) 0.485(2)
C33 C 1.554(3) 0.536(2) 0.8275(19)
C34 C 1.4225(18) 0.6583(13) 0.6590(12)
C35 C 0.650(2) 1.0878(18) 0.4542(16)
C36 C 0.937(2) 1.0084(18) 0.3928(17)
loop_
_geom_bond_atom_site_label_1
_geom_bond_atom_site_label_2
_geom_bond_site_symmetry_1
_geom_bond_site_symmetry_2
Br1 C11 1_555 1_555
S1 O1 1_555 1_555
O2 S1 1_555 1_555
N1 C2 1_555 1_555
C1 C3 1_555 1_555
C2 C6 1_555 1_555
C3 C13 1_555 1_555
C4 C13 1_555 1_555
C5 C6 1_555 1_555
C6 C15 1_555 1_555
C7 S1 1_555 1_555
C8 C7 1_555 1_555
C9 C12 1_555 1_555
C10 S1 1_555 1_555
C11 C1 1_555 1_555
C12 C14 1_555 1_555
C14 C8 1_555 1_555
C15 C3 1_555 1_555
C16 C7 1_555 1_555
C17 C12 1_555 1_555
C18 C4 1_555 1_555
O3 C15 1_555 1_555
Br2 C25 1_555 1_555
S2 O5 1_555 1_555
O4 C34 1_555 1_555
C19 C23 1_555 1_555
O6 S2 1_555 1_555
C20 N2 1_555 1_555
N2 C27 1_555 1_555
C21 C29 1_555 1_555
C22 C20 1_555 1_555
C23 C33 1_555 1_555
C24 C22 1_555 1_555
C25 C19 1_555 1_555
C26 C31 1_555 1_555
C27 S2 1_555 1_555
C28 C35 1_555 1_555
C29 C25 1_555 1_555
C30 C32 1_555 1_555
C32 C26 1_555 1_555
C33 C21 1_555 1_555
C34 C22 1_555 1_555
C35 C26 1_555 1_555
C36 S2 1_555 1_555
N1 C10 1_555 1_555
C5 C10 1_555 1_555
C9 C16 1_555 1_555
C11 C18 1_555 1_555
C23 C34 1_555 1_555
C24 C27 1_555 1_555
C28 C36 1_555 1_555
C30 C36 1_555 1_555

#END
