
#######################################################################
#
#                 Cambridge Crystallographic Data Centre
#                                CCDC 
#
#######################################################################
#
# If this CIF has been generated from an entry in the Cambridge 
# Structural Database, then it will include bibliographic, chemical, 
# crystal, experimental, refinement or atomic coordinate data resulting 
# from the CCDC's data processing and validation procedures.
#
#######################################################################

data_YOHDAC
_chemical_formula_moiety         'C23 H17 N3 O5 S1'
_chemical_name_systematic        
N-(((4-methylphenyl)sulfonyl)methylene)-1-(2-nitrophenyl)indolizine-3-carboxamide
_symmetry_cell_setting           triclinic
_symmetry_space_group_name_H-M   'P -1'
_symmetry_Int_Tables_number      2
_space_group_name_Hall           '-P 1'
loop_
_symmetry_equiv_pos_site_id
_symmetry_equiv_pos_as_xyz
1 x,y,z
2 -x,-y,-z
_cell_length_a                   8.6842(6)
_cell_length_b                   10.9725(8)
_cell_length_c                   11.2956(8)
_cell_angle_alpha                100.9740(10)
_cell_angle_beta                 95.5290(10)
_cell_angle_gamma                99.6870(10)
_cell_volume                     1032.37
_cell_formula_units_Z            2
loop_
_atom_site_label
_atom_site_type_symbol
_atom_site_fract_x
_atom_site_fract_y
_atom_site_fract_z
S1 S 0.23748(12) 0.68197(9) 0.53655(9)
O1 O 0.4702(4) 0.5047(3) 0.6728(3)
O2 O 0.2475(4) 0.7152(3) 0.6672(3)
O3 O 0.1021(4) 0.7039(3) 0.4642(3)
N1 N 0.3950(4) 0.3658(3) 0.8620(3)
C1 C 0.2865(5) 0.3862(4) 0.7720(4)
N2 N 0.0891(5) 0.3149(4) 1.1618(4)
N3 N 0.2156(4) 0.4488(3) 0.5873(3)
O4 O 0.1132(4) 0.4239(3) 1.1490(3)
C2 C 0.1372(5) 0.3367(4) 0.7950(4)
C3 C -0.0083(5) 0.2173(4) 1.0619(4)
C4 C 0.4068(5) 0.7645(4) 0.4918(4)
C5 C 0.0166(5) 0.2113(4) 0.9421(4)
O5 O 0.1371(5) 0.2815(4) 1.2533(4)
C6 C 0.3128(5) 0.3039(4) 0.9414(4)
C7 C 0.3350(5) 0.4515(4) 0.6755(4)
C8 C 0.1501(5) 0.2851(4) 0.8986(4)
C9 C 0.2488(5) 0.5143(4) 0.4913(4)
C10 C 0.5574(5) 0.3963(4) 0.8801(4)
C11 C 0.3991(5) 0.2733(4) 1.0400(4)
C12 C 0.5591(5) 0.3045(4) 1.0573(4)
C13 C 0.6399(5) 0.3666(4) 0.9745(4)
C14 C 0.6739(6) 0.8918(4) 0.4197(4)
C15 C 0.5532(6) 0.7760(4) 0.5607(4)
C16 C -0.0923(5) 0.1214(4) 0.8561(4)
C17 C 0.3924(6) 0.8141(4) 0.3882(4)
C18 C -0.2162(6) 0.0434(4) 0.8877(4)
C19 C -0.1291(5) 0.1374(4) 1.0989(4)
C20 C -0.2342(6) 0.0494(4) 1.0108(4)
C21 C 0.6852(6) 0.8397(5) 0.5244(5)
C22 C 0.5278(6) 0.8779(5) 0.3525(5)
C23 C 0.8221(7) 0.9582(6) 0.3794(6)
loop_
_geom_bond_atom_site_label_1
_geom_bond_atom_site_label_2
_geom_bond_site_symmetry_1
_geom_bond_site_symmetry_2
S1 O2 1_555 1_555
O1 C7 1_555 1_555
O3 S1 1_555 1_555
N1 C1 1_555 1_555
C1 C2 1_555 1_555
N2 O4 1_555 1_555
N3 C7 1_555 1_555
C2 C8 1_555 1_555
C3 N2 1_555 1_555
C4 S1 1_555 1_555
C5 C3 1_555 1_555
O5 N2 1_555 1_555
C6 N1 1_555 1_555
C7 C1 1_555 1_555
C8 C5 1_555 1_555
C9 S1 1_555 1_555
C10 N1 1_555 1_555
C11 C6 1_555 1_555
C12 C11 1_555 1_555
C13 C10 1_555 1_555
C14 C21 1_555 1_555
C15 C4 1_555 1_555
C16 C5 1_555 1_555
C17 C4 1_555 1_555
C18 C16 1_555 1_555
C19 C3 1_555 1_555
C20 C18 1_555 1_555
C21 C15 1_555 1_555
C22 C14 1_555 1_555
C23 C14 1_555 1_555
N3 C9 1_555 1_555
C6 C8 1_555 1_555
C12 C13 1_555 1_555
C17 C22 1_555 1_555
C19 C20 1_555 1_555

#END
