
#######################################################################
#
#                 Cambridge Crystallographic Data Centre
#                                CCDC 
#
#######################################################################
#
# If this CIF has been generated from an entry in the Cambridge 
# Structural Database, then it will include bibliographic, chemical, 
# crystal, experimental, refinement or atomic coordinate data resulting 
# from the CCDC's data processing and validation procedures.
#
#######################################################################

data_YOHJIQ
_chemical_formula_moiety         'C15 H14 Cl1 N1 O1'
_chemical_name_systematic        N-(4-chloro-3-methylphenyl)-2-phenylacetamide
_symmetry_cell_setting           triclinic
_symmetry_space_group_name_H-M   'P -1'
_symmetry_Int_Tables_number      2
_space_group_name_Hall           '-P 1'
loop_
_symmetry_equiv_pos_site_id
_symmetry_equiv_pos_as_xyz
1 x,y,z
2 -x,-y,-z
_cell_length_a                   5.0039(7)
_cell_length_b                   10.7525(12)
_cell_length_c                   12.6177(12)
_cell_angle_alpha                108.615(10)
_cell_angle_beta                 91.771(11)
_cell_angle_gamma                90.167(11)
_cell_volume                     643.006
_exptl_crystal_colour            colorless
_exptl_crystal_description       block
_cell_formula_units_Z            2
loop_
_atom_site_label
_atom_site_type_symbol
_atom_site_fract_x
_atom_site_fract_y
_atom_site_fract_z
C1 C 0.2965(6) 0.7657(3) 0.5498(3)
O1 O 0.0598(4) 0.7371(2) 0.5294(2)
N1 N 0.4929(5) 0.7032(2) 0.4826(2)
H1 H 0.6572 0.7331 0.5018
C2 C 0.3951(6) 0.8735(3) 0.6541(3)
H2 H 0.4673 0.8326 0.7089
H3 H 0.5436 0.9219 0.6341
C3 C 0.4580(6) 0.5937(3) 0.3837(2)
C4 C 0.6223(6) 0.5854(3) 0.2949(3)
H4 H 0.7489 0.6539 0.3022
C5 C 0.6082(6) 0.4808(3) 0.1961(3)
C6 C 0.4197(6) 0.3831(3) 0.1900(3)
Cl1 Cl 0.38569(19) 0.24733(8) 0.06853(7)
C7 C 0.2555(7) 0.3892(3) 0.2774(3)
H5 H 0.1298 0.3205 0.2705
C8 C 0.2731(6) 0.4949(3) 0.3751(3)
H6 H 0.1599 0.4995 0.4353
C9 C 0.7884(7) 0.4765(4) 0.1016(3)
H7 H 0.6812 0.4862 0.0385
H8 H 0.8806 0.3923 0.0780
H9 H 0.9205 0.5483 0.1269
C10 C 0.1835(6) 0.9697(3) 0.7089(3)
C11 C 0.0824(7) 0.9718(3) 0.8102(3)
H10 H 0.1475 0.9119 0.8459
C12 C -0.1131(7) 1.0605(3) 0.8601(3)
H11 H -0.1815 1.0603 0.9294
C13 C -0.2089(7) 1.1487(3) 0.8104(3)
H12 H -0.3424 1.2095 0.8450
C14 C -0.1088(7) 1.1479(3) 0.7095(3)
H13 H -0.1742 1.2082 0.6742
C15 C 0.0868(7) 1.0597(3) 0.6596(3)
H14 H 0.1558 1.0607 0.5906
loop_
_geom_bond_atom_site_label_1
_geom_bond_atom_site_label_2
_geom_bond_site_symmetry_1
_geom_bond_site_symmetry_2
C1 O1 1_555 1_555
N1 C1 1_555 1_555
H1 N1 1_555 1_555
C2 C1 1_555 1_555
H2 C2 1_555 1_555
H3 C2 1_555 1_555
C3 N1 1_555 1_555
C4 C3 1_555 1_555
H4 C4 1_555 1_555
C5 C4 1_555 1_555
C6 C5 1_555 1_555
Cl1 C6 1_555 1_555
C7 C6 1_555 1_555
H5 C7 1_555 1_555
C8 C3 1_555 1_555
H6 C8 1_555 1_555
C9 C5 1_555 1_555
H7 C9 1_555 1_555
H8 C9 1_555 1_555
H9 C9 1_555 1_555
C10 C2 1_555 1_555
C11 C10 1_555 1_555
H10 C11 1_555 1_555
C12 C11 1_555 1_555
H11 C12 1_555 1_555
C13 C12 1_555 1_555
H12 C13 1_555 1_555
C14 C13 1_555 1_555
H13 C14 1_555 1_555
C15 C10 1_555 1_555
H14 C15 1_555 1_555
C7 C8 1_555 1_555
C14 C15 1_555 1_555

#END
