
#######################################################################
#
#                 Cambridge Crystallographic Data Centre
#                                CCDC 
#
#######################################################################
#
# If this CIF has been generated from an entry in the Cambridge 
# Structural Database, then it will include bibliographic, chemical, 
# crystal, experimental, refinement or atomic coordinate data resulting 
# from the CCDC's data processing and validation procedures.
#
#######################################################################

data_YOHJUC
_chemical_formula_moiety         'C15 H12 Cl3 N1 O1'
_chemical_name_systematic        
N-(4-chloro-3-methylphenyl)-2-(2,4-dichlorophenyl)acetamide
_symmetry_cell_setting           monoclinic
_symmetry_space_group_name_H-M   'P 21'
_symmetry_Int_Tables_number      4
_space_group_name_Hall           'P 2yb'
loop_
_symmetry_equiv_pos_site_id
_symmetry_equiv_pos_as_xyz
1 x,y,z
2 -x,1/2+y,-z
_cell_length_a                   11.8441(7)
_cell_length_b                   4.7288(3)
_cell_length_c                   13.0981(7)
_cell_angle_alpha                90
_cell_angle_beta                 101.310(6)
_cell_angle_gamma                90
_cell_volume                     719.357
_exptl_crystal_colour            colorless
_exptl_crystal_description       block
_cell_formula_units_Z            2
loop_
_atom_site_label
_atom_site_type_symbol
_atom_site_fract_x
_atom_site_fract_y
_atom_site_fract_z
C1 C 0.2642(5) 0.4768(13) 0.5713(5)
O1 O 0.2599(4) 0.7328(11) 0.5588(4)
N1 N 0.2985(4) 0.2962(11) 0.5045(4)
H1 H 0.2980 0.1145 0.5189
C2 C 0.2333(7) 0.3377(15) 0.6672(5)
H2 H 0.1727 0.1939 0.6448
H3 H 0.3020 0.2398 0.7069
C3 C 0.3360(5) 0.3802(13) 0.4110(5)
C4 C 0.2736(5) 0.5755(14) 0.3438(5)
H4 H 0.2065 0.6576 0.3608
C5 C 0.3077(5) 0.6540(14) 0.2516(5)
C6 C 0.4081(5) 0.5313(18) 0.2321(5)
Cl1 Cl 0.45559(16) 0.6230(6) 0.11761(14)
C7 C 0.4702(6) 0.3367(18) 0.2978(5)
H5 H 0.5377 0.2550 0.2814
C8 C 0.4341(6) 0.2593(16) 0.3887(5)
H6 H 0.4766 0.1248 0.4348
C9 C 0.2369(7) 0.8607(18) 0.1784(6)
H7 H 0.2041 0.7649 0.1130
H8 H 0.2860 1.0171 0.1644
H9 H 0.1746 0.9347 0.2102
C10 C 0.1914(5) 0.5477(14) 0.7367(5)
C11 C 0.0803(6) 0.6557(13) 0.7175(5)
Cl2 Cl -0.01755(16) 0.5362(5) 0.60924(14)
C12 C 0.0429(6) 0.8549(15) 0.7797(5)
H10 H -0.0341 0.9223 0.7644
C13 C 0.1211(6) 0.9555(13) 0.8660(5)
Cl3 Cl 0.07578(15) 1.2083(4) 0.94506(12)
C14 C 0.2322(6) 0.8551(16) 0.8878(5)
H11 H 0.2854 0.9257 0.9461
C15 C 0.2663(5) 0.6515(14) 0.8247(5)
H12 H 0.3426 0.5798 0.8416
loop_
_geom_bond_atom_site_label_1
_geom_bond_atom_site_label_2
_geom_bond_site_symmetry_1
_geom_bond_site_symmetry_2
C1 O1 1_555 1_555
N1 C1 1_555 1_555
H1 N1 1_555 1_555
C2 C1 1_555 1_555
H2 C2 1_555 1_555
H3 C2 1_555 1_555
C3 N1 1_555 1_555
C4 C3 1_555 1_555
H4 C4 1_555 1_555
C5 C4 1_555 1_555
C6 C5 1_555 1_555
Cl1 C6 1_555 1_555
C7 C6 1_555 1_555
H5 C7 1_555 1_555
C8 C3 1_555 1_555
H6 C8 1_555 1_555
C9 C5 1_555 1_555
H7 C9 1_555 1_555
H8 C9 1_555 1_555
H9 C9 1_555 1_555
C10 C2 1_555 1_555
C11 C10 1_555 1_555
Cl2 C11 1_555 1_555
C12 C11 1_555 1_555
H10 C12 1_555 1_555
C13 C12 1_555 1_555
Cl3 C13 1_555 1_555
C14 C13 1_555 1_555
H11 C14 1_555 1_555
C15 C10 1_555 1_555
H12 C15 1_555 1_555
C7 C8 1_555 1_555
C14 C15 1_555 1_555

#END
