
#######################################################################
#
#                 Cambridge Crystallographic Data Centre
#                                CCDC 
#
#######################################################################
#
# If this CIF has been generated from an entry in the Cambridge 
# Structural Database, then it will include bibliographic, chemical, 
# crystal, experimental, refinement or atomic coordinate data resulting 
# from the CCDC's data processing and validation procedures.
#
#######################################################################

data_YOHLUE
_chemical_formula_moiety         'C19 H19 N1 O3 S1'
_chemical_name_systematic        
4-methyl-N-(3H-spiro[2-benzofuran-1,1'-cyclopent[3]en]-2'-yl)benzenesulfonamide
_symmetry_cell_setting           orthorhombic
_symmetry_space_group_name_H-M   'P b c a'
_symmetry_Int_Tables_number      61
_space_group_name_Hall           '-P 2ac 2ab'
loop_
_symmetry_equiv_pos_site_id
_symmetry_equiv_pos_as_xyz
1 x,y,z
2 1/2-x,-y,1/2+z
3 1/2+x,1/2-y,-z
4 -x,1/2+y,1/2-z
5 -x,-y,-z
6 1/2+x,y,1/2-z
7 1/2-x,1/2+y,z
8 x,1/2-y,1/2+z
_cell_length_a                   10.90450(10)
_cell_length_b                   15.8957(2)
_cell_length_c                   19.4063(13)
_cell_angle_alpha                90
_cell_angle_beta                 90
_cell_angle_gamma                90
_cell_volume                     3363.78
_exptl_crystal_colour            colorless
_exptl_crystal_description       prism
_cell_formula_units_Z            8
loop_
_atom_site_label
_atom_site_type_symbol
_atom_site_fract_x
_atom_site_fract_y
_atom_site_fract_z
S1 S 0.23448(4) 0.05069(2) 0.73811(2)
O1 O 0.35735(12) 0.04347(8) 0.71241(7)
O2 O 0.13581(11) 0.00944(8) 0.70354(6)
O3 O -0.08551(12) 0.25433(9) 0.69932(7)
N1 N 0.20416(13) 0.15057(9) 0.73858(7)
H1 H 0.2677(16) 0.1780(13) 0.7500(11)
C1 C 0.23520(15) 0.01493(11) 0.82458(9)
C2 C 0.08067(16) 0.18068(10) 0.75580(8)
H2 H 0.0211 0.1364 0.7453
C3 C 0.22284(18) 0.30616(14) 0.63508(11)
H3 H 0.2797 0.3129 0.6704
C4 C 0.10413(16) 0.27967(11) 0.64891(9)
C5 C 0.2357(2) -0.03556(14) 0.96203(11)
C6 C 0.34485(18) 0.01247(12) 0.86068(9)
H4 H 0.4179 0.0280 0.8394
C7 C 0.02071(17) 0.26995(11) 0.59621(9)
C8 C 0.04369(16) 0.26253(10) 0.71665(9)
C9 C 0.12643(18) -0.00797(12) 0.85620(9)
H5 H 0.0531 -0.0069 0.8317
C10 C 0.3442(2) -0.01340(14) 0.92883(10)
H6 H 0.4178 -0.0160 0.9529
C11 C 0.1280(2) -0.03243(13) 0.92451(10)
H7 H 0.0547 -0.0472 0.9458
C12 C -0.10136(19) 0.24744(14) 0.62646(10)
H8 H -0.1643 0.2859 0.6105
H9 H -0.1244 0.1906 0.6138
C13 C 0.06688(18) 0.20603(12) 0.82999(9)
H10 H 0.0663 0.1681 0.8665
C14 C 0.05586(19) 0.28737(13) 0.83746(10)
H11 H 0.0482 0.3139 0.8800
C15 C 0.0569(2) 0.33278(12) 0.77062(10)
H12 H 0.1332 0.3632 0.7644
H13 H -0.0110 0.3721 0.7678
C16 C 0.2543(2) 0.32224(18) 0.56703(13)
H14 H 0.3333 0.3403 0.5567
C17 C 0.0535(2) 0.28520(15) 0.52841(10)
H15 H -0.0026 0.2775 0.4928
C18 C 0.1712(2) 0.31202(16) 0.51505(11)
H16 H 0.1945 0.3233 0.4699
C19 C 0.2367(3) -0.0632(2) 1.03666(14)
H17 H 0.1546 -0.0763 1.0510
H18 H 0.2687 -0.0187 1.0648
H19 H 0.2874 -0.1122 1.0415
loop_
_geom_bond_atom_site_label_1
_geom_bond_atom_site_label_2
_geom_bond_site_symmetry_1
_geom_bond_site_symmetry_2
S1 O1 1_555 1_555
O2 S1 1_555 1_555
O3 C8 1_555 1_555
N1 S1 1_555 1_555
H1 N1 1_555 1_555
C1 S1 1_555 1_555
C2 N1 1_555 1_555
H2 C2 1_555 1_555
C3 H3 1_555 1_555
C4 C3 1_555 1_555
C5 C10 1_555 1_555
C6 C1 1_555 1_555
H4 C6 1_555 1_555
C7 C4 1_555 1_555
C8 C2 1_555 1_555
C9 C1 1_555 1_555
H5 C9 1_555 1_555
C10 C6 1_555 1_555
H6 C10 1_555 1_555
C11 C5 1_555 1_555
H7 C11 1_555 1_555
C12 O3 1_555 1_555
H8 C12 1_555 1_555
H9 C12 1_555 1_555
C13 C2 1_555 1_555
H10 C13 1_555 1_555
C14 C13 1_555 1_555
H11 C14 1_555 1_555
C15 C8 1_555 1_555
H12 C15 1_555 1_555
H13 C15 1_555 1_555
C16 C3 1_555 1_555
H14 C16 1_555 1_555
C17 C7 1_555 1_555
H15 C17 1_555 1_555
C18 C16 1_555 1_555
H16 C18 1_555 1_555
C19 C5 1_555 1_555
H17 C19 1_555 1_555
H18 C19 1_555 1_555
H19 C19 1_555 1_555
C4 C8 1_555 1_555
C7 C12 1_555 1_555
C9 C11 1_555 1_555
C14 C15 1_555 1_555
C17 C18 1_555 1_555

#END
