
#######################################################################
#
#                 Cambridge Crystallographic Data Centre
#                                CCDC 
#
#######################################################################
#
# If this CIF has been generated from an entry in the Cambridge 
# Structural Database, then it will include bibliographic, chemical, 
# crystal, experimental, refinement or atomic coordinate data resulting 
# from the CCDC's data processing and validation procedures.
#
#######################################################################

data_YOHSUL
_chemical_formula_moiety         'C18 H16 B1 F2 N1 O3'
_chemical_name_systematic        
difluoro(3-(1-(oxy)ethylidene)-6-methoxy-4-phenyl-3,4-dihydroquinolin-2(1H)-onato)borate
_symmetry_cell_setting           monoclinic
_symmetry_space_group_name_H-M   'C 2/c'
_symmetry_Int_Tables_number      15
_space_group_name_Hall           '-C 2yn'
loop_
_symmetry_equiv_pos_site_id
_symmetry_equiv_pos_as_xyz
1 x,y,z
2 -x,y,1/2-z
3 1/2+x,1/2+y,z
4 1/2-x,1/2+y,1/2-z
5 -x,-y,-z
6 x,-y,1/2+z
7 1/2-x,1/2-y,-z
8 1/2+x,1/2-y,1/2+z
_cell_length_a                   26.916(3)
_cell_length_b                   8.0515(9)
_cell_length_c                   17.954(2)
_cell_angle_alpha                90
_cell_angle_beta                 123.571(2)
_cell_angle_gamma                90
_cell_volume                     3241.89
_cell_formula_units_Z            8
loop_
_atom_site_label
_atom_site_type_symbol
_atom_site_fract_x
_atom_site_fract_y
_atom_site_fract_z
O1 O 0.07033(8) 0.0428(2) 1.04076(12)
F1 F 0.11724(8) -0.1382(2) 1.15978(12)
O2 O 0.16437(8) 0.1121(2) 1.17726(12)
C1 C 0.06801(12) 0.1936(3) 1.01231(17)
F2 F 0.15812(7) -0.0921(2) 1.08060(12)
C2 C 0.11526(11) 0.3080(3) 1.06133(16)
O3 O -0.02744(9) 0.8850(2) 0.81263(14)
N1 N 0.01852(11) 0.2353(3) 0.93642(16)
C3 C 0.05065(11) 0.5195(3) 0.94358(16)
C4 C 0.03689(12) 0.6806(3) 0.91151(17)
H1 H 0.0657 0.7630 0.9397
C5 C 0.00611(12) 0.3999(3) 0.90229(18)
C6 C 0.11364(11) 0.4721(3) 1.01757(16)
H2 H 0.1296 0.5592 1.0633
C7 C 0.16058(12) 0.2635(3) 1.14512(17)
C8 C 0.15389(11) 0.4585(3) 0.98209(18)
C9 C -0.04931(13) 0.4397(4) 0.8285(2)
H3 H -0.0785 0.3579 0.8007
C10 C -0.01925(13) 0.7212(4) 0.83798(19)
C11 C -0.06203(13) 0.5998(4) 0.7953(2)
H4 H -0.0992 0.6253 0.7445
C12 C 0.14185(13) 0.3460(4) 0.91643(19)
H5 H 0.1077 0.2809 0.8915
B1 B 0.12871(14) -0.0221(4) 1.1153(2)
C13 C -0.07917(16) 0.9257(4) 0.7268(2)
H6 H -0.0808 0.8560 0.6821
H7 H -0.0772 1.0400 0.7134
H8 H -0.1143 0.9084 0.7273
C14 C 0.20948(14) 0.3755(4) 1.20937(19)
H9 H 0.2224 0.3453 1.2692
H10 H 0.1954 0.4881 1.1980
H11 H 0.2423 0.3656 1.2025
C15 C 0.17893(14) 0.3272(4) 0.8866(2)
H12 H 0.1699 0.2492 0.8427
C16 C 0.20507(15) 0.5532(4) 1.0181(2)
H13 H 0.2146 0.6300 1.0628
C17 C 0.24231(16) 0.5338(4) 0.9875(3)
H14 H 0.2768 0.5973 1.0123
C18 C 0.22859(17) 0.4221(4) 0.9213(3)
H15 H 0.2532 0.4114 0.9002
H16 H -0.0078(12) 0.161(3) 0.9139(17)
loop_
_geom_bond_atom_site_label_1
_geom_bond_atom_site_label_2
_geom_bond_site_symmetry_1
_geom_bond_site_symmetry_2
O1 C1 1_555 1_555
F1 B1 1_555 1_555
O2 C7 1_555 1_555
C1 C2 1_555 1_555
F2 B1 1_555 1_555
C2 C6 1_555 1_555
O3 C10 1_555 1_555
N1 C1 1_555 1_555
C3 C4 1_555 1_555
C4 H1 1_555 1_555
C5 N1 1_555 1_555
C6 C3 1_555 1_555
H2 C6 1_555 1_555
C7 C2 1_555 1_555
C8 C6 1_555 1_555
C9 C5 1_555 1_555
H3 C9 1_555 1_555
C10 C4 1_555 1_555
C11 C9 1_555 1_555
H4 C11 1_555 1_555
C12 C8 1_555 1_555
H5 C12 1_555 1_555
B1 O1 1_555 1_555
C13 O3 1_555 1_555
H6 C13 1_555 1_555
H7 C13 1_555 1_555
H8 C13 1_555 1_555
C14 C7 1_555 1_555
H9 C14 1_555 1_555
H10 C14 1_555 1_555
H11 C14 1_555 1_555
C15 C12 1_555 1_555
H12 C15 1_555 1_555
C16 C8 1_555 1_555
H13 C16 1_555 1_555
C17 C16 1_555 1_555
H14 C17 1_555 1_555
C18 C15 1_555 1_555
H15 C18 1_555 1_555
H16 N1 1_555 1_555
O2 B1 1_555 1_555
C3 C5 1_555 1_555
C10 C11 1_555 1_555
C17 C18 1_555 1_555

#END
