
#######################################################################
#
#                 Cambridge Crystallographic Data Centre
#                                CCDC 
#
#######################################################################
#
# If this CIF has been generated from an entry in the Cambridge 
# Structural Database, then it will include bibliographic, chemical, 
# crystal, experimental, refinement or atomic coordinate data resulting 
# from the CCDC's data processing and validation procedures.
#
#######################################################################

data_YOHTAS
_chemical_formula_moiety         'C20 H17 B1 Cl1 F2 N1 O3,0.5(C5 H12)'
_chemical_name_systematic        
'(1-(2-chlorophenyl)-3-(1-(oxy)ethylidene)-6-(4-methoxyphenyl)-3,6-dihydropyridin-2(1H)-onato)(difluoro)borate pentane solvate'
_symmetry_cell_setting           triclinic
_symmetry_space_group_name_H-M   'P -1'
_symmetry_Int_Tables_number      2
_space_group_name_Hall           '-P 1'
loop_
_symmetry_equiv_pos_site_id
_symmetry_equiv_pos_as_xyz
1 x,y,z
2 -x,-y,-z
_cell_length_a                   7.643(5)
_cell_length_b                   12.269(5)
_cell_length_c                   12.840(5)
_cell_angle_alpha                101.954(5)
_cell_angle_beta                 104.028(5)
_cell_angle_gamma                98.284(5)
_cell_volume                     1118.59
_chemical_melting_point          '151-155 deg.C'
_cell_formula_units_Z            2
loop_
_atom_site_label
_atom_site_type_symbol
_atom_site_fract_x
_atom_site_fract_y
_atom_site_fract_z
C1 C 0.2789(7) -0.0017(5) 0.1248(4)
H1 H 0.2709 -0.0781 0.1329
H2 H 0.1866 0.0310 0.1519
H3 H 0.3987 0.0429 0.1666
C2 C 0.2483(5) -0.0028(4) 0.0045(3)
C3 C 0.2502(5) 0.0922(3) -0.0350(3)
C4 C 0.2274(5) 0.0776(3) -0.1516(3)
C5 C 0.2719(6) 0.2069(4) 0.0299(3)
H4 H 0.2745 0.2191 0.1043
C6 C 0.2882(6) 0.2949(3) -0.0138(3)
H5 H 0.2967 0.3665 0.0311
C7 C 0.2936(5) 0.2873(3) -0.1299(3)
C8 C 0.2177(5) 0.1459(3) -0.3154(3)
C9 C 0.0564(5) 0.1566(3) -0.3853(3)
C10 C 0.0404(7) 0.1443(3) -0.4973(3)
H6 H -0.0679 0.1526 -0.5440
C11 C 0.1812(7) 0.1201(4) -0.5394(4)
H7 H 0.1685 0.1103 -0.6148
C12 C 0.3447(7) 0.1102(4) -0.4685(4)
H8 H 0.4412 0.0971 -0.4985
C13 C 0.3722(5) 0.1186(3) -0.3577(3)
H9 H 0.4803 0.1079 -0.3127
C14 C 0.4810(5) 0.3382(3) -0.1375(3)
C15 C 0.4984(6) 0.4058(3) -0.2096(3)
H10 H 0.3929 0.4222 -0.2519
C16 C 0.6674(6) 0.4496(3) -0.2207(3)
H11 H 0.6757 0.4943 -0.2703
C17 C 0.6409(5) 0.3153(3) -0.0746(3)
H12 H 0.6324 0.2705 -0.0251
C18 C 0.8101(5) 0.3574(3) -0.0844(3)
H13 H 0.9152 0.3401 -0.0427
C19 C 0.8250(5) 0.4262(3) -0.1568(3)
C20 C 1.0262(9) 0.5445(5) -0.2230(6)
H14 H 1.1546 0.5645 -0.2182
H15 H 0.9840 0.6116 -0.1950
H16 H 0.9571 0.5113 -0.2991
B1 B 0.1735(7) -0.1288(4) -0.1792(4)
N1 N 0.2381(4) 0.1652(2) -0.1966(2)
O1 O 0.1954(4) -0.0222(2) -0.2182(2)
O2 O 0.2240(5) -0.1058(3) -0.0601(3)
O3 O 1.0009(4) 0.4652(2) -0.1594(3)
F1 F 0.2809(5) -0.1941(3) -0.2189(3)
F2 F -0.0100(4) -0.1815(2) -0.2210(2)
Cl1 Cl -0.12428(15) 0.18465(12) -0.33274(10)
C21 C 0.325(3) 0.5845(17) 0.5696(13)
C22 C 0.450(5) 0.535(3) 0.5224(17)
C23 C 0.615(2) 0.5808(12) 0.5287(12)
C24 C 0.699(4) 0.543(4) 0.494(3)
C25 C 0.496(5) 0.6372(15) 0.5809(16)
C21A C 0.675(3) 0.4155(17) 0.4304(13)
C22A C 0.550(5) 0.465(3) 0.4776(17)
C23A C 0.385(2) 0.4192(12) 0.4713(12)
C24A C 0.301(4) 0.457(4) 0.506(3)
C25A C 0.504(5) 0.3628(15) 0.4191(16)
loop_
_geom_bond_atom_site_label_1
_geom_bond_atom_site_label_2
_geom_bond_site_symmetry_1
_geom_bond_site_symmetry_2
C1 H1 1_555 1_555
H2 C1 1_555 1_555
H3 C1 1_555 1_555
C2 C1 1_555 1_555
C3 C2 1_555 1_555
C4 C3 1_555 1_555
C5 C3 1_555 1_555
H4 C5 1_555 1_555
C6 C5 1_555 1_555
H5 C6 1_555 1_555
C7 C6 1_555 1_555
C8 C9 1_555 1_555
C9 C10 1_555 1_555
C10 H6 1_555 1_555
C11 C10 1_555 1_555
H7 C11 1_555 1_555
C12 C11 1_555 1_555
H8 C12 1_555 1_555
C13 C8 1_555 1_555
H9 C13 1_555 1_555
C14 C7 1_555 1_555
C15 C14 1_555 1_555
H10 C15 1_555 1_555
C16 C15 1_555 1_555
H11 C16 1_555 1_555
C17 C14 1_555 1_555
H12 C17 1_555 1_555
C18 C17 1_555 1_555
H13 C18 1_555 1_555
C19 C16 1_555 1_555
C20 H14 1_555 1_555
H15 C20 1_555 1_555
H16 C20 1_555 1_555
B1 O1 1_555 1_555
N1 C4 1_555 1_555
O1 C4 1_555 1_555
O2 C2 1_555 1_555
O3 C19 1_555 1_555
F1 B1 1_555 1_555
F2 B1 1_555 1_555
Cl1 C9 1_555 1_555
C21 C25 1_555 1_555
C22 C23 1_555 1_555
C23 C24 1_555 1_555
C25 C22 1_555 1_555
C21A C25A 1_555 1_555
C22A C23A 1_555 1_555
C23A C24A 1_555 1_555
C25A C22A 1_555 1_555
C7 N1 1_555 1_555
C8 N1 1_555 1_555
C12 C13 1_555 1_555
C18 C19 1_555 1_555
C20 O3 1_555 1_555
B1 O2 1_555 1_555

#END
