
#######################################################################
#
#                 Cambridge Crystallographic Data Centre
#                                CCDC 
#
#######################################################################
#
# If this CIF has been generated from an entry in the Cambridge 
# Structural Database, then it will include bibliographic, chemical, 
# crystal, experimental, refinement or atomic coordinate data resulting 
# from the CCDC's data processing and validation procedures.
#
#######################################################################

data_YOHWOJ
_chemical_formula_moiety         'C16 H36 B2 O5 Si2'
_chemical_name_systematic        
1,1,3,3-Tetramethyl-1,3-bis(4,4,5,5-tetramethyl-1,3,2-dioxaborolan-2-yl)disiloxane
_symmetry_cell_setting           monoclinic
_symmetry_space_group_name_H-M   'P 21/n'
_symmetry_Int_Tables_number      14
_space_group_name_Hall           '-P 2yn'
loop_
_symmetry_equiv_pos_site_id
_symmetry_equiv_pos_as_xyz
1 x,y,z
2 1/2-x,1/2+y,1/2-z
3 -x,-y,-z
4 1/2+x,1/2-y,1/2+z
_cell_length_a                   10.9344(3)
_cell_length_b                   12.3553(4)
_cell_length_c                   17.5649(5)
_cell_angle_alpha                90
_cell_angle_beta                 100.743(2)
_cell_angle_gamma                90
_cell_volume                     2331.39
_exptl_crystal_colour            colorless
_exptl_crystal_description       block
_cell_formula_units_Z            4
loop_
_atom_site_label
_atom_site_type_symbol
_atom_site_fract_x
_atom_site_fract_y
_atom_site_fract_z
Si1 Si 0.31464(5) 0.68011(4) 0.00042(3)
Si2 Si 0.10563(5) 0.74473(4) 0.09008(3)
O1 O 0.19289(13) 0.67367(10) 0.04236(7)
O2 O 0.20749(14) 0.83170(12) -0.12783(8)
O3 O 0.39971(13) 0.88415(11) -0.06794(8)
B1 B 0.3064(2) 0.81160(18) -0.06986(12)
B2 B 0.1864(2) 0.76563(18) 0.20271(12)
C1 C 0.3107(2) 0.55687(18) -0.06092(14)
H1 H 0.3146 0.4936 -0.0289
H2 H 0.3806 0.5575 -0.0869
H3 H 0.2349 0.5559 -0.0987
C2 C 0.0823(2) 0.88171(18) 0.04572(12)
H4 H 0.0440 0.8750 -0.0079
H5 H 0.1613 0.9172 0.0498
H6 H 0.0294 0.9235 0.0724
C3 C 0.4572(2) 0.68193(19) 0.07676(14)
H7 H 0.4584 0.6190 0.1090
H8 H 0.4574 0.7459 0.1078
H9 H 0.5294 0.6818 0.0530
C4 C 0.2457(2) 0.91499(19) -0.17791(12)
C5 C -0.0451(2) 0.6722(2) 0.08288(13)
H10 H -0.0824 0.6630 0.0293
H11 H -0.0998 0.7137 0.1084
H12 H -0.0309 0.6026 0.1072
C6 C 0.3539(2) 0.97162(18) -0.12279(13)
C7 C 0.3117(2) 1.06259(18) -0.07464(14)
H13 H 0.3829 1.0939 -0.0418
H14 H 0.2562 1.0338 -0.0433
H15 H 0.2694 1.1172 -0.1086
C8 C 0.1346(2) 0.9864(2) -0.20799(14)
H16 H 0.0726 0.9450 -0.2417
H17 H 0.1604 1.0461 -0.2362
H18 H 0.1003 1.0133 -0.1652
C9 C 0.2863(3) 0.8545(3) -0.24478(14)
H19 H 0.2151 0.8217 -0.2766
H20 H 0.3454 0.7994 -0.2245
H21 H 0.3241 0.9044 -0.2754
C10 C 0.4617(3) 1.0098(2) -0.15942(19)
H22 H 0.5234 1.0436 -0.1207
H23 H 0.4318 1.0610 -0.1997
H24 H 0.4979 0.9489 -0.1810
O4 O 0.2946(2) 0.8221(2) 0.22469(11)
O5 O 0.13474(19) 0.7338(2) 0.26348(11)
C11 C 0.3104(3) 0.8433(3) 0.30782(14)
C12 C 0.2203(3) 0.7628(3) 0.33514(15)
C13 C 0.4453(3) 0.8398(3) 0.3461(2)
H25 H 0.4762 0.7674 0.3441
H26 H 0.4536 0.8620 0.3992
H27 H 0.4922 0.8878 0.3196
C14 C 0.1495(4) 0.8009(4) 0.39582(19)
H28 H 0.1103 0.8689 0.3803
H29 H 0.2059 0.8096 0.4443
H30 H 0.0871 0.7484 0.4016
C15 C 0.2676(6) 0.9609(5) 0.3130(4)
H31 H 0.3264 1.0086 0.2961
H32 H 0.2623 0.9774 0.3657
H33 H 0.1874 0.9702 0.2806
C16 C 0.2844(6) 0.6562(5) 0.3620(4)
H34 H 0.2255 0.6080 0.3783
H35 H 0.3516 0.6696 0.4046
H36 H 0.3166 0.6240 0.3201
O6? O 0.3095(7) 0.7554(8) 0.2346(4)
O7? O 0.1184(7) 0.7966(9) 0.2547(4)
C17? C 0.3232(10) 0.7722(11) 0.3191(5)
C18? C 0.2045(11) 0.8344(11) 0.3247(6)
C19? C 0.434(2) 0.790(2) 0.3256(11)
H37? H 0.4459 0.8574 0.3009
H38? H 0.4720 0.7326 0.3015
H39? H 0.4709 0.7939 0.3796
C20? C 0.1138(19) 0.8379(18) 0.3651(11)
H40? H 0.0533 0.8909 0.3429
H41? H 0.1475 0.8571 0.4177
H42? H 0.0747 0.7681 0.3638
C21? C 0.3329(15) 0.6615(13) 0.3613(10)
H43? H 0.3435 0.6732 0.4162
H44? H 0.4030 0.6222 0.3499
H45? H 0.2582 0.6207 0.3440
C22? C 0.2151(15) 0.9546(13) 0.3146(10)
H46? H 0.1365 0.9868 0.3182
H47? H 0.2355 0.9712 0.2651
H48? H 0.2785 0.9828 0.3550
loop_
_geom_bond_atom_site_label_1
_geom_bond_atom_site_label_2
_geom_bond_site_symmetry_1
_geom_bond_site_symmetry_2
Si1 O1 1_555 1_555
Si2 O1 1_555 1_555
O2 B1 1_555 1_555
O3 B1 1_555 1_555
B1 Si1 1_555 1_555
B2 Si2 1_555 1_555
C1 Si1 1_555 1_555
H1 C1 1_555 1_555
H2 C1 1_555 1_555
H3 C1 1_555 1_555
C2 Si2 1_555 1_555
H4 C2 1_555 1_555
H5 C2 1_555 1_555
H6 C2 1_555 1_555
C3 Si1 1_555 1_555
H7 C3 1_555 1_555
H8 C3 1_555 1_555
H9 C3 1_555 1_555
C4 O2 1_555 1_555
C5 Si2 1_555 1_555
H10 C5 1_555 1_555
H11 C5 1_555 1_555
H12 C5 1_555 1_555
C6 O3 1_555 1_555
C7 C6 1_555 1_555
H13 C7 1_555 1_555
H14 C7 1_555 1_555
H15 C7 1_555 1_555
C8 C4 1_555 1_555
H16 C8 1_555 1_555
H17 C8 1_555 1_555
H18 C8 1_555 1_555
C9 C4 1_555 1_555
H19 C9 1_555 1_555
H20 C9 1_555 1_555
H21 C9 1_555 1_555
C10 C6 1_555 1_555
H22 C10 1_555 1_555
H23 C10 1_555 1_555
H24 C10 1_555 1_555
O4 B2 1_555 1_555
O5 B2 1_555 1_555
C11 O4 1_555 1_555
C12 O5 1_555 1_555
C13 C11 1_555 1_555
H25 C13 1_555 1_555
H26 C13 1_555 1_555
H27 C13 1_555 1_555
C14 C12 1_555 1_555
H28 C14 1_555 1_555
H29 C14 1_555 1_555
H30 C14 1_555 1_555
C15 C11 1_555 1_555
H31 C15 1_555 1_555
H32 C15 1_555 1_555
H33 C15 1_555 1_555
C16 C12 1_555 1_555
H34 C16 1_555 1_555
H35 C16 1_555 1_555
H36 C16 1_555 1_555
C4 C6 1_555 1_555
C11 C12 1_555 1_555

#END
