
#######################################################################
#
#                 Cambridge Crystallographic Data Centre
#                                CCDC 
#
#######################################################################
#
# If this CIF has been generated from an entry in the Cambridge 
# Structural Database, then it will include bibliographic, chemical, 
# crystal, experimental, refinement or atomic coordinate data resulting 
# from the CCDC's data processing and validation procedures.
#
#######################################################################

data_YOHXID
_chemical_formula_moiety         'C11 H12 N4 O1,C1 H1 Cl3'
_chemical_name_systematic        
'1-(4-(Dimethylamino)phenyl)-1H-1,2,3-triazole-4-carbaldehyde chloroform solvate'
_symmetry_cell_setting           triclinic
_symmetry_space_group_name_H-M   'P -1'
_symmetry_Int_Tables_number      2
_space_group_name_Hall           '-P 1'
loop_
_symmetry_equiv_pos_site_id
_symmetry_equiv_pos_as_xyz
1 x,y,z
2 -x,-y,-z
_cell_length_a                   5.6317(5)
_cell_length_b                   11.7114(11)
_cell_length_c                   12.2524(14)
_cell_angle_alpha                107.758(4)
_cell_angle_beta                 96.195(5)
_cell_angle_gamma                96.976(4)
_cell_volume                     754.872
_exptl_crystal_colour            colorless
_exptl_crystal_description       plate
_chemical_melting_point          '150-152 deg.C'
_cell_formula_units_Z            2
_exptl_crystal_recrystallization_method chloroform/hexane
loop_
_atom_site_label
_atom_site_type_symbol
_atom_site_fract_x
_atom_site_fract_y
_atom_site_fract_z
Cl1 Cl 0.1699(2) 0.17547(11) -0.45247(14)
Cl2 Cl 0.5694(2) 0.35982(9) -0.43354(10)
Cl3 Cl 0.5384(2) 0.12130(9) -0.59667(8)
C12 C 0.4766(6) 0.2046(3) -0.4599(3)
H13 H 0.566(8) 0.178(4) -0.402(4)
O1 O 1.1742(4) -0.02671(19) -0.16147(19)
N1 N 0.0299(5) 0.4121(2) 0.2401(2)
N2 N 0.6348(4) 0.2002(2) -0.07274(19)
N3 N 0.6265(6) 0.2236(3) -0.1755(2)
N4 N 0.7821(5) 0.1657(3) -0.2319(2)
C1 C 0.4805(5) 0.2538(2) 0.0073(2)
C2 C 0.4440(6) 0.2126(3) 0.1002(3)
C3 C 0.2956(6) 0.2644(3) 0.1764(3)
C4 C 0.1783(5) 0.3602(2) 0.1638(2)
C5 C 0.2206(6) 0.4005(3) 0.0696(3)
C6 C 0.3674(6) 0.3480(3) -0.0067(3)
C7 C -0.0254(8) 0.3641(4) 0.3316(3)
C8 C -0.0955(8) 0.5070(3) 0.2238(4)
C9 C 0.8890(5) 0.1040(2) -0.1676(2)
C10 C 0.7954(5) 0.1265(2) -0.0659(3)
C11 C 1.0709(6) 0.0302(3) -0.2118(3)
H1 H 0.507(6) 0.147(3) 0.102(3)
H2 H 0.271(7) 0.234(4) 0.245(3)
H3 H 0.135(6) 0.465(3) 0.053(2)
H4 H 0.387(6) 0.378(3) -0.063(3)
H5 H 0.102(11) 0.371(5) 0.388(5)
H6 H -0.098(10) 0.272(5) 0.298(4)
H7 H -0.131(9) 0.419(4) 0.384(4)
H8 H -0.203(11) 0.529(5) 0.274(5)
H9 H -0.207(8) 0.478(4) 0.141(4)
H10 H 0.028(7) 0.574(3) 0.216(3)
H11 H 0.829(6) 0.105(3) -0.010(3)
H12 H 1.100(7) 0.033(3) -0.283(4)
loop_
_geom_bond_atom_site_label_1
_geom_bond_atom_site_label_2
_geom_bond_site_symmetry_1
_geom_bond_site_symmetry_2
Cl1 C12 1_555 1_555
Cl2 C12 1_555 1_555
Cl3 C12 1_555 1_555
O1 C11 1_555 1_555
N1 C4 1_555 1_555
N2 N3 1_555 1_555
N3 N4 1_555 1_555
N4 C9 1_555 1_555
C1 N2 1_555 1_555
C2 C1 1_555 1_555
C3 C2 1_555 1_555
C4 C3 1_555 1_555
C5 C4 1_555 1_555
C6 C1 1_555 1_555
C7 N1 1_555 1_555
C8 N1 1_555 1_555
C9 C10 1_555 1_555
C10 N2 1_555 1_555
C11 C9 1_555 1_555
C12 H13 1_555 1_555
H1 C2 1_555 1_555
H2 C3 1_555 1_555
H3 C5 1_555 1_555
H4 C6 1_555 1_555
H5 C7 1_555 1_555
H6 C7 1_555 1_555
H7 C7 1_555 1_555
H8 C8 1_555 1_555
H9 C8 1_555 1_555
H10 C8 1_555 1_555
H11 C10 1_555 1_555
H12 C11 1_555 1_555
C5 C6 1_555 1_555

#END
