
#######################################################################
#
#                 Cambridge Crystallographic Data Centre
#                                CCDC 
#
#######################################################################
#
# If this CIF has been generated from an entry in the Cambridge 
# Structural Database, then it will include bibliographic, chemical, 
# crystal, experimental, refinement or atomic coordinate data resulting 
# from the CCDC's data processing and validation procedures.
#
#######################################################################

data_YOHYOL
_chemical_formula_moiety         'C21 H23 N1 O3 S1'
_chemical_name_systematic        
N-(1-(1-Allyl-1,3-dihydro-2-benzofuran-1-yl)prop-2-en-1-yl)-4-methylbenzenesulfonamide
_symmetry_cell_setting           monoclinic
_symmetry_space_group_name_H-M   'P 21/c'
_symmetry_Int_Tables_number      14
_space_group_name_Hall           '-P 2ybc'
loop_
_symmetry_equiv_pos_site_id
_symmetry_equiv_pos_as_xyz
1 x,y,z
2 -x,1/2+y,1/2-z
3 -x,-y,-z
4 x,1/2-y,1/2+z
_cell_length_a                   9.56170(10)
_cell_length_b                   13.6772(2)
_cell_length_c                   16.1792(11)
_cell_angle_alpha                90
_cell_angle_beta                 102.996(7)
_cell_angle_gamma                90
_cell_volume                     2061.68
_exptl_crystal_colour            colorless
_exptl_crystal_description       block
_cell_formula_units_Z            4
loop_
_atom_site_label
_atom_site_type_symbol
_atom_site_fract_x
_atom_site_fract_y
_atom_site_fract_z
S1 S 0.73821(6) 0.53311(4) 0.02709(4)
O1 O 0.63712(19) 0.54218(13) 0.08030(11)
O2 O 0.88553(17) 0.51305(13) 0.06492(11)
O3 O 0.5925(2) 0.26404(14) -0.11866(13)
N1 N 0.6804(2) 0.44586(16) -0.03768(15)
H1 H 0.592(2) 0.442(2) -0.0485(19)
C1 C 0.8282(3) 0.6571(2) -0.08194(17)
H2 H 0.8941 0.6086 -0.0867
C2 C 0.8210(3) 0.22704(19) -0.13656(16)
C3 C 0.7680(3) 0.39443(19) -0.08745(16)
H3 H 0.8689 0.4070 -0.0607
C4 C 0.7331(2) 0.64333(18) -0.02951(15)
C5 C 0.8246(3) 0.7430(2) -0.12688(19)
H4 H 0.8870 0.7512 -0.1629
C6 C 0.7250(4) 0.1859(2) -0.20330(17)
C7 C 0.7739(3) 0.2472(2) 0.01008(18)
H5 H 0.8724 0.2633 0.0370
H6 H 0.7120 0.2816 0.0403
C8 C 0.9672(3) 0.2139(2) -0.1272(2)
H7 H 1.0322 0.2411 -0.0815
C9 C 0.6380(3) 0.7162(2) -0.0211(2)
H8 H 0.5745 0.7080 0.0143
C10 C 0.7423(3) 0.28336(18) -0.08187(16)
C11 C 0.7303(3) 0.8169(2) -0.1195(2)
C12 C 0.6385(4) 0.8020(2) -0.0664(3)
H9 H 0.5745 0.8514 -0.0606
C13 C 0.7429(5) 0.4283(2) -0.1787(2)
H10 H 0.8072 0.4029 -0.2086
C14 C 0.9180(6) 0.1192(3) -0.2547(2)
H11 H 0.9518 0.0830 -0.2948
C15 C 1.0137(5) 0.1595(3) -0.1876(3)
H12 H 1.1116 0.1500 -0.1826
C16 C 0.7746(5) 0.1313(2) -0.2637(2)
H13 H 0.7102 0.1035 -0.3094
C17 C 0.5768(4) 0.2112(3) -0.1966(2)
H14 H 0.5298 0.2513 -0.2442
H15 H 0.5203 0.1525 -0.1956
C18 C 0.6538(6) 0.4825(4) -0.2193(3)
H16 H 0.5854 0.5111 -0.1943
H17 H 0.6536 0.4958 -0.2758
C19 C 0.7288(5) 0.9111(3) -0.1687(3)
H18 H 0.7998 0.9079 -0.2022
H19 H 0.7499 0.9649 -0.1298
H20 H 0.6357 0.9202 -0.2053
C20 C 0.7528(5) 0.1412(3) 0.0180(2)
H21 H 0.6670 0.1188 -0.0159
C21 C 0.8206(9) 0.0792(5) 0.0577(5)
H22 H 0.9084 0.0939 0.0938
H23 H 0.7867 0.0152 0.0533
loop_
_geom_bond_atom_site_label_1
_geom_bond_atom_site_label_2
_geom_bond_site_symmetry_1
_geom_bond_site_symmetry_2
S1 O1 1_555 1_555
O2 S1 1_555 1_555
O3 C10 1_555 1_555
N1 S1 1_555 1_555
H1 N1 1_555 1_555
C1 H2 1_555 1_555
C2 C6 1_555 1_555
C3 N1 1_555 1_555
H3 C3 1_555 1_555
C4 S1 1_555 1_555
C5 C1 1_555 1_555
H4 C5 1_555 1_555
C6 C16 1_555 1_555
C7 H5 1_555 1_555
H6 C7 1_555 1_555
C8 C2 1_555 1_555
H7 C8 1_555 1_555
C9 C4 1_555 1_555
H8 C9 1_555 1_555
C10 C2 1_555 1_555
C11 C5 1_555 1_555
C12 C9 1_555 1_555
H9 C12 1_555 1_555
C13 C3 1_555 1_555
H10 C13 1_555 1_555
C14 H11 1_555 1_555
C15 C8 1_555 1_555
H12 C15 1_555 1_555
C16 C14 1_555 1_555
H13 C16 1_555 1_555
C17 O3 1_555 1_555
H14 C17 1_555 1_555
H15 C17 1_555 1_555
C18 C13 1_555 1_555
H16 C18 1_555 1_555
H17 C18 1_555 1_555
C19 C11 1_555 1_555
H18 C19 1_555 1_555
H19 C19 1_555 1_555
H20 C19 1_555 1_555
C20 C7 1_555 1_555
H21 C20 1_555 1_555
C21 C20 1_555 1_555
H22 C21 1_555 1_555
H23 C21 1_555 1_555
C1 C4 1_555 1_555
C3 C10 1_555 1_555
C6 C17 1_555 1_555
C7 C10 1_555 1_555
C11 C12 1_555 1_555
C14 C15 1_555 1_555

#END
