
#######################################################################
#
#                 Cambridge Crystallographic Data Centre
#                                CCDC 
#
#######################################################################
#
# If this CIF has been generated from an entry in the Cambridge 
# Structural Database, then it will include bibliographic, chemical, 
# crystal, experimental, refinement or atomic coordinate data resulting 
# from the CCDC's data processing and validation procedures.
#
#######################################################################

data_YOHZUS
_chemical_name_common            
"(meso-diphenyl tetrathia[22]annulene[2,1,2,1]) 4,8-bis(dicyanomethylene)-4,8-dihydrobenzo[1,2- b :4,5- b ']-dithiophene"
_chemical_formula_moiety         'C34 H22 S4,C16 H4 N4 S2'
_chemical_name_systematic        
"2,13-Diphenyl-23,24,25,26-tetrathiapentacyclo[18.2.1.1^3,6^.1^9,12^.1^14,17^]hexacosa-1,3,5,7,9,11,13,15,17,19,21-undecaene 2,2'-thieno[2,3-f][1]benzothiene-4,8-diylidenedimalononitrile"
_symmetry_cell_setting           triclinic
_symmetry_space_group_name_H-M   'P -1'
_symmetry_Int_Tables_number      2
_space_group_name_Hall           '-P 1'
loop_
_symmetry_equiv_pos_site_id
_symmetry_equiv_pos_as_xyz
1 x,y,z
2 -x,-y,-z
_cell_length_a                   10.0529(18)
_cell_length_b                   10.192(2)
_cell_length_c                   10.312(2)
_cell_angle_alpha                86.863(9)
_cell_angle_beta                 74.581(7)
_cell_angle_gamma                76.051(8)
_cell_volume                     988.445
_exptl_crystal_colour            black
_exptl_crystal_description       plate
_cell_formula_units_Z            1
loop_
_atom_site_label
_atom_site_type_symbol
_atom_site_fract_x
_atom_site_fract_y
_atom_site_fract_z
S1 S 0.51322(8) 0.82615(8) 0.63168(8)
S2 S 0.31542(9) 0.95241(8) 0.46138(8)
C1 C 0.2153(3) 0.6028(3) 0.6413(3)
C2 C 0.2311(4) 0.5035(4) 0.5476(3)
H1 H 0.2953 0.5035 0.4613
C3 C 0.1542(4) 0.4039(4) 0.5780(4)
H2 H 0.1658 0.3368 0.5128
C4 C 0.0612(4) 0.4030(3) 0.7031(4)
H3 H 0.0086 0.3353 0.7244
C5 C 0.0447(3) 0.5009(3) 0.7975(3)
H4 H -0.0195 0.5004 0.8837
C6 C 0.1211(3) 0.5996(3) 0.7672(3)
H5 H 0.1092 0.6661 0.8330
C7 C 0.2935(3) 0.7133(3) 0.6050(3)
C8 C 0.4056(3) 0.7098(3) 0.6640(3)
C9 C 0.4530(3) 0.6131(3) 0.7563(3)
H6 H 0.4087 0.5410 0.7889
C10 C 0.5655(3) 0.6314(3) 0.7940(3)
H7 H 0.6069 0.5727 0.8549
C11 C 0.6177(3) 0.7438(3) 0.7367(3)
C12 C 0.7349(3) 0.7785(3) 0.7636(3)
H8 H 0.7752 0.7157 0.8222
C13 C 0.2471(3) 0.8092(3) 0.5147(3)
C14 C 0.1380(3) 0.8104(3) 0.4525(3)
H9 H 0.0848 0.7431 0.4688
C15 C 0.1144(3) 0.9153(3) 0.3672(3)
H10 H 0.0441 0.9264 0.3188
C16 C 0.2026(3) 1.0056(3) 0.3567(3)
C17 C 0.1933(3) 1.1198(3) 0.2730(3)
H11 H 0.1182 1.1292 0.2308
S1A S 0.48678(8) 1.17385(8) 0.36832(8)
S2A S 0.68458(9) 1.04759(8) 0.53862(8)
C1A C 0.7847(3) 1.3972(3) 0.3587(3)
C2A C 0.7689(4) 1.4965(4) 0.4524(3)
H1A H 0.7047 1.4965 0.5387
C3A C 0.8458(4) 1.5961(4) 0.4220(4)
H2A H 0.8342 1.6632 0.4872
C4A C 0.9388(4) 1.5970(3) 0.2969(4)
H3A H 0.9914 1.6647 0.2756
C5A C 0.9553(3) 1.4991(3) 0.2025(3)
H4A H 1.0195 1.4996 0.1163
C6A C 0.8789(3) 1.4004(3) 0.2328(3)
H5A H 0.8908 1.3339 0.1670
C7A C 0.7065(3) 1.2867(3) 0.3950(3)
C8A C 0.5944(3) 1.2902(3) 0.3360(3)
C9A C 0.5470(3) 1.3869(3) 0.2437(3)
H6A H 0.5913 1.4590 0.2111
C10A C 0.4345(3) 1.3686(3) 0.2060(3)
H7A H 0.3931 1.4273 0.1451
C11A C 0.3823(3) 1.2562(3) 0.2633(3)
C12A C 0.2651(3) 1.2215(3) 0.2364(3)
H8A H 0.2248 1.2843 0.1778
C13A C 0.7529(3) 1.1908(3) 0.4853(3)
C14A C 0.8620(3) 1.1896(3) 0.5475(3)
H9A H 0.9152 1.2569 0.5312
C15A C 0.8856(3) 1.0847(3) 0.6328(3)
H10A H 0.9559 1.0736 0.6812
C16A C 0.7974(3) 0.9944(3) 0.6433(3)
C17A C 0.8067(3) 0.8802(3) 0.7270(3)
H11A H 0.8818 0.8708 0.7692
S3 S 0.6960(2) 0.8516(2) 0.1771(3)
N1 N 0.9069(3) 1.0382(3) 0.1561(3)
N2 N 0.7724(3) 1.3477(3) -0.0798(3)
C18 C 0.7218(3) 1.1229(3) 0.0206(3)
C19 C 0.8222(3) 1.0707(3) 0.0985(3)
C20 C 0.7463(3) 1.2479(4) -0.0392(3)
C21 C 0.6161(3) 1.0627(3) 0.0088(3)
C22 C 0.5924(3) 0.9392(3) 0.0783(3)
C23 C 0.4832(3) 0.8801(3) 0.0723(3)
C24 C 0.4901(12) 0.7631(10) 0.1557(14)
H12 H 0.4249 0.7070 0.1676
C25 C 0.5996(4) 0.7386(4) 0.2172(4)
H13 H 0.6174 0.6652 0.2759
S3A S 0.3040(2) 1.1484(2) -0.1771(3)
N1A N 0.0931(3) 0.9618(3) -0.1561(3)
N2A N 0.2276(3) 0.6523(3) 0.0798(3)
C18A C 0.2782(3) 0.8771(3) -0.0206(3)
C19A C 0.1778(3) 0.9293(3) -0.0985(3)
C20A C 0.2537(3) 0.7521(4) 0.0392(3)
C21A C 0.3839(3) 0.9373(3) -0.0088(3)
C22A C 0.4076(3) 1.0608(3) -0.0783(3)
C23A C 0.5168(3) 1.1199(3) -0.0723(3)
C24A C 0.5099(12) 1.2369(10) -0.1557(14)
H12A H 0.5751 1.2930 -0.1676
C25A C 0.4004(4) 1.2614(4) -0.2172(4)
H13A H 0.3826 1.3348 -0.2759
S4? S 0.4691(9) 0.7367(8) 0.1619(9)
C26? C 0.660(2) 0.852(2) 0.169(3)
H14? H 0.7377 0.8692 0.1958
loop_
_geom_bond_atom_site_label_1
_geom_bond_atom_site_label_2
_geom_bond_site_symmetry_1
_geom_bond_site_symmetry_2
S1 C8 1_555 1_555
S2 C13 1_555 1_555
C1 C2 1_555 1_555
C2 H1 1_555 1_555
C3 C2 1_555 1_555
H2 C3 1_555 1_555
C4 C3 1_555 1_555
H3 C4 1_555 1_555
C5 C4 1_555 1_555
H4 C5 1_555 1_555
C6 C1 1_555 1_555
H5 C6 1_555 1_555
C7 C1 1_555 1_555
C8 C7 1_555 1_555
C9 C8 1_555 1_555
H6 C9 1_555 1_555
C10 C9 1_555 1_555
H7 C10 1_555 1_555
C11 S1 1_555 1_555
C12 C11 1_555 1_555
H8 C12 1_555 1_555
C13 C7 1_555 1_555
C14 C13 1_555 1_555
H9 C14 1_555 1_555
C15 C14 1_555 1_555
H10 C15 1_555 1_555
C16 S2 1_555 1_555
C17 C16 1_555 1_555
H11 C17 1_555 1_555
S3 C22 1_555 1_555
N1 C19 1_555 1_555
N2 C20 1_555 1_555
C18 C19 1_555 1_555
C20 C18 1_555 1_555
C21 C18 1_555 1_555
C22 C21 1_555 1_555
C23 C22 1_555 1_555
C24 C23 1_555 1_555
H12 C24 1_555 1_555
C25 S3 1_555 1_555
H13 C25 1_555 1_555
S1A C8A 1_555 1_555
S2A C13A 1_555 1_555
C1A C2A 1_555 1_555
C2A H1A 1_555 1_555
C3A C2A 1_555 1_555
H2A C3A 1_555 1_555
C4A C3A 1_555 1_555
H3A C4A 1_555 1_555
C5A C4A 1_555 1_555
H4A C5A 1_555 1_555
C6A C1A 1_555 1_555
H5A C6A 1_555 1_555
C7A C1A 1_555 1_555
C8A C7A 1_555 1_555
C9A C8A 1_555 1_555
H6A C9A 1_555 1_555
C10A C9A 1_555 1_555
H7A C10A 1_555 1_555
C11A S1A 1_555 1_555
C12A C17 1_555 1_555
H8A C12A 1_555 1_555
C13A C7A 1_555 1_555
C14A C13A 1_555 1_555
H9A C14A 1_555 1_555
C15A C14A 1_555 1_555
H10A C15A 1_555 1_555
C16A S2A 1_555 1_555
C17A C12 1_555 1_555
H11A C17A 1_555 1_555
S3A C22A 1_555 1_555
N1A C19A 1_555 1_555
N2A C20A 1_555 1_555
C18A C19A 1_555 1_555
C20A C18A 1_555 1_555
C21A C23 1_555 1_555
C22A C21A 1_555 1_555
C23A C21 1_555 1_555
C24A C23A 1_555 1_555
H12A C24A 1_555 1_555
C25A S3A 1_555 1_555
H13A C25A 1_555 1_555
C5 C6 1_555 1_555
C10 C11 1_555 1_555
C15 C16 1_555 1_555
C24 C25 1_555 1_555
C5A C6A 1_555 1_555
C10A C11A 1_555 1_555
C11A C12A 1_555 1_555
C15A C16A 1_555 1_555
C16A C17A 1_555 1_555
C18A C21A 1_555 1_555
C22A C23A 1_555 1_555
C24A C25A 1_555 1_555

#END
