
#######################################################################
#
#                 Cambridge Crystallographic Data Centre
#                                CCDC 
#
#######################################################################
#
# If this CIF has been generated from an entry in the Cambridge 
# Structural Database, then it will include bibliographic, chemical, 
# crystal, experimental, refinement or atomic coordinate data resulting 
# from the CCDC's data processing and validation procedures.
#
#######################################################################

data_YOJCIK
_chemical_formula_moiety         'C30 H26 F8 S2'
_chemical_name_systematic        
1,2,3,4,7,8,9,10-Octafluoro-6,12-dihexylbenzo[b][1]benzothieno[2,3-f][1]benzothiophene
_symmetry_cell_setting           triclinic
_symmetry_space_group_name_H-M   'P -1'
_symmetry_Int_Tables_number      2
_space_group_name_Hall           '-P 1'
loop_
_symmetry_equiv_pos_site_id
_symmetry_equiv_pos_as_xyz
1 x,y,z
2 -x,-y,-z
_cell_length_a                   4.5970(2)
_cell_length_b                   10.6439(5)
_cell_length_c                   13.5333(6)
_cell_angle_alpha                99.639(2)
_cell_angle_beta                 93.245(2)
_cell_angle_gamma                98.478(2)
_cell_volume                     643.454
_exptl_crystal_colour            colorless
_exptl_crystal_description       'thin wedged rod'
_chemical_melting_point          '210 deg.C'
_cell_formula_units_Z            1
_exptl_crystal_recrystallization_method chloroform/methanol
loop_
_atom_site_label
_atom_site_type_symbol
_atom_site_fract_x
_atom_site_fract_y
_atom_site_fract_z
S1 S 0.44434(16) 0.70681(7) 0.00117(5)
F1 F 0.1053(4) 0.45376(16) -0.10559(13)
F2 F -0.3461(4) 0.42437(17) -0.25343(14)
F3 F -0.4953(4) 0.63612(18) -0.31762(13)
F4 F -0.2230(4) 0.86901(17) -0.24369(13)
C1 C 0.6954(6) 0.9581(3) 0.0718(2)
C2 C 0.4856(6) 0.8735(3) 0.0030(2)
C3 C 0.1684(6) 0.6806(3) -0.0957(2)
C4 C 0.0261(7) 0.5575(3) -0.1381(2)
C5 C -0.1979(7) 0.5418(3) -0.2130(2)
C6 C -0.2728(7) 0.6507(3) -0.2458(2)
C7 C -0.1263(7) 0.7733(3) -0.2047(2)
C8 C 0.1015(6) 0.7932(3) -0.1278(2)
C9 C 0.2905(6) 0.9094(3) -0.0686(2)
C10 C 0.8676(6) 0.9008(3) 0.1461(2)
H1 H 1.0703 0.9499 0.1596
H2 H 0.8820 0.8104 0.1168
C11 C 0.7202(7) 0.9035(3) 0.2455(2)
H3 H 0.7022 0.9939 0.2734
H4 H 0.5183 0.8536 0.2313
C12 C 0.8879(7) 0.8484(3) 0.3244(2)
H5 H 0.9194 0.7602 0.2953
H6 H 1.0839 0.9024 0.3433
C13 C 0.7212(8) 0.8434(3) 0.4185(2)
H7 H 0.5295 0.7860 0.3992
H8 H 0.6791 0.9310 0.4443
C14 C 0.8828(8) 0.7961(3) 0.5033(2)
H9 H 1.0825 0.8479 0.5181
H10 H 0.7759 0.8115 0.5646
C15 C 0.9125(9) 0.6542(4) 0.4804(3)
H11 H 0.7159 0.6018 0.4662
H12 H 1.0149 0.6307 0.5384
H13 H 1.0259 0.6385 0.4216
S1A S 0.55566(16) 1.29319(7) -0.00117(5)
F1A F 0.8947(4) 1.54624(16) 0.10559(13)
F2A F 1.3461(4) 1.57563(17) 0.25343(14)
F3A F 1.4953(4) 1.36388(18) 0.31762(13)
F4A F 1.2230(4) 1.13099(17) 0.24369(13)
C1A C 0.3046(6) 1.0419(3) -0.0718(2)
C2A C 0.5144(6) 1.1265(3) -0.0030(2)
C3A C 0.8316(6) 1.3194(3) 0.0957(2)
C4A C 0.9739(7) 1.4425(3) 0.1381(2)
C5A C 1.1979(7) 1.4582(3) 0.2130(2)
C6A C 1.2728(7) 1.3493(3) 0.2458(2)
C7A C 1.1263(7) 1.2267(3) 0.2047(2)
C8A C 0.8985(6) 1.2068(3) 0.1278(2)
C9A C 0.7095(6) 1.0906(3) 0.0686(2)
C10A C 0.1324(6) 1.0992(3) -0.1461(2)
H1A H -0.0703 1.0501 -0.1596
H2A H 0.1180 1.1896 -0.1168
C11A C 0.2798(7) 1.0965(3) -0.2455(2)
H3A H 0.2978 1.0061 -0.2734
H4A H 0.4817 1.1464 -0.2313
C12A C 0.1121(7) 1.1516(3) -0.3244(2)
H5A H 0.0806 1.2398 -0.2953
H6A H -0.0839 1.0976 -0.3433
C13A C 0.2788(8) 1.1566(3) -0.4185(2)
H7A H 0.4705 1.2140 -0.3992
H8A H 0.3209 1.0690 -0.4443
C14A C 0.1172(8) 1.2039(3) -0.5033(2)
H9A H -0.0825 1.1521 -0.5181
H10A H 0.2241 1.1885 -0.5646
C15A C 0.0875(9) 1.3458(4) -0.4804(3)
H11A H 0.2841 1.3982 -0.4662
H12A H -0.0149 1.3693 -0.5384
H13A H -0.0259 1.3615 -0.4216
loop_
_geom_bond_atom_site_label_1
_geom_bond_atom_site_label_2
_geom_bond_site_symmetry_1
_geom_bond_site_symmetry_2
S1 C2 1_555 1_555
F1 C4 1_555 1_555
F2 C5 1_555 1_555
F3 C6 1_555 1_555
F4 C7 1_555 1_555
C1 C2 1_555 1_555
C2 C9 1_555 1_555
C3 S1 1_555 1_555
C4 C3 1_555 1_555
C5 C4 1_555 1_555
C6 C5 1_555 1_555
C7 C6 1_555 1_555
C8 C3 1_555 1_555
C9 C8 1_555 1_555
C10 C1 1_555 1_555
H1 C10 1_555 1_555
H2 C10 1_555 1_555
C11 C10 1_555 1_555
H3 C11 1_555 1_555
H4 C11 1_555 1_555
C12 C11 1_555 1_555
H5 C12 1_555 1_555
H6 C12 1_555 1_555
C13 C12 1_555 1_555
H7 C13 1_555 1_555
H8 C13 1_555 1_555
C14 C13 1_555 1_555
H9 C14 1_555 1_555
H10 C14 1_555 1_555
C15 C14 1_555 1_555
H11 C15 1_555 1_555
H12 C15 1_555 1_555
H13 C15 1_555 1_555
S1A C2A 1_555 1_555
F1A C4A 1_555 1_555
F2A C5A 1_555 1_555
F3A C6A 1_555 1_555
F4A C7A 1_555 1_555
C1A C9 1_555 1_555
C2A C1A 1_555 1_555
C3A S1A 1_555 1_555
C4A C3A 1_555 1_555
C5A C4A 1_555 1_555
C6A C5A 1_555 1_555
C7A C6A 1_555 1_555
C8A C3A 1_555 1_555
C9A C1 1_555 1_555
C10A C1A 1_555 1_555
H1A C10A 1_555 1_555
H2A C10A 1_555 1_555
C11A C10A 1_555 1_555
H3A C11A 1_555 1_555
H4A C11A 1_555 1_555
C12A C11A 1_555 1_555
H5A C12A 1_555 1_555
H6A C12A 1_555 1_555
C13A C12A 1_555 1_555
H7A C13A 1_555 1_555
H8A C13A 1_555 1_555
C14A C13A 1_555 1_555
H9A C14A 1_555 1_555
H10A C14A 1_555 1_555
C15A C14A 1_555 1_555
H11A C15A 1_555 1_555
H12A C15A 1_555 1_555
H13A C15A 1_555 1_555
C7 C8 1_555 1_555
C2A C9A 1_555 1_555
C7A C8A 1_555 1_555
C8A C9A 1_555 1_555

#END
