
#######################################################################
#
#                 Cambridge Crystallographic Data Centre
#                                CCDC 
#
#######################################################################
#
# If this CIF has been generated from an entry in the Cambridge 
# Structural Database, then it will include bibliographic, chemical, 
# crystal, experimental, refinement or atomic coordinate data resulting 
# from the CCDC's data processing and validation procedures.
#
#######################################################################

data_YOJWOL
_chemical_formula_moiety         'C14 H14 Cl3 N1 O2'
_chemical_name_systematic        
3-chloro-N-(3,5-dichlorophenyl)-1,3-dimethyl-2-oxocyclopentanecarboxamide
_symmetry_cell_setting           monoclinic
_symmetry_space_group_name_H-M   'P 21/c'
_symmetry_Int_Tables_number      14
_space_group_name_Hall           '-P 2ybc'
loop_
_symmetry_equiv_pos_site_id
_symmetry_equiv_pos_as_xyz
1 x,y,z
2 -x,1/2+y,1/2-z
3 -x,-y,-z
4 x,1/2-y,1/2+z
_cell_length_a                   7.9975(12)
_cell_length_b                   10.4130(15)
_cell_length_c                   17.988(3)
_cell_angle_alpha                90
_cell_angle_beta                 90.941(2)
_cell_angle_gamma                90
_cell_volume                     1497.8
_exptl_crystal_colour            colorless
_exptl_crystal_description       rod
_chemical_melting_point          '400 K'
_cell_formula_units_Z            4
_exptl_crystal_recrystallization_method dichloromethane/hexane
loop_
_atom_site_label
_atom_site_type_symbol
_atom_site_fract_x
_atom_site_fract_y
_atom_site_fract_z
C1 C -0.00080(15) 0.22516(12) 0.13957(6)
C2 C -0.08726(15) 0.09981(11) 0.16205(6)
C3 C -0.23083(15) 0.06023(11) 0.10899(6)
C4 C -0.38968(15) 0.03804(12) 0.15409(7)
C5 C -0.32102(16) 0.01979(12) 0.23291(7)
H1 H -0.2869 -0.0705 0.2413
H2 H -0.4060 0.0433 0.2699
C6 C -0.16898(16) 0.10997(12) 0.23860(6)
H3 H -0.2045 0.1993 0.2487
H4 H -0.0907 0.0818 0.2786
C7 C 0.04284(16) -0.01047(12) 0.16019(7)
H5 H 0.0780 -0.0245 0.1089
H6 H -0.0075 -0.0893 0.1794
H7 H 0.1403 0.0127 0.1911
C8 C -0.50230(17) -0.06555(13) 0.12273(8)
H8 H -0.5416 -0.0406 0.0729
H9 H -0.5984 -0.0769 0.1552
H10 H -0.4400 -0.1464 0.1197
C9 C 0.12366(15) 0.32790(11) 0.02850(6)
C10 C 0.15444(15) 0.30659(11) -0.04686(6)
H11 H 0.1201 0.2288 -0.0701
C11 C 0.23542(15) 0.40034(12) -0.08705(6)
C12 C 0.28664(15) 0.51595(12) -0.05571(7)
H12 H 0.3419 0.5796 -0.0840
C13 C 0.25328(16) 0.53394(11) 0.01870(7)
C14 C 0.17395(16) 0.44293(12) 0.06222(6)
H13 H 0.1544 0.4584 0.1134
N1 N 0.03919(14) 0.23010(10) 0.06609(5)
H14 H 0.0081 0.1637 0.0390
O1 O 0.03230(14) 0.30865(9) 0.18458(5)
O2 O -0.21817(12) 0.04004(9) 0.04312(5)
Cl1 Cl -0.49801(4) 0.19258(3) 0.14824(2)
Cl2 Cl 0.27512(4) 0.37037(3) -0.18013(2)
Cl3 Cl 0.31133(5) 0.67810(3) 0.06016(2)
loop_
_geom_bond_atom_site_label_1
_geom_bond_atom_site_label_2
_geom_bond_site_symmetry_1
_geom_bond_site_symmetry_2
C1 C2 1_555 1_555
C2 C3 1_555 1_555
C3 C4 1_555 1_555
C4 C5 1_555 1_555
C5 H1 1_555 1_555
H2 C5 1_555 1_555
C6 C2 1_555 1_555
H3 C6 1_555 1_555
H4 C6 1_555 1_555
C7 C2 1_555 1_555
H5 C7 1_555 1_555
H6 C7 1_555 1_555
H7 C7 1_555 1_555
C8 C4 1_555 1_555
H8 C8 1_555 1_555
H9 C8 1_555 1_555
H10 C8 1_555 1_555
C9 C10 1_555 1_555
C10 H11 1_555 1_555
C11 C10 1_555 1_555
C12 C11 1_555 1_555
H12 C12 1_555 1_555
C13 C12 1_555 1_555
C14 C9 1_555 1_555
H13 C14 1_555 1_555
N1 C1 1_555 1_555
H14 N1 1_555 1_555
O1 C1 1_555 1_555
O2 C3 1_555 1_555
Cl1 C4 1_555 1_555
Cl2 C11 1_555 1_555
Cl3 C13 1_555 1_555
C5 C6 1_555 1_555
C9 N1 1_555 1_555
C13 C14 1_555 1_555

#END
