
#######################################################################
#
#                 Cambridge Crystallographic Data Centre
#                                CCDC 
#
#######################################################################
#
# If this CIF has been generated from an entry in the Cambridge 
# Structural Database, then it will include bibliographic, chemical, 
# crystal, experimental, refinement or atomic coordinate data resulting 
# from the CCDC's data processing and validation procedures.
#
#######################################################################

data_YOKBEH
_chemical_formula_moiety         'C27 H27 F1 N2 O4'
_chemical_name_systematic        
4-(4-fluorobenzoyl)-5-(2-hydroxy-4-methoxyphenyl)-8,8-dimethyl-2,3,5,7,8,9-hexahydroimidazo[1,2-a]quinolin-6(1H)-one
_symmetry_cell_setting           monoclinic
_symmetry_space_group_name_H-M   'P 21/c'
_symmetry_Int_Tables_number      14
_space_group_name_Hall           '-P 2ybc'
loop_
_symmetry_equiv_pos_site_id
_symmetry_equiv_pos_as_xyz
1 x,y,z
2 -x,1/2+y,1/2-z
3 -x,-y,-z
4 x,1/2-y,1/2+z
_cell_length_a                   12.3783(19)
_cell_length_b                   14.693(2)
_cell_length_c                   13.991(2)
_cell_angle_alpha                90
_cell_angle_beta                 113.706(2)
_cell_angle_gamma                90
_cell_volume                     2329.89
_exptl_crystal_colour            yellow
_exptl_crystal_description       block
_cell_formula_units_Z            4
loop_
_atom_site_label
_atom_site_type_symbol
_atom_site_fract_x
_atom_site_fract_y
_atom_site_fract_z
F1 F 0.4414(2) 0.2536(2) -0.02276(18)
N1 N 0.6840(2) 0.00765(16) 0.57944(19)
H1 H 0.6096 -0.0010 0.5448
N2 N 0.8646(2) 0.05764(15) 0.61905(17)
O1 O 0.52355(19) 0.04873(16) 0.39114(17)
O2 O 1.01089(17) 0.19157(13) 0.39000(15)
O3 O 0.8560(2) 0.32740(14) 0.33176(15)
H2 H 0.8972 0.2819 0.3405
O4 O 0.8052(2) 0.53846(14) 0.56945(16)
C1 C 0.4806(4) 0.2169(4) 0.0752(3)
C2 C 0.4657(3) 0.1275(4) 0.0851(3)
H3 H 0.4306 0.0909 0.0264
C3 C 0.5037(3) 0.0907(3) 0.1842(3)
H4 H 0.4922 0.0291 0.1920
C4 C 0.5587(3) 0.1443(2) 0.2721(2)
C5 C 0.5709(3) 0.2355(3) 0.2574(3)
H5 H 0.6069 0.2729 0.3152
C6 C 0.5308(3) 0.2734(3) 0.1579(4)
H6 H 0.5381 0.3354 0.1485
C7 C 0.5970(3) 0.0996(2) 0.3771(2)
C8 C 0.7157(2) 0.11066(19) 0.4547(2)
C9 C 0.8087(2) 0.17033(18) 0.4406(2)
H7 H 0.7963 0.1683 0.3669
C10 C 0.7484(3) 0.06083(18) 0.5452(2)
C11 C 0.7497(3) -0.0341(3) 0.6794(3)
H8 H 0.7404 -0.0997 0.6754
H9 H 0.7246 -0.0108 0.7321
C12 C 0.8763(3) -0.00721(19) 0.7032(2)
H10 H 0.9126 0.0215 0.7712
H11 H 0.9228 -0.0597 0.7013
C13 C 0.9554(2) 0.08812(18) 0.5954(2)
C14 C 0.9322(2) 0.13496(18) 0.5056(2)
C15 C 1.0275(3) 0.15647(18) 0.4758(2)
C16 C 1.1522(3) 0.1346(2) 0.5504(2)
H12 H 1.2051 0.1794 0.5416
H13 H 1.1738 0.0756 0.5323
C17 C 1.1699(3) 0.1332(2) 0.6647(2)
C18 C 1.0783(2) 0.06826(19) 0.6737(2)
H14 H 1.0990 0.0064 0.6638
H15 H 1.0800 0.0726 0.7435
C19 C 1.2937(3) 0.0971(2) 0.7322(3)
H16 H 1.3033 0.0376 0.7083
H17 H 1.3032 0.0935 0.8036
H18 H 1.3519 0.1375 0.7269
C20 C 1.1557(3) 0.2290(2) 0.7010(2)
H19 H 1.2146 0.2684 0.6952
H20 H 1.1648 0.2268 0.7725
H21 H 1.0786 0.2519 0.6582
C21 C 0.8055(2) 0.27014(18) 0.4712(2)
C22 C 0.8316(3) 0.3414(2) 0.4184(2)
C23 C 0.8314(3) 0.4313(2) 0.4494(2)
H22 H 0.8482 0.4778 0.4124
C24 C 0.8067(3) 0.4517(2) 0.5337(2)
C25 C 0.7802(3) 0.3825(2) 0.5879(2)
H23 H 0.7627 0.3959 0.6451
C26 C 0.7800(3) 0.2935(2) 0.5564(2)
H24 H 0.7622 0.2474 0.5934
C27 C 0.8368(3) 0.6111(2) 0.5178(3)
H25 H 0.9145 0.6006 0.5206
H26 H 0.8356 0.6676 0.5518
H27 H 0.7814 0.6139 0.4463
loop_
_geom_bond_atom_site_label_1
_geom_bond_atom_site_label_2
_geom_bond_site_symmetry_1
_geom_bond_site_symmetry_2
F1 C1 1_555 1_555
N1 H1 1_555 1_555
N2 C10 1_555 1_555
O1 C7 1_555 1_555
O2 C15 1_555 1_555
O3 H2 1_555 1_555
O4 C24 1_555 1_555
C1 C2 1_555 1_555
C2 H3 1_555 1_555
C3 C2 1_555 1_555
H4 C3 1_555 1_555
C4 C3 1_555 1_555
C5 C4 1_555 1_555
H5 C5 1_555 1_555
C6 C1 1_555 1_555
H6 C6 1_555 1_555
C7 C4 1_555 1_555
C8 C7 1_555 1_555
C9 C8 1_555 1_555
H7 C9 1_555 1_555
C10 N1 1_555 1_555
C11 N1 1_555 1_555
H8 C11 1_555 1_555
H9 C11 1_555 1_555
C12 N2 1_555 1_555
H10 C12 1_555 1_555
H11 C12 1_555 1_555
C13 N2 1_555 1_555
C14 C9 1_555 1_555
C15 C14 1_555 1_555
C16 C15 1_555 1_555
H12 C16 1_555 1_555
H13 C16 1_555 1_555
C17 C16 1_555 1_555
C18 C13 1_555 1_555
H14 C18 1_555 1_555
H15 C18 1_555 1_555
C19 C17 1_555 1_555
H16 C19 1_555 1_555
H17 C19 1_555 1_555
H18 C19 1_555 1_555
C20 C17 1_555 1_555
H19 C20 1_555 1_555
H20 C20 1_555 1_555
H21 C20 1_555 1_555
C21 C9 1_555 1_555
C22 O3 1_555 1_555
C23 C22 1_555 1_555
H22 C23 1_555 1_555
C24 C23 1_555 1_555
C25 C24 1_555 1_555
H23 C25 1_555 1_555
C26 C21 1_555 1_555
H24 C26 1_555 1_555
C27 O4 1_555 1_555
H25 C27 1_555 1_555
H26 C27 1_555 1_555
H27 C27 1_555 1_555
C5 C6 1_555 1_555
C8 C10 1_555 1_555
C11 C12 1_555 1_555
C13 C14 1_555 1_555
C17 C18 1_555 1_555
C21 C22 1_555 1_555
C25 C26 1_555 1_555

#END
