
#######################################################################
#
#                 Cambridge Crystallographic Data Centre
#                                CCDC 
#
#######################################################################
#
# If this CIF has been generated from an entry in the Cambridge 
# Structural Database, then it will include bibliographic, chemical, 
# crystal, experimental, refinement or atomic coordinate data resulting 
# from the CCDC's data processing and validation procedures.
#
#######################################################################

data_YOKBIK
_chemical_formula_moiety         'C30 H40 S2'
_chemical_name_systematic        
2,7-Dioctyl-benzothieno(3,2-b)(1)benzothiophene
_symmetry_cell_setting           monoclinic
_symmetry_space_group_name_H-M   'P 21/a'
_symmetry_Int_Tables_number      14
_space_group_name_Hall           '-P 2yab'
loop_
_symmetry_equiv_pos_site_id
_symmetry_equiv_pos_as_xyz
1 x,y,z
2 1/2-x,1/2+y,-z
3 -x,-y,-z
4 1/2+x,1/2-y,z
_cell_length_a                   5.927(7)
_cell_length_b                   7.88(1)
_cell_length_c                   29.18(4)
_cell_angle_alpha                90
_cell_angle_beta                 92.443(4)
_cell_angle_gamma                90
_cell_volume                     1361.61
_exptl_crystal_colour            colorless
_exptl_crystal_description       Platelet
_cell_formula_units_Z            2
_exptl_crystal_recrystallization_method hexane
loop_
_atom_site_label
_atom_site_type_symbol
_atom_site_fract_x
_atom_site_fract_y
_atom_site_fract_z
S1 S 0.2761(2) 0.1127(2) 0.46929(5)
C1 C 0.0884(7) 0.0511(6) 0.4242(2)
C2 C 0.1129(7) 0.0776(6) 0.3787(2)
C3 C -0.0511(8) 0.0207(7) 0.3459(2)
C4 C -0.2407(8) -0.0648(6) 0.3632(2)
C5 C -0.2692(7) -0.0909(6) 0.4086(2)
C6 C -0.1085(7) -0.0312(5) 0.4420(2)
C7 C 0.0965(6) 0.0367(5) 0.5102(2)
C8 C -0.0317(10) 0.0563(8) 0.2965(2)
C9 C 0.1623(10) -0.0243(7) 0.2724(2)
C10 C 0.183(1) 0.0302(8) 0.2234(2)
C11 C 0.375(1) -0.0365(9) 0.1983(2)
C12 C 0.395(1) 0.0276(9) 0.1501(3)
C13 C 0.584(1) -0.036(1) 0.1230(3)
C14 C 0.597(1) 0.027(1) 0.0754(3)
C15 C 0.782(2) -0.032(2) 0.0482(3)
H1 H 0.2480 0.1389 0.3677
H2 H -0.3535 -0.1075 0.3416
H3 H -0.4025 -0.1526 0.4184
H4 H -0.0123 0.1826 0.2932
H5 H -0.1726 0.0326 0.2807
H6 H 0.3012 -0.0079 0.2889
H7 H 0.1344 -0.1477 0.2715
H8 H 0.1986 0.1554 0.2248
H9 H 0.0427 0.0094 0.2071
H10 H 0.5147 -0.0201 0.2156
H11 H 0.3561 -0.1614 0.1960
H12 H 0.4182 0.1538 0.1519
H13 H 0.2554 0.0148 0.1325
H14 H 0.5659 -0.1634 0.1205
H15 H 0.7280 -0.0230 0.1394
H16 H 0.6213 0.1547 0.0767
H17 H 0.4521 0.0184 0.0582
H18 H 0.7502 -0.1625 0.0441
H19 H 0.9199 -0.0271 0.0629
H20 H 0.7806 0.0060 0.0176
S1B S -0.2761(2) -0.1127(2) 0.53071(5)
C1B C -0.0884(7) -0.0511(6) 0.5758(2)
C2B C -0.1129(7) -0.0776(6) 0.6213(2)
C3B C 0.0511(8) -0.0207(7) 0.6541(2)
C4B C 0.2407(8) 0.0648(6) 0.6368(2)
C5B C 0.2692(7) 0.0909(6) 0.5914(2)
C6B C 0.1085(7) 0.0312(5) 0.5580(2)
C7B C -0.0965(6) -0.0367(5) 0.4898(2)
C8B C 0.0317(10) -0.0563(8) 0.7035(2)
C9B C -0.1623(10) 0.0243(7) 0.7276(2)
C10B C -0.183(1) -0.0302(8) 0.7766(2)
C11B C -0.375(1) 0.0365(9) 0.8017(2)
C12B C -0.395(1) -0.0276(9) 0.8499(3)
C13B C -0.584(1) 0.036(1) 0.8770(3)
C14B C -0.597(1) -0.027(1) 0.9246(3)
C15B C -0.782(2) 0.032(2) 0.9518(3)
H1B H -0.2480 -0.1389 0.6323
H2B H 0.3535 0.1075 0.6584
H3B H 0.4025 0.1526 0.5816
H4B H 0.0123 -0.1826 0.7068
H5B H 0.1726 -0.0326 0.7193
H6B H -0.3012 0.0079 0.7111
H7B H -0.1344 0.1477 0.7285
H8B H -0.1986 -0.1554 0.7752
H9B H -0.0427 -0.0094 0.7929
H10B H -0.5147 0.0201 0.7844
H11B H -0.3561 0.1614 0.8040
H12B H -0.4182 -0.1538 0.8481
H13B H -0.2554 -0.0148 0.8675
H14B H -0.5659 0.1634 0.8795
H15B H -0.7280 0.0230 0.8606
H16B H -0.6213 -0.1547 0.9233
H17B H -0.4521 -0.0184 0.9418
H18B H -0.7502 0.1625 0.9559
H19B H -0.9199 0.0271 0.9371
H20B H -0.7806 -0.0060 0.9824
loop_
_geom_bond_atom_site_label_1
_geom_bond_atom_site_label_2
_geom_bond_site_symmetry_1
_geom_bond_site_symmetry_2
S1 C1 1_555 1_555
C1 C2 1_555 1_555
C2 C3 1_555 1_555
C3 C4 1_555 1_555
C4 C5 1_555 1_555
C5 C6 1_555 1_555
C6 C1 1_555 1_555
C7 S1 1_555 1_555
C8 C3 1_555 1_555
C9 C8 1_555 1_555
C10 C9 1_555 1_555
C11 C10 1_555 1_555
C12 C11 1_555 1_555
C13 C12 1_555 1_555
C14 C13 1_555 1_555
C15 C14 1_555 1_555
H1 C2 1_555 1_555
H2 C4 1_555 1_555
H3 C5 1_555 1_555
H4 C8 1_555 1_555
H5 C8 1_555 1_555
H6 C9 1_555 1_555
H7 C9 1_555 1_555
H8 C10 1_555 1_555
H9 C10 1_555 1_555
H10 C11 1_555 1_555
H11 C11 1_555 1_555
H12 C12 1_555 1_555
H13 C12 1_555 1_555
H14 C13 1_555 1_555
H15 C13 1_555 1_555
H16 C14 1_555 1_555
H17 C14 1_555 1_555
H18 C15 1_555 1_555
H19 C15 1_555 1_555
H20 C15 1_555 1_555
S1B C1B 1_555 1_555
C1B C2B 1_555 1_555
C2B C3B 1_555 1_555
C3B C4B 1_555 1_555
C4B C5B 1_555 1_555
C5B C6B 1_555 1_555
C6B C7 1_555 1_555
C7B C6 1_555 1_555
C8B C3B 1_555 1_555
C9B C8B 1_555 1_555
C10B C9B 1_555 1_555
C11B C10B 1_555 1_555
C12B C11B 1_555 1_555
C13B C12B 1_555 1_555
C14B C13B 1_555 1_555
C15B C14B 1_555 1_555
H1B C2B 1_555 1_555
H2B C4B 1_555 1_555
H3B C5B 1_555 1_555
H4B C8B 1_555 1_555
H5B C8B 1_555 1_555
H6B C9B 1_555 1_555
H7B C9B 1_555 1_555
H8B C10B 1_555 1_555
H9B C10B 1_555 1_555
H10B C11B 1_555 1_555
H11B C11B 1_555 1_555
H12B C12B 1_555 1_555
H13B C12B 1_555 1_555
H14B C13B 1_555 1_555
H15B C13B 1_555 1_555
H16B C14B 1_555 1_555
H17B C14B 1_555 1_555
H18B C15B 1_555 1_555
H19B C15B 1_555 1_555
H20B C15B 1_555 1_555
C7 C7B 1_555 1_555
S1B C7B 1_555 1_555
C1B C6B 1_555 1_555

#END
