
#######################################################################
#
#                 Cambridge Crystallographic Data Centre
#                                CCDC 
#
#######################################################################
#
# If this CIF has been generated from an entry in the Cambridge 
# Structural Database, then it will include bibliographic, chemical, 
# crystal, experimental, refinement or atomic coordinate data resulting 
# from the CCDC's data processing and validation procedures.
#
#######################################################################

data_YOKCIM
_chemical_formula_moiety         'C27 H29 N1 O6,2(C1 H1 Cl3)'
_chemical_name_systematic        
'10-(3-furyl)-5-methoxy-4,4,10a,13b-tetramethyl-3a,4,5,10,10a,11,12,13b-octahydro-2H-furo[2,3-h]pyrano[4,3-a]acridine-2,8(3H)-dione chloroform solvate'
_symmetry_cell_setting           monoclinic
_symmetry_space_group_name_H-M   'P 21'
_symmetry_Int_Tables_number      4
_space_group_name_Hall           'P 2yb'
loop_
_symmetry_equiv_pos_site_id
_symmetry_equiv_pos_as_xyz
1 x,y,z
2 -x,1/2+y,-z
_cell_length_a                   6.04280(10)
_cell_length_b                   18.3324(4)
_cell_length_c                   14.9166(3)
_cell_angle_alpha                90
_cell_angle_beta                 96.7660(10)
_cell_angle_gamma                90
_cell_volume                     1640.94
_exptl_crystal_colour            colorless
_exptl_crystal_description       prismatic
_cell_formula_units_Z            2
loop_
_atom_site_label
_atom_site_type_symbol
_atom_site_fract_x
_atom_site_fract_y
_atom_site_fract_z
Cl1 Cl 0.2631(3) 0.75901(9) 0.16418(10)
Cl2 Cl 0.3063(4) 0.84051(10) 0.32894(11)
Cl3 Cl -0.1311(3) 0.80384(13) 0.2422(2)
C1 C 0.1391(9) 0.8263(3) 0.2254(4)
H1 H 0.1348 0.8718 0.1908
Cl4 Cl 0.8709(8) 0.9504(3) 0.6526(2)
Cl5 Cl 0.4775(5) 0.9659(2) 0.5323(2)
Cl6 Cl 0.8222(6) 0.87164(19) 0.4885(2)
C2 C 0.6901(14) 0.9041(5) 0.5764(5)
H2 H 0.6238 0.8634 0.6065
N1 N 0.8671(5) 0.50614(17) 0.82004(19)
O1 O 0.5737(4) 0.65009(17) 1.01251(19)
O2 O 0.8441(5) 0.41315(15) 0.96308(18)
O3 O 0.9615(7) 0.3312(2) 1.0675(3)
O4 O 1.3985(14) 0.8408(3) 0.7184(4)
O5 O 1.3482(7) 0.7597(2) 0.6116(2)
O6 O 1.5325(10) 0.6607(3) 0.3843(3)
C3 C 0.8151(5) 0.53191(19) 0.8990(2)
C4 C 0.8609(5) 0.6024(2) 0.9286(2)
C5 C 0.8018(6) 0.6270(2) 1.0205(2)
H3 H 0.8980 0.6679 1.0421
C6 C 0.8346(6) 0.5643(2) 1.0889(2)
C7 C 0.6794(6) 0.5015(2) 1.0533(2)
H4 H 0.5253 0.5167 1.0570
C8 C 0.7202(8) 0.4301(3) 1.1049(3)
H5 H 0.8007 0.4386 1.1642
H6 H 0.5804 0.4060 1.1120
C9 C 0.8564(8) 0.3850(2) 1.0481(3)
C10 C 1.0175(6) 0.6237(2) 0.7896(2)
C11 C 0.9676(5) 0.5511(2) 0.7665(2)
C12 C 0.6991(6) 0.4777(2) 0.9547(2)
C13 C 1.0215(7) 0.5188(2) 0.6790(2)
H7 H 0.9007 0.4869 0.6550
H8 H 1.1553 0.4894 0.6904
C14 C 1.0569(7) 0.5768(2) 0.6085(2)
H9 H 0.9142 0.5982 0.5861
H10 H 1.1171 0.5539 0.5580
C15 C 1.2158(6) 0.6375(2) 0.6467(2)
C16 C 1.1281(6) 0.6715(2) 0.7282(2)
C17 C 1.1595(11) 0.7420(3) 0.7437(4)
H11 H 1.0898 0.7644 0.7889
C18 C 1.3025(15) 0.7859(4) 0.6910(4)
C19 C 1.2152(7) 0.6980(2) 0.5755(3)
H12 H 1.0613 0.7148 0.5606
C20 C 1.4525(7) 0.6073(3) 0.6741(3)
H13 H 1.4507 0.5751 0.7248
H14 H 1.5528 0.6470 0.6904
H15 H 1.5012 0.5811 0.6243
C21 C 0.4797(7) 0.4558(3) 0.9057(3)
H16 H 0.4156 0.4178 0.9386
H17 H 0.5007 0.4384 0.8466
H18 H 0.3815 0.4972 0.9003
C22 C 1.3035(8) 0.6781(3) 0.4899(3)
C23 C 1.5216(9) 0.6842(4) 0.4687(3)
H19 H 1.6414 0.7020 0.5074
C24 C 1.1878(12) 0.6500(4) 0.4137(3)
H20 H 1.0370 0.6384 0.4077
C25 C 1.3187(14) 0.6415(4) 0.3495(3)
H21 H 1.2744 0.6254 0.2910
C26 C 1.0781(6) 0.5429(3) 1.0993(3)
H22 H 1.1683 0.5848 1.1164
H23 H 1.1161 0.5241 1.0429
H24 H 1.1045 0.5060 1.1450
C27 C 0.7694(8) 0.5916(3) 1.1796(3)
H25 H 0.8721 0.6287 1.2033
H26 H 0.7741 0.5517 1.2215
H27 H 0.6214 0.6114 1.1708
C28 C 0.9644(6) 0.6486(2) 0.8723(2)
H28 H 0.9982 0.6963 0.8902
C29 C 0.5362(10) 0.7178(3) 0.9697(4)
H29 H 0.6025 0.7179 0.9143
H30 H 0.6016 0.7557 1.0086
H31 H 0.3788 0.7260 0.9570
loop_
_geom_bond_atom_site_label_1
_geom_bond_atom_site_label_2
_geom_bond_site_symmetry_1
_geom_bond_site_symmetry_2
Cl1 C1 1_555 1_555
Cl2 C1 1_555 1_555
Cl3 C1 1_555 1_555
C1 H1 1_555 1_555
Cl4 C2 1_555 1_555
Cl5 C2 1_555 1_555
Cl6 C2 1_555 1_555
C2 H2 1_555 1_555
N1 C3 1_555 1_555
O1 C5 1_555 1_555
O2 C9 1_555 1_555
O3 C9 1_555 1_555
O4 C18 1_555 1_555
O5 C18 1_555 1_555
O6 C23 1_555 1_555
C3 C4 1_555 1_555
C4 C5 1_555 1_555
C5 H3 1_555 1_555
C6 C5 1_555 1_555
C7 C6 1_555 1_555
H4 C7 1_555 1_555
C8 C7 1_555 1_555
H5 C8 1_555 1_555
H6 C8 1_555 1_555
C9 C8 1_555 1_555
C10 C11 1_555 1_555
C11 N1 1_555 1_555
C12 O2 1_555 1_555
C13 C11 1_555 1_555
H7 C13 1_555 1_555
H8 C13 1_555 1_555
C14 C13 1_555 1_555
H9 C14 1_555 1_555
H10 C14 1_555 1_555
C15 C14 1_555 1_555
C16 C10 1_555 1_555
C17 C16 1_555 1_555
H11 C17 1_555 1_555
C18 C17 1_555 1_555
C19 O5 1_555 1_555
H12 C19 1_555 1_555
C20 C15 1_555 1_555
H13 C20 1_555 1_555
H14 C20 1_555 1_555
H15 C20 1_555 1_555
C21 C12 1_555 1_555
H16 C21 1_555 1_555
H17 C21 1_555 1_555
H18 C21 1_555 1_555
C22 C19 1_555 1_555
C23 C22 1_555 1_555
H19 C23 1_555 1_555
C24 C22 1_555 1_555
H20 C24 1_555 1_555
C25 O6 1_555 1_555
H21 C25 1_555 1_555
C26 C6 1_555 1_555
H22 C26 1_555 1_555
H23 C26 1_555 1_555
H24 C26 1_555 1_555
C27 C6 1_555 1_555
H25 C27 1_555 1_555
H26 C27 1_555 1_555
H27 C27 1_555 1_555
C28 C4 1_555 1_555
H28 C28 1_555 1_555
C29 O1 1_555 1_555
H29 C29 1_555 1_555
H30 C29 1_555 1_555
H31 C29 1_555 1_555
C3 C12 1_555 1_555
C7 C12 1_555 1_555
C10 C28 1_555 1_555
C15 C16 1_555 1_555
C15 C19 1_555 1_555
C24 C25 1_555 1_555

#END
