
#######################################################################
#
#                 Cambridge Crystallographic Data Centre
#                                CCDC 
#
#######################################################################
#
# If this CIF has been generated from an entry in the Cambridge 
# Structural Database, then it will include bibliographic, chemical, 
# crystal, experimental, refinement or atomic coordinate data resulting 
# from the CCDC's data processing and validation procedures.
#
#######################################################################

data_YOKCIK01
_chemical_formula_moiety         'C18 H16'
_chemical_name_systematic        trans-10b,10c-Dimethyl-10b,10c-dihydropyrene
_symmetry_cell_setting           triclinic
_symmetry_space_group_name_H-M   'P -1'
_symmetry_Int_Tables_number      2
_space_group_name_Hall           '-P 1'
loop_
_symmetry_equiv_pos_site_id
_symmetry_equiv_pos_as_xyz
1 x,y,z
2 -x,-y,-z
_cell_length_a                   7.4202(6)
_cell_length_b                   7.6001(6)
_cell_length_c                   12.6920(10)
_cell_angle_alpha                78.618(2)
_cell_angle_beta                 80.9910(10)
_cell_angle_gamma                64.556(2)
_cell_volume                     631.533
_exptl_crystal_colour            'dark green'
_cell_formula_units_Z            2
loop_
_atom_site_label
_atom_site_type_symbol
_atom_site_fract_x
_atom_site_fract_y
_atom_site_fract_z
C1 C 0.9787(2) 1.4171(2) 0.4865(1)
C2 C 0.7850(2) 1.5031(2) 0.4311(1)
C3 C 0.7692(2) 1.4033(2) 0.3548(1)
C4 C 0.9346(2) 1.2479(2) 0.3162(1)
C5 C 1.1255(2) 1.1926(2) 0.3470(1)
C6 C 1.1588(2) 1.2818(2) 0.4213(1)
C7 C 0.9434(2) 1.2831(2) 0.5908(1)
C8 C 0.6273(2) 1.6650(2) 0.4704(1)
C9 C 1.3477(2) 1.2399(2) 0.4534(1)
H1 H 0.6427(2) 1.4419(2) 0.3284(1)
H2 H 0.9167(2) 1.1777(2) 0.2674(1)
H3 H 1.2358(2) 1.0914(2) 0.3152(1)
H4 H 0.8279(2) 1.3626(2) 0.6356(1)
H5 H 1.0626(2) 1.2242(2) 0.6314(1)
H6 H 0.9174(2) 1.1785(2) 0.5708(1)
H7 H 0.4991(2) 1.7115(2) 0.4444(1)
H8 H 1.4625(2) 1.1435(2) 0.4212(1)
C1A C 1.0213(2) 1.5829(2) 0.5135(1)
C2A C 1.2150(2) 1.4969(2) 0.5689(1)
C3A C 1.2308(2) 1.5967(2) 0.6452(1)
C4A C 1.0654(2) 1.7521(2) 0.6838(1)
C5A C 0.8745(2) 1.8074(2) 0.6530(1)
C6A C 0.8412(2) 1.7182(2) 0.5787(1)
C7A C 1.0566(2) 1.7169(2) 0.4092(1)
H4A H 1.1721(2) 1.6374(2) 0.3644(1)
H5A H 0.9374(2) 1.7758(2) 0.3686(1)
H6A H 1.0826(2) 1.8215(2) 0.4292(1)
C9A C 0.6523(2) 1.7601(2) 0.5466(1)
C8A C 1.3727(2) 1.3350(2) 0.5296(1)
H7A H 1.5009(2) 1.2885(2) 0.5556(1)
H8A H 0.5375(2) 1.8565(2) 0.5788(1)
H3A H 0.7642(2) 1.9086(2) 0.6848(1)
H2A H 1.0833(2) 1.8223(2) 0.7326(1)
H1A H 1.3573(2) 1.5581(2) 0.6716(1)
C10 C 0.8860(2) 1.0445(2) 0.0125(1)
C11 C 0.8282(2) 0.9232(2) 0.1109(1)
C12 C 0.6616(2) 1.0199(3) 0.1780(1)
C13 C 0.5689(2) 1.2252(3) 0.1668(1)
C14 C 0.6459(2) 1.3423(2) 0.0935(1)
C15 C 0.8107(2) 1.2617(2) 0.0217(1)
C16 C 0.7749(2) 1.0380(2) -0.0809(1)
C17 C 0.9341(2) 0.7188(2) 0.1207(1)
C18 C 0.8983(2) 1.3697(2) -0.0520(1)
H9 H 0.6097(2) 0.9448(3) 0.2325(1)
H10 H 0.4497(2) 1.2865(3) 0.2106(1)
H11 H 0.5844(2) 1.4810(2) 0.0925(1)
H12 H 0.8059(2) 1.1141(2) -0.1474(1)
H13 H 0.6301(2) 1.0948(2) -0.0617(1)
H14 H 0.8190(2) 0.9011(2) -0.0919(1)
H15 H 0.8903(2) 0.6380(2) 0.1759(1)
H16 H 0.8416(2) 1.5089(2) -0.0556(1)
C10A C 1.1140(2) 0.9555(2) -0.0125(1)
C11A C 1.1718(2) 1.0768(2) -0.1109(1)
C12A C 1.3384(2) 0.9801(3) -0.1780(1)
C13A C 1.4311(2) 0.7748(3) -0.1668(1)
C14A C 1.3541(2) 0.6577(2) -0.0935(1)
C15A C 1.1893(2) 0.7383(2) -0.0217(1)
C16A C 1.2251(2) 0.9620(2) 0.0809(1)
H12A H 1.1941(2) 0.8859(2) 0.1474(1)
H13A H 1.3699(2) 0.9052(2) 0.0617(1)
H14A H 1.1810(2) 1.0989(2) 0.0919(1)
C18A C 1.1017(2) 0.6303(2) 0.0520(1)
C17A C 1.0659(2) 1.2812(2) -0.1207(1)
H15A H 1.1097(2) 1.3620(2) -0.1759(1)
H16A H 1.1584(2) 0.4911(2) 0.0556(1)
H11A H 1.4156(2) 0.5190(2) -0.0925(1)
H10A H 1.5503(2) 0.7135(3) -0.2106(1)
H9A H 1.3903(2) 1.0552(3) -0.2325(1)
loop_
_geom_bond_atom_site_label_1
_geom_bond_atom_site_label_2
_geom_bond_site_symmetry_1
_geom_bond_site_symmetry_2
C1 C2 1_555 1_555
C2 C3 1_555 1_555
C3 C4 1_555 1_555
C4 C5 1_555 1_555
C5 C6 1_555 1_555
C6 C1 1_555 1_555
C7 C1 1_555 1_555
C8 C2 1_555 1_555
C9 C6 1_555 1_555
C10 C11 1_555 1_555
C11 C12 1_555 1_555
C12 C13 1_555 1_555
C13 C14 1_555 1_555
C14 C15 1_555 1_555
C15 C10 1_555 1_555
C16 C10 1_555 1_555
C17 C11 1_555 1_555
C18 C15 1_555 1_555
H1 C3 1_555 1_555
H2 C4 1_555 1_555
H3 C5 1_555 1_555
H4 C7 1_555 1_555
H5 C7 1_555 1_555
H6 C7 1_555 1_555
H7 C8 1_555 1_555
H8 C9 1_555 1_555
H9 C12 1_555 1_555
H10 C13 1_555 1_555
H11 C14 1_555 1_555
H12 C16 1_555 1_555
H13 C16 1_555 1_555
H14 C16 1_555 1_555
H15 C17 1_555 1_555
H16 C18 1_555 1_555
C1A C1 1_555 1_555
C2A C1A 1_555 1_555
C3A C2A 1_555 1_555
C4A C3A 1_555 1_555
C5A C4A 1_555 1_555
C6A C1A 1_555 1_555
C7A C1A 1_555 1_555
H4A C7A 1_555 1_555
H5A C7A 1_555 1_555
H6A C7A 1_555 1_555
C9A C8 1_555 1_555
C8A C9 1_555 1_555
H7A C8A 1_555 1_555
H8A C9A 1_555 1_555
H3A C5A 1_555 1_555
H2A C4A 1_555 1_555
H1A C3A 1_555 1_555
C10A C10 1_555 1_555
C11A C10A 1_555 1_555
C12A C11A 1_555 1_555
C13A C12A 1_555 1_555
C14A C13A 1_555 1_555
C15A C10A 1_555 1_555
C16A C10A 1_555 1_555
H12A C16A 1_555 1_555
H13A C16A 1_555 1_555
H14A C16A 1_555 1_555
C18A C17 1_555 1_555
C17A C18 1_555 1_555
H15A C17A 1_555 1_555
H16A C18A 1_555 1_555
H11A C14A 1_555 1_555
H10A C13A 1_555 1_555
H9A C12A 1_555 1_555
C2A C8A 1_555 1_555
C5A C6A 1_555 1_555
C6A C9A 1_555 1_555
C11A C17A 1_555 1_555
C14A C15A 1_555 1_555
C15A C18A 1_555 1_555

#END
