
#######################################################################
#
#                 Cambridge Crystallographic Data Centre
#                                CCDC 
#
#######################################################################
#
# If this CIF has been generated from an entry in the Cambridge 
# Structural Database, then it will include bibliographic, chemical, 
# crystal, experimental, refinement or atomic coordinate data resulting 
# from the CCDC's data processing and validation procedures.
#
#######################################################################

data_YOKGOW
_chemical_formula_moiety         'C26 H20 N4 O2'
_chemical_name_systematic        
7,19-Dimethyl-3,11,15,23-tetra-azaheptacyclo[12.10.2.2^2,13^.0^3,12^.0^5,10^.0^15,24^.0^17,22^]octacosa-5,7,9,11,17,19,21,23,25,27-decaene-4,16-dione
_symmetry_cell_setting           monoclinic
_symmetry_space_group_name_H-M   'P 21/c'
_symmetry_Int_Tables_number      14
_space_group_name_Hall           '-P 2ybc'
loop_
_symmetry_equiv_pos_site_id
_symmetry_equiv_pos_as_xyz
1 x,y,z
2 -x,1/2+y,1/2-z
3 -x,-y,-z
4 x,1/2-y,1/2+z
_cell_length_a                   11.2014(2)
_cell_length_b                   12.6257(3)
_cell_length_c                   14.0365(3)
_cell_angle_alpha                90
_cell_angle_beta                 91.668(1)
_cell_angle_gamma                90
_cell_volume                     1984.28
_exptl_crystal_colour            colorless
_exptl_crystal_description       needle
_cell_formula_units_Z            4
loop_
_atom_site_label
_atom_site_type_symbol
_atom_site_fract_x
_atom_site_fract_y
_atom_site_fract_z
C1 C 0.40434(10) 0.38927(9) 0.02505(8)
C2 C 0.30166(10) 0.45819(9) 0.03835(8)
C3 C 0.25248(11) 0.51510(9) -0.03861(8)
H1 H 0.2895 0.5118 -0.0986
C4 C 0.15137(11) 0.57594(9) -0.02931(9)
C5 C 0.10250(11) 0.58455(10) 0.06156(9)
H2 H 0.0348 0.6286 0.0699
C6 C 0.15076(11) 0.53040(10) 0.13868(9)
H3 H 0.1173 0.5387 0.1996
C7 C 0.24899(10) 0.46303(9) 0.12782(8)
C8 C 0.37421(10) 0.33581(9) 0.18981(8)
C9 C 0.41513(10) 0.25861(9) 0.26591(8)
H4 H 0.3829 0.2816 0.3283
C10 C 0.54968(11) 0.26072(10) 0.27297(8)
H5 H 0.5909 0.2639 0.3330
C11 C 0.60797(10) 0.25797(10) 0.19265(9)
H6 H 0.6928 0.2584 0.1930
C12 C 0.53603(10) 0.25418(9) 0.10025(8)
H7 H 0.5887 0.2769 0.0477
C13 C 0.09331(13) 0.62773(11) -0.11540(10)
H8 H 0.1343 0.6945 -0.1287
H9 H 0.0092 0.6420 -0.1031
H10 H 0.0987 0.5804 -0.1705
C14 C 0.16786(10) 0.13251(9) 0.15820(8)
C15 C 0.10587(10) 0.13316(9) 0.06505(8)
C16 C -0.01890(10) 0.12643(9) 0.05933(9)
H11 H -0.0623 0.1177 0.1159
C17 C -0.07955(10) 0.13237(9) -0.02748(9)
C18 C -0.01279(11) 0.14354(10) -0.11004(9)
H12 H -0.0536 0.1489 -0.1701
C19 C 0.11013(11) 0.14689(10) -0.10639(8)
H13 H 0.1531 0.1527 -0.1635
C20 C 0.17163(10) 0.14163(9) -0.01818(8)
C21 C 0.34945(10) 0.14083(8) 0.06630(8)
C22 C 0.48462(10) 0.13820(9) 0.07496(8)
H14 H 0.5167 0.1155 0.0124
C23 C 0.52017(10) 0.05679(9) 0.14955(8)
H15 H 0.5803 0.0055 0.1385
C24 C 0.46353(10) 0.06028(9) 0.23104(8)
H16 H 0.4837 0.0128 0.2815
C25 C 0.36628(10) 0.14160(9) 0.24161(8)
H17 H 0.3148 0.1185 0.2948
C26 C -0.21425(11) 0.13059(11) -0.03378(10)
H18 H -0.2450 0.0965 0.0232
H19 H -0.2407 0.0908 -0.0905
H20 H -0.2445 0.2033 -0.0381
N1 N 0.43677(8) 0.33051(8) 0.10585(6)
N2 N 0.28675(8) 0.39939(8) 0.20404(7)
N3 N 0.29213(8) 0.14100(7) 0.15238(6)
N4 N 0.29660(8) 0.14206(7) -0.01644(7)
O1 O 0.45870(7) 0.37991(7) -0.04902(6)
O2 O 0.11976(7) 0.12591(8) 0.23487(6)
loop_
_geom_bond_atom_site_label_1
_geom_bond_atom_site_label_2
_geom_bond_site_symmetry_1
_geom_bond_site_symmetry_2
C1 C2 1_555 1_555
C2 C3 1_555 1_555
C3 H1 1_555 1_555
C4 C3 1_555 1_555
C5 C4 1_555 1_555
H2 C5 1_555 1_555
C6 C5 1_555 1_555
H3 C6 1_555 1_555
C7 C2 1_555 1_555
C8 C9 1_555 1_555
C9 H4 1_555 1_555
C10 C9 1_555 1_555
H5 C10 1_555 1_555
C11 C10 1_555 1_555
H6 C11 1_555 1_555
C12 C11 1_555 1_555
H7 C12 1_555 1_555
C13 C4 1_555 1_555
H8 C13 1_555 1_555
H9 C13 1_555 1_555
H10 C13 1_555 1_555
C14 C15 1_555 1_555
C15 C16 1_555 1_555
C16 H11 1_555 1_555
C17 C16 1_555 1_555
C18 C17 1_555 1_555
H12 C18 1_555 1_555
C19 C18 1_555 1_555
H13 C19 1_555 1_555
C20 C15 1_555 1_555
C21 C22 1_555 1_555
C22 C12 1_555 1_555
H14 C22 1_555 1_555
C23 C22 1_555 1_555
H15 C23 1_555 1_555
C24 C23 1_555 1_555
H16 C24 1_555 1_555
C25 C9 1_555 1_555
H17 C25 1_555 1_555
C26 C17 1_555 1_555
H18 C26 1_555 1_555
H19 C26 1_555 1_555
H20 C26 1_555 1_555
N1 C1 1_555 1_555
N2 C7 1_555 1_555
N3 C14 1_555 1_555
N4 C20 1_555 1_555
O1 C1 1_555 1_555
O2 C14 1_555 1_555
C6 C7 1_555 1_555
C8 N1 1_555 1_555
C8 N2 1_555 1_555
C12 N1 1_555 1_555
C19 C20 1_555 1_555
C21 N3 1_555 1_555
C21 N4 1_555 1_555
C24 C25 1_555 1_555
C25 N3 1_555 1_555

#END
