
#######################################################################
#
#                 Cambridge Crystallographic Data Centre
#                                CCDC 
#
#######################################################################
#
# If this CIF has been generated from an entry in the Cambridge 
# Structural Database, then it will include bibliographic, chemical, 
# crystal, experimental, refinement or atomic coordinate data resulting 
# from the CCDC's data processing and validation procedures.
#
#######################################################################

data_YOKGEM
_chemical_formula_moiety         'C38 H28 N4 O2'
_chemical_name_systematic        
6-Benzoyl-4-imino-1,7-bis(3-methylphenyl)-2-oxo-7a-phenyl-4,7,7a,7b-tetrahydro-1H-cyclopropa[a]indolizine-1a,5(2H)-dicarbonitrile
_symmetry_cell_setting           orthorhombic
_symmetry_space_group_name_H-M   'P n a 21'
_symmetry_Int_Tables_number      33
_space_group_name_Hall           'P 2c -2n'
loop_
_symmetry_equiv_pos_site_id
_symmetry_equiv_pos_as_xyz
1 x,y,z
2 -x,-y,1/2+z
3 1/2+x,1/2-y,z
4 1/2-x,1/2+y,1/2+z
_cell_length_a                   11.1787(13)
_cell_length_b                   22.467(2)
_cell_length_c                   12.3790(13)
_cell_angle_alpha                90
_cell_angle_beta                 90
_cell_angle_gamma                90
_cell_volume                     3109.01
_cell_formula_units_Z            4
loop_
_atom_site_label
_atom_site_type_symbol
_atom_site_fract_x
_atom_site_fract_y
_atom_site_fract_z
C1 C 0.26842(19) -0.10351(10) 0.8998(2)
H1 H 0.2142 -0.1203 0.9480
C2 C 0.3576(2) -0.13786(10) 0.8569(2)
H2 H 0.3639 -0.1778 0.8761
C3 C 0.4382(2) -0.11334(11) 0.7850(2)
H3 H 0.4984 -0.1369 0.7555
C4 C 0.4300(2) -0.05468(12) 0.7572(2)
H4 H 0.4843 -0.0384 0.7086
C5 C 0.34110(18) -0.01955(10) 0.80117(19)
H5 H 0.3368 0.0206 0.7831
C6 C 0.25799(16) -0.04376(9) 0.87234(17)
C7 C 0.15913(17) -0.00809(9) 0.91550(16)
C8 C 0.14155(15) 0.05489(8) 0.87552(14)
C9 C 0.06118(15) 0.06205(8) 0.77799(14)
H6 H 0.0759 0.0282 0.7299
C10 C -0.07123(16) 0.06174(9) 0.80699(16)
C11 C -0.11648(18) 0.09340(9) 0.89376(18)
H7 H -0.0638 0.1125 0.9404
C12 C -0.2396(2) 0.09742(11) 0.9131(2)
C13 C -0.2846(3) 0.13303(18) 1.0093(4)
H8 H -0.2754 0.1099 1.0740
H9 H -0.3676 0.1425 0.9991
H10 H -0.2393 0.1692 1.0155
C14 C -0.3153(2) 0.06819(15) 0.8438(3)
H11 H -0.3975 0.0703 0.8548
C15 C -0.2719(2) 0.03617(16) 0.7593(3)
H12 H -0.3249 0.0168 0.7133
C16 C -0.1501(2) 0.03189(12) 0.74067(19)
H13 H -0.1215 0.0090 0.6836
C17 C 0.18884(17) 0.10232(9) 0.92435(16)
C18 C 0.2694(2) 0.09524(11) 1.0146(2)
C19 C 0.15807(18) 0.16432(9) 0.89463(16)
C20 C 0.10077(14) 0.11957(8) 0.71728(14)
C21 C 0.22331(16) 0.11079(8) 0.66564(15)
C22 C 0.32530(16) 0.14002(9) 0.70029(17)
H14 H 0.3201 0.1681 0.7553
C23 C 0.43546(19) 0.12759(11) 0.6533(2)
H15 H 0.5039 0.1468 0.6779
C24 C 0.4437(2) 0.08703(12) 0.5707(2)
H16 H 0.5176 0.0785 0.5399
C25 C 0.3425(2) 0.05921(13) 0.5338(2)
H17 H 0.3479 0.0325 0.4767
C26 C 0.2326(2) 0.07049(10) 0.58073(19)
H18 H 0.1647 0.0511 0.5554
C27 C 0.00341(16) 0.20875(9) 0.78049(17)
C28 C -0.05539(16) 0.19250(8) 0.67566(17)
C29 C -0.18321(19) 0.19910(9) 0.6700(2)
C30 C 0.00962(16) 0.13870(8) 0.63268(15)
H19 H -0.0367 0.1079 0.5953
C31 C 0.02779(17) 0.19665(9) 0.57817(17)
H20 H 0.1051 0.2156 0.5926
C32 C -0.0205(2) 0.20680(10) 0.46702(18)
C33 C 0.0198(3) 0.17150(14) 0.3852(2)
H21 H 0.0734 0.1410 0.4000
C34 C -0.0191(3) 0.18081(18) 0.2785(2)
C35 C 0.0217(6) 0.1410(3) 0.1931(4)
H22 H -0.0317 0.1077 0.1879
H23 H 0.1008 0.1271 0.2095
H24 H 0.0227 0.1621 0.1256
C36 C -0.0952(3) 0.22622(18) 0.2585(3)
H25 H -0.1199 0.2334 0.1879
C37 C -0.1361(3) 0.26123(14) 0.3382(3)
H26 H -0.1895 0.2917 0.3225
C38 C -0.0997(2) 0.25240(11) 0.4424(2)
H27 H -0.1282 0.2770 0.4970
N1 N 0.3344(3) 0.08747(13) 1.0831(2)
N2 N 0.1816(2) 0.20584(11) 0.95900(19)
N3 N 0.09765(12) 0.16900(6) 0.79552(12)
N4 N -0.28377(17) 0.20331(10) 0.6679(3)
O1 O 0.08570(14) -0.02680(7) 0.97925(14)
O2 O -0.02532(15) 0.24782(7) 0.84115(14)
H28 H 0.155(3) 0.2406(17) 0.931(3)
loop_
_geom_bond_atom_site_label_1
_geom_bond_atom_site_label_2
_geom_bond_site_symmetry_1
_geom_bond_site_symmetry_2
C1 H1 1_555 1_555
C2 C1 1_555 1_555
H2 C2 1_555 1_555
C3 C2 1_555 1_555
H3 C3 1_555 1_555
C4 C3 1_555 1_555
H4 C4 1_555 1_555
C5 C4 1_555 1_555
H5 C5 1_555 1_555
C6 C1 1_555 1_555
C7 C6 1_555 1_555
C8 C7 1_555 1_555
C9 C8 1_555 1_555
H6 C9 1_555 1_555
C10 C9 1_555 1_555
C11 C10 1_555 1_555
H7 C11 1_555 1_555
C12 C11 1_555 1_555
C13 C12 1_555 1_555
H8 C13 1_555 1_555
H9 C13 1_555 1_555
H10 C13 1_555 1_555
C14 C12 1_555 1_555
H11 C14 1_555 1_555
C15 C14 1_555 1_555
H12 C15 1_555 1_555
C16 C10 1_555 1_555
H13 C16 1_555 1_555
C17 C8 1_555 1_555
C18 C17 1_555 1_555
C19 C17 1_555 1_555
C20 C9 1_555 1_555
C21 C20 1_555 1_555
C22 C21 1_555 1_555
H14 C22 1_555 1_555
C23 C22 1_555 1_555
H15 C23 1_555 1_555
C24 C23 1_555 1_555
H16 C24 1_555 1_555
C25 C24 1_555 1_555
H17 C25 1_555 1_555
C26 C21 1_555 1_555
H18 C26 1_555 1_555
C27 C28 1_555 1_555
C28 C29 1_555 1_555
C29 N4 1_555 1_555
C30 C20 1_555 1_555
H19 C30 1_555 1_555
C31 C28 1_555 1_555
H20 C31 1_555 1_555
C32 C31 1_555 1_555
C33 C32 1_555 1_555
H21 C33 1_555 1_555
C34 C33 1_555 1_555
C35 C34 1_555 1_555
H22 C35 1_555 1_555
H23 C35 1_555 1_555
H24 C35 1_555 1_555
C36 C34 1_555 1_555
H25 C36 1_555 1_555
C37 C36 1_555 1_555
H26 C37 1_555 1_555
C38 C32 1_555 1_555
H27 C38 1_555 1_555
N1 C18 1_555 1_555
N2 C19 1_555 1_555
N3 C19 1_555 1_555
O1 C7 1_555 1_555
O2 C27 1_555 1_555
H28 N2 1_555 1_555
C5 C6 1_555 1_555
C15 C16 1_555 1_555
C20 N3 1_555 1_555
C25 C26 1_555 1_555
C27 N3 1_555 1_555
C28 C30 1_555 1_555
C30 C31 1_555 1_555
C37 C38 1_555 1_555

#END
