
#######################################################################
#
#                 Cambridge Crystallographic Data Centre
#                                CCDC 
#
#######################################################################
#
# If this CIF has been generated from an entry in the Cambridge 
# Structural Database, then it will include bibliographic, chemical, 
# crystal, experimental, refinement or atomic coordinate data resulting 
# from the CCDC's data processing and validation procedures.
#
#######################################################################

data_YOKHOV
_chemical_formula_moiety         'C21 H23 N1 O9'
_chemical_name_systematic        
'Tetramethyl 4,7-epoxo-11-isopropyl-11-azatricyclo(6.2.1.0^2,7^)undeca-2,5,9-triene-5,6,9,10-tetracarboxylate'
_symmetry_cell_setting           monoclinic
_symmetry_space_group_name_H-M   'P 21/c'
_symmetry_Int_Tables_number      14
_space_group_name_Hall           '-P 2ybc'
loop_
_symmetry_equiv_pos_site_id
_symmetry_equiv_pos_as_xyz
1 x,y,z
2 -x,1/2+y,1/2-z
3 -x,-y,-z
4 x,1/2-y,1/2+z
_cell_length_a                   9.819(7)
_cell_length_b                   8.906(4)
_cell_length_c                   23.503(7)
_cell_angle_alpha                90
_cell_angle_beta                 91.72
_cell_angle_gamma                90
_cell_volume                     2054.36
_exptl_crystal_colour            white
_chemical_melting_point          107-108deg.C
_cell_formula_units_Z            4
loop_
_atom_site_label
_atom_site_type_symbol
_atom_site_fract_x
_atom_site_fract_y
_atom_site_fract_z
N1 N 0.3094(9) 0.2630(10) 0.0544(4)
C1 C 0.4176(11) 0.3554(13) 0.0818(4)
C2 C 0.4990(11) 0.2423(14) 0.1190(5)
C3 C 0.4143(13) 0.1337(14) 0.1317(5)
C4 C 0.2716(12) 0.1765(14) 0.1050(5)
C5 C 0.2319(12) 0.3101(15) 0.1422(5)
C6 C 0.1774(12) 0.3546(16) 0.1895(5)
C7 C 0.2416(13) 0.5190(16) 0.1994(5)
C8 C 0.1799(12) 0.6176(14) 0.1523(6)
C9 C 0.2350(11) 0.5725(12) 0.1038(6)
C10 C 0.3279(1) 0.4433(14) 0.1217(5)
C11 C 0.3561(11) 0.1775(13) 0.0048(5)
C12 C 0.3552(14) 0.2778(15) -0.0456(5)
C13 C 0.2713(14) 0.0403(14) -0.0056(5)
C14 C 0.6413(13) 0.2669(17) 0.1413(5)
C15 C 0.7939(12) 0.4569(16) 0.1689(6)
C16 C 0.4242(14) 0.0051(17) 0.1715(6)
C17 C 0.5493(13) -0.1997(13) 0.2053(5)
C18 C 0.0781(15) 0.7320(16) 0.1669(6)
C19 C -0.0377(13) 0.9482(16) 0.1474(6)
C20 C 0.2177(13) 0.6211(13) 0.0447(6)
C21 C 0.0626(12) 0.6885(15) -0.0286(5)
O1 O 0.3732(7) 0.4916(9) 0.1771(3)
O2 O 0.7161(10) 0.1770(11) 0.1560(5)
O3 O 0.6654(9) 0.4133(10) 0.1430(4)
O4 O 0.3309(11) -0.0306(13) 0.1992(5)
O5 O 0.5339(9) -0.0695(10) 0.1695(4)
O6 O 0.0157(10) 0.7201(10) 0.2100(4)
O7 O 0.0609(9) 0.8384(10) 0.1288(4)
O8 O 0.3086(9) 0.6393(10) 0.0130(4)
O9 O 0.0867(8) 0.6395(10) 0.0291(3)
H1 H 0.476 0.421 0.055
H2 H 0.203 0.091 0.100
H3 H 0.107 0.297 0.214
H4 H 0.234 0.557 0.241
H5 H 0.455 0.139 0.011
H6 H 0.371 0.229 -0.083
H7 H 0.422 0.364 -0.041
H8 H 0.258 0.323 -0.046
H9 H 0.172 0.059 0.007
H10 H 0.303 -0.052 0.016
H11 H 0.267 0.018 -0.048
H12 H 0.836 0.554 0.159
H13 H 0.872 0.376 0.168
H14 H 0.775 0.463 0.212
H15 H 0.643 -0.217 0.224
H16 H 0.520 -0.299 0.187
H17 H 0.484 -0.185 0.240
H18 H -0.132 0.930 0.127
H19 H -0.013 1.056 0.138
H20 H -0.050 0.937 0.190
H21 H 0.128 0.772 -0.041
H22 H -0.032 0.725 -0.037
H23 H 0.082 0.596 -0.054
loop_
_geom_bond_atom_site_label_1
_geom_bond_atom_site_label_2
_geom_bond_site_symmetry_1
_geom_bond_site_symmetry_2
N1 C1 1_555 1_555
C1 C2 1_555 1_555
C2 C3 1_555 1_555
C3 C4 1_555 1_555
C4 N1 1_555 1_555
C5 C4 1_555 1_555
C6 C5 1_555 1_555
C7 C6 1_555 1_555
C8 C7 1_555 1_555
C9 C8 1_555 1_555
C10 C1 1_555 1_555
C11 N1 1_555 1_555
C12 C11 1_555 1_555
C13 C11 1_555 1_555
C14 C2 1_555 1_555
C15 O3 1_555 1_555
C16 C3 1_555 1_555
C17 O5 1_555 1_555
C18 C8 1_555 1_555
C19 O7 1_555 1_555
C20 C9 1_555 1_555
C21 O9 1_555 1_555
O1 C7 1_555 1_555
O2 C14 1_555 1_555
O3 C14 1_555 1_555
O4 C16 1_555 1_555
O5 C16 1_555 1_555
O6 C18 1_555 1_555
O7 C18 1_555 1_555
O8 C20 1_555 1_555
O9 C20 1_555 1_555
H1 C1 1_555 1_555
H2 C4 1_555 1_555
H3 C6 1_555 1_555
H4 C7 1_555 1_555
H5 C11 1_555 1_555
H6 C12 1_555 1_555
H7 C12 1_555 1_555
H8 C12 1_555 1_555
H9 C13 1_555 1_555
H10 C13 1_555 1_555
H11 C13 1_555 1_555
H12 C15 1_555 1_555
H13 C15 1_555 1_555
H14 C15 1_555 1_555
H15 C17 1_555 1_555
H16 C17 1_555 1_555
H17 C17 1_555 1_555
H18 C19 1_555 1_555
H19 C19 1_555 1_555
H20 C19 1_555 1_555
H21 C21 1_555 1_555
H22 C21 1_555 1_555
H23 C21 1_555 1_555
C5 C10 1_555 1_555
C9 C10 1_555 1_555
C10 O1 1_555 1_555

#END
