
#######################################################################
#
#                 Cambridge Crystallographic Data Centre
#                                CCDC 
#
#######################################################################
#
# If this CIF has been generated from an entry in the Cambridge 
# Structural Database, then it will include bibliographic, chemical, 
# crystal, experimental, refinement or atomic coordinate data resulting 
# from the CCDC's data processing and validation procedures.
#
#######################################################################

data_YOKJEN
_chemical_compound_source        'Melia volkensii Gurke'
_chemical_formula_moiety         'C45 H62 O12,C1 H4 O1'
_chemical_name_systematic        'Meliavolin diacetate methanol solvate'
_symmetry_cell_setting           orthorhombic
_symmetry_space_group_name_H-M   'P 21 21 21'
_symmetry_Int_Tables_number      19
_space_group_name_Hall           'P 2ac 2ab'
loop_
_symmetry_equiv_pos_site_id
_symmetry_equiv_pos_as_xyz
1 x,y,z
2 1/2-x,-y,1/2+z
3 1/2+x,1/2-y,-z
4 -x,1/2+y,1/2-z
_cell_length_a                   10.968(1)
_cell_length_b                   16.702(1)
_cell_length_c                   25.33(3)
_cell_angle_alpha                90
_cell_angle_beta                 90
_cell_angle_gamma                90
_cell_volume                     4640.14
_exptl_crystal_colour            colorless
_chemical_melting_point          164-165deg.C
_cell_formula_units_Z            4
loop_
_atom_site_label
_atom_site_type_symbol
_atom_site_fract_x
_atom_site_fract_y
_atom_site_fract_z
O1 O 0.920(1) 0.7186(6) 0.3905(4)
O2 O 1.077(1) 0.6753(7) 0.4378(5)
O3 O 0.8810(9) 0.6451(6) 0.2930(4)
O4 O 0.988(1) 0.5351(7) 0.2751(4)
O5 O 0.466(1) 0.8679(8) -0.1062(5)
O6 O 0.665(1) 0.9420(7) -0.0099(5)
O7 O 0.6397(9) 0.8460(6) 0.2817(4)
O8 O 0.538(1) 0.9566(9) 0.3042(6)
O9 O 0.574(1) 0.6193(7) 0.0352(5)
O10 O 0.690(2) 0.541(1) -0.0112(6)
O11 O 0.567(1) 0.7281(7) -0.0759(5)
O12 O 0.703(1) 0.7697(8) -0.1333(5)
C1 C 0.712(1) 0.7030(9) 0.4133(6)
C2 C 0.834(2) 0.6603(9) 0.4137(6)
C3 C 0.836(2) 0.5854(9) 0.3786(6)
C4 C 0.793(1) 0.5985(9) 0.3224(6)
C5 C 0.660(2) 0.611(1) 0.2193(7)
C6 C 0.622(1) 0.6375(9) 0.1629(6)
C7 C 0.545(1) 0.7545(9) 0.1042(6)
C8 C 0.492(2) 0.838(1) 0.1200(7)
C9 C 0.472(2) 0.826(1) 0.1775(7)
C10 C 0.535(1) 0.7968(9) 0.2947(6)
C11 C 0.552(1) 0.7678(9) 0.3485(6)
C12 C 1.034(1) 0.7219(9) 0.4056(6)
C13 C 1.104(1) 0.7863(9) 0.3827(6)
C14 C 1.054(2) 0.829(1) 0.3397(6)
C15 C 1.116(2) 0.893(1) 0.3184(8)
C16 C 1.233(2) 0.911(1) 0.3375(8)
C17 C 1.279(2) 0.870(1) 0.3745(7)
C18 C 1.218(2) 0.806(1) 0.3999(7)
C19 C 0.976(2) 0.607(1) 0.2688(7)
C20 C 1.051(2) 0.660(1) 0.2416(7)
C21 C 0.669(1) 0.6422(9) 0.3187(6)
C22 C 0.646(1) 0.6739(9) 0.2617(6)
C23 C 0.617(1) 0.7268(9) 0.1568(6)
C24 C 0.613(2) 0.7581(9) 0.0533(7)
C25 C 0.529(2) 0.789(1) 0.0090(6)
C26 C 0.590(2) 0.801(1) -0.0449(7)
C27 C 0.542(2) 0.874(1) -0.0723(7)
C28 C 0.585(2) 0.954(1) -0.0554(7)
C29 C 0.667(2) 0.982(1) -0.1004(9)
C30 C 0.537(1) 0.7665(9) 0.1990(6)
C31 C 0.538(1) 0.7296(8) 0.2542(6)
C32 C 0.623(2) 0.929(1) 0.2851(7)
C33 C 0.735(2) 0.966(1) 0.2621(7)
C34 C 0.667(1) 0.7153(9) 0.3542(6)
C35 C 0.625(2) 0.655(1) 0.4451(7)
C36 C 0.728(2) 0.782(1) 0.4400(7)
C37 C 0.572(2) 0.578(1) 0.3343(6)
C38 C 0.744(2) 0.764(1) 0.1574(7)
C39 C 0.671(2) 0.677(1) 0.0355(7)
C40 C 0.601(3) 0.549(2) 0.011(1)
C41 C 0.494(2) 0.498(1) 0.015(1)
C42 C 0.634(2) 0.719(1) -0.1188(9)
C43 C 0.599(2) 0.646(1) -0.1493(9)
C44 C 0.492(2) 1.010(1) -0.045(1)
C45 C 0.411(2) 0.684(1) 0.2564(6)
H1 H 0.857 0.640 0.450
H2 H 0.786 0.544 0.396
H3 H 0.919 0.562 0.380
H4 H 0.791 0.543 0.306
H5 H 0.744 0.596 0.218
H6 H 0.613 0.567 0.230
H7 H 0.542 0.616 0.156
H8 H 0.677 0.614 0.137
H9 H 0.489 0.713 0.094
H10 H 0.417 0.851 0.103
H11 H 0.548 0.882 0.114
H12 H 0.421 0.862 0.201
H13 H 0.460 0.824 0.293
H14 H 0.482 0.735 0.359
H15 H 0.556 0.812 0.373
H16 H 0.975 0.812 0.325
H17 H 1.082 0.931 0.291
H18 H 1.279 0.952 0.323
H19 H 1.359 0.884 0.390
H20 H 1.251 0.772 0.428
H21 H 1.128 0.671 0.259
H22 H 1.013 0.712 0.235
H23 H 1.072 0.639 0.207
H24 H 0.714 0.714 0.257
H25 H 0.686 0.796 0.057
H26 H 0.491 0.841 0.020
H27 H 0.461 0.753 0.005
H28 H 0.682 0.806 -0.036
H29 H 0.710 1.038 -0.094
H30 H 0.744 0.949 -0.105
H31 H 0.634 0.987 -0.134
H32 H 0.647 1.002 0.012
H33 H 0.748 1.020 0.274
H34 H 0.735 0.968 0.224
H35 H 0.810 0.937 0.272
H36 H 0.729 0.749 0.341
H37 H 0.549 0.678 0.451
H38 H 0.658 0.635 0.478
H39 H 0.606 0.602 0.426
H40 H 0.755 0.824 0.416
H41 H 0.781 0.783 0.469
H42 H 0.648 0.803 0.453
H43 H 0.499 0.604 0.349
H44 H 0.602 0.544 0.362
H45 H 0.548 0.547 0.306
H46 H 0.757 0.803 0.185
H47 H 0.767 0.790 0.125
H48 H 0.810 0.723 0.163
H49 H 0.707 0.680 -0.002
H50 H 0.738 0.659 0.057
H51 H 0.442 0.491 -0.014
H52 H 0.442 0.507 0.046
H53 H 0.519 0.438 0.023
H54 H 0.578 0.598 -0.126
H55 H 0.655 0.626 -0.174
H56 H 0.520 0.653 -0.169
H57 H 0.443 0.993 -0.013
H58 H 0.432 1.015 -0.072
H59 H 0.516 1.065 -0.036
H60 H 0.401 0.652 0.288
H61 H 0.395 0.650 0.227
H62 H 0.341 0.723 0.258
O13 O 0.775(2) 0.927(1) 0.5591(7)
C46 C 0.747(4) 0.973(2) 0.605(1)
H63 H 0.725 1.018 0.601
H64 H 0.831 0.969 0.625
H65 H 0.700 0.935 0.626
loop_
_geom_bond_atom_site_label_1
_geom_bond_atom_site_label_2
_geom_bond_site_symmetry_1
_geom_bond_site_symmetry_2
O1 C2 1_555 1_555
O2 C12 1_555 1_555
O3 C4 1_555 1_555
O4 C19 1_555 1_555
O5 C27 1_555 1_555
O6 C28 1_555 1_555
O7 C10 1_555 1_555
O8 C32 1_555 1_555
O9 C39 1_555 1_555
O10 C40 1_555 1_555
O11 C26 1_555 1_555
O12 C42 1_555 1_555
C1 C2 1_555 1_555
C2 C3 1_555 1_555
C3 C4 1_555 1_555
C4 C21 1_555 1_555
C5 C6 1_555 1_555
C6 C23 1_555 1_555
C7 C8 1_555 1_555
C8 C9 1_555 1_555
C9 C30 1_555 1_555
C10 C11 1_555 1_555
C11 C34 1_555 1_555
C12 O1 1_555 1_555
C13 C12 1_555 1_555
C14 C13 1_555 1_555
C15 C14 1_555 1_555
C16 C15 1_555 1_555
C17 C16 1_555 1_555
C18 C13 1_555 1_555
C19 O3 1_555 1_555
C20 C19 1_555 1_555
C21 C22 1_555 1_555
C22 C5 1_555 1_555
C23 C7 1_555 1_555
C24 C7 1_555 1_555
C25 C24 1_555 1_555
C26 C25 1_555 1_555
C27 C26 1_555 1_555
C28 C27 1_555 1_555
C29 C28 1_555 1_555
C30 C23 1_555 1_555
C31 C10 1_555 1_555
C32 O7 1_555 1_555
C33 C32 1_555 1_555
C34 C1 1_555 1_555
C35 C1 1_555 1_555
C36 C1 1_555 1_555
C37 C21 1_555 1_555
C38 C23 1_555 1_555
C39 C24 1_555 1_555
C40 O9 1_555 1_555
C41 C40 1_555 1_555
C42 O11 1_555 1_555
C43 C42 1_555 1_555
C44 C28 1_555 1_555
C45 C31 1_555 1_555
O13 C46 1_555 1_555
C46 H63 1_555 1_555
H1 C2 1_555 1_555
H2 C3 1_555 1_555
H3 C3 1_555 1_555
H4 C4 1_555 1_555
H5 C5 1_555 1_555
H6 C5 1_555 1_555
H7 C6 1_555 1_555
H8 C6 1_555 1_555
H9 C7 1_555 1_555
H10 C8 1_555 1_555
H11 C8 1_555 1_555
H12 C9 1_555 1_555
H13 C10 1_555 1_555
H14 C11 1_555 1_555
H15 C11 1_555 1_555
H16 C14 1_555 1_555
H17 C15 1_555 1_555
H18 C16 1_555 1_555
H19 C17 1_555 1_555
H20 C18 1_555 1_555
H21 C20 1_555 1_555
H22 C20 1_555 1_555
H23 C20 1_555 1_555
H24 C22 1_555 1_555
H25 C24 1_555 1_555
H26 C25 1_555 1_555
H27 C25 1_555 1_555
H28 C26 1_555 1_555
H29 C29 1_555 1_555
H30 C29 1_555 1_555
H31 C29 1_555 1_555
H32 O6 1_555 1_555
H33 C33 1_555 1_555
H34 C33 1_555 1_555
H35 C33 1_555 1_555
H36 C34 1_555 1_555
H37 C35 1_555 1_555
H38 C35 1_555 1_555
H39 C35 1_555 1_555
H40 C36 1_555 1_555
H41 C36 1_555 1_555
H42 C36 1_555 1_555
H43 C37 1_555 1_555
H44 C37 1_555 1_555
H45 C37 1_555 1_555
H46 C38 1_555 1_555
H47 C38 1_555 1_555
H48 C38 1_555 1_555
H49 C39 1_555 1_555
H50 C39 1_555 1_555
H51 C41 1_555 1_555
H52 C41 1_555 1_555
H53 C41 1_555 1_555
H54 C43 1_555 1_555
H55 C43 1_555 1_555
H56 C43 1_555 1_555
H57 C44 1_555 1_555
H58 C44 1_555 1_555
H59 C44 1_555 1_555
H60 C45 1_555 1_555
H61 C45 1_555 1_555
H62 C45 1_555 1_555
H64 C46 1_555 1_555
H65 C46 1_555 1_555
C17 C18 1_555 1_555
C21 C34 1_555 1_555
C22 C31 1_555 1_555
C30 C31 1_555 1_555

#END
