
#######################################################################
#
#                 Cambridge Crystallographic Data Centre
#                                CCDC 
#
#######################################################################
#
# If this CIF has been generated from an entry in the Cambridge 
# Structural Database, then it will include bibliographic, chemical, 
# crystal, experimental, refinement or atomic coordinate data resulting 
# from the CCDC's data processing and validation procedures.
#
#######################################################################

data_YOKMOA
_chemical_formula_moiety         'C12 H16 O3 S1'
_chemical_name_systematic        2-p-Tosylmethyltetrahydrofuran
_symmetry_cell_setting           monoclinic
_symmetry_space_group_name_H-M   'P 21/c'
_symmetry_Int_Tables_number      14
_space_group_name_Hall           '-P 2ybc'
loop_
_symmetry_equiv_pos_site_id
_symmetry_equiv_pos_as_xyz
1 x,y,z
2 -x,1/2+y,1/2-z
3 -x,-y,-z
4 x,1/2-y,1/2+z
_cell_length_a                   5.643(1)
_cell_length_b                   15.420(2)
_cell_length_c                   14.058(2)
_cell_angle_alpha                90
_cell_angle_beta                 103.508(9)
_cell_angle_gamma                90
_cell_volume                     1189.42
_cell_formula_units_Z            4
loop_
_atom_site_label
_atom_site_type_symbol
_atom_site_fract_x
_atom_site_fract_y
_atom_site_fract_z
S1 S 0.13736(9) 0.16881(4) 0.54912(4)
O1 O 0.1778(4) 0.2569(1) 0.5240(1)
O2 O -0.1094(3) 0.1394(1) 0.5384(1)
O3 O 0.0073(3) 0.1224(1) 0.3277(1)
C1 C 0.2914(4) 0.1528(1) 0.6726(2)
C2 C 0.1813(4) 0.1061(2) 0.7339(2)
C3 C 0.2994(5) 0.0969(2) 0.8311(2)
C4 C 0.5260(4) 0.1331(1) 0.8689(2)
C5 C 0.6333(4) 0.1800(2) 0.8055(2)
C6 C 0.5178(4) 0.1903(2) 0.7080(2)
C7 C 0.6510(5) 0.1223(2) 0.9745(2)
C8 C 0.2910(4) 0.0995(1) 0.4814(2)
C9 C 0.2566(4) 0.1282(1) 0.3768(2)
C10 C 0.3878(4) 0.0712(2) 0.3167(2)
C11 C 0.2338(5) 0.0825(2) 0.2126(2)
C12 C 0.0013(5) 0.1257(2) 0.2254(2)
H1 H 0.0176 0.0792 0.7083
H2 H 0.2188 0.0630 0.8754
H3 H 0.7973 0.2067 0.8310
H4 H 0.5969 0.2246 0.6635
H5 H 0.5461 0.0869 1.0080
H6 H 0.8106 0.0923 0.9798
H7 H 0.6799 0.1806 1.0063
H8 H 0.2256 0.0393 0.4823
H9 H 0.4691 0.0998 0.5132
H10 H 0.3131 0.1895 0.3751
H11 H 0.3899 0.0092 0.3380
H12 H 0.5586 0.0916 0.3222
H13 H 0.1973 0.0250 0.1795
H14 H 0.3197 0.1202 0.1735
H15 H -0.1443 0.0937 0.1873
H16 H -0.0049 0.1872 0.2027
loop_
_geom_bond_atom_site_label_1
_geom_bond_atom_site_label_2
_geom_bond_site_symmetry_1
_geom_bond_site_symmetry_2
S1 O1 1_555 1_555
O2 S1 1_555 1_555
O3 C9 1_555 1_555
C1 S1 1_555 1_555
C2 C1 1_555 1_555
C3 C2 1_555 1_555
C4 C3 1_555 1_555
C5 C4 1_555 1_555
C6 C1 1_555 1_555
C7 C4 1_555 1_555
C8 S1 1_555 1_555
C9 C8 1_555 1_555
C10 C9 1_555 1_555
C11 C10 1_555 1_555
C12 O3 1_555 1_555
H1 C2 1_555 1_555
H2 C3 1_555 1_555
H3 C5 1_555 1_555
H4 C6 1_555 1_555
H5 C7 1_555 1_555
H6 C7 1_555 1_555
H7 C7 1_555 1_555
H8 C8 1_555 1_555
H9 C8 1_555 1_555
H10 C9 1_555 1_555
H11 C10 1_555 1_555
H12 C10 1_555 1_555
H13 C11 1_555 1_555
H14 C11 1_555 1_555
H15 C12 1_555 1_555
H16 C12 1_555 1_555
C5 C6 1_555 1_555
C11 C12 1_555 1_555

#END
