
#######################################################################
#
#                 Cambridge Crystallographic Data Centre
#                                CCDC 
#
#######################################################################
#
# If this CIF has been generated from an entry in the Cambridge 
# Structural Database, then it will include bibliographic, chemical, 
# crystal, experimental, refinement or atomic coordinate data resulting 
# from the CCDC's data processing and validation procedures.
#
#######################################################################

data_YOKPIZ
_chemical_formula_moiety         'C31 H38 O11'
_chemical_name_systematic        
'18-(3-furyl)-15-hydroxy-7,13,17-trimethyl-21-methylene-5,10,20-trioxo-2,6,9-trioxapentacyclo[12.6.1.0^1,17^.0^3,13^.0^7,12^]henicos-16-yl 2-hydroxy-3-methylbutanoate'
_symmetry_cell_setting           orthorhombic
_symmetry_space_group_name_H-M   'P 21 21 21'
_symmetry_Int_Tables_number      19
_space_group_name_Hall           'P 2ac 2ab'
loop_
_symmetry_equiv_pos_site_id
_symmetry_equiv_pos_as_xyz
1 x,y,z
2 1/2-x,-y,1/2+z
3 1/2+x,1/2-y,-z
4 -x,1/2+y,1/2-z
_cell_length_a                   8.0002(2)
_cell_length_b                   15.5370(3)
_cell_length_c                   22.9478(4)
_cell_angle_alpha                90
_cell_angle_beta                 90
_cell_angle_gamma                90
_cell_volume                     2852.39
_exptl_crystal_colour            colorless
_cell_formula_units_Z            4
loop_
_atom_site_label
_atom_site_type_symbol
_atom_site_fract_x
_atom_site_fract_y
_atom_site_fract_z
O1 O 0.86374(14) 0.79110(6) 0.10655(4)
O2 O 1.07171(13) 1.02190(6) 0.06836(5)
O3 O 1.06753(17) 0.62552(7) 0.24042(5)
O4 O 1.41728(16) 1.09692(10) -0.01337(6)
H1 H 1.4134 1.1186 -0.0459
O5 O 1.16290(14) 0.96456(7) 0.17879(5)
H2 H 1.1677 0.9961 0.2074
O6 O 0.48526(17) 0.78497(9) 0.08307(6)
C1 C 0.71407(19) 0.89415(10) 0.16496(7)
C2 C 1.00210(19) 0.94380(9) 0.09304(6)
H3 H 1.0743 0.8946 0.0842
C3 C 1.1168(2) 0.78704(10) 0.22368(6)
H4 H 1.1748 0.8108 0.1897
O7 O 1.30511(17) 0.95477(9) 0.03841(8)
C4 C 0.8251(2) 0.88555(10) 0.00508(7)
H5 H 0.9080 0.8391 0.0058
O8 O 0.8526(3) 1.03337(11) -0.12133(7)
O9 O 0.8534(2) 0.55078(9) 0.21195(8)
C5 C 0.9253(2) 0.79881(10) 0.21165(6)
C6 C 1.1711(3) 0.84276(12) 0.27631(8)
H6 H 1.2892 0.8558 0.2725
H7 H 1.1107 0.8968 0.2750
C7 C 0.99449(19) 0.95869(9) 0.15941(6)
H8 H 0.9470 1.0163 0.1645
O10 O 1.1871(2) 0.71931(11) 0.33986(6)
C8 C 0.8643(2) 0.94172(10) -0.04651(7)
C9 C 0.8555(2) 0.74476(10) 0.15975(7)
H9 H 0.7377 0.7321 0.1678
C10 C 0.88055(19) 0.89658(10) 0.19628(6)
H10 H 0.8605 0.9256 0.2335
C11 C 1.2534(2) 1.17895(11) 0.05708(9)
H11 H 1.1416 1.1803 0.0745
C12 C 0.82889(18) 0.93055(9) 0.06626(6)
C13 C 1.1924(2) 0.69398(11) 0.23364(8)
C14 C 1.2596(2) 1.10457(11) 0.01378(7)
H12 H 1.1762 1.1155 -0.0166
C15 C 0.9437(3) 0.65995(11) 0.14621(7)
H13 H 0.8827 0.6289 0.1164
H14 H 1.0556 0.6712 0.1318
C16 C 0.9523(3) 0.60722(11) 0.20064(8)
C17 C 1.0079(4) 1.00293(17) -0.11837(9)
H15 H 1.0940 1.0182 -0.1435
C18 C 1.3798(3) 1.16655(15) 0.10567(10)
H16 H 1.3525 1.1156 0.1273
H17 H 1.3773 1.2155 0.1312
H18 H 1.4896 1.1607 0.0893
C19 C 0.6045(2) 0.82515(10) 0.06581(7)
C20 C 1.22014(19) 1.01831(10) 0.04139(7)
C21 C 1.2819(3) 1.26450(14) 0.02514(14)
H19 H 1.3916 1.2648 0.0082
H20 H 1.2722 1.3113 0.0523
H21 H 1.1998 1.2710 -0.0050
C22 C 1.1424(3) 0.80199(18) 0.33439(8)
C23 C 0.74352(18) 0.86212(9) 0.10445(7)
O11 O 1.0803(3) 0.83937(18) 0.37535(7)
C24 C 0.8203(2) 0.77589(12) 0.26596(7)
H22 H 0.7038 0.7828 0.2572
H23 H 0.8504 0.8133 0.2975
H24 H 0.8416 0.7173 0.2769
C25 C 1.2811(3) 0.68815(14) 0.29215(9)
H25 H 1.3098 0.6285 0.2994
H26 H 1.3847 0.7205 0.2898
C26 C 1.0227(3) 0.94725(16) -0.07410(9)
H27 H 1.1191 0.9177 -0.0634
C27 C 1.3247(3) 0.66943(14) 0.18891(11)
H28 H 1.3699 0.6140 0.1984
H29 H 1.4125 0.7115 0.1892
H30 H 1.2749 0.6674 0.1509
C28 C 0.7268(2) 1.01398(10) 0.06552(7)
H31 H 0.6134 1.0013 0.0548
H32 H 0.7743 1.0532 0.0377
H33 H 0.7288 1.0397 0.1035
C29 C 0.6508(2) 0.84338(12) 0.00334(7)
H34 H 0.5701 0.8820 -0.0143
H35 H 0.6541 0.7904 -0.0190
C30 C 0.7618(3) 0.99533(12) -0.07701(8)
H36 H 0.6492 1.0048 -0.0693
C31 C 0.5688(2) 0.92052(13) 0.18577(9)
H37 H 0.4744 0.9200 0.1621
H38 H 0.5609 0.9396 0.2241
loop_
_geom_bond_atom_site_label_1
_geom_bond_atom_site_label_2
_geom_bond_site_symmetry_1
_geom_bond_site_symmetry_2
O1 C9 1_555 1_555
O2 C2 1_555 1_555
O3 C13 1_555 1_555
O4 H1 1_555 1_555
O5 H2 1_555 1_555
O6 C19 1_555 1_555
C1 C10 1_555 1_555
C2 H3 1_555 1_555
C3 H4 1_555 1_555
O7 C20 1_555 1_555
C4 H5 1_555 1_555
O8 C17 1_555 1_555
O9 C16 1_555 1_555
C5 C3 1_555 1_555
C6 C3 1_555 1_555
H6 C6 1_555 1_555
H7 C6 1_555 1_555
C7 O5 1_555 1_555
H8 C7 1_555 1_555
O10 C22 1_555 1_555
C8 C4 1_555 1_555
C9 C5 1_555 1_555
H9 C9 1_555 1_555
C10 C5 1_555 1_555
H10 C10 1_555 1_555
C11 H11 1_555 1_555
C12 C2 1_555 1_555
C13 C3 1_555 1_555
C14 O4 1_555 1_555
H12 C14 1_555 1_555
C15 C9 1_555 1_555
H13 C15 1_555 1_555
H14 C15 1_555 1_555
C16 O3 1_555 1_555
C17 H15 1_555 1_555
C18 C11 1_555 1_555
H16 C18 1_555 1_555
H17 C18 1_555 1_555
H18 C18 1_555 1_555
C19 C23 1_555 1_555
C20 O2 1_555 1_555
C21 C11 1_555 1_555
H19 C21 1_555 1_555
H20 C21 1_555 1_555
H21 C21 1_555 1_555
C22 C6 1_555 1_555
C23 O1 1_555 1_555
O11 C22 1_555 1_555
C24 C5 1_555 1_555
H22 C24 1_555 1_555
H23 C24 1_555 1_555
H24 C24 1_555 1_555
C25 O10 1_555 1_555
H25 C25 1_555 1_555
H26 C25 1_555 1_555
C26 C8 1_555 1_555
H27 C26 1_555 1_555
C27 C13 1_555 1_555
H28 C27 1_555 1_555
H29 C27 1_555 1_555
H30 C27 1_555 1_555
C28 C12 1_555 1_555
H31 C28 1_555 1_555
H32 C28 1_555 1_555
H33 C28 1_555 1_555
C29 C4 1_555 1_555
H34 C29 1_555 1_555
H35 C29 1_555 1_555
C30 O8 1_555 1_555
H36 C30 1_555 1_555
C31 C1 1_555 1_555
H37 C31 1_555 1_555
H38 C31 1_555 1_555
C1 C23 1_555 1_555
C2 C7 1_555 1_555
C4 C12 1_555 1_555
C7 C10 1_555 1_555
C8 C30 1_555 1_555
C11 C14 1_555 1_555
C12 C23 1_555 1_555
C13 C25 1_555 1_555
C14 C20 1_555 1_555
C15 C16 1_555 1_555
C17 C26 1_555 1_555
C19 C29 1_555 1_555

#END
