
#######################################################################
#
#                 Cambridge Crystallographic Data Centre
#                                CCDC 
#
#######################################################################
#
# If this CIF has been generated from an entry in the Cambridge 
# Structural Database, then it will include bibliographic, chemical, 
# crystal, experimental, refinement or atomic coordinate data resulting 
# from the CCDC's data processing and validation procedures.
#
#######################################################################

data_YOKPEV
_chemical_formula_moiety         'C32 H42 O12,5(H2 O1)'
_chemical_name_systematic        
'(4-(3-furyl)-7-hydroxy-9-(2-(hydroxymethyl)-2-methyl-5-oxotetrahydrofuran-3-yl)-6-((2-hydroxy-3-methylpentanoyl)oxy)-5,9-dimethyl-12-methylene-2-oxo-11-oxatricyclo[6.3.1.0^1,5^]dodec-10-yl)acetic acid pentahydrate'
_symmetry_cell_setting           monoclinic
_symmetry_space_group_name_H-M   'I 2'
_symmetry_Int_Tables_number      5
_space_group_name_Hall           'I 2y'
loop_
_symmetry_equiv_pos_site_id
_symmetry_equiv_pos_as_xyz
1 x,y,z
2 -x,y,-z
3 1/2+x,1/2+y,1/2+z
4 1/2-x,1/2+y,1/2-z
_cell_length_a                   16.8530(3)
_cell_length_b                   9.5140(2)
_cell_length_c                   23.2105(4)
_cell_angle_alpha                90
_cell_angle_beta                 104.711(2)
_cell_angle_gamma                90
_cell_volume                     3599.56
_exptl_crystal_colour            colorless
_cell_formula_units_Z            4
loop_
_atom_site_label
_atom_site_type_symbol
_atom_site_fract_x
_atom_site_fract_y
_atom_site_fract_z
O1 O 0.42637(8) -0.01187(15) 0.22449(6)
H1 H 0.3830 -0.0541 0.2210
O2 O 0.57732(8) -0.12774(15) 0.22751(6)
O3 O 0.59934(7) 0.16648(12) 0.35927(6)
O4 O 0.30315(9) 0.42978(15) 0.28142(8)
O5 O 0.69062(11) 0.0268(2) 0.48305(7)
C1 C 0.56870(10) -0.02530(19) 0.27218(8)
H2 H 0.5753 0.0706 0.2587
O6 O 0.56946(13) 0.0359(2) 0.15632(8)
C2 C 0.60767(10) 0.02218(19) 0.37992(8)
C3 C 0.48151(10) -0.04779(18) 0.27975(8)
H3 H 0.4758 -0.1495 0.2839
O7 O 0.19091(9) 0.30069(19) 0.25613(10)
O8 O 0.63473(14) 0.4318(2) 0.51123(8)
H4 H 0.6660 0.4993 0.5180
C4 C 0.53484(11) 0.24906(19) 0.37199(8)
H5 H 0.5351 0.3377 0.3505
C5 C 0.46057(10) 0.01877(19) 0.33593(8)
H6 H 0.4101 -0.0271 0.3398
O9 O 0.86311(11) -0.1861(2) 0.26579(9)
C6 C 0.44834(11) 0.18182(18) 0.34446(8)
O10 O 0.35762(14) 0.4214(2) 0.17465(9)
H7 H 0.3849 0.3584 0.1651
C7 C 0.40862(11) 0.25661(19) 0.28437(9)
H8 H 0.4439 0.2398 0.2574
C8 C 0.72044(10) 0.0104(2) 0.33476(9)
H9 H 0.7106 0.1080 0.3213
C9 C 0.57307(14) -0.0848(3) 0.17219(10)
C10 C 0.51797(15) -0.1162(3) 0.43045(10)
H10 H 0.5635 -0.1493 0.4588
H11 H 0.4655 -0.1434 0.4319
C11 C 0.63407(10) -0.05838(19) 0.32963(8)
O11 O 0.65725(14) 0.4478(3) 0.42225(9)
C12 C 0.62172(14) 0.3961(2) 0.45555(9)
C13 C 0.55424(12) 0.2889(2) 0.43774(9)
H12 H 0.5050 0.3259 0.4466
H13 H 0.5700 0.2049 0.4616
C14 C 0.77247(11) -0.0561(2) 0.29804(10)
C15 C 0.39076(12) 0.1899(2) 0.38644(10)
H14 H 0.3823 0.2865 0.3953
H15 H 0.4151 0.1407 0.4227
H16 H 0.3390 0.1475 0.3675
C16 C 0.52779(11) -0.0304(2) 0.38801(8)
C17 C 0.39108(12) 0.4194(2) 0.28454(11)
C18 C 0.68686(12) 0.0215(2) 0.43068(9)
C19 C 0.82535(16) -0.0985(3) 0.22119(13)
H17 H 0.8363 -0.0942 0.1839
O12 O 0.5918(2) -0.1688(4) 0.07895(12)
H18 H 0.5990 -0.0835 0.0796
C20 C 0.64254(13) -0.2156(2) 0.34339(10)
H19 H 0.5893 -0.2552 0.3405
H20 H 0.6765 -0.2292 0.3830
H21 H 0.6672 -0.2612 0.3153
C21 C 0.26430(12) 0.3094(2) 0.26333(11)
C22 C 0.32261(12) 0.1983(2) 0.25443(11)
H22 H 0.3169 0.1817 0.2123
H23 H 0.3129 0.1109 0.2730
C23 C 0.82906(14) -0.1584(3) 0.31232(12)
H24 H 0.8432 -0.2043 0.3489
C24 C 0.40359(16) 0.4866(3) 0.22743(12)
H25 H 0.3883 0.5850 0.2267
H26 H 0.4614 0.4822 0.2282
C25 C 0.43097(15) 0.5167(2) 0.33545(12)
H27 H 0.4036 0.6061 0.3299
H28 H 0.4877 0.5294 0.3362
H29 H 0.4268 0.4762 0.3725
C26 C 0.77031(14) -0.0192(3) 0.23838(12)
H30 H 0.7365 0.0481 0.2154
C27 C 0.75831(12) 0.0151(3) 0.40248(10)
H31 H 0.7911 -0.0682 0.4155
H32 H 0.7930 0.0973 0.4132
C28 C 0.49080(16) -0.2872(3) 0.11933(11)
H33 H 0.4791 -0.3071 0.1578
C29 C 0.57321(18) -0.2117(4) 0.13252(12)
H34 H 0.6159 -0.2770 0.1534
C30 C 0.4977(3) -0.4293(4) 0.08988(18)
H35 H 0.4442 -0.4706 0.0766
H36 H 0.5326 -0.4906 0.1182
H37 H 0.5206 -0.4157 0.0564
C31 C 0.4197(2) -0.1988(3) 0.08346(14)
H38 H 0.4247 -0.1907 0.0429
H39 H 0.4236 -0.1050 0.1003
C32 C 0.3350(2) -0.2606(5) 0.0825(2)
H40 H 0.2929 -0.1976 0.0616
H41 H 0.3305 -0.2727 0.1226
H42 H 0.3288 -0.3499 0.0626
O13 O 0.29175(16) -0.1215(3) 0.40730(12)
H43 H 0.2434 -0.1114 0.3853
H44 H 0.2987 -0.0665 0.4370
O14 O 0.4141(2) 0.1923(4) 0.12819(15)
H45 H 0.4367 0.1302 0.1534
H46 H 0.4427 0.2049 0.1033
O15 O 0.6875(2) 0.0841(5) 0.06600(17)
H47 H 0.6500 0.1414 0.0493
H48 H 0.7030 0.0375 0.0395
O16 O 0.2478(2) 0.1246(3) 0.05199(18)
H49 H 0.2978 0.1185 0.0519
H50 H 0.2357 0.2086 0.0585
O17 O 0.4741(7) 0.1239(14) 0.0244(5)
O17A O 0.5259(7) 0.1239(14) -0.0244(5)
O18? O 0.4069(8) 0.2670(17) 0.0055(6)
loop_
_geom_bond_atom_site_label_1
_geom_bond_atom_site_label_2
_geom_bond_site_symmetry_1
_geom_bond_site_symmetry_2
O1 H1 1_555 1_555
O2 C1 1_555 1_555
O3 C2 1_555 1_555
O4 C17 1_555 1_555
O5 C18 1_555 1_555
C1 H2 1_555 1_555
O6 C9 1_555 1_555
C2 C11 1_555 1_555
C3 O1 1_555 1_555
H3 C3 1_555 1_555
O7 C21 1_555 1_555
O8 H4 1_555 1_555
C4 O3 1_555 1_555
H5 C4 1_555 1_555
C5 C3 1_555 1_555
H6 C5 1_555 1_555
O9 C19 1_555 1_555
C6 C4 1_555 1_555
O10 H7 1_555 1_555
C7 C6 1_555 1_555
H8 C7 1_555 1_555
C8 H9 1_555 1_555
C9 O2 1_555 1_555
C10 H10 1_555 1_555
H11 C10 1_555 1_555
C11 C1 1_555 1_555
O11 C12 1_555 1_555
C12 O8 1_555 1_555
C13 C4 1_555 1_555
H12 C13 1_555 1_555
H13 C13 1_555 1_555
C14 C8 1_555 1_555
C15 C6 1_555 1_555
H14 C15 1_555 1_555
H15 C15 1_555 1_555
H16 C15 1_555 1_555
C16 C2 1_555 1_555
C17 C7 1_555 1_555
C18 C2 1_555 1_555
C19 H17 1_555 1_555
O12 H18 1_555 1_555
C20 C11 1_555 1_555
H19 C20 1_555 1_555
H20 C20 1_555 1_555
H21 C20 1_555 1_555
C21 O4 1_555 1_555
C22 C7 1_555 1_555
H22 C22 1_555 1_555
H23 C22 1_555 1_555
C23 O9 1_555 1_555
H24 C23 1_555 1_555
C24 O10 1_555 1_555
H25 C24 1_555 1_555
H26 C24 1_555 1_555
C25 C17 1_555 1_555
H27 C25 1_555 1_555
H28 C25 1_555 1_555
H29 C25 1_555 1_555
C26 C14 1_555 1_555
H30 C26 1_555 1_555
C27 C8 1_555 1_555
H31 C27 1_555 1_555
H32 C27 1_555 1_555
C28 H33 1_555 1_555
C29 C9 1_555 1_555
H34 C29 1_555 1_555
C30 C28 1_555 1_555
H35 C30 1_555 1_555
H36 C30 1_555 1_555
H37 C30 1_555 1_555
C31 C28 1_555 1_555
H38 C31 1_555 1_555
H39 C31 1_555 1_555
C32 C31 1_555 1_555
H40 C32 1_555 1_555
H41 C32 1_555 1_555
H42 C32 1_555 1_555
O13 H43 1_555 1_555
H44 O13 1_555 1_555
O14 H45 1_555 1_555
H46 O14 1_555 1_555
O15 H47 1_555 1_555
H48 O15 1_555 1_555
O16 H49 1_555 1_555
H50 O16 1_555 1_555
C1 C3 1_555 1_555
C5 C6 1_555 1_555
C5 C16 1_555 1_555
C8 C11 1_555 1_555
C10 C16 1_555 1_555
C12 C13 1_555 1_555
C14 C23 1_555 1_555
C17 C24 1_555 1_555
C18 C27 1_555 1_555
C19 C26 1_555 1_555
O12 C29 1_555 1_555
C21 C22 1_555 1_555
C28 C29 1_555 1_555

#END
