
#######################################################################
#
#                 Cambridge Crystallographic Data Centre
#                                CCDC 
#
#######################################################################
#
# If this CIF has been generated from an entry in the Cambridge 
# Structural Database, then it will include bibliographic, chemical, 
# crystal, experimental, refinement or atomic coordinate data resulting 
# from the CCDC's data processing and validation procedures.
#
#######################################################################

data_YOKWIF
_chemical_formula_moiety         'C20 H31 N1 O6'
_chemical_name_systematic        
'(2-(nitromethyl)-1-isopropylcyclopentyl)methyl 4,7,7-trimethyl-3-oxo-2-oxabicyclo[2.2.1]heptane-1-carboxylate'
_symmetry_cell_setting           monoclinic
_symmetry_space_group_name_H-M   'P 21'
_symmetry_Int_Tables_number      4
_space_group_name_Hall           'P 2yb'
loop_
_symmetry_equiv_pos_site_id
_symmetry_equiv_pos_as_xyz
1 x,y,z
2 -x,1/2+y,-z
_cell_length_a                   6.3298(9)
_cell_length_b                   11.183(3)
_cell_length_c                   14.163(2)
_cell_angle_alpha                90
_cell_angle_beta                 94.439(12)
_cell_angle_gamma                90
_cell_volume                     999.537
_exptl_crystal_colour            colorless
_exptl_crystal_description       plate
_cell_formula_units_Z            2
loop_
_atom_site_label
_atom_site_type_symbol
_atom_site_fract_x
_atom_site_fract_y
_atom_site_fract_z
O1 O 0.3881(2) 0.59869(12) 0.78123(10)
C1 C 0.2886(3) 0.39565(17) 0.82361(12)
O2 O -0.1799(2) 0.50959(16) 1.01650(11)
C2 C 0.1408(3) 0.39377(18) 0.73048(13)
H1 H 0.0757 0.4750 0.7228
O3 O 0.7192(2) 0.66898(16) 0.77602(13)
N1 N -0.0156(3) 0.56572(16) 1.01128(12)
C3 C 0.5307(3) 0.68315(18) 0.76537(13)
C4 C 0.1703(3) 0.42273(17) 0.91361(13)
H2 H 0.0404 0.3716 0.9112
C5 C 0.4206(3) 0.79727(17) 0.73239(13)
C6 C 0.1011(3) 0.55243(17) 0.92356(13)
H3 H 0.2269 0.6053 0.9276
H4 H 0.0079 0.5762 0.8673
O4 O 0.5820(2) 0.88985(14) 0.73014(11)
C7 C 0.3135(3) 0.80052(18) 0.62944(13)
O5 O 0.5933(3) 1.06710(17) 0.65558(16)
C8 C -0.0413(3) 0.3035(2) 0.73024(15)
H5 H -0.1389 0.3162 0.6740
H6 H -0.1173 0.3145 0.7873
H7 H 0.0159 0.2221 0.7292
C9 C 0.4724(3) 0.48296(17) 0.81422(14)
H8 H 0.5537 0.4926 0.8763
H9 H 0.5690 0.4511 0.7686
C10 C 0.3213(3) 0.3798(2) 0.99780(14)
H10 H 0.4105 0.4466 1.0237
H11 H 0.2397 0.3473 1.0489
C11 C 0.4597(3) 0.28118(19) 0.95739(15)
H12 H 0.6116 0.3027 0.9666
H13 H 0.4379 0.2039 0.9893
C12 C 0.2757(3) 0.93867(19) 0.63733(15)
C13 C 0.3888(3) 0.27256(17) 0.85134(14)
H14 H 0.2836 0.2077 0.8397
H15 H 0.5116 0.2562 0.8140
C14 C 0.2508(3) 0.84737(19) 0.79305(15)
H16 H 0.3142 0.8795 0.8539
H17 H 0.1440 0.7859 0.8057
C15 C 0.2653(4) 0.3710(2) 0.64322(15)
H18 H 0.1664 0.3655 0.5866
H19 H 0.3444 0.2960 0.6516
H20 H 0.3644 0.4371 0.6358
C16 C 0.4968(4) 0.9778(2) 0.67101(17)
C17 C 0.1099(3) 0.7276(2) 0.61358(15)
H21 H 0.1443 0.6422 0.6156
H22 H 0.0390 0.7476 0.5516
H23 H 0.0158 0.7463 0.6633
C18 C 0.1533(4) 0.9482(2) 0.72834(16)
H24 H 0.1753 1.0275 0.7587
H25 H -0.0004 0.9353 0.7136
O6 O 0.0586(3) 0.6315(2) 1.07364(14)
C19 C 0.1786(4) 1.0062(2) 0.55222(18)
H26 H 0.1879 1.0923 0.5646
H27 H 0.0295 0.9832 0.5402
H28 H 0.2553 0.9869 0.4967
C20 C 0.4667(4) 0.7669(3) 0.55564(16)
H29 H 0.5007 0.6816 0.5611
H30 H 0.5970 0.8139 0.5664
H31 H 0.4008 0.7836 0.4921
loop_
_geom_bond_atom_site_label_1
_geom_bond_atom_site_label_2
_geom_bond_site_symmetry_1
_geom_bond_site_symmetry_2
O1 C3 1_555 1_555
C1 C2 1_555 1_555
O2 N1 1_555 1_555
C2 H1 1_555 1_555
O3 C3 1_555 1_555
N1 C6 1_555 1_555
C3 C5 1_555 1_555
C4 C1 1_555 1_555
H2 C4 1_555 1_555
C5 O4 1_555 1_555
C6 C4 1_555 1_555
H3 C6 1_555 1_555
H4 C6 1_555 1_555
O4 C16 1_555 1_555
C7 C5 1_555 1_555
O5 C16 1_555 1_555
C8 C2 1_555 1_555
H5 C8 1_555 1_555
H6 C8 1_555 1_555
H7 C8 1_555 1_555
C9 O1 1_555 1_555
H8 C9 1_555 1_555
H9 C9 1_555 1_555
C10 C4 1_555 1_555
H10 C10 1_555 1_555
H11 C10 1_555 1_555
C11 C10 1_555 1_555
H12 C11 1_555 1_555
H13 C11 1_555 1_555
C12 C7 1_555 1_555
C13 C1 1_555 1_555
H14 C13 1_555 1_555
H15 C13 1_555 1_555
C14 C5 1_555 1_555
H16 C14 1_555 1_555
H17 C14 1_555 1_555
C15 C2 1_555 1_555
H18 C15 1_555 1_555
H19 C15 1_555 1_555
H20 C15 1_555 1_555
C16 C12 1_555 1_555
C17 C7 1_555 1_555
H21 C17 1_555 1_555
H22 C17 1_555 1_555
H23 C17 1_555 1_555
C18 C12 1_555 1_555
H24 C18 1_555 1_555
H25 C18 1_555 1_555
O6 N1 1_555 1_555
C19 C12 1_555 1_555
H26 C19 1_555 1_555
H27 C19 1_555 1_555
H28 C19 1_555 1_555
C20 C7 1_555 1_555
H29 C20 1_555 1_555
H30 C20 1_555 1_555
H31 C20 1_555 1_555
C1 C9 1_555 1_555
C11 C13 1_555 1_555
C14 C18 1_555 1_555

#END
