
#######################################################################
#
#                 Cambridge Crystallographic Data Centre
#                                CCDC 
#
#######################################################################
#
# If this CIF has been generated from an entry in the Cambridge 
# Structural Database, then it will include bibliographic, chemical, 
# crystal, experimental, refinement or atomic coordinate data resulting 
# from the CCDC's data processing and validation procedures.
#
#######################################################################

data_YOKXUT
_chemical_formula_moiety         'C20 H16 Br1 Cl1 O4'
_chemical_name_systematic        
'Dimethyl 2-(2-(4-bromophenyl)vinyl)-3-(4-chlorophenyl)but-2-enedioate'
_symmetry_cell_setting           monoclinic
_symmetry_space_group_name_H-M   'P 21/c'
_symmetry_Int_Tables_number      14
_space_group_name_Hall           '-P 2ybc'
loop_
_symmetry_equiv_pos_site_id
_symmetry_equiv_pos_as_xyz
1 x,y,z
2 -x,1/2+y,1/2-z
3 -x,-y,-z
4 x,1/2-y,1/2+z
_cell_length_a                   14.234(3)
_cell_length_b                   7.8908(16)
_cell_length_c                   20.376(3)
_cell_angle_alpha                90
_cell_angle_beta                 119.839(11)
_cell_angle_gamma                90
_cell_volume                     1985.18
_exptl_crystal_colour            colorless
_exptl_crystal_description       block
_cell_formula_units_Z            4
loop_
_atom_site_label
_atom_site_type_symbol
_atom_site_fract_x
_atom_site_fract_y
_atom_site_fract_z
Br1 Br 0.40328(4) 0.18243(6) -0.11185(2)
Cl1 Cl 0.55127(10) 1.09532(18) 0.29815(9)
O1 O 1.06665(19) 0.4361(3) 0.31199(14)
O2 O 1.01044(19) 0.2426(3) 0.36489(13)
O3 O 1.09295(18) 0.5441(3) 0.46438(12)
O4 O 1.02148(18) 0.7919(3) 0.46828(12)
C1 C 0.5241(3) 0.2261(4) -0.01521(18)
C2 C 0.5104(3) 0.3101(4) 0.0386(2)
H1 H 0.4415 0.3435 0.0277
C3 C 0.5986(3) 0.3450(4) 0.10849(18)
H2 H 0.5887 0.4025 0.1444
C4 C 0.7025(2) 0.2948(3) 0.12595(16)
C5 C 0.7127(3) 0.2071(4) 0.07053(19)
H3 H 0.7808 0.1693 0.0812
C6 C 0.6250(3) 0.1750(5) 0.0005(2)
H4 H 0.6342 0.1188 -0.0361
C7 C 0.7995(2) 0.3346(4) 0.19815(16)
H5 H 0.8615 0.2724 0.2102
C8 C 0.8080(2) 0.4506(4) 0.24822(16)
H6 H 0.7460 0.5108 0.2380
C9 C 0.9073(2) 0.4896(4) 0.31767(15)
C10 C 0.9148(2) 0.6160(4) 0.36538(16)
C11 C 0.8229(2) 0.7335(4) 0.34772(15)
C12 C 0.8038(3) 0.8721(4) 0.30109(17)
H7 H 0.8473 0.8903 0.2796
C13 C 0.7205(3) 0.9840(4) 0.28623(18)
H8 H 0.7085 1.0781 0.2556
C14 C 0.6566(3) 0.9547(4) 0.3169(2)
C15 C 0.6727(3) 0.8174(5) 0.3618(2)
H9 H 0.6272 0.7979 0.3816
C16 C 0.7564(3) 0.7075(4) 0.3777(2)
H10 H 0.7682 0.6149 0.4091
C17 C 1.0054(2) 0.3903(4) 0.33219(16)
C18 C 1.1043(4) 0.1392(6) 0.3835(3)
H11 H 1.1028 0.1049 0.3378
H12 H 1.1035 0.0407 0.4109
H13 H 1.1689 0.2035 0.4143
C19 C 1.0188(2) 0.6425(4) 0.43686(16)
C20 C 1.1190(3) 0.8295(5) 0.53865(19)
H14 H 1.1304 0.7436 0.5753
H15 H 1.1117 0.9378 0.5571
H16 H 1.1797 0.8320 0.5303
loop_
_geom_bond_atom_site_label_1
_geom_bond_atom_site_label_2
_geom_bond_site_symmetry_1
_geom_bond_site_symmetry_2
Br1 C1 1_555 1_555
Cl1 C14 1_555 1_555
O1 C17 1_555 1_555
O2 C17 1_555 1_555
O3 C19 1_555 1_555
O4 C19 1_555 1_555
C1 C2 1_555 1_555
C2 H1 1_555 1_555
C3 C2 1_555 1_555
H2 C3 1_555 1_555
C4 C3 1_555 1_555
C5 C4 1_555 1_555
H3 C5 1_555 1_555
C6 C1 1_555 1_555
H4 C6 1_555 1_555
C7 C4 1_555 1_555
H5 C7 1_555 1_555
C8 C7 1_555 1_555
H6 C8 1_555 1_555
C9 C8 1_555 1_555
C10 C9 1_555 1_555
C11 C10 1_555 1_555
C12 C11 1_555 1_555
H7 C12 1_555 1_555
C13 C12 1_555 1_555
H8 C13 1_555 1_555
C14 C13 1_555 1_555
C15 C14 1_555 1_555
H9 C15 1_555 1_555
C16 C11 1_555 1_555
H10 C16 1_555 1_555
C17 C9 1_555 1_555
C18 O2 1_555 1_555
H11 C18 1_555 1_555
H12 C18 1_555 1_555
H13 C18 1_555 1_555
C19 C10 1_555 1_555
C20 O4 1_555 1_555
H14 C20 1_555 1_555
H15 C20 1_555 1_555
H16 C20 1_555 1_555
C5 C6 1_555 1_555
C15 C16 1_555 1_555

#END
