
#######################################################################
#
#                 Cambridge Crystallographic Data Centre
#                                CCDC 
#
#######################################################################
#
# If this CIF has been generated from an entry in the Cambridge 
# Structural Database, then it will include bibliographic, chemical, 
# crystal, experimental, refinement or atomic coordinate data resulting 
# from the CCDC's data processing and validation procedures.
#
#######################################################################

data_YOKYII
_chemical_formula_moiety         'C11 H7 N1 O3'
_chemical_name_systematic        
5H-Pyrrolo[1,2-a][3,1]benzoxazine-1,5(3aH)-dione
_symmetry_cell_setting           monoclinic
_symmetry_space_group_name_H-M   'P 21/c'
_symmetry_Int_Tables_number      14
_space_group_name_Hall           '-P 2ybc'
loop_
_symmetry_equiv_pos_site_id
_symmetry_equiv_pos_as_xyz
1 x,y,z
2 -x,1/2+y,1/2-z
3 -x,-y,-z
4 x,1/2-y,1/2+z
_cell_length_a                   9.3860(9)
_cell_length_b                   3.8928(4)
_cell_length_c                   23.696(2)
_cell_angle_alpha                90
_cell_angle_beta                 99.904(3)
_cell_angle_gamma                90
_cell_volume                     852.897
_exptl_crystal_colour            colorless
_exptl_crystal_description       needle
_cell_formula_units_Z            4
loop_
_atom_site_label
_atom_site_type_symbol
_atom_site_fract_x
_atom_site_fract_y
_atom_site_fract_z
N1 N 0.35680(13) 0.0392(4) 0.10836(5)
O1 O 0.33941(15) 0.2023(4) 0.01353(5)
O2 O 0.40942(12) 0.2698(4) 0.20267(5)
O3 O 0.24330(16) 0.2850(4) 0.25805(5)
C1 C 0.40817(17) 0.1801(4) 0.06163(6)
C2 C 0.55796(17) 0.2939(5) 0.08424(6)
H1 H 0.6224 0.3930 0.0620
C3 C 0.58833(16) 0.2363(5) 0.14029(6)
H2 H 0.6768 0.2951 0.1643
C4 C 0.46281(15) 0.0652(4) 0.16012(6)
H3 H 0.4909 -0.1686 0.1756
C5 C 0.27532(16) 0.1841(4) 0.21357(6)
C6 C 0.17694(15) 0.0024(4) 0.16777(6)
C7 C 0.21513(15) -0.0482(4) 0.11361(6)
C8 C 0.11508(17) -0.1763(5) 0.06865(6)
H4 H 0.1405 -0.2059 0.0318
C9 C -0.02227(18) -0.2604(5) 0.07797(7)
H5 H -0.0912 -0.3484 0.0473
C10 C -0.06062(17) -0.2176(6) 0.13180(7)
H6 H -0.1548 -0.2792 0.1378
C11 C 0.03836(16) -0.0857(4) 0.17649(6)
H7 H 0.0120 -0.0551 0.2131
N2? N 0.3568(4) 0.487(2) 0.10786(18)
O4? O 0.3378(10) 0.325(3) 0.0129(2)
O5? O 0.4088(5) 0.259(2) 0.2024(3)
O6? O 0.2379(9) 0.222(3) 0.2552(3)
C12? C 0.4051(6) 0.335(3) 0.0614(2)
C13? C 0.5546(7) 0.217(4) 0.0835(3)
H8? H 0.6182 0.1166 0.0611
C14? C 0.5861(6) 0.275(4) 0.1395(2)
H9? H 0.6737 0.2095 0.1635
C15? C 0.4633(5) 0.458(2) 0.1595(2)
H10? H 0.4945 0.6908 0.1747
C16? C 0.2741(6) 0.343(2) 0.2127(3)
C17? C 0.1774(5) 0.531(2) 0.1671(2)
C18? C 0.2177(5) 0.593(2) 0.1136(2)
C19? C 0.1173(6) 0.720(3) 0.0687(3)
H11? H 0.1413 0.7417 0.0315
C20? C -0.0183(7) 0.815(4) 0.0786(3)
H12? H -0.0839 0.9249 0.0490
C21? C -0.0599(7) 0.752(4) 0.1313(3)
H13? H -0.1562 0.7977 0.1364
C22? C 0.0393(6) 0.622(3) 0.1761(3)
H14? H 0.0136 0.5956 0.2129
loop_
_geom_bond_atom_site_label_1
_geom_bond_atom_site_label_2
_geom_bond_site_symmetry_1
_geom_bond_site_symmetry_2
N1 C1 1_555 1_555
O1 C1 1_555 1_555
O2 C4 1_555 1_555
O3 C5 1_555 1_555
C1 C2 1_555 1_555
C2 H1 1_555 1_555
C3 C2 1_555 1_555
H2 C3 1_555 1_555
C4 N1 1_555 1_555
H3 C4 1_555 1_555
C5 O2 1_555 1_555
C6 C5 1_555 1_555
C7 N1 1_555 1_555
C8 C7 1_555 1_555
H4 C8 1_555 1_555
C9 C8 1_555 1_555
H5 C9 1_555 1_555
C10 C9 1_555 1_555
H6 C10 1_555 1_555
C11 C6 1_555 1_555
H7 C11 1_555 1_555
C3 C4 1_555 1_555
C6 C7 1_555 1_555
C10 C11 1_555 1_555

#END
