
#######################################################################
#
#                 Cambridge Crystallographic Data Centre
#                                CCDC 
#
#######################################################################
#
# If this CIF has been generated from an entry in the Cambridge 
# Structural Database, then it will include bibliographic, chemical, 
# crystal, experimental, refinement or atomic coordinate data resulting 
# from the CCDC's data processing and validation procedures.
#
#######################################################################

data_YOKZOP
_chemical_formula_moiety         'C17 H17 N3 O4 S1'
_chemical_name_systematic        
'Methyl 5-(((5-(2-ethoxyphenyl)-1H-1,2,4-triazol-3-yl)sulfanyl)methyl)-2-furoate'
_symmetry_cell_setting           triclinic
_symmetry_space_group_name_H-M   'P -1'
_symmetry_Int_Tables_number      2
_space_group_name_Hall           '-P 1'
loop_
_symmetry_equiv_pos_site_id
_symmetry_equiv_pos_as_xyz
1 x,y,z
2 -x,-y,-z
_cell_length_a                   5.2625(11)
_cell_length_b                   11.123(2)
_cell_length_c                   15.376(3)
_cell_angle_alpha                70.98(3)
_cell_angle_beta                 83.44(3)
_cell_angle_gamma                89.48(3)
_cell_volume                     844.943
_exptl_crystal_colour            colorless
_exptl_crystal_description       prism
_cell_formula_units_Z            2
loop_
_atom_site_label
_atom_site_type_symbol
_atom_site_fract_x
_atom_site_fract_y
_atom_site_fract_z
H1 H 1.048(4) 0.3128(17) 0.4189(13)
N1 N 0.8934(2) 0.32128(12) 0.40118(8)
N2 N 0.8723(2) 0.34347(12) 0.30965(8)
C1 C 0.6219(2) 0.34718(12) 0.30847(8)
N3 N 0.4817(2) 0.32873(10) 0.39226(7)
C2 C 0.6617(2) 0.31271(12) 0.44926(9)
C3 C 0.6134(3) 0.29734(12) 0.54843(9)
C4 C 0.4086(3) 0.35941(13) 0.57897(10)
H2 H 0.302(4) 0.4075(18) 0.5371(13)
C5 C 0.3607(3) 0.35132(16) 0.67126(11)
H3 H 0.219(4) 0.3955(18) 0.6916(14)
C6 C 0.5180(4) 0.28030(18) 0.73349(11)
H4 H 0.484(4) 0.275(2) 0.7990(16)
C7 C 0.7190(3) 0.21487(17) 0.70565(10)
H5 H 0.827(4) 0.165(2) 0.7469(15)
C8 C 0.7672(3) 0.22238(13) 0.61280(9)
O1 O 0.9554(2) 0.15933(11) 0.57887(7)
C9 C 1.0844(4) 0.06251(17) 0.64418(12)
H6 H 1.184(4) 0.102(2) 0.6805(15)
H7 H 0.949(5) -0.012(2) 0.6793(18)
C10 C 1.2595(4) -0.00024(18) 0.59014(15)
H8 H 1.1609 -0.0406 0.5580
H9 H 1.3551 -0.0630 0.6315
H10 H 1.3753 0.0624 0.5461
S1 S 0.47614(7) 0.36915(4) 0.20791(2)
C11 C 0.7556(3) 0.41798(13) 0.12090(9)
H11 H 0.703(3) 0.3975(17) 0.0690(13)
H12 H 0.902(4) 0.3674(17) 0.1433(13)
C12 C 0.8246(3) 0.55498(13) 0.09434(9)
C13 C 1.0038(3) 0.62122(15) 0.11817(10)
H13 H 1.129(3) 0.5862(17) 0.1599(13)
C14 C 0.9730(3) 0.75183(15) 0.06923(11)
H14 H 1.065(4) 0.8203(19) 0.0705(13)
C15 C 0.7765(3) 0.75680(13) 0.01860(10)
O2 O 0.68099(19) 0.63644(9) 0.03299(7)
C16 C 0.6637(3) 0.86481(14) -0.04666(10)
O3 O 0.7445(3) 0.97289(11) -0.06831(10)
O4 O 0.4657(2) 0.82879(10) -0.07933(8)
C17 C 0.3453(4) 0.92761(18) -0.14627(14)
H15 H 0.2843 0.9906 -0.1193
H16 H 0.2039 0.8917 -0.1648
H17 H 0.4671 0.9665 -0.1994
loop_
_geom_bond_atom_site_label_1
_geom_bond_atom_site_label_2
_geom_bond_site_symmetry_1
_geom_bond_site_symmetry_2
H1 N1 1_555 1_555
N1 N2 1_555 1_555
N2 C1 1_555 1_555
C1 N3 1_555 1_555
N3 C2 1_555 1_555
C2 N1 1_555 1_555
C3 C2 1_555 1_555
C4 C3 1_555 1_555
H2 C4 1_555 1_555
C5 C4 1_555 1_555
H3 C5 1_555 1_555
C6 C5 1_555 1_555
H4 C6 1_555 1_555
C7 C6 1_555 1_555
H5 C7 1_555 1_555
C8 C3 1_555 1_555
O1 C8 1_555 1_555
C9 O1 1_555 1_555
H6 C9 1_555 1_555
H7 C9 1_555 1_555
C10 C9 1_555 1_555
H8 C10 1_555 1_555
H9 C10 1_555 1_555
H10 C10 1_555 1_555
S1 C1 1_555 1_555
C11 S1 1_555 1_555
H11 C11 1_555 1_555
H12 C11 1_555 1_555
C12 C11 1_555 1_555
C13 C12 1_555 1_555
H13 C13 1_555 1_555
C14 C13 1_555 1_555
H14 C14 1_555 1_555
C15 C14 1_555 1_555
O2 C12 1_555 1_555
C16 C15 1_555 1_555
O3 C16 1_555 1_555
O4 C16 1_555 1_555
C17 O4 1_555 1_555
H15 C17 1_555 1_555
H16 C17 1_555 1_555
H17 C17 1_555 1_555
C7 C8 1_555 1_555
C15 O2 1_555 1_555

#END
