
#######################################################################
#
#                 Cambridge Crystallographic Data Centre
#                                CCDC 
#
#######################################################################
#
# If this CIF has been generated from an entry in the Cambridge 
# Structural Database, then it will include bibliographic, chemical, 
# crystal, experimental, refinement or atomic coordinate data resulting 
# from the CCDC's data processing and validation procedures.
#
#######################################################################

data_YOLJUG
_chemical_name_common            2,6-bis(3-Pyridyl)tetrathiafulvalene
_chemical_formula_moiety         'C16 H10 N2 S4'
_chemical_name_systematic        
3-(2-(4-(Pyridin-3-yl)-1,3-dithiol-2-ylidene)-1,3-dithiol-4-yl)pyridine
_symmetry_cell_setting           monoclinic
_symmetry_space_group_name_H-M   'P 21/c'
_symmetry_Int_Tables_number      14
_space_group_name_Hall           '-P 2ybc'
loop_
_symmetry_equiv_pos_site_id
_symmetry_equiv_pos_as_xyz
1 x,y,z
2 -x,1/2+y,1/2-z
3 -x,-y,-z
4 x,1/2-y,1/2+z
_cell_length_a                   12.820(2)
_cell_length_b                   5.4146(7)
_cell_length_c                   12.404(2)
_cell_angle_alpha                90
_cell_angle_beta                 116.408(3)
_cell_angle_gamma                90
_cell_volume                     771.177
_exptl_crystal_colour            orange
_exptl_crystal_description       prism
_cell_formula_units_Z            2
loop_
_atom_site_label
_atom_site_type_symbol
_atom_site_fract_x
_atom_site_fract_y
_atom_site_fract_z
S1 S 0.42685(5) 0.14388(11) 0.31528(5)
S2 S 0.39336(5) 0.28488(11) 0.52753(5)
N1 N 0.1478(2) 0.8552(4) 0.5085(2)
C1 C 0.46274(18) 0.0880(4) 0.46763(18)
C2 C 0.3307(2) 0.3828(4) 0.2986(2)
H1 H 0.2916 0.4641 0.2243
C3 C 0.31310(18) 0.4497(4) 0.39291(18)
C4 C 0.23525(18) 0.6452(4) 0.3961(2)
C5 C 0.17643(19) 0.8025(4) 0.2989(2)
H2 H 0.1852 0.7861 0.2279
C6 C 0.1046(2) 0.9836(4) 0.3087(2)
H3 H 0.0645 1.0926 0.2444
C7 C 0.0926(2) 1.0023(5) 0.4130(2)
H4 H 0.0429 1.1251 0.4176
C8 C 0.2173(2) 0.6831(5) 0.4975(2)
H5 H 0.2574 0.5790 0.5639
S1B S 0.57315(5) -0.14388(11) 0.68472(5)
S2B S 0.60664(5) -0.28488(11) 0.47247(5)
N1B N 0.8522(2) -0.8552(4) 0.4915(2)
C1B C 0.53726(18) -0.0880(4) 0.53237(18)
C2B C 0.6693(2) -0.3828(4) 0.7014(2)
H1B H 0.7084 -0.4641 0.7757
C3B C 0.68690(18) -0.4497(4) 0.60709(18)
C4B C 0.76475(18) -0.6452(4) 0.6039(2)
C5B C 0.82357(19) -0.8025(4) 0.7011(2)
H2B H 0.8148 -0.7861 0.7721
C6B C 0.8954(2) -0.9836(4) 0.6913(2)
H3B H 0.9355 -1.0926 0.7556
C7B C 0.9074(2) -1.0023(5) 0.5870(2)
H4B H 0.9571 -1.1251 0.5824
C8B C 0.7827(2) -0.6831(5) 0.5025(2)
H5B H 0.7426 -0.5790 0.4361
loop_
_geom_bond_atom_site_label_1
_geom_bond_atom_site_label_2
_geom_bond_site_symmetry_1
_geom_bond_site_symmetry_2
S1 C1 1_555 1_555
S2 C1 1_555 1_555
N1 C7 1_555 1_555
C1 C1B 1_555 1_555
C2 S1 1_555 1_555
H1 C2 1_555 1_555
C3 S2 1_555 1_555
C4 C3 1_555 1_555
C5 C4 1_555 1_555
H2 C5 1_555 1_555
C6 C5 1_555 1_555
H3 C6 1_555 1_555
C7 C6 1_555 1_555
H4 C7 1_555 1_555
C8 N1 1_555 1_555
H5 C8 1_555 1_555
S1B C1B 1_555 1_555
S2B C1B 1_555 1_555
N1B C7B 1_555 1_555
C2B S1B 1_555 1_555
H1B C2B 1_555 1_555
C3B S2B 1_555 1_555
C4B C3B 1_555 1_555
C5B C4B 1_555 1_555
H2B C5B 1_555 1_555
C6B C5B 1_555 1_555
H3B C6B 1_555 1_555
C7B C6B 1_555 1_555
H4B C7B 1_555 1_555
C8B N1B 1_555 1_555
H5B C8B 1_555 1_555
C2 C3 1_555 1_555
C4 C8 1_555 1_555
C2B C3B 1_555 1_555
C4B C8B 1_555 1_555

#END
