
#######################################################################
#
#                 Cambridge Crystallographic Data Centre
#                                CCDC 
#
#######################################################################
#
# If this CIF has been generated from an entry in the Cambridge 
# Structural Database, then it will include bibliographic, chemical, 
# crystal, experimental, refinement or atomic coordinate data resulting 
# from the CCDC's data processing and validation procedures.
#
#######################################################################

data_YOLLAO
_chemical_formula_moiety         'C16 H11 N2 S4 1+,C1 F3 O3 S1 1-'
_chemical_name_systematic        
'2-(Pyridin-1-ium-3-yl)-7-(3-pyridyl)tetrathiafulvalene trifluoromethanesulfonate'
_symmetry_cell_setting           monoclinic
_symmetry_space_group_name_H-M   'P 21/c'
_symmetry_Int_Tables_number      14
_space_group_name_Hall           '-P 2ybc'
loop_
_symmetry_equiv_pos_site_id
_symmetry_equiv_pos_as_xyz
1 x,y,z
2 -x,1/2+y,1/2-z
3 -x,-y,-z
4 x,1/2-y,1/2+z
_cell_length_a                   10.688(4)
_cell_length_b                   18.056(7)
_cell_length_c                   31.680(12)
_cell_angle_alpha                90
_cell_angle_beta                 97.808(8)
_cell_angle_gamma                90
_cell_volume                     6057.01
_exptl_crystal_colour            colorless
_exptl_crystal_description       block
_cell_formula_units_Z            12
loop_
_atom_site_label
_atom_site_type_symbol
_atom_site_fract_x
_atom_site_fract_y
_atom_site_fract_z
S2 S 0.0617(5) 0.4848(3) 0.21725(19)
O4 O 0.0097(15) 0.4156(7) 0.2021(5)
O5 O -0.0227(12) 0.5483(7) 0.2069(4)
O6 O 0.1239(14) 0.4867(8) 0.2598(3)
C2 C 0.1789(13) 0.5046(8) 0.1857(4)
F4 F 0.2435(14) 0.5694(7) 0.1935(5)
F5 F 0.2743(10) 0.4570(7) 0.1872(4)
F6 F 0.1398(11) 0.5122(6) 0.1438(3)
C3 C 0.0750(9) 0.3196(5) 1.0220(3)
C4 C 0.0645(9) 0.2661(5) 1.0985(3)
C5 C 0.0716(9) 0.3395(5) 1.1015(3)
H1 H 0.0733 0.3616 1.1281
C6 C 0.0770(9) 0.2318(5) 1.1743(3)
H2 H 0.0807 0.2820 1.1809
C7 C 0.0679(9) 0.2105(5) 1.1321(3)
C8 C 0.0595(9) 0.1338(5) 1.1243(3)
H3 H 0.0541 0.1160 1.0966
C9 C 0.0594(10) 0.0857(6) 1.1573(3)
H4 H 0.0491 0.0352 1.1520
C10 C 0.0741(9) 0.1113(6) 1.1975(3)
H5 H 0.0799 0.0777 1.2199
C11 C 0.0772(9) 0.3274(5) 0.9801(3)
C12 C 0.0951(9) 0.3037(5) 0.9005(3)
C13 C 0.0997(10) 0.3768(5) 0.9058(3)
H6 H 0.1119 0.4077 0.8832
C14 C 0.1000(8) 0.2960(6) 0.8215(3)
H7 H 0.0956 0.3474 0.8202
C15 C 0.1030(8) 0.2617(5) 0.8606(3)
C16 C 0.1092(8) 0.1846(5) 0.8602(3)
H8 H 0.1120 0.1590 0.8857
C17 C 0.1115(10) 0.1452(6) 0.8231(3)
H9 H 0.1149 0.0938 0.8229
C18 C 0.1087(9) 0.1860(7) 0.7865(3)
H10 H 0.1108 0.1612 0.7608
N1 N 0.0806(8) 0.1827(5) 1.2060(2)
H11 H 0.0872 0.1977 1.2320
N2 N 0.1031(8) 0.2584(5) 0.7862(2)
S3 S 0.0776(3) 0.39419(14) 1.05821(8)
S4 S 0.0671(3) 0.23217(13) 1.04590(7)
S5 S 0.0828(3) 0.41360(14) 0.95459(9)
S6 S 0.0858(3) 0.25124(13) 0.94692(7)
C19 C 0.4089(9) 0.1811(5) 0.1811(3)
C20 C 0.4221(8) 0.2366(5) 0.2558(3)
C21 C 0.4292(10) 0.1614(5) 0.2613(3)
H12 H 0.4414 0.1404 0.2883
C22 C 0.4318(8) 0.2714(5) 0.3311(3)
H13 H 0.4314 0.2209 0.3370
C23 C 0.4295(9) 0.2908(5) 0.2900(3)
C24 C 0.4352(11) 0.3671(5) 0.2829(3)
H14 H 0.4360 0.3857 0.2555
C25 C 0.4397(10) 0.4141(6) 0.3174(3)
H15 H 0.4426 0.4648 0.3125
C26 C 0.4400(9) 0.3913(6) 0.3577(3)
H16 H 0.4438 0.4247 0.3802
C27 C 0.4072(9) 0.1744(5) 0.1392(3)
C28 C 0.4160(8) 0.1982(5) 0.0573(3)
C29 C 0.4164(9) 0.1229(5) 0.0624(3)
H17 H 0.4211 0.0917 0.0393
C30 C 0.4298(8) 0.2033(5) -0.0206(3)
H18 H 0.4381 0.1521 -0.0204
C31 C 0.4178(9) 0.2394(6) 0.0181(3)
C32 C 0.4063(10) 0.3156(5) 0.0173(3)
H19 H 0.3986 0.3416 0.0422
C33 C 0.4064(11) 0.3530(7) -0.0212(3)
H20 H 0.3985 0.4043 -0.0222
C34 C 0.4182(11) 0.3137(6) -0.0579(3)
H21 H 0.4182 0.3390 -0.0835
N3 N 0.4347(7) 0.3172(5) 0.3642(3)
H22 H 0.4331 0.2999 0.3894
N4 N 0.4296(7) 0.2391(5) -0.0573(3)
S7 S 0.4147(3) 0.10737(14) 0.21659(8)
S8 S 0.4063(3) 0.26899(14) 0.20366(8)
S9 S 0.4080(3) 0.08670(14) 0.11261(8)
S10 S 0.4029(3) 0.24937(13) 0.10387(8)
C35 C 0.7708(8) 0.1718(4) 0.8305(3)
C36 C 0.7644(9) 0.1958(5) 0.7500(3)
C37 C 0.7708(9) 0.1196(5) 0.7548(3)
H23 H 0.7719 0.0885 0.7314
C38 C 0.7532(8) 0.1972(6) 0.6713(3)
H24 H 0.7561 0.1457 0.6711
C39 C 0.7560(8) 0.2337(6) 0.7102(3)
C40 C 0.7499(10) 0.3106(6) 0.7069(3)
H25 H 0.7525 0.3384 0.7317
C41 C 0.7404(11) 0.3467(6) 0.6689(3)
H26 H 0.7342 0.3981 0.6682
C42 C 0.7397(10) 0.3088(7) 0.6321(4)
H27 H 0.7348 0.3335 0.6061
C43 C 0.7645(8) 0.1797(5) 0.8718(2)
C44 C 0.7522(9) 0.2378(5) 0.9471(3)
C45 C 0.7569(9) 0.1642(5) 0.9526(2)
H28 H 0.7528 0.1435 0.9792
C46 C 0.7422(9) 0.2755(6) 1.0232(3)
H29 H 0.7442 0.2255 1.0303
C47 C 0.7439(9) 0.2937(5) 0.9805(3)
C48 C 0.7438(11) 0.3696(6) 0.9700(3)
H30 H 0.7485 0.3850 0.9422
C49 C 0.7367(13) 0.4202(6) 1.0020(4)
H31 H 0.7344 0.4706 0.9960
C50 C 0.7329(12) 0.3961(7) 1.0429(4)
H32 H 0.7266 0.4313 1.0639
N5 N 0.7464(8) 0.2339(6) 0.6339(2)
H33 H 0.7463 0.2092 0.6107
N6 N 0.7380(8) 0.3236(5) 1.0542(2)
S11 S 0.7764(3) 0.08476(13) 0.80497(8)
S12 S 0.7662(3) 0.24697(13) 0.79559(7)
S13 S 0.7708(3) 0.10791(14) 0.90869(7)
S14 S 0.7529(3) 0.26870(13) 0.89390(8)
C51 C 0.4724(19) 0.4931(8) 0.1204(5)
F7 F 0.4427(10) 0.4256(5) 0.1232(3)
F8 F 0.4974(10) 0.5041(5) 0.0769(3)
F9 F 0.3847(8) 0.5396(6) 0.1258(3)
O7 O 0.6374(8) 0.5941(4) 0.1449(2)
O8 O 0.5920(9) 0.4966(4) 0.1943(2)
O9 O 0.7137(8) 0.4699(4) 0.1345(3)
S15 S 0.6225(4) 0.51623(16) 0.15208(10)
C52 C 0.1627(14) 1.0130(6) 0.9706(5)
F10 F 0.2019(8) 1.0082(4) 1.0134(2)
F11 F 0.1251(10) 1.0808(5) 0.9627(3)
F12 F 0.0603(8) 0.9707(6) 0.9641(3)
O10 O 0.2965(8) 0.9085(4) 0.9543(3)
O11 O 0.2136(9) 0.9944(5) 0.8966(2)
O12 O 0.3859(8) 1.0300(4) 0.9550(3)
S16 S 0.2768(3) 0.98396(16) 0.94064(10)
S1? S 0.0337(5) 0.4836(3) 0.18782(19)
O1? O 0.0304(15) 0.4035(6) 0.1979(5)
O2? O -0.0588(12) 0.5248(8) 0.2064(4)
O3? O 0.0468(13) 0.4987(7) 0.1448(3)
C1? C 0.1787(13) 0.5059(9) 0.2168(4)
F1? F 0.2297(14) 0.5721(7) 0.2094(5)
F2? F 0.2770(11) 0.4605(8) 0.2084(5)
F3? F 0.1936(13) 0.4999(8) 0.2583(3)
loop_
_geom_bond_atom_site_label_1
_geom_bond_atom_site_label_2
_geom_bond_site_symmetry_1
_geom_bond_site_symmetry_2
S2 O4 1_555 1_555
O5 S2 1_555 1_555
O6 S2 1_555 1_555
C2 S2 1_555 1_555
F4 C2 1_555 1_555
F5 C2 1_555 1_555
F6 C2 1_555 1_555
C3 C11 1_555 1_555
C4 C5 1_555 1_555
C5 H1 1_555 1_555
C6 H2 1_555 1_555
C7 C4 1_555 1_555
C8 C7 1_555 1_555
H3 C8 1_555 1_555
C9 C8 1_555 1_555
H4 C9 1_555 1_555
C10 C9 1_555 1_555
H5 C10 1_555 1_555
C11 S5 1_555 1_555
C12 C13 1_555 1_555
C13 H6 1_555 1_555
C14 H7 1_555 1_555
C15 C12 1_555 1_555
C16 C15 1_555 1_555
H8 C16 1_555 1_555
C17 C16 1_555 1_555
H9 C17 1_555 1_555
C18 C17 1_555 1_555
H10 C18 1_555 1_555
N1 C6 1_555 1_555
H11 N1 1_555 1_555
N2 C14 1_555 1_555
S3 C3 1_555 1_555
S4 C3 1_555 1_555
S5 C13 1_555 1_555
S6 C11 1_555 1_555
C19 C27 1_555 1_555
C20 C21 1_555 1_555
C21 H12 1_555 1_555
C22 H13 1_555 1_555
C23 C20 1_555 1_555
C24 C23 1_555 1_555
H14 C24 1_555 1_555
C25 C24 1_555 1_555
H15 C25 1_555 1_555
C26 C25 1_555 1_555
H16 C26 1_555 1_555
C27 S9 1_555 1_555
C28 C29 1_555 1_555
C29 H17 1_555 1_555
C30 H18 1_555 1_555
C31 C28 1_555 1_555
C32 C31 1_555 1_555
H19 C32 1_555 1_555
C33 C32 1_555 1_555
H20 C33 1_555 1_555
C34 C33 1_555 1_555
H21 C34 1_555 1_555
N3 C22 1_555 1_555
H22 N3 1_555 1_555
N4 C30 1_555 1_555
S7 C19 1_555 1_555
S8 C19 1_555 1_555
S9 C29 1_555 1_555
S10 C27 1_555 1_555
C35 C43 1_555 1_555
C36 C37 1_555 1_555
C37 H23 1_555 1_555
C38 H24 1_555 1_555
C39 C36 1_555 1_555
C40 C39 1_555 1_555
H25 C40 1_555 1_555
C41 C40 1_555 1_555
H26 C41 1_555 1_555
C42 C41 1_555 1_555
H27 C42 1_555 1_555
C43 S13 1_555 1_555
C44 C45 1_555 1_555
C45 H28 1_555 1_555
C46 H29 1_555 1_555
C47 C44 1_555 1_555
C48 C47 1_555 1_555
H30 C48 1_555 1_555
C49 C48 1_555 1_555
H31 C49 1_555 1_555
C50 C49 1_555 1_555
H32 C50 1_555 1_555
N5 C38 1_555 1_555
H33 N5 1_555 1_555
N6 C46 1_555 1_555
S11 C35 1_555 1_555
S12 C35 1_555 1_555
S13 C45 1_555 1_555
S14 C43 1_555 1_555
C51 F7 1_555 1_555
F8 C51 1_555 1_555
F9 C51 1_555 1_555
O7 S15 1_555 1_555
O8 S15 1_555 1_555
O9 S15 1_555 1_555
S15 C51 1_555 1_555
C52 F10 1_555 1_555
F11 C52 1_555 1_555
F12 C52 1_555 1_555
O10 S16 1_555 1_555
O11 S16 1_555 1_555
O12 S16 1_555 1_555
S16 C52 1_555 1_555
C4 S4 1_555 1_555
C5 S3 1_555 1_555
C6 C7 1_555 1_555
C10 N1 1_555 1_555
C12 S6 1_555 1_555
C14 C15 1_555 1_555
C18 N2 1_555 1_555
C20 S8 1_555 1_555
C21 S7 1_555 1_555
C22 C23 1_555 1_555
C26 N3 1_555 1_555
C28 S10 1_555 1_555
C30 C31 1_555 1_555
C34 N4 1_555 1_555
C36 S12 1_555 1_555
C37 S11 1_555 1_555
C38 C39 1_555 1_555
C42 N5 1_555 1_555
C44 S14 1_555 1_555
C46 C47 1_555 1_555
C50 N6 1_555 1_555

#END
