
#######################################################################
#
#                 Cambridge Crystallographic Data Centre
#                                CCDC 
#
#######################################################################
#
# If this CIF has been generated from an entry in the Cambridge 
# Structural Database, then it will include bibliographic, chemical, 
# crystal, experimental, refinement or atomic coordinate data resulting 
# from the CCDC's data processing and validation procedures.
#
#######################################################################

data_YOLLES
_chemical_compound_source        'Gentianella azurea'
_chemical_name_common            
'(3beta,20S,23S,24R)-3,20,23,24,25-pentahydroxydammaran-21-oic acid-21,23-lactone 3-O-beta-D-glucopyranoside methanol solvate hemihydrate'
_chemical_formula_moiety         'C36 H60 O11,0.5(C1 H4 O1),0.5(H2 O1)'
_chemical_name_systematic        
'20,24,25-trihydroxy-3-((3,4,5-trihydroxy-6-(hydroxymethyl)tetrahydro-2H-pyran-2-yl)oxy)-21,23-epoxydammaran-21-one methanol solvate hemihydrate'
_symmetry_cell_setting           orthorhombic
_symmetry_space_group_name_H-M   'P 21 21 21'
_symmetry_Int_Tables_number      19
_space_group_name_Hall           'P 2ac 2ab'
loop_
_symmetry_equiv_pos_site_id
_symmetry_equiv_pos_as_xyz
1 x,y,z
2 1/2+x,1/2-y,-z
3 -x,1/2+y,1/2-z
4 1/2-x,-y,1/2+z
_cell_length_a                   7.31720(10)
_cell_length_b                   23.8986(3)
_cell_length_c                   40.6627(5)
_cell_angle_alpha                90
_cell_angle_beta                 90
_cell_angle_gamma                90
_cell_volume                     7110.72
_exptl_crystal_colour            colorless
_exptl_crystal_description       prism
_chemical_melting_point          '261-263 deg.C'
_cell_formula_units_Z            8
loop_
_atom_site_label
_atom_site_type_symbol
_atom_site_fract_x
_atom_site_fract_y
_atom_site_fract_z
O1 O 0.0919(2) 1.15157(6) 0.09769(4)
O2 O -0.3538(3) 0.77264(8) 0.24264(5)
H1 H -0.4275 0.7928 0.2532
O3 O -0.2738(3) 0.77192(8) 0.31461(4)
O4 O -0.1245(3) 0.69982(8) 0.29297(5)
O5 O 0.2565(3) 0.71691(9) 0.28219(5)
H2 H 0.2861 0.7142 0.3021
O6 O 0.3502(3) 0.67908(8) 0.22367(4)
H3 H 0.4125 0.7025 0.2342
O7 O 0.3231(2) 1.24178(7) 0.07954(4)
H4 H 0.3403 1.2123 0.0688
O8 O 0.1768(2) 1.34853(7) 0.07966(4)
H5 H 0.0950 1.3612 0.0672
O9 O -0.1351(3) 1.36693(7) 0.12065(5)
H6 H -0.2480 1.3732 0.1209
O10 O -0.1249(2) 1.21295(6) 0.11538(4)
O11 O -0.4100(2) 1.22417(7) 0.15954(4)
H7 H -0.5160 1.2295 0.1668
C1 C -0.1338(3) 1.02586(10) 0.13728(6)
H8 H -0.2318 1.0011 0.1289
H9 H -0.1798 1.0443 0.1575
C2 C -0.0939(3) 1.07097(10) 0.11135(6)
H10 H -0.0636 1.0528 0.0901
H11 H -0.2043 1.0942 0.1080
C3 C 0.0636(3) 1.10789(9) 0.12192(6)
H12 H 0.0289 1.1262 0.1431
C4 C 0.2417(3) 1.07496(9) 0.12770(6)
C5 C 0.1941(3) 1.03042(9) 0.15454(6)
H13 H 0.1475 1.0530 0.1735
C6 C 0.3594(3) 0.99915(10) 0.16854(6)
H14 H 0.4018 0.9708 0.1525
H15 H 0.4607 1.0258 0.1724
C7 C 0.3076(3) 0.97052(10) 0.20079(6)
H16 H 0.2697 0.9994 0.2169
H17 H 0.4165 0.9513 0.2098
C8 C 0.1517(3) 0.92761(9) 0.19677(6)
C9 C -0.0126(3) 0.95726(9) 0.17895(6)
H18 H -0.0523 0.9871 0.1946
C10 C 0.0342(3) 0.98953(9) 0.14636(6)
C11 C -0.1801(3) 0.91813(10) 0.17605(6)
H19 H -0.2831 0.9393 0.1664
H20 H -0.1500 0.8871 0.1609
C12 C -0.2411(4) 0.89348(11) 0.20905(7)
H21 H -0.2905 0.9236 0.2232
H22 H -0.3392 0.8656 0.2054
C13 C -0.0794(3) 0.86559(10) 0.22603(6)
H23 H -0.0340 0.8358 0.2108
C14 C 0.0801(3) 0.90708(10) 0.23114(6)
C15 C 0.2086(4) 0.87033(11) 0.25224(6)
H24 H 0.2699 0.8416 0.2386
H25 H 0.3026 0.8934 0.2633
C16 C 0.0787(4) 0.84312(11) 0.27749(6)
H26 H 0.0673 0.8669 0.2973
H27 H 0.1249 0.8059 0.2842
C17 C -0.1095(4) 0.83750(10) 0.25973(6)
H28 H -0.2026 0.8595 0.2722
C18 C 0.0205(4) 0.95625(11) 0.25344(7)
H29 H -0.0518 0.9418 0.2719
H30 H -0.0535 0.9826 0.2407
H31 H 0.1290 0.9755 0.2619
C19 C 0.0735(4) 0.94969(10) 0.11729(6)
H32 H 0.0024 0.9153 0.1200
H33 H 0.2041 0.9406 0.1168
H34 H 0.0391 0.9680 0.0966
C20 C -0.1745(3) 0.77669(11) 0.25735(6)
C21 C -0.1944(3) 0.75100(11) 0.29155(6)
C22 C -0.0484(4) 0.73583(10) 0.23946(6)
H35 H 0.0731 0.7529 0.2357
H36 H -0.1011 0.7251 0.2179
C23 C -0.0321(4) 0.68437(11) 0.26214(6)
H37 H -0.0951 0.6516 0.2519
C24 C 0.1612(4) 0.66798(11) 0.27242(6)
H38 H 0.1518 0.6427 0.2920
C25 C 0.2779(4) 0.63792(11) 0.24603(6)
C26 C 0.1685(5) 0.59742(12) 0.22514(8)
H39 H 0.0859 0.6184 0.2107
H40 H 0.0968 0.5728 0.2395
H41 H 0.2519 0.5749 0.2117
C27 C 0.4348(5) 0.60811(17) 0.26374(8)
H42 H 0.5187 0.5921 0.2475
H43 H 0.3853 0.5781 0.2776
H44 H 0.5007 0.6350 0.2775
C28 C 0.3835(3) 1.11620(10) 0.14168(6)
H45 H 0.5008 1.0970 0.1445
H46 H 0.3413 1.1302 0.1630
H47 H 0.3987 1.1476 0.1264
C29 C 0.3203(4) 1.05181(10) 0.09536(6)
H48 H 0.3534 1.0830 0.0809
H49 H 0.2284 1.0284 0.0845
H50 H 0.4292 1.0293 0.1001
C30 C 0.2292(3) 0.87788(9) 0.17710(6)
H51 H 0.2898 0.8918 0.1572
H52 H 0.1294 0.8527 0.1709
H53 H 0.3178 0.8576 0.1907
C31 C 0.0652(3) 1.20516(9) 0.11036(6)
H54 H 0.1321 1.2093 0.1317
C32 C 0.1335(3) 1.24840(9) 0.08578(6)
H55 H 0.0640 1.2446 0.0647
C33 C 0.1014(3) 1.30659(9) 0.10033(6)
H56 H 0.1664 1.3084 0.1219
C34 C -0.1019(3) 1.31325(9) 0.10695(6)
H57 H -0.1703 1.3097 0.0858
C35 C -0.1620(3) 1.26614(9) 0.13042(6)
H58 H -0.0927 1.2692 0.1515
C36 C -0.3629(3) 1.26826(10) 0.13733(6)
H59 H -0.3950 1.3049 0.1471
H60 H -0.4321 1.2640 0.1166
O12 O 1.1221(3) 0.50395(10) 0.06762(5)
H61 H 1.1116 0.4773 0.0543
C37 C 0.9539(5) 0.5161(2) 0.08100(11)
H62 H 0.9704 0.5379 0.1012
H63 H 0.8897 0.4811 0.0861
H64 H 0.8819 0.5378 0.0652
O13 O 0.9896(3) 0.40945(10) 0.03294(5)
H65 H 1.022(7) 0.409(2) 0.0107(12)
H66 H 0.867(9) 0.407(2) 0.0328(12)
O14 O 0.8606(2) 1.01637(6) -0.00604(4)
O15 O 0.4024(2) 0.66015(7) 0.15745(4)
H67 H 0.4001 0.6703 0.1772
O16 O 0.7181(3) 0.60651(8) 0.20215(4)
O17 O 0.5568(3) 0.54568(7) 0.17213(4)
O18 O 0.4684(2) 0.49014(7) 0.08994(4)
H68 H 0.3548 0.4940 0.0880
O19 O 0.4788(2) 0.38879(7) 0.12026(4)
H69 H 0.4083 0.3883 0.1040
O20 O 1.1223(2) 1.07982(7) -0.04075(4)
H70 H 1.0882 1.0578 -0.0556
O21 O 1.0712(2) 1.19822(7) -0.04035(4)
H71 H 0.9822 1.2067 -0.0524
O22 O 0.8852(2) 1.24309(6) 0.01401(4)
H72 H 0.7921 1.2578 0.0224
O23 O 0.7551(2) 1.09429(6) 0.02008(4)
O24 O 0.4638(2) 1.16952(7) 0.03223(4)
H73 H 0.4723 1.1950 0.0181
C38 C 0.9106(3) 1.06925(9) 0.00454(5)
H74 H 1.0145 1.0666 0.0204
C39 C 0.9665(3) 1.10373(9) -0.02527(6)
H75 H 0.8630 1.1047 -0.0413
C40 C 1.0097(3) 1.16361(9) -0.01414(5)
H76 H 1.1104 1.1615 0.0025
C41 C 0.8416(3) 1.18763(9) 0.00309(5)
H77 H 0.7366 1.1890 -0.0126
C42 C 0.7937(3) 1.14953(9) 0.03228(5)
H78 H 0.9009 1.1476 0.0475
C43 C 0.6275(3) 1.16767(9) 0.05143(5)
H79 H 0.6092 1.1415 0.0700
H80 H 0.6504 1.2053 0.0607
C44 C 0.6359(3) 0.91463(9) 0.05313(6)
H81 H 0.5049 0.9070 0.0572
H82 H 0.6904 0.9278 0.0740
C45 C 0.6524(3) 0.96129(9) 0.02728(6)
H83 H 0.5877 0.9499 0.0070
H84 H 0.5935 0.9957 0.0357
C46 C 0.8509(3) 0.97347(9) 0.01925(6)
H85 H 0.9104 0.9885 0.0395
C47 C 0.9614(3) 0.92228(9) 0.00770(6)
C48 C 0.9325(3) 0.87502(9) 0.03373(6)
H86 H 0.9845 0.8907 0.0545
C49 C 1.0472(3) 0.82262(9) 0.02684(6)
H87 H 0.9929 0.8016 0.0083
H88 H 1.1725 0.8338 0.0205
C50 C 1.0554(3) 0.78500(9) 0.05714(6)
H89 H 1.1186 0.8053 0.0751
H90 H 1.1288 0.7514 0.0518
C51 C 0.8660(3) 0.76639(9) 0.06940(6)
C52 C 0.7420(3) 0.81969(9) 0.07346(6)
H91 H 0.8043 0.8425 0.0907
C53 C 0.7313(3) 0.85942(9) 0.04269(6)
C54 C 0.5539(3) 0.80487(10) 0.08851(6)
H92 H 0.4847 0.8398 0.0924
H93 H 0.4841 0.7821 0.0725
C55 C 0.5691(3) 0.77235(10) 0.12115(7)
H94 H 0.6226 0.7968 0.1383
H95 H 0.4461 0.7606 0.1285
C56 C 0.6899(3) 0.72097(9) 0.11620(6)
H96 H 0.6319 0.6980 0.0985
C57 C 0.8822(3) 0.73717(9) 0.10390(6)
C58 C 0.9793(3) 0.68001(10) 0.10551(6)
H97 H 0.9401 0.6554 0.0872
H98 H 1.1137 0.6845 0.1047
C59 C 0.9176(3) 0.65639(10) 0.13895(6)
H99 H 1.0039 0.6676 0.1565
H100 H 0.9119 0.6150 0.1382
C60 C 0.7241(3) 0.68151(9) 0.14550(6)
H101 H 0.7299 0.7045 0.1660
C61 C 0.7870(4) 0.72472(9) 0.04400(6)
H102 H 0.8038 0.7397 0.0218
H103 H 0.6564 0.7192 0.0482
H104 H 0.8508 0.6888 0.0459
C62 C 0.6209(4) 0.83383(9) 0.01404(6)
H105 H 0.5250 0.8095 0.0229
H106 H 0.7027 0.8119 0.0000
H107 H 0.5650 0.8639 0.0011
C63 C 0.5776(3) 0.63685(10) 0.14998(6)
C64 C 0.6298(3) 0.59686(10) 0.17786(6)
C65 C 0.5450(3) 0.59578(9) 0.12184(6)
H108 H 0.6603 0.5869 0.1102
H109 H 0.4554 0.6107 0.1059
C66 C 0.4693(4) 0.54438(10) 0.13987(6)
H110 H 0.3339 0.5480 0.1424
C67 C 0.5156(3) 0.48809(9) 0.12400(5)
H111 H 0.6515 0.4841 0.1251
C68 C 0.4335(4) 0.43558(10) 0.14115(6)
C69 C 0.2280(4) 0.43897(11) 0.14576(7)
H112 H 0.1697 0.4469 0.1246
H113 H 0.1990 0.4689 0.1614
H114 H 0.1826 0.4032 0.1543
C70 C 0.5283(4) 0.42308(11) 0.17377(6)
H115 H 0.4860 0.3869 0.1822
H116 H 0.4989 0.4525 0.1897
H117 H 0.6608 0.4218 0.1704
C71 C 1.1641(3) 0.93976(10) 0.00738(7)
H118 H 1.2368 0.9106 -0.0034
H119 H 1.2070 0.9447 0.0300
H120 H 1.1774 0.9751 -0.0047
C72 C 0.9098(4) 0.90555(10) -0.02761(6)
H121 H 0.9543 0.9341 -0.0430
H122 H 0.7766 0.9025 -0.0294
H123 H 0.9657 0.8694 -0.0329
C73 C 0.9800(3) 0.77499(10) 0.12919(6)
H124 H 0.9485 0.7628 0.1515
H125 H 0.9410 0.8139 0.1261
H126 H 1.1125 0.7723 0.1261
loop_
_geom_bond_atom_site_label_1
_geom_bond_atom_site_label_2
_geom_bond_site_symmetry_1
_geom_bond_site_symmetry_2
O1 C3 1_555 1_555
O2 H1 1_555 1_555
O3 C21 1_555 1_555
O4 C21 1_555 1_555
O5 H2 1_555 1_555
O6 H3 1_555 1_555
O7 H4 1_555 1_555
O8 H5 1_555 1_555
O9 H6 1_555 1_555
O10 C31 1_555 1_555
O11 H7 1_555 1_555
C1 H8 1_555 1_555
H9 C1 1_555 1_555
C2 C1 1_555 1_555
H10 C2 1_555 1_555
H11 C2 1_555 1_555
C3 C2 1_555 1_555
H12 C3 1_555 1_555
C4 C3 1_555 1_555
C5 C4 1_555 1_555
H13 C5 1_555 1_555
C6 C5 1_555 1_555
H14 C6 1_555 1_555
H15 C6 1_555 1_555
C7 C6 1_555 1_555
H16 C7 1_555 1_555
H17 C7 1_555 1_555
C8 C7 1_555 1_555
C9 C8 1_555 1_555
H18 C9 1_555 1_555
C10 C1 1_555 1_555
C11 C9 1_555 1_555
H19 C11 1_555 1_555
H20 C11 1_555 1_555
C12 C11 1_555 1_555
H21 C12 1_555 1_555
H22 C12 1_555 1_555
C13 C12 1_555 1_555
H23 C13 1_555 1_555
C14 C8 1_555 1_555
C15 C14 1_555 1_555
H24 C15 1_555 1_555
H25 C15 1_555 1_555
C16 C15 1_555 1_555
H26 C16 1_555 1_555
H27 C16 1_555 1_555
C17 C13 1_555 1_555
H28 C17 1_555 1_555
C18 C14 1_555 1_555
H29 C18 1_555 1_555
H30 C18 1_555 1_555
H31 C18 1_555 1_555
C19 C10 1_555 1_555
H32 C19 1_555 1_555
H33 C19 1_555 1_555
H34 C19 1_555 1_555
C20 O2 1_555 1_555
C21 C20 1_555 1_555
C22 C20 1_555 1_555
H35 C22 1_555 1_555
H36 C22 1_555 1_555
C23 O4 1_555 1_555
H37 C23 1_555 1_555
C24 O5 1_555 1_555
H38 C24 1_555 1_555
C25 O6 1_555 1_555
C26 C25 1_555 1_555
H39 C26 1_555 1_555
H40 C26 1_555 1_555
H41 C26 1_555 1_555
C27 C25 1_555 1_555
H42 C27 1_555 1_555
H43 C27 1_555 1_555
H44 C27 1_555 1_555
C28 C4 1_555 1_555
H45 C28 1_555 1_555
H46 C28 1_555 1_555
H47 C28 1_555 1_555
C29 C4 1_555 1_555
H48 C29 1_555 1_555
H49 C29 1_555 1_555
H50 C29 1_555 1_555
C30 C8 1_555 1_555
H51 C30 1_555 1_555
H52 C30 1_555 1_555
H53 C30 1_555 1_555
C31 O1 1_555 1_555
H54 C31 1_555 1_555
C32 O7 1_555 1_555
H55 C32 1_555 1_555
C33 O8 1_555 1_555
H56 C33 1_555 1_555
C34 O9 1_555 1_555
H57 C34 1_555 1_555
C35 O10 1_555 1_555
H58 C35 1_555 1_555
C36 O11 1_555 1_555
H59 C36 1_555 1_555
H60 C36 1_555 1_555
O12 H61 1_555 1_555
C37 O12 1_555 1_555
H62 C37 1_555 1_555
H63 C37 1_555 1_555
H64 C37 1_555 1_555
O13 H65 1_555 1_555
H66 O13 1_555 1_555
O14 C38 1_555 1_555
O15 H67 1_555 1_555
O16 C64 1_555 1_555
O17 C64 1_555 1_555
O18 H68 1_555 1_555
O19 H69 1_555 1_555
O20 H70 1_555 1_555
O21 H71 1_555 1_555
O22 H72 1_555 1_555
O23 C38 1_555 1_555
O24 H73 1_555 1_555
C38 H74 1_555 1_555
C39 O20 1_555 1_555
H75 C39 1_555 1_555
C40 O21 1_555 1_555
H76 C40 1_555 1_555
C41 O22 1_555 1_555
H77 C41 1_555 1_555
C42 O23 1_555 1_555
H78 C42 1_555 1_555
C43 O24 1_555 1_555
H79 C43 1_555 1_555
H80 C43 1_555 1_555
C44 H81 1_555 1_555
H82 C44 1_555 1_555
C45 C44 1_555 1_555
H83 C45 1_555 1_555
H84 C45 1_555 1_555
C46 O14 1_555 1_555
H85 C46 1_555 1_555
C47 C46 1_555 1_555
C48 C47 1_555 1_555
H86 C48 1_555 1_555
C49 C48 1_555 1_555
H87 C49 1_555 1_555
H88 C49 1_555 1_555
C50 C49 1_555 1_555
H89 C50 1_555 1_555
H90 C50 1_555 1_555
C51 C50 1_555 1_555
C52 C51 1_555 1_555
H91 C52 1_555 1_555
C53 C44 1_555 1_555
C54 C52 1_555 1_555
H92 C54 1_555 1_555
H93 C54 1_555 1_555
C55 C54 1_555 1_555
H94 C55 1_555 1_555
H95 C55 1_555 1_555
C56 C55 1_555 1_555
H96 C56 1_555 1_555
C57 C51 1_555 1_555
C58 C57 1_555 1_555
H97 C58 1_555 1_555
H98 C58 1_555 1_555
C59 C58 1_555 1_555
H99 C59 1_555 1_555
H100 C59 1_555 1_555
C60 C56 1_555 1_555
H101 C60 1_555 1_555
C61 C51 1_555 1_555
H102 C61 1_555 1_555
H103 C61 1_555 1_555
H104 C61 1_555 1_555
C62 C53 1_555 1_555
H105 C62 1_555 1_555
H106 C62 1_555 1_555
H107 C62 1_555 1_555
C63 O15 1_555 1_555
C64 C63 1_555 1_555
C65 C63 1_555 1_555
H108 C65 1_555 1_555
H109 C65 1_555 1_555
C66 O17 1_555 1_555
H110 C66 1_555 1_555
C67 O18 1_555 1_555
H111 C67 1_555 1_555
C68 O19 1_555 1_555
C69 C68 1_555 1_555
H112 C69 1_555 1_555
H113 C69 1_555 1_555
H114 C69 1_555 1_555
C70 C68 1_555 1_555
H115 C70 1_555 1_555
H116 C70 1_555 1_555
H117 C70 1_555 1_555
C71 C47 1_555 1_555
H118 C71 1_555 1_555
H119 C71 1_555 1_555
H120 C71 1_555 1_555
C72 C47 1_555 1_555
H121 C72 1_555 1_555
H122 C72 1_555 1_555
H123 C72 1_555 1_555
C73 C57 1_555 1_555
H124 C73 1_555 1_555
H125 C73 1_555 1_555
H126 C73 1_555 1_555
C5 C10 1_555 1_555
C9 C10 1_555 1_555
C13 C14 1_555 1_555
C16 C17 1_555 1_555
C17 C20 1_555 1_555
C22 C23 1_555 1_555
C23 C24 1_555 1_555
C24 C25 1_555 1_555
C31 C32 1_555 1_555
C32 C33 1_555 1_555
C33 C34 1_555 1_555
C34 C35 1_555 1_555
C35 C36 1_555 1_555
C38 C39 1_555 1_555
C39 C40 1_555 1_555
C40 C41 1_555 1_555
C41 C42 1_555 1_555
C42 C43 1_555 1_555
C45 C46 1_555 1_555
C48 C53 1_555 1_555
C52 C53 1_555 1_555
C56 C57 1_555 1_555
C59 C60 1_555 1_555
C60 C63 1_555 1_555
C65 C66 1_555 1_555
C66 C67 1_555 1_555
C67 C68 1_555 1_555

#END
