
#######################################################################
#
#                 Cambridge Crystallographic Data Centre
#                                CCDC 
#
#######################################################################
#
# If this CIF has been generated from an entry in the Cambridge 
# Structural Database, then it will include bibliographic, chemical, 
# crystal, experimental, refinement or atomic coordinate data resulting 
# from the CCDC's data processing and validation procedures.
#
#######################################################################

data_YOLLOC
_chemical_compound_source        'Gentianella azurea'
_chemical_name_common            
'(3beta,20S,23R,24R)-3,20,23,24,25,29-Hexahydroxydammaran-21-oic acid-21,23-lactone 3-O-beta-D-glucopyranoside'
_chemical_formula_moiety         'C36 H60 O12'
_chemical_name_systematic        
20,24,25,28-tetrahydroxy-3-((3,4,5-trihydroxy-6-(hydroxymethyl)tetrahydro-2H-pyran-2-yl)oxy)-21,23-epoxydammaran-21-one
_symmetry_cell_setting           monoclinic
_symmetry_space_group_name_H-M   'P 21'
_symmetry_Int_Tables_number      4
_space_group_name_Hall           'P 2yb'
loop_
_symmetry_equiv_pos_site_id
_symmetry_equiv_pos_as_xyz
1 x,y,z
2 -x,1/2+y,-z
_cell_length_a                   15.2751(3)
_cell_length_b                   8.0457(2)
_cell_length_c                   15.9079(3)
_cell_angle_alpha                90
_cell_angle_beta                 116.3950(10)
_cell_angle_gamma                90
_cell_volume                     1751.25
_exptl_crystal_colour            colorless
_exptl_crystal_description       block
_chemical_melting_point          '256-258 deg.C'
_cell_formula_units_Z            2
loop_
_atom_site_label
_atom_site_type_symbol
_atom_site_fract_x
_atom_site_fract_y
_atom_site_fract_z
O1 O 1.24151(15) 0.3579(3) 0.63217(14)
O2 O 0.60253(16) 0.7457(3) 0.78144(15)
H1 H 0.5947 0.7380 0.7259
O3 O 0.62536(17) 1.0214(3) 0.67885(15)
O4 O 0.65807(17) 1.1664(3) 0.80849(16)
O5 O 0.51931(18) 1.2284(4) 0.88818(17)
H2 H 0.5007 1.2137 0.8305
O6 O 0.6352(3) 1.1075(5) 1.0714(2)
H3 H 0.5747 1.0913 1.0494
O7 O 1.1673(2) 0.0510(4) 0.6353(3)
H4 H 1.1638 -0.0458 0.6534
O8 O 1.42541(17) 0.1868(3) 0.69318(16)
H5 H 1.3900 0.1024 0.6717
O9 O 1.52165(17) 0.2967(3) 0.57997(15)
H6 H 1.5550 0.2218 0.6173
O10 O 1.54712(16) 0.6481(3) 0.59579(15)
H7 H 1.5391 0.7170 0.5533
O11 O 1.30722(15) 0.5808(3) 0.59150(15)
O12 O 1.31560(18) 0.9343(3) 0.5978(2)
H8 H 1.2721 0.8793 0.6040
C1 C 1.0372(2) 0.6229(5) 0.6326(2)
H9 H 0.9865 0.6897 0.5822
H10 H 1.0773 0.6996 0.6841
C2 C 1.1023(2) 0.5409(5) 0.5945(2)
H11 H 1.1328 0.6275 0.5718
H12 H 1.0622 0.4685 0.5407
C3 C 1.1821(2) 0.4376(4) 0.6710(2)
H13 H 1.2247 0.5139 0.7226
C4 C 1.1433(2) 0.3008(4) 0.7132(2)
C5 C 1.0683(2) 0.3829(4) 0.74272(19)
H14 H 1.1086 0.4598 0.7951
C6 C 1.0241(2) 0.2594(5) 0.7872(2)
H15 H 0.9725 0.1928 0.7374
H16 H 1.0754 0.1824 0.8293
C7 C 0.9810(3) 0.3539(5) 0.8426(2)
H17 H 1.0346 0.4110 0.8957
H18 H 0.9512 0.2732 0.8692
C8 C 0.9032(2) 0.4837(4) 0.7849(2)
C9 C 0.9421(2) 0.5932(4) 0.72686(19)
H19 H 0.9987 0.6549 0.7755
C10 C 0.9866(2) 0.4961(4) 0.66990(19)
C11 C 0.8678(2) 0.7300(5) 0.6726(2)
H20 H 0.8956 0.8004 0.6393
H21 H 0.8077 0.6774 0.6247
C12 C 0.8407(3) 0.8409(5) 0.7363(3)
H22 H 0.8984 0.9062 0.7787
H23 H 0.7884 0.9195 0.6974
C13 C 0.8054(2) 0.7326(4) 0.79427(19)
H24 H 0.7470 0.6698 0.7488
C14 C 0.8837(2) 0.6018(4) 0.85183(19)
C15 C 0.8353(3) 0.5244(5) 0.9099(2)
H25 H 0.7826 0.4464 0.8713
H26 H 0.8840 0.4643 0.9652
C16 C 0.7938(2) 0.6734(5) 0.9401(2)
H27 H 0.8407 0.7113 1.0035
H28 H 0.7318 0.6429 0.9416
C17 C 0.7760(2) 0.8138(4) 0.8664(2)
H29 H 0.8211 0.9087 0.8976
C18 C 0.8092(2) 0.3871(5) 0.7213(2)
H30 H 0.8259 0.2947 0.6909
H31 H 0.7635 0.4620 0.6732
H32 H 0.7787 0.3435 0.7594
C19 C 0.9084(2) 0.4026(6) 0.5851(2)
H33 H 0.8471 0.4656 0.5600
H34 H 0.8977 0.2925 0.6052
H35 H 0.9307 0.3904 0.5365
C20 C 0.6688(2) 0.8748(4) 0.8274(2)
C21 C 0.6493(2) 1.0237(5) 0.7622(2)
C22 C 0.6485(2) 0.9517(5) 0.9047(2)
H36 H 0.5785 0.9415 0.8897
H37 H 0.6882 0.8976 0.9658
C23 C 0.6773(2) 1.1323(5) 0.9064(2)
H38 H 0.7488 1.1448 0.9484
C24 C 0.6209(3) 1.2614(6) 0.9325(2)
H39 H 0.6324 1.3729 0.9114
C25 C 0.6530(3) 1.2685(6) 1.0395(3)
C26 C 0.7611(3) 1.2962(6) 1.0951(3)
H40 H 0.7766 1.3163 1.1610
H41 H 0.7807 1.3928 1.0700
H42 H 0.7964 1.1976 1.0906
C27 C 0.5962(3) 1.4063(9) 1.0594(4)
H43 H 0.5282 1.3711 1.0385
H44 H 0.5977 1.5072 1.0256
H45 H 0.6260 1.4292 1.1270
C28 C 1.2313(2) 0.2374(5) 0.8024(2)
H46 H 1.2860 0.2137 0.7879
H47 H 1.2128 0.1357 0.8244
H48 H 1.2508 0.3226 0.8514
C29 C 1.0973(3) 0.1538(5) 0.6458(2)
H49 H 1.0591 0.0856 0.6695
H50 H 1.0514 0.1976 0.5835
C30 C 0.9776(2) 0.6905(6) 0.9236(2)
H51 H 0.9594 0.7898 0.9479
H52 H 1.0178 0.7231 0.8925
H53 H 1.0148 0.6148 0.9755
C31 C 1.3294(2) 0.4381(4) 0.6501(2)
H54 H 1.3644 0.4711 0.7176
C32 C 1.3911(2) 0.3171(4) 0.6257(2)
H55 H 1.3500 0.2682 0.5625
C33 C 1.4803(2) 0.4004(4) 0.6247(2)
H56 H 1.5301 0.4190 0.6910
C34 C 1.4564(2) 0.5658(4) 0.5744(2)
H57 H 1.4199 0.5473 0.5051
C35 C 1.3943(2) 0.6707(4) 0.6079(2)
H58 H 1.4323 0.6931 0.6766
C36 C 1.3622(2) 0.8321(5) 0.5566(2)
H59 H 1.4196 0.8912 0.5579
H60 H 1.3163 0.8102 0.4902
loop_
_geom_bond_atom_site_label_1
_geom_bond_atom_site_label_2
_geom_bond_site_symmetry_1
_geom_bond_site_symmetry_2
O1 C3 1_555 1_555
O2 H1 1_555 1_555
O3 C21 1_555 1_555
O4 C21 1_555 1_555
O5 H2 1_555 1_555
O6 H3 1_555 1_555
O7 H4 1_555 1_555
O8 H5 1_555 1_555
O9 H6 1_555 1_555
O10 H7 1_555 1_555
O11 C31 1_555 1_555
O12 H8 1_555 1_555
C1 H9 1_555 1_555
H10 C1 1_555 1_555
C2 C1 1_555 1_555
H11 C2 1_555 1_555
H12 C2 1_555 1_555
C3 C2 1_555 1_555
H13 C3 1_555 1_555
C4 C3 1_555 1_555
C5 C4 1_555 1_555
H14 C5 1_555 1_555
C6 C5 1_555 1_555
H15 C6 1_555 1_555
H16 C6 1_555 1_555
C7 C6 1_555 1_555
H17 C7 1_555 1_555
H18 C7 1_555 1_555
C8 C7 1_555 1_555
C9 C8 1_555 1_555
H19 C9 1_555 1_555
C10 C1 1_555 1_555
C11 C9 1_555 1_555
H20 C11 1_555 1_555
H21 C11 1_555 1_555
C12 C11 1_555 1_555
H22 C12 1_555 1_555
H23 C12 1_555 1_555
C13 C12 1_555 1_555
H24 C13 1_555 1_555
C14 C8 1_555 1_555
C15 C14 1_555 1_555
H25 C15 1_555 1_555
H26 C15 1_555 1_555
C16 C15 1_555 1_555
H27 C16 1_555 1_555
H28 C16 1_555 1_555
C17 C13 1_555 1_555
H29 C17 1_555 1_555
C18 C8 1_555 1_555
H30 C18 1_555 1_555
H31 C18 1_555 1_555
H32 C18 1_555 1_555
C19 C10 1_555 1_555
H33 C19 1_555 1_555
H34 C19 1_555 1_555
H35 C19 1_555 1_555
C20 O2 1_555 1_555
C21 C20 1_555 1_555
C22 C20 1_555 1_555
H36 C22 1_555 1_555
H37 C22 1_555 1_555
C23 O4 1_555 1_555
H38 C23 1_555 1_555
C24 O5 1_555 1_555
H39 C24 1_555 1_555
C25 O6 1_555 1_555
C26 C25 1_555 1_555
H40 C26 1_555 1_555
H41 C26 1_555 1_555
H42 C26 1_555 1_555
C27 C25 1_555 1_555
H43 C27 1_555 1_555
H44 C27 1_555 1_555
H45 C27 1_555 1_555
C28 C4 1_555 1_555
H46 C28 1_555 1_555
H47 C28 1_555 1_555
H48 C28 1_555 1_555
C29 O7 1_555 1_555
H49 C29 1_555 1_555
H50 C29 1_555 1_555
C30 C14 1_555 1_555
H51 C30 1_555 1_555
H52 C30 1_555 1_555
H53 C30 1_555 1_555
C31 O1 1_555 1_555
H54 C31 1_555 1_555
C32 O8 1_555 1_555
H55 C32 1_555 1_555
C33 O9 1_555 1_555
H56 C33 1_555 1_555
C34 O10 1_555 1_555
H57 C34 1_555 1_555
C35 O11 1_555 1_555
H58 C35 1_555 1_555
C36 O12 1_555 1_555
H59 C36 1_555 1_555
H60 C36 1_555 1_555
C4 C29 1_555 1_555
C5 C10 1_555 1_555
C9 C10 1_555 1_555
C13 C14 1_555 1_555
C16 C17 1_555 1_555
C17 C20 1_555 1_555
C22 C23 1_555 1_555
C23 C24 1_555 1_555
C24 C25 1_555 1_555
C31 C32 1_555 1_555
C32 C33 1_555 1_555
C33 C34 1_555 1_555
C34 C35 1_555 1_555
C35 C36 1_555 1_555

#END
