
#######################################################################
#
#                 Cambridge Crystallographic Data Centre
#                                CCDC 
#
#######################################################################
#
# If this CIF has been generated from an entry in the Cambridge 
# Structural Database, then it will include bibliographic, chemical, 
# crystal, experimental, refinement or atomic coordinate data resulting 
# from the CCDC's data processing and validation procedures.
#
#######################################################################

data_YOLMET
_chemical_compound_source        
'Chinese liverwort Heteroscyphus tener (Steph.) Schiffn'
_chemical_name_common            'Heteroscyphin A'
_chemical_formula_moiety         'C20 H32 O3'
_chemical_name_systematic        
3,7,11,11-tetramethyl-3-vinyl-2,14-dioxatetracyclo[11.2.1.0^1,6^.0^7,12^]hexadecan-15-ol
_symmetry_cell_setting           monoclinic
_symmetry_space_group_name_H-M   'C 2'
_symmetry_Int_Tables_number      5
_space_group_name_Hall           'C 2y'
loop_
_symmetry_equiv_pos_site_id
_symmetry_equiv_pos_as_xyz
1 x,y,z
2 -x,y,-z
3 1/2+x,1/2+y,z
4 1/2-x,1/2+y,-z
_cell_length_a                   23.9804(18)
_cell_length_b                   6.4997(5)
_cell_length_c                   11.1603(9)
_cell_angle_alpha                90
_cell_angle_beta                 92.105(3)
_cell_angle_gamma                90
_cell_volume                     1738.33
_exptl_crystal_colour            colorless
_exptl_crystal_description       prism
_cell_formula_units_Z            4
loop_
_atom_site_label
_atom_site_type_symbol
_atom_site_fract_x
_atom_site_fract_y
_atom_site_fract_z
O1 O 0.77867(5) 0.7599(2) 0.38318(12)
O2 O 0.64428(5) 0.5362(2) 0.30710(13)
O3 O 0.72680(6) 0.3691(2) 0.36461(13)
H1 H 0.7155 0.3771 0.4348
C1 C 0.52318(8) 0.7388(3) 0.1692(2)
H2 H 0.5331 0.6111 0.2115
H3 H 0.5367 0.7331 0.0875
H4 H 0.4825 0.7552 0.1660
C2 C 0.55013(8) 0.9222(3) 0.23600(19)
C3 C 0.61295(8) 0.8971(3) 0.27055(17)
H5 H 0.6219 1.0275 0.3148
C4 C 0.65426(8) 0.9018(3) 0.16550(18)
C5 C 0.71439(7) 0.9024(3) 0.22617(17)
H6 H 0.7189 1.0416 0.2634
C6 C 0.76203(8) 0.8830(3) 0.13904(18)
H7 H 0.7613 0.7445 0.1021
H8 H 0.7572 0.9862 0.0743
C7 C 0.81785(8) 0.9170(3) 0.20599(19)
H9 H 0.8189 1.0576 0.2400
H10 H 0.8484 0.9050 0.1491
C8 C 0.82693(8) 0.7600(3) 0.30709(18)
C9 C 0.87437(8) 0.8168(3) 0.3928(2)
H11 H 0.8727 0.7648 0.4722
C10 C 0.91762(9) 0.9306(4) 0.3692(2)
H12 H 0.9212 0.9864 0.2912
H13 H 0.9454 0.9574 0.4300
C11 C 0.54417(8) 1.1236(3) 0.1634(2)
H14 H 0.5053 1.1348 0.1313
H15 H 0.5511 1.2412 0.2183
C12 C 0.62911(8) 0.7303(3) 0.36257(17)
H16 H 0.5986 0.7092 0.4200
C13 C 0.68286(8) 0.7936(3) 0.42896(18)
H17 H 0.6905 0.7088 0.5014
H18 H 0.6829 0.9411 0.4510
C14 C 0.72331(8) 0.7473(3) 0.33060(17)
C15 C 0.64455(8) 1.1088(3) 0.1011(2)
H19 H 0.6559 1.2220 0.1561
H20 H 0.6684 1.1154 0.0306
C16 C 0.58348(8) 1.1404(3) 0.0596(2)
H21 H 0.5793 1.2778 0.0220
H22 H 0.5731 1.0358 -0.0018
C17 C 0.64663(8) 0.7314(3) 0.06980(19)
H23 H 0.6141 0.7633 0.0173
H24 H 0.6409 0.5989 0.1094
H25 H 0.6800 0.7240 0.0220
C18 C 0.83822(8) 0.5436(3) 0.25847(19)
H26 H 0.8439 0.4478 0.3256
H27 H 0.8717 0.5464 0.2109
H28 H 0.8063 0.4985 0.2079
C19 C 0.70349(7) 0.5280(3) 0.29551(18)
H29 H 0.7117 0.5031 0.2095
C20 C 0.51757(8) 0.9524(4) 0.3509(2)
H30 H 0.4798 1.0006 0.3297
H31 H 0.5367 1.0546 0.4022
H32 H 0.5155 0.8214 0.3939
loop_
_geom_bond_atom_site_label_1
_geom_bond_atom_site_label_2
_geom_bond_site_symmetry_1
_geom_bond_site_symmetry_2
O1 C8 1_555 1_555
O2 C12 1_555 1_555
O3 H1 1_555 1_555
C1 H2 1_555 1_555
H3 C1 1_555 1_555
H4 C1 1_555 1_555
C2 C1 1_555 1_555
C3 C2 1_555 1_555
H5 C3 1_555 1_555
C4 C3 1_555 1_555
C5 C4 1_555 1_555
H6 C5 1_555 1_555
C6 C5 1_555 1_555
H7 C6 1_555 1_555
H8 C6 1_555 1_555
C7 C6 1_555 1_555
H9 C7 1_555 1_555
H10 C7 1_555 1_555
C8 C7 1_555 1_555
C9 C8 1_555 1_555
H11 C9 1_555 1_555
C10 C9 1_555 1_555
H12 C10 1_555 1_555
H13 C10 1_555 1_555
C11 C2 1_555 1_555
H14 C11 1_555 1_555
H15 C11 1_555 1_555
C12 C3 1_555 1_555
H16 C12 1_555 1_555
C13 C12 1_555 1_555
H17 C13 1_555 1_555
H18 C13 1_555 1_555
C14 O1 1_555 1_555
C15 C4 1_555 1_555
H19 C15 1_555 1_555
H20 C15 1_555 1_555
C16 C11 1_555 1_555
H21 C16 1_555 1_555
H22 C16 1_555 1_555
C17 C4 1_555 1_555
H23 C17 1_555 1_555
H24 C17 1_555 1_555
H25 C17 1_555 1_555
C18 C8 1_555 1_555
H26 C18 1_555 1_555
H27 C18 1_555 1_555
H28 C18 1_555 1_555
C19 O2 1_555 1_555
H29 C19 1_555 1_555
C20 C2 1_555 1_555
H30 C20 1_555 1_555
H31 C20 1_555 1_555
H32 C20 1_555 1_555
O3 C19 1_555 1_555
C5 C14 1_555 1_555
C13 C14 1_555 1_555
C14 C19 1_555 1_555
C15 C16 1_555 1_555

#END
