
#######################################################################
#
#                 Cambridge Crystallographic Data Centre
#                                CCDC 
#
#######################################################################
#
# If this CIF has been generated from an entry in the Cambridge 
# Structural Database, then it will include bibliographic, chemical, 
# crystal, experimental, refinement or atomic coordinate data resulting 
# from the CCDC's data processing and validation procedures.
#
#######################################################################

data_YOLNUK
_chemical_compound_source        
'Paraconiothyrium hawaiiense, a fungus entomogenous to the Septobasidium-infected insect Diaspidiotus sp.'
_chemical_name_common            'Hawaiinolide A'
_chemical_formula_moiety         'C20 H26 O4'
_chemical_name_systematic        
5-hydroxy-13-methylene-14-vinyl-3,15-epoxypodocarpane-6,15-dione
_chemical_properties_biological  'cytotoxic activity'
_symmetry_cell_setting           orthorhombic
_symmetry_space_group_name_H-M   'P 21 21 21'
_symmetry_Int_Tables_number      19
_space_group_name_Hall           'P 2ac 2ab'
loop_
_symmetry_equiv_pos_site_id
_symmetry_equiv_pos_as_xyz
1 x,y,z
2 1/2-x,-y,1/2+z
3 1/2+x,1/2-y,-z
4 -x,1/2+y,1/2-z
_cell_length_a                   7.3028(3)
_cell_length_b                   13.9746(13)
_cell_length_c                   16.4665(12)
_cell_angle_alpha                90
_cell_angle_beta                 90
_cell_angle_gamma                90
_cell_volume                     1680.47
_cell_formula_units_Z            4
loop_
_atom_site_label
_atom_site_type_symbol
_atom_site_fract_x
_atom_site_fract_y
_atom_site_fract_z
C1 C -0.0008(2) 0.31098(10) 0.11768(8)
C2 C -0.17057(19) 0.18618(9) 0.20747(8)
C3 C -0.35781(18) 0.24581(10) 0.33175(8)
H1 H -0.2647 0.2278 0.3718
O1 O 0.24219(14) 0.23608(8) 0.08395(6)
C4 C -0.32109(19) 0.35016(9) 0.30589(8)
H2 H -0.4276 0.3748 0.2776
H3 H -0.3024 0.3890 0.3540
C5 C -0.5574(2) 0.06192(10) 0.33489(9)
H4 H -0.6531 0.0687 0.2944
H5 H -0.5675 -0.0015 0.3585
C6 C -0.34607(19) 0.17447(10) 0.26039(8)
H6 H -0.4511 0.1872 0.2250
C7 C -0.54876(19) 0.23840(10) 0.37335(8)
H7 H -0.6408 0.2539 0.3321
O2 O -0.31862(13) 0.31541(7) 0.12944(6)
H8 H -0.4107 0.3107 0.1577
C8 C -0.0209(2) 0.40741(10) 0.07329(9)
H9 H -0.1321 0.4074 0.0423
H10 H 0.0815 0.4166 0.0376
H11 H -0.0245 0.4583 0.1124
C9 C -0.0253(2) 0.12816(11) 0.07354(9)
H12 H 0.0740 0.0898 0.0952
H13 H -0.0612 0.1002 0.0220
O3 O -0.03061(15) 0.41248(7) 0.26524(6)
C10 C -0.16043(18) 0.29233(9) 0.17700(8)
C11 C 0.0005(2) 0.16063(10) 0.25705(9)
H14 H 0.0103 0.2031 0.3027
H15 H 0.1073 0.1669 0.2235
H16 H -0.0091 0.0959 0.2760
C12 C 0.2007(2) 0.30120(10) 0.14204(8)
C13 C 0.04627(19) 0.22873(11) 0.05784(9)
H17 H 0.0296 0.2480 0.0011
C14 C -0.3704(2) 0.07252(10) 0.29406(9)
H18 H -0.3599 0.0266 0.2501
H19 H -0.2745 0.0591 0.3332
C15 C -0.15575(19) 0.35879(9) 0.25143(8)
C16 C -0.6299(2) 0.11228(12) 0.47524(10)
H20 H -0.6471 0.0483 0.4889
H21 H -0.6452 0.1596 0.5143
C17 C -0.6979(2) 0.37653(11) 0.44221(11)
H22 H -0.7816 0.3812 0.3998
H23 H -0.7042 0.4189 0.4857
C18 C -0.58371(19) 0.13587(10) 0.40016(9)
C19 C -0.1881(2) 0.12179(10) 0.13203(9)
H24 H -0.2013 0.0559 0.1497
H25 H -0.2987 0.1392 0.1029
C20 C -0.5699(2) 0.30967(11) 0.44062(9)
H26 H -0.4881 0.3067 0.4838
O4 O 0.30921(14) 0.33678(7) 0.18722(6)
loop_
_geom_bond_atom_site_label_1
_geom_bond_atom_site_label_2
_geom_bond_site_symmetry_1
_geom_bond_site_symmetry_2
C1 C8 1_555 1_555
C2 C6 1_555 1_555
C3 H1 1_555 1_555
O1 C12 1_555 1_555
C4 C3 1_555 1_555
H2 C4 1_555 1_555
H3 C4 1_555 1_555
C5 H4 1_555 1_555
H5 C5 1_555 1_555
C6 C3 1_555 1_555
H6 C6 1_555 1_555
C7 C3 1_555 1_555
H7 C7 1_555 1_555
O2 H8 1_555 1_555
C8 H9 1_555 1_555
H10 C8 1_555 1_555
H11 C8 1_555 1_555
C9 H12 1_555 1_555
H13 C9 1_555 1_555
O3 C15 1_555 1_555
C10 C1 1_555 1_555
C11 C2 1_555 1_555
H14 C11 1_555 1_555
H15 C11 1_555 1_555
H16 C11 1_555 1_555
C12 C1 1_555 1_555
C13 C1 1_555 1_555
H17 C13 1_555 1_555
C14 C5 1_555 1_555
H18 C14 1_555 1_555
H19 C14 1_555 1_555
C15 C4 1_555 1_555
C16 H20 1_555 1_555
H21 C16 1_555 1_555
C17 H22 1_555 1_555
H23 C17 1_555 1_555
C18 C5 1_555 1_555
C19 C2 1_555 1_555
H24 C19 1_555 1_555
H25 C19 1_555 1_555
C20 C7 1_555 1_555
H26 C20 1_555 1_555
O4 C12 1_555 1_555
C2 C10 1_555 1_555
O1 C13 1_555 1_555
C6 C14 1_555 1_555
C7 C18 1_555 1_555
O2 C10 1_555 1_555
C9 C13 1_555 1_555
C9 C19 1_555 1_555
C10 C15 1_555 1_555
C16 C18 1_555 1_555
C17 C20 1_555 1_555

#END
