
#######################################################################
#
#                 Cambridge Crystallographic Data Centre
#                                CCDC 
#
#######################################################################
#
# If this CIF has been generated from an entry in the Cambridge 
# Structural Database, then it will include bibliographic, chemical, 
# crystal, experimental, refinement or atomic coordinate data resulting 
# from the CCDC's data processing and validation procedures.
#
#######################################################################

data_YOLNIY
_chemical_compound_source        'Phyllanthus poilanei'
_chemical_name_common            'Phyllanthusmin D'
_chemical_formula_moiety         'C30 H28 O13'
_chemical_name_systematic        
'6-((9-(1,3-benzodioxol-5-yl)-6,7-dimethoxy-1-oxo-1,3-dihydronaphtho[2,3-c]furan-4-yl)oxy)-5-hydroxytetrahydro-2H-pyran-3,4-diyl diacetate'
_chemical_properties_biological  'cytotoxic activity'
_symmetry_cell_setting           hexagonal
_symmetry_space_group_name_H-M   'P 61 2 2'
_symmetry_Int_Tables_number      178
_space_group_name_Hall           "P 61 2' (0,0,5)"
loop_
_symmetry_equiv_pos_site_id
_symmetry_equiv_pos_as_xyz
1 x,y,z
2 -x,-y,1/2+z
3 -y,x-y,1/3+z
4 -x+y,-x,2/3+z
5 x-y,x,1/6+z
6 y,-x+y,5/6+z
7 x-y,-y,-z
8 -x,-x+y,2/3-z
9 y,x,1/3-z
10 -y,-x,5/6-z
11 x,x-y,1/6-z
12 -x+y,y,1/2-z
_cell_length_a                   21.4292(6)
_cell_length_b                   21.4292(6)
_cell_length_c                   21.4162(6)
_cell_angle_alpha                90
_cell_angle_beta                 90
_cell_angle_gamma                120
_cell_volume                     8516.97
_exptl_crystal_colour            colorless
_exptl_crystal_description       needle
_cell_formula_units_Z            12
loop_
_atom_site_label
_atom_site_type_symbol
_atom_site_fract_x
_atom_site_fract_y
_atom_site_fract_z
C1 C 0.70505(12) 0.53372(13) 0.56227(10)
H1 H 0.6934 0.4888 0.5857
C2 C 0.78569(12) 0.58111(13) 0.55536(10)
H2 H 0.7969 0.6237 0.5285
C3 C 0.81714(12) 0.60594(13) 0.61982(11)
H3 H 0.8096 0.5633 0.6447
C4 C 0.78245(14) 0.64264(15) 0.65352(11)
H4 H 0.8019 0.6559 0.6969
C5 C 0.70184(14) 0.59165(17) 0.65486(12)
H5 H 0.691 0.5483 0.6794
H6 H 0.6779 0.6155 0.6754
C6 C 0.60041(13) 0.38611(13) 0.49898(11)
C7 C 0.53078(12) 0.32280(13) 0.49887(11)
C8 C 0.52806(13) 0.25510(13) 0.50104(10)
H7 H 0.4826 0.2121 0.5026
C9 C 0.58948(13) 0.25079(13) 0.50101(10)
C10 C 0.65842(13) 0.31462(12) 0.49864(11)
C11 C 0.66336(12) 0.38042(12) 0.49810(10)
H8 H 0.7094 0.4228 0.4971
C12 C 0.60577(12) 0.45463(13) 0.50144(11)
C13 C 0.54510(13) 0.46000(13) 0.50137(11)
C14 C 0.53743(13) 0.52545(14) 0.50296(13)
H9 H 0.5572 0.5527 0.5422
H10 H 0.5625 0.5575 0.4671
C15 C 0.46741(13) 0.32887(14) 0.49812(12)
C16 C 0.47684(13) 0.39801(14) 0.49868(11)
C17 C 0.42371(15) 0.42303(15) 0.49589(12)
C18 C 0.52477(15) 0.12184(14) 0.49944(15)
H11 H 0.4991 0.1211 0.4614
H12 H 0.4955 0.1178 0.536
H13 H 0.5337 0.0813 0.4989
C19 C 0.78618(13) 0.36679(14) 0.49126(13)
H14 H 0.7955 0.3977 0.5278
H15 H 0.7879 0.3933 0.4534
H16 H 0.8229 0.3524 0.4887
C20 C 0.93673(13) 0.65860(14) 0.65887(11)
C21 C 1.01259(13) 0.71263(15) 0.64519(12)
H17 H 1.0435 0.7128 0.679
H18 H 1.0174 0.7605 0.6418
H19 H 1.0271 0.7004 0.6057
C22 C 0.85753(18) 0.76826(18) 0.63233(16)
C23 C 0.8706(2) 0.82558(18) 0.5855(2)
H20 H 0.8832 0.8133 0.5451
H21 H 0.9103 0.872 0.5998
H22 H 0.8269 0.829 0.5808
O1 O 0.46000(9) 0.49677(10) 0.49919(9)
O2 O 0.35878(10) 0.39103(11) 0.49035(9)
O3 O 0.59222(9) 0.18824(8) 0.50252(8)
O4 O 0.71590(9) 0.30345(8) 0.49685(8)
O5 O 0.67377(8) 0.51632(9) 0.50194(7)
O6 O 0.81236(11) 0.53906(10) 0.52700(8)
H23 H 0.8547(18) 0.5625(17) 0.5230(14)
O7 O 0.89335(8) 0.65371(8) 0.61104(7)
O8 O 0.91421(9) 0.62238(11) 0.70525(8)
O9 O 0.79653(10) 0.70621(10) 0.61879(8)
O10 O 0.89676(13) 0.77563(12) 0.67532(11)
O11 O 0.67443(9) 0.57087(10) 0.59278(7)
C24 C 0.3962(4) 0.2589(5) 0.4887(6)
C25 C 0.3407(5) 0.2486(5) 0.5305(5)
H24 H 0.3495 0.2818 0.5634
C26 C 0.2738(4) 0.1889(7) 0.5221(5)
C27 C 0.2602(4) 0.1414(4) 0.4759(6)
C28 C 0.3121(4) 0.1460(4) 0.4352(4)
H25 H 0.3023 0.111 0.4038
C29 C 0.3803(5) 0.2063(5) 0.4437(5)
H26 H 0.4181 0.2118 0.4171
C30 C 0.1584(5) 0.1151(7) 0.5242(6)
H27 H 0.1249 0.1298 0.5069
H28 H 0.1308 0.0741 0.5529
O12 O 0.2125(3) 0.1726(3) 0.5579(4)
O13 O 0.1857(5) 0.0924(6) 0.4753(6)
C31? C 0.3910(5) 0.2708(7) 0.5071(7)
C32? C 0.3677(6) 0.2220(6) 0.4576(6)
H29? H 0.3981 0.2243 0.4243
C33? C 0.2963(4) 0.1704(4) 0.4621(4)
C34? C 0.2510(4) 0.1695(6) 0.5060(5)
C35? C 0.2755(4) 0.2156(5) 0.5558(4)
H30? H 0.2449 0.2113 0.5897
C36? C 0.3467(5) 0.2686(6) 0.5544(5)
H31? H 0.3655 0.3039 0.5864
C37? C 0.1876(6) 0.0775(8) 0.4438(7)
H32? H 0.1754 0.027 0.4509
H33? H 0.1527 0.0773 0.4134
O14? O 0.2564(3) 0.1163(3) 0.4197(2)
O15? O 0.1823(4) 0.1074(6) 0.4996(4)
loop_
_geom_bond_atom_site_label_1
_geom_bond_atom_site_label_2
_geom_bond_site_symmetry_1
_geom_bond_site_symmetry_2
C1 H1 1_555 1_555
C2 C1 1_555 1_555
H2 C2 1_555 1_555
C3 C2 1_555 1_555
H3 C3 1_555 1_555
C4 C3 1_555 1_555
H4 C4 1_555 1_555
C5 C4 1_555 1_555
H5 C5 1_555 1_555
H6 C5 1_555 1_555
C6 C7 1_555 1_555
C7 C8 1_555 1_555
C8 H7 1_555 1_555
C9 C8 1_555 1_555
C10 C9 1_555 1_555
C11 C6 1_555 1_555
H8 C11 1_555 1_555
C12 C6 1_555 1_555
C13 C12 1_555 1_555
C14 C13 1_555 1_555
H9 C14 1_555 1_555
H10 C14 1_555 1_555
C15 C7 1_555 1_555
C16 C13 1_555 1_555
C17 C16 1_555 1_555
C18 H11 1_555 1_555
H12 C18 1_555 1_555
H13 C18 1_555 1_555
C19 H14 1_555 1_555
H15 C19 1_555 1_555
H16 C19 1_555 1_555
C20 C21 1_555 1_555
C21 H17 1_555 1_555
H18 C21 1_555 1_555
H19 C21 1_555 1_555
C22 C23 1_555 1_555
C23 H20 1_555 1_555
H21 C23 1_555 1_555
H22 C23 1_555 1_555
O1 C14 1_555 1_555
O2 C17 1_555 1_555
O3 C9 1_555 1_555
O4 C10 1_555 1_555
O5 C1 1_555 1_555
O6 C2 1_555 1_555
H23 O6 1_555 1_555
O7 C3 1_555 1_555
O8 C20 1_555 1_555
O9 C4 1_555 1_555
O10 C22 1_555 1_555
O11 C1 1_555 1_555
C24 C15 1_555 1_555
C25 C24 1_555 1_555
H24 C25 1_555 1_555
C26 C25 1_555 1_555
C27 C26 1_555 1_555
C28 C27 1_555 1_555
H25 C28 1_555 1_555
C29 C24 1_555 1_555
H26 C29 1_555 1_555
C30 H27 1_555 1_555
H28 C30 1_555 1_555
O12 C26 1_555 1_555
O13 C27 1_555 1_555
C5 O11 1_555 1_555
C10 C11 1_555 1_555
C12 O5 1_555 1_555
C15 C16 1_555 1_555
C17 O1 1_555 1_555
C18 O3 1_555 1_555
C19 O4 1_555 1_555
C20 O7 1_555 1_555
C22 O9 1_555 1_555
C28 C29 1_555 1_555
C30 O12 1_555 1_555
C30 O13 1_555 1_555

#END
