
#######################################################################
#
#                 Cambridge Crystallographic Data Centre
#                                CCDC 
#
#######################################################################
#
# If this CIF has been generated from an entry in the Cambridge 
# Structural Database, then it will include bibliographic, chemical, 
# crystal, experimental, refinement or atomic coordinate data resulting 
# from the CCDC's data processing and validation procedures.
#
#######################################################################

data_YOLQAT
_chemical_formula_moiety         'C33 H44 O13'
_chemical_name_systematic        
(2R,3R,4S,5R,7S,8R,13R,15R)-3,5,7,15-Tetra-acetoxy-2-hydroxy-8-tigloyloxy-9,14-dioxojatropha-6(17),11E-diene
_symmetry_cell_setting           orthorhombic
_symmetry_space_group_name_H-M   'P 21 21 21'
_symmetry_Int_Tables_number      19
_space_group_name_Hall           'P 2ac 2ab'
loop_
_symmetry_equiv_pos_site_id
_symmetry_equiv_pos_as_xyz
1 x,y,z
2 1/2+x,1/2-y,-z
3 -x,1/2+y,1/2-z
4 1/2-x,-y,1/2+z
_cell_length_a                   13.3730(2)
_cell_length_b                   14.2814(2)
_cell_length_c                   17.7940(12)
_cell_angle_alpha                90
_cell_angle_beta                 90
_cell_angle_gamma                90
_cell_volume                     3398.39
_exptl_crystal_colour            colorless
_exptl_crystal_description       tabular
_cell_formula_units_Z            4
loop_
_atom_site_label
_atom_site_type_symbol
_atom_site_fract_x
_atom_site_fract_y
_atom_site_fract_z
O1 O 0.92733(13) 0.82525(11) 0.77351(9)
O2 O 0.50141(12) 0.65021(12) 0.82777(9)
O3 O 0.56823(14) 0.56339(13) 0.70004(10)
O4 O 0.79190(15) 0.85644(12) 0.59375(9)
O5 O 0.73500(14) 0.86350(12) 0.73677(10)
O6 O 0.95477(17) 0.65901(15) 0.56518(12)
H1 H 1.016(3) 0.653(3) 0.556(2)
O7 O 0.53931(15) 0.47062(15) 0.86743(15)
O8 O 1.04081(16) 0.61861(14) 0.70979(12)
O9 O 1.09100(15) 0.81146(15) 0.79623(12)
O10 O 0.6955(2) 0.8186(2) 0.49516(15)
O11 O 0.7066(2) 0.86148(17) 0.86084(13)
O12 O 0.51892(15) 0.66199(17) 0.95245(10)
O13 O 0.69778(19) 0.5180(2) 0.62939(13)
C1 C 0.9939(2) 0.79176(18) 0.64615(14)
H2 H 0.9958 0.8611 0.6468
H3 H 1.0633 0.7679 0.6458
C2 C 0.9370(2) 0.75680(19) 0.57697(14)
C3 C 0.8277(2) 0.76166(18) 0.60157(14)
H4 H 0.7858 0.7175 0.5714
C4 C 0.82966(19) 0.73211(17) 0.68481(13)
H5 H 0.8258 0.6622 0.6839
C5 C 0.74362(18) 0.76302(17) 0.73626(14)
H6 H 0.7601 0.7424 0.7885
C6 C 0.64524(19) 0.71865(18) 0.71474(14)
C7 C 0.63667(19) 0.61952(17) 0.74340(14)
H7 H 0.7043 0.5898 0.7407
C8 C 0.60182(18) 0.61722(17) 0.82540(14)
H8 H 0.6447 0.6607 0.8554
C9 C 0.61246(19) 0.51883(18) 0.85747(15)
C10 C 0.7181(2) 0.48151(18) 0.87388(14)
C11 C 0.79844(19) 0.55579(17) 0.86806(14)
H9 H 0.7918 0.6072 0.9015
C12 C 0.87624(19) 0.55860(17) 0.82281(15)
H10 H 0.8814 0.5118 0.7851
C13 C 0.9581(2) 0.63174(18) 0.82704(15)
H11 H 0.9343 0.6862 0.8575
C14 C 0.98580(18) 0.66518(17) 0.74800(15)
C15 C 0.93717(19) 0.75459(17) 0.71485(13)
C16 C 0.9609(3) 0.8113(3) 0.50610(16)
H12 H 0.9192 0.7884 0.4647
H13 H 1.0316 0.8027 0.4933
H14 H 0.9475 0.8779 0.5145
C17 C 0.5730(2) 0.7616(2) 0.67835(16)
H15 H 0.5117 0.7301 0.6690
H16 H 0.5821 0.8241 0.6614
C18 C 0.7167(3) 0.4447(3) 0.95535(18)
H17 H 0.7037 0.4967 0.9899
H18 H 0.7816 0.4165 0.9673
H19 H 0.6640 0.3975 0.9606
C19 C 0.7347(2) 0.3996(2) 0.8198(2)
H20 H 0.7984 0.3691 0.8314
H21 H 0.7361 0.4231 0.7680
H22 H 0.6801 0.3544 0.8252
C20 C 1.0508(2) 0.5887(2) 0.86448(19)
H23 H 1.0731 0.5344 0.8353
H24 H 1.0339 0.5689 0.9157
H25 H 1.1044 0.6354 0.8663
C21 C 1.0126(2) 0.84781(18) 0.81086(14)
C22 C 0.9949(3) 0.9182(2) 0.87097(16)
H26 H 1.0544 0.9577 0.8766
H27 H 0.9812 0.8860 0.9185
H28 H 0.9375 0.9574 0.8574
C23 C 0.7257(3) 0.8758(3) 0.53913(17)
C24 C 0.6953(3) 0.9757(3) 0.5411(2)
H29 H 0.6342 0.9841 0.5115
H30 H 0.7488 1.0144 0.5198
H31 H 0.6829 0.9946 0.5932
C25 C 0.7114(3) 1.0085(2) 0.7947(2)
H32 H 0.7062 1.0376 0.8445
H33 H 0.6526 1.0251 0.7647
H34 H 0.7719 1.0311 0.7695
C26 C 0.7169(3) 0.9039(2) 0.80319(17)
C27 C 0.46861(19) 0.67380(18) 0.89727(14)
C28 C 0.3658(2) 0.71362(18) 0.89440(15)
C29 C 0.3207(2) 0.7278(2) 0.95923(18)
H35 H 0.3570 0.7119 1.0033
C30 C 0.2182(3) 0.7665(3) 0.9700(2)
H36 H 0.1821 0.7649 0.9221
H37 H 0.2228 0.8313 0.9877
H38 H 0.1823 0.7287 1.0072
C31 C 0.3236(3) 0.7371(3) 0.81942(18)
H39 H 0.2636 0.7757 0.8258
H40 H 0.3060 0.6793 0.7929
H41 H 0.3733 0.7719 0.7902
C32 C 0.5345(3) 0.4592(2) 0.6011(2)
H42 H 0.5048 0.4127 0.6349
H43 H 0.5667 0.4271 0.5589
H44 H 0.4821 0.5009 0.5822
C33 C 0.6103(2) 0.5150(2) 0.64285(15)
loop_
_geom_bond_atom_site_label_1
_geom_bond_atom_site_label_2
_geom_bond_site_symmetry_1
_geom_bond_site_symmetry_2
O1 C15 1_555 1_555
O2 C8 1_555 1_555
O3 C7 1_555 1_555
O4 C3 1_555 1_555
O5 C5 1_555 1_555
O6 H1 1_555 1_555
O7 C9 1_555 1_555
O8 C14 1_555 1_555
O9 C21 1_555 1_555
O10 C23 1_555 1_555
O11 C26 1_555 1_555
O12 C27 1_555 1_555
O13 C33 1_555 1_555
C1 H2 1_555 1_555
H3 C1 1_555 1_555
C2 O6 1_555 1_555
C3 C2 1_555 1_555
H4 C3 1_555 1_555
C4 C3 1_555 1_555
H5 C4 1_555 1_555
C5 C4 1_555 1_555
H6 C5 1_555 1_555
C6 C5 1_555 1_555
C7 C6 1_555 1_555
H7 C7 1_555 1_555
C8 C7 1_555 1_555
H8 C8 1_555 1_555
C9 C8 1_555 1_555
C10 C9 1_555 1_555
C11 C10 1_555 1_555
H9 C11 1_555 1_555
C12 C11 1_555 1_555
H10 C12 1_555 1_555
C13 C12 1_555 1_555
H11 C13 1_555 1_555
C14 C13 1_555 1_555
C15 C1 1_555 1_555
C16 C2 1_555 1_555
H12 C16 1_555 1_555
H13 C16 1_555 1_555
H14 C16 1_555 1_555
C17 C6 1_555 1_555
H15 C17 1_555 1_555
H16 C17 1_555 1_555
C18 C10 1_555 1_555
H17 C18 1_555 1_555
H18 C18 1_555 1_555
H19 C18 1_555 1_555
C19 C10 1_555 1_555
H20 C19 1_555 1_555
H21 C19 1_555 1_555
H22 C19 1_555 1_555
C20 C13 1_555 1_555
H23 C20 1_555 1_555
H24 C20 1_555 1_555
H25 C20 1_555 1_555
C21 O1 1_555 1_555
C22 C21 1_555 1_555
H26 C22 1_555 1_555
H27 C22 1_555 1_555
H28 C22 1_555 1_555
C23 O4 1_555 1_555
C24 C23 1_555 1_555
H29 C24 1_555 1_555
H30 C24 1_555 1_555
H31 C24 1_555 1_555
C25 H32 1_555 1_555
H33 C25 1_555 1_555
H34 C25 1_555 1_555
C26 O5 1_555 1_555
C27 O2 1_555 1_555
C28 C27 1_555 1_555
C29 C28 1_555 1_555
H35 C29 1_555 1_555
C30 C29 1_555 1_555
H36 C30 1_555 1_555
H37 C30 1_555 1_555
H38 C30 1_555 1_555
C31 C28 1_555 1_555
H39 C31 1_555 1_555
H40 C31 1_555 1_555
H41 C31 1_555 1_555
C32 H42 1_555 1_555
H43 C32 1_555 1_555
H44 C32 1_555 1_555
C33 O3 1_555 1_555
C1 C2 1_555 1_555
C4 C15 1_555 1_555
C14 C15 1_555 1_555
C25 C26 1_555 1_555
C32 C33 1_555 1_555

#END
