
#######################################################################
#
#                 Cambridge Crystallographic Data Centre
#                                CCDC 
#
#######################################################################
#
# If this CIF has been generated from an entry in the Cambridge 
# Structural Database, then it will include bibliographic, chemical, 
# crystal, experimental, refinement or atomic coordinate data resulting 
# from the CCDC's data processing and validation procedures.
#
#######################################################################

data_YOLWIH
_chemical_formula_moiety         'C32 H40 B1 N1 S4'
_chemical_name_systematic        
2,5,9,12-tetrabutylbisthieno[2',3':5,6;3'',2'':3,4][1,2]azaborinino[1,2-a]bisthieno[3,2-c:2',3'-e][1,2]azaborinine
_symmetry_cell_setting           triclinic
_symmetry_space_group_name_H-M   'P -1'
_symmetry_Int_Tables_number      2
_space_group_name_Hall           '-P 1'
loop_
_symmetry_equiv_pos_site_id
_symmetry_equiv_pos_as_xyz
1 x,y,z
2 -x,-y,-z
_cell_length_a                   7.5956(3)
_cell_length_b                   10.7442(5)
_cell_length_c                   18.2411(8)
_cell_angle_alpha                86.994(4)
_cell_angle_beta                 83.691(4)
_cell_angle_gamma                82.603(4)
_cell_volume                     1466.19
_exptl_crystal_colour            colorless
_exptl_crystal_description       plate
_cell_formula_units_Z            2
_exptl_crystal_recrystallization_method chloroform/methanol
loop_
_atom_site_label
_atom_site_type_symbol
_atom_site_fract_x
_atom_site_fract_y
_atom_site_fract_z
B1 B 0.8431(2) 0.70115(19) 0.83061(10)
C1 C 1.0391(2) 0.39302(17) 0.73898(9)
C2 C 0.9908(2) 0.51896(17) 0.73790(9)
H1 H 1.0074 0.5709 0.6945
C3 C 0.9123(2) 0.56795(17) 0.80780(9)
C4 C 0.9068(2) 0.47175(17) 0.86104(9)
C5 C 0.8317(2) 0.49571(16) 0.93444(9)
C6 C 0.7738(2) 0.61519(17) 0.95877(9)
C7 C 0.6868(2) 0.61290(17) 1.03250(9)
H2 H 0.6348 0.6863 1.0574
C8 C 0.6865(2) 0.49475(17) 1.06308(9)
C9 C 0.7628(2) 0.94510(17) 0.67310(9)
C10 C 0.8118(2) 0.82749(17) 0.70017(9)
H3 H 0.8432 0.7576 0.6695
C11 C 0.8127(2) 0.81677(17) 0.77906(9)
C12 C 0.7620(2) 0.93258(17) 0.80947(9)
C13 C 0.7504(2) 0.94594(16) 0.88705(9)
C14 C 0.7699(2) 0.84346(16) 0.93613(9)
C15 C 0.7724(2) 0.88172(16) 1.01021(9)
H4 H 0.7893 0.8241 1.0509
C16 C 0.7484(2) 1.00817(17) 1.01639(9)
C17 C 1.1238(2) 0.30853(17) 0.67868(9)
H5 H 1.0416 0.2469 0.6714
H6 H 1.2345 0.2612 0.6947
C18 C 1.1693(2) 0.37676(18) 0.60521(9)
H7 H 1.2424 0.4439 0.6129
H8 H 1.0576 0.4169 0.5862
C19 C 1.2712(2) 0.28857(18) 0.54794(9)
H9 H 1.3828 0.2486 0.5670
H10 H 1.1981 0.2212 0.5405
C20 C 1.3171(3) 0.35543(19) 0.47406(10)
H11 H 1.2072 0.3961 0.4551
H12 H 1.3785 0.2943 0.4389
H13 H 1.3951 0.4190 0.4805
C21 C 0.6150(2) 0.45145(17) 1.13886(9)
H14 H 0.7127 0.3994 1.1620
H15 H 0.5214 0.3972 1.1339
C22 C 0.5369(2) 0.55588(17) 1.19013(9)
H16 H 0.4290 0.6018 1.1709
H17 H 0.6249 0.6159 1.1915
C23 C 0.4878(2) 0.50423(18) 1.26819(9)
H18 H 0.4047 0.4409 1.2663
H19 H 0.5969 0.4617 1.2881
C24 C 0.4008(2) 0.60662(18) 1.31980(9)
H20 H 0.4821 0.6700 1.3215
H21 H 0.3751 0.5696 1.3695
H22 H 0.2894 0.6461 1.3017
C25 C 0.7338(2) 0.98567(17) 0.59489(9)
H23 H 0.6044 0.9922 0.5899
H24 H 0.7946 0.9192 0.5621
C26 C 0.7993(2) 1.10991(17) 0.56784(9)
H25 H 0.7361 1.1778 0.5991
H26 H 0.9284 1.1050 0.5730
C27 C 0.7684(2) 1.14196(18) 0.48762(9)
H27 H 0.8412 1.0781 0.4561
H28 H 0.6413 1.1377 0.4817
C28 C 0.8150(3) 1.27126(19) 0.46092(10)
H29 H 0.7414 1.3353 0.4910
H30 H 0.7924 1.2861 0.4091
H31 H 0.9414 1.2757 0.4655
C29 C 0.7395(2) 1.08562(17) 1.08314(9)
H32 H 0.6267 1.1435 1.0859
H33 H 0.8390 1.1377 1.0761
C30 C 0.7490(2) 1.01232(17) 1.15673(9)
H34 H 0.8684 0.9633 1.1579
H35 H 0.6588 0.9527 1.1623
C31 C 0.7144(2) 1.10216(17) 1.22030(9)
H36 H 0.7964 1.1672 1.2111
H37 H 0.5908 1.1451 1.2212
C32 C 0.7391(3) 1.03831(19) 1.29513(9)
H38 H 0.6616 0.9717 1.3040
H39 H 0.7078 1.1001 1.3336
H40 H 0.8639 1.0018 1.2962
N1 N 0.79483(17) 0.72052(14) 0.91005(7)
S1 S 0.98954(5) 0.32638(4) 0.82700(2)
S2 S 0.78849(5) 0.38289(4) 1.00212(2)
S3 S 0.71817(6) 1.05162(4) 0.74384(2)
S4 S 0.72607(5) 1.08577(4) 0.93148(2)
loop_
_geom_bond_atom_site_label_1
_geom_bond_atom_site_label_2
_geom_bond_site_symmetry_1
_geom_bond_site_symmetry_2
B1 C3 1_555 1_555
C1 C2 1_555 1_555
C2 H1 1_555 1_555
C3 C2 1_555 1_555
C4 C3 1_555 1_555
C5 C4 1_555 1_555
C6 C5 1_555 1_555
C7 C6 1_555 1_555
H2 C7 1_555 1_555
C8 C7 1_555 1_555
C9 C10 1_555 1_555
C10 H3 1_555 1_555
C11 B1 1_555 1_555
C12 C11 1_555 1_555
C13 C12 1_555 1_555
C14 C13 1_555 1_555
C15 C14 1_555 1_555
H4 C15 1_555 1_555
C16 C15 1_555 1_555
C17 C1 1_555 1_555
H5 C17 1_555 1_555
H6 C17 1_555 1_555
C18 C17 1_555 1_555
H7 C18 1_555 1_555
H8 C18 1_555 1_555
C19 C18 1_555 1_555
H9 C19 1_555 1_555
H10 C19 1_555 1_555
C20 C19 1_555 1_555
H11 C20 1_555 1_555
H12 C20 1_555 1_555
H13 C20 1_555 1_555
C21 C8 1_555 1_555
H14 C21 1_555 1_555
H15 C21 1_555 1_555
C22 C21 1_555 1_555
H16 C22 1_555 1_555
H17 C22 1_555 1_555
C23 C22 1_555 1_555
H18 C23 1_555 1_555
H19 C23 1_555 1_555
C24 C23 1_555 1_555
H20 C24 1_555 1_555
H21 C24 1_555 1_555
H22 C24 1_555 1_555
C25 C9 1_555 1_555
H23 C25 1_555 1_555
H24 C25 1_555 1_555
C26 C25 1_555 1_555
H25 C26 1_555 1_555
H26 C26 1_555 1_555
C27 C26 1_555 1_555
H27 C27 1_555 1_555
H28 C27 1_555 1_555
C28 C27 1_555 1_555
H29 C28 1_555 1_555
H30 C28 1_555 1_555
H31 C28 1_555 1_555
C29 C16 1_555 1_555
H32 C29 1_555 1_555
H33 C29 1_555 1_555
C30 C29 1_555 1_555
H34 C30 1_555 1_555
H35 C30 1_555 1_555
C31 C30 1_555 1_555
H36 C31 1_555 1_555
H37 C31 1_555 1_555
C32 C31 1_555 1_555
H38 C32 1_555 1_555
H39 C32 1_555 1_555
H40 C32 1_555 1_555
N1 B1 1_555 1_555
S1 C1 1_555 1_555
S2 C5 1_555 1_555
S3 C9 1_555 1_555
S4 C13 1_555 1_555
C4 S1 1_555 1_555
C6 N1 1_555 1_555
C8 S2 1_555 1_555
C10 C11 1_555 1_555
C12 S3 1_555 1_555
C14 N1 1_555 1_555
C16 S4 1_555 1_555

#END
