
#######################################################################
#
#                 Cambridge Crystallographic Data Centre
#                                CCDC 
#
#######################################################################
#
# If this CIF has been generated from an entry in the Cambridge 
# Structural Database, then it will include bibliographic, chemical, 
# crystal, experimental, refinement or atomic coordinate data resulting 
# from the CCDC's data processing and validation procedures.
#
#######################################################################

data_YOMGIQ
_chemical_compound_source        'Rabdosia macrocalyx Hara'
_chemical_name_common            'Macrocalyxin I'
_chemical_formula_moiety         'C20 H30 O3'
_chemical_name_systematic        
'2-(1,2,3,4,4a,4b,5,6,7,8,8a,9-Dodecahydro-7-hydroxy-4b,8,8-trimethylphenanthren-2-yl)propenoic acid'
_chemical_properties_biological  'possible biological activity'
_symmetry_cell_setting           monoclinic
_symmetry_space_group_name_H-M   'C 2'
_symmetry_Int_Tables_number      5
_space_group_name_Hall           'C 2y'
loop_
_symmetry_equiv_pos_site_id
_symmetry_equiv_pos_as_xyz
1 x,y,z
2 -x,y,-z
3 1/2+x,1/2+y,z
4 1/2-x,1/2+y,-z
_cell_length_a                   24.066(2)
_cell_length_b                   10.0170(10)
_cell_length_c                   7.6080(10)
_cell_angle_alpha                90
_cell_angle_beta                 101.350(10)
_cell_angle_gamma                90
_cell_volume                     1798.19
_exptl_crystal_colour            colorless
_exptl_crystal_description       prism
_chemical_melting_point          '217.5-219.5 deg.C'
_cell_formula_units_Z            4
_exptl_crystal_recrystallization_method water/chloroform/methanol
loop_
_atom_site_label
_atom_site_type_symbol
_atom_site_fract_x
_atom_site_fract_y
_atom_site_fract_z
O1 O 0.90473(7) 0.3283(2) 0.8642(2)
H1 H 0.9180 0.3124 0.9699
O2 O 0.53159(7) 0.75895(18) 0.8040(3)
O3 O 0.45819(7) 0.62074(19) 0.7549(3)
H2 H 0.4414 0.6885 0.7756
C1 C 0.83633(10) 0.5363(3) 0.9824(3)
H3 H 0.8278 0.5933 1.0767
H4 H 0.8295 0.4447 1.0134
C2 C 0.89867(11) 0.5522(3) 0.9736(4)
H5 H 0.9063 0.6450 0.9508
H6 H 0.9219 0.5275 1.0882
C3 C 0.91440(10) 0.4655(3) 0.8268(3)
H7 H 0.9547 0.4779 0.8259
C4 C 0.87985(10) 0.4993(3) 0.6406(3)
C5 C 0.81543(9) 0.4995(2) 0.6465(3)
H8 H 0.8062 0.4054 0.6611
C6 C 0.77756(10) 0.5410(3) 0.4699(3)
H9 H 0.7857 0.6329 0.4434
H10 H 0.7858 0.4854 0.3738
C7 C 0.71645(11) 0.5280(3) 0.4782(3)
H11 H 0.6900 0.5310 0.3712
C8 C 0.69758(10) 0.5125(3) 0.6285(3)
C9 C 0.73609(9) 0.5174(3) 0.8114(3)
H12 H 0.7413 0.4247 0.8524
C10 C 0.79625(10) 0.5718(3) 0.8048(3)
C11 C 0.70718(9) 0.5897(4) 0.9470(3)
H13 H 0.7297 0.5768 1.0664
H14 H 0.7063 0.6847 0.9215
C12 C 0.64725(10) 0.5421(3) 0.9445(3)
H15 H 0.6311 0.5924 1.0313
H16 H 0.6479 0.4486 0.9781
C13 C 0.61058(9) 0.5600(3) 0.7583(3)
H17 H 0.6131 0.6541 0.7256
C14 C 0.63637(10) 0.4785(3) 0.6268(3)
H18 H 0.6337 0.3846 0.6549
H19 H 0.6145 0.4929 0.5069
C15 C 0.54878(10) 0.5299(3) 0.7544(3)
C16 C 0.51282(10) 0.6467(3) 0.7736(3)
C17 C 0.52643(13) 0.4102(3) 0.7418(5)
H20 H 0.4883 0.3992 0.7450
H21 H 0.5487 0.3362 0.7297
C18 C 0.90256(13) 0.6308(3) 0.5786(5)
H22 H 0.9416 0.6198 0.5705
H23 H 0.8994 0.7000 0.6633
H24 H 0.8809 0.6547 0.4631
C19 C 0.89093(12) 0.3919(3) 0.5080(4)
H25 H 0.8738 0.3094 0.5336
H26 H 0.9310 0.3795 0.5194
H27 H 0.8749 0.4196 0.3880
C20 C 0.79329(13) 0.7233(3) 0.7790(4)
H28 H 0.8286 0.7551 0.7545
H29 H 0.7862 0.7650 0.8860
H30 H 0.7632 0.7450 0.6802
loop_
_geom_bond_atom_site_label_1
_geom_bond_atom_site_label_2
_geom_bond_site_symmetry_1
_geom_bond_site_symmetry_2
O1 H1 1_555 1_555
O2 C16 1_555 1_555
O3 H2 1_555 1_555
C1 H3 1_555 1_555
H4 C1 1_555 1_555
C2 C1 1_555 1_555
H5 C2 1_555 1_555
H6 C2 1_555 1_555
C3 O1 1_555 1_555
H7 C3 1_555 1_555
C4 C3 1_555 1_555
C5 C4 1_555 1_555
H8 C5 1_555 1_555
C6 C5 1_555 1_555
H9 C6 1_555 1_555
H10 C6 1_555 1_555
C7 C6 1_555 1_555
H11 C7 1_555 1_555
C8 C7 1_555 1_555
C9 C8 1_555 1_555
H12 C9 1_555 1_555
C10 C1 1_555 1_555
C11 C9 1_555 1_555
H13 C11 1_555 1_555
H14 C11 1_555 1_555
C12 C11 1_555 1_555
H15 C12 1_555 1_555
H16 C12 1_555 1_555
C13 C12 1_555 1_555
H17 C13 1_555 1_555
C14 C8 1_555 1_555
H18 C14 1_555 1_555
H19 C14 1_555 1_555
C15 C13 1_555 1_555
C16 O3 1_555 1_555
C17 C15 1_555 1_555
H20 C17 1_555 1_555
H21 C17 1_555 1_555
C18 C4 1_555 1_555
H22 C18 1_555 1_555
H23 C18 1_555 1_555
H24 C18 1_555 1_555
C19 C4 1_555 1_555
H25 C19 1_555 1_555
H26 C19 1_555 1_555
H27 C19 1_555 1_555
C20 C10 1_555 1_555
H28 C20 1_555 1_555
H29 C20 1_555 1_555
H30 C20 1_555 1_555
C2 C3 1_555 1_555
C5 C10 1_555 1_555
C9 C10 1_555 1_555
C13 C14 1_555 1_555
C15 C16 1_555 1_555

#END
