
#######################################################################
#
#                 Cambridge Crystallographic Data Centre
#                                CCDC 
#
#######################################################################
#
# If this CIF has been generated from an entry in the Cambridge 
# Structural Database, then it will include bibliographic, chemical, 
# crystal, experimental, refinement or atomic coordinate data resulting 
# from the CCDC's data processing and validation procedures.
#
#######################################################################

data_YOMLIW01
_chemical_formula_moiety         'C20 H18 N2 O2'
_chemical_name_systematic        
'ethyl 2-cyano-3-(9-ethyl-9H-carbazol-3-yl)acrylate'
_symmetry_cell_setting           monoclinic
_symmetry_space_group_name_H-M   'P 21/c'
_symmetry_Int_Tables_number      14
_space_group_name_Hall           '-P 2ybc'
loop_
_symmetry_equiv_pos_site_id
_symmetry_equiv_pos_as_xyz
1 x,y,z
2 -x,1/2+y,1/2-z
3 -x,-y,-z
4 x,1/2-y,1/2+z
_cell_length_a                   10.8298(15)
_cell_length_b                   13.4660(19)
_cell_length_c                   15.4358(16)
_cell_angle_alpha                90
_cell_angle_beta                 131.214(6)
_cell_angle_gamma                90
_cell_volume                     1693.37
_exptl_crystal_colour            yellow
_exptl_crystal_description       Clavate
_cell_formula_units_Z            4
loop_
_atom_site_label
_atom_site_type_symbol
_atom_site_fract_x
_atom_site_fract_y
_atom_site_fract_z
C1 C -0.2932(4) 0.9129(2) 0.0574(3)
H1 H -0.3258 0.9790 0.0452
C2 C -0.3974(4) 0.8401(3) 0.0390(3)
H2 H -0.4990 0.8581 0.0145
C3 C -0.3551(4) 0.7421(3) 0.0558(3)
H3 H -0.4259 0.6932 0.0434
C4 C -0.2022(3) 0.7179(2) 0.0922(2)
C5 C -0.0938(3) 0.79089(18) 0.1129(2)
C6 C -0.1421(3) 0.8897(2) 0.0935(2)
H4 H -0.0732 0.9395 0.1048
C7 C 0.0524(3) 0.73952(17) 0.15205(19)
C8 C 0.2037(3) 0.77053(17) 0.19110(19)
H5 H 0.2252 0.8380 0.1952
C9 C 0.3239(3) 0.70140(17) 0.2243(2)
C10 C 0.2880(3) 0.59940(18) 0.2184(2)
H6 H 0.3670 0.5526 0.2398
C11 C 0.1405(3) 0.56754(19) 0.1821(3)
H7 H 0.1193 0.5001 0.1790
C12 C 0.0228(3) 0.63780(18) 0.1498(2)
C13 C -0.1996(5) 0.5288(3) 0.1136(4)
H8 H -0.1121 0.4819 0.1658
H9 H -0.2623 0.5384 0.1373
C14 C -0.2997(6) 0.4932(4) 0.0025(4)
H10 H -0.3847 0.5406 -0.0486
H11 H -0.3481 0.4316 -0.0018
H12 H -0.2359 0.4825 -0.0195
C15 C 0.4769(3) 0.73963(19) 0.2630(2)
H13 H 0.4832 0.8086 0.2675
C16 C 0.6135(3) 0.69599(17) 0.2944(2)
C17 C 0.6341(3) 0.5907(2) 0.2938(2)
C18 C 0.7531(3) 0.7591(2) 0.3331(2)
C19 C 1.0212(3) 0.7618(2) 0.3989(2)
H14 H 1.0594 0.8041 0.4632
H15 H 0.9940 0.8033 0.3370
C20 C 1.1513(4) 0.6886(3) 0.4348(3)
H16 H 1.2487 0.7234 0.4624
H17 H 1.1131 0.6481 0.3701
H18 H 1.1758 0.6472 0.4951
N1 N -0.1289(3) 0.62578(17) 0.1165(2)
N2 N 0.6514(3) 0.5082(2) 0.2913(3)
O1 O 0.7549(2) 0.84795(14) 0.33996(18)
O2 O 0.8784(2) 0.70602(12) 0.36035(15)
C21? C -0.1427(17) 0.5490(10) 0.1742(15)
H19? H -0.0334 0.5220 0.2326
H20? H -0.1714 0.5817 0.2149
C22? C -0.250(2) 0.4667(10) 0.1161(18)
H21? H -0.3299 0.4682 0.1250
H22? H -0.1882 0.4062 0.1481
H23? H -0.3052 0.4700 0.0357
loop_
_geom_bond_atom_site_label_1
_geom_bond_atom_site_label_2
_geom_bond_site_symmetry_1
_geom_bond_site_symmetry_2
C1 H1 1_555 1_555
C2 C1 1_555 1_555
H2 C2 1_555 1_555
C3 C2 1_555 1_555
H3 C3 1_555 1_555
C4 C3 1_555 1_555
C5 C4 1_555 1_555
C6 C1 1_555 1_555
H4 C6 1_555 1_555
C7 C5 1_555 1_555
C8 C7 1_555 1_555
H5 C8 1_555 1_555
C9 C8 1_555 1_555
C10 C9 1_555 1_555
H6 C10 1_555 1_555
C11 C10 1_555 1_555
H7 C11 1_555 1_555
C12 C7 1_555 1_555
C13 H8 1_555 1_555
H9 C13 1_555 1_555
C14 C13 1_555 1_555
H10 C14 1_555 1_555
H11 C14 1_555 1_555
H12 C14 1_555 1_555
C15 C9 1_555 1_555
H13 C15 1_555 1_555
C16 C15 1_555 1_555
C17 C16 1_555 1_555
C18 C16 1_555 1_555
C19 H14 1_555 1_555
H15 C19 1_555 1_555
C20 C19 1_555 1_555
H16 C20 1_555 1_555
H17 C20 1_555 1_555
H18 C20 1_555 1_555
N1 C4 1_555 1_555
N2 C17 1_555 1_555
O1 C18 1_555 1_555
O2 C18 1_555 1_555
C5 C6 1_555 1_555
C11 C12 1_555 1_555
C12 N1 1_555 1_555
C13 N1 1_555 1_555
C19 O2 1_555 1_555

#END
