
#######################################################################
#
#                 Cambridge Crystallographic Data Centre
#                                CCDC 
#
#######################################################################
#
# If this CIF has been generated from an entry in the Cambridge 
# Structural Database, then it will include bibliographic, chemical, 
# crystal, experimental, refinement or atomic coordinate data resulting 
# from the CCDC's data processing and validation procedures.
#
#######################################################################

data_YOMLER
_chemical_formula_moiety         'C12 H25 N2 S3 1+,Cl1 1-'
_chemical_name_systematic        
'2,2,5,5-Tetramethyl-3,4,13-trithia-7-azonia-10-azabicyclo(8.3.0)tridecane chloride'
_symmetry_cell_setting           triclinic
_symmetry_space_group_name_H-M   'P -1'
_symmetry_Int_Tables_number      2
_space_group_name_Hall           '-P 1'
loop_
_symmetry_equiv_pos_site_id
_symmetry_equiv_pos_as_xyz
1 x,y,z
2 -x,-y,-z
_cell_length_a                   6.921(2)
_cell_length_b                   9.650(2)
_cell_length_c                   13.712(2)
_cell_angle_alpha                106.88(2)
_cell_angle_beta                 101.04(2)
_cell_angle_gamma                97.93(2)
_cell_volume                     841.652
_exptl_crystal_colour            colorless
_chemical_melting_point          191-193deg.C
_cell_formula_units_Z            2
loop_
_atom_site_label
_atom_site_type_symbol
_atom_site_fract_x
_atom_site_fract_y
_atom_site_fract_z
S1 S 0.6793(2) 0.4066(2) 0.4162(1)
S2 S 0.4672(2) 0.2378(2) 0.3056(1)
S3 S 1.0101(3) 0.7157(2) 0.2844(1)
N1 N 0.8552(6) 0.4229(4) 0.2050(3)
N2 N 0.7337(6) 0.1137(5) 0.1432(3)
C1 C 0.7323(8) 0.5593(5) 0.3605(4)
C2 C 0.9045(8) 0.5387(5) 0.3053(4)
C3 C 1.0085(8) 0.3346(6) 0.1910(4)
C4 C 0.9159(8) 0.1789(6) 0.1161(5)
C5 C 0.7693(8) 0.0929(6) 0.2476(4)
C6 C 0.5776(9) 0.0721(6) 0.2846(4)
C7 C 0.8029(9) 0.6916(6) 0.4618(5)
C8 C 0.5396(8) 0.5716(6) 0.2905(5)
C9 C 0.9704(10) 0.6258(7) 0.1458(5)
C10 C 0.8116(9) 0.4863(6) 0.1203(4)
C11 C 0.6312(11) 0.0389(7) 0.3881(5)
C12 C 0.4116(9) -0.0499(6) 0.2044(5)
H1 H 1.010 0.516 0.351
H2 H 1.075 0.330 0.258
H3 H 1.107 0.381 0.164
H4 H 0.879 0.182 0.046
H5 H 1.013 0.117 0.118
H6 H 0.862 0.178 0.298
H7 H 0.830 0.009 0.245
H8 H 0.836 0.780 0.445
H9 H 0.697 0.700 0.498
H10 H 0.920 0.678 0.506
H11 H 0.569 0.650 0.263
H12 H 0.487 0.480 0.234
H13 H 0.441 0.592 0.331
H14 H 1.092 0.601 0.129
H15 H 0.925 0.688 0.107
H16 H 0.681 0.511 0.115
H17 H 0.812 0.416 0.054
H18 H 0.689 -0.048 0.377
H19 H 0.726 0.122 0.440
H20 H 0.512 0.022 0.412
H21 H 0.458 -0.142 0.189
H22 H 0.296 -0.060 0.233
H23 H 0.376 -0.025 0.141
H24 H 0.644 0.170 0.134
H25 H 0.681 0.028 0.090
Cl1 Cl 0.6457(2) -0.1978(2) -0.0129(1)
loop_
_geom_bond_atom_site_label_1
_geom_bond_atom_site_label_2
_geom_bond_site_symmetry_1
_geom_bond_site_symmetry_2
S1 S2 1_555 1_555
S2 C6 1_555 1_555
S3 C2 1_555 1_555
N1 C2 1_555 1_555
N2 C4 1_555 1_555
C1 S1 1_555 1_555
C2 C1 1_555 1_555
C3 N1 1_555 1_555
C4 C3 1_555 1_555
C5 N2 1_555 1_555
C6 C5 1_555 1_555
C7 C1 1_555 1_555
C8 C1 1_555 1_555
C9 S3 1_555 1_555
C10 N1 1_555 1_555
C11 C6 1_555 1_555
C12 C6 1_555 1_555
H1 C2 1_555 1_555
H2 C3 1_555 1_555
H3 C3 1_555 1_555
H4 C4 1_555 1_555
H5 C4 1_555 1_555
H6 C5 1_555 1_555
H7 C5 1_555 1_555
H8 C7 1_555 1_555
H9 C7 1_555 1_555
H10 C7 1_555 1_555
H11 C8 1_555 1_555
H12 C8 1_555 1_555
H13 C8 1_555 1_555
H14 C9 1_555 1_555
H15 C9 1_555 1_555
H16 C10 1_555 1_555
H17 C10 1_555 1_555
H18 C11 1_555 1_555
H19 C11 1_555 1_555
H20 C11 1_555 1_555
H21 C12 1_555 1_555
H22 C12 1_555 1_555
H23 C12 1_555 1_555
H24 N2 1_555 1_555
H25 N2 1_555 1_555
C9 C10 1_555 1_555

#END
