
#######################################################################
#
#                 Cambridge Crystallographic Data Centre
#                                CCDC 
#
#######################################################################
#
# If this CIF has been generated from an entry in the Cambridge 
# Structural Database, then it will include bibliographic, chemical, 
# crystal, experimental, refinement or atomic coordinate data resulting 
# from the CCDC's data processing and validation procedures.
#
#######################################################################

data_YOMMUJ
_chemical_formula_moiety         'C13 H16 F3 N1 O5'
_chemical_name_systematic        
'(E)-1-Ethyl 6-methyl 2-cyano-4-ethyl-5-hydroxy-5-(trifluoromethyl)hex-2-enedioate'
_symmetry_cell_setting           monoclinic
_symmetry_space_group_name_H-M   'P 21/n'
_symmetry_Int_Tables_number      14
_space_group_name_Hall           '-P 2yn'
loop_
_symmetry_equiv_pos_site_id
_symmetry_equiv_pos_as_xyz
1 x,y,z
2 1/2-x,1/2+y,1/2-z
3 -x,-y,-z
4 1/2+x,1/2-y,1/2+z
_cell_length_a                   11.381(3)
_cell_length_b                   9.051(2)
_cell_length_c                   15.904(3)
_cell_angle_alpha                90
_cell_angle_beta                 108.945(4)
_cell_angle_gamma                90
_cell_volume                     1549.52
_exptl_crystal_colour            colorless
_exptl_crystal_description       prismatic
_chemical_melting_point          95-98deg.C
_cell_formula_units_Z            4
loop_
_atom_site_label
_atom_site_type_symbol
_atom_site_fract_x
_atom_site_fract_y
_atom_site_fract_z
H1 H 0.632(3) 0.736(3) 0.669(2)
F1 F 0.41679(17) 0.6723(2) 0.82189(14)
F2 F 0.47895(18) 0.4993(2) 0.75610(14)
F3 F 0.3667(2) 0.6731(3) 0.68033(15)
O1 O 0.6231(2) 0.6668(2) 0.69908(14)
O2 O 0.5479(2) 0.9470(2) 0.66727(15)
O3 O 0.49414(19) 0.9612(2) 0.79007(13)
O4 O 0.7728(2) 0.2761(2) 0.92761(16)
O5 O 0.73320(17) 0.31119(18) 1.05448(12)
N1 N 0.6154(3) 0.6511(3) 1.06546(19)
C1 C 0.4591(3) 0.6434(4) 0.7553(2)
C2 C 0.5754(2) 0.7330(3) 0.76038(17)
C3 C 0.6706(2) 0.7294(3) 0.85497(17)
H2 H 0.6327 0.7741 0.8961
C4 C 0.7064(2) 0.5745(3) 0.88355(17)
H3 H 0.7360 0.5172 0.8462
C5 C 0.7003(2) 0.5099(3) 0.95716(17)
C6 C 0.6539(3) 0.5876(3) 1.01834(19)
C7 C 0.7870(3) 0.8199(3) 0.8578(2)
H4 H 0.8217 0.7796 0.8144
H5 H 0.7621 0.9210 0.8406
C8 C 0.8852(3) 0.8205(4) 0.9468(3)
H6 H 0.8491 0.8477 0.9914
H7 H 0.9486 0.8905 0.9467
H8 H 0.9212 0.7238 0.9595
C9 C 0.5368(3) 0.8918(3) 0.73277(18)
C10 C 0.4560(4) 1.1137(4) 0.7698(2)
H9 H 0.5227 1.1687 0.7604
H10 H 0.4353 1.1559 0.8186
H11 H 0.3846 1.1172 0.7171
C11 C 0.7397(2) 0.3540(3) 0.9767(2)
C12 C 0.7605(3) 0.1575(3) 1.0788(2)
H12 H 0.7841 0.1473 1.1429
H13 H 0.8299 0.1252 1.0606
C13 C 0.6519(3) 0.0638(3) 1.0363(2)
H14 H 0.5826 0.0976 1.0529
H15 H 0.6707 -0.0366 1.0553
H16 H 0.6316 0.0693 0.9729
loop_
_geom_bond_atom_site_label_1
_geom_bond_atom_site_label_2
_geom_bond_site_symmetry_1
_geom_bond_site_symmetry_2
H1 O1 1_555 1_555
F1 C1 1_555 1_555
F2 C1 1_555 1_555
F3 C1 1_555 1_555
O1 C2 1_555 1_555
O2 C9 1_555 1_555
O3 C9 1_555 1_555
O4 C11 1_555 1_555
O5 C11 1_555 1_555
N1 C6 1_555 1_555
C1 C2 1_555 1_555
C2 C3 1_555 1_555
C3 H2 1_555 1_555
C4 C3 1_555 1_555
H3 C4 1_555 1_555
C5 C4 1_555 1_555
C6 C5 1_555 1_555
C7 C3 1_555 1_555
H4 C7 1_555 1_555
H5 C7 1_555 1_555
C8 C7 1_555 1_555
H6 C8 1_555 1_555
H7 C8 1_555 1_555
H8 C8 1_555 1_555
C9 C2 1_555 1_555
C10 O3 1_555 1_555
H9 C10 1_555 1_555
H10 C10 1_555 1_555
H11 C10 1_555 1_555
C11 C5 1_555 1_555
C12 O5 1_555 1_555
H12 C12 1_555 1_555
H13 C12 1_555 1_555
C13 C12 1_555 1_555
H14 C13 1_555 1_555
H15 C13 1_555 1_555
H16 C13 1_555 1_555

#END
