
#######################################################################
#
#                 Cambridge Crystallographic Data Centre
#                                CCDC 
#
#######################################################################
#
# If this CIF has been generated from an entry in the Cambridge 
# Structural Database, then it will include bibliographic, chemical, 
# crystal, experimental, refinement or atomic coordinate data resulting 
# from the CCDC's data processing and validation procedures.
#
#######################################################################

data_YOMXUT02
_chemical_formula_moiety         'C8 F4 N3 S2'
_chemical_name_systematic        
'4-(p-Cyano-2,3,5,6-tetrafluorophenyl)-1,2,3,5-dithiadiazolyl radical'
_symmetry_cell_setting           orthorhombic
_symmetry_space_group_name_H-M   'F d d 2'
_symmetry_Int_Tables_number      43
_space_group_name_Hall           'F 2 -2d'
loop_
_symmetry_equiv_pos_site_id
_symmetry_equiv_pos_as_xyz
1 x,y,z
2 -x,-y,z
3 1/4+x,1/4-y,1/4+z
4 1/4-x,1/4+y,1/4+z
5 x,1/2+y,1/2+z
6 -x,1/2-y,1/2+z
7 1/4+x,3/4-y,3/4+z
8 1/4-x,3/4+y,3/4+z
9 1/2+x,y,1/2+z
10 1/2-x,-y,1/2+z
11 3/4+x,1/4-y,3/4+z
12 3/4-x,1/4+y,3/4+z
13 1/2+x,1/2+y,z
14 1/2-x,1/2-y,z
15 3/4+x,3/4-y,1/4+z
16 3/4-x,3/4+y,1/4+z
_cell_length_a                   14.913(3)
_cell_length_b                   10.735(2)
_cell_length_c                   11.925(2)
_cell_angle_alpha                90
_cell_angle_beta                 90
_cell_angle_gamma                90
_cell_volume                     1909.09
_exptl_crystal_colour            black
_exptl_crystal_description       needle
_cell_formula_units_Z            8
loop_
_atom_site_label
_atom_site_type_symbol
_atom_site_fract_x
_atom_site_fract_y
_atom_site_fract_z
S1 S -0.18185(3) 0.22666(5) 0.23824(3)
N1 N -0.17355(11) 0.22164(17) 0.10098(14)
C1 C -0.2500 0.2500 0.0486(2)
C2 C -0.2500 0.2500 -0.0762(2)
C3 C -0.22868(12) 0.14288(18) -0.13676(17)
C4 C -0.22947(11) 0.14183(17) -0.25320(16)
C5 C -0.2500 0.2500 -0.3126(2)
C6 C -0.2500 0.2500 -0.4333(3)
N2 N -0.2500 0.2500 -0.5289(2)
F1 F -0.21050(8) 0.03650(11) -0.08238(11)
F2 F -0.21172(8) 0.03706(11) -0.30839(10)
S1M S -0.31815(3) 0.27334(5) 0.23824(3)
N1M N -0.32645(11) 0.27836(17) 0.10098(14)
C3M C -0.27132(12) 0.35712(18) -0.13676(17)
C4M C -0.27053(11) 0.35817(17) -0.25320(16)
F1M F -0.28950(8) 0.46350(11) -0.08238(11)
F2M F -0.28828(8) 0.46294(11) -0.30839(10)
loop_
_geom_bond_atom_site_label_1
_geom_bond_atom_site_label_2
_geom_bond_site_symmetry_1
_geom_bond_site_symmetry_2
S1 N1 1_555 1_555
N1 C1 1_555 1_555
C1 C2 1_555 1_555
C2 C3 1_555 1_555
C3 C4 1_555 1_555
C4 C5 1_555 1_555
C5 C6 1_555 1_555
C6 N2 1_555 1_555
F1 C3 1_555 1_555
F2 C4 1_555 1_555
S1M S1 1_555 1_555
N1M C1 1_555 1_555
C3M C2 1_555 1_555
C4M C5 1_555 1_555
F1M C3M 1_555 1_555
F2M C4M 1_555 1_555
S1M N1M 1_555 1_555
C3M C4M 1_555 1_555

#END
