
#######################################################################
#
#                 Cambridge Crystallographic Data Centre
#                                CCDC 
#
#######################################################################
#
# If this CIF has been generated from an entry in the Cambridge 
# Structural Database, then it will include bibliographic, chemical, 
# crystal, experimental, refinement or atomic coordinate data resulting 
# from the CCDC's data processing and validation procedures.
#
#######################################################################

data_YOMYIJ
_chemical_formula_moiety         'C16 H20 N4 O4 S1'
_chemical_name_systematic        
cis-5-((((3aR,4S,6aS)-2,2-dimethyltetrahydro-3aH-cyclopenta[d][1,3]dioxol-4-yl)methyl)sulfonyl)-1-phenyl-1H-tetrazole
_symmetry_cell_setting           orthorhombic
_symmetry_space_group_name_H-M   'P 21 21 21'
_symmetry_Int_Tables_number      19
_space_group_name_Hall           'P 2ac 2ab'
loop_
_symmetry_equiv_pos_site_id
_symmetry_equiv_pos_as_xyz
1 x,y,z
2 1/2-x,-y,1/2+z
3 -x,1/2+y,1/2-z
4 1/2+x,1/2-y,-z
_cell_length_a                   9.7008(7)
_cell_length_b                   11.2343(8)
_cell_length_c                   16.6045(12)
_cell_angle_alpha                90
_cell_angle_beta                 90
_cell_angle_gamma                90
_cell_volume                     1809.59
_exptl_crystal_colour            colorless
_exptl_crystal_description       needle
_cell_formula_units_Z            4
_exptl_crystal_recrystallization_method dichloromethane/n-hexane
loop_
_atom_site_label
_atom_site_type_symbol
_atom_site_fract_x
_atom_site_fract_y
_atom_site_fract_z
S1 S 0.17736(3) 0.20696(3) 0.926289(19)
N1 N 0.14780(11) -0.03960(10) 0.92827(7)
N2 N 0.22895(13) -0.13730(11) 0.93202(8)
N3 N 0.35513(13) -0.09963(11) 0.93308(9)
N4 N 0.36080(12) 0.02158(11) 0.93043(8)
C1 C -0.00050(14) -0.05076(12) 0.92756(10)
C2 C -0.06958(16) -0.03983(13) 0.85489(10)
H1 H -0.0213 -0.0219 0.8066
C3 C -0.21157(16) -0.05595(14) 0.85474(12)
H2 H -0.2615 -0.0502 0.8057
C4 C -0.28070(17) -0.08040(14) 0.92587(15)
H3 H -0.3779 -0.0906 0.9253
C5 C -0.20999(19) -0.08997(17) 0.99714(14)
H4 H -0.2586 -0.1063 1.0455
C6 C -0.06698(18) -0.07589(16) 0.99900(11)
H5 H -0.0170 -0.0834 1.0480
C7 C 0.23132(13) 0.05567(12) 0.92759(8)
C8 C 0.10484(14) 0.22839(13) 1.02287(8)
H6 H 0.0467 0.3008 1.0212
H7 H 0.0434 0.1602 1.0346
C9 C 0.20665(15) 0.24110(12) 1.09224(7)
H8 H 0.2703 0.3086 1.0797
C10 C 0.13178(16) 0.26917(13) 1.17171(8)
H9 H 0.0960 0.3517 1.1722
H10 H 0.0547 0.2131 1.1813
C11 C 0.24650(19) 0.25266(14) 1.23386(9)
H11 H 0.3065 0.3238 1.2361
H12 H 0.2075 0.2383 1.2881
C12 C 0.32688(16) 0.14443(12) 1.20461(8)
H13 H 0.4281 0.1534 1.2144
C13 C 0.29383(14) 0.13199(12) 1.11317(8)
H14 H 0.3793 0.1272 1.0797
C14 C 0.25488(16) -0.04669(13) 1.17567(8)
C15 C 0.13763(17) -0.12849(15) 1.19779(10)
H15 H 0.1597 -0.1700 1.2481
H16 H 0.1238 -0.1869 1.1547
H17 H 0.0532 -0.0817 1.2050
C16 C 0.38806(17) -0.11293(14) 1.15721(10)
H18 H 0.4599 -0.0557 1.1424
H19 H 0.3727 -0.1682 1.1124
H20 H 0.4173 -0.1576 1.2049
O1 O 0.29933(10) 0.27743(9) 0.91659(6)
O2 O 0.06912(10) 0.21437(10) 0.86746(6)
O3 O 0.27388(11) 0.03690(9) 1.23954(6)
O4 O 0.21331(10) 0.02521(8) 1.10837(6)
loop_
_geom_bond_atom_site_label_1
_geom_bond_atom_site_label_2
_geom_bond_site_symmetry_1
_geom_bond_site_symmetry_2
S1 C7 1_555 1_555
N1 N2 1_555 1_555
N2 N3 1_555 1_555
N3 N4 1_555 1_555
N4 C7 1_555 1_555
C1 N1 1_555 1_555
C2 C1 1_555 1_555
H1 C2 1_555 1_555
C3 C2 1_555 1_555
H2 C3 1_555 1_555
C4 C3 1_555 1_555
H3 C4 1_555 1_555
C5 C4 1_555 1_555
H4 C5 1_555 1_555
C6 C1 1_555 1_555
H5 C6 1_555 1_555
C7 N1 1_555 1_555
C8 S1 1_555 1_555
H6 C8 1_555 1_555
H7 C8 1_555 1_555
C9 C8 1_555 1_555
H8 C9 1_555 1_555
C10 C9 1_555 1_555
H9 C10 1_555 1_555
H10 C10 1_555 1_555
C11 C10 1_555 1_555
H11 C11 1_555 1_555
H12 C11 1_555 1_555
C12 C11 1_555 1_555
H13 C12 1_555 1_555
C13 C9 1_555 1_555
H14 C13 1_555 1_555
C14 C15 1_555 1_555
C15 H15 1_555 1_555
H16 C15 1_555 1_555
H17 C15 1_555 1_555
C16 C14 1_555 1_555
H18 C16 1_555 1_555
H19 C16 1_555 1_555
H20 C16 1_555 1_555
O1 S1 1_555 1_555
O2 S1 1_555 1_555
O3 C12 1_555 1_555
O4 C13 1_555 1_555
C5 C6 1_555 1_555
C12 C13 1_555 1_555
C14 O3 1_555 1_555
C14 O4 1_555 1_555

#END
