
#######################################################################
#
#                 Cambridge Crystallographic Data Centre
#                                CCDC 
#
#######################################################################
#
# If this CIF has been generated from an entry in the Cambridge 
# Structural Database, then it will include bibliographic, chemical, 
# crystal, experimental, refinement or atomic coordinate data resulting 
# from the CCDC's data processing and validation procedures.
#
#######################################################################

data_YONBIM
_chemical_name_common            
2,6-bis(6'-(2''',2''-Bipyrid-6''-yl)pyrimidin-4'-yl)pyridine
_chemical_formula_moiety         'C33 H21 N9'
_chemical_name_systematic        
2,6-bis(6-(6-(2-Pyridyl)-2-pyridyl)pyrimidin-4-yl)pyridine
_symmetry_cell_setting           monoclinic
_symmetry_space_group_name_H-M   'C 2/c'
_symmetry_Int_Tables_number      15
_space_group_name_Hall           '-C 2yn'
loop_
_symmetry_equiv_pos_site_id
_symmetry_equiv_pos_as_xyz
1 x,y,z
2 -x,y,1/2-z
3 1/2+x,1/2+y,z
4 1/2-x,1/2+y,1/2-z
5 -x,-y,-z
6 x,-y,1/2+z
7 1/2-x,1/2-y,-z
8 1/2+x,1/2-y,1/2+z
_cell_length_a                   12.396(3)
_cell_length_b                   12.307(5)
_cell_length_c                   17.358(5)
_cell_angle_alpha                90
_cell_angle_beta                 95.49(2)
_cell_angle_gamma                90
_cell_volume                     2635.95
_exptl_crystal_colour            colorless
_cell_formula_units_Z            4
loop_
_atom_site_label
_atom_site_type_symbol
_atom_site_fract_x
_atom_site_fract_y
_atom_site_fract_z
N1 N 0.6448(2) 0.4387(1) 0.6636(1)
N2 N 0.5022(1) 0.1931(1) 0.60806(8)
N3 N 0.3334(1) -0.0051(1) 0.50087(9)
N4 N 0.3478(1) -0.1766(1) 0.56556(9)
N5 N 0.5000 -0.1454(2) 0.75000
C1 C 0.7126(2) 0.4749(2) 0.7227(1)
C2 C 0.7462(2) 0.4168(2) 0.7880(1)
C3 C 0.7087(2) 0.3129(2) 0.7920(1)
C4 C 0.6412(2) 0.2716(2) 0.7331(1)
C5 C 0.6092(2) 0.3364(2) 0.6701(1)
C6 C 0.5312(2) 0.2977(2) 0.6058(1)
C7 C 0.4865(2) 0.3669(2) 0.5481(1)
C8 C 0.4128(2) 0.3282(2) 0.4914(1)
C9 C 0.3844(2) 0.2205(2) 0.4925(1)
C10 C 0.4303(2) 0.1549(2) 0.5516(1)
C11 C 0.4015(2) 0.0383(2) 0.5576(1)
C12 C 0.3110(2) -0.1102(2) 0.5086(1)
C13 C 0.4431(2) -0.0232(2) 0.6192(1)
C14 C 0.4141(1) -0.1316(2) 0.6221(1)
C15 C 0.4575(2) -0.2009(2) 0.6881(1)
C16 C 0.4550(2) -0.3134(2) 0.6862(1)
C17 C 0.5000 -0.3693(2) 0.75000
H1 H 0.7397 0.5466 0.7190
H2 H 0.7933 0.4475 0.8285
H3 H 0.7299 0.2694 0.8361
H4 H 0.6162 0.1987 0.7350
H5 H 0.5073 0.4411 0.5481
H6 H 0.3815 0.3749 0.4518
H7 H 0.3339 0.1912 0.4531
H8 H 0.2630 -0.1413 0.4687
H9 H 0.4909 0.0080 0.6592
H10 H 0.4230 -0.3509 0.6419
H11 H 0.500 -0.4464 0.750
C15A C 0.5425(2) -0.2009(2) 0.8119(1)
C16A C 0.5450(2) -0.3134(2) 0.8138(1)
C14A C 0.5859(1) -0.1316(2) 0.8779(1)
H10A H 0.5770 -0.3509 0.8581
N4A N 0.6522(1) -0.1766(1) 0.93444(9)
C13A C 0.5569(2) -0.0232(2) 0.8808(1)
C12A C 0.6890(2) -0.1102(2) 0.9914(1)
C11A C 0.5985(2) 0.0383(2) 0.9424(1)
H9A H 0.5091 0.0080 0.8408
N3A N 0.6666(1) -0.0051(1) 0.99913(9)
H8A H 0.7370 -0.1413 1.0313
C10A C 0.5697(2) 0.1549(2) 0.9484(1)
N2A N 0.4978(1) 0.1931(1) 0.89194(8)
C9A C 0.6156(2) 0.2205(2) 1.0075(1)
C6A C 0.4688(2) 0.2977(2) 0.8942(1)
C8A C 0.5872(2) 0.3282(2) 1.0086(1)
H7A H 0.6661 0.1912 1.0469
C5A C 0.3908(2) 0.3364(2) 0.8299(1)
C7A C 0.5135(2) 0.3669(2) 0.9519(1)
H6A H 0.6185 0.3749 1.0482
N1A N 0.3552(2) 0.4387(1) 0.8364(1)
C4A C 0.3588(2) 0.2716(2) 0.7669(1)
H5A H 0.4927 0.4411 0.9519
C1A C 0.2874(2) 0.4749(2) 0.7773(1)
C3A C 0.2913(2) 0.3129(2) 0.7080(1)
H4A H 0.3838 0.1987 0.7650
C2A C 0.2538(2) 0.4168(2) 0.7120(1)
H1A H 0.2603 0.5466 0.7810
H3A H 0.2701 0.2694 0.6639
H2A H 0.2067 0.4475 0.6715
loop_
_geom_bond_atom_site_label_1
_geom_bond_atom_site_label_2
_geom_bond_site_symmetry_1
_geom_bond_site_symmetry_2
N1 C1 1_555 1_555
N2 C6 1_555 1_555
N3 C11 1_555 1_555
N4 C12 1_555 1_555
N5 C15 1_555 1_555
C1 C2 1_555 1_555
C2 C3 1_555 1_555
C3 C4 1_555 1_555
C4 C5 1_555 1_555
C5 N1 1_555 1_555
C6 C5 1_555 1_555
C7 C6 1_555 1_555
C8 C7 1_555 1_555
C9 C8 1_555 1_555
C10 N2 1_555 1_555
C11 C10 1_555 1_555
C12 N3 1_555 1_555
C13 C11 1_555 1_555
C14 N4 1_555 1_555
C15 C14 1_555 1_555
C16 C15 1_555 1_555
C17 C16 1_555 1_555
H1 C1 1_555 1_555
H2 C2 1_555 1_555
H3 C3 1_555 1_555
H4 C4 1_555 1_555
H5 C7 1_555 1_555
H6 C8 1_555 1_555
H7 C9 1_555 1_555
H8 C12 1_555 1_555
H9 C13 1_555 1_555
H10 C16 1_555 1_555
H11 C17 1_555 1_555
C15A N5 1_555 1_555
C16A C17 1_555 1_555
C14A C15A 1_555 1_555
H10A C16A 1_555 1_555
N4A C14A 1_555 1_555
C13A C14A 1_555 1_555
C12A N4A 1_555 1_555
C11A C13A 1_555 1_555
H9A C13A 1_555 1_555
N3A C12A 1_555 1_555
H8A C12A 1_555 1_555
C10A C11A 1_555 1_555
N2A C10A 1_555 1_555
C9A C10A 1_555 1_555
C6A N2A 1_555 1_555
C8A C9A 1_555 1_555
H7A C9A 1_555 1_555
C5A C6A 1_555 1_555
C7A C6A 1_555 1_555
H6A C8A 1_555 1_555
N1A C5A 1_555 1_555
C4A C5A 1_555 1_555
H5A C7A 1_555 1_555
C1A N1A 1_555 1_555
C3A C4A 1_555 1_555
H4A C4A 1_555 1_555
C2A C1A 1_555 1_555
H1A C1A 1_555 1_555
H3A C3A 1_555 1_555
H2A C2A 1_555 1_555
C9 C10 1_555 1_555
C13 C14 1_555 1_555
C15A C16A 1_555 1_555
C11A N3A 1_555 1_555
C8A C7A 1_555 1_555
C3A C2A 1_555 1_555

#END
