
#######################################################################
#
#                 Cambridge Crystallographic Data Centre
#                                CCDC 
#
#######################################################################
#
# If this CIF has been generated from an entry in the Cambridge 
# Structural Database, then it will include bibliographic, chemical, 
# crystal, experimental, refinement or atomic coordinate data resulting 
# from the CCDC's data processing and validation procedures.
#
#######################################################################

data_YONCEK
_chemical_formula_moiety         'C23 H23 N1 O4'
_chemical_name_systematic        
'Diethyl 1-anilino-3-ethenylidene-1,3-dihydro-2H-indene-2,2-dicarboxylate'
_symmetry_cell_setting           triclinic
_symmetry_space_group_name_H-M   'P -1'
_symmetry_Int_Tables_number      2
_space_group_name_Hall           '-P 1'
loop_
_symmetry_equiv_pos_site_id
_symmetry_equiv_pos_as_xyz
1 x,y,z
2 -x,-y,-z
_cell_length_a                   9.369(12)
_cell_length_b                   10.308(13)
_cell_length_c                   10.606(13)
_cell_angle_alpha                94.23(2)
_cell_angle_beta                 95.71(2)
_cell_angle_gamma                94.83(2)
_cell_volume                     1012.09
_exptl_crystal_description       block
_chemical_melting_point          '87-88 deg.C'
_cell_formula_units_Z            2
loop_
_atom_site_label
_atom_site_type_symbol
_atom_site_fract_x
_atom_site_fract_y
_atom_site_fract_z
O1 O 0.12992(18) 0.66608(17) 0.76964(16)
O2 O 0.22868(19) 0.98693(17) 0.92887(19)
O3 O 0.38007(17) 0.84328(17) 0.86759(18)
O4 O 0.1775(2) 0.53157(18) 0.91977(18)
C1 C 0.1680(2) 0.6402(2) 0.8872(2)
C2 C 0.0385(2) 0.7970(2) 1.0218(2)
H1 H 0.0238 0.8865 1.0019
C3 C 0.2820(2) 0.7406(2) 1.1027(2)
C4 C 0.1906(2) 0.7627(2) 0.9786(2)
C5 C 0.2647(2) 0.8782(2) 0.9214(2)
N1 N -0.0852(2) 0.7124(2) 0.9648(2)
H2 H -0.1133 0.6476 1.0057
C6 C 0.1963(3) 0.7645(2) 1.2083(2)
C7 C 0.0587(3) 0.7947(2) 1.1637(2)
C8 C -0.1626(2) 0.7276(3) 0.8488(2)
C9 C -0.0403(3) 0.8206(3) 1.2482(3)
H3 H -0.1324 0.8395 1.2186
C10 C 0.4139(3) 0.7057(3) 1.1076(3)
C11 C 0.2336(3) 0.7611(3) 1.3378(3)
H4 H 0.3249 0.7406 1.3679
C12 C -0.1383(3) 0.8352(3) 0.7801(3)
H5 H -0.0676 0.9018 0.8113
C13 C 0.4696(3) 0.9466(3) 0.8186(3)
H6 H 0.5674 0.9222 0.8190
H7 H 0.4719 1.0265 0.8735
C14 C -0.2189(3) 0.8433(3) 0.6656(3)
H8 H -0.2027 0.9164 0.6208
C15 C 0.0897(3) 0.5562(3) 0.6749(3)
H9 H 0.0251 0.5828 0.6063
H10 H 0.0394 0.4857 0.7133
C16 C -0.0020(4) 0.8183(3) 1.3760(3)
H11 H -0.0681 0.8370 1.4332
C17 C 0.4132(4) 0.9702(4) 0.6870(3)
H12 H 0.4056 0.8900 0.6337
H13 H 0.4778 1.0339 0.6546
H14 H 0.3199 1.0021 0.6877
C18 C -0.3229(3) 0.7458(4) 0.6159(3)
H15 H -0.3754 0.7522 0.5378
C19 C -0.3478(3) 0.6392(4) 0.6831(3)
H16 H -0.4179 0.5727 0.6505
C20 C -0.2696(3) 0.6296(3) 0.7993(3)
H17 H -0.2885 0.5574 0.8447
C21 C 0.1351(4) 0.7881(3) 1.4210(3)
H18 H 0.1599 0.7863 1.5079
C22 C 0.2202(4) 0.5092(4) 0.6229(3)
H19 H 0.2759 0.5814 0.5939
H20 H 0.1912 0.4447 0.5531
H21 H 0.2774 0.4714 0.6883
C23 C 0.5431(4) 0.6709(5) 1.1092(4)
H22 H 0.620(4) 0.745(4) 1.112(4)
H23 H 0.564(4) 0.575(4) 1.109(3)
loop_
_geom_bond_atom_site_label_1
_geom_bond_atom_site_label_2
_geom_bond_site_symmetry_1
_geom_bond_site_symmetry_2
O1 C1 1_555 1_555
O2 C5 1_555 1_555
O3 C5 1_555 1_555
O4 C1 1_555 1_555
C1 C4 1_555 1_555
C2 H1 1_555 1_555
C3 C4 1_555 1_555
C4 C2 1_555 1_555
C5 C4 1_555 1_555
N1 C2 1_555 1_555
H2 N1 1_555 1_555
C6 C3 1_555 1_555
C7 C2 1_555 1_555
C8 N1 1_555 1_555
C9 C7 1_555 1_555
H3 C9 1_555 1_555
C10 C3 1_555 1_555
C11 C6 1_555 1_555
H4 C11 1_555 1_555
C12 C8 1_555 1_555
H5 C12 1_555 1_555
C13 O3 1_555 1_555
H6 C13 1_555 1_555
H7 C13 1_555 1_555
C14 C12 1_555 1_555
H8 C14 1_555 1_555
C15 O1 1_555 1_555
H9 C15 1_555 1_555
H10 C15 1_555 1_555
C16 C9 1_555 1_555
H11 C16 1_555 1_555
C17 C13 1_555 1_555
H12 C17 1_555 1_555
H13 C17 1_555 1_555
H14 C17 1_555 1_555
C18 C14 1_555 1_555
H15 C18 1_555 1_555
C19 C18 1_555 1_555
H16 C19 1_555 1_555
C20 C8 1_555 1_555
H17 C20 1_555 1_555
C21 C11 1_555 1_555
H18 C21 1_555 1_555
C22 C15 1_555 1_555
H19 C22 1_555 1_555
H20 C22 1_555 1_555
H21 C22 1_555 1_555
C23 C10 1_555 1_555
H22 C23 1_555 1_555
H23 C23 1_555 1_555
C6 C7 1_555 1_555
C16 C21 1_555 1_555
C19 C20 1_555 1_555

#END
