
#######################################################################
#
#                 Cambridge Crystallographic Data Centre
#                                CCDC 
#
#######################################################################
#
# If this CIF has been generated from an entry in the Cambridge 
# Structural Database, then it will include bibliographic, chemical, 
# crystal, experimental, refinement or atomic coordinate data resulting 
# from the CCDC's data processing and validation procedures.
#
#######################################################################

data_YONNIZ
_chemical_name_common            
N-(2,6-diisopropylphenyl)-2-imidazolyl(di-t-butyl)phosphine
_chemical_formula_moiety         'C23 H37 N2 P1'
_chemical_name_systematic        
2-(di-t-butylphosphino)-1-(2,6-diisopropylphenyl)-1H-imidazole
_symmetry_cell_setting           monoclinic
_symmetry_space_group_name_H-M   'P 21/c'
_symmetry_Int_Tables_number      14
_space_group_name_Hall           '-P 2ybc'
loop_
_symmetry_equiv_pos_site_id
_symmetry_equiv_pos_as_xyz
1 x,y,z
2 -x,1/2+y,1/2-z
3 -x,-y,-z
4 x,1/2-y,1/2+z
_cell_length_a                   14.0499(8)
_cell_length_b                   8.3403(4)
_cell_length_c                   19.4308(16)
_cell_angle_alpha                90
_cell_angle_beta                 90.203(6)
_cell_angle_gamma                90
_cell_volume                     2276.89
_exptl_crystal_colour            colorless
_exptl_crystal_description       prism
_cell_formula_units_Z            4
loop_
_atom_site_label
_atom_site_type_symbol
_atom_site_fract_x
_atom_site_fract_y
_atom_site_fract_z
C1 C 0.19413(9) 0.67707(14) 0.21069(6)
C2 C 0.08830(10) 0.84537(18) 0.24558(7)
H1 H 0.0381 0.9217 0.2450
C3 C 0.13267(9) 0.79199(16) 0.30292(7)
H2 H 0.1197 0.8229 0.3490
C4 C 0.26645(8) 0.60471(14) 0.32726(5)
C5 C 0.35788(8) 0.66985(14) 0.33491(6)
C6 C 0.42084(9) 0.59184(17) 0.37902(6)
H3 H 0.4834 0.6331 0.3850
C7 C 0.39407(10) 0.45579(17) 0.41420(7)
H4 H 0.4386 0.4025 0.4432
C8 C 0.30243(9) 0.39658(16) 0.40744(6)
H5 H 0.2845 0.3038 0.4326
C9 C 0.23601(8) 0.47007(14) 0.36453(6)
C10 C 0.13382(9) 0.40903(16) 0.36226(6)
H6 H 0.1046 0.4469 0.3182
C11 C 0.07529(11) 0.4792(2) 0.42149(8)
H7 H 0.0799 0.5965 0.4207
H8 H 0.1000 0.4389 0.4654
H9 H 0.0085 0.4472 0.4162
C12 C 0.12653(12) 0.22571(18) 0.36367(8)
H10 H 0.1636 0.1807 0.3257
H11 H 0.0597 0.1938 0.3588
H12 H 0.1516 0.1855 0.4075
C13 C 0.38621(9) 0.82575(16) 0.30036(7)
H13 H 0.3407 0.8451 0.2616
C14 C 0.37643(14) 0.96480(18) 0.35096(9)
H14 H 0.3117 0.9664 0.3695
H15 H 0.3892 1.0661 0.3271
H16 H 0.4222 0.9512 0.3887
C15 C 0.48623(11) 0.8201(2) 0.27020(9)
H17 H 0.4907 0.7307 0.2376
H18 H 0.5327 0.8049 0.3074
H19 H 0.4995 0.9210 0.2462
C16 C 0.20486(11) 0.38869(16) 0.12929(7)
C17 C 0.25573(13) 0.30322(19) 0.07053(8)
H20 H 0.2174 0.2117 0.0552
H21 H 0.3180 0.2652 0.0866
H22 H 0.2645 0.3779 0.0321
C18 C 0.10165(12) 0.4243(2) 0.10894(10)
H23 H 0.0702 0.3245 0.0950
H24 H 0.1007 0.5004 0.0705
H25 H 0.0681 0.4707 0.1483
C19 C 0.20498(15) 0.27580(18) 0.19115(8)
H26 H 0.1673 0.1802 0.1803
H27 H 0.1772 0.3307 0.2309
H28 H 0.2705 0.2441 0.2020
C20 C 0.29992(10) 0.70553(16) 0.08327(6)
C21 C 0.32707(12) 0.86964(18) 0.11289(8)
H29 H 0.3382 0.9452 0.0751
H30 H 0.3851 0.8593 0.1406
H31 H 0.2752 0.9094 0.1418
C22 C 0.38855(11) 0.6413(2) 0.04628(7)
H32 H 0.4027 0.7096 0.0066
H33 H 0.3766 0.5315 0.0306
H34 H 0.4428 0.6419 0.0781
C23 C 0.21879(12) 0.7277(2) 0.03164(7)
H35 H 0.2387 0.8026 -0.0044
H36 H 0.1629 0.7708 0.0553
H37 H 0.2028 0.6240 0.0109
N1 N 0.12571(8) 0.77411(14) 0.18849(6)
N2 N 0.20031(7) 0.68410(12) 0.28157(5)
P1 P 0.27952(2) 0.56532(4) 0.158332(15)
loop_
_geom_bond_atom_site_label_1
_geom_bond_atom_site_label_2
_geom_bond_site_symmetry_1
_geom_bond_site_symmetry_2
C1 N1 1_555 1_555
C2 H1 1_555 1_555
C3 C2 1_555 1_555
H2 C3 1_555 1_555
C4 C5 1_555 1_555
C5 C6 1_555 1_555
C6 H3 1_555 1_555
C7 C6 1_555 1_555
H4 C7 1_555 1_555
C8 C7 1_555 1_555
H5 C8 1_555 1_555
C9 C4 1_555 1_555
C10 C9 1_555 1_555
H6 C10 1_555 1_555
C11 C10 1_555 1_555
H7 C11 1_555 1_555
H8 C11 1_555 1_555
H9 C11 1_555 1_555
C12 C10 1_555 1_555
H10 C12 1_555 1_555
H11 C12 1_555 1_555
H12 C12 1_555 1_555
C13 C5 1_555 1_555
H13 C13 1_555 1_555
C14 C13 1_555 1_555
H14 C14 1_555 1_555
H15 C14 1_555 1_555
H16 C14 1_555 1_555
C15 C13 1_555 1_555
H17 C15 1_555 1_555
H18 C15 1_555 1_555
H19 C15 1_555 1_555
C16 C17 1_555 1_555
C17 H20 1_555 1_555
H21 C17 1_555 1_555
H22 C17 1_555 1_555
C18 C16 1_555 1_555
H23 C18 1_555 1_555
H24 C18 1_555 1_555
H25 C18 1_555 1_555
C19 C16 1_555 1_555
H26 C19 1_555 1_555
H27 C19 1_555 1_555
H28 C19 1_555 1_555
C20 C21 1_555 1_555
C21 H29 1_555 1_555
H30 C21 1_555 1_555
H31 C21 1_555 1_555
C22 C20 1_555 1_555
H32 C22 1_555 1_555
H33 C22 1_555 1_555
H34 C22 1_555 1_555
C23 C20 1_555 1_555
H35 C23 1_555 1_555
H36 C23 1_555 1_555
H37 C23 1_555 1_555
N1 C2 1_555 1_555
N2 C1 1_555 1_555
P1 C1 1_555 1_555
C3 N2 1_555 1_555
C4 N2 1_555 1_555
C8 C9 1_555 1_555
C16 P1 1_555 1_555
C20 P1 1_555 1_555

#END
