
#######################################################################
#
#                 Cambridge Crystallographic Data Centre
#                                CCDC 
#
#######################################################################
#
# If this CIF has been generated from an entry in the Cambridge 
# Structural Database, then it will include bibliographic, chemical, 
# crystal, experimental, refinement or atomic coordinate data resulting 
# from the CCDC's data processing and validation procedures.
#
#######################################################################

data_YONQUP
_chemical_compound_source        'aerial parts of Gentianella azurea'
_chemical_name_common            
'(3beta,20S,23R)-3,20,23,29-Tetrahydroxydammar-24-en-21-oic acid-21,23-lactone 3-O-beta-D-glucopyranoside'
_chemical_formula_moiety         'C36 H58 O10'
_chemical_name_systematic        
20,28-Dihydroxy-3-((3,4,5-trihydroxy-6-(hydroxymethyl)tetrahydro-2H-pyran-2-yl)oxy)-21,23-epoxydammar-24-en-21-one
_symmetry_cell_setting           monoclinic
_symmetry_space_group_name_H-M   'P 21'
_symmetry_Int_Tables_number      4
_space_group_name_Hall           'P 2yb'
loop_
_symmetry_equiv_pos_site_id
_symmetry_equiv_pos_as_xyz
1 x,y,z
2 -x,1/2+y,-z
_cell_length_a                   15.2138(3)
_cell_length_b                   8.0132(2)
_cell_length_c                   16.3249(3)
_cell_angle_alpha                90
_cell_angle_beta                 116.9640(10)
_cell_angle_gamma                90
_cell_volume                     1773.84
_exptl_crystal_colour            colorless
_exptl_crystal_description       prism
_chemical_melting_point          '189-191 deg.C'
_cell_formula_units_Z            2
loop_
_atom_site_label
_atom_site_type_symbol
_atom_site_fract_x
_atom_site_fract_y
_atom_site_fract_z
O1 O 0.25785(10) 0.3392(2) 0.86854(10)
O2 O 0.07313(12) 0.1658(2) 0.81044(12)
H1 H 0.1089 0.0810 0.8312
O3 O -0.02281(11) 0.2755(2) 0.92123(10)
H2 H -0.0588 0.2036 0.8835
O4 O -0.04660(11) 0.6294(2) 0.90795(10)
H3 H -0.0401 0.6866 0.9535
O5 O 0.19434(10) 0.5600(2) 0.91233(10)
O6 O 0.19016(13) 0.9143(2) 0.91051(14)
H4 H 0.2392 0.8627 0.9125
O7 O 0.33742(16) 0.0310(3) 0.86915(16)
H5 H 0.2993 0.0864 0.8832
O8 O 0.89866(11) 0.7274(2) 0.72768(11)
H6 H 0.9039 0.7196 0.7810
O9 O 0.86817(12) 1.0044(2) 0.82303(11)
O10 O 0.83366(12) 1.1489(2) 0.69551(12)
C1 C 0.45746(17) 0.6114(3) 0.86022(18)
H7 H 0.5084 0.6816 0.9082
H8 H 0.4152 0.6855 0.8088
C2 C 0.39409(17) 0.5296(4) 0.90005(17)
H9 H 0.4366 0.4612 0.9541
H10 H 0.3627 0.6173 0.9207
C3 C 0.31473(15) 0.4198(3) 0.82876(15)
H11 H 0.2693 0.4925 0.7771
C4 C 0.35488(15) 0.2824(3) 0.78861(14)
C5 C 0.42664(15) 0.3657(3) 0.75625(13)
H12 H 0.3835 0.4402 0.7044
C6 C 0.47090(17) 0.2425(3) 0.71308(16)
H13 H 0.5239 0.1771 0.7621
H14 H 0.4193 0.1638 0.6725
C7 C 0.51291(18) 0.3372(3) 0.65723(15)
H15 H 0.4582 0.3944 0.6054
H16 H 0.5422 0.2558 0.6310
C8 C 0.59168(15) 0.4672(3) 0.71331(14)
C9 C 0.55170(15) 0.5792(3) 0.76766(14)
H17 H 0.4936 0.6381 0.7188
C10 C 0.50843(14) 0.4837(3) 0.82517(14)
C11 C 0.62483(19) 0.7206(4) 0.81957(18)
H18 H 0.5955 0.7925 0.8500
H19 H 0.6859 0.6711 0.8680
C12 C 0.6514(2) 0.8288(4) 0.7562(2)
H20 H 0.5922 0.8896 0.7120
H21 H 0.7021 0.9118 0.7932
C13 C 0.69063(15) 0.7167(3) 0.70429(14)
H22 H 0.7487 0.6554 0.7517
C14 C 0.61339(15) 0.5835(3) 0.64730(13)
C15 C 0.66541(18) 0.5028(3) 0.59487(16)
H23 H 0.7179 0.4252 0.6351
H24 H 0.6177 0.4411 0.5402
C16 C 0.70928(16) 0.6511(3) 0.56649(14)
H25 H 0.6639 0.6874 0.5033
H26 H 0.7732 0.6198 0.5685
C17 C 0.72404(15) 0.7938(3) 0.63634(15)
H27 H 0.6792 0.8887 0.6033
C18 C 0.68636(17) 0.3718(4) 0.77791(16)
H28 H 0.6694 0.2819 0.8089
H29 H 0.7325 0.4489 0.8239
H30 H 0.7171 0.3243 0.7419
C19 C 0.58868(16) 0.3939(4) 0.90978(14)
H31 H 0.6504 0.4572 0.9328
H32 H 0.5991 0.2815 0.8922
H33 H 0.5674 0.3861 0.9580
C20 C 0.83245(15) 0.8561(3) 0.68022(15)
C21 C 0.84653(15) 1.0066(3) 0.74194(16)
C22 C 0.85942(17) 0.9350(3) 0.60935(17)
H34 H 0.9315 0.9308 0.6304
H35 H 0.8255 0.8777 0.5493
C23 C 0.82391(17) 1.1141(4) 0.60282(17)
H36 H 0.7532 1.1223 0.5561
C24 C 0.88388(19) 1.2399(4) 0.58260(19)
H37 H 0.9448 1.2726 0.6322
C25 C 0.8597(3) 1.3097(4) 0.5020(2)
C26 C 0.9285(3) 1.4308(6) 0.4889(3)
H38 H 0.9885 1.4443 0.5471
H39 H 0.8957 1.5391 0.4691
H40 H 0.9459 1.3876 0.4420
C27 C 0.7635(4) 1.2784(8) 0.4182(3)
H41 H 0.7285 1.1867 0.4305
H42 H 0.7764 1.2485 0.3664
H43 H 0.7230 1.3795 0.4030
C28 C 0.40493(19) 0.1407(4) 0.85841(19)
H44 H 0.4468 0.0751 0.8383
H45 H 0.4486 0.1906 0.9189
C29 C 0.26617(19) 0.2098(4) 0.70392(17)
H46 H 0.2123 0.1865 0.7196
H47 H 0.2860 0.1062 0.6849
H48 H 0.2438 0.2907 0.6534
C30 C 0.51905(17) 0.6673(4) 0.57395(16)
H49 H 0.5373 0.7592 0.5451
H50 H 0.4800 0.7109 0.6032
H51 H 0.4800 0.5850 0.5271
C31 C 0.17038(15) 0.4186(3) 0.85403(14)
H52 H 0.1335 0.4542 0.7884
C32 C 0.10862(15) 0.2963(3) 0.87713(14)
H53 H 0.1504 0.2467 0.9390
C33 C 0.01926(14) 0.3804(3) 0.87817(14)
H54 H -0.0311 0.4004 0.8133
C34 C 0.04415(14) 0.5457(3) 0.92859(14)
H55 H 0.0810 0.5253 0.9963
C35 C 0.10749(14) 0.6512(3) 0.89753(15)
H56 H 0.0688 0.6760 0.8305
C36 C 0.14169(17) 0.8134(3) 0.94960(18)
H57 H 0.0842 0.8745 0.9477
H58 H 0.1875 0.7897 1.0147
loop_
_geom_bond_atom_site_label_1
_geom_bond_atom_site_label_2
_geom_bond_site_symmetry_1
_geom_bond_site_symmetry_2
O1 C3 1_555 1_555
O2 H1 1_555 1_555
O3 H2 1_555 1_555
O4 H3 1_555 1_555
O5 C31 1_555 1_555
O6 H4 1_555 1_555
O7 H5 1_555 1_555
O8 H6 1_555 1_555
O9 C21 1_555 1_555
O10 C21 1_555 1_555
C1 H7 1_555 1_555
H8 C1 1_555 1_555
C2 C1 1_555 1_555
H9 C2 1_555 1_555
H10 C2 1_555 1_555
C3 C2 1_555 1_555
H11 C3 1_555 1_555
C4 C3 1_555 1_555
C5 C4 1_555 1_555
H12 C5 1_555 1_555
C6 C5 1_555 1_555
H13 C6 1_555 1_555
H14 C6 1_555 1_555
C7 C6 1_555 1_555
H15 C7 1_555 1_555
H16 C7 1_555 1_555
C8 C7 1_555 1_555
C9 C8 1_555 1_555
H17 C9 1_555 1_555
C10 C1 1_555 1_555
C11 C9 1_555 1_555
H18 C11 1_555 1_555
H19 C11 1_555 1_555
C12 C11 1_555 1_555
H20 C12 1_555 1_555
H21 C12 1_555 1_555
C13 C12 1_555 1_555
H22 C13 1_555 1_555
C14 C8 1_555 1_555
C15 C14 1_555 1_555
H23 C15 1_555 1_555
H24 C15 1_555 1_555
C16 C15 1_555 1_555
H25 C16 1_555 1_555
H26 C16 1_555 1_555
C17 C13 1_555 1_555
H27 C17 1_555 1_555
C18 C8 1_555 1_555
H28 C18 1_555 1_555
H29 C18 1_555 1_555
H30 C18 1_555 1_555
C19 C10 1_555 1_555
H31 C19 1_555 1_555
H32 C19 1_555 1_555
H33 C19 1_555 1_555
C20 O8 1_555 1_555
C21 C20 1_555 1_555
C22 C20 1_555 1_555
H34 C22 1_555 1_555
H35 C22 1_555 1_555
C23 O10 1_555 1_555
H36 C23 1_555 1_555
C24 C23 1_555 1_555
H37 C24 1_555 1_555
C25 C24 1_555 1_555
C26 C25 1_555 1_555
H38 C26 1_555 1_555
H39 C26 1_555 1_555
H40 C26 1_555 1_555
C27 C25 1_555 1_555
H41 C27 1_555 1_555
H42 C27 1_555 1_555
H43 C27 1_555 1_555
C28 O7 1_555 1_555
H44 C28 1_555 1_555
H45 C28 1_555 1_555
C29 C4 1_555 1_555
H46 C29 1_555 1_555
H47 C29 1_555 1_555
H48 C29 1_555 1_555
C30 C14 1_555 1_555
H49 C30 1_555 1_555
H50 C30 1_555 1_555
H51 C30 1_555 1_555
C31 O1 1_555 1_555
H52 C31 1_555 1_555
C32 O2 1_555 1_555
H53 C32 1_555 1_555
C33 O3 1_555 1_555
H54 C33 1_555 1_555
C34 O4 1_555 1_555
H55 C34 1_555 1_555
C35 O5 1_555 1_555
H56 C35 1_555 1_555
C36 O6 1_555 1_555
H57 C36 1_555 1_555
H58 C36 1_555 1_555
C4 C28 1_555 1_555
C5 C10 1_555 1_555
C9 C10 1_555 1_555
C13 C14 1_555 1_555
C16 C17 1_555 1_555
C17 C20 1_555 1_555
C22 C23 1_555 1_555
C31 C32 1_555 1_555
C32 C33 1_555 1_555
C33 C34 1_555 1_555
C34 C35 1_555 1_555
C35 C36 1_555 1_555

#END
