
#######################################################################
#
#                 Cambridge Crystallographic Data Centre
#                                CCDC 
#
#######################################################################
#
# If this CIF has been generated from an entry in the Cambridge 
# Structural Database, then it will include bibliographic, chemical, 
# crystal, experimental, refinement or atomic coordinate data resulting 
# from the CCDC's data processing and validation procedures.
#
#######################################################################

data_YONSIE01
_chemical_formula_moiety         'C17 H14 O3'
_chemical_name_systematic        2,3-bis(4-methoxyphenyl)cycloprop-2-en-1-one
_symmetry_cell_setting           monoclinic
_symmetry_space_group_name_H-M   'P 21/c'
_symmetry_Int_Tables_number      14
_space_group_name_Hall           '-P 2ybc'
loop_
_symmetry_equiv_pos_site_id
_symmetry_equiv_pos_as_xyz
1 x,y,z
2 -x,1/2+y,1/2-z
3 -x,-y,-z
4 x,1/2-y,1/2+z
_cell_length_a                   10.493(2)
_cell_length_b                   4.0649(8)
_cell_length_c                   32.707(8)
_cell_angle_alpha                90
_cell_angle_beta                 107.30(3)
_cell_angle_gamma                90
_cell_volume                     1331.94
_exptl_crystal_colour            colorless
_exptl_crystal_description       Prism
_cell_formula_units_Z            4
loop_
_atom_site_label
_atom_site_type_symbol
_atom_site_fract_x
_atom_site_fract_y
_atom_site_fract_z
O1 O 0.3959(5) 0.2969(13) 0.01766(15)
O2 O -0.1025(5) 1.3125(13) 0.09842(17)
O3 O 0.3598(5) 1.2515(13) 0.32982(15)
C1 C 0.3380(7) 0.2507(19) -0.0283(2)
H1 H 0.3106 0.4597 -0.0417
H2 H 0.2620 0.1077 -0.0337
H3 H 0.4033 0.1542 -0.0399
C2 C 0.3213(7) 0.4709(19) 0.0386(2)
C3 C 0.1943(7) 0.5919(18) 0.0201(2)
H4 H 0.1512 0.5582 -0.0088
C4 C 0.1317(7) 0.7645(19) 0.0454(2)
H5 H 0.0482 0.8566 0.0326
C5 C 0.1907(7) 0.8043(18) 0.0896(2)
C6 C 0.3189(7) 0.681(2) 0.1078(2)
H6 H 0.3607 0.7133 0.1368
C7 C 0.3864(7) 0.511(2) 0.0833(2)
H7 H 0.4714 0.4264 0.0958
C8 C 0.1209(7) 0.9932(17) 0.1146(2)
C9 C 0.0058(8) 1.1826(19) 0.1154(2)
C10 C 0.1175(7) 1.1234(19) 0.1531(2)
C11 C 0.1825(7) 1.1588(18) 0.1983(2)
C12 C 0.1157(7) 1.3257(17) 0.2234(2)
H8 H 0.0318 1.4141 0.2102
C13 C 0.1700(7) 1.3626(17) 0.2668(2)
H9 H 0.1237 1.4748 0.2826
C14 C 0.2938(7) 1.2318(18) 0.2865(2)
C15 C 0.3648(6) 1.0614(18) 0.2629(2)
H10 H 0.4487 0.9741 0.2763
C16 C 0.3071(7) 1.0262(17) 0.2191(2)
H11 H 0.3527 0.9109 0.2033
C17 C 0.2898(9) 1.412(2) 0.3561(2)
H12 H 0.2520 1.6145 0.3427
H13 H 0.3510 1.4576 0.3838
H14 H 0.2198 1.2711 0.3591
loop_
_geom_bond_atom_site_label_1
_geom_bond_atom_site_label_2
_geom_bond_site_symmetry_1
_geom_bond_site_symmetry_2
O1 C1 1_555 1_555
O2 C9 1_555 1_555
O3 C14 1_555 1_555
C1 H1 1_555 1_555
H2 C1 1_555 1_555
H3 C1 1_555 1_555
C2 O1 1_555 1_555
C3 C2 1_555 1_555
H4 C3 1_555 1_555
C4 C3 1_555 1_555
H5 C4 1_555 1_555
C5 C4 1_555 1_555
C6 C5 1_555 1_555
H6 C6 1_555 1_555
C7 C2 1_555 1_555
H7 C7 1_555 1_555
C8 C5 1_555 1_555
C9 C8 1_555 1_555
C10 C8 1_555 1_555
C11 C10 1_555 1_555
C12 C11 1_555 1_555
H8 C12 1_555 1_555
C13 C12 1_555 1_555
H9 C13 1_555 1_555
C14 C13 1_555 1_555
C15 C14 1_555 1_555
H10 C15 1_555 1_555
C16 C11 1_555 1_555
H11 C16 1_555 1_555
C17 O3 1_555 1_555
H12 C17 1_555 1_555
H13 C17 1_555 1_555
H14 C17 1_555 1_555
C6 C7 1_555 1_555
C9 C10 1_555 1_555
C15 C16 1_555 1_555

#END
