
#######################################################################
#
#                 Cambridge Crystallographic Data Centre
#                                CCDC 
#
#######################################################################
#
# If this CIF has been generated from an entry in the Cambridge 
# Structural Database, then it will include bibliographic, chemical, 
# crystal, experimental, refinement or atomic coordinate data resulting 
# from the CCDC's data processing and validation procedures.
#
#######################################################################

data_YONTIE
_chemical_formula_moiety         'C22 H27 N1 O4'
_chemical_name_systematic        
8-Hydroxymethyl-7-hydroxy-9-diphenylmethyl-4,4-dimethyl-3,5-dioxa-9-azabicyclo(4.3.0)nonane
_symmetry_cell_setting           monoclinic
_symmetry_space_group_name_H-M   'C 2'
_symmetry_Int_Tables_number      5
_space_group_name_Hall           'C 2y'
loop_
_symmetry_equiv_pos_site_id
_symmetry_equiv_pos_as_xyz
1 x,y,z
2 -x,y,-z
3 1/2+x,1/2+y,z
4 1/2-x,1/2+y,-z
_cell_length_a                   19.538(2)
_cell_length_b                   6.359(1)
_cell_length_c                   16.411(1)
_cell_angle_alpha                90
_cell_angle_beta                 102.374(6)
_cell_angle_gamma                90
_cell_volume                     1991.57
_cell_formula_units_Z            4
loop_
_atom_site_label
_atom_site_type_symbol
_atom_site_fract_x
_atom_site_fract_y
_atom_site_fract_z
O1 O 0.3823(1) 0.4246 0.1313(2)
O2 O 0.3883(1) 0.3359(10) 0.2708(2)
O3 O 0.4760(2) 0.7114(9) 0.4161(2)
O4 O 0.5355(3) 0.1215(13) 0.4471(4)
N1 N 0.5490(1) 0.4854(10) 0.2831(2)
C1 C 0.4794(2) 0.5513(11) 0.2345(2)
C2 C 0.4261(2) 0.5263(11) 0.2898(2)
C3 C 0.4693(2) 0.5086(10) 0.3777(2)
C4 C 0.5400(2) 0.4245(10) 0.3674(3)
C5 C 0.4560(2) 0.4155(13) 0.1577(2)
C6 C 0.3460(2) 0.3274(12) 0.1871(3)
C7 C 0.2796(2) 0.4481(14) 0.1801(3)
C8 C 0.3333(3) 0.0985(14) 0.1690(4)
C9 C 0.5394(7) 0.1752(27) 0.3670(8)
C10 C 0.6031(2) 0.6476(10) 0.2836(2)
C11 C 0.6058(2) 0.7045(11) 0.1941(2)
C12 C 0.5882(2) 0.9041(12) 0.1645(3)
C13 C 0.5877(3) 0.9562(13) 0.0825(3)
C14 C 0.6061(3) 0.8095(15) 0.0297(3)
C15 C 0.6239(3) 0.6084(14) 0.0585(3)
C16 C 0.6234(2) 0.5557(12) 0.1401(3)
C17 C 0.6748(2) 0.5779(11) 0.3328(2)
C18 C 0.7162(2) 0.7233(12) 0.3847(3)
C19 C 0.7831(3) 0.6721(14) 0.4266(3)
C20 C 0.8097(2) 0.4743(14) 0.4186(3)
C21 C 0.7692(2) 0.3289(13) 0.3686(3)
C22 C 0.7023(2) 0.3798(11) 0.3258(3)
O5? O 0.4970(3) 0.0583(13) 0.3307(3)
C23? C 0.5497(7) 0.1884(27) 0.3862(7)
loop_
_geom_bond_atom_site_label_1
_geom_bond_atom_site_label_2
_geom_bond_site_symmetry_1
_geom_bond_site_symmetry_2
O1 C5 1_555 1_555
O2 C2 1_555 1_555
O3 C3 1_555 1_555
O4 C9 1_555 1_555
N1 C1 1_555 1_555
C1 C2 1_555 1_555
C2 C3 1_555 1_555
C3 C4 1_555 1_555
C4 N1 1_555 1_555
C5 C1 1_555 1_555
C6 O1 1_555 1_555
C7 C6 1_555 1_555
C8 C6 1_555 1_555
C9 C4 1_555 1_555
C10 N1 1_555 1_555
C11 C10 1_555 1_555
C12 C11 1_555 1_555
C13 C12 1_555 1_555
C14 C13 1_555 1_555
C15 C14 1_555 1_555
C16 C11 1_555 1_555
C17 C10 1_555 1_555
C18 C17 1_555 1_555
C19 C18 1_555 1_555
C20 C19 1_555 1_555
C21 C20 1_555 1_555
C22 C17 1_555 1_555
O2 C6 1_555 1_555
C15 C16 1_555 1_555
C21 C22 1_555 1_555

#END
