
#######################################################################
#
#                 Cambridge Crystallographic Data Centre
#                                CCDC 
#
#######################################################################
#
# If this CIF has been generated from an entry in the Cambridge 
# Structural Database, then it will include bibliographic, chemical, 
# crystal, experimental, refinement or atomic coordinate data resulting 
# from the CCDC's data processing and validation procedures.
#
#######################################################################

data_YONWEF
_chemical_formula_moiety         'C18 H12 N4,0.5(C2 H6 O1),0.5(H2 O1)'
_chemical_name_systematic        
'3-(1H-Benzimidazol-2-yl)-9H-\b-carboline ethanol solvate hemihydrate'
_symmetry_cell_setting           triclinic
_symmetry_space_group_name_H-M   'P -1'
_symmetry_Int_Tables_number      2
_space_group_name_Hall           '-P 1'
loop_
_symmetry_equiv_pos_site_id
_symmetry_equiv_pos_as_xyz
1 x,y,z
2 -x,-y,-z
_cell_length_a                   7.7570(16)
_cell_length_b                   13.583(3)
_cell_length_c                   15.325(3)
_cell_angle_alpha                81.87(3)
_cell_angle_beta                 81.89(3)
_cell_angle_gamma                77.23(3)
_cell_volume                     1548.81
_cell_formula_units_Z            4
loop_
_atom_site_label
_atom_site_type_symbol
_atom_site_fract_x
_atom_site_fract_y
_atom_site_fract_z
N1 N 0.0789(2) -0.10578(14) 0.66974(13)
H1 H 0.0635 -0.1673 0.6804
N2 N 0.0724(3) 0.05353(14) 0.69220(13)
N3 N -0.3079(3) -0.10759(15) 1.06493(14)
H2 H -0.3328 -0.1623 1.0947
N4 N -0.0917(3) -0.14899(14) 0.83889(14)
C1 C 0.1598(3) -0.06236(18) 0.59149(16)
C2 C 0.2304(3) -0.0973(2) 0.51112(18)
H3 H 0.2338 -0.1636 0.5009
C3 C 0.2956(4) -0.0290(2) 0.44656(19)
H4 H 0.3409 -0.0493 0.3910
C4 C 0.2957(4) 0.0686(2) 0.46196(19)
H5 H 0.3438 0.1117 0.4171
C5 C 0.2268(3) 0.10356(19) 0.54172(18)
H6 H 0.2270 0.1696 0.5515
C6 C 0.1561(3) 0.03693(17) 0.60815(16)
C7 C 0.0288(3) -0.03403(17) 0.72593(16)
C8 C -0.0641(3) -0.05315(17) 0.81491(16)
C9 C -0.1208(3) 0.02332(17) 0.86901(16)
H7 H -0.1016 0.0885 0.8496
C10 C -0.2074(3) 0.00146(17) 0.95337(16)
C11 C -0.2833(3) 0.05709(18) 1.02773(16)
C12 C -0.3075(4) 0.1580(2) 1.04268(19)
H8 H -0.2707 0.2057 0.9984
C13 C -0.3866(4) 0.1862(2) 1.1238(2)
H9 H -0.4052 0.2538 1.1342
C14 C -0.4393(4) 0.1144(2) 1.1909(2)
H10 H -0.4896 0.1349 1.2458
C15 C -0.4189(4) 0.0147(2) 1.17790(19)
H11 H -0.4562 -0.0323 1.2227
C16 C -0.3409(3) -0.01371(19) 1.09577(17)
C17 C -0.2289(3) -0.09925(17) 0.97887(16)
C18 C -0.1747(3) -0.17024(18) 0.91912(17)
H12 H -0.1970 -0.2352 0.9356
N5 N 0.1182(3) 0.63426(14) 0.84620(13)
H13 H 0.0583 0.6939 0.8307
N6 N 0.2772(3) 0.47855(14) 0.83432(13)
N7 N 0.1215(3) 0.60336(15) 0.43462(13)
H14 H 0.0638 0.6511 0.4003
N8 N 0.0775(3) 0.66611(14) 0.66450(14)
C19 C 0.1555(3) 0.59503(18) 0.93145(16)
C20 C 0.1126(4) 0.6307(2) 1.01297(18)
H15 H 0.0455 0.6957 1.0187
C21 C 0.1710(4) 0.5683(2) 1.08520(19)
H16 H 0.1409 0.5903 1.1412
C22 C 0.2761(4) 0.4712(2) 1.0761(2)
H17 H 0.3177 0.4307 1.1261
C23 C 0.3186(4) 0.4349(2) 0.99569(19)
H18 H 0.3871 0.3701 0.9904
C24 C 0.2573(3) 0.49685(18) 0.92196(16)
C25 C 0.1923(3) 0.56254(16) 0.79142(16)
C26 C 0.1757(3) 0.57623(16) 0.69705(15)
C27 C 0.2563(3) 0.49963(17) 0.64536(15)
H19 H 0.3235 0.4395 0.6703
C28 C 0.2357(3) 0.51359(16) 0.55644(16)
C29 C 0.2970(3) 0.45407(18) 0.48314(16)
C30 C 0.4068(3) 0.35847(19) 0.47344(18)
H20 H 0.4563 0.3188 0.5219
C31 C 0.4401(4) 0.3245(2) 0.39189(19)
H21 H 0.5132 0.2613 0.3849
C32 C 0.3677(4) 0.3822(2) 0.32008(19)
H22 H 0.3929 0.3571 0.2653
C33 C 0.2578(4) 0.4771(2) 0.32693(18)
H23 H 0.2087 0.5157 0.2779
C34 C 0.2241(3) 0.51218(18) 0.40905(16)
C35 C 0.1274(3) 0.60483(18) 0.52311(16)
C36 C 0.0531(3) 0.67878(18) 0.57914(17)
H24 H -0.0162 0.7393 0.5562
C37 C 0.6132(5) 0.2376(3) 0.7007(3)
H25 H 0.7408 0.2237 0.6904
H26 H 0.5659 0.2959 0.6615
H27 H 0.5702 0.1799 0.6897
C38 C 0.5577(5) 0.2575(3) 0.7908(3)
H28 H 0.6033 0.3150 0.8017
H29 H 0.6084 0.1990 0.8300
O1 O 0.3659(3) 0.27881(13) 0.81130(13)
H30 H 0.342(5) 0.3447(14) 0.815(2)
O2 O 0.0646(3) 0.26240(15) 0.70988(15)
H31 H 0.1525 0.2688 0.7452
H32 H 0.0674 0.2082 0.7083
loop_
_geom_bond_atom_site_label_1
_geom_bond_atom_site_label_2
_geom_bond_site_symmetry_1
_geom_bond_site_symmetry_2
N1 H1 1_555 1_555
N2 C6 1_555 1_555
N3 H2 1_555 1_555
N4 C8 1_555 1_555
C1 N1 1_555 1_555
C2 C1 1_555 1_555
H3 C2 1_555 1_555
C3 C2 1_555 1_555
H4 C3 1_555 1_555
C4 C3 1_555 1_555
H5 C4 1_555 1_555
C5 C4 1_555 1_555
H6 C5 1_555 1_555
C6 C1 1_555 1_555
C7 N1 1_555 1_555
C8 C7 1_555 1_555
C9 C8 1_555 1_555
H7 C9 1_555 1_555
C10 C9 1_555 1_555
C11 C10 1_555 1_555
C12 C11 1_555 1_555
H8 C12 1_555 1_555
C13 C12 1_555 1_555
H9 C13 1_555 1_555
C14 C13 1_555 1_555
H10 C14 1_555 1_555
C15 C14 1_555 1_555
H11 C15 1_555 1_555
C16 N3 1_555 1_555
C17 N3 1_555 1_555
C18 N4 1_555 1_555
H12 C18 1_555 1_555
N5 H13 1_555 1_555
N6 C24 1_555 1_555
N7 H14 1_555 1_555
N8 C26 1_555 1_555
C19 N5 1_555 1_555
C20 C19 1_555 1_555
H15 C20 1_555 1_555
C21 C20 1_555 1_555
H16 C21 1_555 1_555
C22 C21 1_555 1_555
H17 C22 1_555 1_555
C23 C22 1_555 1_555
H18 C23 1_555 1_555
C24 C19 1_555 1_555
C25 N5 1_555 1_555
C26 C25 1_555 1_555
C27 C26 1_555 1_555
H19 C27 1_555 1_555
C28 C27 1_555 1_555
C29 C28 1_555 1_555
C30 C29 1_555 1_555
H20 C30 1_555 1_555
C31 C30 1_555 1_555
H21 C31 1_555 1_555
C32 C31 1_555 1_555
H22 C32 1_555 1_555
C33 C32 1_555 1_555
H23 C33 1_555 1_555
C34 N7 1_555 1_555
C35 N7 1_555 1_555
C36 N8 1_555 1_555
H24 C36 1_555 1_555
C37 H25 1_555 1_555
H26 C37 1_555 1_555
H27 C37 1_555 1_555
C38 C37 1_555 1_555
H28 C38 1_555 1_555
H29 C38 1_555 1_555
O1 C38 1_555 1_555
H30 O1 1_555 1_555
O2 H31 1_555 1_555
H32 O2 1_555 1_555
N2 C7 1_555 1_555
C5 C6 1_555 1_555
C10 C17 1_555 1_555
C11 C16 1_555 1_555
C15 C16 1_555 1_555
C17 C18 1_555 1_555
N6 C25 1_555 1_555
C23 C24 1_555 1_555
C28 C35 1_555 1_555
C29 C34 1_555 1_555
C33 C34 1_555 1_555
C35 C36 1_555 1_555

#END
