
#######################################################################
#
#                 Cambridge Crystallographic Data Centre
#                                CCDC 
#
#######################################################################
#
# If this CIF has been generated from an entry in the Cambridge 
# Structural Database, then it will include bibliographic, chemical, 
# crystal, experimental, refinement or atomic coordinate data resulting 
# from the CCDC's data processing and validation procedures.
#
#######################################################################

data_YOPDEN
_chemical_formula_moiety         'C3 H8 N7 1+,N3 O4 1-'
_chemical_name_systematic        
'3,5-Diamino-1-guanyl-1,2,4-triazole dinitramide'
_symmetry_cell_setting           monoclinic
_symmetry_space_group_name_H-M   'P 21/n'
_symmetry_Int_Tables_number      14
_space_group_name_Hall           '-P 2yn'
loop_
_symmetry_equiv_pos_site_id
_symmetry_equiv_pos_as_xyz
1 x,y,z
2 1/2-x,1/2+y,1/2-z
3 -x,-y,-z
4 1/2+x,1/2-y,1/2+z
_cell_length_a                   11.8028(7)
_cell_length_b                   6.4019(4)
_cell_length_c                   12.5397(7)
_cell_angle_alpha                90
_cell_angle_beta                 101.356
_cell_angle_gamma                90
_cell_volume                     928.954
_exptl_crystal_colour            yellow
_exptl_crystal_description       plate
_chemical_melting_point          '197 deg.C (dec.)'
_cell_formula_units_Z            4
_chemical_properties_physical    'impact-sensitive (greater than 60J)'
_exptl_crystal_recrystallization_method water
loop_
_atom_site_label
_atom_site_type_symbol
_atom_site_fract_x
_atom_site_fract_y
_atom_site_fract_z
N1 N 0.62991(11) 0.8775(2) 0.87652(11)
H1 H 0.6371(16) 0.881(3) 0.9452(17)
H2 H 0.5711(17) 0.823(3) 0.8366(15)
C1 C 0.72276(13) 0.9112(2) 0.83561(12)
N2 N 0.82600(11) 0.9418(2) 0.89438(11)
H3 H 0.8366(16) 0.929(3) 0.9632(17)
H4 H 0.8826(17) 0.971(3) 0.8613(15)
N3 N 0.71409(11) 0.9127(2) 0.72482(10)
C2 C 0.62265(13) 0.9601(2) 0.64076(11)
N4 N 0.51892(11) 1.0189(2) 0.65574(11)
H5 H 0.4678(17) 1.044(3) 0.6006(16)
H6 H 0.5123(16) 1.081(3) 0.7141(16)
N5 N 0.65695(11) 0.9413(2) 0.54701(10)
C3 C 0.77252(13) 0.8906(2) 0.57685(12)
N6 N 0.83964(12) 0.8637(2) 0.50237(11)
H7 H 0.9109(18) 0.826(3) 0.5268(16)
H8 H 0.8086(18) 0.857(3) 0.4330(17)
N7 N 0.81399(11) 0.8747(2) 0.68203(10)
N8 N 0.76659(11) 0.8814(2) 0.12078(10)
N9 N 0.67820(11) 0.8495(2) 0.17436(10)
O1 O 0.58292(9) 0.84837(19) 0.11040(9)
O2 O 0.68723(10) 0.8303(2) 0.27264(9)
N10 N 0.87617(11) 0.8829(2) 0.18378(10)
O3 O 0.94783(10) 0.93919(19) 0.12890(9)
O4 O 0.90316(10) 0.8298(2) 0.27920(9)
loop_
_geom_bond_atom_site_label_1
_geom_bond_atom_site_label_2
_geom_bond_site_symmetry_1
_geom_bond_site_symmetry_2
N1 H1 1_555 1_555
H2 N1 1_555 1_555
C1 N1 1_555 1_555
N2 C1 1_555 1_555
H3 N2 1_555 1_555
H4 N2 1_555 1_555
N3 C1 1_555 1_555
C2 N3 1_555 1_555
N4 C2 1_555 1_555
H5 N4 1_555 1_555
H6 N4 1_555 1_555
N5 C2 1_555 1_555
C3 N5 1_555 1_555
N6 C3 1_555 1_555
H7 N6 1_555 1_555
H8 N6 1_555 1_555
N7 N3 1_555 1_555
N8 N9 1_555 1_555
N9 O1 1_555 1_555
O2 N9 1_555 1_555
N10 N8 1_555 1_555
O3 N10 1_555 1_555
O4 N10 1_555 1_555
C3 N7 1_555 1_555

#END
