
#######################################################################
#
#                 Cambridge Crystallographic Data Centre
#                                CCDC 
#
#######################################################################
#
# If this CIF has been generated from an entry in the Cambridge 
# Structural Database, then it will include bibliographic, chemical, 
# crystal, experimental, refinement or atomic coordinate data resulting 
# from the CCDC's data processing and validation procedures.
#
#######################################################################

data_YOPGIU
_chemical_formula_moiety         'C27 H29 N3 O5,2(C14 H16 N1 1+),2(F6 P1 1-)'
_chemical_name_systematic        
'[2]-(18,21,24-trioxa-3,11,33-triazatetracyclo[24.2.2.2^13,16^.1^5,9^]-tritriaconta-1(28),5(33),6,8,13,15,26,29,31-nonaene-4,10-dione)-(N-benzyl(phenyl)methanaminium)-pseudorotaxane N-benzyl(phenyl)methanaminium bis(hexafluorophosphate)'
_symmetry_cell_setting           triclinic
_symmetry_space_group_name_H-M   'P -1'
_symmetry_Int_Tables_number      2
_space_group_name_Hall           '-P 1'
loop_
_symmetry_equiv_pos_site_id
_symmetry_equiv_pos_as_xyz
1 x,y,z
2 -x,-y,-z
_cell_length_a                   11.1624(4)
_cell_length_b                   13.2258(5)
_cell_length_c                   19.4664(7)
_cell_angle_alpha                79.749(2)
_cell_angle_beta                 81.897(2)
_cell_angle_gamma                86.169(2)
_cell_volume                     2797.18
_cell_formula_units_Z            2
_exptl_crystal_recrystallization_method 'di-isopropyl ether/acetonitrile'
loop_
_atom_site_label
_atom_site_type_symbol
_atom_site_fract_x
_atom_site_fract_y
_atom_site_fract_z
O1 O -0.1643(3) -0.2132(3) 0.88095(19)
O2 O 0.4641(3) -0.2771(3) 0.87702(19)
O3 O 0.0215(3) 0.3014(2) 0.6253(2)
O4 O 0.2417(4) 0.3930(3) 0.6298(3)
O5 O 0.4493(3) 0.2717(2) 0.6440(2)
N1 N -0.0391(3) -0.2021(3) 0.7783(2)
H1 H 0.0339 -0.2124 0.7592
N2 N 0.3806(3) -0.2356(3) 0.7773(2)
H2 H 0.3143 -0.2299 0.7589
C1 C 0.3750(4) -0.2622(3) 0.8460(3)
C2 C 0.2498(4) -0.2702(3) 0.8872(2)
C3 C 0.2382(5) -0.2966(3) 0.9592(3)
H5 H 0.3061 -0.3138 0.9823
C4 C 0.1232(5) -0.2972(4) 0.9966(3)
H6 H 0.1121 -0.3134 1.0455
C5 C 0.0258(5) -0.2733(3) 0.9599(3)
H7 H -0.0524 -0.2732 0.9838
C6 C 0.0446(4) -0.2493(3) 0.8872(2)
N4 N 0.1559(3) -0.2472(2) 0.85013(18)
C7 C -0.0618(4) -0.2207(3) 0.8479(3)
C8 C 0.4932(4) -0.2154(4) 0.7307(3)
H8 H 0.4910 -0.2440 0.6883
H9 H 0.5600 -0.2497 0.7538
C9 C 0.5151(4) -0.1023(4) 0.7107(3)
C10 C 0.4937(5) -0.0370(5) 0.7598(3)
H10 H 0.4668 -0.0641 0.8065
C11 C 0.5111(5) 0.0663(5) 0.7415(3)
H11 H 0.4956 0.1079 0.7758
C12 C 0.5514(4) 0.1098(4) 0.6728(3)
C13 C 0.5747(5) 0.0456(5) 0.6242(3)
H12 H 0.6032 0.0725 0.5777
C14 C 0.5565(4) -0.0591(4) 0.6430(3)
H13 H 0.5729 -0.1009 0.6088
C15 C 0.5652(5) 0.2231(4) 0.6522(4)
H14 H 0.5998 0.2492 0.6883
H15 H 0.6192 0.2377 0.6084
C16 C -0.1309(4) -0.1650(4) 0.7318(3)
H16 H -0.2108 -0.1786 0.7575
H17 H -0.1198 -0.2019 0.6924
C17 C -0.1228(4) -0.0515(4) 0.7046(3)
C18 C -0.1053(5) -0.0141(5) 0.6335(3)
H18 H -0.0981 -0.0592 0.6015
C19 C -0.0983(5) 0.0909(6) 0.6095(3)
H19 H -0.0874 0.1150 0.5613
C20 C -0.1071(4) 0.1599(5) 0.6547(4)
C21 C -0.1251(5) 0.1218(5) 0.7256(4)
H20 H -0.1316 0.1670 0.7577
C22 C -0.1338(5) 0.0181(4) 0.7500(3)
H21 H -0.1474 -0.0054 0.7983
C23 C -0.0974(5) 0.2726(5) 0.6287(4)
H22 H -0.1230 0.2896 0.5823
H23 H -0.1505 0.3103 0.6600
C24 C 0.4496(6) 0.3794(5) 0.6360(5)
H24 H 0.4679 0.3971 0.6795
H25 H 0.5149 0.4032 0.5995
C25 C 0.3472(9) 0.4311(5) 0.6197(6)
H26 H 0.3392 0.4895 0.6442
H27 H 0.3623 0.4591 0.5699
C26 C 0.1398(10) 0.4447(6) 0.6160(8)
H28 H 0.1234 0.4899 0.6507
H29 H 0.1607 0.4891 0.5711
C27 C 0.0360(6) 0.4099(5) 0.6122(5)
H30 H 0.0153 0.4363 0.5654
H31 H -0.0235 0.4395 0.6452
N3 N 0.2320(4) 0.1634(3) 0.6288(2)
H3 H 0.171(4) 0.207(3) 0.630(2)
H4 H 0.289(4) 0.200(3) 0.637(2)
C28 C 0.2572(5) 0.1293(4) 0.5579(3)
H32 H 0.3309 0.0860 0.5562
H33 H 0.1914 0.0885 0.5522
C29 C 0.2708(4) 0.2187(3) 0.4985(2)
C30 C 0.3811(5) 0.2641(4) 0.4778(3)
H34 H 0.4473 0.2393 0.5009
C31 C 0.3930(6) 0.3459(5) 0.4230(3)
H35 H 0.4670 0.3769 0.4097
C32 C 0.2961(7) 0.3821(5) 0.3879(3)
H36 H 0.3045 0.4371 0.3507
C33 C 0.1870(6) 0.3366(5) 0.4080(3)
H37 H 0.1212 0.3606 0.3844
C34 C 0.1747(5) 0.2554(4) 0.4632(3)
H38 H 0.1003 0.2250 0.4766
C35 C 0.2140(4) 0.0733(3) 0.6865(2)
H39 H 0.2885 0.0312 0.6864
H40 H 0.1518 0.0323 0.6764
C36 C 0.1786(4) 0.0983(3) 0.7588(3)
C37 C 0.1456(5) 0.0163(4) 0.8109(3)
H41 H 0.1493 -0.0494 0.7998
C38 C 0.1073(5) 0.0299(5) 0.8793(3)
H42 H 0.0850 -0.0264 0.9138
C39 C 0.1020(6) 0.1253(5) 0.8963(3)
H43 H 0.0751 0.1348 0.9422
C40 C 0.1364(6) 0.2078(5) 0.8456(4)
H44 H 0.1345 0.2731 0.8573
C41 C 0.1741(5) 0.1935(4) 0.7769(3)
H45 H 0.1966 0.2499 0.7426
N5 N 0.6353(4) 0.7012(3) -0.0365(2)
H46 H 0.574(5) 0.721(4) -0.070(3)
H47 H 0.703(4) 0.695(3) -0.060(2)
C42 C 0.6319(4) 0.7885(4) 0.0035(3)
H48 H 0.6708 0.7659 0.0454
H49 H 0.6773 0.8443 -0.0255
C43 C 0.5061(5) 0.8272(4) 0.0243(3)
C44 C 0.4505(5) 0.8989(4) -0.0232(4)
H50 H 0.4912 0.9224 -0.0677
C45 C 0.3337(8) 0.9354(7) -0.0040(7)
H51 H 0.2949 0.9830 -0.0357
C46 C 0.2748(9) 0.9004(11) 0.0630(10)
H52 H 0.1964 0.9248 0.0764
C47 C 0.3301(9) 0.8328(9) 0.1075(7)
H53 H 0.2893 0.8098 0.1521
C48 C 0.4465(7) 0.7949(5) 0.0903(4)
H54 H 0.4840 0.7481 0.1230
C49 C 0.6025(4) 0.5994(4) 0.0064(3)
H55 H 0.6080 0.5489 -0.0246
H56 H 0.5191 0.6042 0.0281
C50 C 0.6817(4) 0.5624(3) 0.0632(3)
C51 C 0.8065(4) 0.5515(4) 0.0463(3)
H57 H 0.8410 0.5669 -0.0005
C52 C 0.8791(6) 0.5188(4) 0.0971(4)
H58 H 0.9626 0.5136 0.0848
C53 C 0.8311(7) 0.4936(4) 0.1657(4)
H59 H 0.8813 0.4723 0.2003
C54 C 0.7068(8) 0.4999(4) 0.1835(3)
H60 H 0.6730 0.4798 0.2300
C55 C 0.6326(5) 0.5360(4) 0.1323(3)
H61 H 0.5493 0.5424 0.1447
P1 P 0.22866(14) 0.51492(13) 0.18241(8)
F1 F 0.3141(3) 0.5689(3) 0.11563(18)
F2 F 0.1424(4) 0.4617(4) 0.2470(2)
F3 F 0.1318(4) 0.6049(3) 0.1698(2)
F4 F 0.1678(4) 0.4592(4) 0.1307(2)
F5 F 0.3217(4) 0.4245(4) 0.1925(3)
F6 F 0.2890(5) 0.5704(4) 0.2310(2)
P2 P 0.78124(12) 0.21861(11) 0.40073(7)
F7 F 0.8977(4) 0.2752(4) 0.3788(4)
F8 F 0.6655(4) 0.1579(4) 0.4215(3)
F9 F 0.7089(4) 0.3100(3) 0.3611(2)
F10 F 0.8049(4) 0.1674(3) 0.33222(18)
F11 F 0.8530(5) 0.1240(3) 0.4387(2)
F12 F 0.7554(5) 0.2685(4) 0.4677(2)
loop_
_geom_bond_atom_site_label_1
_geom_bond_atom_site_label_2
_geom_bond_site_symmetry_1
_geom_bond_site_symmetry_2
O1 C7 1_555 1_555
O2 C1 1_555 1_555
O3 C23 1_555 1_555
O4 C25 1_555 1_555
O5 C15 1_555 1_555
N1 H1 1_555 1_555
N2 H2 1_555 1_555
N3 H3 1_555 1_555
H4 N3 1_555 1_555
C1 N2 1_555 1_555
C2 C1 1_555 1_555
C3 C2 1_555 1_555
H5 C3 1_555 1_555
C4 C3 1_555 1_555
H6 C4 1_555 1_555
C5 C4 1_555 1_555
H7 C5 1_555 1_555
C6 C5 1_555 1_555
N4 C2 1_555 1_555
C7 N1 1_555 1_555
C8 N2 1_555 1_555
H8 C8 1_555 1_555
H9 C8 1_555 1_555
C9 C8 1_555 1_555
C10 C9 1_555 1_555
H10 C10 1_555 1_555
C11 C10 1_555 1_555
H11 C11 1_555 1_555
C12 C11 1_555 1_555
C13 C12 1_555 1_555
H12 C13 1_555 1_555
C14 C9 1_555 1_555
H13 C14 1_555 1_555
C15 C12 1_555 1_555
H14 C15 1_555 1_555
H15 C15 1_555 1_555
C16 N1 1_555 1_555
H16 C16 1_555 1_555
H17 C16 1_555 1_555
C17 C16 1_555 1_555
C18 C17 1_555 1_555
H18 C18 1_555 1_555
C19 C18 1_555 1_555
H19 C19 1_555 1_555
C20 C19 1_555 1_555
C21 C20 1_555 1_555
H20 C21 1_555 1_555
C22 C17 1_555 1_555
H21 C22 1_555 1_555
C23 C20 1_555 1_555
H22 C23 1_555 1_555
H23 C23 1_555 1_555
C24 O5 1_555 1_555
H24 C24 1_555 1_555
H25 C24 1_555 1_555
C25 C24 1_555 1_555
H26 C25 1_555 1_555
H27 C25 1_555 1_555
C26 O4 1_555 1_555
H28 C26 1_555 1_555
H29 C26 1_555 1_555
C27 O3 1_555 1_555
H30 C27 1_555 1_555
H31 C27 1_555 1_555
C28 N3 1_555 1_555
H32 C28 1_555 1_555
H33 C28 1_555 1_555
C29 C28 1_555 1_555
C30 C29 1_555 1_555
H34 C30 1_555 1_555
C31 C30 1_555 1_555
H35 C31 1_555 1_555
C32 C31 1_555 1_555
H36 C32 1_555 1_555
C33 C32 1_555 1_555
H37 C33 1_555 1_555
C34 C29 1_555 1_555
H38 C34 1_555 1_555
C35 N3 1_555 1_555
H39 C35 1_555 1_555
H40 C35 1_555 1_555
C36 C35 1_555 1_555
C37 C36 1_555 1_555
H41 C37 1_555 1_555
C38 C37 1_555 1_555
H42 C38 1_555 1_555
C39 C38 1_555 1_555
H43 C39 1_555 1_555
C40 C39 1_555 1_555
H44 C40 1_555 1_555
C41 C36 1_555 1_555
H45 C41 1_555 1_555
N5 H46 1_555 1_555
H47 N5 1_555 1_555
C42 N5 1_555 1_555
H48 C42 1_555 1_555
H49 C42 1_555 1_555
C43 C42 1_555 1_555
C44 C43 1_555 1_555
H50 C44 1_555 1_555
C45 C44 1_555 1_555
H51 C45 1_555 1_555
C46 C45 1_555 1_555
H52 C46 1_555 1_555
C47 C46 1_555 1_555
H53 C47 1_555 1_555
C48 C43 1_555 1_555
H54 C48 1_555 1_555
C49 N5 1_555 1_555
H55 C49 1_555 1_555
H56 C49 1_555 1_555
C50 C49 1_555 1_555
C51 C50 1_555 1_555
H57 C51 1_555 1_555
C52 C51 1_555 1_555
H58 C52 1_555 1_555
C53 C52 1_555 1_555
H59 C53 1_555 1_555
C54 C53 1_555 1_555
H60 C54 1_555 1_555
C55 C50 1_555 1_555
H61 C55 1_555 1_555
P1 F1 1_555 1_555
F2 P1 1_555 1_555
F3 P1 1_555 1_555
F4 P1 1_555 1_555
F5 P1 1_555 1_555
F6 P1 1_555 1_555
P2 F7 1_555 1_555
F8 P2 1_555 1_555
F9 P2 1_555 1_555
F10 P2 1_555 1_555
F11 P2 1_555 1_555
F12 P2 1_555 1_555
C6 N4 1_555 1_555
C6 C7 1_555 1_555
C13 C14 1_555 1_555
C21 C22 1_555 1_555
C26 C27 1_555 1_555
C33 C34 1_555 1_555
C40 C41 1_555 1_555
C47 C48 1_555 1_555
C54 C55 1_555 1_555

#END
