
#######################################################################
#
#                 Cambridge Crystallographic Data Centre
#                                CCDC 
#
#######################################################################
#
# If this CIF has been generated from an entry in the Cambridge 
# Structural Database, then it will include bibliographic, chemical, 
# crystal, experimental, refinement or atomic coordinate data resulting 
# from the CCDC's data processing and validation procedures.
#
#######################################################################

data_YOPHES
_chemical_formula_moiety         'C15 H28 O3'
_chemical_name_systematic        
(3S,6R)-6-((1S,4R)-4-Hydroxy-4-methylcyclohex-2-en-1-yl)-2-methylheptane-2,3-diol
_symmetry_cell_setting           monoclinic
_symmetry_space_group_name_H-M   'P 21'
_symmetry_Int_Tables_number      4
_space_group_name_Hall           'P 2yb'
loop_
_symmetry_equiv_pos_site_id
_symmetry_equiv_pos_as_xyz
1 x,y,z
2 -x,1/2+y,-z
_cell_length_a                   9.58434(13)
_cell_length_b                   6.33143(8)
_cell_length_c                   12.29045(17)
_cell_angle_alpha                90
_cell_angle_beta                 92.0157(12)
_cell_angle_gamma                90
_cell_volume                     745.355
_exptl_crystal_colour            colorless
_exptl_crystal_description       plate
_chemical_melting_point          '125 deg.C'
_cell_formula_units_Z            2
_exptl_crystal_recrystallization_method dichloromethane/hexane
loop_
_atom_site_label
_atom_site_type_symbol
_atom_site_fract_x
_atom_site_fract_y
_atom_site_fract_z
C1 C 0.17487(12) 0.66147(18) 0.47793(10)
H1 H 0.1538 0.7776 0.5235
C2 C 0.19998(12) 0.70141(18) 0.37445(9)
H2 H 0.1940 0.8438 0.3504
C3 C 0.23731(11) 0.53582(18) 0.29279(8)
C4 C 0.20749(14) 0.31492(18) 0.33668(9)
H3 H 0.1059 0.2870 0.3302
H4 H 0.2554 0.2087 0.2922
C5 C 0.25675(14) 0.29195(18) 0.45574(9)
H5 H 0.3581 0.3217 0.4628
H6 H 0.2411 0.1451 0.4801
C6 C 0.17760(11) 0.44453(18) 0.52791(9)
H7 H 0.0786 0.3943 0.5272
C7 C 0.22904(11) 0.44791(18) 0.64816(9)
H8 H 0.1632 0.5396 0.6883
C8 C 0.22014(11) 0.22594(18) 0.69711(8)
H9 H 0.2979 0.1402 0.6699
H10 H 0.1318 0.1597 0.6705
C9 C 0.22608(12) 0.21749(18) 0.82181(9)
H11 H 0.3097 0.2946 0.8499
H12 H 0.1426 0.2881 0.8500
C10 C 0.23181(11) -0.00856(17) 0.86203(8)
H13 H 0.3147 -0.0775 0.8298
C11 C 0.24306(11) -0.04161(17) 0.98590(9)
C12 C 0.12117(11) 0.05400(19) 1.04494(8)
H14 H 0.0332 0.0112 1.0083
H15 H 0.1287 0.2084 1.0441
H16 H 0.1231 0.0040 1.1204
C13 C 0.38090(12) 0.0446(2) 1.03281(9)
H17 H 0.3928 0.0018 1.1092
H18 H 0.3805 0.1991 1.0280
H19 H 0.4581 -0.0117 0.9914
C14 C 0.37429(13) 0.5447(2) 0.66349(9)
H20 H 0.3997 0.5520 0.7413
H21 H 0.3742 0.6873 0.6325
H22 H 0.4423 0.4569 0.6265
C15 C 0.38915(12) 0.5570(2) 0.26216(10)
H23 H 0.4098 0.4529 0.2059
H24 H 0.4500 0.5322 0.3266
H25 H 0.4054 0.6995 0.2342
O1 O 0.15802(8) 0.57078(14) 0.19224(6)
H26 H 0.0768(17) 0.526(3) 0.1944(14)
O2 O 0.10863(8) -0.11553(13) 0.81968(6)
H27 H 0.103(2) -0.228(3) 0.8551(15)
O3 O 0.24134(9) -0.26863(12) 0.99466(6)
H28 H 0.2224(16) -0.300(3) 1.0605(13)
loop_
_geom_bond_atom_site_label_1
_geom_bond_atom_site_label_2
_geom_bond_site_symmetry_1
_geom_bond_site_symmetry_2
C1 H1 1_555 1_555
C2 C1 1_555 1_555
H2 C2 1_555 1_555
C3 C2 1_555 1_555
C4 C3 1_555 1_555
H3 C4 1_555 1_555
H4 C4 1_555 1_555
C5 C4 1_555 1_555
H5 C5 1_555 1_555
H6 C5 1_555 1_555
C6 C1 1_555 1_555
H7 C6 1_555 1_555
C7 C6 1_555 1_555
H8 C7 1_555 1_555
C8 C7 1_555 1_555
H9 C8 1_555 1_555
H10 C8 1_555 1_555
C9 C8 1_555 1_555
H11 C9 1_555 1_555
H12 C9 1_555 1_555
C10 C9 1_555 1_555
H13 C10 1_555 1_555
C11 C10 1_555 1_555
C12 C11 1_555 1_555
H14 C12 1_555 1_555
H15 C12 1_555 1_555
H16 C12 1_555 1_555
C13 C11 1_555 1_555
H17 C13 1_555 1_555
H18 C13 1_555 1_555
H19 C13 1_555 1_555
C14 C7 1_555 1_555
H20 C14 1_555 1_555
H21 C14 1_555 1_555
H22 C14 1_555 1_555
C15 C3 1_555 1_555
H23 C15 1_555 1_555
H24 C15 1_555 1_555
H25 C15 1_555 1_555
O1 C3 1_555 1_555
H26 O1 1_555 1_555
O2 C10 1_555 1_555
H27 O2 1_555 1_555
O3 C11 1_555 1_555
H28 O3 1_555 1_555
C5 C6 1_555 1_555

#END
