
#######################################################################
#
#                 Cambridge Crystallographic Data Centre
#                                CCDC 
#
#######################################################################
#
# If this CIF has been generated from an entry in the Cambridge 
# Structural Database, then it will include bibliographic, chemical, 
# crystal, experimental, refinement or atomic coordinate data resulting 
# from the CCDC's data processing and validation procedures.
#
#######################################################################

data_YOPNIC
_chemical_compound_source        
'Isolated from the flowers of Rhododendron molle.'
_chemical_name_common            'seco-rhodomollone hydrate'
_chemical_formula_moiety         'C20 H32 O5,3.5(H2 O1)'
_chemical_name_systematic        
'3,4a,6,9-tetrahydroxy-3,8,8,12-tetramethyl-2,2a,3,4,4a,5,6,8,9,10,12a,12b-dodecahydrocycloundeca[cd]pentalen-7(1H)-one hydrate'
_symmetry_cell_setting           monoclinic
_symmetry_space_group_name_H-M   'C 2'
_symmetry_Int_Tables_number      5
_space_group_name_Hall           'C 2y'
loop_
_symmetry_equiv_pos_site_id
_symmetry_equiv_pos_as_xyz
1 x,y,z
2 -x,y,-z
3 1/2+x,1/2+y,z
4 1/2-x,1/2+y,-z
_cell_length_a                   30.6177(19)
_cell_length_b                   6.6765(4)
_cell_length_c                   10.7301(7)
_cell_angle_alpha                90
_cell_angle_beta                 96.650(4)
_cell_angle_gamma                90
_cell_volume                     2178.68
_cell_formula_units_Z            4
loop_
_atom_site_label
_atom_site_type_symbol
_atom_site_fract_x
_atom_site_fract_y
_atom_site_fract_z
O1 O 0.16872(6) 1.3853(3) 0.11121(17)
H1 H 0.1518 1.4314 0.0507
O2 O 0.09298(6) 1.1168(3) 0.05991(18)
O3 O 0.11246(5) 0.6576(3) 0.01315(17)
H2 H 0.0869 0.6808 -0.0209
O4 O 0.09256(6) 0.4266(3) 0.24591(17)
H3 H 0.1123 0.4090 0.1987
O5 O 0.07544(6) 0.2641(3) 0.46101(18)
H4 H 0.0772 0.2605 0.3835
C1 C 0.19317(7) 1.0555(4) 0.2843(2)
H5 H 0.1693 1.1354 0.3045
C2 C 0.21996(8) 1.1377(4) 0.1867(2)
H6 H 0.2392 1.0300 0.1609
H7 H 0.2391 1.2458 0.2252
C3 C 0.19263(8) 1.2208(4) 0.0695(2)
H8 H 0.2139 1.2775 0.0149
C4 C 0.16309(8) 1.0698(4) -0.0130(2)
C5 C 0.12405(8) 1.0046(4) 0.0563(2)
C6 C 0.12316(7) 0.7942(4) 0.1144(2)
H9 H 0.1535 0.7623 0.1541
C7 C 0.09239(7) 0.7895(4) 0.2171(2)
H10 H 0.0957 0.9171 0.2642
H11 H 0.0617 0.7828 0.1763
C8 C 0.09967(8) 0.6168(4) 0.3108(2)
C9 C 0.14465(8) 0.6071(4) 0.3948(2)
H12 H 0.1653 0.5198 0.3537
C10 C 0.16766(8) 0.8101(4) 0.4330(2)
H13 H 0.1443 0.9142 0.4351
C11 C 0.19958(8) 0.8825(4) 0.3450(2)
C12 C 0.18779(9) 0.7700(5) 0.5690(3)
H14 H 0.2146 0.6868 0.5714
H15 H 0.1950 0.8967 0.6147
C13 C 0.15107(9) 0.6580(5) 0.6235(3)
H16 H 0.1274 0.7510 0.6413
H17 H 0.1624 0.5881 0.7020
C14 C 0.13425(8) 0.5072(4) 0.5207(2)
H18 H 0.1508 0.3783 0.5341
C15 C 0.08419(8) 0.4656(4) 0.5070(2)
C16 C 0.06625(7) 0.6187(4) 0.4066(2)
H19 H 0.0368 0.5786 0.3669
H20 H 0.0642 0.7536 0.4438
C17 C 0.06271(9) 0.4777(5) 0.6272(3)
H21 H 0.0313 0.4475 0.6091
H22 H 0.0664 0.6129 0.6623
H23 H 0.0765 0.3804 0.6879
C18 C 0.14407(8) 1.1780(5) -0.1335(3)
H24 H 0.1681 1.2195 -0.1806
H25 H 0.1276 1.2963 -0.1116
H26 H 0.1244 1.0873 -0.1851
C19 C 0.19156(9) 0.8959(5) -0.0493(3)
H27 H 0.1739 0.8074 -0.1081
H28 H 0.2026 0.8203 0.0261
H29 H 0.2164 0.9485 -0.0892
C20 C 0.23785(9) 0.7434(5) 0.3285(3)
H30 H 0.2282 0.6398 0.2667
H31 H 0.2481 0.6802 0.4090
H32 H 0.2619 0.8207 0.2992
O6 O 0.47135(6) 0.1732(3) 0.08969(18)
H33 H 0.4803 0.0558 0.1097
H34 H 0.4696 0.2686 0.0368
O7 O 0.50548(6) 0.7943(4) 0.13196(19)
H35 H 0.5000 0.6723 0.1140
H36 H 0.5327 0.7967 0.1592
O8 O 0.46768(9) 0.4734(4) 0.2477(2)
H37 H 0.4633 0.3487 0.2561
H38 H 0.4830 0.4819 0.3188
O9? O 0.5000 0.5472(4) 0.5000
H39? H 0.4771 0.6130 0.5118
H40? H 0.5205 0.6283 0.4884
loop_
_geom_bond_atom_site_label_1
_geom_bond_atom_site_label_2
_geom_bond_site_symmetry_1
_geom_bond_site_symmetry_2
O1 H1 1_555 1_555
O2 C5 1_555 1_555
O3 H2 1_555 1_555
O4 H3 1_555 1_555
O5 H4 1_555 1_555
C1 H5 1_555 1_555
C2 C1 1_555 1_555
H6 C2 1_555 1_555
H7 C2 1_555 1_555
C3 O1 1_555 1_555
H8 C3 1_555 1_555
C4 C3 1_555 1_555
C5 C4 1_555 1_555
C6 O3 1_555 1_555
H9 C6 1_555 1_555
C7 C6 1_555 1_555
H10 C7 1_555 1_555
H11 C7 1_555 1_555
C8 O4 1_555 1_555
C9 C8 1_555 1_555
H12 C9 1_555 1_555
C10 C9 1_555 1_555
H13 C10 1_555 1_555
C11 C1 1_555 1_555
C12 C10 1_555 1_555
H14 C12 1_555 1_555
H15 C12 1_555 1_555
C13 C12 1_555 1_555
H16 C13 1_555 1_555
H17 C13 1_555 1_555
C14 C9 1_555 1_555
H18 C14 1_555 1_555
C15 O5 1_555 1_555
C16 C8 1_555 1_555
H19 C16 1_555 1_555
H20 C16 1_555 1_555
C17 C15 1_555 1_555
H21 C17 1_555 1_555
H22 C17 1_555 1_555
H23 C17 1_555 1_555
C18 C4 1_555 1_555
H24 C18 1_555 1_555
H25 C18 1_555 1_555
H26 C18 1_555 1_555
C19 C4 1_555 1_555
H27 C19 1_555 1_555
H28 C19 1_555 1_555
H29 C19 1_555 1_555
C20 C11 1_555 1_555
H30 C20 1_555 1_555
H31 C20 1_555 1_555
H32 C20 1_555 1_555
O6 H33 1_555 1_555
H34 O6 1_555 1_555
O7 H35 1_555 1_555
H36 O7 1_555 1_555
O8 H37 1_555 1_555
H38 O8 1_555 1_555
C2 C3 1_555 1_555
C5 C6 1_555 1_555
C7 C8 1_555 1_555
C10 C11 1_555 1_555
C13 C14 1_555 1_555
C14 C15 1_555 1_555
C15 C16 1_555 1_555

#END
