
#######################################################################
#
#                 Cambridge Crystallographic Data Centre
#                                CCDC 
#
#######################################################################
#
# If this CIF has been generated from an entry in the Cambridge 
# Structural Database, then it will include bibliographic, chemical, 
# crystal, experimental, refinement or atomic coordinate data resulting 
# from the CCDC's data processing and validation procedures.
#
#######################################################################

data_YOPVOQ
_chemical_formula_moiety         'C54 H54 B2 N2 S1'
_chemical_name_systematic        
4,7-bis(4-(dimesitylboryl)phenyl)-2,1,3-benzothiadiazole
_symmetry_cell_setting           monoclinic
_symmetry_space_group_name_H-M   'P 21/n'
_symmetry_Int_Tables_number      14
_space_group_name_Hall           '-P 2yn'
loop_
_symmetry_equiv_pos_site_id
_symmetry_equiv_pos_as_xyz
1 x,y,z
2 1/2-x,1/2+y,1/2-z
3 -x,-y,-z
4 1/2+x,1/2-y,1/2+z
_cell_length_a                   8.3844(9)
_cell_length_b                   15.8996(19)
_cell_length_c                   17.730(2)
_cell_angle_alpha                90
_cell_angle_beta                 99.627(2)
_cell_angle_gamma                90
_cell_volume                     2330.28
_cell_formula_units_Z            2
loop_
_atom_site_label
_atom_site_type_symbol
_atom_site_fract_x
_atom_site_fract_y
_atom_site_fract_z
S1 S 0.13140(18) 0.53840(10) -0.11556(8)
N1 N 0.3061(5) 0.5786(3) -0.1198(2)
N2 N 0.8205(5) 0.5230(3) 0.0425(2)
C1 C 1.0941(4) 1.1244(2) -0.0773(2)
H1 H 1.1750 1.1099 -0.0343
H2 H 1.0065 1.1531 -0.0598
H3 H 1.1408 1.1604 -0.1113
C2 C 0.6428(3) 0.9214(2) -0.1496(2)
H4 H 0.5934 0.8958 -0.1968
H5 H 0.5846 0.9715 -0.1410
H6 H 0.6403 0.8827 -0.1082
C3 C 0.8530(3) 0.78369(16) -0.31836(14)
C4 C 1.1777(3) 0.88221(19) -0.24765(16)
H7 H 1.1996 0.8261 -0.2288
H8 H 1.2773 0.9130 -0.2435
H9 H 1.1266 0.8800 -0.3003
C5 C 1.0309(4) 1.04468(16) -0.11950(15)
C6 C 1.1230(3) 0.99845(17) -0.16148(15)
H10 H 1.2277 1.0165 -0.1637
C7 C 1.0668(3) 0.92552(15) -0.20102(13)
C8 C 0.9396(4) 0.71379(18) -0.33902(17)
C9 C 0.6576(4) 0.9031(2) -0.36086(17)
H11 H 0.5716 0.8839 -0.3356
H12 H 0.6126 0.9307 -0.4078
H13 H 0.7245 0.9420 -0.3283
C10 C 1.0465(5) 0.6624(2) -0.2792(2)
H14 H 1.0726 0.6947 -0.2330
H15 H 1.1442 0.6477 -0.2976
H16 H 0.9905 0.6120 -0.2689
C11 C 0.8249(5) 0.7104(3) -0.55672(19)
H17 H 0.9303 0.7142 -0.5710
H18 H 0.7515 0.7468 -0.5888
H19 H 0.7868 0.6535 -0.5629
C12 C 0.7587(3) 0.82856(18) -0.37812(14)
C13 C 0.9306(4) 0.6926(2) -0.4156(2)
H20 H 0.9909 0.6471 -0.4283
C14 C 0.8349(4) 0.7367(3) -0.47408(18)
C15 C 0.7506(4) 0.8036(2) -0.45370(16)
H21 H 0.6852 0.8338 -0.4918
C16 C 0.6616(3) 0.52093(18) 0.01947(14)
C17 C 0.7600(3) 0.67958(16) -0.05842(14)
H22 H 0.7910 0.6796 -0.0055
C18 C 0.8257(3) 0.73845(15) -0.10228(13)
H23 H 0.8992 0.7777 -0.0780
C19 C 0.7842(3) 0.74035(15) -0.18206(13)
C20 C 0.6494(3) 0.62122(15) -0.09237(13)
C21 C 0.6757(3) 0.67900(16) -0.21492(13)
H24 H 0.6478 0.6770 -0.2679
C22 C 0.6083(3) 0.62116(16) -0.17164(14)
H25 H 0.5348 0.5818 -0.1956
C23 C 0.8165(3) 0.94364(16) -0.15395(14)
C24 C 0.4115(3) 0.53797(17) -0.06424(14)
C25 C 0.8771(4) 1.01621(16) -0.11721(15)
H26 H 0.8115 1.0470 -0.0899
C26 C 0.5748(3) 0.55966(16) -0.04580(13)
C27 C 0.9118(3) 0.89494(14) -0.19630(12)
B1 B 0.8522(3) 0.80763(17) -0.23262(15)
S1B S 0.86860(18) 0.46160(10) 0.11556(8)
N1B N 0.6939(5) 0.4214(3) 0.1198(2)
N2B N 0.1795(5) 0.4770(3) -0.0425(2)
C1B C -0.0941(4) -0.1244(2) 0.0773(2)
H1B H -0.1750 -0.1099 0.0343
H2B H -0.0065 -0.1531 0.0598
H3B H -0.1408 -0.1604 0.1113
C2B C 0.3572(3) 0.0786(2) 0.1496(2)
H4B H 0.4066 0.1042 0.1968
H5B H 0.4154 0.0285 0.1410
H6B H 0.3597 0.1173 0.1082
C3B C 0.1470(3) 0.21631(16) 0.31836(14)
C4B C -0.1777(3) 0.11779(19) 0.24765(16)
H7B H -0.1996 0.1739 0.2288
H8B H -0.2773 0.0870 0.2435
H9B H -0.1266 0.1200 0.3003
C5B C -0.0309(4) -0.04468(16) 0.11950(15)
C6B C -0.1230(3) 0.00155(17) 0.16148(15)
H10B H -0.2277 -0.0165 0.1637
C7B C -0.0668(3) 0.07448(15) 0.20102(13)
C8B C 0.0604(4) 0.28621(18) 0.33902(17)
C9B C 0.3424(4) 0.0969(2) 0.36086(17)
H11B H 0.4284 0.1161 0.3356
H12B H 0.3874 0.0693 0.4078
H13B H 0.2755 0.0580 0.3283
C10B C -0.0465(5) 0.3376(2) 0.2792(2)
H14B H -0.0726 0.3053 0.2330
H15B H -0.1442 0.3523 0.2976
H16B H 0.0095 0.3880 0.2689
C11B C 0.1751(5) 0.2896(3) 0.55672(19)
H17B H 0.0697 0.2858 0.5710
H18B H 0.2485 0.2532 0.5888
H19B H 0.2132 0.3465 0.5629
C12B C 0.2413(3) 0.17144(18) 0.37812(14)
C13B C 0.0694(4) 0.3074(2) 0.4156(2)
H20B H 0.0091 0.3529 0.4283
C14B C 0.1651(4) 0.2633(3) 0.47408(18)
C15B C 0.2494(4) 0.1964(2) 0.45370(16)
H21B H 0.3148 0.1662 0.4918
C16B C 0.3384(3) 0.47907(18) -0.01947(14)
C17B C 0.2400(3) 0.32042(16) 0.05842(14)
H22B H 0.2090 0.3204 0.0055
C18B C 0.1743(3) 0.26155(15) 0.10228(13)
H23B H 0.1008 0.2223 0.0780
C19B C 0.2158(3) 0.25965(15) 0.18206(13)
C20B C 0.3506(3) 0.37878(15) 0.09237(13)
C21B C 0.3243(3) 0.32100(16) 0.21492(13)
H24B H 0.3522 0.3230 0.2679
C22B C 0.3917(3) 0.37884(16) 0.17164(14)
H25B H 0.4652 0.4182 0.1956
C23B C 0.1835(3) 0.05636(16) 0.15395(14)
C24B C 0.5885(3) 0.46203(17) 0.06424(14)
C25B C 0.1229(4) -0.01621(16) 0.11721(15)
H26B H 0.1885 -0.0470 0.0899
C26B C 0.4252(3) 0.44034(16) 0.04580(13)
C27B C 0.0882(3) 0.10506(14) 0.19630(12)
B1B B 0.1478(3) 0.19237(17) 0.23262(15)
loop_
_geom_bond_atom_site_label_1
_geom_bond_atom_site_label_2
_geom_bond_site_symmetry_1
_geom_bond_site_symmetry_2
S1 N1 1_555 1_555
N1 C24 1_555 1_555
N2 C16 1_555 1_555
C1 H1 1_555 1_555
H2 C1 1_555 1_555
H3 C1 1_555 1_555
C2 H4 1_555 1_555
H5 C2 1_555 1_555
H6 C2 1_555 1_555
C3 C8 1_555 1_555
C4 H7 1_555 1_555
H8 C4 1_555 1_555
H9 C4 1_555 1_555
C5 C1 1_555 1_555
C6 C5 1_555 1_555
H10 C6 1_555 1_555
C7 C4 1_555 1_555
C8 C10 1_555 1_555
C9 H11 1_555 1_555
H12 C9 1_555 1_555
H13 C9 1_555 1_555
C10 H14 1_555 1_555
H15 C10 1_555 1_555
H16 C10 1_555 1_555
C11 H17 1_555 1_555
H18 C11 1_555 1_555
H19 C11 1_555 1_555
C12 C3 1_555 1_555
C13 C8 1_555 1_555
H20 C13 1_555 1_555
C14 C11 1_555 1_555
C15 C12 1_555 1_555
H21 C15 1_555 1_555
C16 C26 1_555 1_555
C17 H22 1_555 1_555
C18 C17 1_555 1_555
H23 C18 1_555 1_555
C19 C18 1_555 1_555
C20 C17 1_555 1_555
C21 C19 1_555 1_555
H24 C21 1_555 1_555
C22 C20 1_555 1_555
H25 C22 1_555 1_555
C23 C2 1_555 1_555
C24 C26 1_555 1_555
C25 C5 1_555 1_555
H26 C25 1_555 1_555
C26 C20 1_555 1_555
C27 C7 1_555 1_555
B1 C3 1_555 1_555
S1B N2 1_555 1_555
N1B S1B 1_555 1_555
N2B S1 1_555 1_555
C1B H1B 1_555 1_555
H2B C1B 1_555 1_555
H3B C1B 1_555 1_555
C2B H4B 1_555 1_555
H5B C2B 1_555 1_555
H6B C2B 1_555 1_555
C3B C8B 1_555 1_555
C4B H7B 1_555 1_555
H8B C4B 1_555 1_555
H9B C4B 1_555 1_555
C5B C1B 1_555 1_555
C6B C5B 1_555 1_555
H10B C6B 1_555 1_555
C7B C4B 1_555 1_555
C8B C10B 1_555 1_555
C9B H11B 1_555 1_555
H12B C9B 1_555 1_555
H13B C9B 1_555 1_555
C10B H14B 1_555 1_555
H15B C10B 1_555 1_555
H16B C10B 1_555 1_555
C11B H17B 1_555 1_555
H18B C11B 1_555 1_555
H19B C11B 1_555 1_555
C12B C3B 1_555 1_555
C13B C8B 1_555 1_555
H20B C13B 1_555 1_555
C14B C11B 1_555 1_555
C15B C12B 1_555 1_555
H21B C15B 1_555 1_555
C16B C24 1_555 1_555
C17B H22B 1_555 1_555
C18B C17B 1_555 1_555
H23B C18B 1_555 1_555
C19B C18B 1_555 1_555
C20B C17B 1_555 1_555
C21B C19B 1_555 1_555
H24B C21B 1_555 1_555
C22B C20B 1_555 1_555
H25B C22B 1_555 1_555
C23B C2B 1_555 1_555
C24B C16 1_555 1_555
C25B C5B 1_555 1_555
H26B C25B 1_555 1_555
C26B C16B 1_555 1_555
C27B C7B 1_555 1_555
B1B C3B 1_555 1_555
C6 C7 1_555 1_555
C9 C12 1_555 1_555
C13 C14 1_555 1_555
C14 C15 1_555 1_555
C19 B1 1_555 1_555
C21 C22 1_555 1_555
C23 C25 1_555 1_555
C23 C27 1_555 1_555
C27 B1 1_555 1_555
N1B C24B 1_555 1_555
N2B C16B 1_555 1_555
C6B C7B 1_555 1_555
C9B C12B 1_555 1_555
C13B C14B 1_555 1_555
C14B C15B 1_555 1_555
C19B B1B 1_555 1_555
C20B C26B 1_555 1_555
C21B C22B 1_555 1_555
C23B C25B 1_555 1_555
C23B C27B 1_555 1_555
C24B C26B 1_555 1_555
C27B B1B 1_555 1_555

#END
