
#######################################################################
#
#                 Cambridge Crystallographic Data Centre
#                                CCDC 
#
#######################################################################
#
# If this CIF has been generated from an entry in the Cambridge 
# Structural Database, then it will include bibliographic, chemical, 
# crystal, experimental, refinement or atomic coordinate data resulting 
# from the CCDC's data processing and validation procedures.
#
#######################################################################

data_YOPYIM
_chemical_formula_moiety         'C21 H33 N1 O2'
_chemical_name_systematic        4\a-(Dimethylamino)-5\a-androstane-3,17-dione
_symmetry_cell_setting           orthorhombic
_symmetry_space_group_name_H-M   'P 21 21 21'
_symmetry_Int_Tables_number      19
_space_group_name_Hall           'P 2ac 2ab'
loop_
_symmetry_equiv_pos_site_id
_symmetry_equiv_pos_as_xyz
1 x,y,z
2 1/2-x,-y,1/2+z
3 1/2+x,1/2-y,-z
4 -x,1/2+y,1/2-z
_cell_length_a                   5.9317(4)
_cell_length_b                   12.8974(9)
_cell_length_c                   24.7747(17)
_cell_angle_alpha                90
_cell_angle_beta                 90
_cell_angle_gamma                90
_cell_volume                     1895.35
_exptl_crystal_colour            colorless
_exptl_crystal_description       block
_chemical_melting_point          '206-207 deg.C'
_cell_formula_units_Z            4
loop_
_atom_site_label
_atom_site_type_symbol
_atom_site_fract_x
_atom_site_fract_y
_atom_site_fract_z
C1 C 0.2414(6) 0.7931(2) 0.26981(11)
H1 H 0.1779 0.8526 0.2513
H2 H 0.4043 0.7998 0.2689
C2 C 0.1740(7) 0.6948(2) 0.23974(12)
H3 H 0.0117 0.6945 0.2349
H4 H 0.2424 0.6957 0.2042
C3 C 0.2426(6) 0.5971(2) 0.26819(12)
C4 C 0.1924(5) 0.59323(18) 0.32885(11)
H5 H 0.0278 0.5901 0.3319
C5 C 0.2630(5) 0.69591(18) 0.35649(10)
H6 H 0.4270 0.7010 0.3526
C6 C 0.1624(5) 0.7942(2) 0.32880(11)
C7 C 0.2621(5) 0.89033(18) 0.35828(11)
H7 H 0.4259 0.8841 0.3543
C8 C 0.2188(5) 0.88954(18) 0.41964(11)
H8 H 0.0557 0.8929 0.4257
C9 C 0.3074(6) 0.78994(19) 0.44467(11)
H9 H 0.2664 0.7882 0.4826
H10 H 0.4707 0.7895 0.4424
C10 C 0.2154(6) 0.69351(19) 0.41698(11)
H11 H 0.0540 0.6892 0.4229
H12 H 0.2843 0.6323 0.4327
C11 C 0.2005(6) 0.99528(18) 0.33191(12)
H13 H 0.2497 0.9946 0.2946
H14 H 0.0379 1.0031 0.3321
C12 C 0.3059(6) 1.0880(2) 0.36028(12)
H15 H 0.4684 1.0857 0.3560
H16 H 0.2516 1.1515 0.3439
C13 C 0.2469(5) 1.08757(19) 0.41997(12)
C14 C 0.3268(5) 0.98514(18) 0.44473(11)
H17 H 0.4879 0.9803 0.4363
C15 C 0.3128(7) 1.0047(2) 0.50555(12)
H18 H 0.1591 0.9981 0.5185
H19 H 0.4085 0.9570 0.5253
C16 C 0.3971(7) 1.1162(2) 0.51109(13)
H20 H 0.3087 1.1536 0.5376
H21 H 0.5540 1.1172 0.5221
C17 C 0.3698(6) 1.1645(2) 0.45571(13)
C18 C -0.0068(6) 1.1093(2) 0.42883(15)
H22 H -0.0378 1.1126 0.4668
H23 H -0.0941 1.0547 0.4129
H24 H -0.0460 1.1742 0.4123
C19 C -0.0951(5) 0.7963(2) 0.33121(14)
H25 H -0.1501 0.8546 0.3110
H26 H -0.1429 0.8022 0.3681
H27 H -0.1541 0.7334 0.3160
C20 C 0.1588(7) 0.4064(2) 0.34349(14)
H28 H 0.2014 0.3848 0.3078
H29 H -0.0010 0.4180 0.3447
H30 H 0.1985 0.3533 0.3689
C21 C 0.5204(6) 0.4896(3) 0.35695(15)
H31 H 0.5722 0.4821 0.3204
H32 H 0.5604 0.4290 0.3773
H33 H 0.5895 0.5495 0.3729
N1 N 0.2765(5) 0.50210(16) 0.35722(10)
O1 O 0.3316(5) 0.52634(16) 0.24476(9)
O2 O 0.4364(5) 1.24906(15) 0.44251(10)
loop_
_geom_bond_atom_site_label_1
_geom_bond_atom_site_label_2
_geom_bond_site_symmetry_1
_geom_bond_site_symmetry_2
C1 H1 1_555 1_555
H2 C1 1_555 1_555
C2 C1 1_555 1_555
H3 C2 1_555 1_555
H4 C2 1_555 1_555
C3 C2 1_555 1_555
C4 C3 1_555 1_555
H5 C4 1_555 1_555
C5 C4 1_555 1_555
H6 C5 1_555 1_555
C6 C1 1_555 1_555
C7 C6 1_555 1_555
H7 C7 1_555 1_555
C8 C7 1_555 1_555
H8 C8 1_555 1_555
C9 C8 1_555 1_555
H9 C9 1_555 1_555
H10 C9 1_555 1_555
C10 C5 1_555 1_555
H11 C10 1_555 1_555
H12 C10 1_555 1_555
C11 C7 1_555 1_555
H13 C11 1_555 1_555
H14 C11 1_555 1_555
C12 C11 1_555 1_555
H15 C12 1_555 1_555
H16 C12 1_555 1_555
C13 C12 1_555 1_555
C14 C8 1_555 1_555
H17 C14 1_555 1_555
C15 C14 1_555 1_555
H18 C15 1_555 1_555
H19 C15 1_555 1_555
C16 C15 1_555 1_555
H20 C16 1_555 1_555
H21 C16 1_555 1_555
C17 C13 1_555 1_555
C18 C13 1_555 1_555
H22 C18 1_555 1_555
H23 C18 1_555 1_555
H24 C18 1_555 1_555
C19 C6 1_555 1_555
H25 C19 1_555 1_555
H26 C19 1_555 1_555
H27 C19 1_555 1_555
C20 H28 1_555 1_555
H29 C20 1_555 1_555
H30 C20 1_555 1_555
C21 H31 1_555 1_555
H32 C21 1_555 1_555
H33 C21 1_555 1_555
N1 C4 1_555 1_555
O1 C3 1_555 1_555
O2 C17 1_555 1_555
C5 C6 1_555 1_555
C9 C10 1_555 1_555
C13 C14 1_555 1_555
C16 C17 1_555 1_555
C20 N1 1_555 1_555
C21 N1 1_555 1_555

#END
