
#######################################################################
#
#                 Cambridge Crystallographic Data Centre
#                                CCDC 
#
#######################################################################
#
# If this CIF has been generated from an entry in the Cambridge 
# Structural Database, then it will include bibliographic, chemical, 
# crystal, experimental, refinement or atomic coordinate data resulting 
# from the CCDC's data processing and validation procedures.
#
#######################################################################

data_YOPZAF
_chemical_formula_moiety         'C22 H30 N2 O2'
_chemical_name_systematic        
2\a-(1H-Pyrazol-1-yl)-5\a-androstane-3,17-dione
_symmetry_cell_setting           orthorhombic
_symmetry_space_group_name_H-M   'P 21 21 21'
_symmetry_Int_Tables_number      19
_space_group_name_Hall           'P 2ac 2ab'
loop_
_symmetry_equiv_pos_site_id
_symmetry_equiv_pos_as_xyz
1 x,y,z
2 1/2-x,-y,1/2+z
3 -x,1/2+y,1/2-z
4 1/2+x,1/2-y,-z
_cell_length_a                   8.1193(9)
_cell_length_b                   11.3485(12)
_cell_length_c                   21.282(2)
_cell_angle_alpha                90
_cell_angle_beta                 90
_cell_angle_gamma                90
_cell_volume                     1960.96
_exptl_crystal_colour            colorless
_exptl_crystal_description       block
_cell_formula_units_Z            4
loop_
_atom_site_label
_atom_site_type_symbol
_atom_site_fract_x
_atom_site_fract_y
_atom_site_fract_z
C1 C 0.7969(3) 0.8636(2) 0.14739(13)
H1 H 0.6996 0.8402 0.1240
H2 H 0.7893 0.8290 0.1890
C2 C 0.7991(3) 0.9985(2) 0.15361(12)
H3 H 0.7963 1.0302 0.1108
C3 C 0.9579(4) 1.0421(2) 0.18327(13)
C4 C 1.1115(3) 0.9908(2) 0.15616(15)
H4 H 1.2046 1.0130 0.1822
H5 H 1.1293 1.0232 0.1145
C5 C 1.1028(3) 0.8559(2) 0.15177(13)
H6 H 1.0885 0.8267 0.1948
C6 C 1.2639(3) 0.8049(2) 0.12790(14)
H7 H 1.2828 0.8310 0.0851
H8 H 1.3541 0.8333 0.1537
C7 C 1.2597(3) 0.6716(2) 0.12983(13)
H9 H 1.2540 0.6458 0.1732
H10 H 1.3607 0.6409 0.1118
C8 C 1.1130(3) 0.6220(2) 0.09384(12)
H11 H 1.1269 0.6408 0.0492
C9 C 0.9480(3) 0.6762(2) 0.11671(11)
H12 H 0.9370 0.6548 0.1611
C10 C 0.9503(3) 0.8145(2) 0.11411(11)
C11 C 0.7998(3) 0.6211(2) 0.08261(15)
H13 H 0.6993 0.6505 0.1016
H14 H 0.8009 0.6466 0.0391
C12 C 0.7967(3) 0.4857(2) 0.08432(15)
H15 H 0.7765 0.4591 0.1269
H16 H 0.7082 0.4568 0.0579
C13 C 0.9598(3) 0.4367(2) 0.06129(13)
C14 C 1.1006(3) 0.4890(2) 0.10077(13)
H17 H 1.0717 0.4742 0.1448
C15 C 1.2486(4) 0.4101(2) 0.08645(17)
H18 H 1.3316 0.4159 0.1191
H19 H 1.2978 0.4298 0.0463
C16 C 1.1706(5) 0.2874(3) 0.0851(2)
H20 H 1.2214 0.2394 0.0527
H21 H 1.1848 0.2484 0.1252
C17 C 0.9897(4) 0.3052(2) 0.07116(15)
C18 C 0.9837(4) 0.4559(3) -0.00988(13)
H22 H 1.0841 0.4188 -0.0232
H23 H 0.9893 0.5389 -0.0186
H24 H 0.8925 0.4221 -0.0322
C19 C 0.9544(4) 0.8572(2) 0.04563(12)
H25 H 0.8501 0.8416 0.0261
H26 H 1.0397 0.8163 0.0233
H27 H 0.9761 0.9403 0.0447
C20 C 0.5929(4) 1.1532(3) 0.17961(16)
H28 H 0.6250 1.2096 0.1504
C21 C 0.4748(4) 1.1659(3) 0.22399(17)
H29 H 0.4086 1.2313 0.2315
C22 C 0.4750(4) 1.0604(4) 0.25533(17)
H30 H 0.4048 1.0436 0.2887
N1 N 0.6553(3) 1.04398(19) 0.18553(11)
N2 N 0.5853(3) 0.9846(2) 0.23341(12)
O1 O 0.9592(3) 1.1146(2) 0.22466(10)
O2 O 0.8871(3) 0.22859(17) 0.06712(12)
loop_
_geom_bond_atom_site_label_1
_geom_bond_atom_site_label_2
_geom_bond_site_symmetry_1
_geom_bond_site_symmetry_2
C1 H1 1_555 1_555
H2 C1 1_555 1_555
C2 C1 1_555 1_555
H3 C2 1_555 1_555
C3 C2 1_555 1_555
C4 C3 1_555 1_555
H4 C4 1_555 1_555
H5 C4 1_555 1_555
C5 C4 1_555 1_555
H6 C5 1_555 1_555
C6 C5 1_555 1_555
H7 C6 1_555 1_555
H8 C6 1_555 1_555
C7 C6 1_555 1_555
H9 C7 1_555 1_555
H10 C7 1_555 1_555
C8 C7 1_555 1_555
H11 C8 1_555 1_555
C9 C8 1_555 1_555
H12 C9 1_555 1_555
C10 C1 1_555 1_555
C11 C9 1_555 1_555
H13 C11 1_555 1_555
H14 C11 1_555 1_555
C12 C11 1_555 1_555
H15 C12 1_555 1_555
H16 C12 1_555 1_555
C13 C12 1_555 1_555
C14 C8 1_555 1_555
H17 C14 1_555 1_555
C15 C14 1_555 1_555
H18 C15 1_555 1_555
H19 C15 1_555 1_555
C16 C15 1_555 1_555
H20 C16 1_555 1_555
H21 C16 1_555 1_555
C17 C13 1_555 1_555
C18 C13 1_555 1_555
H22 C18 1_555 1_555
H23 C18 1_555 1_555
H24 C18 1_555 1_555
C19 C10 1_555 1_555
H25 C19 1_555 1_555
H26 C19 1_555 1_555
H27 C19 1_555 1_555
C20 H28 1_555 1_555
C21 C20 1_555 1_555
H29 C21 1_555 1_555
C22 C21 1_555 1_555
H30 C22 1_555 1_555
N1 C2 1_555 1_555
N2 C22 1_555 1_555
O1 C3 1_555 1_555
O2 C17 1_555 1_555
C5 C10 1_555 1_555
C9 C10 1_555 1_555
C13 C14 1_555 1_555
C16 C17 1_555 1_555
C20 N1 1_555 1_555
N1 N2 1_555 1_555

#END
