
#######################################################################
#
#                 Cambridge Crystallographic Data Centre
#                                CCDC 
#
#######################################################################
#
# If this CIF has been generated from an entry in the Cambridge 
# Structural Database, then it will include bibliographic, chemical, 
# crystal, experimental, refinement or atomic coordinate data resulting 
# from the CCDC's data processing and validation procedures.
#
#######################################################################

data_YOQFUH
_chemical_formula_moiety         'C40 H26 O2'
_chemical_name_systematic        
(S)-3,3'-Diphenyl-2,2'-biphenanthrene-1,1'-diol
_symmetry_cell_setting           monoclinic
_symmetry_space_group_name_H-M   'P 21'
_symmetry_Int_Tables_number      4
_space_group_name_Hall           'P 2yb'
loop_
_symmetry_equiv_pos_site_id
_symmetry_equiv_pos_as_xyz
1 x,y,z
2 -x,1/2+y,-z
_cell_length_a                   12.6245(9)
_cell_length_b                   8.1476(6)
_cell_length_c                   14.5440(11)
_cell_angle_alpha                90
_cell_angle_beta                 114.0900(10)
_cell_angle_gamma                90
_cell_volume                     1365.69
_cell_formula_units_Z            2
loop_
_atom_site_label
_atom_site_type_symbol
_atom_site_fract_x
_atom_site_fract_y
_atom_site_fract_z
O1 O -0.13919(12) 0.23687(19) 0.41425(9)
H1 H -0.0735 0.2717 0.4531
O2 O 0.07992(12) 0.03361(17) 0.42876(10)
H2 H 0.0150 0.0272 0.3797
C1 C -0.05927(16) 0.2853(2) 0.29256(13)
C2 C -0.15062(17) 0.2473(2) 0.31688(13)
C3 C -0.26442(16) 0.2186(2) 0.24331(14)
C4 C -0.35622(17) 0.1727(3) 0.27137(16)
H3 H -0.3413 0.1622 0.3406
C5 C -0.46381(18) 0.1441(3) 0.20075(16)
H4 H -0.5235 0.1134 0.2213
C6 C -0.49044(17) 0.1589(3) 0.09531(15)
C7 C -0.60351(18) 0.1297(3) 0.02295(17)
H5 H -0.6628 0.1008 0.0443
C8 C -0.62922(19) 0.1421(3) -0.07716(17)
H6 H -0.7060 0.1222 -0.1253
C9 C -0.54222(19) 0.1843(3) -0.10882(17)
H7 H -0.5600 0.1930 -0.1787
C10 C -0.43199(18) 0.2131(3) -0.04009(15)
H8 H -0.3739 0.2418 -0.0629
C11 C -0.40225(17) 0.2013(3) 0.06435(15)
C12 C -0.28546(16) 0.2322(2) 0.14020(14)
C13 C -0.19161(16) 0.2755(2) 0.11622(14)
H9 H -0.2052 0.2876 0.0473
C14 C -0.08118(16) 0.3011(2) 0.18827(13)
C15 C 0.05868(16) 0.3158(2) 0.37393(13)
C16 C 0.12348(16) 0.1892(2) 0.43378(14)
C17 C 0.24059(16) 0.2098(2) 0.50260(14)
C18 C 0.30490(17) 0.0775(3) 0.56499(14)
H10 H 0.2676 -0.0246 0.5629
C19 C 0.41757(18) 0.0958(3) 0.62668(15)
H11 H 0.4581 0.0073 0.6690
C20 C 0.47769(17) 0.2465(3) 0.62979(15)
C21 C 0.59774(18) 0.2629(3) 0.69163(17)
H12 H 0.6387 0.1747 0.7340
C22 C 0.65468(19) 0.4047(3) 0.69063(18)
H13 H 0.7349 0.4145 0.7329
C23 C 0.59702(18) 0.5350(3) 0.62873(16)
H14 H 0.6381 0.6321 0.6275
C24 C 0.48022(18) 0.5224(3) 0.56926(15)
H15 H 0.4411 0.6124 0.5278
C25 C 0.41738(16) 0.3795(3) 0.56836(14)
C26 C 0.29409(16) 0.3624(3) 0.50575(13)
C27 C 0.22608(16) 0.4941(3) 0.44855(14)
H16 H 0.2606 0.5991 0.4533
C28 C 0.11060(16) 0.4731(2) 0.38603(14)
C29 C 0.01155(16) 0.3411(2) 0.15392(14)
C30 C -0.00978(18) 0.4604(3) 0.07831(15)
H17 H -0.0826 0.5151 0.0509
C31 C 0.0743(2) 0.4987(3) 0.04356(16)
H18 H 0.0584 0.5792 -0.0076
C32 C 0.1807(2) 0.4216(3) 0.08231(17)
H19 H 0.2380 0.4480 0.0580
C33 C 0.20277(19) 0.3049(3) 0.15737(16)
H20 H 0.2759 0.2513 0.1850
C34 C 0.11917(17) 0.2660(3) 0.19229(15)
H21 H 0.1360 0.1859 0.2438
C35 C 0.03876(16) 0.6153(2) 0.33124(13)
C36 C -0.06193(17) 0.6570(3) 0.34388(15)
H22 H -0.0832 0.5969 0.3897
C37 C -0.13049(18) 0.7853(3) 0.28981(16)
H23 H -0.1978 0.8147 0.2999
C38 C -0.1023(2) 0.8713(3) 0.22126(17)
H24 H -0.1514 0.9568 0.1825
C39 C -0.0026(2) 0.8326(3) 0.20925(16)
H25 H 0.0173 0.8922 0.1624
C40 C 0.06893(18) 0.7071(3) 0.26504(15)
H26 H 0.1390 0.6837 0.2580
loop_
_geom_bond_atom_site_label_1
_geom_bond_atom_site_label_2
_geom_bond_site_symmetry_1
_geom_bond_site_symmetry_2
O1 H1 1_555 1_555
O2 H2 1_555 1_555
C1 C2 1_555 1_555
C2 O1 1_555 1_555
C3 C2 1_555 1_555
C4 C3 1_555 1_555
H3 C4 1_555 1_555
C5 C4 1_555 1_555
H4 C5 1_555 1_555
C6 C5 1_555 1_555
C7 C6 1_555 1_555
H5 C7 1_555 1_555
C8 C7 1_555 1_555
H6 C8 1_555 1_555
C9 C8 1_555 1_555
H7 C9 1_555 1_555
C10 C9 1_555 1_555
H8 C10 1_555 1_555
C11 C6 1_555 1_555
C12 C3 1_555 1_555
C13 C12 1_555 1_555
H9 C13 1_555 1_555
C14 C1 1_555 1_555
C15 C1 1_555 1_555
C16 O2 1_555 1_555
C17 C16 1_555 1_555
C18 C17 1_555 1_555
H10 C18 1_555 1_555
C19 C18 1_555 1_555
H11 C19 1_555 1_555
C20 C19 1_555 1_555
C21 C20 1_555 1_555
H12 C21 1_555 1_555
C22 C21 1_555 1_555
H13 C22 1_555 1_555
C23 C22 1_555 1_555
H14 C23 1_555 1_555
C24 C23 1_555 1_555
H15 C24 1_555 1_555
C25 C20 1_555 1_555
C26 C17 1_555 1_555
C27 C26 1_555 1_555
H16 C27 1_555 1_555
C28 C15 1_555 1_555
C29 C14 1_555 1_555
C30 C29 1_555 1_555
H17 C30 1_555 1_555
C31 C30 1_555 1_555
H18 C31 1_555 1_555
C32 C31 1_555 1_555
H19 C32 1_555 1_555
C33 C32 1_555 1_555
H20 C33 1_555 1_555
C34 C29 1_555 1_555
H21 C34 1_555 1_555
C35 C28 1_555 1_555
C36 C35 1_555 1_555
H22 C36 1_555 1_555
C37 C36 1_555 1_555
H23 C37 1_555 1_555
C38 C37 1_555 1_555
H24 C38 1_555 1_555
C39 C38 1_555 1_555
H25 C39 1_555 1_555
C40 C35 1_555 1_555
H26 C40 1_555 1_555
C10 C11 1_555 1_555
C11 C12 1_555 1_555
C13 C14 1_555 1_555
C15 C16 1_555 1_555
C24 C25 1_555 1_555
C25 C26 1_555 1_555
C27 C28 1_555 1_555
C33 C34 1_555 1_555
C39 C40 1_555 1_555

#END
