
#######################################################################
#
#                 Cambridge Crystallographic Data Centre
#                                CCDC 
#
#######################################################################
#
# If this CIF has been generated from an entry in the Cambridge 
# Structural Database, then it will include bibliographic, chemical, 
# crystal, experimental, refinement or atomic coordinate data resulting 
# from the CCDC's data processing and validation procedures.
#
#######################################################################

data_YOQTEE
_chemical_compound_source        'stems of Khaya senegalensis'
_chemical_name_common            
'Methyl 8-acetoxy-16-(3-furyl)-3,9-dihydroxy-2,7,7,17-tetramethyl-14-oxo-4,15-dioxapentacyclo(9.8.0.0$2,6!.0$3,9!.0$12,17!)nonadeca-1(11),12-diene-5-carboxylate ethanol solvate'
_chemical_formula_moiety         'C29 H34 O10,C2 H6 O1'
_chemical_name_systematic        'Khayalenoid A ethanol solvate'
_symmetry_cell_setting           triclinic
_symmetry_space_group_name_H-M   'P 1'
_symmetry_Int_Tables_number      1
_space_group_name_Hall           'P 1'
loop_
_symmetry_equiv_pos_site_id
_symmetry_equiv_pos_as_xyz
1 x,y,z
_cell_length_a                   9.9310(14)
_cell_length_b                   12.2462(17)
_cell_length_c                   13.5601(19)
_cell_angle_alpha                90.624(3)
_cell_angle_beta                 93.974(2)
_cell_angle_gamma                109.749(2)
_cell_volume                     1547.37
_exptl_crystal_colour            colorless
_exptl_crystal_description       prismatic
_cell_formula_units_Z            2
_exptl_crystal_recrystallization_method ethanol
loop_
_atom_site_label
_atom_site_type_symbol
_atom_site_fract_x
_atom_site_fract_y
_atom_site_fract_z
O1 O 1.0012(3) 0.6818(3) 0.0479(3)
O2 O 0.8483(3) 0.6180(3) 0.1684(3)
H1 H 0.9021 0.5869 0.1948
O3 O 0.7119(3) 0.6835(3) 0.0147(3)
H2 H 0.7485 0.6688 -0.0338
O4 O 0.4555(5) 0.9196(5) 0.4086(4)
O5 O 0.6714(4) 1.0196(4) 0.4706(3)
O6 O 0.9800(8) 1.1842(7) 0.7014(5)
O7 O 0.7969(4) 0.9322(3) -0.0091(3)
O8 O 0.8005(7) 0.9254(4) -0.1734(4)
O9 O 1.3812(4) 0.8168(5) 0.0697(5)
O10 O 1.2369(4) 0.6321(5) 0.0530(4)
C1 C 0.9275(5) 0.7160(4) 0.1236(4)
C2 C 0.8177(4) 0.7685(4) 0.0769(4)
C3 C 0.8931(5) 0.8660(4) 0.0083(4)
H7 H 0.8975 0.8288 -0.0552
C4 C 1.0483(6) 0.9499(4) 0.0401(4)
C5 C 1.1247(5) 0.8784(5) 0.0989(4)
H8 H 1.2216 0.9277 0.1235
C6 C 1.1310(5) 0.7763(5) 0.0350(5)
H9 H 1.1285 0.7979 -0.0343
C7 C 1.2648(6) 0.7434(7) 0.0567(6)
C8 C 0.8426(5) 0.8680(4) 0.2455(4)
C9 C 0.9830(5) 0.8769(5) 0.2550(4)
C10 C 1.0424(5) 0.8099(4) 0.1843(4)
C11 C 1.0875(6) 0.9552(6) 0.3321(5)
H10 H 1.1748 0.9976 0.3017
H11 H 1.1118 0.9080 0.3825
C12 C 1.0319(6) 1.0409(5) 0.3807(5)
H12 H 1.0319 1.1015 0.3353
H13 H 1.0943 1.0767 0.4389
C13 C 0.8791(6) 0.9794(5) 0.4104(4)
C14 C 0.7856(5) 0.9214(4) 0.3218(4)
C15 C 0.6434(6) 0.9108(5) 0.3174(5)
H14 H 0.5848 0.8782 0.2606
C16 C 0.5830(7) 0.9488(6) 0.3985(5)
C17 C 0.8240(6) 1.0730(5) 0.4511(4)
H15 H 0.8305 1.1301 0.4000
C18 C 0.8767(7) 0.8898(5) 0.4898(5)
H16 H 0.7823 0.8594 0.5127
H17 H 0.9445 0.9266 0.5443
H18 H 0.9018 0.8276 0.4618
C19 C 1.1357(5) 0.7547(6) 0.2494(5)
H19 H 1.0843 0.7190 0.3046
H20 H 1.2237 0.8140 0.2730
H21 H 1.1566 0.6972 0.2107
C20 C 0.9004(7) 1.1364(5) 0.5438(5)
C21 C 0.8871(9) 1.1055(7) 0.6380(6)
H22 H 0.8206 1.0368 0.6572
C22 C 1.0128(8) 1.2441(7) 0.5474(6)
H23 H 1.0493 1.2883 0.4939
C23 C 1.0566(10) 1.2702(9) 0.6427(9)
H24 H 1.1293 1.3377 0.6662
C24 C 1.0498(7) 1.0587(5) 0.0982(5)
H25 H 1.1450 1.0989 0.1274
H26 H 0.9846 1.0363 0.1494
H27 H 1.0207 1.1089 0.0542
C25 C 1.1247(8) 0.9954(6) -0.0523(6)
H28 H 1.2226 1.0418 -0.0337
H29 H 1.0774 1.0419 -0.0870
H30 H 1.1221 0.9311 -0.0945
C26 C 0.7439(5) 0.8016(5) 0.1601(4)
H31 H 0.6886 0.8481 0.1337
H32 H 0.6769 0.7314 0.1844
C27 C 1.3608(9) 0.5932(10) 0.0733(12)
H33 H 1.4342 0.6311 0.0303
H34 H 1.3312 0.5106 0.0617
H35 H 1.3977 0.6123 0.1409
C28 C 0.7594(7) 0.9539(5) -0.1004(6)
C29 C 0.6573(9) 1.0205(6) -0.0964(8)
H36 H 0.6184 1.0264 -0.1622
H37 H 0.7076 1.0969 -0.0681
H38 H 0.5808 0.9806 -0.0565
O11 O 0.9344(3) 0.6694(3) 0.8080(3)
O12 O 0.8430(4) 0.7525(3) 0.6827(3)
H3 H 0.8189 0.7925 0.7220
O13 O 0.6353(3) 0.6630(3) 0.8145(3)
H4 H 0.6649 0.6600 0.8720
O14 O 0.1777(5) 0.4711(7) 0.3849(5)
O15 O 0.3068(4) 0.3732(5) 0.3304(4)
O16 O 0.4668(7) 0.2077(6) 0.1150(5)
O17 O 0.5278(3) 0.4082(3) 0.8220(3)
O18 O 0.5368(4) 0.4446(4) 0.9845(3)
O19 O 1.2190(4) 0.7197(4) 0.8137(4)
O20 O 1.2010(5) 0.5357(5) 0.7868(5)
C34 C 0.8308(5) 0.6487(4) 0.7226(4)
C35 C 0.6770(5) 0.5873(4) 0.7540(4)
C36 C 0.6751(5) 0.4802(4) 0.8141(4)
H49 H 0.7160 0.5089 0.8811
C37 C 0.7587(6) 0.4033(5) 0.7771(4)
C38 C 0.8958(5) 0.4843(5) 0.7342(4)
H50 H 0.9515 0.4391 0.7088
C39 C 0.9874(5) 0.5748(4) 0.8137(4)
H51 H 0.9681 0.5407 0.8785
C40 C 1.1473(6) 0.6081(6) 0.8028(5)
C41 C 0.6181(5) 0.5134(5) 0.5748(4)
C42 C 0.7524(5) 0.5072(5) 0.5733(4)
C43 C 0.8695(5) 0.5659(5) 0.6544(4)
C44 C 0.7931(6) 0.4444(7) 0.4916(5)
H52 H 0.8537 0.4030 0.5195
H53 H 0.8485 0.5006 0.4471
C45 C 0.6648(6) 0.3592(6) 0.4334(5)
H54 H 0.6203 0.2939 0.4739
H55 H 0.6961 0.3300 0.3757
C46 C 0.5542(6) 0.4166(6) 0.4004(4)
C47 C 0.5132(5) 0.4679(6) 0.4900(4)
C48 C 0.3809(6) 0.4747(7) 0.4864(5)
H56 H 0.3520 0.5024 0.5423
C49 C 0.2826(7) 0.4413(8) 0.4005(6)
C50 C 0.4190(6) 0.3229(6) 0.3567(5)
H57 H 0.3842 0.2665 0.4079
C51 C 0.6144(7) 0.5124(7) 0.3276(5)
H58 H 0.5435 0.5472 0.3091
H59 H 0.6389 0.4796 0.2698
H60 H 0.6986 0.5704 0.3584
C52 C 1.0058(5) 0.6330(6) 0.6054(5)
H61 H 0.9812 0.6695 0.5479
H62 H 1.0532 0.5804 0.5861
H63 H 1.0688 0.6912 0.6513
C53 C 0.4350(6) 0.2585(6) 0.2675(5)
C54 C 0.4432(9) 0.2894(8) 0.1730(6)
H64 H 0.4340 0.3580 0.1501
C55 C 0.4548(8) 0.1483(8) 0.2649(8)
H65 H 0.4561 0.1025 0.3190
C56 C 0.4706(8) 0.1234(7) 0.1752(8)
H66 H 0.4832 0.0550 0.1547
C57 C 0.6694(6) 0.3046(5) 0.7031(5)
H67 H 0.6014 0.2453 0.7376
H68 H 0.7320 0.2721 0.6721
H69 H 0.6191 0.3349 0.6536
C58 C 0.7979(8) 0.3417(6) 0.8678(5)
H70 H 0.8529 0.3987 0.9175
H71 H 0.8535 0.2956 0.8481
H72 H 0.7116 0.2925 0.8940
C59 C 0.5744(5) 0.5639(6) 0.6613(4)
H73 H 0.4815 0.5117 0.6776
H74 H 0.5624 0.6365 0.6426
C60 C 1.3736(6) 0.7521(10) 0.8019(10)
H75 H 1.4197 0.7301 0.8591
H76 H 1.4140 0.8345 0.7951
H77 H 1.3879 0.7128 0.7440
C61 C 0.4740(6) 0.4007(5) 0.9084(4)
C62 C 0.3185(7) 0.3244(7) 0.9002(6)
H78 H 0.3044 0.2634 0.9464
H79 H 0.2921 0.2912 0.8342
H80 H 0.2599 0.3699 0.9147
O21 O 0.3530(16) 0.0684(14) 0.5288(12)
H5 H 0.2898 0.0300 0.4877
C30 C 0.343(2) 0.0087(18) 0.6172(14)
H39 H 0.4382 0.0211 0.6478
H40 H 0.2963 -0.0739 0.6030
C31 C 0.263(2) 0.048(2) 0.6832(17)
H41 H 0.2447 0.1142 0.6572
H42 H 0.3170 0.0683 0.7462
H43 H 0.1738 -0.0132 0.6909
O22 O 0.9642(6) 0.4597(5) 0.2408(5)
H6 H 1.0245 0.4631 0.2863
C32 C 0.9744(16) 0.3792(13) 0.1604(11)
H44 H 0.9781 0.4148 0.0967
H45 H 1.0591 0.3572 0.1728
C33 C 0.854(2) 0.287(2) 0.1634(17)
H46 H 0.8529 0.2529 0.2271
H47 H 0.8520 0.2303 0.1130
H48 H 0.7720 0.3106 0.1523
loop_
_geom_bond_atom_site_label_1
_geom_bond_atom_site_label_2
_geom_bond_site_symmetry_1
_geom_bond_site_symmetry_2
O1 C1 1_555 1_555
O2 H1 1_555 1_555
O3 H2 1_555 1_555
O4 C16 1_555 1_555
O5 C16 1_555 1_555
O6 C21 1_555 1_555
O7 C3 1_555 1_555
O8 C28 1_555 1_555
O9 C7 1_555 1_555
O10 C7 1_555 1_555
O11 C34 1_555 1_555
O12 H3 1_555 1_555
O13 H4 1_555 1_555
O14 C49 1_555 1_555
O15 C49 1_555 1_555
O16 C54 1_555 1_555
O17 C36 1_555 1_555
O18 C61 1_555 1_555
O19 C40 1_555 1_555
O20 C40 1_555 1_555
O21 H5 1_555 1_555
O22 H6 1_555 1_555
C1 O2 1_555 1_555
C2 O3 1_555 1_555
C3 C2 1_555 1_555
H7 C3 1_555 1_555
C4 C3 1_555 1_555
C5 C4 1_555 1_555
H8 C5 1_555 1_555
C6 O1 1_555 1_555
H9 C6 1_555 1_555
C7 C6 1_555 1_555
C8 C9 1_555 1_555
C9 C10 1_555 1_555
C10 C1 1_555 1_555
C11 C9 1_555 1_555
H10 C11 1_555 1_555
H11 C11 1_555 1_555
C12 C11 1_555 1_555
H12 C12 1_555 1_555
H13 C12 1_555 1_555
C13 C12 1_555 1_555
C14 C8 1_555 1_555
C15 C14 1_555 1_555
H14 C15 1_555 1_555
C16 C15 1_555 1_555
C17 O5 1_555 1_555
H15 C17 1_555 1_555
C18 C13 1_555 1_555
H16 C18 1_555 1_555
H17 C18 1_555 1_555
H18 C18 1_555 1_555
C19 C10 1_555 1_555
H19 C19 1_555 1_555
H20 C19 1_555 1_555
H21 C19 1_555 1_555
C20 C17 1_555 1_555
C21 C20 1_555 1_555
H22 C21 1_555 1_555
C22 C20 1_555 1_555
H23 C22 1_555 1_555
C23 O6 1_555 1_555
H24 C23 1_555 1_555
C24 C4 1_555 1_555
H25 C24 1_555 1_555
H26 C24 1_555 1_555
H27 C24 1_555 1_555
C25 C4 1_555 1_555
H28 C25 1_555 1_555
H29 C25 1_555 1_555
H30 C25 1_555 1_555
C26 C2 1_555 1_555
H31 C26 1_555 1_555
H32 C26 1_555 1_555
C27 O10 1_555 1_555
H33 C27 1_555 1_555
H34 C27 1_555 1_555
H35 C27 1_555 1_555
C28 O7 1_555 1_555
C29 C28 1_555 1_555
H36 C29 1_555 1_555
H37 C29 1_555 1_555
H38 C29 1_555 1_555
C30 O21 1_555 1_555
H39 C30 1_555 1_555
H40 C30 1_555 1_555
C31 C30 1_555 1_555
H41 C31 1_555 1_555
H42 C31 1_555 1_555
H43 C31 1_555 1_555
C32 O22 1_555 1_555
H44 C32 1_555 1_555
H45 C32 1_555 1_555
C33 C32 1_555 1_555
H46 C33 1_555 1_555
H47 C33 1_555 1_555
H48 C33 1_555 1_555
C34 O12 1_555 1_555
C35 O13 1_555 1_555
C36 C35 1_555 1_555
H49 C36 1_555 1_555
C37 C36 1_555 1_555
C38 C37 1_555 1_555
H50 C38 1_555 1_555
C39 O11 1_555 1_555
H51 C39 1_555 1_555
C40 C39 1_555 1_555
C41 C42 1_555 1_555
C42 C43 1_555 1_555
C43 C34 1_555 1_555
C44 C42 1_555 1_555
H52 C44 1_555 1_555
H53 C44 1_555 1_555
C45 C44 1_555 1_555
H54 C45 1_555 1_555
H55 C45 1_555 1_555
C46 C45 1_555 1_555
C47 C41 1_555 1_555
C48 C47 1_555 1_555
H56 C48 1_555 1_555
C49 C48 1_555 1_555
C50 O15 1_555 1_555
H57 C50 1_555 1_555
C51 C46 1_555 1_555
H58 C51 1_555 1_555
H59 C51 1_555 1_555
H60 C51 1_555 1_555
C52 C43 1_555 1_555
H61 C52 1_555 1_555
H62 C52 1_555 1_555
H63 C52 1_555 1_555
C53 C50 1_555 1_555
C54 C53 1_555 1_555
H64 C54 1_555 1_555
C55 C53 1_555 1_555
H65 C55 1_555 1_555
C56 O16 1_555 1_555
H66 C56 1_555 1_555
C57 C37 1_555 1_555
H67 C57 1_555 1_555
H68 C57 1_555 1_555
H69 C57 1_555 1_555
C58 C37 1_555 1_555
H70 C58 1_555 1_555
H71 C58 1_555 1_555
H72 C58 1_555 1_555
C59 C35 1_555 1_555
H73 C59 1_555 1_555
H74 C59 1_555 1_555
C60 O19 1_555 1_555
H75 C60 1_555 1_555
H76 C60 1_555 1_555
H77 C60 1_555 1_555
C61 O17 1_555 1_555
C62 C61 1_555 1_555
H78 C62 1_555 1_555
H79 C62 1_555 1_555
H80 C62 1_555 1_555
C1 C2 1_555 1_555
C5 C6 1_555 1_555
C5 C10 1_555 1_555
C8 C26 1_555 1_555
C13 C14 1_555 1_555
C13 C17 1_555 1_555
C22 C23 1_555 1_555
C34 C35 1_555 1_555
C38 C39 1_555 1_555
C38 C43 1_555 1_555
C41 C59 1_555 1_555
C46 C47 1_555 1_555
C46 C50 1_555 1_555
C55 C56 1_555 1_555

#END
