
#######################################################################
#
#                 Cambridge Crystallographic Data Centre
#                                CCDC 
#
#######################################################################
#
# If this CIF has been generated from an entry in the Cambridge 
# Structural Database, then it will include bibliographic, chemical, 
# crystal, experimental, refinement or atomic coordinate data resulting 
# from the CCDC's data processing and validation procedures.
#
#######################################################################

data_YORCAL
_chemical_formula_moiety         'C17 H13 Br1 Cl2 N2 O2 S1'
_chemical_name_systematic        
N-(1-allyl-5-bromo-3,3-dichloro-1,3-dihydro-2H-indol-2-ylidene)benzenesulfonamide
_symmetry_cell_setting           triclinic
_symmetry_space_group_name_H-M   'P -1'
_symmetry_Int_Tables_number      2
_space_group_name_Hall           '-P 1'
loop_
_symmetry_equiv_pos_site_id
_symmetry_equiv_pos_as_xyz
1 x,y,z
2 -x,-y,-z
_cell_length_a                   8.9358(18)
_cell_length_b                   9.326(2)
_cell_length_c                   12.002(3)
_cell_angle_alpha                106.670(3)
_cell_angle_beta                 101.817(4)
_cell_angle_gamma                93.100(4)
_cell_volume                     931.035
_exptl_crystal_description       block
_cell_formula_units_Z            2
loop_
_atom_site_label
_atom_site_type_symbol
_atom_site_fract_x
_atom_site_fract_y
_atom_site_fract_z
Br1 Br -0.49015(11) -0.29166(11) 0.94239(10)
C1 C -0.3267(8) -0.0867(8) 0.8623(7)
H1 H -0.4159 -0.0397 0.8578
C2 C -0.3195(9) -0.2138(8) 0.8966(7)
C3 C -0.1899(10) -0.2908(9) 0.9002(7)
H2 H -0.1898 -0.3794 0.9212
C4 C -0.0606(9) -0.2329(8) 0.8719(7)
H3 H 0.0276 -0.2816 0.8738
C5 C -0.0669(8) -0.1026(8) 0.8413(6)
C6 C -0.1985(8) -0.0297(8) 0.8345(6)
C7 C -0.1709(8) 0.1022(8) 0.7936(6)
C8 C 0.0026(8) 0.1075(8) 0.7916(6)
C9 C 0.1976(9) 0.3563(8) 0.6539(7)
C10 C 0.3528(11) 0.3481(11) 0.6888(9)
H4 H 0.3960 0.3452 0.7654
C11 C 0.1362(11) 0.3626(11) 0.5412(8)
H5 H 0.0311 0.3667 0.5172
C12 C 0.2300(14) 0.3629(12) 0.4636(9)
H6 H 0.1894 0.3724 0.3886
C13 C 0.3806(15) 0.3494(11) 0.4964(11)
H7 H 0.4423 0.3436 0.4419
C14 C 0.4432(12) 0.3442(13) 0.6071(12)
H8 H 0.5481 0.3379 0.6289
C15 C 0.2171(9) -0.1320(9) 0.6958(7)
H9 H 0.1642 -0.0812 0.6467
C16 C 0.2783(10) -0.2491(9) 0.6237(8)
H10 H 0.3356 -0.3128 0.6575
H11 H 0.2618 -0.2633 0.5420
C17 C 0.2040(9) -0.0612(9) 0.8120(7)
H12 H 0.2781 0.0286 0.8470
H13 H 0.2273 -0.1285 0.8600
Cl1 Cl -0.2123(2) 0.2711(2) 0.88689(19)
Cl2 Cl -0.2792(3) 0.0643(3) 0.64213(19)
N1 N 0.0496(7) -0.0200(7) 0.8134(5)
N2 N 0.0990(7) 0.1999(7) 0.7747(6)
O1 O 0.1485(8) 0.4756(6) 0.8633(6)
O2 O -0.0748(7) 0.3767(7) 0.6965(6)
S1 S 0.0775(2) 0.3639(2) 0.75443(19)
loop_
_geom_bond_atom_site_label_1
_geom_bond_atom_site_label_2
_geom_bond_site_symmetry_1
_geom_bond_site_symmetry_2
Br1 C2 1_555 1_555
C1 H1 1_555 1_555
C2 C1 1_555 1_555
C3 C2 1_555 1_555
H2 C3 1_555 1_555
C4 C3 1_555 1_555
H3 C4 1_555 1_555
C5 C4 1_555 1_555
C6 C1 1_555 1_555
C7 C6 1_555 1_555
C8 C7 1_555 1_555
C9 C10 1_555 1_555
C10 H4 1_555 1_555
C11 C9 1_555 1_555
H5 C11 1_555 1_555
C12 C11 1_555 1_555
H6 C12 1_555 1_555
C13 C12 1_555 1_555
H7 C13 1_555 1_555
C14 C10 1_555 1_555
H8 C14 1_555 1_555
C15 H9 1_555 1_555
C16 C15 1_555 1_555
H10 C16 1_555 1_555
H11 C16 1_555 1_555
C17 C15 1_555 1_555
H12 C17 1_555 1_555
H13 C17 1_555 1_555
Cl1 C7 1_555 1_555
Cl2 C7 1_555 1_555
N1 C5 1_555 1_555
N2 C8 1_555 1_555
O1 S1 1_555 1_555
O2 S1 1_555 1_555
S1 C9 1_555 1_555
C5 C6 1_555 1_555
C8 N1 1_555 1_555
C13 C14 1_555 1_555
C17 N1 1_555 1_555
N2 S1 1_555 1_555

#END
