
#######################################################################
#
#                 Cambridge Crystallographic Data Centre
#                                CCDC 
#
#######################################################################
#
# If this CIF has been generated from an entry in the Cambridge 
# Structural Database, then it will include bibliographic, chemical, 
# crystal, experimental, refinement or atomic coordinate data resulting 
# from the CCDC's data processing and validation procedures.
#
#######################################################################

data_YORFIW
_chemical_formula_moiety         'C17 H22 O4'
_chemical_name_systematic        
(1R,5R,6R)-1-((S)-2-furyl(hydroxy)methyl)-6-methyl-6-(4-methylpent-3-en-1-yl)-3-oxabicyclo[3.1.0]hexan-2-one
_symmetry_cell_setting           monoclinic
_symmetry_space_group_name_H-M   'P 21/c'
_symmetry_Int_Tables_number      14
_space_group_name_Hall           '-P 2ybc'
loop_
_symmetry_equiv_pos_site_id
_symmetry_equiv_pos_as_xyz
1 x,y,z
2 -x,1/2+y,1/2-z
3 -x,-y,-z
4 x,1/2-y,1/2+z
_cell_length_a                   10.1003(2)
_cell_length_b                   22.3395(4)
_cell_length_c                   13.9474(10)
_cell_angle_alpha                90
_cell_angle_beta                 90.142(6)
_cell_angle_gamma                90
_cell_volume                     3147.02
_exptl_crystal_colour            colorless
_exptl_crystal_description       plate
_cell_formula_units_Z            8
_chemical_properties_physical    Heat-sensitive
_exptl_crystal_recrystallization_method dichloromethane/hexane
loop_
_atom_site_label
_atom_site_type_symbol
_atom_site_fract_x
_atom_site_fract_y
_atom_site_fract_z
O1 O 0.7147(2) 1.12296(9) 0.15168(16)
O2 O 0.46428(19) 1.19613(9) 0.01665(16)
H1 H 0.427(3) 1.1682(12) -0.013(2)
O3 O 0.7074(2) 1.08903(8) -0.17116(14)
O4 O 0.4961(2) 1.10662(9) -0.13574(15)
C1 C 0.6018(3) 1.03970(12) 0.1732(2)
H2 H 0.5745 1.0026 0.1959
C2 C 0.5394(3) 1.07478(13) 0.1008(2)
H3 H 0.4633 1.0646 0.0669
C3 C 0.6098(2) 1.12480(11) 0.09052(17)
C4 C 0.5991(2) 1.17906(11) 0.02820(18)
H4 H 0.6450 1.2119 0.0609
C5 C 0.6665(2) 1.16948(11) -0.06771(17)
C6 C 0.7365(2) 1.21775(11) -0.12732(18)
C7 C 0.7548(3) 1.27844(11) -0.07999(19)
H5 H 0.8301 1.2983 -0.1090
H6 H 0.7752 1.2724 -0.0127
C8 C 0.6342(3) 1.31956(12) -0.0879(2)
H7 H 0.6173 1.3281 -0.1551
H8 H 0.5574 1.2989 -0.0626
C9 C 0.6519(3) 1.37741(11) -0.0351(2)
H9 H 0.7169 1.4029 -0.0587
C10 C 0.5868(3) 1.39660(12) 0.0404(2)
C11 C 0.6153(4) 1.45607(13) 0.0857(2)
H10 H 0.6853 1.4756 0.0513
H11 H 0.6417 1.4502 0.1512
H12 H 0.5371 1.4805 0.0835
C12 C 0.7052(4) 1.07012(14) 0.2012(2)
H13 H 0.7644 1.0577 0.2483
C13 C 0.6110(3) 1.11997(12) -0.12651(18)
C14 C 0.8375(3) 1.11199(13) -0.1454(2)
H14 H 0.8872 1.1222 -0.2025
H15 H 0.8868 1.0822 -0.1094
C15 C 0.8143(3) 1.16692(12) -0.08499(19)
H16 H 0.8745 1.1751 -0.0314
C16 C 0.4787(3) 1.36188(17) 0.0882(2)
H17 H 0.3952 1.3809 0.0760
H18 H 0.4947 1.3606 0.1560
H19 H 0.4770 1.3219 0.0631
C17 C 0.7130(3) 1.22161(13) -0.23440(19)
H20 H 0.7816 1.2452 -0.2633
H21 H 0.6287 1.2400 -0.2464
H22 H 0.7137 1.1821 -0.2614
O5 O 0.8245(4) 0.62589(11) 0.50687(19)
O6 O 1.02128(19) 0.69221(9) 0.36215(14)
H23 H 1.059(3) 0.6646(11) 0.334(2)
O7 O 0.8117(2) 0.58513(8) 0.15136(14)
O8 O 1.0161(2) 0.60401(9) 0.20260(15)
C18 C 1.0252(3) 0.87466(19) 0.4099(2)
H24 H 1.0347 0.8333 0.3925
H25 H 1.0160 0.8779 0.4782
H26 H 1.1022 0.8965 0.3897
C19 C 0.9059(3) 0.89989(12) 0.3624(2)
C20 C 0.8379(3) 0.87229(12) 0.2950(2)
H27 H 0.7632 0.8923 0.2728
C21 C 0.8650(3) 0.81284(12) 0.2494(2)
H28 H 0.9342 0.7927 0.2853
H29 H 0.8976 0.8194 0.1848
C22 C 0.7434(3) 0.77225(11) 0.2447(2)
H30 H 0.7116 0.7654 0.3093
H31 H 0.6739 0.7927 0.2095
C23 C 0.7694(2) 0.71237(11) 0.19750(18)
C24 C 0.8343(2) 0.66422(10) 0.26055(17)
C25 C 0.8862(3) 0.67372(11) 0.36063(18)
H32 H 0.8342 0.7062 0.3891
C26 C 0.8636(3) 0.61917(12) 0.42043(18)
C27 C 0.8068(4) 0.57127(16) 0.5489(3)
H33 H 0.7788 0.5653 0.6117
C28 C 0.9006(3) 0.61629(11) 0.20430(19)
C29 C 0.6770(3) 0.60556(13) 0.1702(2)
H34 H 0.6268 0.5747 0.2029
H35 H 0.6322 0.6155 0.1107
C30 C 0.6903(3) 0.66023(11) 0.23259(19)
H36 H 0.6233 0.6673 0.2820
C31 C 0.8639(4) 0.96083(14) 0.3974(3)
H37 H 0.7817 0.9718 0.3674
H38 H 0.9306 0.9897 0.3814
H39 H 0.8525 0.9598 0.4657
C32 C 0.8054(3) 0.71765(13) 0.09197(19)
H40 H 0.8146 0.6784 0.0649
H41 H 0.8875 0.7389 0.0858
H42 H 0.7368 0.7390 0.0586
C33 C 0.8641(10) 0.56230(19) 0.4083(4)
H43 H 0.8830 0.5431 0.3508
C34 C 0.8320(6) 0.53306(16) 0.4947(3)
H44 H 0.8310 0.4921 0.5061
loop_
_geom_bond_atom_site_label_1
_geom_bond_atom_site_label_2
_geom_bond_site_symmetry_1
_geom_bond_site_symmetry_2
O1 C3 1_555 1_555
O2 H1 1_555 1_555
O3 C13 1_555 1_555
O4 C13 1_555 1_555
C1 H2 1_555 1_555
C2 C1 1_555 1_555
H3 C2 1_555 1_555
C3 C2 1_555 1_555
C4 O2 1_555 1_555
H4 C4 1_555 1_555
C5 C4 1_555 1_555
C6 C5 1_555 1_555
C7 C6 1_555 1_555
H5 C7 1_555 1_555
H6 C7 1_555 1_555
C8 C7 1_555 1_555
H7 C8 1_555 1_555
H8 C8 1_555 1_555
C9 C8 1_555 1_555
H9 C9 1_555 1_555
C10 C9 1_555 1_555
C11 C10 1_555 1_555
H10 C11 1_555 1_555
H11 C11 1_555 1_555
H12 C11 1_555 1_555
C12 O1 1_555 1_555
H13 C12 1_555 1_555
C13 C5 1_555 1_555
C14 O3 1_555 1_555
H14 C14 1_555 1_555
H15 C14 1_555 1_555
C15 C5 1_555 1_555
H16 C15 1_555 1_555
C16 C10 1_555 1_555
H17 C16 1_555 1_555
H18 C16 1_555 1_555
H19 C16 1_555 1_555
C17 C6 1_555 1_555
H20 C17 1_555 1_555
H21 C17 1_555 1_555
H22 C17 1_555 1_555
O5 C26 1_555 1_555
O6 H23 1_555 1_555
O7 C28 1_555 1_555
O8 C28 1_555 1_555
C18 H24 1_555 1_555
H25 C18 1_555 1_555
H26 C18 1_555 1_555
C19 C18 1_555 1_555
C20 C19 1_555 1_555
H27 C20 1_555 1_555
C21 C20 1_555 1_555
H28 C21 1_555 1_555
H29 C21 1_555 1_555
C22 C21 1_555 1_555
H30 C22 1_555 1_555
H31 C22 1_555 1_555
C23 C22 1_555 1_555
C24 C23 1_555 1_555
C25 O6 1_555 1_555
H32 C25 1_555 1_555
C26 C25 1_555 1_555
C27 O5 1_555 1_555
H33 C27 1_555 1_555
C28 C24 1_555 1_555
C29 O7 1_555 1_555
H34 C29 1_555 1_555
H35 C29 1_555 1_555
C30 C23 1_555 1_555
H36 C30 1_555 1_555
C31 C19 1_555 1_555
H37 C31 1_555 1_555
H38 C31 1_555 1_555
H39 C31 1_555 1_555
C32 C23 1_555 1_555
H40 C32 1_555 1_555
H41 C32 1_555 1_555
H42 C32 1_555 1_555
C33 C26 1_555 1_555
H43 C33 1_555 1_555
C34 C27 1_555 1_555
H44 C34 1_555 1_555
C1 C12 1_555 1_555
C3 C4 1_555 1_555
C6 C15 1_555 1_555
C14 C15 1_555 1_555
C24 C25 1_555 1_555
C24 C30 1_555 1_555
C29 C30 1_555 1_555
C33 C34 1_555 1_555

#END
