
#######################################################################
#
#                 Cambridge Crystallographic Data Centre
#                                CCDC 
#
#######################################################################
#
# If this CIF has been generated from an entry in the Cambridge 
# Structural Database, then it will include bibliographic, chemical, 
# crystal, experimental, refinement or atomic coordinate data resulting 
# from the CCDC's data processing and validation procedures.
#
#######################################################################

data_YORNUQ
_chemical_formula_moiety         'C22 H25 Cl1 O3'
_chemical_name_systematic        
3-(chloro(phenyl)methylene)-5-((2-hydroxyadamantan-2-yl)methyl)dihydrofuran-2(3H)-one
_symmetry_cell_setting           triclinic
_symmetry_space_group_name_H-M   'P -1'
_symmetry_Int_Tables_number      2
_space_group_name_Hall           '-P 1'
loop_
_symmetry_equiv_pos_site_id
_symmetry_equiv_pos_as_xyz
1 x,y,z
2 -x,-y,-z
_cell_length_a                   7.0390(18)
_cell_length_b                   9.414(2)
_cell_length_c                   14.976(4)
_cell_angle_alpha                73.834(4)
_cell_angle_beta                 82.330(4)
_cell_angle_gamma                74.142(4)
_cell_volume                     915.102
_cell_formula_units_Z            2
loop_
_atom_site_label
_atom_site_type_symbol
_atom_site_fract_x
_atom_site_fract_y
_atom_site_fract_z
Cl1 Cl 0.16371(6) 0.28181(5) 1.11780(3)
O1 O 0.60260(16) 0.16104(12) 0.89306(7)
O2 O 1.15257(16) 0.03106(11) 0.82679(7)
H1 H 1.2237 0.0639 0.8531
O3 O 0.29066(17) 0.18143(14) 0.94561(8)
C1 C 0.8970(2) 0.25580(15) 0.83631(10)
H2 H 0.9884 0.3002 0.8586
H3 H 0.7987 0.3415 0.7997
C2 C 0.8892(2) 0.09091(16) 0.72657(10)
H4 H 0.8123 0.0303 0.7765
C3 C 0.4838(2) 0.32497(16) 1.17743(10)
C4 C 1.1324(2) 0.25060(16) 0.69252(10)
H5 H 1.2175 0.2943 0.7204
C5 C 0.4113(2) 0.28489(16) 1.10133(10)
C6 C 1.2639(2) 0.14644(17) 0.63392(10)
H6 H 1.3410 0.2056 0.5845
H7 H 1.3582 0.0624 0.6739
C7 C 1.0163(2) 0.15788(15) 0.77121(9)
C8 C 0.5191(2) 0.25139(15) 1.02569(10)
C9 C 0.7451(2) 0.22108(18) 0.66257(10)
H8 H 0.6615 0.1777 0.6347
H9 H 0.6574 0.2883 0.6996
C10 C 0.9903(2) 0.38093(16) 0.62855(10)
H10 H 0.9061 0.4509 0.6648
H11 H 1.0667 0.4399 0.5787
C11 C 0.7302(2) 0.25650(16) 0.99773(10)
H12 H 0.8147 0.2044 1.0510
H13 H 0.7417 0.3633 0.9745
C12 C 0.4512(2) 0.19686(17) 0.95358(10)
C13 C 0.7893(2) 0.17259(16) 0.92015(10)
H14 H 0.8738 0.0679 0.9453
C14 C 0.6225(2) 0.41162(16) 1.15951(10)
H15 H 0.6704 0.4478 1.0972
C15 C 0.9909(2) 0.21014(19) 0.52708(10)
H16 H 1.0653 0.2695 0.4764
H17 H 0.9075 0.1675 0.4985
C16 C 0.8600(2) 0.31437(18) 0.58530(10)
H18 H 0.7652 0.3992 0.5447
C17 C 1.1356(2) 0.08022(17) 0.58968(11)
H19 H 1.2220 0.0123 0.5517
C18 C 0.4147(2) 0.27541(19) 1.26957(11)
H20 H 0.3179 0.2179 1.2834
C19 C 1.0213(2) -0.01268(17) 0.66769(11)
H21 H 1.1154 -0.0969 0.7076
H22 H 0.9386 -0.0578 0.6405
C20 C 0.6236(3) 0.3946(2) 1.32243(12)
H23 H 0.6714 0.4180 1.3717
C21 C 0.4858(3) 0.3092(2) 1.34115(11)
H24 H 0.4391 0.2730 1.4037
C22 C 0.6917(3) 0.44596(19) 1.23148(12)
H25 H 0.7866 0.5052 1.2181
loop_
_geom_bond_atom_site_label_1
_geom_bond_atom_site_label_2
_geom_bond_site_symmetry_1
_geom_bond_site_symmetry_2
Cl1 C5 1_555 1_555
O1 C12 1_555 1_555
O2 H1 1_555 1_555
O3 C12 1_555 1_555
C1 H2 1_555 1_555
H3 C1 1_555 1_555
C2 H4 1_555 1_555
C3 C5 1_555 1_555
C4 H5 1_555 1_555
C5 C8 1_555 1_555
C6 C4 1_555 1_555
H6 C6 1_555 1_555
H7 C6 1_555 1_555
C7 O2 1_555 1_555
C8 C11 1_555 1_555
C9 C2 1_555 1_555
H8 C9 1_555 1_555
H9 C9 1_555 1_555
C10 C4 1_555 1_555
H10 C10 1_555 1_555
H11 C10 1_555 1_555
C11 H12 1_555 1_555
H13 C11 1_555 1_555
C12 C8 1_555 1_555
C13 O1 1_555 1_555
H14 C13 1_555 1_555
C14 C3 1_555 1_555
H15 C14 1_555 1_555
C15 H16 1_555 1_555
H17 C15 1_555 1_555
C16 C9 1_555 1_555
H18 C16 1_555 1_555
C17 C6 1_555 1_555
H19 C17 1_555 1_555
C18 C3 1_555 1_555
H20 C18 1_555 1_555
C19 C2 1_555 1_555
H21 C19 1_555 1_555
H22 C19 1_555 1_555
C20 H23 1_555 1_555
C21 C18 1_555 1_555
H24 C21 1_555 1_555
C22 C14 1_555 1_555
H25 C22 1_555 1_555
C1 C7 1_555 1_555
C1 C13 1_555 1_555
C2 C7 1_555 1_555
C4 C7 1_555 1_555
C10 C16 1_555 1_555
C11 C13 1_555 1_555
C15 C16 1_555 1_555
C15 C17 1_555 1_555
C17 C19 1_555 1_555
C20 C21 1_555 1_555
C20 C22 1_555 1_555

#END
