
#######################################################################
#
#                 Cambridge Crystallographic Data Centre
#                                CCDC 
#
#######################################################################
#
# If this CIF has been generated from an entry in the Cambridge 
# Structural Database, then it will include bibliographic, chemical, 
# crystal, experimental, refinement or atomic coordinate data resulting 
# from the CCDC's data processing and validation procedures.
#
#######################################################################

data_YORQON
_chemical_formula_moiety         'C18 H12 B1 F2 N3'
_chemical_name_systematic        
15,15-difluoro-15H-14,15-quinolino[1',2':3,4][1,3,5,2]triazaborinino[1,6-a]quinoline
_symmetry_cell_setting           monoclinic
_symmetry_space_group_name_H-M   'P 21/c'
_symmetry_Int_Tables_number      14
_space_group_name_Hall           '-P 2ybc'
loop_
_symmetry_equiv_pos_site_id
_symmetry_equiv_pos_as_xyz
1 x,y,z
2 -x,1/2+y,1/2-z
3 -x,-y,-z
4 x,1/2-y,1/2+z
_cell_length_a                   7.1560(14)
_cell_length_b                   13.963(3)
_cell_length_c                   14.249(3)
_cell_angle_alpha                90
_cell_angle_beta                 93.52(3)
_cell_angle_gamma                90
_cell_volume                     1421.06
_cell_formula_units_Z            4
loop_
_atom_site_label
_atom_site_type_symbol
_atom_site_fract_x
_atom_site_fract_y
_atom_site_fract_z
B1 B 0.7418(3) 0.88451(16) 0.19551(15)
F1 F 0.86552(18) 0.87741(8) 0.12429(8)
N1 N 0.8670(2) 0.90399(12) 0.39185(11)
C1 C 0.8374(3) 0.81632(15) 0.35613(13)
F2 F 0.55729(16) 0.88047(8) 0.15782(8)
N2 N 0.7762(2) 0.79935(11) 0.26510(10)
C2 C 0.8714(3) 0.73768(16) 0.41864(14)
H1 H 0.9159 0.7493 0.4803
N3 N 0.7727(2) 0.98129(11) 0.24785(10)
C3 C 0.8404(3) 0.64722(15) 0.39001(15)
H2 H 0.8613 0.5970 0.4322
C4 C 0.7759(3) 0.62763(14) 0.29553(14)
C5 C 0.7427(3) 0.53416(16) 0.26256(17)
H3 H 0.7625 0.4828 0.3035
C6 C 0.6819(3) 0.51716(16) 0.17129(17)
H4 H 0.6598 0.4548 0.1506
C7 C 0.6530(3) 0.59360(15) 0.10936(16)
H5 H 0.6134 0.5818 0.0471
C8 C 0.6824(3) 0.68646(15) 0.13917(14)
H6 H 0.6613 0.7368 0.0971
C9 C 0.7442(3) 0.70561(14) 0.23299(13)
C10 C 0.7354(3) 1.06734(13) 0.19889(13)
C11 C 0.6799(3) 1.06774(14) 0.10213(14)
H7 H 0.6696 1.0103 0.0692
C12 C 0.6413(3) 1.15238(16) 0.05643(15)
H8 H 0.6041 1.1515 -0.0073
C13 C 0.6566(3) 1.23963(15) 0.10333(16)
H9 H 0.6298 1.2966 0.0714
C14 C 0.7118(3) 1.24063(15) 0.19719(15)
H10 H 0.7218 1.2989 0.2288
C15 C 0.7536(3) 1.15552(14) 0.24657(13)
C16 C 0.8174(3) 1.15520(15) 0.34329(14)
H11 H 0.8320 1.2128 0.3756
C17 C 0.8564(3) 1.07246(15) 0.38810(14)
H12 H 0.9002 1.0734 0.4509
C18 C 0.8315(3) 0.98293(14) 0.34063(12)
loop_
_geom_bond_atom_site_label_1
_geom_bond_atom_site_label_2
_geom_bond_site_symmetry_1
_geom_bond_site_symmetry_2
B1 F1 1_555 1_555
N1 C1 1_555 1_555
C1 N2 1_555 1_555
F2 B1 1_555 1_555
N2 B1 1_555 1_555
C2 C1 1_555 1_555
H1 C2 1_555 1_555
N3 B1 1_555 1_555
C3 C2 1_555 1_555
H2 C3 1_555 1_555
C4 C3 1_555 1_555
C5 C4 1_555 1_555
H3 C5 1_555 1_555
C6 C5 1_555 1_555
H4 C6 1_555 1_555
C7 C6 1_555 1_555
H5 C7 1_555 1_555
C8 C7 1_555 1_555
H6 C8 1_555 1_555
C9 N2 1_555 1_555
C10 N3 1_555 1_555
C11 C10 1_555 1_555
H7 C11 1_555 1_555
C12 C11 1_555 1_555
H8 C12 1_555 1_555
C13 C12 1_555 1_555
H9 C13 1_555 1_555
C14 C13 1_555 1_555
H10 C14 1_555 1_555
C15 C10 1_555 1_555
C16 C15 1_555 1_555
H11 C16 1_555 1_555
C17 C16 1_555 1_555
H12 C17 1_555 1_555
C18 N1 1_555 1_555
N3 C18 1_555 1_555
C4 C9 1_555 1_555
C8 C9 1_555 1_555
C14 C15 1_555 1_555
C17 C18 1_555 1_555

#END
