
#######################################################################
#
#                 Cambridge Crystallographic Data Centre
#                                CCDC 
#
#######################################################################
#
# If this CIF has been generated from an entry in the Cambridge 
# Structural Database, then it will include bibliographic, chemical, 
# crystal, experimental, refinement or atomic coordinate data resulting 
# from the CCDC's data processing and validation procedures.
#
#######################################################################

data_YORWIN
_chemical_formula_moiety         'C25 H24 B1 F2 N3 S1'
_chemical_name_systematic        
4-(2-(2,6-dimethylphenyl)-1,1-difluoro-1,2-dihydro-10\l^5^,1\l^5^-[1,3,2]diazaborinino[6,1-b][1,3]benzothiazol-3-yl)-N,N-dimethylaniline
_symmetry_cell_setting           monoclinic
_symmetry_space_group_name_H-M   'P 21/c'
_symmetry_Int_Tables_number      14
_space_group_name_Hall           '-P 2ybc'
loop_
_symmetry_equiv_pos_site_id
_symmetry_equiv_pos_as_xyz
1 x,y,z
2 -x,1/2+y,1/2-z
3 -x,-y,-z
4 x,1/2-y,1/2+z
_cell_length_a                   13.0949(9)
_cell_length_b                   12.1529(6)
_cell_length_c                   14.5043(9)
_cell_angle_alpha                90
_cell_angle_beta                 104.475(7)
_cell_angle_gamma                90
_cell_volume                     2234.96
_exptl_crystal_colour            yellow
_exptl_crystal_description       block
_cell_formula_units_Z            4
loop_
_atom_site_label
_atom_site_type_symbol
_atom_site_fract_x
_atom_site_fract_y
_atom_site_fract_z
S1 S 0.18891(8) 0.27310(8) 0.35837(6)
B1 B 0.3019(3) 0.4432(3) 0.6038(3)
F1 F 0.40861(16) 0.44760(16) 0.64096(15)
F2 F 0.25486(18) 0.40816(16) 0.67595(13)
N1 N 0.2751(2) 0.3583(2) 0.52167(18)
N2 N 0.25660(19) 0.5560(2) 0.56492(16)
C1 C 0.2779(3) 0.1933(3) 0.4403(2)
C2 C 0.3100(3) 0.0864(3) 0.4297(3)
H1 H 0.2862 0.0488 0.3725
C3 C 0.3776(3) 0.0378(3) 0.5059(3)
H2 H 0.3992 -0.0343 0.5006
C4 C 0.4145(3) 0.0936(3) 0.5906(3)
H3 H 0.4601 0.0581 0.6414
C5 C 0.3851(3) 0.2012(3) 0.6013(3)
H4 H 0.4111 0.2391 0.6580
C6 C 0.3153(2) 0.2506(3) 0.5248(2)
C7 C 0.2053(3) 0.3813(3) 0.4391(2)
C8 C 0.1543(3) 0.4813(3) 0.4205(2)
H5 H 0.1012 0.4901 0.3649
C9 C 0.1808(2) 0.5689(3) 0.4833(2)
C10 C 0.1232(2) 0.6736(3) 0.45751(19)
C11 C 0.0135(3) 0.6700(3) 0.4242(2)
H6 H -0.0205 0.6024 0.4208
C12 C -0.0457(3) 0.7628(3) 0.3964(2)
H7 H -0.1187 0.7567 0.3767
C13 C 0.0008(3) 0.8658(3) 0.3970(2)
C14 C 0.1113(3) 0.8698(3) 0.4308(2)
H8 H 0.1456 0.9371 0.4329
C15 C 0.1695(3) 0.7766(3) 0.4607(2)
H9 H 0.2422 0.7828 0.4838
N3 N -0.0567(2) 0.9584(2) 0.3656(2)
C16 C -0.1698(3) 0.9591(3) 0.3518(2)
H10 H -0.2024 0.9229 0.2930
H11 H -0.1943 1.0338 0.3496
H12 H -0.1879 0.9212 0.4036
C17 C -0.0065(3) 1.0624(3) 0.3589(3)
H13 H 0.0286 1.0875 0.4216
H14 H -0.0587 1.1154 0.3291
H15 H 0.0441 1.0538 0.3216
C18 C 0.2925(2) 0.6485(3) 0.6277(2)
C19 C 0.2335(3) 0.6823(3) 0.6898(2)
C20 C 0.2720(3) 0.7693(3) 0.7514(2)
H16 H 0.2342 0.7932 0.7940
C21 C 0.3653(3) 0.8197(3) 0.7495(3)
H17 H 0.3904 0.8773 0.7913
C22 C 0.4213(3) 0.7862(3) 0.6870(3)
H18 H 0.4834 0.8226 0.6858
C23 C 0.3875(3) 0.6989(3) 0.6250(2)
C24 C 0.4491(3) 0.6660(4) 0.5541(3)
H19 H 0.4797 0.7303 0.5334
H20 H 0.4027 0.6312 0.5002
H21 H 0.5041 0.6157 0.5836
C25 C 0.1287(3) 0.6315(3) 0.6891(2)
H22 H 0.0793 0.6471 0.6295
H23 H 0.1031 0.6616 0.7402
H24 H 0.1368 0.5533 0.6971
loop_
_geom_bond_atom_site_label_1
_geom_bond_atom_site_label_2
_geom_bond_site_symmetry_1
_geom_bond_site_symmetry_2
S1 C1 1_555 1_555
B1 F1 1_555 1_555
F2 B1 1_555 1_555
N1 B1 1_555 1_555
N2 B1 1_555 1_555
C1 C2 1_555 1_555
C2 H1 1_555 1_555
C3 C2 1_555 1_555
H2 C3 1_555 1_555
C4 C3 1_555 1_555
H3 C4 1_555 1_555
C5 C4 1_555 1_555
H4 C5 1_555 1_555
C6 N1 1_555 1_555
C7 S1 1_555 1_555
C8 C7 1_555 1_555
H5 C8 1_555 1_555
C9 N2 1_555 1_555
C10 C9 1_555 1_555
C11 C10 1_555 1_555
H6 C11 1_555 1_555
C12 C11 1_555 1_555
H7 C12 1_555 1_555
C13 C12 1_555 1_555
C14 C13 1_555 1_555
H8 C14 1_555 1_555
C15 C10 1_555 1_555
H9 C15 1_555 1_555
N3 C13 1_555 1_555
C16 N3 1_555 1_555
H10 C16 1_555 1_555
H11 C16 1_555 1_555
H12 C16 1_555 1_555
C17 N3 1_555 1_555
H13 C17 1_555 1_555
H14 C17 1_555 1_555
H15 C17 1_555 1_555
C18 N2 1_555 1_555
C19 C18 1_555 1_555
C20 C19 1_555 1_555
H16 C20 1_555 1_555
C21 C20 1_555 1_555
H17 C21 1_555 1_555
C22 C21 1_555 1_555
H18 C22 1_555 1_555
C23 C18 1_555 1_555
C24 C23 1_555 1_555
H19 C24 1_555 1_555
H20 C24 1_555 1_555
H21 C24 1_555 1_555
C25 C19 1_555 1_555
H22 C25 1_555 1_555
H23 C25 1_555 1_555
H24 C25 1_555 1_555
N1 C7 1_555 1_555
C1 C6 1_555 1_555
C5 C6 1_555 1_555
C8 C9 1_555 1_555
C14 C15 1_555 1_555
C22 C23 1_555 1_555

#END
