
#######################################################################
#
#                 Cambridge Crystallographic Data Centre
#                                CCDC 
#
#######################################################################
#
# If this CIF has been generated from an entry in the Cambridge 
# Structural Database, then it will include bibliographic, chemical, 
# crystal, experimental, refinement or atomic coordinate data resulting 
# from the CCDC's data processing and validation procedures.
#
#######################################################################

data_YORYAH02
_chemical_formula_moiety         'C28 H21 N1 O1'
_chemical_name_systematic        
2-(4'-Methoxybiphenyl-4-yl)-3,3-diphenylacrylonitrile
_symmetry_cell_setting           monoclinic
_symmetry_space_group_name_H-M   'P 21/n'
_symmetry_Int_Tables_number      14
_space_group_name_Hall           '-P 2yn'
loop_
_symmetry_equiv_pos_site_id
_symmetry_equiv_pos_as_xyz
1 x,y,z
2 1/2-x,1/2+y,1/2-z
3 -x,-y,-z
4 1/2+x,1/2-y,1/2+z
_cell_length_a                   9.96960(10)
_cell_length_b                   43.1553(3)
_cell_length_c                   10.08110(10)
_cell_angle_alpha                90
_cell_angle_beta                 98.7640(10)
_cell_angle_gamma                90
_cell_volume                     4286.66
_exptl_crystal_colour            yellow
_exptl_crystal_description       block
_cell_formula_units_Z            8
loop_
_atom_site_label
_atom_site_type_symbol
_atom_site_fract_x
_atom_site_fract_y
_atom_site_fract_z
O1 O 0.67377(11) 0.32017(2) 0.10688(12)
N1 N 0.8460(2) 0.07928(4) 0.48442(17)
C1 C 1.0761(3) -0.01446(4) 0.3119(2)
H1 H 1.0921 -0.0350 0.3370
C2 C 1.1360(3) 0.00866(5) 0.3897(2)
H2 H 1.1941 0.0039 0.4682
C3 C 1.1122(2) 0.03945(4) 0.35444(18)
H3 H 1.1545 0.0551 0.4089
C4 C 1.02625(14) 0.04685(3) 0.23918(13)
C5 C 0.9690(2) 0.02294(4) 0.15968(19)
H4 H 0.9134 0.0274 0.0792
C6 C 0.9927(3) -0.00742(4) 0.1973(2)
H5 H 0.9510 -0.0232 0.1435
C7 C 0.99697(13) 0.07944(3) 0.19573(12)
C8 C 1.03724(12) 0.08742(3) 0.06351(12)
C9 C 1.16301(14) 0.07785(3) 0.03533(14)
H6 H 1.2231 0.0678 0.1011
C10 C 1.19953(16) 0.08311(4) -0.08950(17)
H7 H 1.2853 0.0773 -0.1060
C11 C 1.11067(19) 0.09674(4) -0.18885(17)
H8 H 1.1345 0.0996 -0.2737
C12 C 0.98561(18) 0.10623(5) -0.16254(16)
H9 H 0.9248 0.1155 -0.2299
C13 C 0.94979(15) 0.10203(4) -0.03687(14)
H10 H 0.8660 0.1091 -0.0195
C14 C 0.93148(14) 0.09880(3) 0.26974(12)
C15 C 0.88549(18) 0.08678(4) 0.38895(15)
C16 C 0.89465(13) 0.13186(3) 0.24428(12)
C17 C 0.76849(13) 0.14247(3) 0.26856(12)
H11 H 0.7082 0.1286 0.2987
C18 C 0.98285(13) 0.15331(3) 0.20130(14)
H12 H 1.0682 0.1469 0.1859
C19 C 0.73165(12) 0.17311(3) 0.24857(12)
H13 H 0.6466 0.1795 0.2650
C20 C 0.94560(13) 0.18387(3) 0.18123(14)
H14 H 1.0062 0.1977 0.1515
C21 C 0.81901(12) 0.19473(3) 0.20433(11)
C22 C 0.77881(12) 0.22753(3) 0.18069(11)
C23 C 0.64347(12) 0.23599(3) 0.14801(14)
H15 H 0.5772 0.2207 0.1430
C24 C 0.87452(12) 0.25130(3) 0.18723(14)
H16 H 0.9661 0.2465 0.2094
C25 C 0.60377(13) 0.26640(3) 0.12265(14)
H17 H 0.5122 0.2713 0.1013
C26 C 0.83667(13) 0.28162(3) 0.16164(15)
H18 H 0.9027 0.2970 0.1661
C27 C 0.70059(13) 0.28944(3) 0.12922(13)
C28 C 0.53540(18) 0.32924(4) 0.0770(2)
H19 H 0.5301 0.3512 0.0630
H20 H 0.4892 0.3238 0.1505
H21 H 0.4935 0.3188 -0.0028
O2 O 0.81183(14) 0.31898(2) 0.60626(12)
N2 N 0.61027(18) 0.08745(4) 1.05605(13)
C29 C 0.4779(5) -0.01372(5) 0.8160(3)
H22 H 0.4699 -0.0342 0.8421
C30 C 0.3685(4) 0.00126(5) 0.7435(3)
H23 H 0.2872 -0.0093 0.7189
C31 C 0.3791(2) 0.03208(4) 0.70698(19)
H24 H 0.3056 0.0421 0.6568
C32 C 0.49972(17) 0.04793(3) 0.74559(14)
C33 C 0.6109(2) 0.03224(4) 0.8157(2)
H25 H 0.6931 0.0425 0.8394
C34 C 0.5989(4) 0.00168(6) 0.8495(3)
H26 H 0.6735 -0.0087 0.8956
C35 C 0.51180(13) 0.08100(3) 0.71228(13)
C36 C 0.45415(13) 0.09134(3) 0.57469(12)
C37 C 0.36819(14) 0.11686(3) 0.55574(14)
H27 H 0.3404 0.1264 0.6297
C38 C 0.32379(17) 0.12819(4) 0.42933(16)
H28 H 0.2659 0.1452 0.4181
C39 C 0.3647(2) 0.11446(4) 0.31981(16)
H29 H 0.3371 0.1225 0.2345
C40 C 0.4466(2) 0.08879(4) 0.33606(15)
H30 H 0.4735 0.0794 0.2614
C41 C 0.48957(16) 0.07674(3) 0.46263(14)
H31 H 0.5422 0.0589 0.4724
C42 C 0.57274(13) 0.10167(3) 0.80437(12)
C43 C 0.59538(15) 0.09279(3) 0.94382(14)
C44 C 0.61678(12) 0.13361(3) 0.77688(12)
C45 C 0.66177(13) 0.14092(3) 0.65603(13)
H32 H 0.6664 0.1255 0.5926
C46 C 0.61976(14) 0.15694(3) 0.87206(12)
H33 H 0.5954 0.1524 0.9554
C47 C 0.69922(13) 0.17066(3) 0.62964(12)
H34 H 0.7272 0.1750 0.5477
C48 C 0.65826(14) 0.18672(3) 0.84525(12)
H35 H 0.6587 0.2019 0.9108
C49 C 0.69650(12) 0.19461(3) 0.72234(11)
C50 C 0.73008(12) 0.22690(3) 0.69003(12)
C51 C 0.70574(14) 0.23774(3) 0.55872(13)
H36 H 0.6705 0.2242 0.4905
C52 C 0.78316(14) 0.24808(3) 0.78904(13)
H37 H 0.8014 0.2416 0.8779
C53 C 0.73224(15) 0.26812(3) 0.52613(14)
H38 H 0.7154 0.2747 0.4373
C54 C 0.80903(15) 0.27829(3) 0.75803(15)
H39 H 0.8438 0.2920 0.8260
C55 C 0.78364(14) 0.28854(3) 0.62624(15)
C56 C 0.7754(3) 0.33132(4) 0.4754(2)
H40 H 0.8005 0.3528 0.4754
H41 H 0.6792 0.3294 0.4485
H42 H 0.8218 0.3201 0.4137
loop_
_geom_bond_atom_site_label_1
_geom_bond_atom_site_label_2
_geom_bond_site_symmetry_1
_geom_bond_site_symmetry_2
O1 C27 1_555 1_555
N1 C15 1_555 1_555
C1 H1 1_555 1_555
C2 C1 1_555 1_555
H2 C2 1_555 1_555
C3 C2 1_555 1_555
H3 C3 1_555 1_555
C4 C3 1_555 1_555
C5 C4 1_555 1_555
H4 C5 1_555 1_555
C6 C1 1_555 1_555
H5 C6 1_555 1_555
C7 C4 1_555 1_555
C8 C7 1_555 1_555
C9 C8 1_555 1_555
H6 C9 1_555 1_555
C10 C9 1_555 1_555
H7 C10 1_555 1_555
C11 C10 1_555 1_555
H8 C11 1_555 1_555
C12 C11 1_555 1_555
H9 C12 1_555 1_555
C13 C8 1_555 1_555
H10 C13 1_555 1_555
C14 C7 1_555 1_555
C15 C14 1_555 1_555
C16 C14 1_555 1_555
C17 C16 1_555 1_555
H11 C17 1_555 1_555
C18 C16 1_555 1_555
H12 C18 1_555 1_555
C19 C17 1_555 1_555
H13 C19 1_555 1_555
C20 C18 1_555 1_555
H14 C20 1_555 1_555
C21 C19 1_555 1_555
C22 C21 1_555 1_555
C23 C22 1_555 1_555
H15 C23 1_555 1_555
C24 C22 1_555 1_555
H16 C24 1_555 1_555
C25 C23 1_555 1_555
H17 C25 1_555 1_555
C26 C24 1_555 1_555
H18 C26 1_555 1_555
C27 C25 1_555 1_555
C28 O1 1_555 1_555
H19 C28 1_555 1_555
H20 C28 1_555 1_555
H21 C28 1_555 1_555
O2 C55 1_555 1_555
N2 C43 1_555 1_555
C29 H22 1_555 1_555
C30 C29 1_555 1_555
H23 C30 1_555 1_555
C31 C30 1_555 1_555
H24 C31 1_555 1_555
C32 C31 1_555 1_555
C33 C32 1_555 1_555
H25 C33 1_555 1_555
C34 C29 1_555 1_555
H26 C34 1_555 1_555
C35 C32 1_555 1_555
C36 C35 1_555 1_555
C37 C36 1_555 1_555
H27 C37 1_555 1_555
C38 C37 1_555 1_555
H28 C38 1_555 1_555
C39 C38 1_555 1_555
H29 C39 1_555 1_555
C40 C39 1_555 1_555
H30 C40 1_555 1_555
C41 C36 1_555 1_555
H31 C41 1_555 1_555
C42 C35 1_555 1_555
C43 C42 1_555 1_555
C44 C42 1_555 1_555
C45 C44 1_555 1_555
H32 C45 1_555 1_555
C46 C44 1_555 1_555
H33 C46 1_555 1_555
C47 C45 1_555 1_555
H34 C47 1_555 1_555
C48 C46 1_555 1_555
H35 C48 1_555 1_555
C49 C47 1_555 1_555
C50 C49 1_555 1_555
C51 C50 1_555 1_555
H36 C51 1_555 1_555
C52 C50 1_555 1_555
H37 C52 1_555 1_555
C53 C51 1_555 1_555
H38 C53 1_555 1_555
C54 C52 1_555 1_555
H39 C54 1_555 1_555
C55 C53 1_555 1_555
C56 O2 1_555 1_555
H40 C56 1_555 1_555
H41 C56 1_555 1_555
H42 C56 1_555 1_555
C5 C6 1_555 1_555
C12 C13 1_555 1_555
C20 C21 1_555 1_555
C26 C27 1_555 1_555
C33 C34 1_555 1_555
C40 C41 1_555 1_555
C48 C49 1_555 1_555
C54 C55 1_555 1_555

#END
