
#######################################################################
#
#                 Cambridge Crystallographic Data Centre
#                                CCDC 
#
#######################################################################
#
# If this CIF has been generated from an entry in the Cambridge 
# Structural Database, then it will include bibliographic, chemical, 
# crystal, experimental, refinement or atomic coordinate data resulting 
# from the CCDC's data processing and validation procedures.
#
#######################################################################

data_YORYAH
_chemical_formula_moiety         'C28 H21 N1 O1'
_chemical_name_systematic        
2-(4'-Methoxybiphenyl-4-yl)-3,3-diphenylacrylonitrile
_symmetry_cell_setting           monoclinic
_symmetry_space_group_name_H-M   'C c'
_symmetry_Int_Tables_number      9
_space_group_name_Hall           'C -2yc'
loop_
_symmetry_equiv_pos_site_id
_symmetry_equiv_pos_as_xyz
1 x,y,z
2 x,-y,1/2+z
3 1/2+x,1/2+y,z
4 1/2+x,1/2-y,1/2+z
_cell_length_a                   11.0759(7)
_cell_length_b                   29.6119(13)
_cell_length_c                   7.7409(4)
_cell_angle_alpha                90
_cell_angle_beta                 122.900(5)
_cell_angle_gamma                90
_cell_volume                     2131.67
_exptl_crystal_colour            colorless
_exptl_crystal_description       block
_cell_formula_units_Z            4
loop_
_atom_site_label
_atom_site_type_symbol
_atom_site_fract_x
_atom_site_fract_y
_atom_site_fract_z
O1 O -0.1123(2) 0.44297(6) 0.7807(4)
N1 N 0.4627(3) 0.24052(8) 0.2585(4)
C1 C 0.1097(3) 0.39563(8) 0.5219(4)
C2 C 0.5239(3) 0.39803(7) 0.1191(4)
C3 C 0.6234(3) 0.32198(8) 0.1141(4)
C4 C 0.6517(3) 0.42004(8) 0.1772(5)
H1 H 0.7375 0.4039 0.2410
C5 C 0.0614(3) 0.36534(8) 0.6086(4)
H2 H 0.0793 0.3347 0.6077
C6 C 0.3979(3) 0.42286(8) 0.0238(4)
H3 H 0.3116 0.4089 -0.0148
C7 C 0.3998(3) 0.46842(8) -0.0144(5)
H4 H 0.3144 0.4848 -0.0806
C8 C 0.6028(3) 0.32313(9) -0.0790(5)
H5 H 0.5303 0.3410 -0.1822
C9 C 0.6515(3) 0.46565(9) 0.1403(5)
H6 H 0.7375 0.4802 0.1811
C10 C 0.5266(4) 0.48944(9) 0.0449(5)
H7 H 0.5273 0.5201 0.0198
C11 C 0.7348(3) 0.29620(8) 0.2653(5)
H8 H 0.7512 0.2955 0.3965
C12 C 0.4594(3) 0.27898(9) 0.2384(4)
C13 C 0.3601(3) 0.34757(7) 0.2890(4)
C14 C 0.5286(3) 0.34860(7) 0.1570(4)
C15 C 0.3206(3) 0.40117(8) 0.4867(4)
H9 H 0.3512 0.4266 0.5709
C16 C 0.1931(3) 0.38007(7) 0.4353(4)
C17 C 0.1513(3) 0.34238(8) 0.3089(4)
H10 H 0.0670 0.3273 0.2730
C18 C 0.4523(3) 0.32752(7) 0.2227(4)
C19 C 0.4025(3) 0.38514(8) 0.4152(4)
H11 H 0.4875 0.3998 0.4523
C20 C 0.6900(4) 0.29776(10) -0.1184(6)
H12 H 0.6746 0.2981 -0.2491
C21 C 0.0052(3) 0.45573(8) 0.6100(5)
H13 H -0.0139 0.4863 0.6099
C22 C -0.0130(3) 0.37974(8) 0.6967(5)
H14 H -0.0441 0.3589 0.7542
C23 C 0.0781(3) 0.44117(8) 0.5232(4)
H15 H 0.1072 0.4622 0.4636
C24 C 0.2326(3) 0.32685(8) 0.2355(5)
H16 H 0.2010 0.3020 0.1483
C25 C -0.0400(3) 0.42474(9) 0.6981(5)
C26 C 0.7986(4) 0.27222(10) 0.0331(6)
H17 H 0.8568 0.2553 0.0051
C27 C 0.8223(3) 0.27140(9) 0.2249(6)
H18 H 0.8970 0.2542 0.3282
C28 C -0.1661(4) 0.41334(11) 0.8648(7)
H19 H -0.2262 0.3911 0.7640
H20 H -0.2215 0.4301 0.9046
H21 H -0.0875 0.3986 0.9833
loop_
_geom_bond_atom_site_label_1
_geom_bond_atom_site_label_2
_geom_bond_site_symmetry_1
_geom_bond_site_symmetry_2
O1 C25 1_555 1_555
N1 C12 1_555 1_555
C1 C5 1_555 1_555
C2 C4 1_555 1_555
C3 C8 1_555 1_555
C4 H1 1_555 1_555
C5 H2 1_555 1_555
C6 C2 1_555 1_555
H3 C6 1_555 1_555
C7 C6 1_555 1_555
H4 C7 1_555 1_555
C8 H5 1_555 1_555
C9 C4 1_555 1_555
H6 C9 1_555 1_555
C10 C7 1_555 1_555
H7 C10 1_555 1_555
C11 C3 1_555 1_555
H8 C11 1_555 1_555
C12 C18 1_555 1_555
C13 C18 1_555 1_555
C14 C2 1_555 1_555
C15 H9 1_555 1_555
C16 C1 1_555 1_555
C17 C16 1_555 1_555
H10 C17 1_555 1_555
C18 C14 1_555 1_555
C19 C13 1_555 1_555
H11 C19 1_555 1_555
C20 C8 1_555 1_555
H12 C20 1_555 1_555
C21 H13 1_555 1_555
C22 C5 1_555 1_555
H14 C22 1_555 1_555
C23 C1 1_555 1_555
H15 C23 1_555 1_555
C24 C13 1_555 1_555
H16 C24 1_555 1_555
C25 C21 1_555 1_555
C26 C20 1_555 1_555
H17 C26 1_555 1_555
C27 C11 1_555 1_555
H18 C27 1_555 1_555
C28 O1 1_555 1_555
H19 C28 1_555 1_555
H20 C28 1_555 1_555
H21 C28 1_555 1_555
C3 C14 1_555 1_555
C9 C10 1_555 1_555
C15 C16 1_555 1_555
C15 C19 1_555 1_555
C17 C24 1_555 1_555
C21 C23 1_555 1_555
C22 C25 1_555 1_555
C26 C27 1_555 1_555

#END
