
#######################################################################
#
#                 Cambridge Crystallographic Data Centre
#                                CCDC 
#
#######################################################################
#
# If this CIF has been generated from an entry in the Cambridge 
# Structural Database, then it will include bibliographic, chemical, 
# crystal, experimental, refinement or atomic coordinate data resulting 
# from the CCDC's data processing and validation procedures.
#
#######################################################################

data_YORYOV
_chemical_formula_moiety         'C20 H4 Br2 F18 N2 O4'
_chemical_name_systematic        
4,8-Dibromo-2,6-bis(2,2,3,3,4,4,5,5,5-nonafluoropentyl)pyrrolo[3,4-f]isoindole-1,3,5,7(2H,6H)-tetrone
_symmetry_cell_setting           monoclinic
_symmetry_space_group_name_H-M   'C 2/c'
_symmetry_Int_Tables_number      15
_space_group_name_Hall           '-C 2yn'
loop_
_symmetry_equiv_pos_site_id
_symmetry_equiv_pos_as_xyz
1 x,y,z
2 -x,y,1/2-z
3 1/2+x,1/2+y,z
4 1/2-x,1/2+y,1/2-z
5 -x,-y,-z
6 x,-y,1/2+z
7 1/2-x,1/2-y,-z
8 1/2+x,1/2-y,1/2+z
_cell_length_a                   41.229(7)
_cell_length_b                   6.9435(11)
_cell_length_c                   18.060(3)
_cell_angle_alpha                90
_cell_angle_beta                 104.645(3)
_cell_angle_gamma                90
_cell_volume                     5002.13
_exptl_crystal_colour            colorless
_exptl_crystal_description       plate
_cell_formula_units_Z            8
loop_
_atom_site_label
_atom_site_type_symbol
_atom_site_fract_x
_atom_site_fract_y
_atom_site_fract_z
Br1 Br 0.71433(2) 0.57604(6) 0.69896(2)
Br2 Br 0.77287(2) 0.49556(5) 1.07509(2)
O1 O 0.79439(7) 0.6102(4) 0.74064(15)
O2 O 0.83467(7) 0.5672(4) 1.00060(16)
O3 O 0.65347(7) 0.4539(4) 0.77188(15)
O4 O 0.69455(7) 0.3930(4) 1.03062(15)
N1 N 0.82261(8) 0.5903(5) 0.86866(17)
N2 N 0.66622(9) 0.4168(5) 0.90302(18)
C1 C 0.79406(11) 0.5917(6) 0.8067(2)
C2 C 0.76486(10) 0.5651(5) 0.8409(2)
C3 C 0.73092(11) 0.5479(5) 0.8051(2)
C4 C 0.71024(10) 0.5066(5) 0.8533(2)
C5 C 0.67370(10) 0.4603(5) 0.8329(2)
C6 C 0.69430(10) 0.4306(5) 0.9653(2)
C7 C 0.72263(10) 0.4898(5) 0.9324(2)
C8 C 0.75631(10) 0.5140(5) 0.96788(19)
C9 C 0.77731(10) 0.5490(5) 0.9206(2)
C10 C 0.81444(11) 0.5691(6) 0.9389(2)
F1 F 0.85669(8) 0.3702(4) 0.77730(17)
F2 F 0.87132(10) 0.3071(5) 0.89672(19)
C11 C 0.85621(11) 0.6263(6) 0.8623(2)
H1 H 0.8696 0.6825 0.9108
H2 H 0.8555 0.7210 0.8210
C12 C 0.87285(12) 0.4432(7) 0.8452(3)
F3 F 0.89912(18) 0.5982(11) 0.7563(4)
F4 F 0.92232(16) 0.6401(10) 0.8760(4)
C13 C 0.9062(2) 0.5107(13) 0.8248(5)
F5 F 0.94415(19) 0.2854(11) 0.8937(4)
F6 F 0.91245(15) 0.1926(8) 0.7895(4)
C14 C 0.9299(2) 0.3386(14) 0.8226(6)
F7 F 0.97771(16) 0.2359(11) 0.7888(4)
F8 F 0.9755(2) 0.5332(12) 0.8175(5)
C15 C 0.9579(3) 0.3833(16) 0.7821(6)
F9 F 0.62346(6) 0.5551(4) 1.00015(14)
F10 F 0.61412(7) 0.6617(4) 0.88318(15)
F11 F 0.57414(7) 0.2679(4) 0.93956(17)
F12 F 0.56284(7) 0.4319(5) 0.83364(15)
C16 C 0.63399(10) 0.3439(6) 0.9072(2)
H3 H 0.6372 0.2431 0.9472
H4 H 0.6226 0.2842 0.8576
C17 C 0.61218(11) 0.5029(6) 0.9257(2)
C18 C 0.57513(11) 0.4442(6) 0.9101(3)
F13 F 0.5605(18) 0.570(8) 1.0202(14)
F14 F 0.5538(3) 0.7524(14) 0.9222(8)
C19 C 0.5500(6) 0.572(5) 0.9425(13)
F15 F 0.50669(15) 0.3474(10) 0.9381(4)
F16 F 0.50102(15) 0.5342(10) 0.8416(4)
F17 F 0.49521(15) 0.6484(9) 0.9487(4)
C20 C 0.5123(4) 0.525(3) 0.9171(13)
F18 F 0.94598(18) 0.4247(12) 0.7102(4)
F19? F 0.92458(13) 0.4717(9) 0.9358(3)
F20? F 0.92167(16) 0.2606(9) 0.8478(4)
C21? C 0.9120(2) 0.4349(13) 0.8620(5)
F21? F 0.91443(17) 0.5481(10) 0.7409(4)
F22? F 0.91713(14) 0.7608(8) 0.8299(3)
C22? C 0.9268(2) 0.5883(13) 0.8153(5)
F23? F 0.97462(15) 0.7282(11) 0.7923(4)
F24? F 0.97993(15) 0.6137(9) 0.9052(3)
F25? F 0.9766(2) 0.4248(12) 0.8102(5)
C23? C 0.9650(3) 0.5897(16) 0.8321(6)
F26? F 0.5602(18) 0.543(8) 1.0192(14)
F27? F 0.52252(17) 0.5111(13) 0.9133(6)
C24? C 0.5535(6) 0.575(5) 0.9425(13)
F28? F 0.52909(14) 0.8720(8) 0.9539(3)
F29? F 0.54795(15) 0.8307(9) 0.8541(3)
F30? F 0.58236(13) 0.8732(7) 0.9635(3)
C25? C 0.5534(5) 0.794(3) 0.9283(15)
loop_
_geom_bond_atom_site_label_1
_geom_bond_atom_site_label_2
_geom_bond_site_symmetry_1
_geom_bond_site_symmetry_2
Br1 C3 1_555 1_555
Br2 C8 1_555 1_555
O1 C1 1_555 1_555
O2 C10 1_555 1_555
O3 C5 1_555 1_555
O4 C6 1_555 1_555
N1 C1 1_555 1_555
N2 C5 1_555 1_555
C1 C2 1_555 1_555
C2 C3 1_555 1_555
C3 C4 1_555 1_555
C4 C5 1_555 1_555
C6 N2 1_555 1_555
C7 C4 1_555 1_555
C8 C7 1_555 1_555
C9 C2 1_555 1_555
C10 N1 1_555 1_555
F1 C12 1_555 1_555
F2 C12 1_555 1_555
C11 N1 1_555 1_555
H1 C11 1_555 1_555
H2 C11 1_555 1_555
C12 C11 1_555 1_555
F3 C13 1_555 1_555
F4 C13 1_555 1_555
C13 C12 1_555 1_555
F5 C14 1_555 1_555
F6 C14 1_555 1_555
C14 C13 1_555 1_555
F7 C15 1_555 1_555
F8 C15 1_555 1_555
C15 C14 1_555 1_555
F9 C17 1_555 1_555
F10 C17 1_555 1_555
F11 C18 1_555 1_555
F12 C18 1_555 1_555
C16 N2 1_555 1_555
H3 C16 1_555 1_555
H4 C16 1_555 1_555
C17 C16 1_555 1_555
C18 C17 1_555 1_555
F13 C19 1_555 1_555
F14 C19 1_555 1_555
C19 C18 1_555 1_555
F15 C20 1_555 1_555
F16 C20 1_555 1_555
F17 C20 1_555 1_555
C20 C19 1_555 1_555
F18 C15 1_555 1_555
C6 C7 1_555 1_555
C8 C9 1_555 1_555
C9 C10 1_555 1_555

#END
