
#######################################################################
#
#                 Cambridge Crystallographic Data Centre
#                                CCDC 
#
#######################################################################
#
# If this CIF has been generated from an entry in the Cambridge 
# Structural Database, then it will include bibliographic, chemical, 
# crystal, experimental, refinement or atomic coordinate data resulting 
# from the CCDC's data processing and validation procedures.
#
#######################################################################

data_YORZUC
_chemical_name_common            
'5,11,17,23-tetrakis(Cyclohexylammoniomethyl)-C-ethylcalix(4)resorcinarene tetrabromide chloroform 2,3,5,6-tetrafluoro-1,4-di-iodobenzene solvate'
_chemical_formula_moiety         
'C64 H96 N4 O8 4+,2(C6 F4 I2),4(Br1 1-),C1 H1 Cl3'
_chemical_name_systematic        
'5,11,17,23-tetrakis(Cyclohexylammoniomethyl)-2,8,14,20-tetraethyl-4,6,10,12,16,18,22,24-octahydroxycalix(4)arene tetrabromide chloroform 2,3,5,6-tetrafluoro-1,4-di-iodobenzene solvate'
_symmetry_cell_setting           tetragonal
_symmetry_space_group_name_H-M   'P 4/n c c'
_symmetry_Int_Tables_number      130
_space_group_name_Hall           '-P 4a 2ac'
loop_
_symmetry_equiv_pos_site_id
_symmetry_equiv_pos_as_xyz
1 x,y,z
2 1/2-x,1/2-y,z
3 1/2+x,-y,1/2-z
4 -x,1/2+y,1/2-z
5 -y,-x,1/2-z
6 1/2+y,1/2+x,1/2-z
7 y,1/2-x,z
8 1/2-y,x,z
9 -x,-y,-z
10 1/2+x,1/2+y,-z
11 1/2-x,y,1/2+z
12 x,1/2-y,1/2+z
13 y,x,1/2+z
14 1/2-y,1/2-x,1/2+z
15 -y,1/2+x,-z
16 1/2+y,-x,-z
_cell_length_a                   18.4165(3)
_cell_length_b                   18.4165(3)
_cell_length_c                   27.9044(7)
_cell_angle_alpha                90
_cell_angle_beta                 90
_cell_angle_gamma                90
_cell_volume                     9464.26
_exptl_crystal_colour            'light yellow'
_exptl_crystal_description       plate
_cell_formula_units_Z            4
loop_
_atom_site_label
_atom_site_type_symbol
_atom_site_fract_x
_atom_site_fract_y
_atom_site_fract_z
O1 O 0.4731(6) 0.1084(6) 0.5910(4)
H1 H 0.488(11) 0.107(12) 0.562(3)
O2 O 0.2488(7) -0.0155(5) 0.5877(4)
H2 H 0.2050 -0.0056 0.5929
N1 N 0.3365(7) 0.0139(6) 0.5048(4)
H3 H 0.2841 0.0163 0.5127
H4 H 0.3514 0.0622 0.4928
C1 C 0.3842(10) 0.1360(9) 0.6500(6)
C2 C 0.4063(10) 0.0963(9) 0.6089(5)
C3 C 0.3587(8) 0.0457(8) 0.5891(5)
C4 C 0.2909(10) 0.0345(9) 0.6080(6)
C5 C 0.2680(9) 0.0743(11) 0.6498(7)
C6 C 0.3163(10) 0.1277(10) 0.6683(5)
H5 H 0.3008 0.1581 0.6938
C7 C 0.1933(10) 0.0649(11) 0.6729(5)
H6 H 0.1775 0.0142 0.6654
C8 C 0.1952(13) 0.0711(15) 0.7296(6)
H7 H 0.2158 0.1188 0.7386
H8 H 0.1448 0.0691 0.7419
C9 C 0.2379(19) 0.0137(16) 0.7528(10)
H9 H 0.2371 0.0207 0.7876
H10 H 0.2881 0.0158 0.7413
H11 H 0.2170 -0.0338 0.7449
C10 C 0.3791(9) -0.0035(8) 0.5500(6)
C11 C 0.3477(7) -0.0411(8) 0.4660(5)
H12 H 0.4008 -0.0513 0.4629
C12 C 0.3110(8) -0.1070(8) 0.4781(6)
H13 H 0.2589 -0.0970 0.4839
H14 H 0.3320 -0.1276 0.5078
C13 C 0.3189(12) -0.1617(11) 0.4371(7)
H15 H 0.2912 -0.2062 0.4449
H16 H 0.3707 -0.1754 0.4337
C14 C 0.2906(12) -0.1298(12) 0.3876(9)
H17 H 0.3004 -0.1653 0.3617
H18 H 0.2374 -0.1225 0.3895
C15 C 0.3250(13) -0.0620(13) 0.3760(7)
H19 H 0.3016 -0.0411 0.3471
H20 H 0.3767 -0.0708 0.3684
C16 C 0.3196(9) -0.0068(9) 0.4178(5)
H21 H 0.2685 0.0086 0.4217
H22 H 0.3488 0.0367 0.4101
O1F O 0.1084(6) 0.0269(6) 0.5910(4)
H1F H 0.107(12) 0.012(11) 0.562(3)
O2F O -0.0155(5) 0.2512(7) 0.5877(4)
H2F H -0.0056 0.2950 0.5929
N1F N 0.0139(6) 0.1635(7) 0.5048(4)
H3F H 0.0163 0.2159 0.5127
H4F H 0.0622 0.1486 0.4928
C1F C 0.1360(9) 0.1158(10) 0.6500(6)
C2F C 0.0963(9) 0.0937(10) 0.6089(5)
C3F C 0.0457(8) 0.1413(8) 0.5891(5)
C4F C 0.0345(9) 0.2091(10) 0.6080(6)
C5F C 0.0743(11) 0.2320(9) 0.6498(7)
C6F C 0.1277(10) 0.1837(10) 0.6683(5)
H5F H 0.1581 0.1992 0.6938
C7F C 0.0649(11) 0.3067(10) 0.6729(5)
H6F H 0.0142 0.3225 0.6654
C8F C 0.0711(15) 0.3048(13) 0.7296(6)
H7F H 0.1188 0.2842 0.7386
H8F H 0.0691 0.3552 0.7419
C9F C 0.0137(16) 0.2621(19) 0.7528(10)
H9F H 0.0207 0.2629 0.7876
H10F H 0.0158 0.2119 0.7413
H11F H -0.0338 0.2830 0.7449
C10F C -0.0035(8) 0.1209(9) 0.5500(6)
C11F C -0.0411(8) 0.1523(7) 0.4660(5)
H12F H -0.0513 0.0992 0.4629
C12F C -0.1070(8) 0.1890(8) 0.4781(6)
H13F H -0.0970 0.2411 0.4839
H14F H -0.1276 0.1680 0.5078
C13F C -0.1617(11) 0.1811(12) 0.4371(7)
H15F H -0.2062 0.2088 0.4449
H16F H -0.1754 0.1293 0.4337
C14F C -0.1298(12) 0.2094(12) 0.3876(9)
H17F H -0.1653 0.1996 0.3617
H18F H -0.1225 0.2626 0.3895
C15F C -0.0620(13) 0.1750(13) 0.3760(7)
H19F H -0.0411 0.1984 0.3471
H20F H -0.0708 0.1233 0.3684
C16F C -0.0068(9) 0.1804(9) 0.4178(5)
H21F H 0.0086 0.2315 0.4217
H22F H 0.0367 0.1512 0.4101
O1G O 0.3916(6) 0.4731(6) 0.5910(4)
H1G H 0.393(12) 0.488(11) 0.562(3)
O2G O 0.5155(5) 0.2488(7) 0.5877(4)
H2G H 0.5056 0.2050 0.5929
N1G N 0.4861(6) 0.3365(7) 0.5048(4)
H3G H 0.4837 0.2841 0.5127
H4G H 0.4378 0.3514 0.4928
C1G C 0.3640(9) 0.3842(10) 0.6500(6)
C2G C 0.4037(9) 0.4063(10) 0.6089(5)
C3G C 0.4543(8) 0.3587(8) 0.5891(5)
C4G C 0.4655(9) 0.2909(10) 0.6080(6)
C5G C 0.4257(11) 0.2680(9) 0.6498(7)
C6G C 0.3723(10) 0.3163(10) 0.6683(5)
H5G H 0.3419 0.3008 0.6938
C7G C 0.4351(11) 0.1933(10) 0.6729(5)
H6G H 0.4858 0.1775 0.6654
C8G C 0.4289(15) 0.1952(13) 0.7296(6)
H7G H 0.3812 0.2158 0.7386
H8G H 0.4309 0.1448 0.7419
C9G C 0.4863(16) 0.2379(19) 0.7528(10)
H9G H 0.4793 0.2371 0.7876
H10G H 0.4842 0.2881 0.7413
H11G H 0.5338 0.2170 0.7449
C10G C 0.5035(8) 0.3791(9) 0.5500(6)
C11G C 0.5411(8) 0.3477(7) 0.4660(5)
H12G H 0.5513 0.4008 0.4629
C12G C 0.6070(8) 0.3110(8) 0.4781(6)
H13G H 0.5970 0.2589 0.4839
H14G H 0.6276 0.3320 0.5078
C13G C 0.6617(11) 0.3189(12) 0.4371(7)
H15G H 0.7062 0.2912 0.4449
H16G H 0.6754 0.3707 0.4337
C14G C 0.6298(12) 0.2906(12) 0.3876(9)
H17G H 0.6653 0.3004 0.3617
H18G H 0.6225 0.2374 0.3895
C15G C 0.5620(13) 0.3250(13) 0.3760(7)
H19G H 0.5411 0.3016 0.3471
H20G H 0.5708 0.3767 0.3684
C16G C 0.5068(9) 0.3196(9) 0.4178(5)
H21G H 0.4914 0.2685 0.4217
H22G H 0.4633 0.3488 0.4101
O1A O 0.0269(6) 0.3916(6) 0.5910(4)
H1A H 0.012(11) 0.393(12) 0.562(3)
O2A O 0.2512(7) 0.5155(5) 0.5877(4)
H2A H 0.2950 0.5056 0.5929
N1A N 0.1635(7) 0.4861(6) 0.5048(4)
H3A H 0.2159 0.4837 0.5127
H4A H 0.1486 0.4378 0.4928
C1A C 0.1158(10) 0.3640(9) 0.6500(6)
C2A C 0.0937(10) 0.4037(9) 0.6089(5)
C3A C 0.1413(8) 0.4543(8) 0.5891(5)
C4A C 0.2091(10) 0.4655(9) 0.6080(6)
C5A C 0.2320(9) 0.4257(11) 0.6498(7)
C6A C 0.1837(10) 0.3723(10) 0.6683(5)
H5A H 0.1992 0.3419 0.6938
C7A C 0.3067(10) 0.4351(11) 0.6729(5)
H6A H 0.3225 0.4858 0.6654
C8A C 0.3048(13) 0.4289(15) 0.7296(6)
H7A H 0.2842 0.3812 0.7386
H8A H 0.3552 0.4309 0.7419
C9A C 0.2621(19) 0.4863(16) 0.7528(10)
H9A H 0.2629 0.4793 0.7876
H10A H 0.2119 0.4842 0.7413
H11A H 0.2830 0.5338 0.7449
C10A C 0.1209(9) 0.5035(8) 0.5500(6)
C11A C 0.1523(7) 0.5411(8) 0.4660(5)
H12A H 0.0992 0.5513 0.4629
C12A C 0.1890(8) 0.6070(8) 0.4781(6)
H13A H 0.2411 0.5970 0.4839
H14A H 0.1680 0.6276 0.5078
C13A C 0.1811(12) 0.6617(11) 0.4371(7)
H15A H 0.2088 0.7062 0.4449
H16A H 0.1293 0.6754 0.4337
C14A C 0.2094(12) 0.6298(12) 0.3876(9)
H17A H 0.1996 0.6653 0.3617
H18A H 0.2626 0.6225 0.3895
C15A C 0.1750(13) 0.5620(13) 0.3760(7)
H19A H 0.1984 0.5411 0.3471
H20A H 0.1233 0.5708 0.3684
C16A C 0.1804(9) 0.5068(9) 0.4178(5)
H21A H 0.2315 0.4914 0.4217
H22A H 0.1512 0.4633 0.4101
I1 I 0.49501(7) -0.10116(6) 0.63303(3)
F1 F 0.5543(8) 0.0196(8) 0.7050(4)
F2 F 0.3767(9) -0.1609(8) 0.7046(4)
C17 C 0.4637(12) -0.0725(12) 0.7026(6)
C18 C 0.4996(12) -0.0192(12) 0.7265(5)
C19 C 0.4117(13) -0.1095(12) 0.7270(6)
I1E I 0.39884(6) -0.00499(7) 0.86697(3)
F1E F 0.5196(8) 0.0543(8) 0.7950(4)
F2E F 0.3391(8) -0.1233(9) 0.7954(4)
C17E C 0.4275(12) -0.0363(12) 0.7974(6)
C18E C 0.4808(12) -0.0004(12) 0.7735(5)
C19E C 0.3905(12) -0.0883(13) 0.7730(6)
Br1 Br 0.4779(2) 0.1291(2) 0.48146(13)
Br2? Br 0.4434(3) 0.1525(3) 0.4809(2)
Cl1? Cl 0.2500 0.2500 0.5810(4)
Cl2? Cl 0.3221(6) 0.2174(6) 0.4971(4)
C20? C 0.2500 0.2500 0.5276(17)
Cl3? Cl 0.3231(19) 0.208(2) 0.3567(13)
C21? C 0.2500 0.2500 0.361(3)
H23? H 0.2500 0.2500 0.3943
Cl4? Cl 0.282(2) 0.172(2) 0.3290(16)
loop_
_geom_bond_atom_site_label_1
_geom_bond_atom_site_label_2
_geom_bond_site_symmetry_1
_geom_bond_site_symmetry_2
O1 H1 1_555 1_555
O2 H2 1_555 1_555
N1 H3 1_555 1_555
H4 N1 1_555 1_555
C1 C2 1_555 1_555
C2 O1 1_555 1_555
C3 C2 1_555 1_555
C4 O2 1_555 1_555
C5 C4 1_555 1_555
C6 C1 1_555 1_555
H5 C6 1_555 1_555
C7 C5 1_555 1_555
H6 C7 1_555 1_555
C8 C7 1_555 1_555
H7 C8 1_555 1_555
H8 C8 1_555 1_555
C9 C8 1_555 1_555
H9 C9 1_555 1_555
H10 C9 1_555 1_555
H11 C9 1_555 1_555
C10 N1 1_555 1_555
C11 N1 1_555 1_555
H12 C11 1_555 1_555
C12 C11 1_555 1_555
H13 C12 1_555 1_555
H14 C12 1_555 1_555
C13 C12 1_555 1_555
H15 C13 1_555 1_555
H16 C13 1_555 1_555
C14 C13 1_555 1_555
H17 C14 1_555 1_555
H18 C14 1_555 1_555
C15 C14 1_555 1_555
H19 C15 1_555 1_555
H20 C15 1_555 1_555
C16 C11 1_555 1_555
H21 C16 1_555 1_555
H22 C16 1_555 1_555
I1 C17 1_555 1_555
F1 C18 1_555 1_555
F2 C19 1_555 1_555
C17 C18 1_555 1_555
C18 C18E 1_555 1_555
C19 C17 1_555 1_555
O1F H1F 1_555 1_555
O2F H2F 1_555 1_555
N1F H3F 1_555 1_555
H4F N1F 1_555 1_555
C1F C7 1_555 1_555
C2F O1F 1_555 1_555
C3F C2F 1_555 1_555
C4F O2F 1_555 1_555
C5F C4F 1_555 1_555
C6F C1F 1_555 1_555
H5F C6F 1_555 1_555
C7F C5F 1_555 1_555
H6F C7F 1_555 1_555
C8F C7F 1_555 1_555
H7F C8F 1_555 1_555
H8F C8F 1_555 1_555
C9F C8F 1_555 1_555
H9F C9F 1_555 1_555
H10F C9F 1_555 1_555
H11F C9F 1_555 1_555
C10F N1F 1_555 1_555
C11F N1F 1_555 1_555
H12F C11F 1_555 1_555
C12F C11F 1_555 1_555
H13F C12F 1_555 1_555
H14F C12F 1_555 1_555
C13F C12F 1_555 1_555
H15F C13F 1_555 1_555
H16F C13F 1_555 1_555
C14F C13F 1_555 1_555
H17F C14F 1_555 1_555
H18F C14F 1_555 1_555
C15F C14F 1_555 1_555
H19F C15F 1_555 1_555
H20F C15F 1_555 1_555
C16F C11F 1_555 1_555
H21F C16F 1_555 1_555
H22F C16F 1_555 1_555
O1G H1G 1_555 1_555
O2G H2G 1_555 1_555
N1G H3G 1_555 1_555
H4G N1G 1_555 1_555
C1G C2G 1_555 1_555
C2G O1G 1_555 1_555
C3G C2G 1_555 1_555
C4G O2G 1_555 1_555
C5G C4G 1_555 1_555
C6G C1G 1_555 1_555
H5G C6G 1_555 1_555
C7G C1 1_555 1_555
H6G C7G 1_555 1_555
C8G C7G 1_555 1_555
H7G C8G 1_555 1_555
H8G C8G 1_555 1_555
C9G C8G 1_555 1_555
H9G C9G 1_555 1_555
H10G C9G 1_555 1_555
H11G C9G 1_555 1_555
C10G N1G 1_555 1_555
C11G N1G 1_555 1_555
H12G C11G 1_555 1_555
C12G C11G 1_555 1_555
H13G C12G 1_555 1_555
H14G C12G 1_555 1_555
C13G C12G 1_555 1_555
H15G C13G 1_555 1_555
H16G C13G 1_555 1_555
C14G C13G 1_555 1_555
H17G C14G 1_555 1_555
H18G C14G 1_555 1_555
C15G C14G 1_555 1_555
H19G C15G 1_555 1_555
H20G C15G 1_555 1_555
C16G C11G 1_555 1_555
H21G C16G 1_555 1_555
H22G C16G 1_555 1_555
O1A H1A 1_555 1_555
O2A H2A 1_555 1_555
N1A H3A 1_555 1_555
H4A N1A 1_555 1_555
C1A C7F 1_555 1_555
C2A O1A 1_555 1_555
C3A C2A 1_555 1_555
C4A O2A 1_555 1_555
C5A C4A 1_555 1_555
C6A C1A 1_555 1_555
H5A C6A 1_555 1_555
C7A C1G 1_555 1_555
H6A C7A 1_555 1_555
C8A C7A 1_555 1_555
H7A C8A 1_555 1_555
H8A C8A 1_555 1_555
C9A C8A 1_555 1_555
H9A C9A 1_555 1_555
H10A C9A 1_555 1_555
H11A C9A 1_555 1_555
C10A N1A 1_555 1_555
C11A N1A 1_555 1_555
H12A C11A 1_555 1_555
C12A C11A 1_555 1_555
H13A C12A 1_555 1_555
H14A C12A 1_555 1_555
C13A C12A 1_555 1_555
H15A C13A 1_555 1_555
H16A C13A 1_555 1_555
C14A C13A 1_555 1_555
H17A C14A 1_555 1_555
H18A C14A 1_555 1_555
C15A C14A 1_555 1_555
H19A C15A 1_555 1_555
H20A C15A 1_555 1_555
C16A C11A 1_555 1_555
H21A C16A 1_555 1_555
H22A C16A 1_555 1_555
I1E C17E 1_555 1_555
F1E C18E 1_555 1_555
F2E C19E 1_555 1_555
C17E C18E 1_555 1_555
C19E C19 1_555 1_555
C3 C4 1_555 1_555
C3 C10 1_555 1_555
C5 C6 1_555 1_555
C15 C16 1_555 1_555
C1F C2F 1_555 1_555
C3F C4F 1_555 1_555
C3F C10F 1_555 1_555
C5F C6F 1_555 1_555
C15F C16F 1_555 1_555
C3G C4G 1_555 1_555
C3G C10G 1_555 1_555
C5G C6G 1_555 1_555
C5G C7G 1_555 1_555
C15G C16G 1_555 1_555
C1A C2A 1_555 1_555
C3A C4A 1_555 1_555
C3A C10A 1_555 1_555
C5A C6A 1_555 1_555
C5A C7A 1_555 1_555
C15A C16A 1_555 1_555
C17E C19E 1_555 1_555

#END
