
#######################################################################
#
#                 Cambridge Crystallographic Data Centre
#                                CCDC 
#
#######################################################################
#
# If this CIF has been generated from an entry in the Cambridge 
# Structural Database, then it will include bibliographic, chemical, 
# crystal, experimental, refinement or atomic coordinate data resulting 
# from the CCDC's data processing and validation procedures.
#
#######################################################################

data_YOSCEQ
_chemical_formula_moiety         'C30 H24 N2 O5'
_chemical_name_systematic        
19-(2,6-Dimethoxyphenyl)-1,16-dimethyl-7,19-diazahexacyclo[14.5.1.0^2,15^.0^3,8^.0^9,14^.0^17,21^]docosa-2(15),3,5,7,9,11,13-heptaene-18,20,22-trione
_symmetry_cell_setting           monoclinic
_symmetry_space_group_name_H-M   'P 21/c'
_symmetry_Int_Tables_number      14
_space_group_name_Hall           '-P 2ybc'
loop_
_symmetry_equiv_pos_site_id
_symmetry_equiv_pos_as_xyz
1 x,y,z
2 -x,1/2+y,1/2-z
3 -x,-y,-z
4 x,1/2-y,1/2+z
_cell_length_a                   14.233(2)
_cell_length_b                   16.180(3)
_cell_length_c                   9.9786(17)
_cell_angle_alpha                90
_cell_angle_beta                 90.080(3)
_cell_angle_gamma                90
_cell_volume                     2297.97
_exptl_crystal_colour            colorless
_exptl_crystal_description       plate
_cell_formula_units_Z            4
_exptl_crystal_recrystallization_method dichloromethane
loop_
_atom_site_label
_atom_site_type_symbol
_atom_site_fract_x
_atom_site_fract_y
_atom_site_fract_z
O1 O 0.20823(10) 0.72725(8) 0.60592(14)
O2 O 0.31269(9) 0.44921(8) 0.88148(13)
O3 O 0.41676(9) 0.45530(8) 0.44807(13)
O4 O 0.28977(9) 0.31486(8) 0.52576(13)
O5 O 0.51436(9) 0.39795(8) 0.83722(13)
N1 N 0.37512(10) 0.43494(9) 0.66909(15)
C1 C 0.22469(12) 0.65482(11) 0.60539(18)
C2 C 0.21128(12) 0.58957(10) 0.71666(18)
C3 C 0.31798(12) 0.56563(10) 0.72759(18)
H1 H 0.3525 0.6056 0.7861
C4 C 0.33361(12) 0.47831(11) 0.77395(18)
C5 C 0.38646(11) 0.48137(11) 0.55194(17)
C6 C 0.35527(12) 0.56878(10) 0.58297(17)
H2 H 0.4094 0.6079 0.5762
C7 C 0.27014(12) 0.60033(11) 0.49679(17)
C8 C 0.19697(12) 0.53171(11) 0.50008(18)
C9 C 0.16382(12) 0.52425(10) 0.62863(18)
C10 C 0.09742(12) 0.46102(11) 0.66430(19)
C11 C 0.06618(13) 0.44608(12) 0.7958(2)
H3 H 0.0890 0.4792 0.8675
C12 C 0.00284(14) 0.38382(12) 0.8212(2)
H4 H -0.0180 0.3739 0.9102
C13 C -0.03054(14) 0.33542(12) 0.7161(2)
H5 H -0.0744 0.2927 0.7346
C14 C -0.00225(12) 0.34759(11) 0.58881(19)
H6 H -0.0263 0.3138 0.5189
C15 C 0.06229(12) 0.40988(11) 0.5598(2)
C16 C 0.09476(12) 0.42016(11) 0.42339(19)
N2 N 0.05870(11) 0.36951(11) 0.32487(18)
C17 C 0.09328(13) 0.37404(13) 0.2007(2)
H7 H 0.0678 0.3389 0.1335
C18 C 0.16517(14) 0.42818(13) 0.16584(19)
H8 H 0.1890 0.4291 0.0769
C19 C 0.20127(13) 0.48021(12) 0.26174(19)
H9 H 0.2504 0.5174 0.2392
C20 C 0.16565(12) 0.47856(11) 0.39355(18)
C21 C 0.16884(13) 0.62095(11) 0.84589(18)
H10 H 0.1977 0.6739 0.8698
H11 H 0.1803 0.5808 0.9176
H12 H 0.1010 0.6284 0.8341
C22 C 0.29785(14) 0.64523(12) 0.37020(19)
H13 H 0.3418 0.6111 0.3189
H14 H 0.3280 0.6978 0.3935
H15 H 0.2417 0.6560 0.3160
C23 C 0.40292(12) 0.35063(11) 0.68384(18)
C24 C 0.35690(12) 0.28873(11) 0.61243(18)
C25 C 0.38042(13) 0.20634(11) 0.63636(18)
H16 H 0.3509 0.1632 0.5874
C26 C 0.44746(13) 0.18846(12) 0.73252(18)
H17 H 0.4616 0.1322 0.7510
C27 C 0.49480(13) 0.24953(12) 0.80304(19)
H18 H 0.5413 0.2355 0.8675
C28 C 0.47282(12) 0.33173(11) 0.77743(18)
C29 C 0.24716(14) 0.25391(12) 0.4417(2)
H19 H 0.2099 0.2813 0.3720
H20 H 0.2062 0.2184 0.4958
H21 H 0.2962 0.2202 0.3997
C30 C 0.58175(14) 0.38205(14) 0.94065(19)
H22 H 0.6343 0.3503 0.9037
H23 H 0.5520 0.3504 1.0128
H24 H 0.6051 0.4346 0.9764
N3? N -0.00225(12) 0.34759(11) 0.58881(19)
C31? C 0.05870(11) 0.36951(11) 0.32487(18)
H25? H 0.0097 0.3317 0.3451
loop_
_geom_bond_atom_site_label_1
_geom_bond_atom_site_label_2
_geom_bond_site_symmetry_1
_geom_bond_site_symmetry_2
O1 C1 1_555 1_555
O2 C4 1_555 1_555
O3 C5 1_555 1_555
O4 C24 1_555 1_555
O5 C28 1_555 1_555
N1 C4 1_555 1_555
C1 C2 1_555 1_555
C2 C3 1_555 1_555
C3 H1 1_555 1_555
C4 C3 1_555 1_555
C5 N1 1_555 1_555
C6 C3 1_555 1_555
H2 C6 1_555 1_555
C7 C1 1_555 1_555
C8 C7 1_555 1_555
C9 C2 1_555 1_555
C10 C9 1_555 1_555
C11 C10 1_555 1_555
H3 C11 1_555 1_555
C12 C11 1_555 1_555
H4 C12 1_555 1_555
C13 C12 1_555 1_555
H5 C13 1_555 1_555
C14 C13 1_555 1_555
H6 C14 1_555 1_555
C15 C10 1_555 1_555
C16 C15 1_555 1_555
N2 C16 1_555 1_555
C17 N2 1_555 1_555
H7 C17 1_555 1_555
C18 C17 1_555 1_555
H8 C18 1_555 1_555
C19 C18 1_555 1_555
H9 C19 1_555 1_555
C20 C8 1_555 1_555
C21 C2 1_555 1_555
H10 C21 1_555 1_555
H11 C21 1_555 1_555
H12 C21 1_555 1_555
C22 C7 1_555 1_555
H13 C22 1_555 1_555
H14 C22 1_555 1_555
H15 C22 1_555 1_555
C23 N1 1_555 1_555
C24 C23 1_555 1_555
C25 C24 1_555 1_555
H16 C25 1_555 1_555
C26 C25 1_555 1_555
H17 C26 1_555 1_555
C27 C26 1_555 1_555
H18 C27 1_555 1_555
C28 C23 1_555 1_555
C29 O4 1_555 1_555
H19 C29 1_555 1_555
H20 C29 1_555 1_555
H21 C29 1_555 1_555
C30 O5 1_555 1_555
H22 C30 1_555 1_555
H23 C30 1_555 1_555
H24 C30 1_555 1_555
C5 C6 1_555 1_555
C6 C7 1_555 1_555
C8 C9 1_555 1_555
C14 C15 1_555 1_555
C16 C20 1_555 1_555
C19 C20 1_555 1_555
C27 C28 1_555 1_555

#END
