
#######################################################################
#
#                 Cambridge Crystallographic Data Centre
#                                CCDC 
#
#######################################################################
#
# If this CIF has been generated from an entry in the Cambridge 
# Structural Database, then it will include bibliographic, chemical, 
# crystal, experimental, refinement or atomic coordinate data resulting 
# from the CCDC's data processing and validation procedures.
#
#######################################################################

data_YOTCER
_chemical_name_common            
'7,10-bis-O-(2,2,2-Trichloroethoxycarbonyl)-10-deacetyl baccatin III ethyl acetate solvate monohydrate'
_chemical_formula_moiety         'C35 H38 Cl6 O14,C4 H8 O2,H2 O1'
_chemical_name_systematic        
'4-Acetoxy-1,13-dihydroxy-9-oxo-7,10-bis(((2,2,2-trichloroethoxy)carbonyl)oxy)-5,20-epoxytax-11-en-2-yl benzoate ethyl acetate solvate monohydrate'
_symmetry_cell_setting           orthorhombic
_symmetry_space_group_name_H-M   'P 21 21 21'
_symmetry_Int_Tables_number      19
_space_group_name_Hall           'P 2ac 2ab'
loop_
_symmetry_equiv_pos_site_id
_symmetry_equiv_pos_as_xyz
1 x,y,z
2 1/2-x,-y,1/2+z
3 -x,1/2+y,1/2-z
4 1/2+x,1/2-y,-z
_cell_length_a                   14.7029(12)
_cell_length_b                   16.6256(14)
_cell_length_c                   18.8428(15)
_cell_angle_alpha                90
_cell_angle_beta                 90
_cell_angle_gamma                90
_cell_volume                     4606.02
_exptl_crystal_colour            colorless
_exptl_crystal_description       block
_cell_formula_units_Z            4
loop_
_atom_site_label
_atom_site_type_symbol
_atom_site_fract_x
_atom_site_fract_y
_atom_site_fract_z
Cl1 Cl 0.45710(8) 0.39676(8) 1.07198(6)
Cl2 Cl 0.32384(8) 0.52020(9) 1.04635(7)
Cl3 Cl 0.47888(11) 0.55326(9) 1.13566(6)
Cl4 Cl 0.16971(12) 0.74382(10) 1.06871(8)
Cl5 Cl 0.21745(10) 0.86644(8) 0.96796(8)
Cl6 Cl 0.07996(9) 0.74944(10) 0.93393(9)
O1 O 0.46529(17) 0.49094(16) 0.93568(13)
O2 O 0.5847(2) 0.5445(2) 0.87752(16)
O3 O 0.47014(17) 0.47830(16) 0.82246(13)
O4 O 0.5596(2) 0.34214(16) 0.62594(15)
O5 O 0.64362(17) 0.50854(17) 0.57182(15)
O6 O 0.70100(19) 0.5507(2) 0.67610(18)
O7 O 0.48375(18) 0.53226(16) 0.50120(13)
O8 O 0.3530(2) 0.4758(2) 0.46317(17)
O9 O 0.3769(2) 0.66053(19) 0.48867(14)
H1 H 0.4072 0.6774 0.4553
O10 O 0.66200(19) 0.7436(2) 0.59069(17)
H2 H 0.6852 0.7830 0.6096
O11 O 0.34846(18) 0.70530(16) 0.78068(14)
O12 O 0.3934(2) 0.6456(2) 0.88308(15)
O13 O 0.2697(2) 0.72537(17) 0.87572(15)
O14 O 0.30866(17) 0.55455(19) 0.75760(16)
C1 C 0.4330(3) 0.6562(2) 0.55093(19)
C2 C 0.4413(3) 0.5639(2) 0.56530(19)
H3 H 0.3800 0.5413 0.5692
C3 C 0.4989(2) 0.5342(2) 0.63038(18)
H4 H 0.5347 0.5808 0.6457
C4 C 0.5692(3) 0.4686(2) 0.6091(2)
C5 C 0.6032(3) 0.4074(2) 0.6642(2)
H5 H 0.6696 0.4022 0.6619
C6 C 0.5721(3) 0.4145(3) 0.7402(2)
H6 H 0.6250 0.4153 0.7709
H7 H 0.5364 0.3674 0.7523
C7 C 0.5156(3) 0.4892(2) 0.75415(19)
H8 H 0.5565 0.5356 0.7575
C8 C 0.4420(3) 0.5073(2) 0.6975(2)
C9 C 0.3810(3) 0.5734(2) 0.7324(2)
C10 C 0.4167(3) 0.6584(2) 0.7431(2)
H9 H 0.4704 0.6549 0.7738
C11 C 0.4451(3) 0.6999(2) 0.6761(2)
C12 C 0.5308(3) 0.7261(2) 0.6688(2)
C13 C 0.5655(3) 0.7492(3) 0.5956(2)
H10 H 0.5473 0.8048 0.5855
C14 C 0.5273(3) 0.6947(3) 0.5378(2)
H11 H 0.5706 0.6517 0.5298
H12 H 0.5238 0.7258 0.4943
C15 C 0.3816(3) 0.7014(2) 0.6108(2)
C16 C 0.3627(3) 0.7890(3) 0.5880(2)
H13 H 0.3320 0.7892 0.5430
H14 H 0.4192 0.8176 0.5838
H15 H 0.3251 0.8148 0.6228
C17 C 0.2865(3) 0.6643(3) 0.6226(2)
H16 H 0.2584 0.6888 0.6631
H17 H 0.2925 0.6075 0.6305
H18 H 0.2495 0.6734 0.5813
C18 C 0.5997(3) 0.7319(3) 0.7285(2)
H19 H 0.5684 0.7366 0.7731
H20 H 0.6375 0.7783 0.7215
H21 H 0.6368 0.6844 0.7289
C19 C 0.3823(3) 0.4340(2) 0.6832(2)
H22 H 0.4193 0.3908 0.6656
H23 H 0.3369 0.4475 0.6487
H24 H 0.3533 0.4175 0.7265
C20 C 0.5377(3) 0.3945(2) 0.5674(2)
H25 H 0.4734 0.3953 0.5559
H26 H 0.5738 0.3841 0.5253
C21 C 0.7058(3) 0.5467(3) 0.6127(3)
C22 C 0.7808(3) 0.5823(3) 0.5686(3)
H27 H 0.7773 0.6399 0.5705
H28 H 0.7745 0.5648 0.5203
H29 H 0.8386 0.5650 0.5867
C23 C 0.4325(4) 0.4918(3) 0.4540(2)
C24 C 0.4857(4) 0.4674(3) 0.3912(2)
C25 C 0.4390(5) 0.4371(3) 0.3332(3)
H30 H 0.3757 0.4354 0.3331
C26 C 0.4882(9) 0.4090(5) 0.2749(4)
H31 H 0.4573 0.3866 0.2366
C27 C 0.5804(10) 0.4137(6) 0.2730(5)
H32 H 0.6123 0.3967 0.2331
C28 C 0.6257(6) 0.4436(4) 0.3304(4)
H33 H 0.6889 0.4453 0.3300
C29 C 0.5791(5) 0.4714(3) 0.3891(3)
H34 H 0.6110 0.4929 0.4273
C30 C 0.5136(3) 0.5093(3) 0.8778(2)
C31 C 0.4953(3) 0.5319(3) 0.99803(19)
H35 H 0.4865 0.5894 0.9927
H36 H 0.5595 0.5219 1.0058
C32 C 0.4407(3) 0.5012(3) 1.0603(2)
C33 C 0.3426(3) 0.6871(3) 0.8494(2)
C34 C 0.2575(3) 0.7095(3) 0.9504(2)
H37 H 0.3141 0.7185 0.9756
H38 H 0.2394 0.6540 0.9575
C35 C 0.1848(3) 0.7652(3) 0.9783(2)
O15 O 0.4523(4) 0.7217(4) 0.3618(2)
O16 O 0.5060(3) 0.6814(3) 0.2612(2)
C36 C 0.3518(4) 0.6914(6) 0.2637(4)
H39 H 0.3335 0.6360 0.2642
H40 H 0.3594 0.7090 0.2155
H41 H 0.3061 0.7236 0.2864
C37 C 0.4383(5) 0.7002(5) 0.3019(4)
C38 C 0.5963(5) 0.6867(6) 0.2964(5)
H42 H 0.6126 0.7427 0.3032
H43 H 0.5935 0.6611 0.3426
C39 C 0.6606(5) 0.6495(5) 0.2554(4)
H44 H 0.6461 0.5934 0.2511
H45 H 0.7192 0.6553 0.2772
H46 H 0.6615 0.6737 0.2092
H47 H 0.6749 0.9256 0.5910
H48 H 0.7575 0.8891 0.5773
O17 O 0.7233(2) 0.9006(2) 0.6083(2)
loop_
_geom_bond_atom_site_label_1
_geom_bond_atom_site_label_2
_geom_bond_site_symmetry_1
_geom_bond_site_symmetry_2
Cl1 C32 1_555 1_555
Cl2 C32 1_555 1_555
Cl3 C32 1_555 1_555
Cl4 C35 1_555 1_555
Cl5 C35 1_555 1_555
Cl6 C35 1_555 1_555
O1 C30 1_555 1_555
O2 C30 1_555 1_555
O3 C7 1_555 1_555
O4 C5 1_555 1_555
O5 C4 1_555 1_555
O6 C21 1_555 1_555
O7 C2 1_555 1_555
O8 C23 1_555 1_555
O9 H1 1_555 1_555
O10 H2 1_555 1_555
O11 C10 1_555 1_555
O12 C33 1_555 1_555
O13 C33 1_555 1_555
O14 C9 1_555 1_555
C1 O9 1_555 1_555
C2 C1 1_555 1_555
H3 C2 1_555 1_555
C3 C2 1_555 1_555
H4 C3 1_555 1_555
C4 C3 1_555 1_555
C5 C4 1_555 1_555
H5 C5 1_555 1_555
C6 C5 1_555 1_555
H6 C6 1_555 1_555
H7 C6 1_555 1_555
C7 C6 1_555 1_555
H8 C7 1_555 1_555
C8 C3 1_555 1_555
C9 C8 1_555 1_555
C10 C9 1_555 1_555
H9 C10 1_555 1_555
C11 C10 1_555 1_555
C12 C11 1_555 1_555
C13 O10 1_555 1_555
H10 C13 1_555 1_555
C14 C1 1_555 1_555
H11 C14 1_555 1_555
H12 C14 1_555 1_555
C15 C1 1_555 1_555
C16 C15 1_555 1_555
H13 C16 1_555 1_555
H14 C16 1_555 1_555
H15 C16 1_555 1_555
C17 C15 1_555 1_555
H16 C17 1_555 1_555
H17 C17 1_555 1_555
H18 C17 1_555 1_555
C18 C12 1_555 1_555
H19 C18 1_555 1_555
H20 C18 1_555 1_555
H21 C18 1_555 1_555
C19 C8 1_555 1_555
H22 C19 1_555 1_555
H23 C19 1_555 1_555
H24 C19 1_555 1_555
C20 O4 1_555 1_555
H25 C20 1_555 1_555
H26 C20 1_555 1_555
C21 O5 1_555 1_555
C22 C21 1_555 1_555
H27 C22 1_555 1_555
H28 C22 1_555 1_555
H29 C22 1_555 1_555
C23 O7 1_555 1_555
C24 C23 1_555 1_555
C25 C24 1_555 1_555
H30 C25 1_555 1_555
C26 C25 1_555 1_555
H31 C26 1_555 1_555
C27 C26 1_555 1_555
H32 C27 1_555 1_555
C28 C27 1_555 1_555
H33 C28 1_555 1_555
C29 C24 1_555 1_555
H34 C29 1_555 1_555
C30 O3 1_555 1_555
C31 O1 1_555 1_555
H35 C31 1_555 1_555
H36 C31 1_555 1_555
C32 C31 1_555 1_555
C33 O11 1_555 1_555
C34 O13 1_555 1_555
H37 C34 1_555 1_555
H38 C34 1_555 1_555
C35 C34 1_555 1_555
O15 C37 1_555 1_555
O16 C37 1_555 1_555
C36 H39 1_555 1_555
H40 C36 1_555 1_555
H41 C36 1_555 1_555
C37 C36 1_555 1_555
C38 O16 1_555 1_555
H42 C38 1_555 1_555
H43 C38 1_555 1_555
C39 C38 1_555 1_555
H44 C39 1_555 1_555
H45 C39 1_555 1_555
H46 C39 1_555 1_555
H47 O17 1_555 1_555
H48 O17 1_555 1_555
C4 C20 1_555 1_555
C7 C8 1_555 1_555
C11 C15 1_555 1_555
C12 C13 1_555 1_555
C13 C14 1_555 1_555
C28 C29 1_555 1_555

#END
