
#######################################################################
#
#                 Cambridge Crystallographic Data Centre
#                                CCDC 
#
#######################################################################
#
# If this CIF has been generated from an entry in the Cambridge 
# Structural Database, then it will include bibliographic, chemical, 
# crystal, experimental, refinement or atomic coordinate data resulting 
# from the CCDC's data processing and validation procedures.
#
#######################################################################

data_YOTKAU
_chemical_formula_moiety         'C12 H11 N3 O3 S1,H2 O1'
_chemical_name_systematic        
"N'-(Phenylsulfonyl)isonicotinohydrazide monohydrate"
_symmetry_cell_setting           monoclinic
_symmetry_space_group_name_H-M   'P 21/n'
_symmetry_Int_Tables_number      14
_space_group_name_Hall           '-P 2yn'
loop_
_symmetry_equiv_pos_site_id
_symmetry_equiv_pos_as_xyz
1 x,y,z
2 1/2-x,1/2+y,1/2-z
3 -x,-y,-z
4 1/2+x,1/2-y,1/2+z
_cell_length_a                   7.3525(5)
_cell_length_b                   20.9324(15)
_cell_length_c                   9.2443(6)
_cell_angle_alpha                90
_cell_angle_beta                 107.565(2)
_cell_angle_gamma                90
_cell_volume                     1356.41
_exptl_crystal_colour            colorless
_exptl_crystal_description       block
_cell_formula_units_Z            4
_exptl_crystal_recrystallization_method ethanol
loop_
_atom_site_label
_atom_site_type_symbol
_atom_site_fract_x
_atom_site_fract_y
_atom_site_fract_z
C1 C 0.5180(5) 0.38868(12) 0.1480(3)
H1 H 0.4780 0.3769 0.0463
C2 C 0.5608(5) 0.45147(13) 0.1899(3)
H2 H 0.5523 0.4810 0.1131
C3 C 0.6284(4) 0.42875(11) 0.4392(3)
H3 H 0.6653 0.4420 0.5399
C4 C 0.5927(3) 0.36459(11) 0.4100(2)
H4 H 0.6065 0.3359 0.4894
C5 C 0.5361(3) 0.34348(10) 0.2611(2)
C6 C 0.4884(3) 0.27532(10) 0.2125(2)
C7 C 0.4594(3) 0.13874(10) 0.5560(3)
C8 C 0.4371(3) 0.19677(11) 0.6218(3)
H5 H 0.3844 0.2317 0.5616
C9 C 0.4947(4) 0.20161(12) 0.7788(3)
H6 H 0.4826 0.2403 0.8246
C10 C 0.5702(4) 0.14896(14) 0.8673(3)
H7 H 0.6066 0.1523 0.9725
C11 C 0.5917(4) 0.09153(13) 0.8006(3)
H8 H 0.6426 0.0565 0.8611
C12 C 0.5379(4) 0.08587(12) 0.6439(3)
H9 H 0.5540 0.0475 0.5986
N1 N 0.6133(3) 0.47292(9) 0.3323(2)
N2 N 0.5685(3) 0.23082(8) 0.31946(19)
H10 H 0.6398 0.2425 0.4075
N3 N 0.5352(3) 0.16619(9) 0.2867(2)
H11 H 0.5925 0.1458 0.2324
O1 O 0.3873(2) 0.26165(8) 0.08506(16)
O2 O 0.2057(2) 0.16569(8) 0.30300(19)
O3 O 0.3881(3) 0.06518(8) 0.31658(19)
S1 S 0.38198(8) 0.13081(3) 0.35666(6)
H12 H 0.942(6) 0.1209(16) 0.248(4)
H13 H 0.849(5) 0.0671(18) 0.196(4)
O4 O 0.8432(3) 0.10382(10) 0.2345(2)
loop_
_geom_bond_atom_site_label_1
_geom_bond_atom_site_label_2
_geom_bond_site_symmetry_1
_geom_bond_site_symmetry_2
C1 H1 1_555 1_555
C2 C1 1_555 1_555
H2 C2 1_555 1_555
C3 H3 1_555 1_555
C4 C3 1_555 1_555
H4 C4 1_555 1_555
C5 C1 1_555 1_555
C6 C5 1_555 1_555
C7 C8 1_555 1_555
C8 H5 1_555 1_555
C9 C8 1_555 1_555
H6 C9 1_555 1_555
C10 C9 1_555 1_555
H7 C10 1_555 1_555
C11 C10 1_555 1_555
H8 C11 1_555 1_555
C12 C7 1_555 1_555
H9 C12 1_555 1_555
N1 C2 1_555 1_555
N2 C6 1_555 1_555
H10 N2 1_555 1_555
N3 N2 1_555 1_555
H11 N3 1_555 1_555
O1 C6 1_555 1_555
O2 S1 1_555 1_555
O3 S1 1_555 1_555
S1 C7 1_555 1_555
H12 O4 1_555 1_555
H13 O4 1_555 1_555
C3 N1 1_555 1_555
C4 C5 1_555 1_555
C11 C12 1_555 1_555
N3 S1 1_555 1_555

#END
