
#######################################################################
#
#                 Cambridge Crystallographic Data Centre
#                                CCDC 
#
#######################################################################
#
# If this CIF has been generated from an entry in the Cambridge 
# Structural Database, then it will include bibliographic, chemical, 
# crystal, experimental, refinement or atomic coordinate data resulting 
# from the CCDC's data processing and validation procedures.
#
#######################################################################

data_YOTKOI
_chemical_formula_moiety         'C16 H15 N3 O2,H2 O1'
_chemical_name_systematic        
'3,5-bis(4-Methoxyphenyl)-1H-1,2,4-triazole monohydrate'
_symmetry_cell_setting           triclinic
_symmetry_space_group_name_H-M   'P -1'
_symmetry_Int_Tables_number      2
_space_group_name_Hall           '-P 1'
loop_
_symmetry_equiv_pos_site_id
_symmetry_equiv_pos_as_xyz
1 x,y,z
2 -x,-y,-z
_cell_length_a                   6.9948(18)
_cell_length_b                   11.125(3)
_cell_length_c                   11.184(3)
_cell_angle_alpha                110.603(4)
_cell_angle_beta                 107.932(3)
_cell_angle_gamma                95.690(4)
_cell_volume                     753.74
_exptl_crystal_colour            colorless
_exptl_crystal_description       block
_cell_formula_units_Z            2
_exptl_crystal_recrystallization_method ethanol
loop_
_atom_site_label
_atom_site_type_symbol
_atom_site_fract_x
_atom_site_fract_y
_atom_site_fract_z
C1 C 1.3626(4) 0.5268(3) 0.8502(3)
H1 H 1.4171 0.4539 0.8091
H2 H 1.4672 0.5887 0.9349
H3 H 1.3199 0.5696 0.7886
C2 C 1.0219(3) 0.3942(2) 0.7668(2)
C3 C 0.8500(3) 0.3622(2) 0.7965(2)
H4 H 0.8550 0.3978 0.8864
C4 C 0.6729(3) 0.27787(19) 0.6928(2)
H5 H 0.5585 0.2571 0.7137
C5 C 0.6599(3) 0.22255(18) 0.55736(19)
C6 C 0.8338(3) 0.2549(2) 0.5307(2)
H6 H 0.8292 0.2193 0.4409
C7 C 1.0141(3) 0.3388(2) 0.6341(2)
H7 H 1.1300 0.3576 0.6138
C8 C 0.4703(3) 0.13404(18) 0.44671(18)
C9 C 0.2616(3) 0.00131(18) 0.24816(19)
C10 C 0.1682(3) -0.08505(18) 0.10190(19)
C11 C 0.2847(3) -0.0918(2) 0.0197(2)
H8 H 0.4199 -0.0417 0.0587
C12 C 0.2030(3) -0.1712(2) -0.1177(2)
H9 H 0.2828 -0.1741 -0.1711
C13 C 0.0040(3) -0.2468(2) -0.1776(2)
C14 C -0.1137(3) -0.2420(2) -0.0979(2)
H10 H -0.2481 -0.2932 -0.1372
C15 C -0.0313(3) -0.1610(2) 0.0403(2)
H11 H -0.1121 -0.1576 0.0932
C16 C -0.2664(4) -0.4015(2) -0.3827(2)
H12 H -0.2851 -0.4629 -0.3425
H13 H -0.2915 -0.4491 -0.4783
H14 H -0.3617 -0.3455 -0.3735
N1 N 0.2943(2) 0.10899(16) 0.46420(16)
N2 N 0.1636(2) 0.02456(16) 0.33612(16)
H15 H 0.0354 -0.0092 0.3148
N3 N 0.4569(2) 0.06990(15) 0.31449(15)
O1 O -0.0613(2) -0.32325(16) -0.31464(15)
O2 O 1.1911(2) 0.48023(16) 0.87639(15)
O3 O 0.2326(2) 0.08148(15) 0.69915(14)
H16 H 0.2339 0.1008 0.6215
H17 H 0.3314 0.0294 0.7142
loop_
_geom_bond_atom_site_label_1
_geom_bond_atom_site_label_2
_geom_bond_site_symmetry_1
_geom_bond_site_symmetry_2
C1 H1 1_555 1_555
H2 C1 1_555 1_555
H3 C1 1_555 1_555
C2 C3 1_555 1_555
C3 H4 1_555 1_555
C4 C3 1_555 1_555
H5 C4 1_555 1_555
C5 C4 1_555 1_555
C6 C5 1_555 1_555
H6 C6 1_555 1_555
C7 C2 1_555 1_555
H7 C7 1_555 1_555
C8 C5 1_555 1_555
C9 C10 1_555 1_555
C10 C11 1_555 1_555
C11 H8 1_555 1_555
C12 C11 1_555 1_555
H9 C12 1_555 1_555
C13 C12 1_555 1_555
C14 C13 1_555 1_555
H10 C14 1_555 1_555
C15 C10 1_555 1_555
H11 C15 1_555 1_555
C16 H12 1_555 1_555
H13 C16 1_555 1_555
H14 C16 1_555 1_555
N1 C8 1_555 1_555
N2 C9 1_555 1_555
H15 N2 1_555 1_555
N3 C8 1_555 1_555
O1 C13 1_555 1_555
O2 C1 1_555 1_555
O3 H16 1_555 1_555
H17 O3 1_555 1_555
C2 O2 1_555 1_555
C6 C7 1_555 1_555
C9 N3 1_555 1_555
C14 C15 1_555 1_555
C16 O1 1_555 1_555
N1 N2 1_555 1_555

#END
