
#######################################################################
#
#                 Cambridge Crystallographic Data Centre
#                                CCDC 
#
#######################################################################
#
# If this CIF has been generated from an entry in the Cambridge 
# Structural Database, then it will include bibliographic, chemical, 
# crystal, experimental, refinement or atomic coordinate data resulting 
# from the CCDC's data processing and validation procedures.
#
#######################################################################

data_YOTLOJ
_chemical_formula_moiety         'C14 H12 N2 O2,0.33(C3 H7 N1 O1)'
_chemical_name_systematic        
'1,2-Dibenzoylhydrazine N,N-dimethylformamide solvate'
_symmetry_cell_setting           triclinic
_symmetry_space_group_name_H-M   'P -1'
_symmetry_Int_Tables_number      2
_space_group_name_Hall           '-P 1'
loop_
_symmetry_equiv_pos_site_id
_symmetry_equiv_pos_as_xyz
1 x,y,z
2 -x,-y,-z
_cell_length_a                   10.7666(12)
_cell_length_b                   11.4615(13)
_cell_length_c                   18.100(2)
_cell_angle_alpha                100.127(2)
_cell_angle_beta                 96.084(2)
_cell_angle_gamma                108.382(3)
_cell_volume                     2055.18
_exptl_crystal_colour            colorless
_exptl_crystal_description       needle
_cell_formula_units_Z            6
_exptl_crystal_recrystallization_method ethanol
loop_
_atom_site_label
_atom_site_type_symbol
_atom_site_fract_x
_atom_site_fract_y
_atom_site_fract_z
N1 N 0.1213(7) 0.7581(6) 0.2502(4)
H1 H 0.0827 0.8132 0.2585
N2 N 0.1953(7) 0.7353(7) 0.3099(4)
H2 H 0.1642 0.6671 0.3257
O1 O 0.1675(7) 0.6159(6) 0.1659(3)
O2 O 0.3604(6) 0.9179(6) 0.3238(3)
C1 C 0.1106(9) 0.6927(8) 0.1791(5)
C2 C 0.0228(9) 0.7136(8) 0.1180(5)
C3 C 0.0276(11) 0.6610(10) 0.0446(6)
H7 H 0.0873 0.6187 0.0359
C4 C -0.0520(15) 0.6694(11) -0.0146(6)
H8 H -0.0452 0.6346 -0.0638
C5 C -0.1417(14) 0.7274(14) -0.0044(7)
H9 H -0.1977 0.7307 -0.0462
C6 C -0.1506(11) 0.7816(12) 0.0676(8)
H10 H -0.2132 0.8208 0.0753
C7 C -0.0630(10) 0.7770(10) 0.1300(6)
H11 H -0.0642 0.8173 0.1791
C8 C 0.3152(9) 0.8189(8) 0.3433(4)
C9 C 0.3875(8) 0.7849(8) 0.4068(4)
C10 C 0.3335(9) 0.6761(9) 0.4323(5)
H12 H 0.2486 0.6210 0.4099
C11 C 0.4055(10) 0.6491(11) 0.4910(5)
H13 H 0.3709 0.5739 0.5066
C12 C 0.5278(11) 0.7334(12) 0.5261(6)
H14 H 0.5746 0.7186 0.5676
C13 C 0.5791(11) 0.8381(12) 0.4996(7)
H15 H 0.6642 0.8930 0.5217
C14 C 0.5094(9) 0.8667(10) 0.4404(5)
H16 H 0.5459 0.9409 0.4242
N3 N 0.1123(6) 0.3584(6) 0.2436(4)
H3 H 0.0958 0.2827 0.2184
N4 N 0.2312(6) 0.4518(6) 0.2435(4)
H4 H 0.2316 0.5089 0.2184
O3 O 0.0421(6) 0.4918(6) 0.3186(4)
O4 O 0.3487(5) 0.3746(6) 0.3198(3)
C15 C 0.0250(8) 0.3862(9) 0.2823(5)
C16 C -0.1008(8) 0.2810(8) 0.2787(5)
C17 C -0.1390(9) 0.1684(10) 0.2308(6)
H17 H -0.0848 0.1536 0.1962
C18 C -0.2547(12) 0.0737(11) 0.2306(8)
H18 H -0.2788 -0.0021 0.1949
C19 C -0.3312(12) 0.0886(12) 0.2797(7)
H19 H -0.4076 0.0225 0.2805
C20 C -0.2992(11) 0.2016(14) 0.3301(7)
H20 H -0.3558 0.2150 0.3635
C21 C -0.1791(10) 0.2973(11) 0.3306(6)
H21 H -0.1532 0.3726 0.3669
C22 C 0.3466(8) 0.4540(8) 0.2825(5)
C23 C 0.4680(8) 0.5553(8) 0.2778(5)
C24 C 0.5759(9) 0.5837(11) 0.3321(6)
H22 H 0.5733 0.5376 0.3697
C25 C 0.6887(10) 0.6805(12) 0.3313(7)
H23 H 0.7604 0.7021 0.3706
C26 C 0.7002(11) 0.7455(12) 0.2764(8)
H24 H 0.7796 0.8080 0.2755
C27 C 0.5919(13) 0.7169(12) 0.2219(8)
H25 H 0.5964 0.7615 0.1834
C28 C 0.4764(10) 0.6236(11) 0.2228(6)
H26 H 0.4027 0.6064 0.1856
N5 N 0.1935(7) 0.1264(6) 0.3108(4)
H5 H 0.2342 0.2062 0.3268
N6 N 0.2322(7) 0.0597(6) 0.2525(4)
H6 H 0.2766 0.0117 0.2619
O5 O 0.0327(6) -0.0487(6) 0.3225(3)
O6 O 0.1339(7) 0.1356(6) 0.1664(3)
C29 C 0.0926(8) 0.0672(9) 0.3427(5)
C30 C 0.0563(8) 0.1458(8) 0.4058(4)
C31 C 0.1238(9) 0.2727(9) 0.4328(5)
H27 H 0.1956 0.3129 0.4112
C32 C 0.0865(10) 0.3404(11) 0.4910(6)
H28 H 0.1310 0.4268 0.5074
C33 C -0.0139(11) 0.2833(13) 0.5246(6)
H29 H -0.0357 0.3295 0.5656
C34 C -0.0833(14) 0.1591(14) 0.4992(7)
H30 H -0.1546 0.1204 0.5217
C35 C -0.0472(10) 0.0886(10) 0.4387(6)
H31 H -0.0943 0.0029 0.4212
C36 C 0.2001(9) 0.0699(8) 0.1802(5)
C37 C 0.2514(9) 0.0059(8) 0.1209(5)
C38 C 0.3468(10) -0.0487(10) 0.1344(6)
H32 H 0.3815 -0.0460 0.1842
C39 C 0.3899(14) -0.1055(13) 0.0763(9)
H33 H 0.4526 -0.1435 0.0861
C40 C 0.342(2) -0.1079(14) 0.0027(10)
H34 H 0.3763 -0.1423 -0.0373
C41 C 0.2433(19) -0.0595(15) -0.0117(7)
H35 H 0.2061 -0.0657 -0.0617
C42 C 0.2011(12) -0.0039(10) 0.0458(6)
H36 H 0.1351 0.0300 0.0352
N7 N 0.380(3) 0.619(2) 0.8906(19)
O7 O 0.5384(19) 0.6803(19) 1.0039(13)
C43 C 0.410(3) 0.596(3) 0.962(2)
H37 H 0.3533 0.5326 0.9804
C44 C 0.486(3) 0.704(2) 0.8626(15)
H38 H 0.4908 0.7890 0.8813
H39 H 0.4685 0.6839 0.8079
H40 H 0.5690 0.6944 0.8802
C45 C 0.252(3) 0.556(2) 0.8505(16)
H41 H 0.2029 0.4992 0.8783
H42 H 0.2558 0.5102 0.8015
H43 H 0.2096 0.6168 0.8438
loop_
_geom_bond_atom_site_label_1
_geom_bond_atom_site_label_2
_geom_bond_site_symmetry_1
_geom_bond_site_symmetry_2
N1 H1 1_555 1_555
N2 N1 1_555 1_555
H2 N2 1_555 1_555
N3 H3 1_555 1_555
N4 N3 1_555 1_555
H4 N4 1_555 1_555
N5 H5 1_555 1_555
N6 N5 1_555 1_555
H6 N6 1_555 1_555
N7 C43 1_555 1_555
O1 C1 1_555 1_555
O2 C8 1_555 1_555
O3 C15 1_555 1_555
O4 C22 1_555 1_555
O5 C29 1_555 1_555
O6 C36 1_555 1_555
O7 C43 1_555 1_555
C1 N1 1_555 1_555
C2 C1 1_555 1_555
C3 C2 1_555 1_555
H7 C3 1_555 1_555
C4 C3 1_555 1_555
H8 C4 1_555 1_555
C5 C4 1_555 1_555
H9 C5 1_555 1_555
C6 C5 1_555 1_555
H10 C6 1_555 1_555
C7 C2 1_555 1_555
H11 C7 1_555 1_555
C8 N2 1_555 1_555
C9 C8 1_555 1_555
C10 C9 1_555 1_555
H12 C10 1_555 1_555
C11 C10 1_555 1_555
H13 C11 1_555 1_555
C12 C11 1_555 1_555
H14 C12 1_555 1_555
C13 C12 1_555 1_555
H15 C13 1_555 1_555
C14 C9 1_555 1_555
H16 C14 1_555 1_555
C15 N3 1_555 1_555
C16 C15 1_555 1_555
C17 C16 1_555 1_555
H17 C17 1_555 1_555
C18 C17 1_555 1_555
H18 C18 1_555 1_555
C19 C18 1_555 1_555
H19 C19 1_555 1_555
C20 C19 1_555 1_555
H20 C20 1_555 1_555
C21 C16 1_555 1_555
H21 C21 1_555 1_555
C22 N4 1_555 1_555
C23 C22 1_555 1_555
C24 C23 1_555 1_555
H22 C24 1_555 1_555
C25 C24 1_555 1_555
H23 C25 1_555 1_555
C26 C25 1_555 1_555
H24 C26 1_555 1_555
C27 C26 1_555 1_555
H25 C27 1_555 1_555
C28 C23 1_555 1_555
H26 C28 1_555 1_555
C29 N5 1_555 1_555
C30 C29 1_555 1_555
C31 C30 1_555 1_555
H27 C31 1_555 1_555
C32 C31 1_555 1_555
H28 C32 1_555 1_555
C33 C32 1_555 1_555
H29 C33 1_555 1_555
C34 C33 1_555 1_555
H30 C34 1_555 1_555
C35 C30 1_555 1_555
H31 C35 1_555 1_555
C36 N6 1_555 1_555
C37 C36 1_555 1_555
C38 C37 1_555 1_555
H32 C38 1_555 1_555
C39 C38 1_555 1_555
H33 C39 1_555 1_555
C40 C39 1_555 1_555
H34 C40 1_555 1_555
C41 C40 1_555 1_555
H35 C41 1_555 1_555
C42 C37 1_555 1_555
H36 C42 1_555 1_555
C43 H37 1_555 1_555
C44 N7 1_555 1_555
H38 C44 1_555 1_555
H39 C44 1_555 1_555
H40 C44 1_555 1_555
C45 N7 1_555 1_555
H41 C45 1_555 1_555
H42 C45 1_555 1_555
H43 C45 1_555 1_555
C6 C7 1_555 1_555
C13 C14 1_555 1_555
C20 C21 1_555 1_555
C27 C28 1_555 1_555
C34 C35 1_555 1_555
C41 C42 1_555 1_555

#END
