
#######################################################################
#
#                 Cambridge Crystallographic Data Centre
#                                CCDC 
#
#######################################################################
#
# If this CIF has been generated from an entry in the Cambridge 
# Structural Database, then it will include bibliographic, chemical, 
# crystal, experimental, refinement or atomic coordinate data resulting 
# from the CCDC's data processing and validation procedures.
#
#######################################################################

data_YOTMIF
_chemical_formula_moiety         'C58 H58 N6 O4,2(C6 H4 Cl2)'
_chemical_name_systematic        
"1,3,8,10-tetraoxo-2,9-bis(tridecan-7-yl)-1,2,3,8,9,10-hexahydroisoquinolino[7',6',5',4':6,7,8]perylo[2,1,12-defg]isoquinoline-5,6,12,13-tetracarbonitrile 1,2-dichlorobenzene solvate"
_symmetry_cell_setting           triclinic
_symmetry_space_group_name_H-M   'P -1'
_symmetry_Int_Tables_number      2
_space_group_name_Hall           '-P 1'
loop_
_symmetry_equiv_pos_site_id
_symmetry_equiv_pos_as_xyz
1 x,y,z
2 -x,-y,-z
_cell_length_a                   10.963(2)
_cell_length_b                   10.985(2)
_cell_length_c                   15.643(3)
_cell_angle_alpha                94.45(3)
_cell_angle_beta                 104.45(3)
_cell_angle_gamma                119.51(3)
_cell_volume                     1542.02
_exptl_crystal_colour            yellow
_exptl_crystal_description       block
_cell_formula_units_Z            1
loop_
_atom_site_label
_atom_site_type_symbol
_atom_site_fract_x
_atom_site_fract_y
_atom_site_fract_z
O1 O 0.9900(2) 0.8938(2) 0.87469(12)
O2 O 1.4456(2) 1.0578(2) 0.84771(12)
N1 N 0.4888(3) 0.8062(3) 0.66489(18)
N2 N 0.3378(2) 0.8152(3) 0.40880(17)
N3 N 1.2184(2) 0.9748(2) 0.86316(12)
C1 C 1.0701(3) 0.9352(3) 0.82914(15)
C2 C 1.0134(2) 0.9441(2) 0.73380(14)
C3 C 0.8676(2) 0.9044(2) 0.69755(15)
H1 H 0.8052 0.8732 0.7331
C4 C 0.8105(2) 0.9100(2) 0.60671(14)
C5 C 0.6601(2) 0.8722(2) 0.56724(15)
C6 C 0.6066(2) 0.8761(2) 0.47763(15)
C7 C 0.6995(2) 0.9189(2) 0.42203(14)
C8 C 0.8483(2) 0.95824(19) 0.46143(13)
C9 C 0.9038(2) 0.9546(2) 0.55293(13)
C10 C 1.0550(2) 0.99613(19) 0.59122(12)
C11 C 1.1092(2) 0.9907(2) 0.68176(14)
C12 C 1.2594(2) 1.0314(2) 0.71955(14)
C13 C 1.3173(3) 1.0236(3) 0.81467(16)
C14 C 1.3522(2) 1.0746(2) 0.66898(15)
H2 H 1.4512 1.1002 0.6948
C15 C 0.5643(3) 0.8340(3) 0.62160(17)
C16 C 0.4556(3) 0.8401(3) 0.43964(17)
C17 C 1.2758(3) 0.9586(3) 0.95716(15)
H3 H 1.3800 0.9880 0.9702
C18 C 1.2075(5) 0.8047(4) 0.9629(3)
H4 H 1.1085 0.7703 0.9670
H5 H 1.2676 0.8005 1.0193
C19 C 1.1925(7) 0.7019(5) 0.8840(3)
H6 H 1.1268 0.7000 0.8277
H7 H 1.2903 0.7378 0.8774
C20 C 1.1305(11) 0.5492(6) 0.8974(6)
H8 H 1.0350 0.5142 0.9072
H9 H 1.1991 0.5492 0.9514
C21 C 1.1089(8) 0.4472(5) 0.8125(4)
H10 H 1.0281 0.4361 0.7616
H11 H 1.1996 0.4939 0.7964
C22 C 1.0740(8) 0.2987(5) 0.8231(5)
H12 H 1.1478 0.3064 0.8773
H13 H 1.0758 0.2471 0.7699
C23 C 0.9202(12) 0.2189(9) 0.8319(10)
H14 H 0.8525 0.1387 0.7794
H15 H 0.8849 0.2839 0.8354
H16 H 0.9251 0.1830 0.8866
C24 C 1.2873(5) 1.0611(4) 1.0320(2)
H17 H 1.3423 1.0553 1.0899
H18 H 1.1868 1.0284 1.0328
C25 C 1.3611(8) 1.2167(5) 1.0274(4)
H19 H 1.3062 1.2250 0.9706
H20 H 1.4624 1.2518 1.0275
C26 C 1.3665(6) 1.3101(5) 1.1081(3)
H21 H 1.2651 1.2726 1.1087
H22 H 1.4227 1.3022 1.1646
C27 C 1.4373(9) 1.4684(5) 1.1060(5)
H23 H 1.5422 1.5086 1.1128
H24 H 1.3889 1.4753 1.0464
C28 C 1.4274(8) 1.5591(6) 1.1789(5)
H25 H 1.4739 1.5487 1.2378
H26 H 1.4885 1.6600 1.1772
C29 C 1.2789(9) 1.5317(9) 1.1771(6)
H27 H 1.2913 1.5972 1.2285
H28 H 1.2166 1.4331 1.1807
H29 H 1.2323 1.5469 1.1211
O1A O 1.0100(2) 1.1062(2) 0.12531(12)
O2A O 0.5544(2) 0.9422(2) 0.15229(12)
N1A N 1.5112(3) 1.1938(3) 0.33511(18)
N2A N 1.6622(2) 1.1848(3) 0.59120(17)
N3A N 0.7816(2) 1.0252(2) 0.13684(12)
C1A C 0.9299(3) 1.0648(3) 0.17086(15)
C2A C 0.9866(2) 1.0559(2) 0.26620(14)
C3A C 1.1324(2) 1.0956(2) 0.30245(15)
H1A H 1.1948 1.1268 0.2669
C4A C 1.1895(2) 1.0900(2) 0.39329(14)
C5A C 1.3399(2) 1.1278(2) 0.43276(15)
C6A C 1.3934(2) 1.1239(2) 0.52237(15)
C7A C 1.3005(2) 1.0811(2) 0.57797(14)
C8A C 1.1517(2) 1.04176(19) 0.53857(13)
C9A C 1.0962(2) 1.0454(2) 0.44707(13)
C10A C 0.9450(2) 1.00387(19) 0.40878(12)
C11A C 0.8908(2) 1.0093(2) 0.31824(14)
C12A C 0.7406(2) 0.9686(2) 0.28045(14)
C13A C 0.6827(3) 0.9764(3) 0.18533(16)
C14A C 0.6478(2) 0.9254(2) 0.33102(15)
H2A H 0.5488 0.8998 0.3052
C15A C 1.4357(3) 1.1660(3) 0.37840(17)
C16A C 1.5444(3) 1.1599(3) 0.56036(17)
C17A C 0.7242(3) 1.0414(3) 0.04284(15)
H3A H 0.6200 1.0120 0.0298
C18A C 0.7925(5) 1.1953(4) 0.0371(3)
H4A H 0.8915 1.2297 0.0330
H5A H 0.7324 1.1995 -0.0193
C19A C 0.8075(7) 1.2981(5) 0.1160(3)
H6A H 0.8732 1.3000 0.1723
H7A H 0.7097 1.2622 0.1226
C20A C 0.8695(11) 1.4508(6) 0.1026(6)
H8A H 0.9650 1.4858 0.0928
H9A H 0.8009 1.4508 0.0486
C21A C 0.8911(8) 1.5528(5) 0.1875(4)
H10A H 0.9719 1.5639 0.2384
H11A H 0.8004 1.5061 0.2036
C22A C 0.9260(8) 1.7013(5) 0.1769(5)
H12A H 0.8522 1.6936 0.1227
H13A H 0.9242 1.7529 0.2301
C23A C 1.0798(12) 1.7811(9) 0.1681(10)
H14A H 1.1475 1.8613 0.2206
H15A H 1.1151 1.7161 0.1646
H16A H 1.0749 1.8170 0.1134
C24A C 0.7127(5) 0.9389(4) -0.0320(2)
H17A H 0.6577 0.9447 -0.0899
H18A H 0.8132 0.9716 -0.0328
C25A C 0.6389(8) 0.7833(5) -0.0274(4)
H19A H 0.6938 0.7750 0.0294
H20A H 0.5376 0.7482 -0.0275
C26A C 0.6335(6) 0.6899(5) -0.1081(3)
H21A H 0.7349 0.7274 -0.1087
H22A H 0.5773 0.6978 -0.1646
C27A C 0.5627(9) 0.5316(5) -0.1060(5)
H23A H 0.4578 0.4914 -0.1128
H24A H 0.6111 0.5247 -0.0464
C28A C 0.5726(8) 0.4409(6) -0.1789(5)
H25A H 0.5261 0.4513 -0.2378
H26A H 0.5115 0.3400 -0.1772
C29A C 0.7211(9) 0.4683(9) -0.1771(6)
H27A H 0.7087 0.4028 -0.2285
H28A H 0.7834 0.5669 -0.1807
H29A H 0.7677 0.4531 -0.1211
Cl1 Cl 0.33844(8) 0.47356(9) 0.43948(8)
Cl2 Cl 0.27495(13) 0.40101(10) 0.62107(7)
C42 C 0.1358(3) 0.3760(3) 0.5273(2)
C43 C -0.0078(4) 0.3222(3) 0.5303(2)
H57 H -0.0285 0.2994 0.5837
C44 C -0.1173(3) 0.3028(3) 0.4567(2)
H58 H -0.2135 0.2660 0.4595
C45 C -0.0904(3) 0.3357(3) 0.3788(2)
H59 H -0.1675 0.3228 0.3286
C46 C 0.0522(3) 0.3889(3) 0.3730(2)
H60 H 0.0713 0.4112 0.3192
C47 C 0.1634(3) 0.4079(3) 0.4475(2)
H30? H 1.1860 0.9257 0.9738
C30? C 1.2795(14) 0.8248(9) 0.9521(9)
H31? H 1.3134 0.8170 1.0145
H32? H 1.3550 0.8368 0.9249
C31? C 1.1367(13) 0.6820(12) 0.8998(10)
H33? H 1.0967 0.6875 0.8378
H34? H 1.0622 0.6606 0.9297
C32? C 1.172(2) 0.5629(13) 0.8974(18)
H35? H 1.2153 0.5598 0.9594
H36? H 1.2436 0.5823 0.8655
C33? C 1.026(2) 0.4174(15) 0.8475(16)
H37? H 0.9434 0.4241 0.8557
H38? H 1.0120 0.4034 0.7824
C34? C 1.014(2) 0.2829(18) 0.8768(17)
H39? H 1.0923 0.2692 0.8679
H40? H 1.0191 0.2879 0.9405
C35? C 0.860(3) 0.163(2) 0.812(2)
H41? H 0.8664 0.1409 0.7530
H42? H 0.7911 0.1955 0.8069
H43? H 0.8255 0.0780 0.8364
C36? C 1.3749(12) 1.0973(8) 1.0270(6)
H44? H 1.4699 1.1464 1.0157
H45? H 1.3944 1.0737 1.0860
C37? C 1.3299(18) 1.2051(14) 1.0370(14)
H46? H 1.2428 1.1638 1.0570
H47? H 1.3015 1.2250 0.9777
C38? C 1.4561(14) 1.3488(12) 1.1062(8)
H48? H 1.4874 1.3330 1.1665
H49? H 1.5423 1.3973 1.0858
C39? C 1.380(2) 1.4355(19) 1.1066(11)
H50? H 1.4441 1.5311 1.0978
H51? H 1.2865 1.3866 1.0553
C40? C 1.347(2) 1.453(2) 1.1942(13)
H52? H 1.2511 1.3679 1.1888
H53? H 1.4230 1.4541 1.2440
C41? C 1.343(4) 1.585(3) 1.220(2)
H54? H 1.3094 1.5809 1.2717
H55? H 1.2751 1.5904 1.1687
H56? H 1.4417 1.6703 1.2346
loop_
_geom_bond_atom_site_label_1
_geom_bond_atom_site_label_2
_geom_bond_site_symmetry_1
_geom_bond_site_symmetry_2
O1 C1 1_555 1_555
O2 C13 1_555 1_555
N1 C15 1_555 1_555
N2 C16 1_555 1_555
N3 C1 1_555 1_555
C1 C2 1_555 1_555
C2 C3 1_555 1_555
C3 H1 1_555 1_555
C4 C3 1_555 1_555
C5 C4 1_555 1_555
C6 C5 1_555 1_555
C7 C6 1_555 1_555
C8 C7 1_555 1_555
C9 C4 1_555 1_555
C10 C9 1_555 1_555
C11 C2 1_555 1_555
C12 C11 1_555 1_555
C13 N3 1_555 1_555
C14 C12 1_555 1_555
H2 C14 1_555 1_555
C15 C5 1_555 1_555
C16 C6 1_555 1_555
C17 N3 1_555 1_555
H3 C17 1_555 1_555
C18 C17 1_555 1_555
H4 C18 1_555 1_555
H5 C18 1_555 1_555
C19 C18 1_555 1_555
H6 C19 1_555 1_555
H7 C19 1_555 1_555
C20 C19 1_555 1_555
H8 C20 1_555 1_555
H9 C20 1_555 1_555
C21 C20 1_555 1_555
H10 C21 1_555 1_555
H11 C21 1_555 1_555
C22 C21 1_555 1_555
H12 C22 1_555 1_555
H13 C22 1_555 1_555
C23 C22 1_555 1_555
H14 C23 1_555 1_555
H15 C23 1_555 1_555
H16 C23 1_555 1_555
C24 C17 1_555 1_555
H17 C24 1_555 1_555
H18 C24 1_555 1_555
C25 C24 1_555 1_555
H19 C25 1_555 1_555
H20 C25 1_555 1_555
C26 C25 1_555 1_555
H21 C26 1_555 1_555
H22 C26 1_555 1_555
C27 C26 1_555 1_555
H23 C27 1_555 1_555
H24 C27 1_555 1_555
C28 C27 1_555 1_555
H25 C28 1_555 1_555
H26 C28 1_555 1_555
C29 C28 1_555 1_555
H27 C29 1_555 1_555
H28 C29 1_555 1_555
H29 C29 1_555 1_555
Cl1 C47 1_555 1_555
Cl2 C42 1_555 1_555
C42 C43 1_555 1_555
C43 H57 1_555 1_555
C44 C43 1_555 1_555
H58 C44 1_555 1_555
C45 C44 1_555 1_555
H59 C45 1_555 1_555
C46 C45 1_555 1_555
H60 C46 1_555 1_555
C47 C42 1_555 1_555
O1A C1A 1_555 1_555
O2A C13A 1_555 1_555
N1A C15A 1_555 1_555
N2A C16A 1_555 1_555
N3A C1A 1_555 1_555
C1A C2A 1_555 1_555
C2A C3A 1_555 1_555
C3A H1A 1_555 1_555
C4A C3A 1_555 1_555
C5A C4A 1_555 1_555
C6A C5A 1_555 1_555
C7A C14 1_555 1_555
C8A C10 1_555 1_555
C9A C4A 1_555 1_555
C10A C8 1_555 1_555
C11A C2A 1_555 1_555
C12A C11A 1_555 1_555
C13A N3A 1_555 1_555
C14A C7 1_555 1_555
H2A C14A 1_555 1_555
C15A C5A 1_555 1_555
C16A C6A 1_555 1_555
C17A N3A 1_555 1_555
H3A C17A 1_555 1_555
C18A C17A 1_555 1_555
H4A C18A 1_555 1_555
H5A C18A 1_555 1_555
C19A C18A 1_555 1_555
H6A C19A 1_555 1_555
H7A C19A 1_555 1_555
C20A C19A 1_555 1_555
H8A C20A 1_555 1_555
H9A C20A 1_555 1_555
C21A C20A 1_555 1_555
H10A C21A 1_555 1_555
H11A C21A 1_555 1_555
C22A C21A 1_555 1_555
H12A C22A 1_555 1_555
H13A C22A 1_555 1_555
C23A C22A 1_555 1_555
H14A C23A 1_555 1_555
H15A C23A 1_555 1_555
H16A C23A 1_555 1_555
C24A C17A 1_555 1_555
H17A C24A 1_555 1_555
H18A C24A 1_555 1_555
C25A C24A 1_555 1_555
H19A C25A 1_555 1_555
H20A C25A 1_555 1_555
C26A C25A 1_555 1_555
H21A C26A 1_555 1_555
H22A C26A 1_555 1_555
C27A C26A 1_555 1_555
H23A C27A 1_555 1_555
H24A C27A 1_555 1_555
C28A C27A 1_555 1_555
H25A C28A 1_555 1_555
H26A C28A 1_555 1_555
C29A C28A 1_555 1_555
H27A C29A 1_555 1_555
H28A C29A 1_555 1_555
H29A C29A 1_555 1_555
C8 C9 1_555 1_555
C10 C11 1_555 1_555
C12 C13 1_555 1_555
C46 C47 1_555 1_555
C6A C7A 1_555 1_555
C7A C8A 1_555 1_555
C8A C9A 1_555 1_555
C9A C10A 1_555 1_555
C10A C11A 1_555 1_555
C12A C13A 1_555 1_555
C12A C14A 1_555 1_555

#END
