
#######################################################################
#
#                 Cambridge Crystallographic Data Centre
#                                CCDC 
#
#######################################################################
#
# If this CIF has been generated from an entry in the Cambridge 
# Structural Database, then it will include bibliographic, chemical, 
# crystal, experimental, refinement or atomic coordinate data resulting 
# from the CCDC's data processing and validation procedures.
#
#######################################################################

data_YOTQUU
_chemical_formula_moiety         'C18 H18 N3 O1 1+,F6 P1 1-'
_chemical_name_systematic        
'5-Benzyl-2-phenyl-6,8-dihydro-5H-1,2,4-triazolo[3,4-c][1,4]oxazin-2-ium hexafluorophosphate'
_symmetry_cell_setting           monoclinic
_symmetry_space_group_name_H-M   'P 21'
_symmetry_Int_Tables_number      4
_space_group_name_Hall           'P 2yb'
loop_
_symmetry_equiv_pos_site_id
_symmetry_equiv_pos_as_xyz
1 x,y,z
2 -x,1/2+y,-z
_cell_length_a                   11.4054(13)
_cell_length_b                   8.1243(9)
_cell_length_c                   11.8593(14)
_cell_angle_alpha                90
_cell_angle_beta                 118.678(2)
_cell_angle_gamma                90
_cell_volume                     964.093
_exptl_crystal_colour            colorless
_exptl_crystal_description       parallelepiped
_cell_formula_units_Z            2
_exptl_crystal_recrystallization_method acetone
loop_
_atom_site_label
_atom_site_type_symbol
_atom_site_fract_x
_atom_site_fract_y
_atom_site_fract_z
P1 P 0.79225(6) 0.03833(8) 0.45453(6)
F1 F 0.7113(5) 0.1769(5) 0.4784(7)
F2 F 0.7470(6) -0.0824(7) 0.5298(6)
F3 F 0.8763(5) -0.0945(6) 0.4304(8)
F4 F 0.8458(8) 0.1611(7) 0.3921(7)
F5 F 0.9187(4) 0.0816(12) 0.5876(4)
F6 F 0.6692(5) -0.0133(10) 0.3319(4)
O1 O 0.67186(18) 0.5581(3) 0.70365(16)
N1 N 0.69585(16) 0.5547(3) 0.34299(15)
N2 N 0.59091(18) 0.5715(3) 0.36766(18)
N3 N 0.77918(16) 0.5257(3) 0.54549(15)
C1 C 0.5666(3) 0.6481(4) 0.1230(3)
H1 H 0.5131 0.7093 0.1469
C2 C 0.5404(3) 0.6440(5) -0.0031(3)
H2 H 0.4675 0.7013 -0.0654
C3 C 0.6212(3) 0.5557(5) -0.0376(3)
H3 H 0.6023 0.5529 -0.1231
C4 C 0.7283(3) 0.4729(5) 0.0528(3)
H4 H 0.7841 0.4162 0.0293
C5 C 0.7556(3) 0.4719(4) 0.1800(3)
H5 H 0.8279 0.4132 0.2418
C6 C 0.6733(2) 0.5598(3) 0.2126(2)
C7 C 0.8076(2) 0.5279(4) 0.44951(19)
H6 H 0.8917 0.5132 0.4564
C8 C 0.6451(2) 0.5535(4) 0.4908(2)
C9 C 0.5763(3) 0.5573(6) 0.5721(2)
H7 H 0.5209 0.6550 0.5519
H8 H 0.5190 0.4616 0.5533
C10 C 0.7696(3) 0.4335(4) 0.7317(2)
H9 H 0.7261 0.3313 0.6908
H10 H 0.8187 0.4152 0.8237
C11 C 0.8654(2) 0.4849(3) 0.6834(2)
H11 H 0.9229 0.3914 0.6904
C12 C 0.9534(3) 0.6333(3) 0.7548(2)
H12 H 1.0050 0.6667 0.7133
H13 H 0.8971 0.7250 0.7510
C13 C 1.0474(2) 0.5901(3) 0.8942(2)
C14 C 1.1674(3) 0.5140(4) 0.9300(3)
H14 H 1.1937 0.4904 0.8686
C15 C 1.2500(3) 0.4720(5) 1.0580(4)
H15 H 1.3321 0.4225 1.0819
C16 C 1.2119(3) 0.5024(4) 1.1490(3)
H16 H 1.2674 0.4726 1.2341
C17 C 1.0925(3) 0.5766(4) 1.1146(3)
H17 H 1.0662 0.5973 1.1764
C18 C 1.0103(3) 0.6211(4) 0.9885(3)
H18 H 0.9292 0.6726 0.9660
F7? F 0.767(2) 0.125(3) 0.5475(17)
F8? F 0.6898(13) -0.0908(11) 0.433(2)
F9? F 0.811(3) -0.036(4) 0.350(2)
F10? F 0.8949(12) 0.1741(13) 0.476(2)
F11? F 0.9061(10) -0.069(2) 0.542(2)
F12? F 0.6823(13) 0.138(2) 0.3481(18)
loop_
_geom_bond_atom_site_label_1
_geom_bond_atom_site_label_2
_geom_bond_site_symmetry_1
_geom_bond_site_symmetry_2
P1 F1 1_555 1_555
O1 C9 1_555 1_555
N1 N2 1_555 1_555
N2 C8 1_555 1_555
N3 C7 1_555 1_555
C1 H1 1_555 1_555
C2 C1 1_555 1_555
H2 C2 1_555 1_555
C3 C2 1_555 1_555
H3 C3 1_555 1_555
C4 C3 1_555 1_555
H4 C4 1_555 1_555
C5 C4 1_555 1_555
H5 C5 1_555 1_555
C6 N1 1_555 1_555
C7 N1 1_555 1_555
H6 C7 1_555 1_555
C8 N3 1_555 1_555
C9 C8 1_555 1_555
H7 C9 1_555 1_555
H8 C9 1_555 1_555
C10 O1 1_555 1_555
H9 C10 1_555 1_555
H10 C10 1_555 1_555
C11 N3 1_555 1_555
H11 C11 1_555 1_555
C12 C11 1_555 1_555
H12 C12 1_555 1_555
H13 C12 1_555 1_555
C13 C12 1_555 1_555
C14 C13 1_555 1_555
H14 C14 1_555 1_555
C15 C14 1_555 1_555
H15 C15 1_555 1_555
C16 C15 1_555 1_555
H16 C16 1_555 1_555
C17 C16 1_555 1_555
H17 C17 1_555 1_555
C18 C13 1_555 1_555
H18 C18 1_555 1_555
F2 P1 1_555 1_555
F3 P1 1_555 1_555
F4 P1 1_555 1_555
F5 P1 1_555 1_555
F6 P1 1_555 1_555
C1 C6 1_555 1_555
C5 C6 1_555 1_555
C10 C11 1_555 1_555
C17 C18 1_555 1_555

#END
