
#######################################################################
#
#                 Cambridge Crystallographic Data Centre
#                                CCDC 
#
#######################################################################
#
# If this CIF has been generated from an entry in the Cambridge 
# Structural Database, then it will include bibliographic, chemical, 
# crystal, experimental, refinement or atomic coordinate data resulting 
# from the CCDC's data processing and validation procedures.
#
#######################################################################

data_YOTYIQ
_chemical_formula_moiety         'C16 H13 F1 O2'
_chemical_name_systematic        
3-(4-Fluorophenyl)-1-(4-methoxyphenyl)-2-propen-1-one
_symmetry_cell_setting           orthorhombic
_symmetry_space_group_name_H-M   'P b c a'
_symmetry_Int_Tables_number      61
_space_group_name_Hall           '-P 2ac 2ab'
loop_
_symmetry_equiv_pos_site_id
_symmetry_equiv_pos_as_xyz
1 x,y,z
2 1/2-x,-y,1/2+z
3 -x,1/2+y,1/2-z
4 1/2+x,1/2-y,-z
5 -x,-y,-z
6 1/2+x,y,1/2-z
7 x,1/2-y,1/2+z
8 1/2-x,1/2+y,z
_cell_length_a                   7.457(4)
_cell_length_b                   11.072(6)
_cell_length_c                   31.063(18)
_cell_angle_alpha                90
_cell_angle_beta                 90
_cell_angle_gamma                90
_cell_volume                     2564.68
_exptl_crystal_colour            yellow
_exptl_crystal_description       bar
_cell_formula_units_Z            8
_exptl_crystal_recrystallization_method ethanol
loop_
_atom_site_label
_atom_site_type_symbol
_atom_site_fract_x
_atom_site_fract_y
_atom_site_fract_z
O1 O 0.19197(16) 0.39463(9) 0.32285(3)
O2 O 0.09858(15) 0.57395(10) 0.13185(3)
C1 C 0.15026(17) 0.49647(12) 0.31027(4)
C2 C 0.13654(16) 0.52293(11) 0.26375(4)
C3 C 0.06589(19) 0.56911(13) 0.38189(5)
H1 H 0.0689 0.4883 0.3900
C4 C 0.07845(18) 0.63325(11) 0.24765(4)
H2 H 0.0485 0.6945 0.2668
C5 C 0.10839(18) 0.56345(12) 0.17528(4)
F1 F -0.15021(16) 0.89082(12) 0.50973(3)
C6 C 0.10856(19) 0.59300(12) 0.34157(4)
H3 H 0.1125 0.6731 0.3326
C7 C 0.06382(18) 0.65460(12) 0.20395(4)
H4 H 0.0246 0.7292 0.1939
C8 C 0.0339(2) 0.77956(13) 0.41030(4)
H5 H 0.0854 0.8098 0.3852
C9 C 0.17978(19) 0.43239(12) 0.23404(5)
H6 H 0.2185 0.3575 0.2439
C10 C 0.1660(2) 0.45230(13) 0.19088(5)
H7 H 0.1953 0.3910 0.1717
C11 C 0.01471(18) 0.65509(13) 0.41510(4)
C12 C -0.0214(2) 0.85891(16) 0.44174(5)
H8 H -0.0084 0.9418 0.4381
C13 C -0.0961(2) 0.81261(18) 0.47852(5)
C14 C -0.0617(2) 0.61339(16) 0.45340(5)
H9 H -0.0753 0.5307 0.4576
C15 C 0.0497(2) 0.68788(15) 0.11415(5)
H10 H 0.0469 0.6822 0.0833
H11 H 0.1360 0.7477 0.1226
H12 H -0.0667 0.7106 0.1246
C16 C -0.1175(2) 0.69190(19) 0.48511(5)
H13 H -0.1686 0.6631 0.5104
loop_
_geom_bond_atom_site_label_1
_geom_bond_atom_site_label_2
_geom_bond_site_symmetry_1
_geom_bond_site_symmetry_2
O1 C1 1_555 1_555
O2 C5 1_555 1_555
C1 C2 1_555 1_555
C2 C4 1_555 1_555
C3 H1 1_555 1_555
C4 H2 1_555 1_555
C5 C7 1_555 1_555
F1 C13 1_555 1_555
C6 C1 1_555 1_555
H3 C6 1_555 1_555
C7 C4 1_555 1_555
H4 C7 1_555 1_555
C8 H5 1_555 1_555
C9 C2 1_555 1_555
H6 C9 1_555 1_555
C10 C5 1_555 1_555
H7 C10 1_555 1_555
C11 C3 1_555 1_555
C12 C8 1_555 1_555
H8 C12 1_555 1_555
C13 C12 1_555 1_555
C14 C11 1_555 1_555
H9 C14 1_555 1_555
C15 O2 1_555 1_555
H10 C15 1_555 1_555
H11 C15 1_555 1_555
H12 C15 1_555 1_555
C16 C13 1_555 1_555
H13 C16 1_555 1_555
C3 C6 1_555 1_555
C8 C11 1_555 1_555
C9 C10 1_555 1_555
C14 C16 1_555 1_555

#END
