
#######################################################################
#
#                 Cambridge Crystallographic Data Centre
#                                CCDC 
#
#######################################################################
#
# If this CIF has been generated from an entry in the Cambridge 
# Structural Database, then it will include bibliographic, chemical, 
# crystal, experimental, refinement or atomic coordinate data resulting 
# from the CCDC's data processing and validation procedures.
#
#######################################################################

data_YOVDAP
_chemical_formula_moiety         'C8 H6 F1 N3 S1'
_chemical_name_systematic        5-(3-Fluorophenyl)-1,3,4-thiadiazol-2-amine
_symmetry_cell_setting           monoclinic
_symmetry_space_group_name_H-M   'P 21/c'
_symmetry_Int_Tables_number      14
_space_group_name_Hall           '-P 2ybc'
loop_
_symmetry_equiv_pos_site_id
_symmetry_equiv_pos_as_xyz
1 x,y,z
2 -x,1/2+y,1/2-z
3 -x,-y,-z
4 x,1/2-y,1/2+z
_cell_length_a                   11.345(2)
_cell_length_b                   7.3130(15)
_cell_length_c                   11.269(2)
_cell_angle_alpha                90
_cell_angle_beta                 111.64(3)
_cell_angle_gamma                90
_cell_volume                     869.048
_exptl_crystal_colour            colorless
_exptl_crystal_description       block
_chemical_melting_point          '515 K'
_cell_formula_units_Z            4
_exptl_crystal_recrystallization_method ethanol
loop_
_atom_site_label
_atom_site_type_symbol
_atom_site_fract_x
_atom_site_fract_y
_atom_site_fract_z
S1 S 0.82144(7) 0.08639(11) 0.55908(6)
F1 F 0.5162(3) -0.2428(3) 0.0198(2)
N1 N 0.8658(2) 0.1443(3) 0.3566(2)
C1 C 0.7322(3) -0.2918(5) 0.3984(3)
H1 H 0.7804 -0.3036 0.4850
N2 N 0.9262(2) 0.2841(3) 0.4381(2)
C2 C 0.6592(4) -0.4354(5) 0.3322(4)
H2 H 0.6585 -0.5443 0.3746
N3 N 0.9606(3) 0.3931(4) 0.6429(2)
H3 H 1.0043 0.4846 0.6340
H4 H 0.9481 0.3787 0.7131
C3 C 0.5871(4) -0.4202(5) 0.2040(4)
H5 H 0.5378 -0.5175 0.1592
C4 C 0.5898(3) -0.2597(6) 0.1447(3)
C5 C 0.6637(3) -0.1132(4) 0.2071(3)
H6 H 0.6658 -0.0066 0.1628
C6 C 0.7338(3) -0.1272(4) 0.3350(3)
C7 C 0.8082(3) 0.0307(4) 0.4039(2)
C8 C 0.9121(3) 0.2733(4) 0.5476(2)
loop_
_geom_bond_atom_site_label_1
_geom_bond_atom_site_label_2
_geom_bond_site_symmetry_1
_geom_bond_site_symmetry_2
S1 C7 1_555 1_555
F1 C4 1_555 1_555
N1 N2 1_555 1_555
C1 H1 1_555 1_555
N2 C8 1_555 1_555
C2 C1 1_555 1_555
H2 C2 1_555 1_555
N3 H3 1_555 1_555
H4 N3 1_555 1_555
C3 C2 1_555 1_555
H5 C3 1_555 1_555
C4 C3 1_555 1_555
C5 C4 1_555 1_555
H6 C5 1_555 1_555
C6 C1 1_555 1_555
C7 N1 1_555 1_555
C8 S1 1_555 1_555
N3 C8 1_555 1_555
C5 C6 1_555 1_555
C6 C7 1_555 1_555

#END
