
#######################################################################
#
#                 Cambridge Crystallographic Data Centre
#                                CCDC 
#
#######################################################################
#
# If this CIF has been generated from an entry in the Cambridge 
# Structural Database, then it will include bibliographic, chemical, 
# crystal, experimental, refinement or atomic coordinate data resulting 
# from the CCDC's data processing and validation procedures.
#
#######################################################################

data_YOVFOF
_chemical_name_common            
N-Phenyl-4-(8-phenyl-4,5-dihydro[1,3]thiazolo[4,5-e][1,2]benzoxazol-2-yl)-1-piperidinecarboxamide
_chemical_formula_moiety         'C26 H24 N4 O2 S1'
_chemical_name_systematic        
N-Phenyl-4-(8-phenyl-4,5-dihydro-1,2-benzoxazolo[4,5-d]thiazol-2-yl)piperidine-1-carboxamide
_chemical_properties_biological  
'Virtual screening suggests the compound is a possible D1 protease inhibtor, and therefore has potential herbicidal activity'
_symmetry_cell_setting           monoclinic
_symmetry_space_group_name_H-M   'P 21/c'
_symmetry_Int_Tables_number      14
_space_group_name_Hall           '-P 2ybc'
loop_
_symmetry_equiv_pos_site_id
_symmetry_equiv_pos_as_xyz
1 x,y,z
2 -x,1/2+y,1/2-z
3 -x,-y,-z
4 x,1/2-y,1/2+z
_cell_length_a                   22.2844(6)
_cell_length_b                   10.1911(3)
_cell_length_c                   10.2842(3)
_cell_angle_alpha                90
_cell_angle_beta                 102.282(2)
_cell_angle_gamma                90
_cell_volume                     2282.11
_exptl_crystal_colour            colorless
_exptl_crystal_description       block
_cell_formula_units_Z            4
_exptl_crystal_recrystallization_method 'ethyl acetate/hexane'
loop_
_atom_site_label
_atom_site_type_symbol
_atom_site_fract_x
_atom_site_fract_y
_atom_site_fract_z
C1 C 0.38381(9) -0.2002(2) 0.3431(2)
C2 C 0.34151(12) -0.2361(2) 0.4168(3)
H1 H 0.3287 -0.1750 0.4723
C3 C 0.31805(13) -0.3619(3) 0.4091(3)
H2 H 0.2894 -0.3846 0.4592
C4 C 0.33650(12) -0.4538(2) 0.3283(3)
H3 H 0.3203 -0.5382 0.3227
C5 C 0.37882(15) -0.4196(3) 0.2565(3)
H4 H 0.3920 -0.4819 0.2027
C6 C 0.40231(12) -0.2945(2) 0.2623(2)
H5 H 0.4309 -0.2728 0.2117
C7 C 0.41255(9) -0.0693(2) 0.35423(19)
C8 C 0.39483(9) 0.05256(19) 0.40386(19)
C9 C 0.44192(9) 0.1341(2) 0.4002(2)
C10 C 0.44851(11) 0.2734(2) 0.4429(2)
H6 H 0.4326 0.3303 0.3679
H7 H 0.4915 0.2941 0.4759
C11 C 0.41283(11) 0.2956(2) 0.5528(2)
H8 H 0.4376 0.2671 0.6374
H9 H 0.4046 0.3885 0.5595
C12 C 0.35307(10) 0.2212(2) 0.5246(2)
C13 C 0.34382(9) 0.10585(19) 0.45761(19)
C14 C 0.25309(10) 0.1164(2) 0.5099(2)
C15 C 0.18845(10) 0.0794(2) 0.5137(2)
H10 H 0.1860 -0.0166 0.5104
C16 C 0.14331(10) 0.1320(2) 0.3913(2)
H11 H 0.1463 0.2269 0.3893
H12 H 0.1543 0.0979 0.3114
C17 C 0.07811(10) 0.0935(3) 0.3925(2)
H13 H 0.0505 0.1317 0.3161
H14 H 0.0740 -0.0012 0.3863
C18 C 0.10164(10) 0.0865(3) 0.6342(2)
H15 H 0.0978 -0.0083 0.6347
H16 H 0.0891 0.1204 0.7125
C19 C 0.16795(10) 0.1235(3) 0.6394(2)
H17 H 0.1940 0.0830 0.7165
H18 H 0.1725 0.2179 0.6487
C20 C 0.01279(9) 0.2148(2) 0.5258(2)
C21 C -0.07915(10) 0.3251(2) 0.4003(2)
C22 C -0.12464(11) 0.2917(2) 0.2914(2)
H19 H -0.1158 0.2343 0.2277
C23 C -0.18266(12) 0.3426(3) 0.2767(3)
H20 H -0.2128 0.3189 0.2031
C24 C -0.19687(15) 0.4266(3) 0.3673(4)
H21 H -0.2366 0.4587 0.3577
C25 C -0.15178(17) 0.4637(3) 0.4735(3)
H22 H -0.1610 0.5228 0.5353
C26 C -0.09237(13) 0.4143(3) 0.4903(2)
H23 H -0.0619 0.4414 0.5617
N1 N 0.46608(8) -0.05766(18) 0.32118(18)
N2 N 0.28756(7) 0.04708(17) 0.44870(17)
N3 N 0.06154(8) 0.1393(2) 0.51501(17)
N4 N -0.02020(9) 0.2682(2) 0.41087(17)
H24 H -0.0118(11) 0.252(2) 0.3352(14)
O1 O 0.48560(7) 0.07301(15) 0.35047(15)
O2 O -0.00073(7) 0.23519(17) 0.63341(15)
S1 S 0.28825(3) 0.25928(6) 0.58254(6)
loop_
_geom_bond_atom_site_label_1
_geom_bond_atom_site_label_2
_geom_bond_site_symmetry_1
_geom_bond_site_symmetry_2
C1 C2 1_555 1_555
C2 H1 1_555 1_555
C3 C2 1_555 1_555
H2 C3 1_555 1_555
C4 C3 1_555 1_555
H3 C4 1_555 1_555
C5 C4 1_555 1_555
H4 C5 1_555 1_555
C6 C1 1_555 1_555
H5 C6 1_555 1_555
C7 C1 1_555 1_555
C8 C7 1_555 1_555
C9 C8 1_555 1_555
C10 C9 1_555 1_555
H6 C10 1_555 1_555
H7 C10 1_555 1_555
C11 C10 1_555 1_555
H8 C11 1_555 1_555
H9 C11 1_555 1_555
C12 C11 1_555 1_555
C13 C8 1_555 1_555
C14 C15 1_555 1_555
C15 H10 1_555 1_555
C16 C15 1_555 1_555
H11 C16 1_555 1_555
H12 C16 1_555 1_555
C17 C16 1_555 1_555
H13 C17 1_555 1_555
H14 C17 1_555 1_555
C18 H15 1_555 1_555
H16 C18 1_555 1_555
C19 C15 1_555 1_555
H17 C19 1_555 1_555
H18 C19 1_555 1_555
C20 N3 1_555 1_555
C21 C22 1_555 1_555
C22 H19 1_555 1_555
C23 C22 1_555 1_555
H20 C23 1_555 1_555
C24 C23 1_555 1_555
H21 C24 1_555 1_555
C25 C24 1_555 1_555
H22 C25 1_555 1_555
C26 C21 1_555 1_555
H23 C26 1_555 1_555
N1 C7 1_555 1_555
N2 C13 1_555 1_555
N3 C17 1_555 1_555
N4 C20 1_555 1_555
H24 N4 1_555 1_555
O1 C9 1_555 1_555
O2 C20 1_555 1_555
S1 C12 1_555 1_555
C5 C6 1_555 1_555
C12 C13 1_555 1_555
C14 N2 1_555 1_555
C14 S1 1_555 1_555
C18 C19 1_555 1_555
C18 N3 1_555 1_555
C21 N4 1_555 1_555
C25 C26 1_555 1_555
N1 O1 1_555 1_555

#END
