
#######################################################################
#
#                 Cambridge Crystallographic Data Centre
#                                CCDC 
#
#######################################################################
#
# If this CIF has been generated from an entry in the Cambridge 
# Structural Database, then it will include bibliographic, chemical, 
# crystal, experimental, refinement or atomic coordinate data resulting 
# from the CCDC's data processing and validation procedures.
#
#######################################################################

data_YOVFEV
_chemical_formula_moiety         'C19 H13 Br1 F1 N1'
_chemical_name_systematic        3-Bromo-9-(4-fluorobenzyl)-9H-carbazole
_symmetry_cell_setting           orthorhombic
_symmetry_space_group_name_H-M   'P n a 21'
_symmetry_Int_Tables_number      33
_space_group_name_Hall           'P 2c -2n'
loop_
_symmetry_equiv_pos_site_id
_symmetry_equiv_pos_as_xyz
1 x,y,z
2 -x,-y,1/2+z
3 1/2+x,1/2-y,z
4 1/2-x,1/2+y,1/2+z
_cell_length_a                   17.407(4)
_cell_length_b                   15.068(3)
_cell_length_c                   5.5865(11)
_cell_angle_alpha                90
_cell_angle_beta                 90
_cell_angle_gamma                90
_cell_volume                     1465.28
_exptl_crystal_colour            colorless
_exptl_crystal_description       prism
_chemical_melting_point          '420-422 K'
_cell_formula_units_Z            4
_exptl_crystal_recrystallization_method chloroform/ethanol
loop_
_atom_site_label
_atom_site_type_symbol
_atom_site_fract_x
_atom_site_fract_y
_atom_site_fract_z
Br1 Br 0.257719(15) 0.68839(2) 1.21455(15)
F1 F 0.64152(11) 1.09557(12) 0.7028(5)
N1 N 0.53809(16) 0.69284(17) 0.5849(5)
C1 C 0.58579(15) 0.63539(19) 0.7103(7)
C2 C 0.66123(18) 0.6094(2) 0.6612(6)
H1 H 0.6871 0.6304 0.5270
C3 C 0.69613(18) 0.5514(2) 0.8188(6)
H2 H 0.7461 0.5328 0.7882
C4 C 0.6585(2) 0.5198(2) 1.0230(7)
H3 H 0.6837 0.4815 1.1273
C5 C 0.58356(18) 0.5459(2) 1.0697(6)
H4 H 0.5582 0.5247 1.2046
C6 C 0.54659(18) 0.6037(2) 0.9140(6)
C7 C 0.47175(18) 0.6440(2) 0.9118(6)
C8 C 0.40789(17) 0.6400(2) 1.0641(5)
H5 H 0.4078 0.6034 1.1982
C9 C 0.34574(19) 0.6916(2) 1.0091(6)
C10 C 0.34296(18) 0.7470(2) 0.8090(6)
H6 H 0.2991 0.7804 0.7778
C11 C 0.40517(18) 0.7520(2) 0.6580(6)
H7 H 0.4044 0.7896 0.5260
C12 C 0.46916(15) 0.70008(18) 0.7062(8)
C13 C 0.56110(19) 0.7523(2) 0.3949(6)
H8 H 0.5193 0.7572 0.2808
H9 H 0.6047 0.7268 0.3119
C14 C 0.58251(18) 0.8443(2) 0.4797(6)
C15 C 0.62396(17) 0.8572(2) 0.6911(8)
H10 H 0.6382 0.8084 0.7833
C16 C 0.64408(18) 0.9420(2) 0.7646(6)
H11 H 0.6720 0.9504 0.9047
C17 C 0.6225(2) 1.0122(2) 0.6294(6)
C18 C 0.5814(2) 1.0036(2) 0.4166(7)
H12 H 0.5677 1.0528 0.3257
C19 C 0.56160(18) 0.9178(2) 0.3464(6)
H13 H 0.5336 0.9097 0.2062
loop_
_geom_bond_atom_site_label_1
_geom_bond_atom_site_label_2
_geom_bond_site_symmetry_1
_geom_bond_site_symmetry_2
Br1 C9 1_555 1_555
F1 C17 1_555 1_555
N1 C1 1_555 1_555
C1 C2 1_555 1_555
C2 H1 1_555 1_555
C3 C2 1_555 1_555
H2 C3 1_555 1_555
C4 C3 1_555 1_555
H3 C4 1_555 1_555
C5 C4 1_555 1_555
H4 C5 1_555 1_555
C6 C1 1_555 1_555
C7 C6 1_555 1_555
C8 C7 1_555 1_555
H5 C8 1_555 1_555
C9 C8 1_555 1_555
C10 C9 1_555 1_555
H6 C10 1_555 1_555
C11 C10 1_555 1_555
H7 C11 1_555 1_555
C12 N1 1_555 1_555
C13 N1 1_555 1_555
H8 C13 1_555 1_555
H9 C13 1_555 1_555
C14 C13 1_555 1_555
C15 C14 1_555 1_555
H10 C15 1_555 1_555
C16 C15 1_555 1_555
H11 C16 1_555 1_555
C17 C16 1_555 1_555
C18 C17 1_555 1_555
H12 C18 1_555 1_555
C19 C14 1_555 1_555
H13 C19 1_555 1_555
C5 C6 1_555 1_555
C7 C12 1_555 1_555
C11 C12 1_555 1_555
C18 C19 1_555 1_555

#END
