
#######################################################################
#
#                 Cambridge Crystallographic Data Centre
#                                CCDC 
#
#######################################################################
#
# If this CIF has been generated from an entry in the Cambridge 
# Structural Database, then it will include bibliographic, chemical, 
# crystal, experimental, refinement or atomic coordinate data resulting 
# from the CCDC's data processing and validation procedures.
#
#######################################################################

data_YOVHAU
_chemical_name_common            
'(E)-methyl 3-amino-3-(4-bromophenyl)-2-(1,3-dioxoisoindolin-2-yl)acrylate'
_chemical_formula_moiety         'C18 H13 Br1 N2 O4'
_chemical_name_systematic        
'methyl 3-amino-3-(4-bromophenyl)-2-(1,3-dioxo-1,3-dihydro-2H-isoindol-2-yl)acrylate'
_symmetry_cell_setting           triclinic
_symmetry_space_group_name_H-M   'P -1'
_symmetry_Int_Tables_number      2
_space_group_name_Hall           '-P 1'
loop_
_symmetry_equiv_pos_site_id
_symmetry_equiv_pos_as_xyz
1 x,y,z
2 -x,-y,-z
_cell_length_a                   8.4774(17)
_cell_length_b                   14.219(3)
_cell_length_c                   15.561(3)
_cell_angle_alpha                70.16(3)
_cell_angle_beta                 75.47(3)
_cell_angle_gamma                83.16(3)
_cell_volume                     1706.77
_exptl_crystal_colour            colorless
_exptl_crystal_description       block
_cell_formula_units_Z            4
loop_
_atom_site_label
_atom_site_type_symbol
_atom_site_fract_x
_atom_site_fract_y
_atom_site_fract_z
Br1 Br 0.08283(8) 0.84981(4) 0.47839(4)
O1 O -0.3107(4) 0.4765(3) 0.9163(2)
O2 O 0.0996(5) 0.3361(3) 0.7431(3)
O3 O 0.1719(4) 0.3550(2) 1.0077(2)
O4 O -0.0064(4) 0.2678(2) 0.9820(2)
N1 N -0.0753(4) 0.4155(3) 0.8379(2)
N2 N 0.2060(5) 0.5514(3) 0.8928(3)
H1 H 0.2292 0.5116 0.9440
H2 H 0.2461 0.6099 0.8677
C1 C -0.2195(6) 0.3095(4) 0.6894(3)
H3 H -0.1346 0.2841 0.6516
C2 C -0.3801(7) 0.3041(4) 0.6871(4)
H4 H -0.4037 0.2738 0.6476
C3 C -0.5062(7) 0.3429(4) 0.7428(4)
H5 H -0.6132 0.3388 0.7397
C4 C -0.4754(6) 0.3881(4) 0.8033(4)
H6 H -0.5597 0.4141 0.8411
C5 C -0.3160(6) 0.3928(3) 0.8049(3)
C6 C -0.1897(6) 0.3538(3) 0.7494(3)
C7 C -0.2443(6) 0.4346(3) 0.8611(3)
C8 C -0.0353(7) 0.3654(4) 0.7720(3)
C9 C 0.0369(6) 0.4327(3) 0.8842(3)
C10 C 0.0756(6) 0.3512(3) 0.9632(3)
C11 C 0.0413(7) 0.1799(4) 1.0515(4)
H7 H -0.0250 0.1255 1.0609
H8 H 0.0267 0.1933 1.1095
H9 H 0.1538 0.1624 1.0304
C12 C 0.1079(6) 0.5224(3) 0.8522(3)
C13 C 0.0856(6) 0.5979(3) 0.7609(3)
C14 C 0.1902(7) 0.5923(4) 0.6802(3)
H10 H 0.2643 0.5383 0.6821
C15 C 0.1869(8) 0.6663(4) 0.5956(3)
H11 H 0.2600 0.6629 0.5410
C16 C 0.0761(6) 0.7437(4) 0.5930(3)
C17 C -0.0349(7) 0.7476(4) 0.6718(3)
H12 H -0.1140 0.7992 0.6688
C18 C -0.0291(6) 0.6744(4) 0.7564(3)
H13 H -0.1038 0.6773 0.8107
Br2 Br -0.33380(11) 0.59093(5) 0.60234(5)
O5 O -0.2935(5) 0.9488(3) 0.1302(2)
O6 O -0.7368(4) 1.0453(3) 0.3206(2)
O7 O -0.3114(5) 1.2279(3) 0.2136(2)
O8 O -0.4762(4) 1.1854(2) 0.1416(2)
N3 N -0.4886(5) 0.9990(3) 0.2418(2)
N4 N -0.2228(6) 1.0781(3) 0.3555(3)
H14 H -0.2134 1.1406 0.3236
H15 H -0.1748 1.0521 0.4013
C19 C -0.5972(7) 0.8880(4) 0.0848(3)
H16 H -0.5061 0.8680 0.0465
C20 C -0.7524(8) 0.8747(4) 0.0800(4)
H17 H -0.7664 0.8450 0.0378
C21 C -0.8860(8) 0.9042(4) 0.1358(4)
H18 H -0.9891 0.8943 0.1304
C22 C -0.8725(7) 0.9488(4) 0.2010(4)
H19 H -0.9638 0.9688 0.2392
C23 C -0.7172(6) 0.9615(3) 0.2054(3)
C24 C -0.5815(6) 0.9322(3) 0.1482(3)
C25 C -0.4338(7) 0.9582(4) 0.1677(3)
C26 C -0.6601(6) 1.0073(3) 0.2638(3)
C27 C -0.3902(6) 1.0597(3) 0.2619(3)
C28 C -0.3832(6) 1.1646(4) 0.2047(3)
C29 C -0.4862(8) 1.2899(4) 0.0849(4)
H20 H -0.5545 1.2973 0.0420
H21 H -0.3790 1.3119 0.0502
H22 H -0.5317 1.3296 0.1249
C30 C -0.3119(6) 1.0216(4) 0.3340(3)
C31 C -0.3251(6) 0.9153(4) 0.3970(3)
C32 C -0.2858(6) 0.8366(4) 0.3638(3)
H23 H -0.2550 0.8485 0.2994
C33 C -0.2908(6) 0.7397(4) 0.4236(4)
H24 H -0.2655 0.6865 0.3999
C34 C -0.3332(7) 0.7222(4) 0.5186(4)
C35 C -0.3700(7) 0.7998(5) 0.5550(4)
H25 H -0.3987 0.7874 0.6195
C36 C -0.3634(7) 0.8968(4) 0.4936(3)
H26 H -0.3847 0.9502 0.5171
loop_
_geom_bond_atom_site_label_1
_geom_bond_atom_site_label_2
_geom_bond_site_symmetry_1
_geom_bond_site_symmetry_2
Br1 C16 1_555 1_555
O1 C7 1_555 1_555
O2 C8 1_555 1_555
O3 C10 1_555 1_555
O4 C10 1_555 1_555
N1 C7 1_555 1_555
N2 H1 1_555 1_555
H2 N2 1_555 1_555
C1 H3 1_555 1_555
C2 C1 1_555 1_555
H4 C2 1_555 1_555
C3 C2 1_555 1_555
H5 C3 1_555 1_555
C4 C3 1_555 1_555
H6 C4 1_555 1_555
C5 C4 1_555 1_555
C6 C1 1_555 1_555
C7 C5 1_555 1_555
C8 N1 1_555 1_555
C9 N1 1_555 1_555
C10 C9 1_555 1_555
C11 O4 1_555 1_555
H7 C11 1_555 1_555
H8 C11 1_555 1_555
H9 C11 1_555 1_555
C12 N2 1_555 1_555
C13 C12 1_555 1_555
C14 C13 1_555 1_555
H10 C14 1_555 1_555
C15 C14 1_555 1_555
H11 C15 1_555 1_555
C16 C15 1_555 1_555
C17 C16 1_555 1_555
H12 C17 1_555 1_555
C18 C13 1_555 1_555
H13 C18 1_555 1_555
Br2 C34 1_555 1_555
O5 C25 1_555 1_555
O6 C26 1_555 1_555
O7 C28 1_555 1_555
O8 C28 1_555 1_555
N3 C25 1_555 1_555
N4 H14 1_555 1_555
H15 N4 1_555 1_555
C19 H16 1_555 1_555
C20 C19 1_555 1_555
H17 C20 1_555 1_555
C21 C20 1_555 1_555
H18 C21 1_555 1_555
C22 C21 1_555 1_555
H19 C22 1_555 1_555
C23 C22 1_555 1_555
C24 C19 1_555 1_555
C25 C24 1_555 1_555
C26 N3 1_555 1_555
C27 N3 1_555 1_555
C28 C27 1_555 1_555
C29 O8 1_555 1_555
H20 C29 1_555 1_555
H21 C29 1_555 1_555
H22 C29 1_555 1_555
C30 N4 1_555 1_555
C31 C30 1_555 1_555
C32 C31 1_555 1_555
H23 C32 1_555 1_555
C33 C32 1_555 1_555
H24 C33 1_555 1_555
C34 C33 1_555 1_555
C35 C34 1_555 1_555
H25 C35 1_555 1_555
C36 C31 1_555 1_555
H26 C36 1_555 1_555
C5 C6 1_555 1_555
C6 C8 1_555 1_555
C9 C12 1_555 1_555
C17 C18 1_555 1_555
C23 C24 1_555 1_555
C23 C26 1_555 1_555
C27 C30 1_555 1_555
C35 C36 1_555 1_555

#END
