
#######################################################################
#
#                 Cambridge Crystallographic Data Centre
#                                CCDC 
#
#######################################################################
#
# If this CIF has been generated from an entry in the Cambridge 
# Structural Database, then it will include bibliographic, chemical, 
# crystal, experimental, refinement or atomic coordinate data resulting 
# from the CCDC's data processing and validation procedures.
#
#######################################################################

data_YOVPEF
_chemical_name_common            'Risperidonium nitrate'
_chemical_formula_moiety         'C23 H28 F1 N4 O2 1+,N1 O3 1-'
_chemical_name_systematic        
'4-(6-Fluoro-1,2-benzisoxazol-3-yl)-1-[2-(2-methyl-4-oxo-6,7,8,9-tetrahydro-4H-pyrido[1,2-a]pyrimidin-3-yl)ethyl]piperidinium nitrate'
_chemical_properties_biological  'Risperidone is an antipsychotic agent'
_symmetry_cell_setting           monoclinic
_symmetry_space_group_name_H-M   'P 21/c'
_symmetry_Int_Tables_number      14
_space_group_name_Hall           '-P 2ybc'
loop_
_symmetry_equiv_pos_site_id
_symmetry_equiv_pos_as_xyz
1 x,y,z
2 -x,1/2+y,1/2-z
3 -x,-y,-z
4 x,1/2-y,1/2+z
_cell_length_a                   8.1655(16)
_cell_length_b                   21.866(4)
_cell_length_c                   12.635(3)
_cell_angle_alpha                90
_cell_angle_beta                 91.94(3)
_cell_angle_gamma                90
_cell_volume                     2254.65
_exptl_crystal_colour            colorless
_exptl_crystal_description       block
_cell_formula_units_Z            4
_exptl_crystal_recrystallization_method 
'methanol/water/0.1M nitric acid (pH 5-6)'
loop_
_atom_site_label
_atom_site_type_symbol
_atom_site_fract_x
_atom_site_fract_y
_atom_site_fract_z
F1 F 0.5593(2) 0.48655(7) 0.71974(17)
C1 C 0.6901(3) 0.35617(11) 0.57834(19)
C2 C 0.6642(3) 0.41746(11) 0.5995(2)
H1 H 0.6986 0.4488 0.5557
C3 C 0.5836(3) 0.42758(11) 0.6905(2)
C4 C 0.5266(3) 0.38241(12) 0.7573(2)
H2 H 0.4691 0.3928 0.8170
C5 C 0.5565(3) 0.32220(11) 0.7336(2)
H3 H 0.5206 0.2911 0.7773
C6 C 0.6420(3) 0.30878(10) 0.64249(18)
C7 C 0.6994(3) 0.25504(10) 0.59070(17)
C8 C 0.6892(3) 0.19000(10) 0.62775(18)
H4 H 0.5777 0.1826 0.6512
C9 C 0.7256(3) 0.14414(11) 0.54190(19)
H5 H 0.6476 0.1495 0.4830
H6 H 0.8343 0.1518 0.5162
C10 C 0.7164(3) 0.07913(11) 0.5818(2)
H7 H 0.6055 0.0705 0.6026
H8 H 0.7427 0.0512 0.5252
C11 C 0.8011(4) 0.11368(11) 0.75999(19)
H9 H 0.8822 0.1080 0.8170
H10 H 0.6940 0.1059 0.7880
C12 C 0.8082(4) 0.17918(11) 0.72137(19)
H11 H 0.9187 0.1884 0.7005
H12 H 0.7816 0.2065 0.7787
C13 C 0.8196(3) 0.00410(10) 0.7117(2)
H13 H 0.8132 -0.0227 0.6505
H14 H 0.7186 -0.0005 0.7491
C14 C 0.9607(3) -0.01635(11) 0.7837(2)
H15 H 1.0595 -0.0200 0.7436
H16 H 0.9804 0.0135 0.8394
C15 C 0.9184(3) -0.07729(10) 0.83123(18)
C16 C 0.8370(3) -0.07566(11) 0.9298(2)
C17 C 0.8352(3) -0.18542(10) 0.92195(18)
C18 C 0.9444(3) -0.13241(10) 0.78520(17)
C19 C 1.0216(3) -0.13858(13) 0.6798(2)
H17 H 1.0477 -0.0987 0.6533
H18 H 0.9465 -0.1586 0.6310
H19 H 1.1200 -0.1624 0.6876
O1 O 0.7678(2) 0.33351(8) 0.49358(13)
O2 O 0.7981(3) -0.02875(9) 0.97639(17)
N1 N 0.7710(3) 0.26831(9) 0.50384(16)
N2 N 0.8321(2) 0.06899(8) 0.67408(14)
N3 N 0.9023(2) -0.18672(8) 0.83033(15)
N4 N 0.8013(2) -0.13271(9) 0.97382(15)
C20 C 0.7250(4) -0.13102(14) 1.0785(2)
H20 H 0.6095 -0.1211 1.0697
H21 H 0.7771 -0.0998 1.1225
C21 C 0.7977(4) -0.24588(12) 0.9722(2)
C22 C 0.7463(10) -0.1965(3) 1.1339(4)
H22 H 0.8605 -0.2024 1.1551
H23 H 0.6824 -0.1975 1.1972
C23 C 0.6928(8) -0.2473(2) 1.0624(4)
H24 H 0.7033 -0.2862 1.0988
H25 H 0.5792 -0.2418 1.0394
H26 H 0.8883 -0.2739 0.9632
H27 H 0.7004 -0.2635 0.9383
H28 H 0.933(4) 0.0742(12) 0.652(2)
O3 O 0.1111(3) 0.05259(15) 0.5454(2)
O4 O 0.3344(3) 0.09708(14) 0.5171(2)
O5 O 0.1993(6) 0.11232(14) 0.6583(2)
N5 N 0.2204(3) 0.08745(11) 0.5749(2)
C24? C 0.7250(4) -0.13102(14) 1.0785(2)
C25? C 0.6516(13) -0.1831(4) 1.1149(6)
C26? C 0.7689(15) -0.2360(4) 1.0947(8)
C27? C 0.7977(4) -0.24588(12) 0.9722(2)
H29? H 0.5475 -0.1899 1.0774
H30? H 0.6321 -0.1796 1.1899
H31? H 0.7247 -0.2732 1.1241
H32? H 0.8733 -0.2278 1.1309
loop_
_geom_bond_atom_site_label_1
_geom_bond_atom_site_label_2
_geom_bond_site_symmetry_1
_geom_bond_site_symmetry_2
F1 C3 1_555 1_555
C1 C2 1_555 1_555
C2 H1 1_555 1_555
C3 C2 1_555 1_555
C4 C3 1_555 1_555
H2 C4 1_555 1_555
C5 C4 1_555 1_555
H3 C5 1_555 1_555
C6 C1 1_555 1_555
C7 C6 1_555 1_555
C8 C7 1_555 1_555
H4 C8 1_555 1_555
C9 C8 1_555 1_555
H5 C9 1_555 1_555
H6 C9 1_555 1_555
C10 C9 1_555 1_555
H7 C10 1_555 1_555
H8 C10 1_555 1_555
C11 H9 1_555 1_555
H10 C11 1_555 1_555
C12 C8 1_555 1_555
H11 C12 1_555 1_555
H12 C12 1_555 1_555
C13 H13 1_555 1_555
H14 C13 1_555 1_555
C14 C13 1_555 1_555
H15 C14 1_555 1_555
H16 C14 1_555 1_555
C15 C14 1_555 1_555
C16 C15 1_555 1_555
C17 N3 1_555 1_555
C18 C15 1_555 1_555
C19 C18 1_555 1_555
H17 C19 1_555 1_555
H18 C19 1_555 1_555
H19 C19 1_555 1_555
O1 C1 1_555 1_555
O2 C16 1_555 1_555
N1 C7 1_555 1_555
N2 C10 1_555 1_555
N3 C18 1_555 1_555
N4 C16 1_555 1_555
C20 N4 1_555 1_555
H20 C20 1_555 1_555
H21 C20 1_555 1_555
C21 C17 1_555 1_555
C22 C20 1_555 1_555
H22 C22 1_555 1_555
H23 C22 1_555 1_555
C23 C21 1_555 1_555
H24 C23 1_555 1_555
H25 C23 1_555 1_555
H26 C21 1_555 1_555
H27 C21 1_555 1_555
H28 N2 1_555 1_555
O3 N5 1_555 1_555
O4 N5 1_555 1_555
O5 N5 1_555 1_555
C5 C6 1_555 1_555
C11 C12 1_555 1_555
C11 N2 1_555 1_555
C13 N2 1_555 1_555
C17 N4 1_555 1_555
O1 N1 1_555 1_555
C22 C23 1_555 1_555

#END
