
#######################################################################
#
#                 Cambridge Crystallographic Data Centre
#                                CCDC 
#
#######################################################################
#
# If this CIF has been generated from an entry in the Cambridge 
# Structural Database, then it will include bibliographic, chemical, 
# crystal, experimental, refinement or atomic coordinate data resulting 
# from the CCDC's data processing and validation procedures.
#
#######################################################################

data_YOVWIR
_chemical_formula_moiety         'C17 H14 F3 N3 S1'
_chemical_name_systematic        
4-((2,6-Dimethylphenyl)sulfanyl)-2-(4-(trifluoromethyl)phenyl)-2H-1,2,3-triazole
_symmetry_cell_setting           orthorhombic
_symmetry_space_group_name_H-M   'P b c a'
_symmetry_Int_Tables_number      61
_space_group_name_Hall           '-P 2ac 2ab'
loop_
_symmetry_equiv_pos_site_id
_symmetry_equiv_pos_as_xyz
1 x,y,z
2 1/2-x,-y,1/2+z
3 1/2+x,1/2-y,-z
4 -x,1/2+y,1/2-z
5 -x,-y,-z
6 1/2+x,y,1/2-z
7 1/2-x,1/2+y,z
8 x,1/2-y,1/2+z
_cell_length_a                   14.222(5)
_cell_length_b                   8.925(5)
_cell_length_c                   25.350(5)
_cell_angle_alpha                90
_cell_angle_beta                 90
_cell_angle_gamma                90
_cell_volume                     3217.71
_exptl_crystal_colour            colorless
_exptl_crystal_description       block
_cell_formula_units_Z            8
loop_
_atom_site_label
_atom_site_type_symbol
_atom_site_fract_x
_atom_site_fract_y
_atom_site_fract_z
C1 C 0.33051(15) 0.5557(2) 0.16317(8)
C2 C 0.32596(14) 0.4495(2) 0.20853(8)
C3 C 0.24191(14) 0.4206(2) 0.23385(8)
H1 H 0.1873 0.4683 0.2227
C4 C 0.23847(14) 0.3211(2) 0.27561(8)
H2 H 0.1818 0.3011 0.2925
C5 C 0.32024(13) 0.2517(2) 0.29194(8)
C6 C 0.40502(14) 0.2790(2) 0.26690(9)
H3 H 0.4596 0.2312 0.2781
C7 C 0.40740(15) 0.3786(2) 0.22494(9)
H4 H 0.4639 0.3978 0.2078
C8 C 0.35686(15) -0.0125(2) 0.38943(9)
H5 H 0.3913 -0.0807 0.4093
C9 C 0.26181(14) 0.0204(2) 0.39657(8)
C10 C 0.10107(13) 0.0779(2) 0.45446(8)
C11 C 0.02257(14) 0.0951(2) 0.42162(8)
C12 C -0.04352(15) 0.2022(2) 0.43548(10)
H6 H -0.0961 0.2158 0.4142
C13 C -0.03334(15) 0.2885(2) 0.47974(10)
H7 H -0.0787 0.3596 0.4883
C14 C 0.04380(16) 0.2700(2) 0.51143(9)
H8 H 0.0503 0.3295 0.5413
C15 C 0.11232(14) 0.1646(2) 0.49999(8)
C16 C 0.00889(19) 0.0036(3) 0.37274(10)
H9 H 0.0604 -0.0651 0.3689
H10 H 0.0064 0.0686 0.3426
H11 H -0.0489 -0.0515 0.3754
C17 C 0.19520(17) 0.1471(3) 0.53627(11)
H12 H 0.1897 0.2165 0.5650
H13 H 0.2521 0.1668 0.5171
H14 H 0.1967 0.0466 0.5498
N1 N 0.31666(10) 0.14926(18) 0.33475(6)
N2 N 0.39044(11) 0.0684(2) 0.34997(7)
N3 N 0.23664(11) 0.12357(18) 0.36142(7)
F1 F 0.24657(10) 0.61164(19) 0.14998(6)
F2 F 0.36614(15) 0.49453(18) 0.12017(6)
F3 F 0.38376(10) 0.67521(14) 0.17307(6)
S1 S 0.18450(4) -0.06673(6) 0.44086(3)
loop_
_geom_bond_atom_site_label_1
_geom_bond_atom_site_label_2
_geom_bond_site_symmetry_1
_geom_bond_site_symmetry_2
C1 C2 1_555 1_555
C2 C3 1_555 1_555
C3 H1 1_555 1_555
C4 C3 1_555 1_555
H2 C4 1_555 1_555
C5 C4 1_555 1_555
C6 C5 1_555 1_555
H3 C6 1_555 1_555
C7 C2 1_555 1_555
H4 C7 1_555 1_555
C8 H5 1_555 1_555
C9 C8 1_555 1_555
C10 C11 1_555 1_555
C11 C12 1_555 1_555
C12 H6 1_555 1_555
C13 C12 1_555 1_555
H7 C13 1_555 1_555
C14 C13 1_555 1_555
H8 C14 1_555 1_555
C15 C10 1_555 1_555
C16 C11 1_555 1_555
H9 C16 1_555 1_555
H10 C16 1_555 1_555
H11 C16 1_555 1_555
C17 C15 1_555 1_555
H12 C17 1_555 1_555
H13 C17 1_555 1_555
H14 C17 1_555 1_555
N1 C5 1_555 1_555
N2 C8 1_555 1_555
N3 C9 1_555 1_555
F1 C1 1_555 1_555
F2 C1 1_555 1_555
F3 C1 1_555 1_555
S1 C9 1_555 1_555
C6 C7 1_555 1_555
C10 S1 1_555 1_555
C14 C15 1_555 1_555
N1 N2 1_555 1_555
N1 N3 1_555 1_555

#END
