
#######################################################################
#
#                 Cambridge Crystallographic Data Centre
#                                CCDC 
#
#######################################################################
#
# If this CIF has been generated from an entry in the Cambridge 
# Structural Database, then it will include bibliographic, chemical, 
# crystal, experimental, refinement or atomic coordinate data resulting 
# from the CCDC's data processing and validation procedures.
#
#######################################################################

data_YOWDIZ
_chemical_formula_moiety         'C33 H48 N2 O9 S1'
_chemical_name_systematic        
'2-(1,3-benzothiazol-2-ylamino)-6-(((2,2-dimethylpropanoyl)oxy)methyl)tetrahydro-2H-pyran-3,4,5-triyl tris(2,2-dimethylpropanoate)'
_symmetry_cell_setting           monoclinic
_symmetry_space_group_name_H-M   'P 21'
_symmetry_Int_Tables_number      4
_space_group_name_Hall           'P 2yb'
loop_
_symmetry_equiv_pos_site_id
_symmetry_equiv_pos_as_xyz
1 x,y,z
2 -x,1/2+y,-z
_cell_length_a                   13.6507(6)
_cell_length_b                   10.3032(3)
_cell_length_c                   13.9805(6)
_cell_angle_alpha                90
_cell_angle_beta                 109.803(5)
_cell_angle_gamma                90
_cell_volume                     1850.02
_exptl_crystal_colour            yellow
_exptl_crystal_description       block
_cell_formula_units_Z            2
loop_
_atom_site_label
_atom_site_type_symbol
_atom_site_fract_x
_atom_site_fract_y
_atom_site_fract_z
S1 S 0.21254(19) 0.5539(3) 1.17983(16)
O1 O 0.2477(2) 0.5691(3) 0.8535(2)
O2 O 0.0817(3) 0.6332(5) 0.6689(3)
O3 O 0.3892(3) 0.6863(3) 0.6911(3)
O4 O 0.3902(5) 0.5117(5) 0.5974(4)
O5 O 0.5509(3) 0.5937(3) 0.8702(3)
O6 O 0.6233(4) 0.7893(4) 0.8903(4)
O7 O 0.4967(3) 0.6364(3) 1.0497(2)
O8 O 0.5855(3) 0.4496(4) 1.0862(3)
N1 N 0.1424(4) 0.7162(5) 1.0036(4)
N2 N 0.2887(3) 0.5577(4) 1.0285(3)
H1 H 0.3185 0.4870 1.0560
C1 C 0.0719(7) 0.6953(10) 1.2395(7)
H2 H 0.0893 0.6459 1.2986
C2 C -0.0007(8) 0.7928(12) 1.2229(10)
H3 H -0.0326 0.8098 1.2707
C3 C -0.0258(6) 0.8651(10) 1.1350(11)
H4 H -0.0748 0.9314 1.1233
C4 C 0.0205(6) 0.8396(9) 1.0660(7)
H5 H 0.0029 0.8880 1.0064
C5 C 0.0937(5) 0.7427(7) 1.0827(5)
C6 C 0.1181(5) 0.6715(6) 1.1693(5)
C7 C 0.2127(4) 0.6155(6) 1.0624(4)
C8 C 0.3163(4) 0.6157(4) 0.9491(3)
H6 H 0.3089 0.7101 0.9519
C9 C 0.2626(4) 0.6375(5) 0.7703(3)
H7 H 0.2533 0.7310 0.7769
C10 C 0.3713(4) 0.6089(4) 0.7694(3)
H8 H 0.3773 0.5166 0.7555
C11 C 0.4518(4) 0.6446(4) 0.8688(4)
H9 H 0.4559 0.7392 0.8764
C12 C 0.4275(3) 0.5836(4) 0.9573(3)
H10 H 0.4365 0.4893 0.9567
C13 C 0.1799(4) 0.5853(8) 0.6747(4)
H11 H 0.1959 0.6120 0.6150
H12 H 0.1795 0.4912 0.6766
C14 C 0.0312(7) 0.7090(9) 0.5987(6)
C15 C -0.0711(7) 0.7549(10) 0.5993(7)
C16 C -0.1409(8) 0.6308(12) 0.5949(9)
H13 H -0.1210 0.5629 0.5582
H14 H -0.2128 0.6524 0.5612
H15 H -0.1311 0.6018 0.6628
C17 C -0.1247(10) 0.8340(14) 0.5071(10)
H16 H -0.1184 0.7919 0.4482
H17 H -0.0933 0.9185 0.5143
H18 H -0.1970 0.8427 0.4993
C18 C -0.0553(9) 0.8211(11) 0.6966(8)
H19 H -0.1173 0.8678 0.6930
H20 H 0.0019 0.8807 0.7102
H21 H -0.0402 0.7580 0.7502
C19 C 0.3987(5) 0.6241(6) 0.6093(4)
C20 C 0.4159(8) 0.7205(8) 0.5324(6)
C21 C 0.3365(11) 0.8266(11) 0.5097(8)
H22 H 0.2704 0.7935 0.4670
H23 H 0.3576 0.8962 0.4754
H24 H 0.3305 0.8581 0.5721
C22 C 0.4030(12) 0.6502(13) 0.4347(8)
H25 H 0.4625 0.5958 0.4434
H26 H 0.3969 0.7122 0.3818
H27 H 0.3413 0.5977 0.4167
C23 C 0.5210(11) 0.7744(13) 0.5763(10)
H28 H 0.5344 0.7952 0.6465
H29 H 0.5265 0.8517 0.5400
H30 H 0.5709 0.7117 0.5711
C24 C 0.6308(5) 0.6736(6) 0.8802(4)
C25 C 0.7268(5) 0.6015(7) 0.8815(5)
C26 C 0.6999(7) 0.4882(10) 0.8060(7)
H31 H 0.6667 0.4206 0.8312
H32 H 0.7625 0.4552 0.7982
H33 H 0.6536 0.5178 0.7414
C27 C 0.7986(7) 0.6967(13) 0.8534(10)
H34 H 0.7647 0.7282 0.7856
H35 H 0.8621 0.6534 0.8570
H36 H 0.8143 0.7684 0.9001
C28 C 0.7830(7) 0.5520(12) 0.9871(6)
H37 H 0.7832 0.6179 1.0357
H38 H 0.8533 0.5303 0.9936
H39 H 0.7482 0.4761 0.9993
C29 C 0.5723(4) 0.5588(5) 1.1101(4)
C30 C 0.6347(5) 0.6227(6) 1.2078(4)
C31 C 0.5667(9) 0.6446(16) 1.2703(7)
H40 H 0.5263 0.7220 1.2476
H41 H 0.6091 0.6541 1.3404
H42 H 0.5208 0.5718 1.2631
C32 C 0.7257(8) 0.5380(9) 1.2661(6)
H43 H 0.7010 0.4529 1.2742
H44 H 0.7604 0.5754 1.3318
H45 H 0.7735 0.5319 1.2294
C33 C 0.6799(7) 0.7475(7) 1.1861(6)
H46 H 0.7132 0.7322 1.1366
H47 H 0.7302 0.7797 1.2476
H48 H 0.6253 0.8102 1.1601
O9 O 0.0442(9) 0.7004(12) 0.5136(8)
O10? O 0.0899(9) 0.7725(11) 0.5591(9)
loop_
_geom_bond_atom_site_label_1
_geom_bond_atom_site_label_2
_geom_bond_site_symmetry_1
_geom_bond_site_symmetry_2
S1 C6 1_555 1_555
O1 C8 1_555 1_555
O2 C13 1_555 1_555
O3 C10 1_555 1_555
O4 C19 1_555 1_555
O5 C11 1_555 1_555
O6 C24 1_555 1_555
O7 C12 1_555 1_555
O8 C29 1_555 1_555
N1 C5 1_555 1_555
N2 H1 1_555 1_555
C1 H2 1_555 1_555
C2 C1 1_555 1_555
H3 C2 1_555 1_555
C3 C2 1_555 1_555
H4 C3 1_555 1_555
C4 C3 1_555 1_555
H5 C4 1_555 1_555
C5 C4 1_555 1_555
C6 C1 1_555 1_555
C7 S1 1_555 1_555
C8 N2 1_555 1_555
H6 C8 1_555 1_555
C9 O1 1_555 1_555
H7 C9 1_555 1_555
C10 C9 1_555 1_555
H8 C10 1_555 1_555
C11 C10 1_555 1_555
H9 C11 1_555 1_555
C12 C8 1_555 1_555
H10 C12 1_555 1_555
C13 C9 1_555 1_555
H11 C13 1_555 1_555
H12 C13 1_555 1_555
C14 O2 1_555 1_555
C15 C14 1_555 1_555
C16 C15 1_555 1_555
H13 C16 1_555 1_555
H14 C16 1_555 1_555
H15 C16 1_555 1_555
C17 C15 1_555 1_555
H16 C17 1_555 1_555
H17 C17 1_555 1_555
H18 C17 1_555 1_555
C18 C15 1_555 1_555
H19 C18 1_555 1_555
H20 C18 1_555 1_555
H21 C18 1_555 1_555
C19 O3 1_555 1_555
C20 C19 1_555 1_555
C21 C20 1_555 1_555
H22 C21 1_555 1_555
H23 C21 1_555 1_555
H24 C21 1_555 1_555
C22 C20 1_555 1_555
H25 C22 1_555 1_555
H26 C22 1_555 1_555
H27 C22 1_555 1_555
C23 C20 1_555 1_555
H28 C23 1_555 1_555
H29 C23 1_555 1_555
H30 C23 1_555 1_555
C24 O5 1_555 1_555
C25 C24 1_555 1_555
C26 C25 1_555 1_555
H31 C26 1_555 1_555
H32 C26 1_555 1_555
H33 C26 1_555 1_555
C27 C25 1_555 1_555
H34 C27 1_555 1_555
H35 C27 1_555 1_555
H36 C27 1_555 1_555
C28 C25 1_555 1_555
H37 C28 1_555 1_555
H38 C28 1_555 1_555
H39 C28 1_555 1_555
C29 O7 1_555 1_555
C30 C29 1_555 1_555
C31 C30 1_555 1_555
H40 C31 1_555 1_555
H41 C31 1_555 1_555
H42 C31 1_555 1_555
C32 C30 1_555 1_555
H43 C32 1_555 1_555
H44 C32 1_555 1_555
H45 C32 1_555 1_555
C33 C30 1_555 1_555
H46 C33 1_555 1_555
H47 C33 1_555 1_555
H48 C33 1_555 1_555
O9 C14 1_555 1_555
N1 C7 1_555 1_555
N2 C7 1_555 1_555
C5 C6 1_555 1_555
C11 C12 1_555 1_555

#END
