
#######################################################################
#
#                 Cambridge Crystallographic Data Centre
#                                CCDC 
#
#######################################################################
#
# If this CIF has been generated from an entry in the Cambridge 
# Structural Database, then it will include bibliographic, chemical, 
# crystal, experimental, refinement or atomic coordinate data resulting 
# from the CCDC's data processing and validation procedures.
#
#######################################################################

data_YOWFUN
_chemical_formula_moiety         'C21 H17 Br1 Cl1 N1 O5 S1'
_chemical_name_systematic        
'ethyl 9-(4-bromophenyl)-10-chloro-2-methyl-7-oxo-7,10-dihydro-10aH-pyrido[1,2-b][1,2]benzothiazole-10a-carboxylate 5,5-dioxide'
_symmetry_cell_setting           orthorhombic
_symmetry_space_group_name_H-M   'P 21 21 21'
_symmetry_Int_Tables_number      19
_space_group_name_Hall           'P 2ac 2ab'
loop_
_symmetry_equiv_pos_site_id
_symmetry_equiv_pos_as_xyz
1 x,y,z
2 1/2-x,-y,1/2+z
3 -x,1/2+y,1/2-z
4 1/2+x,1/2-y,-z
_cell_length_a                   11.1425(9)
_cell_length_b                   11.2378(8)
_cell_length_c                   17.0756(13)
_cell_angle_alpha                90
_cell_angle_beta                 90
_cell_angle_gamma                90
_cell_volume                     2138.16
_exptl_crystal_colour            'light yellow'
_exptl_crystal_description       block
_cell_formula_units_Z            4
loop_
_atom_site_label
_atom_site_type_symbol
_atom_site_fract_x
_atom_site_fract_y
_atom_site_fract_z
Br1 Br 0.02872(6) 0.18942(5) 0.83574(4)
C1 C 0.4491(4) 0.8094(4) 0.8279(3)
C2 C 0.3840(5) 0.6969(4) 0.8202(3)
H1 H 0.4239 0.6316 0.7964
C3 C 0.2708(4) 0.6809(4) 0.8452(3)
C4 C 0.2085(5) 0.7825(4) 0.8870(3)
H2 H 0.1478 0.7499 0.9245
C5 C 0.3025(5) 0.8544(4) 0.9320(3)
C6 C 0.2597(5) 0.9683(4) 0.9698(3)
C7 C 0.3242(5) 1.0685(4) 0.9474(3)
C8 C 0.3004(5) 1.1796(5) 0.9780(3)
H3 H 0.3451 1.2472 0.9616
C9 C 0.2101(5) 1.1901(5) 1.0329(3)
H4 H 0.1923 1.2662 1.0542
C10 C 0.1448(5) 1.0922(4) 1.0576(3)
C11 C 0.1698(5) 0.9796(4) 1.0248(3)
H5 H 0.1249 0.9119 1.0406
C12 C 0.2063(5) 0.5659(4) 0.8370(3)
C13 C 0.2631(5) 0.4685(4) 0.8033(3)
H6 H 0.34 0.4788 0.7803
C14 C 0.2107(5) 0.3564(4) 0.8024(3)
H7 H 0.2516 0.2902 0.7803
C15 C 0.0988(5) 0.3435(4) 0.8339(3)
C16 C 0.0371(7) 0.4387(5) 0.8644(4)
H8 H -0.042 0.4288 0.8841
C17 C 0.0918(5) 0.5494(5) 0.8660(3)
H9 H 0.0497 0.6152 0.8876
C18 C 0.3553(5) 0.7720(4) 0.9967(3)
C19 C 0.2975(5) 0.6357(5) 1.0969(3)
H10 H 0.2279 0.6249 1.1323
H11 H 0.3651 0.6676 1.1281
C20 C 0.3320(7) 0.5188(5) 1.0624(5)
H12 H 0.2693 0.4924 1.0261
H13 H 0.3413 0.46 1.1044
H14 H 0.4081 0.5271 1.0341
C21 C 0.0491(6) 1.1030(5) 1.1187(3)
H15 H 0.0421 1.1863 1.1352
H16 H 0.0701 1.0537 1.164
H17 H -0.0277 1.0762 1.097
Cl1 Cl 0.13499(13) 0.87570(11) 0.81627(8)
N1 N 0.3977(4) 0.8899(3) 0.8795(2)
O1 O 0.5393(3) 0.8348(3) 0.79105(19)
O2 O 0.4608(4) 0.7597(3) 1.0090(2)
O3 O 0.2665(3) 0.7196(3) 1.0350(2)
O4 O 0.5538(3) 1.0499(3) 0.9158(2)
O5 O 0.4174(4) 1.0847(3) 0.8057(2)
S1 S 0.43795(13) 1.03425(11) 0.88096(8)
loop_
_geom_bond_atom_site_label_1
_geom_bond_atom_site_label_2
_geom_bond_site_symmetry_1
_geom_bond_site_symmetry_2
Br1 C15 1_555 1_555
C1 C2 1_555 1_555
C2 H1 1_555 1_555
C3 C2 1_555 1_555
C4 C3 1_555 1_555
H2 C4 1_555 1_555
C5 C4 1_555 1_555
C6 C5 1_555 1_555
C7 C6 1_555 1_555
C8 C7 1_555 1_555
H3 C8 1_555 1_555
C9 C8 1_555 1_555
H4 C9 1_555 1_555
C10 C9 1_555 1_555
C11 C6 1_555 1_555
H5 C11 1_555 1_555
C12 C3 1_555 1_555
C13 C12 1_555 1_555
H6 C13 1_555 1_555
C14 C13 1_555 1_555
H7 C14 1_555 1_555
C15 C14 1_555 1_555
C16 C15 1_555 1_555
H8 C16 1_555 1_555
C17 C12 1_555 1_555
H9 C17 1_555 1_555
C18 C5 1_555 1_555
C19 H10 1_555 1_555
H11 C19 1_555 1_555
C20 C19 1_555 1_555
H12 C20 1_555 1_555
H13 C20 1_555 1_555
H14 C20 1_555 1_555
C21 C10 1_555 1_555
H15 C21 1_555 1_555
H16 C21 1_555 1_555
H17 C21 1_555 1_555
Cl1 C4 1_555 1_555
N1 C1 1_555 1_555
O1 C1 1_555 1_555
O2 C18 1_555 1_555
O3 C18 1_555 1_555
O4 S1 1_555 1_555
O5 S1 1_555 1_555
S1 C7 1_555 1_555
C5 N1 1_555 1_555
C10 C11 1_555 1_555
C16 C17 1_555 1_555
C19 O3 1_555 1_555
N1 S1 1_555 1_555

#END
