
#######################################################################
#
#                 Cambridge Crystallographic Data Centre
#                                CCDC 
#
#######################################################################
#
# If this CIF has been generated from an entry in the Cambridge 
# Structural Database, then it will include bibliographic, chemical, 
# crystal, experimental, refinement or atomic coordinate data resulting 
# from the CCDC's data processing and validation procedures.
#
#######################################################################

data_YOWKEC
_chemical_formula_moiety         'C24 H26 O9,0.5(H2 O1)'
_chemical_name_systematic        
'10,17-diethyl-1,12,16-trihydroxy-7,18-dimethoxy-4,11-dioxapentacyclo[10.8.0.0^3,8^.0^9,13^.0^15,20^]icosa-3(8),6,15,17,19-pentaene-5,14-dione unknown solvate hemihydrate'
_symmetry_cell_setting           orthorhombic
_symmetry_space_group_name_H-M   'P 21 21 2'
_symmetry_Int_Tables_number      18
_space_group_name_Hall           'P 2 2ab'
loop_
_symmetry_equiv_pos_site_id
_symmetry_equiv_pos_as_xyz
1 x,y,z
2 -x,-y,z
3 1/2-x,1/2+y,-z
4 1/2+x,1/2-y,-z
_cell_length_a                   14.1928(13)
_cell_length_b                   17.7023(16)
_cell_length_c                   10.7282(10)
_cell_angle_alpha                90
_cell_angle_beta                 90
_cell_angle_gamma                90
_cell_volume                     2695.41
_cell_formula_units_Z            4
loop_
_atom_site_label
_atom_site_type_symbol
_atom_site_fract_x
_atom_site_fract_y
_atom_site_fract_z
O1 O 0.2651(5) 0.9598(4) 0.0498(6)
O2 O 0.1335(5) 0.7289(4) 0.2035(6)
O3 O 0.4298(5) 0.7350(4) -0.0347(6)
O4 O 0.1893(5) 0.7085(4) -0.1680(7)
O5 O 0.4167(5) 0.9551(4) 0.1265(7)
H1 H 0.4527 0.9547 0.0644
O6 O 0.5116(5) 0.6593(4) 0.1406(7)
H2 H 0.4721 0.6333 0.1013
O7 O 0.0656(5) 0.6180(4) 0.2113(7)
O8 O 0.3033(5) 0.9355(4) 0.3196(7)
H3 H 0.3589 0.9426 0.3436
O9 O 0.4506(6) 0.7223(5) 0.5514(9)
C1 C 0.1962(7) 0.7783(5) 0.0147(9)
C2 C 0.1063(7) 0.6633(6) 0.1431(9)
C3 C 0.4108(7) 0.7639(5) 0.1784(9)
C4 C 0.3019(7) 0.8772(5) 0.2274(9)
C5 C 0.3526(7) 0.8532(5) 0.0037(9)
H4 H 0.3943 0.8770 -0.0604
C6 C 0.1785(7) 0.7870(5) 0.1337(9)
C7 C 0.1246(6) 0.6559(5) 0.0137(9)
H5 H 0.1070 0.6113 -0.0296
C8 C 0.4014(7) 0.7783(5) 0.0467(9)
C9 C 0.3675(7) 0.8126(6) 0.2657(10)
C10 C 0.2545(7) 0.8415(5) -0.0572(10)
H6 H 0.2618 0.8275 -0.1470
C11 C 0.1681(7) 0.7140(5) -0.0480(9)
C12 C 0.3343(7) 0.9104(5) 0.0998(9)
C13 C 0.4668(8) 0.7031(6) 0.2233(10)
C14 C 0.4793(7) 0.6897(5) 0.3487(10)
C15 C 0.2017(7) 0.8504(5) 0.2224(9)
H7 H 0.1834 0.8342 0.3073
H8 H 0.1615 0.8942 0.2004
C16 C 0.4349(8) 0.7354(6) 0.4267(11)
C17 C 0.2149(7) 0.9202(5) -0.0457(9)
H9 H 0.1465 0.9176 -0.0242
C18 C 0.2290(8) 0.9669(6) -0.1699(10)
H10 H 0.2972 0.9730 -0.1866
H11 H 0.2009 0.9389 -0.2406
C19 C 0.3811(8) 0.8021(6) 0.3913(11)
H12 H 0.3568 0.8363 0.4515
C20 C 0.1839(9) 1.0434(6) -0.1605(12)
H13 H 0.2032 1.0744 -0.2317
H14 H 0.2038 1.0678 -0.0829
H15 H 0.1152 1.0378 -0.1607
C21 C 0.1569(8) 0.6423(6) -0.2407(11)
H16 H 0.1591 0.6543 -0.3299
H17 H 0.0921 0.6297 -0.2169
H18 H 0.1981 0.5991 -0.2236
C22 C 0.5421(9) 0.6299(7) 0.3933(13)
H19 H 0.5496 0.5912 0.3273
H20 H 0.5135 0.6051 0.4669
C23 C 0.6400(8) 0.6614(7) 0.4289(12)
H21 H 0.6645 0.6922 0.3603
H22 H 0.6833 0.6194 0.4451
H23 H 0.6344 0.6926 0.5040
C24 C 0.4027(9) 0.7697(7) 0.6526(11)
H24 H 0.3365 0.7779 0.6302
H25 H 0.4347 0.8185 0.6599
H26 H 0.4061 0.7429 0.7325
O10 O 0.5000 1.0000 -0.0903(10)
H27 H 0.462(5) 1.010(6) -0.153(5)
H27A H 0.538(5) 0.990(6) -0.153(5)
loop_
_geom_bond_atom_site_label_1
_geom_bond_atom_site_label_2
_geom_bond_site_symmetry_1
_geom_bond_site_symmetry_2
O1 C12 1_555 1_555
O2 C2 1_555 1_555
O3 C8 1_555 1_555
O4 C11 1_555 1_555
O5 H1 1_555 1_555
O6 H2 1_555 1_555
O7 C2 1_555 1_555
O8 H3 1_555 1_555
O9 C16 1_555 1_555
C1 C6 1_555 1_555
C2 C7 1_555 1_555
C3 C8 1_555 1_555
C4 O8 1_555 1_555
C5 H4 1_555 1_555
C6 O2 1_555 1_555
C7 H5 1_555 1_555
C8 C5 1_555 1_555
C9 C3 1_555 1_555
C10 C1 1_555 1_555
H6 C10 1_555 1_555
C11 C1 1_555 1_555
C12 O5 1_555 1_555
C13 O6 1_555 1_555
C14 C13 1_555 1_555
C15 C4 1_555 1_555
H7 C15 1_555 1_555
H8 C15 1_555 1_555
C16 C14 1_555 1_555
C17 O1 1_555 1_555
H9 C17 1_555 1_555
C18 C17 1_555 1_555
H10 C18 1_555 1_555
H11 C18 1_555 1_555
C19 C9 1_555 1_555
H12 C19 1_555 1_555
C20 C18 1_555 1_555
H13 C20 1_555 1_555
H14 C20 1_555 1_555
H15 C20 1_555 1_555
C21 O4 1_555 1_555
H16 C21 1_555 1_555
H17 C21 1_555 1_555
H18 C21 1_555 1_555
C22 C14 1_555 1_555
H19 C22 1_555 1_555
H20 C22 1_555 1_555
C23 C22 1_555 1_555
H21 C23 1_555 1_555
H22 C23 1_555 1_555
H23 C23 1_555 1_555
C24 O9 1_555 1_555
H24 C24 1_555 1_555
H25 C24 1_555 1_555
H26 C24 1_555 1_555
O10 H27 1_555 1_555
H27A O10 1_555 1_555
C3 C13 1_555 1_555
C4 C9 1_555 1_555
C4 C12 1_555 1_555
C5 C10 1_555 1_555
C5 C12 1_555 1_555
C6 C15 1_555 1_555
C7 C11 1_555 1_555
C10 C17 1_555 1_555
C16 C19 1_555 1_555

#END
