
#######################################################################
#
#                 Cambridge Crystallographic Data Centre
#                                CCDC 
#
#######################################################################
#
# If this CIF has been generated from an entry in the Cambridge 
# Structural Database, then it will include bibliographic, chemical, 
# crystal, experimental, refinement or atomic coordinate data resulting 
# from the CCDC's data processing and validation procedures.
#
#######################################################################

data_YOWKOM
_chemical_formula_moiety         'C20 H22 Br1 N1 O3'
_chemical_name_systematic        
1-(4-bromophenyl)-3-(4-cyclohexyl-4-oxobut-2-en-1-yl)pyrrolidine-2,5-dione
_symmetry_cell_setting           monoclinic
_symmetry_space_group_name_H-M   'P 21'
_symmetry_Int_Tables_number      4
_space_group_name_Hall           'P 2yb'
loop_
_symmetry_equiv_pos_site_id
_symmetry_equiv_pos_as_xyz
1 x,y,z
2 -x,1/2+y,-z
_cell_length_a                   16.5841(3)
_cell_length_b                   6.43100(10)
_cell_length_c                   18.0484(4)
_cell_angle_alpha                90
_cell_angle_beta                 104.578(2)
_cell_angle_gamma                90
_cell_volume                     1862.93
_exptl_crystal_colour            colorless
_exptl_crystal_description       block
_cell_formula_units_Z            4
loop_
_atom_site_label
_atom_site_type_symbol
_atom_site_fract_x
_atom_site_fract_y
_atom_site_fract_z
C1 C 0.3983(3) 0.3463(11) 0.5635(3)
H1 H 0.3571 0.2846 0.5865
H2 H 0.3709 0.3917 0.5120
C2 C 0.6162(3) 0.1563(9) 0.6259(3)
C3 C 0.7620(4) -0.0529(12) 0.6352(3)
C4 C 0.6792(3) 0.2493(11) 0.6001(3)
H3 H 0.6720 0.3828 0.5797
C5 C 0.4663(3) 0.1936(10) 0.5620(3)
C6 C 0.7528(4) 0.1435(12) 0.6047(4)
H4 H 0.7954 0.2046 0.5874
C7 C 0.7005(4) -0.1466(11) 0.6617(3)
H5 H 0.7081 -0.2796 0.6825
C8 C 0.2784(4) 0.8878(15) 0.6368(4)
H6 H 0.3034 0.9569 0.6820
C9 C 0.1970(5) 0.9667(15) 0.5903(4)
C10 C 0.3949(4) 0.6346(11) 0.6635(3)
H7 H 0.3822 0.5337 0.6989
H8 H 0.4302 0.7409 0.6933
C11 C 0.5245(3) 0.4418(9) 0.6522(3)
C12 C 0.6267(3) -0.0401(9) 0.6572(3)
H9 H 0.5845 -0.1011 0.6751
C13 C 0.1451(5) 1.1006(17) 0.6295(6)
H10 H 0.1422 1.0293 0.6768
C14 C 0.3154(4) 0.7322(12) 0.6183(3)
H11 H 0.2907 0.6711 0.5714
C15 C 0.0535(8) 1.466(2) 0.6486(8)
H12 H 0.0240 1.5603 0.6746
H13 H 0.0580 1.5324 0.6015
C16 C 0.0590(7) 1.128(3) 0.5829(7)
H14 H 0.0309 0.9947 0.5739
H15 H 0.0590 1.1895 0.5339
C17 C 0.1360(7) 1.427(3) 0.6968(7)
H16 H 0.1317 1.3513 0.7422
H17 H 0.1642 1.5573 0.7128
C18 C 0.0104(7) 1.286(3) 0.6322(8)
H18 H -0.0457 1.3146 0.6021
H19 H 0.0066 1.2184 0.6793
C19 C 0.4416(3) 0.5268(9) 0.6112(3)
H20 H 0.4518 0.6323 0.5754
C20 C 0.1882(7) 1.294(2) 0.6510(8)
H21 H 0.1931 1.3686 0.6057
H22 H 0.2437 1.2676 0.6828
N1 N 0.5371(2) 0.2587(8) 0.6157(2)
O1 O 0.4630(3) 0.0396(8) 0.5232(2)
O2 O 0.5745(2) 0.5130(7) 0.7071(2)
O3 O 0.1702(4) 0.9152(16) 0.5275(3)
Br1 Br 0.86212(5) -0.20237(17) 0.64121(6)
C21 C 0.3867(3) 0.5052(9) 0.8751(3)
C22 C 0.5342(3) 0.4506(9) 0.9442(3)
C23 C 0.3249(3) 0.3971(10) 0.8977(3)
H23 H 0.3340 0.2610 0.9152
C24 C 0.7154(3) -0.2450(10) 0.8694(3)
H24 H 0.6891 -0.3111 0.8239
C25 C 0.4833(3) 0.2526(9) 0.8347(3)
C26 C 0.6056(3) 0.3130(10) 0.9372(3)
H25 H 0.6201 0.2164 0.9797
H26 H 0.6543 0.3958 0.9364
C27 C 0.8495(3) -0.4476(11) 0.8692(3)
H27 H 0.8495 -0.3861 0.8196
C28 C 0.3000(3) 0.8045(11) 0.8469(3)
H28 H 0.2911 0.9405 0.8291
C29 C 0.3742(3) 0.7072(9) 0.8496(3)
H29 H 0.4162 0.7778 0.8342
C30 C 0.2494(3) 0.4928(11) 0.8941(3)
H30 H 0.2064 0.4204 0.9072
C31 C 0.5745(3) 0.1957(9) 0.8614(3)
H31 H 0.6038 0.2481 0.8243
C32 C 0.9438(5) -0.8281(13) 0.8591(5)
H32 H 0.9463 -0.8979 0.9072
H33 H 0.9726 -0.9144 0.8298
C33 C 0.8064(4) -0.6560(13) 0.8532(4)
H34 H 0.8010 -0.7163 0.9010
H35 H 0.7508 -0.6358 0.8205
C34 C 0.6747(3) -0.1043(10) 0.8988(3)
H36 H 0.7043 -0.0375 0.9429
C35 C 0.8034(4) -0.2992(11) 0.9085(3)
C36 C 0.9868(4) -0.6249(17) 0.8746(5)
H37 H 0.9922 -0.5652 0.8267
H38 H 1.0424 -0.6463 0.9071
C37 C 0.9405(3) -0.4739(14) 0.9132(5)
H39 H 0.9681 -0.3397 0.9177
H40 H 0.9428 -0.5232 0.9645
C38 C 0.8534(4) -0.8041(13) 0.8150(5)
H41 H 0.8512 -0.7542 0.7638
H42 H 0.8265 -0.9391 0.8103
C39 C 0.5856(3) -0.0410(9) 0.8683(3)
H43 H 0.5532 -0.0941 0.9020
H44 H 0.5642 -0.1035 0.8183
C40 C 0.2387(3) 0.6991(11) 0.8706(3)
N2 N 0.4663(2) 0.4073(7) 0.8823(2)
O4 O 0.8366(3) -0.2236(12) 0.9696(3)
O5 O 0.5326(2) 0.5730(7) 0.9936(2)
O6 O 0.4327(2) 0.1801(7) 0.7804(2)
Br2 Br 0.13818(5) 0.83776(15) 0.87069(6)
loop_
_geom_bond_atom_site_label_1
_geom_bond_atom_site_label_2
_geom_bond_site_symmetry_1
_geom_bond_site_symmetry_2
C1 H1 1_555 1_555
H2 C1 1_555 1_555
C2 C4 1_555 1_555
C3 C6 1_555 1_555
C4 H3 1_555 1_555
C5 C1 1_555 1_555
C6 C4 1_555 1_555
H4 C6 1_555 1_555
C7 C3 1_555 1_555
H5 C7 1_555 1_555
C8 H6 1_555 1_555
C9 C8 1_555 1_555
C10 H7 1_555 1_555
H8 C10 1_555 1_555
C11 C19 1_555 1_555
C12 C2 1_555 1_555
H9 C12 1_555 1_555
C13 C9 1_555 1_555
H10 C13 1_555 1_555
C14 C8 1_555 1_555
H11 C14 1_555 1_555
C15 H12 1_555 1_555
H13 C15 1_555 1_555
C16 C13 1_555 1_555
H14 C16 1_555 1_555
H15 C16 1_555 1_555
C17 C15 1_555 1_555
H16 C17 1_555 1_555
H17 C17 1_555 1_555
C18 C15 1_555 1_555
H18 C18 1_555 1_555
H19 C18 1_555 1_555
C19 C1 1_555 1_555
H20 C19 1_555 1_555
C20 C13 1_555 1_555
H21 C20 1_555 1_555
H22 C20 1_555 1_555
N1 C2 1_555 1_555
O1 C5 1_555 1_555
O2 C11 1_555 1_555
O3 C9 1_555 1_555
Br1 C3 1_555 1_555
C21 C23 1_555 1_555
C22 C26 1_555 1_555
C23 H23 1_555 1_555
C24 H24 1_555 1_555
C25 C31 1_555 1_555
C26 H25 1_555 1_555
H26 C26 1_555 1_555
C27 H27 1_555 1_555
C28 H28 1_555 1_555
C29 C21 1_555 1_555
H29 C29 1_555 1_555
C30 C23 1_555 1_555
H30 C30 1_555 1_555
C31 C26 1_555 1_555
H31 C31 1_555 1_555
C32 H32 1_555 1_555
H33 C32 1_555 1_555
C33 C27 1_555 1_555
H34 C33 1_555 1_555
H35 C33 1_555 1_555
C34 C24 1_555 1_555
H36 C34 1_555 1_555
C35 C24 1_555 1_555
C36 C32 1_555 1_555
H37 C36 1_555 1_555
H38 C36 1_555 1_555
C37 C27 1_555 1_555
H39 C37 1_555 1_555
H40 C37 1_555 1_555
C38 C32 1_555 1_555
H41 C38 1_555 1_555
H42 C38 1_555 1_555
C39 C31 1_555 1_555
H43 C39 1_555 1_555
H44 C39 1_555 1_555
C40 C28 1_555 1_555
N2 C21 1_555 1_555
O4 C35 1_555 1_555
O5 C22 1_555 1_555
O6 C25 1_555 1_555
Br2 C40 1_555 1_555
C5 N1 1_555 1_555
C7 C12 1_555 1_555
C10 C14 1_555 1_555
C10 C19 1_555 1_555
C11 N1 1_555 1_555
C16 C18 1_555 1_555
C17 C20 1_555 1_555
C22 N2 1_555 1_555
C25 N2 1_555 1_555
C27 C35 1_555 1_555
C28 C29 1_555 1_555
C30 C40 1_555 1_555
C33 C38 1_555 1_555
C34 C39 1_555 1_555
C36 C37 1_555 1_555

#END
