
#######################################################################
#
#                 Cambridge Crystallographic Data Centre
#                                CCDC 
#
#######################################################################
#
# If this CIF has been generated from an entry in the Cambridge 
# Structural Database, then it will include bibliographic, chemical, 
# crystal, experimental, refinement or atomic coordinate data resulting 
# from the CCDC's data processing and validation procedures.
#
#######################################################################

data_YOWKAY
_chemical_formula_moiety         'C22 H27 N1 O2 S1'
_chemical_name_systematic        
6,10-dimethyl-3-((4-methylphenyl)sulfonyl)-3,4,4a,7,7a,8,9,10-octahydroazuleno[5,4-c]pyridine
_symmetry_cell_setting           triclinic
_symmetry_space_group_name_H-M   'P -1'
_symmetry_Int_Tables_number      2
_space_group_name_Hall           '-P 1'
loop_
_symmetry_equiv_pos_site_id
_symmetry_equiv_pos_as_xyz
1 x,y,z
2 -x,-y,-z
_cell_length_a                   8.531(2)
_cell_length_b                   11.497(3)
_cell_length_c                   20.128(6)
_cell_angle_alpha                85.723(7)
_cell_angle_beta                 89.400(9)
_cell_angle_gamma                85.923(8)
_cell_volume                     1963.67
_exptl_crystal_colour            colorless
_exptl_crystal_description       prism
_cell_formula_units_Z            4
loop_
_atom_site_label
_atom_site_type_symbol
_atom_site_fract_x
_atom_site_fract_y
_atom_site_fract_z
S1 S 0.20921(6) 0.80003(4) 0.12527(2)
O1 O 0.12226(14) 0.74612(10) 0.07660(6)
O2 O 0.14269(14) 0.90022(10) 0.15634(6)
N1 N 0.24829(17) 0.69905(11) 0.18548(6)
C1 C 0.3887(2) 0.83485(13) 0.08868(8)
C2 C 0.4441(2) 0.77949(15) 0.03343(8)
H1 H 0.3857 0.7221 0.0153
C3 C 0.5855(2) 0.80881(16) 0.00504(9)
H2 H 0.6239 0.7708 -0.0328
C4 C 0.6721(2) 0.89184(15) 0.03039(9)
C5 C 0.6156(2) 0.94511(15) 0.08621(9)
H3 H 0.6744 1.0021 0.1045
C6 C 0.4751(2) 0.91661(14) 0.11572(9)
H4 H 0.4382 0.9530 0.1543
C7 C 0.8264(2) 0.92433(17) -0.00069(10)
H5 H 0.9117 0.8704 0.0179
H6 H 0.8457 1.0044 0.0089
H7 H 0.8221 0.9193 -0.0490
C8 C 0.2954(2) 0.72929(15) 0.24822(8)
H8 H 0.3064 0.8090 0.2555
C9 C 0.3250(2) 0.64707(14) 0.29777(8)
H9 H 0.3613 0.6713 0.3387
C10 C 0.30570(19) 0.52328(14) 0.29365(8)
C11 C 0.32508(19) 0.44831(14) 0.34812(8)
C12 C 0.3546(2) 0.48651(15) 0.41807(8)
H10 H 0.4477 0.5347 0.4176
C13 C 0.3895(2) 0.36979(16) 0.45997(9)
H11 H 0.5025 0.3438 0.4580
H12 H 0.3582 0.3768 0.5071
C14 C 0.2899(2) 0.28598(16) 0.42720(8)
H13 H 0.1777 0.2989 0.4395
H14 H 0.3259 0.2036 0.4399
C15 C 0.3158(2) 0.31649(14) 0.35303(8)
H15 H 0.4220 0.2812 0.3413
C16 C 0.1981(2) 0.27104(14) 0.30678(8)
H16 H 0.1753 0.1904 0.3226
H17 H 0.0985 0.3208 0.3071
C17 C 0.2636(2) 0.27202(14) 0.23703(8)
C18 C 0.29064(19) 0.37210(14) 0.20379(8)
H18 H 0.3420 0.3675 0.1619
C19 C 0.24814(19) 0.49268(13) 0.22574(7)
H19 H 0.1307 0.5018 0.2274
C20 C 0.2994(2) 0.58048(13) 0.17022(8)
H20 H 0.4152 0.5732 0.1655
H21 H 0.2532 0.5633 0.1274
C21 C 0.2089(2) 0.55463(17) 0.44566(9)
H22 H 0.1808 0.6237 0.4155
H23 H 0.2326 0.5792 0.4898
H24 H 0.1208 0.5043 0.4492
C22 C 0.3078(2) 0.15589(14) 0.21022(9)
H25 H 0.3580 0.1680 0.1665
H26 H 0.2132 0.1135 0.2058
H27 H 0.3812 0.1102 0.2408
S2 S 0.69860(6) 0.86380(4) 0.30933(3)
O3 O 0.57959(16) 0.84340(12) 0.35845(7)
O4 O 0.67389(17) 0.95533(10) 0.25759(7)
N2 N 0.73206(17) 0.74230(11) 0.27272(7)
C23 C 0.8717(2) 0.88459(14) 0.35238(8)
C24 C 0.8782(2) 0.85949(15) 0.42032(9)
H28 H 0.7893 0.8321 0.4438
C25 C 1.0142(2) 0.87433(16) 0.45400(9)
H29 H 1.0170 0.8583 0.5010
C26 C 1.1480(2) 0.91219(14) 0.42108(9)
C27 C 1.1380(2) 0.93659(15) 0.35271(9)
H30 H 1.2272 0.9631 0.3290
C28 C 1.0024(2) 0.92354(14) 0.31814(9)
H31 H 0.9984 0.9411 0.2713
C29 C 1.2968(2) 0.92478(17) 0.45801(10)
H32 H 1.2716 0.9604 0.4999
H33 H 1.3647 0.9746 0.4307
H34 H 1.3513 0.8475 0.4676
C30 C 0.7710(2) 0.63393(14) 0.31413(8)
H35 H 0.7108 0.6356 0.3564
H36 H 0.8843 0.6284 0.3251
C31 C 0.7330(2) 0.52653(13) 0.27850(8)
H37 H 0.6169 0.5332 0.2711
C32 C 0.76701(19) 0.42159(14) 0.32709(8)
H38 H 0.8052 0.4361 0.3696
C33 C 0.7487(2) 0.31114(15) 0.31606(9)
C34 C 0.7054(2) 0.27722(15) 0.24839(10)
H39 H 0.6057 0.3206 0.2339
H40 H 0.6894 0.1926 0.2506
C35 C 0.8346(2) 0.30468(14) 0.19830(9)
H41 H 0.9368 0.2786 0.2205
C36 C 0.8310(3) 0.24280(17) 0.13343(10)
H42 H 0.8708 0.1598 0.1404
H43 H 0.7234 0.2470 0.1150
C37 C 0.9398(3) 0.31225(18) 0.08832(10)
H44 H 0.9233 0.2987 0.0410
H45 H 1.0512 0.2910 0.0998
C38 C 0.8933(2) 0.43918(17) 0.10175(9)
H46 H 0.9860 0.4874 0.0951
C39 C 0.8431(2) 0.43266(15) 0.17494(8)
C40 C 0.81002(19) 0.52689(14) 0.20975(8)
C41 C 0.8330(2) 0.64379(14) 0.17993(8)
H47 H 0.8786 0.6496 0.1366
C42 C 0.7956(2) 0.74295(15) 0.20813(8)
H48 H 0.8122 0.8155 0.1842
C43 C 0.7810(2) 0.21345(15) 0.36909(10)
H49 H 0.8086 0.2460 0.4107
H50 H 0.8685 0.1609 0.3549
H51 H 0.6871 0.1697 0.3763
C44 C 0.7588(3) 0.48950(18) 0.05610(9)
H52 H 0.6695 0.4406 0.0622
H53 H 0.7943 0.4909 0.0096
H54 H 0.7266 0.5692 0.0673
loop_
_geom_bond_atom_site_label_1
_geom_bond_atom_site_label_2
_geom_bond_site_symmetry_1
_geom_bond_site_symmetry_2
S1 O1 1_555 1_555
O2 S1 1_555 1_555
N1 S1 1_555 1_555
C1 S1 1_555 1_555
C2 C1 1_555 1_555
H1 C2 1_555 1_555
C3 C2 1_555 1_555
H2 C3 1_555 1_555
C4 C3 1_555 1_555
C5 C4 1_555 1_555
H3 C5 1_555 1_555
C6 C1 1_555 1_555
H4 C6 1_555 1_555
C7 C4 1_555 1_555
H5 C7 1_555 1_555
H6 C7 1_555 1_555
H7 C7 1_555 1_555
C8 N1 1_555 1_555
H8 C8 1_555 1_555
C9 C8 1_555 1_555
H9 C9 1_555 1_555
C10 C9 1_555 1_555
C11 C10 1_555 1_555
C12 C11 1_555 1_555
H10 C12 1_555 1_555
C13 C12 1_555 1_555
H11 C13 1_555 1_555
H12 C13 1_555 1_555
C14 C13 1_555 1_555
H13 C14 1_555 1_555
H14 C14 1_555 1_555
C15 C11 1_555 1_555
H15 C15 1_555 1_555
C16 C15 1_555 1_555
H16 C16 1_555 1_555
H17 C16 1_555 1_555
C17 C16 1_555 1_555
C18 C17 1_555 1_555
H18 C18 1_555 1_555
C19 C10 1_555 1_555
H19 C19 1_555 1_555
C20 N1 1_555 1_555
H20 C20 1_555 1_555
H21 C20 1_555 1_555
C21 C12 1_555 1_555
H22 C21 1_555 1_555
H23 C21 1_555 1_555
H24 C21 1_555 1_555
C22 C17 1_555 1_555
H25 C22 1_555 1_555
H26 C22 1_555 1_555
H27 C22 1_555 1_555
S2 O3 1_555 1_555
O4 S2 1_555 1_555
N2 S2 1_555 1_555
C23 S2 1_555 1_555
C24 C23 1_555 1_555
H28 C24 1_555 1_555
C25 C24 1_555 1_555
H29 C25 1_555 1_555
C26 C25 1_555 1_555
C27 C26 1_555 1_555
H30 C27 1_555 1_555
C28 C23 1_555 1_555
H31 C28 1_555 1_555
C29 C26 1_555 1_555
H32 C29 1_555 1_555
H33 C29 1_555 1_555
H34 C29 1_555 1_555
C30 N2 1_555 1_555
H35 C30 1_555 1_555
H36 C30 1_555 1_555
C31 C30 1_555 1_555
H37 C31 1_555 1_555
C32 C31 1_555 1_555
H38 C32 1_555 1_555
C33 C32 1_555 1_555
C34 C33 1_555 1_555
H39 C34 1_555 1_555
H40 C34 1_555 1_555
C35 C34 1_555 1_555
H41 C35 1_555 1_555
C36 C35 1_555 1_555
H42 C36 1_555 1_555
H43 C36 1_555 1_555
C37 C36 1_555 1_555
H44 C37 1_555 1_555
H45 C37 1_555 1_555
C38 C37 1_555 1_555
H46 C38 1_555 1_555
C39 C35 1_555 1_555
C40 C31 1_555 1_555
C41 C40 1_555 1_555
H47 C41 1_555 1_555
C42 N2 1_555 1_555
H48 C42 1_555 1_555
C43 C33 1_555 1_555
H49 C43 1_555 1_555
H50 C43 1_555 1_555
H51 C43 1_555 1_555
C44 C38 1_555 1_555
H52 C44 1_555 1_555
H53 C44 1_555 1_555
H54 C44 1_555 1_555
C5 C6 1_555 1_555
C14 C15 1_555 1_555
C18 C19 1_555 1_555
C19 C20 1_555 1_555
C27 C28 1_555 1_555
C38 C39 1_555 1_555
C39 C40 1_555 1_555
C41 C42 1_555 1_555

#END
