
#######################################################################
#
#                 Cambridge Crystallographic Data Centre
#                                CCDC 
#
#######################################################################
#
# If this CIF has been generated from an entry in the Cambridge 
# Structural Database, then it will include bibliographic, chemical, 
# crystal, experimental, refinement or atomic coordinate data resulting 
# from the CCDC's data processing and validation procedures.
#
#######################################################################

data_YOWKIG
_chemical_formula_moiety         'C11 H14 O2'
_chemical_name_systematic        '3-phenylpentanoic acid'
_symmetry_cell_setting           monoclinic
_symmetry_space_group_name_H-M   'P 21/c'
_symmetry_Int_Tables_number      14
_space_group_name_Hall           '-P 2ybc'
loop_
_symmetry_equiv_pos_site_id
_symmetry_equiv_pos_as_xyz
1 x,y,z
2 -x,1/2+y,1/2-z
3 -x,-y,-z
4 x,1/2-y,1/2+z
_cell_length_a                   13.021(3)
_cell_length_b                   5.7560(12)
_cell_length_c                   13.563(3)
_cell_angle_alpha                90
_cell_angle_beta                 96.16(3)
_cell_angle_gamma                90
_cell_volume                     1010.66
_exptl_crystal_colour            colorless
_exptl_crystal_description       block
_cell_formula_units_Z            4
loop_
_atom_site_label
_atom_site_type_symbol
_atom_site_fract_x
_atom_site_fract_y
_atom_site_fract_z
O1 O 0.93101(14) -0.1699(3) 0.40874(13)
H1 H 0.9637 -0.1586 0.4662
C1 C 0.65161(17) 0.0951(4) 0.28126(17)
H2 H 0.6592 -0.0302 0.2394
O2 O 0.97417(15) 0.2007(3) 0.40651(13)
C2 C 0.56476(18) 0.1082(5) 0.3319(2)
H3 H 0.5152 -0.0086 0.3244
C3 C 0.5522(2) 0.2923(6) 0.39262(18)
H4 H 0.4937 0.3025 0.4261
C4 C 0.6265(2) 0.4633(5) 0.40420(18)
H5 H 0.6181 0.5891 0.4456
C5 C 0.71352(17) 0.4483(4) 0.35456(15)
H6 H 0.7637 0.5636 0.3636
C6 C 0.72709(15) 0.2646(4) 0.29176(13)
C7 C 0.82085(15) 0.2536(4) 0.23431(14)
H7 H 0.8640 0.3894 0.2531
C8 C 0.88596(17) 0.0362(4) 0.26057(16)
H8 H 0.8428 -0.0997 0.2467
H9 H 0.9410 0.0295 0.2178
C9 C 0.93281(15) 0.0246(4) 0.36596(17)
C10 C 0.79041(18) 0.2650(5) 0.12195(16)
H10 H 0.8518 0.2416 0.0885
H11 H 0.7432 0.1384 0.1030
C11 C 0.7403(2) 0.4896(5) 0.08642(19)
H12 H 0.7230 0.4832 0.0159
H13 H 0.7873 0.6158 0.1026
H14 H 0.6787 0.5133 0.1181
loop_
_geom_bond_atom_site_label_1
_geom_bond_atom_site_label_2
_geom_bond_site_symmetry_1
_geom_bond_site_symmetry_2
O1 H1 1_555 1_555
C1 H2 1_555 1_555
O2 C9 1_555 1_555
C2 C1 1_555 1_555
H3 C2 1_555 1_555
C3 C2 1_555 1_555
H4 C3 1_555 1_555
C4 C3 1_555 1_555
H5 C4 1_555 1_555
C5 C4 1_555 1_555
H6 C5 1_555 1_555
C6 C1 1_555 1_555
C7 C6 1_555 1_555
H7 C7 1_555 1_555
C8 C7 1_555 1_555
H8 C8 1_555 1_555
H9 C8 1_555 1_555
C9 O1 1_555 1_555
C10 C7 1_555 1_555
H10 C10 1_555 1_555
H11 C10 1_555 1_555
C11 C10 1_555 1_555
H12 C11 1_555 1_555
H13 C11 1_555 1_555
H14 C11 1_555 1_555
C5 C6 1_555 1_555
C8 C9 1_555 1_555

#END
