
#######################################################################
#
#                 Cambridge Crystallographic Data Centre
#                                CCDC 
#
#######################################################################
#
# If this CIF has been generated from an entry in the Cambridge 
# Structural Database, then it will include bibliographic, chemical, 
# crystal, experimental, refinement or atomic coordinate data resulting 
# from the CCDC's data processing and validation procedures.
#
#######################################################################

data_YOWSIN
_chemical_compound_source        'leaves of Alstonia scholaris'
_chemical_name_common            
'(17-Isopropyl-4,8,9,13-tetramethyl-3-(2-methyl-1-oxo-2-propanyl)-2,3,4,6,7,8,9,11,12,13,14,15,16,17-tetradecahydro-1H-cyclopenta[a]phenanthren-4-yl)acetic acid'
_chemical_formula_moiety         'C30 H48 O3'
_chemical_name_systematic        'Alstonic acid A'
_symmetry_cell_setting           monoclinic
_symmetry_space_group_name_H-M   'C 2'
_symmetry_Int_Tables_number      5
_space_group_name_Hall           'C 2y'
loop_
_symmetry_equiv_pos_site_id
_symmetry_equiv_pos_as_xyz
1 x,y,z
2 -x,y,-z
3 1/2+x,1/2+y,z
4 1/2-x,1/2+y,-z
_cell_length_a                   29.289(7)
_cell_length_b                   7.6106(19)
_cell_length_c                   12.004(3)
_cell_angle_alpha                90
_cell_angle_beta                 94.914(3)
_cell_angle_gamma                90
_cell_volume                     2665.94
_exptl_crystal_colour            colorless
_exptl_crystal_description       block
_chemical_melting_point          '244-246 deg.C'
_cell_formula_units_Z            4
loop_
_atom_site_label
_atom_site_type_symbol
_atom_site_fract_x
_atom_site_fract_y
_atom_site_fract_z
O1 O 0.0559(3) 0.095(2) 0.5216(8)
O2 O 0.04229(16) 0.2601(7) 0.0459(5)
O3 O 0.04241(14) -0.0266(6) 0.0502(4)
H1 H 0.0146 -0.0123 0.0470
C1 C 0.11109(16) 0.1152(8) 0.1105(4)
H2 H 0.1258 0.2185 0.0825
H3 H 0.1252 0.0133 0.0792
C2 C 0.06216(17) 0.1187(10) 0.0672(5)
C3 C 0.0587(3) -0.0010(14) 0.4423(6)
H4 H 0.0322 -0.0235 0.3961
C4 C 0.10528(17) -0.0686(7) 0.2860(4)
H5 H 0.0740 -0.0846 0.2518
C5 C 0.13364(18) -0.2145(7) 0.2371(5)
H6 H 0.1240 -0.3268 0.2653
H7 H 0.1271 -0.2156 0.1565
C6 C 0.18502(17) -0.1958(6) 0.2642(5)
H8 H 0.1933 -0.2494 0.3364
H9 H 0.2005 -0.2609 0.2090
C7 C 0.20255(16) -0.0091(6) 0.2670(4)
C8 C 0.17354(15) 0.1293(6) 0.2590(4)
C9 C 0.12169(14) 0.1097(6) 0.2406(4)
C10 C 0.19211(17) 0.3168(7) 0.2606(5)
H10 H 0.1848 0.3712 0.3299
H11 H 0.1755 0.3808 0.2001
C11 C 0.24338(16) 0.3429(7) 0.2502(5)
H12 H 0.2581 0.3756 0.3227
H13 H 0.2475 0.4390 0.1990
C12 C 0.26683(16) 0.1781(6) 0.2083(4)
C13 C 0.25417(16) 0.0211(6) 0.2826(4)
C14 C 0.28305(16) -0.1413(7) 0.2538(5)
H14 H 0.2765 -0.2371 0.3033
H15 H 0.2736 -0.1780 0.1779
C15 C 0.33507(16) -0.1082(7) 0.2640(5)
H16 H 0.3452 -0.0848 0.3416
H17 H 0.3505 -0.2137 0.2417
C16 C 0.34889(16) 0.0439(7) 0.1931(4)
C17 C 0.31916(16) 0.2017(6) 0.2194(4)
H18 H 0.3267 0.2224 0.2994
C18 C 0.34068(19) 0.3587(8) 0.1627(6)
H19 H 0.3345 0.4681 0.2000
H20 H 0.3296 0.3671 0.0845
C19 C 0.39256(19) 0.3127(9) 0.1767(6)
H21 H 0.4054 0.3175 0.1050
H22 H 0.4089 0.3957 0.2269
C20 C 0.39683(15) 0.1252(7) 0.2255(4)
H23 H 0.3998 0.1374 0.3071
C21 C 0.44037(18) 0.0317(9) 0.1937(5)
H24 H 0.4383 0.0210 0.1120
C22 C 0.0956(3) -0.2833(12) 0.4459(6)
H25 H 0.0783 -0.2910 0.5102
H26 H 0.1251 -0.3367 0.4624
H27 H 0.0794 -0.3433 0.3842
C23 C 0.1432(2) -0.0109(12) 0.4912(5)
H28 H 0.1497 0.1070 0.4689
H29 H 0.1697 -0.0835 0.4845
H30 H 0.1357 -0.0109 0.5675
C24 C 0.09648(18) 0.2662(8) 0.2890(6)
H31 H 0.1080 0.2846 0.3654
H32 H 0.0642 0.2414 0.2856
H33 H 0.1015 0.3699 0.2463
C25 C 0.10196(18) -0.0847(9) 0.4144(5)
C26 C 0.26509(18) 0.0566(8) 0.4102(4)
H34 H 0.2481 0.1573 0.4316
H35 H 0.2973 0.0784 0.4255
H36 H 0.2565 -0.0440 0.4519
C27 C 0.24757(17) 0.1483(9) 0.0846(4)
H37 H 0.2633 0.2239 0.0365
H38 H 0.2154 0.1747 0.0769
H39 H 0.2522 0.0280 0.0643
C28 C 0.3471(2) -0.0121(10) 0.0713(5)
H40 H 0.3691 -0.1036 0.0631
H41 H 0.3541 0.0868 0.0260
H42 H 0.3169 -0.0547 0.0477
C29 C 0.4457(2) -0.1505(11) 0.2423(7)
H43 H 0.4416 -0.1466 0.3207
H44 H 0.4759 -0.1939 0.2319
H45 H 0.4232 -0.2269 0.2052
C30 C 0.4830(2) 0.1406(12) 0.2295(7)
H46 H 0.4783 0.2599 0.2052
H47 H 0.5090 0.0925 0.1964
H48 H 0.4886 0.1378 0.3095
loop_
_geom_bond_atom_site_label_1
_geom_bond_atom_site_label_2
_geom_bond_site_symmetry_1
_geom_bond_site_symmetry_2
O1 C3 1_555 1_555
O2 C2 1_555 1_555
O3 H1 1_555 1_555
C1 H2 1_555 1_555
H3 C1 1_555 1_555
C2 O3 1_555 1_555
C3 H4 1_555 1_555
C4 H5 1_555 1_555
C5 C4 1_555 1_555
H6 C5 1_555 1_555
H7 C5 1_555 1_555
C6 C5 1_555 1_555
H8 C6 1_555 1_555
H9 C6 1_555 1_555
C7 C6 1_555 1_555
C8 C7 1_555 1_555
C9 C1 1_555 1_555
C10 C8 1_555 1_555
H10 C10 1_555 1_555
H11 C10 1_555 1_555
C11 C10 1_555 1_555
H12 C11 1_555 1_555
H13 C11 1_555 1_555
C12 C11 1_555 1_555
C13 C7 1_555 1_555
C14 C13 1_555 1_555
H14 C14 1_555 1_555
H15 C14 1_555 1_555
C15 C14 1_555 1_555
H16 C15 1_555 1_555
H17 C15 1_555 1_555
C16 C15 1_555 1_555
C17 C12 1_555 1_555
H18 C17 1_555 1_555
C18 C17 1_555 1_555
H19 C18 1_555 1_555
H20 C18 1_555 1_555
C19 C18 1_555 1_555
H21 C19 1_555 1_555
H22 C19 1_555 1_555
C20 C16 1_555 1_555
H23 C20 1_555 1_555
C21 C20 1_555 1_555
H24 C21 1_555 1_555
C22 H25 1_555 1_555
H26 C22 1_555 1_555
H27 C22 1_555 1_555
C23 H28 1_555 1_555
H29 C23 1_555 1_555
H30 C23 1_555 1_555
C24 C9 1_555 1_555
H31 C24 1_555 1_555
H32 C24 1_555 1_555
H33 C24 1_555 1_555
C25 C3 1_555 1_555
C26 C13 1_555 1_555
H34 C26 1_555 1_555
H35 C26 1_555 1_555
H36 C26 1_555 1_555
C27 C12 1_555 1_555
H37 C27 1_555 1_555
H38 C27 1_555 1_555
H39 C27 1_555 1_555
C28 C16 1_555 1_555
H40 C28 1_555 1_555
H41 C28 1_555 1_555
H42 C28 1_555 1_555
C29 C21 1_555 1_555
H43 C29 1_555 1_555
H44 C29 1_555 1_555
H45 C29 1_555 1_555
C30 C21 1_555 1_555
H46 C30 1_555 1_555
H47 C30 1_555 1_555
H48 C30 1_555 1_555
C1 C2 1_555 1_555
C4 C9 1_555 1_555
C4 C25 1_555 1_555
C8 C9 1_555 1_555
C12 C13 1_555 1_555
C16 C17 1_555 1_555
C19 C20 1_555 1_555
C22 C25 1_555 1_555
C23 C25 1_555 1_555

#END
