
#######################################################################
#
#                 Cambridge Crystallographic Data Centre
#                                CCDC 
#
#######################################################################
#
# If this CIF has been generated from an entry in the Cambridge 
# Structural Database, then it will include bibliographic, chemical, 
# crystal, experimental, refinement or atomic coordinate data resulting 
# from the CCDC's data processing and validation procedures.
#
#######################################################################

data_YOWSEJ
_chemical_compound_source        'fruiting body of fungus Phellinus gilvus'
_chemical_name_common            22-Hydroxy-24-methylenelanost-8-en-3-one
_chemical_formula_moiety         'C31 H50 O2'
_chemical_name_systematic        'Gilvsin A'
_symmetry_cell_setting           triclinic
_symmetry_space_group_name_H-M   'P 1'
_symmetry_Int_Tables_number      1
_space_group_name_Hall           'P 1'
loop_
_symmetry_equiv_pos_site_id
_symmetry_equiv_pos_as_xyz
1 x,y,z
_cell_length_a                   7.3237(2)
_cell_length_b                   12.1169(3)
_cell_length_c                   16.1701(4)
_cell_angle_alpha                84.869(2)
_cell_angle_beta                 88.878(2)
_cell_angle_gamma                75.229(2)
_cell_volume                     1381.95
_exptl_crystal_colour            colorless
_exptl_crystal_description       needle
_chemical_melting_point          '122-124 deg.C'
_cell_formula_units_Z            2
loop_
_atom_site_label
_atom_site_type_symbol
_atom_site_fract_x
_atom_site_fract_y
_atom_site_fract_z
O1 O 0.0144(3) 0.7113(2) 1.14750(11)
O2 O 0.0796(3) 0.73333(16) 0.32456(10)
H1 H 0.1323 0.7212 0.2798
C1 C -0.0983(3) 0.6829(2) 0.94124(12)
H2 H -0.2092 0.6779 0.9115
H3 H -0.0137 0.6067 0.9481
C2 C -0.1578(3) 0.7231(2) 1.02658(13)
H4 H -0.2571 0.7936 1.0198
H5 H -0.2096 0.6660 1.0578
C3 C -0.0012(3) 0.7431(2) 1.07492(13)
C4 C 0.1310(3) 0.8074(2) 1.03166(13)
C5 C 0.1719(2) 0.77183(18) 0.94108(11)
H6 H 0.2533 0.6937 0.9477
C6 C 0.2881(3) 0.8411(2) 0.89024(13)
H7 H 0.2087 0.9164 0.8727
H8 H 0.3894 0.8509 0.9243
C7 C 0.3706(3) 0.78079(18) 0.81445(11)
H9 H 0.4073 0.8358 0.7745
H10 H 0.4839 0.7220 0.8310
C8 C 0.2377(2) 0.72650(14) 0.77282(10)
C9 C 0.0763(2) 0.71298(15) 0.80734(10)
C10 C 0.0011(2) 0.76309(16) 0.88905(11)
C11 C -0.0526(3) 0.65558(19) 0.76403(12)
H11 H -0.1778 0.7075 0.7607
H12 H -0.0618 0.5878 0.7990
C12 C 0.0031(3) 0.61974(18) 0.67691(12)
H13 H 0.0736 0.5400 0.6807
H14 H -0.1100 0.6271 0.6444
C13 C 0.1228(2) 0.69322(15) 0.63324(10)
C14 C 0.2995(2) 0.68038(15) 0.68922(10)
C15 C 0.4186(3) 0.74302(18) 0.63236(11)
H15 H 0.5507 0.7191 0.6485
H16 H 0.3741 0.8254 0.6339
C16 C 0.3902(3) 0.70697(18) 0.54537(11)
H17 H 0.5005 0.6492 0.5298
H18 H 0.3718 0.7726 0.5045
C17 C 0.2129(2) 0.65785(16) 0.54845(10)
H19 H 0.2565 0.5741 0.5522
C18 C 0.0063(3) 0.81820(17) 0.62262(12)
H20 H -0.1018 0.8239 0.5883
H21 H 0.0825 0.8653 0.5968
H22 H -0.0347 0.8436 0.6760
C19 C -0.1427(3) 0.8783(2) 0.86471(14)
H23 H -0.2434 0.8652 0.8331
H24 H -0.0809 0.9281 0.8319
H25 H -0.1930 0.9134 0.9140
C20 C 0.0881(3) 0.69658(18) 0.47081(11)
H26 H 0.0436 0.7802 0.4689
C21 C -0.0867(3) 0.6509(3) 0.47297(14)
H27 H -0.1590 0.6790 0.4231
H28 H -0.1621 0.6761 0.5202
H29 H -0.0496 0.5687 0.4769
C22 C 0.1999(3) 0.66935(18) 0.39020(11)
H30 H 0.3123 0.6990 0.3915
C23 C 0.2636(3) 0.54257(19) 0.37725(13)
H31 H 0.3244 0.5010 0.4276
H32 H 0.1536 0.5148 0.3672
C24 C 0.3982(3) 0.51798(19) 0.30585(13)
C25 C 0.5977(3) 0.5203(2) 0.32146(16)
H33 H 0.5918 0.5842 0.3554
C26 C 0.7066(6) 0.5420(5) 0.2444(3)
H34 H 0.8323 0.5428 0.2595
H35 H 0.6446 0.6146 0.2161
H36 H 0.7123 0.4824 0.2083
C27 C 0.7023(6) 0.4161(5) 0.3702(3)
H37 H 0.6334 0.4039 0.4199
H38 H 0.8241 0.4247 0.3848
H39 H 0.7179 0.3517 0.3379
C28 C 0.3385(5) 0.4986(3) 0.23493(18)
H40 H 0.4213 0.4851 0.1905
H41 H 0.2127 0.4981 0.2285
C29 C 0.3182(4) 0.7766(4) 1.07911(16)
H42 H 0.2964 0.7988 1.1347
H43 H 0.4035 0.8162 1.0516
H44 H 0.3725 0.6955 1.0808
C30 C 0.0363(5) 0.9347(3) 1.03694(18)
H45 H 0.0168 0.9499 1.0941
H46 H -0.0831 0.9543 1.0086
H47 H 0.1160 0.9798 1.0114
C31 C 0.4175(3) 0.55624(18) 0.70699(13)
H48 H 0.5237 0.5550 0.7413
H49 H 0.4616 0.5250 0.6556
H50 H 0.3410 0.5112 0.7352
O3 O 0.3738(4) 0.0896(2) 0.12850(13)
O4 O 0.1438(4) 0.18413(19) 0.95083(12)
H51 H 0.1822 0.1930 0.9964
C32 C 0.1961(4) 0.2058(3) 0.32156(16)
H52 H 0.2624 0.2658 0.3160
H53 H 0.0700 0.2385 0.3417
C33 C 0.1819(5) 0.1627(4) 0.2361(2)
H54 H 0.0903 0.1171 0.2394
H55 H 0.1339 0.2284 0.1966
C34 C 0.3607(4) 0.0933(2) 0.20341(16)
C35 C 0.5156(3) 0.0216(2) 0.26103(14)
C36 C 0.4996(3) 0.06317(18) 0.35036(12)
H56 H 0.5555 0.1288 0.3460
C37 C 0.6195(3) -0.0219(2) 0.41377(15)
H57 H 0.7420 -0.0545 0.3901
H58 H 0.5598 -0.0837 0.4288
C38 C 0.6447(4) 0.0358(3) 0.49072(17)
H59 H 0.6900 -0.0228 0.5358
H60 H 0.7406 0.0775 0.4798
C39 C 0.4662(3) 0.11733(17) 0.51804(12)
C40 C 0.3148(3) 0.15389(17) 0.46990(12)
C41 C 0.2998(3) 0.10973(19) 0.38494(13)
C42 C 0.1377(3) 0.2389(2) 0.49951(14)
H61 H 0.0312 0.2059 0.4947
H62 H 0.1147 0.3079 0.4617
C43 C 0.1402(3) 0.2743(2) 0.58873(14)
H63 H 0.1780 0.3456 0.5873
H64 H 0.0138 0.2874 0.6117
C44 C 0.2751(3) 0.18291(16) 0.64453(12)
C45 C 0.4713(3) 0.16199(17) 0.60236(13)
C46 C 0.5955(3) 0.0807(2) 0.66999(15)
H65 H 0.5849 0.0028 0.6681
H66 H 0.7270 0.0816 0.6633
C47 C 0.5159(3) 0.1291(2) 0.75181(15)
H67 H 0.5996 0.1696 0.7741
H68 H 0.5043 0.0673 0.7924
C48 C 0.3197(3) 0.21186(17) 0.73268(12)
H69 H 0.3357 0.2901 0.7275
C49 C 0.2017(4) 0.0745(2) 0.65261(15)
H70 H 0.1741 0.0563 0.5984
H71 H 0.0889 0.0877 0.6855
H72 H 0.2961 0.0119 0.6789
C50 C 0.1869(4) 0.0173(3) 0.39818(19)
H73 H 0.0644 0.0507 0.4200
H74 H 0.2535 -0.0441 0.4366
H75 H 0.1730 -0.0120 0.3461
C51 C 0.1795(3) 0.20374(19) 0.80383(14)
H76 H 0.1673 0.1247 0.8089
C52 C -0.0186(4) 0.2810(3) 0.78577(18)
H77 H -0.0999 0.2718 0.8317
H78 H -0.0675 0.2602 0.7364
H79 H -0.0125 0.3594 0.7778
C53 C 0.2566(4) 0.22347(19) 0.88716(13)
H80 H 0.3868 0.1765 0.8935
C54 C 0.2550(4) 0.3481(2) 0.89677(15)
H81 H 0.3216 0.3761 0.8504
H82 H 0.1254 0.3941 0.8949
C55 C 0.3437(4) 0.3627(2) 0.97534(15)
C56 C 0.5579(5) 0.3430(3) 0.9739(2)
H83 H 0.5934 0.3015 0.9243
C57 C 0.6131(5) 0.4520(3) 0.9513(3)
H84 H 0.7483 0.4369 0.9502
H85 H 0.5638 0.5053 0.9917
H86 H 0.5629 0.4840 0.8975
C58 C 0.6606(7) 0.2695(7) 1.0348(5)
H87 H 0.6142 0.2021 1.0430
H88 H 0.6492 0.3063 1.0855
H89 H 0.7909 0.2484 1.0186
C59 C 0.2404(5) 0.3907(3) 1.03974(18)
H90 H 0.1102 0.4016 1.0368
H91 H 0.2962 0.3999 1.0890
C60 C 0.7057(4) 0.0325(4) 0.22459(19)
H92 H 0.7190 0.0069 0.1698
H93 H 0.8064 -0.0137 0.2593
H94 H 0.7108 0.1111 0.2219
C61 C 0.5096(6) -0.1043(3) 0.2600(2)
H95 H 0.5210 -0.1252 0.2039
H96 H 0.3920 -0.1137 0.2828
H97 H 0.6122 -0.1525 0.2927
C62 C 0.5460(4) 0.2695(2) 0.58901(17)
H98 H 0.4720 0.3220 0.5470
H99 H 0.6755 0.2484 0.5716
H100 H 0.5375 0.3054 0.6400
loop_
_geom_bond_atom_site_label_1
_geom_bond_atom_site_label_2
_geom_bond_site_symmetry_1
_geom_bond_site_symmetry_2
O1 C3 1_555 1_555
O2 H1 1_555 1_555
C1 H2 1_555 1_555
H3 C1 1_555 1_555
C2 C1 1_555 1_555
H4 C2 1_555 1_555
H5 C2 1_555 1_555
C3 C2 1_555 1_555
C4 C3 1_555 1_555
C5 C4 1_555 1_555
H6 C5 1_555 1_555
C6 C5 1_555 1_555
H7 C6 1_555 1_555
H8 C6 1_555 1_555
C7 C6 1_555 1_555
H9 C7 1_555 1_555
H10 C7 1_555 1_555
C8 C7 1_555 1_555
C9 C8 1_555 1_555
C10 C1 1_555 1_555
C11 C9 1_555 1_555
H11 C11 1_555 1_555
H12 C11 1_555 1_555
C12 C11 1_555 1_555
H13 C12 1_555 1_555
H14 C12 1_555 1_555
C13 C12 1_555 1_555
C14 C8 1_555 1_555
C15 C14 1_555 1_555
H15 C15 1_555 1_555
H16 C15 1_555 1_555
C16 C15 1_555 1_555
H17 C16 1_555 1_555
H18 C16 1_555 1_555
C17 C13 1_555 1_555
H19 C17 1_555 1_555
C18 C13 1_555 1_555
H20 C18 1_555 1_555
H21 C18 1_555 1_555
H22 C18 1_555 1_555
C19 C10 1_555 1_555
H23 C19 1_555 1_555
H24 C19 1_555 1_555
H25 C19 1_555 1_555
C20 C17 1_555 1_555
H26 C20 1_555 1_555
C21 C20 1_555 1_555
H27 C21 1_555 1_555
H28 C21 1_555 1_555
H29 C21 1_555 1_555
C22 O2 1_555 1_555
H30 C22 1_555 1_555
C23 C22 1_555 1_555
H31 C23 1_555 1_555
H32 C23 1_555 1_555
C24 C23 1_555 1_555
C25 C24 1_555 1_555
H33 C25 1_555 1_555
C26 C25 1_555 1_555
H34 C26 1_555 1_555
H35 C26 1_555 1_555
H36 C26 1_555 1_555
C27 C25 1_555 1_555
H37 C27 1_555 1_555
H38 C27 1_555 1_555
H39 C27 1_555 1_555
C28 C24 1_555 1_555
H40 C28 1_555 1_555
H41 C28 1_555 1_555
C29 C4 1_555 1_555
H42 C29 1_555 1_555
H43 C29 1_555 1_555
H44 C29 1_555 1_555
C30 C4 1_555 1_555
H45 C30 1_555 1_555
H46 C30 1_555 1_555
H47 C30 1_555 1_555
C31 C14 1_555 1_555
H48 C31 1_555 1_555
H49 C31 1_555 1_555
H50 C31 1_555 1_555
O3 C34 1_555 1_555
O4 H51 1_555 1_555
C32 H52 1_555 1_555
H53 C32 1_555 1_555
C33 C32 1_555 1_555
H54 C33 1_555 1_555
H55 C33 1_555 1_555
C34 C33 1_555 1_555
C35 C34 1_555 1_555
C36 C35 1_555 1_555
H56 C36 1_555 1_555
C37 C36 1_555 1_555
H57 C37 1_555 1_555
H58 C37 1_555 1_555
C38 C37 1_555 1_555
H59 C38 1_555 1_555
H60 C38 1_555 1_555
C39 C38 1_555 1_555
C40 C39 1_555 1_555
C41 C32 1_555 1_555
C42 C40 1_555 1_555
H61 C42 1_555 1_555
H62 C42 1_555 1_555
C43 C42 1_555 1_555
H63 C43 1_555 1_555
H64 C43 1_555 1_555
C44 C43 1_555 1_555
C45 C39 1_555 1_555
C46 C45 1_555 1_555
H65 C46 1_555 1_555
H66 C46 1_555 1_555
C47 C46 1_555 1_555
H67 C47 1_555 1_555
H68 C47 1_555 1_555
C48 C44 1_555 1_555
H69 C48 1_555 1_555
C49 C44 1_555 1_555
H70 C49 1_555 1_555
H71 C49 1_555 1_555
H72 C49 1_555 1_555
C50 C41 1_555 1_555
H73 C50 1_555 1_555
H74 C50 1_555 1_555
H75 C50 1_555 1_555
C51 C48 1_555 1_555
H76 C51 1_555 1_555
C52 C51 1_555 1_555
H77 C52 1_555 1_555
H78 C52 1_555 1_555
H79 C52 1_555 1_555
C53 O4 1_555 1_555
H80 C53 1_555 1_555
C54 C53 1_555 1_555
H81 C54 1_555 1_555
H82 C54 1_555 1_555
C55 C54 1_555 1_555
C56 C55 1_555 1_555
H83 C56 1_555 1_555
C57 C56 1_555 1_555
H84 C57 1_555 1_555
H85 C57 1_555 1_555
H86 C57 1_555 1_555
C58 C56 1_555 1_555
H87 C58 1_555 1_555
H88 C58 1_555 1_555
H89 C58 1_555 1_555
C59 C55 1_555 1_555
H90 C59 1_555 1_555
H91 C59 1_555 1_555
C60 C35 1_555 1_555
H92 C60 1_555 1_555
H93 C60 1_555 1_555
H94 C60 1_555 1_555
C61 C35 1_555 1_555
H95 C61 1_555 1_555
H96 C61 1_555 1_555
H97 C61 1_555 1_555
C62 C45 1_555 1_555
H98 C62 1_555 1_555
H99 C62 1_555 1_555
H100 C62 1_555 1_555
C5 C10 1_555 1_555
C9 C10 1_555 1_555
C13 C14 1_555 1_555
C16 C17 1_555 1_555
C20 C22 1_555 1_555
C36 C41 1_555 1_555
C40 C41 1_555 1_555
C44 C45 1_555 1_555
C47 C48 1_555 1_555
C51 C53 1_555 1_555

#END
