
#######################################################################
#
#                 Cambridge Crystallographic Data Centre
#                                CCDC 
#
#######################################################################
#
# If this CIF has been generated from an entry in the Cambridge 
# Structural Database, then it will include bibliographic, chemical, 
# crystal, experimental, refinement or atomic coordinate data resulting 
# from the CCDC's data processing and validation procedures.
#
#######################################################################

data_YOWVOV
_chemical_formula_moiety         'C20 H25 N1 O3'
_chemical_name_systematic        
N-(3-(3,4-Dimethylphenyl)propyl)-(4-hydroxy-3-methoxyphenyl)acetamide
_chemical_properties_biological  'potent analgesic activity'
_symmetry_cell_setting           triclinic
_symmetry_space_group_name_H-M   'P -1'
_symmetry_Int_Tables_number      2
_space_group_name_Hall           '-P 1'
loop_
_symmetry_equiv_pos_site_id
_symmetry_equiv_pos_as_xyz
1 x,y,z
2 -x,-y,-z
_cell_length_a                   7.964(1)
_cell_length_b                   8.859(1)
_cell_length_c                   13.229(2)
_cell_angle_alpha                86.34(1)
_cell_angle_beta                 73.71(1)
_cell_angle_gamma                88.25(1)
_cell_volume                     893.972
_exptl_crystal_colour            Colorless
_cell_formula_units_Z            2
loop_
_atom_site_label
_atom_site_type_symbol
_atom_site_fract_x
_atom_site_fract_y
_atom_site_fract_z
O1 O 0.8274(2) 0.2655(2) 0.6225(1)
O2 O 1.0589(2) 0.4393(2) 0.6625(1)
O3 O 0.6994(2) 1.1177(2) 0.4878(1)
N1 N 0.8109(3) 0.9075(2) 0.4054(1)
C1 C 0.7555(3) 0.7321(2) 0.6019(2)
C2 C 0.6329(3) 0.6386(2) 0.5826(2)
C3 C 0.6554(3) 0.4820(2) 0.5893(2)
C4 C 0.7985(3) 0.4183(2) 0.6153(1)
C5 C 0.9214(3) 0.5115(2) 0.6364(2)
C6 C 0.8995(3) 0.6673(2) 0.6287(2)
C7 C 1.1712(4) 0.5325(3) 0.6986(3)
C8 C 0.7294(4) 0.9018(2) 0.5975(2)
C9 C 0.7460(3) 0.9825(2) 0.4913(2)
C10 C 0.8285(4) 0.9729(3) 0.2992(2)
C11 C 0.7364(4) 0.8787(3) 0.2392(2)
C12 C 0.7338(5) 0.9569(3) 0.1339(2)
C13 C 0.6511(3) 0.8642(3) 0.0689(2)
C14 C 0.4758(4) 0.8269(3) 0.1042(2)
C15 C 0.3944(3) 0.7448(3) 0.0451(2)
C16 C 0.4929(4) 0.6990(3) -0.0532(2)
C17 C 0.6674(4) 0.7357(3) -0.0881(2)
C18 C 0.7469(4) 0.8167(3) -0.0280(2)
C19 C 0.2038(4) 0.7075(5) 0.0884(3)
C20 C 0.4126(6) 0.6099(4) -0.1219(3)
H1 H 0.781(4) 0.235(4) 0.591(2)
H2 H 0.846(3) 0.822(3) 0.414(2)
H3 H 0.527(3) 0.690(3) 0.564(2)
H4 H 0.563(3) 0.415(3) 0.582(2)
H5 H 0.991(3) 0.731(2) 0.637(2)
H6 H 1.271(4) 0.456(4) 0.711(2)
H7 H 1.229(4) 0.621(4) 0.638(3)
H8 H 1.096(4) 0.586(4) 0.769(3)
H9 H 0.596(4) 0.926(3) 0.649(2)
H10 H 0.804(4) 0.945(3) 0.627(2)
H11 H 0.769(4) 1.081(3) 0.306(2)
H12 H 0.961(4) 0.981(3) 0.256(2)
H13 H 0.612(4) 0.855(3) 0.286(2)
H14 H 0.804(4) 0.777(3) 0.223(2)
H15 H 0.654(4) 1.060(4) 0.150(3)
H16 H 0.857(5) 0.992(4) 0.093(3)
H17 H 0.401(3) 0.860(3) 0.175(2)
H18 H 0.753(4) 0.699(4) -0.164(3)
H19 H 0.884(4) 0.839(3) -0.060(2)
H20 H 0.143(5) 0.738(4) 0.162(3)
H21 H 0.127(5) 0.765(5) 0.043(3)
H22 H 0.175(7) 0.600(6) 0.102(4)
H23 H 0.360(4) 0.498(4) -0.078(3)
H24 H 0.314(5) 0.667(4) -0.135(3)
H25 H 0.512(6) 0.562(5) -0.186(4)
loop_
_geom_bond_atom_site_label_1
_geom_bond_atom_site_label_2
_geom_bond_site_symmetry_1
_geom_bond_site_symmetry_2
O1 C4 1_555 1_555
O2 C5 1_555 1_555
O3 C9 1_555 1_555
N1 C9 1_555 1_555
C1 C2 1_555 1_555
C2 C3 1_555 1_555
C3 C4 1_555 1_555
C4 C5 1_555 1_555
C5 C6 1_555 1_555
C6 C1 1_555 1_555
C7 O2 1_555 1_555
C8 C1 1_555 1_555
C9 C8 1_555 1_555
C10 N1 1_555 1_555
C11 C10 1_555 1_555
C12 C11 1_555 1_555
C13 C12 1_555 1_555
C14 C13 1_555 1_555
C15 C14 1_555 1_555
C16 C15 1_555 1_555
C17 C16 1_555 1_555
C18 C13 1_555 1_555
C19 C15 1_555 1_555
C20 C16 1_555 1_555
H1 O1 1_555 1_555
H2 N1 1_555 1_555
H3 C2 1_555 1_555
H4 C3 1_555 1_555
H5 C6 1_555 1_555
H6 C7 1_555 1_555
H7 C7 1_555 1_555
H8 C7 1_555 1_555
H9 C8 1_555 1_555
H10 C8 1_555 1_555
H11 C10 1_555 1_555
H12 C10 1_555 1_555
H13 C11 1_555 1_555
H14 C11 1_555 1_555
H15 C12 1_555 1_555
H16 C12 1_555 1_555
H17 C14 1_555 1_555
H18 C17 1_555 1_555
H19 C18 1_555 1_555
H20 C19 1_555 1_555
H21 C19 1_555 1_555
H22 C19 1_555 1_555
H23 C20 1_555 1_555
H24 C20 1_555 1_555
H25 C20 1_555 1_555
C17 C18 1_555 1_555

#END
