
#######################################################################
#
#                 Cambridge Crystallographic Data Centre
#                                CCDC 
#
#######################################################################
#
# If this CIF has been generated from an entry in the Cambridge 
# Structural Database, then it will include bibliographic, chemical, 
# crystal, experimental, refinement or atomic coordinate data resulting 
# from the CCDC's data processing and validation procedures.
#
#######################################################################

data_YOXQOT
_chemical_formula_moiety         'C17 H18 Br1 F3 N2 O5'
_chemical_name_systematic        
N-((4-bromobenzoyl)oxy)-N-cyclopentyl-4,4,4-trifluoro-3-(nitromethyl)butanamide
_symmetry_cell_setting           orthorhombic
_symmetry_space_group_name_H-M   'P 21 21 2'
_symmetry_Int_Tables_number      18
_space_group_name_Hall           'P 2 2ab'
loop_
_symmetry_equiv_pos_site_id
_symmetry_equiv_pos_as_xyz
1 x,y,z
2 -x,-y,z
3 1/2-x,1/2+y,-z
4 1/2+x,1/2-y,-z
_cell_length_a                   13.3503(15)
_cell_length_b                   26.402(3)
_cell_length_c                   11.0275(12)
_cell_angle_alpha                90
_cell_angle_beta                 90
_cell_angle_gamma                90
_cell_volume                     3886.91
_exptl_crystal_description       block
_cell_formula_units_Z            8
loop_
_atom_site_label
_atom_site_type_symbol
_atom_site_fract_x
_atom_site_fract_y
_atom_site_fract_z
Br1 Br 0.83390(8) 0.42298(3) 1.43760(8)
O1 O 0.8589(3) 0.60583(17) 1.0132(4)
C1 C 0.8823(5) 0.6134(3) 1.1304(7)
C2 C 0.7821(5) 0.6794(3) 0.9475(7)
N1 N 0.8645(4) 0.6504(2) 0.9412(5)
C3 C 0.8502(5) 0.4816(3) 1.3419(6)
C4 C 0.8497(5) 0.5210(3) 1.1494(6)
H1 H 0.8409 0.5191 1.0659
O2 O 0.9094(4) 0.6542(2) 1.1713(5)
C5 C 0.8392(6) 0.4784(3) 1.2181(7)
H2 H 0.8248 0.4475 1.1817
C6 C 0.7794(5) 0.7234(3) 0.8612(7)
H3 H 0.7687 0.7110 0.7794
H4 H 0.8435 0.7407 0.8630
C7 C 0.8730(4) 0.5665(3) 1.2011(6)
C8 C 0.8847(5) 0.5696(3) 1.3284(7)
H5 H 0.9006 0.6002 1.3653
C9 C 1.0347(5) 0.6236(3) 0.8694(7)
H6 H 1.0851 0.6476 0.8426
H7 H 1.0410 0.6194 0.9564
O3 O 0.7202(3) 0.67338(18) 1.0251(5)
C10 C 0.8724(5) 0.5272(3) 1.3957(6)
H8 H 0.8790 0.5289 1.4795
F1 F 0.6417(3) 0.84359(13) 0.8530(4)
O4 O 0.5540(5) 0.7505(2) 1.0864(5)
C11 C 0.9323(5) 0.6429(3) 0.8387(7)
H9 H 0.9402 0.6755 0.7973
C12 C 0.8918(6) 0.6040(3) 0.7448(6)
H10 H 0.8362 0.5851 0.7789
H11 H 0.8687 0.6213 0.6724
N2 N 0.5420(5) 0.7265(3) 0.9965(8)
F2 F 0.6994(4) 0.80126(16) 0.7052(4)
C13 C 0.6960(4) 0.7608(2) 0.8941(6)
H12 H 0.7052 0.7697 0.9797
C14 C 0.7071(5) 0.8082(3) 0.8237(6)
C15 C 0.5914(4) 0.7410(2) 0.8811(5)
H13 H 0.5510 0.7667 0.8418
H14 H 0.5928 0.7117 0.8283
F3 F 0.7975(3) 0.82980(16) 0.8419(5)
C16 C 0.9691(9) 0.5720(4) 0.7171(11)
H15 H 0.9962 0.5806 0.6381
H16 H 0.9450 0.5374 0.7141
O5 O 0.4915(6) 0.6887(3) 0.9952(7)
C17 C 1.0486(7) 0.5766(4) 0.8105(11)
H17 H 1.0436 0.5491 0.8685
H18 H 1.1143 0.5753 0.7730
Br2 Br 0.16778(8) 1.07635(3) 0.06171(8)
O6 O 0.1448(3) 0.89729(17) 0.4997(4)
C18 C 0.2202(5) 0.8249(3) 0.5702(7)
N3 N 0.1374(4) 0.85353(19) 0.5725(5)
C19 C 0.1226(5) 0.8875(3) 0.3798(6)
C20 C 0.1551(5) 0.9814(2) 0.3581(6)
H19 H 0.1644 0.9843 0.4414
C21 C 0.1326(5) 0.9348(3) 0.3071(6)
C22 C 0.1198(5) 0.9320(3) 0.1825(7)
H20 H 0.1034 0.9012 0.1468
C23 C 0.1543(6) 1.0190(3) 0.1618(7)
O7 O 0.1066(4) 0.8466(2) 0.3431(5)
C24 C 0.1639(6) 1.0239(3) 0.2837(6)
H21 H 0.1763 1.0555 0.3177
C25 C 0.2213(5) 0.7790(3) 0.6498(7)
H22 H 0.1662 0.7570 0.6269
H23 H 0.2106 0.7894 0.7331
N4 N 0.4463(6) 0.7620(3) 0.4803(8)
O8 O 0.2904(4) 0.83505(19) 0.4994(6)
C26 C -0.0349(5) 0.8790(2) 0.6261(7)
H24 H -0.0354 0.8816 0.5383
H25 H -0.0885 0.8565 0.6513
C27 C 0.3536(7) 0.7367(3) 0.5218(8)
H26 H 0.3007 0.7446 0.4646
H27 H 0.3644 0.7004 0.5184
C28 C 0.1309(5) 0.9741(3) 0.1114(6)
H28 H 0.1223 0.9717 0.0280
C29 C 0.0663(5) 0.8597(2) 0.6713(6)
H29 H 0.0576 0.8275 0.7141
C30 C 0.1026(7) 0.9004(4) 0.7594(7)
H30 H 0.1295 0.8850 0.8322
H31 H 0.1546 0.9208 0.7221
C31 C 0.3084(8) 0.7027(4) 0.7239(11)
F4 F 0.2419(5) 0.6710(3) 0.6757(7)
C32 C -0.0466(7) 0.9308(3) 0.6837(10)
H32 H -0.0283 0.9574 0.6272
H33 H -0.1150 0.9362 0.7104
C33 C 0.3182(6) 0.7492(3) 0.6425(7)
H34 H 0.3699 0.7706 0.6792
O9 O 0.4530(7) 0.7597(3) 0.3737(7)
C34 C 0.0222(9) 0.9297(4) 0.7871(10)
H35 H 0.0442 0.9638 0.8060
H36 H -0.0117 0.9160 0.8577
O10 O 0.5054(6) 0.7797(5) 0.5462(9)
F5 F 0.3971(4) 0.6780(2) 0.7236(6)
F6 F 0.2872(6) 0.7125(3) 0.8318(7)
loop_
_geom_bond_atom_site_label_1
_geom_bond_atom_site_label_2
_geom_bond_site_symmetry_1
_geom_bond_site_symmetry_2
Br1 C3 1_555 1_555
O1 C1 1_555 1_555
C1 O2 1_555 1_555
C2 N1 1_555 1_555
N1 O1 1_555 1_555
C3 C5 1_555 1_555
C4 H1 1_555 1_555
C5 C4 1_555 1_555
H2 C5 1_555 1_555
C6 C2 1_555 1_555
H3 C6 1_555 1_555
H4 C6 1_555 1_555
C7 C1 1_555 1_555
C8 C7 1_555 1_555
H5 C8 1_555 1_555
C9 H6 1_555 1_555
H7 C9 1_555 1_555
O3 C2 1_555 1_555
C10 C3 1_555 1_555
H8 C10 1_555 1_555
F1 C14 1_555 1_555
O4 N2 1_555 1_555
C11 N1 1_555 1_555
H9 C11 1_555 1_555
C12 C11 1_555 1_555
H10 C12 1_555 1_555
H11 C12 1_555 1_555
N2 C15 1_555 1_555
F2 C14 1_555 1_555
C13 C6 1_555 1_555
H12 C13 1_555 1_555
C14 C13 1_555 1_555
C15 C13 1_555 1_555
H13 C15 1_555 1_555
H14 C15 1_555 1_555
F3 C14 1_555 1_555
C16 C12 1_555 1_555
H15 C16 1_555 1_555
H16 C16 1_555 1_555
O5 N2 1_555 1_555
C17 C9 1_555 1_555
H17 C17 1_555 1_555
H18 C17 1_555 1_555
Br2 C23 1_555 1_555
O6 N3 1_555 1_555
C18 N3 1_555 1_555
N3 C29 1_555 1_555
C19 O6 1_555 1_555
C20 H19 1_555 1_555
C21 C19 1_555 1_555
C22 C21 1_555 1_555
H20 C22 1_555 1_555
C23 C24 1_555 1_555
O7 C19 1_555 1_555
C24 C20 1_555 1_555
H21 C24 1_555 1_555
C25 C18 1_555 1_555
H22 C25 1_555 1_555
H23 C25 1_555 1_555
N4 C27 1_555 1_555
O8 C18 1_555 1_555
C26 H24 1_555 1_555
H25 C26 1_555 1_555
C27 H26 1_555 1_555
H27 C27 1_555 1_555
C28 C22 1_555 1_555
H28 C28 1_555 1_555
C29 C26 1_555 1_555
H29 C29 1_555 1_555
C30 C29 1_555 1_555
H30 C30 1_555 1_555
H31 C30 1_555 1_555
C31 F4 1_555 1_555
C32 C26 1_555 1_555
H32 C32 1_555 1_555
H33 C32 1_555 1_555
C33 C25 1_555 1_555
H34 C33 1_555 1_555
O9 N4 1_555 1_555
C34 C30 1_555 1_555
H35 C34 1_555 1_555
H36 C34 1_555 1_555
O10 N4 1_555 1_555
F5 C31 1_555 1_555
F6 C31 1_555 1_555
C4 C7 1_555 1_555
C8 C10 1_555 1_555
C9 C11 1_555 1_555
C16 C17 1_555 1_555
C20 C21 1_555 1_555
C23 C28 1_555 1_555
C27 C33 1_555 1_555
C31 C33 1_555 1_555
C32 C34 1_555 1_555

#END
