
#######################################################################
#
#                 Cambridge Crystallographic Data Centre
#                                CCDC 
#
#######################################################################
#
# If this CIF has been generated from an entry in the Cambridge 
# Structural Database, then it will include bibliographic, chemical, 
# crystal, experimental, refinement or atomic coordinate data resulting 
# from the CCDC's data processing and validation procedures.
#
#######################################################################

data_YOXQIN
_chemical_formula_moiety         'C8 H8 F3 N1 O3'
_chemical_name_systematic        
3-(4,4,4-trifluoro-2-methylbut-2-enoyl)-1,3-oxazolidin-2-one
_symmetry_cell_setting           monoclinic
_symmetry_space_group_name_H-M   'P 21/c'
_symmetry_Int_Tables_number      14
_space_group_name_Hall           '-P 2ybc'
loop_
_symmetry_equiv_pos_site_id
_symmetry_equiv_pos_as_xyz
1 x,y,z
2 -x,1/2+y,1/2-z
3 -x,-y,-z
4 x,1/2-y,1/2+z
_cell_length_a                   8.9671(4)
_cell_length_b                   5.4454(2)
_cell_length_c                   19.6033(13)
_cell_angle_alpha                90
_cell_angle_beta                 96.926(7)
_cell_angle_gamma                90
_cell_volume                     950.233
_exptl_crystal_colour            colorless
_exptl_crystal_description       prism
_cell_formula_units_Z            4
loop_
_atom_site_label
_atom_site_type_symbol
_atom_site_fract_x
_atom_site_fract_y
_atom_site_fract_z
F1 F 0.3019(14) 0.0828(14) 1.0177(3)
F2 F 0.1437(10) 0.3109(18) 1.0097(3)
F3 F 0.3461(11) 0.4364(16) 1.0198(3)
O1 O 0.1325(5) 0.3489(8) 0.7682(2)
O2 O 0.4035(4) -0.2269(7) 0.8407(2)
O3 O 0.4046(4) -0.2973(7) 0.7286(2)
N1 N 0.2567(4) -0.0001(8) 0.7570(2)
C1 C 0.2700(10) 0.2752(17) 0.9873(4)
C2 C 0.2640(7) 0.2807(11) 0.9142(3)
C3 C 0.1936(6) 0.1255(11) 0.8715(3)
C4 C 0.0975(7) -0.0896(13) 0.8882(3)
C5 C 0.1916(6) 0.1706(12) 0.7958(3)
C6 C 0.2465(8) 0.0181(13) 0.6831(3)
C7 C 0.3312(8) -0.2089(12) 0.6652(3)
C8 C 0.3583(6) -0.1800(11) 0.7821(3)
H1 H 0.3155 0.4073 0.8954
H2 H 0.1319 -0.1490 0.9335
H3 H 0.1048 -0.2184 0.8554
H4 H -0.0053 -0.0377 0.8864
H5 H 0.2624 -0.3313 0.6436
H6 H 0.4037 -0.1682 0.6341
H7 H 0.140(7) 0.024(11) 0.657(3)
H8 H 0.312(7) 0.132(13) 0.667(3)
loop_
_geom_bond_atom_site_label_1
_geom_bond_atom_site_label_2
_geom_bond_site_symmetry_1
_geom_bond_site_symmetry_2
F1 C1 1_555 1_555
F2 C1 1_555 1_555
F3 C1 1_555 1_555
O1 C5 1_555 1_555
O2 C8 1_555 1_555
O3 C7 1_555 1_555
N1 C5 1_555 1_555
C1 C2 1_555 1_555
C2 C3 1_555 1_555
C3 C4 1_555 1_555
C4 H2 1_555 1_555
C5 C3 1_555 1_555
C6 N1 1_555 1_555
C7 C6 1_555 1_555
C8 O3 1_555 1_555
H1 C2 1_555 1_555
H3 C4 1_555 1_555
H4 C4 1_555 1_555
H5 C7 1_555 1_555
H6 C7 1_555 1_555
H7 C6 1_555 1_555
H8 C6 1_555 1_555
N1 C8 1_555 1_555

#END
