
#######################################################################
#
#                 Cambridge Crystallographic Data Centre
#                                CCDC 
#
#######################################################################
#
# If this CIF has been generated from an entry in the Cambridge 
# Structural Database, then it will include bibliographic, chemical, 
# crystal, experimental, refinement or atomic coordinate data resulting 
# from the CCDC's data processing and validation procedures.
#
#######################################################################

data_YOXRIM
_chemical_formula_moiety         'C18 H25 N1 O3 Si1'
_chemical_name_systematic        
3-Methyl-4-propionyl-5-trimethylsiloxy-benzo(f)bicyclo(3.3.0)octan-8-one
_symmetry_cell_setting           monoclinic
_symmetry_space_group_name_H-M   'C 2/c'
_symmetry_Int_Tables_number      15
_space_group_name_Hall           '-C 2yn'
loop_
_symmetry_equiv_pos_site_id
_symmetry_equiv_pos_as_xyz
1 x,y,z
2 -x,y,1/2-z
3 1/2+x,1/2+y,z
4 1/2-x,1/2+y,1/2-z
5 -x,-y,-z
6 x,-y,1/2+z
7 1/2-x,1/2-y,-z
8 1/2+x,1/2-y,1/2+z
_cell_length_a                   36.197(6)
_cell_length_b                   8.463(1)
_cell_length_c                   12.301(3)
_cell_angle_alpha                90
_cell_angle_beta                 98.70(1)
_cell_angle_gamma                90
_cell_volume                     3724.87
_chemical_melting_point          73.5-74.5deg.C
_cell_formula_units_Z            8
loop_
_atom_site_label
_atom_site_type_symbol
_atom_site_fract_x
_atom_site_fract_y
_atom_site_fract_z
Si1 Si 0.30635(4) 0.0794(2) 0.6758(1)
O1 O 0.4067(1) 0.3172(4) 0.9491(3)
O2 O 0.33741(8) 0.1840(4) 0.6205(2)
O3 O 0.4392(1) 0.4775(4) 0.7065(3)
N1 N 0.3706(1) 0.3155(5) 0.7778(3)
C1 C 0.3601(1) 0.4816(6) 0.7671(4)
C2 C 0.3619(1) 0.5245(6) 0.6457(4)
C3 C 0.3827(1) 0.3852(6) 0.6026(4)
C4 C 0.3723(1) 0.2416(6) 0.6704(4)
C5 C 0.4004(1) 0.1118(5) 0.6994(4)
C6 C 0.4097(1) -0.0095(6) 0.6346(4)
C7 C 0.4359(1) -0.1176(6) 0.6816(4)
C8 C 0.4518(1) -0.1049(6) 0.7908(5)
C9 C 0.4419(1) 0.0165(6) 0.8563(4)
C10 C 0.4158(1) 0.1250(5) 0.8087(4)
C11 C 0.3985(1) 0.2608(6) 0.8571(4)
C12 C 0.3241(2) 0.5544(7) 0.5788(4)
C13 C 0.4248(1) 0.4095(6) 0.6241(4)
C14 C 0.4473(1) 0.3487(6) 0.5411(4)
C15 C 0.4874(2) 0.322(1) 0.5835(5)
C16 C 0.2764(2) 0.2121(8) 0.7460(6)
C17 C 0.3278(1) -0.0684(7) 0.7753(4)
C18 C 0.2786(2) -0.0137(8) 0.5553(5)
H1 H 0.3357 0.5005 0.7836
H2 H 0.3773 0.5472 0.8151
H3 H 0.3764 0.6192 0.6436
H4 H 0.3741 0.3692 0.5244
H5 H 0.3977 -0.0179 0.5598
H6 H 0.4427 -0.2071 0.6375
H7 H 0.4710 -0.1824 0.8200
H8 H 0.4533 0.0244 0.9344
H9 H 0.3103 0.6344 0.6106
H10 H 0.3248 0.5745 0.5055
H11 H 0.3084 0.4559 0.5817
H12 H 0.4362 0.2506 0.5090
H13 H 0.4453 0.4224 0.4780
H14 H 0.4902 0.2473 0.6430
H15 H 0.5014 0.2818 0.5285
H16 H 0.4993 0.4188 0.6112
H17 H 0.2915 0.2724 0.8045
H18 H 0.2636 0.2895 0.6961
H19 H 0.2582 0.1559 0.7787
H20 H 0.3435 -0.1435 0.7406
H21 H 0.3101 -0.1309 0.8057
H22 H 0.3446 -0.0216 0.8352
H23 H 0.2665 0.0673 0.5068
H24 H 0.2933 -0.0768 0.5172
H25 H 0.2589 -0.0763 0.5786
loop_
_geom_bond_atom_site_label_1
_geom_bond_atom_site_label_2
_geom_bond_site_symmetry_1
_geom_bond_site_symmetry_2
Si1 O2 1_555 1_555
O1 C11 1_555 1_555
O2 C4 1_555 1_555
O3 C13 1_555 1_555
N1 C1 1_555 1_555
C1 C2 1_555 1_555
C2 C3 1_555 1_555
C3 C4 1_555 1_555
C4 N1 1_555 1_555
C5 C4 1_555 1_555
C6 C5 1_555 1_555
C7 C6 1_555 1_555
C8 C7 1_555 1_555
C9 C8 1_555 1_555
C10 C5 1_555 1_555
C11 N1 1_555 1_555
C12 C2 1_555 1_555
C13 C3 1_555 1_555
C14 C13 1_555 1_555
C15 C14 1_555 1_555
C16 Si1 1_555 1_555
C17 Si1 1_555 1_555
C18 Si1 1_555 1_555
H1 C1 1_555 1_555
H2 C1 1_555 1_555
H3 C2 1_555 1_555
H4 C3 1_555 1_555
H5 C6 1_555 1_555
H6 C7 1_555 1_555
H7 C8 1_555 1_555
H8 C9 1_555 1_555
H9 C12 1_555 1_555
H10 C12 1_555 1_555
H11 C12 1_555 1_555
H12 C14 1_555 1_555
H13 C14 1_555 1_555
H14 C15 1_555 1_555
H15 C15 1_555 1_555
H16 C15 1_555 1_555
H17 C16 1_555 1_555
H18 C16 1_555 1_555
H19 C16 1_555 1_555
H20 C17 1_555 1_555
H21 C17 1_555 1_555
H22 C17 1_555 1_555
H23 C18 1_555 1_555
H24 C18 1_555 1_555
H25 C18 1_555 1_555
C9 C10 1_555 1_555
C10 C11 1_555 1_555

#END
