
#######################################################################
#
#                 Cambridge Crystallographic Data Centre
#                                CCDC 
#
#######################################################################
#
# If this CIF has been generated from an entry in the Cambridge 
# Structural Database, then it will include bibliographic, chemical, 
# crystal, experimental, refinement or atomic coordinate data resulting 
# from the CCDC's data processing and validation procedures.
#
#######################################################################

data_YOXTEM
_chemical_formula_moiety         'C38 H26 O1'
_chemical_name_systematic        
2,3,4,5-tetraphenyl-2'H-spiro[cyclopenta-2,4-diene-1,1'-naphthalen]-2'-one
_symmetry_cell_setting           monoclinic
_symmetry_space_group_name_H-M   'P 21/c'
_symmetry_Int_Tables_number      14
_space_group_name_Hall           '-P 2ybc'
loop_
_symmetry_equiv_pos_site_id
_symmetry_equiv_pos_as_xyz
1 x,y,z
2 -x,1/2+y,1/2-z
3 -x,-y,-z
4 x,1/2-y,1/2+z
_cell_length_a                   17.667(2)
_cell_length_b                   16.0607(19)
_cell_length_c                   19.997(3)
_cell_angle_alpha                90
_cell_angle_beta                 99.748(2)
_cell_angle_gamma                90
_cell_volume                     5592.11
_exptl_crystal_colour            colorless
_exptl_crystal_description       block
_cell_formula_units_Z            8
loop_
_atom_site_label
_atom_site_type_symbol
_atom_site_fract_x
_atom_site_fract_y
_atom_site_fract_z
O1 O 0.45290(14) 0.58155(14) 0.19188(12)
C1 C 0.39344(18) 0.56259(19) 0.21156(14)
C2 C 0.35064(19) 0.62145(19) 0.24427(16)
H1 H 0.3659 0.6770 0.2465
C3 C 0.29016(19) 0.5994(2) 0.27136(16)
H2 H 0.2642 0.6408 0.2909
C4 C 0.26210(15) 0.51507(19) 0.27244(13)
C5 C 0.20142(18) 0.4952(3) 0.30542(16)
H3 H 0.1773 0.5370 0.3261
C6 C 0.1770(2) 0.4153(3) 0.30781(18)
H4 H 0.1360 0.4031 0.3298
C7 C 0.21211(18) 0.3523(2) 0.27807(18)
H5 H 0.1956 0.2976 0.2805
C8 C 0.27264(15) 0.37125(19) 0.24432(15)
H6 H 0.2961 0.3289 0.2236
C9 C 0.29818(14) 0.45201(17) 0.24121(12)
C10 C 0.36035(14) 0.47289(15) 0.20040(12)
C11 C 0.32942(14) 0.46888(16) 0.12411(13)
C12 C 0.37381(14) 0.41642(16) 0.09495(13)
C13 C 0.43430(14) 0.38144(16) 0.14763(13)
C14 C 0.42569(14) 0.41061(15) 0.20916(13)
C15 C 0.46880(14) 0.38884(18) 0.27672(13)
C16 C 0.49339(16) 0.3075(2) 0.29193(14)
H7 H 0.4819 0.2662 0.2592
C17 C 0.53448(18) 0.2872(2) 0.35465(16)
H8 H 0.5506 0.2326 0.3638
C18 C 0.55173(19) 0.3474(3) 0.40389(17)
H9 H 0.5801 0.3339 0.4460
C19 C 0.52706(19) 0.4268(3) 0.39047(16)
H10 H 0.5385 0.4674 0.4238
C20 C 0.48504(16) 0.4481(2) 0.32773(15)
H11 H 0.4677 0.5025 0.3198
C21 C 0.49688(16) 0.32739(19) 0.13129(13)
C22 C 0.4847(2) 0.2470(2) 0.10907(15)
H12 H 0.4362 0.2232 0.1058
C23 C 0.5467(3) 0.1998(3) 0.09086(17)
H13 H 0.5396 0.1449 0.0763
C24 C 0.6170(3) 0.2375(3) 0.0955(2)
H14 H 0.6574 0.2071 0.0833
C25 C 0.6302(2) 0.3163(3) 0.11667(19)
H15 H 0.6786 0.3400 0.1191
C26 C 0.57018(18) 0.3613(2) 0.13486(16)
H16 H 0.5789 0.4158 0.1499
C27 C 0.36335(16) 0.39528(16) 0.02165(13)
C28 C 0.29238(17) 0.36765(18) -0.01189(15)
H17 H 0.2516 0.3638 0.0118
C29 C 0.2812(2) 0.3459(2) -0.07938(17)
H18 H 0.2335 0.3266 -0.1005
C30 C 0.3395(3) 0.3524(2) -0.11512(17)
H19 H 0.3316 0.3379 -0.1608
C31 C 0.4103(2) 0.3804(2) -0.08410(17)
H20 H 0.4501 0.3851 -0.1089
C32 C 0.42262(18) 0.40183(19) -0.01500(15)
H21 H 0.4706 0.4204 0.0060
C33 C 0.26659(15) 0.52289(17) 0.08994(13)
C34 C 0.19153(16) 0.51614(18) 0.10123(14)
H22 H 0.1792 0.4760 0.1312
C35 C 0.13497(17) 0.5681(2) 0.06869(16)
H23 H 0.0850 0.5628 0.0771
C36 C 0.15144(19) 0.6271(2) 0.02426(16)
H24 H 0.1130 0.6618 0.0022
C37 C 0.2251(2) 0.6348(2) 0.01265(16)
H25 H 0.2368 0.6750 -0.0174
C38 C 0.28229(18) 0.58329(18) 0.04511(15)
H26 H 0.3322 0.5894 0.0367
O2 O 0.25408(12) 0.16846(15) 0.20798(11)
C39 C 0.25810(16) 0.0937(2) 0.19635(14)
C40 C 0.32798(16) 0.0475(2) 0.21632(15)
H27 H 0.3730 0.0756 0.2340
C41 C 0.32909(17) -0.0349(2) 0.20979(15)
H28 H 0.3754 -0.0622 0.2242
C42 C 0.26373(16) -0.08495(19) 0.18195(14)
C43 C 0.2694(2) -0.1712(2) 0.17802(17)
H29 H 0.3158 -0.1969 0.1951
C44 C 0.2083(3) -0.2193(2) 0.14972(19)
H30 H 0.2127 -0.2769 0.1482
C45 C 0.1407(2) -0.1809(2) 0.12383(17)
H31 H 0.0991 -0.2128 0.1036
C46 C 0.13316(17) -0.0952(2) 0.12719(15)
H32 H 0.0865 -0.0702 0.1097
C47 C 0.19441(15) -0.04672(17) 0.15624(13)
C48 C 0.18630(14) 0.04685(16) 0.15710(12)
C49 C 0.11398(14) 0.07490(16) 0.18289(13)
C50 C 0.07408(14) 0.12749(16) 0.13702(13)
C51 C 0.11326(14) 0.13585(16) 0.07774(13)
C52 C 0.17586(14) 0.08674(16) 0.08616(12)
C53 C 0.23413(15) 0.07742(18) 0.04138(13)
C54 C 0.24908(18) 0.0011(2) 0.01450(15)
H33 H 0.2224 -0.0458 0.0249
C55 C 0.3029(2) -0.0064(3) -0.02751(17)
H34 H 0.3124 -0.0584 -0.0447
C56 C 0.3422(2) 0.0608(3) -0.04420(17)
H35 H 0.3780 0.0552 -0.0731
C57 C 0.32854(18) 0.1375(3) -0.01794(18)
H36 H 0.3555 0.1840 -0.0286
C58 C 0.27453(17) 0.1450(2) 0.02445(16)
H37 H 0.2654 0.1971 0.0418
C59 C 0.09018(14) 0.19453(18) 0.02058(14)
C60 C 0.07758(16) 0.1682(2) -0.04596(15)
H38 H 0.0809 0.1118 -0.0556
C61 C 0.06000(18) 0.2248(2) -0.09876(16)
H39 H 0.0512 0.2060 -0.1434
C62 C 0.05562(17) 0.3077(2) -0.0857(2)
H40 H 0.0447 0.3454 -0.1212
C63 C 0.06721(18) 0.3351(2) -0.0204(2)
H41 H 0.0638 0.3916 -0.0113
C64 C 0.08412(16) 0.27887(19) 0.03269(15)
H42 H 0.0915 0.2982 0.0772
C65 C 0.00085(15) 0.17016(16) 0.14250(13)
C66 C -0.00525(18) 0.21977(19) 0.19798(16)
H43 H 0.0374 0.2278 0.2316
C67 C -0.0741(2) 0.2575(2) 0.20397(19)
H44 H -0.0774 0.2911 0.2412
C68 C -0.1375(2) 0.2453(2) 0.1551(2)
H45 H -0.1839 0.2702 0.1592
C69 C -0.13209(17) 0.1964(2) 0.10021(19)
H46 H -0.1751 0.1881 0.0670
C70 C -0.06343(16) 0.15916(18) 0.09365(15)
H47 H -0.0605 0.1263 0.0559
C71 C 0.09385(15) 0.04000(16) 0.24580(13)
C72 C 0.01872(17) 0.01811(18) 0.25003(15)
H48 H -0.0201 0.0283 0.2133
C73 C 0.00074(19) -0.01843(19) 0.30774(17)
H49 H -0.0499 -0.0330 0.3092
C74 C 0.0561(2) -0.03341(19) 0.36257(16)
H50 H 0.0435 -0.0580 0.4013
C75 C 0.1308(2) -0.01182(19) 0.36014(15)
H51 H 0.1690 -0.0211 0.3976
C76 C 0.14934(17) 0.02381(18) 0.30179(14)
H52 H 0.2003 0.0371 0.3003
loop_
_geom_bond_atom_site_label_1
_geom_bond_atom_site_label_2
_geom_bond_site_symmetry_1
_geom_bond_site_symmetry_2
O1 C1 1_555 1_555
C1 C2 1_555 1_555
C2 H1 1_555 1_555
C3 C2 1_555 1_555
H2 C3 1_555 1_555
C4 C3 1_555 1_555
C5 C4 1_555 1_555
H3 C5 1_555 1_555
C6 C5 1_555 1_555
H4 C6 1_555 1_555
C7 C6 1_555 1_555
H5 C7 1_555 1_555
C8 C7 1_555 1_555
H6 C8 1_555 1_555
C9 C4 1_555 1_555
C10 C1 1_555 1_555
C11 C10 1_555 1_555
C12 C11 1_555 1_555
C13 C12 1_555 1_555
C14 C10 1_555 1_555
C15 C14 1_555 1_555
C16 C15 1_555 1_555
H7 C16 1_555 1_555
C17 C16 1_555 1_555
H8 C17 1_555 1_555
C18 C17 1_555 1_555
H9 C18 1_555 1_555
C19 C18 1_555 1_555
H10 C19 1_555 1_555
C20 C15 1_555 1_555
H11 C20 1_555 1_555
C21 C13 1_555 1_555
C22 C21 1_555 1_555
H12 C22 1_555 1_555
C23 C22 1_555 1_555
H13 C23 1_555 1_555
C24 C23 1_555 1_555
H14 C24 1_555 1_555
C25 C24 1_555 1_555
H15 C25 1_555 1_555
C26 C21 1_555 1_555
H16 C26 1_555 1_555
C27 C12 1_555 1_555
C28 C27 1_555 1_555
H17 C28 1_555 1_555
C29 C28 1_555 1_555
H18 C29 1_555 1_555
C30 C29 1_555 1_555
H19 C30 1_555 1_555
C31 C30 1_555 1_555
H20 C31 1_555 1_555
C32 C27 1_555 1_555
H21 C32 1_555 1_555
C33 C11 1_555 1_555
C34 C33 1_555 1_555
H22 C34 1_555 1_555
C35 C34 1_555 1_555
H23 C35 1_555 1_555
C36 C35 1_555 1_555
H24 C36 1_555 1_555
C37 C36 1_555 1_555
H25 C37 1_555 1_555
C38 C33 1_555 1_555
H26 C38 1_555 1_555
O2 C39 1_555 1_555
C39 C40 1_555 1_555
C40 H27 1_555 1_555
C41 C40 1_555 1_555
H28 C41 1_555 1_555
C42 C41 1_555 1_555
C43 C42 1_555 1_555
H29 C43 1_555 1_555
C44 C43 1_555 1_555
H30 C44 1_555 1_555
C45 C44 1_555 1_555
H31 C45 1_555 1_555
C46 C45 1_555 1_555
H32 C46 1_555 1_555
C47 C42 1_555 1_555
C48 C39 1_555 1_555
C49 C48 1_555 1_555
C50 C49 1_555 1_555
C51 C50 1_555 1_555
C52 C48 1_555 1_555
C53 C52 1_555 1_555
C54 C53 1_555 1_555
H33 C54 1_555 1_555
C55 C54 1_555 1_555
H34 C55 1_555 1_555
C56 C55 1_555 1_555
H35 C56 1_555 1_555
C57 C56 1_555 1_555
H36 C57 1_555 1_555
C58 C53 1_555 1_555
H37 C58 1_555 1_555
C59 C51 1_555 1_555
C60 C59 1_555 1_555
H38 C60 1_555 1_555
C61 C60 1_555 1_555
H39 C61 1_555 1_555
C62 C61 1_555 1_555
H40 C62 1_555 1_555
C63 C62 1_555 1_555
H41 C63 1_555 1_555
C64 C59 1_555 1_555
H42 C64 1_555 1_555
C65 C50 1_555 1_555
C66 C65 1_555 1_555
H43 C66 1_555 1_555
C67 C66 1_555 1_555
H44 C67 1_555 1_555
C68 C67 1_555 1_555
H45 C68 1_555 1_555
C69 C68 1_555 1_555
H46 C69 1_555 1_555
C70 C65 1_555 1_555
H47 C70 1_555 1_555
C71 C49 1_555 1_555
C72 C71 1_555 1_555
H48 C72 1_555 1_555
C73 C72 1_555 1_555
H49 C73 1_555 1_555
C74 C73 1_555 1_555
H50 C74 1_555 1_555
C75 C74 1_555 1_555
H51 C75 1_555 1_555
C76 C71 1_555 1_555
H52 C76 1_555 1_555
C8 C9 1_555 1_555
C9 C10 1_555 1_555
C13 C14 1_555 1_555
C19 C20 1_555 1_555
C25 C26 1_555 1_555
C31 C32 1_555 1_555
C37 C38 1_555 1_555
C46 C47 1_555 1_555
C47 C48 1_555 1_555
C51 C52 1_555 1_555
C57 C58 1_555 1_555
C63 C64 1_555 1_555
C69 C70 1_555 1_555
C75 C76 1_555 1_555

#END
