
#######################################################################
#
#                 Cambridge Crystallographic Data Centre
#                                CCDC 
#
#######################################################################
#
# If this CIF has been generated from an entry in the Cambridge 
# Structural Database, then it will include bibliographic, chemical, 
# crystal, experimental, refinement or atomic coordinate data resulting 
# from the CCDC's data processing and validation procedures.
#
#######################################################################

data_YOXVUE
_chemical_formula_moiety         'C9 H6 Br1 N1 O1'
_chemical_name_systematic        'N-Hydroxy-3-phenylprop-2-ynimidoyl bromide'
_symmetry_cell_setting           monoclinic
_symmetry_space_group_name_H-M   'P 21'
_symmetry_Int_Tables_number      4
_space_group_name_Hall           'P 2yb'
loop_
_symmetry_equiv_pos_site_id
_symmetry_equiv_pos_as_xyz
1 x,y,z
2 -x,1/2+y,-z
_cell_length_a                   9.584(3)
_cell_length_b                   4.1885(11)
_cell_length_c                   11.089(3)
_cell_angle_alpha                90
_cell_angle_beta                 93.215(4)
_cell_angle_gamma                90
_cell_volume                     444.441
_exptl_crystal_colour            colorless
_exptl_crystal_description       Block
_cell_formula_units_Z            2
loop_
_atom_site_label
_atom_site_type_symbol
_atom_site_fract_x
_atom_site_fract_y
_atom_site_fract_z
Br1 Br 0.64549(7) 1.2237(2) 0.44692(6)
N1 N 0.8816(6) 0.8883(14) 0.4347(5)
O1 O 0.9739(5) 0.714(3) 0.3689(4)
C1 C 0.6370(8) 0.990(2) -0.0667(6)
H1 H 0.5660 1.1081 -0.0342
C2 C 0.6381(10) 0.943(2) -0.1886(7)
H2 H 0.5669 1.0287 -0.2390
C3 C 0.7419(10) 0.773(3) -0.2372(7)
H3 H 0.7419 0.7452 -0.3204
C4 C 0.8456(10) 0.643(2) -0.1641(8)
H4 H 0.9168 0.5269 -0.1974
C5 C 0.8452(7) 0.682(3) -0.0426(7)
H5 H 0.9148 0.5868 0.0071
C6 C 0.7432(7) 0.8600(16) 0.0077(6)
C7 C 0.7463(7) 0.9110(18) 0.1355(7)
C8 C 0.7590(7) 0.9467(17) 0.2410(6)
C9 C 0.7798(7) 0.9907(17) 0.3651(6)
H6 H 1.013(8) 0.625(19) 0.416(7)
loop_
_geom_bond_atom_site_label_1
_geom_bond_atom_site_label_2
_geom_bond_site_symmetry_1
_geom_bond_site_symmetry_2
Br1 C9 1_555 1_555
N1 O1 1_555 1_555
O1 H6 1_555 1_555
C1 H1 1_555 1_555
C2 C1 1_555 1_555
H2 C2 1_555 1_555
C3 C2 1_555 1_555
H3 C3 1_555 1_555
C4 C3 1_555 1_555
H4 C4 1_555 1_555
C5 C4 1_555 1_555
H5 C5 1_555 1_555
C6 C1 1_555 1_555
C7 C6 1_555 1_555
C8 C7 1_555 1_555
C9 N1 1_555 1_555
C5 C6 1_555 1_555
C8 C9 1_555 1_555

#END
