
#######################################################################
#
#                 Cambridge Crystallographic Data Centre
#                                CCDC 
#
#######################################################################
#
# If this CIF has been generated from an entry in the Cambridge 
# Structural Database, then it will include bibliographic, chemical, 
# crystal, experimental, refinement or atomic coordinate data resulting 
# from the CCDC's data processing and validation procedures.
#
#######################################################################

data_YOYDUM
_chemical_name_common            
"1,1'-(1,4-Butanediyl)bis(2-methyl-1H-benzimidazole) dihydrate"
_chemical_formula_moiety         'C20 H22 N4,2(H2 O1)'
_chemical_name_systematic        
'1,4-bis(2-Methyl-1H-benzimidazol-1-yl)butane dihydrate'
_symmetry_cell_setting           monoclinic
_symmetry_space_group_name_H-M   'P 21/n'
_symmetry_Int_Tables_number      14
_space_group_name_Hall           '-P 2yn'
loop_
_symmetry_equiv_pos_site_id
_symmetry_equiv_pos_as_xyz
1 x,y,z
2 1/2-x,1/2+y,1/2-z
3 -x,-y,-z
4 1/2+x,1/2-y,1/2+z
_cell_length_a                   17.527(10)
_cell_length_b                   4.815(3)
_cell_length_c                   22.375(12)
_cell_angle_alpha                90
_cell_angle_beta                 91.49(2)
_cell_angle_gamma                90
_cell_volume                     1887.64
_exptl_crystal_colour            'light brown'
_exptl_crystal_description       block
_cell_formula_units_Z            4
_exptl_crystal_recrystallization_method ethanol/water
loop_
_atom_site_label
_atom_site_type_symbol
_atom_site_fract_x
_atom_site_fract_y
_atom_site_fract_z
C1 C 0.5556(2) 0.2430(7) 0.46615(15)
H1 H 0.5967 0.1578 0.4887
H2 H 0.5280 0.1032 0.4440
H3 H 0.5219 0.3343 0.4930
C2 C 0.58688(18) 0.4484(6) 0.42442(12)
C3 C 0.59617(17) 0.7605(6) 0.35651(12)
C4 C 0.5844(2) 0.9622(7) 0.31289(13)
H4 H 0.5353 1.0115 0.3002
C5 C 0.6471(2) 1.0869(7) 0.28903(13)
H5 H 0.6402 1.2218 0.2596
C6 C 0.7206(2) 1.0156(7) 0.30794(13)
H6 H 0.7619 1.1019 0.2904
C7 C 0.73388(18) 0.8218(7) 0.35167(13)
H7 H 0.7831 0.7759 0.3646
C8 C 0.67035(16) 0.6971(6) 0.37573(11)
C9 C 0.72419(18) 0.3796(6) 0.45612(13)
H8 H 0.7643 0.3191 0.4300
H9 H 0.7050 0.2167 0.4764
C10 C 0.75785(18) 0.5745(6) 0.50193(12)
H10 H 0.7171 0.6577 0.5244
H11 H 0.7847 0.7225 0.4819
C11 C 0.81236(18) 0.4258(7) 0.54437(13)
H12 H 0.7836 0.2944 0.5677
H13 H 0.8483 0.3207 0.5211
C12 C 0.85647(19) 0.6129(7) 0.58653(12)
H14 H 0.8933 0.7188 0.5643
H15 H 0.8217 0.7431 0.6046
C13 C 0.8119(2) 0.5866(8) 0.71583(15)
H16 H 0.7900 0.7053 0.6855
H17 H 0.8308 0.6976 0.7486
H18 H 0.7735 0.4614 0.7297
C14 C 0.87507(18) 0.4263(7) 0.69082(13)
C15 C 0.96939(18) 0.1482(7) 0.67995(13)
C16 C 1.0266(2) -0.0477(8) 0.68664(19)
H19 H 1.0355 -0.1366 0.7230
C17 C 1.0702(2) -0.1076(9) 0.6379(2)
H20 H 1.1087 -0.2400 0.6413
C18 C 1.0575(2) 0.0254(8) 0.58434(19)
H21 H 1.0884 -0.0174 0.5524
C19 C 1.00075(19) 0.2200(8) 0.57628(15)
H22 H 0.9923 0.3083 0.5397
C20 C 0.95685(17) 0.2778(6) 0.62510(12)
N1 N 0.54459(14) 0.6003(6) 0.38740(10)
N2 N 0.66266(14) 0.4997(5) 0.41986(10)
N3 N 0.89622(14) 0.4550(5) 0.63330(10)
N4 N 0.91752(16) 0.2449(6) 0.72084(11)
O1 O 0.60349(13) 0.5387(6) 0.65753(11)
H23 H 0.597(2) 0.602(9) 0.6930(13)
H24 H 0.558(2) 0.530(9) 0.6382(15)
O2 O 0.6754(2) 0.0313(8) 0.61168(18)
H25 H 0.646(3) 0.171(8) 0.622(3)
H26 H 0.649(3) -0.123(7) 0.613(3)
loop_
_geom_bond_atom_site_label_1
_geom_bond_atom_site_label_2
_geom_bond_site_symmetry_1
_geom_bond_site_symmetry_2
C1 H1 1_555 1_555
H2 C1 1_555 1_555
H3 C1 1_555 1_555
C2 C1 1_555 1_555
C3 C4 1_555 1_555
C4 H4 1_555 1_555
C5 C4 1_555 1_555
H5 C5 1_555 1_555
C6 C5 1_555 1_555
H6 C6 1_555 1_555
C7 C6 1_555 1_555
H7 C7 1_555 1_555
C8 C3 1_555 1_555
C9 H8 1_555 1_555
H9 C9 1_555 1_555
C10 C9 1_555 1_555
H10 C10 1_555 1_555
H11 C10 1_555 1_555
C11 C10 1_555 1_555
H12 C11 1_555 1_555
H13 C11 1_555 1_555
C12 C11 1_555 1_555
H14 C12 1_555 1_555
H15 C12 1_555 1_555
C13 H16 1_555 1_555
H17 C13 1_555 1_555
H18 C13 1_555 1_555
C14 C13 1_555 1_555
C15 C16 1_555 1_555
C16 H19 1_555 1_555
C17 C16 1_555 1_555
H20 C17 1_555 1_555
C18 C17 1_555 1_555
H21 C18 1_555 1_555
C19 C18 1_555 1_555
H22 C19 1_555 1_555
C20 C15 1_555 1_555
N1 C2 1_555 1_555
N2 C2 1_555 1_555
N3 C12 1_555 1_555
N4 C14 1_555 1_555
O1 H23 1_555 1_555
H24 O1 1_555 1_555
O2 H25 1_555 1_555
H26 O2 1_555 1_555
C3 N1 1_555 1_555
C7 C8 1_555 1_555
C8 N2 1_555 1_555
C9 N2 1_555 1_555
C14 N3 1_555 1_555
C15 N4 1_555 1_555
C19 C20 1_555 1_555
C20 N3 1_555 1_555

#END
