
#######################################################################
#
#                 Cambridge Crystallographic Data Centre
#                                CCDC 
#
#######################################################################
#
# If this CIF has been generated from an entry in the Cambridge 
# Structural Database, then it will include bibliographic, chemical, 
# crystal, experimental, refinement or atomic coordinate data resulting 
# from the CCDC's data processing and validation procedures.
#
#######################################################################

data_YOYSUC
_chemical_name_common            'Erythritol Tetranitrate'
_chemical_formula_moiety         'C4 H6 N4 O12'
_chemical_name_systematic        'butane-1,2,3,4-tetrayl tetranitrate'
_symmetry_cell_setting           monoclinic
_symmetry_space_group_name_H-M   'P 21/c'
_symmetry_Int_Tables_number      14
_space_group_name_Hall           '-P 2ybc'
loop_
_symmetry_equiv_pos_site_id
_symmetry_equiv_pos_as_xyz
1 x,y,z
2 -x,1/2+y,1/2-z
3 -x,-y,-z
4 x,1/2-y,1/2+z
_cell_length_a                   15.893(6)
_cell_length_b                   5.1595(19)
_cell_length_c                   14.731(5)
_cell_angle_alpha                90
_cell_angle_beta                 116.161(3)
_cell_angle_gamma                90
_cell_volume                     1084.2
_exptl_crystal_colour            colorless
_exptl_crystal_description       block
_cell_formula_units_Z            4
loop_
_atom_site_label
_atom_site_type_symbol
_atom_site_fract_x
_atom_site_fract_y
_atom_site_fract_z
N1 N 0.32278(7) 0.7322(2) 0.86523(8)
N2 N 0.41133(7) 1.1061(2) 1.19931(7)
O1 O 0.41186(6) 0.75670(15) 0.95047(6)
O2 O 0.28571(7) 0.92690(18) 0.82046(7)
O3 O 0.29706(7) 0.51288(17) 0.85040(7)
O4 O 0.43712(6) 0.99978(16) 1.12803(6)
O5 O 0.37026(6) 1.30842(19) 1.18044(6)
O6 O 0.43557(7) 0.9719(2) 1.27381(7)
C1 C 0.44648(8) 1.0199(2) 0.97315(9)
H1 H 0.4293 1.1163 0.9101
C2 C 0.40689(8) 1.1548(2) 1.03716(8)
H2 H 0.4311 1.3300 1.0534
H3 H 0.3390 1.1620 1.0019
N1B N 0.67722(7) 1.2678(2) 1.13477(8)
N2B N 0.58867(7) 0.8939(2) 0.80069(7)
O1B O 0.58814(6) 1.24330(15) 1.04953(6)
O2B O 0.71429(7) 1.07310(18) 1.17954(7)
O3B O 0.70294(7) 1.48712(17) 1.14960(7)
O4B O 0.56288(6) 1.00022(16) 0.87197(6)
O5B O 0.62974(6) 0.69158(19) 0.81956(6)
O6B O 0.56443(7) 1.0281(2) 0.72619(7)
C1B C 0.55352(8) 0.9801(2) 1.02685(9)
H1B H 0.5707 0.8837 1.0899
C2B C 0.59311(8) 0.8452(2) 0.96284(8)
H2B H 0.5689 0.6700 0.9466
H3B H 0.6610 0.8380 0.9981
N3 N 0.08919(7) 0.4250(2) 0.28509(7)
N4 N 0.17888(7) 0.75890(19) 0.03469(7)
O7 O 0.08972(6) 0.74007(15) 0.03522(6)
O8 O 0.21040(6) 0.57041(18) 0.01412(7)
O9 O 0.21026(7) 0.97425(17) 0.05554(7)
O10 O 0.06316(6) 0.51841(16) 0.18730(6)
O11 O 0.12606(7) 0.21768(19) 0.30735(7)
O12 O 0.06963(7) 0.5751(2) 0.33555(7)
C3 C 0.05339(8) 0.4790(2) 0.02471(9)
H4 H 0.0712 0.3792 -0.0207
C4 C 0.09166(8) 0.3497(2) 0.12736(8)
H5 H 0.0653 0.1777 0.1223
H6 H 0.1594 0.3358 0.1567
N3B N -0.08919(7) 0.5750(2) -0.28509(7)
N4B N -0.17888(7) 0.24110(19) -0.03469(7)
O7B O -0.08972(6) 0.25993(15) -0.03522(6)
O8B O -0.21040(6) 0.42959(18) -0.01412(7)
O9B O -0.21026(7) 0.02575(17) -0.05554(7)
O10B O -0.06316(6) 0.48159(16) -0.18730(6)
O11B O -0.12606(7) 0.78232(19) -0.30735(7)
O12B O -0.06963(7) 0.4249(2) -0.33555(7)
C3B C -0.05339(8) 0.5210(2) -0.02471(9)
H4B H -0.0712 0.6208 0.0207
C4B C -0.09166(8) 0.6503(2) -0.12736(8)
H5B H -0.0653 0.8223 -0.1223
H6B H -0.1594 0.6642 -0.1567
loop_
_geom_bond_atom_site_label_1
_geom_bond_atom_site_label_2
_geom_bond_site_symmetry_1
_geom_bond_site_symmetry_2
N1 O1 1_555 1_555
N2 O4 1_555 1_555
O1 C1 1_555 1_555
O2 N1 1_555 1_555
O3 N1 1_555 1_555
O4 C2 1_555 1_555
O5 N2 1_555 1_555
O6 N2 1_555 1_555
C1 H1 1_555 1_555
C2 C1 1_555 1_555
H2 C2 1_555 1_555
H3 C2 1_555 1_555
N3 O10 1_555 1_555
N4 O7 1_555 1_555
O7 C3 1_555 1_555
O8 N4 1_555 1_555
O9 N4 1_555 1_555
O10 C4 1_555 1_555
O11 N3 1_555 1_555
O12 N3 1_555 1_555
C3 H4 1_555 1_555
C4 C3 1_555 1_555
H5 C4 1_555 1_555
H6 C4 1_555 1_555
N1B O1B 1_555 1_555
N2B O4B 1_555 1_555
O1B C1B 1_555 1_555
O2B N1B 1_555 1_555
O3B N1B 1_555 1_555
O4B C2B 1_555 1_555
O5B N2B 1_555 1_555
O6B N2B 1_555 1_555
C1B C1 1_555 1_555
H1B C1B 1_555 1_555
C2B C1B 1_555 1_555
H2B C2B 1_555 1_555
H3B C2B 1_555 1_555
N3B O10B 1_555 1_555
N4B O7B 1_555 1_555
O7B C3B 1_555 1_555
O8B N4B 1_555 1_555
O9B N4B 1_555 1_555
O10B C4B 1_555 1_555
O11B N3B 1_555 1_555
O12B N3B 1_555 1_555
C3B C3 1_555 1_555
H4B C3B 1_555 1_555
C4B C3B 1_555 1_555
H5B C4B 1_555 1_555
H6B C4B 1_555 1_555

#END
