
#######################################################################
#
#                 Cambridge Crystallographic Data Centre
#                                CCDC 
#
#######################################################################
#
# If this CIF has been generated from an entry in the Cambridge 
# Structural Database, then it will include bibliographic, chemical, 
# crystal, experimental, refinement or atomic coordinate data resulting 
# from the CCDC's data processing and validation procedures.
#
#######################################################################

data_YOYVUD
_chemical_formula_moiety         'C35 H27 Cl2 N3 O3,C1 H1 Cl3'
_chemical_name_systematic        
'(1RS,2SR,3RS,4RS,5RS)-3,5-bis(4-Chlorophenyl)-2,4-bis(2-pyridylcarbonyl)-1-(2-pyridyl)cyclohexanol chloroform solvate'
_symmetry_cell_setting           orthorhombic
_symmetry_space_group_name_H-M   'F d d 2'
_symmetry_Int_Tables_number      43
_space_group_name_Hall           'F 2 -2d'
loop_
_symmetry_equiv_pos_site_id
_symmetry_equiv_pos_as_xyz
1 x,y,z
2 -x,-y,z
3 1/4-x,1/4+y,1/4+z
4 3/4+x,3/4-y,1/4+z
5 x,1/2+y,1/2+z
6 -x,1/2-y,1/2+z
7 1/4-x,3/4+y,3/4+z
8 3/4+x,1/4-y,3/4+z
9 1/2+x,y,1/2+z
10 1/2-x,-y,1/2+z
11 3/4-x,1/4+y,3/4+z
12 1/4+x,3/4-y,3/4+z
13 1/2+x,1/2+y,z
14 1/2-x,1/2-y,z
15 3/4-x,3/4+y,1/4+z
16 1/4+x,1/4-y,1/4+z
_cell_length_a                   16.8325(7)
_cell_length_b                   53.0384(27)
_cell_length_c                   15.5683(8)
_cell_angle_alpha                90
_cell_angle_beta                 90
_cell_angle_gamma                90
_cell_volume                     13898.9
_exptl_crystal_colour            colorless
_chemical_melting_point          202-204deg.C(dec.)
_cell_formula_units_Z            16
loop_
_atom_site_label
_atom_site_type_symbol
_atom_site_fract_x
_atom_site_fract_y
_atom_site_fract_z
O1 O 0.2927(3) 0.14280(8) 1.0499(3)
O2 O 0.3307(3) 0.19669(8) 1.0033(3)
O3 O 0.2843(2) 0.13228(8) 0.7373(3)
C1 C 0.2486(3) 0.1441(1) 0.9713(4)
C2 C 0.2871(3) 0.16363(9) 0.9092(3)
C3 C 0.3731(3) 0.1563(1) 0.8890(4)
C4 C 0.3799(3) 0.1292(1) 0.8513(3)
C5 C 0.3361(3) 0.1097(1) 0.9090(3)
C6 C 0.2507(3) 0.1179(1) 0.9295(4)
C7 C 0.1633(4) 0.15220(9) 0.9916(4)
C8 C 0.0778(5) 0.1694(1) 1.0906(5)
C9 C 0.0181(5) 0.1711(1) 1.0329(6)
C10 C 0.0306(4) 0.1618(1) 0.9518(5)
C11 C 0.1045(4) 0.1523(1) 0.9297(4)
C12 C 0.2828(4) 0.1897(1) 0.9490(4)
C13 C 0.2165(3) 0.2068(1) 0.9238(4)
C14 C 0.1255(4) 0.2195(2) 0.8226(6)
C15 C 0.0957(5) 0.2373(2) 0.8749(7)
C16 C 0.1252(6) 0.2401(2) 0.9560(7)
C17 C 0.1890(4) 0.2244(1) 0.9812(5)
C18 C 0.4152(3) 0.17577(9) 0.8340(3)
C19 C 0.3779(4) 0.1891(1) 0.7689(4)
C20 C 0.4171(4) 0.2073(1) 0.7217(4)
C21 C 0.4939(4) 0.2126(1) 0.7404(4)
C22 C 0.5348(4) 0.1999(1) 0.8045(5)
C23 C 0.4940(4) 0.1817(1) 0.8515(4)
C24 C 0.3527(3) 0.12775(9) 0.7584(4)
C25 C 0.4104(3) 0.11976(9) 0.6910(3)
C26 C 0.5365(4) 0.1066(1) 0.6557(5)
C27 C 0.5155(5) 0.1032(1) 0.5715(5)
C28 C 0.4397(4) 0.1086(1) 0.5461(4)
C29 C 0.3860(4) 0.1172(1) 0.6063(4)
C30 C 0.3421(3) 0.0832(1) 0.8729(3)
C31 C 0.4156(4) 0.0712(1) 0.8710(4)
C32 C 0.4238(4) 0.0472(1) 0.8374(5)
C33 C 0.3584(4) 0.0348(1) 0.8067(4)
C34 C 0.2859(4) 0.0459(1) 0.8080(4)
C35 C 0.2767(4) 0.0701(1) 0.8408(4)
Cl1 Cl 0.5444(1) 0.23606(4) 0.6835(2)
Cl2 Cl 0.3692(1) 0.00437(3) 0.7641(2)
N1 N 0.1519(4) 0.1603(1) 1.0717(3)
N2 N 0.1868(3) 0.2037(1) 0.8448(4)
N3 N 0.4851(3) 0.1146(1) 0.7161(3)
H1 H 0.2580(3) 0.16404(9) 0.8532(3)
H2 H 0.4021(3) 0.1566(1) 0.9451(4)
H3 H 0.4375(3) 0.1246(1) 0.8497(3)
H4 H 0.3635(3) 0.1088(1) 0.9659(3)
H5 H 0.2264(3) 0.1054(1) 0.9698(4)
H6 H 0.2193(3) 0.1183(1) 0.8749(4)
H7 H 0.0672(5) 0.1750(1) 1.1509(5)
H8 H -0.0338(5) 0.1790(1) 1.0490(6)
H9 H -0.0134(4) 0.1619(1) 0.9086(5)
H10 H 0.1151(4) 0.1457(1) 0.8707(4)
H11 H 0.1016(4) 0.2175(2) 0.7642(6)
H12 H 0.0521(5) 0.2486(2) 0.8542(7)
H13 H 0.1025(6) 0.2528(2) 0.9965(7)
H14 H 0.2132(4) 0.2261(1) 1.0395(5)
H15 H 0.3210(4) 0.1854(1) 0.7555(4)
H16 H 0.3891(4) 0.2165(1) 0.6744(4)
H17 H 0.5917(4) 0.2039(1) 0.8174(5)
H18 H 0.5223(4) 0.1724(1) 0.8983(4)
H19 H 0.5924(4) 0.1028(1) 0.6731(5)
H20 H 0.5552(5) 0.0970(1) 0.5288(5)
H21 H 0.4233(4) 0.1065(1) 0.4848(4)
H22 H 0.3303(4) 0.1215(1) 0.5891(4)
H23 H 0.4635(4) 0.0801(1) 0.8941(4)
H24 H 0.4770(4) 0.0389(1) 0.8355(5)
H25 H 0.2387(4) 0.0366(1) 0.7852(4)
H26 H 0.2229(4) 0.0781(1) 0.8420(4)
C36? C 0.0817(6) 0.0307(2) 0.0467(7)
Cl3? Cl 0.1590(6) 0.0514(2) 0.023(1)
Cl4? Cl 0.036(2) 0.0422(3) 0.141(1)
Cl5? Cl 0.0101(8) 0.0386(3) -0.0351(9)
Cl6? Cl 0.1638(3) 0.0451(1) 0.0853(5)
Cl7? Cl 0.0035(4) 0.0340(1) 0.1157(6)
Cl8? Cl 0.0645(4) 0.0391(1) -0.0572(3)
loop_
_geom_bond_atom_site_label_1
_geom_bond_atom_site_label_2
_geom_bond_site_symmetry_1
_geom_bond_site_symmetry_2
O1 C1 1_555 1_555
O2 C12 1_555 1_555
O3 C24 1_555 1_555
C1 C2 1_555 1_555
C2 C3 1_555 1_555
C3 C4 1_555 1_555
C4 C5 1_555 1_555
C5 C6 1_555 1_555
C6 C1 1_555 1_555
C7 C1 1_555 1_555
C8 C9 1_555 1_555
C9 C10 1_555 1_555
C10 C11 1_555 1_555
C11 C7 1_555 1_555
C12 C2 1_555 1_555
C13 C12 1_555 1_555
C14 C15 1_555 1_555
C15 C16 1_555 1_555
C16 C17 1_555 1_555
C17 C13 1_555 1_555
C18 C3 1_555 1_555
C19 C18 1_555 1_555
C20 C19 1_555 1_555
C21 C20 1_555 1_555
C22 C21 1_555 1_555
C23 C18 1_555 1_555
C24 C4 1_555 1_555
C25 C24 1_555 1_555
C26 C27 1_555 1_555
C27 C28 1_555 1_555
C28 C29 1_555 1_555
C29 C25 1_555 1_555
C30 C5 1_555 1_555
C31 C30 1_555 1_555
C32 C31 1_555 1_555
C33 C32 1_555 1_555
C34 C33 1_555 1_555
C35 C30 1_555 1_555
Cl1 C21 1_555 1_555
Cl2 C33 1_555 1_555
N1 C7 1_555 1_555
N2 C13 1_555 1_555
N3 C25 1_555 1_555
H1 C2 1_555 1_555
H2 C3 1_555 1_555
H3 C4 1_555 1_555
H4 C5 1_555 1_555
H5 C6 1_555 1_555
H6 C6 1_555 1_555
H7 C8 1_555 1_555
H8 C9 1_555 1_555
H9 C10 1_555 1_555
H10 C11 1_555 1_555
H11 C14 1_555 1_555
H12 C15 1_555 1_555
H13 C16 1_555 1_555
H14 C17 1_555 1_555
H15 C19 1_555 1_555
H16 C20 1_555 1_555
H17 C22 1_555 1_555
H18 C23 1_555 1_555
H19 C26 1_555 1_555
H20 C27 1_555 1_555
H21 C28 1_555 1_555
H22 C29 1_555 1_555
H23 C31 1_555 1_555
H24 C32 1_555 1_555
H25 C34 1_555 1_555
H26 C35 1_555 1_555
C8 N1 1_555 1_555
C14 N2 1_555 1_555
C22 C23 1_555 1_555
C26 N3 1_555 1_555
C34 C35 1_555 1_555

#END
