
#######################################################################
#
#                 Cambridge Crystallographic Data Centre
#                                CCDC 
#
#######################################################################
#
# If this CIF has been generated from an entry in the Cambridge 
# Structural Database, then it will include bibliographic, chemical, 
# crystal, experimental, refinement or atomic coordinate data resulting 
# from the CCDC's data processing and validation procedures.
#
#######################################################################

data_YOYWOA
_chemical_formula_moiety         'C7 H4 I2 O2'
_chemical_name_systematic        '3,5-diiodobenzoic acid'
_symmetry_cell_setting           monoclinic
_symmetry_space_group_name_H-M   'P 21/c'
_symmetry_Int_Tables_number      14
_space_group_name_Hall           '-P 2ybc'
loop_
_symmetry_equiv_pos_site_id
_symmetry_equiv_pos_as_xyz
1 x,y,z
2 -x,1/2+y,1/2-z
3 -x,-y,-z
4 x,1/2-y,1/2+z
_cell_length_a                   4.2208(2)
_cell_length_b                   14.6043(6)
_cell_length_c                   14.9230(5)
_cell_angle_alpha                90
_cell_angle_beta                 92.303(3)
_cell_angle_gamma                90
_cell_volume                     919.138
_exptl_crystal_colour            yellow
_exptl_crystal_description       rectangular
_cell_formula_units_Z            4
loop_
_atom_site_label
_atom_site_type_symbol
_atom_site_fract_x
_atom_site_fract_y
_atom_site_fract_z
I1 I 0.30665(10) 0.92150(3) 1.14513(3)
I2 I 0.13146(9) 0.85047(3) 0.75127(3)
C1 C 0.2651(13) 0.8648(4) 0.9505(4)
H1 H 0.1527 0.9193 0.9437
C2 C 0.3870(13) 0.8374(4) 1.0345(4)
O1 O 0.8055(14) 0.5661(4) 0.9104(3)
H2 H 0.9212 0.5219 0.9207
C3 C 0.4826(13) 0.7286(5) 0.8862(4)
H3 H 0.5164 0.6924 0.8363
C4 C 0.6007(13) 0.7023(4) 0.9715(4)
C5 C 0.7769(14) 0.6132(5) 0.9837(4)
O2 O 0.8852(11) 0.5888(3) 1.0558(3)
C6 C 0.5528(12) 0.7570(4) 1.0456(4)
H4 H 0.6318 0.7395 1.1021
C7 C 0.3152(13) 0.8094(4) 0.8780(4)
loop_
_geom_bond_atom_site_label_1
_geom_bond_atom_site_label_2
_geom_bond_site_symmetry_1
_geom_bond_site_symmetry_2
I1 C2 1_555 1_555
I2 C7 1_555 1_555
C1 H1 1_555 1_555
C2 C1 1_555 1_555
O1 H2 1_555 1_555
C3 H3 1_555 1_555
C4 C3 1_555 1_555
C5 O1 1_555 1_555
O2 C5 1_555 1_555
C6 C2 1_555 1_555
H4 C6 1_555 1_555
C7 C1 1_555 1_555
C3 C7 1_555 1_555
C4 C5 1_555 1_555
C4 C6 1_555 1_555

#END
