
#######################################################################
#
#                 Cambridge Crystallographic Data Centre
#                                CCDC 
#
#######################################################################
#
# If this CIF has been generated from an entry in the Cambridge 
# Structural Database, then it will include bibliographic, chemical, 
# crystal, experimental, refinement or atomic coordinate data resulting 
# from the CCDC's data processing and validation procedures.
#
#######################################################################

data_YOYWIS
_chemical_formula_moiety         'C12 H24 Br1 N4 1+,Br1 1-'
_chemical_name_systematic        
'1-(6-Bromohexyl)-1,3,5,7-tetra-aza-adamantan-1-ium bromide'
_symmetry_cell_setting           monoclinic
_symmetry_space_group_name_H-M   'P 21/n'
_symmetry_Int_Tables_number      14
_space_group_name_Hall           '-P 2yn'
loop_
_symmetry_equiv_pos_site_id
_symmetry_equiv_pos_as_xyz
1 x,y,z
2 1/2-x,1/2+y,1/2-z
3 -x,-y,-z
4 1/2+x,1/2-y,1/2+z
_cell_length_a                   8.976(4)
_cell_length_b                   15.743(8)
_cell_length_c                   11.329(6)
_cell_angle_alpha                90
_cell_angle_beta                 103.70(2)
_cell_angle_gamma                90
_cell_volume                     1555.34
_chemical_melting_point          165deg.C
_cell_formula_units_Z            4
loop_
_atom_site_label
_atom_site_type_symbol
_atom_site_fract_x
_atom_site_fract_y
_atom_site_fract_z
C1 C 0.6948(10) 0.7494(5) 0.5436(8)
C2 C 0.8349(9) 0.6553(6) 0.7087(7)
C3 C 0.6899(10) 0.5932(5) 0.5131(8)
C4 C 0.9630(12) 0.7477(6) 0.5893(10)
C5 C 0.8248(12) 0.6850(7) 0.4068(9)
C6 C 0.9620(11) 0.5949(7) 0.5670(10)
C7 C 0.5509(10) 0.6621(6) 0.6616(9)
C8 C 0.5239(11) 0.5808(6) 0.7292(10)
C9 C 0.3889(11) 0.5894(7) 0.7852(10)
C10 C 0.3442(16) 0.5204(9) 0.8536(16)
C11 C 0.2024(12) 0.5318(7) 0.8986(12)
C12 C 0.0892(13) 0.4570(8) 0.8769(10)
N1 N 0.6893(7) 0.6634(4) 0.6091(6)
N2 N 0.8277(10) 0.7542(5) 0.4945(8)
N3 N 0.9672(8) 0.6635(5) 0.6564(7)
N4 N 0.8238(9) 0.6007(5) 0.4652(7)
Br1 Br 0.1811(1) 0.3588(1) 0.9618(1)
Br2 Br 0.2401(1) 0.1345(1) 0.1487(1)
loop_
_geom_bond_atom_site_label_1
_geom_bond_atom_site_label_2
_geom_bond_site_symmetry_1
_geom_bond_site_symmetry_2
C1 N1 1_555 1_555
C2 N1 1_555 1_555
C3 N1 1_555 1_555
C4 N2 1_555 1_555
C5 N2 1_555 1_555
C6 N3 1_555 1_555
C7 C8 1_555 1_555
C8 C9 1_555 1_555
C9 C10 1_555 1_555
C10 C11 1_555 1_555
C11 C12 1_555 1_555
C12 Br1 1_555 1_555
N1 C7 1_555 1_555
N2 C1 1_555 1_555
N3 C2 1_555 1_555
N4 C3 1_555 1_555
C4 N3 1_555 1_555
C5 N4 1_555 1_555
C6 N4 1_555 1_555

#END
