
#######################################################################
#
#                 Cambridge Crystallographic Data Centre
#                                CCDC 
#
#######################################################################
#
# If this CIF has been generated from an entry in the Cambridge 
# Structural Database, then it will include bibliographic, chemical, 
# crystal, experimental, refinement or atomic coordinate data resulting 
# from the CCDC's data processing and validation procedures.
#
#######################################################################

data_YOZHEC
_chemical_formula_moiety         'C20 H17 Br2 N3 O2 S2'
_chemical_name_systematic        
1,4-bis(5-bromo-2-thienyl)-6-hexyl-5H-pyrrolo[3,4-d]pyridazine-5,7(6H)-dione
_symmetry_cell_setting           triclinic
_symmetry_space_group_name_H-M   'P -1'
_symmetry_Int_Tables_number      2
_space_group_name_Hall           '-P 1'
loop_
_symmetry_equiv_pos_site_id
_symmetry_equiv_pos_as_xyz
1 x,y,z
2 -x,-y,-z
_cell_length_a                   8.1594(5)
_cell_length_b                   9.3272(6)
_cell_length_c                   14.0726(9)
_cell_angle_alpha                78.521(2)
_cell_angle_beta                 89.373(2)
_cell_angle_gamma                81.245(2)
_cell_volume                     1037.13
_exptl_crystal_colour            orange
_exptl_crystal_description       'prism fragment'
_cell_formula_units_Z            2
loop_
_atom_site_label
_atom_site_type_symbol
_atom_site_fract_x
_atom_site_fract_y
_atom_site_fract_z
Br1 Br -0.13514(3) 0.33062(3) 0.32682(2)
Br2 Br 0.66059(3) 0.98885(3) 0.82358(2)
S1 S 0.11648(8) 0.50629(8) 0.39495(5)
S2 S 0.53097(8) 0.84917(7) 0.66063(5)
O1 O 0.5943(2) 0.6362(2) 0.17168(13)
O2 O 0.8790(2) 0.8710(2) 0.35442(14)
N1 N 0.3499(3) 0.6481(2) 0.46265(16)
N2 N 0.4306(3) 0.7171(2) 0.51482(16)
N3 N 0.7632(3) 0.7570(2) 0.24687(16)
C1 C 0.0562(3) 0.4205(3) 0.3066(2)
C2 C 0.1574(3) 0.4284(3) 0.2296(2)
H1 H 0.1423 0.3877 0.1757
C3 C 0.2896(3) 0.5066(3) 0.2414(2)
H2 H 0.3710 0.5232 0.1955
C4 C 0.2853(3) 0.5548(3) 0.32685(19)
C5 C 0.3968(3) 0.6315(3) 0.37164(19)
C6 C 0.5398(3) 0.6870(3) 0.33477(19)
C7 C 0.6273(3) 0.6858(3) 0.24101(19)
C8 C 0.7718(3) 0.8056(3) 0.33343(19)
C9 C 0.6253(3) 0.7592(3) 0.39051(19)
C10 C 0.5676(3) 0.7772(3) 0.4818(2)
C11 C 0.6345(3) 0.8506(3) 0.55135(19)
C12 C 0.7672(3) 0.9257(3) 0.5479(2)
H3 H 0.8356 0.9400 0.4947
C13 C 0.7896(3) 0.9792(3) 0.6336(2)
H4 H 0.8743 1.0313 0.6434
C14 C 0.6724(3) 0.9450(3) 0.69922(19)
C15 C 0.8838(3) 0.7772(3) 0.1696(2)
H5 H 0.9136 0.6850 0.1472
H6 H 0.9836 0.8015 0.1954
C16 C 0.8174(3) 0.8989(3) 0.0841(2)
H7 H 0.7132 0.8779 0.0619
H8 H 0.8950 0.8972 0.0315
C17 C 0.7896(3) 1.0533(3) 0.1069(2)
H9 H 0.7252 1.0522 0.1654
H10 H 0.8959 1.0813 0.1192
C18 C 0.6994(3) 1.1673(3) 0.0246(2)
H11 H 0.5944 1.1371 0.0121
H12 H 0.7647 1.1673 -0.0334
C19 C 0.6658(4) 1.3248(3) 0.0429(2)
H13 H 0.5876 1.3847 -0.0060
H14 H 0.6148 1.3232 0.1056
C20 C 0.8209(4) 1.3962(4) 0.0409(2)
H15 H 0.8961 1.3411 0.0918
H16 H 0.7918 1.4961 0.0502
H17 H 0.8732 1.3967 -0.0206
loop_
_geom_bond_atom_site_label_1
_geom_bond_atom_site_label_2
_geom_bond_site_symmetry_1
_geom_bond_site_symmetry_2
Br1 C1 1_555 1_555
Br2 C14 1_555 1_555
S1 C1 1_555 1_555
S2 C11 1_555 1_555
O1 C7 1_555 1_555
O2 C8 1_555 1_555
N1 N2 1_555 1_555
N2 C10 1_555 1_555
N3 C7 1_555 1_555
C1 C2 1_555 1_555
C2 H1 1_555 1_555
C3 C2 1_555 1_555
H2 C3 1_555 1_555
C4 S1 1_555 1_555
C5 N1 1_555 1_555
C6 C5 1_555 1_555
C7 C6 1_555 1_555
C8 N3 1_555 1_555
C9 C6 1_555 1_555
C10 C9 1_555 1_555
C11 C10 1_555 1_555
C12 C11 1_555 1_555
H3 C12 1_555 1_555
C13 C12 1_555 1_555
H4 C13 1_555 1_555
C14 S2 1_555 1_555
C15 N3 1_555 1_555
H5 C15 1_555 1_555
H6 C15 1_555 1_555
C16 C15 1_555 1_555
H7 C16 1_555 1_555
H8 C16 1_555 1_555
C17 C16 1_555 1_555
H9 C17 1_555 1_555
H10 C17 1_555 1_555
C18 C17 1_555 1_555
H11 C18 1_555 1_555
H12 C18 1_555 1_555
C19 C18 1_555 1_555
H13 C19 1_555 1_555
H14 C19 1_555 1_555
C20 C19 1_555 1_555
H15 C20 1_555 1_555
H16 C20 1_555 1_555
H17 C20 1_555 1_555
C3 C4 1_555 1_555
C4 C5 1_555 1_555
C8 C9 1_555 1_555
C13 C14 1_555 1_555

#END
