
#######################################################################
#
#                 Cambridge Crystallographic Data Centre
#                                CCDC 
#
#######################################################################
#
# If this CIF has been generated from an entry in the Cambridge 
# Structural Database, then it will include bibliographic, chemical, 
# crystal, experimental, refinement or atomic coordinate data resulting 
# from the CCDC's data processing and validation procedures.
#
#######################################################################

data_YOZLOQ
_chemical_formula_moiety         'C18 H18 I4'
_chemical_name_systematic        
3,3',5,5'-tetraiodo-2,2',4,4',6,6'-hexamethylbiphenyl
_symmetry_cell_setting           monoclinic
_symmetry_space_group_name_H-M   'P 21/n'
_symmetry_Int_Tables_number      14
_space_group_name_Hall           '-P 2yn'
loop_
_symmetry_equiv_pos_site_id
_symmetry_equiv_pos_as_xyz
1 x,y,z
2 1/2-x,1/2+y,1/2-z
3 -x,-y,-z
4 1/2+x,1/2-y,1/2+z
_cell_length_a                   13.334(3)
_cell_length_b                   20.948(4)
_cell_length_c                   15.971(3)
_cell_angle_alpha                90
_cell_angle_beta                 114.402(2)
_cell_angle_gamma                90
_cell_volume                     4062.52
_cell_formula_units_Z            8
loop_
_atom_site_label
_atom_site_type_symbol
_atom_site_fract_x
_atom_site_fract_y
_atom_site_fract_z
I1 I 0.273842(19) 0.191427(11) 0.059321(16)
I2 I 0.19730(2) 0.511754(11) 0.396806(15)
I3 I -0.03743(2) 0.391490(12) -0.185215(16)
I4 I -0.18875(2) 0.328988(13) 0.293070(18)
C1 C 0.0763(3) 0.34208(15) 0.1046(2)
C2 C 0.0549(3) 0.36693(16) 0.1844(2)
C3 C 0.0221(3) 0.37097(16) 0.0180(2)
C4 C 0.1197(3) 0.41667(16) 0.2385(2)
C5 C -0.0323(3) 0.34134(16) 0.2007(2)
C6 C 0.0464(3) 0.34897(16) -0.0543(2)
C7 C 0.1487(3) 0.29005(15) 0.1176(2)
C8 C 0.0038(3) 0.41948(16) 0.3254(2)
C9 C 0.1222(3) 0.30004(16) -0.0440(2)
C10 C 0.1692(3) 0.27121(15) 0.0429(2)
C11 C 0.0936(3) 0.44044(15) 0.3090(2)
C12 C -0.0976(3) 0.28605(16) 0.1440(2)
H1 H -0.0716 0.2757 0.0965
H2 H -0.1758 0.2976 0.1148
H3 H -0.0880 0.2488 0.1838
C13 C 0.1529(3) 0.27827(18) -0.1206(2)
H4 H 0.2329 0.2809 -0.1001
H5 H 0.1168 0.3058 -0.1744
H6 H 0.1288 0.2340 -0.1371
C14 C 0.2141(3) 0.44367(17) 0.2197(2)
H7 H 0.2177 0.4216 0.1669
H8 H 0.2835 0.4375 0.2739
H9 H 0.2020 0.4894 0.2062
C15 C 0.1986(3) 0.25673(17) 0.2092(2)
H10 H 0.1677 0.2136 0.2032
H11 H 0.1819 0.2809 0.2544
H12 H 0.2786 0.2540 0.2296
C16 C -0.0565(3) 0.36872(16) 0.2702(2)
C17 C -0.0254(3) 0.45004(18) 0.3981(2)
H13 H -0.0194 0.4965 0.3952
H14 H 0.0253 0.4348 0.4590
H15 H -0.1010 0.4386 0.3873
C18 C -0.0634(3) 0.42160(17) 0.0047(2)
H16 H -0.0544 0.4564 -0.0326
H17 H -0.0544 0.4383 0.0647
H18 H -0.1371 0.4030 -0.0266
I5 I 0.41571(2) 0.339487(12) 0.436863(16)
I6 I 0.07460(2) 0.315581(12) 0.595615(17)
I7 I 0.54053(2) 0.656249(11) 0.811061(18)
I8 I 0.66368(2) 0.420649(13) 1.054052(16)
C19 C 0.3897(3) 0.41379(15) 0.6817(2)
C20 C 0.1902(3) 0.29477(17) 0.4505(2)
H19 H 0.1696 0.3186 0.3929
H20 H 0.1236 0.2810 0.4570
H21 H 0.2336 0.2572 0.4496
C21 C 0.3607(3) 0.36086(15) 0.5405(2)
C22 C 0.5342(3) 0.55609(16) 0.8272(2)
C23 C 0.4646(3) 0.52024(15) 0.7514(2)
C24 C 0.4602(3) 0.45391(16) 0.7630(2)
C25 C 0.4285(3) 0.39818(16) 0.6150(2)
C26 C 0.5159(3) 0.35352(17) 0.8595(3)
H22 H 0.5898 0.3356 0.8779
H23 H 0.4660 0.3346 0.8009
H24 H 0.4890 0.3440 0.9067
C27 C 0.2578(3) 0.33703(15) 0.5304(2)
C28 C 0.5963(3) 0.52957(17) 0.9144(2)
C29 C 0.3972(3) 0.55049(17) 0.6594(2)
H25 H 0.3445 0.5192 0.6193
H26 H 0.4461 0.5645 0.6311
H27 H 0.3573 0.5874 0.6681
C30 C 0.5202(3) 0.42481(16) 0.8486(2)
C31 C 0.5396(3) 0.42137(17) 0.6236(3)
H28 H 0.5805 0.4392 0.6852
H29 H 0.5294 0.4544 0.5774
H30 H 0.5809 0.3856 0.6139
C32 C 0.2242(3) 0.35360(16) 0.6001(2)
C33 C 0.5850(3) 0.46387(17) 0.9227(2)
C34 C 0.2454(3) 0.41242(18) 0.7458(2)
H31 H 0.1672 0.4236 0.7154
H32 H 0.2874 0.4495 0.7797
H33 H 0.2552 0.3771 0.7886
C35 C 0.2863(3) 0.39253(16) 0.6743(2)
C36 C 0.6690(3) 0.57007(19) 0.9944(3)
H34 H 0.6244 0.5900 1.0230
H35 H 0.7042 0.6033 0.9727
H36 H 0.7258 0.5432 1.0398
loop_
_geom_bond_atom_site_label_1
_geom_bond_atom_site_label_2
_geom_bond_site_symmetry_1
_geom_bond_site_symmetry_2
I1 C10 1_555 1_555
I2 C11 1_555 1_555
I3 C6 1_555 1_555
I4 C16 1_555 1_555
C1 C2 1_555 1_555
C2 C4 1_555 1_555
C3 C1 1_555 1_555
C4 C11 1_555 1_555
C5 C2 1_555 1_555
C6 C3 1_555 1_555
C7 C1 1_555 1_555
C8 C11 1_555 1_555
C9 C6 1_555 1_555
C10 C7 1_555 1_555
C12 C5 1_555 1_555
H1 C12 1_555 1_555
H2 C12 1_555 1_555
H3 C12 1_555 1_555
C13 C9 1_555 1_555
H4 C13 1_555 1_555
H5 C13 1_555 1_555
H6 C13 1_555 1_555
C14 C4 1_555 1_555
H7 C14 1_555 1_555
H8 C14 1_555 1_555
H9 C14 1_555 1_555
C15 C7 1_555 1_555
H10 C15 1_555 1_555
H11 C15 1_555 1_555
H12 C15 1_555 1_555
C16 C5 1_555 1_555
C17 C8 1_555 1_555
H13 C17 1_555 1_555
H14 C17 1_555 1_555
H15 C17 1_555 1_555
C18 C3 1_555 1_555
H16 C18 1_555 1_555
H17 C18 1_555 1_555
H18 C18 1_555 1_555
I5 C21 1_555 1_555
I6 C32 1_555 1_555
I7 C22 1_555 1_555
I8 C33 1_555 1_555
C19 C24 1_555 1_555
C20 H19 1_555 1_555
H20 C20 1_555 1_555
H21 C20 1_555 1_555
C21 C25 1_555 1_555
C22 C23 1_555 1_555
C23 C24 1_555 1_555
C24 C30 1_555 1_555
C25 C19 1_555 1_555
C26 H22 1_555 1_555
H23 C26 1_555 1_555
H24 C26 1_555 1_555
C27 C20 1_555 1_555
C28 C22 1_555 1_555
C29 C23 1_555 1_555
H25 C29 1_555 1_555
H26 C29 1_555 1_555
H27 C29 1_555 1_555
C30 C26 1_555 1_555
C31 C25 1_555 1_555
H28 C31 1_555 1_555
H29 C31 1_555 1_555
H30 C31 1_555 1_555
C32 C27 1_555 1_555
C33 C28 1_555 1_555
C34 H31 1_555 1_555
H32 C34 1_555 1_555
H33 C34 1_555 1_555
C35 C19 1_555 1_555
C36 C28 1_555 1_555
H34 C36 1_555 1_555
H35 C36 1_555 1_555
H36 C36 1_555 1_555
C8 C16 1_555 1_555
C9 C10 1_555 1_555
C21 C27 1_555 1_555
C30 C33 1_555 1_555
C32 C35 1_555 1_555
C34 C35 1_555 1_555

#END
