
#######################################################################
#
#                 Cambridge Crystallographic Data Centre
#                                CCDC 
#
#######################################################################
#
# If this CIF has been generated from an entry in the Cambridge 
# Structural Database, then it will include bibliographic, chemical, 
# crystal, experimental, refinement or atomic coordinate data resulting 
# from the CCDC's data processing and validation procedures.
#
#######################################################################

data_YOZZAQ
_chemical_formula_moiety         'C6 H4 Cl1 N1 O2'
_chemical_name_systematic        '3-chloroisonicotinic acid'
_symmetry_cell_setting           triclinic
_symmetry_space_group_name_H-M   'P 1'
_symmetry_Int_Tables_number      1
_space_group_name_Hall           'P 1'
loop_
_symmetry_equiv_pos_site_id
_symmetry_equiv_pos_as_xyz
1 x,y,z
_cell_length_a                   3.6779(1)
_cell_length_b                   6.9371(1)
_cell_length_c                   7.0372(2)
_cell_angle_alpha                61.6975(14)
_cell_angle_beta                 80.0002(12)
_cell_angle_gamma                89.5122(12)
_cell_volume                     155.117
_exptl_crystal_colour            colorless
_exptl_crystal_description       block
_cell_formula_units_Z            1
loop_
_atom_site_label
_atom_site_type_symbol
_atom_site_fract_x
_atom_site_fract_y
_atom_site_fract_z
Cl1 Cl 0.43401(4) 0.16497(3) 0.29003(3)
N1 N 0.8355(4) 0.6921(2) 0.2824(3)
C1 C 0.7363(5) 0.5434(3) 0.2279(3)
H1 H 0.7826 0.5793 0.0772
C2 C 0.5662(5) 0.3359(3) 0.3859(3)
C3 C 0.4987(5) 0.2805(3) 0.6067(3)
C4 C 0.5971(5) 0.4408(3) 0.6599(3)
H2 H 0.5483 0.4113 0.8086
C5 C 0.7661(5) 0.6425(3) 0.4949(3)
H3 H 0.8351 0.7492 0.5334
C6 C 0.3334(5) 0.0568(3) 0.7893(3)
O1 O 0.4028(4) -0.1122(2) 0.7849(2)
O2 O 0.1192(4) 0.0715(2) 0.9514(2)
H4 H 0.0432 -0.0552 1.0544
loop_
_geom_bond_atom_site_label_1
_geom_bond_atom_site_label_2
_geom_bond_site_symmetry_1
_geom_bond_site_symmetry_2
Cl1 C2 1_555 1_555
N1 C1 1_555 1_555
C1 H1 1_555 1_555
C2 C1 1_555 1_555
C3 C2 1_555 1_555
C4 C3 1_555 1_555
H2 C4 1_555 1_555
C5 N1 1_555 1_555
H3 C5 1_555 1_555
C6 C3 1_555 1_555
O1 C6 1_555 1_555
O2 C6 1_555 1_555
H4 O2 1_555 1_555
C4 C5 1_555 1_555

#END
