
#######################################################################
#
#                 Cambridge Crystallographic Data Centre
#                                CCDC 
#
#######################################################################
#
# If this CIF has been generated from an entry in the Cambridge 
# Structural Database, then it will include bibliographic, chemical, 
# crystal, experimental, refinement or atomic coordinate data resulting 
# from the CCDC's data processing and validation procedures.
#
#######################################################################

data_YUBJIQ
_chemical_formula_moiety         'C40 H38 N4 O8,C1 H4 O1'
_chemical_name_systematic        
'Diethyl 1,4-dimethoxy-6,13-dioxo-8,11-diphenyl-5,7,12,14-tetrahydro-5a,6a,12a,13a-tetraazabenzo[5,6]azuleno[2,1,8-ija]benzo[f]azulene-13b,13c-dicarboxylate methanol solvate'
_symmetry_cell_setting           triclinic
_symmetry_space_group_name_H-M   'P -1'
_symmetry_Int_Tables_number      2
_space_group_name_Hall           '-P 1'
loop_
_symmetry_equiv_pos_site_id
_symmetry_equiv_pos_as_xyz
1 x,y,z
2 -x,-y,-z
_cell_length_a                   8.7063(10)
_cell_length_b                   11.0579(13)
_cell_length_c                   20.271(2)
_cell_angle_alpha                99.383(2)
_cell_angle_beta                 98.246(2)
_cell_angle_gamma                95.472(2)
_cell_volume                     1891.4
_exptl_crystal_colour            colorless
_exptl_crystal_description       block
_cell_formula_units_Z            2
loop_
_atom_site_label
_atom_site_type_symbol
_atom_site_fract_x
_atom_site_fract_y
_atom_site_fract_z
C1 C 0.1137(9) 0.0753(5) -0.0576(3)
H1 H 0.0886 0.0630 -0.1066
H2 H 0.0703 0.0032 -0.0418
H3 H 0.2264 0.0877 -0.0440
C2 C 0.1357(4) 0.2916(4) -0.02310(15)
C3 C 0.1261(3) 0.3799(3) 0.03463(14)
C4 C 0.2057(3) 0.4994(3) 0.04287(13)
C5 C 0.2889(4) 0.5298(3) -0.00772(15)
C6 C 0.2998(4) 0.4432(4) -0.06315(15)
H4 H 0.3576 0.4644 -0.0962
C7 C 0.2253(4) 0.3248(4) -0.07008(16)
H5 H 0.2356 0.2653 -0.1075
C8 C 0.4336(5) 0.6893(4) -0.0497(2)
H6 H 0.5215 0.6428 -0.0547
H7 H 0.4711 0.7767 -0.0369
H8 H 0.3624 0.6748 -0.0924
C9 C 0.0274(3) 0.3444(3) 0.08503(13)
H9 H -0.0545 0.3991 0.0878
H10 H -0.0241 0.2600 0.0683
C10 C 0.2037(3) 0.5943(3) 0.10487(13)
H11 H 0.2688 0.6701 0.1021
H12 H 0.0966 0.6140 0.1057
C11 C 0.2144(3) 0.2651(3) 0.16557(13)
C12 C 0.4072(3) 0.5832(2) 0.20299(12)
C13 C 0.1654(3) 0.4670(2) 0.19703(12)
C14 C 0.2888(3) 0.4341(2) 0.25383(11)
C15 C 0.0249(3) 0.5249(2) 0.22324(13)
C16 C -0.0792(3) 0.7100(3) 0.25789(15)
H13 H -0.0865 0.6992 0.3044
H14 H -0.1790 0.6757 0.2290
C17 C -0.0443(4) 0.8437(3) 0.2553(2)
H15 H 0.0492 0.8787 0.2873
H16 H -0.1316 0.8866 0.2668
H17 H -0.0278 0.8529 0.2099
C18 C 0.2217(3) 0.4327(2) 0.32037(12)
C19 C 0.0571(5) 0.3092(3) 0.37292(18)
H18 H -0.0151 0.3718 0.3765
H19 H 0.1282 0.3200 0.4161
C20 C -0.0310(5) 0.1843(4) 0.3574(2)
H20 H -0.1019 0.1748 0.3149
H21 H -0.0903 0.1730 0.3934
H22 H 0.0415 0.1230 0.3538
C21 C 0.4167(3) 0.2338(2) 0.25737(13)
H23 H 0.4923 0.2055 0.2286
H24 H 0.3495 0.1608 0.2625
C22 C 0.5759(3) 0.4846(2) 0.27843(13)
H25 H 0.6571 0.5557 0.2901
H26 H 0.5994 0.4295 0.2391
C23 C 0.5051(3) 0.2954(2) 0.32661(12)
C24 C 0.5776(3) 0.4172(2) 0.33728(12)
C25 C 0.6570(3) 0.4751(2) 0.40215(13)
C26 C 0.6615(3) 0.4083(3) 0.45495(14)
H27 H 0.7128 0.4456 0.4985
C27 C 0.5915(3) 0.2887(3) 0.44385(14)
H28 H 0.5960 0.2459 0.4804
C28 C 0.5144(3) 0.2288(2) 0.38063(13)
C29 C 0.7389(3) 0.6033(2) 0.41561(13)
C30 C 0.6625(3) 0.7029(3) 0.40291(15)
H29 H 0.5549 0.6906 0.3859
C31 C 0.7425(4) 0.8207(3) 0.41485(16)
H30 H 0.6893 0.8878 0.4058
C32 C 0.9006(4) 0.8396(3) 0.44013(15)
H31 H 0.9555 0.9193 0.4478
C33 C 0.9769(4) 0.7424(3) 0.45391(16)
H32 H 1.0841 0.7556 0.4718
C34 C 0.8978(3) 0.6241(3) 0.44181(14)
H33 H 0.9517 0.5576 0.4513
C35 C 0.4467(3) 0.0975(3) 0.37356(14)
C36 C 0.3644(4) 0.0637(3) 0.42263(17)
H34 H 0.3487 0.1247 0.4583
C37 C 0.3051(4) -0.0569(3) 0.4204(2)
H35 H 0.2506 -0.0774 0.4547
C38 C 0.3249(4) -0.1476(3) 0.3685(2)
H36 H 0.2833 -0.2299 0.3666
C39 C 0.4068(5) -0.1160(3) 0.3192(2)
H37 H 0.4201 -0.1774 0.2833
C40 C 0.4704(4) 0.0062(3) 0.32195(17)
H38 H 0.5290 0.0261 0.2889
N1 N 0.1138(2) 0.3505(2) 0.15342(10)
N2 N 0.2609(2) 0.5528(2) 0.16794(10)
N3 N 0.3198(2) 0.31353(19) 0.22282(10)
N4 N 0.4212(2) 0.52762(19) 0.26068(10)
O1 O 0.0512(3) 0.1775(3) -0.02970(13)
O2 O 0.3532(3) 0.6503(3) 0.00177(11)
O3 O 0.2098(2) 0.16352(19) 0.13162(10)
O4 O 0.5131(2) 0.64928(17) 0.18824(9)
O5 O -0.0873(2) 0.4636(2) 0.23246(13)
O6 O 0.0484(2) 0.64653(17) 0.23376(9)
O7 O 0.2321(2) 0.52140(17) 0.36429(9)
O8 O 0.1457(2) 0.32278(16) 0.31839(9)
C43 C 0.4334(17) 0.9224(19) 0.1183(10)
H47 H 0.3559 0.9355 0.1478
H48 H 0.3913 0.8568 0.0803
H49 H 0.4601 0.9979 0.1017
O11 O 0.5656(8) 0.8894(5) 0.1533(4)
H50 H 0.5881 0.9356 0.1908
C41? C 0.7098(11) 0.0846(9) 0.2104(5)
H39? H 0.7781 0.0432 0.2391
H40? H 0.6399 0.0235 0.1770
H41? H 0.6489 0.1349 0.2380
O9? O 0.7940(14) 0.1551(9) 0.1798(5)
H42? H 0.7644 0.2247 0.1838
C42? C 0.431(3) 1.016(3) 0.0987(18)
H43? H 0.4074 1.0965 0.0904
H44? H 0.5074 0.9874 0.0713
H45? H 0.4723 1.0210 0.1462
O10? O 0.2936(13) 0.9326(8) 0.0818(6)
H46? H 0.2582 0.9279 0.0411
loop_
_geom_bond_atom_site_label_1
_geom_bond_atom_site_label_2
_geom_bond_site_symmetry_1
_geom_bond_site_symmetry_2
C1 H1 1_555 1_555
H2 C1 1_555 1_555
H3 C1 1_555 1_555
C2 C3 1_555 1_555
C3 C4 1_555 1_555
C4 C5 1_555 1_555
C5 C6 1_555 1_555
C6 H4 1_555 1_555
C7 C2 1_555 1_555
H5 C7 1_555 1_555
C8 H6 1_555 1_555
H7 C8 1_555 1_555
H8 C8 1_555 1_555
C9 C3 1_555 1_555
H9 C9 1_555 1_555
H10 C9 1_555 1_555
C10 C4 1_555 1_555
H11 C10 1_555 1_555
H12 C10 1_555 1_555
C11 N1 1_555 1_555
C12 N2 1_555 1_555
C13 C14 1_555 1_555
C14 C18 1_555 1_555
C15 C13 1_555 1_555
C16 H13 1_555 1_555
H14 C16 1_555 1_555
C17 C16 1_555 1_555
H15 C17 1_555 1_555
H16 C17 1_555 1_555
H17 C17 1_555 1_555
C18 O7 1_555 1_555
C19 H18 1_555 1_555
H19 C19 1_555 1_555
C20 C19 1_555 1_555
H20 C20 1_555 1_555
H21 C20 1_555 1_555
H22 C20 1_555 1_555
C21 H23 1_555 1_555
H24 C21 1_555 1_555
C22 H25 1_555 1_555
H26 C22 1_555 1_555
C23 C21 1_555 1_555
C24 C22 1_555 1_555
C25 C24 1_555 1_555
C26 C25 1_555 1_555
H27 C26 1_555 1_555
C27 C26 1_555 1_555
H28 C27 1_555 1_555
C28 C23 1_555 1_555
C29 C25 1_555 1_555
C30 C29 1_555 1_555
H29 C30 1_555 1_555
C31 C30 1_555 1_555
H30 C31 1_555 1_555
C32 C31 1_555 1_555
H31 C32 1_555 1_555
C33 C32 1_555 1_555
H32 C33 1_555 1_555
C34 C29 1_555 1_555
H33 C34 1_555 1_555
C35 C28 1_555 1_555
C36 C35 1_555 1_555
H34 C36 1_555 1_555
C37 C36 1_555 1_555
H35 C37 1_555 1_555
C38 C37 1_555 1_555
H36 C38 1_555 1_555
C39 C38 1_555 1_555
H37 C39 1_555 1_555
C40 C35 1_555 1_555
H38 C40 1_555 1_555
N1 C9 1_555 1_555
N2 C10 1_555 1_555
N3 C11 1_555 1_555
N4 C12 1_555 1_555
O1 C1 1_555 1_555
O2 C5 1_555 1_555
O3 C11 1_555 1_555
O4 C12 1_555 1_555
O5 C15 1_555 1_555
O6 C15 1_555 1_555
O8 C18 1_555 1_555
C43 H47 1_555 1_555
H48 C43 1_555 1_555
H49 C43 1_555 1_555
O11 C43 1_555 1_555
H50 O11 1_555 1_555
C2 O1 1_555 1_555
C6 C7 1_555 1_555
C8 O2 1_555 1_555
C13 N1 1_555 1_555
C13 N2 1_555 1_555
C14 N3 1_555 1_555
C14 N4 1_555 1_555
C16 O6 1_555 1_555
C19 O8 1_555 1_555
C21 N3 1_555 1_555
C22 N4 1_555 1_555
C23 C24 1_555 1_555
C27 C28 1_555 1_555
C33 C34 1_555 1_555
C39 C40 1_555 1_555

#END
