
#######################################################################
#
#                 Cambridge Crystallographic Data Centre
#                                CCDC 
#
#######################################################################
#
# If this CIF has been generated from an entry in the Cambridge 
# Structural Database, then it will include bibliographic, chemical, 
# crystal, experimental, refinement or atomic coordinate data resulting 
# from the CCDC's data processing and validation procedures.
#
#######################################################################

data_YUBQOD
_chemical_formula_moiety         'C29 H31 N3 O3'
_chemical_name_systematic        
12-methoxy-14,14-dimethyl-17-(piperidin-1-yl)-7,8-dihydro-14H-naphtho[1'',2'':5',6'][1,4]oxazino[3',2':2,3][1,4]oxazino[4,3-a]indole
_symmetry_cell_setting           orthorhombic
_symmetry_space_group_name_H-M   'P 21 21 21'
_symmetry_Int_Tables_number      19
_space_group_name_Hall           'P 2ac 2ab'
loop_
_symmetry_equiv_pos_site_id
_symmetry_equiv_pos_as_xyz
1 x,y,z
2 1/2-x,-y,1/2+z
3 -x,1/2+y,1/2-z
4 1/2+x,1/2-y,-z
_cell_length_a                   11.335(2)
_cell_length_b                   14.198(3)
_cell_length_c                   14.777(3)
_cell_angle_alpha                90
_cell_angle_beta                 90
_cell_angle_gamma                90
_cell_volume                     2378.13
_exptl_crystal_colour            colorless
_exptl_crystal_description       Prism
_cell_formula_units_Z            4
loop_
_atom_site_label
_atom_site_type_symbol
_atom_site_fract_x
_atom_site_fract_y
_atom_site_fract_z
O1 O 0.40850(12) 0.23031(10) 0.66963(9)
O2 O 0.29543(10) 0.14916(8) 0.20247(8)
O3 O 0.37435(11) -0.06943(9) 0.30644(9)
N1 N 0.24056(13) 0.09198(10) 0.34245(10)
N2 N 0.43827(13) -0.00866(10) 0.17479(10)
N3 N 0.43595(13) 0.29859(10) -0.07037(10)
C1 C 0.38628(15) 0.16315(12) 0.42869(12)
C2 C 0.43469(17) 0.20228(13) 0.50706(13)
H1 H 0.5103 0.2311 0.5059
C3 C 0.36961(16) 0.19809(13) 0.58713(12)
C4 C 0.25761(16) 0.15729(13) 0.58769(12)
H2 H 0.2137 0.1554 0.6424
C5 C 0.20958(16) 0.11939(13) 0.50939(12)
H3 H 0.1334 0.0916 0.5100
C6 C 0.27500(15) 0.12292(12) 0.43019(12)
C7 C 0.18086(16) 0.00065(12) 0.33531(13)
H4 H 0.1511 -0.0082 0.2729
H5 H 0.1126 -0.0010 0.3771
C8 C 0.26554(17) -0.07768(14) 0.35869(13)
H6 H 0.2842 -0.0752 0.4241
H7 H 0.2280 -0.1392 0.3459
C9 C 0.38548(15) 0.00526(12) 0.24957(12)
C10 C 0.34018(16) 0.10084(12) 0.28191(12)
C11 C 0.43685(16) 0.16217(13) 0.33393(12)
C12 C 0.4424(2) 0.26336(13) 0.29783(14)
H8 H 0.3625 0.2895 0.2946
H9 H 0.4778 0.2633 0.2373
H10 H 0.4906 0.3020 0.3386
C13 C 0.56077(17) 0.11832(15) 0.33197(14)
H11 H 0.6143 0.1561 0.3694
H12 H 0.5899 0.1170 0.2695
H13 H 0.5572 0.0540 0.3558
C14 C 0.36821(15) 0.14481(13) 0.12821(12)
C15 C 0.36119(15) 0.21911(13) 0.06562(12)
H14 H 0.3067 0.2689 0.0753
C16 C 0.43239(16) 0.22032(12) -0.00929(12)
C17 C 0.51083(15) 0.14282(12) -0.02626(12)
C18 C 0.58075(16) 0.13716(13) -0.10557(12)
H15 H 0.5803 0.1881 -0.1473
C19 C 0.64910(16) 0.05955(14) -0.12332(13)
H16 H 0.6944 0.0567 -0.1774
C20 C 0.65224(17) -0.01601(13) -0.06147(13)
H17 H 0.6993 -0.0698 -0.0742
C21 C 0.58776(16) -0.01235(12) 0.01699(12)
H18 H 0.5915 -0.0634 0.0585
C22 C 0.51545(15) 0.06662(12) 0.03706(12)
C23 C 0.44314(15) 0.06943(12) 0.11617(12)
C24 C 0.32275(16) 0.34790(14) -0.08163(13)
H19 H 0.2994 0.3773 -0.0236
H20 H 0.2608 0.3022 -0.0990
C25 C 0.33335(18) 0.42334(14) -0.15418(13)
H21 H 0.2567 0.4558 -0.1616
H22 H 0.3543 0.3938 -0.2127
C26 C 0.42844(19) 0.49497(14) -0.12752(14)
H23 H 0.4396 0.5410 -0.1771
H24 H 0.4031 0.5298 -0.0729
C27 C 0.54433(18) 0.44442(14) -0.10863(14)
H25 H 0.5756 0.4179 -0.1658
H26 H 0.6027 0.4902 -0.0852
C28 C 0.52811(17) 0.36562(13) -0.04015(13)
H27 H 0.6037 0.3317 -0.0322
H28 H 0.5054 0.3928 0.0190
C29 C 0.52045(17) 0.27580(13) 0.67068(14)
H29 H 0.5815 0.2313 0.6514
H30 H 0.5378 0.2978 0.7321
H31 H 0.5191 0.3297 0.6293
loop_
_geom_bond_atom_site_label_1
_geom_bond_atom_site_label_2
_geom_bond_site_symmetry_1
_geom_bond_site_symmetry_2
O1 C3 1_555 1_555
O2 C10 1_555 1_555
O3 C8 1_555 1_555
N1 C6 1_555 1_555
N2 C9 1_555 1_555
N3 C16 1_555 1_555
C1 C2 1_555 1_555
C2 H1 1_555 1_555
C3 C2 1_555 1_555
C4 C3 1_555 1_555
H2 C4 1_555 1_555
C5 C4 1_555 1_555
H3 C5 1_555 1_555
C6 C1 1_555 1_555
C7 N1 1_555 1_555
H4 C7 1_555 1_555
H5 C7 1_555 1_555
C8 C7 1_555 1_555
H6 C8 1_555 1_555
H7 C8 1_555 1_555
C9 O3 1_555 1_555
C10 N1 1_555 1_555
C11 C1 1_555 1_555
C12 C11 1_555 1_555
H8 C12 1_555 1_555
H9 C12 1_555 1_555
H10 C12 1_555 1_555
C13 C11 1_555 1_555
H11 C13 1_555 1_555
H12 C13 1_555 1_555
H13 C13 1_555 1_555
C14 O2 1_555 1_555
C15 C14 1_555 1_555
H14 C15 1_555 1_555
C16 C15 1_555 1_555
C17 C16 1_555 1_555
C18 C17 1_555 1_555
H15 C18 1_555 1_555
C19 C18 1_555 1_555
H16 C19 1_555 1_555
C20 C19 1_555 1_555
H17 C20 1_555 1_555
C21 C20 1_555 1_555
H18 C21 1_555 1_555
C22 C17 1_555 1_555
C23 N2 1_555 1_555
C24 N3 1_555 1_555
H19 C24 1_555 1_555
H20 C24 1_555 1_555
C25 C24 1_555 1_555
H21 C25 1_555 1_555
H22 C25 1_555 1_555
C26 C25 1_555 1_555
H23 C26 1_555 1_555
H24 C26 1_555 1_555
C27 C26 1_555 1_555
H25 C27 1_555 1_555
H26 C27 1_555 1_555
C28 N3 1_555 1_555
H27 C28 1_555 1_555
H28 C28 1_555 1_555
C29 O1 1_555 1_555
H29 C29 1_555 1_555
H30 C29 1_555 1_555
H31 C29 1_555 1_555
C5 C6 1_555 1_555
C9 C10 1_555 1_555
C10 C11 1_555 1_555
C14 C23 1_555 1_555
C21 C22 1_555 1_555
C22 C23 1_555 1_555
C27 C28 1_555 1_555

#END
