
#######################################################################
#
#                 Cambridge Crystallographic Data Centre
#                                CCDC 
#
#######################################################################
#
# If this CIF has been generated from an entry in the Cambridge 
# Structural Database, then it will include bibliographic, chemical, 
# crystal, experimental, refinement or atomic coordinate data resulting 
# from the CCDC's data processing and validation procedures.
#
#######################################################################

data_YUBVUM
_chemical_formula_moiety         'C21 H26 Li1 N1 O2 S2'
_chemical_name_systematic        
bis(Tetrahydrofuran)-(diphenylaminodithiocarbamato)-lithium
_symmetry_cell_setting           monoclinic
_symmetry_space_group_name_H-M   'P 21/c'
_symmetry_Int_Tables_number      14
_space_group_name_Hall           '-P 2ybc'
loop_
_symmetry_equiv_pos_site_id
_symmetry_equiv_pos_as_xyz
1 x,y,z
2 -x,1/2+y,1/2-z
3 -x,-y,-z
4 x,1/2-y,1/2+z
_cell_length_a                   10.261(2)
_cell_length_b                   13.615(3)
_cell_length_c                   14.824(3)
_cell_angle_alpha                90
_cell_angle_beta                 96.05(3)
_cell_angle_gamma                90
_cell_volume                     2059.43
_exptl_crystal_colour            yellow
_chemical_melting_point          290-295deg.C
_cell_formula_units_Z            4
loop_
_atom_site_label
_atom_site_type_symbol
_atom_site_fract_x
_atom_site_fract_y
_atom_site_fract_z
S1 S 0.1787(1) -0.0658(1) 0.3474(1)
S2 S 0.2727(1) 0.1375(1) 0.3960(1)
Li1 Li 0.1725(5) 0.0763(3) 0.2461(3)
N1 N 0.2579(2) -0.0074(2) 0.5147(1)
C1 C 0.2375(3) 0.0195(2) 0.4257(2)
C2 C 0.3020(3) 0.0608(2) 0.5867(2)
C3 C 0.2105(3) 0.1165(2) 0.6266(2)
C4 C 0.2521(3) 0.1760(2) 0.6998(2)
C5 C 0.3828(3) 0.1806(2) 0.7332(2)
C6 C 0.4738(3) 0.1252(2) 0.6925(2)
C7 C 0.4335(3) 0.0645(2) 0.6192(2)
C8 C 0.2311(3) -0.1064(2) 0.5449(2)
C9 C 0.3339(3) -0.1720(2) 0.5629(2)
C10 C 0.3089(3) -0.2645(2) 0.5973(2)
C11 C 0.1827(3) -0.2909(2) 0.6124(2)
C12 C 0.0805(3) -0.2253(2) 0.5936(2)
C13 C 0.1046(3) -0.1324(2) 0.5602(2)
O1 O -0.0055(2) 0.1020(1) 0.1937(1)
C14 C -0.0718(3) 0.1910(2) 0.1608(2)
C15 C -0.2144(3) 0.1630(2) 0.1386(2)
C16 C -0.2316(3) 0.0791(2) 0.2023(2)
C17 C -0.1023(3) 0.0274(2) 0.2047(2)
O2 O 0.2669(2) 0.0776(2) 0.1401(1)
C18 C 0.4075(3) 0.0784(2) 0.1416(2)
C19 C 0.4340(3) 0.1307(2) 0.0552(2)
C20 C 0.3178(3) 0.1016(2) -0.0096(2)
C21 C 0.2093(3) 0.1012(3) 0.0489(2)
H1 H 0.1205(3) 0.1139(2) 0.6040(2)
H2 H 0.1898(3) 0.2142(2) 0.7274(2)
H3 H 0.4102(3) 0.2213(2) 0.7836(2)
H4 H 0.5639(3) 0.1287(2) 0.7147(2)
H5 H 0.4957(3) 0.0260(2) 0.5918(2)
H6 H 0.4203(3) -0.1541(2) 0.5518(2)
H7 H 0.3788(3) -0.3098(2) 0.6104(2)
H8 H 0.1663(3) -0.3541(2) 0.6357(2)
H9 H -0.0062(3) -0.2438(2) 0.6036(2)
H10 H 0.0348(3) -0.0868(2) 0.5480(2)
H11 H -0.0349(3) 0.2155(2) 0.1060(2)
H12 H -0.0625(3) 0.2428(2) 0.2078(2)
H13 H -0.2728(3) 0.2185(2) 0.1499(2)
H14 H -0.2325(3) 0.1421(2) 0.0746(2)
H15 H -0.2475(3) 0.1030(2) 0.2632(2)
H16 H -0.3047(3) 0.0357(2) 0.1785(2)
H17 H -0.0818(3) -0.0071(2) 0.2632(2)
H18 H -0.1043(3) -0.0214(2) 0.1550(2)
H19 H 0.4425(3) 0.0106(2) 0.1426(2)
H20 H 0.4484(3) 0.1141(2) 0.1955(2)
H21 H 0.4379(3) 0.2028(2) 0.0640(2)
H22 H 0.5170(3) 0.1080(2) 0.0337(2)
H23 H 0.3015(3) 0.1500(2) -0.0594(2)
H24 H 0.3303(3) 0.0358(2) -0.0357(2)
H25 H 0.1664(3) 0.1664(3) 0.0479(2)
H26 H 0.1429(3) 0.0514(3) 0.0273(2)
loop_
_geom_bond_atom_site_label_1
_geom_bond_atom_site_label_2
_geom_bond_site_symmetry_1
_geom_bond_site_symmetry_2
S1 Li1 1_555 1_555
S2 Li1 1_555 1_555
Li1 O1 1_555 1_555
N1 C1 1_555 1_555
C1 S1 1_555 1_555
C2 N1 1_555 1_555
C3 C2 1_555 1_555
C4 C3 1_555 1_555
C5 C4 1_555 1_555
C6 C5 1_555 1_555
C7 C2 1_555 1_555
C8 N1 1_555 1_555
C9 C8 1_555 1_555
C10 C9 1_555 1_555
C11 C10 1_555 1_555
C12 C11 1_555 1_555
C13 C8 1_555 1_555
O1 C14 1_555 1_555
C14 C15 1_555 1_555
C15 C16 1_555 1_555
C16 C17 1_555 1_555
C17 O1 1_555 1_555
O2 Li1 1_555 1_555
C18 O2 1_555 1_555
C19 C18 1_555 1_555
C20 C19 1_555 1_555
C21 O2 1_555 1_555
H1 C3 1_555 1_555
H2 C4 1_555 1_555
H3 C5 1_555 1_555
H4 C6 1_555 1_555
H5 C7 1_555 1_555
H6 C9 1_555 1_555
H7 C10 1_555 1_555
H8 C11 1_555 1_555
H9 C12 1_555 1_555
H10 C13 1_555 1_555
H11 C14 1_555 1_555
H12 C14 1_555 1_555
H13 C15 1_555 1_555
H14 C15 1_555 1_555
H15 C16 1_555 1_555
H16 C16 1_555 1_555
H17 C17 1_555 1_555
H18 C17 1_555 1_555
H19 C18 1_555 1_555
H20 C18 1_555 1_555
H21 C19 1_555 1_555
H22 C19 1_555 1_555
H23 C20 1_555 1_555
H24 C20 1_555 1_555
H25 C21 1_555 1_555
H26 C21 1_555 1_555
S2 C1 1_555 1_555
C6 C7 1_555 1_555
C12 C13 1_555 1_555
C20 C21 1_555 1_555

#END
