
#######################################################################
#
#                 Cambridge Crystallographic Data Centre
#                                CCDC 
#
#######################################################################
#
# If this CIF has been generated from an entry in the Cambridge 
# Structural Database, then it will include bibliographic, chemical, 
# crystal, experimental, refinement or atomic coordinate data resulting 
# from the CCDC's data processing and validation procedures.
#
#######################################################################

data_YUCJAI
_chemical_name_common            
'2,4-Hexadiyne-1,6-diammonium (E,E)-2,4-hexadienedioate'
_chemical_formula_moiety         'C6 H10 N2 2+,C6 H4 O4 2-'
_chemical_name_systematic        '2,4-Hexadiyne-1,6-diammonium (E,E)-muconate'
_symmetry_cell_setting           triclinic
_symmetry_space_group_name_H-M   'P -1'
_symmetry_Int_Tables_number      2
_space_group_name_Hall           '-P 1'
loop_
_symmetry_equiv_pos_site_id
_symmetry_equiv_pos_as_xyz
1 x,y,z
2 -x,-y,-z
_cell_length_a                   7.330(6)
_cell_length_b                   8.453(3)
_cell_length_c                   9.982(3)
_cell_angle_alpha                98.33(3)
_cell_angle_beta                 91.63(4)
_cell_angle_gamma                103.30(5)
_cell_volume                     594.324
_exptl_crystal_colour            colorless
_exptl_crystal_description       plate
_cell_formula_units_Z            2
loop_
_atom_site_label
_atom_site_type_symbol
_atom_site_fract_x
_atom_site_fract_y
_atom_site_fract_z
O1 O 0.3382(2) 0.9532(2) 1.33161(14)
O2 O 0.0953(2) 1.0688(2) 1.32430(15)
O3 O 0.4531(3) 0.6170(2) 0.61391(16)
O4 O 0.1762(2) 0.6762(2) 0.61236(15)
C1 C 0.3276(3) 0.6728(2) 0.6724(2)
C2 C 0.3632(3) 0.7377(3) 0.8206(2)
H4 H 0.4734 0.7272 0.8631
C3 C 0.2880(3) 0.8661(3) 1.04153(19)
H5 H 0.3978 0.8524 1.0822
C4 C 0.2497(3) 0.8092(3) 0.8963(2)
H6 H 0.1407 0.8236 0.8548
C6 C 0.2061(3) 0.9908(3) 1.26857(19)
C7 C 0.1757(3) 0.9363(3) 1.1190(2)
H10 H 0.0686 0.9530 1.0765
N1 N 0.2847(3) 0.0356(2) 0.60229(17)
H1 H 0.3859 0.0259 0.6488
H2 H 0.2919 0.0003 0.5146
H3 H 0.1822 -0.0246 0.6320
N2 N 0.2056(3) 0.4520(2) 1.36382(17)
H7 H 0.1101 0.3637 1.3553
H8 H 0.2054 0.5138 1.4440
H9 H 0.3132 0.4204 1.3580
C5 C 0.2368(3) 0.4026(3) 1.0099(2)
C8 C 0.2574(3) 0.3330(3) 0.8787(2)
C9 C 0.2699(3) 0.2764(3) 0.7641(2)
C10 C 0.1857(4) 0.5488(3) 1.2543(2)
H11 H 0.0610 0.5697 1.2531
H12 H 0.2761 0.6542 1.2733
C11 C 0.2147(3) 0.4649(3) 1.1213(2)
C12 C 0.2751(4) 0.2099(3) 0.6212(2)
H13 H 0.3836 0.2740 0.5841
H14 H 0.1635 0.2196 0.5716
loop_
_geom_bond_atom_site_label_1
_geom_bond_atom_site_label_2
_geom_bond_site_symmetry_1
_geom_bond_site_symmetry_2
O1 C6 1_555 1_555
O2 C6 1_555 1_555
O3 C1 1_555 1_555
O4 C1 1_555 1_555
N1 H1 1_555 1_555
H2 N1 1_555 1_555
H3 N1 1_555 1_555
C1 C2 1_555 1_555
C2 H4 1_555 1_555
C3 H5 1_555 1_555
C4 C2 1_555 1_555
H6 C4 1_555 1_555
N2 H7 1_555 1_555
H8 N2 1_555 1_555
H9 N2 1_555 1_555
C5 C8 1_555 1_555
C6 C7 1_555 1_555
C7 C3 1_555 1_555
H10 C7 1_555 1_555
C8 C9 1_555 1_555
C9 C12 1_555 1_555
C10 N2 1_555 1_555
H11 C10 1_555 1_555
H12 C10 1_555 1_555
C11 C5 1_555 1_555
C12 N1 1_555 1_555
H13 C12 1_555 1_555
H14 C12 1_555 1_555
C3 C4 1_555 1_555
C10 C11 1_555 1_555

#END
