
#######################################################################
#
#                 Cambridge Crystallographic Data Centre
#                                CCDC 
#
#######################################################################
#
# If this CIF has been generated from an entry in the Cambridge 
# Structural Database, then it will include bibliographic, chemical, 
# crystal, experimental, refinement or atomic coordinate data resulting 
# from the CCDC's data processing and validation procedures.
#
#######################################################################

data_YUCQOD
_chemical_formula_moiety         'C4 H7 N2 1+,C14 H9 O4 S2 1-'
_chemical_name_systematic        
'4-Methylimidazol-3-ium 2-((2-carboxyphenyl)disulfanyl)benzoate'
_symmetry_cell_setting           triclinic
_symmetry_space_group_name_H-M   'P -1'
_symmetry_Int_Tables_number      2
_space_group_name_Hall           '-P 1'
loop_
_symmetry_equiv_pos_site_id
_symmetry_equiv_pos_as_xyz
1 x,y,z
2 -x,-y,-z
_cell_length_a                   8.2486(5)
_cell_length_b                   10.1528(6)
_cell_length_c                   11.3724(7)
_cell_angle_alpha                70.3590(10)
_cell_angle_beta                 82.112(2)
_cell_angle_gamma                81.2850(10)
_cell_volume                     882.809
_exptl_crystal_colour            colorless
_exptl_crystal_description       block
_cell_formula_units_Z            2
_exptl_crystal_recrystallization_method '95% methanol'
loop_
_atom_site_label
_atom_site_type_symbol
_atom_site_fract_x
_atom_site_fract_y
_atom_site_fract_z
S1 S 0.40313(8) 0.49732(6) 0.70899(6)
S2 S 0.49337(8) 0.29164(6) 0.73126(6)
O1 O 0.0402(2) 0.87131(17) 0.66759(18)
O2 O 0.2896(2) 0.76894(17) 0.63337(17)
O3 O 0.8771(2) -0.0548(2) 0.8536(2)
H1 H 0.9161 -0.0833 0.7951
O4 O 0.6796(2) 0.0501(2) 0.72731(19)
C1 C 0.0871(3) 0.6228(2) 0.7525(2)
C2 C 0.1921(3) 0.4962(2) 0.7750(2)
C3 C 0.1321(3) 0.3711(3) 0.8489(3)
H2 H 0.2021 0.2873 0.8652
C4 C -0.0307(3) 0.3694(3) 0.8985(3)
H3 H -0.0688 0.2849 0.9489
C5 C -0.1360(3) 0.4915(3) 0.8738(3)
H4 H -0.2461 0.4902 0.9054
C6 C -0.0767(3) 0.6160(3) 0.8016(3)
H5 H -0.1485 0.6987 0.7851
C7 C 0.1444(3) 0.7638(2) 0.6788(2)
C8 C 0.6739(3) 0.1013(2) 0.9165(2)
C9 C 0.5612(3) 0.2231(2) 0.8853(2)
C10 C 0.5036(3) 0.2881(3) 0.9757(2)
H6 H 0.4296 0.3694 0.9560
C11 C 0.5563(4) 0.2320(3) 1.0946(3)
H7 H 0.5166 0.2757 1.1544
C12 C 0.6663(4) 0.1126(3) 1.1256(3)
H8 H 0.7003 0.0752 1.2061
C13 C 0.7256(3) 0.0491(3) 1.0373(3)
H9 H 0.8019 -0.0305 1.0580
C14 C 0.7414(3) 0.0309(2) 0.8226(2)
N1 N 0.6211(3) 0.7748(2) 0.5533(2)
H10 H 0.5259 0.7570 0.5924
C15 C 0.6829(4) 0.8952(3) 0.5230(3)
H11 H 0.6317 0.9747 0.5419
N2 N 0.8284(3) 0.8848(2) 0.4619(2)
H12 H 0.8906 0.9514 0.4309
C16 C 0.8661(3) 0.7503(3) 0.4550(2)
C17 C 1.0260(4) 0.7038(4) 0.3964(3)
H13 H 1.0287 0.6071 0.4018
H14 H 1.1137 0.7133 0.4394
H15 H 1.0394 0.7609 0.3099
C18 C 0.7343(3) 0.6828(3) 0.5120(3)
H16 H 0.7221 0.5900 0.5216
loop_
_geom_bond_atom_site_label_1
_geom_bond_atom_site_label_2
_geom_bond_site_symmetry_1
_geom_bond_site_symmetry_2
S1 S2 1_555 1_555
S2 C9 1_555 1_555
O1 C7 1_555 1_555
O2 C7 1_555 1_555
O3 H1 1_555 1_555
O4 C14 1_555 1_555
C1 C2 1_555 1_555
C2 S1 1_555 1_555
C3 C2 1_555 1_555
H2 C3 1_555 1_555
C4 C3 1_555 1_555
H3 C4 1_555 1_555
C5 C4 1_555 1_555
H4 C5 1_555 1_555
C6 C1 1_555 1_555
H5 C6 1_555 1_555
C7 C1 1_555 1_555
C8 C9 1_555 1_555
C9 C10 1_555 1_555
C10 H6 1_555 1_555
C11 C10 1_555 1_555
H7 C11 1_555 1_555
C12 C11 1_555 1_555
H8 C12 1_555 1_555
C13 C8 1_555 1_555
H9 C13 1_555 1_555
C14 O3 1_555 1_555
N1 H10 1_555 1_555
C15 N1 1_555 1_555
H11 C15 1_555 1_555
N2 C15 1_555 1_555
H12 N2 1_555 1_555
C16 N2 1_555 1_555
C17 C16 1_555 1_555
H13 C17 1_555 1_555
H14 C17 1_555 1_555
H15 C17 1_555 1_555
C18 N1 1_555 1_555
H16 C18 1_555 1_555
C5 C6 1_555 1_555
C8 C14 1_555 1_555
C12 C13 1_555 1_555
C16 C18 1_555 1_555

#END
