
#######################################################################
#
#                 Cambridge Crystallographic Data Centre
#                                CCDC 
#
#######################################################################
#
# If this CIF has been generated from an entry in the Cambridge 
# Structural Database, then it will include bibliographic, chemical, 
# crystal, experimental, refinement or atomic coordinate data resulting 
# from the CCDC's data processing and validation procedures.
#
#######################################################################

data_YUCTOF
_chemical_formula_moiety         'C18 H16 F3 N1 O3'
_chemical_name_systematic        
3-Hydroxy-4-(4-methoxyphenyl)-1,3,4,5-tetrahydro-6-trifluoromethyl-2H-benzazepin-2-one
_symmetry_cell_setting           orthorhombic
_symmetry_space_group_name_H-M   'P 21 21 21'
_symmetry_Int_Tables_number      19
_space_group_name_Hall           'P 2ac 2ab'
loop_
_symmetry_equiv_pos_site_id
_symmetry_equiv_pos_as_xyz
1 x,y,z
2 1/2-x,-y,1/2+z
3 1/2+x,1/2-y,-z
4 -x,1/2+y,1/2-z
_cell_length_a                   15.061(1)
_cell_length_b                   27.684(2)
_cell_length_c                   7.825(2)
_cell_angle_alpha                90
_cell_angle_beta                 90
_cell_angle_gamma                90
_cell_volume                     3262.62
_cell_formula_units_Z            8
loop_
_atom_site_label
_atom_site_type_symbol
_atom_site_fract_x
_atom_site_fract_y
_atom_site_fract_z
N1 N 0.3005(4) 0.2800(2) 0.2637(8)
C1 C 0.3076(5) 0.2662(3) 0.1014(9)
O1 O 0.3304(4) 0.2257(2) 0.0590(7)
C2 C 0.2788(5) 0.3038(3) -0.028(1)
O2 O 0.2493(4) 0.2834(2) -0.1824(7)
C3 C 0.3496(5) 0.3435(2) -0.055(1)
C4 C 0.3856(5) 0.3601(3) 0.119(1)
C5 C 0.2876(5) 0.4122(3) 0.314(1)
C6 C 0.2247(5) 0.4163(3) 0.442(1)
C7 C 0.1889(5) 0.3754(3) 0.510(1)
C8 C 0.2143(5) 0.3301(3) 0.453(1)
C9 C 0.2755(5) 0.3264(2) 0.322(1)
C10 C 0.3162(5) 0.3676(2) 0.252(1)
C11 C 0.4223(5) 0.3284(2) -0.178(1)
C12 C 0.4831(5) 0.2912(2) -0.142(1)
C13 C 0.5452(5) 0.2778(3) -0.259(1)
C14 C 0.5512(5) 0.2993(3) -0.415(1)
C15 C 0.4928(5) 0.3372(3) -0.453(1)
C16 C 0.4299(5) 0.3501(3) -0.334(1)
O3 O 0.6166(4) 0.2837(2) -0.5213(8)
C17 C 0.6185(7) 0.3027(4) -0.692(1)
C18 C 0.3267(6) 0.4576(3) 0.239(1)
F1 F 0.4129(3) 0.4629(2) 0.2765(8)
F2 F 0.2870(3) 0.4982(2) 0.2985(8)
F3 F 0.3206(4) 0.4596(2) 0.0696(6)
H1 H 0.4157 0.3896 0.1004
H2 H 0.4254 0.3361 0.1562
H3 H 0.3201 0.3704 -0.1073
H4 H 0.2287 0.3191 0.0208
H5 H 0.3126 0.2557 0.3486
H6 H 0.1986 0.3023 0.4995
H7 H 0.1458 0.3776 0.5984
H8 H 0.2061 0.4473 0.4818
H9 H 0.4820 0.2758 -0.0329
H10 H 0.5831 0.2519 -0.2324
H11 H 0.4962 0.3537 -0.5572
H12 H 0.3904 0.3755 -0.3613
H13 H 0.6673 0.2890 -0.7492
H14 H 0.5649 0.2951 -0.7460
H15 H 0.6257 0.3368 -0.6835
N2 N 0.3998(4) 0.1772(2) 0.7640(8)
C19 C 0.3859(5) 0.1915(2) 0.600(1)
O4 O 0.3371(3) 0.2250(2) 0.5661(7)
C20 C 0.4420(5) 0.1659(3) 0.465(1)
O5 O 0.4484(4) 0.1924(2) 0.3128(7)
C21 C 0.4124(5) 0.1122(3) 0.432(1)
C22 C 0.3899(6) 0.0874(3) 0.600(1)
C23 C 0.5151(5) 0.0594(3) 0.798(1)
C24 C 0.5737(5) 0.0698(3) 0.930(1)
C25 C 0.5737(5) 0.1147(3) 1.005(1)
C26 C 0.5176(6) 0.1497(3) 0.950(1)
C27 C 0.4599(5) 0.1401(3) 0.818(1)
C28 C 0.4549(5) 0.0954(3) 0.744(1)
C29 C 0.3414(5) 0.1059(2) 0.299(1)
C30 C 0.2599(6) 0.1285(3) 0.309(1)
C31 C 0.1949(6) 0.1206(3) 0.187(1)
C32 C 0.2093(6) 0.0892(3) 0.054(1)
C33 C 0.2893(6) 0.0656(3) 0.044(1)
C34 C 0.3549(5) 0.0746(3) 0.167(1)
O6 O 0.1409(4) 0.0846(2) -0.0606(9)
C35 C 0.1477(7) 0.0502(4) -0.185(1)
C36 C 0.5148(7) 0.0099(3) 0.727(1)
F4 F 0.5191(4) 0.0091(2) 0.5556(7)
F5 F 0.5804(4) -0.0178(2) 0.787(1)
F6 F 0.4383(4) -0.0136(2) 0.7664(9)
H16 H 0.3859 0.0537 0.5795
H17 H 0.3332 0.0991 0.6362
H18 H 0.4623 0.0965 0.3813
H19 H 0.5003 0.1640 0.5145
H20 H 0.3665 0.1932 0.8498
H21 H 0.5174 0.1806 1.0043
H22 H 0.6129 0.1211 1.0968
H23 H 0.6156 0.0460 0.9669
H24 H 0.2483 0.1499 0.4017
H25 H 0.1396 0.1369 0.1946
H26 H 0.3002 0.0427 -0.0451
H27 H 0.4111 0.0585 0.1564
H28 H 0.0980 0.0477 -0.2631
H29 H 0.2003 0.0540 -0.2586
H30 H 0.1549 0.0164 -0.1403
loop_
_geom_bond_atom_site_label_1
_geom_bond_atom_site_label_2
_geom_bond_site_symmetry_1
_geom_bond_site_symmetry_2
N1 C1 1_555 1_555
C1 O1 1_555 1_555
C2 C1 1_555 1_555
O2 C2 1_555 1_555
C3 C2 1_555 1_555
C4 C3 1_555 1_555
C5 C6 1_555 1_555
C6 C7 1_555 1_555
C7 C8 1_555 1_555
C8 C9 1_555 1_555
C9 N1 1_555 1_555
C10 C4 1_555 1_555
C11 C3 1_555 1_555
C12 C11 1_555 1_555
C13 C12 1_555 1_555
C14 C13 1_555 1_555
C15 C14 1_555 1_555
C16 C11 1_555 1_555
O3 C14 1_555 1_555
C17 O3 1_555 1_555
C18 C5 1_555 1_555
F1 C18 1_555 1_555
F2 C18 1_555 1_555
F3 C18 1_555 1_555
H1 C4 1_555 1_555
H2 C4 1_555 1_555
H3 C3 1_555 1_555
H4 C2 1_555 1_555
H5 N1 1_555 1_555
H6 C8 1_555 1_555
H7 C7 1_555 1_555
H8 C6 1_555 1_555
H9 C12 1_555 1_555
H10 C13 1_555 1_555
H11 C15 1_555 1_555
H12 C16 1_555 1_555
H13 C17 1_555 1_555
H14 C17 1_555 1_555
H15 C17 1_555 1_555
N2 C19 1_555 1_555
C19 O4 1_555 1_555
C20 C19 1_555 1_555
O5 C20 1_555 1_555
C21 C20 1_555 1_555
C22 C21 1_555 1_555
C23 C24 1_555 1_555
C24 C25 1_555 1_555
C25 C26 1_555 1_555
C26 C27 1_555 1_555
C27 N2 1_555 1_555
C28 C22 1_555 1_555
C29 C21 1_555 1_555
C30 C29 1_555 1_555
C31 C30 1_555 1_555
C32 C31 1_555 1_555
C33 C32 1_555 1_555
C34 C29 1_555 1_555
O6 C32 1_555 1_555
C35 O6 1_555 1_555
C36 C23 1_555 1_555
F4 C36 1_555 1_555
F5 C36 1_555 1_555
F6 C36 1_555 1_555
H16 C22 1_555 1_555
H17 C22 1_555 1_555
H18 C21 1_555 1_555
H19 C20 1_555 1_555
H20 N2 1_555 1_555
H21 C26 1_555 1_555
H22 C25 1_555 1_555
H23 C24 1_555 1_555
H24 C30 1_555 1_555
H25 C31 1_555 1_555
H26 C33 1_555 1_555
H27 C34 1_555 1_555
H28 C35 1_555 1_555
H29 C35 1_555 1_555
H30 C35 1_555 1_555
C5 C10 1_555 1_555
C9 C10 1_555 1_555
C15 C16 1_555 1_555
C23 C28 1_555 1_555
C27 C28 1_555 1_555
C33 C34 1_555 1_555

#END
