
#######################################################################
#
#                 Cambridge Crystallographic Data Centre
#                                CCDC 
#
#######################################################################
#
# If this CIF has been generated from an entry in the Cambridge 
# Structural Database, then it will include bibliographic, chemical, 
# crystal, experimental, refinement or atomic coordinate data resulting 
# from the CCDC's data processing and validation procedures.
#
#######################################################################

data_YUCTEV
_chemical_formula_moiety         'C25 H28 F3 N2 O4 1+,Cl1 1-'
_chemical_name_systematic        
'3-Acetoxy-4-(4-methoxyphenyl)-N-(2-pyrrolidinylmethyl)-1,3,4,5-tetrahydro-6-trifluoromethyl-2H-benzazepin-2-one hydrochloride'
_chemical_properties_biological  
'calcium channel blocking activity and long acting hypertensive agent'
_symmetry_cell_setting           monoclinic
_symmetry_space_group_name_H-M   'P 21'
_symmetry_Int_Tables_number      4
_space_group_name_Hall           'P 2yb'
loop_
_symmetry_equiv_pos_site_id
_symmetry_equiv_pos_as_xyz
1 x,y,z
2 -x,1/2+y,-z
_cell_length_a                   12.711(4)
_cell_length_b                   7.697(2)
_cell_length_c                   12.889(3)
_cell_angle_alpha                90
_cell_angle_beta                 96.48(2)
_cell_angle_gamma                90
_cell_volume                     1252.96
_cell_formula_units_Z            2
loop_
_atom_site_label
_atom_site_type_symbol
_atom_site_fract_x
_atom_site_fract_y
_atom_site_fract_z
Cl1 Cl 0.3735(5) 0.290 0.3954(5)
N1 N 0.547(1) 0.783(3) 0.257(1)
C1 C 0.625(2) 0.883(4) 0.307(2)
O1 O 0.606(1) 1.017(3) 0.354(1)
C2 C 0.738(2) 0.808(4) 0.310(2)
C3 C 0.789(2) 0.846(3) 0.205(2)
C4 C 0.699(2) 0.832(3) 0.115(2)
C5 C 0.655(2) 0.517(4) 0.055(2)
C6 C 0.598(2) 0.367(4) 0.062(2)
C7 C 0.523(2) 0.355(4) 0.132(2)
C8 C 0.510(2) 0.505(4) 0.195(2)
C9 C 0.566(2) 0.643(4) 0.188(2)
C10 C 0.641(2) 0.659(4) 0.115(2)
C11 C 0.845(2) 1.009(4) 0.204(2)
C12 C 0.943(2) 1.017(4) 0.166(2)
C13 C 0.999(3) 1.182(5) 0.166(3)
C14 C 0.958(2) 1.324(5) 0.190(2)
C15 C 0.862(2) 1.321(5) 0.231(2)
C16 C 0.809(2) 1.165(4) 0.236(2)
O2 O 1.008(1) 1.489(3) 0.192(1)
C17 C 1.104(2) 1.489(5) 0.149(2)
O3 O 0.800(1) 0.887(2) 0.396(1)
C18 C 0.862(2) 0.770(4) 0.448(2)
O4 O 0.875(2) 0.622(3) 0.435(2)
C19 C 0.921(2) 0.865(4) 0.548(2)
C20 C 0.438(2) 0.833(4) 0.263(2)
C21 C 0.399(2) 0.777(4) 0.366(2)
N2 N 0.429(1) 0.906(3) 0.455(1)
C22 C 0.349(2) 0.886(4) 0.532(2)
C23 C 0.259(2) 0.770(5) 0.475(2)
C24 C 0.275(2) 0.779(5) 0.361(2)
C25 C 0.742(2) 0.517(5) -0.023(2)
F1 F 0.757(1) 0.365(2) -0.062(1)
F2 F 0.833(1) 0.581(2) 0.023(1)
F3 F 0.710(1) 0.628(2) -0.102(1)
H1 H 0.7366 0.6838 0.3176
H2 H 0.8436 0.7624 0.1973
H3 H 0.6068 0.2702 0.0176
H4 H 0.4815 0.2524 0.1382
H5 H 0.4594 0.4982 0.2440
H6 H 0.9730 0.9170 0.1377
H7 H 1.0709 1.1831 0.1505
H8 H 0.8341 1.4246 0.2565
H9 H 0.7409 1.1676 0.2625
H10 H 1.1349 1.6002 0.1547
H11 H 1.1517 1.4078 0.1885
H12 H 1.0934 1.4520 0.0794
H13 H 0.9014 0.9833 0.5482
H14 H 0.8999 0.8102 0.6098
H15 H 0.9949 0.8536 0.5486
H16 H 0.4339 0.9575 0.2577
H17 H 0.3951 0.7833 0.2063
H18 H 0.4291 0.6649 0.3772
H19 H 0.3233 0.9948 0.5511
H20 H 0.3801 0.8267 0.5937
H21 H 0.1904 0.8190 0.4843
H22 H 0.2617 0.6553 0.4983
H23 H 0.2446 0.6833 0.3222
H24 H 0.2470 0.8846 0.3282
H25 H 0.4984 0.8798 0.4885
H26 H 0.4280 1.0212 0.4298
loop_
_geom_bond_atom_site_label_1
_geom_bond_atom_site_label_2
_geom_bond_site_symmetry_1
_geom_bond_site_symmetry_2
N1 C1 1_555 1_555
C1 O1 1_555 1_555
C2 C1 1_555 1_555
C3 C2 1_555 1_555
C4 C3 1_555 1_555
C5 C6 1_555 1_555
C6 C7 1_555 1_555
C7 C8 1_555 1_555
C8 C9 1_555 1_555
C9 N1 1_555 1_555
C10 C4 1_555 1_555
C11 C3 1_555 1_555
C12 C11 1_555 1_555
C13 C12 1_555 1_555
C14 C13 1_555 1_555
C15 C14 1_555 1_555
C16 C11 1_555 1_555
O2 C14 1_555 1_555
C17 O2 1_555 1_555
O3 C2 1_555 1_555
C18 O3 1_555 1_555
O4 C18 1_555 1_555
C19 C18 1_555 1_555
C20 N1 1_555 1_555
C21 C20 1_555 1_555
N2 C21 1_555 1_555
C22 N2 1_555 1_555
C23 C22 1_555 1_555
C24 C21 1_555 1_555
C25 C5 1_555 1_555
F1 C25 1_555 1_555
F2 C25 1_555 1_555
F3 C25 1_555 1_555
H1 C2 1_555 1_555
H2 C3 1_555 1_555
H3 C6 1_555 1_555
H4 C7 1_555 1_555
H5 C8 1_555 1_555
H6 C12 1_555 1_555
H7 C13 1_555 1_555
H8 C15 1_555 1_555
H9 C16 1_555 1_555
H10 C17 1_555 1_555
H11 C17 1_555 1_555
H12 C17 1_555 1_555
H13 C19 1_555 1_555
H14 C19 1_555 1_555
H15 C19 1_555 1_555
H16 C20 1_555 1_555
H17 C20 1_555 1_555
H18 C21 1_555 1_555
H19 C22 1_555 1_555
H20 C22 1_555 1_555
H21 C23 1_555 1_555
H22 C23 1_555 1_555
H23 C24 1_555 1_555
H24 C24 1_555 1_555
H25 N2 1_555 1_555
H26 N2 1_555 1_555
C5 C10 1_555 1_555
C9 C10 1_555 1_555
C15 C16 1_555 1_555
C23 C24 1_555 1_555

#END
