
#######################################################################
#
#                 Cambridge Crystallographic Data Centre
#                                CCDC 
#
#######################################################################
#
# If this CIF has been generated from an entry in the Cambridge 
# Structural Database, then it will include bibliographic, chemical, 
# crystal, experimental, refinement or atomic coordinate data resulting 
# from the CCDC's data processing and validation procedures.
#
#######################################################################

data_YUCTIZ
_chemical_formula_moiety         'C27 H34 F3 N2 O2 1+,Cl1 1-'
_chemical_name_systematic        
'trans-3\a,4\a-N-(2-(Dimethylamino)cyclohexyl)-3-methyl-4-(4-methoxyphenyl)-1,3,4,5-tetrahydro-6-trifluoromethyl-2H-benzazepin-2-one hydrochloride'
_chemical_properties_biological  'potent calcium channel blocking agent'
_symmetry_cell_setting           orthorhombic
_symmetry_space_group_name_H-M   'P c a 21'
_symmetry_Int_Tables_number      29
_space_group_name_Hall           'P 2c -2ac'
loop_
_symmetry_equiv_pos_site_id
_symmetry_equiv_pos_as_xyz
1 x,y,z
2 -x,-y,1/2+z
3 1/2-x,y,1/2+z
4 1/2+x,-y,z
_cell_length_a                   24.904(2)
_cell_length_b                   11.122(1)
_cell_length_c                   19.042(2)
_cell_angle_alpha                90
_cell_angle_beta                 90
_cell_angle_gamma                90
_cell_volume                     5274.3
_exptl_crystal_colour            colorless
_chemical_melting_point          'above 250 deg.C'
_cell_formula_units_Z            8
loop_
_atom_site_label
_atom_site_type_symbol
_atom_site_fract_x
_atom_site_fract_y
_atom_site_fract_z
Cl1 Cl 0.62952(6) 0.8280(1) 0.731
Cl2 Cl 0.68313(6) 0.3160(2) 0.84053(9)
N1 N 0.7609(1) 0.7104(3) 0.7502(2)
O1 O 0.7741(1) 0.7783(3) 0.6398(2)
C1 C 0.7677(2) 0.8020(4) 0.7022(2)
C2 C 0.7674(2) 0.9283(4) 0.7298(2)
C3 C 0.8227(2) 0.9603(4) 0.7631(2)
C4 C 0.8411(2) 0.8589(4) 0.8113(2)
C5 C 0.7897(2) 0.8354(4) 0.9278(2)
C6 C 0.7499(2) 0.7799(5) 0.9666(3)
C7 C 0.7145(2) 0.7041(5) 0.9350(3)
C8 C 0.7173(2) 0.6820(5) 0.8638(3)
C9 C 0.7581(2) 0.7340(4) 0.8247(2)
C10 C 0.7959(2) 0.8089(4) 0.8559(2)
C11 C 0.8665(2) 0.9938(4) 0.7128(2)
C12 C 0.8898(2) 0.9107(4) 0.6662(3)
C13 C 0.9307(2) 0.9414(5) 0.6230(3)
C14 C 0.9502(2) 1.0601(5) 0.6218(3)
C15 C 0.9291(2) 1.1415(5) 0.6669(3)
C16 C 0.8866(2) 1.1093(4) 0.7108(3)
O2 O 0.9906(2) 1.0829(4) 0.5743(2)
C17 C 1.0163(3) 1.1965(7) 0.5774(4)
C18 C 0.7503(2) 1.0190(5) 0.6735(3)
C19 C 0.8271(2) 0.9163(5) 0.9635(3)
F1 F 0.8136(2) 0.9413(4) 1.0294(2)
F2 F 0.8778(1) 0.8752(4) 0.9675(2)
F3 F 0.8321(2) 1.0236(3) 0.9315(2)
C20 C 0.7637(2) 0.5817(4) 0.7286(2)
C21 C 0.7306(2) 0.5510(4) 0.6632(2)
C22 C 0.7322(2) 0.4166(5) 0.6501(3)
C23 C 0.7898(2) 0.3772(5) 0.6371(3)
C24 C 0.8256(2) 0.4108(5) 0.6985(3)
C25 C 0.8218(2) 0.5432(5) 0.7166(3)
N2 N 0.6738(2) 0.5988(4) 0.6691(2)
C26 C 0.6370(2) 0.5223(5) 0.7106(3)
C27 C 0.6503(2) 0.6207(6) 0.5980(3)
H1 H 0.6777 0.6777 0.6835
H2 H 0.7412 0.9332 0.7660
H3 H 0.8164 1.0323 0.7888
H4 H 0.8682 0.8886 0.8415
H5 H 0.8552 0.7958 0.7832
H6 H 0.7473 0.7951 1.0155
H7 H 0.6877 0.6652 0.9623
H8 H 0.6912 0.6321 0.8417
H9 H 0.8764 0.8305 0.6650
H10 H 0.9461 0.8826 0.5929
H11 H 0.9434 1.2205 0.6688
H12 H 0.8709 1.1691 0.7401
H13 H 1.0431 1.1996 0.5417
H14 H 0.9907 1.2577 0.5697
H15 H 1.0326 1.2057 0.6219
H16 H 0.7164 0.9956 0.6547
H17 H 0.7475 1.0965 0.6937
H18 H 0.7763 1.0200 0.6369
H19 H 0.7483 0.5388 0.7667
H20 H 0.7461 0.5898 0.6234
H21 H 0.7110 0.3979 0.6099
H22 H 0.7184 0.3755 0.6897
H23 H 0.8028 0.4150 0.5957
H24 H 0.7906 0.2923 0.6310
H25 H 0.8616 0.3925 0.6865
H26 H 0.8150 0.3650 0.7381
H27 H 0.8418 0.5574 0.7582
H28 H 0.8364 0.5888 0.6792
H29 H 0.6520 0.5083 0.7557
H30 H 0.6033 0.5619 0.7155
H31 H 0.6318 0.4478 0.6871
H32 H 0.6740 0.6699 0.5715
H33 H 0.6452 0.5463 0.5746
H34 H 0.6167 0.6605 0.6030
N3 N 0.5536(1) 0.1969(3) 0.8110(2)
C28 C 0.5433(2) 0.2903(4) 0.8570(2)
O3 O 0.5339(2) 0.2721(3) 0.9190(2)
C29 C 0.5463(2) 0.4164(4) 0.8280(3)
C30 C 0.4938(2) 0.4487(4) 0.7894(3)
C31 C 0.4770(2) 0.3426(4) 0.7400(2)
C32 C 0.5337(2) 0.3131(4) 0.6292(2)
C33 C 0.5761(2) 0.2588(5) 0.5950(3)
C34 C 0.6096(2) 0.1802(5) 0.6307(3)
C35 C 0.6023(2) 0.1617(5) 0.7020(3)
C36 C 0.5600(2) 0.2188(4) 0.7368(2)
C37 C 0.5239(2) 0.2911(4) 0.7010(2)
C38 C 0.4472(2) 0.4844(4) 0.8368(2)
C39 C 0.4206(2) 0.4011(5) 0.8797(3)
C40 C 0.3778(2) 0.4373(5) 0.9207(3)
C41 C 0.3606(2) 0.5532(5) 0.9211(3)
C42 C 0.3856(2) 0.6368(5) 0.8790(3)
C43 C 0.4281(2) 0.6011(4) 0.8367(3)
O4 O 0.3181(2) 0.5766(4) 0.9653(2)
C44 C 0.2934(2) 0.6902(6) 0.9594(4)
C45 C 0.5613(2) 0.5072(5) 0.8845(3)
C46 C 0.4991(2) 0.3981(5) 0.5885(3)
F4 F 0.4494(1) 0.3580(4) 0.5787(2)
F5 F 0.4936(2) 0.5049(3) 0.6204(2)
F6 F 0.5197(2) 0.4220(4) 0.5254(2)
C47 C 0.5499(2) 0.0713(4) 0.8335(2)
C48 C 0.5775(2) 0.0433(4) 0.9041(2)
C49 C 0.5759(2) -0.0922(4) 0.9180(3)
C50 C 0.5178(2) -0.1300(5) 0.9231(3)
C51 C 0.4877(2) -0.1037(5) 0.8556(3)
C52 C 0.4917(2) 0.0312(5) 0.8384(3)
N4 N 0.6339(2) 0.0953(4) 0.9064(2)
C53 C 0.6756(2) 0.0194(6) 0.8724(3)
C54 C 0.6500(2) 0.1213(6) 0.9803(3)
H35 H 0.5746 0.4195 0.7943
H36 H 0.5018 0.5189 0.7628
H37 H 0.4514 0.3712 0.7068
H38 H 0.4611 0.2807 0.7675
H39 H 0.5824 0.2754 0.5467
H40 H 0.6372 0.1387 0.6063
H41 H 0.6260 0.1105 0.7271
H42 H 0.4318 0.3194 0.8803
H43 H 0.3598 0.3797 0.9491
H44 H 0.3740 0.7184 0.8791
H45 H 0.4444 0.6584 0.8065
H46 H 0.2648 0.6949 0.9921
H47 H 0.3189 0.7507 0.9683
H48 H 0.2795 0.6986 0.9130
H49 H 0.5939 0.4828 0.9064
H50 H 0.5661 0.5839 0.8636
H51 H 0.5336 0.5108 0.9184
H52 H 0.5686 0.0281 0.7980
H53 H 0.5584 0.0812 0.9411
H54 H 0.5938 -0.1099 0.9607
H55 H 0.5929 -0.1339 0.8804
H56 H 0.5013 -0.0877 0.9604
H57 H 0.5163 -0.2140 0.9320
H58 H 0.4510 -0.1253 0.8612
H59 H 0.5028 -0.1492 0.8182
H60 H 0.4744 0.0460 0.7947
H61 H 0.4743 0.0758 0.8743
H62 H 0.7095 0.0583 0.8760
H63 H 0.6771 -0.0562 0.8951
H64 H 0.6668 0.0085 0.8242
H65 H 0.6233 0.1692 1.0020
H66 H 0.6535 0.0472 1.0050
H67 H 0.6833 0.1622 0.9803
loop_
_geom_bond_atom_site_label_1
_geom_bond_atom_site_label_2
_geom_bond_site_symmetry_1
_geom_bond_site_symmetry_2
N1 C1 1_555 1_555
O1 C1 1_555 1_555
C1 C2 1_555 1_555
C2 C3 1_555 1_555
C3 C4 1_555 1_555
C4 C10 1_555 1_555
C5 C6 1_555 1_555
C6 C7 1_555 1_555
C7 C8 1_555 1_555
C8 C9 1_555 1_555
C9 N1 1_555 1_555
C10 C5 1_555 1_555
C11 C3 1_555 1_555
C12 C11 1_555 1_555
C13 C12 1_555 1_555
C14 C13 1_555 1_555
C15 C14 1_555 1_555
C16 C11 1_555 1_555
O2 C14 1_555 1_555
C17 O2 1_555 1_555
C18 C2 1_555 1_555
C19 C5 1_555 1_555
F1 C19 1_555 1_555
F2 C19 1_555 1_555
F3 C19 1_555 1_555
C20 N1 1_555 1_555
C21 C20 1_555 1_555
C22 C21 1_555 1_555
C23 C22 1_555 1_555
C24 C23 1_555 1_555
C25 C20 1_555 1_555
N2 C21 1_555 1_555
C26 N2 1_555 1_555
C27 N2 1_555 1_555
H1 N2 1_555 1_555
H2 C2 1_555 1_555
H3 C3 1_555 1_555
H4 C4 1_555 1_555
H5 C4 1_555 1_555
H6 C6 1_555 1_555
H7 C7 1_555 1_555
H8 C8 1_555 1_555
H9 C12 1_555 1_555
H10 C13 1_555 1_555
H11 C15 1_555 1_555
H12 C16 1_555 1_555
H13 C17 1_555 1_555
H14 C17 1_555 1_555
H15 C17 1_555 1_555
H16 C18 1_555 1_555
H17 C18 1_555 1_555
H18 C18 1_555 1_555
H19 C20 1_555 1_555
H20 C21 1_555 1_555
H21 C22 1_555 1_555
H22 C22 1_555 1_555
H23 C23 1_555 1_555
H24 C23 1_555 1_555
H25 C24 1_555 1_555
H26 C24 1_555 1_555
H27 C25 1_555 1_555
H28 C25 1_555 1_555
H29 C26 1_555 1_555
H30 C26 1_555 1_555
H31 C26 1_555 1_555
H32 C27 1_555 1_555
H33 C27 1_555 1_555
H34 C27 1_555 1_555
N3 C28 1_555 1_555
C28 O3 1_555 1_555
C29 C28 1_555 1_555
C30 C29 1_555 1_555
C31 C30 1_555 1_555
C32 C33 1_555 1_555
C33 C34 1_555 1_555
C34 C35 1_555 1_555
C35 C36 1_555 1_555
C36 N3 1_555 1_555
C37 C31 1_555 1_555
C38 C30 1_555 1_555
C39 C38 1_555 1_555
C40 C39 1_555 1_555
C41 C40 1_555 1_555
C42 C41 1_555 1_555
C43 C38 1_555 1_555
O4 C41 1_555 1_555
C44 O4 1_555 1_555
C45 C29 1_555 1_555
C46 C32 1_555 1_555
F4 C46 1_555 1_555
F5 C46 1_555 1_555
F6 C46 1_555 1_555
C47 N3 1_555 1_555
C48 C47 1_555 1_555
C49 C48 1_555 1_555
C50 C49 1_555 1_555
C51 C50 1_555 1_555
C52 C47 1_555 1_555
N4 C48 1_555 1_555
C53 N4 1_555 1_555
C54 N4 1_555 1_555
H35 C29 1_555 1_555
H36 C30 1_555 1_555
H37 C31 1_555 1_555
H38 C31 1_555 1_555
H39 C33 1_555 1_555
H40 C34 1_555 1_555
H41 C35 1_555 1_555
H42 C39 1_555 1_555
H43 C40 1_555 1_555
H44 C42 1_555 1_555
H45 C43 1_555 1_555
H46 C44 1_555 1_555
H47 C44 1_555 1_555
H48 C44 1_555 1_555
H49 C45 1_555 1_555
H50 C45 1_555 1_555
H51 C45 1_555 1_555
H52 C47 1_555 1_555
H53 C48 1_555 1_555
H54 C49 1_555 1_555
H55 C49 1_555 1_555
H56 C50 1_555 1_555
H57 C50 1_555 1_555
H58 C51 1_555 1_555
H59 C51 1_555 1_555
H60 C52 1_555 1_555
H61 C52 1_555 1_555
H62 C53 1_555 1_555
H63 C53 1_555 1_555
H64 C53 1_555 1_555
H65 C54 1_555 1_555
H66 C54 1_555 1_555
H67 C54 1_555 1_555
C9 C10 1_555 1_555
C15 C16 1_555 1_555
C24 C25 1_555 1_555
C32 C37 1_555 1_555
C36 C37 1_555 1_555
C42 C43 1_555 1_555
C51 C52 1_555 1_555

#END
