
#######################################################################
#
#                 Cambridge Crystallographic Data Centre
#                                CCDC 
#
#######################################################################
#
# If this CIF has been generated from an entry in the Cambridge 
# Structural Database, then it will include bibliographic, chemical, 
# crystal, experimental, refinement or atomic coordinate data resulting 
# from the CCDC's data processing and validation procedures.
#
#######################################################################

data_YUCTEX
_chemical_formula_moiety         'C17 H20 N2 O2 S1'
_chemical_name_systematic        
2,6-Dimethyl-1-((4-methylphenyl)sulfonyl)-1,2,3,4-tetrahydro-1,5-naphthyridine
_symmetry_cell_setting           monoclinic
_symmetry_space_group_name_H-M   'P 21'
_symmetry_Int_Tables_number      4
_space_group_name_Hall           'P 2yb'
loop_
_symmetry_equiv_pos_site_id
_symmetry_equiv_pos_as_xyz
1 x,y,z
2 -x,1/2+y,-z
_cell_length_a                   7.5552(15)
_cell_length_b                   18.838(4)
_cell_length_c                   11.207(2)
_cell_angle_alpha                90
_cell_angle_beta                 92.14(3)
_cell_angle_gamma                90
_cell_volume                     1593.92
_exptl_crystal_colour            colorless
_exptl_crystal_description       block
_cell_formula_units_Z            4
_exptl_crystal_recrystallization_method dichloromethane
loop_
_atom_site_label
_atom_site_type_symbol
_atom_site_fract_x
_atom_site_fract_y
_atom_site_fract_z
S1 S 0.53989(6) 0.06742(2) 1.01872(4)
O1 O 0.70244(17) 0.03320(7) 0.99115(12)
O2 O 0.44175(19) 0.04240(7) 1.11748(12)
N1 N 0.40599(18) 0.06243(8) 0.89823(13)
N2 N 0.4846(2) 0.12831(9) 0.59261(14)
C1 C 0.0877(2) 0.04657(11) 0.8492(2)
H1 H 0.1179 0.0390 0.7659
H2 H -0.0291 0.0690 0.8518
H3 H 0.0855 0.0008 0.8907
C2 C 0.2259(2) 0.09461(10) 0.91018(17)
H4 H 0.2008 0.0969 0.9971
C3 C 0.2229(2) 0.17020(10) 0.86090(16)
H5 H 0.3084 0.1998 0.9080
H6 H 0.1034 0.1907 0.8692
C4 C 0.2705(3) 0.17160(10) 0.72959(17)
H7 H 0.1645 0.1588 0.6796
H8 H 0.3055 0.2205 0.7080
C5 C 0.4194(2) 0.12133(10) 0.70260(16)
C6 C 0.4807(2) 0.06944(10) 0.78236(15)
C7 C 0.6109(2) 0.02230(9) 0.74575(16)
H9 H 0.6519 -0.0149 0.7969
C8 C 0.6787(2) 0.03078(10) 0.63400(17)
H10 H 0.7697 0.0003 0.6081
C9 C 0.6128(2) 0.08429(10) 0.55971(16)
C10 C 0.6778(3) 0.09391(12) 0.43465(18)
H11 H 0.6276 0.0566 0.3826
H12 H 0.8074 0.0908 0.4364
H13 H 0.6406 0.1405 0.4040
C11 C 0.5844(2) 0.15814(9) 1.03966(16)
C12 C 0.6843(2) 0.19343(10) 0.95524(16)
H14 H 0.7317 0.1680 0.8906
C13 C 0.7133(2) 0.26556(10) 0.96678(16)
H15 H 0.7791 0.2899 0.9089
C14 C 0.6463(2) 0.30300(10) 1.06342(17)
C15 C 0.5488(2) 0.26664(10) 1.14686(17)
H16 H 0.5037 0.2917 1.2128
C16 C 0.5163(2) 0.19437(10) 1.13530(16)
H17 H 0.4483 0.1701 1.1921
C17 C 0.6822(3) 0.38142(11) 1.0765(2)
H18 H 0.5959 0.4024 1.1293
H19 H 0.6719 0.4042 0.9980
H20 H 0.8021 0.3886 1.1109
S2 S 0.17220(5) 0.33716(2) 0.33926(4)
O3 O 0.35097(16) 0.34562(7) 0.38512(11)
O4 O 0.11446(18) 0.37558(7) 0.23436(11)
N3 N 0.04129(19) 0.36177(8) 0.44584(13)
N4 N 0.0140(2) 0.32899(8) 0.76986(13)
C18 C -0.2444(2) 0.42527(11) 0.44975(18)
H21 H -0.3701 0.4230 0.4251
H22 H -0.1883 0.4649 0.4089
H23 H -0.2330 0.4325 0.5363
C19 C -0.1540(2) 0.35612(10) 0.41707(16)
H24 H -0.1709 0.3491 0.3289
C20 C -0.2267(2) 0.29092(10) 0.47926(17)
H25 H -0.3548 0.2863 0.4588
H26 H -0.1664 0.2479 0.4503
C21 C -0.1993(3) 0.29620(11) 0.61412(18)
H27 H -0.2945 0.3259 0.6463
H28 H -0.2089 0.2482 0.6492
C22 C -0.0219(2) 0.32767(9) 0.65180(16)
C23 C 0.0932(2) 0.35719(9) 0.57022(15)
C24 C 0.2498(2) 0.38814(10) 0.61517(16)
H29 H 0.3301 0.4093 0.5625
C25 C 0.2873(2) 0.38778(9) 0.73672(16)
H30 H 0.3950 0.4074 0.7683
C26 C 0.1646(2) 0.35818(9) 0.81259(16)
C27 C 0.1927(3) 0.35983(11) 0.94630(16)
H31 H 0.1415 0.4035 0.9778
H32 H 0.3199 0.3585 0.9668
H33 H 0.1350 0.3186 0.9813
C28 C 0.1372(2) 0.24612(9) 0.31102(16)
C29 C 0.2122(2) 0.19605(10) 0.38899(16)
H34 H 0.2811 0.2106 0.4573
C30 C 0.1845(2) 0.12435(10) 0.36503(16)
H35 H 0.2351 0.0899 0.4179
C31 C 0.0845(2) 0.10206(10) 0.26539(17)
C32 C 0.0113(2) 0.15327(10) 0.18884(16)
H36 H -0.0573 0.1387 0.1204
C33 C 0.0367(2) 0.22539(10) 0.21068(15)
H37 H -0.0138 0.2599 0.1578
C34 C 0.0564(3) 0.02412(10) 0.23968(19)
H38 H -0.0281 0.0186 0.1718
H39 H 0.0097 0.0009 0.3101
H40 H 0.1696 0.0023 0.2204
loop_
_geom_bond_atom_site_label_1
_geom_bond_atom_site_label_2
_geom_bond_site_symmetry_1
_geom_bond_site_symmetry_2
S1 O1 1_555 1_555
O2 S1 1_555 1_555
N1 S1 1_555 1_555
N2 C5 1_555 1_555
C1 H1 1_555 1_555
H2 C1 1_555 1_555
H3 C1 1_555 1_555
C2 N1 1_555 1_555
H4 C2 1_555 1_555
C3 C2 1_555 1_555
H5 C3 1_555 1_555
H6 C3 1_555 1_555
C4 C3 1_555 1_555
H7 C4 1_555 1_555
H8 C4 1_555 1_555
C5 C4 1_555 1_555
C6 N1 1_555 1_555
C7 C6 1_555 1_555
H9 C7 1_555 1_555
C8 C7 1_555 1_555
H10 C8 1_555 1_555
C9 N2 1_555 1_555
C10 C9 1_555 1_555
H11 C10 1_555 1_555
H12 C10 1_555 1_555
H13 C10 1_555 1_555
C11 S1 1_555 1_555
C12 C11 1_555 1_555
H14 C12 1_555 1_555
C13 C12 1_555 1_555
H15 C13 1_555 1_555
C14 C13 1_555 1_555
C15 C14 1_555 1_555
H16 C15 1_555 1_555
C16 C11 1_555 1_555
H17 C16 1_555 1_555
C17 C14 1_555 1_555
H18 C17 1_555 1_555
H19 C17 1_555 1_555
H20 C17 1_555 1_555
S2 O3 1_555 1_555
O4 S2 1_555 1_555
N3 S2 1_555 1_555
N4 C22 1_555 1_555
C18 H21 1_555 1_555
H22 C18 1_555 1_555
H23 C18 1_555 1_555
C19 N3 1_555 1_555
H24 C19 1_555 1_555
C20 C19 1_555 1_555
H25 C20 1_555 1_555
H26 C20 1_555 1_555
C21 C20 1_555 1_555
H27 C21 1_555 1_555
H28 C21 1_555 1_555
C22 C21 1_555 1_555
C23 N3 1_555 1_555
C24 C23 1_555 1_555
H29 C24 1_555 1_555
C25 C24 1_555 1_555
H30 C25 1_555 1_555
C26 N4 1_555 1_555
C27 C26 1_555 1_555
H31 C27 1_555 1_555
H32 C27 1_555 1_555
H33 C27 1_555 1_555
C28 S2 1_555 1_555
C29 C28 1_555 1_555
H34 C29 1_555 1_555
C30 C29 1_555 1_555
H35 C30 1_555 1_555
C31 C30 1_555 1_555
C32 C31 1_555 1_555
H36 C32 1_555 1_555
C33 C28 1_555 1_555
H37 C33 1_555 1_555
C34 C31 1_555 1_555
H38 C34 1_555 1_555
H39 C34 1_555 1_555
H40 C34 1_555 1_555
C1 C2 1_555 1_555
C5 C6 1_555 1_555
C8 C9 1_555 1_555
C15 C16 1_555 1_555
C18 C19 1_555 1_555
C22 C23 1_555 1_555
C25 C26 1_555 1_555
C32 C33 1_555 1_555

#END
