
#######################################################################
#
#                 Cambridge Crystallographic Data Centre
#                                CCDC 
#
#######################################################################
#
# If this CIF has been generated from an entry in the Cambridge 
# Structural Database, then it will include bibliographic, chemical, 
# crystal, experimental, refinement or atomic coordinate data resulting 
# from the CCDC's data processing and validation procedures.
#
#######################################################################

data_YUCTUN
_chemical_formula_moiety         'C22 H16 F6 N2'
_chemical_name_systematic        
2,6-bis(4-(Trifluoromethyl)phenyl)-1,2,3,4-tetrahydro-1,5-naphthyridine
_symmetry_cell_setting           monoclinic
_symmetry_space_group_name_H-M   'P 21'
_symmetry_Int_Tables_number      4
_space_group_name_Hall           'P 2yb'
loop_
_symmetry_equiv_pos_site_id
_symmetry_equiv_pos_as_xyz
1 x,y,z
2 -x,1/2+y,-z
_cell_length_a                   10.869(11)
_cell_length_b                   8.705(7)
_cell_length_c                   10.948(16)
_cell_angle_alpha                90
_cell_angle_beta                 111.83(3)
_cell_angle_gamma                90
_cell_volume                     961.562
_exptl_crystal_colour            colorless
_exptl_crystal_description       Prism
_cell_formula_units_Z            2
loop_
_atom_site_label
_atom_site_type_symbol
_atom_site_fract_x
_atom_site_fract_y
_atom_site_fract_z
C1 C -1.0046(3) -0.0244(4) -0.8379(3)
C2 C -0.8751(3) 0.0273(5) -0.7893(3)
H1 H -0.8388 0.0691 -0.8466
C3 C -0.7994(3) 0.0175(5) -0.6578(3)
H2 H -0.7126 0.0533 -0.6258
C4 C -0.8538(3) -0.0469(4) -0.5721(3)
C5 C -0.9861(3) -0.0940(4) -0.6272(3)
C6 C -1.0515(3) -0.1607(5) -0.5403(3)
H3 H -1.0600 -0.2709 -0.5538
H4 H -1.1401 -0.1183 -0.5655
C7 C -0.9748(3) -0.1282(5) -0.3945(3)
H5 H -1.0068 -0.1952 -0.3419
H6 H -0.9902 -0.0229 -0.3751
C8 C -0.8248(3) -0.1542(4) -0.3572(3)
H7 H -0.8108 -0.2613 -0.3765
C9 C -0.7481(3) -0.1251(4) -0.2128(3)
C10 C -0.6946(4) 0.0182(4) -0.1667(3)
H8 H -0.7099 0.1002 -0.2250
C11 C -0.6186(4) 0.0404(5) -0.0343(3)
H9 H -0.5789 0.1350 -0.0053
C12 C -0.6022(3) -0.0774(5) 0.0534(3)
C13 C -0.6570(5) -0.2180(6) 0.0089(4)
H10 H -0.6451 -0.2985 0.0680
C14 C -0.7299(4) -0.2407(5) -0.1236(3)
H11 H -0.7672 -0.3366 -0.1523
C15 C -1.0917(3) -0.0173(4) -0.9786(3)
C16 C -1.0617(3) 0.0706(5) -1.0692(3)
H12 H -0.9835 0.1272 -1.0411
C17 C -1.1437(4) 0.0767(5) -1.1991(3)
H13 H -1.1199 0.1363 -1.2573
C18 C -1.2604(3) -0.0041(4) -1.2443(3)
C19 C -1.2928(3) -0.0945(5) -1.1564(3)
H14 H -1.3706 -0.1516 -1.1855
C20 C -1.2094(3) -0.0998(4) -1.0254(3)
H15 H -1.2328 -0.1601 -0.9673
C21 C -0.5140(4) -0.0579(5) 0.1959(3)
C22 C -1.3521(4) -0.0019(6) -1.3853(3)
N1 N -1.0576(2) -0.0836(3) -0.7550(2)
N2 N -0.7811(3) -0.0563(4) -0.4390(2)
H16 H -0.688(4) -0.055(5) -0.410(3)
F1 F -0.5489(4) -0.1496(6) 0.2744(2)
F2 F -0.5202(4) 0.0788(5) 0.2406(2)
F3 F -0.3921(3) -0.0934(5) 0.2194(2)
F4 F -1.3218(8) 0.1077(11) -1.4534(4)
F5 F -1.4730(5) 0.0194(16) -1.4025(5)
F6 F -1.3430(11) -0.1295(8) -1.4451(6)
F7? F -1.3058(18) -0.043(5) -1.4675(10)
F8? F -1.418(4) 0.117(4) -1.4222(14)
F9? F -1.454(2) -0.122(3) -1.4146(12)
loop_
_geom_bond_atom_site_label_1
_geom_bond_atom_site_label_2
_geom_bond_site_symmetry_1
_geom_bond_site_symmetry_2
C1 C2 1_555 1_555
C2 H1 1_555 1_555
C3 C2 1_555 1_555
H2 C3 1_555 1_555
C4 C3 1_555 1_555
C5 C4 1_555 1_555
C6 C5 1_555 1_555
H3 C6 1_555 1_555
H4 C6 1_555 1_555
C7 C6 1_555 1_555
H5 C7 1_555 1_555
H6 C7 1_555 1_555
C8 C7 1_555 1_555
H7 C8 1_555 1_555
C9 C8 1_555 1_555
C10 C9 1_555 1_555
H8 C10 1_555 1_555
C11 C10 1_555 1_555
H9 C11 1_555 1_555
C12 C11 1_555 1_555
C13 C12 1_555 1_555
H10 C13 1_555 1_555
C14 C9 1_555 1_555
H11 C14 1_555 1_555
C15 C1 1_555 1_555
C16 C15 1_555 1_555
H12 C16 1_555 1_555
C17 C16 1_555 1_555
H13 C17 1_555 1_555
C18 C17 1_555 1_555
C19 C18 1_555 1_555
H14 C19 1_555 1_555
C20 C15 1_555 1_555
H15 C20 1_555 1_555
C21 C12 1_555 1_555
C22 C18 1_555 1_555
N1 C1 1_555 1_555
N2 C4 1_555 1_555
H16 N2 1_555 1_555
F1 C21 1_555 1_555
F2 C21 1_555 1_555
F3 C21 1_555 1_555
F4 C22 1_555 1_555
F5 C22 1_555 1_555
F6 C22 1_555 1_555
C5 N1 1_555 1_555
C8 N2 1_555 1_555
C13 C14 1_555 1_555
C19 C20 1_555 1_555

#END
