
#######################################################################
#
#                 Cambridge Crystallographic Data Centre
#                                CCDC 
#
#######################################################################
#
# If this CIF has been generated from an entry in the Cambridge 
# Structural Database, then it will include bibliographic, chemical, 
# crystal, experimental, refinement or atomic coordinate data resulting 
# from the CCDC's data processing and validation procedures.
#
#######################################################################

data_YUCVIB
_chemical_formula_moiety         'C23 H25 F3 N2 O4'
_chemical_name_systematic        
3-Acetoxy-N-(2-methylaminoethyl)-4-(4-methoxyphenyl)-1,3,4,5-tetrahydro-6-trifluoromethyl-2H-benzazepin-2-one
_symmetry_cell_setting           orthorhombic
_symmetry_space_group_name_H-M   'P 21 21 21'
_symmetry_Int_Tables_number      19
_space_group_name_Hall           'P 2ac 2ab'
loop_
_symmetry_equiv_pos_site_id
_symmetry_equiv_pos_as_xyz
1 x,y,z
2 1/2-x,-y,1/2+z
3 1/2+x,1/2-y,-z
4 -x,1/2+y,1/2-z
_cell_length_a                   16.947(2)
_cell_length_b                   14.21(1)
_cell_length_c                   9.134(4)
_cell_angle_alpha                90
_cell_angle_beta                 90
_cell_angle_gamma                90
_cell_volume                     2199.62
_cell_formula_units_Z            4
loop_
_atom_site_label
_atom_site_type_symbol
_atom_site_fract_x
_atom_site_fract_y
_atom_site_fract_z
N1 N 0.7911(6) 0.7682(7) 0.622(1)
C1 C 0.7507(7) 0.7033(8) 0.705(1)
O1 O 0.7795(5) 0.6279(6) 0.734(1)
C2 C 0.6705(7) 0.7346(9) 0.756(1)
C3 C 0.6050(7) 0.7260(9) 0.637(1)
C4 C 0.6363(7) 0.7760(8) 0.499(1)
C5 C 0.6516(7) 0.9553(9) 0.488(1)
C6 C 0.6982(8) 1.0354(9) 0.514(2)
C7 C 0.7739(9) 1.027(1) 0.569(2)
C8 C 0.8032(8) 0.940(1) 0.603(2)
C9 C 0.7564(8) 0.8584(9) 0.585(1)
C10 C 0.6795(8) 0.8659(9) 0.526(1)
C11 C 0.5776(7) 0.6264(8) 0.611(1)
C12 C 0.5105(8) 0.5915(8) 0.672(1)
C13 C 0.4820(9) 0.5041(9) 0.645(2)
C14 C 0.5269(8) 0.444(1) 0.557(1)
C15 C 0.5953(8) 0.4725(9) 0.494(2)
C16 C 0.6193(8) 0.5650(9) 0.522(1)
O2 O 0.4932(6) 0.3556(7) 0.544(1)
C17 C 0.537(1) 0.289(1) 0.468(2)
O3 O 0.6423(5) 0.6751(6) 0.875(1)
C18 C 0.6828(8) 0.6862(9) 1.005(2)
O4 O 0.7361(5) 0.7385(7) 1.023(1)
C19 C 0.6477(9) 0.620(1) 1.116(2)
C20 C 0.8662(9) 0.744(1) 0.553(2)
C21 C 0.8607(8) 0.735(1) 0.385(2)
N2 N 0.8037(6) 0.6661(8) 0.339(1)
C22 C 0.8274(9) 0.573(1) 0.363(2)
C23 C 0.572(1) 0.969(1) 0.427(2)
F1 F 0.5528(5) 1.0558(7) 0.404(1)
F2 F 0.5666(5) 0.9276(6) 0.2914(9)
F3 F 0.5147(5) 0.9263(6) 0.501(1)
H1 H 0.6799 0.7990 0.7816
H2 H 0.5571 0.7534 0.6688
H3 H 0.5918 0.7910 0.4393
H4 H 0.6704 0.7354 0.4496
H5 H 0.6773 1.0963 0.4936
H6 H 0.8037 1.0819 0.5851
H7 H 0.8565 0.9351 0.6391
H8 H 0.4822 0.6283 0.7405
H9 H 0.4333 0.4835 0.6869
H10 H 0.6239 0.4311 0.4336
H11 H 0.6673 0.5852 0.4765
H12 H 0.5121 0.2286 0.4673
H13 H 0.5494 0.3069 0.3712
H14 H 0.5889 0.2784 0.5178
H15 H 0.6040 0.5870 1.0723
H16 H 0.6858 0.5742 1.1457
H17 H 0.6292 0.6527 1.1996
H18 H 0.9045 0.7915 0.5729
H19 H 0.8851 0.6855 0.5910
H20 H 0.9112 0.7146 0.3499
H21 H 0.8475 0.7931 0.3464
H22 H 0.7851 0.6875 0.2207
H23 H 0.7871 0.5291 0.3292
H24 H 0.8747 0.5589 0.3120
H25 H 0.8349 0.5618 0.4649
loop_
_geom_bond_atom_site_label_1
_geom_bond_atom_site_label_2
_geom_bond_site_symmetry_1
_geom_bond_site_symmetry_2
N1 C1 1_555 1_555
C1 O1 1_555 1_555
C2 C1 1_555 1_555
C3 C2 1_555 1_555
C4 C3 1_555 1_555
C5 C6 1_555 1_555
C6 C7 1_555 1_555
C7 C8 1_555 1_555
C8 C9 1_555 1_555
C9 N1 1_555 1_555
C10 C4 1_555 1_555
C11 C3 1_555 1_555
C12 C11 1_555 1_555
C13 C12 1_555 1_555
C14 C13 1_555 1_555
C15 C14 1_555 1_555
C16 C11 1_555 1_555
O2 C14 1_555 1_555
C17 O2 1_555 1_555
O3 C2 1_555 1_555
C18 O3 1_555 1_555
O4 C18 1_555 1_555
C19 C18 1_555 1_555
C20 N1 1_555 1_555
C21 C20 1_555 1_555
N2 C21 1_555 1_555
C22 N2 1_555 1_555
C23 C5 1_555 1_555
F1 C23 1_555 1_555
F2 C23 1_555 1_555
F3 C23 1_555 1_555
H1 C2 1_555 1_555
H2 C3 1_555 1_555
H3 C4 1_555 1_555
H4 C4 1_555 1_555
H5 C6 1_555 1_555
H6 C7 1_555 1_555
H7 C8 1_555 1_555
H8 C12 1_555 1_555
H9 C13 1_555 1_555
H10 C15 1_555 1_555
H11 C16 1_555 1_555
H12 C17 1_555 1_555
H13 C17 1_555 1_555
H14 C17 1_555 1_555
H15 C19 1_555 1_555
H16 C19 1_555 1_555
H17 C19 1_555 1_555
H18 C20 1_555 1_555
H19 C20 1_555 1_555
H20 C21 1_555 1_555
H21 C21 1_555 1_555
H22 N2 1_555 1_555
H23 C22 1_555 1_555
H24 C22 1_555 1_555
H25 C22 1_555 1_555
C5 C10 1_555 1_555
C9 C10 1_555 1_555
C15 C16 1_555 1_555

#END
