
#######################################################################
#
#                 Cambridge Crystallographic Data Centre
#                                CCDC 
#
#######################################################################
#
# If this CIF has been generated from an entry in the Cambridge 
# Structural Database, then it will include bibliographic, chemical, 
# crystal, experimental, refinement or atomic coordinate data resulting 
# from the CCDC's data processing and validation procedures.
#
#######################################################################

data_YUCVAT
_chemical_formula_moiety         'C25 H31 N2 O5 1+,Cl1 1-,C2 H3 N1'
_chemical_name_systematic        
'3-Acetoxy-4-(4-methoxyphenyl)-N-(2-pyrrolidinylmethyl)-1,3,4,5-tetrahydro-7-methoxy-2H-benzazepin-2-one hydrochloride acetonitrile solvate'
_symmetry_cell_setting           orthorhombic
_symmetry_space_group_name_H-M   'P 21 21 21'
_symmetry_Int_Tables_number      19
_space_group_name_Hall           'P 2ac 2ab'
loop_
_symmetry_equiv_pos_site_id
_symmetry_equiv_pos_as_xyz
1 x,y,z
2 1/2-x,-y,1/2+z
3 1/2+x,1/2-y,-z
4 -x,1/2+y,1/2-z
_cell_length_a                   8.530(1)
_cell_length_b                   43.833(5)
_cell_length_c                   7.274(1)
_cell_angle_alpha                90
_cell_angle_beta                 90
_cell_angle_gamma                90
_cell_volume                     2719.72
_cell_formula_units_Z            4
loop_
_atom_site_label
_atom_site_type_symbol
_atom_site_fract_x
_atom_site_fract_y
_atom_site_fract_z
Cl1 Cl 0.9410(2) 0.01468(3) -0.0669(2)
N1 N 0.7662(3) 0.09414(6) 0.4193(4)
C1 C 0.8415(4) 0.12011(7) 0.3636(5)
O1 O 0.9369(3) 0.12032(5) 0.2387(4)
C2 C 0.7967(4) 0.14880(7) 0.4690(5)
C3 C 0.8801(4) 0.15179(7) 0.6563(5)
C4 C 0.8693(4) 0.12126(8) 0.7597(5)
C5 C 0.6122(5) 0.10421(8) 0.8922(5)
C6 C 0.4656(5) 0.09018(8) 0.8780(6)
C7 C 0.4212(4) 0.07780(8) 0.7144(7)
C8 C 0.5175(4) 0.07936(8) 0.5619(6)
C9 C 0.6645(4) 0.09325(7) 0.5756(5)
C10 C 0.7106(4) 0.10603(7) 0.7421(5)
C11 C 1.0474(4) 0.16350(7) 0.6419(5)
C12 C 1.0802(4) 0.19393(7) 0.6661(5)
C13 C 1.2314(5) 0.20542(7) 0.6544(6)
C14 C 1.3541(4) 0.18589(8) 0.6192(6)
C15 C 1.3251(4) 0.15552(8) 0.5943(7)
C16 C 1.1727(4) 0.14451(7) 0.6035(6)
O2 O 1.5089(3) 0.19442(6) 0.6060(5)
C17 C 1.5452(5) 0.2257(1) 0.6294(9)
O3 O 0.8322(3) 0.17537(5) 0.3626(4)
C18 C 0.7386(5) 0.17973(8) 0.2142(6)
O4 O 0.6360(4) 0.16241(6) 0.1727(5)
C19 C 0.7818(8) 0.2081(1) 0.1128(7)
C20 C 0.7946(5) 0.06555(8) 0.3202(5)
C21 C 0.8785(4) 0.04265(7) 0.4409(5)
N2 N 0.8852(4) 0.01222(6) 0.3517(5)
C22 C 1.0242(6) -0.00340(9) 0.4286(8)
C23 C 1.1389(6) 0.0214(1) 0.454(1)
C24 C 1.0492(5) 0.04973(9) 0.4895(7)
O5 O 0.3808(4) 0.08944(8) 1.0390(6)
C25 C 0.2263(7) 0.0844(2) 1.033(1)
H1 H 0.6864 0.1475 0.4898
H2 H 0.8257 0.1670 0.7243
H3 H 0.9466 0.1077 0.7109
H4 H 0.6438 0.1129 1.0065
H5 H 0.3228 0.0677 0.7050
H6 H 0.4841 0.0707 0.4480
H7 H 0.9957 0.2073 0.6911
H8 H 1.2498 0.2270 0.6698
H9 H 1.4086 0.1420 0.5685
H10 H 1.1554 0.1230 0.5845
H11 H 1.6559 0.2284 0.6157
H12 H 1.4926 0.2373 0.5387
H13 H 1.5145 0.2321 0.7480
H14 H 0.8700 0.2175 0.1743
H15 H 0.8134 0.2030 -0.0085
H16 H 0.6975 0.2216 0.1113
H17 H 0.6967 0.0575 0.2811
H18 H 0.8573 0.0699 0.2146
H19 H 0.8187 0.0427 0.5506
H20 H 1.0008 -0.0131 0.5416
H21 H 1.0638 -0.0183 0.3439
H22 H 1.1999 0.0240 0.3460
H23 H 1.2043 0.0174 0.5554
H24 H 1.0573 0.0553 0.6142
H25 H 1.0866 0.0657 0.4134
H26 H 0.1843 0.0833 1.1515
H27 H 0.1762 0.0984 0.9587
H28 H 0.2104 0.0637 0.9766
H29 H 0.8750 0.0156 0.2500
H30 H 0.7910 0.0000 0.3495
N3 N 0.3570(9) 0.2309(1) 0.164(1)
C26 C 0.3108(8) 0.2067(1) 0.1468(9)
C27 C 0.2500(8) 0.1764(2) 0.128(1)
H31 H 0.3172 0.1603 0.0634
H32 H 0.1462 0.1722 0.0764
H33 H 0.2441 0.1675 0.2512
loop_
_geom_bond_atom_site_label_1
_geom_bond_atom_site_label_2
_geom_bond_site_symmetry_1
_geom_bond_site_symmetry_2
N1 C1 1_555 1_555
C1 O1 1_555 1_555
C2 C1 1_555 1_555
C3 C2 1_555 1_555
C4 C3 1_555 1_555
C5 C6 1_555 1_555
C6 C7 1_555 1_555
C7 C8 1_555 1_555
C8 C9 1_555 1_555
C9 N1 1_555 1_555
C10 C4 1_555 1_555
C11 C3 1_555 1_555
C12 C11 1_555 1_555
C13 C12 1_555 1_555
C14 C13 1_555 1_555
C15 C14 1_555 1_555
C16 C11 1_555 1_555
O2 C14 1_555 1_555
C17 O2 1_555 1_555
O3 C2 1_555 1_555
C18 O3 1_555 1_555
O4 C18 1_555 1_555
C19 C18 1_555 1_555
C20 N1 1_555 1_555
C21 C20 1_555 1_555
N2 C21 1_555 1_555
C22 N2 1_555 1_555
C23 C22 1_555 1_555
C24 C21 1_555 1_555
O5 C6 1_555 1_555
C25 O5 1_555 1_555
H1 C2 1_555 1_555
H2 C3 1_555 1_555
H3 C4 1_555 1_555
H4 C5 1_555 1_555
H5 C7 1_555 1_555
H6 C8 1_555 1_555
H7 C12 1_555 1_555
H8 C13 1_555 1_555
H9 C15 1_555 1_555
H10 C16 1_555 1_555
H11 C17 1_555 1_555
H12 C17 1_555 1_555
H13 C17 1_555 1_555
H14 C19 1_555 1_555
H15 C19 1_555 1_555
H16 C19 1_555 1_555
H17 C20 1_555 1_555
H18 C20 1_555 1_555
H19 C21 1_555 1_555
H20 C22 1_555 1_555
H21 C22 1_555 1_555
H22 C23 1_555 1_555
H23 C23 1_555 1_555
H24 C24 1_555 1_555
H25 C24 1_555 1_555
H26 C25 1_555 1_555
H27 C25 1_555 1_555
H28 C25 1_555 1_555
H29 N2 1_555 1_555
H30 N2 1_555 1_555
N3 C26 1_555 1_555
C26 C27 1_555 1_555
C27 H31 1_555 1_555
H32 C27 1_555 1_555
H33 C27 1_555 1_555
C5 C10 1_555 1_555
C9 C10 1_555 1_555
C15 C16 1_555 1_555
C23 C24 1_555 1_555

#END
