
#######################################################################
#
#                 Cambridge Crystallographic Data Centre
#                                CCDC 
#
#######################################################################
#
# If this CIF has been generated from an entry in the Cambridge 
# Structural Database, then it will include bibliographic, chemical, 
# crystal, experimental, refinement or atomic coordinate data resulting 
# from the CCDC's data processing and validation procedures.
#
#######################################################################

data_YUDJIR
_chemical_formula_moiety         'C18 H17 N1 O1'
_chemical_name_systematic        
(Z)-N-(3-Phenyl-1H-isochromen-1-ylidene)propan-1-amine
_symmetry_cell_setting           orthorhombic
_symmetry_space_group_name_H-M   'P 21 21 21'
_symmetry_Int_Tables_number      19
_space_group_name_Hall           'P 2ac 2ab'
loop_
_symmetry_equiv_pos_site_id
_symmetry_equiv_pos_as_xyz
1 x,y,z
2 1/2-x,-y,1/2+z
3 -x,1/2+y,1/2-z
4 1/2+x,1/2-y,-z
_cell_length_a                   4.8575(13)
_cell_length_b                   11.387(3)
_cell_length_c                   26.552(7)
_cell_angle_alpha                90
_cell_angle_beta                 90
_cell_angle_gamma                90
_cell_volume                     1468.65
_exptl_crystal_colour            colorless
_exptl_crystal_description       prismatic
_cell_formula_units_Z            4
loop_
_atom_site_label
_atom_site_type_symbol
_atom_site_fract_x
_atom_site_fract_y
_atom_site_fract_z
N1 N -0.0830(8) 0.6830(2) 0.14248(12)
O1 O 0.1549(5) 0.51064(18) 0.13423(8)
C1 C -0.0363(8) 0.5809(3) 0.15818(14)
C2 C 0.2132(8) 0.3974(3) 0.14970(14)
C3 C 0.1005(8) 0.3555(3) 0.19146(14)
H1 H 0.1528 0.2816 0.2029
C4 C -0.0989(8) 0.4206(3) 0.21942(13)
C5 C -0.1748(8) 0.5315(3) 0.20278(13)
C6 C -0.3766(9) 0.5946(3) 0.22744(15)
H2 H -0.4274 0.6684 0.2156
C7 C -0.5034(9) 0.5489(4) 0.26963(16)
H3 H -0.6414 0.5910 0.2858
C8 C -0.4241(11) 0.4399(4) 0.28766(15)
H4 H -0.5060 0.4094 0.3165
C9 C -0.2246(9) 0.3771(3) 0.26295(15)
H5 H -0.1719 0.3041 0.2754
C10 C 0.4109(8) 0.3419(3) 0.11688(13)
C11 C 0.5761(9) 0.4045(3) 0.08372(14)
H6 H 0.5593 0.4858 0.0824
C12 C 0.7634(9) 0.3501(4) 0.05281(15)
H7 H 0.8704 0.3943 0.0308
C13 C 0.7920(10) 0.2308(4) 0.05454(17)
H8 H 0.9211 0.1939 0.0341
C14 C 0.6310(11) 0.1652(4) 0.08631(18)
H9 H 0.6499 0.0840 0.0871
C15 C 0.4421(9) 0.2192(3) 0.11698(15)
H10 H 0.3330 0.1738 0.1382
C16 C 0.0669(11) 0.7224(3) 0.09757(16)
H11 H 0.0332 0.6687 0.0699
H12 H 0.2631 0.7233 0.1044
C17 C -0.0274(11) 0.8426(4) 0.08362(18)
H13 H 0.0176 0.8963 0.1108
H14 H -0.2260 0.8420 0.0798
C18 C 0.0996(15) 0.8865(4) 0.03595(19)
H15 H 0.2941 0.8963 0.0407
H16 H 0.0186 0.9606 0.0271
H17 H 0.0675 0.8308 0.0094
loop_
_geom_bond_atom_site_label_1
_geom_bond_atom_site_label_2
_geom_bond_site_symmetry_1
_geom_bond_site_symmetry_2
N1 C1 1_555 1_555
O1 C1 1_555 1_555
C1 C5 1_555 1_555
C2 O1 1_555 1_555
C3 C2 1_555 1_555
H1 C3 1_555 1_555
C4 C3 1_555 1_555
C5 C4 1_555 1_555
C6 C5 1_555 1_555
H2 C6 1_555 1_555
C7 C6 1_555 1_555
H3 C7 1_555 1_555
C8 C7 1_555 1_555
H4 C8 1_555 1_555
C9 C4 1_555 1_555
H5 C9 1_555 1_555
C10 C2 1_555 1_555
C11 C10 1_555 1_555
H6 C11 1_555 1_555
C12 C11 1_555 1_555
H7 C12 1_555 1_555
C13 C12 1_555 1_555
H8 C13 1_555 1_555
C14 C13 1_555 1_555
H9 C14 1_555 1_555
C15 C10 1_555 1_555
H10 C15 1_555 1_555
C16 N1 1_555 1_555
H11 C16 1_555 1_555
H12 C16 1_555 1_555
C17 C16 1_555 1_555
H13 C17 1_555 1_555
H14 C17 1_555 1_555
C18 C17 1_555 1_555
H15 C18 1_555 1_555
H16 C18 1_555 1_555
H17 C18 1_555 1_555
C8 C9 1_555 1_555
C14 C15 1_555 1_555

#END
