
#######################################################################
#
#                 Cambridge Crystallographic Data Centre
#                                CCDC 
#
#######################################################################
#
# If this CIF has been generated from an entry in the Cambridge 
# Structural Database, then it will include bibliographic, chemical, 
# crystal, experimental, refinement or atomic coordinate data resulting 
# from the CCDC's data processing and validation procedures.
#
#######################################################################

data_YUDKEO
_chemical_formula_moiety         'C29 H32 N2 O5 S2'
_chemical_name_systematic        
'Benzyl 3-(((4-methylphenyl)sulfonyl)carbohydrazonoyl)-2-(2-oxo-2-(phenylsulfanyl)ethyl)hexanoate'
_symmetry_cell_setting           orthorhombic
_symmetry_space_group_name_H-M   'P 21 21 21'
_symmetry_Int_Tables_number      19
_space_group_name_Hall           'P 2ac 2ab'
loop_
_symmetry_equiv_pos_site_id
_symmetry_equiv_pos_as_xyz
1 x,y,z
2 1/2-x,-y,1/2+z
3 -x,1/2+y,1/2-z
4 1/2+x,1/2-y,-z
_cell_length_a                   5.455(2)
_cell_length_b                   19.572(8)
_cell_length_c                   26.856(11)
_cell_angle_alpha                90
_cell_angle_beta                 90
_cell_angle_gamma                90
_cell_volume                     2867.29
_exptl_crystal_colour            colorless
_exptl_crystal_description       prism
_cell_formula_units_Z            4
loop_
_atom_site_label
_atom_site_type_symbol
_atom_site_fract_x
_atom_site_fract_y
_atom_site_fract_z
S1 S 0.6807(2) 0.19373(6) 0.11310(4)
S2 S 0.4703(2) 0.18471(6) 0.39981(4)
O1 O 0.5959(6) 0.13613(12) 0.08551(9)
O2 O 0.9244(5) 0.19554(15) 0.13223(9)
O3 O 0.3127(6) 0.41747(15) 0.34621(10)
O4 O -0.0733(5) 0.40421(14) 0.32007(10)
O5 O 0.0796(7) 0.26033(16) 0.38622(11)
N1 N 0.4946(8) 0.1970(2) 0.16076(13)
N2 N 0.5200(6) 0.25581(16) 0.19052(11)
C1 C 0.6378(8) 0.2681(2) 0.07845(13)
C2 C 0.8050(8) 0.3204(2) 0.08046(14)
H1 H 0.9396 0.3170 0.1016
C3 C 0.7751(9) 0.3780(2) 0.05146(17)
H2 H 0.8916 0.4126 0.0529
C4 C 0.5767(10) 0.3850(2) 0.02058(15)
C5 C 0.4062(8) 0.3335(2) 0.01993(14)
H3 H 0.2672 0.3380 0.0001
C6 C 0.4377(8) 0.2751(2) 0.04829(13)
H4 H 0.3216 0.2404 0.0468
C7 C 0.5484(10) 0.4476(2) -0.01293(16)
H5 H 0.3816 0.4509 -0.0241
H6 H 0.6549 0.4432 -0.0412
H7 H 0.5910 0.4880 0.0054
C8 C 0.3289(8) 0.27517(19) 0.21260(13)
H8 H 0.1854 0.2499 0.2092
C9 C 0.3282(8) 0.33819(18) 0.24433(13)
H9 H 0.4985 0.3522 0.2498
C10 C 0.2133(7) 0.32107(18) 0.29503(12)
H10 H 0.0594 0.2963 0.2898
C11 C 0.3913(8) 0.27571(19) 0.32452(13)
H11 H 0.4477 0.2389 0.3032
H12 H 0.5331 0.3026 0.3341
C12 C 0.2768(8) 0.2458(2) 0.37047(14)
C13 C 0.2888(9) 0.1564(2) 0.45029(16)
C14 C 0.3496(9) 0.1732(2) 0.49796(18)
H13 H 0.4835 0.2014 0.5041
C15 C 0.2117(11) 0.1482(3) 0.53715(18)
H14 H 0.2535 0.1595 0.5697
C16 C 0.0168(12) 0.1075(3) 0.52839(19)
H15 H -0.0738 0.0905 0.5550
C17 C -0.0483(10) 0.0911(2) 0.4810(2)
H16 H -0.1856 0.0640 0.4753
C18 C 0.0896(10) 0.1146(2) 0.44130(16)
H17 H 0.0486 0.1024 0.4089
C19 C 0.1613(9) 0.3863(2) 0.32375(14)
C20 C -0.1335(9) 0.4724(2) 0.33966(16)
H18 H -0.0244 0.4837 0.3670
H19 H -0.3004 0.4728 0.3521
C21 C -0.1065(9) 0.5243(2) 0.29871(18)
C22 C 0.0934(10) 0.5664(2) 0.29635(18)
H20 H 0.2133 0.5640 0.3209
C23 C 0.1183(10) 0.6124(2) 0.2579(2)
H21 H 0.2528 0.6416 0.2574
C24 C -0.0504(12) 0.6158(2) 0.2208(2)
H22 H -0.0300 0.6462 0.1945
C25 C -0.2486(11) 0.5743(3) 0.2227(2)
H23 H -0.3659 0.5764 0.1976
C26 C -0.2779(10) 0.5285(3) 0.2619(2)
H24 H -0.4157 0.5006 0.2630
C27 C 0.1969(8) 0.3953(2) 0.21527(14)
H25 H 0.0318 0.3805 0.2073
H26 H 0.1842 0.4354 0.2364
C28 C 0.3285(10) 0.4150(2) 0.16702(13)
H27 H 0.4990 0.4246 0.1746
H28 H 0.3246 0.3763 0.1445
C29 C 0.2208(11) 0.4756(2) 0.14107(16)
H29 H 0.0524 0.4666 0.1331
H30 H 0.3106 0.4844 0.1110
H31 H 0.2303 0.5148 0.1625
H32 H 0.366(5) 0.1886(17) 0.1533(11)
loop_
_geom_bond_atom_site_label_1
_geom_bond_atom_site_label_2
_geom_bond_site_symmetry_1
_geom_bond_site_symmetry_2
S1 O1 1_555 1_555
S2 C12 1_555 1_555
O2 S1 1_555 1_555
O3 C19 1_555 1_555
O4 C19 1_555 1_555
O5 C12 1_555 1_555
N1 S1 1_555 1_555
N2 N1 1_555 1_555
C1 S1 1_555 1_555
C2 C1 1_555 1_555
H1 C2 1_555 1_555
C3 C2 1_555 1_555
H2 C3 1_555 1_555
C4 C3 1_555 1_555
C5 C4 1_555 1_555
H3 C5 1_555 1_555
C6 C1 1_555 1_555
H4 C6 1_555 1_555
C7 C4 1_555 1_555
H5 C7 1_555 1_555
H6 C7 1_555 1_555
H7 C7 1_555 1_555
C8 N2 1_555 1_555
H8 C8 1_555 1_555
C9 C8 1_555 1_555
H9 C9 1_555 1_555
C10 C9 1_555 1_555
H10 C10 1_555 1_555
C11 C10 1_555 1_555
H11 C11 1_555 1_555
H12 C11 1_555 1_555
C12 C11 1_555 1_555
C13 S2 1_555 1_555
C14 C13 1_555 1_555
H13 C14 1_555 1_555
C15 C14 1_555 1_555
H14 C15 1_555 1_555
C16 C15 1_555 1_555
H15 C16 1_555 1_555
C17 C16 1_555 1_555
H16 C17 1_555 1_555
C18 C13 1_555 1_555
H17 C18 1_555 1_555
C19 C10 1_555 1_555
C20 O4 1_555 1_555
H18 C20 1_555 1_555
H19 C20 1_555 1_555
C21 C20 1_555 1_555
C22 C21 1_555 1_555
H20 C22 1_555 1_555
C23 C22 1_555 1_555
H21 C23 1_555 1_555
C24 C23 1_555 1_555
H22 C24 1_555 1_555
C25 C24 1_555 1_555
H23 C25 1_555 1_555
C26 C21 1_555 1_555
H24 C26 1_555 1_555
C27 C9 1_555 1_555
H25 C27 1_555 1_555
H26 C27 1_555 1_555
C28 C27 1_555 1_555
H27 C28 1_555 1_555
H28 C28 1_555 1_555
C29 C28 1_555 1_555
H29 C29 1_555 1_555
H30 C29 1_555 1_555
H31 C29 1_555 1_555
H32 N1 1_555 1_555
C5 C6 1_555 1_555
C17 C18 1_555 1_555
C25 C26 1_555 1_555

#END
