
#######################################################################
#
#                 Cambridge Crystallographic Data Centre
#                                CCDC 
#
#######################################################################
#
# If this CIF has been generated from an entry in the Cambridge 
# Structural Database, then it will include bibliographic, chemical, 
# crystal, experimental, refinement or atomic coordinate data resulting 
# from the CCDC's data processing and validation procedures.
#
#######################################################################

data_YUDNUH
_chemical_formula_moiety         'C7 H11 N1 O7 P2,H2 O1'
_chemical_name_systematic        
'(1-Hydroxy-1-phosphono-2-(3-pyridyl)ethyl)phosphonic acid monohydrate'
_symmetry_cell_setting           monoclinic
_symmetry_space_group_name_H-M   'P 21/n'
_symmetry_Int_Tables_number      14
_space_group_name_Hall           '-P 2yn'
loop_
_symmetry_equiv_pos_site_id
_symmetry_equiv_pos_as_xyz
1 x,y,z
2 1/2-x,1/2+y,1/2-z
3 -x,-y,-z
4 1/2+x,1/2-y,1/2+z
_cell_length_a                   7.0144(14)
_cell_length_b                   10.541(2)
_cell_length_c                   14.986(3)
_cell_angle_alpha                90
_cell_angle_beta                 100.65(3)
_cell_angle_gamma                90
_cell_volume                     1088.96
_cell_formula_units_Z            4
loop_
_atom_site_label
_atom_site_type_symbol
_atom_site_fract_x
_atom_site_fract_y
_atom_site_fract_z
O1 O 0.8355(4) 0.7543(3) 0.3213(3)
H1 H 0.733(8) 0.783(5) 0.311(4)
H2 H 0.909(8) 0.801(5) 0.346(4)
P1 P -0.00116(9) 0.49755(6) 0.19639(4)
P2 P 0.34831(9) 0.55271(6) 0.10647(4)
O2 O 0.0346(3) 0.35767(17) 0.19968(13)
O3 O 0.1840(3) 0.71165(17) 0.20891(13)
H3 H 0.283(5) 0.754(3) 0.229(2)
O4 O 0.5258(3) 0.64283(19) 0.12581(14)
O5 O -0.0772(3) 0.53633(19) 0.28337(13)
O6 O 0.3958(3) 0.41808(17) 0.09735(13)
O7 O 0.2097(3) 0.6099(2) 0.02465(13)
C1 C 0.2311(3) 0.5812(2) 0.20466(16)
N1 N 0.3377(3) 0.6732(2) 0.41615(16)
C2 C 0.3237(4) 0.5564(2) 0.37956(17)
O8 O -0.1396(3) 0.54116(18) 0.11346(12)
C3 C 0.3797(4) 0.5378(3) 0.28911(17)
H4 H 0.4056 0.4483 0.2822
H5 H 0.5003 0.5830 0.2892
C4 C 0.2704(4) 0.4592(3) 0.43120(19)
H6 H 0.2606 0.3769 0.4085
C5 C 0.2314(4) 0.4836(3) 0.51640(19)
H7 H 0.1936 0.4178 0.5506
C6 C 0.2481(4) 0.6046(3) 0.55099(19)
H8 H 0.2230 0.6215 0.6086
C7 C 0.3022(5) 0.6989(3) 0.49919(19)
H9 H 0.3146 0.7815 0.5213
H10 H 0.376(5) 0.741(3) 0.385(2)
H11 H 0.615(5) 0.607(3) 0.120(2)
H12 H -0.100(5) 0.610(3) 0.287(2)
H13 H 0.195(5) 0.567(3) -0.013(3)
loop_
_geom_bond_atom_site_label_1
_geom_bond_atom_site_label_2
_geom_bond_site_symmetry_1
_geom_bond_site_symmetry_2
O1 H1 1_555 1_555
H2 O1 1_555 1_555
P1 O2 1_555 1_555
P2 O4 1_555 1_555
O3 H3 1_555 1_555
O4 H11 1_555 1_555
O5 P1 1_555 1_555
O6 P2 1_555 1_555
O7 P2 1_555 1_555
C1 P1 1_555 1_555
N1 C2 1_555 1_555
C2 C3 1_555 1_555
O8 P1 1_555 1_555
C3 C1 1_555 1_555
H4 C3 1_555 1_555
H5 C3 1_555 1_555
C4 C2 1_555 1_555
H6 C4 1_555 1_555
C5 C4 1_555 1_555
H7 C5 1_555 1_555
C6 C5 1_555 1_555
H8 C6 1_555 1_555
C7 N1 1_555 1_555
H9 C7 1_555 1_555
H10 N1 1_555 1_555
H12 O5 1_555 1_555
H13 O7 1_555 1_555
P2 C1 1_555 1_555
O3 C1 1_555 1_555
C6 C7 1_555 1_555

#END
