
#######################################################################
#
#                 Cambridge Crystallographic Data Centre
#                                CCDC 
#
#######################################################################
#
# If this CIF has been generated from an entry in the Cambridge 
# Structural Database, then it will include bibliographic, chemical, 
# crystal, experimental, refinement or atomic coordinate data resulting 
# from the CCDC's data processing and validation procedures.
#
#######################################################################

data_YUDPUK
_chemical_formula_moiety         'C19 H17 Br1 N2 O3'
_chemical_name_systematic        
'ethyl 1-(4-bromophenyl)-6-oxo-4-phenyl-1,4,5,6-tetrahydropyridazine-3-carboxylate'
_symmetry_cell_setting           monoclinic
_symmetry_space_group_name_H-M   'P 21'
_symmetry_Int_Tables_number      4
_space_group_name_Hall           'P 2yb'
loop_
_symmetry_equiv_pos_site_id
_symmetry_equiv_pos_as_xyz
1 x,y,z
2 -x,1/2+y,-z
_cell_length_a                   10.3611(12)
_cell_length_b                   6.3270(8)
_cell_length_c                   14.2252(17)
_cell_angle_alpha                90
_cell_angle_beta                 110.3164(17)
_cell_angle_gamma                90
_cell_volume                     874.515
_exptl_crystal_colour            colorless
_exptl_crystal_description       block
_cell_formula_units_Z            2
loop_
_atom_site_label
_atom_site_type_symbol
_atom_site_fract_x
_atom_site_fract_y
_atom_site_fract_z
Br1 Br 0.63973(2) 1.56833(5) 0.13506(2)
C1 C 0.5379(2) 1.3876(4) 0.1898(2)
C2 C 0.5048(2) 1.4554(4) 0.2710(2)
H1 H 0.5316 1.5921 0.2985
C3 C 0.4315(2) 1.3206(4) 0.3124(2)
H2 H 0.4083 1.3654 0.3683
C4 C 0.3927(2) 1.1216(4) 0.27145(19)
C5 C 0.4252(2) 1.0564(6) 0.18869(17)
H3 H 0.3971 0.9210 0.1601
C6 C 0.4987(2) 1.1897(5) 0.1482(2)
H4 H 0.5219 1.1453 0.0923
C7 C 0.3355(2) 0.9676(5) 0.4143(2)
C8 C 0.2796(2) 0.7731(4) 0.44767(19)
H5 H 0.2545 0.8100 0.5067
H6 H 0.3537 0.6658 0.4694
C9 C 0.1537(2) 0.6736(4) 0.36784(19)
H7 H 0.1486 0.5215 0.3853
C10 C 0.0195(2) 0.7811(4) 0.36269(19)
C11 C -0.0643(2) 0.6881(4) 0.40883(19)
H8 H -0.0394 0.5560 0.4419
C12 C -0.1851(2) 0.7883(5) 0.4067(2)
H9 H -0.2424 0.7241 0.4381
C13 C -0.2220(2) 0.9819(5) 0.3587(2)
H10 H -0.3047 1.0493 0.3570
C14 C -0.1379(2) 1.0767(6) 0.31332(18)
H11 H -0.1625 1.2095 0.2808
C15 C -0.0172(2) 0.9764(4) 0.3156(2)
H12 H 0.0406 1.0415 0.2849
C16 C 0.1766(2) 0.6844(4) 0.26980(19)
C17 C 0.1115(2) 0.5197(4) 0.1919(2)
C18 C 0.0951(3) 0.3750(5) 0.0350(2)
H13 H -0.0067 0.3762 0.0066
H14 H 0.1257 0.2348 0.0654
C19 C 0.1544(3) 0.4192(5) -0.0456(2)
H15 H 0.1174 0.5531 -0.0787
H16 H 0.1295 0.3046 -0.0950
H17 H 0.2548 0.4289 -0.0157
N1 N 0.31816(19) 0.9771(4) 0.31274(16)
N2 N 0.2506(2) 0.8217(4) 0.24505(16)
O1 O 0.39983(16) 1.1016(4) 0.47317(13)
O2 O 0.0384(2) 0.3835(3) 0.20489(16)
O3 O 0.14470(16) 0.5408(4) 0.10971(13)
loop_
_geom_bond_atom_site_label_1
_geom_bond_atom_site_label_2
_geom_bond_site_symmetry_1
_geom_bond_site_symmetry_2
Br1 C1 1_555 1_555
C1 C2 1_555 1_555
C2 H1 1_555 1_555
C3 C2 1_555 1_555
H2 C3 1_555 1_555
C4 C3 1_555 1_555
C5 C4 1_555 1_555
H3 C5 1_555 1_555
C6 C1 1_555 1_555
H4 C6 1_555 1_555
C7 C8 1_555 1_555
C8 H5 1_555 1_555
H6 C8 1_555 1_555
C9 C8 1_555 1_555
H7 C9 1_555 1_555
C10 C9 1_555 1_555
C11 C10 1_555 1_555
H8 C11 1_555 1_555
C12 C11 1_555 1_555
H9 C12 1_555 1_555
C13 C12 1_555 1_555
H10 C13 1_555 1_555
C14 C13 1_555 1_555
H11 C14 1_555 1_555
C15 C10 1_555 1_555
H12 C15 1_555 1_555
C16 C9 1_555 1_555
C17 C16 1_555 1_555
C18 H13 1_555 1_555
H14 C18 1_555 1_555
C19 C18 1_555 1_555
H15 C19 1_555 1_555
H16 C19 1_555 1_555
H17 C19 1_555 1_555
N1 C4 1_555 1_555
N2 C16 1_555 1_555
O1 C7 1_555 1_555
O2 C17 1_555 1_555
O3 C17 1_555 1_555
C5 C6 1_555 1_555
C7 N1 1_555 1_555
C14 C15 1_555 1_555
C18 O3 1_555 1_555
N1 N2 1_555 1_555

#END
