
#######################################################################
#
#                 Cambridge Crystallographic Data Centre
#                                CCDC 
#
#######################################################################
#
# If this CIF has been generated from an entry in the Cambridge 
# Structural Database, then it will include bibliographic, chemical, 
# crystal, experimental, refinement or atomic coordinate data resulting 
# from the CCDC's data processing and validation procedures.
#
#######################################################################

data_YUDROG
_chemical_formula_moiety         'C22 H17 Br1 N2 O1'
_chemical_name_systematic        
"5-bromo-1-methyl-6'-phenyl-6'H-spiro[indole-3,5'-indolizin]-2(1H)-one unknown solvate"
_symmetry_cell_setting           monoclinic
_symmetry_space_group_name_H-M   'C 2'
_symmetry_Int_Tables_number      5
_space_group_name_Hall           'C 2y'
loop_
_symmetry_equiv_pos_site_id
_symmetry_equiv_pos_as_xyz
1 x,y,z
2 -x,y,-z
3 1/2+x,1/2+y,z
4 1/2-x,1/2+y,-z
_cell_length_a                   19.9653(5)
_cell_length_b                   11.0573(5)
_cell_length_c                   19.3517(6)
_cell_angle_alpha                90
_cell_angle_beta                 111.054(3)
_cell_angle_gamma                90
_cell_volume                     3986.93
_cell_formula_units_Z            8
loop_
_atom_site_label
_atom_site_type_symbol
_atom_site_fract_x
_atom_site_fract_y
_atom_site_fract_z
Br1 Br 0.08312(2) 0.31339(5) 0.08412(3)
O1 O 0.48515(16) 0.2353(3) 0.15553(17)
N1 N 0.36356(18) 0.3686(3) 0.04522(18)
N2 N 0.40195(19) 0.2308(3) 0.21271(17)
C1 C 0.4134(2) -0.0316(4) 0.0985(3)
H1 H 0.4524 -0.0018 0.0883
C2 C 0.3480(2) 0.0306(4) 0.0730(2)
C3 C 0.2911(2) -0.0159(5) 0.0895(3)
H2 H 0.2472 0.0243 0.0731
C4 C 0.2977(2) 0.2696(3) 0.1161(2)
C5 C 0.35480(19) 0.2591(4) 0.0831(2)
C6 C 0.3645(3) -0.1807(5) 0.1552(3)
H3 H 0.3704 -0.2507 0.1835
C7 C 0.2129(3) 0.2565(4) 0.2014(2)
H4 H 0.1835 0.2506 0.2293
C8 C 0.3912(3) 0.5583(5) 0.0315(3)
H5 H 0.3966 0.6417 0.0369
C9 C 0.3640(2) 0.4836(4) 0.0708(3)
H6 H 0.3483 0.5070 0.1086
C10 C 0.2245(2) 0.2901(4) 0.0826(2)
H7 H 0.2039 0.3074 0.0323
C11 C 0.4048(2) 0.2557(5) -0.0393(2)
H8 H 0.4286 0.2552 -0.0728
C12 C 0.4096(2) 0.4868(5) -0.0186(3)
H9 H 0.4292 0.5143 -0.0526
C13 C 0.3280(2) 0.2456(4) 0.1918(2)
C14 C 0.2863(3) 0.2376(5) 0.2351(2)
H10 H 0.3068 0.2201 0.2853
C15 C 0.1832(2) 0.2841(4) 0.1267(2)
C16 C 0.3397(2) 0.1479(4) 0.0297(2)
H11 H 0.2890 0.1531 -0.0023
C17 C 0.4201(3) -0.1362(5) 0.1384(3)
H12 H 0.4636 -0.1774 0.1542
C18 C 0.2987(3) -0.1213(5) 0.1301(3)
H13 H 0.2600 -0.1523 0.1405
C19 C 0.3824(2) 0.1522(5) -0.0210(2)
H14 H 0.3931 0.0803 -0.0398
C20 C 0.4508(3) 0.2233(6) 0.2897(2)
H15 H 0.4995 0.2271 0.2916
H16 H 0.4432 0.1484 0.3108
H17 H 0.4418 0.2896 0.3172
C21 C 0.4235(2) 0.2400(4) 0.1534(2)
C22 C 0.3935(2) 0.3683(5) -0.0088(2)
Br2 Br 0.02121(3) 0.40992(6) 0.40599(4)
N3 N 0.2531(2) 0.5272(3) 0.28608(18)
O2 O 0.37505(18) 0.4944(3) 0.34144(19)
N4 N 0.32662(18) 0.3603(3) 0.44801(18)
C23 C 0.21351(19) 0.4668(4) 0.3778(2)
C24 C 0.0917(2) 0.4488(4) 0.3650(3)
C25 C 0.3971(3) 0.5722(5) 0.5152(3)
H18 H 0.4225 0.6425 0.5346
C26 C 0.1927(2) 0.5061(4) 0.3050(2)
C27 C 0.3439(3) 0.7576(5) 0.3968(3)
H19 H 0.3897 0.7265 0.4064
C28 C 0.3185(2) 0.5818(4) 0.4668(2)
H20 H 0.2912 0.5768 0.4998
C29 C 0.1206(3) 0.5181(5) 0.2614(2)
H21 H 0.1065 0.5452 0.2128
C30 C 0.1638(2) 0.4372(4) 0.4093(2)
H22 H 0.1779 0.4106 0.4581
C31 C 0.3590(3) 0.1671(5) 0.4609(3)
H23 H 0.3582 0.0835 0.4553
C32 C 0.2521(3) 0.5731(5) 0.2159(3)
H24 H 0.3002 0.5750 0.2158
H25 H 0.2325 0.6533 0.2084
H26 H 0.2231 0.5213 0.1767
C33 C 0.0708(2) 0.4887(5) 0.2923(3)
H27 H 0.0222 0.4956 0.2641
C34 C 0.2982(2) 0.7005(4) 0.4252(2)
C35 C 0.2312(3) 0.7513(5) 0.4126(3)
H28 H 0.2000 0.7148 0.4323
C36 C 0.3145(2) 0.4979(4) 0.3433(2)
C37 C 0.3050(2) 0.2461(4) 0.4238(2)
H29 H 0.2611 0.2251 0.3880
C38 C 0.4159(3) 0.2362(5) 0.5091(3)
H30 H 0.4593 0.2061 0.5415
C39 C 0.2942(2) 0.4725(4) 0.4117(2)
C40 C 0.2555(4) 0.9110(6) 0.3413(4)
H31 H 0.2412 0.9810 0.3132
C41 C 0.4307(2) 0.4670(6) 0.5306(3)
H32 H 0.4784 0.4652 0.5625
C42 C 0.2104(3) 0.8558(5) 0.3710(4)
H33 H 0.1654 0.8889 0.3631
C43 C 0.3223(3) 0.8616(6) 0.3537(4)
H34 H 0.3530 0.8978 0.3333
C44 C 0.3961(2) 0.3559(5) 0.5000(2)
loop_
_geom_bond_atom_site_label_1
_geom_bond_atom_site_label_2
_geom_bond_site_symmetry_1
_geom_bond_site_symmetry_2
Br1 C15 1_555 1_555
O1 C21 1_555 1_555
N1 C5 1_555 1_555
N2 C13 1_555 1_555
C1 H1 1_555 1_555
C2 C1 1_555 1_555
C3 C2 1_555 1_555
H2 C3 1_555 1_555
C4 C5 1_555 1_555
C5 C16 1_555 1_555
C6 H3 1_555 1_555
C7 H4 1_555 1_555
C8 H5 1_555 1_555
C9 N1 1_555 1_555
H6 C9 1_555 1_555
C10 C4 1_555 1_555
H7 C10 1_555 1_555
C11 H8 1_555 1_555
C12 C8 1_555 1_555
H9 C12 1_555 1_555
C13 C4 1_555 1_555
C14 C7 1_555 1_555
H10 C14 1_555 1_555
C15 C7 1_555 1_555
C16 C2 1_555 1_555
H11 C16 1_555 1_555
C17 C1 1_555 1_555
H12 C17 1_555 1_555
C18 C3 1_555 1_555
H13 C18 1_555 1_555
C19 C11 1_555 1_555
H14 C19 1_555 1_555
C20 N2 1_555 1_555
H15 C20 1_555 1_555
H16 C20 1_555 1_555
H17 C20 1_555 1_555
C21 N2 1_555 1_555
C22 N1 1_555 1_555
Br2 C24 1_555 1_555
N3 C26 1_555 1_555
O2 C36 1_555 1_555
N4 C37 1_555 1_555
C23 C26 1_555 1_555
C24 C30 1_555 1_555
C25 H18 1_555 1_555
C26 C29 1_555 1_555
C27 H19 1_555 1_555
C28 C25 1_555 1_555
H20 C28 1_555 1_555
C29 H21 1_555 1_555
C30 C23 1_555 1_555
H22 C30 1_555 1_555
C31 H23 1_555 1_555
C32 N3 1_555 1_555
H24 C32 1_555 1_555
H25 C32 1_555 1_555
H26 C32 1_555 1_555
C33 C24 1_555 1_555
H27 C33 1_555 1_555
C34 C27 1_555 1_555
C35 C34 1_555 1_555
H28 C35 1_555 1_555
C36 N3 1_555 1_555
C37 C31 1_555 1_555
H29 C37 1_555 1_555
C38 C31 1_555 1_555
H30 C38 1_555 1_555
C39 N4 1_555 1_555
C40 H31 1_555 1_555
C41 C25 1_555 1_555
H32 C41 1_555 1_555
C42 C35 1_555 1_555
H33 C42 1_555 1_555
C43 C27 1_555 1_555
H34 C43 1_555 1_555
C44 N4 1_555 1_555
C5 C21 1_555 1_555
C6 C17 1_555 1_555
C6 C18 1_555 1_555
C8 C9 1_555 1_555
C10 C15 1_555 1_555
C11 C22 1_555 1_555
C12 C22 1_555 1_555
C13 C14 1_555 1_555
C16 C19 1_555 1_555
C23 C39 1_555 1_555
C28 C34 1_555 1_555
C28 C39 1_555 1_555
C29 C33 1_555 1_555
C36 C39 1_555 1_555
C38 C44 1_555 1_555
C40 C42 1_555 1_555
C40 C43 1_555 1_555
C41 C44 1_555 1_555

#END
