
#######################################################################
#
#                 Cambridge Crystallographic Data Centre
#                                CCDC 
#
#######################################################################
#
# If this CIF has been generated from an entry in the Cambridge 
# Structural Database, then it will include bibliographic, chemical, 
# crystal, experimental, refinement or atomic coordinate data resulting 
# from the CCDC's data processing and validation procedures.
#
#######################################################################

data_YUDYAZ
_chemical_formula_moiety         'C24 H23 Br1 F3 N1 O3'
_chemical_name_systematic        
't-Butyl 3-benzyl-4-(4-bromophenyl)-2-oxo-6-(trifluoromethyl)-3,4-dihydropyridine-1(2H)-carboxylate'
_symmetry_cell_setting           tetragonal
_symmetry_space_group_name_H-M   'P 41'
_symmetry_Int_Tables_number      76
_space_group_name_Hall           'P 4w'
loop_
_symmetry_equiv_pos_site_id
_symmetry_equiv_pos_as_xyz
1 x,y,z
2 -y,x,1/4+z
3 -x,-y,1/2+z
4 y,-x,3/4+z
_cell_length_a                   11.971(2)
_cell_length_b                   11.971(2)
_cell_length_c                   16.556(3)
_cell_angle_alpha                90
_cell_angle_beta                 90
_cell_angle_gamma                90
_cell_volume                     2372.55
_exptl_crystal_colour            colorless
_exptl_crystal_description       block
_cell_formula_units_Z            4
loop_
_atom_site_label
_atom_site_type_symbol
_atom_site_fract_x
_atom_site_fract_y
_atom_site_fract_z
Br1 Br 0.57004(4) 0.58325(4) 0.41748(4)
F1 F 1.2204(2) 0.3689(3) 0.7050(2)
F2 F 1.1023(3) 0.4967(2) 0.7325(2)
F3 F 1.0939(2) 0.3403(3) 0.79323(18)
O1 O 0.8192(2) 0.1447(2) 0.63566(17)
O2 O 0.8349(3) 0.2347(2) 0.7892(2)
O3 O 0.8735(2) 0.4109(2) 0.74943(16)
N1 N 0.9496(2) 0.2705(2) 0.6796(2)
C1 C 0.9917(3) 0.3131(3) 0.5139(2)
H1 H 1.0395 0.3081 0.4660
C2 C 0.9660(3) 0.1915(3) 0.5424(2)
H2 H 1.0377 0.1546 0.5525
C3 C 0.9042(3) 0.1961(3) 0.6217(2)
C4 C 1.0384(3) 0.3436(3) 0.6561(2)
C5 C 1.0588(3) 0.3664(3) 0.5797(2)
H3 H 1.1155 0.4162 0.5665
C6 C 0.8883(3) 0.3801(3) 0.4908(2)
C7 C 0.8483(3) 0.3777(3) 0.4122(3)
H4 H 0.8856 0.3354 0.3736
C8 C 0.7534(4) 0.4373(4) 0.3901(3)
H5 H 0.7277 0.4351 0.3371
C9 C 0.6985(3) 0.4991(3) 0.4470(3)
C10 C 0.7343(4) 0.5035(3) 0.5262(3)
H6 H 0.6956 0.5452 0.5645
C11 C 0.8299(3) 0.4440(3) 0.5474(3)
H7 H 0.8555 0.4469 0.6004
C12 C 0.9034(3) 0.1216(3) 0.4800(2)
H8 H 0.8255 0.1440 0.4804
H9 H 0.9331 0.1391 0.4269
C13 C 0.9091(3) -0.0039(3) 0.4920(2)
C14 C 1.0084(4) -0.0573(3) 0.5120(3)
H10 H 1.0721 -0.0152 0.5222
C15 C 1.0134(5) -0.1734(4) 0.5169(3)
H11 H 1.0803 -0.2082 0.5303
C16 C 0.9184(5) -0.2373(4) 0.5017(3)
H12 H 0.9217 -0.3149 0.5041
C17 C 0.8206(5) -0.1849(4) 0.4832(3)
H13 H 0.7568 -0.2273 0.4739
C18 C 0.8144(4) -0.0690(4) 0.4782(3)
H14 H 0.7469 -0.0349 0.4656
C19 C 0.8796(3) 0.3004(3) 0.7462(2)
C20 C 0.8003(4) 0.4675(3) 0.8086(3)
C21 C 0.6808(4) 0.4323(5) 0.7921(4)
H15 H 0.6657 0.4383 0.7353
H16 H 0.6307 0.4800 0.8214
H17 H 0.6703 0.3564 0.8091
C22 C 0.8396(6) 0.4415(5) 0.8938(3)
H18 H 0.8296 0.3633 0.9046
H19 H 0.7968 0.4844 0.9318
H20 H 0.9172 0.4603 0.8989
C23 C 0.8159(5) 0.5891(4) 0.7868(4)
H21 H 0.8929 0.6093 0.7936
H22 H 0.7703 0.6346 0.8214
H23 H 0.7943 0.6007 0.7316
C24 C 1.1134(4) 0.3860(4) 0.7220(3)
loop_
_geom_bond_atom_site_label_1
_geom_bond_atom_site_label_2
_geom_bond_site_symmetry_1
_geom_bond_site_symmetry_2
Br1 C9 1_555 1_555
F1 C24 1_555 1_555
F2 C24 1_555 1_555
F3 C24 1_555 1_555
O1 C3 1_555 1_555
O2 C19 1_555 1_555
O3 C19 1_555 1_555
N1 C3 1_555 1_555
C1 H1 1_555 1_555
C2 C1 1_555 1_555
H2 C2 1_555 1_555
C3 C2 1_555 1_555
C4 N1 1_555 1_555
C5 C1 1_555 1_555
H3 C5 1_555 1_555
C6 C1 1_555 1_555
C7 C6 1_555 1_555
H4 C7 1_555 1_555
C8 C7 1_555 1_555
H5 C8 1_555 1_555
C9 C8 1_555 1_555
C10 C9 1_555 1_555
H6 C10 1_555 1_555
C11 C6 1_555 1_555
H7 C11 1_555 1_555
C12 C2 1_555 1_555
H8 C12 1_555 1_555
H9 C12 1_555 1_555
C13 C12 1_555 1_555
C14 C13 1_555 1_555
H10 C14 1_555 1_555
C15 C14 1_555 1_555
H11 C15 1_555 1_555
C16 C15 1_555 1_555
H12 C16 1_555 1_555
C17 C16 1_555 1_555
H13 C17 1_555 1_555
C18 C13 1_555 1_555
H14 C18 1_555 1_555
C19 N1 1_555 1_555
C20 O3 1_555 1_555
C21 C20 1_555 1_555
H15 C21 1_555 1_555
H16 C21 1_555 1_555
H17 C21 1_555 1_555
C22 C20 1_555 1_555
H18 C22 1_555 1_555
H19 C22 1_555 1_555
H20 C22 1_555 1_555
C23 C20 1_555 1_555
H21 C23 1_555 1_555
H22 C23 1_555 1_555
H23 C23 1_555 1_555
C24 C4 1_555 1_555
C4 C5 1_555 1_555
C10 C11 1_555 1_555
C17 C18 1_555 1_555

#END
