
#######################################################################
#
#                 Cambridge Crystallographic Data Centre
#                                CCDC 
#
#######################################################################
#
# If this CIF has been generated from an entry in the Cambridge 
# Structural Database, then it will include bibliographic, chemical, 
# crystal, experimental, refinement or atomic coordinate data resulting 
# from the CCDC's data processing and validation procedures.
#
#######################################################################

data_YUFJEP
_chemical_formula_moiety         
'C40 H44 N24 O12,C12 H14 N2 2+,0.5(H2 O1),2(Cl1 1-)'
_chemical_name_systematic        
"sym-tetramethylcucurbit[6]uril 1,1-biphenyl-4,4'-diammonium dichloride hemihydrate"
_symmetry_cell_setting           monoclinic
_symmetry_space_group_name_H-M   'P 21/c'
_symmetry_Int_Tables_number      14
_space_group_name_Hall           '-P 2ybc'
loop_
_symmetry_equiv_pos_site_id
_symmetry_equiv_pos_as_xyz
1 x,y,z
2 -x,1/2+y,1/2-z
3 -x,-y,-z
4 x,1/2-y,1/2+z
_cell_length_a                   23.9121(19)
_cell_length_b                   17.6841(14)
_cell_length_c                   16.8216(13)
_cell_angle_alpha                90
_cell_angle_beta                 99.475(2)
_cell_angle_gamma                90
_cell_volume                     7016.21
_exptl_crystal_colour            colorless
_exptl_crystal_description       prism
_cell_formula_units_Z            4
loop_
_atom_site_label
_atom_site_type_symbol
_atom_site_fract_x
_atom_site_fract_y
_atom_site_fract_z
Cl1 Cl -0.25880(6) 0.32954(9) 0.39618(9)
Cl2 Cl 0.68068(11) 0.30131(18) 0.7612(2)
Cl3 Cl 0.78946(13) 0.2104(2) 1.20868(19)
O1 O 0.0488(3) 0.3831(5) 0.8236(4)
C1 C -0.10872(13) 0.13097(18) 0.32236(17)
C2 C -0.18957(12) 0.07938(17) 0.36635(17)
H1 H -0.2276 0.0803 0.3327
C3 C -0.17448(12) 0.15669(18) 0.40677(18)
H2 H -0.2052 0.1940 0.3911
C4 C -0.17581(12) 0.06247(19) 0.50598(18)
C5 C -0.09866(13) 0.25566(17) 0.39206(18)
H3 H -0.0789 0.2681 0.3472
H4 H -0.1294 0.2924 0.3918
C6 C -0.15937(12) 0.19394(19) 0.5566(2)
H5 H -0.1832 0.2381 0.5397
H6 H -0.1723 0.1723 0.6040
C7 C -0.00314(12) 0.25736(16) 0.46792(17)
C8 C -0.07539(12) 0.28147(17) 0.54406(18)
C9 C -0.01463(12) 0.28792(17) 0.60155(18)
C10 C -0.06856(12) 0.19019(17) 0.64801(17)
C11 C 0.08543(12) 0.27676(18) 0.56285(19)
H7 H 0.0948 0.3172 0.6027
H8 H 0.0996 0.2918 0.5137
C12 C 0.02571(13) 0.20762(18) 0.72591(17)
H9 H 0.0087 0.1839 0.7688
H10 H 0.0445 0.2542 0.7477
C13 C 0.13966(12) 0.15902(18) 0.54988(18)
C14 C 0.11949(12) 0.18493(19) 0.67709(17)
H11 H 0.1367 0.2262 0.7128
C15 C 0.15894(13) 0.11425(17) 0.68438(18)
H12 H 0.1961 0.1242 0.7184
C16 C 0.07447(14) 0.08664(19) 0.73288(18)
C17 C 0.14764(14) -0.01311(19) 0.74606(17)
H13 H 0.1262 -0.0311 0.7873
H14 H 0.1873 -0.0073 0.7718
C18 C -0.11179(14) 0.35303(19) 0.5414(2)
H15 H -0.1207 0.3630 0.5947
H16 H -0.1467 0.3458 0.5037
H17 H -0.0911 0.3956 0.5243
C19 C 0.00002(15) 0.36355(18) 0.6399(2)
H18 H 0.0022 0.4009 0.5984
H19 H 0.0363 0.3603 0.6753
H20 H -0.0290 0.3782 0.6710
C20 C -0.20584(13) -0.05057(19) 0.4244(2)
H21 H -0.2405 -0.0533 0.3844
H22 H -0.2152 -0.0679 0.4760
N1 N -0.14492(12) 0.07089(16) 0.31688(15)
N2 N -0.12351(10) 0.17913(16) 0.37899(15)
N3 N -0.18761(10) 0.02729(15) 0.43272(15)
N4 N -0.16805(10) 0.13848(14) 0.49228(14)
N5 N -0.06013(10) 0.26275(14) 0.46544(14)
N6 N 0.02370(10) 0.26827(14) 0.54457(14)
N7 N -0.10206(10) 0.21888(14) 0.57950(15)
N8 N -0.01871(10) 0.22687(15) 0.66007(14)
N9 N 0.11408(10) 0.20639(14) 0.59451(15)
N10 N 0.16417(10) 0.10131(15) 0.59970(15)
N11 N 0.06803(10) 0.15675(14) 0.70288(13)
N12 N 0.12666(11) 0.05768(15) 0.71937(14)
O2 O 0.14321(9) 0.16482(13) 0.47768(12)
O3 O 0.02053(9) 0.24576(13) 0.40960(12)
O4 O -0.07066(10) 0.13982(14) 0.28499(13)
O5 O 0.04128(10) 0.05104(14) 0.76695(13)
O6 O -0.08208(9) 0.14095(13) 0.69229(14)
O7 O -0.17487(9) 0.03318(12) 0.57147(12)
C1B C 0.10872(13) -0.13097(18) 0.67764(17)
C2B C 0.18957(12) -0.07938(17) 0.63365(17)
H1B H 0.2276 -0.0803 0.6673
C3B C 0.17448(12) -0.15669(18) 0.59323(18)
H2B H 0.2052 -0.1940 0.6089
C4B C 0.17581(12) -0.06247(19) 0.49402(18)
C5B C 0.09866(13) -0.25566(17) 0.60794(18)
H3B H 0.0789 -0.2681 0.6528
H4B H 0.1294 -0.2924 0.6082
C6B C 0.15937(12) -0.19394(19) 0.4434(2)
H5B H 0.1832 -0.2381 0.4603
H6B H 0.1723 -0.1723 0.3960
C7B C 0.00314(12) -0.25736(16) 0.53208(17)
C8B C 0.07539(12) -0.28147(17) 0.45594(18)
C9B C 0.01463(12) -0.28792(17) 0.39845(18)
C10B C 0.06856(12) -0.19019(17) 0.35199(17)
C11B C -0.08543(12) -0.27676(18) 0.43715(19)
H7B H -0.0948 -0.3172 0.3973
H8B H -0.0996 -0.2918 0.4863
C12B C -0.02571(13) -0.20762(18) 0.27409(17)
H9B H -0.0087 -0.1839 0.2312
H10B H -0.0445 -0.2542 0.2523
C13B C -0.13966(12) -0.15902(18) 0.45012(18)
C14B C -0.11949(12) -0.18493(19) 0.32291(17)
H11B H -0.1367 -0.2262 0.2872
C15B C -0.15894(13) -0.11425(17) 0.31562(18)
H12B H -0.1961 -0.1242 0.2816
C16B C -0.07447(14) -0.08664(19) 0.26712(18)
C17B C -0.14764(14) 0.01311(19) 0.25394(17)
H13B H -0.1262 0.0311 0.2127
H14B H -0.1873 0.0073 0.2282
C18B C 0.11179(14) -0.35303(19) 0.4586(2)
H15B H 0.1207 -0.3630 0.4053
H16B H 0.1467 -0.3458 0.4963
H17B H 0.0911 -0.3956 0.4757
C19B C -0.00002(15) -0.36355(18) 0.3601(2)
H18B H -0.0022 -0.4009 0.4016
H19B H -0.0363 -0.3603 0.3247
H20B H 0.0290 -0.3782 0.3290
C20B C 0.20584(13) 0.05057(19) 0.5756(2)
H21B H 0.2405 0.0533 0.6156
H22B H 0.2152 0.0679 0.5240
N1B N 0.14492(12) -0.07089(16) 0.68312(15)
N2B N 0.12351(10) -0.17913(16) 0.62101(15)
N3B N 0.18761(10) -0.02729(15) 0.56728(15)
N4B N 0.16805(10) -0.13848(14) 0.50772(14)
N5B N 0.06013(10) -0.26275(14) 0.53456(14)
N6B N -0.02370(10) -0.26827(14) 0.45543(14)
N7B N 0.10206(10) -0.21888(14) 0.42050(15)
N8B N 0.01871(10) -0.22687(15) 0.33993(14)
N9B N -0.11408(10) -0.20639(14) 0.40549(15)
N10B N -0.16417(10) -0.10131(15) 0.40030(15)
N11B N -0.06803(10) -0.15675(14) 0.29712(13)
N12B N -0.12666(11) -0.05768(15) 0.28063(14)
O2B O -0.14321(9) -0.16482(13) 0.52232(12)
O3B O -0.02053(9) -0.24576(13) 0.59040(12)
O4B O 0.07066(10) -0.13982(14) 0.71501(13)
O5B O -0.04128(10) -0.05104(14) 0.23305(13)
O6B O 0.08208(9) -0.14095(13) 0.30771(14)
O7B O 0.17487(9) -0.03318(12) 0.42853(12)
C21 C 0.61254(14) 0.4184(2) 0.8561(2)
C22 C 0.60473(18) 0.2967(2) 0.8918(3)
H23 H 0.6318 0.2579 0.8792
C23 C 0.55963(13) 0.31044(19) 0.8211(2)
H24 H 0.5650 0.2780 0.7749
C24 C 0.51322(19) 0.2721(2) 0.9259(3)
C25 C 0.54515(15) 0.4239(3) 0.7254(2)
H25 H 0.5692 0.4668 0.7161
H26 H 0.5462 0.3870 0.6822
C26 C 0.45258(14) 0.2871(2) 0.7923(2)
H27 H 0.4597 0.2603 0.7440
H28 H 0.4271 0.2555 0.8182
C27 C 0.47672(17) 0.5256(3) 0.7308(3)
C28 C 0.43547(13) 0.4038(2) 0.70234(19)
C29 C 0.38789(15) 0.4690(2) 0.7001(2)
C30 C 0.38048(13) 0.3812(2) 0.80365(18)
C31 C 0.3961(2) 0.6122(3) 0.7214(3)
H29 H 0.3618 0.6152 0.6805
H30 H 0.4235 0.6483 0.7060
C32 C 0.30893(15) 0.4820(2) 0.7881(3)
H31 H 0.2851 0.5012 0.7393
H32 H 0.2866 0.4444 0.8121
C33 C 0.32876(17) 0.6203(2) 0.8193(3)
H33 H 0.2976 0.6361 0.7762
C34 C 0.31460(14) 0.5382(2) 0.9230(3)
C35 C 0.68682(15) 0.3747(2) 0.9629(2)
H34 H 0.7085 0.3279 0.9607
H35 H 0.7078 0.4156 0.9419
C36 C 0.59921(19) 0.2407(3) 1.0296(3)
H36 H 0.5732 0.2069 1.0519
H37 H 0.6329 0.2114 1.0227
C37 C 0.67130(15) 0.3330(2) 1.1032(2)
H38 H 0.7008 0.2932 1.1107
C38 C 0.58877(19) 0.3138(2) 1.1459(3)
C39 C 0.43389(17) 0.3625(2) 0.6267(2)
H39 H 0.3991 0.3333 0.6155
H40 H 0.4662 0.3286 0.6313
H41 H 0.4353 0.3980 0.5832
C40 C 0.3475(2) 0.4754(3) 0.6193(3)
H42 H 0.3264 0.4286 0.6085
H43 H 0.3692 0.4849 0.5765
H44 H 0.3212 0.5168 0.6219
N13 N 0.68260(13) 0.39054(19) 1.0447(2)
N14 N 0.63272(11) 0.36668(15) 0.91218(19)
N15 N 0.61591(15) 0.30181(19) 1.0859(2)
N16 N 0.57167(16) 0.2683(2) 0.9515(2)
N17 N 0.56714(11) 0.38901(17) 0.80351(19)
N18 N 0.50614(12) 0.29466(17) 0.84724(17)
N19 N 0.48756(11) 0.44959(19) 0.72371(19)
N20 N 0.42482(11) 0.35458(18) 0.76838(16)
N21 N 0.41956(13) 0.5370(2) 0.7187(2)
N22 N 0.35705(11) 0.44448(17) 0.76498(17)
N23 N 0.38118(13) 0.6370(2) 0.7988(2)
N24 N 0.32140(12) 0.54352(18) 0.84384(19)
O8 O 0.63321(14) 0.48289(17) 0.8528(2)
O9 O 0.51392(13) 0.5756(2) 0.7451(3)
O10 O 0.54051(15) 0.2924(2) 1.1629(3)
O11 O 0.47450(16) 0.2568(2) 0.9651(2)
O12 O 0.36273(12) 0.34825(17) 0.85827(14)
O13 O 0.30401(11) 0.48103(14) 0.95931(16)
C21B C 0.38746(14) 0.5816(2) 1.1439(2)
C22B C 0.39527(18) 0.7033(2) 1.1082(3)
H23B H 0.3682 0.7421 1.1208
C23B C 0.44037(13) 0.68956(19) 1.1789(2)
H24B H 0.4350 0.7220 1.2251
C24B C 0.48678(19) 0.7279(2) 1.0741(3)
C25B C 0.45485(15) 0.5761(3) 1.2746(2)
H25B H 0.4308 0.5332 1.2839
H26B H 0.4538 0.6130 1.3178
C26B C 0.54742(14) 0.7129(2) 1.2077(2)
H27B H 0.5403 0.7397 1.2560
H28B H 0.5729 0.7445 1.1818
C27B C 0.52328(17) 0.4744(3) 1.2692(3)
C28B C 0.56453(13) 0.5962(2) 1.29766(19)
C29B C 0.61211(15) 0.5310(2) 1.2999(2)
C30B C 0.61952(13) 0.6188(2) 1.19635(18)
C31B C 0.6039(2) 0.3878(3) 1.2786(3)
H29B H 0.6382 0.3848 1.3195
H30B H 0.5765 0.3517 1.2940
C32B C 0.69107(15) 0.5180(2) 1.2119(3)
H31B H 0.7149 0.4988 1.2607
H32B H 0.7134 0.5556 1.1879
C33B C 0.67124(17) 0.3797(2) 1.1807(3)
H33B H 0.7024 0.3639 1.2238
C34B C 0.68540(14) 0.4618(2) 1.0770(3)
C35B C 0.31318(15) 0.6253(2) 1.0371(2)
H34B H 0.2915 0.6721 1.0393
H35B H 0.2922 0.5844 1.0581
C36B C 0.40079(19) 0.7593(3) 0.9704(3)
H36B H 0.4268 0.7931 0.9481
H37B H 0.3671 0.7886 0.9773
C37B C 0.32870(15) 0.6670(2) 0.8968(2)
H38B H 0.2992 0.7068 0.8893
C38B C 0.41123(19) 0.6862(2) 0.8541(3)
C39B C 0.56611(17) 0.6375(2) 1.3733(2)
H39B H 0.6009 0.6667 1.3845
H40B H 0.5338 0.6714 1.3687
H41B H 0.5647 0.6020 1.4168
C40B C 0.6525(2) 0.5246(3) 1.3807(3)
H42B H 0.6736 0.5714 1.3915
H43B H 0.6308 0.5151 1.4235
H44B H 0.6788 0.4832 1.3781
N13B N 0.31740(13) 0.60946(19) 0.9553(2)
N14B N 0.36728(11) 0.63332(15) 1.08782(19)
N15B N 0.38409(15) 0.69819(19) 0.9141(2)
N16B N 0.42833(16) 0.7317(2) 1.0485(2)
N17B N 0.43286(11) 0.61099(17) 1.19649(19)
N18B N 0.49386(12) 0.70534(17) 1.15276(17)
N19B N 0.51244(11) 0.55041(19) 1.27629(19)
N20B N 0.57518(11) 0.64542(18) 1.23162(16)
N21B N 0.58044(13) 0.4630(2) 1.2813(2)
N22B N 0.64295(11) 0.55552(17) 1.23502(17)
N23B N 0.61882(13) 0.3630(2) 1.2012(2)
N24B N 0.67860(12) 0.45648(18) 1.15616(19)
O8B O 0.36679(14) 0.51711(17) 1.1472(2)
O9B O 0.48608(13) 0.4244(2) 1.2549(3)
O10B O 0.45949(15) 0.7076(2) 0.8371(3)
O11B O 0.52550(16) 0.7432(2) 1.0349(2)
O12B O 0.63727(12) 0.65175(17) 1.14173(14)
O13B O 0.69599(11) 0.51897(14) 1.04069(16)
C41 C 0.20362(13) 0.3921(2) 0.6410(2)
H45 H 0.2105 0.3999 0.5881
C42 C 0.16839(13) 0.4414(2) 0.67186(19)
H46 H 0.1521 0.4825 0.6409
C43 C 0.15717(12) 0.43006(18) 0.74869(19)
C44 C 0.18253(13) 0.37312(18) 0.7944(2)
H47 H 0.1759 0.3672 0.8476
C45 C 0.21915(14) 0.3221(2) 0.7629(2)
H48 H 0.2364 0.2822 0.7948
C46 C 0.22927(13) 0.3317(2) 0.6838(2)
C47 C 0.26502(14) 0.2780(2) 0.6465(3)
C48 C 0.30628(17) 0.2344(2) 0.6930(3)
H49 H 0.3129 0.2366 0.7496
C49 C 0.34113(15) 0.1811(3) 0.6445(3)
H50 H 0.3699 0.1492 0.6705
C50 C 0.32762(19) 0.1838(3) 0.5650(2)
C51 C 0.28894(18) 0.2248(3) 0.5214(3)
H51 H 0.2831 0.2241 0.4648
C52 C 0.25817(16) 0.2682(3) 0.5632(3)
H52 H 0.2283 0.2953 0.5326
N25 N 0.11942(11) 0.48122(16) 0.78240(17)
H53 H 0.1395 0.5077 0.8231
H54 H 0.0924 0.4543 0.8010
H55 H 0.1031 0.5133 0.7439
N26 N 0.36411(18) 0.1283(3) 0.5248(2)
H56 H 0.3414 0.0960 0.4931
H57 H 0.3869 0.1021 0.5631
H58 H 0.3854 0.1543 0.4948
loop_
_geom_bond_atom_site_label_1
_geom_bond_atom_site_label_2
_geom_bond_site_symmetry_1
_geom_bond_site_symmetry_2
C1 N1 1_555 1_555
C2 H1 1_555 1_555
C3 C2 1_555 1_555
H2 C3 1_555 1_555
C4 N3 1_555 1_555
C5 H3 1_555 1_555
H4 C5 1_555 1_555
C6 H5 1_555 1_555
H6 C6 1_555 1_555
C7 N5 1_555 1_555
C8 C9 1_555 1_555
C9 C19 1_555 1_555
C10 N7 1_555 1_555
C11 H7 1_555 1_555
H8 C11 1_555 1_555
C12 H9 1_555 1_555
H10 C12 1_555 1_555
C13 N9 1_555 1_555
C14 H11 1_555 1_555
C15 C14 1_555 1_555
H12 C15 1_555 1_555
C16 N11 1_555 1_555
C17 H13 1_555 1_555
H14 C17 1_555 1_555
C18 C8 1_555 1_555
H15 C18 1_555 1_555
H16 C18 1_555 1_555
H17 C18 1_555 1_555
C19 H18 1_555 1_555
H19 C19 1_555 1_555
H20 C19 1_555 1_555
C20 H21 1_555 1_555
H22 C20 1_555 1_555
N1 C2 1_555 1_555
N2 C1 1_555 1_555
N3 C2 1_555 1_555
N4 C3 1_555 1_555
N5 C5 1_555 1_555
N6 C7 1_555 1_555
N7 C6 1_555 1_555
N8 C9 1_555 1_555
N9 C11 1_555 1_555
N10 C13 1_555 1_555
N11 C12 1_555 1_555
N12 C15 1_555 1_555
O2 C13 1_555 1_555
O3 C7 1_555 1_555
O4 C1 1_555 1_555
O5 C16 1_555 1_555
O6 C10 1_555 1_555
O7 C4 1_555 1_555
C21 N14 1_555 1_555
C22 H23 1_555 1_555
C23 C22 1_555 1_555
H24 C23 1_555 1_555
C24 N16 1_555 1_555
C25 H25 1_555 1_555
H26 C25 1_555 1_555
C26 H27 1_555 1_555
H28 C26 1_555 1_555
C27 N19 1_555 1_555
C28 C29 1_555 1_555
C29 C40 1_555 1_555
C30 N20 1_555 1_555
C31 H29 1_555 1_555
H30 C31 1_555 1_555
C32 H31 1_555 1_555
H32 C32 1_555 1_555
C33 H33 1_555 1_555
C34 N24 1_555 1_555
C35 H34 1_555 1_555
H35 C35 1_555 1_555
C36 H36 1_555 1_555
H37 C36 1_555 1_555
C37 H38 1_555 1_555
C38 N15 1_555 1_555
C39 C28 1_555 1_555
H39 C39 1_555 1_555
H40 C39 1_555 1_555
H41 C39 1_555 1_555
C40 H42 1_555 1_555
H43 C40 1_555 1_555
H44 C40 1_555 1_555
N13 C35 1_555 1_555
N14 C22 1_555 1_555
N15 C36 1_555 1_555
N16 C22 1_555 1_555
N17 C21 1_555 1_555
N18 C23 1_555 1_555
N19 C25 1_555 1_555
N20 C26 1_555 1_555
N21 C27 1_555 1_555
N22 C29 1_555 1_555
N23 C31 1_555 1_555
N24 C32 1_555 1_555
O8 C21 1_555 1_555
O9 C27 1_555 1_555
O10 C38 1_555 1_555
O11 C24 1_555 1_555
O12 C30 1_555 1_555
O13 C34 1_555 1_555
C41 H45 1_555 1_555
C42 C41 1_555 1_555
H46 C42 1_555 1_555
C43 C42 1_555 1_555
C44 C43 1_555 1_555
H47 C44 1_555 1_555
C45 C44 1_555 1_555
H48 C45 1_555 1_555
C46 C41 1_555 1_555
C47 C46 1_555 1_555
C48 C47 1_555 1_555
H49 C48 1_555 1_555
C49 C48 1_555 1_555
H50 C49 1_555 1_555
C50 C49 1_555 1_555
C51 C50 1_555 1_555
H51 C51 1_555 1_555
C52 C47 1_555 1_555
H52 C52 1_555 1_555
N25 C43 1_555 1_555
H53 N25 1_555 1_555
H54 N25 1_555 1_555
H55 N25 1_555 1_555
N26 C50 1_555 1_555
H56 N26 1_555 1_555
H57 N26 1_555 1_555
H58 N26 1_555 1_555
C1B N1B 1_555 1_555
C2B H1B 1_555 1_555
C3B C2B 1_555 1_555
H2B C3B 1_555 1_555
C4B N3B 1_555 1_555
C5B H3B 1_555 1_555
H4B C5B 1_555 1_555
C6B H5B 1_555 1_555
H6B C6B 1_555 1_555
C7B N5B 1_555 1_555
C8B C9B 1_555 1_555
C9B C19B 1_555 1_555
C10B N7B 1_555 1_555
C11B H7B 1_555 1_555
H8B C11B 1_555 1_555
C12B H9B 1_555 1_555
H10B C12B 1_555 1_555
C13B N9B 1_555 1_555
C14B H11B 1_555 1_555
C15B C14B 1_555 1_555
H12B C15B 1_555 1_555
C16B N11B 1_555 1_555
C17B N1 1_555 1_555
H13B C17B 1_555 1_555
H14B C17B 1_555 1_555
C18B C8B 1_555 1_555
H15B C18B 1_555 1_555
H16B C18B 1_555 1_555
H17B C18B 1_555 1_555
C19B H18B 1_555 1_555
H19B C19B 1_555 1_555
H20B C19B 1_555 1_555
C20B N10 1_555 1_555
H21B C20B 1_555 1_555
H22B C20B 1_555 1_555
N1B C17 1_555 1_555
N2B C1B 1_555 1_555
N3B C2B 1_555 1_555
N4B C3B 1_555 1_555
N5B C5B 1_555 1_555
N6B C7B 1_555 1_555
N7B C6B 1_555 1_555
N8B C9B 1_555 1_555
N9B C11B 1_555 1_555
N10B C20 1_555 1_555
N11B C12B 1_555 1_555
N12B C15B 1_555 1_555
O2B C13B 1_555 1_555
O3B C7B 1_555 1_555
O4B C1B 1_555 1_555
O5B C16B 1_555 1_555
O6B C10B 1_555 1_555
O7B C4B 1_555 1_555
C21B N14B 1_555 1_555
C22B H23B 1_555 1_555
C23B C22B 1_555 1_555
H24B C23B 1_555 1_555
C24B N16B 1_555 1_555
C25B H25B 1_555 1_555
H26B C25B 1_555 1_555
C26B H27B 1_555 1_555
H28B C26B 1_555 1_555
C27B N19B 1_555 1_555
C28B C29B 1_555 1_555
C29B C40B 1_555 1_555
C30B N20B 1_555 1_555
C31B H29B 1_555 1_555
H30B C31B 1_555 1_555
C32B H31B 1_555 1_555
H32B C32B 1_555 1_555
C33B C37 1_555 1_555
H33B C33B 1_555 1_555
C34B N13 1_555 1_555
C35B H34B 1_555 1_555
H35B C35B 1_555 1_555
C36B H36B 1_555 1_555
H37B C36B 1_555 1_555
C37B C33 1_555 1_555
H38B C37B 1_555 1_555
C38B N23 1_555 1_555
C39B C28B 1_555 1_555
H39B C39B 1_555 1_555
H40B C39B 1_555 1_555
H41B C39B 1_555 1_555
C40B H42B 1_555 1_555
H43B C40B 1_555 1_555
H44B C40B 1_555 1_555
N13B C34 1_555 1_555
N14B C22B 1_555 1_555
N15B C36B 1_555 1_555
N16B C22B 1_555 1_555
N17B C21B 1_555 1_555
N18B C23B 1_555 1_555
N19B C25B 1_555 1_555
N20B C26B 1_555 1_555
N21B C27B 1_555 1_555
N22B C29B 1_555 1_555
N23B C38 1_555 1_555
N24B C32B 1_555 1_555
O8B C21B 1_555 1_555
O9B C27B 1_555 1_555
O10B C38B 1_555 1_555
O11B C24B 1_555 1_555
O12B C30B 1_555 1_555
O13B C34B 1_555 1_555
C3 N2 1_555 1_555
C4 N4 1_555 1_555
C5 N2 1_555 1_555
C6 N4 1_555 1_555
C8 N5 1_555 1_555
C8 N7 1_555 1_555
C9 N6 1_555 1_555
C10 N8 1_555 1_555
C11 N6 1_555 1_555
C12 N8 1_555 1_555
C14 N9 1_555 1_555
C14 N11 1_555 1_555
C15 N10 1_555 1_555
C16 N12 1_555 1_555
C17 N12 1_555 1_555
C20 N3 1_555 1_555
C23 N17 1_555 1_555
C24 N18 1_555 1_555
C25 N17 1_555 1_555
C26 N18 1_555 1_555
C28 N19 1_555 1_555
C28 N20 1_555 1_555
C29 N21 1_555 1_555
C30 N22 1_555 1_555
C31 N21 1_555 1_555
C32 N22 1_555 1_555
C33 N23 1_555 1_555
C33 N24 1_555 1_555
C35 N14 1_555 1_555
C36 N16 1_555 1_555
C37 N13 1_555 1_555
C37 N15 1_555 1_555
C45 C46 1_555 1_555
C51 C52 1_555 1_555
C2B N1B 1_555 1_555
C3B N2B 1_555 1_555
C4B N4B 1_555 1_555
C5B N2B 1_555 1_555
C6B N4B 1_555 1_555
C8B N5B 1_555 1_555
C8B N7B 1_555 1_555
C9B N6B 1_555 1_555
C10B N8B 1_555 1_555
C11B N6B 1_555 1_555
C12B N8B 1_555 1_555
C13B N10B 1_555 1_555
C14B N9B 1_555 1_555
C14B N11B 1_555 1_555
C15B N10B 1_555 1_555
C16B N12B 1_555 1_555
C17B N12B 1_555 1_555
C20B N3B 1_555 1_555
C23B N17B 1_555 1_555
C24B N18B 1_555 1_555
C25B N17B 1_555 1_555
C26B N18B 1_555 1_555
C28B N19B 1_555 1_555
C28B N20B 1_555 1_555
C29B N21B 1_555 1_555
C30B N22B 1_555 1_555
C31B N21B 1_555 1_555
C31B N23B 1_555 1_555
C32B N22B 1_555 1_555
C33B N23B 1_555 1_555
C33B N24B 1_555 1_555
C34B N24B 1_555 1_555
C35B N13B 1_555 1_555
C35B N14B 1_555 1_555
C36B N16B 1_555 1_555
C37B N13B 1_555 1_555
C37B N15B 1_555 1_555
C38B N15B 1_555 1_555

#END
