
#######################################################################
#
#                 Cambridge Crystallographic Data Centre
#                                CCDC 
#
#######################################################################
#
# If this CIF has been generated from an entry in the Cambridge 
# Structural Database, then it will include bibliographic, chemical, 
# crystal, experimental, refinement or atomic coordinate data resulting 
# from the CCDC's data processing and validation procedures.
#
#######################################################################

data_YUFJIT
_chemical_formula_moiety         'C42 H48 N24 O12,C13 H16 N2 2+,2(Cl1 1-)'
_chemical_name_systematic        
"m-hexamethylcucurbit[6]uril 4,4'-methanediyldianilinium dichloride"
_symmetry_cell_setting           triclinic
_symmetry_space_group_name_H-M   'P -1'
_symmetry_Int_Tables_number      2
_space_group_name_Hall           '-P 1'
loop_
_symmetry_equiv_pos_site_id
_symmetry_equiv_pos_as_xyz
1 x,y,z
2 -x,-y,-z
_cell_length_a                   16.897(9)
_cell_length_b                   18.037(9)
_cell_length_c                   18.475(10)
_cell_angle_alpha                68.835(8)
_cell_angle_beta                 69.689(7)
_cell_angle_gamma                73.900(8)
_cell_volume                     4849.41
_exptl_crystal_colour            colorless
_exptl_crystal_description       block
_cell_formula_units_Z            2
loop_
_atom_site_label
_atom_site_type_symbol
_atom_site_fract_x
_atom_site_fract_y
_atom_site_fract_z
Cl1 Cl 0.58830(11) 0.23006(13) 0.68661(11)
Cl2 Cl -0.1292(2) 0.41658(15) 0.98903(17)
C1 C 0.28985(17) 0.05631(15) 0.76630(18)
C2 C 0.36266(17) 0.16055(14) 0.74103(16)
H1 H 0.4178 0.1514 0.7532
C3 C 0.28525(17) 0.15776(14) 0.81685(17)
H2 H 0.3043 0.1467 0.8653
C4 C 0.27338(17) 0.28582(16) 0.72293(16)
C5 C 0.18332(17) 0.05947(15) 0.89609(17)
H3 H 0.1985 0.0593 0.9427
H4 H 0.1877 0.0031 0.8993
C6 C 0.16183(17) 0.27002(15) 0.85579(16)
H5 H 0.1761 0.2514 0.9073
H6 H 0.1529 0.3292 0.8383
C7 C 0.03681(17) 0.06404(15) 0.89538(16)
C8 C 0.05494(18) 0.17274(15) 0.92846(18)
C9 C -0.04119(17) 0.18182(16) 0.92953(16)
C10 C 0.02434(18) 0.29126(15) 0.82678(17)
C11 C -0.11737(17) 0.08525(15) 0.91381(15)
H7 H -0.1083 0.0262 0.9283
H8 H -0.1675 0.1024 0.9546
C12 C -0.12417(18) 0.29620(16) 0.83473(18)
H9 H -0.1196 0.3532 0.8075
H10 H -0.1720 0.2932 0.8839
C13 C -0.11879(17) 0.07425(16) 0.78499(17)
C14 C -0.18752(18) 0.19620(15) 0.81230(17)
H11 H -0.2405 0.2037 0.8559
C15 C -0.20720(18) 0.19620(15) 0.73783(18)
H12 H -0.2689 0.1979 0.7472
C16 C -0.14426(17) 0.30678(15) 0.70487(18)
C17 C -0.15581(19) 0.08866(15) 0.66349(18)
H13 H -0.1391 0.0298 0.6812
H14 H -0.2148 0.1004 0.6600
C18 C -0.19632(17) 0.29718(16) 0.59836(16)
H15 H -0.2502 0.2818 0.6048
H16 H -0.2047 0.3563 0.5813
C19 C -0.02017(16) 0.08143(14) 0.55668(17)
C20 C -0.12766(17) 0.19097(15) 0.52039(16)
C21 C -0.04455(16) 0.18982(14) 0.44561(15)
C22 C -0.06843(16) 0.30814(14) 0.48344(16)
C23 C 0.09316(17) 0.08460(14) 0.42802(17)
H17 H 0.1055 0.0265 0.4543
H18 H 0.0836 0.0916 0.3764
C24 C 0.04964(16) 0.30005(15) 0.36127(17)
H19 H 0.0469 0.2926 0.3123
H20 H 0.0400 0.3582 0.3533
C25 C 0.24206(17) 0.07166(16) 0.43369(16)
C26 C 0.18392(18) 0.19152(14) 0.34805(18)
H21 H 0.1782 0.1916 0.2965
C27 C 0.27615(17) 0.19222(15) 0.34296(17)
H22 H 0.3140 0.1990 0.2872
C28 C 0.18268(19) 0.30404(16) 0.38408(17)
C29 C 0.39118(17) 0.08436(17) 0.40146(18)
H23 H 0.3997 0.0253 0.4179
H24 H 0.4299 0.1020 0.3473
C30 C 0.33928(18) 0.29609(16) 0.36725(18)
H25 H 0.3851 0.2918 0.3180
H26 H 0.3207 0.3534 0.3642
C31 C 0.40618(17) 0.06052(16) 0.53375(18)
C32 C 0.44302(16) 0.18351(16) 0.44146(18)
C33 C 0.46079(18) 0.17439(17) 0.52351(18)
C34 C 0.35253(19) 0.28586(17) 0.49753(19)
C35 C 0.42875(18) 0.06073(16) 0.65847(17)
H27 H 0.4819 0.0650 0.6657
H28 H 0.4273 0.0032 0.6724
C36 C 0.40433(17) 0.27026(17) 0.61080(17)
H29 H 0.3918 0.3294 0.5940
H30 H 0.4622 0.2536 0.6179
C37 C 0.0669(2) 0.15894(18) 1.01234(17)
H31 H 0.0467 0.1098 1.0497
H32 H 0.0343 0.2043 1.0326
H33 H 0.1271 0.1541 1.0071
C38 C -0.1102(2) 0.19690(17) 1.00320(18)
H34 H -0.1070 0.2470 1.0096
H35 H -0.1021 0.1527 1.0506
H36 H -0.1659 0.2008 0.9968
C39 C -0.21016(19) 0.18732(17) 0.50914(18)
H37 H -0.2252 0.2347 0.4668
H38 H -0.2553 0.1858 0.5592
H39 H -0.2033 0.1392 0.4942
C40 C -0.06092(17) 0.18489(16) 0.37071(16)
H40 H -0.0790 0.1340 0.3833
H41 H -0.0086 0.1883 0.3267
H42 H -0.1055 0.2292 0.3549
C41 C 0.51772(19) 0.1986(2) 0.36570(19)
H43 H 0.5351 0.2487 0.3572
H44 H 0.5003 0.2023 0.3196
H45 H 0.5654 0.1544 0.3721
C42 C 0.55374(18) 0.17011(19) 0.51985(18)
H46 H 0.5723 0.2207 0.4850
H47 H 0.5900 0.1264 0.4985
H48 H 0.5578 0.1605 0.5737
N1 N 0.23465(15) 0.24071(13) 0.79665(14)
N2 N 0.34337(14) 0.23996(13) 0.68776(13)
N3 N 0.40249(14) 0.24195(12) 0.54788(14)
N4 N 0.37221(14) 0.25323(12) 0.43720(14)
N5 N 0.26664(14) 0.26293(12) 0.37194(14)
N6 N 0.13417(14) 0.26522(13) 0.37154(14)
N7 N -0.01820(14) 0.26614(12) 0.42820(13)
N8 N -0.12947(14) 0.26759(12) 0.53480(13)
N9 N -0.17746(14) 0.26649(12) 0.67670(14)
N10 N -0.14270(14) 0.26374(12) 0.78175(13)
N11 N -0.04527(14) 0.25327(12) 0.85705(13)
N12 N 0.08323(14) 0.24547(12) 0.86921(13)
N13 N 0.09594(15) 0.09891(12) 0.90189(14)
N14 N -0.04271(14) 0.10904(12) 0.91568(13)
N15 N -0.13528(14) 0.11918(12) 0.83582(12)
N16 N -0.15465(15) 0.12007(13) 0.72391(14)
N17 N -0.10166(13) 0.11900(11) 0.58474(13)
N18 N 0.01308(13) 0.11906(12) 0.47911(13)
N19 N 0.16650(14) 0.11795(12) 0.41182(15)
N20 N 0.30264(14) 0.11648(13) 0.39731(15)
N21 N 0.41413(14) 0.10846(12) 0.45591(13)
N22 N 0.43034(14) 0.09781(13) 0.57546(13)
N23 N 0.35592(14) 0.09588(13) 0.71468(14)
N24 N 0.24358(15) 0.09465(13) 0.82514(14)
O1 O 0.27402(13) -0.00487(11) 0.76186(12)
O2 O 0.05432(12) 0.00050(10) 0.87894(11)
O3 O -0.07868(12) 0.00572(10) 0.79243(11)
O4 O 0.01683(12) 0.02054(10) 0.59756(12)
O5 O 0.24554(12) 0.00185(11) 0.47737(14)
O6 O 0.38324(13) -0.00581(11) 0.56356(12)
O7 O -0.05761(11) 0.37337(10) 0.48077(11)
O8 O 0.16058(12) 0.36941(10) 0.40008(12)
O9 O 0.30010(12) 0.34887(11) 0.50394(12)
O10 O 0.24672(13) 0.35877(10) 0.69310(12)
O11 O 0.03193(13) 0.35390(11) 0.77428(12)
O12 O -0.11721(13) 0.37154(10) 0.66710(12)
C43 C -0.14327(18) 0.09872(16) 1.27143(18)
C44 C -0.22088(19) 0.12580(18) 1.3218(2)
H49 H -0.2520 0.0889 1.3657
C45 C -0.0974(2) 0.14853(19) 1.21320(19)
H50 H -0.0444 0.1281 1.1819
C46 C -0.25115(19) 0.20822(19) 1.3060(2)
H51 H -0.3038 0.2282 1.3380
C47 C -0.1236(2) 0.2284(2) 1.1965(2)
H52 H -0.0891 0.2633 1.1539
C48 C -0.2026(2) 0.26022(17) 1.24234(18)
C49 C -0.2321(2) 0.35234(17) 1.2243(2)
H53 H -0.2140 0.3776 1.1658
H54 H -0.2948 0.3641 1.2420
C50 C -0.1962(2) 0.38976(16) 1.2658(2)
C51 C -0.2391(2) 0.39715(17) 1.34086(19)
H55 H -0.2888 0.3741 1.3693
C52 C -0.1234(2) 0.42517(18) 1.2231(2)
H56 H -0.0927 0.4205 1.1712
C53 C -0.2125(2) 0.43684(17) 1.3764(2)
H57 H -0.2424 0.4390 1.4292
C54 C -0.0955(2) 0.46830(17) 1.25801(18)
H58 H -0.0466 0.4926 1.2293
C55 C -0.14055(17) 0.47421(15) 1.33388(19)
N25 N -0.11205(19) 0.00897(15) 1.28923(17)
H59 H -0.0949 -0.0047 1.2432
H60 H -0.1549 -0.0172 1.3245
H61 H -0.0678 -0.0048 1.3107
N26 N -0.11742(15) 0.52474(13) 1.36580(16)
H62 H -0.0600 0.5205 1.3506
H63 H -0.1364 0.5089 1.4201
H64 H -0.1414 0.5764 1.3466
loop_
_geom_bond_atom_site_label_1
_geom_bond_atom_site_label_2
_geom_bond_site_symmetry_1
_geom_bond_site_symmetry_2
C1 N23 1_555 1_555
C2 H1 1_555 1_555
C3 C2 1_555 1_555
H2 C3 1_555 1_555
C4 N1 1_555 1_555
C5 H3 1_555 1_555
H4 C5 1_555 1_555
C6 H5 1_555 1_555
H6 C6 1_555 1_555
C7 N13 1_555 1_555
C8 C9 1_555 1_555
C9 C38 1_555 1_555
C10 N11 1_555 1_555
C11 H7 1_555 1_555
H8 C11 1_555 1_555
C12 H9 1_555 1_555
H10 C12 1_555 1_555
C13 N15 1_555 1_555
C14 H11 1_555 1_555
C15 C14 1_555 1_555
H12 C15 1_555 1_555
C16 N9 1_555 1_555
C17 H13 1_555 1_555
H14 C17 1_555 1_555
C18 H15 1_555 1_555
H16 C18 1_555 1_555
C19 N17 1_555 1_555
C20 C21 1_555 1_555
C21 C40 1_555 1_555
C22 N7 1_555 1_555
C23 H17 1_555 1_555
H18 C23 1_555 1_555
C24 H19 1_555 1_555
H20 C24 1_555 1_555
C25 N19 1_555 1_555
C26 H21 1_555 1_555
C27 C26 1_555 1_555
H22 C27 1_555 1_555
C28 N5 1_555 1_555
C29 H23 1_555 1_555
H24 C29 1_555 1_555
C30 H25 1_555 1_555
H26 C30 1_555 1_555
C31 N21 1_555 1_555
C32 C33 1_555 1_555
C33 C42 1_555 1_555
C34 N3 1_555 1_555
C35 H27 1_555 1_555
H28 C35 1_555 1_555
C36 H29 1_555 1_555
H30 C36 1_555 1_555
C37 C8 1_555 1_555
H31 C37 1_555 1_555
H32 C37 1_555 1_555
H33 C37 1_555 1_555
C38 H34 1_555 1_555
H35 C38 1_555 1_555
H36 C38 1_555 1_555
C39 C20 1_555 1_555
H37 C39 1_555 1_555
H38 C39 1_555 1_555
H39 C39 1_555 1_555
C40 H40 1_555 1_555
H41 C40 1_555 1_555
H42 C40 1_555 1_555
C41 C32 1_555 1_555
H43 C41 1_555 1_555
H44 C41 1_555 1_555
H45 C41 1_555 1_555
C42 H46 1_555 1_555
H47 C42 1_555 1_555
H48 C42 1_555 1_555
N1 C3 1_555 1_555
N2 C2 1_555 1_555
N3 C33 1_555 1_555
N4 C30 1_555 1_555
N5 C27 1_555 1_555
N6 C24 1_555 1_555
N7 C21 1_555 1_555
N8 C18 1_555 1_555
N9 C15 1_555 1_555
N10 C12 1_555 1_555
N11 C9 1_555 1_555
N12 C6 1_555 1_555
N13 C5 1_555 1_555
N14 C7 1_555 1_555
N15 C11 1_555 1_555
N16 C13 1_555 1_555
N17 C17 1_555 1_555
N18 C19 1_555 1_555
N19 C23 1_555 1_555
N20 C25 1_555 1_555
N21 C29 1_555 1_555
N22 C31 1_555 1_555
N23 C2 1_555 1_555
N24 C1 1_555 1_555
O1 C1 1_555 1_555
O2 C7 1_555 1_555
O3 C13 1_555 1_555
O4 C19 1_555 1_555
O5 C25 1_555 1_555
O6 C31 1_555 1_555
O7 C22 1_555 1_555
O8 C28 1_555 1_555
O9 C34 1_555 1_555
O10 C4 1_555 1_555
O11 C10 1_555 1_555
O12 C16 1_555 1_555
C43 C44 1_555 1_555
C44 H49 1_555 1_555
C45 C43 1_555 1_555
H50 C45 1_555 1_555
C46 C44 1_555 1_555
H51 C46 1_555 1_555
C47 C45 1_555 1_555
H52 C47 1_555 1_555
C48 C46 1_555 1_555
C49 C48 1_555 1_555
H53 C49 1_555 1_555
H54 C49 1_555 1_555
C50 C49 1_555 1_555
C51 C50 1_555 1_555
H55 C51 1_555 1_555
C52 C50 1_555 1_555
H56 C52 1_555 1_555
C53 C51 1_555 1_555
H57 C53 1_555 1_555
C54 C52 1_555 1_555
H58 C54 1_555 1_555
C55 C53 1_555 1_555
N25 C43 1_555 1_555
H59 N25 1_555 1_555
H60 N25 1_555 1_555
H61 N25 1_555 1_555
N26 C55 1_555 1_555
H62 N26 1_555 1_555
H63 N26 1_555 1_555
H64 N26 1_555 1_555
C3 N24 1_555 1_555
C4 N2 1_555 1_555
C5 N24 1_555 1_555
C6 N1 1_555 1_555
C8 N12 1_555 1_555
C8 N13 1_555 1_555
C9 N14 1_555 1_555
C10 N12 1_555 1_555
C11 N14 1_555 1_555
C12 N11 1_555 1_555
C14 N10 1_555 1_555
C14 N15 1_555 1_555
C15 N16 1_555 1_555
C16 N10 1_555 1_555
C17 N16 1_555 1_555
C18 N9 1_555 1_555
C20 N8 1_555 1_555
C20 N17 1_555 1_555
C21 N18 1_555 1_555
C22 N8 1_555 1_555
C23 N18 1_555 1_555
C24 N7 1_555 1_555
C26 N6 1_555 1_555
C26 N19 1_555 1_555
C27 N20 1_555 1_555
C28 N6 1_555 1_555
C29 N20 1_555 1_555
C30 N5 1_555 1_555
C32 N4 1_555 1_555
C32 N21 1_555 1_555
C33 N22 1_555 1_555
C34 N4 1_555 1_555
C35 N22 1_555 1_555
C35 N23 1_555 1_555
C36 N2 1_555 1_555
C36 N3 1_555 1_555
C47 C48 1_555 1_555
C54 C55 1_555 1_555

#END
