
#######################################################################
#
#                 Cambridge Crystallographic Data Centre
#                                CCDC 
#
#######################################################################
#
# If this CIF has been generated from an entry in the Cambridge 
# Structural Database, then it will include bibliographic, chemical, 
# crystal, experimental, refinement or atomic coordinate data resulting 
# from the CCDC's data processing and validation procedures.
#
#######################################################################

data_YUFPOE01
_chemical_formula_moiety         'C7 H13 N1 S2'
_chemical_name_systematic        3-t-Butyl-1,3-thiazolidine-2-thione
_symmetry_cell_setting           orthorhombic
_symmetry_space_group_name_H-M   'C m c 21'
_symmetry_Int_Tables_number      36
_space_group_name_Hall           'C 2n -2'
loop_
_symmetry_equiv_pos_site_id
_symmetry_equiv_pos_as_xyz
1 x,y,z
2 -x,-y,1/2+z
3 x,-y,1/2+z
4 -x,y,z
5 1/2+x,1/2+y,z
6 1/2-x,1/2-y,1/2+z
7 1/2+x,1/2-y,1/2+z
8 1/2-x,1/2+y,z
_cell_length_a                   20.673(3)
_cell_length_b                   11.9353(15)
_cell_length_c                   11.303(3)
_cell_angle_alpha                90
_cell_angle_beta                 90
_cell_angle_gamma                90
_cell_volume                     2788.88
_exptl_crystal_colour            colorless
_exptl_crystal_description       prismatic
_cell_formula_units_Z            12
loop_
_atom_site_label
_atom_site_type_symbol
_atom_site_fract_x
_atom_site_fract_y
_atom_site_fract_z
S1 S 0.16976(11) 0.14412(19) 0.05617(17)
S2 S 0.09804(9) 0.23992(18) 0.2537(2)
N1 N 0.2062(3) 0.1398(4) 0.2876(4)
C1 C 0.1661(3) 0.1678(6) 0.2012(6)
C2 C 0.1259(4) 0.2398(8) 0.4015(8)
H1 H 0.1366 0.3154 0.4261
H2 H 0.0926 0.2110 0.4537
C3 C 0.1835(4) 0.1684(7) 0.4073(7)
H3 H 0.1734 0.1003 0.4503
H4 H 0.2176 0.2073 0.4496
C4 C 0.3036(4) 0.0637(8) 0.3883(8)
H5 H 0.3147 0.1367 0.4176
H6 H 0.3423 0.0206 0.3770
H7 H 0.2761 0.0265 0.4444
C5 C 0.2681(3) 0.0752(5) 0.2707(6)
C6 C 0.3122(4) 0.1384(6) 0.1849(9)
H8 H 0.3211 0.2118 0.2157
H9 H 0.2912 0.1450 0.1095
H10 H 0.3521 0.0981 0.1758
C7 C 0.2514(3) -0.0432(6) 0.2266(7)
H11 H 0.2302 -0.0382 0.1512
H12 H 0.2231 -0.0790 0.2824
H13 H 0.2904 -0.0863 0.2187
S3? S 0.0000 0.4546(2) 0.8517(3)
S4? S 0.0000 0.3400(3) 0.6222(3)
N2? N 0.0000 0.2404(6) 0.8386(7)
C8? C 0.0000 0.3309(8) 0.7694(10)
C9? C 0.0181(7) 0.3817(11) 0.9871(14)
H14? H 0.0637 0.3876 1.0058
H15? H -0.0068 0.4125 1.0523
C10? C 0.0000 0.2640(8) 0.9657(10)
H16? H 0.0379(5) 0.233(5) 1.003(5)
C11? C 0.0000 0.1197(7) 0.7962(9)
C12? C -0.0619(4) 0.0996(7) 0.7258(9)
H17? H -0.0626 0.0236 0.6978
H18? H -0.0987 0.1125 0.7757
H19? H -0.0633 0.1499 0.6596
C13? C 0.0000 0.0395(9) 0.8994(11)
H20? H -0.0381(5) 0.054(5) 0.947(3)
H21? H 0.0000 -0.038(4) 0.875(9)
loop_
_geom_bond_atom_site_label_1
_geom_bond_atom_site_label_2
_geom_bond_site_symmetry_1
_geom_bond_site_symmetry_2
S1 C1 1_555 1_555
S2 C1 1_555 1_555
N1 C1 1_555 1_555
C2 S2 1_555 1_555
H1 C2 1_555 1_555
H2 C2 1_555 1_555
C3 N1 1_555 1_555
H3 C3 1_555 1_555
H4 C3 1_555 1_555
C4 H5 1_555 1_555
H6 C4 1_555 1_555
H7 C4 1_555 1_555
C5 N1 1_555 1_555
C6 C5 1_555 1_555
H8 C6 1_555 1_555
H9 C6 1_555 1_555
H10 C6 1_555 1_555
C7 C5 1_555 1_555
H11 C7 1_555 1_555
H12 C7 1_555 1_555
H13 C7 1_555 1_555
C2 C3 1_555 1_555
C4 C5 1_555 1_555

#END
