
#######################################################################
#
#                 Cambridge Crystallographic Data Centre
#                                CCDC 
#
#######################################################################
#
# If this CIF has been generated from an entry in the Cambridge 
# Structural Database, then it will include bibliographic, chemical, 
# crystal, experimental, refinement or atomic coordinate data resulting 
# from the CCDC's data processing and validation procedures.
#
#######################################################################

data_YUFYUU
_chemical_formula_moiety         'C19 H16 N4 O2'
_chemical_name_systematic        
1-(2-pyridyl)-2-phenyl-2-(phenylcarbamoyl)urea
_symmetry_cell_setting           monoclinic
_symmetry_space_group_name_H-M   'P 21/n'
_symmetry_Int_Tables_number      14
_space_group_name_Hall           '-P 2yn'
loop_
_symmetry_equiv_pos_site_id
_symmetry_equiv_pos_as_xyz
1 x,y,z
2 1/2-x,1/2+y,1/2-z
3 -x,-y,-z
4 1/2+x,1/2-y,1/2+z
_cell_length_a                   12.619(5)
_cell_length_b                   8.303(3)
_cell_length_c                   16.471(7)
_cell_angle_alpha                90
_cell_angle_beta                 94.458(5)
_cell_angle_gamma                90
_cell_volume                     1720.54
_exptl_crystal_colour            colorless
_exptl_crystal_description       prism
_cell_formula_units_Z            4
loop_
_atom_site_label
_atom_site_type_symbol
_atom_site_fract_x
_atom_site_fract_y
_atom_site_fract_z
N1 N 1.19679(16) 0.2550(3) 0.77679(14)
N2 N 1.01535(13) 0.1750(3) 0.75640(11)
H1 H 1.0385(19) 0.125(3) 0.7170(12)
N3 N 0.84611(12) 0.0978(2) 0.70102(9)
N4 N 0.81192(13) -0.1075(2) 0.60750(10)
H2 H 0.7471(14) -0.114(3) 0.6268(12)
O1 O 0.86817(11) 0.2548(2) 0.81433(9)
O2 O 0.97955(11) -0.0125(2) 0.63133(9)
C1 C 1.09579(15) 0.2553(2) 0.80577(12)
C2 C 1.07963(18) 0.3319(3) 0.87808(13)
H3 H 1.0128 0.3308 0.8983
C3 C 1.16347(19) 0.4102(3) 0.92036(14)
H4 H 1.1522 0.4631 0.9687
C4 C 1.26299(18) 0.4111(3) 0.89234(15)
H5 H 1.3189 0.4640 0.9213
C5 C 1.27883(17) 0.3332(3) 0.82110(15)
H6 H 1.3463 0.3328 0.8021
C6 C 0.91087(15) 0.1820(2) 0.76230(11)
C7 C 0.73471(15) 0.1419(2) 0.69493(12)
C8 C 0.66875(17) 0.0959(3) 0.75326(14)
H7 H 0.6949 0.0347 0.7977
C9 C 0.56277(19) 0.1416(4) 0.74527(19)
H8 H 0.5173 0.1106 0.7842
C10 C 0.5249(2) 0.2331(4) 0.6796(2)
H9 H 0.4538 0.2632 0.6743
C11 C 0.5904(3) 0.2797(4) 0.6225(2)
H10 H 0.5641 0.3418 0.5785
C12 C 0.69694(19) 0.2346(3) 0.62967(15)
H11 H 0.7422 0.2668 0.5908
C13 C 0.88577(14) -0.0097(2) 0.64481(11)
C14 C 0.82847(16) -0.2219(2) 0.54536(11)
C15 C 0.7431(2) -0.3186(3) 0.52001(14)
H12 H 0.6795 -0.3088 0.5446
C16 C 0.7515(3) -0.4295(4) 0.45837(18)
H13 H 0.6935 -0.4937 0.4415
C17 C 0.8444(3) -0.4453(4) 0.42210(17)
H14 H 0.8500 -0.5205 0.3808
C18 C 0.9290(2) -0.3507(3) 0.44657(16)
H15 H 0.9921 -0.3609 0.4215
C19 C 0.92195(19) -0.2386(3) 0.50876(14)
H16 H 0.9804 -0.1752 0.5255
loop_
_geom_bond_atom_site_label_1
_geom_bond_atom_site_label_2
_geom_bond_site_symmetry_1
_geom_bond_site_symmetry_2
N1 C1 1_555 1_555
N2 H1 1_555 1_555
N3 C6 1_555 1_555
N4 H2 1_555 1_555
O1 C6 1_555 1_555
O2 C13 1_555 1_555
C1 N2 1_555 1_555
C2 C1 1_555 1_555
H3 C2 1_555 1_555
C3 C2 1_555 1_555
H4 C3 1_555 1_555
C4 C3 1_555 1_555
H5 C4 1_555 1_555
C5 N1 1_555 1_555
H6 C5 1_555 1_555
C6 N2 1_555 1_555
C7 N3 1_555 1_555
C8 C7 1_555 1_555
H7 C8 1_555 1_555
C9 C8 1_555 1_555
H8 C9 1_555 1_555
C10 C9 1_555 1_555
H9 C10 1_555 1_555
C11 C10 1_555 1_555
H10 C11 1_555 1_555
C12 C7 1_555 1_555
H11 C12 1_555 1_555
C13 N3 1_555 1_555
C14 N4 1_555 1_555
C15 C14 1_555 1_555
H12 C15 1_555 1_555
C16 C15 1_555 1_555
H13 C16 1_555 1_555
C17 C16 1_555 1_555
H14 C17 1_555 1_555
C18 C17 1_555 1_555
H15 C18 1_555 1_555
C19 C14 1_555 1_555
H16 C19 1_555 1_555
N4 C13 1_555 1_555
C4 C5 1_555 1_555
C11 C12 1_555 1_555
C18 C19 1_555 1_555

#END
