
#######################################################################
#
#                 Cambridge Crystallographic Data Centre
#                                CCDC 
#
#######################################################################
#
# If this CIF has been generated from an entry in the Cambridge 
# Structural Database, then it will include bibliographic, chemical, 
# crystal, experimental, refinement or atomic coordinate data resulting 
# from the CCDC's data processing and validation procedures.
#
#######################################################################

data_YUGHEN
_chemical_formula_moiety         'C31 H36 N3 O4 P1,C1 H2 Cl2'
_chemical_name_systematic        
'(-)-Diethyl 3-hydroxy-3-(2-trityl-1,2,4-triazol-3-yl)cyclohexylphosphonate dichloromethane solvate'
_symmetry_cell_setting           monoclinic
_symmetry_space_group_name_H-M   'C 2'
_symmetry_Int_Tables_number      5
_space_group_name_Hall           'C 2y'
loop_
_symmetry_equiv_pos_site_id
_symmetry_equiv_pos_as_xyz
1 x,y,z
2 -x,y,-z
3 1/2+x,1/2+y,z
4 1/2-x,1/2+y,-z
_cell_length_a                   17.275(2)
_cell_length_b                   10.971(2)
_cell_length_c                   19.033(3)
_cell_angle_alpha                90
_cell_angle_beta                 116.60(1)
_cell_angle_gamma                90
_cell_volume                     3225.4
_exptl_crystal_colour            colorless
_cell_formula_units_Z            4
loop_
_atom_site_label
_atom_site_type_symbol
_atom_site_fract_x
_atom_site_fract_y
_atom_site_fract_z
P1 P 0.0772(1) 0.5263(3) 0.9227(1)
O1 O 0.1534(3) 0.5018(7) 0.8995(3)
O2 O 0.1054(3) 0.5386(8) 1.0074(3)
O3 O 0.0349(4) 0.6457(6) 0.8733(3)
O4 O -0.1679(3) 0.3329(5) 0.7624(2)
N1 N -0.1966(3) 0.2850(6) 0.5967(3)
N2 N -0.1834(3) 0.2796(7) 0.5309(3)
N3 N -0.0538(3) 0.2868(8) 0.6414(3)
C1 C 0.2397(6) 0.561(2) 0.9478(6)
C2 C 0.3060(7) 0.492(2) 0.9510(8)
C3 C -0.036(2) 0.711(2) 0.881(1)
C4 C -0.058(2) 0.820(2) 0.858(2)
C5 C 0.0028(4) 0.4039(8) 0.8759(4)
C6 C -0.0281(4) 0.3993(8) 0.7870(4)
C7 C -0.0951(4) 0.2975(7) 0.7500(3)
C8 C -0.0591(5) 0.1738(8) 0.7882(5)
C9 C -0.0246(6) 0.1817(9) 0.8779(5)
C10 C 0.0404(5) 0.2815(9) 0.9146(4)
C11 C -0.1186(4) 0.2902(7) 0.6629(3)
C12 C -0.0975(5) 0.279(1) 0.5620(4)
C13 C -0.2883(3) 0.2818(6) 0.5852(3)
C14 C -0.3126(4) 0.4072(6) 0.6055(3)
C15 C -0.3994(4) 0.4224(7) 0.5949(4)
C16 C -0.4261(4) 0.5365(8) 0.6066(4)
C17 C -0.3723(5) 0.6347(7) 0.6262(4)
C18 C -0.2869(5) 0.6195(7) 0.6342(5)
C19 C -0.2608(4) 0.5055(6) 0.6230(4)
C20 C -0.3482(4) 0.2578(6) 0.4972(3)
C21 C -0.3635(4) 0.3524(8) 0.4446(4)
C22 C -0.4184(5) 0.3342(9) 0.3643(4)
C23 C -0.4562(5) 0.226(1) 0.3363(4)
C24 C -0.4425(5) 0.1321(9) 0.3889(5)
C25 C -0.3887(4) 0.1480(8) 0.4685(4)
C26 C -0.2916(4) 0.1736(6) 0.6360(4)
C27 C -0.2545(5) 0.0638(7) 0.6305(5)
C28 C -0.2566(6) -0.0388(8) 0.6715(6)
C29 C -0.2986(6) -0.0320(8) 0.7203(6)
C30 C -0.3340(5) 0.0757(8) 0.7268(5)
C31 C -0.3326(4) 0.1796(7) 0.6856(4)
Cl1 Cl 0.1994(2) 1.1632(3) 0.8355(2)
Cl2 Cl 0.1573(3) 0.9107(5) 0.8311(2)
C32 C 0.2326(6) 1.014(1) 0.8271(5)
loop_
_geom_bond_atom_site_label_1
_geom_bond_atom_site_label_2
_geom_bond_site_symmetry_1
_geom_bond_site_symmetry_2
P1 O1 1_555 1_555
O1 C1 1_555 1_555
O2 P1 1_555 1_555
O3 P1 1_555 1_555
O4 C7 1_555 1_555
N1 N2 1_555 1_555
N2 C12 1_555 1_555
N3 C11 1_555 1_555
C1 C2 1_555 1_555
C3 O3 1_555 1_555
C4 C3 1_555 1_555
C5 P1 1_555 1_555
C6 C5 1_555 1_555
C7 C6 1_555 1_555
C8 C7 1_555 1_555
C9 C8 1_555 1_555
C10 C5 1_555 1_555
C11 N1 1_555 1_555
C12 N3 1_555 1_555
C13 N1 1_555 1_555
C14 C13 1_555 1_555
C15 C14 1_555 1_555
C16 C15 1_555 1_555
C17 C16 1_555 1_555
C18 C17 1_555 1_555
C19 C14 1_555 1_555
C20 C13 1_555 1_555
C21 C20 1_555 1_555
C22 C21 1_555 1_555
C23 C22 1_555 1_555
C24 C23 1_555 1_555
C25 C20 1_555 1_555
C26 C13 1_555 1_555
C27 C26 1_555 1_555
C28 C27 1_555 1_555
C29 C28 1_555 1_555
C30 C29 1_555 1_555
C31 C26 1_555 1_555
Cl1 C32 1_555 1_555
Cl2 C32 1_555 1_555
C7 C11 1_555 1_555
C9 C10 1_555 1_555
C18 C19 1_555 1_555
C24 C25 1_555 1_555
C30 C31 1_555 1_555

#END
