
#######################################################################
#
#                 Cambridge Crystallographic Data Centre
#                                CCDC 
#
#######################################################################
#
# If this CIF has been generated from an entry in the Cambridge 
# Structural Database, then it will include bibliographic, chemical, 
# crystal, experimental, refinement or atomic coordinate data resulting 
# from the CCDC's data processing and validation procedures.
#
#######################################################################

data_YUGJUG
_chemical_formula_moiety         'C27 H53 N2 1+,B1 F4 1-'
_chemical_name_systematic        
'1,3-Didodecyl-1H-imidazol-3-ium tetrafluoroborate'
_symmetry_cell_setting           triclinic
_symmetry_space_group_name_H-M   'P -1'
_symmetry_Int_Tables_number      2
_space_group_name_Hall           '-P 1'
loop_
_symmetry_equiv_pos_site_id
_symmetry_equiv_pos_as_xyz
1 x,y,z
2 -x,-y,-z
_cell_length_a                   8.5500(7)
_cell_length_b                   8.7636(6)
_cell_length_c                   41.352(3)
_cell_angle_alpha                90.194(7)
_cell_angle_beta                 92.173(7)
_cell_angle_gamma                100.503(7)
_cell_volume                     3044.18
_exptl_crystal_colour            colorless
_exptl_crystal_description       plate
_cell_formula_units_Z            4
loop_
_atom_site_label
_atom_site_type_symbol
_atom_site_fract_x
_atom_site_fract_y
_atom_site_fract_z
B1 B 0.2689(5) 1.0297(5) 0.28941(9)
F1 F 0.3063(2) 1.0185(2) 0.25756(4)
F2 F 0.1540(7) 0.8941(7) 0.29449(18)
F3 F 0.2061(14) 1.1538(10) 0.2942(3)
F4 F 0.3967(5) 1.0161(12) 0.31025(10)
N1 N 0.2792(2) 0.5416(2) 0.26930(5)
N2 N 0.3776(2) 0.6432(2) 0.22527(5)
C1 C 0.2778(3) 0.6560(3) 0.24838(6)
H1 H 0.2150 0.7346 0.2498
C2 C 0.4450(3) 0.5151(3) 0.23161(7)
H2 H 0.5205 0.4776 0.2189
C3 C 0.3846(3) 0.4527(3) 0.25902(7)
H3 H 0.4100 0.3633 0.2694
C4 C 0.1886(3) 0.5209(3) 0.29916(6)
H4 H 0.1384 0.4104 0.3011
H5 H 0.1028 0.5829 0.2978
C5 C 0.2937(3) 0.5701(3) 0.32897(6)
H6 H 0.3504 0.6781 0.3263
H7 H 0.3745 0.5027 0.3312
C6 C 0.1996(3) 0.5607(3) 0.35941(6)
H8 H 0.1401 0.4534 0.3616
H9 H 0.1208 0.6304 0.3572
C7 C 0.3025(3) 0.6049(3) 0.39001(6)
H10 H 0.3848 0.5388 0.3915
H11 H 0.3578 0.7139 0.3883
C8 C 0.2104(3) 0.5882(3) 0.42085(6)
H12 H 0.1533 0.4797 0.4223
H13 H 0.1294 0.6558 0.4194
C9 C 0.3116(3) 0.6290(3) 0.45170(6)
H14 H 0.3670 0.7383 0.4506
H15 H 0.3939 0.5629 0.4531
C10 C 0.2168(3) 0.6084(3) 0.48228(6)
H16 H 0.1602 0.4995 0.4831
H17 H 0.1355 0.6755 0.4809
C11 C 0.3161(3) 0.6465(3) 0.51357(6)
H18 H 0.3717 0.7558 0.5130
H19 H 0.3982 0.5801 0.5149
C12 C 0.2190(3) 0.6233(3) 0.54383(6)
H20 H 0.1632 0.5140 0.5444
H21 H 0.1369 0.6897 0.5424
C13 C 0.3165(3) 0.6608(3) 0.57543(6)
H22 H 0.3992 0.5951 0.5769
H23 H 0.3713 0.7705 0.5751
C14 C 0.2170(3) 0.6351(3) 0.60522(6)
H24 H 0.1614 0.5257 0.6054
H25 H 0.1349 0.7015 0.6039
C15 C 0.3146(4) 0.6712(3) 0.63687(6)
H26 H 0.2437 0.6551 0.6551
H27 H 0.3703 0.7794 0.6369
H28 H 0.3927 0.6023 0.6389
C16 C 0.4054(3) 0.7465(3) 0.19728(6)
H29 H 0.5198 0.7935 0.1971
H30 H 0.3444 0.8315 0.1994
C17 C 0.3568(3) 0.6614(3) 0.16574(6)
H31 H 0.2422 0.6153 0.1659
H32 H 0.4168 0.5754 0.1638
C18 C 0.3863(3) 0.7655(3) 0.13634(6)
H33 H 0.3208 0.8475 0.1375
H34 H 0.4995 0.8170 0.1369
C19 C 0.3472(4) 0.6779(3) 0.10459(6)
H35 H 0.2341 0.6262 0.1041
H36 H 0.4127 0.5958 0.1035
C20 C 0.3756(4) 0.7791(3) 0.07489(6)
H37 H 0.4863 0.8375 0.0762
H38 H 0.3034 0.8555 0.0749
C21 C 0.3490(4) 0.6877(3) 0.04307(6)
H39 H 0.2372 0.6321 0.0414
H40 H 0.4185 0.6088 0.0434
C22 C 0.3830(4) 0.7888(3) 0.01319(6)
H41 H 0.3105 0.8649 0.0124
H42 H 0.4934 0.8475 0.0153
C23 C 0.3627(4) 0.6968(3) -0.01861(6)
H43 H 0.4343 0.6198 -0.0178
H44 H 0.2519 0.6391 -0.0209
C24 C 0.3986(4) 0.7985(3) -0.04816(6)
H45 H 0.5080 0.8591 -0.0454
H46 H 0.3244 0.8729 -0.0493
C25 C 0.3849(4) 0.7084(3) -0.08015(6)
H47 H 0.4582 0.6331 -0.0789
H48 H 0.2752 0.6487 -0.0830
C26 C 0.4225(4) 0.8098(3) -0.10953(6)
H49 H 0.5307 0.8725 -0.1063
H50 H 0.3464 0.8823 -0.1113
C27 C 0.4145(4) 0.7190(4) -0.14108(7)
H51 H 0.4382 0.7912 -0.1590
H52 H 0.3075 0.6571 -0.1446
H53 H 0.4927 0.6499 -0.1400
B2 B 0.8954(5) 0.6287(5) 0.20976(9)
F5 F 0.8996(2) 0.60890(19) 0.24312(4)
F6 F 1.0162(6) 0.7636(4) 0.20339(11)
F7 F 0.7569(8) 0.6549(9) 0.19789(17)
F8 F 0.9471(8) 0.5094(4) 0.19367(8)
N3 N 0.7610(3) -0.0169(3) 0.26884(5)
N4 N 0.9223(3) 0.1387(3) 0.24006(6)
C28 C 0.8803(3) -0.0063(3) 0.24896(7)
H54 H 0.9281 -0.0902 0.2422
C29 C 0.8287(4) 0.2239(4) 0.25545(9)
H55 H 0.8343 0.3328 0.2539
C30 C 0.7278(4) 0.1274(4) 0.27319(8)
H56 H 0.6481 0.1545 0.2863
C31 C 0.6779(3) -0.1645(3) 0.28251(7)
H57 H 0.6729 -0.2478 0.2661
H58 H 0.5671 -0.1540 0.2868
C32 C 0.7532(4) -0.2136(3) 0.31312(7)
H59 H 0.8678 -0.2105 0.3098
H60 H 0.7045 -0.3225 0.3176
C33 C 0.7371(4) -0.1149(3) 0.34256(7)
H61 H 0.8067 -0.0123 0.3403
H62 H 0.6259 -0.0977 0.3430
C34 C 0.7790(4) -0.1838(3) 0.37425(7)
H63 H 0.7157 -0.2899 0.3755
H64 H 0.8926 -0.1933 0.3743
C35 C 0.7527(4) -0.0960(3) 0.40397(7)
H65 H 0.6417 -0.0776 0.4028
H66 H 0.8238 0.0066 0.4037
C36 C 0.7801(3) -0.1717(3) 0.43585(7)
H67 H 0.7086 -0.2741 0.4362
H68 H 0.8909 -0.1906 0.4370
C37 C 0.7542(3) -0.0825(3) 0.46551(7)
H69 H 0.6439 -0.0625 0.4642
H70 H 0.8267 0.0194 0.4653
C38 C 0.7795(3) -0.1578(3) 0.49729(7)
H71 H 0.7061 -0.2591 0.4977
H72 H 0.8895 -0.1788 0.4985
C39 C 0.7551(3) -0.0670(3) 0.52687(7)
H73 H 0.8281 0.0345 0.5263
H74 H 0.6451 -0.0461 0.5255
C40 C 0.7799(3) -0.1388(3) 0.55887(7)
H75 H 0.8894 -0.1610 0.5601
H76 H 0.7059 -0.2397 0.5596
C41 C 0.7574(4) -0.0470(4) 0.58835(8)
H77 H 0.8293 0.0550 0.5874
H78 H 0.6469 -0.0274 0.5875
C42 C 0.7867(4) -0.1182(4) 0.62025(8)
H79 H 0.7710 -0.0474 0.6377
H80 H 0.8961 -0.1374 0.6217
H81 H 0.7121 -0.2166 0.6222
C43 C 1.0438(4) 0.1913(4) 0.21616(8)
H82 H 1.1361 0.1395 0.2204
H83 H 1.0813 0.3045 0.2188
C44 C 0.9824(4) 0.1573(3) 0.18255(7)
H84 H 0.8899 0.2091 0.1787
H85 H 0.9433 0.0441 0.1804
C45 C 1.0983(4) 0.2057(4) 0.15647(8)
H86 H 1.1587 0.3105 0.1620
H87 H 1.1753 0.1339 0.1567
C46 C 1.0294(6) 0.2095(7) 0.12285(10)
H88 H 0.9494 0.1133 0.1195
H89 H 0.9710 0.2972 0.1218
C47 C 1.1337(4) 0.2239(4) 0.09538(8)
H90 H 1.1874 0.1329 0.0955
H91 H 1.2174 0.3170 0.0992
C48 C 1.0627(6) 0.2358(8) 0.06245(11)
H92 H 0.9715 0.1486 0.0599
H93 H 1.0177 0.3323 0.0622
C49 C 1.1533(4) 0.2367(4) 0.03383(8)
H94 H 1.1966 0.1394 0.0339
H95 H 1.2455 0.3229 0.0365
C50 C 1.0824(6) 0.2510(8) 0.00140(11)
H96 H 0.9877 0.1673 -0.0008
H97 H 1.0423 0.3501 0.0014
C51 C 1.1665(4) 0.2476(4) -0.02765(8)
H98 H 1.2561 0.3368 -0.0261
H99 H 1.2146 0.1531 -0.0265
C52 C 1.0987(4) 0.2500(5) -0.05940(9)
H100 H 1.0493 0.3437 -0.0604
H101 H 1.0100 0.1600 -0.0610
C53 C 1.1848(6) 0.2483(8) -0.08947(11)
H102 H 1.2782 0.3337 -0.0877
H103 H 1.2268 0.1503 -0.0898
C54 C 1.1088(5) 0.2617(5) -0.12042(9)
H104 H 0.9964 0.2667 -0.1177
H105 H 1.1165 0.1713 -0.1339
H106 H 1.1612 0.3564 -0.1310
C55? C 1.076(3) 0.149(2) 0.1256(3)
C56? C 1.100(3) 0.160(2) 0.0651(3)
C57? C 1.109(3) 0.178(2) 0.0034(3)
C58? C 1.144(3) 0.311(3) -0.0871(3)
F9? F 0.2402(19) 0.8990(10) 0.3039(2)
F10? F 0.151(2) 1.115(2) 0.2952(5)
F11? F 0.4009(7) 1.1330(14) 0.30322(16)
F12? F 1.0218(15) 0.680(2) 0.1999(3)
F13? F 0.778(2) 0.7247(14) 0.2054(4)
F14? F 0.8113(16) 0.4898(9) 0.1996(2)
H107? H 1.1110 0.3200 0.1549
H108? H 1.2021 0.1834 0.1646
H109? H 0.9590 0.1204 0.1221
H110? H 1.1159 0.0499 0.1262
H111? H 1.0979 0.3252 0.0949
H112? H 1.2512 0.2474 0.0980
H113? H 0.9824 0.1328 0.0629
H114? H 1.1392 0.0606 0.0655
H115? H 1.1235 0.3406 0.0344
H116? H 1.2711 0.2545 0.0351
H117? H 0.9914 0.1657 0.0017
H118? H 1.1327 0.0713 0.0033
H119? H 1.2019 0.3588 -0.0221
H120? H 1.2655 0.2068 -0.0308
H121? H 1.0651 0.1385 -0.0649
H122? H 0.9986 0.2885 -0.0560
H123? H 1.2620 0.3291 -0.0851
H124? H 1.1160 0.4160 -0.0864
H125? H 1.0604 0.1514 -0.1210
H126? H 1.2075 0.2775 -0.1323
H127? H 1.0346 0.3222 -0.1305
loop_
_geom_bond_atom_site_label_1
_geom_bond_atom_site_label_2
_geom_bond_site_symmetry_1
_geom_bond_site_symmetry_2
B1 F1 1_555 1_555
F2 B1 1_555 1_555
F3 B1 1_555 1_555
F4 B1 1_555 1_555
N1 C1 1_555 1_555
N2 C1 1_555 1_555
C1 H1 1_555 1_555
C2 N2 1_555 1_555
H2 C2 1_555 1_555
C3 N1 1_555 1_555
H3 C3 1_555 1_555
C4 N1 1_555 1_555
H4 C4 1_555 1_555
H5 C4 1_555 1_555
C5 C4 1_555 1_555
H6 C5 1_555 1_555
H7 C5 1_555 1_555
C6 C5 1_555 1_555
H8 C6 1_555 1_555
H9 C6 1_555 1_555
C7 C6 1_555 1_555
H10 C7 1_555 1_555
H11 C7 1_555 1_555
C8 C7 1_555 1_555
H12 C8 1_555 1_555
H13 C8 1_555 1_555
C9 C8 1_555 1_555
H14 C9 1_555 1_555
H15 C9 1_555 1_555
C10 C9 1_555 1_555
H16 C10 1_555 1_555
H17 C10 1_555 1_555
C11 C10 1_555 1_555
H18 C11 1_555 1_555
H19 C11 1_555 1_555
C12 C11 1_555 1_555
H20 C12 1_555 1_555
H21 C12 1_555 1_555
C13 C12 1_555 1_555
H22 C13 1_555 1_555
H23 C13 1_555 1_555
C14 C13 1_555 1_555
H24 C14 1_555 1_555
H25 C14 1_555 1_555
C15 C14 1_555 1_555
H26 C15 1_555 1_555
H27 C15 1_555 1_555
H28 C15 1_555 1_555
C16 N2 1_555 1_555
H29 C16 1_555 1_555
H30 C16 1_555 1_555
C17 C16 1_555 1_555
H31 C17 1_555 1_555
H32 C17 1_555 1_555
C18 C17 1_555 1_555
H33 C18 1_555 1_555
H34 C18 1_555 1_555
C19 C18 1_555 1_555
H35 C19 1_555 1_555
H36 C19 1_555 1_555
C20 C19 1_555 1_555
H37 C20 1_555 1_555
H38 C20 1_555 1_555
C21 C20 1_555 1_555
H39 C21 1_555 1_555
H40 C21 1_555 1_555
C22 C21 1_555 1_555
H41 C22 1_555 1_555
H42 C22 1_555 1_555
C23 C22 1_555 1_555
H43 C23 1_555 1_555
H44 C23 1_555 1_555
C24 C23 1_555 1_555
H45 C24 1_555 1_555
H46 C24 1_555 1_555
C25 C24 1_555 1_555
H47 C25 1_555 1_555
H48 C25 1_555 1_555
C26 C25 1_555 1_555
H49 C26 1_555 1_555
H50 C26 1_555 1_555
C27 C26 1_555 1_555
H51 C27 1_555 1_555
H52 C27 1_555 1_555
H53 C27 1_555 1_555
B2 F5 1_555 1_555
F6 B2 1_555 1_555
F7 B2 1_555 1_555
F8 B2 1_555 1_555
N3 C28 1_555 1_555
N4 C28 1_555 1_555
C28 H54 1_555 1_555
C29 N4 1_555 1_555
H55 C29 1_555 1_555
C30 N3 1_555 1_555
H56 C30 1_555 1_555
C31 N3 1_555 1_555
H57 C31 1_555 1_555
H58 C31 1_555 1_555
C32 C31 1_555 1_555
H59 C32 1_555 1_555
H60 C32 1_555 1_555
C33 C32 1_555 1_555
H61 C33 1_555 1_555
H62 C33 1_555 1_555
C34 C33 1_555 1_555
H63 C34 1_555 1_555
H64 C34 1_555 1_555
C35 C34 1_555 1_555
H65 C35 1_555 1_555
H66 C35 1_555 1_555
C36 C35 1_555 1_555
H67 C36 1_555 1_555
H68 C36 1_555 1_555
C37 C36 1_555 1_555
H69 C37 1_555 1_555
H70 C37 1_555 1_555
C38 C37 1_555 1_555
H71 C38 1_555 1_555
H72 C38 1_555 1_555
C39 C38 1_555 1_555
H73 C39 1_555 1_555
H74 C39 1_555 1_555
C40 C39 1_555 1_555
H75 C40 1_555 1_555
H76 C40 1_555 1_555
C41 C40 1_555 1_555
H77 C41 1_555 1_555
H78 C41 1_555 1_555
C42 C41 1_555 1_555
H79 C42 1_555 1_555
H80 C42 1_555 1_555
H81 C42 1_555 1_555
C43 N4 1_555 1_555
H82 C43 1_555 1_555
H83 C43 1_555 1_555
C44 C43 1_555 1_555
H84 C44 1_555 1_555
H85 C44 1_555 1_555
C45 C44 1_555 1_555
H86 C45 1_555 1_555
H87 C45 1_555 1_555
C46 C45 1_555 1_555
H88 C46 1_555 1_555
H89 C46 1_555 1_555
C47 C46 1_555 1_555
H90 C47 1_555 1_555
H91 C47 1_555 1_555
C48 C47 1_555 1_555
H92 C48 1_555 1_555
H93 C48 1_555 1_555
C49 C48 1_555 1_555
H94 C49 1_555 1_555
H95 C49 1_555 1_555
C50 C49 1_555 1_555
H96 C50 1_555 1_555
H97 C50 1_555 1_555
C51 C50 1_555 1_555
H98 C51 1_555 1_555
H99 C51 1_555 1_555
C52 C51 1_555 1_555
H100 C52 1_555 1_555
H101 C52 1_555 1_555
C53 C52 1_555 1_555
H102 C53 1_555 1_555
H103 C53 1_555 1_555
C54 C53 1_555 1_555
H104 C54 1_555 1_555
H105 C54 1_555 1_555
H106 C54 1_555 1_555
C2 C3 1_555 1_555
C29 C30 1_555 1_555

#END
