
#######################################################################
#
#                 Cambridge Crystallographic Data Centre
#                                CCDC 
#
#######################################################################
#
# If this CIF has been generated from an entry in the Cambridge 
# Structural Database, then it will include bibliographic, chemical, 
# crystal, experimental, refinement or atomic coordinate data resulting 
# from the CCDC's data processing and validation procedures.
#
#######################################################################

data_YUGMOC
_chemical_formula_moiety         'C52 H90 O4 S2 Sr1,2(C4 H8 O1)'
_chemical_name_systematic        
'bis(2,4,6-Tri-t-butylphenylthiolato-S)-tetrakis(tetrahydrofuran-O)-strontium tetrahydrofuran solvate'
_symmetry_cell_setting           monoclinic
_symmetry_space_group_name_H-M   'I 2/a'
_symmetry_Int_Tables_number      15
_space_group_name_Hall           '-I 2ya'
loop_
_symmetry_equiv_pos_site_id
_symmetry_equiv_pos_as_xyz
1 x,y,z
2 1/2-x,y,-z
3 1/2+x,1/2+y,1/2+z
4 -x,1/2+y,1/2-z
5 -x,-y,-z
6 1/2+x,-y,z
7 1/2-x,1/2-y,1/2-z
8 x,1/2-y,1/2+z
_cell_length_a                   18.535(4)
_cell_length_b                   19.222(4)
_cell_length_c                   18.775(4)
_cell_angle_alpha                90
_cell_angle_beta                 107.30(3)
_cell_angle_gamma                90
_cell_volume                     6386.54
_exptl_crystal_colour            colorless
_chemical_melting_point          'above 270 deg.C'
_cell_formula_units_Z            4
loop_
_atom_site_label
_atom_site_type_symbol
_atom_site_fract_x
_atom_site_fract_y
_atom_site_fract_z
Sr1 Sr 0.2500 0.2690(1) 0.0000
S1 S 0.3684(1) 0.2386(2) 0.1410(1)
C11 C 0.4595(5) 0.2072(5) 0.1407(4)
C12 C 0.5198(5) 0.2541(4) 0.1481(4)
C13 C 0.5873(5) 0.2287(5) 0.1394(4)
C14 C 0.5993(5) 0.1599(5) 0.1281(5)
C15 C 0.5418(5) 0.1141(5) 0.1271(4)
C16 C 0.4721(5) 0.1342(5) 0.1344(4)
C17 C 0.5173(6) 0.3318(5) 0.1650(6)
C18 C 0.4600(6) 0.3711(5) 0.1021(6)
C19 C 0.5939(6) 0.3683(5) 0.1763(6)
C20 C 0.4985(6) 0.3425(5) 0.2381(6)
C21 C 0.6725(6) 0.1329(6) 0.1174(6)
C22 C 0.6600(7) 0.0949(8) 0.0476(8)
C23 C 0.7086(7) 0.0806(7) 0.1778(8)
C24 C 0.7298(6) 0.1859(7) 0.1232(9)
C25 C 0.4142(5) 0.0761(5) 0.1358(6)
C26 C 0.3938(5) 0.0784(5) 0.2088(6)
C27 C 0.3428(5) 0.0797(5) 0.0666(5)
C28 C 0.4475(5) 0.0033(5) 0.1326(6)
O1 O 0.1676(4) 0.2168(3) 0.0754(3)
C29 C 0.1909(12) 0.1605(16) 0.1358(13)
C30 C 0.1263(8) 0.1342(7) 0.1382(8)
C31 C 0.0604(7) 0.1636(8) 0.0845(7)
C32 C 0.0846(12) 0.2140(13) 0.0446(12)
O2 O 0.2200(4) 0.3731(4) 0.0718(4)
C33 C 0.1941(16) 0.4433(14) 0.0392(13)
C34 C 0.1980(11) 0.4742(9) 0.1171(10)
C35 C 0.2584(11) 0.4291(12) 0.1704(9)
C36 C 0.2525(21) 0.3626(19) 0.1568(20)
H1 H 0.6273 0.2611 0.1416
H2 H 0.5503 0.0655 0.1211
H3 H 0.4111 0.3502 0.0929
H4 H 0.4753 0.3690 0.0576
H5 H 0.4578 0.4188 0.1165
H6 H 0.6092 0.3634 0.1320
H7 H 0.6312 0.3474 0.2176
H8 H 0.5891 0.4167 0.1864
H9 H 0.4509 0.3209 0.2348
H10 H 0.4953 0.3914 0.2472
H11 H 0.5374 0.3221 0.2784
H12 H 0.6369 0.1252 0.0064
H13 H 0.6273 0.0561 0.0468
H14 H 0.7074 0.0785 0.0434
H15 H 0.6735 0.0438 0.1772
H16 H 0.7222 0.1032 0.2256
H17 H 0.7531 0.0617 0.1690
H18 H 0.7104 0.2211 0.0861
H19 H 0.7738 0.1651 0.1153
H20 H 0.7429 0.2066 0.1719
H21 H 0.3726 0.1230 0.2139
H22 H 0.4385 0.0710 0.2499
H23 H 0.3575 0.0426 0.2085
H24 H 0.3189 0.1242 0.0651
H25 H 0.3080 0.0437 0.0699
H26 H 0.3572 0.0734 0.0220
H27 H 0.4614 -0.0012 0.0875
H28 H 0.4104 -0.0313 0.1334
H29 H 0.4913 -0.0030 0.1748
H30 H 0.1270 0.0851 0.1291
H31 H 0.1219 0.1419 0.1872
H32 H 0.0277 0.1839 0.1099
H33 H 0.0336 0.1278 0.0513
H34 H 0.2207 0.5119 0.0979
H35 H 0.1635 0.4925 0.1417
H36 H 0.2741 0.4490 0.2195
S1A S 0.1316(1) 0.2386(2) -0.1410(1)
O1A O 0.3324(4) 0.2168(3) -0.0754(3)
O2A O 0.2800(4) 0.3731(4) -0.0718(4)
C11A C 0.0405(5) 0.2072(5) -0.1407(4)
C29A C 0.3091(12) 0.1605(16) -0.1358(13)
C32A C 0.4154(12) 0.2140(13) -0.0446(12)
C33A C 0.3059(16) 0.4433(14) -0.0392(13)
C36A C 0.2475(21) 0.3626(19) -0.1568(20)
C12A C -0.0198(5) 0.2541(4) -0.1481(4)
C16A C 0.0279(5) 0.1342(5) -0.1344(4)
C30A C 0.3737(8) 0.1342(7) -0.1382(8)
C31A C 0.4396(7) 0.1636(8) -0.0845(7)
C34A C 0.3020(11) 0.4742(9) -0.1171(10)
C35A C 0.2416(11) 0.4291(12) -0.1704(9)
C13A C -0.0873(5) 0.2287(5) -0.1394(4)
C17A C -0.0173(6) 0.3318(5) -0.1650(6)
C15A C -0.0418(5) 0.1141(5) -0.1271(4)
C25A C 0.0858(5) 0.0761(5) -0.1358(6)
H30A H 0.3730 0.0851 -0.1291
H31A H 0.3781 0.1419 -0.1872
H32A H 0.4723 0.1839 -0.1099
H33A H 0.4664 0.1278 -0.0513
H34A H 0.2793 0.5119 -0.0979
H35A H 0.3365 0.4925 -0.1417
H36A H 0.2259 0.4490 -0.2195
C14A C -0.0993(5) 0.1599(5) -0.1281(5)
H1A H -0.1273 0.2611 -0.1416
C18A C 0.0400(6) 0.3711(5) -0.1021(6)
C19A C -0.0939(6) 0.3683(5) -0.1763(6)
C20A C 0.0015(6) 0.3425(5) -0.2381(6)
H2A H -0.0503 0.0655 -0.1211
C26A C 0.1062(5) 0.0784(5) -0.2088(6)
C27A C 0.1572(5) 0.0797(5) -0.0666(5)
C28A C 0.0525(5) 0.0033(5) -0.1326(6)
C21A C -0.1725(6) 0.1329(6) -0.1174(6)
H3A H 0.0889 0.3502 -0.0929
H4A H 0.0247 0.3690 -0.0576
H5A H 0.0422 0.4188 -0.1165
H6A H -0.1092 0.3634 -0.1320
H7A H -0.1312 0.3474 -0.2176
H8A H -0.0891 0.4167 -0.1864
H9A H 0.0491 0.3209 -0.2348
H10A H 0.0047 0.3914 -0.2472
H11A H -0.0374 0.3221 -0.2784
H21A H 0.1274 0.1230 -0.2139
H22A H 0.0615 0.0710 -0.2499
H23A H 0.1425 0.0426 -0.2085
H24A H 0.1811 0.1242 -0.0651
H25A H 0.1920 0.0437 -0.0699
H26A H 0.1428 0.0734 -0.0220
H27A H 0.0386 -0.0012 -0.0875
H28A H 0.0896 -0.0313 -0.1334
H29A H 0.0087 -0.0030 -0.1748
C22A C -0.1600(7) 0.0949(8) -0.0476(8)
C23A C -0.2086(7) 0.0806(7) -0.1778(8)
C24A C -0.2298(6) 0.1859(7) -0.1232(9)
H12A H -0.1369 0.1252 -0.0064
H13A H -0.1273 0.0561 -0.0468
H14A H -0.2074 0.0785 -0.0434
H15A H -0.1735 0.0438 -0.1772
H16A H -0.2222 0.1032 -0.2256
H17A H -0.2531 0.0617 -0.1690
H18A H -0.2104 0.2211 -0.0861
H19A H -0.2738 0.1651 -0.1153
H20A H -0.2429 0.2066 -0.1719
C1 C 0.5519(19) 0.0949(18) 0.4087(20)
C2 C 0.6137(22) 0.0888(20) 0.4480(19)
C3 C 0.5918(21) 0.0795(18) 0.3505(19)
C4 C 0.6495(19) 0.1246(19) 0.3579(20)
C5 C 0.6177(20) 0.1990(17) 0.3997(21)
C6 C 0.6447(20) 0.0731(18) 0.4105(22)
C7 C 0.5932(19) 0.1647(19) 0.4527(19)
C8 C 0.5507(19) 0.1657(18) 0.3719(20)
C9 C 0.5937(22) 0.1569(19) 0.3361(19)
C10 C 0.6697(19) 0.1409(18) 0.4519(18)
C37? C 0.1885(12) 0.1947(16) 0.1558(13)
C38? C 0.0907(12) 0.2423(13) 0.0625(14)
C39? C 0.1580(19) 0.4245(16) 0.0553(17)
C40? C 0.2183(22) 0.3662(22) 0.1522(22)
H37? H 0.2613 0.4638 0.1345
loop_
_geom_bond_atom_site_label_1
_geom_bond_atom_site_label_2
_geom_bond_site_symmetry_1
_geom_bond_site_symmetry_2
C1 C2 1_555 1_555
C2 C6 1_555 1_555
C3 C1 1_555 1_555
C4 C3 1_555 1_555
C5 C7 1_555 1_555
C6 C3 1_555 1_555
C7 C2 1_555 1_555
C8 C1 1_555 1_555
C9 C3 1_555 1_555
C10 C2 1_555 1_555
Sr1 S1 1_555 1_555
S1 C11 1_555 1_555
C11 C12 1_555 1_555
C12 C13 1_555 1_555
C13 C14 1_555 1_555
C14 C15 1_555 1_555
C15 C16 1_555 1_555
C16 C11 1_555 1_555
C17 C12 1_555 1_555
C18 C17 1_555 1_555
C19 C17 1_555 1_555
C20 C17 1_555 1_555
C21 C14 1_555 1_555
C22 C21 1_555 1_555
C23 C21 1_555 1_555
C24 C21 1_555 1_555
C25 C16 1_555 1_555
C26 C25 1_555 1_555
C27 C25 1_555 1_555
C28 C25 1_555 1_555
O1 Sr1 1_555 1_555
C29 O1 1_555 1_555
C30 C29 1_555 1_555
C31 C30 1_555 1_555
C32 O1 1_555 1_555
O2 Sr1 1_555 1_555
C33 O2 1_555 1_555
C34 C33 1_555 1_555
C35 C34 1_555 1_555
C36 O2 1_555 1_555
H1 C13 1_555 1_555
H2 C15 1_555 1_555
H3 C18 1_555 1_555
H4 C18 1_555 1_555
H5 C18 1_555 1_555
H6 C19 1_555 1_555
H7 C19 1_555 1_555
H8 C19 1_555 1_555
H9 C20 1_555 1_555
H10 C20 1_555 1_555
H11 C20 1_555 1_555
H12 C22 1_555 1_555
H13 C22 1_555 1_555
H14 C22 1_555 1_555
H15 C23 1_555 1_555
H16 C23 1_555 1_555
H17 C23 1_555 1_555
H18 C24 1_555 1_555
H19 C24 1_555 1_555
H20 C24 1_555 1_555
H21 C26 1_555 1_555
H22 C26 1_555 1_555
H23 C26 1_555 1_555
H24 C27 1_555 1_555
H25 C27 1_555 1_555
H26 C27 1_555 1_555
H27 C28 1_555 1_555
H28 C28 1_555 1_555
H29 C28 1_555 1_555
H30 C30 1_555 1_555
H31 C30 1_555 1_555
H32 C31 1_555 1_555
H33 C31 1_555 1_555
H34 C34 1_555 1_555
H35 C34 1_555 1_555
H36 C35 1_555 1_555
S1A Sr1 1_555 1_555
O1A Sr1 1_555 1_555
O2A Sr1 1_555 1_555
C11A S1A 1_555 1_555
C29A O1A 1_555 1_555
C32A O1A 1_555 1_555
C33A O2A 1_555 1_555
C36A O2A 1_555 1_555
C12A C11A 1_555 1_555
C16A C11A 1_555 1_555
C30A C29A 1_555 1_555
C31A C32A 1_555 1_555
C34A C33A 1_555 1_555
C35A C36A 1_555 1_555
C13A C12A 1_555 1_555
C17A C12A 1_555 1_555
C15A C16A 1_555 1_555
C25A C16A 1_555 1_555
H30A C30A 1_555 1_555
H31A C30A 1_555 1_555
H32A C31A 1_555 1_555
H33A C31A 1_555 1_555
H34A C34A 1_555 1_555
H35A C34A 1_555 1_555
H36A C35A 1_555 1_555
C14A C13A 1_555 1_555
H1A C13A 1_555 1_555
C18A C17A 1_555 1_555
C19A C17A 1_555 1_555
C20A C17A 1_555 1_555
H2A C15A 1_555 1_555
C26A C25A 1_555 1_555
C27A C25A 1_555 1_555
C28A C25A 1_555 1_555
C21A C14A 1_555 1_555
H3A C18A 1_555 1_555
H4A C18A 1_555 1_555
H5A C18A 1_555 1_555
H6A C19A 1_555 1_555
H7A C19A 1_555 1_555
H8A C19A 1_555 1_555
H9A C20A 1_555 1_555
H10A C20A 1_555 1_555
H11A C20A 1_555 1_555
H21A C26A 1_555 1_555
H22A C26A 1_555 1_555
H23A C26A 1_555 1_555
H24A C27A 1_555 1_555
H25A C27A 1_555 1_555
H26A C27A 1_555 1_555
H27A C28A 1_555 1_555
H28A C28A 1_555 1_555
H29A C28A 1_555 1_555
C22A C21A 1_555 1_555
C23A C21A 1_555 1_555
C24A C21A 1_555 1_555
H12A C22A 1_555 1_555
H13A C22A 1_555 1_555
H14A C22A 1_555 1_555
H15A C23A 1_555 1_555
H16A C23A 1_555 1_555
H17A C23A 1_555 1_555
H18A C24A 1_555 1_555
H19A C24A 1_555 1_555
H20A C24A 1_555 1_555
C4 C6 1_555 1_555
C4 C9 1_555 1_555
C5 C8 1_555 1_555
C5 C9 1_555 1_555
C6 C10 1_555 1_555
C7 C8 1_555 1_555
C7 C10 1_555 1_555
C8 C9 1_555 1_555
C31 C32 1_555 1_555
C35 C36 1_555 1_555
C30A C31A 1_555 1_555
C34A C35A 1_555 1_555
C15A C14A 1_555 1_555

#END
