
#######################################################################
#
#                 Cambridge Crystallographic Data Centre
#                                CCDC 
#
#######################################################################
#
# If this CIF has been generated from an entry in the Cambridge 
# Structural Database, then it will include bibliographic, chemical, 
# crystal, experimental, refinement or atomic coordinate data resulting 
# from the CCDC's data processing and validation procedures.
#
#######################################################################

data_YUGMUI
_chemical_formula_moiety         'C52 H90 O4 Se2 Sr1,2(C4 H8 O1)'
_chemical_name_systematic        
'bis(2,4,6-Tri-t-butylphenylselenolato-Se)-tetrakis(tetrahydrofuran-O)-strontium tetrahydrofuran solvate'
_symmetry_cell_setting           monoclinic
_symmetry_space_group_name_H-M   'I 2/a'
_symmetry_Int_Tables_number      15
_space_group_name_Hall           '-I 2ya'
loop_
_symmetry_equiv_pos_site_id
_symmetry_equiv_pos_as_xyz
1 x,y,z
2 1/2-x,y,-z
3 1/2+x,1/2+y,1/2+z
4 -x,1/2+y,1/2-z
5 -x,-y,-z
6 1/2+x,-y,z
7 1/2-x,1/2-y,1/2-z
8 x,1/2-y,1/2+z
_cell_length_a                   18.330(4)
_cell_length_b                   19.498(4)
_cell_length_c                   18.608(4)
_cell_angle_alpha                90
_cell_angle_beta                 105.52(3)
_cell_angle_gamma                90
_cell_volume                     6407.97
_exptl_crystal_colour            colorless
_chemical_melting_point          120-125deg.C
_cell_formula_units_Z            4
loop_
_atom_site_label
_atom_site_type_symbol
_atom_site_fract_x
_atom_site_fract_y
_atom_site_fract_z
Sr1 Sr 0.2500 0.2715(1) 0.0000
Se1 Se 0.3724(1) 0.2604(1) 0.1486(1)
C11 C 0.4666(4) 0.2146(4) 0.1480(5)
C12 C 0.5324(4) 0.2526(4) 0.1508(5)
C13 C 0.5945(4) 0.2192(4) 0.1373(4)
C14 C 0.5971(4) 0.1506(4) 0.1244(5)
C15 C 0.5356(5) 0.1128(4) 0.1294(5)
C16 C 0.4699(4) 0.1418(4) 0.1406(5)
C17 C 0.5422(5) 0.3302(4) 0.1702(6)
C18 C 0.4931(5) 0.3753(4) 0.1107(7)
C19 C 0.6242(5) 0.3549(4) 0.1805(6)
C20 C 0.5260(5) 0.3429(5) 0.2463(6)
C21 C 0.6663(5) 0.1142(5) 0.1116(6)
C22 C 0.6420(6) 0.0731(5) 0.0384(7)
C23 C 0.6982(5) 0.0632(5) 0.1740(7)
C24 C 0.7276(5) 0.1632(5) 0.1063(6)
C25 C 0.4049(5) 0.0912(4) 0.1469(6)
C26 C 0.3828(5) 0.1029(5) 0.2214(6)
C27 C 0.3341(4) 0.0984(4) 0.0801(5)
C28 C 0.4306(5) 0.0147(4) 0.1469(6)
O1 O 0.1618(3) 0.2206(3) 0.0743(4)
C29 C 0.1811(5) 0.2018(6) 0.1503(6)
C30 C 0.1384(7) 0.1368(6) 0.1520(8)
C31 C 0.0695(7) 0.1453(7) 0.0909(8)
C32 C 0.0826(5) 0.2076(5) 0.0476(6)
O2 O 0.2160(4) 0.3738(3) 0.0686(4)
C33 C 0.1556(24) 0.4255(22) 0.0331(27)
C34 C 0.1459(9) 0.4647(7) 0.0903(10)
C35 C 0.2195(8) 0.4772(8) 0.1248(11)
C36 C 0.2744(33) 0.4374(29) 0.0817(35)
H1 H 0.6383 0.2460 0.1368
H2 H 0.5372 0.0639 0.1239
H3 H 0.4411 0.3623 0.1034
H4 H 0.5074 0.3687 0.0652
H5 H 0.4993 0.4227 0.1251
H6 H 0.6376 0.3463 0.1348
H7 H 0.6581 0.3304 0.2205
H8 H 0.6279 0.4032 0.1911
H9 H 0.4754 0.3288 0.2445
H10 H 0.5311 0.3913 0.2560
H11 H 0.5613 0.3185 0.2853
H12 H 0.6024 0.0414 0.0403
H13 H 0.6844 0.0484 0.0304
H14 H 0.6236 0.1050 -0.0017
H15 H 0.6590 0.0317 0.1775
H16 H 0.7158 0.0875 0.2203
H17 H 0.7394 0.0383 0.1638
H18 H 0.7083 0.1955 0.0669
H19 H 0.7689 0.1381 0.0962
H20 H 0.7452 0.1873 0.1527
H21 H 0.3668 0.1495 0.2237
H22 H 0.4255 0.0938 0.2630
H23 H 0.3420 0.0725 0.2231
H24 H 0.3155 0.1446 0.0767
H25 H 0.2956 0.0677 0.0872
H26 H 0.3471 0.0866 0.0350
H27 H 0.4749 0.0073 0.1874
H28 H 0.4419 0.0043 0.1006
H29 H 0.3905 -0.0146 0.1528
H30 H 0.2346 0.1942 0.1686
H31 H 0.1657 0.2366 0.1797
H32 H 0.1264 0.1317 0.1988
H33 H 0.1670 0.0979 0.1435
H34 H 0.0610 0.1054 0.0595
H35 H 0.0266 0.1525 0.1104
H36 H 0.0539 0.2460 0.0572
H37 H 0.0690 0.1981 -0.0050
H38 H 0.1211 0.4399 0.1216
H39 H 0.1183 0.5060 0.0730
H40 H 0.2351 0.5180 0.1041
H41 H 0.2250 0.4839 0.1771
Se1A Se 0.1276(1) 0.2604(1) -0.1486(1)
O1A O 0.3382(3) 0.2206(3) -0.0743(4)
O2A O 0.2840(4) 0.3738(3) -0.0686(4)
C11A C 0.0334(4) 0.2146(4) -0.1480(5)
C29A C 0.3189(5) 0.2018(6) -0.1503(6)
C32A C 0.4174(5) 0.2076(5) -0.0476(6)
C33A C 0.3444(24) 0.4255(22) -0.0331(27)
C36A C 0.2256(33) 0.4374(29) -0.0817(35)
C12A C -0.0324(4) 0.2526(4) -0.1508(5)
C16A C 0.0301(4) 0.1418(4) -0.1406(5)
C30A C 0.3616(7) 0.1368(6) -0.1520(8)
H30A H 0.2654 0.1942 -0.1686
H31A H 0.3343 0.2366 -0.1797
C31A C 0.4305(7) 0.1453(7) -0.0909(8)
H36A H 0.4461 0.2460 -0.0572
H37A H 0.4310 0.1981 0.0050
C34A C 0.3541(9) 0.4647(7) -0.0903(10)
C35A C 0.2805(8) 0.4772(8) -0.1248(11)
C13A C -0.0945(4) 0.2192(4) -0.1373(4)
C17A C -0.0422(5) 0.3302(4) -0.1702(6)
C15A C -0.0356(5) 0.1128(4) -0.1294(5)
C25A C 0.0951(5) 0.0912(4) -0.1469(6)
H32A H 0.3736 0.1317 -0.1988
H33A H 0.3330 0.0979 -0.1435
H34A H 0.4390 0.1054 -0.0595
H35A H 0.4734 0.1525 -0.1104
H38A H 0.3789 0.4399 -0.1216
H39A H 0.3817 0.5060 -0.0730
H40A H 0.2649 0.5180 -0.1041
H41A H 0.2750 0.4839 -0.1771
C14A C -0.0971(4) 0.1506(4) -0.1244(5)
H1A H -0.1383 0.2460 -0.1368
C18A C 0.0069(5) 0.3753(4) -0.1107(7)
C19A C -0.1242(5) 0.3549(4) -0.1805(6)
C20A C -0.0260(5) 0.3429(5) -0.2463(6)
H2A H -0.0372 0.0639 -0.1239
C26A C 0.1172(5) 0.1029(5) -0.2214(6)
C27A C 0.1659(4) 0.0984(4) -0.0801(5)
C28A C 0.0694(5) 0.0147(4) -0.1469(6)
C21A C -0.1663(5) 0.1142(5) -0.1116(6)
H3A H 0.0589 0.3623 -0.1034
H4A H -0.0074 0.3687 -0.0652
H5A H 0.0007 0.4227 -0.1251
H6A H -0.1376 0.3463 -0.1348
H7A H -0.1581 0.3304 -0.2205
H8A H -0.1279 0.4032 -0.1911
H9A H 0.0246 0.3288 -0.2445
H10A H -0.0311 0.3913 -0.2560
H11A H -0.0613 0.3185 -0.2853
H21A H 0.1332 0.1495 -0.2237
H22A H 0.0745 0.0938 -0.2630
H23A H 0.1580 0.0725 -0.2231
H24A H 0.1845 0.1446 -0.0767
H25A H 0.2044 0.0677 -0.0872
H26A H 0.1529 0.0866 -0.0350
H27A H 0.0251 0.0073 -0.1874
H28A H 0.0581 0.0043 -0.1006
H29A H 0.1095 -0.0146 -0.1528
C22A C -0.1420(6) 0.0731(5) -0.0384(7)
C23A C -0.1982(5) 0.0632(5) -0.1740(7)
C24A C -0.2276(5) 0.1632(5) -0.1063(6)
H12A H -0.1024 0.0414 -0.0403
H13A H -0.1844 0.0484 -0.0304
H14A H -0.1236 0.1050 0.0017
H15A H -0.1590 0.0317 -0.1775
H16A H -0.2158 0.0875 -0.2203
H17A H -0.2394 0.0383 -0.1638
H18A H -0.2083 0.1955 -0.0669
H19A H -0.2689 0.1381 -0.0962
H20A H -0.2452 0.1873 -0.1527
C1 C 0.5664(19) 0.1188(21) 0.4262(22)
C2 C 0.6749(18) 0.1548(18) 0.3866(22)
C3 C 0.6504(20) 0.1447(19) 0.4665(21)
C4 C 0.5958(21) 0.1925(19) 0.4377(23)
C5 C 0.6020(19) 0.0966(19) 0.3380(22)
C6 C 0.6344(20) 0.2048(19) 0.4049(23)
C7 C 0.5557(19) 0.1655(18) 0.3702(24)
C8 C 0.5919(21) 0.0816(19) 0.3944(26)
C9 C 0.6449(20) 0.0835(18) 0.4257(23)
C10 C 0.6105(21) 0.1588(19) 0.3314(22)
C37? C 0.1463(8) 0.3848(7) 0.0856(9)
C38? C 0.2660(12) 0.4218(11) 0.1152(13)
loop_
_geom_bond_atom_site_label_1
_geom_bond_atom_site_label_2
_geom_bond_site_symmetry_1
_geom_bond_site_symmetry_2
C1 C3 1_555 1_555
C2 C3 1_555 1_555
C3 C4 1_555 1_555
C4 C1 1_555 1_555
C5 C8 1_555 1_555
C6 C2 1_555 1_555
C7 C1 1_555 1_555
C8 C1 1_555 1_555
C9 C1 1_555 1_555
C10 C2 1_555 1_555
Sr1 Se1 1_555 1_555
Se1 C11 1_555 1_555
C11 C12 1_555 1_555
C12 C13 1_555 1_555
C13 C14 1_555 1_555
C14 C15 1_555 1_555
C15 C16 1_555 1_555
C16 C11 1_555 1_555
C17 C12 1_555 1_555
C18 C17 1_555 1_555
C19 C17 1_555 1_555
C20 C17 1_555 1_555
C21 C14 1_555 1_555
C22 C21 1_555 1_555
C23 C21 1_555 1_555
C24 C21 1_555 1_555
C25 C16 1_555 1_555
C26 C25 1_555 1_555
C27 C25 1_555 1_555
C28 C25 1_555 1_555
O1 Sr1 1_555 1_555
C29 O1 1_555 1_555
C30 C29 1_555 1_555
C31 C30 1_555 1_555
C32 O1 1_555 1_555
O2 Sr1 1_555 1_555
C33 O2 1_555 1_555
C34 C33 1_555 1_555
C35 C34 1_555 1_555
C36 O2 1_555 1_555
H1 C13 1_555 1_555
H2 C15 1_555 1_555
H3 C18 1_555 1_555
H4 C18 1_555 1_555
H5 C18 1_555 1_555
H6 C19 1_555 1_555
H7 C19 1_555 1_555
H8 C19 1_555 1_555
H9 C20 1_555 1_555
H10 C20 1_555 1_555
H11 C20 1_555 1_555
H12 C22 1_555 1_555
H13 C22 1_555 1_555
H14 C22 1_555 1_555
H15 C23 1_555 1_555
H16 C23 1_555 1_555
H17 C23 1_555 1_555
H18 C24 1_555 1_555
H19 C24 1_555 1_555
H20 C24 1_555 1_555
H21 C26 1_555 1_555
H22 C26 1_555 1_555
H23 C26 1_555 1_555
H24 C27 1_555 1_555
H25 C27 1_555 1_555
H26 C27 1_555 1_555
H27 C28 1_555 1_555
H28 C28 1_555 1_555
H29 C28 1_555 1_555
H30 C29 1_555 1_555
H31 C29 1_555 1_555
H32 C30 1_555 1_555
H33 C30 1_555 1_555
H34 C31 1_555 1_555
H35 C31 1_555 1_555
H36 C32 1_555 1_555
H37 C32 1_555 1_555
H38 C34 1_555 1_555
H39 C34 1_555 1_555
H40 C35 1_555 1_555
H41 C35 1_555 1_555
Se1A Sr1 1_555 1_555
O1A Sr1 1_555 1_555
O2A Sr1 1_555 1_555
C11A Se1A 1_555 1_555
C29A O1A 1_555 1_555
C32A O1A 1_555 1_555
C33A O2A 1_555 1_555
C36A O2A 1_555 1_555
C12A C11A 1_555 1_555
C16A C11A 1_555 1_555
C30A C29A 1_555 1_555
H30A C29A 1_555 1_555
H31A C29A 1_555 1_555
C31A C32A 1_555 1_555
H36A C32A 1_555 1_555
H37A C32A 1_555 1_555
C34A C33A 1_555 1_555
C35A C36A 1_555 1_555
C13A C12A 1_555 1_555
C17A C12A 1_555 1_555
C15A C16A 1_555 1_555
C25A C16A 1_555 1_555
H32A C30A 1_555 1_555
H33A C30A 1_555 1_555
H34A C31A 1_555 1_555
H35A C31A 1_555 1_555
H38A C34A 1_555 1_555
H39A C34A 1_555 1_555
H40A C35A 1_555 1_555
H41A C35A 1_555 1_555
C14A C13A 1_555 1_555
H1A C13A 1_555 1_555
C18A C17A 1_555 1_555
C19A C17A 1_555 1_555
C20A C17A 1_555 1_555
H2A C15A 1_555 1_555
C26A C25A 1_555 1_555
C27A C25A 1_555 1_555
C28A C25A 1_555 1_555
C21A C14A 1_555 1_555
H3A C18A 1_555 1_555
H4A C18A 1_555 1_555
H5A C18A 1_555 1_555
H6A C19A 1_555 1_555
H7A C19A 1_555 1_555
H8A C19A 1_555 1_555
H9A C20A 1_555 1_555
H10A C20A 1_555 1_555
H11A C20A 1_555 1_555
H21A C26A 1_555 1_555
H22A C26A 1_555 1_555
H23A C26A 1_555 1_555
H24A C27A 1_555 1_555
H25A C27A 1_555 1_555
H26A C27A 1_555 1_555
H27A C28A 1_555 1_555
H28A C28A 1_555 1_555
H29A C28A 1_555 1_555
C22A C21A 1_555 1_555
C23A C21A 1_555 1_555
C24A C21A 1_555 1_555
H12A C22A 1_555 1_555
H13A C22A 1_555 1_555
H14A C22A 1_555 1_555
H15A C23A 1_555 1_555
H16A C23A 1_555 1_555
H17A C23A 1_555 1_555
H18A C24A 1_555 1_555
H19A C24A 1_555 1_555
H20A C24A 1_555 1_555
C2 C9 1_555 1_555
C3 C6 1_555 1_555
C3 C9 1_555 1_555
C4 C6 1_555 1_555
C4 C7 1_555 1_555
C5 C9 1_555 1_555
C5 C10 1_555 1_555
C6 C7 1_555 1_555
C6 C10 1_555 1_555
C7 C10 1_555 1_555
C8 C9 1_555 1_555
C31 C32 1_555 1_555
C35 C36 1_555 1_555
C30A C31A 1_555 1_555
C34A C35A 1_555 1_555
C15A C14A 1_555 1_555

#END
