
#######################################################################
#
#                 Cambridge Crystallographic Data Centre
#                                CCDC 
#
#######################################################################
#
# If this CIF has been generated from an entry in the Cambridge 
# Structural Database, then it will include bibliographic, chemical, 
# crystal, experimental, refinement or atomic coordinate data resulting 
# from the CCDC's data processing and validation procedures.
#
#######################################################################

data_YUGNAQ01
_chemical_formula_moiety         'C22 H19 N1'
_chemical_name_systematic        4-(9-Anthryl)-N,N-dimethylaniline
_symmetry_cell_setting           monoclinic
_symmetry_space_group_name_H-M   'C 2/c'
_symmetry_Int_Tables_number      15
_space_group_name_Hall           '-C 2yn'
loop_
_symmetry_equiv_pos_site_id
_symmetry_equiv_pos_as_xyz
1 x,y,z
2 -x,y,1/2-z
3 1/2+x,1/2+y,z
4 1/2-x,1/2+y,1/2-z
5 -x,-y,-z
6 x,-y,1/2+z
7 1/2-x,1/2-y,-z
8 1/2+x,1/2-y,1/2+z
_cell_length_a                   16.483(10)
_cell_length_b                   8.655(5)
_cell_length_c                   22.315(13)
_cell_angle_alpha                90
_cell_angle_beta                 98.611(6)
_cell_angle_gamma                90
_cell_volume                     3147.58
_exptl_crystal_colour            colorless
_exptl_crystal_description       prism
_chemical_melting_point          262-264deg.C
_cell_formula_units_Z            8
loop_
_atom_site_label
_atom_site_type_symbol
_atom_site_fract_x
_atom_site_fract_y
_atom_site_fract_z
C1 C 0.47797(12) 0.7514(2) 0.11113(8)
H1 H 0.5137 0.8128 0.0913
C2 C 0.50873(11) 0.6169(2) 0.14307(8)
H2 H 0.5648 0.5890 0.1449
C3 C 0.45772(10) 0.5280(2) 0.17107(8)
H3 H 0.4788 0.4382 0.1925
C4 C 0.37274(10) 0.56680(19) 0.16905(7)
C5 C 0.31974(10) 0.47486(19) 0.19675(7)
H4 H 0.3404 0.3844 0.2178
C6 C 0.23673(10) 0.51250(18) 0.19429(7)
C7 C 0.20533(10) 0.65105(18) 0.16333(7)
C8 C 0.25773(10) 0.74472(18) 0.13414(7)
C9 C 0.34170(10) 0.70381(18) 0.13727(7)
C10 C 0.39803(11) 0.7935(2) 0.10856(8)
H5 H 0.3791 0.8847 0.0872
C11 C 0.22457(10) 0.88538(18) 0.10001(7)
C12 C 0.24600(10) 1.03467(19) 0.12016(8)
H6 H 0.2839 1.0473 0.1563
C13 C 0.21385(10) 1.16493(19) 0.08930(8)
H7 H 0.2310 1.2645 0.1040
C14 C 0.15593(10) 1.15165(18) 0.03625(7)
C15 C 0.13696(10) 1.00171(19) 0.01457(8)
H8 H 0.1006 0.9882 -0.0223
C16 C 0.17029(10) 0.87320(19) 0.04606(7)
H9 H 0.1556 0.7734 0.0303
C17 C 0.12061(10) 0.68829(19) 0.16388(7)
H10 H 0.0986 0.7803 0.1447
C18 C 0.07097(11) 0.5938(2) 0.19153(8)
H11 H 0.0151 0.6212 0.1914
C19 C 0.10188(11) 0.4556(2) 0.22036(8)
H12 H 0.0666 0.3903 0.2389
C20 C 0.18204(11) 0.4163(2) 0.22153(7)
H13 H 0.2020 0.3230 0.2408
N1 N 0.11895(9) 1.28027(15) 0.00761(6)
C21 C 0.14307(11) 1.43324(19) 0.02906(8)
H14 H 0.1429 1.4387 0.0729
H15 H 0.1043 1.5092 0.0086
H16 H 0.1983 1.4557 0.0202
C22 C 0.06674(12) 1.2652(2) -0.05023(8)
H17 H 0.0991 1.2267 -0.0805
H18 H 0.0435 1.3663 -0.0630
H19 H 0.0222 1.1924 -0.0464
loop_
_geom_bond_atom_site_label_1
_geom_bond_atom_site_label_2
_geom_bond_site_symmetry_1
_geom_bond_site_symmetry_2
C1 H1 1_555 1_555
C2 C1 1_555 1_555
H2 C2 1_555 1_555
C3 C2 1_555 1_555
H3 C3 1_555 1_555
C4 C3 1_555 1_555
C5 C4 1_555 1_555
H4 C5 1_555 1_555
C6 C5 1_555 1_555
C7 C6 1_555 1_555
C8 C7 1_555 1_555
C9 C4 1_555 1_555
C10 C1 1_555 1_555
H5 C10 1_555 1_555
C11 C8 1_555 1_555
C12 C11 1_555 1_555
H6 C12 1_555 1_555
C13 C12 1_555 1_555
H7 C13 1_555 1_555
C14 C13 1_555 1_555
C15 C14 1_555 1_555
H8 C15 1_555 1_555
C16 C11 1_555 1_555
H9 C16 1_555 1_555
C17 C7 1_555 1_555
H10 C17 1_555 1_555
C18 C17 1_555 1_555
H11 C18 1_555 1_555
C19 C18 1_555 1_555
H12 C19 1_555 1_555
C20 C6 1_555 1_555
H13 C20 1_555 1_555
N1 C14 1_555 1_555
C21 N1 1_555 1_555
H14 C21 1_555 1_555
H15 C21 1_555 1_555
H16 C21 1_555 1_555
C22 N1 1_555 1_555
H17 C22 1_555 1_555
H18 C22 1_555 1_555
H19 C22 1_555 1_555
C8 C9 1_555 1_555
C9 C10 1_555 1_555
C15 C16 1_555 1_555
C19 C20 1_555 1_555

#END
