
#######################################################################
#
#                 Cambridge Crystallographic Data Centre
#                                CCDC 
#
#######################################################################
#
# If this CIF has been generated from an entry in the Cambridge 
# Structural Database, then it will include bibliographic, chemical, 
# crystal, experimental, refinement or atomic coordinate data resulting 
# from the CCDC's data processing and validation procedures.
#
#######################################################################

data_YUGQEX
_chemical_formula_moiety         'C25 H28 O7'
_chemical_name_systematic        
'3-(5-Allyl-4-hydroxy-3-methoxytetrahydrofuran-2-yl)propane-1,2-diyl dibenzoate'
_symmetry_cell_setting           monoclinic
_symmetry_space_group_name_H-M   'P 21'
_symmetry_Int_Tables_number      4
_space_group_name_Hall           'P 2yb'
loop_
_symmetry_equiv_pos_site_id
_symmetry_equiv_pos_as_xyz
1 x,y,z
2 -x,1/2+y,-z
_cell_length_a                   10.24870(10)
_cell_length_b                   8.19010(10)
_cell_length_c                   14.35190(10)
_cell_angle_alpha                90
_cell_angle_beta                 102.0410(10)
_cell_angle_gamma                90
_cell_volume                     1178.16
_exptl_crystal_description       needle
_cell_formula_units_Z            2
loop_
_atom_site_label
_atom_site_type_symbol
_atom_site_fract_x
_atom_site_fract_y
_atom_site_fract_z
O1 O 0.70652(9) 0.46626(12) 0.58212(7)
O2 O 0.21982(9) 0.33737(13) 0.26696(7)
O3 O 0.02336(11) 0.35434(19) 0.30878(8)
O4 O 0.44334(9) 0.54840(11) 0.31818(6)
O5 O 0.51074(15) 0.41906(13) 0.19849(9)
O6 O 0.69874(9) 0.18181(11) 0.45223(7)
O7 O 0.94184(13) 0.50889(19) 0.46227(9)
H1 H 0.962(3) 0.476(4) 0.4141(19)
C1 C 0.65066(12) 0.46174(16) 0.48210(9)
H2 H 0.6570 0.5729 0.4546
C2 C 0.73947(12) 0.34468(16) 0.44092(9)
H3 H 0.7374 0.3698 0.3724
C3 C 0.87784(13) 0.38111(19) 0.50326(10)
H4 H 0.9345 0.2807 0.5142
C4 C 0.84871(13) 0.44734(18) 0.59655(10)
H5 H 0.8915 0.5571 0.6094
C5 C 0.50511(12) 0.41580(15) 0.47068(9)
H6 H 0.4599 0.5007 0.5015
H7 H 0.4993 0.3118 0.5047
C6 C 0.43097(13) 0.39660(15) 0.36811(9)
H8 H 0.4688 0.3037 0.3371
C7 C 0.28484(13) 0.36913(18) 0.36489(9)
H9 H 0.2728 0.2750 0.4055
H10 H 0.2454 0.4669 0.3888
C8 C 0.08688(14) 0.33232(19) 0.24881(10)
C9 C 0.02747(16) 0.2925(2) 0.14761(12)
C10 C -0.11051(19) 0.2999(3) 0.11863(14)
H11 H -0.1644 0.3310 0.1620
C11 C -0.1681(2) 0.2607(4) 0.02452(19)
H12 H -0.2623 0.2662 0.0035
C12 C -0.0908(3) 0.2146(4) -0.03778(18)
H13 H -0.1316 0.1875 -0.1016
C13 C 0.0447(3) 0.2072(4) -0.00898(16)
H14 H 0.0979 0.1749 -0.0526
C14 C 0.1045(2) 0.2468(3) 0.08403(13)
H15 H 0.1988 0.2424 0.1040
C15 C 0.48254(13) 0.54323(17) 0.23481(9)
C16 C 0.48785(13) 0.70941(16) 0.19420(9)
C17 C 0.54253(15) 0.72704(19) 0.11362(10)
H16 H 0.5739 0.6339 0.0854
C18 C 0.55117(18) 0.8803(2) 0.07473(11)
H17 H 0.5882 0.8925 0.0197
C19 C 0.50579(19) 1.0156(2) 0.11607(11)
H18 H 0.5132 1.1210 0.0900
C20 C 0.45016(18) 0.99835(19) 0.19456(11)
H19 H 0.4174 1.0916 0.2217
C21 C 0.44152(14) 0.84600(18) 0.23445(9)
H20 H 0.4039 0.8349 0.2893
C22 C 0.75155(15) 0.07132(19) 0.39272(12)
H21 H 0.7191 -0.0392 0.4009
H22 H 0.8492 0.0726 0.4103
H23 H 0.7227 0.1046 0.3260
C23 C 0.89261(13) 0.3406(2) 0.68405(11)
H24 H 0.8625 0.3910 0.7386
H25 H 0.8493 0.2324 0.6721
C24 C 1.0412(2) 0.3181(8) 0.7094(3)
H26 H 1.0845 0.2593 0.6675
C25 C 1.1111(3) 0.3776(5) 0.7879(3)
H27 H 1.0684 0.4365 0.8301
H28 H 1.2051 0.3624 0.8031
C26? C 1.0369(3) 0.3654(9) 0.7301(8)
C27? C 1.1239(3) 0.2498(7) 0.7314(4)
H29? H 0.8371 0.3659 0.7310
H30? H 0.8781 0.2246 0.6656
H31? H 1.0650 0.4675 0.7588
H32? H 1.0968 0.1472 0.7029
H33? H 1.2147 0.2677 0.7609
loop_
_geom_bond_atom_site_label_1
_geom_bond_atom_site_label_2
_geom_bond_site_symmetry_1
_geom_bond_site_symmetry_2
O1 C1 1_555 1_555
O2 C7 1_555 1_555
O3 C8 1_555 1_555
O4 C6 1_555 1_555
O5 C15 1_555 1_555
O6 C2 1_555 1_555
O7 H1 1_555 1_555
C1 H2 1_555 1_555
C2 C1 1_555 1_555
H3 C2 1_555 1_555
C3 O7 1_555 1_555
H4 C3 1_555 1_555
C4 O1 1_555 1_555
H5 C4 1_555 1_555
C5 C1 1_555 1_555
H6 C5 1_555 1_555
H7 C5 1_555 1_555
C6 C5 1_555 1_555
H8 C6 1_555 1_555
C7 C6 1_555 1_555
H9 C7 1_555 1_555
H10 C7 1_555 1_555
C8 O2 1_555 1_555
C9 C8 1_555 1_555
C10 C9 1_555 1_555
H11 C10 1_555 1_555
C11 C10 1_555 1_555
H12 C11 1_555 1_555
C12 C11 1_555 1_555
H13 C12 1_555 1_555
C13 C12 1_555 1_555
H14 C13 1_555 1_555
C14 C9 1_555 1_555
H15 C14 1_555 1_555
C15 O4 1_555 1_555
C16 C15 1_555 1_555
C17 C16 1_555 1_555
H16 C17 1_555 1_555
C18 C17 1_555 1_555
H17 C18 1_555 1_555
C19 C18 1_555 1_555
H18 C19 1_555 1_555
C20 C19 1_555 1_555
H19 C20 1_555 1_555
C21 C16 1_555 1_555
H20 C21 1_555 1_555
C22 O6 1_555 1_555
H21 C22 1_555 1_555
H22 C22 1_555 1_555
H23 C22 1_555 1_555
C23 C4 1_555 1_555
H24 C23 1_555 1_555
H25 C23 1_555 1_555
C24 C23 1_555 1_555
H26 C24 1_555 1_555
C25 C24 1_555 1_555
H27 C25 1_555 1_555
H28 C25 1_555 1_555
C2 C3 1_555 1_555
C3 C4 1_555 1_555
C13 C14 1_555 1_555
C20 C21 1_555 1_555

#END
