
#######################################################################
#
#                 Cambridge Crystallographic Data Centre
#                                CCDC 
#
#######################################################################
#
# If this CIF has been generated from an entry in the Cambridge 
# Structural Database, then it will include bibliographic, chemical, 
# crystal, experimental, refinement or atomic coordinate data resulting 
# from the CCDC's data processing and validation procedures.
#
#######################################################################

data_YUGVON
_chemical_formula_moiety         'C23 H31 N1 O6,0.25(H2 O1)'
_chemical_name_systematic        
'11-ethyl-3-hydroxy-5,7-dimethoxy-14-methyl-16-oxa-11-azaheptacyclo[12.2.2.1^3,6^.1^9,12^.0^2,10^.0^2,13^.0^4,9^]icosane-15,19-dione hydrate'
_symmetry_cell_setting           triclinic
_symmetry_space_group_name_H-M   'P 1'
_symmetry_Int_Tables_number      1
_space_group_name_Hall           'P 1'
loop_
_symmetry_equiv_pos_site_id
_symmetry_equiv_pos_as_xyz
1 x,y,z
_cell_length_a                   9.9076(5)
_cell_length_b                   10.4229(7)
_cell_length_c                   21.5965(11)
_cell_angle_alpha                88.167(5)
_cell_angle_beta                 88.290(4)
_cell_angle_gamma                73.765(5)
_cell_volume                     2139.65
_cell_formula_units_Z            4
loop_
_atom_site_label
_atom_site_type_symbol
_atom_site_fract_x
_atom_site_fract_y
_atom_site_fract_z
C1 C 1.0496(5) 0.8908(6) 0.8384(2)
H1 H 1.1428 0.8893 0.8214
C2 C 0.9839(5) 1.0222(5) 0.8723(2)
H2 H 1.0066 1.0067 0.9163
C3 C 0.8238(5) 0.7315(5) 0.9265(2)
C4 C 0.7911(5) 0.8808(5) 0.9410(2)
H3 H 0.8630 0.9041 0.9649
C5 C 0.9182(5) 0.7221(5) 0.8680(2)
C6 C 0.7684(5) 0.9481(5) 0.8745(2)
C7 C 1.0578(5) 0.7629(5) 0.8781(2)
H4 H 1.0663 0.7799 0.9216
H5 H 1.1390 0.6915 0.8655
C8 C 0.8397(5) 0.8377(5) 0.8258(2)
H6 H 0.7706 0.8136 0.8004
C9 C 0.5794(5) 0.8697(5) 0.9205(2)
H7 H 0.4790 0.8799 0.9282
C10 C 0.6115(5) 0.9602(5) 0.8677(2)
C11 C 0.8890(5) 0.6341(5) 0.9790(2)
H8 H 0.9861 0.6358 0.9849
C12 C 0.8847(7) 0.4903(6) 0.9677(3)
H9 H 0.9391 0.4568 0.9307
H10 H 0.9248 0.4324 1.0025
C13 C 0.7318(7) 0.4918(6) 0.9603(3)
H11 H 0.7077 0.4307 0.9906
H12 H 0.7201 0.4611 0.9194
C14 C 0.6314(6) 0.6338(5) 0.9689(2)
C15 C 0.6702(5) 0.7235(5) 0.9162(2)
H13 H 0.6624 0.6878 0.8754
C16 C 0.6696(6) 0.6802(5) 1.0307(3)
C17 C 0.4774(7) 0.6339(6) 0.9690(3)
H14 H 0.4191 0.7202 0.9808
H15 H 0.4630 0.5671 0.9981
H16 H 0.4532 0.6145 0.9284
C18 C 0.5864(5) 1.0490(5) 0.9917(2)
H17 H 0.4892 1.0594 1.0043
H18 H 0.5874 1.1106 0.9572
C19 C 0.6642(6) 1.0832(6) 1.0449(3)
H19 H 0.7576 1.0824 1.0313
H20 H 0.6694 1.0184 1.0781
H21 H 0.6153 1.1704 1.0594
C20 C 0.9962(6) 1.0026(6) 0.6997(3)
H22 H 0.9495 1.0720 0.6711
H23 H 1.0358 0.9214 0.6778
H24 H 1.0697 1.0285 0.7194
C21 C 1.1699(8) 1.1252(10) 0.8735(4)
H25 H 1.1993 1.2004 0.8577
H26 H 1.2377 1.0439 0.8614
H27 H 1.1626 1.1279 0.9179
C22 C 0.8227(5) 1.0710(5) 0.8674(2)
H28 H 0.7828 1.1337 0.8998
H29 H 0.7969 1.1152 0.8275
C23 C 0.9546(5) 0.8739(6) 0.7870(2)
H30 H 1.0046 0.7958 0.7631
N1 N 0.6502(4) 0.9110(4) 0.97166(18)
O1 O 0.8052(4) 0.6744(3) 1.03578(15)
O2 O 0.5907(4) 0.7097(4) 1.07526(18)
O3 O 0.9559(4) 0.5959(4) 0.83939(19)
H31 H 0.8873 0.5851 0.8222
O4 O 0.5309(4) 1.0290(4) 0.83144(18)
O5 O 0.8988(4) 0.9817(4) 0.74490(16)
O6 O 1.0377(4) 1.1299(4) 0.84930(18)
C24 C 0.7744(13) 0.4976(10) 0.3831(6)
H32 H 0.7787 0.4668 0.3415
H33 H 0.8646 0.4629 0.4017
H34 H 0.7489 0.5935 0.3825
C25 C 0.6756(14) 0.4542(9) 0.4170(4)
H35 H 0.5828 0.5116 0.4075
H36 H 0.6905 0.4618 0.4608
C26 C 0.5819(6) 0.1411(5) 0.3827(2)
C27 C 0.2268(9) 0.4063(6) 0.4372(3)
H37 H 0.2389 0.4428 0.3957
C28 C 0.3532(8) 0.4109(5) 0.4766(3)
H38 H 0.3810 0.4910 0.4656
H39 H 0.3258 0.4146 0.5201
C29 C 0.2153(7) 0.2671(6) 0.4309(3)
H40 H 0.1166 0.2694 0.4259
C30 C 0.4781(7) 0.2871(5) 0.4656(2)
C31 C 0.3086(6) 0.1827(6) 0.3780(3)
H41 H 0.2617 0.1218 0.3611
H42 H 0.3263 0.2411 0.3447
C32 C 0.6119(7) 0.2609(5) 0.5020(3)
C33 C 0.5430(7) 0.2888(5) 0.3983(2)
H43 H 0.4810 0.3484 0.3686
C34 C 0.4504(6) 0.1026(5) 0.4087(2)
C35 C 0.7189(6) 0.0856(5) 0.4219(2)
H44 H 0.7064 0.0184 0.4526
C36 C 0.8452(6) 0.0253(5) 0.3777(2)
C37 C 0.8489(8) 0.1252(6) 0.3256(3)
C38 C 0.6194(7) 0.1050(6) 0.3152(2)
H45 H 0.5354 0.1385 0.2901
C39 C 0.7296(7) 0.2132(6) 0.4543(3)
H46 H 0.8235 0.2080 0.4692
C40 C 0.4311(6) 0.1565(4) 0.4744(2)
H47 H 0.4887 0.0936 0.5044
C41 C 0.2750(6) 0.1780(5) 0.4869(2)
H48 H 0.2535 0.0923 0.4834
C42 C 0.0904(8) 0.2362(7) 0.5621(3)
H49 H 0.0297 0.3038 0.5365
H50 H 0.0715 0.2584 0.6049
H51 H 0.0737 0.1514 0.5552
C43 C 0.6773(7) -0.0418(6) 0.3068(3)
H52 H 0.7006 -0.0599 0.2634
H53 H 0.6079 -0.0872 0.3199
C44 C 0.8099(6) -0.0927(6) 0.3457(3)
H54 H 0.8885 -0.1380 0.3192
H55 H 0.7949 -0.1566 0.3770
C45 C 0.9836(7) -0.0210(7) 0.4102(3)
H56 H 1.0132 0.0553 0.4213
H57 H 1.0531 -0.0758 0.3830
H58 H 0.9728 -0.0719 0.4469
C46 C 0.0587(8) 0.6144(7) 0.4451(4)
H59 H 0.0493 0.6180 0.4009
H60 H 0.1265 0.6596 0.4559
H61 H -0.0305 0.6572 0.4643
N2 N 0.6808(7) 0.3137(5) 0.4043(2)
O7 O 0.7278(5) 0.1669(4) 0.29280(18)
O8 O 0.2317(5) 0.2287(4) 0.54698(16)
O9 O 0.4577(4) -0.0356(3) 0.40684(18)
H62 H 0.5145 -0.0776 0.4322
O10 O 0.6225(5) 0.2798(4) 0.55661(17)
O11 O 0.9496(6) 0.1614(5) 0.3091(2)
O12 O 0.1011(6) 0.4880(5) 0.4646(2)
C47 C 0.3625(6) 0.1530(5) 0.7070(3)
H63 H 0.3572 0.1563 0.6626
H64 H 0.3002 0.1047 0.7242
H65 H 0.4571 0.1088 0.7188
C48 C 0.6950(5) 0.7458(5) 0.5499(2)
C49 C 0.7747(5) 0.5400(4) 0.6037(2)
H66 H 0.7937 0.4437 0.5977
C50 C 0.9107(5) 0.5720(5) 0.6184(2)
H67 H 0.9788 0.5452 0.5847
H68 H 0.9503 0.5243 0.6559
C51 C 0.8758(5) 0.7227(5) 0.6271(2)
H69 H 0.9361 0.7593 0.5998
H70 H 0.8945 0.7398 0.6694
C52 C 0.7202(5) 0.7935(4) 0.6129(2)
C53 C 0.6915(6) 0.9444(5) 0.6132(3)
H71 H 0.5955 0.9859 0.6026
H72 H 0.7528 0.9716 0.5835
H73 H 0.7083 0.9713 0.6537
C54 C 0.6302(5) 0.7397(4) 0.6619(2)
H74 H 0.6528 0.7591 0.7039
C55 C 0.6600(4) 0.5843(4) 0.65406(19)
C56 C 0.6804(5) 0.3515(4) 0.7076(2)
H75 H 0.6747 0.3329 0.6642
H76 H 0.7655 0.2907 0.7239
C57 C 0.5493(5) 0.3329(4) 0.7443(2)
H77 H 0.5698 0.2432 0.7635
C58 C 0.4133(5) 0.3635(4) 0.7064(2)
H78 H 0.4394 0.3394 0.6633
C59 C 0.2640(8) 0.8489(7) 0.5401(4)
H79 H 0.3230 0.8387 0.5035
H80 H 0.2719 0.9246 0.5624
H81 H 0.1681 0.8626 0.5286
C60 C 0.3087(5) 0.7269(5) 0.5799(3)
H82 H 0.2443 0.7343 0.6152
H83 H 0.3049 0.6499 0.5567
C61 C 0.5123(4) 0.5800(4) 0.6367(2)
H84 H 0.5104 0.4999 0.6146
C62 C 0.5365(5) 0.4388(4) 0.7939(2)
H85 H 0.6194 0.4118 0.8200
C63 C 0.4051(8) 0.3662(6) 0.8746(3)
H86 H 0.3978 0.2911 0.8517
H87 H 0.3236 0.3960 0.9012
H88 H 0.4879 0.3401 0.8993
C64 C 0.3277(5) 0.5109(4) 0.7074(2)
H89 H 0.2734 0.5298 0.7458
H90 H 0.2635 0.5319 0.6731
C65 C 0.4343(5) 0.5948(4) 0.70162(19)
C66 C 0.3845(5) 0.7464(4) 0.7042(2)
C67 C 0.4695(5) 0.7932(4) 0.6515(2)
H91 H 0.4369 0.8891 0.6413
C68 C 0.6831(4) 0.5009(4) 0.7150(2)
C69 C 0.5469(5) 0.5558(4) 0.75273(19)
H92 H 0.5498 0.6329 0.7769
N3 N 0.4524(4) 0.7070(3) 0.60204(17)
O13 O 0.7261(3) 0.6120(3) 0.54609(14)
O14 O 0.3223(3) 0.2861(3) 0.72972(16)
O15 O 0.7991(3) 0.5139(3) 0.74957(15)
H93 H 0.8691 0.4528 0.7412
O16 O 0.3001(4) 0.8155(4) 0.73835(19)
O17 O 0.4142(4) 0.4724(3) 0.83255(15)
O18 O 0.6588(4) 0.8159(4) 0.50388(17)
C70 C 0.3269(7) 0.7848(6) 0.2694(2)
H94 H 0.3057 0.8649 0.2946
C71 C 0.4802(7) 0.7084(6) 0.2749(3)
H95 H 0.5010 0.6821 0.3179
H96 H 0.5389 0.7646 0.2610
C72 C 0.5109(7) 0.5847(6) 0.2353(3)
H97 H 0.5529 0.5058 0.2605
H98 H 0.5774 0.5913 0.2023
C73 C 0.3739(7) 0.5713(5) 0.2071(3)
C74 C 0.3190(5) 0.6947(5) 0.1629(2)
H99 H 0.3898 0.6974 0.1306
C75 C 0.1755(5) 0.7035(5) 0.1334(2)
H100 H 0.1659 0.6186 0.1186
C76 C 0.1360(5) 0.8207(5) 0.0865(2)
C77 C 0.1301(5) 0.9441(5) 0.1231(2)
C78 C 0.2782(5) 0.9687(5) 0.1108(2)
H101 H 0.3339 0.9103 0.0791
C79 C 0.3419(5) 0.9384(5) 0.1747(2)
C80 C 0.2856(5) 0.8236(5) 0.2024(2)
C81 C 0.2784(6) 1.0747(5) 0.2068(2)
H102 H 0.2177 1.0638 0.2415
H103 H 0.3530 1.1079 0.2222
C82 C 0.1925(6) 1.1747(5) 0.1576(2)
H104 H 0.2032 1.2641 0.1635
C83 C 0.2733(5) 1.1144(5) 0.0993(2)
H105 H 0.3693 1.1225 0.1011
C84 C 0.0114(5) 1.0706(5) 0.1141(2)
H106 H -0.0774 1.0540 0.1260
H107 H 0.0072 1.0987 0.0708
C85 C 0.0360(6) 1.1820(5) 0.1541(3)
H108 H -0.0006 1.1725 0.1961
C86 C 0.1288(6) 0.8807(5) 0.1904(2)
H109 H 0.0772 0.9433 0.2216
C87 C 0.4004(8) 0.4405(6) 0.1737(3)
H110 H 0.3123 0.4271 0.1627
H111 H 0.4495 0.3682 0.2005
H112 H 0.4564 0.4433 0.1369
C88 C 0.2712(7) 0.5806(7) 0.2614(3)
C89 C -0.0717(6) 0.7804(6) 0.1750(3)
H113 H -0.0921 0.8021 0.1316
H114 H -0.1261 0.8547 0.1992
C90 C -0.1132(8) 0.6563(8) 0.1936(4)
H115 H -0.0650 0.5846 0.1673
H116 H -0.2129 0.6728 0.1896
H117 H -0.0883 0.6322 0.2359
C91 C 0.2299(7) 1.2984(6) 0.0291(3)
H118 H 0.2070 1.3238 -0.0133
H119 H 0.3246 1.3001 0.0362
H120 H 0.1665 1.3600 0.0560
C92 C -0.1804(7) 1.3501(7) 0.1430(4)
H121 H -0.2245 1.2929 0.1223
H122 H -0.2201 1.4410 0.1291
H123 H -0.1957 1.3430 0.1869
N4 N 0.0797(5) 0.7604(4) 0.18486(18)
O19 O 0.2203(6) 0.4927(5) 0.2789(2)
O20 O 0.2468(5) 0.6937(4) 0.29337(17)
O21 O 0.1088(4) 0.8162(4) 0.03247(17)
O22 O 0.4913(4) 0.9121(4) 0.17278(17)
H124 H 0.5262 0.8449 0.1527
O23 O 0.2176(4) 1.1662(4) 0.04151(15)
O24 O -0.0355(4) 1.3113(4) 0.12939(18)
O25 O 1.0304(4) 0.3089(4) 0.7439(2)
H125 H 1.0168 0.2703 0.7778
H126 H 1.1120 0.3205 0.7434
loop_
_geom_bond_atom_site_label_1
_geom_bond_atom_site_label_2
_geom_bond_site_symmetry_1
_geom_bond_site_symmetry_2
C1 H1 1_555 1_555
C2 C1 1_555 1_555
H2 C2 1_555 1_555
C3 C4 1_555 1_555
C4 H3 1_555 1_555
C5 C3 1_555 1_555
C6 C4 1_555 1_555
C7 C1 1_555 1_555
H4 C7 1_555 1_555
H5 C7 1_555 1_555
C8 C5 1_555 1_555
H6 C8 1_555 1_555
C9 H7 1_555 1_555
C10 C6 1_555 1_555
C11 C3 1_555 1_555
H8 C11 1_555 1_555
C12 C11 1_555 1_555
H9 C12 1_555 1_555
H10 C12 1_555 1_555
C13 C12 1_555 1_555
H11 C13 1_555 1_555
H12 C13 1_555 1_555
C14 C13 1_555 1_555
C15 C3 1_555 1_555
H13 C15 1_555 1_555
C16 C14 1_555 1_555
C17 C14 1_555 1_555
H14 C17 1_555 1_555
H15 C17 1_555 1_555
H16 C17 1_555 1_555
C18 H17 1_555 1_555
H18 C18 1_555 1_555
C19 C18 1_555 1_555
H19 C19 1_555 1_555
H20 C19 1_555 1_555
H21 C19 1_555 1_555
C20 H22 1_555 1_555
H23 C20 1_555 1_555
H24 C20 1_555 1_555
C21 H25 1_555 1_555
H26 C21 1_555 1_555
H27 C21 1_555 1_555
C22 C2 1_555 1_555
H28 C22 1_555 1_555
H29 C22 1_555 1_555
C23 C1 1_555 1_555
H30 C23 1_555 1_555
N1 C4 1_555 1_555
O1 C11 1_555 1_555
O2 C16 1_555 1_555
O3 C5 1_555 1_555
H31 O3 1_555 1_555
O4 C10 1_555 1_555
O5 C20 1_555 1_555
O6 C2 1_555 1_555
C24 H32 1_555 1_555
H33 C24 1_555 1_555
H34 C24 1_555 1_555
C25 C24 1_555 1_555
H35 C25 1_555 1_555
H36 C25 1_555 1_555
C26 C33 1_555 1_555
C27 H37 1_555 1_555
C28 C27 1_555 1_555
H38 C28 1_555 1_555
H39 C28 1_555 1_555
C29 C27 1_555 1_555
H40 C29 1_555 1_555
C30 C28 1_555 1_555
C31 C29 1_555 1_555
H41 C31 1_555 1_555
H42 C31 1_555 1_555
C32 C30 1_555 1_555
C33 C30 1_555 1_555
H43 C33 1_555 1_555
C34 C26 1_555 1_555
C35 C26 1_555 1_555
H44 C35 1_555 1_555
C36 C35 1_555 1_555
C37 C36 1_555 1_555
C38 C26 1_555 1_555
H45 C38 1_555 1_555
C39 C32 1_555 1_555
H46 C39 1_555 1_555
C40 C30 1_555 1_555
H47 C40 1_555 1_555
C41 C29 1_555 1_555
H48 C41 1_555 1_555
C42 H49 1_555 1_555
H50 C42 1_555 1_555
H51 C42 1_555 1_555
C43 C38 1_555 1_555
H52 C43 1_555 1_555
H53 C43 1_555 1_555
C44 C36 1_555 1_555
H54 C44 1_555 1_555
H55 C44 1_555 1_555
C45 C36 1_555 1_555
H56 C45 1_555 1_555
H57 C45 1_555 1_555
H58 C45 1_555 1_555
C46 H59 1_555 1_555
H60 C46 1_555 1_555
H61 C46 1_555 1_555
N2 C25 1_555 1_555
O7 C37 1_555 1_555
O8 C41 1_555 1_555
O9 C34 1_555 1_555
H62 O9 1_555 1_555
O10 C32 1_555 1_555
O11 C37 1_555 1_555
O12 C27 1_555 1_555
C47 H63 1_555 1_555
H64 C47 1_555 1_555
H65 C47 1_555 1_555
C48 C52 1_555 1_555
C49 H66 1_555 1_555
C50 C49 1_555 1_555
H67 C50 1_555 1_555
H68 C50 1_555 1_555
C51 C50 1_555 1_555
H69 C51 1_555 1_555
H70 C51 1_555 1_555
C52 C51 1_555 1_555
C53 C52 1_555 1_555
H71 C53 1_555 1_555
H72 C53 1_555 1_555
H73 C53 1_555 1_555
C54 C52 1_555 1_555
H74 C54 1_555 1_555
C55 C49 1_555 1_555
C56 H75 1_555 1_555
H76 C56 1_555 1_555
C57 C56 1_555 1_555
H77 C57 1_555 1_555
C58 C57 1_555 1_555
H78 C58 1_555 1_555
C59 H79 1_555 1_555
H80 C59 1_555 1_555
H81 C59 1_555 1_555
C60 C59 1_555 1_555
H82 C60 1_555 1_555
H83 C60 1_555 1_555
C61 C55 1_555 1_555
H84 C61 1_555 1_555
C62 C57 1_555 1_555
H85 C62 1_555 1_555
C63 H86 1_555 1_555
H87 C63 1_555 1_555
H88 C63 1_555 1_555
C64 C58 1_555 1_555
H89 C64 1_555 1_555
H90 C64 1_555 1_555
C65 C61 1_555 1_555
C66 C65 1_555 1_555
C67 C54 1_555 1_555
H91 C67 1_555 1_555
C68 C55 1_555 1_555
C69 C62 1_555 1_555
H92 C69 1_555 1_555
N3 C60 1_555 1_555
O13 C48 1_555 1_555
O14 C47 1_555 1_555
O15 C68 1_555 1_555
H93 O15 1_555 1_555
O16 C66 1_555 1_555
O17 C62 1_555 1_555
O18 C48 1_555 1_555
C70 H94 1_555 1_555
C71 C70 1_555 1_555
H95 C71 1_555 1_555
H96 C71 1_555 1_555
C72 C71 1_555 1_555
H97 C72 1_555 1_555
H98 C72 1_555 1_555
C73 C72 1_555 1_555
C74 C73 1_555 1_555
H99 C74 1_555 1_555
C75 C74 1_555 1_555
H100 C75 1_555 1_555
C76 C75 1_555 1_555
C77 C76 1_555 1_555
C78 C77 1_555 1_555
H101 C78 1_555 1_555
C79 C78 1_555 1_555
C80 C70 1_555 1_555
C81 C79 1_555 1_555
H102 C81 1_555 1_555
H103 C81 1_555 1_555
C82 C81 1_555 1_555
H104 C82 1_555 1_555
C83 C78 1_555 1_555
H105 C83 1_555 1_555
C84 C77 1_555 1_555
H106 C84 1_555 1_555
H107 C84 1_555 1_555
C85 C82 1_555 1_555
H108 C85 1_555 1_555
C86 C77 1_555 1_555
H109 C86 1_555 1_555
C87 C73 1_555 1_555
H110 C87 1_555 1_555
H111 C87 1_555 1_555
H112 C87 1_555 1_555
C88 C73 1_555 1_555
C89 H113 1_555 1_555
H114 C89 1_555 1_555
C90 C89 1_555 1_555
H115 C90 1_555 1_555
H116 C90 1_555 1_555
H117 C90 1_555 1_555
C91 H118 1_555 1_555
H119 C91 1_555 1_555
H120 C91 1_555 1_555
C92 H121 1_555 1_555
H122 C92 1_555 1_555
H123 C92 1_555 1_555
N4 C75 1_555 1_555
O19 C88 1_555 1_555
O20 C70 1_555 1_555
O21 C76 1_555 1_555
O22 C79 1_555 1_555
H124 O22 1_555 1_555
O23 C83 1_555 1_555
O24 C85 1_555 1_555
O25 H125 1_555 1_555
H126 O25 1_555 1_555
C5 C7 1_555 1_555
C6 C8 1_555 1_555
C6 C22 1_555 1_555
C8 C23 1_555 1_555
C9 C10 1_555 1_555
C9 C15 1_555 1_555
C9 N1 1_555 1_555
C14 C15 1_555 1_555
C16 O1 1_555 1_555
C18 N1 1_555 1_555
C21 O6 1_555 1_555
C23 O5 1_555 1_555
C31 C34 1_555 1_555
C33 N2 1_555 1_555
C34 C40 1_555 1_555
C35 C39 1_555 1_555
C38 O7 1_555 1_555
C39 N2 1_555 1_555
C40 C41 1_555 1_555
C42 O8 1_555 1_555
C43 C44 1_555 1_555
C46 O12 1_555 1_555
C49 O13 1_555 1_555
C54 C55 1_555 1_555
C56 C68 1_555 1_555
C58 O14 1_555 1_555
C61 N3 1_555 1_555
C63 O17 1_555 1_555
C64 C65 1_555 1_555
C65 C69 1_555 1_555
C66 C67 1_555 1_555
C67 N3 1_555 1_555
C68 C69 1_555 1_555
C74 C80 1_555 1_555
C79 C80 1_555 1_555
C80 C86 1_555 1_555
C82 C83 1_555 1_555
C84 C85 1_555 1_555
C86 N4 1_555 1_555
C88 O20 1_555 1_555
C89 N4 1_555 1_555
C91 O23 1_555 1_555
C92 O24 1_555 1_555

#END
