
#######################################################################
#
#                 Cambridge Crystallographic Data Centre
#                                CCDC 
#
#######################################################################
#
# If this CIF has been generated from an entry in the Cambridge 
# Structural Database, then it will include bibliographic, chemical, 
# crystal, experimental, refinement or atomic coordinate data resulting 
# from the CCDC's data processing and validation procedures.
#
#######################################################################

data_YUGVED
_chemical_formula_moiety         'C26 H31 N1 O9'
_chemical_name_systematic        
'11-acetyl-6-formyl-3-hydroxy-14-methyl-15,19-dioxo-4,16-dioxa-11-azaheptacyclo[12.2.2.1^3,6^.1^9,12^.0^2,10^.0^2,13^.0^5,9^]icos-7-yl pivalate'
_symmetry_cell_setting           orthorhombic
_symmetry_space_group_name_H-M   'P 21 21 21'
_symmetry_Int_Tables_number      19
_space_group_name_Hall           'P 2ac 2ab'
loop_
_symmetry_equiv_pos_site_id
_symmetry_equiv_pos_as_xyz
1 x,y,z
2 1/2-x,-y,1/2+z
3 1/2+x,1/2-y,-z
4 -x,1/2+y,1/2-z
_cell_length_a                   9.0020(3)
_cell_length_b                   11.8273(4)
_cell_length_c                   22.0111(6)
_cell_angle_alpha                90
_cell_angle_beta                 90
_cell_angle_gamma                90
_cell_volume                     2343.51
_cell_formula_units_Z            4
_exptl_crystal_recrystallization_method 'ethyl acetate'
loop_
_atom_site_label
_atom_site_type_symbol
_atom_site_fract_x
_atom_site_fract_y
_atom_site_fract_z
C1 C -1.2977(5) -1.1826(3) -0.00119(15)
H1 H -1.3101 -1.1066 0.0132
H2 H -1.2072 -1.2135 0.0149
H3 H -1.3802 -1.2279 0.0119
C2 C -1.4365(4) -1.1372(4) -0.09655(18)
H4 H -1.4285 -1.1310 -0.1399
H5 H -1.4568 -1.0641 -0.0795
H6 H -1.5159 -1.1881 -0.0865
C3 C -1.2579(5) -1.3011(3) -0.09442(18)
H7 H -1.1680 -1.3287 -0.0762
H8 H -1.2462 -1.2986 -0.1378
H9 H -1.3387 -1.3506 -0.0842
C4 C -1.2908(4) -1.1824(3) -0.07064(15)
C5 C -1.1629(4) -1.1062(3) -0.08906(14)
C6 C -0.9194(4) -0.9995(3) -0.01997(15)
H10 H -0.8475 -1.0557 -0.0232
C7 C -1.0870(4) -0.9181(3) -0.10436(13)
H11 H -1.0711 -0.9347 -0.1475
C8 C -1.1516(4) -0.7984(3) -0.09811(14)
H12 H -1.2120 -0.7783 -0.1330
H13 H -1.2102 -0.7907 -0.0614
C9 C -1.0106(4) -0.7279(3) -0.09519(13)
C10 C -0.9250(4) -0.7942(3) -0.04693(13)
H14 H -0.9715 -0.7874 -0.0068
C11 C -0.9335(4) -0.9157(3) -0.07115(13)
C12 C -0.7938(4) -0.9169(3) -0.11214(14)
H15 H -0.8215 -0.9273 -0.1544
H16 H -0.7274 -0.9776 -0.1003
C13 C -0.7179(4) -0.8006(3) -0.10300(13)
C14 C -0.7651(4) -0.7107(3) -0.15103(13)
C15 C -0.6803(4) -0.7233(3) -0.21118(14)
H17 H -0.6921 -0.8005 -0.2266
C16 C -0.5157(4) -0.6939(4) -0.20770(18)
H18 H -0.480(4) -0.689(3) -0.2510(18)
C17 C -0.5027(4) -0.5788(3) -0.17697(16)
H19 H -0.4318 -0.5323 -0.1989
H20 H -0.4667 -0.5884 -0.1358
C18 C -0.6562(4) -0.5190(3) -0.17583(13)
C19 C -0.7215(4) -0.5336(3) -0.23834(14)
C20 C -0.6414(4) -0.3955(3) -0.15868(16)
H21 H -0.5991 -0.3896 -0.1188
H22 H -0.7377 -0.3606 -0.1590
H23 H -0.5780 -0.3581 -0.1874
C21 C -0.7544(4) -0.5848(3) -0.13010(13)
H24 H -0.7117 -0.5803 -0.0892
C22 C -0.9205(4) -0.5442(3) -0.12925(13)
H25 H -0.9353 -0.4623 -0.1322
C23 C -0.9354(4) -0.7231(3) -0.15944(12)
H26 H -0.9649 -0.7844 -0.1869
C24 C -1.0036(4) -0.6027(3) -0.07749(14)
C25 C -1.0761(4) -0.5757(3) -0.22370(14)
C26 C -1.1297(4) -0.6655(3) -0.26604(15)
H27 H -1.1741 -0.7257 -0.2431
H28 H -1.0475 -0.6945 -0.2890
H29 H -1.2021 -0.6341 -0.2933
H30 H -0.545(5) -0.851(4) -0.0719(19)
H31 H -0.460(4) -0.755(3) -0.1837(15)
N1 N -0.9821(3) -0.6107(2) -0.17925(11)
O1 O -1.0438(3) -1.1367(2) -0.10725(11)
O2 O -1.1951(3) -0.99551(18) -0.08029(9)
O3 O -0.9948(3) -0.9980(2) 0.02437(11)
O4 O -0.7734(3) -0.76357(18) -0.04529(9)
O5 O -0.5642(3) -0.8058(2) -0.09743(12)
O6 O -1.0456(3) -0.5613(2) -0.03052(10)
O7 O -1.1109(3) -0.4760(2) -0.22869(12)
O8 O -0.7529(3) -0.4588(2) -0.27316(10)
O9 O -0.7419(3) -0.6428(2) -0.25507(9)
loop_
_geom_bond_atom_site_label_1
_geom_bond_atom_site_label_2
_geom_bond_site_symmetry_1
_geom_bond_site_symmetry_2
C1 H1 1_555 1_555
H2 C1 1_555 1_555
H3 C1 1_555 1_555
C2 H4 1_555 1_555
H5 C2 1_555 1_555
H6 C2 1_555 1_555
C3 H7 1_555 1_555
H8 C3 1_555 1_555
H9 C3 1_555 1_555
C4 C1 1_555 1_555
C5 C4 1_555 1_555
C6 H10 1_555 1_555
C7 H11 1_555 1_555
C8 C7 1_555 1_555
H12 C8 1_555 1_555
H13 C8 1_555 1_555
C9 C8 1_555 1_555
C10 C9 1_555 1_555
H14 C10 1_555 1_555
C11 C6 1_555 1_555
C12 C11 1_555 1_555
H15 C12 1_555 1_555
H16 C12 1_555 1_555
C13 C12 1_555 1_555
C14 C13 1_555 1_555
C15 C14 1_555 1_555
H17 C15 1_555 1_555
C16 C15 1_555 1_555
H18 C16 1_555 1_555
C17 C16 1_555 1_555
H19 C17 1_555 1_555
H20 C17 1_555 1_555
C18 C17 1_555 1_555
C19 C18 1_555 1_555
C20 C18 1_555 1_555
H21 C20 1_555 1_555
H22 C20 1_555 1_555
H23 C20 1_555 1_555
C21 C14 1_555 1_555
H24 C21 1_555 1_555
C22 C21 1_555 1_555
H25 C22 1_555 1_555
C23 C9 1_555 1_555
H26 C23 1_555 1_555
C24 C9 1_555 1_555
C25 C26 1_555 1_555
C26 H27 1_555 1_555
H28 C26 1_555 1_555
H29 C26 1_555 1_555
H30 O5 1_555 1_555
H31 C16 1_555 1_555
N1 C22 1_555 1_555
O1 C5 1_555 1_555
O2 C5 1_555 1_555
O3 C6 1_555 1_555
O4 C10 1_555 1_555
O5 C13 1_555 1_555
O6 C24 1_555 1_555
O7 C25 1_555 1_555
O8 C19 1_555 1_555
O9 C15 1_555 1_555
C2 C4 1_555 1_555
C3 C4 1_555 1_555
C7 C11 1_555 1_555
C7 O2 1_555 1_555
C10 C11 1_555 1_555
C13 O4 1_555 1_555
C14 C23 1_555 1_555
C18 C21 1_555 1_555
C19 O9 1_555 1_555
C22 C24 1_555 1_555
C23 N1 1_555 1_555
C25 N1 1_555 1_555

#END
