
#######################################################################
#
#                 Cambridge Crystallographic Data Centre
#                                CCDC 
#
#######################################################################
#
# If this CIF has been generated from an entry in the Cambridge 
# Structural Database, then it will include bibliographic, chemical, 
# crystal, experimental, refinement or atomic coordinate data resulting 
# from the CCDC's data processing and validation procedures.
#
#######################################################################

data_YUGVUT
_chemical_formula_moiety         'C26 H33 N1 O10'
_chemical_name_systematic        
'13-acetyl-3,7-dihydroxy-16-methyl-17,21-dioxo-4,6,18-trioxa-13-azaheptacyclo[14.2.2.1^3,8^.1^11,14^.0^2,12^.0^2,15^.0^5,11^]docos-9-yl pivalate'
_symmetry_cell_setting           monoclinic
_symmetry_space_group_name_H-M   'P 21'
_symmetry_Int_Tables_number      4
_space_group_name_Hall           'P 2yb'
loop_
_symmetry_equiv_pos_site_id
_symmetry_equiv_pos_as_xyz
1 x,y,z
2 -x,1/2+y,-z
_cell_length_a                   10.427(3)
_cell_length_b                   12.289(3)
_cell_length_c                   12.797(4)
_cell_angle_alpha                90
_cell_angle_beta                 99.152(4)
_cell_angle_gamma                90
_cell_volume                     1618.9
_cell_formula_units_Z            2
loop_
_atom_site_label
_atom_site_type_symbol
_atom_site_fract_x
_atom_site_fract_y
_atom_site_fract_z
O1 O 0.2424(2) 0.23272(19) 0.24221(19)
O2 O 0.0410(3) 0.2652(3) 0.1665(2)
O3 O 0.1952(3) 0.6311(2) 0.4576(2)
O4 O 0.51895(19) 0.54297(16) 0.34619(16)
O5 O 0.56979(19) 0.60952(17) 0.51744(16)
O6 O 0.5855(2) 0.4170(2) 0.24196(16)
O7 O 0.7712(2) 0.5450(2) 0.4867(2)
H1 H 0.7574 0.5992 0.4492
O8 O 0.1627(2) 0.2629(2) 0.5184(2)
O9 O 0.5747(2) 0.42338(18) 0.72045(16)
O10 O 0.6552(3) 0.2546(2) 0.7423(2)
N1 N 0.1996(2) 0.3793(2) 0.39274(19)
C1 C 0.1525(3) 0.2958(3) 0.1849(3)
C2 C 0.2061(3) 0.4017(3) 0.1484(2)
C3 C 0.3115(4) 0.3740(3) 0.0805(2)
H2 H 0.3644 0.4378 0.0736
H3 H 0.2710 0.3518 0.0103
C4 C 0.3976(3) 0.2810(3) 0.1342(2)
H4 H 0.3743 0.2127 0.0981
H5 H 0.4884 0.2959 0.1313
C5 C 0.3753(3) 0.2742(3) 0.2487(2)
H6 H 0.4367 0.2225 0.2876
C6 C 0.2739(3) 0.4630(3) 0.2488(2)
H7 H 0.3110 0.5321 0.2299
C7 C 0.1817(3) 0.4803(2) 0.3325(2)
H8 H 0.0914 0.4971 0.3027
C8 C 0.2397(3) 0.5521(3) 0.4247(2)
C9 C 0.3683(3) 0.4947(2) 0.4713(2)
C10 C 0.3406(3) 0.3792(2) 0.4161(2)
H9 H 0.3771 0.3178 0.4599
C11 C 0.3841(3) 0.3840(2) 0.3069(2)
C12 C 0.5255(3) 0.4288(2) 0.3312(2)
C13 C 0.6088(3) 0.3715(2) 0.4278(2)
H10 H 0.5734 0.2988 0.4312
H11 H 0.6952 0.3628 0.4100
C14 C 0.6266(3) 0.4179(2) 0.5422(2)
H12 H 0.7005 0.3768 0.5795
C15 C 0.5200(3) 0.4013(2) 0.6113(2)
H13 H 0.4912 0.3253 0.6053
C16 C 0.3997(3) 0.4762(3) 0.5896(2)
H14 H 0.3265 0.4423 0.6150
H15 H 0.4177 0.5450 0.6260
C17 C 0.4700(3) 0.5760(2) 0.4354(2)
H16 H 0.4205 0.6423 0.4139
C18 C 0.6743(3) 0.5341(3) 0.5476(2)
H17 H 0.7122 0.5495 0.6212
C19 C 0.0979(4) 0.4712(4) 0.0860(3)
H18 H 0.0765 0.4433 0.0153
H19 H 0.1271 0.5451 0.0834
H20 H 0.0224 0.4687 0.1201
C20 C 0.1191(3) 0.3271(3) 0.4504(3)
C21 C -0.0232(3) 0.3535(4) 0.4233(4)
H21 H -0.0732 0.2966 0.4488
H22 H -0.0467 0.3596 0.3479
H23 H -0.0405 0.4212 0.4559
C22 C 0.6403(3) 0.3432(3) 0.7782(3)
C23 C 0.6931(4) 0.3814(3) 0.8892(3)
C24 C 0.5848(6) 0.4340(6) 0.9377(4)
H24 H 0.5335 0.4791 0.8859
H25 H 0.6216 0.4776 0.9972
H26 H 0.5309 0.3784 0.9607
C25 C 0.7553(8) 0.2876(5) 0.9527(4)
H27 H 0.6896 0.2449 0.9781
H28 H 0.8153 0.3146 1.0118
H29 H 0.8010 0.2432 0.9090
C26 C 0.7947(5) 0.4691(5) 0.8815(4)
H30 H 0.8646 0.4387 0.8504
H31 H 0.8278 0.4959 0.9511
H32 H 0.7557 0.5278 0.8383
H33 H 0.656(4) 0.462(4) 0.249(3)
loop_
_geom_bond_atom_site_label_1
_geom_bond_atom_site_label_2
_geom_bond_site_symmetry_1
_geom_bond_site_symmetry_2
O1 C1 1_555 1_555
O2 C1 1_555 1_555
O3 C8 1_555 1_555
O4 C12 1_555 1_555
O5 C17 1_555 1_555
O6 C12 1_555 1_555
O7 H1 1_555 1_555
O8 C20 1_555 1_555
O9 C15 1_555 1_555
O10 C22 1_555 1_555
N1 C7 1_555 1_555
C1 C2 1_555 1_555
C2 C3 1_555 1_555
C3 H2 1_555 1_555
H3 C3 1_555 1_555
C4 C3 1_555 1_555
H4 C4 1_555 1_555
H5 C4 1_555 1_555
C5 O1 1_555 1_555
H6 C5 1_555 1_555
C6 C2 1_555 1_555
H7 C6 1_555 1_555
C7 C6 1_555 1_555
H8 C7 1_555 1_555
C8 C7 1_555 1_555
C9 C8 1_555 1_555
C10 N1 1_555 1_555
H9 C10 1_555 1_555
C11 C5 1_555 1_555
C12 C11 1_555 1_555
C13 C12 1_555 1_555
H10 C13 1_555 1_555
H11 C13 1_555 1_555
C14 C13 1_555 1_555
H12 C14 1_555 1_555
C15 C14 1_555 1_555
H13 C15 1_555 1_555
C16 C9 1_555 1_555
H14 C16 1_555 1_555
H15 C16 1_555 1_555
C17 O4 1_555 1_555
H16 C17 1_555 1_555
C18 O5 1_555 1_555
H17 C18 1_555 1_555
C19 C2 1_555 1_555
H18 C19 1_555 1_555
H19 C19 1_555 1_555
H20 C19 1_555 1_555
C20 N1 1_555 1_555
C21 C20 1_555 1_555
H21 C21 1_555 1_555
H22 C21 1_555 1_555
H23 C21 1_555 1_555
C22 O9 1_555 1_555
C23 C22 1_555 1_555
C24 C23 1_555 1_555
H24 C24 1_555 1_555
H25 C24 1_555 1_555
H26 C24 1_555 1_555
C25 C23 1_555 1_555
H27 C25 1_555 1_555
H28 C25 1_555 1_555
H29 C25 1_555 1_555
C26 C23 1_555 1_555
H30 C26 1_555 1_555
H31 C26 1_555 1_555
H32 C26 1_555 1_555
H33 O6 1_555 1_555
O7 C18 1_555 1_555
C4 C5 1_555 1_555
C6 C11 1_555 1_555
C9 C10 1_555 1_555
C9 C17 1_555 1_555
C10 C11 1_555 1_555
C14 C18 1_555 1_555
C15 C16 1_555 1_555

#END
