
#######################################################################
#
#                 Cambridge Crystallographic Data Centre
#                                CCDC 
#
#######################################################################
#
# If this CIF has been generated from an entry in the Cambridge 
# Structural Database, then it will include bibliographic, chemical, 
# crystal, experimental, refinement or atomic coordinate data resulting 
# from the CCDC's data processing and validation procedures.
#
#######################################################################

data_YUGVEC
_chemical_formula_moiety         'C17 H10 F3 N1 O3'
_chemical_name_systematic        
7-((2-Hydroxybenzylidene)amino)-4-(trifluoromethyl)-2H-chromen-2-one
_symmetry_cell_setting           monoclinic
_symmetry_space_group_name_H-M   'P 21/n'
_symmetry_Int_Tables_number      14
_space_group_name_Hall           '-P 2yn'
loop_
_symmetry_equiv_pos_site_id
_symmetry_equiv_pos_as_xyz
1 x,y,z
2 1/2-x,1/2+y,1/2-z
3 -x,-y,-z
4 1/2+x,1/2-y,1/2+z
_cell_length_a                   9.855(2)
_cell_length_b                   5.4280(11)
_cell_length_c                   26.716(5)
_cell_angle_alpha                90
_cell_angle_beta                 91.02(3)
_cell_angle_gamma                90
_cell_volume                     1428.89
_exptl_crystal_colour            orange
_exptl_crystal_description       needle
_cell_formula_units_Z            4
loop_
_atom_site_label
_atom_site_type_symbol
_atom_site_fract_x
_atom_site_fract_y
_atom_site_fract_z
C1 C 0.2662(3) 0.5352(6) 0.86809(13)
C2 C 0.1860(3) 0.3243(6) 0.87361(11)
C3 C 0.0958(3) 0.2623(6) 0.83477(12)
H1 H 0.0427 0.1216 0.8377
C4 C 0.0833(4) 0.4031(7) 0.79235(13)
H2 H 0.0222 0.3593 0.7670
C5 C 0.1629(4) 0.6110(7) 0.78787(13)
H3 H 0.1552 0.7072 0.7592
C6 C 0.2532(4) 0.6779(6) 0.82513(13)
H4 H 0.3058 0.8188 0.8216
C7 C 0.1955(3) 0.1722(6) 0.91751(13)
H5 H 0.1420 0.0314 0.9191
C8 C 0.2791(3) 0.0728(6) 0.99793(11)
C9 C 0.1948(3) -0.1264(6) 1.00582(12)
H6 H 0.1320 -0.1751 0.9814
C10 C 0.2057(3) -0.2512(5) 1.05045(12)
C11 C 0.1197(3) -0.5930(7) 1.09727(12)
C12 C 0.2084(3) -0.5187(6) 1.13794(12)
H7 H 0.2071 -0.6077 1.1677
C13 C 0.2927(3) -0.3258(6) 1.13455(12)
C14 C 0.2982(3) -0.1864(5) 1.08870(11)
C15 C 0.3836(3) 0.0146(6) 1.07914(12)
H8 H 0.4476 0.0632 1.1032
C16 C 0.3736(3) 0.1392(6) 1.03491(12)
H9 H 0.4312 0.2716 1.0293
C17 C 0.3748(4) -0.2479(7) 1.17930(13)
F1 F 0.3364(2) -0.0300(4) 1.19583(8)
F2 F 0.5052(2) -0.2255(4) 1.17083(8)
F3 F 0.3641(3) -0.4007(5) 1.21747(8)
N1 N 0.2749(3) 0.2233(5) 0.95456(10)
O1 O 0.3547(3) 0.6062(5) 0.90416(9)
H10 H 0.3494 0.5128 0.9282
O2 O 0.1185(2) -0.4477(4) 1.05540(8)
O3 O 0.0466(2) -0.7702(4) 1.09727(8)
loop_
_geom_bond_atom_site_label_1
_geom_bond_atom_site_label_2
_geom_bond_site_symmetry_1
_geom_bond_site_symmetry_2
C1 C2 1_555 1_555
C2 C3 1_555 1_555
C3 H1 1_555 1_555
C4 C3 1_555 1_555
H2 C4 1_555 1_555
C5 C4 1_555 1_555
H3 C5 1_555 1_555
C6 C1 1_555 1_555
H4 C6 1_555 1_555
C7 C2 1_555 1_555
H5 C7 1_555 1_555
C8 C9 1_555 1_555
C9 H6 1_555 1_555
C10 C9 1_555 1_555
C11 C12 1_555 1_555
C12 H7 1_555 1_555
C13 C12 1_555 1_555
C14 C10 1_555 1_555
C15 C14 1_555 1_555
H8 C15 1_555 1_555
C16 C8 1_555 1_555
H9 C16 1_555 1_555
C17 C13 1_555 1_555
F1 C17 1_555 1_555
F2 C17 1_555 1_555
F3 C17 1_555 1_555
N1 C7 1_555 1_555
O1 C1 1_555 1_555
H10 O1 1_555 1_555
O2 C10 1_555 1_555
O3 C11 1_555 1_555
C5 C6 1_555 1_555
C8 N1 1_555 1_555
C11 O2 1_555 1_555
C13 C14 1_555 1_555
C15 C16 1_555 1_555

#END
