
#######################################################################
#
#                 Cambridge Crystallographic Data Centre
#                                CCDC 
#
#######################################################################
#
# If this CIF has been generated from an entry in the Cambridge 
# Structural Database, then it will include bibliographic, chemical, 
# crystal, experimental, refinement or atomic coordinate data resulting 
# from the CCDC's data processing and validation procedures.
#
#######################################################################

data_YUGVIH
_chemical_formula_moiety         'C24 H33 N1 O7,H2 O1'
_chemical_name_systematic        
'11-ethyl-6,15,17-trimethoxy-9-methyl-3,10-dioxo-2-oxa-11-azahexacyclo[14.2.1.0^1,5^.0^4,9^.0^5,12^.0^13,18^]nonadecane-13-carbaldehyde monohydrate'
_symmetry_cell_setting           orthorhombic
_symmetry_space_group_name_H-M   'P 21 21 21'
_symmetry_Int_Tables_number      19
_space_group_name_Hall           'P 2ac 2ab'
loop_
_symmetry_equiv_pos_site_id
_symmetry_equiv_pos_as_xyz
1 x,y,z
2 1/2-x,-y,1/2+z
3 1/2+x,1/2-y,-z
4 -x,1/2+y,1/2-z
_cell_length_a                   7.8146(5)
_cell_length_b                   12.5672(10)
_cell_length_c                   22.9864(12)
_cell_angle_alpha                90
_cell_angle_beta                 90
_cell_angle_gamma                90
_cell_volume                     2257.44
_cell_formula_units_Z            4
loop_
_atom_site_label
_atom_site_type_symbol
_atom_site_fract_x
_atom_site_fract_y
_atom_site_fract_z
C1 C -0.6664(4) -0.6373(3) -0.40424(14)
H1 H -0.6210 -0.7047 -0.4191
C2 C -0.8053(5) -0.5985(3) -0.44564(14)
H2 H -0.8889 -0.6546 -0.4514
H3 H -0.8636 -0.5379 -0.4286
C3 C -0.7296(5) -0.5666(3) -0.50399(15)
H4 H -0.8188 -0.5364 -0.5282
H5 H -0.6854 -0.6293 -0.5234
C4 C -0.5852(5) -0.4852(3) -0.49674(15)
C5 C -0.4464(4) -0.5278(3) -0.45763(14)
H6 H -0.3703 -0.4673 -0.4503
C6 C -0.3298(5) -0.6194(3) -0.47172(16)
C7 C -0.3284(4) -0.3143(3) -0.34688(17)
H7 H -0.3091 -0.3006 -0.3861
C8 C -0.3944(4) -0.4246(3) -0.33054(13)
C9 C -0.2534(4) -0.5049(3) -0.35003(14)
H8 H -0.1802 -0.4753 -0.3806
C10 C -0.3537(4) -0.6032(3) -0.37131(14)
C11 C -0.5179(4) -0.5586(3) -0.39797(14)
C12 C -0.3558(5) -0.6794(3) -0.31940(15)
H9 H -0.2839 -0.7408 -0.3269
H10 H -0.4713 -0.7036 -0.3114
C13 C -0.2855(4) -0.6138(3) -0.26781(15)
H11 H -0.2321 -0.6609 -0.2391
C14 C -0.1490(4) -0.5478(3) -0.29906(15)
H12 H -0.0604 -0.5957 -0.3141
C15 C -0.4307(5) -0.4314(3) -0.26530(15)
H13 H -0.5445 -0.4034 -0.2582
H14 H -0.3501 -0.3858 -0.2451
C16 C -0.4200(5) -0.5434(3) -0.23875(15)
H15 H -0.5321 -0.5780 -0.2416
C17 C -0.5612(4) -0.4564(3) -0.36649(14)
H16 H -0.6523 -0.4722 -0.3385
C18 C -0.5149(6) -0.4493(4) -0.55597(15)
H17 H -0.6068 -0.4217 -0.5792
H18 H -0.4637 -0.5089 -0.5755
H19 H -0.4304 -0.3949 -0.5502
C19 C -0.6578(5) -0.3878(3) -0.46424(15)
C20 C -0.7026(4) -0.2808(3) -0.37812(16)
H20 H -0.6926 -0.2199 -0.4038
H21 H -0.6385 -0.2651 -0.3430
C21 C -0.8885(5) -0.2963(3) -0.36243(19)
H22 H -0.9530 -0.3115 -0.3970
H23 H -0.9317 -0.2326 -0.3447
H24 H -0.8990 -0.3546 -0.3357
C22 C -0.8254(5) -0.7530(3) -0.34295(18)
H25 H -0.9228 -0.7516 -0.3684
H26 H -0.8631 -0.7628 -0.3036
H27 H -0.7513 -0.8106 -0.3538
C23 C 0.0440(6) -0.5028(4) -0.22423(19)
H28 H 0.1255 -0.5505 -0.2415
H29 H -0.0194 -0.5397 -0.1947
H30 H 0.1032 -0.4436 -0.2071
C24 C -0.5018(6) -0.5017(4) -0.14129(17)
H31 H -0.5313 -0.4295 -0.1505
H32 H -0.4624 -0.5056 -0.1018
H33 H -0.6007 -0.5463 -0.1459
N1 N -0.6259(4) -0.3743(2) -0.40677(12)
O1 O -0.2703(3) -0.6583(2) -0.42014(10)
O2 O -0.2999(4) -0.2446(2) -0.31322(12)
O3 O -0.0703(3) -0.4653(2) -0.26770(11)
O4 O -0.3712(4) -0.5367(2) -0.17893(10)
O5 O -0.7351(3) -0.65528(19) -0.34756(10)
O6 O -0.2822(4) -0.6544(2) -0.51725(11)
O7 O -0.7460(4) -0.3226(2) -0.49173(11)
O8 O -0.1083(5) -0.3833(3) -0.4902(2)
H34 H -0.0023 -0.3757 -0.4973
H35 H -0.1596 -0.3246 -0.4957
loop_
_geom_bond_atom_site_label_1
_geom_bond_atom_site_label_2
_geom_bond_site_symmetry_1
_geom_bond_site_symmetry_2
C1 H1 1_555 1_555
C2 C1 1_555 1_555
H2 C2 1_555 1_555
H3 C2 1_555 1_555
C3 C2 1_555 1_555
H4 C3 1_555 1_555
H5 C3 1_555 1_555
C4 C3 1_555 1_555
C5 C4 1_555 1_555
H6 C5 1_555 1_555
C6 C5 1_555 1_555
C7 H7 1_555 1_555
C8 C7 1_555 1_555
C9 C8 1_555 1_555
H8 C9 1_555 1_555
C10 C9 1_555 1_555
C11 C1 1_555 1_555
C12 C10 1_555 1_555
H9 C12 1_555 1_555
H10 C12 1_555 1_555
C13 C12 1_555 1_555
H11 C13 1_555 1_555
C14 C9 1_555 1_555
H12 C14 1_555 1_555
C15 C8 1_555 1_555
H13 C15 1_555 1_555
H14 C15 1_555 1_555
C16 C13 1_555 1_555
H15 C16 1_555 1_555
C17 C8 1_555 1_555
H16 C17 1_555 1_555
C18 C4 1_555 1_555
H17 C18 1_555 1_555
H18 C18 1_555 1_555
H19 C18 1_555 1_555
C19 C4 1_555 1_555
C20 H20 1_555 1_555
H21 C20 1_555 1_555
C21 C20 1_555 1_555
H22 C21 1_555 1_555
H23 C21 1_555 1_555
H24 C21 1_555 1_555
C22 H25 1_555 1_555
H26 C22 1_555 1_555
H27 C22 1_555 1_555
C23 H28 1_555 1_555
H29 C23 1_555 1_555
H30 C23 1_555 1_555
C24 H31 1_555 1_555
H32 C24 1_555 1_555
H33 C24 1_555 1_555
N1 C17 1_555 1_555
O1 C6 1_555 1_555
O2 C7 1_555 1_555
O3 C14 1_555 1_555
O4 C16 1_555 1_555
O5 C1 1_555 1_555
O6 C6 1_555 1_555
O7 C19 1_555 1_555
O8 H34 1_555 1_555
H35 O8 1_555 1_555
C5 C11 1_555 1_555
C10 C11 1_555 1_555
C10 O1 1_555 1_555
C11 C17 1_555 1_555
C13 C14 1_555 1_555
C15 C16 1_555 1_555
C19 N1 1_555 1_555
C20 N1 1_555 1_555
C22 O5 1_555 1_555
C23 O3 1_555 1_555
C24 O4 1_555 1_555

#END
