
#######################################################################
#
#                 Cambridge Crystallographic Data Centre
#                                CCDC 
#
#######################################################################
#
# If this CIF has been generated from an entry in the Cambridge 
# Structural Database, then it will include bibliographic, chemical, 
# crystal, experimental, refinement or atomic coordinate data resulting 
# from the CCDC's data processing and validation procedures.
#
#######################################################################

data_YUGWAA
_chemical_formula_moiety         'C23 H29 N1 O6'
_chemical_name_systematic        
1-ethyl-4',8'-dimethoxy-2a-methyl-1,2a,8a,8b-tetrahydro-3H,7'H-spiro[benzo[cd]indole-7,2'-bicyclo[3.2.1]octane]-2,5,7',8(4H)-tetrone
_symmetry_cell_setting           orthorhombic
_symmetry_space_group_name_H-M   'P 21 21 21'
_symmetry_Int_Tables_number      19
_space_group_name_Hall           'P 2ac 2ab'
loop_
_symmetry_equiv_pos_site_id
_symmetry_equiv_pos_as_xyz
1 x,y,z
2 1/2-x,-y,1/2+z
3 1/2+x,1/2-y,-z
4 -x,1/2+y,1/2-z
_cell_length_a                   7.3733(3)
_cell_length_b                   9.6087(4)
_cell_length_c                   29.6698(12)
_cell_angle_alpha                90
_cell_angle_beta                 90
_cell_angle_gamma                90
_cell_volume                     2102.04
_cell_formula_units_Z            4
loop_
_atom_site_label
_atom_site_type_symbol
_atom_site_fract_x
_atom_site_fract_y
_atom_site_fract_z
C1 C 0.5978(5) 0.6016(4) 0.48546(11)
C2 C 0.7414(6) 0.7072(5) 0.47600(13)
H1 H 0.8463 0.6881 0.4947
H2 H 0.6964 0.7989 0.4838
C3 C 0.7984(5) 0.7065(5) 0.42690(13)
H3 H 0.8436 0.6149 0.4189
H4 H 0.8958 0.7729 0.4224
C4 C 0.6379(6) 0.7442(4) 0.39610(12)
C5 C 0.4709(5) 0.6518(3) 0.40543(10)
H5 H 0.3675 0.7133 0.4113
C6 C 0.4332(5) 0.5727(3) 0.36012(10)
H6 H 0.3137 0.5989 0.3484
C7 C 0.4405(5) 0.4150(4) 0.36775(10)
C8 C 0.3189(5) 0.3646(3) 0.40645(10)
C9 C 0.1227(5) 0.4234(4) 0.40407(11)
H7 H 0.1208 0.5254 0.4041
C10 C 0.0124(5) 0.3623(4) 0.44272(12)
C11 C 0.4903(5) 0.5548(3) 0.44547(10)
C12 C -0.0911(6) 0.2376(5) 0.42502(13)
H8 H -0.2197 0.2575 0.4229
H9 H -0.0736 0.1572 0.4443
C13 C -0.0088(5) 0.2129(5) 0.37831(11)
H10 H -0.0952 0.1661 0.3583
C14 C 0.0259(5) 0.3626(4) 0.36313(12)
H11 H -0.0905 0.4102 0.3590
C15 C 0.3133(5) 0.2044(3) 0.41026(11)
H12 H 0.4308 0.1685 0.4012
H13 H 0.2961 0.1804 0.4417
C16 C 0.1679(5) 0.1291(4) 0.38273(11)
H14 H 0.1385 0.0428 0.3987
C17 C 0.4177(5) 0.4279(4) 0.44647(10)
H15 H 0.4280 0.3759 0.4728
C18 C 0.5963(10) 0.8991(5) 0.39878(16)
H16 H 0.4937 0.9200 0.3800
H17 H 0.6995 0.9512 0.3886
H18 H 0.5692 0.9238 0.4294
C19 C 0.6897(7) 0.7107(5) 0.34752(14)
C20 C 0.5735(7) 0.5824(5) 0.28164(12)
H19 H 0.5514 0.4833 0.2788
H20 H 0.6922 0.6019 0.2690
C21 C 0.4334(9) 0.6598(5) 0.25566(16)
H21 H 0.3150 0.6281 0.2644
H22 H 0.4508 0.6437 0.2240
H23 H 0.4440 0.7575 0.2618
C22 C 0.0477(7) 0.3412(6) 0.28374(13)
H24 H -0.0719 0.3806 0.2825
H25 H 0.0393 0.2416 0.2828
H26 H 0.1173 0.3735 0.2585
C23 C 0.1604(8) -0.0286(5) 0.32225(15)
H27 H 0.1626 -0.1017 0.3443
H28 H 0.2256 -0.0578 0.2959
H29 H 0.0370 -0.0083 0.3143
N1 N 0.5725(5) 0.6212(3) 0.32987(9)
O1 O 0.5732(5) 0.5550(3) 0.52264(8)
O2 O 0.8212(6) 0.7593(5) 0.32772(11)
O3 O 0.5495(4) 0.3422(3) 0.34961(8)
O4 O 0.0104(5) 0.4057(4) 0.48086(9)
O5 O 0.1340(4) 0.3828(3) 0.32448(7)
O6 O 0.2420(4) 0.0911(3) 0.34020(7)
loop_
_geom_bond_atom_site_label_1
_geom_bond_atom_site_label_2
_geom_bond_site_symmetry_1
_geom_bond_site_symmetry_2
C1 C2 1_555 1_555
C2 H1 1_555 1_555
H2 C2 1_555 1_555
C3 C2 1_555 1_555
H3 C3 1_555 1_555
H4 C3 1_555 1_555
C4 C3 1_555 1_555
C5 C4 1_555 1_555
H5 C5 1_555 1_555
C6 C5 1_555 1_555
H6 C6 1_555 1_555
C7 C6 1_555 1_555
C8 C7 1_555 1_555
C9 C8 1_555 1_555
H7 C9 1_555 1_555
C10 C9 1_555 1_555
C11 C1 1_555 1_555
C12 C10 1_555 1_555
H8 C12 1_555 1_555
H9 C12 1_555 1_555
C13 C12 1_555 1_555
H10 C13 1_555 1_555
C14 C9 1_555 1_555
H11 C14 1_555 1_555
C15 C8 1_555 1_555
H12 C15 1_555 1_555
H13 C15 1_555 1_555
C16 C13 1_555 1_555
H14 C16 1_555 1_555
C17 C8 1_555 1_555
H15 C17 1_555 1_555
C18 C4 1_555 1_555
H16 C18 1_555 1_555
H17 C18 1_555 1_555
H18 C18 1_555 1_555
C19 C4 1_555 1_555
C20 H19 1_555 1_555
H20 C20 1_555 1_555
C21 C20 1_555 1_555
H21 C21 1_555 1_555
H22 C21 1_555 1_555
H23 C21 1_555 1_555
C22 H24 1_555 1_555
H25 C22 1_555 1_555
H26 C22 1_555 1_555
C23 H27 1_555 1_555
H28 C23 1_555 1_555
H29 C23 1_555 1_555
N1 C6 1_555 1_555
O1 C1 1_555 1_555
O2 C19 1_555 1_555
O3 C7 1_555 1_555
O4 C10 1_555 1_555
O5 C14 1_555 1_555
O6 C16 1_555 1_555
C5 C11 1_555 1_555
C11 C17 1_555 1_555
C13 C14 1_555 1_555
C15 C16 1_555 1_555
C19 N1 1_555 1_555
C20 N1 1_555 1_555
C22 O5 1_555 1_555
C23 O6 1_555 1_555

#END
