
#######################################################################
#
#                 Cambridge Crystallographic Data Centre
#                                CCDC 
#
#######################################################################
#
# If this CIF has been generated from an entry in the Cambridge 
# Structural Database, then it will include bibliographic, chemical, 
# crystal, experimental, refinement or atomic coordinate data resulting 
# from the CCDC's data processing and validation procedures.
#
#######################################################################

data_YUHQAV
_chemical_formula_moiety         'C8 H15 N2 O1 1+,I1 1-'
_chemical_name_systematic        
'3-(2-methoxyethyl)-1,2-dimethyl-1H-imidazol-3-ium iodide'
_symmetry_cell_setting           monoclinic
_symmetry_space_group_name_H-M   'P 21/n'
_symmetry_Int_Tables_number      14
_space_group_name_Hall           '-P 2yn'
loop_
_symmetry_equiv_pos_site_id
_symmetry_equiv_pos_as_xyz
1 x,y,z
2 1/2-x,1/2+y,1/2-z
3 -x,-y,-z
4 1/2+x,1/2-y,1/2+z
_cell_length_a                   8.701(3)
_cell_length_b                   10.496(4)
_cell_length_c                   12.077(5)
_cell_angle_alpha                90
_cell_angle_beta                 91.900(5)
_cell_angle_gamma                90
_cell_volume                     1102.33
_exptl_crystal_colour            colorless
_exptl_crystal_description       block
_cell_formula_units_Z            4
loop_
_atom_site_label
_atom_site_type_symbol
_atom_site_fract_x
_atom_site_fract_y
_atom_site_fract_z
I1 I 0.04935(3) 0.38625(2) 0.250092(18)
O1 O 0.5951(3) 0.3991(2) 0.4082(2)
N1 N 0.5563(3) 0.4181(3) 0.1630(2)
N2 N 0.6928(3) 0.3403(3) 0.0339(2)
C1 C 0.6631(4) 0.4457(3) 0.0908(2)
C2 C 0.6029(4) 0.2430(3) 0.0722(3)
H1 H 0.6008 0.1594 0.0467
C3 C 0.5196(4) 0.2909(3) 0.1528(3)
H2 H 0.4494 0.2465 0.1946
C4 C 0.4973(4) 0.5051(4) 0.2466(3)
H3 H 0.3975 0.4755 0.2692
H4 H 0.4840 0.5892 0.2145
C5 C 0.6047(4) 0.5134(3) 0.3467(3)
H5 H 0.7093 0.5261 0.3236
H6 H 0.5765 0.5852 0.3924
C6 C 0.7088(5) 0.3954(4) 0.4944(4)
H7 H 0.8087 0.3896 0.4632
H8 H 0.6921 0.3226 0.5405
H9 H 0.7030 0.4716 0.5381
C7 C 0.7345(5) 0.5718(4) 0.0753(3)
H10 H 0.6657 0.6371 0.0991
H11 H 0.7551 0.5839 -0.0015
H12 H 0.8290 0.5764 0.1184
C8 C 0.8122(5) 0.3260(4) -0.0478(3)
H13 H 0.8140 0.4004 -0.0940
H14 H 0.7904 0.2523 -0.0928
H15 H 0.9104 0.3158 -0.0103
loop_
_geom_bond_atom_site_label_1
_geom_bond_atom_site_label_2
_geom_bond_site_symmetry_1
_geom_bond_site_symmetry_2
O1 C5 1_555 1_555
N1 C1 1_555 1_555
N2 C1 1_555 1_555
C1 C7 1_555 1_555
C2 N2 1_555 1_555
H1 C2 1_555 1_555
C3 N1 1_555 1_555
H2 C3 1_555 1_555
C4 N1 1_555 1_555
H3 C4 1_555 1_555
H4 C4 1_555 1_555
C5 C4 1_555 1_555
H5 C5 1_555 1_555
H6 C5 1_555 1_555
C6 O1 1_555 1_555
H7 C6 1_555 1_555
H8 C6 1_555 1_555
H9 C6 1_555 1_555
C7 H10 1_555 1_555
H11 C7 1_555 1_555
H12 C7 1_555 1_555
C8 N2 1_555 1_555
H13 C8 1_555 1_555
H14 C8 1_555 1_555
H15 C8 1_555 1_555
C2 C3 1_555 1_555

#END
