
#######################################################################
#
#                 Cambridge Crystallographic Data Centre
#                                CCDC 
#
#######################################################################
#
# If this CIF has been generated from an entry in the Cambridge 
# Structural Database, then it will include bibliographic, chemical, 
# crystal, experimental, refinement or atomic coordinate data resulting 
# from the CCDC's data processing and validation procedures.
#
#######################################################################

data_YUHREA
_chemical_formula_moiety         'C30 H38 N2 O2 2+,2(C24 H20 B1 1-)'
_chemical_name_systematic        
"4,4'-((2,5-dibutoxy-1,4-phenylene)diethene-2,1-diyl)bis(1-methylpyridinium) bis(tetraphenylborate)"
_symmetry_cell_setting           triclinic
_symmetry_space_group_name_H-M   'P -1'
_symmetry_Int_Tables_number      2
_space_group_name_Hall           '-P 1'
loop_
_symmetry_equiv_pos_site_id
_symmetry_equiv_pos_as_xyz
1 x,y,z
2 -x,-y,-z
_cell_length_a                   9.4289(5)
_cell_length_b                   9.4465(5)
_cell_length_c                   19.5338(10)
_cell_angle_alpha                77.352(3)
_cell_angle_beta                 86.440(3)
_cell_angle_gamma                64.489(2)
_cell_volume                     1531.11
_exptl_crystal_colour            black
_exptl_crystal_description       prism
_cell_formula_units_Z            1
loop_
_atom_site_label
_atom_site_type_symbol
_atom_site_fract_x
_atom_site_fract_y
_atom_site_fract_z
B1 B 0.1752(5) 0.6016(5) 0.1892(2)
C1 C -0.0160(4) 0.6676(4) 0.18029(19)
C2 C -0.1136(5) 0.6686(5) 0.2377(2)
H1 H -0.0696 0.6414 0.2827
C3 C -0.2718(5) 0.7081(5) 0.2304(3)
H2 H -0.3315 0.7072 0.2701
C4 C -0.3411(5) 0.7486(5) 0.1651(3)
H3 H -0.4476 0.7754 0.1600
C5 C -0.2508(5) 0.7489(5) 0.1073(2)
H4 H -0.2962 0.7762 0.0626
C6 C -0.0921(5) 0.7090(5) 0.1152(2)
H5 H -0.0336 0.7098 0.0751
C7 C 0.2484(4) 0.6817(4) 0.12133(18)
C8 C 0.1740(5) 0.8443(5) 0.0901(2)
H6 H 0.0769 0.9062 0.1064
C9 C 0.2369(5) 0.9180(5) 0.0363(2)
H7 H 0.1825 1.0274 0.0177
C10 C 0.3787(5) 0.8319(5) 0.0100(2)
H8 H 0.4209 0.8814 -0.0265
C11 C 0.4568(5) 0.6717(6) 0.0386(2)
H9 H 0.5529 0.6112 0.0211
C12 C 0.3934(4) 0.5978(5) 0.0939(2)
H10 H 0.4500 0.4890 0.1130
C13 C 0.2276(4) 0.6473(4) 0.25702(18)
C14 C 0.3773(5) 0.5626(5) 0.2879(2)
H11 H 0.4471 0.4734 0.2712
C15 C 0.4283(5) 0.6036(6) 0.3422(2)
H12 H 0.5301 0.5422 0.3611
C16 C 0.3295(6) 0.7343(6) 0.3681(2)
H13 H 0.3626 0.7622 0.4049
C17 C 0.1798(6) 0.8236(6) 0.3384(2)
H14 H 0.1109 0.9133 0.3550
C18 C 0.1318(5) 0.7806(5) 0.2843(2)
H15 H 0.0306 0.8436 0.2650
C19 C 0.2378(4) 0.4071(4) 0.19827(19)
C20 C 0.2606(5) 0.3339(5) 0.1409(2)
H16 H 0.2510 0.3959 0.0959
C21 C 0.2967(6) 0.1725(6) 0.1488(3)
H17 H 0.3118 0.1283 0.1093
C22 C 0.3105(6) 0.0772(5) 0.2146(3)
H18 H 0.3336 -0.0308 0.2199
C23 C 0.2898(6) 0.1433(5) 0.2719(3)
H19 H 0.2988 0.0802 0.3167
C24 C 0.2555(5) 0.3039(5) 0.2637(2)
H20 H 0.2436 0.3455 0.3038
C25 C 0.1056(6) -0.3110(6) 0.9322(2)
H21 H 0.1329 -0.2597 0.9632
H22 H 0.1579 -0.4254 0.9484
H23 H -0.0061 -0.2771 0.9315
C26 C 0.2279(5) -0.1679(5) 0.8483(2)
H24 H 0.2432 -0.1265 0.8847
C27 C 0.2795(5) -0.1287(5) 0.7832(2)
H25 H 0.3310 -0.0622 0.7759
C28 C 0.2558(4) -0.1874(4) 0.72749(19)
C29 C 0.1777(5) -0.2858(5) 0.7429(2)
H26 H 0.1586 -0.3273 0.7073
C30 C 0.1287(5) -0.3232(5) 0.8084(2)
H27 H 0.0764 -0.3889 0.8170
C31 C 0.3125(5) -0.1540(5) 0.6578(2)
H28 H 0.3184 -0.2209 0.6282
C32 C 0.3563(5) -0.0386(5) 0.6323(2)
H29 H 0.3402 0.0361 0.6595
C33 C 0.4284(4) -0.0185(5) 0.56460(19)
C34 C 0.4096(4) 0.1338(5) 0.5278(2)
C35 C 0.4795(5) 0.1516(5) 0.4643(2)
H30 H 0.4653 0.2536 0.4403
C36 C 0.2708(5) 0.4185(5) 0.5191(2)
H31 H 0.2307 0.4310 0.4726
H32 H 0.3616 0.4425 0.5143
C37 C 0.1456(5) 0.5303(5) 0.5587(2)
H33 H 0.0606 0.4975 0.5671
H34 H 0.1898 0.5202 0.6040
C38 C 0.0794(7) 0.7043(6) 0.5206(3)
H35 H 0.0395 0.7134 0.4745
H36 H 0.1639 0.7380 0.5140
C39 C -0.0502(6) 0.8163(6) 0.5581(3)
H37 H -0.1295 0.7776 0.5693
H38 H -0.0957 0.9215 0.5283
H39 H -0.0080 0.8213 0.6005
N1 N 0.1551(4) -0.2660(4) 0.86045(16)
O1 O 0.3135(4) 0.2595(3) 0.55797(14)
C25A C 0.8944(6) 0.3110(6) 0.0678(2)
H21A H 0.8671 0.2597 0.0368
H22A H 0.8421 0.4254 0.0516
H23A H 1.0061 0.2771 0.0685
C26A C 0.7721(5) 0.1679(5) 0.1517(2)
H24A H 0.7568 0.1265 0.1153
C27A C 0.7205(5) 0.1287(5) 0.2168(2)
H25A H 0.6690 0.0622 0.2241
C28A C 0.7442(4) 0.1874(4) 0.27251(19)
C29A C 0.8223(5) 0.2858(5) 0.2571(2)
H26A H 0.8414 0.3273 0.2927
C30A C 0.8713(5) 0.3232(5) 0.1916(2)
H27A H 0.9236 0.3889 0.1830
C31A C 0.6875(5) 0.1540(5) 0.3422(2)
H28A H 0.6816 0.2209 0.3718
C32A C 0.6437(5) 0.0386(5) 0.3677(2)
H29A H 0.6598 -0.0361 0.3405
C33A C 0.5716(4) 0.0185(5) 0.43540(19)
C34A C 0.5904(4) -0.1338(5) 0.4722(2)
C35A C 0.5205(5) -0.1516(5) 0.5357(2)
H30A H 0.5347 -0.2536 0.5597
C36A C 0.7292(5) -0.4185(5) 0.4809(2)
H31A H 0.7693 -0.4310 0.5274
H32A H 0.6384 -0.4425 0.4857
C37A C 0.8544(5) -0.5303(5) 0.4413(2)
H33A H 0.9394 -0.4975 0.4329
H34A H 0.8102 -0.5202 0.3960
C38A C 0.9206(7) -0.7043(6) 0.4794(3)
H35A H 0.9605 -0.7134 0.5255
H36A H 0.8361 -0.7380 0.4860
C39A C 1.0502(6) -0.8163(6) 0.4419(3)
H37A H 1.1295 -0.7776 0.4307
H38A H 1.0957 -0.9215 0.4717
H39A H 1.0080 -0.8213 0.3995
N1A N 0.8449(4) 0.2660(4) 0.13955(16)
O1A O 0.6865(4) -0.2595(3) 0.44203(14)
loop_
_geom_bond_atom_site_label_1
_geom_bond_atom_site_label_2
_geom_bond_site_symmetry_1
_geom_bond_site_symmetry_2
B1 C1 1_555 1_555
C1 C2 1_555 1_555
C2 H1 1_555 1_555
C3 C2 1_555 1_555
H2 C3 1_555 1_555
C4 C3 1_555 1_555
H3 C4 1_555 1_555
C5 C4 1_555 1_555
H4 C5 1_555 1_555
C6 C1 1_555 1_555
H5 C6 1_555 1_555
C7 B1 1_555 1_555
C8 C7 1_555 1_555
H6 C8 1_555 1_555
C9 C8 1_555 1_555
H7 C9 1_555 1_555
C10 C9 1_555 1_555
H8 C10 1_555 1_555
C11 C10 1_555 1_555
H9 C11 1_555 1_555
C12 C7 1_555 1_555
H10 C12 1_555 1_555
C13 B1 1_555 1_555
C14 C13 1_555 1_555
H11 C14 1_555 1_555
C15 C14 1_555 1_555
H12 C15 1_555 1_555
C16 C15 1_555 1_555
H13 C16 1_555 1_555
C17 C16 1_555 1_555
H14 C17 1_555 1_555
C18 C13 1_555 1_555
H15 C18 1_555 1_555
C19 B1 1_555 1_555
C20 C19 1_555 1_555
H16 C20 1_555 1_555
C21 C20 1_555 1_555
H17 C21 1_555 1_555
C22 C21 1_555 1_555
H18 C22 1_555 1_555
C23 C22 1_555 1_555
H19 C23 1_555 1_555
C24 C19 1_555 1_555
H20 C24 1_555 1_555
C25 H21 1_555 1_555
H22 C25 1_555 1_555
H23 C25 1_555 1_555
C26 H24 1_555 1_555
C27 C26 1_555 1_555
H25 C27 1_555 1_555
C28 C27 1_555 1_555
C29 C28 1_555 1_555
H26 C29 1_555 1_555
C30 C29 1_555 1_555
H27 C30 1_555 1_555
C31 C28 1_555 1_555
H28 C31 1_555 1_555
C32 C31 1_555 1_555
H29 C32 1_555 1_555
C33 C32 1_555 1_555
C34 C33 1_555 1_555
C35 C34 1_555 1_555
H30 C35 1_555 1_555
C36 H31 1_555 1_555
H32 C36 1_555 1_555
C37 C36 1_555 1_555
H33 C37 1_555 1_555
H34 C37 1_555 1_555
C38 C37 1_555 1_555
H35 C38 1_555 1_555
H36 C38 1_555 1_555
C39 C38 1_555 1_555
H37 C39 1_555 1_555
H38 C39 1_555 1_555
H39 C39 1_555 1_555
N1 C25 1_555 1_555
O1 C34 1_555 1_555
C25A H21A 1_555 1_555
H22A C25A 1_555 1_555
H23A C25A 1_555 1_555
C26A H24A 1_555 1_555
C27A C26A 1_555 1_555
H25A C27A 1_555 1_555
C28A C27A 1_555 1_555
C29A C28A 1_555 1_555
H26A C29A 1_555 1_555
C30A C29A 1_555 1_555
H27A C30A 1_555 1_555
C31A C28A 1_555 1_555
H28A C31A 1_555 1_555
C32A C31A 1_555 1_555
H29A C32A 1_555 1_555
C33A C35 1_555 1_555
C34A C33A 1_555 1_555
C35A C33 1_555 1_555
H30A C35A 1_555 1_555
C36A H31A 1_555 1_555
H32A C36A 1_555 1_555
C37A C36A 1_555 1_555
H33A C37A 1_555 1_555
H34A C37A 1_555 1_555
C38A C37A 1_555 1_555
H35A C38A 1_555 1_555
H36A C38A 1_555 1_555
C39A C38A 1_555 1_555
H37A C39A 1_555 1_555
H38A C39A 1_555 1_555
H39A C39A 1_555 1_555
N1A C25A 1_555 1_555
O1A C34A 1_555 1_555
C5 C6 1_555 1_555
C11 C12 1_555 1_555
C17 C18 1_555 1_555
C23 C24 1_555 1_555
C26 N1 1_555 1_555
C30 N1 1_555 1_555
C36 O1 1_555 1_555
C26A N1A 1_555 1_555
C30A N1A 1_555 1_555
C32A C33A 1_555 1_555
C34A C35A 1_555 1_555
C36A O1A 1_555 1_555

#END
