
#######################################################################
#
#                 Cambridge Crystallographic Data Centre
#                                CCDC 
#
#######################################################################
#
# If this CIF has been generated from an entry in the Cambridge 
# Structural Database, then it will include bibliographic, chemical, 
# crystal, experimental, refinement or atomic coordinate data resulting 
# from the CCDC's data processing and validation procedures.
#
#######################################################################

data_YUHTUS
_chemical_formula_moiety         'C70 H56 O4 Si4'
_chemical_name_systematic        
7,15-dimethyl-1,2,3,4,7,10,11,12,13,15-decaphenyl-6,8,14,16-tetraoxa-5,7,9,15-tetrasiladispiro[4.3.4.3]hexadeca-1,3,10,12-tetraene
_symmetry_cell_setting           orthorhombic
_symmetry_space_group_name_H-M   'P 21 21 21'
_symmetry_Int_Tables_number      19
_space_group_name_Hall           'P 2ac 2ab'
loop_
_symmetry_equiv_pos_site_id
_symmetry_equiv_pos_as_xyz
1 x,y,z
2 1/2-x,-y,1/2+z
3 -x,1/2+y,1/2-z
4 1/2+x,1/2-y,-z
_cell_length_a                   13.033(8)
_cell_length_b                   19.851(11)
_cell_length_c                   22.521(11)
_cell_angle_alpha                90
_cell_angle_beta                 90
_cell_angle_gamma                90
_cell_volume                     5826.59
_exptl_crystal_colour            'light yellow'
_exptl_crystal_description       block
_cell_formula_units_Z            4
loop_
_atom_site_label
_atom_site_type_symbol
_atom_site_fract_x
_atom_site_fract_y
_atom_site_fract_z
Si1 Si 0.25007(10) 0.58943(7) 0.12058(6)
Si2 Si 0.47877(10) 0.63757(7) 0.13599(7)
Si3 Si 0.54223(11) 0.48694(8) 0.17162(7)
Si4 Si 0.31353(11) 0.43989(8) 0.15287(7)
O1 O 0.3566(2) 0.63087(18) 0.12184(16)
O2 O 0.5241(3) 0.56507(18) 0.15603(16)
O3 O 0.4336(3) 0.44850(19) 0.17208(18)
O4 O 0.2764(2) 0.50945(17) 0.12220(16)
C1 C 0.1540(4) 0.6144(3) 0.1773(2)
C2 C 0.0678(4) 0.6312(2) 0.1477(2)
C3 C 0.0741(4) 0.6299(2) 0.0803(2)
C4 C 0.1656(4) 0.6105(2) 0.0572(2)
C5 C 0.1657(4) 0.6100(3) 0.2423(2)
C6 C 0.2540(4) 0.6344(3) 0.2688(3)
H1 H 0.3048 0.6558 0.2451
C7 C 0.2694(5) 0.6279(4) 0.3296(3)
H2 H 0.3303 0.6453 0.3471
C8 C 0.1981(6) 0.5967(4) 0.3645(3)
H3 H 0.2094 0.5916 0.4059
C9 C 0.1103(5) 0.5730(3) 0.3388(3)
H4 H 0.0601 0.5517 0.3630
C10 C 0.0926(4) 0.5793(3) 0.2786(3)
H5 H 0.0306 0.5627 0.2619
C11 C -0.0289(4) 0.6529(3) 0.1777(2)
C12 C -0.0282(4) 0.7085(3) 0.2153(2)
H6 H 0.0338 0.7326 0.2214
C13 C -0.1156(5) 0.7289(3) 0.2436(3)
H7 H -0.1137 0.7669 0.2691
C14 C -0.2064(5) 0.6949(4) 0.2353(3)
H8 H -0.2672 0.7098 0.2545
C15 C -0.2084(4) 0.6391(4) 0.1990(3)
H9 H -0.2708 0.6149 0.1941
C16 C -0.1209(4) 0.6176(3) 0.1697(3)
H10 H -0.1233 0.5794 0.1444
C17 C -0.0171(5) 0.6480(6) 0.0454(3)
C18 C -0.0535(10) 0.7150(5) 0.0515(5)
H11 H -0.0202 0.7450 0.0782
C19 C -0.1368(12) 0.7368(8) 0.0192(6)
H12 H -0.1602 0.7818 0.0234
C20 C -0.1855(10) 0.6944(11) -0.0187(6)
H13 H -0.2433 0.7100 -0.0404
C21 C -0.1517(10) 0.6281(10) -0.0261(6)
H14 H -0.1869 0.5985 -0.0523
C22 C -0.0657(8) 0.6056(7) 0.0054(6)
H15 H -0.0406 0.5612 -0.0006
C23 C 0.1996(4) 0.6114(3) -0.0050(2)
C24 C 0.1573(4) 0.6502(3) -0.0506(3)
H16 H 0.0971 0.6756 -0.0427
C25 C 0.1991(5) 0.6529(4) -0.1059(3)
H17 H 0.1685 0.6804 -0.1355
C26 C 0.2850(5) 0.6163(4) -0.1190(3)
H18 H 0.3140 0.6182 -0.1577
C27 C 0.3287(5) 0.5770(3) -0.0764(3)
H19 H 0.3882 0.5514 -0.0854
C28 C 0.2870(4) 0.5743(3) -0.0200(2)
H20 H 0.3184 0.5466 0.0092
C29 C 0.4956(4) 0.6957(3) 0.1995(3)
C30 C 0.4862(4) 0.7651(3) 0.1922(3)
H21 H 0.4750 0.7834 0.1538
C31 C 0.4931(5) 0.8073(3) 0.2409(4)
H22 H 0.4883 0.8547 0.2354
C32 C 0.5067(5) 0.7818(3) 0.2971(4)
H23 H 0.5086 0.8112 0.3304
C33 C 0.5177(5) 0.7132(3) 0.3047(3)
H24 H 0.5285 0.6952 0.3433
C34 C 0.5131(5) 0.6713(3) 0.2569(3)
H25 H 0.5220 0.6243 0.2626
C35 C 0.5437(5) 0.6664(3) 0.0683(3)
H26 H 0.5259 0.6365 0.0352
H27 H 0.6182 0.6656 0.0745
H28 H 0.5219 0.7124 0.0590
C36 C 0.6165(4) 0.4734(3) 0.2412(2)
C37 C 0.7026(4) 0.4397(3) 0.2250(2)
C38 C 0.7145(4) 0.4238(3) 0.1599(2)
C39 C 0.6395(4) 0.4458(3) 0.1237(3)
C40 C 0.5882(4) 0.4964(3) 0.3013(3)
C41 C 0.4890(4) 0.4883(3) 0.3215(3)
H29 H 0.4402 0.4666 0.2967
C42 C 0.4588(5) 0.5107(3) 0.3765(3)
H30 H 0.3906 0.5026 0.3897
C43 C 0.5251(6) 0.5440(3) 0.4119(3)
H31 H 0.5030 0.5609 0.4493
C44 C 0.6265(6) 0.5534(3) 0.3933(3)
H32 H 0.6741 0.5760 0.4183
C45 C 0.6570(5) 0.5298(3) 0.3387(3)
H33 H 0.7259 0.5363 0.3262
C46 C 0.7838(4) 0.4168(3) 0.2671(2)
C47 C 0.7647(4) 0.3668(3) 0.3080(3)
H34 H 0.6974 0.3489 0.3117
C48 C 0.8427(4) 0.3425(4) 0.3439(3)
H35 H 0.8288 0.3071 0.3711
C49 C 0.9395(4) 0.3687(3) 0.3405(3)
H36 H 0.9922 0.3525 0.3659
C50 C 0.9598(4) 0.4186(3) 0.3002(3)
H37 H 1.0270 0.4369 0.2976
C51 C 0.8832(4) 0.4424(3) 0.2635(3)
H38 H 0.8984 0.4766 0.2353
C52 C 0.8068(4) 0.3852(3) 0.1388(3)
C53 C 0.8788(5) 0.4148(4) 0.1032(3)
H39 H 0.8681 0.4595 0.0894
C54 C 0.9678(6) 0.3805(4) 0.0868(3)
H40 H 1.0181 0.4018 0.0627
C55 C 0.9815(6) 0.3151(5) 0.1061(3)
H41 H 1.0416 0.2912 0.0951
C56 C 0.9093(6) 0.2844(4) 0.1411(3)
H42 H 0.9194 0.2392 0.1535
C57 C 0.8218(5) 0.3186(3) 0.1584(3)
H43 H 0.7724 0.2974 0.1831
C58 C 0.6352(12) 0.4352(7) 0.0583(3)
C59 C 0.6352(15) 0.4894(8) 0.0202(6)
H44 H 0.6435 0.5334 0.0360
C60 C 0.6232(13) 0.4813(9) -0.0412(5)
H45 H 0.6226 0.5193 -0.0668
C61 C 0.6123(9) 0.4164(9) -0.0639(5)
H46 H 0.6006 0.4098 -0.1051
C62 C 0.6185(12) 0.3610(8) -0.0255(6)
H47 H 0.6134 0.3165 -0.0408
C63 C 0.6320(11) 0.3714(7) 0.0341(6)
H48 H 0.6395 0.3336 0.0596
C64 C 0.3101(4) 0.3676(2) 0.1004(2)
C65 C 0.2756(4) 0.3057(2) 0.12123(17)
H49 H 0.2495 0.3020 0.1605
C66 C 0.2794(5) 0.2494(2) 0.0847(2)
H50 H 0.2558 0.2071 0.0989
C67 C 0.3177(5) 0.2549(2) 0.0273(2)
H51 H 0.3203 0.2163 0.0023
C68 C 0.3522(5) 0.3167(3) 0.00642(18)
H52 H 0.3783 0.3205 -0.0328
C69 C 0.3484(5) 0.3731(2) 0.0430(2)
H53 H 0.3720 0.4154 0.0287
C70 C 0.2366(6) 0.4224(3) 0.2203(3)
H54 H 0.2673 0.3848 0.2421
H55 H 0.1663 0.4107 0.2087
H56 H 0.2355 0.4626 0.2456
C71? C -0.0157(15) 0.657(3) 0.0475(10)
C72? C -0.080(4) 0.714(2) 0.0475(14)
H57? H -0.0628 0.7523 0.0712
C73? C -0.166(3) 0.716(3) 0.014(2)
H58? H -0.2058 0.7557 0.0137
C74? C -0.198(3) 0.663(3) -0.019(2)
H59? H -0.2576 0.6672 -0.0436
C75? C -0.143(4) 0.603(3) -0.018(2)
H60? H -0.1650 0.5645 -0.0393
C76? C -0.053(3) 0.601(2) 0.017(2)
H61? H -0.0169 0.5592 0.0195
C77? C 0.617(5) 0.429(2) 0.0610(9)
C78? C 0.608(4) 0.478(2) 0.0187(17)
H62? H 0.6128 0.5241 0.0289
C79? C 0.592(4) 0.457(2) -0.0409(16)
H63? H 0.5910 0.4885 -0.0727
C80? C 0.576(4) 0.389(2) -0.0502(17)
H64? H 0.5664 0.3741 -0.0901
C81? C 0.573(4) 0.339(2) -0.0061(18)
H65? H 0.5578 0.2934 -0.0142
C82? C 0.595(4) 0.362(2) 0.0501(16)
H66? H 0.5954 0.3313 0.0822
C83? C 0.3137(18) 0.3098(12) 0.1008(10)
H67? H 0.3488 0.2957 0.1356
C84? C 0.2939(14) 0.2638(9) 0.0557(12)
H68? H 0.3154 0.2183 0.0597
C85? C 0.243(2) 0.2844(11) 0.0047(9)
H69? H 0.2290 0.2530 -0.0261
C86? C 0.211(2) 0.3510(12) -0.0012(9)
H70? H 0.1760 0.3651 -0.0360
C87? C 0.2310(17) 0.3970(9) 0.0439(11)
H71? H 0.2095 0.4425 0.0399
C88? C 0.2823(17) 0.3764(12) 0.0949(9)
loop_
_geom_bond_atom_site_label_1
_geom_bond_atom_site_label_2
_geom_bond_site_symmetry_1
_geom_bond_site_symmetry_2
Si1 O1 1_555 1_555
Si2 O1 1_555 1_555
Si3 O2 1_555 1_555
Si4 O3 1_555 1_555
O2 Si2 1_555 1_555
O3 Si3 1_555 1_555
O4 Si1 1_555 1_555
C1 Si1 1_555 1_555
C2 C1 1_555 1_555
C3 C2 1_555 1_555
C4 Si1 1_555 1_555
C5 C1 1_555 1_555
C6 C5 1_555 1_555
H1 C6 1_555 1_555
C7 C6 1_555 1_555
H2 C7 1_555 1_555
C8 C7 1_555 1_555
H3 C8 1_555 1_555
C9 C8 1_555 1_555
H4 C9 1_555 1_555
C10 C5 1_555 1_555
H5 C10 1_555 1_555
C11 C2 1_555 1_555
C12 C11 1_555 1_555
H6 C12 1_555 1_555
C13 C12 1_555 1_555
H7 C13 1_555 1_555
C14 C13 1_555 1_555
H8 C14 1_555 1_555
C15 C14 1_555 1_555
H9 C15 1_555 1_555
C16 C11 1_555 1_555
H10 C16 1_555 1_555
C17 C3 1_555 1_555
C18 C17 1_555 1_555
H11 C18 1_555 1_555
C19 C18 1_555 1_555
H12 C19 1_555 1_555
C20 C19 1_555 1_555
H13 C20 1_555 1_555
C21 C20 1_555 1_555
H14 C21 1_555 1_555
C22 C17 1_555 1_555
H15 C22 1_555 1_555
C23 C4 1_555 1_555
C24 C23 1_555 1_555
H16 C24 1_555 1_555
C25 C24 1_555 1_555
H17 C25 1_555 1_555
C26 C25 1_555 1_555
H18 C26 1_555 1_555
C27 C26 1_555 1_555
H19 C27 1_555 1_555
C28 C23 1_555 1_555
H20 C28 1_555 1_555
C29 Si2 1_555 1_555
C30 C29 1_555 1_555
H21 C30 1_555 1_555
C31 C30 1_555 1_555
H22 C31 1_555 1_555
C32 C31 1_555 1_555
H23 C32 1_555 1_555
C33 C32 1_555 1_555
H24 C33 1_555 1_555
C34 C29 1_555 1_555
H25 C34 1_555 1_555
C35 Si2 1_555 1_555
H26 C35 1_555 1_555
H27 C35 1_555 1_555
H28 C35 1_555 1_555
C36 Si3 1_555 1_555
C37 C36 1_555 1_555
C38 C37 1_555 1_555
C39 Si3 1_555 1_555
C40 C36 1_555 1_555
C41 C40 1_555 1_555
H29 C41 1_555 1_555
C42 C41 1_555 1_555
H30 C42 1_555 1_555
C43 C42 1_555 1_555
H31 C43 1_555 1_555
C44 C43 1_555 1_555
H32 C44 1_555 1_555
C45 C40 1_555 1_555
H33 C45 1_555 1_555
C46 C37 1_555 1_555
C47 C46 1_555 1_555
H34 C47 1_555 1_555
C48 C47 1_555 1_555
H35 C48 1_555 1_555
C49 C48 1_555 1_555
H36 C49 1_555 1_555
C50 C49 1_555 1_555
H37 C50 1_555 1_555
C51 C46 1_555 1_555
H38 C51 1_555 1_555
C52 C38 1_555 1_555
C53 C52 1_555 1_555
H39 C53 1_555 1_555
C54 C53 1_555 1_555
H40 C54 1_555 1_555
C55 C54 1_555 1_555
H41 C55 1_555 1_555
C56 C55 1_555 1_555
H42 C56 1_555 1_555
C57 C52 1_555 1_555
H43 C57 1_555 1_555
C58 C39 1_555 1_555
C59 C58 1_555 1_555
H44 C59 1_555 1_555
C60 C59 1_555 1_555
H45 C60 1_555 1_555
C61 C60 1_555 1_555
H46 C61 1_555 1_555
C62 C61 1_555 1_555
H47 C62 1_555 1_555
C63 C58 1_555 1_555
H48 C63 1_555 1_555
C64 Si4 1_555 1_555
C65 C64 1_555 1_555
H49 C65 1_555 1_555
C66 C65 1_555 1_555
H50 C66 1_555 1_555
C67 C66 1_555 1_555
H51 C67 1_555 1_555
C68 C67 1_555 1_555
H52 C68 1_555 1_555
C69 C64 1_555 1_555
H53 C69 1_555 1_555
C70 Si4 1_555 1_555
H54 C70 1_555 1_555
H55 C70 1_555 1_555
H56 C70 1_555 1_555
Si4 O4 1_555 1_555
C3 C4 1_555 1_555
C9 C10 1_555 1_555
C15 C16 1_555 1_555
C21 C22 1_555 1_555
C27 C28 1_555 1_555
C33 C34 1_555 1_555
C38 C39 1_555 1_555
C44 C45 1_555 1_555
C50 C51 1_555 1_555
C56 C57 1_555 1_555
C62 C63 1_555 1_555
C68 C69 1_555 1_555

#END
