
#######################################################################
#
#                 Cambridge Crystallographic Data Centre
#                                CCDC 
#
#######################################################################
#
# If this CIF has been generated from an entry in the Cambridge 
# Structural Database, then it will include bibliographic, chemical, 
# crystal, experimental, refinement or atomic coordinate data resulting 
# from the CCDC's data processing and validation procedures.
#
#######################################################################

data_YUHTOM
_chemical_formula_moiety         'C32 H32 O3 Si3'
_chemical_name_systematic        
7,7,9,9-tetramethyl-1,2,3,4-tetraphenyl-6,8,10-trioxa-5,7,9-trisilaspiro[4.5]deca-1,3-diene
_symmetry_cell_setting           triclinic
_symmetry_space_group_name_H-M   'P -1'
_symmetry_Int_Tables_number      2
_space_group_name_Hall           '-P 1'
loop_
_symmetry_equiv_pos_site_id
_symmetry_equiv_pos_as_xyz
1 x,y,z
2 -x,-y,-z
_cell_length_a                   11.360(4)
_cell_length_b                   13.726(5)
_cell_length_c                   19.888(7)
_cell_angle_alpha                88.787(14)
_cell_angle_beta                 86.10(2)
_cell_angle_gamma                79.312(18)
_cell_volume                     3040.11
_exptl_crystal_colour            colorless
_exptl_crystal_description       block
_cell_formula_units_Z            4
loop_
_atom_site_label
_atom_site_type_symbol
_atom_site_fract_x
_atom_site_fract_y
_atom_site_fract_z
Si1 Si 0.83523(4) 0.69884(4) 0.25187(2)
Si2 Si 1.10335(4) 0.63535(4) 0.24613(3)
Si3 Si 0.94654(4) 0.48504(4) 0.22825(3)
O1 O 0.97427(11) 0.71380(9) 0.24911(6)
O2 O 1.07260(11) 0.52736(9) 0.22798(7)
O3 O 0.83696(10) 0.58127(9) 0.23972(6)
C1 C 0.74903(15) 0.74983(13) 0.32961(9)
C2 C 0.65987(15) 0.82224(13) 0.31011(9)
C3 C 0.64935(15) 0.83604(13) 0.23460(9)
C4 C 0.73691(15) 0.78089(13) 0.19422(9)
C5 C 0.78538(15) 0.72234(14) 0.39858(9)
C6 C 0.81586(18) 0.62263(15) 0.41599(10)
H1 H 0.8068 0.5736 0.3848
C7 C 0.85944(19) 0.59359(17) 0.47839(11)
H2 H 0.8781 0.5252 0.4900
C8 C 0.87538(19) 0.66411(18) 0.52332(10)
H3 H 0.9074 0.6444 0.5654
C9 C 0.84480(19) 0.76366(17) 0.50724(10)
H4 H 0.8548 0.8123 0.5386
C10 C 0.79939(17) 0.79266(15) 0.44531(10)
H5 H 0.7777 0.8612 0.4348
C11 C 0.57094(16) 0.88602(14) 0.35685(9)
C12 C 0.55512(18) 0.98898(15) 0.35316(10)
H6 H 0.6027 1.0197 0.3211
C13 C 0.4700(2) 1.04699(16) 0.39613(11)
H7 H 0.4598 1.1172 0.3935
C14 C 0.40025(19) 1.00267(18) 0.44263(11)
H8 H 0.3416 1.0425 0.4717
C15 C 0.41544(17) 0.90106(17) 0.44692(10)
H9 H 0.3675 0.8709 0.4791
C16 C 0.50050(16) 0.84244(15) 0.40446(9)
H10 H 0.5108 0.7723 0.4078
C17 C 0.54230(16) 0.90532(13) 0.21148(9)
C18 C 0.55201(17) 0.99858(14) 0.18548(10)
H11 H 0.6274 1.0194 0.1837
C19 C 0.45284(18) 1.06165(15) 0.16213(10)
H12 H 0.4607 1.1250 0.1442
C20 C 0.34255(18) 1.03221(15) 0.16501(10)
H13 H 0.2748 1.0749 0.1485
C21 C 0.33122(17) 0.94039(15) 0.19200(10)
H14 H 0.2554 0.9203 0.1944
C22 C 0.43035(16) 0.87775(14) 0.21550(9)
H15 H 0.4216 0.8152 0.2346
C23 C 0.75234(16) 0.77503(14) 0.12006(9)
C24 C 0.66771(18) 0.81963(17) 0.07548(10)
H16 H 0.5927 0.8559 0.0928
C25 C 0.69211(19) 0.81150(18) 0.00617(10)
H17 H 0.6338 0.8425 -0.0234
C26 C 0.80037(19) 0.75880(17) -0.02017(10)
H18 H 0.8167 0.7542 -0.0676
C27 C 0.88449(19) 0.71293(17) 0.02257(10)
H19 H 0.9588 0.6760 0.0048
C28 C 0.86004(17) 0.72103(15) 0.09156(9)
H20 H 0.9185 0.6888 0.1206
C29 C 1.20532(17) 0.67127(16) 0.17813(11)
H21 H 1.1663 0.6758 0.1354
H22 H 1.2792 0.6213 0.1744
H23 H 1.2248 0.7358 0.1883
C30 C 1.16502(19) 0.63134(17) 0.32941(11)
H24 H 1.1822 0.6967 0.3396
H25 H 1.2393 0.5819 0.3293
H26 H 1.1065 0.6134 0.3637
C31 C 0.93580(19) 0.42819(16) 0.14642(11)
H27 H 0.8602 0.4034 0.1466
H28 H 1.0034 0.3730 0.1386
H29 H 0.9380 0.4779 0.1105
C32 C 0.93916(18) 0.39818(15) 0.29954(11)
H30 H 0.9600 0.4278 0.3405
H31 H 0.9960 0.3363 0.2900
H32 H 0.8576 0.3842 0.3061
Si4 Si 0.64252(4) 0.28913(4) 0.24530(2)
Si5 Si 0.37593(4) 0.35520(4) 0.24394(3)
Si6 Si 0.53700(4) 0.50656(4) 0.24104(3)
O4 O 0.50288(11) 0.27582(9) 0.24931(6)
O5 O 0.40999(11) 0.46577(9) 0.24029(7)
O6 O 0.64419(10) 0.40776(9) 0.24118(6)
C33 C 0.73376(16) 0.22629(13) 0.31333(9)
C34 C 0.82387(16) 0.15991(13) 0.28278(9)
C35 C 0.82172(16) 0.15208(13) 0.20654(9)
C36 C 0.73333(15) 0.21525(13) 0.17702(9)
C37 C 0.71779(17) 0.26042(14) 0.38412(9)
C38 C 0.60266(17) 0.30338(15) 0.40962(9)
H33 H 0.5367 0.3044 0.3825
C39 C 0.58187(19) 0.34456(17) 0.47333(10)
H34 H 0.5026 0.3731 0.4894
C40 C 0.6766(2) 0.34400(18) 0.51339(10)
H35 H 0.6630 0.3724 0.5570
C41 C 0.79168(19) 0.30166(17) 0.48946(10)
H36 H 0.8570 0.3008 0.5170
C42 C 0.81253(18) 0.26058(16) 0.42586(9)
H37 H 0.8921 0.2321 0.4102
C43 C 0.92214(16) 0.09692(14) 0.31837(9)
C44 C 0.89509(19) 0.03467(16) 0.37109(11)
H38 H 0.8137 0.0313 0.3835
C45 C 0.9856(2) -0.02223(18) 0.40559(13)
H39 H 0.9661 -0.0645 0.4414
C46 C 1.1045(2) -0.01775(18) 0.38804(13)
H40 H 1.1665 -0.0569 0.4119
C47 C 1.13313(18) 0.04365(16) 0.33587(11)
H41 H 1.2147 0.0474 0.3242
C48 C 1.04245(17) 0.09998(15) 0.30053(10)
H42 H 1.0625 0.1409 0.2640
C49 C 0.91099(15) 0.07682(14) 0.16906(9)
C50 C 0.92450(16) -0.02328(14) 0.18621(9)
H43 H 0.8812 -0.0435 0.2249
C51 C 1.00076(17) -0.09342(15) 0.14710(10)
H44 H 1.0087 -0.1617 0.1587
C52 C 1.06567(17) -0.06443(15) 0.09114(10)
H45 H 1.1170 -0.1130 0.0641
C53 C 1.05588(17) 0.03487(15) 0.07465(10)
H46 H 1.1019 0.0548 0.0369
C54 C 0.97892(16) 0.10514(14) 0.11318(9)
H47 H 0.9721 0.1734 0.1016
C55 C 0.70093(16) 0.21771(15) 0.10587(9)
C56 C 0.70455(16) 0.13244(15) 0.06813(9)
H48 H 0.7359 0.0693 0.0866
C57 C 0.66269(17) 0.13888(17) 0.00372(10)
H49 H 0.6634 0.0801 -0.0208
C58 C 0.62029(19) 0.22984(19) -0.02475(10)
H50 H 0.5930 0.2339 -0.0690
C59 C 0.6175(2) 0.31512(19) 0.01124(11)
H51 H 0.5893 0.3781 -0.0084
C60 C 0.65624(19) 0.30877(17) 0.07643(10)
H52 H 0.6521 0.3678 0.1013
C61 C 0.3051(2) 0.33243(17) 0.16708(11)
H53 H 0.3634 0.3307 0.1283
H54 H 0.2362 0.3857 0.1606
H55 H 0.2779 0.2687 0.1712
C62 C 0.27894(18) 0.34258(18) 0.32032(12)
H56 H 0.2654 0.2742 0.3244
H57 H 0.2018 0.3878 0.3173
H58 H 0.3179 0.3590 0.3599
C63 C 0.55812(18) 0.57980(15) 0.16389(10)
H59 H 0.6415 0.5897 0.1586
H60 H 0.5041 0.6443 0.1673
H61 H 0.5400 0.5443 0.1248
C64 C 0.53546(18) 0.57730(15) 0.31883(10)
H62 H 0.5269 0.5341 0.3580
H63 H 0.4678 0.6333 0.3201
H64 H 0.6108 0.6022 0.3198
loop_
_geom_bond_atom_site_label_1
_geom_bond_atom_site_label_2
_geom_bond_site_symmetry_1
_geom_bond_site_symmetry_2
Si1 O1 1_555 1_555
Si2 O1 1_555 1_555
Si3 O2 1_555 1_555
O2 Si2 1_555 1_555
O3 Si1 1_555 1_555
C1 Si1 1_555 1_555
C2 C1 1_555 1_555
C3 C2 1_555 1_555
C4 Si1 1_555 1_555
C5 C1 1_555 1_555
C6 C5 1_555 1_555
H1 C6 1_555 1_555
C7 C6 1_555 1_555
H2 C7 1_555 1_555
C8 C7 1_555 1_555
H3 C8 1_555 1_555
C9 C8 1_555 1_555
H4 C9 1_555 1_555
C10 C5 1_555 1_555
H5 C10 1_555 1_555
C11 C2 1_555 1_555
C12 C11 1_555 1_555
H6 C12 1_555 1_555
C13 C12 1_555 1_555
H7 C13 1_555 1_555
C14 C13 1_555 1_555
H8 C14 1_555 1_555
C15 C14 1_555 1_555
H9 C15 1_555 1_555
C16 C11 1_555 1_555
H10 C16 1_555 1_555
C17 C3 1_555 1_555
C18 C17 1_555 1_555
H11 C18 1_555 1_555
C19 C18 1_555 1_555
H12 C19 1_555 1_555
C20 C19 1_555 1_555
H13 C20 1_555 1_555
C21 C20 1_555 1_555
H14 C21 1_555 1_555
C22 C17 1_555 1_555
H15 C22 1_555 1_555
C23 C4 1_555 1_555
C24 C23 1_555 1_555
H16 C24 1_555 1_555
C25 C24 1_555 1_555
H17 C25 1_555 1_555
C26 C25 1_555 1_555
H18 C26 1_555 1_555
C27 C26 1_555 1_555
H19 C27 1_555 1_555
C28 C23 1_555 1_555
H20 C28 1_555 1_555
C29 Si2 1_555 1_555
H21 C29 1_555 1_555
H22 C29 1_555 1_555
H23 C29 1_555 1_555
C30 Si2 1_555 1_555
H24 C30 1_555 1_555
H25 C30 1_555 1_555
H26 C30 1_555 1_555
C31 Si3 1_555 1_555
H27 C31 1_555 1_555
H28 C31 1_555 1_555
H29 C31 1_555 1_555
C32 Si3 1_555 1_555
H30 C32 1_555 1_555
H31 C32 1_555 1_555
H32 C32 1_555 1_555
Si4 O4 1_555 1_555
Si5 O4 1_555 1_555
Si6 O5 1_555 1_555
O5 Si5 1_555 1_555
O6 Si4 1_555 1_555
C33 Si4 1_555 1_555
C34 C33 1_555 1_555
C35 C34 1_555 1_555
C36 Si4 1_555 1_555
C37 C33 1_555 1_555
C38 C37 1_555 1_555
H33 C38 1_555 1_555
C39 C38 1_555 1_555
H34 C39 1_555 1_555
C40 C39 1_555 1_555
H35 C40 1_555 1_555
C41 C40 1_555 1_555
H36 C41 1_555 1_555
C42 C37 1_555 1_555
H37 C42 1_555 1_555
C43 C34 1_555 1_555
C44 C43 1_555 1_555
H38 C44 1_555 1_555
C45 C44 1_555 1_555
H39 C45 1_555 1_555
C46 C45 1_555 1_555
H40 C46 1_555 1_555
C47 C46 1_555 1_555
H41 C47 1_555 1_555
C48 C43 1_555 1_555
H42 C48 1_555 1_555
C49 C35 1_555 1_555
C50 C49 1_555 1_555
H43 C50 1_555 1_555
C51 C50 1_555 1_555
H44 C51 1_555 1_555
C52 C51 1_555 1_555
H45 C52 1_555 1_555
C53 C52 1_555 1_555
H46 C53 1_555 1_555
C54 C49 1_555 1_555
H47 C54 1_555 1_555
C55 C36 1_555 1_555
C56 C55 1_555 1_555
H48 C56 1_555 1_555
C57 C56 1_555 1_555
H49 C57 1_555 1_555
C58 C57 1_555 1_555
H50 C58 1_555 1_555
C59 C58 1_555 1_555
H51 C59 1_555 1_555
C60 C55 1_555 1_555
H52 C60 1_555 1_555
C61 Si5 1_555 1_555
H53 C61 1_555 1_555
H54 C61 1_555 1_555
H55 C61 1_555 1_555
C62 Si5 1_555 1_555
H56 C62 1_555 1_555
H57 C62 1_555 1_555
H58 C62 1_555 1_555
C63 Si6 1_555 1_555
H59 C63 1_555 1_555
H60 C63 1_555 1_555
H61 C63 1_555 1_555
C64 Si6 1_555 1_555
H62 C64 1_555 1_555
H63 C64 1_555 1_555
H64 C64 1_555 1_555
Si3 O3 1_555 1_555
C3 C4 1_555 1_555
C9 C10 1_555 1_555
C15 C16 1_555 1_555
C21 C22 1_555 1_555
C27 C28 1_555 1_555
Si6 O6 1_555 1_555
C35 C36 1_555 1_555
C41 C42 1_555 1_555
C47 C48 1_555 1_555
C53 C54 1_555 1_555
C59 C60 1_555 1_555

#END
