
#######################################################################
#
#                 Cambridge Crystallographic Data Centre
#                                CCDC 
#
#######################################################################
#
# If this CIF has been generated from an entry in the Cambridge 
# Structural Database, then it will include bibliographic, chemical, 
# crystal, experimental, refinement or atomic coordinate data resulting 
# from the CCDC's data processing and validation procedures.
#
#######################################################################

data_YUHVEC
_chemical_formula_moiety         'C18 H26 O6'
_chemical_name_systematic        
"cis-Dimethyl spiro((4',4'-dimethyl-2',6'-dioxacyclohexane)-1',3-(4-methylenebicyclo(3.3.0)octane))-2,2-dicarboxylate"
_symmetry_cell_setting           triclinic
_symmetry_space_group_name_H-M   'P -1'
_symmetry_Int_Tables_number      2
_space_group_name_Hall           '-P 1'
loop_
_symmetry_equiv_pos_site_id
_symmetry_equiv_pos_as_xyz
1 x,y,z
2 -x,-y,-z
_cell_length_a                   9.4915(11)
_cell_length_b                   11.5618(14)
_cell_length_c                   8.9687(9)
_cell_angle_alpha                98.806(9)
_cell_angle_beta                 99.065(9)
_cell_angle_gamma                112.364(9)
_cell_volume                     874.021
_exptl_crystal_colour            colorless
_cell_formula_units_Z            2
loop_
_atom_site_label
_atom_site_type_symbol
_atom_site_fract_x
_atom_site_fract_y
_atom_site_fract_z
O1 O 0.6834(2) 0.4923(2) 0.1059(2)
O2 O 0.5330(2) 0.4158(2) 0.2667(2)
O3 O 0.7428(2) 0.2375(2) -0.0715(2)
O4 O 0.9126(2) 0.3764(2) 0.1420(2)
O5 O 0.7414(2) 0.1542(2) 0.2715(2)
O6 O 0.7938(2) 0.3576(1) 0.4205(2)
C1 C 0.6454(3) 0.2841(2) 0.1524(3)
C2 C 0.6829(3) 0.2487(2) 0.3106(3)
C3 C 0.5219(3) 0.1830(2) 0.3443(3)
C4 C 0.4095(3) 0.1082(2) 0.1906(3)
C5 C 0.2482(4) 0.1124(4) 0.1586(4)
C6 C 0.2078(4) 0.1000(3) -0.0153(4)
C7 C 0.3617(3) 0.1890(3) -0.0449(3)
C8 C 0.4874(3) 0.1672(2) 0.0640(3)
C9 C 0.4860(4) 0.1915(3) 0.4811(4)
C10 C 0.6259(3) 0.4103(2) 0.1728(3)
C11 C 0.4975(4) 0.5269(3) 0.2844(4)
C12 C 0.7700(3) 0.2950(2) 0.0597(3)
C13 C 1.0408(4) 0.3854(4) 0.0688(4)
C14 C 0.8017(4) 0.1189(3) 0.4058(3)
C15 C 0.9370(3) 0.2341(3) 0.5164(3)
C16 C 0.8750(4) 0.3354(3) 0.5567(3)
C17 C 0.9890(5) 0.1969(4) 0.6646(4)
C18 C 1.0754(4) 0.2863(4) 0.4418(4)
H1 H 0.5195(37) 0.1034(32) 0.0045(37)
H2 H 0.3616(37) 0.1627(31) -0.1574(40)
H3 H 0.3769(37) 0.2801(34) -0.0173(36)
H4 H 0.1740(38) 0.0096(34) -0.0736(37)
H5 H 0.1161(39) 0.1238(31) -0.0495(36)
H6 H 0.1822(42) 0.0462(34) 0.1890(37)
H7 H 0.2585(38) 0.1990(33) 0.2166(37)
H8 H 0.3938(36) 0.0149(32) 0.1736(36)
H9 H 0.3764(40) 0.1422(31) 0.4877(36)
H10 H 0.5608(39) 0.2475(32) 0.5784(38)
H11 H 0.4252(39) 0.5181(31) 0.3518(39)
H12 H 0.4559(39) 0.5379(32) 0.1903(41)
H13 H 0.5961(39) 0.6045(34) 0.3259(37)
H14 H 1.0118(37) 0.3898(31) -0.0412(40)
H15 H 1.0488(39) 0.3071(34) 0.0513(38)
H16 H 1.1346(40) 0.4672(33) 0.1420(37)
H17 H 0.7142(39) 0.0786(30) 0.4638(37)
H18 H 0.8324(37) 0.0495(32) 0.3635(36)
H19 H 0.8030(39) 0.3117(30) 0.6259(38)
H20 H 0.9585(39) 0.4221(33) 0.6077(36)
H21 H 1.0450(38) 0.3081(31) 0.3477(40)
H22 H 1.1158(39) 0.2230(33) 0.4239(38)
H23 H 1.1627(40) 0.3709(33) 0.5132(38)
H24 H 1.0781(40) 0.2730(34) 0.7366(38)
H25 H 0.9027(39) 0.1650(31) 0.7150(38)
H26 H 1.0199(38) 0.1274(33) 0.6404(38)
loop_
_geom_bond_atom_site_label_1
_geom_bond_atom_site_label_2
_geom_bond_site_symmetry_1
_geom_bond_site_symmetry_2
O1 C10 1_555 1_555
O2 C10 1_555 1_555
O3 C12 1_555 1_555
O4 C12 1_555 1_555
O5 C2 1_555 1_555
O6 C2 1_555 1_555
C1 C2 1_555 1_555
C2 C3 1_555 1_555
C3 C4 1_555 1_555
C4 C5 1_555 1_555
C5 C6 1_555 1_555
C6 C7 1_555 1_555
C7 C8 1_555 1_555
C8 C1 1_555 1_555
C9 C3 1_555 1_555
C10 C1 1_555 1_555
C11 O2 1_555 1_555
C12 C1 1_555 1_555
C13 O4 1_555 1_555
C14 O5 1_555 1_555
C15 C14 1_555 1_555
C16 O6 1_555 1_555
C17 C15 1_555 1_555
C18 C15 1_555 1_555
H1 C8 1_555 1_555
H2 C7 1_555 1_555
H3 C7 1_555 1_555
H4 C6 1_555 1_555
H5 C6 1_555 1_555
H6 C5 1_555 1_555
H7 C5 1_555 1_555
H8 C4 1_555 1_555
H9 C9 1_555 1_555
H10 C9 1_555 1_555
H11 C11 1_555 1_555
H12 C11 1_555 1_555
H13 C11 1_555 1_555
H14 C13 1_555 1_555
H15 C13 1_555 1_555
H16 C13 1_555 1_555
H17 C14 1_555 1_555
H18 C14 1_555 1_555
H19 C16 1_555 1_555
H20 C16 1_555 1_555
H21 C18 1_555 1_555
H22 C18 1_555 1_555
H23 C18 1_555 1_555
H24 C17 1_555 1_555
H25 C17 1_555 1_555
H26 C17 1_555 1_555
C4 C8 1_555 1_555
C15 C16 1_555 1_555

#END
