
#######################################################################
#
#                 Cambridge Crystallographic Data Centre
#                                CCDC 
#
#######################################################################
#
# If this CIF has been generated from an entry in the Cambridge 
# Structural Database, then it will include bibliographic, chemical, 
# crystal, experimental, refinement or atomic coordinate data resulting 
# from the CCDC's data processing and validation procedures.
#
#######################################################################

data_YUHVAY
_chemical_formula_moiety         'C18 H26 O6'
_chemical_name_systematic        
"rac-Dimethyl spiro((4',4'-dimethyl-2',6'-dioxacyclohexane)-1',3-(4-methylenebicyclo(3.3.0)octane))-2,2-dicarboxylate"
_symmetry_cell_setting           triclinic
_symmetry_space_group_name_H-M   'P -1'
_symmetry_Int_Tables_number      2
_space_group_name_Hall           '-P 1'
loop_
_symmetry_equiv_pos_site_id
_symmetry_equiv_pos_as_xyz
1 x,y,z
2 -x,-y,-z
_cell_length_a                   8.960(4)
_cell_length_b                   11.507(6)
_cell_length_c                   8.889(7)
_cell_angle_alpha                97.29(5)
_cell_angle_beta                 97.71(5)
_cell_angle_gamma                105.58(3)
_cell_volume                     861.987
_exptl_crystal_colour            colorless
_cell_formula_units_Z            2
loop_
_atom_site_label
_atom_site_type_symbol
_atom_site_fract_x
_atom_site_fract_y
_atom_site_fract_z
O1 O 0.6669(3) 0.4951(2) 0.1061(3)
O2 O 0.5262(3) 0.4363(2) 0.2856(3)
O3 O 0.7536(3) 0.2432(2) -0.0580(3)
O4 O 0.9163(2) 0.3771(2) 0.1388(2)
O5 O 0.7827(2) 0.1732(2) 0.2917(2)
O6 O 0.7928(2) 0.3620(2) 0.4329(2)
C1 C 0.6501(3) 0.2964(2) 0.1699(3)
C2 C 0.6973(3) 0.2582(2) 0.3297(3)
C3 C 0.5398(4) 0.1896(3) 0.3734(4)
C4 C 0.4098(4) 0.1769(4) 0.2417(5)
H1 H 0.3698(4) 0.2479(4) 0.2586(5)
C5 C 0.2736(4) 0.0675(3) 0.1757(4)
H2 H 0.1861(4) 0.0662(3) 0.2297(4)
H3 H 0.3025(4) -0.0074(3) 0.1813(4)
C6 C 0.2308(4) 0.0827(3) 0.0063(4)
H4 H 0.1333(4) 0.1046(3) -0.0093(4)
H5 H 0.2177(4) 0.0068(3) -0.0626(4)
C7 C 0.3685(4) 0.1859(3) -0.0257(4)
H6 H 0.3942(4) 0.1657(3) -0.1264(4)
H7 H 0.3442(4) 0.2634(3) -0.0183(4)
C8 C 0.5005(4) 0.1892(3) 0.1022(4)
H8 H 0.5325(4) 0.1148(3) 0.0795(4)
C9 C 0.5112(4) 0.1606(3) 0.5072(4)
H9 H 0.4079(4) 0.1313(3) 0.5222(4)
H10 H 0.5942(4) 0.1695(3) 0.5868(4)
C10 C 0.6175(3) 0.4207(3) 0.1824(3)
C11 C 0.4818(4) 0.5487(3) 0.2971(4)
H11 H 0.4151(25) 0.5497(11) 0.3729(22)
H12 H 0.4263(27) 0.5536(12) 0.1990(9)
H13 H 0.5746(5) 0.6174(4) 0.3270(29)
C12 C 0.7770(4) 0.3009(3) 0.0693(3)
C13 C 1.0449(4) 0.3786(4) 0.0571(4)
H14 H 1.1367(10) 0.4424(17) 0.1100(18)
H15 H 1.0171(13) 0.3932(25) -0.0455(11)
H16 H 1.0666(21) 0.3011(9) 0.0521(28)
C14 C 0.8612(4) 0.1399(3) 0.4243(4)
H17 H 0.9179(4) 0.0832(3) 0.3907(4)
H18 H 0.7835(4) 0.0986(3) 0.4809(4)
C15 C 0.9756(3) 0.2512(3) 0.5299(3)
C16 C 0.8828(4) 0.3406(3) 0.5680(3)
H19 H 0.8120(4) 0.3086(3) 0.6362(3)
H20 H 0.9552(4) 0.4178(3) 0.6222(3)
C17 C 1.0413(4) 0.2121(3) 0.6768(4)
H21 H 1.1130(22) 0.2824(5) 0.7444(12)
H22 H 1.0957(24) 0.1531(17) 0.6508(5)
H23 H 0.9563(5) 0.1764(20) 0.7274(15)
C18 C 1.1112(4) 0.3102(3) 0.4502(4)
H24 H 1.1796(16) 0.3824(13) 0.5169(12)
H25 H 1.0695(4) 0.3319(21) 0.3561(15)
H26 H 1.1694(18) 0.2531(9) 0.4276(26)
C19? C 0.4572(15) 0.1096(11) 0.2223(7)
H27? H 0.4974(15) 0.0385(11) 0.2067(7)
H28? H 0.2320(4) -0.0175(3) 0.1864(4)
H29? H 0.2282(4) 0.1169(3) 0.2422(4)
H30? H 0.5501(4) 0.1368(3) 0.0434(4)
H31? H 0.4367(4) 0.0876(3) 0.5111(4)
H32? H 0.5653(4) 0.2132(3) 0.5979(4)
loop_
_geom_bond_atom_site_label_1
_geom_bond_atom_site_label_2
_geom_bond_site_symmetry_1
_geom_bond_site_symmetry_2
O1 C10 1_555 1_555
O2 C10 1_555 1_555
O3 C12 1_555 1_555
O4 C12 1_555 1_555
O5 C2 1_555 1_555
O6 C2 1_555 1_555
C1 C2 1_555 1_555
C2 C3 1_555 1_555
C3 C4 1_555 1_555
C4 H1 1_555 1_555
C5 C4 1_555 1_555
H2 C5 1_555 1_555
H3 C5 1_555 1_555
C6 C5 1_555 1_555
H4 C6 1_555 1_555
H5 C6 1_555 1_555
C7 C6 1_555 1_555
H6 C7 1_555 1_555
H7 C7 1_555 1_555
C8 C1 1_555 1_555
H8 C8 1_555 1_555
C9 C3 1_555 1_555
H9 C9 1_555 1_555
H10 C9 1_555 1_555
C10 C1 1_555 1_555
C11 O2 1_555 1_555
H11 C11 1_555 1_555
H12 C11 1_555 1_555
H13 C11 1_555 1_555
C12 C1 1_555 1_555
C13 O4 1_555 1_555
H14 C13 1_555 1_555
H15 C13 1_555 1_555
H16 C13 1_555 1_555
C14 O5 1_555 1_555
H17 C14 1_555 1_555
H18 C14 1_555 1_555
C15 C14 1_555 1_555
C16 O6 1_555 1_555
H19 C16 1_555 1_555
H20 C16 1_555 1_555
C17 C15 1_555 1_555
H21 C17 1_555 1_555
H22 C17 1_555 1_555
H23 C17 1_555 1_555
C18 C15 1_555 1_555
H24 C18 1_555 1_555
H25 C18 1_555 1_555
H26 C18 1_555 1_555
C4 C8 1_555 1_555
C7 C8 1_555 1_555
C15 C16 1_555 1_555

#END
