
#######################################################################
#
#                 Cambridge Crystallographic Data Centre
#                                CCDC 
#
#######################################################################
#
# If this CIF has been generated from an entry in the Cambridge 
# Structural Database, then it will include bibliographic, chemical, 
# crystal, experimental, refinement or atomic coordinate data resulting 
# from the CCDC's data processing and validation procedures.
#
#######################################################################

data_YUHXEG
_chemical_formula_moiety         'C20 H23 N1 O3 S1'
_chemical_name_systematic        
4-Methoxy-1-methyl-10-((4-methylphenyl)sulfonyl)-10-azatricyclo[7.2.1.0^2,7^]dodeca-2,4,6-triene
_symmetry_cell_setting           monoclinic
_symmetry_space_group_name_H-M   'P 21/n'
_symmetry_Int_Tables_number      14
_space_group_name_Hall           '-P 2yn'
loop_
_symmetry_equiv_pos_site_id
_symmetry_equiv_pos_as_xyz
1 x,y,z
2 1/2-x,1/2+y,1/2-z
3 -x,-y,-z
4 1/2+x,1/2-y,1/2+z
_cell_length_a                   11.9273(6)
_cell_length_b                   5.9777(2)
_cell_length_c                   26.3355(17)
_cell_angle_alpha                90
_cell_angle_beta                 102.576(5)
_cell_angle_gamma                90
_cell_volume                     1832.61
_exptl_crystal_colour            'light yellow'
_exptl_crystal_description       block
_cell_formula_units_Z            4
loop_
_atom_site_label
_atom_site_type_symbol
_atom_site_fract_x
_atom_site_fract_y
_atom_site_fract_z
S1 S 0.26424(6) -0.05918(11) 0.47045(3)
O1 O 0.16210(17) -0.1899(3) 0.45380(9)
O2 O 0.37536(16) -0.1632(3) 0.47985(9)
O3 O 0.0303(2) 0.0414(4) 0.71889(9)
N1 N 0.25340(17) 0.0614(3) 0.52386(9)
C1 C 0.1834(2) 0.3293(4) 0.57478(10)
C2 C 0.1951(2) 0.1794(4) 0.62269(10)
C3 C 0.1102(2) 0.1710(4) 0.65099(10)
H1 H 0.0458 0.2617 0.6413
C4 C 0.1192(3) 0.0297(5) 0.69362(12)
C5 C 0.2145(3) -0.1038(6) 0.70847(14)
H2 H 0.2215 -0.1991 0.7369
C6 C 0.2991(3) -0.0942(5) 0.68077(13)
H3 H 0.3638 -0.1835 0.6913
C7 C 0.2924(2) 0.0425(4) 0.63785(11)
C8 C 0.3871(2) 0.0416(4) 0.60802(12)
H4 H 0.4561 0.1050 0.6296
H5 H 0.4038 -0.1115 0.5999
C9 C 0.3544(2) 0.1739(4) 0.55818(11)
H6 H 0.4189 0.1912 0.5410
C10 C 0.3036(2) 0.3979(4) 0.56887(11)
H7 H 0.2999 0.5008 0.5401
H8 H 0.3474 0.4658 0.6005
C11 C 0.1464(2) 0.1824(4) 0.52629(10)
H9 H 0.0859 0.0795 0.5302
H10 H 0.1199 0.2728 0.4954
C12 C 0.1023(2) 0.5271(4) 0.57389(12)
H11 H 0.0254 0.4732 0.5711
H12 H 0.1049 0.6209 0.5446
H13 H 0.1254 0.6118 0.6054
C13 C 0.0326(4) -0.1067(8) 0.76139(15)
H14 H 0.0290 -0.2584 0.7492
H15 H -0.0320 -0.0768 0.7766
H16 H 0.1025 -0.0847 0.7870
C14 C 0.2612(2) 0.1519(4) 0.42363(11)
C15 C 0.3548(3) 0.4441(6) 0.38714(14)
H17 H 0.4212 0.5248 0.3865
C16 C 0.3601(2) 0.2726(5) 0.42212(13)
H18 H 0.4293 0.2372 0.4447
C17 C 0.1590(3) 0.2072(5) 0.38982(12)
H19 H 0.0923 0.1285 0.3908
C18 C 0.1563(3) 0.3788(6) 0.35469(13)
H20 H 0.0876 0.4135 0.3317
C19 C 0.2540(3) 0.5005(5) 0.35291(13)
C20 C 0.2476(3) 0.6927(6) 0.31503(16)
H21 H 0.3144 0.7856 0.3254
H22 H 0.1799 0.7795 0.3149
H23 H 0.2446 0.6349 0.2807
loop_
_geom_bond_atom_site_label_1
_geom_bond_atom_site_label_2
_geom_bond_site_symmetry_1
_geom_bond_site_symmetry_2
S1 O1 1_555 1_555
O2 S1 1_555 1_555
O3 C4 1_555 1_555
N1 S1 1_555 1_555
C1 C2 1_555 1_555
C2 C3 1_555 1_555
C3 H1 1_555 1_555
C4 C3 1_555 1_555
C5 C4 1_555 1_555
H2 C5 1_555 1_555
C6 C5 1_555 1_555
H3 C6 1_555 1_555
C7 C2 1_555 1_555
C8 C7 1_555 1_555
H4 C8 1_555 1_555
H5 C8 1_555 1_555
C9 N1 1_555 1_555
H6 C9 1_555 1_555
C10 C1 1_555 1_555
H7 C10 1_555 1_555
H8 C10 1_555 1_555
C11 N1 1_555 1_555
H9 C11 1_555 1_555
H10 C11 1_555 1_555
C12 C1 1_555 1_555
H11 C12 1_555 1_555
H12 C12 1_555 1_555
H13 C12 1_555 1_555
C13 O3 1_555 1_555
H14 C13 1_555 1_555
H15 C13 1_555 1_555
H16 C13 1_555 1_555
C14 S1 1_555 1_555
C15 H17 1_555 1_555
C16 C14 1_555 1_555
H18 C16 1_555 1_555
C17 C14 1_555 1_555
H19 C17 1_555 1_555
C18 C17 1_555 1_555
H20 C18 1_555 1_555
C19 C15 1_555 1_555
C20 C19 1_555 1_555
H21 C20 1_555 1_555
H22 C20 1_555 1_555
H23 C20 1_555 1_555
C1 C11 1_555 1_555
C6 C7 1_555 1_555
C8 C9 1_555 1_555
C9 C10 1_555 1_555
C15 C16 1_555 1_555
C18 C19 1_555 1_555

#END
