
#######################################################################
#
#                 Cambridge Crystallographic Data Centre
#                                CCDC 
#
#######################################################################
#
# If this CIF has been generated from an entry in the Cambridge 
# Structural Database, then it will include bibliographic, chemical, 
# crystal, experimental, refinement or atomic coordinate data resulting 
# from the CCDC's data processing and validation procedures.
#
#######################################################################

data_YUJCIP
_chemical_name_common            
7-Amino-8-bromo-2-butyl-1H-benzo(de)isoquinoline-1,3(2H)-dione
_chemical_formula_moiety         'C16 H15 Br1 N2 O2'
_chemical_name_systematic        
4-Amino-3-bromo-N-butyl-1,8-napthalenedicarboximide
_chemical_properties_biological  
'potent photochemical inactivating activity against HIV-1 and other enveloped viruses'
_symmetry_cell_setting           monoclinic
_symmetry_space_group_name_H-M   'C c'
_symmetry_Int_Tables_number      9
_space_group_name_Hall           'C -2yc'
loop_
_symmetry_equiv_pos_site_id
_symmetry_equiv_pos_as_xyz
1 x,y,z
2 x,-y,1/2+z
3 1/2+x,1/2+y,z
4 1/2+x,1/2-y,1/2+z
_cell_length_a                   4.514(2)
_cell_length_b                   24.87(1)
_cell_length_c                   13.054(4)
_cell_angle_alpha                90
_cell_angle_beta                 97.41(3)
_cell_angle_gamma                90
_cell_volume                     1453.24
_exptl_crystal_colour            yellow
_cell_formula_units_Z            4
loop_
_atom_site_label
_atom_site_type_symbol
_atom_site_fract_x
_atom_site_fract_y
_atom_site_fract_z
Br1 Br 0.1300(2) 0.3015(1) 0.4292(1)
O1 O -0.4663(18) 0.3012(3) 0.7628(5)
O2 O -0.5110(16) 0.4703(3) 0.8895(5)
N1 N -0.4982(17) 0.3861(3) 0.8229(6)
N2 N 0.2749(18) 0.4225(3) 0.4463(6)
C1 C -0.409(2) 0.3486(4) 0.7537(7)
C2 C -0.139(2) 0.3342(3) 0.6036(7)
C3 C 0.021(2) 0.3528(4) 0.5269(7)
C4 C 0.108(2) 0.4053(4) 0.5199(7)
C5 C 0.087(2) 0.4984(4) 0.5949(8)
C6 C 0.003(2) 0.5324(4) 0.6684(9)
C7 C -0.164(2) 0.5139(4) 0.7432(8)
C8 C -0.428(2) 0.4408(4) 0.8233(6)
C9 C -0.234(2) 0.3690(3) 0.6732(6)
C10 C 0.015(2) 0.4433(3) 0.5934(6)
C11 C -0.245(2) 0.4605(4) 0.7448(7)
C12 C -0.157(2) 0.4244(3) 0.6706(7)
C13 C -0.670(2) 0.3654(4) 0.9041(7)
C14 C -0.472(2) 0.3522(4) 1.0008(7)
C15 C -0.635(3) 0.3257(4) 1.0840(8)
C16 C -0.449(3) 0.3118(5) 1.1800(9)
H1 H 0.326(2) 0.4574(3) 0.4434(6)
H2 H 0.333(2) 0.3990(3) 0.4005(6)
H3 H -0.182(2) 0.2965(3) 0.6083(7)
H4 H 0.198(2) 0.5125(4) 0.5430(8)
H5 H 0.061(2) 0.5696(4) 0.6685(9)
H6 H -0.228(2) 0.5384(4) 0.7927(8)
H7 H -0.779(2) 0.3338(4) 0.8790(7)
H8 H -0.812(2) 0.3921(4) 0.9189(7)
H9 H -0.376(2) 0.3845(4) 1.0281(7)
H10 H -0.320(2) 0.3281(4) 0.9840(7)
H11 H -0.733(3) 0.2937(4) 1.0560(8)
H12 H -0.788(3) 0.3500(4) 1.1002(8)
H13 H -0.571(3) 0.2960(5) 1.2270(9)
H14 H -0.298(3) 0.2866(5) 1.1658(9)
H15 H -0.354(3) 0.3436(5) 1.2106(9)
loop_
_geom_bond_atom_site_label_1
_geom_bond_atom_site_label_2
_geom_bond_site_symmetry_1
_geom_bond_site_symmetry_2
Br1 C3 1_555 1_555
O1 C1 1_555 1_555
O2 C8 1_555 1_555
N1 C1 1_555 1_555
N2 C4 1_555 1_555
C1 C9 1_555 1_555
C2 C3 1_555 1_555
C3 C4 1_555 1_555
C4 C10 1_555 1_555
C5 C6 1_555 1_555
C6 C7 1_555 1_555
C7 C11 1_555 1_555
C8 N1 1_555 1_555
C9 C2 1_555 1_555
C10 C5 1_555 1_555
C11 C8 1_555 1_555
C12 C9 1_555 1_555
C13 N1 1_555 1_555
C14 C13 1_555 1_555
C15 C14 1_555 1_555
C16 C15 1_555 1_555
H1 N2 1_555 1_555
H2 N2 1_555 1_555
H3 C2 1_555 1_555
H4 C5 1_555 1_555
H5 C6 1_555 1_555
H6 C7 1_555 1_555
H7 C13 1_555 1_555
H8 C13 1_555 1_555
H9 C14 1_555 1_555
H10 C14 1_555 1_555
H11 C15 1_555 1_555
H12 C15 1_555 1_555
H13 C16 1_555 1_555
H14 C16 1_555 1_555
H15 C16 1_555 1_555
C10 C12 1_555 1_555
C11 C12 1_555 1_555

#END
