
#######################################################################
#
#                 Cambridge Crystallographic Data Centre
#                                CCDC 
#
#######################################################################
#
# If this CIF has been generated from an entry in the Cambridge 
# Structural Database, then it will include bibliographic, chemical, 
# crystal, experimental, refinement or atomic coordinate data resulting 
# from the CCDC's data processing and validation procedures.
#
#######################################################################

data_YUJCEL
_chemical_name_common            
8-Bromo-2-butyl-7-butylamino-1H-benzo(de)isoquinoline-1,3(2H)-dione
_chemical_formula_moiety         'C20 H23 Br1 N2 O2'
_chemical_name_systematic        
3-Bromo-N-butyl-4-butylamino-1,8-napthalenedicarboximide
_chemical_properties_biological  
'potent photochemical inactivating activity against HIV-1 and other enveloped viruses'
_symmetry_cell_setting           triclinic
_symmetry_space_group_name_H-M   'P -1'
_symmetry_Int_Tables_number      2
_space_group_name_Hall           '-P 1'
loop_
_symmetry_equiv_pos_site_id
_symmetry_equiv_pos_as_xyz
1 x,y,z
2 -x,-y,-z
_cell_length_a                   8.374(2)
_cell_length_b                   9.935(2)
_cell_length_c                   11.139(2)
_cell_angle_alpha                87.84(2)
_cell_angle_beta                 88.13(2)
_cell_angle_gamma                80.61(2)
_cell_volume                     913.32
_exptl_crystal_colour            yellow
_cell_formula_units_Z            2
loop_
_atom_site_label
_atom_site_type_symbol
_atom_site_fract_x
_atom_site_fract_y
_atom_site_fract_z
Br1 Br -0.0491(1) 0.3733(1) -0.1918(1)
O1 O -0.1362(3) -0.0200(2) 0.1375(2)
O2 O -0.4283(3) 0.1663(3) 0.4562(2)
N1 N -0.2895(3) 0.0715(3) 0.2938(2)
N2 N -0.2522(4) 0.5999(3) -0.0580(3)
C1 C -0.2098(4) 0.0831(3) 0.1837(3)
C2 C -0.1447(4) 0.2347(3) 0.0163(3)
C3 C -0.1589(4) 0.3622(3) -0.0409(3)
C4 C -0.2475(4) 0.4821(3) 0.0076(3)
C5 C -0.4193(5) 0.5764(4) 0.1855(3)
C6 C -0.4905(5) 0.5572(4) 0.2960(3)
C7 C -0.4765(5) 0.4284(3) 0.3505(3)
C8 C -0.3720(4) 0.1828(3) 0.3564(3)
C9 C -0.2200(4) 0.2193(3) 0.1265(3)
C10 C -0.3264(4) 0.4666(3) 0.1235(3)
C11 C -0.3864(4) 0.3182(3) 0.2949(3)
C12 C -0.3108(4) 0.3349(3) 0.1815(3)
C13 C -0.2864(4) -0.0663(3) 0.3500(3)
C14 C -0.1411(4) -0.1118(3) 0.4272(3)
C15 C -0.1434(5) -0.2515(4) 0.4858(3)
C16 C 0.0063(6) -0.3033(5) 0.5580(4)
C17 C -0.3206(5) 0.7415(3) -0.0366(3)
C18 C -0.2772(5) 0.8277(3) -0.1447(3)
C19 C -0.3453(5) 0.9769(3) -0.1367(3)
C20 C -0.2912(6) 1.0612(4) -0.2408(4)
H1 H -0.2022(4) 0.5883(3) -0.1305(3)
H2 H -0.0821(4) 0.1569(3) -0.0210(3)
H3 H -0.4325(5) 0.6665(4) 0.1491(3)
H4 H -0.5507(5) 0.6340(4) 0.3361(3)
H5 H -0.5296(5) 0.4158(3) 0.4268(3)
H6 H -0.2865(4) -0.1307(3) 0.2880(3)
H7 H -0.3832(4) -0.0667(3) 0.3986(3)
H8 H -0.1394(4) -0.0467(3) 0.4885(3)
H9 H -0.0441(4) -0.1139(3) 0.3784(3)
H10 H -0.1520(5) -0.3152(4) 0.4246(3)
H11 H -0.2375(5) -0.2477(4) 0.5379(3)
H12 H -0.0018(6) -0.3919(5) 0.5928(4)
H13 H 0.1008(6) -0.3095(5) 0.5061(4)
H14 H 0.0144(6) -0.2412(5) 0.6207(4)
H15 H -0.2772(5) 0.7708(3) 0.0349(3)
H16 H -0.4361(5) 0.7509(3) -0.0261(3)
H17 H -0.3164(5) 0.7936(3) -0.2157(3)
H18 H -0.1614(5) 0.8178(3) -0.1530(3)
H19 H -0.3122(5) 1.0100(3) -0.0632(3)
H20 H -0.4614(5) 0.9878(3) -0.1344(3)
H21 H -0.3377(6) 1.1552(4) -0.2316(4)
H22 H -0.1752(6) 1.0523(4) -0.2426(4)
H23 H -0.3260(6) 1.0298(4) -0.3146(4)
loop_
_geom_bond_atom_site_label_1
_geom_bond_atom_site_label_2
_geom_bond_site_symmetry_1
_geom_bond_site_symmetry_2
Br1 C3 1_555 1_555
O1 C1 1_555 1_555
O2 C8 1_555 1_555
N1 C1 1_555 1_555
N2 C4 1_555 1_555
C1 C9 1_555 1_555
C2 C3 1_555 1_555
C3 C4 1_555 1_555
C4 C10 1_555 1_555
C5 C6 1_555 1_555
C6 C7 1_555 1_555
C7 C11 1_555 1_555
C8 N1 1_555 1_555
C9 C2 1_555 1_555
C10 C5 1_555 1_555
C11 C8 1_555 1_555
C12 C9 1_555 1_555
C13 N1 1_555 1_555
C14 C13 1_555 1_555
C15 C14 1_555 1_555
C16 C15 1_555 1_555
C17 N2 1_555 1_555
C18 C17 1_555 1_555
C19 C18 1_555 1_555
C20 C19 1_555 1_555
H1 N2 1_555 1_555
H2 C2 1_555 1_555
H3 C5 1_555 1_555
H4 C6 1_555 1_555
H5 C7 1_555 1_555
H6 C13 1_555 1_555
H7 C13 1_555 1_555
H8 C14 1_555 1_555
H9 C14 1_555 1_555
H10 C15 1_555 1_555
H11 C15 1_555 1_555
H12 C16 1_555 1_555
H13 C16 1_555 1_555
H14 C16 1_555 1_555
H15 C17 1_555 1_555
H16 C17 1_555 1_555
H17 C18 1_555 1_555
H18 C18 1_555 1_555
H19 C19 1_555 1_555
H20 C19 1_555 1_555
H21 C20 1_555 1_555
H22 C20 1_555 1_555
H23 C20 1_555 1_555
C10 C12 1_555 1_555
C11 C12 1_555 1_555

#END
