
#######################################################################
#
#                 Cambridge Crystallographic Data Centre
#                                CCDC 
#
#######################################################################
#
# If this CIF has been generated from an entry in the Cambridge 
# Structural Database, then it will include bibliographic, chemical, 
# crystal, experimental, refinement or atomic coordinate data resulting 
# from the CCDC's data processing and validation procedures.
#
#######################################################################

data_YUJRUS
_chemical_formula_moiety         'C38 H50 B20'
_chemical_name_systematic        
1,1'-(pentacene-6,13-diyldi(ethyne-2,1-diyl))bis(2-n-butyl-1,2-dicarba-closo-dodecaborane(10))
_symmetry_cell_setting           monoclinic
_symmetry_space_group_name_H-M   'P 21/n'
_symmetry_Int_Tables_number      14
_space_group_name_Hall           '-P 2yn'
loop_
_symmetry_equiv_pos_site_id
_symmetry_equiv_pos_as_xyz
1 x,y,z
2 1/2-x,1/2+y,1/2-z
3 -x,-y,-z
4 1/2+x,1/2-y,1/2+z
_cell_length_a                   6.7399(11)
_cell_length_b                   9.6832(16)
_cell_length_c                   30.293(5)
_cell_angle_alpha                90
_cell_angle_beta                 93.691(4)
_cell_angle_gamma                90
_cell_volume                     1972.94
_exptl_crystal_colour            black
_exptl_crystal_description       block
_cell_formula_units_Z            2
loop_
_atom_site_label
_atom_site_type_symbol
_atom_site_fract_x
_atom_site_fract_y
_atom_site_fract_z
B1 B 0.8996(7) 0.6158(5) 0.82363(16)
H1 H 1.0226 0.6869 0.8152
B2 B 0.9380(8) 0.4803(6) 0.86234(19)
H2 H 1.0880 0.4605 0.8793
B3 B 0.7138(8) 0.4577(5) 0.89041(19)
H3 H 0.7159 0.4229 0.9257
B4 B 0.5380(7) 0.5816(5) 0.86837(17)
H4 H 0.4253 0.6300 0.8892
B5 B 0.7101(7) 0.5662(5) 0.78399(17)
H5 H 0.7088 0.6026 0.7489
B6 B 0.8866(8) 0.4438(6) 0.80613(18)
H6 H 1.0023 0.3981 0.7856
B7 B 0.7698(8) 0.3455(5) 0.84703(19)
H7 H 0.8079 0.2345 0.8535
B8 B 0.5236(8) 0.4088(5) 0.85045(19)
H8 H 0.3984 0.3400 0.8592
B9 B 0.4862(7) 0.5445(5) 0.81153(18)
H9 H 0.3371 0.5669 0.7946
B10 B 0.6289(8) 0.3978(5) 0.79837(19)
H10 H 0.5740 0.3214 0.7726
C1 C 0.7896(6) 0.6174(4) 0.87359(14)
C2 C 0.6547(6) 0.6685(4) 0.82734(14)
C3 C 0.8517(7) 0.7206(5) 0.90459(16)
C4 C 0.8979(7) 0.8061(5) 0.93228(16)
C5 C 0.9501(7) 0.9055(5) 0.96604(16)
C6 C 0.8193(7) 1.0131(5) 0.97339(16)
C7 C 0.6365(8) 1.0308(6) 0.94839(16)
H11 H 0.6010 0.9674 0.9253
C8 C 0.5105(8) 1.1355(6) 0.95648(16)
C9 C 0.3374(16) 1.1412(10) 0.9350(3)
H12 H 0.3054 1.0718 0.9135
C10 C 0.1991(17) 1.2407(10) 0.9414(3)
H13 H 0.0744 1.2431 0.9248
C11 C 0.2560(17) 1.3452(11) 0.9759(4)
H14 H 0.1702 1.4197 0.9819
C12 C 0.4426(14) 1.3294(10) 0.9991(3)
H15 H 0.4808 1.3929 1.0220
C13 C 0.5599(8) 1.2335(5) 0.99043(16)
C14 C 0.7357(8) 1.2212(5) 1.01538(16)
H16 H 0.7687 1.2872 1.0379
C15 C 0.8699(7) 1.1112(5) 1.00813(15)
C16 C 0.6207(6) 0.8231(4) 0.82132(15)
H17 H 0.7026 0.8724 0.8446
H18 H 0.6690 0.8507 0.7924
C17 C 0.4112(7) 0.8701(5) 0.82301(18)
H19 H 0.3618 0.8434 0.8519
H20 H 0.3284 0.8222 0.7996
C18 C 0.3869(7) 1.0251(5) 0.81696(18)
H21 H 0.4710 1.0735 0.8401
H22 H 0.4331 1.0519 0.7878
C19 C 0.1724(9) 1.0701(6) 0.8197(2)
H23 H 0.0894 1.0251 0.7962
H24 H 0.1632 1.1705 0.8163
H25 H 0.1261 1.0436 0.8486
B1B B 1.1004(7) 1.3842(5) 1.17637(16)
H1B H 0.9774 1.3131 1.1848
B2B B 1.0620(8) 1.5197(6) 1.13766(19)
H2B H 0.9120 1.5395 1.1207
B3B B 1.2862(8) 1.5423(5) 1.10959(19)
H3B H 1.2841 1.5771 1.0743
B4B B 1.4620(7) 1.4184(5) 1.13163(17)
H4B H 1.5747 1.3700 1.1108
B5B B 1.2899(7) 1.4338(5) 1.21601(17)
H5B H 1.2912 1.3974 1.2511
B6B B 1.1134(8) 1.5562(6) 1.19387(18)
H6B H 0.9977 1.6019 1.2144
B7B B 1.2302(8) 1.6545(5) 1.15297(19)
H7B H 1.1921 1.7655 1.1465
B8B B 1.4764(8) 1.5912(5) 1.14955(19)
H8B H 1.6016 1.6600 1.1408
B9B B 1.5138(7) 1.4555(5) 1.18847(18)
H9B H 1.6629 1.4331 1.2054
B10B B 1.3711(8) 1.6022(5) 1.20163(19)
H10B H 1.4260 1.6786 1.2274
C1B C 1.2104(6) 1.3826(4) 1.12641(14)
C2B C 1.3453(6) 1.3315(4) 1.17266(14)
C3B C 1.1483(7) 1.2794(5) 1.09541(16)
C4B C 1.1021(7) 1.1939(5) 1.06772(16)
C5B C 1.0499(7) 1.0945(5) 1.03396(16)
C6B C 1.1807(7) 0.9869(5) 1.02661(16)
C7B C 1.3635(8) 0.9692(6) 1.05161(16)
H11B H 1.3990 1.0326 1.0747
C8B C 1.4895(8) 0.8645(6) 1.04352(16)
C9B C 1.6626(16) 0.8588(10) 1.0650(3)
H12B H 1.6946 0.9282 1.0865
C10B C 1.8009(17) 0.7593(10) 1.0586(3)
H13B H 1.9256 0.7569 1.0752
C11B C 1.7440(17) 0.6548(11) 1.0241(4)
H14B H 1.8298 0.5803 1.0181
C12B C 1.5574(14) 0.6706(10) 1.0009(3)
H15B H 1.5192 0.6071 0.9780
C13B C 1.4401(8) 0.7665(5) 1.00957(16)
C14B C 1.2643(8) 0.7788(5) 0.98462(16)
H16B H 1.2313 0.7128 0.9621
C15B C 1.1301(7) 0.8888(5) 0.99187(15)
C16B C 1.3793(6) 1.1769(4) 1.17868(15)
H17B H 1.2974 1.1276 1.1554
H18B H 1.3310 1.1493 1.2076
C17B C 1.5888(7) 1.1299(5) 1.17699(18)
H19B H 1.6382 1.1566 1.1481
H20B H 1.6716 1.1778 1.2004
C18B C 1.6131(7) 0.9749(5) 1.18304(18)
H21B H 1.5290 0.9265 1.1599
H22B H 1.5669 0.9481 1.2122
C19B C 1.8276(9) 0.9299(6) 1.1803(2)
H23B H 1.9106 0.9749 1.2038
H24B H 1.8368 0.8295 1.1837
H25B H 1.8739 0.9564 1.1514
loop_
_geom_bond_atom_site_label_1
_geom_bond_atom_site_label_2
_geom_bond_site_symmetry_1
_geom_bond_site_symmetry_2
B1 H1 1_555 1_555
B2 B1 1_555 1_555
H2 B2 1_555 1_555
B3 B2 1_555 1_555
H3 B3 1_555 1_555
B4 B3 1_555 1_555
H4 B4 1_555 1_555
B5 B1 1_555 1_555
H5 B5 1_555 1_555
B6 B1 1_555 1_555
H6 B6 1_555 1_555
B7 B2 1_555 1_555
H7 B7 1_555 1_555
B8 B3 1_555 1_555
H8 B8 1_555 1_555
B9 B4 1_555 1_555
H9 B9 1_555 1_555
B10 B5 1_555 1_555
H10 B10 1_555 1_555
C1 B1 1_555 1_555
C2 B1 1_555 1_555
C3 C1 1_555 1_555
C4 C3 1_555 1_555
C5 C4 1_555 1_555
C6 C5 1_555 1_555
C7 C6 1_555 1_555
H11 C7 1_555 1_555
C8 C7 1_555 1_555
C9 C8 1_555 1_555
H12 C9 1_555 1_555
C10 C9 1_555 1_555
H13 C10 1_555 1_555
C11 C10 1_555 1_555
H14 C11 1_555 1_555
C12 C11 1_555 1_555
H15 C12 1_555 1_555
C13 C8 1_555 1_555
C14 C13 1_555 1_555
H16 C14 1_555 1_555
C15 C6 1_555 1_555
C16 C2 1_555 1_555
H17 C16 1_555 1_555
H18 C16 1_555 1_555
C17 C16 1_555 1_555
H19 C17 1_555 1_555
H20 C17 1_555 1_555
C18 C17 1_555 1_555
H21 C18 1_555 1_555
H22 C18 1_555 1_555
C19 C18 1_555 1_555
H23 C19 1_555 1_555
H24 C19 1_555 1_555
H25 C19 1_555 1_555
B1B H1B 1_555 1_555
B2B B1B 1_555 1_555
H2B B2B 1_555 1_555
B3B B2B 1_555 1_555
H3B B3B 1_555 1_555
B4B B3B 1_555 1_555
H4B B4B 1_555 1_555
B5B B1B 1_555 1_555
H5B B5B 1_555 1_555
B6B B1B 1_555 1_555
H6B B6B 1_555 1_555
B7B B2B 1_555 1_555
H7B B7B 1_555 1_555
B8B B3B 1_555 1_555
H8B B8B 1_555 1_555
B9B B4B 1_555 1_555
H9B B9B 1_555 1_555
B10B B5B 1_555 1_555
H10B B10B 1_555 1_555
C1B B1B 1_555 1_555
C2B B1B 1_555 1_555
C3B C1B 1_555 1_555
C4B C3B 1_555 1_555
C5B C15 1_555 1_555
C6B C5B 1_555 1_555
C7B C6B 1_555 1_555
H11B C7B 1_555 1_555
C8B C7B 1_555 1_555
C9B C8B 1_555 1_555
H12B C9B 1_555 1_555
C10B C9B 1_555 1_555
H13B C10B 1_555 1_555
C11B C10B 1_555 1_555
H14B C11B 1_555 1_555
C12B C11B 1_555 1_555
H15B C12B 1_555 1_555
C13B C8B 1_555 1_555
C14B C13B 1_555 1_555
H16B C14B 1_555 1_555
C15B C5 1_555 1_555
C16B C2B 1_555 1_555
H17B C16B 1_555 1_555
H18B C16B 1_555 1_555
C17B C16B 1_555 1_555
H19B C17B 1_555 1_555
H20B C17B 1_555 1_555
C18B C17B 1_555 1_555
H21B C18B 1_555 1_555
H22B C18B 1_555 1_555
C19B C18B 1_555 1_555
H23B C19B 1_555 1_555
H24B C19B 1_555 1_555
H25B C19B 1_555 1_555
B2 B6 1_555 1_555
B2 C1 1_555 1_555
B3 B7 1_555 1_555
B3 C1 1_555 1_555
B4 B8 1_555 1_555
B4 C1 1_555 1_555
B4 C2 1_555 1_555
B5 B6 1_555 1_555
B5 B9 1_555 1_555
B5 C2 1_555 1_555
B6 B7 1_555 1_555
B6 B10 1_555 1_555
B7 B8 1_555 1_555
B7 B10 1_555 1_555
B8 B9 1_555 1_555
B8 B10 1_555 1_555
B9 B10 1_555 1_555
B9 C2 1_555 1_555
C1 C2 1_555 1_555
C12 C13 1_555 1_555
C14 C15 1_555 1_555
B2B B6B 1_555 1_555
B2B C1B 1_555 1_555
B3B B7B 1_555 1_555
B3B C1B 1_555 1_555
B4B B8B 1_555 1_555
B4B C1B 1_555 1_555
B4B C2B 1_555 1_555
B5B B6B 1_555 1_555
B5B B9B 1_555 1_555
B5B C2B 1_555 1_555
B6B B7B 1_555 1_555
B6B B10B 1_555 1_555
B7B B8B 1_555 1_555
B7B B10B 1_555 1_555
B8B B9B 1_555 1_555
B8B B10B 1_555 1_555
B9B B10B 1_555 1_555
B9B C2B 1_555 1_555
C1B C2B 1_555 1_555
C4B C5B 1_555 1_555
C6B C15B 1_555 1_555
C12B C13B 1_555 1_555
C14B C15B 1_555 1_555

#END
