
#######################################################################
#
#                 Cambridge Crystallographic Data Centre
#                                CCDC 
#
#######################################################################
#
# If this CIF has been generated from an entry in the Cambridge 
# Structural Database, then it will include bibliographic, chemical, 
# crystal, experimental, refinement or atomic coordinate data resulting 
# from the CCDC's data processing and validation procedures.
#
#######################################################################

data_YUJZOU
_chemical_formula_moiety         'C62 H44 O4,C1 H2 Cl2'
_chemical_name_systematic        
"2,3,8,9-tetrakis(4-methoxyphenyl)-4,10-diphenyldipentaleno[1,2-a:1',2'-f]naphthalene dichloromethane solvate"
_symmetry_cell_setting           monoclinic
_symmetry_space_group_name_H-M   'P 21/c'
_symmetry_Int_Tables_number      14
_space_group_name_Hall           '-P 2ybc'
loop_
_symmetry_equiv_pos_site_id
_symmetry_equiv_pos_as_xyz
1 x,y,z
2 -x,1/2+y,1/2-z
3 -x,-y,-z
4 x,1/2-y,1/2+z
_cell_length_a                   13.9753(9)
_cell_length_b                   15.4590(9)
_cell_length_c                   10.9343(8)
_cell_angle_alpha                90
_cell_angle_beta                 101.803(2)
_cell_angle_gamma                90
_cell_volume                     2312.34
_exptl_crystal_colour            'brownish orange'
_exptl_crystal_description       plate
_cell_formula_units_Z            2
loop_
_atom_site_label
_atom_site_type_symbol
_atom_site_fract_x
_atom_site_fract_y
_atom_site_fract_z
Cl1 Cl 0.9257(3) 0.01618(13) 0.0844(3)
Cl2B Cl 0.9336(2) -0.01893(19) 0.0806(3)
C32 C 0.9938(4) 0.0441(4) -0.0005(5)
H23 H 0.9477 0.0790 -0.0619
H24 H 1.0333 0.0877 0.0541
C32B C 1.0062(4) -0.0441(4) 0.0005(5)
H23B H 1.0523 -0.0790 0.0619
H24B H 0.9667 -0.0877 -0.0541
Cl2 Cl 1.0664(2) 0.01893(19) -0.0806(3)
Cl1B Cl 1.0743(3) -0.01618(13) -0.0844(3)
O1 O 1.11402(12) 0.16635(11) 0.69699(15)
O2 O 0.79013(13) 0.62401(11) 0.30550(19)
C1 C 1.11291(19) 0.21185(18) 0.8114(2)
H1 H 1.1276 0.2731 0.8012
H2 H 1.1622 0.1870 0.8790
H3 H 1.0482 0.2064 0.8320
C2 C 1.03748(16) 0.18054(15) 0.5992(2)
C3 C 0.97303(17) 0.25043(15) 0.5921(2)
H4 H 0.9830 0.2934 0.6555
C4 C 0.89412(17) 0.25649(14) 0.4914(2)
H5 H 0.8504 0.3039 0.4871
C5 C 0.87787(15) 0.19450(14) 0.3967(2)
C6 C 0.78975(16) 0.19576(14) 0.2961(2)
C7 C 0.73936(15) 0.11679(14) 0.2407(2)
C8 C 0.65082(16) 0.14272(14) 0.15075(19)
C9 C 0.60025(16) 0.06216(14) 0.10180(19)
C10 C 0.51356(15) 0.04513(13) 0.01207(19)
C11 C 0.64645(15) 0.23048(14) 0.15042(19)
C12 C 0.73454(15) 0.26378(14) 0.2415(2)
C13 C 0.75027(15) 0.35814(14) 0.2622(2)
C14 C 0.68984(17) 0.40541(14) 0.3235(2)
H6 H 0.6396 0.3764 0.3543
C15 C 0.70117(17) 0.49448(14) 0.3409(2)
H7 H 0.6602 0.5256 0.3847
C16 C 0.77236(17) 0.53669(14) 0.2937(2)
C17 C 0.7235(2) 0.67516(16) 0.3563(3)
H8 H 0.6580 0.6702 0.3034
H9 H 0.7444 0.7358 0.3598
H10 H 0.7219 0.6549 0.4408
C18 C 0.82085(18) 0.40236(15) 0.2141(2)
H11 H 0.8622 0.3714 0.1704
C19 C 0.83169(19) 0.49073(16) 0.2290(3)
H12 H 0.8798 0.5202 0.1948
C20 C 1.02437(17) 0.12026(15) 0.5041(2)
H13 H 1.0697 0.0741 0.5070
C21 C 0.94534(16) 0.12665(14) 0.4044(2)
H14 H 0.9368 0.0843 0.3401
C22 C 0.74320(16) 0.02978(14) 0.2505(2)
H15 H 0.7925 -0.0028 0.3037
C23 C 0.65669(16) -0.00578(14) 0.1636(2)
C24 C 0.54546(16) -0.11112(14) 0.0536(2)
H16 H 0.5268 -0.1698 0.0380
C25 C 0.62952(16) -0.09222(14) 0.1399(2)
H17 H 0.6686 -0.1375 0.1828
C26 C 0.57222(16) 0.29052(13) 0.0800(2)
C27 C 0.48698(17) 0.30877(15) 0.1224(2)
H18 H 0.4760 0.2822 0.1966
C28 C 0.41816(19) 0.36528(17) 0.0572(2)
H19 H 0.3600 0.3769 0.0864
C29 C 0.43381(19) 0.40481(16) -0.0503(2)
H20 H 0.3866 0.4438 -0.0945
C30 C 0.51756(19) 0.38789(16) -0.0931(2)
H21 H 0.5280 0.4150 -0.1672
C31 C 0.58754(18) 0.33089(15) -0.0280(2)
H22 H 0.6457 0.3197 -0.0576
O1B O -0.11402(12) -0.16635(11) -0.69699(15)
O2B O 0.20987(13) -0.62401(11) -0.30550(19)
C1B C -0.11291(19) -0.21185(18) -0.8114(2)
H1B H -0.1276 -0.2731 -0.8012
H2B H -0.1622 -0.1870 -0.8790
H3B H -0.0482 -0.2064 -0.8320
C2B C -0.03748(16) -0.18054(15) -0.5992(2)
C3B C 0.02697(17) -0.25043(15) -0.5921(2)
H4B H 0.0170 -0.2934 -0.6555
C4B C 0.10588(17) -0.25649(14) -0.4914(2)
H5B H 0.1496 -0.3039 -0.4871
C5B C 0.12213(15) -0.19450(14) -0.3967(2)
C6B C 0.21025(16) -0.19576(14) -0.2961(2)
C7B C 0.26064(15) -0.11679(14) -0.2407(2)
C8B C 0.34918(16) -0.14272(14) -0.15075(19)
C9B C 0.39975(16) -0.06216(14) -0.10180(19)
C10B C 0.48644(15) -0.04513(13) -0.01207(19)
C11B C 0.35355(15) -0.23048(14) -0.15042(19)
C12B C 0.26546(15) -0.26378(14) -0.2415(2)
C13B C 0.24973(15) -0.35814(14) -0.2622(2)
C14B C 0.31016(17) -0.40541(14) -0.3235(2)
H6B H 0.3604 -0.3764 -0.3543
C15B C 0.29883(17) -0.49448(14) -0.3409(2)
H7B H 0.3398 -0.5256 -0.3847
C16B C 0.22764(17) -0.53669(14) -0.2937(2)
C17B C 0.2765(2) -0.67516(16) -0.3563(3)
H8B H 0.3420 -0.6702 -0.3034
H9B H 0.2556 -0.7358 -0.3598
H10B H 0.2781 -0.6549 -0.4408
C18B C 0.17915(18) -0.40236(15) -0.2141(2)
H11B H 0.1378 -0.3714 -0.1704
C19B C 0.16831(19) -0.49073(16) -0.2290(3)
H12B H 0.1202 -0.5202 -0.1948
C20B C -0.02437(17) -0.12026(15) -0.5041(2)
H13B H -0.0697 -0.0741 -0.5070
C21B C 0.05466(16) -0.12665(14) -0.4044(2)
H14B H 0.0632 -0.0843 -0.3401
C22B C 0.25680(16) -0.02978(14) -0.2505(2)
H15B H 0.2075 0.0028 -0.3037
C23B C 0.34331(16) 0.00578(14) -0.1636(2)
C24B C 0.45454(16) 0.11112(14) -0.0536(2)
H16B H 0.4732 0.1698 -0.0380
C25B C 0.37048(16) 0.09222(14) -0.1399(2)
H17B H 0.3314 0.1375 -0.1828
C26B C 0.42778(16) -0.29052(13) -0.0800(2)
C27B C 0.51302(17) -0.30877(15) -0.1224(2)
H18B H 0.5240 -0.2822 -0.1966
C28B C 0.58184(19) -0.36528(17) -0.0572(2)
H19B H 0.6400 -0.3769 -0.0864
C29B C 0.56619(19) -0.40481(16) 0.0503(2)
H20B H 0.6134 -0.4438 0.0945
C30B C 0.48244(19) -0.38789(16) 0.0931(2)
H21B H 0.4720 -0.4150 0.1672
C31B C 0.41246(18) -0.33089(15) 0.0280(2)
H22B H 0.3543 -0.3197 0.0576
loop_
_geom_bond_atom_site_label_1
_geom_bond_atom_site_label_2
_geom_bond_site_symmetry_1
_geom_bond_site_symmetry_2
O1 C1 1_555 1_555
O2 C16 1_555 1_555
C1 H1 1_555 1_555
H2 C1 1_555 1_555
H3 C1 1_555 1_555
C2 O1 1_555 1_555
C3 C2 1_555 1_555
H4 C3 1_555 1_555
C4 C3 1_555 1_555
H5 C4 1_555 1_555
C5 C4 1_555 1_555
C6 C5 1_555 1_555
C7 C6 1_555 1_555
C8 C7 1_555 1_555
C9 C8 1_555 1_555
C10 C9 1_555 1_555
C11 C8 1_555 1_555
C12 C6 1_555 1_555
C13 C12 1_555 1_555
C14 C13 1_555 1_555
H6 C14 1_555 1_555
C15 C14 1_555 1_555
H7 C15 1_555 1_555
C16 C15 1_555 1_555
C17 O2 1_555 1_555
H8 C17 1_555 1_555
H9 C17 1_555 1_555
H10 C17 1_555 1_555
C18 C13 1_555 1_555
H11 C18 1_555 1_555
C19 C16 1_555 1_555
H12 C19 1_555 1_555
C20 C2 1_555 1_555
H13 C20 1_555 1_555
C21 C5 1_555 1_555
H14 C21 1_555 1_555
C22 C7 1_555 1_555
H15 C22 1_555 1_555
C23 C9 1_555 1_555
C24 H16 1_555 1_555
C25 C23 1_555 1_555
H17 C25 1_555 1_555
C26 C11 1_555 1_555
C27 C26 1_555 1_555
H18 C27 1_555 1_555
C28 C27 1_555 1_555
H19 C28 1_555 1_555
C29 C28 1_555 1_555
H20 C29 1_555 1_555
C30 C29 1_555 1_555
H21 C30 1_555 1_555
C31 C26 1_555 1_555
H22 C31 1_555 1_555
Cl1 Cl2B 1_555 1_555
C32 H23 1_555 1_555
H24 C32 1_555 1_555
Cl2 Cl1B 1_555 1_555
O1B C1B 1_555 1_555
O2B C16B 1_555 1_555
C1B H1B 1_555 1_555
H2B C1B 1_555 1_555
H3B C1B 1_555 1_555
C2B O1B 1_555 1_555
C3B C2B 1_555 1_555
H4B C3B 1_555 1_555
C4B C3B 1_555 1_555
H5B C4B 1_555 1_555
C5B C4B 1_555 1_555
C6B C5B 1_555 1_555
C7B C6B 1_555 1_555
C8B C7B 1_555 1_555
C9B C8B 1_555 1_555
C10B C10 1_555 1_555
C11B C8B 1_555 1_555
C12B C6B 1_555 1_555
C13B C12B 1_555 1_555
C14B C13B 1_555 1_555
H6B C14B 1_555 1_555
C15B C14B 1_555 1_555
H7B C15B 1_555 1_555
C16B C15B 1_555 1_555
C17B O2B 1_555 1_555
H8B C17B 1_555 1_555
H9B C17B 1_555 1_555
H10B C17B 1_555 1_555
C18B C13B 1_555 1_555
H11B C18B 1_555 1_555
C19B C16B 1_555 1_555
H12B C19B 1_555 1_555
C20B C2B 1_555 1_555
H13B C20B 1_555 1_555
C21B C5B 1_555 1_555
H14B C21B 1_555 1_555
C22B C7B 1_555 1_555
H15B C22B 1_555 1_555
C23B C9B 1_555 1_555
C24B C10 1_555 1_555
H16B C24B 1_555 1_555
C25B C23B 1_555 1_555
H17B C25B 1_555 1_555
C26B C11B 1_555 1_555
C27B C26B 1_555 1_555
H18B C27B 1_555 1_555
C28B C27B 1_555 1_555
H19B C28B 1_555 1_555
C29B C28B 1_555 1_555
H20B C29B 1_555 1_555
C30B C29B 1_555 1_555
H21B C30B 1_555 1_555
C31B C26B 1_555 1_555
H22B C31B 1_555 1_555
C32B C32 1_555 1_555
H23B C32B 1_555 1_555
H24B C32B 1_555 1_555
C11 C12 1_555 1_555
C18 C19 1_555 1_555
C20 C21 1_555 1_555
C22 C23 1_555 1_555
C24 C25 1_555 1_555
C24 C10B 1_555 1_555
C30 C31 1_555 1_555
C9B C10B 1_555 1_555
C11B C12B 1_555 1_555
C18B C19B 1_555 1_555
C20B C21B 1_555 1_555
C22B C23B 1_555 1_555
C24B C25B 1_555 1_555
C30B C31B 1_555 1_555

#END
