
#######################################################################
#
#                 Cambridge Crystallographic Data Centre
#                                CCDC 
#
#######################################################################
#
# If this CIF has been generated from an entry in the Cambridge 
# Structural Database, then it will include bibliographic, chemical, 
# crystal, experimental, refinement or atomic coordinate data resulting 
# from the CCDC's data processing and validation procedures.
#
#######################################################################

data_YUJZIO
_chemical_formula_moiety         'C74 H74 O4,6(C1 D1 Cl3)'
_chemical_name_systematic        
'3,8-bis(3,5-di-tert-butylphenyl)-1,2,6,7-tetrakis(4-methoxyphenyl)dicyclopenta[a,g]-s-indacene deuterochloroform solvate'
_symmetry_cell_setting           monoclinic
_symmetry_space_group_name_H-M   'P 21/c'
_symmetry_Int_Tables_number      14
_space_group_name_Hall           '-P 2ybc'
loop_
_symmetry_equiv_pos_site_id
_symmetry_equiv_pos_as_xyz
1 x,y,z
2 -x,1/2+y,1/2-z
3 -x,-y,-z
4 x,1/2-y,1/2+z
_cell_length_a                   16.3401(9)
_cell_length_b                   10.9180(7)
_cell_length_c                   27.3803(15)
_cell_angle_alpha                90
_cell_angle_beta                 121.225(3)
_cell_angle_gamma                90
_cell_volume                     4177.08
_exptl_crystal_colour            'dark violet'
_exptl_crystal_description       plate
_cell_formula_units_Z            2
loop_
_atom_site_label
_atom_site_type_symbol
_atom_site_fract_x
_atom_site_fract_y
_atom_site_fract_z
O1 O -0.5199(2) 0.5495(3) 0.09987(14)
O2 O -0.0188(3) 0.3757(3) 0.11061(16)
C1 C 0.3414(4) 0.0825(5) 0.4606(2)
H1 H 0.2848 0.0407 0.4301
H2 H 0.3796 0.0245 0.4915
H3 H 0.3799 0.1144 0.4455
C2 C 0.3096(3) 0.1891(5) 0.4838(2)
C3 C -0.0110(3) 0.2918(4) 0.1955(2)
H4 H -0.0482 0.2184 0.1746
C4 C 0.2531(4) 0.1352(5) 0.5083(2)
H5 H 0.2958 0.0862 0.5422
H6 H 0.2020 0.0829 0.4796
H7 H 0.2251 0.2015 0.5191
C5 C -0.0877(3) 0.5113(4) 0.2046(2)
H8 H -0.1155 0.5858 0.2070
C6 C -0.3123(3) 0.5853(4) 0.2457(2)
H9 H -0.2915 0.6328 0.2792
C7 C 0.3970(4) 0.2542(5) 0.5310(2)
H10 H 0.3766 0.3187 0.5473
H11 H 0.4333 0.2908 0.5154
H12 H 0.4374 0.1952 0.5609
C8 C -0.2846(3) 0.4276(4) 0.1959(2)
H13 H -0.2444 0.3660 0.1948
C9 C -0.2517(3) 0.4965(4) 0.24504(19)
C10 C -0.1293(3) 0.4884(4) 0.3547(2)
C11 C -0.4034(3) 0.6057(4) 0.1979(2)
H14 H -0.4440 0.6665 0.1990
C12 C 0.2395(4) 0.4137(6) 0.2709(2)
H15 H 0.2705 0.4428 0.2506
H16 H 0.1715 0.4357 0.2492
H17 H 0.2458 0.3245 0.2750
C13 C -0.3743(3) 0.4460(4) 0.1483(2)
H18 H -0.3954 0.3973 0.1151
C14 C -0.4339(3) 0.5367(4) 0.1491(2)
C15 C 0.2505(3) 0.2798(4) 0.4345(2)
C16 C -0.0628(3) 0.4212(4) 0.24609(19)
C17 C -0.0281(3) 0.4539(4) 0.3907(2)
C18 C 0.2913(3) 0.3345(4) 0.4066(2)
H19 H 0.3552 0.3133 0.4180
C19 C 0.1057(3) 0.3959(4) 0.37360(19)
C20 C -0.0722(3) 0.4928(4) 0.1601(2)
H20 H -0.0885 0.5554 0.1324
C21 C 0.1497(3) 0.4479(4) 0.3465(2)
H21 H 0.1148 0.5044 0.3163
C22 C -0.0330(3) 0.3841(4) 0.1554(2)
C23 C -0.1554(3) 0.4772(4) 0.2951(2)
C24 C -0.0261(3) 0.3114(4) 0.2401(2)
H22 H -0.0110 0.2482 0.2673
C25 C 0.1569(3) 0.3113(4) 0.4177(2)
H23 H 0.1275 0.2750 0.4363
C26 C -0.0739(3) 0.4416(4) 0.2955(2)
C27 C 0.2702(4) 0.6111(5) 0.3229(3)
H24 H 0.2015 0.6275 0.2985
H25 H 0.3040 0.6458 0.3051
H26 H 0.2944 0.6486 0.3604
C28 C 0.0068(3) 0.4284(4) 0.3563(2)
C29 C 0.2435(3) 0.4189(4) 0.3628(2)
C30 C -0.0007(3) 0.4718(4) 0.4502(2)
C31 C 0.0840(3) 0.4570(4) 0.5019(2)
H27 H 0.1399 0.4274 0.5034
C32 C 0.0337(4) 0.2715(6) 0.1099(3)
H28 H 0.0003 0.1964 0.1093
H29 H 0.0979 0.2721 0.1442
H30 H 0.0388 0.2745 0.0758
C33 C 0.2870(3) 0.4729(5) 0.3298(2)
C34 C -0.0850(3) 0.5134(4) 0.4484(2)
C35 C 0.3960(4) 0.4527(6) 0.3609(3)
H31 H 0.4222 0.4987 0.3413
H32 H 0.4093 0.3653 0.3606
H33 H 0.4258 0.4813 0.4004
C36 C -0.1631(3) 0.5219(4) 0.3884(2)
H34 H -0.2269 0.5469 0.3755
C37 C -0.5836(4) 0.6383(5) 0.0999(2)
H35 H -0.5958 0.6198 0.1306
H36 H -0.6440 0.6367 0.0631
H37 H -0.5547 0.7199 0.1061
O1B O 0.5199(2) 0.4505(3) 0.90013(14)
O2B O 0.0188(3) 0.6243(3) 0.88939(16)
C1B C -0.3414(4) 0.9175(5) 0.5394(2)
H1B H -0.2848 0.9593 0.5699
H2B H -0.3796 0.9755 0.5085
H3B H -0.3799 0.8856 0.5545
C2B C -0.3096(3) 0.8109(5) 0.5162(2)
C3B C 0.0110(3) 0.7082(4) 0.8045(2)
H4B H 0.0482 0.7816 0.8254
C4B C -0.2531(4) 0.8648(5) 0.4917(2)
H5B H -0.2958 0.9138 0.4578
H6B H -0.2020 0.9171 0.5204
H7B H -0.2251 0.7985 0.4809
C5B C 0.0877(3) 0.4887(4) 0.7954(2)
H8B H 0.1155 0.4142 0.7930
C6B C 0.3123(3) 0.4147(4) 0.7543(2)
H9B H 0.2915 0.3672 0.7208
C7B C -0.3970(4) 0.7458(5) 0.4690(2)
H10B H -0.3766 0.6813 0.4527
H11B H -0.4333 0.7092 0.4846
H12B H -0.4374 0.8048 0.4391
C8B C 0.2846(3) 0.5724(4) 0.8041(2)
H13B H 0.2444 0.6340 0.8052
C9B C 0.2517(3) 0.5035(4) 0.75496(19)
C10B C 0.1293(3) 0.5116(4) 0.6453(2)
C11B C 0.4034(3) 0.3943(4) 0.8021(2)
H14B H 0.4440 0.3335 0.8010
C12B C -0.2395(4) 0.5863(6) 0.7291(2)
H15B H -0.2705 0.5572 0.7494
H16B H -0.1715 0.5643 0.7508
H17B H -0.2458 0.6755 0.7250
C13B C 0.3743(3) 0.5540(4) 0.8517(2)
H18B H 0.3954 0.6027 0.8849
C14B C 0.4339(3) 0.4633(4) 0.8509(2)
C15B C -0.2505(3) 0.7202(4) 0.5655(2)
C16B C 0.0628(3) 0.5788(4) 0.75391(19)
C17B C 0.0281(3) 0.5461(4) 0.6093(2)
C18B C -0.2913(3) 0.6655(4) 0.5934(2)
H19B H -0.3552 0.6867 0.5820
C19B C -0.1057(3) 0.6041(4) 0.62640(19)
C20B C 0.0722(3) 0.5072(4) 0.8399(2)
H20B H 0.0885 0.4446 0.8676
C21B C -0.1497(3) 0.5521(4) 0.6535(2)
H21B H -0.1148 0.4956 0.6837
C22B C 0.0330(3) 0.6159(4) 0.8446(2)
C23B C 0.1554(3) 0.5228(4) 0.7049(2)
C24B C 0.0261(3) 0.6886(4) 0.7599(2)
H22B H 0.0110 0.7518 0.7327
C25B C -0.1569(3) 0.6887(4) 0.5823(2)
H23B H -0.1275 0.7250 0.5637
C26B C 0.0739(3) 0.5584(4) 0.7045(2)
C27B C -0.2702(4) 0.3889(5) 0.6771(3)
H24B H -0.2015 0.3725 0.7015
H25B H -0.3040 0.3542 0.6949
H26B H -0.2944 0.3514 0.6396
C28B C -0.0068(3) 0.5716(4) 0.6437(2)
C29B C -0.2435(3) 0.5811(4) 0.6372(2)
C30B C 0.0007(3) 0.5282(4) 0.5498(2)
C31B C -0.0840(3) 0.5430(4) 0.4981(2)
H27B H -0.1399 0.5726 0.4966
C32B C -0.0337(4) 0.7285(6) 0.8901(3)
H28B H -0.0003 0.8036 0.8907
H29B H -0.0979 0.7279 0.8558
H30B H -0.0388 0.7255 0.9242
C33B C -0.2870(3) 0.5271(5) 0.6702(2)
C34B C 0.0850(3) 0.4866(4) 0.5516(2)
C35B C -0.3960(4) 0.5473(6) 0.6391(3)
H31B H -0.4222 0.5013 0.6587
H32B H -0.4093 0.6347 0.6394
H33B H -0.4258 0.5187 0.5996
C36B C 0.1631(3) 0.4781(4) 0.6116(2)
H34B H 0.2269 0.4531 0.6245
C37B C 0.5836(4) 0.3617(5) 0.9001(2)
H35B H 0.5958 0.3802 0.8694
H36B H 0.6440 0.3633 0.9369
H37B H 0.5547 0.2801 0.8939
Cl1 Cl 0.40416(10) 0.6336(2) 0.49075(7)
Cl2 Cl 0.31656(12) 0.57438(15) 0.55510(7)
Cl3 Cl 0.21316(11) 0.71937(17) 0.45322(8)
C38 C 0.2952(4) 0.6032(6) 0.4854(3)
D1 D 0.2677 0.5273 0.4621
Cl4 Cl 0.12387(16) 0.8398(2) 0.65339(11)
Cl5 Cl 0.21567(15) 1.0228(2) 0.62448(10)
Cl6 Cl 0.1134(3) 0.8344(4) 0.54433(18)
C39 C 0.1139(6) 0.9261(8) 0.5970(4)
D2 D 0.0502(12) 0.9821(19) 0.5779(9)
Cl7? Cl -0.0119(9) 0.8818(17) 0.5339(5)
Cl8? Cl 0.1878(6) 0.9126(8) 0.5751(4)
C40? C 0.1017(14) 0.8273(19) 0.5842(8)
D3? D 0.109(2) 0.7322(17) 0.5748(11)
Cl9? Cl 0.4096(11) 0.8238(9) 0.7443(6)
Cl10? Cl 0.4321(10) 0.5992(12) 0.6938(5)
Cl11? Cl 0.5747(6) 0.6636(16) 0.8120(4)
C41? C 0.4520(5) 0.6704(8) 0.7574(4)
D4? D 0.4114 0.6197 0.7721
Cl12? Cl 0.3773(4) 0.8061(5) 0.7257(3)
Cl13? Cl 0.4697(6) 0.5914(3) 0.7106(3)
Cl14? Cl 0.5630(4) 0.7219(8) 0.81999(14)
C42? C 0.45205(19) 0.6772(2) 0.75941(12)
D5? D 0.4157 0.6181 0.7744
Cl15? Cl 0.5945(11) 0.6148(12) 0.8015(7)
Cl16? Cl 0.4699(15) 0.8260(8) 0.7807(9)
Cl17? Cl 0.4122(12) 0.6366(15) 0.6929(6)
C43? C 0.4745(10) 0.6677(8) 0.7673(6)
D6? D 0.4387 0.6176 0.7854
Cl18? Cl 0.5398(11) 0.7744(19) 0.8208(5)
Cl19? Cl 0.3584(9) 0.7730(16) 0.7108(7)
Cl20? Cl 0.5081(11) 0.5948(13) 0.7330(7)
C44? C 0.4540(7) 0.6825(10) 0.7634(5)
D7? D 0.4240 0.6187 0.7807
H38? H 0.0574 0.2712 0.2123
loop_
_geom_bond_atom_site_label_1
_geom_bond_atom_site_label_2
_geom_bond_site_symmetry_1
_geom_bond_site_symmetry_2
O1 C14 1_555 1_555
O2 C22 1_555 1_555
C1 H1 1_555 1_555
H2 C1 1_555 1_555
H3 C1 1_555 1_555
C2 C1 1_555 1_555
C3 H4 1_555 1_555
C4 C2 1_555 1_555
H5 C4 1_555 1_555
H6 C4 1_555 1_555
H7 C4 1_555 1_555
C5 H8 1_555 1_555
C6 H9 1_555 1_555
C7 C2 1_555 1_555
H10 C7 1_555 1_555
H11 C7 1_555 1_555
H12 C7 1_555 1_555
C8 H13 1_555 1_555
C9 C6 1_555 1_555
C10 C17 1_555 1_555
C11 C6 1_555 1_555
H14 C11 1_555 1_555
C12 H15 1_555 1_555
H16 C12 1_555 1_555
H17 C12 1_555 1_555
C13 C8 1_555 1_555
H18 C13 1_555 1_555
C14 C11 1_555 1_555
C15 C2 1_555 1_555
C16 C5 1_555 1_555
C17 C28 1_555 1_555
C18 C15 1_555 1_555
H19 C18 1_555 1_555
C19 C21 1_555 1_555
C20 C5 1_555 1_555
H20 C20 1_555 1_555
C21 H21 1_555 1_555
C22 C3 1_555 1_555
C23 C9 1_555 1_555
C24 C3 1_555 1_555
H22 C24 1_555 1_555
C25 C15 1_555 1_555
H23 C25 1_555 1_555
C26 C16 1_555 1_555
C27 H24 1_555 1_555
H25 C27 1_555 1_555
H26 C27 1_555 1_555
C28 C19 1_555 1_555
C29 C18 1_555 1_555
C30 C17 1_555 1_555
C31 C30 1_555 1_555
H27 C31 1_555 1_555
C32 O2 1_555 1_555
H28 C32 1_555 1_555
H29 C32 1_555 1_555
H30 C32 1_555 1_555
C33 C12 1_555 1_555
C34 C30 1_555 1_555
C35 C33 1_555 1_555
H31 C35 1_555 1_555
H32 C35 1_555 1_555
H33 C35 1_555 1_555
C36 C10 1_555 1_555
H34 C36 1_555 1_555
C37 O1 1_555 1_555
H35 C37 1_555 1_555
H36 C37 1_555 1_555
H37 C37 1_555 1_555
Cl1 C38 1_555 1_555
Cl2 C38 1_555 1_555
Cl3 C38 1_555 1_555
C38 D1 1_555 1_555
Cl4 C39 1_555 1_555
Cl5 C39 1_555 1_555
Cl6 C39 1_555 1_555
C39 D2 1_555 1_555
O1B C14B 1_555 1_555
O2B C22B 1_555 1_555
C1B H1B 1_555 1_555
H2B C1B 1_555 1_555
H3B C1B 1_555 1_555
C2B C1B 1_555 1_555
C3B H4B 1_555 1_555
C4B C2B 1_555 1_555
H5B C4B 1_555 1_555
H6B C4B 1_555 1_555
H7B C4B 1_555 1_555
C5B H8B 1_555 1_555
C6B H9B 1_555 1_555
C7B C2B 1_555 1_555
H10B C7B 1_555 1_555
H11B C7B 1_555 1_555
H12B C7B 1_555 1_555
C8B H13B 1_555 1_555
C9B C6B 1_555 1_555
C10B C17B 1_555 1_555
C11B C6B 1_555 1_555
H14B C11B 1_555 1_555
C12B H15B 1_555 1_555
H16B C12B 1_555 1_555
H17B C12B 1_555 1_555
C13B C8B 1_555 1_555
H18B C13B 1_555 1_555
C14B C11B 1_555 1_555
C15B C2B 1_555 1_555
C16B C5B 1_555 1_555
C17B C28B 1_555 1_555
C18B C15B 1_555 1_555
H19B C18B 1_555 1_555
C19B C21B 1_555 1_555
C20B C5B 1_555 1_555
H20B C20B 1_555 1_555
C21B H21B 1_555 1_555
C22B C3B 1_555 1_555
C23B C9B 1_555 1_555
C24B C3B 1_555 1_555
H22B C24B 1_555 1_555
C25B C15B 1_555 1_555
H23B C25B 1_555 1_555
C26B C16B 1_555 1_555
C27B H24B 1_555 1_555
H25B C27B 1_555 1_555
H26B C27B 1_555 1_555
C28B C19B 1_555 1_555
C29B C18B 1_555 1_555
C30B C17B 1_555 1_555
C31B C34 1_555 1_555
H27B C31B 1_555 1_555
C32B O2B 1_555 1_555
H28B C32B 1_555 1_555
H29B C32B 1_555 1_555
H30B C32B 1_555 1_555
C33B C12B 1_555 1_555
C34B C31 1_555 1_555
C35B C33B 1_555 1_555
H31B C35B 1_555 1_555
H32B C35B 1_555 1_555
H33B C35B 1_555 1_555
C36B C10B 1_555 1_555
H34B C36B 1_555 1_555
C37B O1B 1_555 1_555
H35B C37B 1_555 1_555
H36B C37B 1_555 1_555
H37B C37B 1_555 1_555
C8 C9 1_555 1_555
C10 C23 1_555 1_555
C13 C14 1_555 1_555
C16 C24 1_555 1_555
C19 C25 1_555 1_555
C20 C22 1_555 1_555
C21 C29 1_555 1_555
C23 C26 1_555 1_555
C26 C28 1_555 1_555
C27 C33 1_555 1_555
C29 C33 1_555 1_555
C34 C36 1_555 1_555
C8B C9B 1_555 1_555
C10B C23B 1_555 1_555
C13B C14B 1_555 1_555
C16B C24B 1_555 1_555
C19B C25B 1_555 1_555
C20B C22B 1_555 1_555
C21B C29B 1_555 1_555
C23B C26B 1_555 1_555
C26B C28B 1_555 1_555
C27B C33B 1_555 1_555
C29B C33B 1_555 1_555
C30B C31B 1_555 1_555
C30B C34B 1_555 1_555
C34B C36B 1_555 1_555

#END
