
#######################################################################
#
#                 Cambridge Crystallographic Data Centre
#                                CCDC 
#
#######################################################################
#
# If this CIF has been generated from an entry in the Cambridge 
# Structural Database, then it will include bibliographic, chemical, 
# crystal, experimental, refinement or atomic coordinate data resulting 
# from the CCDC's data processing and validation procedures.
#
#######################################################################

data_YUKJOD
_chemical_formula_moiety         'C34 H42 N5 1+,Cl1 O4 1-,C6 H6'
_chemical_name_systematic        
'N2,N3-(N-Methylaminomethinyl)-2,7,12,17-tetrapropylporphycene perchlorate benzene solvate'
_symmetry_cell_setting           monoclinic
_symmetry_space_group_name_H-M   'P 21/n'
_symmetry_Int_Tables_number      14
_space_group_name_Hall           '-P 2yn'
loop_
_symmetry_equiv_pos_site_id
_symmetry_equiv_pos_as_xyz
1 x,y,z
2 1/2-x,1/2+y,1/2-z
3 -x,-y,-z
4 1/2+x,1/2-y,1/2+z
_cell_length_a                   10.2386(19)
_cell_length_b                   19.3352(23)
_cell_length_c                   20.250(4)
_cell_angle_alpha                90
_cell_angle_beta                 103.547(17)
_cell_angle_gamma                90
_cell_volume                     3897.27
_exptl_crystal_colour            'dark blue'
_chemical_melting_point          'above 250 deg.C'
_cell_formula_units_Z            4
loop_
_atom_site_label
_atom_site_type_symbol
_atom_site_fract_x
_atom_site_fract_y
_atom_site_fract_z
N1 N 0.3904(12) 0.1014(6) 0.3930(7)
N2 N 0.3154(14) -0.0220(9) 0.4622(6)
N3 N 0.4005(14) -0.0972(7) 0.3788(6)
N4 N 0.4779(14) 0.0338(10) 0.3154(8)
N5 N 0.1728(16) -0.0693(9) 0.3553(8)
C1 C 0.3958(19) 0.1620(11) 0.3734(13)
C2 C 0.3418(19) 0.2123(9) 0.4187(14)
C3 C 0.3081(22) 0.1642(9) 0.4639(11)
C4 C 0.3285(18) 0.1040(10) 0.4437(10)
C5 C 0.2827(21) 0.0462(13) 0.4833(14)
C6 C 0.262(3) 0.0381(14) 0.5386(13)
C7 C 0.2284(19) -0.0313(10) 0.5522(8)
C8 C 0.2697(17) -0.0715(11) 0.5070(9)
C9 C 0.2898(24) -0.1369(12) 0.4949(13)
C10 C 0.3491(20) -0.1851(9) 0.4512(10)
C11 C 0.3943(19) -0.1516(11) 0.4081(9)
C12 C 0.4754(20) -0.2022(9) 0.3670(10)
C13 C 0.5172(21) -0.1591(9) 0.3229(10)
C14 C 0.4755(18) -0.0949(9) 0.3319(9)
C15 C 0.5003(22) -0.0287(12) 0.2993(8)
C16 C 0.5533(23) -0.0373(11) 0.2525(10)
C17 C 0.5803(17) 0.0213(15) 0.2314(9)
C18 C 0.5212(21) 0.0695(11) 0.2708(11)
C19 C 0.5175(19) 0.1420(12) 0.2740(10)
C20 C 0.4597(20) 0.1823(14) 0.3288(14)
C21 C 0.336(3) 0.2806(14) 0.4122(15)
C22 C 0.232(4) 0.3152(12) 0.3882(21)
C23 C 0.231(3) 0.3900(20) 0.3870(16)
C24 C 0.1867(21) -0.0549(10) 0.6109(9)
C25 C 0.0562(21) -0.0764(14) 0.6002(12)
C26 C 0.007(3) -0.0949(17) 0.6674(12)
C27 C 0.4913(25) -0.2762(12) 0.3772(14)
C28 C 0.377(3) -0.3136(10) 0.3263(14)
C29 C 0.380(4) -0.3820(19) 0.3277(16)
C30 C 0.654(3) 0.0521(12) 0.1825(14)
C31 C 0.581(3) 0.0502(14) 0.1198(16)
C32 C 0.645(5) 0.0727(13) 0.0683(20)
C33 C 0.3009(16) -0.0317(9) 0.3889(17)
C34 C 0.1437(22) -0.0812(13) 0.2830(10)
H1 H 0.110 -0.043 0.363
H2 H 0.170 -0.108 0.375
H3 H 0.260 0.174 0.499
H4 H 0.239 0.075 0.560
H5 H 0.253 -0.159 0.524
H6 H 0.349 -0.230 0.460
H7 H 0.559 -0.176 0.291
H8 H 0.590 -0.080 0.234
H9 H 0.553 0.165 0.245
H10 H 0.471 0.228 0.323
H11 H 0.405 0.297 0.397
H12 H 0.367 0.301 0.458
H13 H 0.211 0.302 0.345
H14 H 0.168 0.301 0.404
H15 H 0.250 0.410 0.429
H16 H 0.293 0.411 0.369
H17 H 0.157 0.412 0.367
H18 H 0.202 -0.022 0.640
H19 H 0.240 -0.088 0.628
H20 H 0.014 -0.042 0.580
H21 H 0.054 -0.110 0.575
H22 H 0.058 -0.126 0.686
H23 H 0.018 -0.058 0.691
H24 H -0.071 -0.106 0.653
H25 H 0.565 -0.291 0.370
H26 H 0.484 -0.290 0.416
H27 H 0.386 -0.305 0.284
H28 H 0.301 -0.300 0.328
H29 H 0.455 -0.402 0.327
H30 H 0.370 -0.397 0.371
H31 H 0.317 -0.404 0.301
H32 H 0.726 0.034 0.174
H33 H 0.674 0.100 0.178
H34 H 0.547 0.006 0.105
H35 H 0.499 0.073 0.108
H36 H 0.674 0.115 0.075
H37 H 0.723 0.048 0.072
H38 H 0.608 0.069 0.025
H39 H 0.319 0.000 0.358
H40 H 0.146 -0.044 0.263
H41 H 0.206 -0.108 0.275
H42 H 0.069 -0.101 0.271
Cl1 Cl 0.5910(6) 0.2896(3) 0.1313(3)
O1 O 0.4742(15) 0.2724(10) 0.1418(10)
O2 O 0.621(3) 0.2740(13) 0.0741(12)
O3 O 0.6822(19) 0.2532(11) 0.1782(14)
O4 O 0.6328(23) 0.3444(12) 0.1541(11)
C35 C 0.816(3) 0.2962(17) 0.3677(19)
C36 C 0.721(3) 0.3335(16) 0.3555(18)
C37 C 0.6528(33) 0.3820(17) 0.3821(14)
C38 C 0.669(4) 0.4072(17) 0.4605(20)
C39 C 0.758(3) 0.3596(15) 0.4725(18)
C40 C 0.847(3) 0.3099(12) 0.4544(13)
H43 H 0.875 0.271 0.343
H44 H 0.680 0.320 0.313
H45 H 0.584 0.402 0.350
H46 H 0.642 0.440 0.488
H47 H 0.772 0.349 0.520
H48 H 0.911 0.285 0.489
loop_
_geom_bond_atom_site_label_1
_geom_bond_atom_site_label_2
_geom_bond_site_symmetry_1
_geom_bond_site_symmetry_2
N1 C1 1_555 1_555
N2 C5 1_555 1_555
N3 C11 1_555 1_555
N4 C15 1_555 1_555
N5 C33 1_555 1_555
C1 C2 1_555 1_555
C2 C3 1_555 1_555
C3 C4 1_555 1_555
C4 N1 1_555 1_555
C5 C4 1_555 1_555
C6 C5 1_555 1_555
C7 C6 1_555 1_555
C8 N2 1_555 1_555
C9 C8 1_555 1_555
C10 C9 1_555 1_555
C11 C10 1_555 1_555
C12 C11 1_555 1_555
C13 C12 1_555 1_555
C14 N3 1_555 1_555
C15 C14 1_555 1_555
C16 C15 1_555 1_555
C17 C16 1_555 1_555
C18 N4 1_555 1_555
C19 C18 1_555 1_555
C20 C1 1_555 1_555
C21 C2 1_555 1_555
C22 C21 1_555 1_555
C23 C22 1_555 1_555
C24 C7 1_555 1_555
C25 C24 1_555 1_555
C26 C25 1_555 1_555
C27 C12 1_555 1_555
C28 C27 1_555 1_555
C29 C28 1_555 1_555
C30 C17 1_555 1_555
C31 C30 1_555 1_555
C32 C31 1_555 1_555
C33 N2 1_555 1_555
C34 N5 1_555 1_555
Cl1 O1 1_555 1_555
O2 Cl1 1_555 1_555
O3 Cl1 1_555 1_555
O4 Cl1 1_555 1_555
C35 C36 1_555 1_555
C36 C37 1_555 1_555
C37 C38 1_555 1_555
C38 C39 1_555 1_555
C39 C40 1_555 1_555
C40 C35 1_555 1_555
H1 N5 1_555 1_555
H2 N5 1_555 1_555
H3 C3 1_555 1_555
H4 C6 1_555 1_555
H5 C9 1_555 1_555
H6 C10 1_555 1_555
H7 C13 1_555 1_555
H8 C16 1_555 1_555
H9 C19 1_555 1_555
H10 C20 1_555 1_555
H11 C21 1_555 1_555
H12 C21 1_555 1_555
H13 C22 1_555 1_555
H14 C22 1_555 1_555
H15 C23 1_555 1_555
H16 C23 1_555 1_555
H17 C23 1_555 1_555
H18 C24 1_555 1_555
H19 C24 1_555 1_555
H20 C25 1_555 1_555
H21 C25 1_555 1_555
H22 C26 1_555 1_555
H23 C26 1_555 1_555
H24 C26 1_555 1_555
H25 C27 1_555 1_555
H26 C27 1_555 1_555
H27 C28 1_555 1_555
H28 C28 1_555 1_555
H29 C29 1_555 1_555
H30 C29 1_555 1_555
H31 C29 1_555 1_555
H32 C30 1_555 1_555
H33 C30 1_555 1_555
H34 C31 1_555 1_555
H35 C31 1_555 1_555
H36 C32 1_555 1_555
H37 C32 1_555 1_555
H38 C32 1_555 1_555
H39 C33 1_555 1_555
H40 C34 1_555 1_555
H41 C34 1_555 1_555
H42 C34 1_555 1_555
H43 C35 1_555 1_555
H44 C36 1_555 1_555
H45 C37 1_555 1_555
H46 C38 1_555 1_555
H47 C39 1_555 1_555
H48 C40 1_555 1_555
N3 C33 1_555 1_555
C7 C8 1_555 1_555
C13 C14 1_555 1_555
C17 C18 1_555 1_555
C19 C20 1_555 1_555

#END
