
#######################################################################
#
#                 Cambridge Crystallographic Data Centre
#                                CCDC 
#
#######################################################################
#
# If this CIF has been generated from an entry in the Cambridge 
# Structural Database, then it will include bibliographic, chemical, 
# crystal, experimental, refinement or atomic coordinate data resulting 
# from the CCDC's data processing and validation procedures.
#
#######################################################################

data_YUKKUK
_chemical_formula_moiety         'C17 H19 N3 O3 S1'
_chemical_name_systematic        
5-(Dimethylamino)-N-(3,4-dimethyl-5-isoxazolyl)-1-naphthalenesulfonamide
_chemical_properties_biological  
'endothelin selective receptor antagonist activity'
_symmetry_cell_setting           orthorhombic
_symmetry_space_group_name_H-M   'P n a 21'
_symmetry_Int_Tables_number      33
_space_group_name_Hall           'P 2c -2n'
loop_
_symmetry_equiv_pos_site_id
_symmetry_equiv_pos_as_xyz
1 x,y,z
2 -x,-y,1/2+z
3 1/2-x,1/2+y,1/2+z
4 1/2+x,1/2-y,z
_cell_length_a                   8.896(1)
_cell_length_b                   22.302(3)
_cell_length_c                   8.712(1)
_cell_angle_alpha                90
_cell_angle_beta                 90
_cell_angle_gamma                90
_cell_volume                     1728.45
_exptl_crystal_colour            yellow-green
_chemical_melting_point          '134-135 deg.C'
_cell_formula_units_Z            4
loop_
_atom_site_label
_atom_site_type_symbol
_atom_site_fract_x
_atom_site_fract_y
_atom_site_fract_z
C1 C 0.1285(4) 0.3439(2) 0.8852(5)
C2 C 0.0527(5) 0.3083(2) 0.7812(5)
C3 C -0.0715(5) 0.2747(2) 0.8275(5)
C4 C -0.1262(5) 0.2806(2) 0.9720(5)
C5 C -0.1164(5) 0.3249(2) 1.2335(5)
C6 C -0.0340(6) 0.3541(2) 1.3407(5)
C7 C 0.1063(5) 0.3791(2) 1.3056(6)
C8 C 0.1624(5) 0.3772(2) 1.1606(5)
C9 C 0.0809(4) 0.3480(2) 1.0431(5)
C10 C -0.0557(5) 0.3177(2) 1.0815(5)
S1 S 0.2764(1) 0.38737(4) 0.8064(2)
O1 O 0.2982(3) 0.3695(1) 0.6545(4)
O2 O 0.4000(3) 0.3878(1) 0.9142(4)
N1 N 0.2128(3) 0.4570(1) 0.7998(5)
C11 C 0.1942(4) 0.4907(2) 0.9322(5)
O3 O 0.0502(3) 0.4972(1) 0.9827(3)
N2 N 0.0569(4) 0.5315(2) 1.118
C12 C 0.1997(5) 0.5423(2) 1.1444(5)
C13 C 0.2930(4) 0.5185(2) 1.0276(5)
C14 C 0.2447(5) 0.5768(2) 1.2838(7)
C15 C 0.4586(5) 0.5226(2) 1.0123(6)
N3 N -0.2602(4) 0.2996(2) 1.2635(5)
C16 C -0.3851(7) 0.3318(3) 1.1911(8)
C17 C -0.2928(7) 0.2859(3) 1.4213(7)
H1 H 0.0868 0.3064 0.6775
H2 H -0.1172 0.2474 0.7569
H3 H -0.2140 0.2588 0.9994
H4 H -0.0721 0.3572 1.4429
H5 H 0.1646 0.3977 1.3835
H6 H 0.2553 0.3956 1.1374
H7 H 0.1218 0.4591 0.7354
H8 H 0.3502 0.5804 1.2864
H9 H 0.1987 0.6148 1.2819
H10 H 0.2114 0.5552 1.3727
H11 H 0.4988 0.5448 1.0952
H12 H 0.5009 0.4834 1.0114
H13 H 0.4830 0.5422 0.9180
H14 H -0.4774 0.3120 1.2157
H15 H -0.3877 0.3715 1.2267
H16 H -0.3720 0.3311 1.0825
H17 H -0.3899 0.2690 1.4293
H18 H -0.2202 0.2577 1.4578
H19 H -0.2867 0.3214 1.4804
loop_
_geom_bond_atom_site_label_1
_geom_bond_atom_site_label_2
_geom_bond_site_symmetry_1
_geom_bond_site_symmetry_2
C1 C2 1_555 1_555
C2 C3 1_555 1_555
C3 C4 1_555 1_555
C4 C10 1_555 1_555
C5 C6 1_555 1_555
C6 C7 1_555 1_555
C7 C8 1_555 1_555
C8 C9 1_555 1_555
C9 C1 1_555 1_555
C10 C5 1_555 1_555
S1 C1 1_555 1_555
O1 S1 1_555 1_555
O2 S1 1_555 1_555
N1 S1 1_555 1_555
C11 N1 1_555 1_555
O3 C11 1_555 1_555
N2 O3 1_555 1_555
C12 N2 1_555 1_555
C13 C11 1_555 1_555
C14 C12 1_555 1_555
C15 C13 1_555 1_555
N3 C5 1_555 1_555
C16 N3 1_555 1_555
C17 N3 1_555 1_555
H1 C2 1_555 1_555
H2 C3 1_555 1_555
H3 C4 1_555 1_555
H4 C6 1_555 1_555
H5 C7 1_555 1_555
H6 C8 1_555 1_555
H7 N1 1_555 1_555
H8 C14 1_555 1_555
H9 C14 1_555 1_555
H10 C14 1_555 1_555
H11 C15 1_555 1_555
H12 C15 1_555 1_555
H13 C15 1_555 1_555
H14 C16 1_555 1_555
H15 C16 1_555 1_555
H16 C16 1_555 1_555
H17 C17 1_555 1_555
H18 C17 1_555 1_555
H19 C17 1_555 1_555
C9 C10 1_555 1_555
C12 C13 1_555 1_555

#END
