
#######################################################################
#
#                 Cambridge Crystallographic Data Centre
#                                CCDC 
#
#######################################################################
#
# If this CIF has been generated from an entry in the Cambridge 
# Structural Database, then it will include bibliographic, chemical, 
# crystal, experimental, refinement or atomic coordinate data resulting 
# from the CCDC's data processing and validation procedures.
#
#######################################################################

data_YUKKIA
_chemical_formula_moiety         'C29 H40 O4'
_chemical_name_systematic        2-ethoxyspirosta-1,4,6-trien-3-one
_symmetry_cell_setting           orthorhombic
_symmetry_space_group_name_H-M   'P 21 21 21'
_symmetry_Int_Tables_number      19
_space_group_name_Hall           'P 2ac 2ab'
loop_
_symmetry_equiv_pos_site_id
_symmetry_equiv_pos_as_xyz
1 x,y,z
2 1/2-x,-y,1/2+z
3 -x,1/2+y,1/2-z
4 1/2+x,1/2-y,-z
_cell_length_a                   10.5082(18)
_cell_length_b                   15.275(3)
_cell_length_c                   16.049(3)
_cell_angle_alpha                90
_cell_angle_beta                 90
_cell_angle_gamma                90
_cell_volume                     2576.07
_cell_formula_units_Z            4
loop_
_atom_site_label
_atom_site_type_symbol
_atom_site_fract_x
_atom_site_fract_y
_atom_site_fract_z
O1 O 0.42115(13) 0.40007(9) 1.06580(8)
O2 O 0.48887(13) 0.29234(9) 1.15843(8)
O3 O 0.60361(15) 0.23636(10) 0.42633(9)
O4 O 0.77414(15) 0.36295(11) 0.41895(10)
C1 C 0.51853(19) 0.29970(13) 0.55228(11)
H1 H 0.4614 0.2536 0.5586
C2 C 0.60069(19) 0.29658(12) 0.48897(11)
C3 C 0.70077(18) 0.36361(13) 0.47838(12)
C4 C 0.70769(19) 0.42940(13) 0.54294(13)
H2 H 0.7712 0.4716 0.5393
C5 C 0.62742(18) 0.43284(12) 0.60796(12)
C6 C 0.6479(2) 0.49489(13) 0.67506(13)
H3 H 0.7045 0.5408 0.6666
C7 C 0.5892(2) 0.48895(12) 0.74807(13)
H4 H 0.6063 0.5308 0.7886
C8 C 0.49671(19) 0.41765(11) 0.76767(11)
H5 H 0.4106 0.4418 0.7628
C9 C 0.50837(17) 0.34025(11) 0.70601(10)
H6 H 0.5911 0.3130 0.7170
C10 C 0.51323(17) 0.37366(12) 0.61406(11)
C11 C 0.4079(2) 0.27064(13) 0.72524(12)
H7 H 0.4183 0.2218 0.6872
H8 H 0.3239 0.2952 0.7164
C12 C 0.4181(2) 0.23749(12) 0.81507(12)
H9 H 0.3490 0.1969 0.8258
H10 H 0.4974 0.2058 0.8215
C13 C 0.41313(16) 0.31133(11) 0.87918(11)
C14 C 0.51212(17) 0.38099(11) 0.85539(11)
H11 H 0.5945 0.3510 0.8558
C15 C 0.5136(2) 0.44228(13) 0.93073(11)
H12 H 0.5899 0.4780 0.9318
H13 H 0.4393 0.4799 0.9316
C16 C 0.51160(19) 0.37677(12) 1.00240(11)
H14 H 0.5968 0.3703 1.0264
C17 C 0.46366(16) 0.28794(12) 0.96741(11)
H15 H 0.5360 0.2479 0.9619
C18 C 0.27747(18) 0.34871(15) 0.88300(14)
H16 H 0.2703 0.3875 0.9298
H17 H 0.2176 0.3016 0.8889
H18 H 0.2598 0.3804 0.8326
C19 C 0.3933(2) 0.42809(17) 0.59241(13)
H19 H 0.3856 0.4759 0.6309
H20 H 0.3192 0.3915 0.5962
H21 H 0.4008 0.4505 0.5368
C20 C 0.37319(19) 0.25316(12) 1.03542(12)
H22 H 0.2860 0.2574 1.0141
C21 C 0.3969(2) 0.15801(13) 1.06033(15)
H23 H 0.4831 0.1516 1.0793
H24 H 0.3831 0.1207 1.0131
H25 H 0.3396 0.1419 1.1043
C22 C 0.38756(18) 0.32033(12) 1.10630(12)
C23 C 0.2690(2) 0.33679(15) 1.15641(15)
H26 H 0.2379 0.2817 1.1785
H27 H 0.2038 0.3608 1.1203
C24 C 0.2929(2) 0.39965(16) 1.22782(14)
H28 H 0.3067 0.4580 1.2057
H29 H 0.2182 0.4016 1.2633
C25 C 0.4071(3) 0.37297(17) 1.27930(13)
H30 H 0.3860 0.3192 1.3097
C26 C 0.5195(2) 0.35444(16) 1.22260(13)
H31 H 0.5472 0.4087 1.1970
H32 H 0.5895 0.3319 1.2557
C27 C 0.4430(4) 0.4436(2) 1.34234(17)
H33 H 0.4611 0.4972 1.3135
H34 H 0.5170 0.4253 1.3729
H35 H 0.3736 0.4526 1.3803
C28 C 0.5017(3) 0.17442(15) 0.42384(14)
H36 H 0.4204 0.2044 0.4251
H37 H 0.5064 0.1354 0.4714
C29 C 0.5156(3) 0.12362(17) 0.34430(17)
H38 H 0.5131 0.1631 0.2978
H39 H 0.4472 0.0823 0.3397
H40 H 0.5954 0.0930 0.3446
loop_
_geom_bond_atom_site_label_1
_geom_bond_atom_site_label_2
_geom_bond_site_symmetry_1
_geom_bond_site_symmetry_2
O1 C16 1_555 1_555
O2 C22 1_555 1_555
O3 C2 1_555 1_555
O4 C3 1_555 1_555
C1 H1 1_555 1_555
C2 C1 1_555 1_555
C3 C2 1_555 1_555
C4 C3 1_555 1_555
H2 C4 1_555 1_555
C5 C4 1_555 1_555
C6 C5 1_555 1_555
H3 C6 1_555 1_555
C7 C6 1_555 1_555
H4 C7 1_555 1_555
C8 C7 1_555 1_555
H5 C8 1_555 1_555
C9 C8 1_555 1_555
H6 C9 1_555 1_555
C10 C1 1_555 1_555
C11 C9 1_555 1_555
H7 C11 1_555 1_555
H8 C11 1_555 1_555
C12 C11 1_555 1_555
H9 C12 1_555 1_555
H10 C12 1_555 1_555
C13 C12 1_555 1_555
C14 C8 1_555 1_555
H11 C14 1_555 1_555
C15 C14 1_555 1_555
H12 C15 1_555 1_555
H13 C15 1_555 1_555
C16 C15 1_555 1_555
H14 C16 1_555 1_555
C17 C13 1_555 1_555
H15 C17 1_555 1_555
C18 C13 1_555 1_555
H16 C18 1_555 1_555
H17 C18 1_555 1_555
H18 C18 1_555 1_555
C19 C10 1_555 1_555
H19 C19 1_555 1_555
H20 C19 1_555 1_555
H21 C19 1_555 1_555
C20 C17 1_555 1_555
H22 C20 1_555 1_555
C21 C20 1_555 1_555
H23 C21 1_555 1_555
H24 C21 1_555 1_555
H25 C21 1_555 1_555
C22 O1 1_555 1_555
C23 C22 1_555 1_555
H26 C23 1_555 1_555
H27 C23 1_555 1_555
C24 C23 1_555 1_555
H28 C24 1_555 1_555
H29 C24 1_555 1_555
C25 C24 1_555 1_555
H30 C25 1_555 1_555
C26 O2 1_555 1_555
H31 C26 1_555 1_555
H32 C26 1_555 1_555
C27 C25 1_555 1_555
H33 C27 1_555 1_555
H34 C27 1_555 1_555
H35 C27 1_555 1_555
C28 O3 1_555 1_555
H36 C28 1_555 1_555
H37 C28 1_555 1_555
C29 C28 1_555 1_555
H38 C29 1_555 1_555
H39 C29 1_555 1_555
H40 C29 1_555 1_555
C5 C10 1_555 1_555
C9 C10 1_555 1_555
C13 C14 1_555 1_555
C16 C17 1_555 1_555
C20 C22 1_555 1_555
C25 C26 1_555 1_555

#END
