
#######################################################################
#
#                 Cambridge Crystallographic Data Centre
#                                CCDC 
#
#######################################################################
#
# If this CIF has been generated from an entry in the Cambridge 
# Structural Database, then it will include bibliographic, chemical, 
# crystal, experimental, refinement or atomic coordinate data resulting 
# from the CCDC's data processing and validation procedures.
#
#######################################################################

data_YUKMEW
_chemical_formula_moiety         'C22 H24 N2 O1'
_chemical_name_systematic        
1,2,3,4,5,11-Hexahydro-5-(3-methoxyphenyl)-2-methyl-1,5-methano-5H-azocino(4,5-b)indole
_symmetry_cell_setting           orthorhombic
_symmetry_space_group_name_H-M   'F d d 2'
_symmetry_Int_Tables_number      43
_space_group_name_Hall           'F 2 -2d'
loop_
_symmetry_equiv_pos_site_id
_symmetry_equiv_pos_as_xyz
1 x,y,z
2 -x,-y,z
3 1/4-x,1/4+y,1/4+z
4 3/4+x,3/4-y,1/4+z
5 x,1/2+y,1/2+z
6 -x,1/2-y,1/2+z
7 1/4-x,3/4+y,3/4+z
8 3/4+x,1/4-y,3/4+z
9 1/2+x,y,1/2+z
10 1/2-x,-y,1/2+z
11 3/4-x,1/4+y,3/4+z
12 1/4+x,3/4-y,3/4+z
13 1/2+x,1/2+y,z
14 1/2-x,1/2-y,z
15 3/4-x,3/4+y,1/4+z
16 1/4+x,1/4-y,1/4+z
_cell_length_a                   21.056(3)
_cell_length_b                   51.56(2)
_cell_length_c                   6.603(1)
_cell_angle_alpha                90
_cell_angle_beta                 90
_cell_angle_gamma                90
_cell_volume                     7168.53
_exptl_crystal_colour            colorless
_chemical_melting_point          '185-186 deg.C'
_cell_formula_units_Z            16
loop_
_atom_site_label
_atom_site_type_symbol
_atom_site_fract_x
_atom_site_fract_y
_atom_site_fract_z
C1 C 0.0703(2) 0.2662(1) 1.2782(7)
O1 O 0.0196(2) 0.2528(1) 1.3530(6)
C2 C 0.0183(2) 0.2256(1) 1.3226(9)
C3 C 0.0679(2) 0.2928(1) 1.3038(7)
C4 C 0.1145(1) 0.3093(1) 1.2320(6)
C5 C 0.1644(2) 0.2981(1) 1.1284(9)
C6 C 0.1666(2) 0.2715(1) 1.1052(11)
C7 C 0.1204(2) 0.2553(1) 1.1788(8)
C8 C 0.1631(1) 0.3818(1) 1.2691(5)
N1 N 0.1578(1) 0.3838(1) 1.4925(4)
C9 C 0.1599(1) 0.4107(1) 1.5610(6)
C10 C 0.0986(1) 0.3716(1) 1.5607(5)
C11 C 0.0949(1) 0.3435(1) 1.4940(6)
C12 C 0.1082(1) 0.3385(1) 1.2672(5)
C13 C 0.0539(1) 0.3489(1) 1.1287(6)
C14 C 0.0582(1) 0.3774(1) 1.0948(5)
N2 N 0.0143(1) 0.3917(1) 0.9875(5)
C15 C 0.0365(1) 0.4169(1) 0.9732(6)
C16 C 0.0115(1) 0.4383(1) 0.8747(7)
C17 C 0.0450(2) 0.4613(1) 0.8800(7)
C18 C 0.1025(2) 0.4631(1) 0.9833(7)
C19 C 0.1273(2) 0.4419(1) 1.0834(7)
C20 C 0.0949(1) 0.4184(1) 1.0784(5)
C21 C 0.1075(1) 0.3928(1) 1.1534(5)
C22 C 0.1699(1) 0.3533(1) 1.2137(6)
H1 H -0.0196(2) 0.2185(1) 1.3820(9)
H2 H 0.0548(2) 0.2179(1) 1.3853(9)
H3 H 0.0187(2) 0.2219(1) 1.1801(9)
H4 H 0.0334(2) 0.2999(1) 1.3722(7)
H5 H 0.1964(2) 0.3084(1) 1.0744(9)
H6 H 0.2009(2) 0.2643(1) 1.0367(11)
H7 H 0.1231(2) 0.2375(1) 1.1615(8)
H8 H 0.2017(1) 0.3909(1) 1.2262(5)
H9 H 0.1987(1) 0.4186(1) 1.5160(6)
H10 H 0.1580(1) 0.4112(1) 1.7063(6)
H11 H 0.1244(1) 0.4200(1) 1.5060(6)
H12 H 0.0627(1) 0.3810(1) 1.5057(5)
H13 H 0.0961(1) 0.3725(1) 1.7072(5)
H14 H 0.0528(1) 0.3370(1) 1.5253(6)
H15 H 0.1250(1) 0.3335(1) 1.5733(6)
H16 H 0.0558(1) 0.3401(1) 0.9991(6)
H17 H 0.0133(1) 0.3449(1) 1.1904(6)
H18 H -0.0149(13) 0.3842(5) 0.9207(55)
H19 H -0.0270(1) 0.4372(1) 0.8064(7)
H20 H 0.0290(2) 0.4759(1) 0.8137(1)
H21 H 0.1244(2) 0.4787(1) 0.9849(7)
H22 H 0.1654(2) 0.4434(1) 1.1537(7)
H23 H 0.2054(1) 0.3458(1) 1.2870(6)
H24 H 0.1784(1) 0.3517(1) 1.0699(6)
loop_
_geom_bond_atom_site_label_1
_geom_bond_atom_site_label_2
_geom_bond_site_symmetry_1
_geom_bond_site_symmetry_2
C1 O1 1_555 1_555
O1 C2 1_555 1_555
C2 H1 1_555 1_555
C3 C1 1_555 1_555
C4 C3 1_555 1_555
C5 C4 1_555 1_555
C6 C5 1_555 1_555
C7 C1 1_555 1_555
C8 N1 1_555 1_555
N1 C9 1_555 1_555
C9 H9 1_555 1_555
C10 N1 1_555 1_555
C11 C10 1_555 1_555
C12 C4 1_555 1_555
C13 C12 1_555 1_555
C14 C13 1_555 1_555
N2 C14 1_555 1_555
C15 N2 1_555 1_555
C16 C15 1_555 1_555
C17 C16 1_555 1_555
C18 C17 1_555 1_555
C19 C18 1_555 1_555
C20 C15 1_555 1_555
C21 C8 1_555 1_555
C22 C8 1_555 1_555
H2 C2 1_555 1_555
H3 C2 1_555 1_555
H4 C3 1_555 1_555
H5 C5 1_555 1_555
H6 C6 1_555 1_555
H7 C7 1_555 1_555
H8 C8 1_555 1_555
H10 C9 1_555 1_555
H11 C9 1_555 1_555
H12 C10 1_555 1_555
H13 C10 1_555 1_555
H14 C11 1_555 1_555
H15 C11 1_555 1_555
H16 C13 1_555 1_555
H17 C13 1_555 1_555
H18 N2 1_555 1_555
H19 C16 1_555 1_555
H20 C17 1_555 1_555
H21 C18 1_555 1_555
H22 C19 1_555 1_555
H23 C22 1_555 1_555
H24 C22 1_555 1_555
C6 C7 1_555 1_555
C11 C12 1_555 1_555
C12 C22 1_555 1_555
C14 C21 1_555 1_555
C19 C20 1_555 1_555
C20 C21 1_555 1_555

#END
