
#######################################################################
#
#                 Cambridge Crystallographic Data Centre
#                                CCDC 
#
#######################################################################
#
# If this CIF has been generated from an entry in the Cambridge 
# Structural Database, then it will include bibliographic, chemical, 
# crystal, experimental, refinement or atomic coordinate data resulting 
# from the CCDC's data processing and validation procedures.
#
#######################################################################

data_YUKPAW02
_chemical_formula_moiety         'C9 H14 N1 1+,Cl1 O4 1-'
_chemical_name_systematic        '2,4,6-Trimethylanilinium perchlorate'
_symmetry_cell_setting           triclinic
_symmetry_space_group_name_H-M   'P -1'
_symmetry_Int_Tables_number      2
_space_group_name_Hall           '-P 1'
loop_
_symmetry_equiv_pos_site_id
_symmetry_equiv_pos_as_xyz
1 x,y,z
2 -x,-y,-z
_cell_length_a                   7.1581(14)
_cell_length_b                   8.5937(17)
_cell_length_c                   9.0642(18)
_cell_angle_alpha                88.74(3)
_cell_angle_beta                 79.19(3)
_cell_angle_gamma                87.02(3)
_cell_volume                     546.903
_exptl_crystal_colour            colorless
_exptl_crystal_description       prism
_cell_formula_units_Z            2
loop_
_atom_site_label
_atom_site_type_symbol
_atom_site_fract_x
_atom_site_fract_y
_atom_site_fract_z
Cl1 Cl 0.22851(14) 0.31825(12) 0.08293(12)
O1 O 0.1332(6) 0.4666(4) 0.1136(4)
O2 O 0.0962(5) 0.2129(4) 0.0524(4)
O3 O 0.3067(7) 0.2682(5) 0.2078(6)
O4 O 0.3763(5) 0.3356(4) -0.0437(5)
C1 C 0.7272(5) 0.3034(5) 0.3230(5)
N1 N 0.7106(5) 0.3526(4) 0.1709(4)
H1 H 0.7138 0.4559 0.1631
H2 H 0.6009 0.3227 0.1508
H3 H 0.8069 0.3094 0.1058
C2 C 0.7701(6) 0.3609(5) 0.5660(5)
H4 H 0.7855 0.4329 0.6374
C3 C 0.7490(5) 0.4136(5) 0.4253(5)
C4 C 0.7249(6) 0.1453(5) 0.3559(5)
C5 C 0.7691(6) 0.2043(5) 0.6048(5)
C6 C 0.7461(6) 0.0994(5) 0.4974(5)
H5 H 0.7450 -0.0062 0.5221
C7 C 0.7498(7) 0.5856(5) 0.3891(6)
H6 H 0.7754 0.6412 0.4733
H7 H 0.6279 0.6208 0.3682
H8 H 0.8468 0.6043 0.3028
C8 C 0.7009(8) 0.0279(5) 0.2405(6)
H9 H 0.6945 -0.0743 0.2857
H10 H 0.8074 0.0295 0.1585
H11 H 0.5855 0.0536 0.2039
C9 C 0.7927(8) 0.1515(7) 0.7590(6)
H12 H 0.8440 0.0459 0.7554
H13 H 0.6712 0.1573 0.8254
H14 H 0.8781 0.2175 0.7951
loop_
_geom_bond_atom_site_label_1
_geom_bond_atom_site_label_2
_geom_bond_site_symmetry_1
_geom_bond_site_symmetry_2
Cl1 O1 1_555 1_555
C1 N1 1_555 1_555
N1 H1 1_555 1_555
H2 N1 1_555 1_555
H3 N1 1_555 1_555
C2 H4 1_555 1_555
C3 C1 1_555 1_555
O2 Cl1 1_555 1_555
C4 C1 1_555 1_555
C5 C2 1_555 1_555
C6 C4 1_555 1_555
H5 C6 1_555 1_555
O3 Cl1 1_555 1_555
C7 C3 1_555 1_555
H6 C7 1_555 1_555
H7 C7 1_555 1_555
H8 C7 1_555 1_555
O4 Cl1 1_555 1_555
C8 C4 1_555 1_555
H9 C8 1_555 1_555
H10 C8 1_555 1_555
H11 C8 1_555 1_555
C9 C5 1_555 1_555
H12 C9 1_555 1_555
H13 C9 1_555 1_555
H14 C9 1_555 1_555
C2 C3 1_555 1_555
C5 C6 1_555 1_555

#END
