
#######################################################################
#
#                 Cambridge Crystallographic Data Centre
#                                CCDC 
#
#######################################################################
#
# If this CIF has been generated from an entry in the Cambridge 
# Structural Database, then it will include bibliographic, chemical, 
# crystal, experimental, refinement or atomic coordinate data resulting 
# from the CCDC's data processing and validation procedures.
#
#######################################################################

data_YUKPAW01
_chemical_formula_moiety         'C9 H14 N1 1+,Cl1 O4 1-'
_chemical_name_systematic        '2,4,6-Trimethylanilinium perchlorate'
_symmetry_cell_setting           monoclinic
_symmetry_space_group_name_H-M   'P 21/m'
_symmetry_Int_Tables_number      11
_space_group_name_Hall           '-P 2yb'
loop_
_symmetry_equiv_pos_site_id
_symmetry_equiv_pos_as_xyz
1 x,y,z
2 -x,1/2+y,-z
3 -x,-y,-z
4 x,1/2-y,z
_cell_length_a                   8.9084(18)
_cell_length_b                   7.2253(18)
_cell_length_c                   9.172(3)
_cell_angle_alpha                90
_cell_angle_beta                 95.55(3)
_cell_angle_gamma                90
_cell_volume                     587.596
_exptl_crystal_colour            colorless
_exptl_crystal_description       prism
_cell_formula_units_Z            2
loop_
_atom_site_label
_atom_site_type_symbol
_atom_site_fract_x
_atom_site_fract_y
_atom_site_fract_z
Cl1 Cl 0.70593(10) 0.2500 0.09900(11)
O1 O 0.5699(6) 0.3463(8) 0.0814(8)
O2 O 0.7363(8) 0.2500 0.2522(6)
O4 O 0.8156(8) 0.1238(13) 0.0868(14)
O1C O 0.5699(6) 0.1537(8) 0.0814(8)
O4C O 0.8156(8) 0.3762(13) 0.0868(14)
N1 N 0.6640(4) 0.7500 0.1691(3)
H2 H 0.5572 0.7500 0.1497
C1 C 0.7013(4) 0.7500 0.3280(4)
C2 C 0.5838(4) 0.7500 0.4163(4)
C3 C 0.6223(4) 0.7500 0.5654(5)
H3 H 0.5459 0.7500 0.6277
C4 C 0.7721(5) 0.7500 0.6264(4)
C5 C 0.8828(4) 0.7500 0.5332(4)
H4 H 0.9829 0.7500 0.5728
C6 C 0.8519(4) 0.7500 0.3819(4)
C7 C 0.4195(5) 0.7500 0.3556(6)
H5 H 0.3548 0.7500 0.4335
H6 H 0.4001 0.8585 0.2963
C8 C 0.8087(7) 0.7500 0.7903(5)
H7 H 0.9160 0.7500 0.8146
H8 H 0.7660 0.8585 0.8304
C9 C 0.9773(5) 0.7500 0.2812(6)
H9 H 1.0730 0.7500 0.3391
H10 H 0.9693 0.6415 0.2205
H6C H 0.4001 0.6415 0.2963
H8C H 0.7660 0.6415 0.8304
H10C H 0.9693 0.8585 0.2205
H1? H 0.6999 0.8022 0.1182
O3? O 0.714(3) 0.2500 -0.057(2)
O5? O 0.735(3) 0.1439(17) 0.2038(19)
O6? O 0.7273(15) 0.0994(7) 0.0264(8)
loop_
_geom_bond_atom_site_label_1
_geom_bond_atom_site_label_2
_geom_bond_site_symmetry_1
_geom_bond_site_symmetry_2
N1 H2 1_555 1_555
C1 N1 1_555 1_555
C2 C1 1_555 1_555
C3 C2 1_555 1_555
H3 C3 1_555 1_555
C4 C3 1_555 1_555
C5 C4 1_555 1_555
H4 C5 1_555 1_555
C6 C1 1_555 1_555
C7 C2 1_555 1_555
H5 C7 1_555 1_555
H6 C7 1_555 1_555
C8 C4 1_555 1_555
H7 C8 1_555 1_555
H8 C8 1_555 1_555
C9 C6 1_555 1_555
H9 C9 1_555 1_555
H10 C9 1_555 1_555
Cl1 O1 1_555 1_555
O1 O1C 1_555 1_555
O2 Cl1 1_555 1_555
O4 Cl1 1_555 1_555
H6C C7 1_555 1_555
H8C C8 1_555 1_555
H10C C9 1_555 1_555
O1C Cl1 1_555 1_555
O4C Cl1 1_555 1_555
C5 C6 1_555 1_555

#END
