
#######################################################################
#
#                 Cambridge Crystallographic Data Centre
#                                CCDC 
#
#######################################################################
#
# If this CIF has been generated from an entry in the Cambridge 
# Structural Database, then it will include bibliographic, chemical, 
# crystal, experimental, refinement or atomic coordinate data resulting 
# from the CCDC's data processing and validation procedures.
#
#######################################################################

data_YUKWAC
_chemical_formula_moiety         'C15 H17 N3 O3'
_chemical_name_systematic        
3-(Acetyl(acetylamino)methyl)-2-ethylquinazolin-4(3H)one
_symmetry_cell_setting           triclinic
_symmetry_space_group_name_H-M   'P -1'
_symmetry_Int_Tables_number      2
_space_group_name_Hall           '-P 1'
loop_
_symmetry_equiv_pos_site_id
_symmetry_equiv_pos_as_xyz
1 x,y,z
2 -x,-y,-z
_cell_length_a                   7.738(10)
_cell_length_b                   10.462(13)
_cell_length_c                   10.260(3)
_cell_angle_alpha                105.6(1)
_cell_angle_beta                 97.56(3)
_cell_angle_gamma                107.01(1)
_cell_volume                     744.808
_cell_formula_units_Z            2
loop_
_atom_site_label
_atom_site_type_symbol
_atom_site_fract_x
_atom_site_fract_y
_atom_site_fract_z
N1 N 0.2645(4) 0.11258(29) 0.0339(3)
N2 N 0.5655(4) 0.24448(27) 0.50351(29)
N3 N 0.3425(4) 0.14167(25) 0.27722(27)
O1 O 0.7073(3) 0.45958(24) 0.48571(28)
O2 O 0.0692(4) 0.1235(3) 0.4238(3)
O3 O 0.3542(4) -0.03868(22) 0.36044(26)
C1 C 0.3081(4) 0.1906(3) 0.1638(3)
C2 C 0.3293(4) 0.0018(3) 0.2562(3)
C3 C 0.2888(4) -0.0853(3) 0.1101(3)
C4 C 0.2811(5) -0.2277(4) 0.0746(4)
C5 C 0.2397(6) -0.3084(4) -0.0663(4)
C6 C 0.2047(6) -0.2511(4) -0.1704(4)
C7 C 0.2095(5) -0.1121(4) -0.1390(4)
C8 C 0.2549(4) -0.0265(3) 0.0041(4)
C9 C 0.3190(6) 0.3433(3) 0.1974(4)
C10 C 0.2811(7) 0.3852(5) 0.0668(5)
C11 C 0.8932(5) 0.3621(5) 0.6120(5)
C12 C 0.7154(4) 0.3614(3) 0.5277(3)
C13 C 0.3870(4) 0.2299(3) 0.4272(3)
C14 C 0.2245(4) 0.1758(3) 0.4953(3)
C15 C 0.2655(6) 0.1986(6) 0.6507(4)
loop_
_geom_bond_atom_site_label_1
_geom_bond_atom_site_label_2
_geom_bond_site_symmetry_1
_geom_bond_site_symmetry_2
N1 C1 1_555 1_555
N2 C12 1_555 1_555
N3 C1 1_555 1_555
O1 C12 1_555 1_555
O2 C14 1_555 1_555
O3 C2 1_555 1_555
C1 C9 1_555 1_555
C2 N3 1_555 1_555
C3 C2 1_555 1_555
C4 C3 1_555 1_555
C5 C4 1_555 1_555
C6 C5 1_555 1_555
C7 C6 1_555 1_555
C8 N1 1_555 1_555
C9 C10 1_555 1_555
C11 C12 1_555 1_555
C13 N2 1_555 1_555
C14 C13 1_555 1_555
C15 C14 1_555 1_555
N3 C13 1_555 1_555
C3 C8 1_555 1_555
C7 C8 1_555 1_555

#END
