
#######################################################################
#
#                 Cambridge Crystallographic Data Centre
#                                CCDC 
#
#######################################################################
#
# If this CIF has been generated from an entry in the Cambridge 
# Structural Database, then it will include bibliographic, chemical, 
# crystal, experimental, refinement or atomic coordinate data resulting 
# from the CCDC's data processing and validation procedures.
#
#######################################################################

data_YULKIB
_chemical_formula_moiety         'C31 H51 N1 O3 Si1'
_chemical_name_systematic        
(-)-(4aR,4bR,6aR,10aS,10bR,12aR)-9-(t-Butyldimethylsilyloxy)-1,1,4a,10btetramethyl-3,4,4a,4b,5,6,6a,7,10,10a,10b,11,12,12a-tetradecahydro-1H-spiro[chrysene-2,2'-[1,3]dioxolane]-10a-carbonitrile
_symmetry_cell_setting           orthorhombic
_symmetry_space_group_name_H-M   'P 21 21 21'
_symmetry_Int_Tables_number      19
_space_group_name_Hall           'P 2ac 2ab'
loop_
_symmetry_equiv_pos_site_id
_symmetry_equiv_pos_as_xyz
1 x,y,z
2 1/2-x,-y,1/2+z
3 -x,1/2+y,1/2-z
4 1/2+x,1/2-y,-z
_cell_length_a                   7.5193(3)
_cell_length_b                   12.2929(5)
_cell_length_c                   32.1251(13)
_cell_angle_alpha                90
_cell_angle_beta                 90
_cell_angle_gamma                90
_cell_volume                     2969.45
_exptl_crystal_colour            colorless
_exptl_crystal_description       plate
_chemical_melting_point          '173.0-174.5 deg.C'
_cell_formula_units_Z            4
_exptl_crystal_recrystallization_method 'diethyl ether'
loop_
_atom_site_label
_atom_site_type_symbol
_atom_site_fract_x
_atom_site_fract_y
_atom_site_fract_z
C1 C 0.5422(6) 0.7143(3) 0.57656(12)
C2 C 0.6490(5) 0.6373(3) 0.54732(12)
O1 O 0.5799(4) 0.5270(2) 0.55158(9)
O2 O 0.6158(4) 0.6670(2) 0.50525(9)
C3 C 0.8475(5) 0.6333(3) 0.55639(12)
H1 H 0.9041 0.5784 0.5382
H2 H 0.9011 0.7049 0.5499
C4 C 0.8846(5) 0.6049(3) 0.60162(12)
H3 H 1.0148 0.6064 0.6063
H4 H 0.8431 0.5298 0.6069
C5 C 0.7950(5) 0.6819(3) 0.63332(12)
C6 C 0.8137(5) 0.6293(3) 0.67781(12)
H5 H 0.7663 0.5537 0.6748
C7 C 1.0077(5) 0.6149(3) 0.69273(12)
H6 H 1.0784 0.5795 0.6705
H7 H 1.0606 0.6871 0.6984
C8 C 1.0153(6) 0.5450(3) 0.73256(13)
H8 H 0.9828 0.4692 0.7254
H9 H 1.1391 0.5443 0.7431
C9 C 0.8918(5) 0.5851(3) 0.76744(12)
H10 H 0.9374 0.6571 0.7771
C10 C 0.8971(6) 0.5070(3) 0.80445(13)
H11 H 0.8840 0.4316 0.7940
H12 H 1.0148 0.5127 0.8181
C11 C 0.7548(6) 0.5282(3) 0.83641(13)
H13 H 0.7673 0.4977 0.8634
C12 C 0.6128(6) 0.5880(3) 0.82801(12)
O3 O 0.4778(4) 0.6033(2) 0.85661(9)
Si1 Si 0.46030(15) 0.70119(8) 0.89216(3)
C13 C 0.5738(5) 0.6392(3) 0.78679(12)
H14 H 0.5825 0.7192 0.7897
H15 H 0.4499 0.6216 0.7788
C14 C 0.7003(5) 0.6020(3) 0.75124(12)
C15 C 0.6984(5) 0.6822(3) 0.71271(12)
C16 C 0.5044(5) 0.6946(3) 0.69781(12)
H16 H 0.4486 0.6218 0.6964
H17 H 0.4375 0.7382 0.7185
C17 C 0.4894(5) 0.7494(3) 0.65509(12)
H18 H 0.3628 0.7535 0.6468
H19 H 0.5365 0.8245 0.6568
C18 C 0.5936(5) 0.6855(3) 0.62234(12)
H20 H 0.5525 0.6087 0.6260
C19 C 0.3437(6) 0.6936(4) 0.56993(14)
H21 H 0.3116 0.7117 0.5412
H22 H 0.2748 0.7390 0.5891
H23 H 0.3174 0.6167 0.5752
C20 C 0.5800(6) 0.8332(3) 0.56397(14)
H24 H 0.5442 0.8445 0.5350
H25 H 0.7074 0.8482 0.5669
H26 H 0.5124 0.8823 0.5820
C21 C 0.8882(6) 0.7942(3) 0.63067(13)
H27 H 0.8735 0.8241 0.6026
H28 H 1.0151 0.7856 0.6368
H29 H 0.8348 0.8439 0.6510
C22 C 0.7691(6) 0.7941(3) 0.72642(13)
H30 H 0.7681 0.8440 0.7026
H31 H 0.8910 0.7863 0.7368
H32 H 0.6932 0.8232 0.7486
C23 C 0.6370(6) 0.4931(3) 0.73775(12)
N1 N 0.5906(6) 0.4079(3) 0.72775(12)
C24 C 0.5114(7) 0.4933(3) 0.51226(14)
H33 H 0.3804 0.5009 0.5113
H34 H 0.5435 0.4167 0.5063
C25 C 0.5998(7) 0.5696(3) 0.48186(13)
H35 H 0.7179 0.5420 0.4732
H36 H 0.5253 0.5807 0.4568
C26 C 0.2138(5) 0.7129(3) 0.89970(13)
C27 C 0.1361(6) 0.5997(3) 0.90856(16)
H37 H 0.0072 0.6056 0.9125
H38 H 0.1906 0.5699 0.9338
H39 H 0.1609 0.5514 0.8850
C28 C 0.1307(6) 0.7583(4) 0.85923(17)
H40 H 0.0016 0.7648 0.8627
H41 H 0.1564 0.7087 0.8361
H42 H 0.1813 0.8300 0.8532
C29 C 0.1680(7) 0.7884(4) 0.93628(16)
H43 H 0.0385 0.7927 0.9394
H44 H 0.2159 0.8612 0.9309
H45 H 0.2203 0.7594 0.9619
C30 C 0.5649(7) 0.8303(3) 0.87364(14)
H46 H 0.6932 0.8194 0.8703
H47 H 0.5437 0.8880 0.8941
H48 H 0.5127 0.8512 0.8469
C31 C 0.5725(7) 0.6565(4) 0.94106(14)
H49 H 0.7009 0.6510 0.9363
H50 H 0.5261 0.5853 0.9494
H51 H 0.5495 0.7096 0.9631
loop_
_geom_bond_atom_site_label_1
_geom_bond_atom_site_label_2
_geom_bond_site_symmetry_1
_geom_bond_site_symmetry_2
C1 C2 1_555 1_555
C2 O1 1_555 1_555
O1 C24 1_555 1_555
O2 C2 1_555 1_555
C3 C2 1_555 1_555
H1 C3 1_555 1_555
H2 C3 1_555 1_555
C4 C3 1_555 1_555
H3 C4 1_555 1_555
H4 C4 1_555 1_555
C5 C4 1_555 1_555
C6 C5 1_555 1_555
H5 C6 1_555 1_555
C7 C6 1_555 1_555
H6 C7 1_555 1_555
H7 C7 1_555 1_555
C8 C7 1_555 1_555
H8 C8 1_555 1_555
H9 C8 1_555 1_555
C9 C8 1_555 1_555
H10 C9 1_555 1_555
C10 C9 1_555 1_555
H11 C10 1_555 1_555
H12 C10 1_555 1_555
C11 C10 1_555 1_555
H13 C11 1_555 1_555
C12 C11 1_555 1_555
O3 C12 1_555 1_555
Si1 O3 1_555 1_555
C13 C12 1_555 1_555
H14 C13 1_555 1_555
H15 C13 1_555 1_555
C14 C9 1_555 1_555
C15 C6 1_555 1_555
C16 C15 1_555 1_555
H16 C16 1_555 1_555
H17 C16 1_555 1_555
C17 C16 1_555 1_555
H18 C17 1_555 1_555
H19 C17 1_555 1_555
C18 C1 1_555 1_555
H20 C18 1_555 1_555
C19 C1 1_555 1_555
H21 C19 1_555 1_555
H22 C19 1_555 1_555
H23 C19 1_555 1_555
C20 C1 1_555 1_555
H24 C20 1_555 1_555
H25 C20 1_555 1_555
H26 C20 1_555 1_555
C21 C5 1_555 1_555
H27 C21 1_555 1_555
H28 C21 1_555 1_555
H29 C21 1_555 1_555
C22 C15 1_555 1_555
H30 C22 1_555 1_555
H31 C22 1_555 1_555
H32 C22 1_555 1_555
C23 C14 1_555 1_555
N1 C23 1_555 1_555
C24 H33 1_555 1_555
H34 C24 1_555 1_555
C25 O2 1_555 1_555
H35 C25 1_555 1_555
H36 C25 1_555 1_555
C26 Si1 1_555 1_555
C27 C26 1_555 1_555
H37 C27 1_555 1_555
H38 C27 1_555 1_555
H39 C27 1_555 1_555
C28 C26 1_555 1_555
H40 C28 1_555 1_555
H41 C28 1_555 1_555
H42 C28 1_555 1_555
C29 C26 1_555 1_555
H43 C29 1_555 1_555
H44 C29 1_555 1_555
H45 C29 1_555 1_555
C30 Si1 1_555 1_555
H46 C30 1_555 1_555
H47 C30 1_555 1_555
H48 C30 1_555 1_555
C31 Si1 1_555 1_555
H49 C31 1_555 1_555
H50 C31 1_555 1_555
H51 C31 1_555 1_555
C5 C18 1_555 1_555
C13 C14 1_555 1_555
C14 C15 1_555 1_555
C17 C18 1_555 1_555
C24 C25 1_555 1_555

#END
