
#######################################################################
#
#                 Cambridge Crystallographic Data Centre
#                                CCDC 
#
#######################################################################
#
# If this CIF has been generated from an entry in the Cambridge 
# Structural Database, then it will include bibliographic, chemical, 
# crystal, experimental, refinement or atomic coordinate data resulting 
# from the CCDC's data processing and validation procedures.
#
#######################################################################

data_YULLIB
_chemical_formula_moiety         'C45 H40 Si1'
_chemical_name_systematic        
Triisopropyl((13-(1-naphthylethynyl)pentacen-6-yl)ethynyl)silane
_symmetry_cell_setting           orthorhombic
_symmetry_space_group_name_H-M   'P n a 21'
_symmetry_Int_Tables_number      33
_space_group_name_Hall           'P 2c -2n'
loop_
_symmetry_equiv_pos_site_id
_symmetry_equiv_pos_as_xyz
1 x,y,z
2 -x,-y,1/2+z
3 1/2+x,1/2-y,z
4 1/2-x,1/2+y,1/2+z
_cell_length_a                   34.1011(13)
_cell_length_b                   13.6639(5)
_cell_length_c                   14.6209(6)
_cell_angle_alpha                90
_cell_angle_beta                 90
_cell_angle_gamma                90
_cell_volume                     6812.67
_exptl_crystal_colour            blue
_exptl_crystal_description       prism
_cell_formula_units_Z            8
loop_
_atom_site_label
_atom_site_type_symbol
_atom_site_fract_x
_atom_site_fract_y
_atom_site_fract_z
Si1 Si 0.537495(13) 0.56893(3) 0.20257(3)
C1 C 0.42998(5) 0.43115(12) 0.08210(11)
C2 C 0.42481(5) 0.32792(12) 0.08384(11)
C3 C 0.45522(5) 0.26403(12) 0.10923(12)
H1 H 0.4799 0.2908 0.1258
C4 C 0.45039(5) 0.16347(12) 0.11083(12)
C5 C 0.48124(5) 0.09838(13) 0.13618(13)
H2 H 0.5062 0.1241 0.1518
C6 C 0.47533(6) 0.00010(14) 0.13826(14)
H3 H 0.4962 -0.0421 0.1554
C7 C 0.43836(6) -0.04002(14) 0.11507(15)
H4 H 0.4348 -0.1090 0.1162
C8 C 0.40796(6) 0.01851(14) 0.09127(14)
H5 H 0.3833 -0.0097 0.0763
C9 C 0.41266(5) 0.12265(13) 0.08857(12)
C10 C 0.38224(5) 0.18501(13) 0.06434(12)
H6 H 0.3572 0.1579 0.0511
C11 C 0.38720(5) 0.28708(12) 0.05867(11)
C12 C 0.35636(5) 0.35011(13) 0.02970(11)
C13 C 0.36330(5) 0.45140(12) 0.01778(11)
C14 C 0.33482(5) 0.51410(13) -0.01999(12)
H7 H 0.3100 0.4878 -0.0365
C15 C 0.34179(5) 0.61298(13) -0.03385(12)
C16 C 0.31396(6) 0.67632(15) -0.07742(14)
H8 H 0.2894 0.6506 -0.0965
C17 C 0.32201(6) 0.77183(15) -0.09183(15)
H9 H 0.3033 0.8121 -0.1218
C18 C 0.35827(6) 0.81289(15) -0.06267(14)
H10 H 0.3634 0.8804 -0.0725
C19 C 0.38556(5) 0.75630(14) -0.02104(14)
H11 H 0.4095 0.7849 -0.0013
C20 C 0.37888(5) 0.65369(13) -0.00624(12)
C21 C 0.40684(5) 0.59375(13) 0.03307(12)
H12 H 0.4309 0.6216 0.0527
C22 C 0.40072(5) 0.49265(12) 0.04497(11)
C23 C 0.46505(5) 0.47265(12) 0.11883(12)
C24 C 0.49385(5) 0.50849(12) 0.15330(13)
C25 C 0.57386(6) 0.47232(16) 0.23626(16)
H13 H 0.5652 0.4474 0.2973
C26 C 0.57541(8) 0.38348(18) 0.1733(2)
H14 H 0.5951 0.3371 0.1960
H15 H 0.5825 0.4045 0.1114
H16 H 0.5497 0.3517 0.1720
C27 C 0.61504(7) 0.5134(2) 0.2503(2)
H17 H 0.6329 0.4603 0.2678
H18 H 0.6145 0.5628 0.2989
H19 H 0.6242 0.5434 0.1933
C28 C 0.55632(6) 0.65552(14) 0.11237(13)
H20 H 0.5798 0.6894 0.1382
C29 C 0.56931(7) 0.60279(18) 0.02533(15)
H21 H 0.5788 0.6509 -0.0192
H22 H 0.5470 0.5670 -0.0006
H23 H 0.5904 0.5567 0.0400
C30 C 0.52574(7) 0.73403(16) 0.09086(16)
H24 H 0.5360 0.7783 0.0439
H25 H 0.5199 0.7713 0.1465
H26 H 0.5017 0.7028 0.0684
C31 C 0.52074(5) 0.64033(13) 0.30629(12)
H27 H 0.4984 0.6825 0.2861
C32 C 0.50503(6) 0.57336(17) 0.38183(14)
H28 H 0.4967 0.6131 0.4341
H29 H 0.5257 0.5281 0.4012
H30 H 0.4826 0.5360 0.3585
C33 C 0.55248(6) 0.70920(17) 0.34413(15)
H31 H 0.5422 0.7441 0.3975
H32 H 0.5600 0.7565 0.2969
H33 H 0.5755 0.6708 0.3621
C34 C 0.31850(5) 0.31039(13) 0.01153(12)
C35 C 0.28641(5) 0.27743(13) -0.00091(13)
C36 C 0.24731(5) 0.24059(15) -0.01510(13)
C37 C 0.21672(6) 0.30606(19) -0.02949(16)
H34 H 0.2218 0.3744 -0.0303
C38 C 0.17839(7) 0.2714(2) -0.04288(19)
H35 H 0.1576 0.3167 -0.0519
C39 C 0.17075(7) 0.1741(2) -0.04301(17)
H36 H 0.1446 0.1523 -0.0527
C40 C 0.20047(6) 0.10458(19) -0.02924(15)
C41 C 0.19340(9) 0.0027(2) -0.02932(18)
H37 H 0.1675 -0.0207 -0.0390
C42 C 0.22265(10) -0.0615(2) -0.0159(2)
H38 H 0.2172 -0.1297 -0.0181
C43 C 0.26111(9) -0.02986(19) 0.0013(2)
H39 H 0.2813 -0.0761 0.0129
C44 C 0.26920(7) 0.06854(16) 0.00102(17)
H40 H 0.2953 0.0899 0.0115
C45 C 0.23977(6) 0.13828(16) -0.01440(13)
Si2 Si 0.164769(13) 0.55233(3) 0.14699(4)
C46 C 0.27572(5) 0.39726(12) 0.22041(12)
C47 C 0.27916(5) 0.29477(12) 0.23283(11)
C48 C 0.24706(5) 0.23178(12) 0.21923(12)
H41 H 0.2225 0.2589 0.2022
C49 C 0.25025(5) 0.13124(13) 0.23003(12)
C50 C 0.21757(5) 0.06700(13) 0.21711(14)
H42 H 0.1930 0.0931 0.1983
C51 C 0.22114(6) -0.03022(14) 0.23135(17)
H43 H 0.1990 -0.0716 0.2233
C52 C 0.25788(6) -0.07154(15) 0.25840(17)
H44 H 0.2599 -0.1400 0.2688
C53 C 0.28968(6) -0.01377(14) 0.26927(16)
H45 H 0.3140 -0.0425 0.2864
C54 C 0.28755(5) 0.08939(13) 0.25550(13)
C55 C 0.31940(5) 0.15079(13) 0.26764(13)
H46 H 0.3440 0.1230 0.2833
C56 C 0.31657(5) 0.25303(12) 0.25752(11)
C57 C 0.34945(5) 0.31535(12) 0.27097(11)
C58 C 0.34612(5) 0.41765(12) 0.25768(11)
C59 C 0.37822(5) 0.48094(13) 0.27001(12)
H47 H 0.4025 0.4546 0.2899
C60 C 0.37538(5) 0.58057(13) 0.25403(12)
C61 C 0.40827(5) 0.64464(14) 0.26484(14)
H48 H 0.4327 0.6190 0.2847
C62 C 0.40481(6) 0.74193(14) 0.24687(15)
H49 H 0.4269 0.7836 0.2546
C63 C 0.36867(6) 0.78201(14) 0.21674(15)
H50 H 0.3668 0.8501 0.2045
C64 C 0.33676(6) 0.72423(13) 0.20530(15)
H51 H 0.3128 0.7523 0.1849
C65 C 0.33871(5) 0.62116(13) 0.22358(13)
C66 C 0.30648(5) 0.56040(12) 0.21360(13)
H52 H 0.2822 0.5878 0.1947
C67 C 0.30879(5) 0.45917(12) 0.23068(12)
C68 C 0.23866(5) 0.43989(12) 0.19750(13)
C69 C 0.20821(5) 0.47962(13) 0.17845(15)
C70 C 0.12264(6) 0.46809(16) 0.1205(2)
H53 H 0.1258 0.4505 0.0545
C71 C 0.12206(8) 0.37440(19) 0.1696(3)
H54 H 0.0991 0.3365 0.1507
H55 H 0.1208 0.3867 0.2356
H56 H 0.1459 0.3375 0.1554
C72 C 0.08284(6) 0.52012(19) 0.1267(2)
H57 H 0.0618 0.4736 0.1123
H58 H 0.0821 0.5744 0.0830
H59 H 0.0791 0.5455 0.1888
C73 C 0.15517(6) 0.64015(15) 0.24300(14)
H60 H 0.1332 0.6838 0.2235
C74 C 0.14223(9) 0.5880(2) 0.33117(17)
H61 H 0.1376 0.6366 0.3792
H62 H 0.1628 0.5427 0.3509
H63 H 0.1180 0.5514 0.3196
C75 C 0.19100(9) 0.70536(18) 0.26107(19)
H64 H 0.1852 0.7504 0.3114
H65 H 0.1972 0.7429 0.2058
H66 H 0.2135 0.6643 0.2775
C76 C 0.17631(7) 0.61879(19) 0.03640(16)
H67 H 0.1680 0.5724 -0.0128
C77 C 0.21815(8) 0.6382(3) 0.0173(2)
H68 H 0.2206 0.6726 -0.0412
H69 H 0.2324 0.5760 0.0142
H70 H 0.2292 0.6788 0.0663
C78 C 0.15061(7) 0.70934(18) 0.02199(16)
H71 H 0.1577 0.7409 -0.0359
H72 H 0.1547 0.7554 0.0725
H73 H 0.1230 0.6897 0.0201
C79 C 0.38626(5) 0.27424(12) 0.29644(11)
C80 C 0.41746(5) 0.24019(13) 0.31714(12)
C81 C 0.45507(5) 0.20013(13) 0.33923(12)
C82 C 0.48797(5) 0.25889(14) 0.33493(13)
H74 H 0.4853 0.3259 0.3189
C83 C 0.52540(5) 0.22065(15) 0.35403(14)
H75 H 0.5477 0.2622 0.3519
C84 C 0.52978(5) 0.12442(15) 0.37549(15)
H76 H 0.5553 0.0994 0.3871
C85 C 0.49710(5) 0.06089(14) 0.38084(13)
C86 C 0.50094(6) -0.03973(15) 0.40242(15)
H77 H 0.5262 -0.0658 0.4149
C87 C 0.46924(7) -0.09955(16) 0.40564(16)
H78 H 0.4725 -0.1671 0.4192
C88 C 0.43136(6) -0.06149(15) 0.38876(15)
H79 H 0.4092 -0.1035 0.3917
C89 C 0.42647(5) 0.03484(14) 0.36830(14)
H80 H 0.4008 0.0594 0.3573
C90 C 0.45895(5) 0.09910(13) 0.36306(12)
loop_
_geom_bond_atom_site_label_1
_geom_bond_atom_site_label_2
_geom_bond_site_symmetry_1
_geom_bond_site_symmetry_2
Si1 C24 1_555 1_555
C1 C2 1_555 1_555
C2 C3 1_555 1_555
C3 H1 1_555 1_555
C4 C3 1_555 1_555
C5 C4 1_555 1_555
H2 C5 1_555 1_555
C6 C5 1_555 1_555
H3 C6 1_555 1_555
C7 C6 1_555 1_555
H4 C7 1_555 1_555
C8 C7 1_555 1_555
H5 C8 1_555 1_555
C9 C4 1_555 1_555
C10 C9 1_555 1_555
H6 C10 1_555 1_555
C11 C2 1_555 1_555
C12 C11 1_555 1_555
C13 C12 1_555 1_555
C14 C13 1_555 1_555
H7 C14 1_555 1_555
C15 C14 1_555 1_555
C16 C15 1_555 1_555
H8 C16 1_555 1_555
C17 C16 1_555 1_555
H9 C17 1_555 1_555
C18 C17 1_555 1_555
H10 C18 1_555 1_555
C19 C18 1_555 1_555
H11 C19 1_555 1_555
C20 C15 1_555 1_555
C21 C20 1_555 1_555
H12 C21 1_555 1_555
C22 C1 1_555 1_555
C23 C1 1_555 1_555
C24 C23 1_555 1_555
C25 Si1 1_555 1_555
H13 C25 1_555 1_555
C26 C25 1_555 1_555
H14 C26 1_555 1_555
H15 C26 1_555 1_555
H16 C26 1_555 1_555
C27 C25 1_555 1_555
H17 C27 1_555 1_555
H18 C27 1_555 1_555
H19 C27 1_555 1_555
C28 Si1 1_555 1_555
H20 C28 1_555 1_555
C29 C28 1_555 1_555
H21 C29 1_555 1_555
H22 C29 1_555 1_555
H23 C29 1_555 1_555
C30 C28 1_555 1_555
H24 C30 1_555 1_555
H25 C30 1_555 1_555
H26 C30 1_555 1_555
C31 Si1 1_555 1_555
H27 C31 1_555 1_555
C32 C31 1_555 1_555
H28 C32 1_555 1_555
H29 C32 1_555 1_555
H30 C32 1_555 1_555
C33 C31 1_555 1_555
H31 C33 1_555 1_555
H32 C33 1_555 1_555
H33 C33 1_555 1_555
C34 C12 1_555 1_555
C35 C34 1_555 1_555
C36 C35 1_555 1_555
C37 C36 1_555 1_555
H34 C37 1_555 1_555
C38 C37 1_555 1_555
H35 C38 1_555 1_555
C39 C38 1_555 1_555
H36 C39 1_555 1_555
C40 C39 1_555 1_555
C41 C40 1_555 1_555
H37 C41 1_555 1_555
C42 C41 1_555 1_555
H38 C42 1_555 1_555
C43 C42 1_555 1_555
H39 C43 1_555 1_555
C44 C43 1_555 1_555
H40 C44 1_555 1_555
C45 C36 1_555 1_555
Si2 C69 1_555 1_555
C46 C47 1_555 1_555
C47 C48 1_555 1_555
C48 H41 1_555 1_555
C49 C48 1_555 1_555
C50 C49 1_555 1_555
H42 C50 1_555 1_555
C51 C50 1_555 1_555
H43 C51 1_555 1_555
C52 C51 1_555 1_555
H44 C52 1_555 1_555
C53 C52 1_555 1_555
H45 C53 1_555 1_555
C54 C49 1_555 1_555
C55 C54 1_555 1_555
H46 C55 1_555 1_555
C56 C47 1_555 1_555
C57 C56 1_555 1_555
C58 C57 1_555 1_555
C59 C58 1_555 1_555
H47 C59 1_555 1_555
C60 C59 1_555 1_555
C61 C60 1_555 1_555
H48 C61 1_555 1_555
C62 C61 1_555 1_555
H49 C62 1_555 1_555
C63 C62 1_555 1_555
H50 C63 1_555 1_555
C64 C63 1_555 1_555
H51 C64 1_555 1_555
C65 C60 1_555 1_555
C66 C65 1_555 1_555
H52 C66 1_555 1_555
C67 C46 1_555 1_555
C68 C46 1_555 1_555
C69 C68 1_555 1_555
C70 Si2 1_555 1_555
H53 C70 1_555 1_555
C71 C70 1_555 1_555
H54 C71 1_555 1_555
H55 C71 1_555 1_555
H56 C71 1_555 1_555
C72 C70 1_555 1_555
H57 C72 1_555 1_555
H58 C72 1_555 1_555
H59 C72 1_555 1_555
C73 Si2 1_555 1_555
H60 C73 1_555 1_555
C74 C73 1_555 1_555
H61 C74 1_555 1_555
H62 C74 1_555 1_555
H63 C74 1_555 1_555
C75 C73 1_555 1_555
H64 C75 1_555 1_555
H65 C75 1_555 1_555
H66 C75 1_555 1_555
C76 Si2 1_555 1_555
H67 C76 1_555 1_555
C77 C76 1_555 1_555
H68 C77 1_555 1_555
H69 C77 1_555 1_555
H70 C77 1_555 1_555
C78 C76 1_555 1_555
H71 C78 1_555 1_555
H72 C78 1_555 1_555
H73 C78 1_555 1_555
C79 C57 1_555 1_555
C80 C79 1_555 1_555
C81 C80 1_555 1_555
C82 C81 1_555 1_555
H74 C82 1_555 1_555
C83 C82 1_555 1_555
H75 C83 1_555 1_555
C84 C83 1_555 1_555
H76 C84 1_555 1_555
C85 C84 1_555 1_555
C86 C85 1_555 1_555
H77 C86 1_555 1_555
C87 C86 1_555 1_555
H78 C87 1_555 1_555
C88 C87 1_555 1_555
H79 C88 1_555 1_555
C89 C88 1_555 1_555
H80 C89 1_555 1_555
C90 C81 1_555 1_555
C8 C9 1_555 1_555
C10 C11 1_555 1_555
C13 C22 1_555 1_555
C19 C20 1_555 1_555
C21 C22 1_555 1_555
C40 C45 1_555 1_555
C44 C45 1_555 1_555
C53 C54 1_555 1_555
C55 C56 1_555 1_555
C58 C67 1_555 1_555
C64 C65 1_555 1_555
C66 C67 1_555 1_555
C85 C90 1_555 1_555
C89 C90 1_555 1_555

#END
