
#######################################################################
#
#                 Cambridge Crystallographic Data Centre
#                                CCDC 
#
#######################################################################
#
# If this CIF has been generated from an entry in the Cambridge 
# Structural Database, then it will include bibliographic, chemical, 
# crystal, experimental, refinement or atomic coordinate data resulting 
# from the CCDC's data processing and validation procedures.
#
#######################################################################

data_YULNID
_chemical_name_common            'swerilactone D monohydrate'
_chemical_formula_moiety         'C20 H20 O8,H2 O1'
_chemical_name_systematic        
"15-Hydroxy-8-methyl-1,13-dioxo-4,6,10,11,13b,15-hexahydro-1H,3H,6aH,8H-pyrano[3,4-c]pyrano[3',4':3,4]pyrano[2,3-h]chromene-9-carbaldehyde monohydrate"
_symmetry_cell_setting           triclinic
_symmetry_space_group_name_H-M   'P -1'
_symmetry_Int_Tables_number      2
_space_group_name_Hall           '-P 1'
loop_
_symmetry_equiv_pos_site_id
_symmetry_equiv_pos_as_xyz
1 x,y,z
2 -x,-y,-z
_cell_length_a                   8.6844(14)
_cell_length_b                   14.094(2)
_cell_length_c                   17.000(3)
_cell_angle_alpha                73.293(2)
_cell_angle_beta                 87.688(2)
_cell_angle_gamma                72.958(2)
_cell_volume                     1903.23
_exptl_crystal_colour            colorless
_exptl_crystal_description       block
_cell_formula_units_Z            4
loop_
_atom_site_label
_atom_site_type_symbol
_atom_site_fract_x
_atom_site_fract_y
_atom_site_fract_z
O1 O 0.2152(4) 0.8979(3) 0.1418(2)
O2 O 0.0429(4) 0.9332(3) 0.2323(2)
O3 O 0.4079(6) 0.8626(4) 0.5525(2)
O4 O 0.5830(4) 0.8044(2) 0.3310(2)
O5 O 0.2964(3) 1.08272(19) 0.16800(16)
O6 O 0.3675(3) 1.2173(2) 0.19473(19)
H1 H 0.4614 1.2000 0.2120
O7 O 0.4767(4) 1.3123(2) 0.0155(2)
O8 O 0.7099(4) 1.2026(2) 0.0064(2)
C1 C 0.1924(6) 0.9148(3) 0.2081(3)
C2 C 0.0009(6) 0.9538(4) 0.3099(3)
H7 H 0.0081 0.8892 0.3519
H8 H -0.1096 0.9978 0.3056
C3 C 0.1102(5) 1.0059(3) 0.3346(3)
H9 H 0.1010 1.0719 0.2939
H10 H 0.0805 1.0188 0.3870
C4 C 0.2788(5) 0.9369(3) 0.3411(3)
C5 C 0.3773(6) 0.8918(3) 0.4096(3)
C6 C 0.5419(6) 0.8198(4) 0.4104(3)
H11 H 0.5484 0.7526 0.4502
C7 C 0.4551(6) 0.8028(3) 0.2822(3)
H12 H 0.4039 0.7508 0.3132
C8 C 0.5377(6) 0.7713(3) 0.2092(3)
H13 H 0.6288 0.7098 0.2288
H14 H 0.4628 0.7544 0.1786
C9 C 0.5954(6) 0.8569(3) 0.1533(3)
H15 H 0.6739 0.8402 0.1166
C10 C 0.5398(5) 0.9554(3) 0.1538(2)
C11 C 0.4188(5) 0.9910(3) 0.2121(2)
H16 H 0.4745 1.0097 0.2517
C12 C 0.3331(5) 0.9114(3) 0.2616(2)
C13 C 0.3570(5) 1.1683(3) 0.1346(3)
H17 H 0.2777 1.2186 0.0920
C14 C 0.5143(4) 1.1388(3) 0.0928(2)
C15 C 0.5632(5) 1.2240(3) 0.0369(3)
C16 C 0.8231(5) 1.1020(4) 0.0433(3)
H18 H 0.8629 1.1002 0.0964
H19 H 0.9144 1.0911 0.0087
C17 C 0.7480(5) 1.0174(3) 0.0542(3)
H20 H 0.8228 0.9520 0.0845
H21 H 0.7228 1.0120 0.0009
C18 C 0.5966(5) 1.0394(3) 0.1001(3)
C19 C 0.3256(7) 0.9093(4) 0.4889(3)
H22 H 0.2270 0.9575 0.4907
C20 C 0.6690(7) 0.8566(6) 0.4303(4)
H23 H 0.7682 0.8012 0.4415
H24 H 0.6427 0.8808 0.4779
H25 H 0.6810 0.9125 0.3847
O9 O 0.6773(4) 0.4398(3) 0.6364(2)
O10 O 0.4979(4) 0.4729(3) 0.7237(2)
O11 O 0.8101(5) 0.3873(3) 1.0558(2)
O12 O 1.0271(4) 0.3319(2) 0.8387(2)
O13 O 0.7709(3) 0.61918(19) 0.67803(16)
O14 O 0.8960(3) 0.7237(2) 0.71924(19)
H2 H 0.8190 0.7379 0.7477
O15 O 0.9713(4) 0.8422(3) 0.5343(2)
O16 O 1.1767(4) 0.7269(3) 0.5044(2)
C21 C 0.6510(6) 0.4540(3) 0.7026(3)
C22 C 0.4445(6) 0.4967(4) 0.8003(3)
H26 H 0.4418 0.4336 0.8419
H27 H 0.3361 0.5442 0.7915
C23 C 0.5542(5) 0.5439(3) 0.8298(3)
H28 H 0.5203 0.5561 0.8820
H29 H 0.5513 0.6098 0.7904
C24 C 0.7207(5) 0.4716(3) 0.8397(3)
C25 C 0.8097(5) 0.4232(3) 0.9106(3)
C26 C 0.7468(6) 0.4364(4) 0.9894(3)
H30 H 0.6493 0.4873 0.9876
C27 C 0.9760(5) 0.3481(3) 0.9160(3)
H31 H 0.9768 0.2815 0.9549
C28 C 1.1041(6) 0.3855(4) 0.9440(4)
H32 H 1.2087 0.3421 0.9369
H33 H 1.0927 0.3825 1.0010
H34 H 1.0925 0.4557 0.9120
C29 C 0.9050(5) 0.3344(3) 0.7856(3)
H35 H 0.8481 0.2841 0.8132
C30 C 0.9909(6) 0.3052(3) 0.7118(3)
H36 H 1.0802 0.2427 0.7316
H37 H 0.9164 0.2899 0.6797
C31 C 1.0529(5) 0.3877(3) 0.6578(3)
H38 H 1.1314 0.3698 0.6215
C32 C 1.0019(5) 0.4866(3) 0.6587(3)
C33 C 0.8837(4) 0.5209(3) 0.7187(2)
H39 H 0.9436 0.5309 0.7618
C34 C 0.7859(5) 0.4466(3) 0.7610(2)
C35 C 0.8462(5) 0.6993(3) 0.6518(3)
H40 H 0.7694 0.7613 0.6163
C36 C 0.9940(5) 0.6668(3) 0.6044(2)
C37 C 1.0452(6) 0.7519(4) 0.5465(3)
C38 C 1.2879(6) 0.6238(4) 0.5345(3)
H41 H 1.3454 0.6189 0.5840
H42 H 1.3665 0.6118 0.4936
C39 C 1.2042(5) 0.5430(3) 0.5530(3)
H43 H 1.2794 0.4766 0.5812
H44 H 1.1665 0.5377 0.5020
C40 C 1.0629(5) 0.5676(3) 0.6059(2)
O17 O 0.1619(5) 0.7412(4) 0.7847(3)
H3 H 0.2049 0.7909 0.7582
H4 H 0.1377 0.7467 0.8349
O18 O 0.6427(4) 0.1472(3) 0.2839(2)
H5 H 0.5636 0.1406 0.2561
H6 H 0.6381 0.1168 0.3373
loop_
_geom_bond_atom_site_label_1
_geom_bond_atom_site_label_2
_geom_bond_site_symmetry_1
_geom_bond_site_symmetry_2
O1 C1 1_555 1_555
O2 C1 1_555 1_555
O3 C19 1_555 1_555
O4 C6 1_555 1_555
O5 C11 1_555 1_555
O6 H1 1_555 1_555
O7 C15 1_555 1_555
O8 C15 1_555 1_555
O9 C21 1_555 1_555
O10 C21 1_555 1_555
O11 C26 1_555 1_555
O12 C27 1_555 1_555
O13 C33 1_555 1_555
O14 H2 1_555 1_555
O15 C37 1_555 1_555
O16 C37 1_555 1_555
O17 H3 1_555 1_555
H4 O17 1_555 1_555
O18 H5 1_555 1_555
H6 O18 1_555 1_555
C1 C12 1_555 1_555
C2 O2 1_555 1_555
H7 C2 1_555 1_555
H8 C2 1_555 1_555
C3 C2 1_555 1_555
H9 C3 1_555 1_555
H10 C3 1_555 1_555
C4 C3 1_555 1_555
C5 C4 1_555 1_555
C6 C5 1_555 1_555
H11 C6 1_555 1_555
C7 O4 1_555 1_555
H12 C7 1_555 1_555
C8 C7 1_555 1_555
H13 C8 1_555 1_555
H14 C8 1_555 1_555
C9 C8 1_555 1_555
H15 C9 1_555 1_555
C10 C9 1_555 1_555
C11 C10 1_555 1_555
H16 C11 1_555 1_555
C12 C4 1_555 1_555
C13 O5 1_555 1_555
H17 C13 1_555 1_555
C14 C13 1_555 1_555
C15 C14 1_555 1_555
C16 O8 1_555 1_555
H18 C16 1_555 1_555
H19 C16 1_555 1_555
C17 C16 1_555 1_555
H20 C17 1_555 1_555
H21 C17 1_555 1_555
C18 C10 1_555 1_555
C19 C5 1_555 1_555
H22 C19 1_555 1_555
C20 C6 1_555 1_555
H23 C20 1_555 1_555
H24 C20 1_555 1_555
H25 C20 1_555 1_555
C21 C34 1_555 1_555
C22 O10 1_555 1_555
H26 C22 1_555 1_555
H27 C22 1_555 1_555
C23 C22 1_555 1_555
H28 C23 1_555 1_555
H29 C23 1_555 1_555
C24 C23 1_555 1_555
C25 C24 1_555 1_555
C26 C25 1_555 1_555
H30 C26 1_555 1_555
C27 C25 1_555 1_555
H31 C27 1_555 1_555
C28 C27 1_555 1_555
H32 C28 1_555 1_555
H33 C28 1_555 1_555
H34 C28 1_555 1_555
C29 O12 1_555 1_555
H35 C29 1_555 1_555
C30 C29 1_555 1_555
H36 C30 1_555 1_555
H37 C30 1_555 1_555
C31 C30 1_555 1_555
H38 C31 1_555 1_555
C32 C31 1_555 1_555
C33 C32 1_555 1_555
H39 C33 1_555 1_555
C34 C24 1_555 1_555
C35 O13 1_555 1_555
H40 C35 1_555 1_555
C36 C35 1_555 1_555
C37 C36 1_555 1_555
C38 O16 1_555 1_555
H41 C38 1_555 1_555
H42 C38 1_555 1_555
C39 C38 1_555 1_555
H43 C39 1_555 1_555
H44 C39 1_555 1_555
C40 C32 1_555 1_555
O6 C13 1_555 1_555
O14 C35 1_555 1_555
C7 C12 1_555 1_555
C11 C12 1_555 1_555
C14 C18 1_555 1_555
C17 C18 1_555 1_555
C29 C34 1_555 1_555
C33 C34 1_555 1_555
C36 C40 1_555 1_555
C39 C40 1_555 1_555

#END
