
#######################################################################
#
#                 Cambridge Crystallographic Data Centre
#                                CCDC 
#
#######################################################################
#
# If this CIF has been generated from an entry in the Cambridge 
# Structural Database, then it will include bibliographic, chemical, 
# crystal, experimental, refinement or atomic coordinate data resulting 
# from the CCDC's data processing and validation procedures.
#
#######################################################################

data_YULNAV
_chemical_compound_source        'Melodinus henryi'
_chemical_name_common            'melohenine B'
_chemical_formula_moiety         'C19 H24 N2 O3'
_chemical_name_systematic        
15-Ethyl-17-hydroxy-1,11-diazatetracyclo[9.6.2.0^2,7^.0^15,19^]nonadeca-2,4,6-triene-8,18-dione
_chemical_properties_biological  'no cytotoxic activity'
_symmetry_cell_setting           orthorhombic
_symmetry_space_group_name_H-M   'P 21 21 21'
_symmetry_Int_Tables_number      19
_space_group_name_Hall           'P 2ac 2ab'
loop_
_symmetry_equiv_pos_site_id
_symmetry_equiv_pos_as_xyz
1 x,y,z
2 1/2-x,-y,1/2+z
3 -x,1/2+y,1/2-z
4 1/2+x,1/2-y,-z
_cell_length_a                   7.9717(12)
_cell_length_b                   12.2181(18)
_cell_length_c                   17.265(3)
_cell_angle_alpha                90
_cell_angle_beta                 90
_cell_angle_gamma                90
_cell_volume                     1681.59
_exptl_crystal_colour            colorless
_exptl_crystal_description       block
_cell_formula_units_Z            4
loop_
_atom_site_label
_atom_site_type_symbol
_atom_site_fract_x
_atom_site_fract_y
_atom_site_fract_z
N1 N 0.8864(3) 0.89600(15) 0.22995(12)
N2 N 0.5378(3) 0.80901(18) 0.19856(13)
O1 O 0.8045(3) 1.07611(16) 0.26257(13)
H1 H 0.8873 1.1127 0.2738
O2 O 0.9155(2) 0.71480(14) 0.20430(12)
O3 O 0.8231(3) 0.65189(17) 0.38059(14)
C1 C 0.8407(3) 0.80143(19) 0.19413(15)
C2 C 0.3841(3) 0.7938(2) 0.15297(18)
H2 H 0.2879 0.7906 0.1873
H3 H 0.3902 0.7252 0.1247
C3 C 0.5469(4) 0.7371(2) 0.26623(17)
H4 H 0.6049 0.6703 0.2520
H5 H 0.4340 0.7175 0.2820
C4 C 0.6391(3) 0.7910(2) 0.33581(17)
H6 H 0.6516 0.8685 0.3248
H7 H 0.5677 0.7846 0.3811
C5 C 0.8108(4) 0.7455(2) 0.35635(16)
C6 C 0.9636(3) 0.8170(2) 0.35461(17)
C7 C 1.0762(4) 0.8104(3) 0.41608(19)
H8 H 1.0567 0.7604 0.4557
C8 C 1.2163(4) 0.8768(3) 0.4193(2)
H9 H 1.2880 0.8737 0.4617
C9 C 1.2490(4) 0.9477(3) 0.3590(2)
H10 H 1.3440 0.9918 0.3609
C10 C 1.1432(4) 0.9542(2) 0.29622(19)
H11 H 1.1673 1.0016 0.2556
C11 C 1.0000(3) 0.88929(19) 0.29403(16)
C12 C 0.3634(4) 0.8881(3) 0.09638(19)
H12 H 0.3419 0.9549 0.1251
H13 H 0.2669 0.8742 0.0636
C13 C 0.5179(4) 0.9042(2) 0.04565(18)
H14 H 0.5071 0.9728 0.0178
H15 H 0.5228 0.8457 0.0078
C14 C 0.8428(3) 1.00734(18) 0.19982(17)
H16 H 0.9400 1.0372 0.1722
C15 C 0.6941(3) 1.00576(19) 0.14551(17)
H17 H 0.6981 1.0710 0.1136
H18 H 0.5923 1.0095 0.1762
C16 C 0.8473(6) 0.9889(3) -0.0222(2)
H19 H 0.7449 0.9940 -0.0512
H20 H 0.9387 0.9736 -0.0567
H21 H 0.8677 1.0570 0.0040
C17 C 0.8325(4) 0.8972(3) 0.03719(17)
H22 H 0.9344 0.8958 0.0679
H23 H 0.8254 0.8281 0.0097
C18 C 0.6827(3) 0.9056(2) 0.09214(15)
C19 C 0.6836(3) 0.8052(2) 0.14588(15)
H24 H 0.6770 0.7386 0.1144
loop_
_geom_bond_atom_site_label_1
_geom_bond_atom_site_label_2
_geom_bond_site_symmetry_1
_geom_bond_site_symmetry_2
N1 C1 1_555 1_555
N2 C2 1_555 1_555
O1 H1 1_555 1_555
O2 C1 1_555 1_555
O3 C5 1_555 1_555
C1 C19 1_555 1_555
C2 H2 1_555 1_555
H3 C2 1_555 1_555
C3 N2 1_555 1_555
H4 C3 1_555 1_555
H5 C3 1_555 1_555
C4 C3 1_555 1_555
H6 C4 1_555 1_555
H7 C4 1_555 1_555
C5 C4 1_555 1_555
C6 C5 1_555 1_555
C7 C6 1_555 1_555
H8 C7 1_555 1_555
C8 C7 1_555 1_555
H9 C8 1_555 1_555
C9 C8 1_555 1_555
H10 C9 1_555 1_555
C10 C9 1_555 1_555
H11 C10 1_555 1_555
C11 N1 1_555 1_555
C12 C2 1_555 1_555
H12 C12 1_555 1_555
H13 C12 1_555 1_555
C13 C12 1_555 1_555
H14 C13 1_555 1_555
H15 C13 1_555 1_555
C14 N1 1_555 1_555
H16 C14 1_555 1_555
C15 C14 1_555 1_555
H17 C15 1_555 1_555
H18 C15 1_555 1_555
C16 H19 1_555 1_555
H20 C16 1_555 1_555
H21 C16 1_555 1_555
C17 C16 1_555 1_555
H22 C17 1_555 1_555
H23 C17 1_555 1_555
C18 C13 1_555 1_555
C19 N2 1_555 1_555
H24 C19 1_555 1_555
O1 C14 1_555 1_555
C6 C11 1_555 1_555
C10 C11 1_555 1_555
C15 C18 1_555 1_555
C17 C18 1_555 1_555
C18 C19 1_555 1_555

#END
