
#######################################################################
#
#                 Cambridge Crystallographic Data Centre
#                                CCDC 
#
#######################################################################
#
# If this CIF has been generated from an entry in the Cambridge 
# Structural Database, then it will include bibliographic, chemical, 
# crystal, experimental, refinement or atomic coordinate data resulting 
# from the CCDC's data processing and validation procedures.
#
#######################################################################

data_YULSII
_chemical_compound_source        'roots of Jatropha curcus'
_chemical_name_common            Jatrophalactam
_chemical_formula_moiety         'C20 H29 N1 O3'
_chemical_name_systematic        
10-Hydroxy-3,6,6,10,16-pentamethyl-14-azatricyclo[11.2.1.0^5,7^]hexadeca-1(16),11-diene-2,15-dione
_symmetry_cell_setting           monoclinic
_symmetry_space_group_name_H-M   'P 21'
_symmetry_Int_Tables_number      4
_space_group_name_Hall           'P 2yb'
loop_
_symmetry_equiv_pos_site_id
_symmetry_equiv_pos_as_xyz
1 x,y,z
2 -x,1/2+y,-z
_cell_length_a                   6.872(4)
_cell_length_b                   9.187(5)
_cell_length_c                   15.595(9)
_cell_angle_alpha                90
_cell_angle_beta                 97.384(9)
_cell_angle_gamma                90
_cell_volume                     976.395
_exptl_crystal_colour            colorless
_exptl_crystal_description       block
_chemical_melting_point          '185-186 deg.C'
_cell_formula_units_Z            2
loop_
_atom_site_label
_atom_site_type_symbol
_atom_site_fract_x
_atom_site_fract_y
_atom_site_fract_z
N1 N 0.6771(6) 0.3385(5) 0.0059(3)
O1 O 0.3709(5) 0.2560(4) 0.0241(2)
O2 O 0.8519(8) 0.8094(4) 0.1425(3)
H1 H 0.8148 0.7946 0.0912
O3 O 0.4545(5) -0.0058(4) 0.1528(2)
C1 C 0.5502(8) 0.2573(5) 0.0414(3)
C2 C 0.8599(6) 0.2003(5) 0.1073(3)
C3 C 0.8796(7) 0.3193(6) 0.0422(3)
H2 H 0.9610 0.2884 -0.0017
C4 C 0.9652(7) 0.4505(5) 0.0918(3)
H3 H 1.1011 0.4597 0.1001
C5 C 0.8630(8) 0.5520(6) 0.1237(3)
H4 H 0.7282 0.5455 0.1075
C6 C 0.9266(8) 0.6776(6) 0.1823(3)
C7 C 0.8347(9) 0.6581(6) 0.2662(3)
H5 H 0.6954 0.6400 0.2512
H6 H 0.8486 0.7487 0.2983
C8 C 0.9219(9) 0.5349(6) 0.3258(3)
H7 H 0.9537 0.4535 0.2905
H8 H 1.0430 0.5687 0.3585
C9 C 0.7875(10) 0.4834(6) 0.3872(3)
H9 H 0.7385 0.5607 0.4221
C10 C 0.8216(11) 0.3416(7) 0.4330(3)
C11 C 0.6452(9) 0.3609(6) 0.3648(3)
H10 H 0.5216 0.3730 0.3891
C12 C 0.6188(9) 0.2960(6) 0.2757(3)
H11 H 0.7188 0.3368 0.2442
H12 H 0.4927 0.3279 0.2467
C13 C 0.6279(8) 0.1274(5) 0.2679(3)
H13 H 0.7649 0.0994 0.2851
C14 C 0.5779(7) 0.0844(5) 0.1740(3)
C15 C 0.6711(7) 0.1702(5) 0.1106(3)
C16 C 1.0391(8) 0.1419(6) 0.1602(4)
H14 H 1.0653 0.1970 0.2127
H15 H 1.1488 0.1496 0.1280
H16 H 1.0187 0.0416 0.1738
C17 C 1.1497(9) 0.6960(7) 0.2006(4)
H17 H 1.2017 0.7150 0.1474
H18 H 1.2071 0.6085 0.2263
H19 H 1.1800 0.7761 0.2396
C18 C 0.7667(15) 0.3342(10) 0.5258(4)
H20 H 0.7328 0.2359 0.5387
H21 H 0.6568 0.3969 0.5304
H22 H 0.8765 0.3652 0.5660
C19 C 0.9926(11) 0.2508(9) 0.4180(4)
H23 H 1.0190 0.2632 0.3595
H24 H 0.9642 0.1503 0.4278
H25 H 1.1053 0.2802 0.4570
C20 C 0.5087(11) 0.0482(8) 0.3271(4)
H26 H 0.3723 0.0706 0.3115
H27 H 0.5490 0.0782 0.3857
H28 H 0.5284 -0.0547 0.3220
H29 H 0.633(7) 0.405(6) -0.037(3)
loop_
_geom_bond_atom_site_label_1
_geom_bond_atom_site_label_2
_geom_bond_site_symmetry_1
_geom_bond_site_symmetry_2
N1 C1 1_555 1_555
O1 C1 1_555 1_555
O2 H1 1_555 1_555
O3 C14 1_555 1_555
C1 C15 1_555 1_555
C2 C3 1_555 1_555
C3 N1 1_555 1_555
H2 C3 1_555 1_555
C4 C3 1_555 1_555
H3 C4 1_555 1_555
C5 C4 1_555 1_555
H4 C5 1_555 1_555
C6 O2 1_555 1_555
C7 C6 1_555 1_555
H5 C7 1_555 1_555
H6 C7 1_555 1_555
C8 C7 1_555 1_555
H7 C8 1_555 1_555
H8 C8 1_555 1_555
C9 C8 1_555 1_555
H9 C9 1_555 1_555
C10 C9 1_555 1_555
C11 C9 1_555 1_555
H10 C11 1_555 1_555
C12 C11 1_555 1_555
H11 C12 1_555 1_555
H12 C12 1_555 1_555
C13 C12 1_555 1_555
H13 C13 1_555 1_555
C14 C13 1_555 1_555
C15 C2 1_555 1_555
C16 C2 1_555 1_555
H14 C16 1_555 1_555
H15 C16 1_555 1_555
H16 C16 1_555 1_555
C17 C6 1_555 1_555
H17 C17 1_555 1_555
H18 C17 1_555 1_555
H19 C17 1_555 1_555
C18 C10 1_555 1_555
H20 C18 1_555 1_555
H21 C18 1_555 1_555
H22 C18 1_555 1_555
C19 C10 1_555 1_555
H23 C19 1_555 1_555
H24 C19 1_555 1_555
H25 C19 1_555 1_555
C20 C13 1_555 1_555
H26 C20 1_555 1_555
H27 C20 1_555 1_555
H28 C20 1_555 1_555
H29 N1 1_555 1_555
C5 C6 1_555 1_555
C10 C11 1_555 1_555
C14 C15 1_555 1_555

#END
