
#######################################################################
#
#                 Cambridge Crystallographic Data Centre
#                                CCDC 
#
#######################################################################
#
# If this CIF has been generated from an entry in the Cambridge 
# Structural Database, then it will include bibliographic, chemical, 
# crystal, experimental, refinement or atomic coordinate data resulting 
# from the CCDC's data processing and validation procedures.
#
#######################################################################

data_YULSON
_chemical_compound_source        
'Soil fungus Stachybotris bisbyi (Srinivasan) Barron'
_chemical_formula_moiety         'C15 H22 O5'
_chemical_name_systematic        Bisbynin
_symmetry_cell_setting           monoclinic
_symmetry_space_group_name_H-M   'P 21'
_symmetry_Int_Tables_number      4
_space_group_name_Hall           'P 2yb'
loop_
_symmetry_equiv_pos_site_id
_symmetry_equiv_pos_as_xyz
1 x,y,z
2 -x,1/2+y,-z
_cell_length_a                   6.7867(15)
_cell_length_b                   8.781(2)
_cell_length_c                   12.247(4)
_cell_angle_alpha                90
_cell_angle_beta                 97.32(2)
_cell_angle_gamma                90
_cell_volume                     723.9
_exptl_crystal_colour            colorless
_chemical_melting_point          144deg.C
_cell_formula_units_Z            2
loop_
_atom_site_label
_atom_site_type_symbol
_atom_site_fract_x
_atom_site_fract_y
_atom_site_fract_z
O1 O 0.2051(4) 0.7749 0.3587(2)
O2 O 0.3516(4) 0.4728(4) 0.7345(2)
O3 O 0.6169(3) 0.4952(4) 0.4001(2)
H1 H 0.7063(3) 0.4744(4) 0.4494(2)
O4 O 0.0210(3) 0.3978(4) 0.4382(2)
H2 H -0.0679(3) 0.3923(4) 0.3863(2)
O5 O 0.6662(4) 0.7681(4) 0.6489(2)
H3 H 0.6131(4) 0.8192(4) 0.5973(2)
C1 C 0.1875(5) 0.5162(6) 0.6573(3)
H4 H 0.1206(22) 0.6012(26) 0.6865(9)
H5 H 0.0945(30) 0.4326(26) 0.6470(4)
C2 C 0.4974(5) 0.5904(6) 0.7471(3)
H6 H 0.4315(32) 0.6888(47) 0.7670(10)
C3 C 0.5876(5) 0.6151(5) 0.6407(3)
H7 H 0.7098(48) 0.5327(33) 0.6357(3)
C4 C 0.4352(5) 0.6006(5) 0.5401(3)
C5 C 0.5110(5) 0.6268(5) 0.4310(3)
H8 H 0.5951(43) 0.7060(41) 0.4381(5)
C6 C 0.3491(5) 0.6605(5) 0.3387(3)
H9 H 0.3903(17) 0.6605(5) 0.2634(30)
C7 C 0.1426(5) 0.6178(5) 0.3449(3)
C8 C 0.0860(5) 0.5530(5) 0.4522(3)
H10 H -0.0259(54) 0.6126(29) 0.4718(10)
C9 C 0.2478(5) 0.5604(5) 0.5474(3)
C10 C 0.0004(5) 0.5816(6) 0.2421(3)
H11 H 0.0064(5) 0.4684(37) 0.2272(5)
H12 H -0.1395(45) 0.6062(9) 0.2569(6)
C11 C 0.0411(6) 0.6658(6) 0.1407(3)
H13 H -0.0250(37) 0.7555(52) 0.1263(9)
C12 C 0.1631(6) 0.6234(7) 0.0697(3)
C13 C 0.1917(8) 0.7198(8) -0.0289(4)
H14 H 0.1324(20) 0.6654(19) -0.0988(23)
H15 H 0.3394(49) 0.7372(10) -0.0311(4)
H16 H 0.1227(23) 0.8219(34) -0.0233(4)
C14 C 0.2860(8) 0.4820 0.0810(4)
H17 H 0.4231(46) 0.5086(9) 0.0911(6)
H18 H 0.2578(11) 0.4220(19) 0.0162(21)
H19 H 0.2554(12) 0.4253(18) 0.1429(21)
C15 C 0.6523(6) 0.5463(7) 0.8411(3)
H20 H 0.7526(31) 0.6168(21) 0.8479(4)
H21 H 0.7028(17) 0.4525(30) 0.8275(5)
H22 H 0.5955(18) 0.5429(7) 0.9050(20)
loop_
_geom_bond_atom_site_label_1
_geom_bond_atom_site_label_2
_geom_bond_site_symmetry_1
_geom_bond_site_symmetry_2
O1 C6 1_555 1_555
O2 C1 1_555 1_555
O3 H1 1_555 1_555
O4 H2 1_555 1_555
O5 H3 1_555 1_555
C1 H4 1_555 1_555
H5 C1 1_555 1_555
C2 O2 1_555 1_555
H6 C2 1_555 1_555
C3 O5 1_555 1_555
H7 C3 1_555 1_555
C4 C3 1_555 1_555
C5 O3 1_555 1_555
H8 C5 1_555 1_555
C6 C5 1_555 1_555
H9 C6 1_555 1_555
C7 O1 1_555 1_555
C8 O4 1_555 1_555
H10 C8 1_555 1_555
C9 C1 1_555 1_555
C10 C7 1_555 1_555
H11 C10 1_555 1_555
H12 C10 1_555 1_555
C11 C10 1_555 1_555
H13 C11 1_555 1_555
C12 C11 1_555 1_555
C13 C12 1_555 1_555
H14 C13 1_555 1_555
H15 C13 1_555 1_555
H16 C13 1_555 1_555
C14 C12 1_555 1_555
H17 C14 1_555 1_555
H18 C14 1_555 1_555
H19 C14 1_555 1_555
C15 C2 1_555 1_555
H20 C15 1_555 1_555
H21 C15 1_555 1_555
H22 C15 1_555 1_555
C2 C3 1_555 1_555
C4 C5 1_555 1_555
C4 C9 1_555 1_555
C6 C7 1_555 1_555
C7 C8 1_555 1_555
C8 C9 1_555 1_555

#END
