
#######################################################################
#
#                 Cambridge Crystallographic Data Centre
#                                CCDC 
#
#######################################################################
#
# If this CIF has been generated from an entry in the Cambridge 
# Structural Database, then it will include bibliographic, chemical, 
# crystal, experimental, refinement or atomic coordinate data resulting 
# from the CCDC's data processing and validation procedures.
#
#######################################################################

data_YULVAD
_chemical_formula_moiety         'C17 H16 N2 O5'
_chemical_name_systematic        
'2-(((Pyridin-2-ylcarbonyl)amino)methyl)-1,3-phenylene diacetate'
_symmetry_cell_setting           monoclinic
_symmetry_space_group_name_H-M   'P 21/c'
_symmetry_Int_Tables_number      14
_space_group_name_Hall           '-P 2ybc'
loop_
_symmetry_equiv_pos_site_id
_symmetry_equiv_pos_as_xyz
1 x,y,z
2 -x,1/2+y,1/2-z
3 -x,-y,-z
4 x,1/2-y,1/2+z
_cell_length_a                   9.6975(10)
_cell_length_b                   17.4780(19)
_cell_length_c                   9.6297(10)
_cell_angle_alpha                90
_cell_angle_beta                 93.354(5)
_cell_angle_gamma                90
_cell_volume                     1629.37
_exptl_crystal_colour            colorless
_exptl_crystal_description       block
_cell_formula_units_Z            4
loop_
_atom_site_label
_atom_site_type_symbol
_atom_site_fract_x
_atom_site_fract_y
_atom_site_fract_z
C1 C 1.3056(2) 0.09901(12) 0.9703(2)
H1 H 1.3475 0.0511 0.9725
C2 C 1.3560(2) 0.15327(13) 1.0632(2)
H2 H 1.4298 0.1423 1.1260
C3 C 1.2953(2) 0.22332(13) 1.0610(2)
H3 H 1.3263 0.2611 1.1232
C4 C 1.18714(18) 0.23751(12) 0.9654(2)
H4 H 1.1449 0.2853 0.9609
C5 C 1.14293(15) 0.18001(9) 0.87702(16)
C6 C 1.02441(15) 0.19406(8) 0.77301(16)
C7 C 0.88310(15) 0.14037(9) 0.57773(16)
H5 H 0.9218 0.1458 0.4876
H6 H 0.8274 0.1853 0.5933
C8 C 0.79263(14) 0.07078(8) 0.57622(15)
C9 C 0.78699(15) 0.01801(9) 0.46844(15)
C10 C 0.70325(17) -0.04526(9) 0.46600(17)
H7 H 0.7029 -0.0795 0.3920
C11 C 0.61981(19) -0.05739(10) 0.57459(19)
H8 H 0.5624 -0.1000 0.5742
C12 C 0.62110(17) -0.00654(10) 0.68400(18)
H9 H 0.5645 -0.0145 0.7574
C13 C 0.70679(15) 0.05586(9) 0.68347(15)
C14 C 0.62655(18) 0.16680(10) 0.79053(19)
C15 C 0.6544(2) 0.21952(13) 0.9100(2)
H10 H 0.7348 0.2497 0.8945
H11 H 0.6700 0.1903 0.9938
H12 H 0.5764 0.2526 0.9188
C16 C 0.82261(19) 0.06315(10) 0.24030(17)
C17 C 0.9301(2) 0.07257(12) 0.1389(2)
H13 H 0.8879 0.0714 0.0462
H14 H 0.9960 0.0317 0.1501
H15 H 0.9761 0.1207 0.1546
H16 H 1.0425(18) 0.0969(11) 0.6933(19)
N1 N 1.20065(16) 0.11075(8) 0.87742(16)
N2 N 0.99489(13) 0.13646(8) 0.68477(14)
O1 O 0.96177(12) 0.25475(7) 0.77072(14)
O2 O 0.71298(11) 0.10626(6) 0.79775(11)
O3 O 0.54333(16) 0.17527(9) 0.69642(17)
O4 O 0.87620(11) 0.02860(7) 0.35974(11)
O5 O 0.70525(15) 0.08192(9) 0.22656(15)
loop_
_geom_bond_atom_site_label_1
_geom_bond_atom_site_label_2
_geom_bond_site_symmetry_1
_geom_bond_site_symmetry_2
C1 H1 1_555 1_555
C2 C1 1_555 1_555
H2 C2 1_555 1_555
C3 C2 1_555 1_555
H3 C3 1_555 1_555
C4 C3 1_555 1_555
H4 C4 1_555 1_555
C5 C4 1_555 1_555
C6 C5 1_555 1_555
C7 H5 1_555 1_555
H6 C7 1_555 1_555
C8 C7 1_555 1_555
C9 C8 1_555 1_555
C10 C9 1_555 1_555
H7 C10 1_555 1_555
C11 C10 1_555 1_555
H8 C11 1_555 1_555
C12 C11 1_555 1_555
H9 C12 1_555 1_555
C13 C8 1_555 1_555
C14 C15 1_555 1_555
C15 H10 1_555 1_555
H11 C15 1_555 1_555
H12 C15 1_555 1_555
C16 C17 1_555 1_555
C17 H13 1_555 1_555
H14 C17 1_555 1_555
H15 C17 1_555 1_555
H16 N2 1_555 1_555
N1 C1 1_555 1_555
N2 C6 1_555 1_555
O1 C6 1_555 1_555
O2 C13 1_555 1_555
O3 C14 1_555 1_555
O4 C9 1_555 1_555
O5 C16 1_555 1_555
C5 N1 1_555 1_555
C7 N2 1_555 1_555
C12 C13 1_555 1_555
C14 O2 1_555 1_555
C16 O4 1_555 1_555

#END
