
#######################################################################
#
#                 Cambridge Crystallographic Data Centre
#                                CCDC 
#
#######################################################################
#
# If this CIF has been generated from an entry in the Cambridge 
# Structural Database, then it will include bibliographic, chemical, 
# crystal, experimental, refinement or atomic coordinate data resulting 
# from the CCDC's data processing and validation procedures.
#
#######################################################################

data_YULWAF
_chemical_formula_moiety         'C27 H23 N1 O4'
_chemical_name_systematic        
2-(4-(diphenylamino)phenyl)-5,6-dimethoxy-3-methyl-1,4-benzoquinone
_symmetry_cell_setting           monoclinic
_symmetry_space_group_name_H-M   'P 21/c'
_symmetry_Int_Tables_number      14
_space_group_name_Hall           '-P 2ybc'
loop_
_symmetry_equiv_pos_site_id
_symmetry_equiv_pos_as_xyz
1 x,y,z
2 -x,1/2+y,1/2-z
3 -x,-y,-z
4 x,1/2-y,1/2+z
_cell_length_a                   9.7269(19)
_cell_length_b                   7.7811(15)
_cell_length_c                   28.607(5)
_cell_angle_alpha                90
_cell_angle_beta                 95.907(4)
_cell_angle_gamma                90
_cell_volume                     2153.65
_exptl_crystal_colour            colorless
_exptl_crystal_description       prismatic
_cell_formula_units_Z            4
loop_
_atom_site_label
_atom_site_type_symbol
_atom_site_fract_x
_atom_site_fract_y
_atom_site_fract_z
N1 N 0.55845(15) 0.8249(2) 0.36696(5)
O1 O 0.02636(13) 0.9254(2) 0.23289(4)
O2 O -0.17218(14) 0.8462(2) 0.16042(5)
O3 O 0.19661(17) 0.8786(2) 0.06816(5)
C1 C 0.06541(18) 0.8750(2) 0.19633(6)
C2 C -0.03546(19) 0.8488(3) 0.15460(7)
C3 C 0.0076(2) 0.8491(3) 0.11187(6)
C4 C 0.1573(2) 0.8592(3) 0.10666(6)
C5 C 0.25917(19) 0.8417(2) 0.14901(6)
C6 C 0.21610(18) 0.8474(2) 0.19216(6)
C7 C 0.30619(17) 0.8404(2) 0.23711(6)
C8 C 0.42654(17) 0.9376(2) 0.24440(6)
H1 H 0.4518 1.0068 0.2202
C9 C 0.50936(18) 0.9341(2) 0.28649(6)
H2 H 0.5887 1.0015 0.2903
C10 C 0.47553(17) 0.8310(2) 0.32334(6)
C11 C 0.35538(18) 0.7324(2) 0.31640(6)
H3 H 0.3309 0.6619 0.3405
C12 C 0.27251(17) 0.7382(2) 0.27438(6)
H4 H 0.1923 0.6724 0.2708
C13 C 0.70474(18) 0.8412(2) 0.37015(6)
C14 C 0.77834(18) 0.7874(3) 0.33412(7)
H5 H 0.7318 0.7384 0.3073
C15 C 0.9201(2) 0.8053(3) 0.33731(8)
H6 H 0.9680 0.7715 0.3124
C16 C 0.9909(2) 0.8728(3) 0.37707(9)
H7 H 1.0866 0.8835 0.3794
C17 C 0.9193(2) 0.9240(3) 0.41310(9)
H8 H 0.9668 0.9692 0.4402
C18 C 0.7771(2) 0.9097(3) 0.40990(7)
H9 H 0.7297 0.9465 0.4347
C19 C 0.48976(18) 0.8292(2) 0.40873(6)
C20 C 0.5248(2) 0.7151(3) 0.44502(7)
H10 H 0.5948 0.6350 0.4428
C21 C 0.4550(3) 0.7214(3) 0.48443(7)
H11 H 0.4791 0.6458 0.5091
C22 C 0.3504(3) 0.8374(3) 0.48788(8)
H12 H 0.3022 0.8379 0.5143
C23 C 0.3169(2) 0.9525(3) 0.45234(7)
H13 H 0.2470 1.0326 0.4548
C24 C 0.38694(19) 0.9493(3) 0.41295(7)
H14 H 0.3650 1.0284 0.3890
C25 C 0.4055(2) 0.8208(3) 0.13842(7)
H15 H 0.4429 0.9311 0.1315
H16 H 0.4085 0.7464 0.1118
H17 H 0.4592 0.7717 0.1651
C26 C -0.2148(2) 0.7360(4) 0.19606(8)
H18 H -0.1494 0.6441 0.2017
H19 H -0.3043 0.6894 0.1860
H20 H -0.2193 0.8005 0.2245
O4 O -0.0848(10) 0.8243(14) 0.0726(6)
C27 C -0.1116(8) 0.9686(11) 0.0432(3)
H21 H -0.1520 1.0581 0.0604
H22 H -0.1743 0.9369 0.0165
H23 H -0.0266 1.0089 0.0328
O5? O -0.064(2) 0.848(3) 0.0703(11)
C28? C -0.1801(7) 0.9564(10) 0.0602(2)
H24? H -0.2555 0.9142 0.0761
H25? H -0.2064 0.9574 0.0269
H26? H -0.1571 1.0709 0.0707
loop_
_geom_bond_atom_site_label_1
_geom_bond_atom_site_label_2
_geom_bond_site_symmetry_1
_geom_bond_site_symmetry_2
N1 C10 1_555 1_555
O1 C1 1_555 1_555
O2 C2 1_555 1_555
O3 C4 1_555 1_555
C1 C2 1_555 1_555
C2 C3 1_555 1_555
C3 C4 1_555 1_555
C4 C5 1_555 1_555
C5 C6 1_555 1_555
C6 C1 1_555 1_555
C7 C6 1_555 1_555
C8 C7 1_555 1_555
H1 C8 1_555 1_555
C9 C8 1_555 1_555
H2 C9 1_555 1_555
C10 C9 1_555 1_555
C11 C10 1_555 1_555
H3 C11 1_555 1_555
C12 C7 1_555 1_555
H4 C12 1_555 1_555
C13 N1 1_555 1_555
C14 C13 1_555 1_555
H5 C14 1_555 1_555
C15 C14 1_555 1_555
H6 C15 1_555 1_555
C16 C15 1_555 1_555
H7 C16 1_555 1_555
C17 C16 1_555 1_555
H8 C17 1_555 1_555
C18 C13 1_555 1_555
H9 C18 1_555 1_555
C19 N1 1_555 1_555
C20 C19 1_555 1_555
H10 C20 1_555 1_555
C21 C20 1_555 1_555
H11 C21 1_555 1_555
C22 C21 1_555 1_555
H12 C22 1_555 1_555
C23 C22 1_555 1_555
H13 C23 1_555 1_555
C24 C19 1_555 1_555
H14 C24 1_555 1_555
C25 C5 1_555 1_555
H15 C25 1_555 1_555
H16 C25 1_555 1_555
H17 C25 1_555 1_555
C26 O2 1_555 1_555
H18 C26 1_555 1_555
H19 C26 1_555 1_555
H20 C26 1_555 1_555
O4 C3 1_555 1_555
C27 O4 1_555 1_555
H21 C27 1_555 1_555
H22 C27 1_555 1_555
H23 C27 1_555 1_555
C11 C12 1_555 1_555
C17 C18 1_555 1_555
C23 C24 1_555 1_555

#END
