
#######################################################################
#
#                 Cambridge Crystallographic Data Centre
#                                CCDC 
#
#######################################################################
#
# If this CIF has been generated from an entry in the Cambridge 
# Structural Database, then it will include bibliographic, chemical, 
# crystal, experimental, refinement or atomic coordinate data resulting 
# from the CCDC's data processing and validation procedures.
#
#######################################################################

data_YULXIO
_chemical_formula_moiety         'C30 H29 B2 1-,C16 H32 Li1 O4 1+'
_chemical_name_systematic        
"tetrakis(tetrahydrofuran)-lithium (biphenyl-2,2'-diyl-\k^2^C^2^,C^2'^)(1-(5H-dibenzo[b,d]borol-5-yl)-3,3-dimethylbutyl)hydridoborate"
_symmetry_cell_setting           monoclinic
_symmetry_space_group_name_H-M   'P 21'
_symmetry_Int_Tables_number      4
_space_group_name_Hall           'P 2yb'
loop_
_symmetry_equiv_pos_site_id
_symmetry_equiv_pos_as_xyz
1 x,y,z
2 -x,1/2+y,-z
_cell_length_a                   10.2957(7)
_cell_length_b                   18.7762(10)
_cell_length_c                   11.7473(8)
_cell_angle_alpha                90
_cell_angle_beta                 113.372(5)
_cell_angle_gamma                90
_cell_volume                     2084.59
_exptl_crystal_colour            colorless
_exptl_crystal_description       plate
_cell_formula_units_Z            2
loop_
_atom_site_label
_atom_site_type_symbol
_atom_site_fract_x
_atom_site_fract_y
_atom_site_fract_z
B1 B 0.6412(4) 0.6063(2) 0.3039(3)
H1 H 0.625(5) 0.624(3) 0.185(4)
B2 B 0.6366(4) 0.6929(2) 0.2101(3)
C1 C 0.6517(3) 0.68645(17) 0.3509(3)
H2 H 0.5630 0.7016 0.3597
C2 C 0.7825(3) 0.71585(19) 0.4554(3)
H3 H 0.7884 0.7675 0.4408
H4 H 0.8667 0.6931 0.4502
C3 C 0.7910(4) 0.7059(2) 0.5885(3)
C4 C 0.9302(5) 0.7362(4) 0.6800(4)
H5 H 1.0091 0.7115 0.6703
H6 H 0.9364 0.7295 0.7647
H7 H 0.9348 0.7872 0.6639
C5 C 0.6717(5) 0.7446(3) 0.6073(4)
H8 H 0.6749 0.7953 0.5888
H9 H 0.6824 0.7390 0.6935
H10 H 0.5808 0.7245 0.5517
C6 C 0.7827(6) 0.6270(2) 0.6164(4)
H11 H 0.8584 0.6010 0.6035
H12 H 0.6907 0.6079 0.5609
H13 H 0.7937 0.6213 0.7027
C7 C 0.7636(4) 0.54621(18) 0.3459(3)
C8 C 0.7017(4) 0.47958(18) 0.3483(3)
C9 C 0.7813(5) 0.4177(2) 0.3851(4)
H14 H 0.7368 0.3737 0.3867
C10 C 0.9258(6) 0.4208(2) 0.4191(4)
H15 H 0.9814 0.3788 0.4450
C11 C 0.9888(5) 0.4845(3) 0.4155(4)
H16 H 1.0882 0.4863 0.4380
C12 C 0.9092(4) 0.5465(2) 0.3795(4)
H17 H 0.9553 0.5901 0.3778
C13 C 0.5051(4) 0.55791(18) 0.2862(3)
C14 C 0.5475(4) 0.48632(19) 0.3113(3)
C15 C 0.4527(5) 0.4323(2) 0.3061(3)
H18 H 0.4836 0.3843 0.3215
C16 C 0.3130(5) 0.4495(2) 0.2785(4)
H19 H 0.2466 0.4131 0.2726
C17 C 0.2699(5) 0.5198(3) 0.2593(4)
H20 H 0.1744 0.5315 0.2428
C18 C 0.3652(4) 0.5736(2) 0.2639(3)
H21 H 0.3340 0.6217 0.2517
C19 C 0.7599(4) 0.72464(18) 0.1725(3)
C20 C 0.6962(4) 0.76663(18) 0.0650(3)
C21 C 0.7749(5) 0.8005(2) 0.0081(4)
H22 H 0.7293 0.8278 -0.0650
C22 C 0.9199(6) 0.7937(2) 0.0596(4)
H23 H 0.9748 0.8162 0.0212
C23 C 0.9864(5) 0.7544(3) 0.1668(4)
H24 H 1.0865 0.7501 0.2023
C24 C 0.9053(4) 0.7210(2) 0.2228(4)
H25 H 0.9519 0.6952 0.2975
C25 C 0.4976(4) 0.72392(18) 0.0983(3)
C26 C 0.5422(4) 0.76812(18) 0.0234(3)
C27 C 0.4442(5) 0.8060(2) -0.0763(3)
H26 H 0.4760 0.8362 -0.1248
C28 C 0.3026(5) 0.7994(2) -0.1038(4)
H27 H 0.2360 0.8249 -0.1717
C29 C 0.2566(5) 0.7561(3) -0.0335(4)
H28 H 0.1582 0.7516 -0.0528
C30 C 0.3544(4) 0.7185(3) 0.0669(3)
H29 H 0.3209 0.6885 0.1146
Li1 Li 0.4708(8) 0.5114(4) 0.7859(6)
O1 O 0.4073(4) 0.59490(16) 0.6861(3)
C31 C 0.3946(14) 0.6637(5) 0.7349(7)
H30 H 0.4884 0.6866 0.7753
H31 H 0.3510 0.6595 0.7961
C32 C 0.3011(8) 0.7059(3) 0.6237(6)
H32 H 0.3478 0.7511 0.6184
H33 H 0.2103 0.7172 0.6300
C33 C 0.2753(7) 0.6608(3) 0.5106(6)
H34 H 0.1745 0.6467 0.4706
H35 H 0.3011 0.6872 0.4496
C34 C 0.3673(6) 0.5968(3) 0.5566(4)
H36 H 0.3148 0.5530 0.5178
H37 H 0.4519 0.6005 0.5367
O2 O 0.3348(3) 0.4764(2) 0.8433(3)
C35 C 0.3206(6) 0.5049(4) 0.9506(4)
H38 H 0.3814 0.5474 0.9813
H39 H 0.3479 0.4690 1.0178
C36 C 0.1704(7) 0.5242(6) 0.9107(7)
H40 H 0.1361 0.5124 0.9761
H41 H 0.1567 0.5758 0.8926
C37 C 0.0947(6) 0.4826(5) 0.7991(8)
H42 H 0.0347 0.5142 0.7310
H43 H 0.0332 0.4469 0.8151
C38 C 0.2033(5) 0.4462(3) 0.7642(4)
H44 H 0.2027 0.3942 0.7776
H45 H 0.1849 0.4552 0.6761
O3 O 0.6361(3) 0.53280(15) 0.9266(3)
C39 C 0.7022(5) 0.4793(3) 1.0182(4)
H46 H 0.6687 0.4313 0.9845
H47 H 0.6806 0.4871 1.0923
C40 C 0.8583(6) 0.4865(4) 1.0510(6)
H48 H 0.9145 0.4658 1.1335
H49 H 0.8860 0.4634 0.9881
C41 C 0.8753(9) 0.5630(4) 1.0512(14)
H50 H 0.9563 0.5760 1.0301
H51 H 0.8908 0.5833 1.1334
C42 C 0.7332(6) 0.5905(3) 0.9499(5)
H52 H 0.6986 0.6327 0.9801
H53 H 0.7460 0.6037 0.8734
O4 O 0.5178(3) 0.44131(13) 0.6893(3)
C43 C 0.5028(6) 0.3664(2) 0.6994(7)
H54 H 0.4055 0.3507 0.6470
H55 H 0.5249 0.3525 0.7864
C44 C 0.6125(8) 0.3340(4) 0.6525(9)
H56 H 0.6468 0.2869 0.6906
H57 H 0.5721 0.3292 0.5611
C45 C 0.7289(8) 0.3892(4) 0.6962(8)
H58 H 0.7939 0.3850 0.6531
H59 H 0.7835 0.3874 0.7870
C46 C 0.6362(6) 0.4548(2) 0.6564(5)
H60 H 0.6888 0.4976 0.7000
H61 H 0.6037 0.4624 0.5659
C47? C 0.322(2) 0.6478(7) 0.7161(13)
H62? H 0.3720 0.6657 0.8017
H63? H 0.2300 0.6273 0.7078
H64? H 0.3864 0.7360 0.6452
H65? H 0.2184 0.7361 0.6136
H66? H 0.8928 0.4476 1.0133
H67? H 0.9119 0.4854 1.1420
C48? C 0.8741(15) 0.5587(10) 0.998(4)
H68? H 0.9422 0.5891 1.0630
H69? H 0.9080 0.5525 0.9303
H70? H 0.7233 0.6237 1.0115
H71? H 0.7157 0.6172 0.8725
H72? H 0.4307 0.3470 0.6217
H73? H 0.4741 0.3554 0.7686
C49? C 0.6475(10) 0.3350(5) 0.7240(10)
H74? H 0.6435 0.2834 0.7061
H75? H 0.7171 0.3445 0.8093
C50? C 0.6741(14) 0.3796(5) 0.6272(12)
H76? H 0.6122 0.3647 0.5420
H77? H 0.7742 0.3768 0.6376
H78? H 0.7160 0.4766 0.7262
H79? H 0.6091 0.4863 0.5830
loop_
_geom_bond_atom_site_label_1
_geom_bond_atom_site_label_2
_geom_bond_site_symmetry_1
_geom_bond_site_symmetry_2
B1 H1 1_555 1_555
H1 B2 1_555 1_555
B2 C1 1_555 1_555
C1 B1 1_555 1_555
H2 C1 1_555 1_555
C2 C1 1_555 1_555
H3 C2 1_555 1_555
H4 C2 1_555 1_555
C3 C2 1_555 1_555
C4 C3 1_555 1_555
H5 C4 1_555 1_555
H6 C4 1_555 1_555
H7 C4 1_555 1_555
C5 C3 1_555 1_555
H8 C5 1_555 1_555
H9 C5 1_555 1_555
H10 C5 1_555 1_555
C6 C3 1_555 1_555
H11 C6 1_555 1_555
H12 C6 1_555 1_555
H13 C6 1_555 1_555
C7 B1 1_555 1_555
C8 C7 1_555 1_555
C9 C8 1_555 1_555
H14 C9 1_555 1_555
C10 C9 1_555 1_555
H15 C10 1_555 1_555
C11 C10 1_555 1_555
H16 C11 1_555 1_555
C12 C7 1_555 1_555
H17 C12 1_555 1_555
C13 B1 1_555 1_555
C14 C8 1_555 1_555
C15 C14 1_555 1_555
H18 C15 1_555 1_555
C16 C15 1_555 1_555
H19 C16 1_555 1_555
C17 C16 1_555 1_555
H20 C17 1_555 1_555
C18 C13 1_555 1_555
H21 C18 1_555 1_555
C19 B2 1_555 1_555
C20 C19 1_555 1_555
C21 C20 1_555 1_555
H22 C21 1_555 1_555
C22 C21 1_555 1_555
H23 C22 1_555 1_555
C23 C22 1_555 1_555
H24 C23 1_555 1_555
C24 C19 1_555 1_555
H25 C24 1_555 1_555
C25 B2 1_555 1_555
C26 C20 1_555 1_555
C27 C26 1_555 1_555
H26 C27 1_555 1_555
C28 C27 1_555 1_555
H27 C28 1_555 1_555
C29 C28 1_555 1_555
H28 C29 1_555 1_555
C30 C25 1_555 1_555
H29 C30 1_555 1_555
Li1 O1 1_555 1_555
O1 C31 1_555 1_555
C31 H30 1_555 1_555
H31 C31 1_555 1_555
C32 C31 1_555 1_555
H32 C32 1_555 1_555
H33 C32 1_555 1_555
C33 C32 1_555 1_555
H34 C33 1_555 1_555
H35 C33 1_555 1_555
C34 O1 1_555 1_555
H36 C34 1_555 1_555
H37 C34 1_555 1_555
O2 Li1 1_555 1_555
C35 O2 1_555 1_555
H38 C35 1_555 1_555
H39 C35 1_555 1_555
C36 C35 1_555 1_555
H40 C36 1_555 1_555
H41 C36 1_555 1_555
C37 C36 1_555 1_555
H42 C37 1_555 1_555
H43 C37 1_555 1_555
C38 O2 1_555 1_555
H44 C38 1_555 1_555
H45 C38 1_555 1_555
O3 Li1 1_555 1_555
C39 O3 1_555 1_555
H46 C39 1_555 1_555
H47 C39 1_555 1_555
C40 C39 1_555 1_555
H48 C40 1_555 1_555
H49 C40 1_555 1_555
C41 C40 1_555 1_555
H50 C41 1_555 1_555
H51 C41 1_555 1_555
C42 O3 1_555 1_555
H52 C42 1_555 1_555
H53 C42 1_555 1_555
O4 Li1 1_555 1_555
C43 O4 1_555 1_555
H54 C43 1_555 1_555
H55 C43 1_555 1_555
C44 C43 1_555 1_555
H56 C44 1_555 1_555
H57 C44 1_555 1_555
C45 C44 1_555 1_555
H58 C45 1_555 1_555
H59 C45 1_555 1_555
C46 O4 1_555 1_555
H60 C46 1_555 1_555
H61 C46 1_555 1_555
C11 C12 1_555 1_555
C13 C14 1_555 1_555
C17 C18 1_555 1_555
C23 C24 1_555 1_555
C25 C26 1_555 1_555
C29 C30 1_555 1_555
C33 C34 1_555 1_555
C37 C38 1_555 1_555
C41 C42 1_555 1_555
C45 C46 1_555 1_555

#END
