
#######################################################################
#
#                 Cambridge Crystallographic Data Centre
#                                CCDC 
#
#######################################################################
#
# If this CIF has been generated from an entry in the Cambridge 
# Structural Database, then it will include bibliographic, chemical, 
# crystal, experimental, refinement or atomic coordinate data resulting 
# from the CCDC's data processing and validation procedures.
#
#######################################################################

data_YULZOV
_chemical_formula_moiety         
'C70 H78 N6 O4 4+,4(C1 F3 O3 S1 1-),2(C1 H4 O1)'
_chemical_name_systematic        
"2,5,8,11-tetrakis(4-(Trimethylammonio)phenyl)-N,N'-bis(pentan-3-yl)perylenediimide tetrakis(trifluoromethanesulfonate) methanol solvate"
_symmetry_cell_setting           triclinic
_symmetry_space_group_name_H-M   'P -1'
_symmetry_Int_Tables_number      2
_space_group_name_Hall           '-P 1'
loop_
_symmetry_equiv_pos_site_id
_symmetry_equiv_pos_as_xyz
1 x,y,z
2 -x,-y,-z
_cell_length_a                   6.815(4)
_cell_length_b                   14.674(10)
_cell_length_c                   20.572(10)
_cell_angle_alpha                70.543(19)
_cell_angle_beta                 80.424(18)
_cell_angle_gamma                84.60(2)
_cell_volume                     1911.09
_exptl_crystal_colour            red
_exptl_crystal_description       prism
_cell_formula_units_Z            1
loop_
_atom_site_label
_atom_site_type_symbol
_atom_site_fract_x
_atom_site_fract_y
_atom_site_fract_z
S1 S 0.0985(3) 0.12794(11) 0.07746(7)
F4 F 0.4414(5) 0.1986(2) 0.07060(17)
F5 F 0.1923(6) 0.2775(3) 0.1060(2)
F6 F 0.2599(5) 0.2898(3) -0.00197(18)
O6 O 0.0993(7) 0.0753(3) 0.14962(19)
O7 O 0.2010(7) 0.0780(3) 0.0310(2)
O8 O -0.0862(7) 0.1736(3) 0.0606(2)
C31 C 0.2528(10) 0.2283(4) 0.0631(3)
S2 S 0.6722(4) 0.85319(18) -0.57210(10)
O3 O 0.6003(9) 0.9381(5) -0.6213(3)
O4 O 0.6963(18) 0.7729(6) -0.5972(4)
O5 O 0.8336(8) 0.8643(5) -0.5406(3)
C32 C 0.489(2) 0.8149(13) -0.4992(7)
F7 F 0.503(4) 0.7385(15) -0.4550(11)
F8 F 0.3001(19) 0.8211(13) -0.5108(6)
F9 F 0.419(5) 0.8829(18) -0.4729(13)
O1 O 0.9660(7) 0.3712(3) -0.24889(18)
O2 O 0.7455(7) 0.3403(3) 0.31251(18)
N1 N 0.3312(7) 0.1183(3) -0.1619(2)
N2 N 0.1183(8) 0.0923(4) 0.3364(2)
C1 C 0.8102(8) 0.3856(4) -0.1148(3)
C2 C 0.7808(8) 0.3861(4) -0.0455(3)
H1 H 0.6841 0.3452 -0.0130
C3 C 0.8837(9) 0.4422(4) -0.0223(3)
C4 C 1.0266(8) 0.5041(4) -0.0707(3)
C5 C 0.8578(8) 0.4372(4) 0.0505(3)
C6 C 0.7226(9) 0.3773(4) 0.1004(3)
H2 H 0.6419 0.3403 0.0860
C7 C 0.6992(8) 0.3687(4) 0.1706(3)
C8 C 0.8121(9) 0.4255(4) 0.1920(3)
C9 C 1.0541(8) 0.5091(4) -0.1424(3)
C10 C 0.9494(9) 0.4451(4) -0.1625(3)
C11 C 0.8108(9) 0.4120(4) 0.2661(3)
C12 C 1.0082(9) 0.4394(4) -0.2332(3)
C13 C 0.5505(9) 0.2986(4) 0.2168(3)
C14 C 0.3893(9) 0.3237(4) 0.2589(3)
H3 H 0.3748 0.3877 0.2611
C15 C 0.2477(10) 0.2565(5) 0.2983(3)
H4 H 0.1371 0.2742 0.3271
C16 C 0.2721(10) 0.1616(5) 0.2944(3)
C17 C 0.4256(10) 0.1381(5) 0.2533(3)
H5 H 0.4388 0.0744 0.2505
C18 C 0.5671(9) 0.2046(4) 0.2142(3)
H6 H 0.6763 0.1858 0.1855
C19 C 0.1659(14) -0.0073(6) 0.3226(4)
H7 H 0.1738 0.0030 0.2727
H8 H 0.2934 -0.0349 0.3380
H9 H 0.0601 -0.0518 0.3485
C20 C -0.0807(19) 0.1266(10) 0.3098(8)
H10 H -0.1794 0.0776 0.3342
H11 H -0.1260 0.1875 0.3184
H12 H -0.0645 0.1367 0.2597
C21 C 0.1097(19) 0.0768(9) 0.4100(4)
H13 H 0.0035 0.0326 0.4363
H14 H 0.2375 0.0485 0.4248
H15 H 0.0821 0.1387 0.4189
C22 C 0.6872(9) 0.3167(4) -0.1284(3)
C23 C 0.5562(9) 0.3494(4) -0.1775(3)
H16 H 0.5466 0.4161 -0.2040
C24 C 0.4396(9) 0.2836(4) -0.1874(3)
H17 H 0.3494 0.3051 -0.2206
C25 C 0.4557(9) 0.1874(4) -0.1489(3)
C26 C 0.5806(8) 0.1553(4) -0.0994(3)
H18 H 0.5903 0.0887 -0.0729
C27 C 0.6922(9) 0.2216(4) -0.0885(3)
H19 H 0.7736 0.2006 -0.0525
C28 C 0.3860(10) 0.0140(4) -0.1239(3)
H20 H 0.5282 0.0010 -0.1368
H21 H 0.3080 -0.0287 -0.1366
H22 H 0.3571 0.0020 -0.0735
C29 C 0.1171(9) 0.1366(5) -0.1358(3)
H23 H 0.1024 0.1281 -0.0860
H24 H 0.0343 0.0909 -0.1432
H25 H 0.0747 0.2029 -0.1612
C30 C 0.3563(11) 0.1305(5) -0.2379(3)
H26 H 0.3071 0.1954 -0.2634
H27 H 0.2806 0.0820 -0.2452
H28 H 0.4977 0.1221 -0.2550
N3 N 1.1163(8) 0.5141(3) -0.2824(2)
C33 C 1.151(4) 0.5214(18) -0.3568(17)
H29 H 1.2182 0.5837 -0.3818
C34 C 0.951(3) 0.5328(12) -0.3866(7)
H30 H 0.8498 0.5647 -0.3599
H31 H 0.9051 0.4677 -0.3792
C35 C 1.477(3) 0.458(2) -0.3671(13)
H32 H 1.5612 0.4054 -0.3780
H33 H 1.4899 0.4569 -0.3202
H34 H 1.5194 0.5201 -0.4010
C36 C 0.964(2) 0.5923(10) -0.4653(6)
H35 H 1.0258 0.6537 -0.4743
H36 H 0.8292 0.6052 -0.4782
H37 H 1.0437 0.5554 -0.4929
C37 C 1.292(3) 0.4462(14) -0.3701(7)
H38 H 1.2512 0.3830 -0.3358
H39 H 1.2825 0.4434 -0.4170
O1A O 1.0340(7) 0.6288(3) 0.24889(18)
O2A O 1.2545(7) 0.6597(3) -0.31251(18)
N1A N 1.6688(7) 0.8817(3) 0.1619(2)
N2A N 1.8817(8) 0.9077(4) -0.3364(2)
C1A C 1.1898(8) 0.6144(4) 0.1148(3)
C2A C 1.2192(8) 0.6139(4) 0.0455(3)
H1A H 1.3159 0.6548 0.0130
C3A C 1.1163(9) 0.5578(4) 0.0223(3)
C4A C 0.9734(8) 0.4959(4) 0.0707(3)
C5A C 1.1422(8) 0.5628(4) -0.0505(3)
C6A C 1.2774(9) 0.6227(4) -0.1004(3)
H2A H 1.3581 0.6597 -0.0860
C7A C 1.3008(8) 0.6313(4) -0.1706(3)
C8A C 1.1879(9) 0.5745(4) -0.1920(3)
C9A C 0.9459(8) 0.4909(4) 0.1424(3)
C10A C 1.0506(9) 0.5549(4) 0.1625(3)
C11A C 1.1892(9) 0.5880(4) -0.2661(3)
C12A C 0.9918(9) 0.5606(4) 0.2332(3)
C13A C 1.4495(9) 0.7014(4) -0.2168(3)
C14A C 1.6107(9) 0.6763(4) -0.2589(3)
H3A H 1.6252 0.6123 -0.2611
C15A C 1.7523(10) 0.7435(5) -0.2983(3)
H4A H 1.8629 0.7258 -0.3271
C16A C 1.7279(10) 0.8384(5) -0.2944(3)
C17A C 1.5744(10) 0.8619(5) -0.2533(3)
H5A H 1.5612 0.9256 -0.2505
C18A C 1.4329(9) 0.7954(4) -0.2142(3)
H6A H 1.3237 0.8142 -0.1855
C19A C 1.8341(14) 1.0073(6) -0.3226(4)
H7A H 1.8262 0.9970 -0.2727
H8A H 1.7066 1.0349 -0.3380
H9A H 1.9399 1.0518 -0.3485
C20A C 2.0807(19) 0.8734(10) -0.3098(8)
H10A H 2.1794 0.9224 -0.3342
H11A H 2.1260 0.8125 -0.3184
H12A H 2.0645 0.8633 -0.2597
C21A C 1.8903(19) 0.9232(9) -0.4100(4)
H13A H 1.9965 0.9674 -0.4363
H14A H 1.7625 0.9515 -0.4248
H15A H 1.9179 0.8613 -0.4189
C22A C 1.3128(9) 0.6833(4) 0.1284(3)
C23A C 1.4438(9) 0.6506(4) 0.1775(3)
H16A H 1.4534 0.5839 0.2040
C24A C 1.5604(9) 0.7164(4) 0.1874(3)
H17A H 1.6506 0.6949 0.2206
C25A C 1.5443(9) 0.8126(4) 0.1489(3)
C26A C 1.4194(8) 0.8447(4) 0.0994(3)
H18A H 1.4097 0.9113 0.0729
C27A C 1.3078(9) 0.7784(4) 0.0885(3)
H19A H 1.2264 0.7994 0.0525
C28A C 1.6140(10) 0.9860(4) 0.1239(3)
H20A H 1.4718 0.9990 0.1368
H21A H 1.6920 1.0287 0.1366
H22A H 1.6429 0.9980 0.0735
C29A C 1.8829(9) 0.8634(5) 0.1358(3)
H23A H 1.8976 0.8719 0.0860
H24A H 1.9657 0.9091 0.1432
H25A H 1.9253 0.7971 0.1612
C30A C 1.6437(11) 0.8695(5) 0.2379(3)
H26A H 1.6929 0.8046 0.2634
H27A H 1.7194 0.9180 0.2452
H28A H 1.5023 0.8779 0.2550
N3A N 0.8837(8) 0.4859(3) 0.2824(2)
C33A C 0.849(4) 0.4786(18) 0.3568(17)
H29A H 0.7818 0.4163 0.3818
C34A C 1.049(3) 0.4672(12) 0.3866(7)
H30A H 1.1502 0.4353 0.3599
H31A H 1.0949 0.5323 0.3792
C35A C 0.523(3) 0.542(2) 0.3671(13)
H32A H 0.4388 0.5946 0.3780
H33A H 0.5101 0.5431 0.3202
H34A H 0.4806 0.4799 0.4010
C36A C 1.036(2) 0.4077(10) 0.4653(6)
H35A H 0.9742 0.3463 0.4743
H36A H 1.1708 0.3948 0.4782
H37A H 0.9563 0.4446 0.4929
C37A C 0.708(3) 0.5538(14) 0.3701(7)
H38A H 0.7488 0.6170 0.3358
H39A H 0.7175 0.5566 0.4170
O9 O 0.1409(16) 0.8066(11) 0.2903(6)
H40 H 0.0215 0.8120 0.2835
C38 C 0.157(4) 0.7412(13) 0.3599(11)
H41 H 0.0580 0.7606 0.3936
H42 H 0.2911 0.7436 0.3707
H43 H 0.1342 0.6752 0.3623
F1? F 0.573(5) 0.740(2) -0.4517(13)
F2? F 0.481(5) 0.880(3) -0.4630(18)
F3? F 0.361(5) 0.768(3) -0.531(3)
C39? C 0.795(5) 0.993(2) -0.3886(14)
H44? H 0.7147 1.0345 -0.3643
H45? H 0.7097 0.9706 -0.4137
H46? H 0.9023 1.0302 -0.4217
C40? C 0.021(6) 0.859(3) -0.4021(13)
H47? H 0.1283 0.9025 -0.4291
H48? H 0.9319 0.8540 -0.4332
H49? H 0.0791 0.7950 -0.3792
C41? C 0.025(7) 0.914(3) -0.306(2)
H50? H 0.0901 0.8498 -0.2889
H51? H 0.9744 0.9380 -0.2675
H52? H 0.1209 0.9585 -0.3397
C42? C 0.372(5) 0.507(2) -0.3792(15)
C43? C 0.154(9) 0.507(5) -0.356(3)
C44? C 0.056(3) 0.5854(18) -0.4041(10)
C45? C 0.842(4) 0.582(3) -0.3993(17)
C46? C 0.451(3) 0.4652(17) -0.4380(9)
H53? H 0.7936 0.6378 -0.4360
H54? H 0.7780 0.5853 -0.3536
H55? H 0.8088 0.5222 -0.4050
H56? H 0.5966 0.4639 -0.4455
H57? H 0.4007 0.5056 -0.4809
H58? H 0.4053 0.3993 -0.4252
H59? H 0.1033 0.4441 -0.3542
H60? H 0.1167 0.5881 -0.4519
H61? H 0.0861 0.6465 -0.3978
H62? H 0.4387 0.4708 -0.3384
H63? H 0.4125 0.5749 -0.3945
loop_
_geom_bond_atom_site_label_1
_geom_bond_atom_site_label_2
_geom_bond_site_symmetry_1
_geom_bond_site_symmetry_2
S1 O6 1_555 1_555
S2 O3 1_555 1_555
F4 C31 1_555 1_555
F5 C31 1_555 1_555
F6 C31 1_555 1_555
O1 C12 1_555 1_555
O2 C11 1_555 1_555
O4 S2 1_555 1_555
O5 S2 1_555 1_555
O7 S1 1_555 1_555
O8 S1 1_555 1_555
N1 C25 1_555 1_555
N2 C16 1_555 1_555
C1 C2 1_555 1_555
C2 H1 1_555 1_555
C3 C2 1_555 1_555
C4 C3 1_555 1_555
C5 C3 1_555 1_555
C6 C5 1_555 1_555
H2 C6 1_555 1_555
C7 C6 1_555 1_555
C8 C7 1_555 1_555
C9 C4 1_555 1_555
C10 C1 1_555 1_555
C11 C8 1_555 1_555
C12 C10 1_555 1_555
C13 C7 1_555 1_555
C14 C13 1_555 1_555
H3 C14 1_555 1_555
C15 C14 1_555 1_555
H4 C15 1_555 1_555
C16 C15 1_555 1_555
C17 C16 1_555 1_555
H5 C17 1_555 1_555
C18 C13 1_555 1_555
H6 C18 1_555 1_555
C19 N2 1_555 1_555
H7 C19 1_555 1_555
H8 C19 1_555 1_555
H9 C19 1_555 1_555
C20 N2 1_555 1_555
H10 C20 1_555 1_555
H11 C20 1_555 1_555
H12 C20 1_555 1_555
C21 N2 1_555 1_555
H13 C21 1_555 1_555
H14 C21 1_555 1_555
H15 C21 1_555 1_555
C22 C1 1_555 1_555
C23 C22 1_555 1_555
H16 C23 1_555 1_555
C24 C23 1_555 1_555
H17 C24 1_555 1_555
C25 C24 1_555 1_555
C26 C25 1_555 1_555
H18 C26 1_555 1_555
C27 C22 1_555 1_555
H19 C27 1_555 1_555
C28 N1 1_555 1_555
H20 C28 1_555 1_555
H21 C28 1_555 1_555
H22 C28 1_555 1_555
C29 N1 1_555 1_555
H23 C29 1_555 1_555
H24 C29 1_555 1_555
H25 C29 1_555 1_555
C30 N1 1_555 1_555
H26 C30 1_555 1_555
H27 C30 1_555 1_555
H28 C30 1_555 1_555
C31 S1 1_555 1_555
C32 S2 1_555 1_555
N3 C12 1_555 1_555
C33 N3 1_555 1_555
H29 C33 1_555 1_555
C34 C33 1_555 1_555
H30 C34 1_555 1_555
H31 C34 1_555 1_555
C35 H32 1_555 1_555
H33 C35 1_555 1_555
H34 C35 1_555 1_555
C36 C34 1_555 1_555
H35 C36 1_555 1_555
H36 C36 1_555 1_555
H37 C36 1_555 1_555
C37 C33 1_555 1_555
H38 C37 1_555 1_555
H39 C37 1_555 1_555
O9 H40 1_555 1_555
C38 O9 1_555 1_555
H41 C38 1_555 1_555
H42 C38 1_555 1_555
H43 C38 1_555 1_555
F7 C32 1_555 1_555
F8 C32 1_555 1_555
F9 C32 1_555 1_555
O1A C12A 1_555 1_555
O2A C11A 1_555 1_555
N1A C25A 1_555 1_555
N2A C16A 1_555 1_555
C1A C2A 1_555 1_555
C2A H1A 1_555 1_555
C3A C2A 1_555 1_555
C4A C5 1_555 1_555
C5A C4 1_555 1_555
C6A C5A 1_555 1_555
H2A C6A 1_555 1_555
C7A C6A 1_555 1_555
C8A C9 1_555 1_555
C9A C8 1_555 1_555
C10A C1A 1_555 1_555
C11A N3 1_555 1_555
C12A C10A 1_555 1_555
C13A C7A 1_555 1_555
C14A C13A 1_555 1_555
H3A C14A 1_555 1_555
C15A C14A 1_555 1_555
H4A C15A 1_555 1_555
C16A C15A 1_555 1_555
C17A C16A 1_555 1_555
H5A C17A 1_555 1_555
C18A C13A 1_555 1_555
H6A C18A 1_555 1_555
C19A N2A 1_555 1_555
H7A C19A 1_555 1_555
H8A C19A 1_555 1_555
H9A C19A 1_555 1_555
C20A N2A 1_555 1_555
H10A C20A 1_555 1_555
H11A C20A 1_555 1_555
H12A C20A 1_555 1_555
C21A N2A 1_555 1_555
H13A C21A 1_555 1_555
H14A C21A 1_555 1_555
H15A C21A 1_555 1_555
C22A C1A 1_555 1_555
C23A C22A 1_555 1_555
H16A C23A 1_555 1_555
C24A C23A 1_555 1_555
H17A C24A 1_555 1_555
C25A C24A 1_555 1_555
C26A C25A 1_555 1_555
H18A C26A 1_555 1_555
C27A C22A 1_555 1_555
H19A C27A 1_555 1_555
C28A N1A 1_555 1_555
H20A C28A 1_555 1_555
H21A C28A 1_555 1_555
H22A C28A 1_555 1_555
C29A N1A 1_555 1_555
H23A C29A 1_555 1_555
H24A C29A 1_555 1_555
H25A C29A 1_555 1_555
C30A N1A 1_555 1_555
H26A C30A 1_555 1_555
H27A C30A 1_555 1_555
H28A C30A 1_555 1_555
N3A C11 1_555 1_555
C33A N3A 1_555 1_555
H29A C33A 1_555 1_555
C34A C33A 1_555 1_555
H30A C34A 1_555 1_555
H31A C34A 1_555 1_555
C35A H32A 1_555 1_555
H33A C35A 1_555 1_555
H34A C35A 1_555 1_555
C36A C34A 1_555 1_555
H35A C36A 1_555 1_555
H36A C36A 1_555 1_555
H37A C36A 1_555 1_555
C37A C33A 1_555 1_555
H38A C37A 1_555 1_555
H39A C37A 1_555 1_555
C9 C10 1_555 1_555
C17 C18 1_555 1_555
C26 C27 1_555 1_555
C35 C37 1_555 1_555
C3A C4A 1_555 1_555
C3A C5A 1_555 1_555
C4A C9A 1_555 1_555
C7A C8A 1_555 1_555
C8A C11A 1_555 1_555
C9A C10A 1_555 1_555
C12A N3A 1_555 1_555
C17A C18A 1_555 1_555
C26A C27A 1_555 1_555
C35A C37A 1_555 1_555

#END
