
#######################################################################
#
#                 Cambridge Crystallographic Data Centre
#                                CCDC 
#
#######################################################################
#
# If this CIF has been generated from an entry in the Cambridge 
# Structural Database, then it will include bibliographic, chemical, 
# crystal, experimental, refinement or atomic coordinate data resulting 
# from the CCDC's data processing and validation procedures.
#
#######################################################################

data_YULZEL
_chemical_name_common            
"2,5,8,11-tetrakis(4-Trifluoromethylphenyl)-N,N'-bis(pentan-3-yl)perylenediimide acetonitrile solvate"
_chemical_formula_moiety         'C62 H42 F12 N2 O4,2(C2 H3 N1)'
_chemical_name_systematic        
"2,9-bis(pentan-3-yl)-4,7,11,14-tetrakis(4-(trifluoromethyl)phenyl)isoquino[4',5',6':6,5,10]anthra[2,1,9-def]isoquinoline-1,3,8,10(2H,9H)-tetrone acetonitrile solvate"
_symmetry_cell_setting           monoclinic
_symmetry_space_group_name_H-M   'P 21/c'
_symmetry_Int_Tables_number      14
_space_group_name_Hall           '-P 2ybc'
loop_
_symmetry_equiv_pos_site_id
_symmetry_equiv_pos_as_xyz
1 x,y,z
2 -x,1/2+y,1/2-z
3 -x,-y,-z
4 x,1/2-y,1/2+z
_cell_length_a                   18.3251(4)
_cell_length_b                   8.2876(2)
_cell_length_c                   18.7323(4)
_cell_angle_alpha                90
_cell_angle_beta                 103.6540(10)
_cell_angle_gamma                90
_cell_volume                     2764.5
_exptl_crystal_colour            orange
_exptl_crystal_description       prism
_cell_formula_units_Z            2
loop_
_atom_site_label
_atom_site_type_symbol
_atom_site_fract_x
_atom_site_fract_y
_atom_site_fract_z
F1 F -0.5530(2) 0.1462(6) -0.6989(3)
F2 F -0.5076(3) 0.0276(6) -0.7793(3)
F3 F -0.5453(2) -0.1127(6) -0.7000(3)
F4 F 0.1254(2) 0.1526(5) 0.0472(2)
F5 F 0.2138(2) 0.0287(7) 0.0146(2)
F6 F 0.1211(3) -0.1016(5) 0.0361(2)
O1 O -0.3056(2) 0.0434(6) -0.4249(2)
O2 O -0.1170(2) 0.2376(5) -0.2408(2)
N1 N -0.2133(3) 0.1459(6) -0.3314(3)
C1 C -0.0791(3) 0.0135(7) -0.5346(3)
C2 C -0.1550(3) 0.0199(7) -0.5663(4)
H1 H -0.1716 0.0073 -0.6180
C3 C -0.2090(3) 0.0446(7) -0.5247(4)
C4 C -0.1847(3) 0.0713(7) -0.4493(3)
C5 C -0.1070(3) 0.0702(7) -0.4154(3)
C6 C -0.0827(3) 0.0983(7) -0.3385(3)
C7 C -0.0074(3) 0.0757(7) -0.3022(3)
C8 C 0.0436(4) 0.0355(7) -0.3458(3)
H2 H 0.0947 0.0180 -0.3216
C9 C 0.0234(3) 0.0203(7) -0.4212(3)
C10 C -0.0536(3) 0.0344(7) -0.4571(3)
C11 C -0.2397(4) 0.0830(8) -0.4029(4)
C12 C -0.1370(4) 0.1657(8) -0.2991(4)
C13 C -0.2889(3) 0.0425(8) -0.5677(3)
C14 C -0.3171(3) -0.1006(8) -0.6014(4)
H3 H -0.2869 -0.1951 -0.5935
C15 C -0.3889(4) -0.1079(9) -0.6465(4)
H4 H -0.4079 -0.2063 -0.6696
C16 C -0.4328(4) 0.0321(9) -0.6576(4)
C17 C -0.4054(3) 0.1735(8) -0.6242(4)
H5 H -0.4356 0.2680 -0.6322
C18 C -0.3329(3) 0.1802(8) -0.5782(4)
H6 H -0.3143 0.2783 -0.5545
C19 C -0.5092(4) 0.0240(9) -0.7089(5)
C20 C 0.0251(3) 0.0785(8) -0.2214(3)
C21 C 0.0936(3) 0.1556(8) -0.1934(4)
H7 H 0.1153 0.2185 -0.2254
C22 C 0.1305(4) 0.1426(8) -0.1205(4)
H8 H 0.1768 0.1967 -0.1024
C23 C 0.0990(4) 0.0490(8) -0.0735(3)
C24 C 0.0306(4) -0.0267(8) -0.1004(4)
H9 H 0.0091 -0.0890 -0.0680
C25 C -0.0071(3) -0.0131(7) -0.1735(3)
H10 H -0.0542 -0.0651 -0.1911
C26 C 0.1407(4) 0.0331(8) 0.0048(4)
C27 C -0.2706(4) 0.1818(9) -0.2886(4)
H11 H -0.3196 0.1420 -0.3191
C28 C -0.2801(4) 0.3627(9) -0.2793(4)
H12 H -0.3140 0.3800 -0.2460
H13 H -0.2307 0.4095 -0.2555
C29 C -0.3112(5) 0.4523(11) -0.3500(5)
H14 H -0.2779 0.4369 -0.3834
H15 H -0.3145 0.5676 -0.3395
H16 H -0.3613 0.4108 -0.3730
C30 C -0.2561(4) 0.0864(10) -0.2168(4)
H17 H -0.2103 0.1290 -0.1830
H18 H -0.2987 0.1035 -0.1934
C31 C -0.2464(4) -0.0942(9) -0.2270(4)
H19 H -0.2922 -0.1382 -0.2591
H20 H -0.2368 -0.1481 -0.1791
H21 H -0.2038 -0.1124 -0.2494
F1B F 0.5530(2) -0.1462(6) -0.3011(3)
F2B F 0.5076(3) -0.0276(6) -0.2207(3)
F3B F 0.5453(2) 0.1127(6) -0.3000(3)
F4B F -0.1254(2) -0.1526(5) -1.0472(2)
F5B F -0.2138(2) -0.0287(7) -1.0146(2)
F6B F -0.1211(3) 0.1016(5) -1.0361(2)
O1B O 0.3056(2) -0.0434(6) -0.5751(2)
O2B O 0.1170(2) -0.2376(5) -0.7592(2)
N1B N 0.2133(3) -0.1459(6) -0.6686(3)
C1B C 0.0791(3) -0.0135(7) -0.4654(3)
C2B C 0.1550(3) -0.0199(7) -0.4337(4)
H1B H 0.1716 -0.0073 -0.3820
C3B C 0.2090(3) -0.0446(7) -0.4753(4)
C4B C 0.1847(3) -0.0713(7) -0.5507(3)
C5B C 0.1070(3) -0.0702(7) -0.5846(3)
C6B C 0.0827(3) -0.0983(7) -0.6615(3)
C7B C 0.0074(3) -0.0757(7) -0.6978(3)
C8B C -0.0436(4) -0.0355(7) -0.6542(3)
H2B H -0.0947 -0.0180 -0.6784
C9B C -0.0234(3) -0.0203(7) -0.5788(3)
C10B C 0.0536(3) -0.0344(7) -0.5429(3)
C11B C 0.2397(4) -0.0830(8) -0.5971(4)
C12B C 0.1370(4) -0.1657(8) -0.7009(4)
C13B C 0.2889(3) -0.0425(8) -0.4323(3)
C14B C 0.3171(3) 0.1006(8) -0.3986(4)
H3B H 0.2869 0.1951 -0.4065
C15B C 0.3889(4) 0.1079(9) -0.3535(4)
H4B H 0.4079 0.2063 -0.3304
C16B C 0.4328(4) -0.0321(9) -0.3424(4)
C17B C 0.4054(3) -0.1735(8) -0.3758(4)
H5B H 0.4356 -0.2680 -0.3678
C18B C 0.3329(3) -0.1802(8) -0.4218(4)
H6B H 0.3143 -0.2783 -0.4455
C19B C 0.5092(4) -0.0240(9) -0.2911(5)
C20B C -0.0251(3) -0.0785(8) -0.7786(3)
C21B C -0.0936(3) -0.1556(8) -0.8066(4)
H7B H -0.1153 -0.2185 -0.7746
C22B C -0.1305(4) -0.1426(8) -0.8795(4)
H8B H -0.1768 -0.1967 -0.8976
C23B C -0.0990(4) -0.0490(8) -0.9265(3)
C24B C -0.0306(4) 0.0267(8) -0.8996(4)
H9B H -0.0091 0.0890 -0.9320
C25B C 0.0071(3) 0.0131(7) -0.8265(3)
H10B H 0.0542 0.0651 -0.8089
C26B C -0.1407(4) -0.0331(8) -1.0048(4)
C27B C 0.2706(4) -0.1818(9) -0.7114(4)
H11B H 0.3196 -0.1420 -0.6809
C28B C 0.2801(4) -0.3627(9) -0.7207(4)
H12B H 0.3140 -0.3800 -0.7540
H13B H 0.2307 -0.4095 -0.7445
C29B C 0.3112(5) -0.4523(11) -0.6500(5)
H14B H 0.2779 -0.4369 -0.6166
H15B H 0.3145 -0.5676 -0.6605
H16B H 0.3613 -0.4108 -0.6270
C30B C 0.2561(4) -0.0864(10) -0.7832(4)
H17B H 0.2103 -0.1290 -0.8170
H18B H 0.2987 -0.1035 -0.8066
C31B C 0.2464(4) 0.0942(9) -0.7730(4)
H19B H 0.2922 0.1382 -0.7409
H20B H 0.2368 0.1481 -0.8209
H21B H 0.2038 0.1124 -0.7506
N2 N 0.4109(5) 0.0324(10) 0.0459(5)
C32 C 0.4310(5) 0.1419(11) 0.0202(5)
C33 C 0.4585(6) 0.2839(11) -0.0094(6)
H22 H 0.4246 0.3747 -0.0078
H23 H 0.4608 0.2637 -0.0603
H24 H 0.5088 0.3101 0.0200
loop_
_geom_bond_atom_site_label_1
_geom_bond_atom_site_label_2
_geom_bond_site_symmetry_1
_geom_bond_site_symmetry_2
F1 C19 1_555 1_555
F2 C19 1_555 1_555
F3 C19 1_555 1_555
F4 C26 1_555 1_555
F5 C26 1_555 1_555
F6 C26 1_555 1_555
O1 C11 1_555 1_555
O2 C12 1_555 1_555
N1 C11 1_555 1_555
N2 C32 1_555 1_555
C1 C2 1_555 1_555
C2 H1 1_555 1_555
C3 C2 1_555 1_555
C4 C3 1_555 1_555
C5 C4 1_555 1_555
C6 C5 1_555 1_555
C7 C6 1_555 1_555
C8 C7 1_555 1_555
H2 C8 1_555 1_555
C9 C8 1_555 1_555
C10 C1 1_555 1_555
C11 C4 1_555 1_555
C12 N1 1_555 1_555
C13 C3 1_555 1_555
C14 C13 1_555 1_555
H3 C14 1_555 1_555
C15 C14 1_555 1_555
H4 C15 1_555 1_555
C16 C15 1_555 1_555
C17 C16 1_555 1_555
H5 C17 1_555 1_555
C18 C13 1_555 1_555
H6 C18 1_555 1_555
C19 C16 1_555 1_555
C20 C7 1_555 1_555
C21 C20 1_555 1_555
H7 C21 1_555 1_555
C22 C21 1_555 1_555
H8 C22 1_555 1_555
C23 C22 1_555 1_555
C24 C23 1_555 1_555
H9 C24 1_555 1_555
C25 C20 1_555 1_555
H10 C25 1_555 1_555
C26 C23 1_555 1_555
C27 N1 1_555 1_555
H11 C27 1_555 1_555
C28 C27 1_555 1_555
H12 C28 1_555 1_555
H13 C28 1_555 1_555
C29 C28 1_555 1_555
H14 C29 1_555 1_555
H15 C29 1_555 1_555
H16 C29 1_555 1_555
C30 C27 1_555 1_555
H17 C30 1_555 1_555
H18 C30 1_555 1_555
C31 C30 1_555 1_555
H19 C31 1_555 1_555
H20 C31 1_555 1_555
H21 C31 1_555 1_555
C32 C33 1_555 1_555
C33 H22 1_555 1_555
H23 C33 1_555 1_555
H24 C33 1_555 1_555
F1B C19B 1_555 1_555
F2B C19B 1_555 1_555
F3B C19B 1_555 1_555
F4B C26B 1_555 1_555
F5B C26B 1_555 1_555
F6B C26B 1_555 1_555
O1B C11B 1_555 1_555
O2B C12B 1_555 1_555
N1B C11B 1_555 1_555
C1B C9 1_555 1_555
C2B C1B 1_555 1_555
H1B C2B 1_555 1_555
C3B C2B 1_555 1_555
C4B C3B 1_555 1_555
C5B C4B 1_555 1_555
C6B C5B 1_555 1_555
C7B C6B 1_555 1_555
C8B C7B 1_555 1_555
H2B C8B 1_555 1_555
C9B C1 1_555 1_555
C10B C1B 1_555 1_555
C11B C4B 1_555 1_555
C12B N1B 1_555 1_555
C13B C3B 1_555 1_555
C14B C13B 1_555 1_555
H3B C14B 1_555 1_555
C15B C14B 1_555 1_555
H4B C15B 1_555 1_555
C16B C15B 1_555 1_555
C17B C16B 1_555 1_555
H5B C17B 1_555 1_555
C18B C13B 1_555 1_555
H6B C18B 1_555 1_555
C19B C16B 1_555 1_555
C20B C7B 1_555 1_555
C21B C20B 1_555 1_555
H7B C21B 1_555 1_555
C22B C21B 1_555 1_555
H8B C22B 1_555 1_555
C23B C22B 1_555 1_555
C24B C23B 1_555 1_555
H9B C24B 1_555 1_555
C25B C20B 1_555 1_555
H10B C25B 1_555 1_555
C26B C23B 1_555 1_555
C27B N1B 1_555 1_555
H11B C27B 1_555 1_555
C28B C27B 1_555 1_555
H12B C28B 1_555 1_555
H13B C28B 1_555 1_555
C29B C28B 1_555 1_555
H14B C29B 1_555 1_555
H15B C29B 1_555 1_555
H16B C29B 1_555 1_555
C30B C27B 1_555 1_555
H17B C30B 1_555 1_555
H18B C30B 1_555 1_555
C31B C30B 1_555 1_555
H19B C31B 1_555 1_555
H20B C31B 1_555 1_555
H21B C31B 1_555 1_555
C5 C10 1_555 1_555
C6 C12 1_555 1_555
C9 C10 1_555 1_555
C17 C18 1_555 1_555
C24 C25 1_555 1_555
C5B C10B 1_555 1_555
C6B C12B 1_555 1_555
C8B C9B 1_555 1_555
C9B C10B 1_555 1_555
C17B C18B 1_555 1_555
C24B C25B 1_555 1_555

#END
