
#######################################################################
#
#                 Cambridge Crystallographic Data Centre
#                                CCDC 
#
#######################################################################
#
# If this CIF has been generated from an entry in the Cambridge 
# Structural Database, then it will include bibliographic, chemical, 
# crystal, experimental, refinement or atomic coordinate data resulting 
# from the CCDC's data processing and validation procedures.
#
#######################################################################

data_YULZIP
_chemical_formula_moiety         'C66 H66 N6 O4,1.76(C1 H1 Cl3)'
_chemical_name_systematic        
"2,5,8,11-tetrakis(4-(Dimethylamino)phenyl)-N,N'-bis(pentan-3-yl)perylenediimide chloroform solvate"
_symmetry_cell_setting           triclinic
_symmetry_space_group_name_H-M   'P -1'
_symmetry_Int_Tables_number      2
_space_group_name_Hall           '-P 1'
loop_
_symmetry_equiv_pos_site_id
_symmetry_equiv_pos_as_xyz
1 x,y,z
2 -x,-y,-z
_cell_length_a                   9.294(4)
_cell_length_b                   10.196(4)
_cell_length_c                   18.474(8)
_cell_angle_alpha                85.694(12)
_cell_angle_beta                 83.861(14)
_cell_angle_gamma                66.290(13)
_cell_volume                     1592.68
_exptl_crystal_colour            orange
_exptl_crystal_description       prism
_cell_formula_units_Z            1
loop_
_atom_site_label
_atom_site_type_symbol
_atom_site_fract_x
_atom_site_fract_y
_atom_site_fract_z
Cl1 Cl 0.8266(4) 0.8171(4) -0.41083(17)
Cl2 Cl 1.0043(5) 0.5127(6) -0.3600(5)
Cl3 Cl 0.8532(5) 0.7122(6) -0.2606(2)
C32 C 0.8398(10) 0.6728(8) -0.3496(5)
H30 H 0.7808 0.6220 -0.3323
O1 O 0.8338(4) -0.1014(3) 0.13458(15)
O2 O 0.5177(4) 0.2126(3) 0.30494(14)
N1 N 0.6692(4) 0.0528(3) 0.21951(18)
N2 N 1.0017(4) -0.4644(3) -0.0997(2)
N3 N 0.5850(6) 0.3012(4) -0.4832(2)
C1 C 0.7321(4) 0.0174(4) 0.1475(2)
C2 C 0.6698(4) 0.1297(3) 0.08966(19)
C3 C 0.7055(4) 0.0974(3) 0.01516(19)
C4 C 0.6613(4) 0.2103(4) -0.03752(19)
H1 H 0.6870 0.1877 -0.0875
C5 C 0.5825(4) 0.3517(3) -0.02006(18)
C6 C 0.5338(4) 0.4682(3) -0.07659(19)
C7 C 0.5599(4) 0.4405(4) -0.15071(19)
H2 H 0.6108 0.3435 -0.1645
C8 C 0.5153(4) 0.5473(4) -0.20594(19)
C9 C 0.5443(4) 0.3876(3) 0.05531(19)
C10 C 0.5875(4) 0.2750(4) 0.11023(19)
C11 C 0.4468(4) 0.6917(4) -0.18564(19)
C12 C 0.5764(5) 0.1910(4) 0.2416(2)
C13 C 0.7822(4) -0.0503(3) -0.01415(19)
C14 C 0.7157(4) -0.1514(4) 0.0012(2)
H3 H 0.6226 -0.1284 0.0332
C15 C 0.7838(4) -0.2843(4) -0.0295(2)
H4 H 0.7333 -0.3491 -0.0200
C16 C 0.9272(4) -0.3267(4) -0.0749(2)
C17 C 0.9895(4) -0.2226(4) -0.0911(2)
H5 H 1.0831 -0.2449 -0.1228
C18 C 0.9182(4) -0.0886(4) -0.0623(2)
H6 H 0.9627 -0.0201 -0.0754
C19 C 0.5360(4) 0.4960(4) -0.28108(19)
C20 C 0.4064(5) 0.5272(4) -0.3218(2)
H7 H 0.3060 0.5949 -0.3044
C21 C 0.4219(5) 0.4611(4) -0.3873(2)
H8 H 0.3310 0.4815 -0.4126
C22 C 0.5695(6) 0.3647(4) -0.4165(2)
C23 C 0.6997(6) 0.3367(4) -0.3770(2)
H9 H 0.8015 0.2742 -0.3959
C24 C 0.6823(5) 0.3988(4) -0.3107(2)
H10 H 0.7724 0.3747 -0.2844
C25 C 0.9180(5) -0.5576(4) -0.0969(3)
H11 H 0.9886 -0.6505 -0.1166
H12 H 0.8269 -0.5140 -0.1259
H13 H 0.8817 -0.5716 -0.0463
C26 C 1.1523(5) -0.5084(4) -0.1427(3)
H14 H 1.1873 -0.6087 -0.1555
H15 H 1.2304 -0.4983 -0.1144
H16 H 1.1411 -0.4479 -0.1873
C27 C 0.4484(9) 0.2991(7) -0.5122(3)
H17 H 0.4798 0.2510 -0.5588
H18 H 0.3719 0.3977 -0.5199
H19 H 0.4003 0.2474 -0.4778
C28 C 0.7390(10) 0.2012(7) -0.5115(3)
H20 H 0.7921 0.2535 -0.5424
H21 H 0.7264 0.1302 -0.5403
H22 H 0.8024 0.1525 -0.4709
C29 C 0.690(2) -0.070(2) 0.2728(10)
H23 H 0.7612 -0.1573 0.2457
C30 C 0.5468(18) -0.0945(10) 0.2965(5)
H24 H 0.4764 -0.0173 0.3290
H25 H 0.5754 -0.1868 0.3245
C31 C 0.458(2) -0.0975(15) 0.2305(7)
H26 H 0.4137 -0.0014 0.2075
H27 H 0.3719 -0.1280 0.2474
H28 H 0.5309 -0.1649 0.1951
C38 C 0.7863(15) -0.0626(9) 0.3354(5)
H40 H 0.7136 0.0081 0.3705
H41 H 0.8256 -0.1572 0.3615
C40 C 0.9273(19) -0.0219(15) 0.3124(8)
H45 H 0.9954 -0.0849 0.2741
H46 H 0.9874 -0.0328 0.3545
H47 H 0.8890 0.0778 0.2940
O1A O 0.1662(4) 1.1014(3) -0.13458(15)
O2A O 0.4823(4) 0.7874(3) -0.30494(14)
N1A N 0.3308(4) 0.9472(3) -0.21951(18)
N2A N -0.0017(4) 1.4644(3) 0.0997(2)
N3A N 0.4150(6) 0.6988(4) 0.4832(2)
C1A C 0.2679(4) 0.9826(4) -0.1475(2)
C2A C 0.3302(4) 0.8703(3) -0.08966(19)
C3A C 0.2945(4) 0.9026(3) -0.01516(19)
C4A C 0.3387(4) 0.7897(4) 0.03752(19)
H1A H 0.3130 0.8123 0.0875
C5A C 0.4175(4) 0.6483(3) 0.02006(18)
C6A C 0.4662(4) 0.5318(3) 0.07659(19)
C7A C 0.4401(4) 0.5595(4) 0.15071(19)
H2A H 0.3892 0.6565 0.1645
C8A C 0.4847(4) 0.4527(4) 0.20594(19)
C9A C 0.4557(4) 0.6124(3) -0.05531(19)
C10A C 0.4125(4) 0.7250(4) -0.11023(19)
C11A C 0.5532(4) 0.3083(4) 0.18564(19)
C12A C 0.4236(5) 0.8090(4) -0.2416(2)
C13A C 0.2178(4) 1.0503(3) 0.01415(19)
C14A C 0.2843(4) 1.1514(4) -0.0012(2)
H3A H 0.3774 1.1284 -0.0332
C15A C 0.2162(4) 1.2843(4) 0.0295(2)
H4A H 0.2667 1.3491 0.0200
C16A C 0.0728(4) 1.3267(4) 0.0749(2)
C17A C 0.0105(4) 1.2226(4) 0.0911(2)
H5A H -0.0831 1.2449 0.1228
C18A C 0.0818(4) 1.0886(4) 0.0623(2)
H6A H 0.0373 1.0201 0.0754
C19A C 0.4640(4) 0.5040(4) 0.28108(19)
C20A C 0.5936(5) 0.4728(4) 0.3218(2)
H7A H 0.6940 0.4051 0.3044
C21A C 0.5781(5) 0.5389(4) 0.3873(2)
H8A H 0.6690 0.5185 0.4126
C22A C 0.4305(6) 0.6353(4) 0.4165(2)
C23A C 0.3003(6) 0.6633(4) 0.3770(2)
H9A H 0.1985 0.7258 0.3959
C24A C 0.3177(5) 0.6012(4) 0.3107(2)
H10A H 0.2276 0.6253 0.2844
C25A C 0.0820(5) 1.5576(4) 0.0969(3)
H11A H 0.0114 1.6505 0.1166
H12A H 0.1731 1.5140 0.1259
H13A H 0.1183 1.5716 0.0463
C26A C -0.1523(5) 1.5084(4) 0.1427(3)
H14A H -0.1873 1.6087 0.1555
H15A H -0.2304 1.4983 0.1144
H16A H -0.1411 1.4479 0.1873
C27A C 0.5516(9) 0.7009(7) 0.5122(3)
H17A H 0.5202 0.7490 0.5588
H18A H 0.6281 0.6023 0.5199
H19A H 0.5997 0.7526 0.4778
C28A C 0.2610(10) 0.7988(7) 0.5115(3)
H20A H 0.2079 0.7465 0.5424
H21A H 0.2736 0.8698 0.5403
H22A H 0.1976 0.8475 0.4709
C29A C 0.310(2) 1.070(2) -0.2728(10)
H23A H 0.2388 1.1573 -0.2457
C30A C 0.4532(18) 1.0945(10) -0.2965(5)
H24A H 0.5236 1.0173 -0.3290
H25A H 0.4246 1.1868 -0.3245
C31A C 0.542(2) 1.0975(15) -0.2305(7)
H26A H 0.5863 1.0014 -0.2075
H27A H 0.6281 1.1280 -0.2474
H28A H 0.4691 1.1649 -0.1951
C38A C 0.2137(15) 1.0626(9) -0.3354(5)
H40A H 0.2864 0.9919 -0.3705
H41A H 0.1744 1.1572 -0.3615
C40A C 0.0727(19) 1.0219(15) -0.3124(8)
H45A H 0.0046 1.0849 -0.2741
H46A H 0.0126 1.0328 -0.3545
H47A H 0.1110 0.9222 -0.2940
H29? H 0.7429 0.6530 -0.3505
Cl4? Cl 0.9741(9) 0.5206(10) -0.4211(7)
Cl5? Cl 0.9153(15) 0.7633(15) -0.3278(16)
C33? C 0.837(3) 0.662(5) -0.370(3)
H31? H 0.7585 0.7266 -0.4028
C34? C 0.503(2) -0.129(2) 0.2567(12)
H32? H 0.4372 -0.0309 0.2711
H33? H 0.4595 -0.1950 0.2818
H34? H 0.5047 -0.1353 0.2039
C35? C 0.724(2) -0.062(3) 0.2795(15)
H35? H 0.6660 -0.0096 0.3243
C36? C 0.663(3) -0.1681(19) 0.2765(11)
H36? H 0.6705 -0.2175 0.3251
H37? H 0.7347 -0.2397 0.2417
C37? C 0.9008(18) -0.1067(19) 0.2940(10)
H38? H 0.9133 -0.1486 0.3442
H39? H 0.9650 -0.1849 0.2608
C39? C 0.968(3) -0.006(3) 0.2870(12)
H42? H 0.9203 0.0644 0.2483
H43? H 1.0815 -0.0547 0.2747
H44? H 0.9484 0.0420 0.3331
loop_
_geom_bond_atom_site_label_1
_geom_bond_atom_site_label_2
_geom_bond_site_symmetry_1
_geom_bond_site_symmetry_2
Cl1 C32 1_555 1_555
Cl2 C32 1_555 1_555
Cl3 C32 1_555 1_555
O1 C1 1_555 1_555
O2 C12 1_555 1_555
N1 C1 1_555 1_555
N2 C16 1_555 1_555
N3 C22 1_555 1_555
C1 C2 1_555 1_555
C2 C3 1_555 1_555
C3 C4 1_555 1_555
C4 H1 1_555 1_555
C5 C4 1_555 1_555
C6 C5 1_555 1_555
C7 C6 1_555 1_555
H2 C7 1_555 1_555
C8 C7 1_555 1_555
C9 C5 1_555 1_555
C10 C2 1_555 1_555
C11 C8 1_555 1_555
C12 N1 1_555 1_555
C13 C3 1_555 1_555
C14 C13 1_555 1_555
H3 C14 1_555 1_555
C15 C14 1_555 1_555
H4 C15 1_555 1_555
C16 C15 1_555 1_555
C17 C16 1_555 1_555
H5 C17 1_555 1_555
C18 C13 1_555 1_555
H6 C18 1_555 1_555
C19 C8 1_555 1_555
C20 C19 1_555 1_555
H7 C20 1_555 1_555
C21 C20 1_555 1_555
H8 C21 1_555 1_555
C22 C21 1_555 1_555
C23 C22 1_555 1_555
H9 C23 1_555 1_555
C24 C19 1_555 1_555
H10 C24 1_555 1_555
C25 N2 1_555 1_555
H11 C25 1_555 1_555
H12 C25 1_555 1_555
H13 C25 1_555 1_555
C26 N2 1_555 1_555
H14 C26 1_555 1_555
H15 C26 1_555 1_555
H16 C26 1_555 1_555
C27 N3 1_555 1_555
H17 C27 1_555 1_555
H18 C27 1_555 1_555
H19 C27 1_555 1_555
C28 N3 1_555 1_555
H20 C28 1_555 1_555
H21 C28 1_555 1_555
H22 C28 1_555 1_555
C29 N1 1_555 1_555
H23 C29 1_555 1_555
C30 C29 1_555 1_555
H24 C30 1_555 1_555
H25 C30 1_555 1_555
C31 C30 1_555 1_555
H26 C31 1_555 1_555
H27 C31 1_555 1_555
H28 C31 1_555 1_555
C32 H30 1_555 1_555
C38 C29 1_555 1_555
H40 C38 1_555 1_555
H41 C38 1_555 1_555
C40 C38 1_555 1_555
H45 C40 1_555 1_555
H46 C40 1_555 1_555
H47 C40 1_555 1_555
O1A C1A 1_555 1_555
O2A C12A 1_555 1_555
N1A C1A 1_555 1_555
N2A C16A 1_555 1_555
N3A C22A 1_555 1_555
C1A C2A 1_555 1_555
C2A C3A 1_555 1_555
C3A C4A 1_555 1_555
C4A H1A 1_555 1_555
C5A C4A 1_555 1_555
C6A C9 1_555 1_555
C7A C6A 1_555 1_555
H2A C7A 1_555 1_555
C8A C7A 1_555 1_555
C9A C6 1_555 1_555
C10A C11 1_555 1_555
C11A C10 1_555 1_555
C12A C11 1_555 1_555
C13A C3A 1_555 1_555
C14A C13A 1_555 1_555
H3A C14A 1_555 1_555
C15A C14A 1_555 1_555
H4A C15A 1_555 1_555
C16A C15A 1_555 1_555
C17A C16A 1_555 1_555
H5A C17A 1_555 1_555
C18A C13A 1_555 1_555
H6A C18A 1_555 1_555
C19A C8A 1_555 1_555
C20A C19A 1_555 1_555
H7A C20A 1_555 1_555
C21A C20A 1_555 1_555
H8A C21A 1_555 1_555
C22A C21A 1_555 1_555
C23A C22A 1_555 1_555
H9A C23A 1_555 1_555
C24A C19A 1_555 1_555
H10A C24A 1_555 1_555
C25A N2A 1_555 1_555
H11A C25A 1_555 1_555
H12A C25A 1_555 1_555
H13A C25A 1_555 1_555
C26A N2A 1_555 1_555
H14A C26A 1_555 1_555
H15A C26A 1_555 1_555
H16A C26A 1_555 1_555
C27A N3A 1_555 1_555
H17A C27A 1_555 1_555
H18A C27A 1_555 1_555
H19A C27A 1_555 1_555
C28A N3A 1_555 1_555
H20A C28A 1_555 1_555
H21A C28A 1_555 1_555
H22A C28A 1_555 1_555
C29A N1A 1_555 1_555
H23A C29A 1_555 1_555
C30A C29A 1_555 1_555
H24A C30A 1_555 1_555
H25A C30A 1_555 1_555
C31A C30A 1_555 1_555
H26A C31A 1_555 1_555
H27A C31A 1_555 1_555
H28A C31A 1_555 1_555
C38A C29A 1_555 1_555
H40A C38A 1_555 1_555
H41A C38A 1_555 1_555
C40A C38A 1_555 1_555
H45A C40A 1_555 1_555
H46A C40A 1_555 1_555
H47A C40A 1_555 1_555
C9 C10 1_555 1_555
C12 C11A 1_555 1_555
C17 C18 1_555 1_555
C23 C24 1_555 1_555
N1A C12A 1_555 1_555
C2A C10A 1_555 1_555
C5A C6A 1_555 1_555
C5A C9A 1_555 1_555
C8A C11A 1_555 1_555
C9A C10A 1_555 1_555
C17A C18A 1_555 1_555
C23A C24A 1_555 1_555

#END
