
#######################################################################
#
#                 Cambridge Crystallographic Data Centre
#                                CCDC 
#
#######################################################################
#
# If this CIF has been generated from an entry in the Cambridge 
# Structural Database, then it will include bibliographic, chemical, 
# crystal, experimental, refinement or atomic coordinate data resulting 
# from the CCDC's data processing and validation procedures.
#
#######################################################################

data_YUMMAV
_chemical_formula_moiety         'C20 H16 Cl1 N1 O3'
_chemical_name_systematic        
'Ethyl 3-chloro-5-methyl-11-oxo-6a,11-dihydroisoindolo[2,1-a]quinoline-6-carboxylate'
_symmetry_cell_setting           monoclinic
_symmetry_space_group_name_H-M   'P 21/n'
_symmetry_Int_Tables_number      14
_space_group_name_Hall           '-P 2yn'
loop_
_symmetry_equiv_pos_site_id
_symmetry_equiv_pos_as_xyz
1 x,y,z
2 1/2-x,1/2+y,1/2-z
3 -x,-y,-z
4 1/2+x,1/2-y,1/2+z
_cell_length_a                   9.3133(17)
_cell_length_b                   7.3351(14)
_cell_length_c                   24.716(5)
_cell_angle_alpha                90
_cell_angle_beta                 96.800(3)
_cell_angle_gamma                90
_cell_volume                     1676.57
_exptl_crystal_colour            colorless
_exptl_crystal_description       block
_chemical_melting_point          '151-153 deg.C'
_cell_formula_units_Z            4
loop_
_atom_site_label
_atom_site_type_symbol
_atom_site_fract_x
_atom_site_fract_y
_atom_site_fract_z
Cl1 Cl 0.46715(9) 0.11642(12) 0.05429(3)
N1 N 0.28187(18) 0.0388(3) 0.27226(7)
C1 C 0.3235(2) 0.0580(3) 0.21984(9)
C2 C 0.5067(3) 0.1399(3) 0.16418(10)
H1 H 0.5992 0.1815 0.1601
O1 O 0.04262(17) 0.1288(2) 0.25729(7)
C3 C 0.4644(2) 0.1216(3) 0.21575(9)
C4 C 0.5221(2) 0.1208(3) 0.31403(10)
C5 C 0.2291(3) 0.0192(3) 0.17394(10)
H2 H 0.1355 -0.0198 0.1773
C6 C 0.3918(2) -0.0005(3) 0.31826(9)
H3 H 0.4210 -0.1286 0.3168
C7 C 0.5583(2) 0.1733(3) 0.26597(10)
O2 O 0.59733(19) 0.3326(2) 0.38187(8)
C8 C 0.2737(3) 0.0385(4) 0.12330(10)
H4 H 0.2107 0.0125 0.0922
C9 C 0.3073(3) 0.0279(3) 0.36630(10)
C10 C 0.6123(2) 0.1615(4) 0.36636(10)
O3 O 0.6861(2) 0.0518(3) 0.39268(8)
C11 C 0.1671(3) 0.0742(3) 0.34742(10)
C12 C 0.1490(2) 0.0850(3) 0.28776(10)
C13 C 0.4121(3) 0.0967(3) 0.11890(10)
C14 C 0.1051(4) 0.0905(4) 0.43711(13)
H5 H 0.0381 0.1129 0.4614
C15 C 0.0640(3) 0.1063(4) 0.38249(13)
H6 H -0.0303 0.1377 0.3691
C16 C 0.3481(3) 0.0083(4) 0.42172(11)
H7 H 0.4418 -0.0262 0.4350
C17 C 0.6906(2) 0.2855(4) 0.25983(11)
H8 H 0.7380 0.3169 0.2952
H9 H 0.6627 0.3947 0.2399
H10 H 0.7555 0.2163 0.2404
C18 C 0.2456(4) 0.0414(4) 0.45705(12)
H11 H 0.2713 0.0306 0.4944
C19 C 0.6768(4) 0.3857(4) 0.43379(14)
H12 H 0.7800 0.3738 0.4324
H13 H 0.6498 0.3085 0.4628
C20 C 0.6393(4) 0.5774(5) 0.44367(17)
H14 H 0.6641 0.6518 0.4142
H15 H 0.6919 0.6182 0.4772
H16 H 0.5374 0.5868 0.4460
loop_
_geom_bond_atom_site_label_1
_geom_bond_atom_site_label_2
_geom_bond_site_symmetry_1
_geom_bond_site_symmetry_2
Cl1 C13 1_555 1_555
N1 C1 1_555 1_555
C1 C3 1_555 1_555
C2 H1 1_555 1_555
O1 C12 1_555 1_555
C3 C2 1_555 1_555
C4 C6 1_555 1_555
C5 C1 1_555 1_555
H2 C5 1_555 1_555
C6 N1 1_555 1_555
H3 C6 1_555 1_555
C7 C3 1_555 1_555
O2 C10 1_555 1_555
C8 C5 1_555 1_555
H4 C8 1_555 1_555
C9 C6 1_555 1_555
C10 C4 1_555 1_555
O3 C10 1_555 1_555
C11 C9 1_555 1_555
C12 N1 1_555 1_555
C13 C2 1_555 1_555
C14 H5 1_555 1_555
C15 C11 1_555 1_555
H6 C15 1_555 1_555
C16 C9 1_555 1_555
H7 C16 1_555 1_555
C17 C7 1_555 1_555
H8 C17 1_555 1_555
H9 C17 1_555 1_555
H10 C17 1_555 1_555
C18 C14 1_555 1_555
H11 C18 1_555 1_555
C19 O2 1_555 1_555
H12 C19 1_555 1_555
H13 C19 1_555 1_555
C20 C19 1_555 1_555
H14 C20 1_555 1_555
H15 C20 1_555 1_555
H16 C20 1_555 1_555
C4 C7 1_555 1_555
C8 C13 1_555 1_555
C11 C12 1_555 1_555
C14 C15 1_555 1_555
C16 C18 1_555 1_555

#END
