
#######################################################################
#
#                 Cambridge Crystallographic Data Centre
#                                CCDC 
#
#######################################################################
#
# If this CIF has been generated from an entry in the Cambridge 
# Structural Database, then it will include bibliographic, chemical, 
# crystal, experimental, refinement or atomic coordinate data resulting 
# from the CCDC's data processing and validation procedures.
#
#######################################################################

data_YUMNEZ
_chemical_formula_moiety         'C48 H40 N8 4+,4(F6 P1 1-)'
_chemical_name_systematic        
"1,8-bis((1,1')-4,4'-Biyridinia)-3,6,10,13-tetrakis((1,3)-benzena)-4,5,11,12-tetradehydro-4,5,11,12-tetra-azatetradecaphane tetrakis(hexafluorophosphate)"
_symmetry_cell_setting           triclinic
_symmetry_space_group_name_H-M   'P -1'
_symmetry_Int_Tables_number      2
_space_group_name_Hall           '-P 1'
loop_
_symmetry_equiv_pos_site_id
_symmetry_equiv_pos_as_xyz
1 x,y,z
2 -x,-y,-z
_cell_length_a                   13.635(2)
_cell_length_b                   32.403(10)
_cell_length_c                   6.591(2)
_cell_angle_alpha                90.25(2)
_cell_angle_beta                 100.91(2)
_cell_angle_gamma                79.00(2)
_cell_volume                     2805.31
_cell_formula_units_Z            2
loop_
_atom_site_label
_atom_site_type_symbol
_atom_site_fract_x
_atom_site_fract_y
_atom_site_fract_z
P1 P 1.5000 1.0000 1.0000
F1 F 1.5302 1.0096 1.2253
F2 F 1.5517 0.9530 1.0500
F3 F 1.3930 0.9951 1.0309
F1A F 1.4698 0.9904 0.7747
F2A F 1.4483 1.0470 0.9500
F3A F 1.6070 1.0049 0.9691
P2 P 0.4224 0.8065 0.1500
F4 F 0.5403 0.7856 0.1739
F5 F 0.3906 0.7624 0.1132
F6 F 0.3089 0.8273 0.1223
F7 F 0.4327 0.8017 0.3777
F8 F 0.4155 0.8107 -0.0747
F9 F 0.4588 0.8492 0.1804
P3 P 0.9179 0.8207 0.1325
F10 F 1.0227 0.8027 0.1759
F11 F 0.8124 0.8509 0.0942
F12 F 0.8774 0.7959 0.2166
F13 F 0.9513 0.8493 0.0243
F14 F 0.9234 0.8488 0.3220
F15 F 0.8976 0.8000 -0.0693
P4 P 0.9701 0.6759 0.2159
F16 F 0.9857 0.6584 0.0093
F17 F 0.9572 0.6940 0.4156
F18 F 1.0611 0.6975 0.2043
F19 F 0.8786 0.6564 0.2019
F20 F 1.0394 0.6441 0.2998
F21 F 0.9008 0.7120 0.1171
N1 N 1.116(1) 0.5316(7) 0.978(3)
N2 N 1.037(2) 0.5521(6) 1.011(3)
N3 N 0.681(2) 0.6681(8) 0.698(3)
N4 N 0.656(1) 0.8851(7) 0.603(3)
N5 N 0.989(2) 0.9390(7) 0.995(3)
N6 N 1.075(2) 0.9442(6) 0.997(3)
N7 N 1.178(2) 0.8292(8) 1.662(4)
N8 N 1.247(2) 0.6098(8) 1.672(3)
C1 C 0.959(2) 0.5608(7) 0.819(4)
C2 C 0.972(2) 0.5467(9) 0.630(4)
C3 C 0.889(2) 0.5580(9) 0.471(4)
C4 C 0.802(2) 0.5827(7) 0.495(4)
C5 C 0.788(2) 0.5957(6) 0.687(4)
C6 C 0.866(2) 0.5850(7) 0.847(3)
C7 C 0.687(2) 0.6222(9) 0.715(4)
C8 C 0.738(3) 0.688(2) 0.584(8)
C9 C 0.730(3) 0.730(1) 0.567(6)
C10 C 0.674(2) 0.755(1) 0.664(4)
C11 C 0.627(4) 0.739(1) 0.774(7)
C12 C 0.634(4) 0.695(2) 0.768(8)
C13 C 0.667(2) 0.800(1) 0.647(4)
C14 C 0.715(2) 0.817(1) 0.512(5)
C15 C 0.706(2) 0.857(1) 0.497(6)
C16 C 0.611(2) 0.8704(8) 0.741(4)
C17 C 0.620(2) 0.830(1) 0.770(4)
C18 C 0.653(2) 0.931(1) 0.592(4)
C19 C 0.754(2) 0.9422(8) 0.609(4)
C20 C 0.780(2) 0.9586(9) 0.431(4)
C21 C 0.877(2) 0.9667(7) 0.446(4)
C22 C 0.946(2) 0.9636(8) 0.623(5)
C23 C 0.920(2) 0.9465(8) 0.799(4)
C24 C 0.828(2) 0.9362(8) 0.791(4)
C25 C 1.146(2) 0.9332(8) 1.190(4)
C26 C 1.236(2) 0.9444(7) 1.209(4)
C27 C 1.305(2) 0.939(1) 1.383(6)
C28 C 1.277(3) 0.9125(9) 1.550(5)
C29 C 1.194(2) 0.8967(9) 1.523(5)
C30 C 1.122(2) 0.9106(8) 1.349(4)
C31 C 1.163(3) 0.876(1) 1.693(5)
C32 C 1.133(3) 0.808(2) 1.767(7)
C33 C 1.140(5) 0.763(2) 1.732(9)
C34 C 1.206(2) 0.739(1) 1.649(4)
C35 C 1.250(2) 0.767(1) 1.553(6)
C36 C 1.241(2) 0.808(1) 1.565(4)
C37 C 1.215(2) 0.697(1) 1.652(4)
C38 C 1.176(3) 0.673(2) 1.783(4)
C39 C 1.190(2) 0.630(1) 1.785(5)
C40 C 1.293(2) 0.627(1) 1.550(4)
C41 C 1.277(2) 0.675(1) 1.529(4)
C42 C 1.270(2) 0.5639(9) 1.700(4)
C43 C 1.277(2) 0.5383(8) 1.503(3)
C44 C 1.358(2) 0.508(1) 1.470(6)
C45 C 1.357(2) 0.4850(9) 1.298(5)
C46 C 1.278(2) 0.4942(8) 1.146(4)
C47 C 1.190(2) 0.5265(7) 1.167(4)
C48 C 1.189(2) 0.5476(7) 1.342(4)
H1 H 0.6778 0.6150 0.8555
H2 H 0.6339 0.6142 0.6075
H3 H 0.6232 0.9451 0.7105
H4 H 0.6098 0.9442 0.4591
H5 H 1.2022 0.8815 1.8303
H6 H 1.0877 0.8871 1.6908
H7 H 1.3373 0.5568 1.7913
H8 H 1.2155 0.5569 1.7607
H9 H 1.0364 0.5307 0.6012
H10 H 0.8901 0.5466 0.3295
H11 H 0.7471 0.5923 0.3718
H12 H 0.8591 0.5932 0.9904
H13 H 0.7997 0.6678 0.5486
H14 H 0.7638 0.7397 0.4623
H15 H 0.5793 0.7567 0.8514
H16 H 0.5935 0.6843 0.8543
H17 H 0.7518 0.7977 0.4205
H18 H 0.7468 0.8674 0.4006
H19 H 0.5682 0.8888 0.8203
H20 H 0.5929 0.8195 0.8852
H21 H 0.7278 0.9657 0.2961
H22 H 0.8985 0.9755 0.3205
H23 H 1.0146 0.9722 0.6348
H24 H 0.8078 0.9252 0.9159
H25 H 1.2536 0.9580 1.0851
H26 H 1.3705 0.9495 1.4118
H27 H 1.3222 0.9074 1.6921
H28 H 1.0529 0.9029 1.3252
H29 H 1.0973 0.8211 1.8750
H30 H 1.0921 0.7493 1.8075
H31 H 1.2966 0.7523 1.4663
H32 H 1.2782 0.8226 1.4886
H33 H 1.1381 0.6853 1.8825
H34 H 1.1567 0.6126 1.8727
H35 H 1.3424 0.6094 1.4660
H36 H 1.3043 0.6921 1.4343
H37 H 1.4200 0.5019 1.5855
H38 H 1.4192 0.4613 1.2896
H39 H 1.2812 0.4779 1.0174
H40 H 1.1293 0.5698 1.3552
P5? P 0.4867 0.6105 0.1286
F22? F 0.5665 0.6408 0.1551
F23? F 0.3985 0.6525 0.1128
F24? F 0.5856 0.5727 0.1350
F25? F 0.5002 0.6085 0.3665
F26? F 0.4057 0.5818 0.1096
F27? F 0.4867 0.6025 -0.1140
F28? F 0.4716 0.6484 0.2898
F29? F 0.4814 0.5670 -0.0218
F30? F 0.37041 0.6163 0.1049
F31? F 0.6005 0.6149 0.1304
F32? F 0.5160 0.5808 0.3019
F33? F 0.4633 0.6331 -0.0682
loop_
_geom_bond_atom_site_label_1
_geom_bond_atom_site_label_2
_geom_bond_site_symmetry_1
_geom_bond_site_symmetry_2
P1 F1 1_555 1_555
F2 P1 1_555 1_555
F3 P1 1_555 1_555
P2 F4 1_555 1_555
F5 P2 1_555 1_555
F6 P2 1_555 1_555
F7 P2 1_555 1_555
F8 P2 1_555 1_555
F9 P2 1_555 1_555
P3 F10 1_555 1_555
F11 P3 1_555 1_555
F12 P3 1_555 1_555
F13 P3 1_555 1_555
F14 P3 1_555 1_555
F15 P3 1_555 1_555
P4 F16 1_555 1_555
F17 P4 1_555 1_555
F18 P4 1_555 1_555
F19 P4 1_555 1_555
F20 P4 1_555 1_555
F21 P4 1_555 1_555
N1 N2 1_555 1_555
N2 C1 1_555 1_555
N3 C7 1_555 1_555
N4 C15 1_555 1_555
N5 N6 1_555 1_555
N6 C25 1_555 1_555
N7 C31 1_555 1_555
N8 C39 1_555 1_555
C1 C2 1_555 1_555
C2 C3 1_555 1_555
C3 C4 1_555 1_555
C4 C5 1_555 1_555
C5 C6 1_555 1_555
C6 C1 1_555 1_555
C7 C5 1_555 1_555
C8 N3 1_555 1_555
C9 C8 1_555 1_555
C10 C9 1_555 1_555
C11 C10 1_555 1_555
C12 N3 1_555 1_555
C13 C10 1_555 1_555
C14 C13 1_555 1_555
C15 C14 1_555 1_555
C16 N4 1_555 1_555
C17 C13 1_555 1_555
C18 N4 1_555 1_555
C19 C18 1_555 1_555
C20 C19 1_555 1_555
C21 C20 1_555 1_555
C22 C21 1_555 1_555
C23 N5 1_555 1_555
C24 C19 1_555 1_555
C25 C26 1_555 1_555
C26 C27 1_555 1_555
C27 C28 1_555 1_555
C28 C29 1_555 1_555
C29 C30 1_555 1_555
C30 C25 1_555 1_555
C31 C29 1_555 1_555
C32 N7 1_555 1_555
C33 C32 1_555 1_555
C34 C33 1_555 1_555
C35 C34 1_555 1_555
C36 N7 1_555 1_555
C37 C34 1_555 1_555
C38 C37 1_555 1_555
C39 C38 1_555 1_555
C40 N8 1_555 1_555
C41 C37 1_555 1_555
C42 N8 1_555 1_555
C43 C42 1_555 1_555
C44 C43 1_555 1_555
C45 C44 1_555 1_555
C46 C45 1_555 1_555
C47 N1 1_555 1_555
C48 C43 1_555 1_555
H1 C7 1_555 1_555
H2 C7 1_555 1_555
H3 C18 1_555 1_555
H4 C18 1_555 1_555
H5 C31 1_555 1_555
H6 C31 1_555 1_555
H7 C42 1_555 1_555
H8 C42 1_555 1_555
H9 C2 1_555 1_555
H10 C3 1_555 1_555
H11 C4 1_555 1_555
H12 C6 1_555 1_555
H13 C8 1_555 1_555
H14 C9 1_555 1_555
H15 C11 1_555 1_555
H16 C12 1_555 1_555
H17 C14 1_555 1_555
H18 C15 1_555 1_555
H19 C16 1_555 1_555
H20 C17 1_555 1_555
H21 C20 1_555 1_555
H22 C21 1_555 1_555
H23 C22 1_555 1_555
H24 C24 1_555 1_555
H25 C26 1_555 1_555
H26 C27 1_555 1_555
H27 C28 1_555 1_555
H28 C30 1_555 1_555
H29 C32 1_555 1_555
H30 C33 1_555 1_555
H31 C35 1_555 1_555
H32 C36 1_555 1_555
H33 C38 1_555 1_555
H34 C39 1_555 1_555
H35 C40 1_555 1_555
H36 C41 1_555 1_555
H37 C44 1_555 1_555
H38 C45 1_555 1_555
H39 C46 1_555 1_555
H40 C48 1_555 1_555
F1A P1 1_555 1_555
F2A P1 1_555 1_555
F3A P1 1_555 1_555
C11 C12 1_555 1_555
C16 C17 1_555 1_555
C22 C23 1_555 1_555
C23 C24 1_555 1_555
C35 C36 1_555 1_555
C40 C41 1_555 1_555
C46 C47 1_555 1_555
C47 C48 1_555 1_555

#END
