
#######################################################################
#
#                 Cambridge Crystallographic Data Centre
#                                CCDC 
#
#######################################################################
#
# If this CIF has been generated from an entry in the Cambridge 
# Structural Database, then it will include bibliographic, chemical, 
# crystal, experimental, refinement or atomic coordinate data resulting 
# from the CCDC's data processing and validation procedures.
#
#######################################################################

data_YUMQII
_chemical_formula_moiety         'C7 H10 N4 2+,C2 H2 O4,C2 O4 2-,H2 O1'
_chemical_name_systematic        
"1,1'-methylenebis-1H-imidazol-3-ium oxalate oxalic acid monohydrate"
_symmetry_cell_setting           monoclinic
_symmetry_space_group_name_H-M   'C 2/c'
_symmetry_Int_Tables_number      15
_space_group_name_Hall           '-C 2yn'
loop_
_symmetry_equiv_pos_site_id
_symmetry_equiv_pos_as_xyz
1 x,y,z
2 -x,y,1/2-z
3 1/2+x,1/2+y,z
4 1/2-x,1/2+y,1/2-z
5 -x,-y,-z
6 x,-y,1/2+z
7 1/2-x,1/2-y,-z
8 1/2+x,1/2-y,1/2+z
_cell_length_a                   7.9728(6)
_cell_length_b                   11.4124(10)
_cell_length_c                   15.7544(14)
_cell_angle_alpha                90
_cell_angle_beta                 90.4550(10)
_cell_angle_gamma                90
_cell_volume                     1433.43
_exptl_crystal_colour            colorless
_exptl_crystal_description       block
_cell_formula_units_Z            4
loop_
_atom_site_label
_atom_site_type_symbol
_atom_site_fract_x
_atom_site_fract_y
_atom_site_fract_z
N1 N 0.5240(2) 0.73307(14) 0.67422(9)
N2 N 0.6408(2) 0.83694(15) 0.57872(10)
H1 H 0.7143 0.8771 0.5516
C1 C 0.6655(3) 0.78663(17) 0.65266(13)
H2 H 0.7644 0.7882 0.6844
C2 C 0.4814(3) 0.8158(2) 0.55154(13)
H3 H 0.4331 0.8416 0.5010
C3 C 0.4073(3) 0.7512(2) 0.61099(13)
H4 H 0.2976 0.7236 0.6098
C4 C 0.5000 0.6611(3) 0.7500
H5 H 0.4028 0.6112 0.7417
N1A N 0.4760(2) 0.73307(14) 0.82578(9)
N2A N 0.3592(2) 0.83694(15) 0.92128(10)
H1A H 0.2857 0.8771 0.9484
C1A C 0.3345(3) 0.78663(17) 0.84734(13)
H2A H 0.2356 0.7882 0.8156
C2A C 0.5186(3) 0.8158(2) 0.94846(13)
H3A H 0.5669 0.8416 0.9990
C3A C 0.5927(3) 0.7512(2) 0.88901(13)
H4A H 0.7024 0.7236 0.8902
H5A H 0.5972 0.6112 0.7583
O1 O 0.67935(16) 0.02230(14) 0.80720(8)
H6 H 0.7037 0.0232 0.8579
O2 O 0.43216(18) 0.08926(13) 0.85215(8)
C5 C 0.5257(2) 0.05795(16) 0.79692(11)
O1A O 0.32065(16) 0.02230(14) 0.69280(8)
H6A H 0.2963 0.0232 0.6421
O2A O 0.56784(18) 0.08926(13) 0.64785(8)
C5A C 0.4743(2) 0.05795(16) 0.70308(11)
O3 O 0.69415(16) 0.53425(12) 0.54625(7)
O4 O 0.4750(2) 0.44048(16) 0.59996(9)
C6 C 0.5472(2) 0.49162(17) 0.54258(11)
O3D O 0.30585(16) 0.46575(12) 0.45375(7)
O4D O 0.5250(2) 0.55952(16) 0.40004(9)
C6D C 0.4528(2) 0.50838(17) 0.45742(11)
O5 O 0.5000 0.32151(18) 0.7500
H7 H 0.4927 0.3650 0.7063
H7A H 0.5073 0.3650 0.7937
loop_
_geom_bond_atom_site_label_1
_geom_bond_atom_site_label_2
_geom_bond_site_symmetry_1
_geom_bond_site_symmetry_2
N1 C1 1_555 1_555
N2 H1 1_555 1_555
C1 N2 1_555 1_555
H2 C1 1_555 1_555
C2 N2 1_555 1_555
H3 C2 1_555 1_555
C3 N1 1_555 1_555
H4 C3 1_555 1_555
C4 N1 1_555 1_555
H5 C4 1_555 1_555
O1 H6 1_555 1_555
O2 C5 1_555 1_555
C5 O1 1_555 1_555
O3 C6 1_555 1_555
O4 C6 1_555 1_555
C6 C6D 1_555 1_555
O5 H7 1_555 1_555
N1A C4 1_555 1_555
N2A H1A 1_555 1_555
C1A N1A 1_555 1_555
H2A C1A 1_555 1_555
C2A N2A 1_555 1_555
H3A C2A 1_555 1_555
C3A N1A 1_555 1_555
H4A C3A 1_555 1_555
H5A C4 1_555 1_555
O1A H6A 1_555 1_555
O2A C5A 1_555 1_555
C5A C5 1_555 1_555
O3D C6D 1_555 1_555
O4D C6D 1_555 1_555
H7A O5 1_555 1_555
C2 C3 1_555 1_555
N2A C1A 1_555 1_555
C2A C3A 1_555 1_555
O1A C5A 1_555 1_555

#END
