
#######################################################################
#
#                 Cambridge Crystallographic Data Centre
#                                CCDC 
#
#######################################################################
#
# If this CIF has been generated from an entry in the Cambridge 
# Structural Database, then it will include bibliographic, chemical, 
# crystal, experimental, refinement or atomic coordinate data resulting 
# from the CCDC's data processing and validation procedures.
#
#######################################################################

data_YUMQUU
_chemical_formula_moiety         'C10 H6 O6 S2 2-,C7 H10 N4 2+,0.5(C2 H3 N1)'
_chemical_name_systematic        
"1,1'-methylenebis-1H-imidazol-3-ium naphthalene-1,5-disulfonate acetonitrile solvate"
_symmetry_cell_setting           triclinic
_symmetry_space_group_name_H-M   'P -1'
_symmetry_Int_Tables_number      2
_space_group_name_Hall           '-P 1'
loop_
_symmetry_equiv_pos_site_id
_symmetry_equiv_pos_as_xyz
1 x,y,z
2 -x,-y,-z
_cell_length_a                   9.0017(8)
_cell_length_b                   10.4847(10)
_cell_length_c                   11.0763(12)
_cell_angle_alpha                83.9480(10)
_cell_angle_beta                 81.8180(10)
_cell_angle_gamma                85.930(2)
_cell_volume                     1027.31
_exptl_crystal_colour            colorless
_exptl_crystal_description       block
_cell_formula_units_Z            2
loop_
_atom_site_label
_atom_site_type_symbol
_atom_site_fract_x
_atom_site_fract_y
_atom_site_fract_z
N1 N 0.4131(3) 0.6933(3) 0.4910(3)
N2 N 0.6520(4) 0.6689(3) 0.4924(4)
H1 H 0.7397 0.6702 0.5143
N3 N 0.1917(3) 0.8228(3) 0.4525(2)
N4 N 0.0386(4) 0.9213(5) 0.3404(3)
H2 H -0.0336 0.9369 0.2968
C1 C 0.2547(4) 0.7212(4) 0.5320(3)
H3 H 0.2004 0.6443 0.5335
H4 H 0.2427 0.7465 0.6148
C2 C 0.0764(4) 0.8108(5) 0.3943(4)
H5 H 0.0296 0.7349 0.3923
C3 C 0.1320(7) 1.0082(5) 0.3642(4)
H6 H 0.1289 1.0950 0.3363
C4 C 0.2299(4) 0.9478(4) 0.4349(3)
H7 H 0.3071 0.9834 0.4652
C5 C 0.5258(5) 0.7128(4) 0.5517(4)
H8 H 0.5163 0.7514 0.6245
C6 C 0.6206(4) 0.6207(4) 0.3901(4)
H9 H 0.6901 0.5841 0.3313
C7 C 0.4726(4) 0.6351(3) 0.3890(3)
H10 H 0.4198 0.6103 0.3299
N5 N 0.3558(17) 0.5981(13) 0.8009(13)
C8 C 0.4261(17) 0.5576(14) 0.8723(15)
C9 C 0.477(3) 0.511(3) 0.9587(16)
H11 H 0.5566 0.5610 0.9742
H12 H 0.5167 0.4258 0.9439
H13 H 0.4006 0.5069 1.0286
N5A N 0.6442(17) 0.4019(13) 1.1991(13)
C8A C 0.5739(17) 0.4424(14) 1.1277(15)
C9A C 0.523(3) 0.489(3) 1.0413(16)
H11A H 0.4434 0.4390 1.0258
H12A H 0.4833 0.5742 1.0561
H13A H 0.5994 0.4931 0.9714
O1 O 0.2007(3) 0.5490(2) 0.2841(2)
O2 O 0.1225(3) 0.3361(2) 0.3627(2)
O3 O -0.0600(3) 0.5150(2) 0.3500(2)
S1 S 0.08321(9) 0.45953(8) 0.29720(7)
C10 C -0.0527(4) 0.6419(3) 0.0895(3)
H14 H -0.0488 0.6655 0.1676
C11 C 0.0035(3) 0.5176(3) 0.0603(3)
C12 C 0.0657(3) 0.4242(3) 0.1461(3)
C13 C 0.1195(4) 0.3065(3) 0.1123(3)
H15 H 0.1618 0.2476 0.1683
C14 C 0.1118(5) 0.2729(3) -0.0061(3)
H16 H 0.1476 0.1917 -0.0273
O1A O -0.2007(3) 0.4510(2) -0.2841(2)
O2A O -0.1225(3) 0.6639(2) -0.3627(2)
O3A O 0.0600(3) 0.4850(2) -0.3500(2)
S1A S -0.08321(9) 0.54047(8) -0.29720(7)
C10A C 0.0527(4) 0.3581(3) -0.0895(3)
H14A H 0.0488 0.3345 -0.1676
C11A C -0.0035(3) 0.4824(3) -0.0603(3)
C12A C -0.0657(3) 0.5758(3) -0.1461(3)
C13A C -0.1195(4) 0.6935(3) -0.1123(3)
H15A H -0.1618 0.7524 -0.1683
C14A C -0.1118(5) 0.7271(3) 0.0061(3)
H16A H -0.1476 0.8083 0.0273
O4 O 0.1872(3) 0.8937(3) 0.7539(2)
O5 O 0.4328(3) 0.9643(3) 0.6715(2)
O6 O 0.2378(3) 1.1157(3) 0.7508(2)
S2 S 0.30131(10) 0.98418(9) 0.75892(8)
C15 C 0.5508(4) 1.1170(3) 0.8636(3)
H17 H 0.5216 1.1411 0.7868
C16 C 0.4779(3) 1.0178(3) 0.9405(3)
C17 C 0.3602(4) 0.9505(3) 0.9062(3)
C18 C 0.2915(4) 0.8562(4) 0.9850(3)
H18 H 0.2139 0.8143 0.9618
C19 C 0.3376(4) 0.8223(4) 1.1005(3)
H19 H 0.2909 0.7574 1.1529
O4A O 0.8128(3) 1.1063(3) 1.2461(2)
O5A O 0.5672(3) 1.0357(3) 1.3285(2)
O6A O 0.7622(3) 0.8843(3) 1.2492(2)
S2A S 0.69869(10) 1.01582(9) 1.24108(8)
C15A C 0.4492(4) 0.8830(3) 1.1364(3)
H17A H 0.4784 0.8589 1.2132
C16A C 0.5221(3) 0.9822(3) 1.0595(3)
C17A C 0.6398(4) 1.0495(3) 1.0938(3)
C18A C 0.7085(4) 1.1438(4) 1.0150(3)
H18A H 0.7861 1.1857 1.0382
C19A C 0.6624(4) 1.1777(4) 0.8995(3)
H19A H 0.7091 1.2426 0.8471
loop_
_geom_bond_atom_site_label_1
_geom_bond_atom_site_label_2
_geom_bond_site_symmetry_1
_geom_bond_site_symmetry_2
N1 C1 1_555 1_555
N2 H1 1_555 1_555
N3 C1 1_555 1_555
N4 H2 1_555 1_555
C1 H3 1_555 1_555
H4 C1 1_555 1_555
C2 N3 1_555 1_555
H5 C2 1_555 1_555
C3 N4 1_555 1_555
H6 C3 1_555 1_555
C4 N3 1_555 1_555
H7 C4 1_555 1_555
C5 N1 1_555 1_555
H8 C5 1_555 1_555
C6 N2 1_555 1_555
H9 C6 1_555 1_555
C7 N1 1_555 1_555
H10 C7 1_555 1_555
N5 C8 1_555 1_555
C8 C9 1_555 1_555
C9 H11 1_555 1_555
H12 C9 1_555 1_555
H13 C9 1_555 1_555
O1 S1 1_555 1_555
O2 S1 1_555 1_555
O3 S1 1_555 1_555
S1 C12 1_555 1_555
C10 H14 1_555 1_555
C11 C10 1_555 1_555
C12 C11 1_555 1_555
C13 C12 1_555 1_555
H15 C13 1_555 1_555
C14 C13 1_555 1_555
H16 C14 1_555 1_555
O4 S2 1_555 1_555
O5 S2 1_555 1_555
O6 S2 1_555 1_555
S2 C17 1_555 1_555
C15 H17 1_555 1_555
C16 C15 1_555 1_555
C17 C16 1_555 1_555
C18 C17 1_555 1_555
H18 C18 1_555 1_555
C19 C18 1_555 1_555
H19 C19 1_555 1_555
N5A C8A 1_555 1_555
C8A C9A 1_555 1_555
C9A H11A 1_555 1_555
H12A C9A 1_555 1_555
H13A C9A 1_555 1_555
O1A S1A 1_555 1_555
O2A S1A 1_555 1_555
O3A S1A 1_555 1_555
S1A C12A 1_555 1_555
C10A C14 1_555 1_555
H14A C10A 1_555 1_555
C11A C11 1_555 1_555
C12A C11A 1_555 1_555
C13A C12A 1_555 1_555
H15A C13A 1_555 1_555
C14A C10 1_555 1_555
H16A C14A 1_555 1_555
O4A S2A 1_555 1_555
O5A S2A 1_555 1_555
O6A S2A 1_555 1_555
S2A C17A 1_555 1_555
C15A C19 1_555 1_555
H17A C15A 1_555 1_555
C16A C16 1_555 1_555
C17A C16A 1_555 1_555
C18A C17A 1_555 1_555
H18A C18A 1_555 1_555
C19A C15 1_555 1_555
H19A C19A 1_555 1_555
N2 C5 1_555 1_555
N4 C2 1_555 1_555
C3 C4 1_555 1_555
C6 C7 1_555 1_555
C10A C11A 1_555 1_555
C13A C14A 1_555 1_555
C15A C16A 1_555 1_555
C18A C19A 1_555 1_555

#END
