
#######################################################################
#
#                 Cambridge Crystallographic Data Centre
#                                CCDC 
#
#######################################################################
#
# If this CIF has been generated from an entry in the Cambridge 
# Structural Database, then it will include bibliographic, chemical, 
# crystal, experimental, refinement or atomic coordinate data resulting 
# from the CCDC's data processing and validation procedures.
#
#######################################################################

data_YUMROP
_chemical_formula_moiety         'C5 H8 N3 1+,C2 Cl3 O2 1-'
_chemical_name_systematic        '2,6-diaminopyridin-1-ium trichloroacetate'
_symmetry_cell_setting           monoclinic
_symmetry_space_group_name_H-M   'P 21/c'
_symmetry_Int_Tables_number      14
_space_group_name_Hall           '-P 2ybc'
loop_
_symmetry_equiv_pos_site_id
_symmetry_equiv_pos_as_xyz
1 x,y,z
2 -x,1/2+y,1/2-z
3 -x,-y,-z
4 x,1/2-y,1/2+z
_cell_length_a                   5.8637(7)
_cell_length_b                   16.933(2)
_cell_length_c                   11.8136(16)
_cell_angle_alpha                90
_cell_angle_beta                 100.5160(10)
_cell_angle_gamma                90
_cell_volume                     1153.27
_exptl_crystal_colour            colorless
_exptl_crystal_description       block
_cell_formula_units_Z            4
loop_
_atom_site_label
_atom_site_type_symbol
_atom_site_fract_x
_atom_site_fract_y
_atom_site_fract_z
Cl1 Cl 0.3611(2) 0.45873(8) 0.34056(12)
Cl2 Cl -0.0456(2) 0.40105(9) 0.19341(14)
Cl3 Cl 0.2937(3) 0.49148(10) 0.10042(14)
O1 O 0.5133(5) 0.31206(18) 0.2563(2)
O2 O 0.3128(6) 0.3160(2) 0.0791(3)
C1 C 0.3721(7) 0.3417(3) 0.1763(4)
C2 C 0.2531(7) 0.4197(3) 0.2026(4)
N1 N 0.7956(6) 0.1932(2) 0.1882(3)
H1 H 0.6898 0.2233 0.2064
N2 N 0.9647(7) 0.1950(3) 0.3792(3)
H2 H 0.8533 0.2249 0.3914
H3 H 1.0723 0.1814 0.4354
N3 N 0.5981(6) 0.2016(2) 0.0023(3)
H4 H 0.5014 0.2323 0.0271
H5 H 0.5789 0.1899 -0.0697
C3 C 0.9707(8) 0.1696(3) 0.2729(4)
C4 C 1.1390(8) 0.1206(3) 0.2429(5)
H6 H 1.2622 0.1031 0.2982
C5 C 1.1207(9) 0.0983(3) 0.1297(6)
H7 H 1.2336 0.0653 0.1096
C6 C 0.9434(9) 0.1226(3) 0.0460(5)
H8 H 0.9346 0.1063 -0.0298
C7 C 0.7783(8) 0.1717(3) 0.0757(4)
loop_
_geom_bond_atom_site_label_1
_geom_bond_atom_site_label_2
_geom_bond_site_symmetry_1
_geom_bond_site_symmetry_2
Cl1 C2 1_555 1_555
Cl2 C2 1_555 1_555
Cl3 C2 1_555 1_555
O1 C1 1_555 1_555
O2 C1 1_555 1_555
C1 C2 1_555 1_555
N1 H1 1_555 1_555
N2 H2 1_555 1_555
H3 N2 1_555 1_555
N3 H4 1_555 1_555
H5 N3 1_555 1_555
C3 N1 1_555 1_555
C4 C3 1_555 1_555
H6 C4 1_555 1_555
C5 C4 1_555 1_555
H7 C5 1_555 1_555
C6 C5 1_555 1_555
H8 C6 1_555 1_555
C7 N1 1_555 1_555
N2 C3 1_555 1_555
N3 C7 1_555 1_555
C6 C7 1_555 1_555

#END
