
#######################################################################
#
#                 Cambridge Crystallographic Data Centre
#                                CCDC 
#
#######################################################################
#
# If this CIF has been generated from an entry in the Cambridge 
# Structural Database, then it will include bibliographic, chemical, 
# crystal, experimental, refinement or atomic coordinate data resulting 
# from the CCDC's data processing and validation procedures.
#
#######################################################################

data_YUMSEG
_chemical_formula_moiety         'C5 H8 N3 1+,C7 H5 O4 1-'
_chemical_name_systematic        
'2,6-diaminopyridin-1-ium 3,5-dihydroxybenzoate'
_symmetry_cell_setting           tetragonal
_symmetry_space_group_name_H-M   'I 41 c d'
_symmetry_Int_Tables_number      110
_space_group_name_Hall           'I 4bw -2c'
loop_
_symmetry_equiv_pos_site_id
_symmetry_equiv_pos_as_xyz
1 x,y,z
2 1/2-x,1/2-y,1/2+z
3 -y,1/2+x,1/4+z
4 1/2+y,-x,3/4+z
5 x,-y,1/2+z
6 1/2-x,1/2+y,z
7 -y,1/2-x,3/4+z
8 1/2+y,x,1/4+z
9 1/2+x,1/2+y,1/2+z
10 -x,-y,z
11 1/2-y,x,3/4+z
12 y,1/2-x,1/4+z
13 1/2+x,1/2-y,z
14 -x,y,1/2+z
15 1/2-y,-x,1/4+z
16 y,1/2+x,3/4+z
_cell_length_a                   18.5183(7)
_cell_length_b                   18.5183(7)
_cell_length_c                   14.6915(5)
_cell_angle_alpha                90
_cell_angle_beta                 90
_cell_angle_gamma                90
_cell_volume                     5038.12
_exptl_crystal_colour            colorless
_exptl_crystal_description       block
_cell_formula_units_Z            16
loop_
_atom_site_label
_atom_site_type_symbol
_atom_site_fract_x
_atom_site_fract_y
_atom_site_fract_z
N1 N 0.1696(3) 0.2388(3) 0.4413(3)
H1 H 0.1297 0.2158 0.4486
N2 N 0.2269(3) 0.1283(3) 0.4349(4)
H2 H 0.1855 0.1079 0.4416
H3 H 0.2651 0.1023 0.4297
N3 N 0.1116(14) 0.3546(17) 0.4540(12)
H4 H 0.0662 0.3384 0.4465
H5 H 0.1194 0.4004 0.4721
C1 C 0.2317(3) 0.2000(3) 0.4327(3)
C2 C 0.2959(3) 0.2370(3) 0.4219(4)
H6 H 0.3392 0.2122 0.4154
C3 C 0.2944(4) 0.3098(4) 0.4208(5)
H7 H 0.3378 0.3346 0.4143
C4 C 0.2321(5) 0.3490(4) 0.4288(5)
H8 H 0.2331 0.3992 0.4275
C5 C 0.1678(4) 0.3122(4) 0.4388(4)
O1 O 0.1453(2) 0.4618(2) -0.0813(2)
O2 O 0.0400(2) 0.4022(2) -0.0823(2)
O3 O -0.0240(2) 0.3723(2) 0.2448(2)
H11 H -0.0215 0.3804 0.2995
O4 O 0.1774(2) 0.53562(19) 0.2454(2)
H12 H 0.1681 0.5354 0.3000
C6 C 0.0909(3) 0.4342(3) -0.0430(3)
C7 C 0.0867(3) 0.4406(3) 0.0597(3)
C8 C 0.0338(3) 0.4035(3) 0.1067(3)
H13 H 0.0013 0.3743 0.0754
C9 C 0.0292(3) 0.4097(3) 0.2005(3)
C10 C 0.0771(3) 0.4532(3) 0.2472(3)
H14 H 0.0738 0.4576 0.3101
C11 C 0.1299(3) 0.4903(3) 0.2001(3)
C12 C 0.1355(3) 0.4835(3) 0.1064(3)
H15 H 0.1718 0.5077 0.0750
N4? N 0.0878(18) 0.322(3) 0.4399(17)
H9? H 0.0691 0.3661 0.4325
H10? H 0.0583 0.2836 0.4487
loop_
_geom_bond_atom_site_label_1
_geom_bond_atom_site_label_2
_geom_bond_site_symmetry_1
_geom_bond_site_symmetry_2
N1 H1 1_555 1_555
N2 H2 1_555 1_555
H3 N2 1_555 1_555
N3 H4 1_555 1_555
H5 N3 1_555 1_555
C1 N1 1_555 1_555
C2 C1 1_555 1_555
H6 C2 1_555 1_555
C3 C2 1_555 1_555
H7 C3 1_555 1_555
C4 C3 1_555 1_555
H8 C4 1_555 1_555
C5 N1 1_555 1_555
O1 C6 1_555 1_555
O2 C6 1_555 1_555
O3 H11 1_555 1_555
O4 H12 1_555 1_555
C6 C7 1_555 1_555
C7 C8 1_555 1_555
C8 H13 1_555 1_555
C9 O3 1_555 1_555
C10 C9 1_555 1_555
H14 C10 1_555 1_555
C11 O4 1_555 1_555
C12 C7 1_555 1_555
H15 C12 1_555 1_555
N2 C1 1_555 1_555
N3 C5 1_555 1_555
C4 C5 1_555 1_555
C8 C9 1_555 1_555
C10 C11 1_555 1_555
C11 C12 1_555 1_555

#END
