
#######################################################################
#
#                 Cambridge Crystallographic Data Centre
#                                CCDC 
#
#######################################################################
#
# If this CIF has been generated from an entry in the Cambridge 
# Structural Database, then it will include bibliographic, chemical, 
# crystal, experimental, refinement or atomic coordinate data resulting 
# from the CCDC's data processing and validation procedures.
#
#######################################################################

data_YUMSUW
_chemical_formula_moiety         'C10 H6 O6 S2 2-,2(C5 H8 N3 1+)'
_chemical_name_systematic        
'bis(2,6-diaminopyridin-1-ium) naphthalene-1,5-disulfonate'
_symmetry_cell_setting           triclinic
_symmetry_space_group_name_H-M   'P -1'
_symmetry_Int_Tables_number      2
_space_group_name_Hall           '-P 1'
loop_
_symmetry_equiv_pos_site_id
_symmetry_equiv_pos_as_xyz
1 x,y,z
2 -x,-y,-z
_cell_length_a                   7.3986(5)
_cell_length_b                   8.0380(7)
_cell_length_c                   9.6322(8)
_cell_angle_alpha                107.324(2)
_cell_angle_beta                 91.8590(10)
_cell_angle_gamma                95.7580(10)
_cell_volume                     542.91
_exptl_crystal_colour            colorless
_exptl_crystal_description       block
_cell_formula_units_Z            1
loop_
_atom_site_label
_atom_site_type_symbol
_atom_site_fract_x
_atom_site_fract_y
_atom_site_fract_z
N1 N 0.2675(3) 0.3529(2) 0.4522(2)
H1 H 0.2390 0.3221 0.5276
N2 N 0.1946(3) 0.6257(3) 0.5790(3)
H2 H 0.1693 0.5849 0.6499
H3 H 0.1829 0.7334 0.5867
N3 N 0.3347(3) 0.0712(3) 0.3515(3)
H4 H 0.3058 0.0508 0.4311
H5 H 0.3701 -0.0107 0.2814
C1 C 0.2526(3) 0.5211(3) 0.4558(3)
C2 C 0.2979(4) 0.5710(4) 0.3353(3)
H6 H 0.2898 0.6852 0.3339
C3 C 0.3556(4) 0.4486(4) 0.2169(3)
H7 H 0.3865 0.4822 0.1355
C4 C 0.3689(3) 0.2792(4) 0.2149(3)
H8 H 0.4070 0.1987 0.1332
C5 C 0.3247(3) 0.2299(3) 0.3368(3)
O1 O 0.4225(2) 0.1739(2) 0.8383(2)
O2 O 0.2126(3) 0.0102(2) 0.63469(19)
O3 O 0.2202(3) 0.3244(2) 0.7278(2)
S1 S 0.24724(9) 0.16426(8) 0.76296(7)
C6 C -0.1731(3) 0.2605(3) 1.0204(3)
H9 H -0.2524 0.3460 1.0434
C7 C -0.0386(3) 0.2694(3) 0.9225(3)
H10 H -0.0293 0.3606 0.8813
C8 C 0.0789(3) 0.1445(3) 0.8874(2)
C9 C 0.0683(3) 0.0035(3) 0.9500(2)
C10 C 0.1885(3) -0.1281(3) 0.9182(3)
H11 H 0.2791 -0.1237 0.8543
O1A O -0.4225(2) -0.1739(2) 1.1617(2)
O2A O -0.2126(3) -0.0102(2) 1.36531(19)
O3A O -0.2202(3) -0.3244(2) 1.2722(2)
S1A S -0.24724(9) -0.16426(8) 1.23704(7)
C6A C 0.1731(3) -0.2605(3) 0.9796(3)
H9A H 0.2524 -0.3460 0.9566
C7A C 0.0386(3) -0.2694(3) 1.0775(3)
H10A H 0.0293 -0.3606 1.1187
C8A C -0.0789(3) -0.1445(3) 1.1126(2)
C9A C -0.0683(3) -0.0035(3) 1.0500(2)
C10A C -0.1885(3) 0.1281(3) 1.0818(3)
H11A H -0.2791 0.1237 1.1457
loop_
_geom_bond_atom_site_label_1
_geom_bond_atom_site_label_2
_geom_bond_site_symmetry_1
_geom_bond_site_symmetry_2
N1 H1 1_555 1_555
N2 H2 1_555 1_555
H3 N2 1_555 1_555
N3 H4 1_555 1_555
H5 N3 1_555 1_555
C1 N1 1_555 1_555
C2 C1 1_555 1_555
H6 C2 1_555 1_555
C3 C2 1_555 1_555
H7 C3 1_555 1_555
C4 C3 1_555 1_555
H8 C4 1_555 1_555
C5 N1 1_555 1_555
O1 S1 1_555 1_555
O2 S1 1_555 1_555
O3 S1 1_555 1_555
S1 C8 1_555 1_555
C6 H9 1_555 1_555
C7 C6 1_555 1_555
H10 C7 1_555 1_555
C8 C7 1_555 1_555
C9 C8 1_555 1_555
C10 C9 1_555 1_555
H11 C10 1_555 1_555
O1A S1A 1_555 1_555
O2A S1A 1_555 1_555
O3A S1A 1_555 1_555
S1A C8A 1_555 1_555
C6A C10 1_555 1_555
H9A C6A 1_555 1_555
C7A C6A 1_555 1_555
H10A C7A 1_555 1_555
C8A C7A 1_555 1_555
C9A C9 1_555 1_555
C10A C6 1_555 1_555
H11A C10A 1_555 1_555
N2 C1 1_555 1_555
N3 C5 1_555 1_555
C4 C5 1_555 1_555
C8A C9A 1_555 1_555
C9A C10A 1_555 1_555

#END
