
#######################################################################
#
#                 Cambridge Crystallographic Data Centre
#                                CCDC 
#
#######################################################################
#
# If this CIF has been generated from an entry in the Cambridge 
# Structural Database, then it will include bibliographic, chemical, 
# crystal, experimental, refinement or atomic coordinate data resulting 
# from the CCDC's data processing and validation procedures.
#
#######################################################################

data_YUMSOQ
_chemical_formula_moiety         '2(C5 H8 N3 1+),C8 H4 O4 2-,2(H2 O1)'
_chemical_name_systematic        
'bis(2,6-diaminopyridin-1-ium) isophthalate dihydrate'
_symmetry_cell_setting           monoclinic
_symmetry_space_group_name_H-M   'P 21/n'
_symmetry_Int_Tables_number      14
_space_group_name_Hall           '-P 2yn'
loop_
_symmetry_equiv_pos_site_id
_symmetry_equiv_pos_as_xyz
1 x,y,z
2 1/2-x,1/2+y,1/2-z
3 -x,-y,-z
4 1/2+x,1/2-y,1/2+z
_cell_length_a                   7.2051(7)
_cell_length_b                   40.052(3)
_cell_length_c                   7.7119(4)
_cell_angle_alpha                90
_cell_angle_beta                 112.091(2)
_cell_angle_gamma                90
_cell_volume                     2062.11
_exptl_crystal_colour            colorless
_exptl_crystal_description       block
_cell_formula_units_Z            4
loop_
_atom_site_label
_atom_site_type_symbol
_atom_site_fract_x
_atom_site_fract_y
_atom_site_fract_z
N1 N 0.2256(5) 0.17146(9) 0.7099(5)
H1 H 0.2840 0.1678 0.8279
N2 N 0.2517(6) 0.11491(10) 0.6679(5)
H2 H 0.3065 0.1130 0.7876
H3 H 0.2344 0.0975 0.5982
N3 N 0.2059(6) 0.22681(10) 0.7818(5)
H4 H 0.2625 0.2217 0.8982
H5 H 0.1726 0.2472 0.7496
C1 C 0.1925(7) 0.14521(11) 0.5891(6)
C2 C 0.1071(8) 0.15106(13) 0.4002(6)
H6 H 0.0870 0.1337 0.3152
C3 C 0.0518(8) 0.18302(14) 0.3392(6)
H7 H -0.0082 0.1869 0.2112
C4 C 0.0817(7) 0.20962(13) 0.4600(6)
H8 H 0.0442 0.2311 0.4152
C5 C 0.1699(7) 0.20322(12) 0.6513(6)
N4 N 0.7804(5) 0.03714(8) 0.0335(4)
H9 H 0.7932 0.0543 -0.0282
N5 N 0.7381(6) 0.00659(9) -0.2311(5)
H10 H 0.7481 0.0250 -0.2847
H11 H 0.7196 -0.0119 -0.2917
N6 N 0.8114(6) 0.07339(10) 0.2737(5)
H12 H 0.8177 0.0895 0.2026
H13 H 0.8184 0.0775 0.3856
C6 C 0.7512(7) 0.00683(11) -0.0531(6)
C7 C 0.7408(7) -0.02104(11) 0.0475(6)
H14 H 0.7237 -0.0422 -0.0059
C8 C 0.7565(7) -0.01660(12) 0.2289(6)
H15 H 0.7500 -0.0353 0.2978
C9 C 0.7812(8) 0.01401(12) 0.3133(6)
H16 H 0.7915 0.0161 0.4366
C10 C 0.7906(7) 0.04183(12) 0.2102(6)
O1 O 0.8355(5) 0.09716(8) 0.9066(4)
O2 O 0.7262(5) 0.07754(8) 0.6151(4)
O3 O 0.4127(5) 0.15986(8) 0.0890(4)
O4 O 0.4832(6) 0.21315(9) 0.1496(4)
C11 C 0.7625(7) 0.10112(12) 0.7302(6)
C12 C 0.4847(8) 0.18362(12) 0.2016(6)
C13 C 0.7160(7) 0.13640(11) 0.6613(5)
C14 C 0.6277(6) 0.14371(10) 0.4718(5)
H17 H 0.5993 0.1264 0.3854
C15 C 0.5814(7) 0.17593(11) 0.4086(5)
C16 C 0.6195(7) 0.20183(11) 0.5379(6)
H18 H 0.5882 0.2237 0.4968
C17 C 0.7042(7) 0.19498(12) 0.7278(6)
H19 H 0.7295 0.2122 0.8145
C18 C 0.7506(7) 0.16246(12) 0.7875(6)
H20 H 0.8064 0.1580 0.9151
O5 O 0.3281(5) 0.06131(8) 0.4075(4)
H21 H 0.4493 0.0656 0.4758
H22 H 0.2972 0.0727 0.3075
O6 O 0.2508(5) 0.09980(8) 0.0854(4)
H23 H 0.2957 0.1193 0.0830
H24 H 0.1242 0.1002 0.0293
loop_
_geom_bond_atom_site_label_1
_geom_bond_atom_site_label_2
_geom_bond_site_symmetry_1
_geom_bond_site_symmetry_2
N1 H1 1_555 1_555
N2 H2 1_555 1_555
H3 N2 1_555 1_555
N3 H4 1_555 1_555
H5 N3 1_555 1_555
C1 N1 1_555 1_555
C2 C1 1_555 1_555
H6 C2 1_555 1_555
C3 C2 1_555 1_555
H7 C3 1_555 1_555
C4 C3 1_555 1_555
H8 C4 1_555 1_555
C5 N1 1_555 1_555
N4 H9 1_555 1_555
N5 H10 1_555 1_555
H11 N5 1_555 1_555
N6 H12 1_555 1_555
H13 N6 1_555 1_555
C6 N4 1_555 1_555
C7 C6 1_555 1_555
H14 C7 1_555 1_555
C8 C7 1_555 1_555
H15 C8 1_555 1_555
C9 C8 1_555 1_555
H16 C9 1_555 1_555
C10 N4 1_555 1_555
O1 C11 1_555 1_555
O2 C11 1_555 1_555
O3 C12 1_555 1_555
O4 C12 1_555 1_555
C11 C13 1_555 1_555
C12 C15 1_555 1_555
C13 C14 1_555 1_555
C14 H17 1_555 1_555
C15 C14 1_555 1_555
C16 C15 1_555 1_555
H18 C16 1_555 1_555
C17 C16 1_555 1_555
H19 C17 1_555 1_555
C18 C13 1_555 1_555
H20 C18 1_555 1_555
O5 H21 1_555 1_555
H22 O5 1_555 1_555
O6 H23 1_555 1_555
H24 O6 1_555 1_555
N2 C1 1_555 1_555
N3 C5 1_555 1_555
C4 C5 1_555 1_555
N5 C6 1_555 1_555
N6 C10 1_555 1_555
C9 C10 1_555 1_555
C17 C18 1_555 1_555

#END
