
#######################################################################
#
#                 Cambridge Crystallographic Data Centre
#                                CCDC 
#
#######################################################################
#
# If this CIF has been generated from an entry in the Cambridge 
# Structural Database, then it will include bibliographic, chemical, 
# crystal, experimental, refinement or atomic coordinate data resulting 
# from the CCDC's data processing and validation procedures.
#
#######################################################################

data_YUMVOS
_chemical_formula_moiety         'C8 H6 F2 O2'
_chemical_name_systematic        2,4-Difluoro-6-methoxybenzaldehyde
_symmetry_cell_setting           orthorhombic
_symmetry_space_group_name_H-M   'P b c a'
_symmetry_Int_Tables_number      61
_space_group_name_Hall           '-P 2ac 2ab'
loop_
_symmetry_equiv_pos_site_id
_symmetry_equiv_pos_as_xyz
1 x,y,z
2 1/2-x,-y,1/2+z
3 1/2+x,1/2-y,-z
4 -x,1/2+y,1/2-z
5 -x,-y,-z
6 1/2+x,y,1/2-z
7 1/2-x,1/2+y,z
8 x,1/2-y,1/2+z
_cell_length_a                   13.825(5)
_cell_length_b                   7.234(3)
_cell_length_c                   14.469(5)
_cell_angle_alpha                90
_cell_angle_beta                 90
_cell_angle_gamma                90
_cell_volume                     1447.05
_exptl_crystal_colour            colorless
_exptl_crystal_description       needle
_cell_formula_units_Z            8
loop_
_atom_site_label
_atom_site_type_symbol
_atom_site_fract_x
_atom_site_fract_y
_atom_site_fract_z
C1 C 0.84556(15) 0.0608(3) -0.09399(13)
H1 H 0.9114 0.0689 -0.0755
C2 C 0.77241(13) 0.1127(3) -0.02504(12)
C3 C 0.67330(15) 0.1098(3) -0.04339(14)
C4 C 0.60377(15) 0.1605(3) 0.02004(15)
H2 H 0.5368 0.1599 0.0052
C5 C 0.63644(15) 0.2118(3) 0.10557(14)
C6 C 0.73225(13) 0.2175(3) 0.13108(13)
H3 H 0.7513 0.2547 0.1914
C7 C 0.79984(13) 0.1666(3) 0.06515(13)
C8 C 0.92921(16) 0.2082(4) 0.17397(14)
H4 H 0.9125 0.3365 0.1885
H5 H 0.9995 0.1924 0.1776
H6 H 0.8978 0.1254 0.2184
O1 O 0.83000(12) 0.0088(3) -0.17195(10)
O2 O 0.89652(9) 0.1642(2) 0.08168(9)
F1 F 0.64254(9) 0.0557(2) -0.12743(9)
F2 F 0.56953(9) 0.2632(2) 0.16899(9)
loop_
_geom_bond_atom_site_label_1
_geom_bond_atom_site_label_2
_geom_bond_site_symmetry_1
_geom_bond_site_symmetry_2
C1 H1 1_555 1_555
C2 C1 1_555 1_555
C3 C2 1_555 1_555
C4 C3 1_555 1_555
H2 C4 1_555 1_555
C5 C4 1_555 1_555
C6 C5 1_555 1_555
H3 C6 1_555 1_555
C7 C2 1_555 1_555
C8 H4 1_555 1_555
H5 C8 1_555 1_555
H6 C8 1_555 1_555
O1 C1 1_555 1_555
O2 C7 1_555 1_555
F1 C3 1_555 1_555
F2 C5 1_555 1_555
C6 C7 1_555 1_555
C8 O2 1_555 1_555

#END
