
#######################################################################
#
#                 Cambridge Crystallographic Data Centre
#                                CCDC 
#
#######################################################################
#
# If this CIF has been generated from an entry in the Cambridge 
# Structural Database, then it will include bibliographic, chemical, 
# crystal, experimental, refinement or atomic coordinate data resulting 
# from the CCDC's data processing and validation procedures.
#
#######################################################################

data_YUNBEP
_chemical_formula_moiety         'C52 H64 O8 Si2,C4 H8 O2'
_chemical_name_systematic        
'5-(dimethyl(phenyl)silyl)-1-(4-methoxyphenyl)-16-methyl-15-((((t-butyl)(diphenyl)silyl)oxy)methyl)-2,8,22,23-tetraoxaheptacyclo[16.4.1.0^3,20^.0^7,9^.0^7,20^.0^11,19^.0^12,16^]tricosane-10,12-diol ethyl acetate solvate'
_symmetry_cell_setting           monoclinic
_symmetry_space_group_name_H-M   'P 21'
_symmetry_Int_Tables_number      4
_space_group_name_Hall           'P 2yb'
loop_
_symmetry_equiv_pos_site_id
_symmetry_equiv_pos_as_xyz
1 x,y,z
2 -x,1/2+y,-z
_cell_length_a                   17.3633(16)
_cell_length_b                   7.1192(7)
_cell_length_c                   20.293(2)
_cell_angle_alpha                90
_cell_angle_beta                 96.085(2)
_cell_angle_gamma                90
_cell_volume                     2494.34
_exptl_crystal_colour            colorless
_exptl_crystal_description       rod
_cell_formula_units_Z            2
loop_
_atom_site_label
_atom_site_type_symbol
_atom_site_fract_x
_atom_site_fract_y
_atom_site_fract_z
Si1 Si 0.76892(7) -0.1378(2) 0.01847(7)
Si2 Si 0.14156(7) 0.03248(18) 0.33292(6)
C1 C 0.6658(2) 0.1536(7) 0.1684(2)
H1 H 0.6663 0.0419 0.1984
O1 O 0.69733(18) 0.3126(5) 0.20855(16)
C2 C 0.7234(3) 0.1152(7) 0.1186(2)
H2 H 0.7745 0.0840 0.1424
H3 H 0.7294 0.2293 0.0917
C3 C 0.6955(2) -0.0470(7) 0.0733(2)
H4 H 0.6828 -0.1534 0.1025
C4 C 0.6180(2) 0.0178(7) 0.0340(2)
H5 H 0.6267 0.1339 0.0090
H6 H 0.5988 -0.0807 0.0019
C5 C 0.5588(2) 0.0539(7) 0.0820(2)
O2 O 0.48131(17) 0.0815(5) 0.04938(15)
C6 C 0.4999(3) -0.0887(7) 0.0870(2)
H7 H 0.5053 -0.2047 0.0601
C7 C 0.4591(3) -0.1143(7) 0.1483(2)
H8 H 0.4923 -0.1944 0.1803
O3 O 0.3899(2) -0.2125(6) 0.12844(19)
H9 H 0.3532 -0.1633 0.1461
C8 C 0.4484(2) 0.0767(6) 0.1806(2)
H10 H 0.4190 0.1609 0.1475
C9 C 0.5295(2) 0.1625(7) 0.1999(2)
H11 H 0.5580 0.0734 0.2319
C10 C 0.5808(2) 0.1887(7) 0.1405(2)
C11 C 0.5218(3) 0.3478(7) 0.2372(2)
H12 H 0.4948 0.4433 0.2068
O4 O 0.59619(18) 0.4171(5) 0.26349(16)
C12 C 0.4783(3) 0.3215(8) 0.2975(2)
H13 H 0.4749 0.4442 0.3199
H14 H 0.5083 0.2355 0.3288
C13 C 0.3962(3) 0.2421(8) 0.2816(3)
C14 C 0.4025(2) 0.0580(7) 0.2421(2)
O5 O 0.32459(17) 0.0002(5) 0.21507(16)
H15 H 0.2933 0.0217 0.2430
C15 C 0.4329(3) -0.0833(8) 0.2936(2)
H16 H 0.4900 -0.0756 0.3020
H17 H 0.4184 -0.2124 0.2790
C16 C 0.3945(3) -0.0306(10) 0.3570(3)
H18 H 0.3494 -0.1125 0.3617
H19 H 0.4321 -0.0446 0.3970
C17 C 0.3688(3) 0.1763(9) 0.3480(3)
H20 H 0.4002 0.2487 0.3836
C18 C 0.3449(3) 0.3910(8) 0.2454(3)
H21 H 0.3402 0.4986 0.2749
H22 H 0.2935 0.3381 0.2322
H23 H 0.3681 0.4323 0.2059
C19 C 0.5755(2) 0.3913(7) 0.1125(2)
H24 H 0.6011 0.3954 0.0711
H25 H 0.5203 0.4243 0.1011
O6 O 0.61080(17) 0.5287(5) 0.15789(15)
C20 C 0.2840(3) 0.2056(8) 0.3597(3)
H26 H 0.2787 0.1914 0.4076
H27 H 0.2681 0.3350 0.3465
O7 O 0.23444(17) 0.0753(5) 0.32322(15)
C21 C 0.6487(3) 0.4629(7) 0.2177(2)
C22 C 0.6993(3) 0.6227(7) 0.2496(2)
C23 C 0.6704(3) 0.7491(7) 0.2921(2)
H28 H 0.6191 0.7328 0.3035
C24 C 0.7137(3) 0.8984(7) 0.3186(2)
H29 H 0.6928 0.9843 0.3478
C25 C 0.7894(3) 0.9208(7) 0.3015(2)
O8 O 0.8386(2) 1.0623(6) 0.32529(19)
C26 C 0.8191(3) 0.7948(8) 0.2610(3)
H30 H 0.8707 0.8100 0.2504
C27 C 0.7752(3) 0.6430(8) 0.2344(2)
H31 H 0.7968 0.5548 0.2065
C28 C 0.8087(4) 1.2091(9) 0.3643(4)
H32 H 0.7643 1.2689 0.3387
H33 H 0.8492 1.3029 0.3757
H34 H 0.7923 1.1553 0.4050
C29 C 0.8373(3) -0.2986(9) 0.0681(3)
H35 H 0.8084 -0.4039 0.0845
H36 H 0.8639 -0.2298 0.1057
H37 H 0.8755 -0.3467 0.0401
C30 C 0.7174(3) -0.2662(9) -0.0523(3)
H38 H 0.7546 -0.3047 -0.0829
H39 H 0.6781 -0.1842 -0.0756
H40 H 0.6923 -0.3777 -0.0360
C31 C 0.8242(2) 0.0629(7) -0.0135(2)
C32 C 0.7920(3) 0.1767(9) -0.0657(3)
H41 H 0.7402 0.1543 -0.0841
C33 C 0.8328(3) 0.3184(8) -0.0911(3)
H42 H 0.8083 0.3933 -0.1260
C34 C 0.9067(3) 0.3547(9) -0.0679(3)
H43 H 0.9347 0.4511 -0.0872
C35 C 0.9420(3) 0.2476(9) -0.0145(3)
H44 H 0.9935 0.2745 0.0036
C36 C 0.9013(3) 0.1034(8) 0.0112(2)
H45 H 0.9258 0.0298 0.0464
C37 C 0.1296(3) -0.2304(8) 0.3266(3)
C38 C 0.1654(5) -0.2963(9) 0.2664(4)
H46 H 0.1524 -0.4288 0.2582
H47 H 0.2217 -0.2820 0.2739
H48 H 0.1452 -0.2211 0.2280
C39 C 0.0444(3) -0.2855(9) 0.3196(4)
H49 H 0.0184 -0.2317 0.2786
H50 H 0.0200 -0.2377 0.3576
H51 H 0.0399 -0.4227 0.3179
C40 C 0.1722(4) -0.3263(9) 0.3881(4)
H52 H 0.1748 -0.4619 0.3804
H53 H 0.1440 -0.3026 0.4267
H54 H 0.2247 -0.2754 0.3965
C41 C 0.0816(3) 0.1495(7) 0.2631(3)
C42 C -0.0005(3) 0.1607(9) 0.2630(3)
H55 H -0.0251 0.1065 0.2980
C43 C -0.0448(3) 0.2529(10) 0.2104(3)
H56 H -0.0996 0.2594 0.2093
C44 C -0.0075(4) 0.3347(9) 0.1597(3)
H57 H -0.0374 0.4006 0.1252
C45 C 0.0692(4) 0.3223(9) 0.1587(3)
H58 H 0.0933 0.3760 0.1233
C46 C 0.1143(3) 0.2291(8) 0.2107(3)
H59 H 0.1687 0.2209 0.2096
C47 C 0.1190(3) 0.1298(7) 0.4152(2)
C48 C 0.1663(3) 0.0850(8) 0.4732(3)
H60 H 0.2076 -0.0016 0.4712
C49 C 0.1537(4) 0.1668(11) 0.5352(3)
H61 H 0.1869 0.1367 0.5740
C50 C 0.0943(4) 0.2873(10) 0.5384(3)
H62 H 0.0859 0.3425 0.5796
C51 C 0.0458(3) 0.3309(9) 0.4824(3)
H63 H 0.0033 0.4134 0.4855
C52 C 0.0585(3) 0.2556(8) 0.4220(3)
H64 H 0.0251 0.2902 0.3837
C53 C 0.6574(10) 0.008(3) 0.5107(9)
H65 H 0.6868 0.0693 0.5485
H66 H 0.6926 -0.0680 0.4868
H67 H 0.6178 -0.0741 0.5266
C54 C 0.6207(12) 0.147(4) 0.4670(11)
O9 O 0.5783(8) 0.115(2) 0.4197(7)
O10 O 0.6504(8) 0.325(3) 0.4729(7)
C55 C 0.6188(11) 0.482(3) 0.4359(9)
H68 H 0.6043 0.4404 0.3897
H69 H 0.6604 0.5769 0.4347
C56 C 0.5495(9) 0.578(3) 0.4596(8)
H70 H 0.5371 0.6912 0.4330
H71 H 0.5613 0.6135 0.5063
H72 H 0.5052 0.4924 0.4550
loop_
_geom_bond_atom_site_label_1
_geom_bond_atom_site_label_2
_geom_bond_site_symmetry_1
_geom_bond_site_symmetry_2
Si1 C3 1_555 1_555
Si2 O7 1_555 1_555
C1 H1 1_555 1_555
O1 C1 1_555 1_555
C2 C1 1_555 1_555
H2 C2 1_555 1_555
H3 C2 1_555 1_555
C3 C2 1_555 1_555
H4 C3 1_555 1_555
C4 C3 1_555 1_555
H5 C4 1_555 1_555
H6 C4 1_555 1_555
C5 C4 1_555 1_555
O2 C5 1_555 1_555
C6 C5 1_555 1_555
H7 C6 1_555 1_555
C7 C6 1_555 1_555
H8 C7 1_555 1_555
O3 C7 1_555 1_555
H9 O3 1_555 1_555
C8 C7 1_555 1_555
H10 C8 1_555 1_555
C9 C8 1_555 1_555
H11 C9 1_555 1_555
C10 C1 1_555 1_555
C11 C9 1_555 1_555
H12 C11 1_555 1_555
O4 C11 1_555 1_555
C12 C11 1_555 1_555
H13 C12 1_555 1_555
H14 C12 1_555 1_555
C13 C12 1_555 1_555
C14 C8 1_555 1_555
O5 C14 1_555 1_555
H15 O5 1_555 1_555
C15 C14 1_555 1_555
H16 C15 1_555 1_555
H17 C15 1_555 1_555
C16 C15 1_555 1_555
H18 C16 1_555 1_555
H19 C16 1_555 1_555
C17 C13 1_555 1_555
H20 C17 1_555 1_555
C18 C13 1_555 1_555
H21 C18 1_555 1_555
H22 C18 1_555 1_555
H23 C18 1_555 1_555
C19 C10 1_555 1_555
H24 C19 1_555 1_555
H25 C19 1_555 1_555
O6 C19 1_555 1_555
C20 C17 1_555 1_555
H26 C20 1_555 1_555
H27 C20 1_555 1_555
O7 C20 1_555 1_555
C21 O1 1_555 1_555
C22 C21 1_555 1_555
C23 C22 1_555 1_555
H28 C23 1_555 1_555
C24 C23 1_555 1_555
H29 C24 1_555 1_555
C25 C24 1_555 1_555
O8 C25 1_555 1_555
C26 C25 1_555 1_555
H30 C26 1_555 1_555
C27 C22 1_555 1_555
H31 C27 1_555 1_555
C28 O8 1_555 1_555
H32 C28 1_555 1_555
H33 C28 1_555 1_555
H34 C28 1_555 1_555
C29 Si1 1_555 1_555
H35 C29 1_555 1_555
H36 C29 1_555 1_555
H37 C29 1_555 1_555
C30 Si1 1_555 1_555
H38 C30 1_555 1_555
H39 C30 1_555 1_555
H40 C30 1_555 1_555
C31 Si1 1_555 1_555
C32 C31 1_555 1_555
H41 C32 1_555 1_555
C33 C32 1_555 1_555
H42 C33 1_555 1_555
C34 C33 1_555 1_555
H43 C34 1_555 1_555
C35 C34 1_555 1_555
H44 C35 1_555 1_555
C36 C31 1_555 1_555
H45 C36 1_555 1_555
C37 Si2 1_555 1_555
C38 C37 1_555 1_555
H46 C38 1_555 1_555
H47 C38 1_555 1_555
H48 C38 1_555 1_555
C39 C37 1_555 1_555
H49 C39 1_555 1_555
H50 C39 1_555 1_555
H51 C39 1_555 1_555
C40 C37 1_555 1_555
H52 C40 1_555 1_555
H53 C40 1_555 1_555
H54 C40 1_555 1_555
C41 Si2 1_555 1_555
C42 C41 1_555 1_555
H55 C42 1_555 1_555
C43 C42 1_555 1_555
H56 C43 1_555 1_555
C44 C43 1_555 1_555
H57 C44 1_555 1_555
C45 C44 1_555 1_555
H58 C45 1_555 1_555
C46 C41 1_555 1_555
H59 C46 1_555 1_555
C47 Si2 1_555 1_555
C48 C47 1_555 1_555
H60 C48 1_555 1_555
C49 C48 1_555 1_555
H61 C49 1_555 1_555
C50 C49 1_555 1_555
H62 C50 1_555 1_555
C51 C50 1_555 1_555
H63 C51 1_555 1_555
C52 C47 1_555 1_555
H64 C52 1_555 1_555
C53 H65 1_555 1_555
H66 C53 1_555 1_555
H67 C53 1_555 1_555
C54 C53 1_555 1_555
O9 C54 1_555 1_555
O10 C54 1_555 1_555
C55 O10 1_555 1_555
H68 C55 1_555 1_555
H69 C55 1_555 1_555
C56 C55 1_555 1_555
H70 C56 1_555 1_555
H71 C56 1_555 1_555
H72 C56 1_555 1_555
C5 C10 1_555 1_555
O2 C6 1_555 1_555
C9 C10 1_555 1_555
O4 C21 1_555 1_555
C13 C14 1_555 1_555
C16 C17 1_555 1_555
O6 C21 1_555 1_555
C26 C27 1_555 1_555
C35 C36 1_555 1_555
C45 C46 1_555 1_555
C51 C52 1_555 1_555

#END
