
#######################################################################
#
#                 Cambridge Crystallographic Data Centre
#                                CCDC 
#
#######################################################################
#
# If this CIF has been generated from an entry in the Cambridge 
# Structural Database, then it will include bibliographic, chemical, 
# crystal, experimental, refinement or atomic coordinate data resulting 
# from the CCDC's data processing and validation procedures.
#
#######################################################################

data_YUNCIV
_chemical_formula_moiety         'C10 H16 N4 2+,2(C7 H4 N1 O4 1-)'
_chemical_name_systematic        
"1,1'-butane-1,4-diylbis-1H-imidazol-3-ium bis(4-nitrobenzoate)"
_symmetry_cell_setting           monoclinic
_symmetry_space_group_name_H-M   'P 21/c'
_symmetry_Int_Tables_number      14
_space_group_name_Hall           '-P 2ybc'
loop_
_symmetry_equiv_pos_site_id
_symmetry_equiv_pos_as_xyz
1 x,y,z
2 -x,1/2+y,1/2-z
3 -x,-y,-z
4 x,1/2-y,1/2+z
_cell_length_a                   13.7165(15)
_cell_length_b                   6.7395(8)
_cell_length_c                   13.6526(16)
_cell_angle_alpha                90
_cell_angle_beta                 101.2640(10)
_cell_angle_gamma                90
_cell_volume                     1237.77
_exptl_crystal_colour            colorless
_exptl_crystal_description       block
_cell_formula_units_Z            2
loop_
_atom_site_label
_atom_site_type_symbol
_atom_site_fract_x
_atom_site_fract_y
_atom_site_fract_z
N1 N 0.12788(15) 0.2581(3) 0.17396(15)
N2 N 0.24536(15) 0.0773(3) 0.25835(16)
H1 H 0.3019 0.0410 0.2927
C1 C 0.0741(2) 0.4338(4) 0.1284(2)
H2 H 0.1195 0.5455 0.1358
H3 H 0.0216 0.4650 0.1643
C2 C 0.02954(17) 0.4090(3) 0.02049(19)
H4 H -0.0137 0.2939 0.0119
H5 H 0.0820 0.3862 -0.0167
C3 C 0.22140(18) 0.2543(4) 0.22370(19)
H6 H 0.2639 0.3632 0.2325
C4 C 0.1644(2) -0.0382(4) 0.2300(2)
H7 H 0.1603 -0.1724 0.2447
C5 C 0.0909(2) 0.0713(4) 0.1774(2)
H8 H 0.0273 0.0282 0.1489
N1B N -0.12788(15) 0.7419(3) -0.17396(15)
N2B N -0.24536(15) 0.9227(3) -0.25835(16)
H1B H -0.3019 0.9590 -0.2927
C1B C -0.0741(2) 0.5662(4) -0.1284(2)
H2B H -0.1195 0.4545 -0.1358
H3B H -0.0216 0.5350 -0.1643
C2B C -0.02954(17) 0.5910(3) -0.02049(19)
H4B H 0.0137 0.7061 -0.0119
H5B H -0.0820 0.6138 0.0167
C3B C -0.22140(18) 0.7457(4) -0.22370(19)
H6B H -0.2639 0.6368 -0.2325
C4B C -0.1644(2) 1.0382(4) -0.2300(2)
H7B H -0.1603 1.1724 -0.2447
C5B C -0.0909(2) 0.9287(4) -0.1774(2)
H8B H -0.0273 0.9718 -0.1489
N3 N 0.78036(18) 0.3892(5) 0.5320(2)
O1 O 0.41012(12) 0.9365(3) 0.35320(14)
O2 O 0.35091(13) 0.6469(3) 0.29093(14)
O3 O 0.84308(16) 0.4929(4) 0.5841(2)
O4 O 0.78942(17) 0.2113(4) 0.5216(2)
C6 C 0.41677(18) 0.7471(4) 0.33884(18)
C7 C 0.51422(16) 0.6572(3) 0.38708(16)
C8 C 0.53136(18) 0.4581(4) 0.37232(17)
H9 H 0.4833 0.3830 0.3309
C9 C 0.61934(19) 0.3702(4) 0.41861(19)
H10 H 0.6315 0.2367 0.4085
C10 C 0.68827(18) 0.4847(4) 0.47986(19)
C11 C 0.67406(18) 0.6811(4) 0.4958(2)
H11 H 0.7224 0.7549 0.5376
C12 C 0.58613(17) 0.7685(4) 0.44846(18)
H12 H 0.5753 0.9027 0.4579
loop_
_geom_bond_atom_site_label_1
_geom_bond_atom_site_label_2
_geom_bond_site_symmetry_1
_geom_bond_site_symmetry_2
N1 C1 1_555 1_555
N2 H1 1_555 1_555
C1 H2 1_555 1_555
H3 C1 1_555 1_555
C2 C1 1_555 1_555
H4 C2 1_555 1_555
H5 C2 1_555 1_555
C3 N1 1_555 1_555
H6 C3 1_555 1_555
C4 N2 1_555 1_555
H7 C4 1_555 1_555
C5 N1 1_555 1_555
H8 C5 1_555 1_555
N3 O3 1_555 1_555
O1 C6 1_555 1_555
O2 C6 1_555 1_555
O4 N3 1_555 1_555
C6 C7 1_555 1_555
C7 C8 1_555 1_555
C8 H9 1_555 1_555
C9 C8 1_555 1_555
H10 C9 1_555 1_555
C10 N3 1_555 1_555
C11 C10 1_555 1_555
H11 C11 1_555 1_555
C12 C7 1_555 1_555
H12 C12 1_555 1_555
N1B C1B 1_555 1_555
N2B H1B 1_555 1_555
C1B H2B 1_555 1_555
H3B C1B 1_555 1_555
C2B C2 1_555 1_555
H4B C2B 1_555 1_555
H5B C2B 1_555 1_555
C3B N1B 1_555 1_555
H6B C3B 1_555 1_555
C4B N2B 1_555 1_555
H7B C4B 1_555 1_555
C5B N1B 1_555 1_555
H8B C5B 1_555 1_555
N2 C3 1_555 1_555
C4 C5 1_555 1_555
C9 C10 1_555 1_555
C11 C12 1_555 1_555
N2B C3B 1_555 1_555
C1B C2B 1_555 1_555
C4B C5B 1_555 1_555

#END
