
#######################################################################
#
#                 Cambridge Crystallographic Data Centre
#                                CCDC 
#
#######################################################################
#
# If this CIF has been generated from an entry in the Cambridge 
# Structural Database, then it will include bibliographic, chemical, 
# crystal, experimental, refinement or atomic coordinate data resulting 
# from the CCDC's data processing and validation procedures.
#
#######################################################################

data_YUNCER
_chemical_formula_moiety         'C7 H9 N4 1+,C6 H2 N3 O7 1-'
_chemical_name_systematic        
'1-(1H-imidazol-1-ylmethyl)-1H-imidazol-3-ium 2,4,6-trinitrophenolate'
_symmetry_cell_setting           monoclinic
_symmetry_space_group_name_H-M   'C 2/c'
_symmetry_Int_Tables_number      15
_space_group_name_Hall           '-C 2yn'
loop_
_symmetry_equiv_pos_site_id
_symmetry_equiv_pos_as_xyz
1 x,y,z
2 -x,y,1/2-z
3 1/2+x,1/2+y,z
4 1/2-x,1/2+y,1/2-z
5 -x,-y,-z
6 x,-y,1/2+z
7 1/2-x,1/2-y,-z
8 1/2+x,1/2-y,1/2+z
_cell_length_a                   13.5131(12)
_cell_length_b                   33.330(3)
_cell_length_c                   7.3330(7)
_cell_angle_alpha                90
_cell_angle_beta                 108.791(2)
_cell_angle_gamma                90
_cell_volume                     3126.69
_exptl_crystal_colour            yellow
_exptl_crystal_description       BLOCK
_cell_formula_units_Z            8
loop_
_atom_site_label
_atom_site_type_symbol
_atom_site_fract_x
_atom_site_fract_y
_atom_site_fract_z
N5 N 0.0823(6) 0.2641(2) 0.4888(10)
N6 N 0.0000 0.1393(3) 0.7500
O1 O 0.0000 0.30656(17) 0.7500
O2 O 0.0743(5) 0.29935(15) 0.4589(8)
O3 O 0.1245(5) 0.24298(17) 0.3990(10)
O4 O 0.0504(4) 0.12192(14) 0.6597(9)
C8 C 0.0000 0.2697(3) 0.7500
C9 C 0.0382(5) 0.24411(19) 0.6238(11)
C10 C 0.0388(5) 0.20317(18) 0.6241(10)
H10 H 0.0652 0.1892 0.5401
C11 C 0.0000 0.1826(3) 0.7500
N5A N -0.0823(6) 0.2641(2) 1.0112(10)
O2A O -0.0743(5) 0.29935(15) 1.0411(8)
O3A O -0.1245(5) 0.24298(17) 1.1010(10)
O4A O -0.0504(4) 0.12192(14) 0.8403(9)
C9A C -0.0382(5) 0.24411(19) 0.8762(11)
C10A C -0.0388(5) 0.20317(18) 0.8759(10)
H10A H -0.0652 0.1892 0.9599
N7 N 1.1784(6) -0.0192(2) 0.4677(10)
N8 N 1.0000 0.1113(3) 0.2500
O5 O 1.2517(5) -0.0012(2) 0.5754(10)
O6 O 1.1770(5) -0.05367(19) 0.4443(11)
O7 O 0.9165(5) 0.12888(16) 0.2249(10)
C12 C 1.0915(6) 0.0478(2) 0.3572(11)
C13 C 1.0887(6) 0.00479(19) 0.3568(10)
C14 C 1.0000 -0.0163(3) 0.2500
H11 H 1.0000 -0.0442 0.2500
C15 C 1.0000 0.0667(3) 0.2500
O8 O 1.1899(8) 0.0611(3) 0.4883(15)
N7A N 0.8216(6) -0.0192(2) 0.0323(10)
O5A O 0.7483(5) -0.0012(2) -0.0754(10)
O6A O 0.8230(5) -0.05367(19) 0.0557(11)
O7A O 1.0835(5) 0.12888(16) 0.2751(10)
C12A C 0.9085(6) 0.0478(2) 0.1428(11)
C13A C 0.9113(6) 0.00479(19) 0.1432(10)
O8A O 0.8101(8) 0.0611(3) 0.0117(15)
N1 N 0.4079(5) 0.09659(15) 0.8931(8)
N2 N 0.4892(5) 0.04006(16) 0.9831(9)
N3 N 0.2947(5) 0.15272(16) 0.9023(9)
N4 N 0.2601(4) 0.20957(16) 1.0026(9)
H1 H 0.2551 0.2351 1.0153
C1 C 0.3255(5) 0.12414(19) 0.7817(10)
H2 H 0.3504 0.1386 0.6902
H3 H 0.2649 0.1086 0.7091
C2 C 0.4027(6) 0.0569(2) 0.8795(11)
H4 H 0.3442 0.0429 0.8048
C3 C 0.5531(6) 0.0713(2) 1.0714(10)
H5 H 0.6205 0.0684 1.1570
C4 C 0.5044(6) 0.1068(2) 1.0162(10)
H6 H 0.5305 0.1324 1.0535
C5 C 0.2983(5) 0.1918(2) 0.8806(10)
H7 H 0.3240 0.2048 0.7928
C6 C 0.2294(5) 0.1810(2) 1.1064(10)
H8 H 0.1993 0.1854 1.2023
C7 C 0.2511(5) 0.1453(2) 1.0432(12)
H9 H 0.2388 0.1202 1.0872
H12? H 1.1510 0.0621 0.4253
loop_
_geom_bond_atom_site_label_1
_geom_bond_atom_site_label_2
_geom_bond_site_symmetry_1
_geom_bond_site_symmetry_2
N1 C1 1_555 1_555
N2 C2 1_555 1_555
N3 C1 1_555 1_555
N4 H1 1_555 1_555
C1 H2 1_555 1_555
H3 C1 1_555 1_555
C2 N1 1_555 1_555
H4 C2 1_555 1_555
C3 N2 1_555 1_555
H5 C3 1_555 1_555
C4 N1 1_555 1_555
H6 C4 1_555 1_555
C5 N3 1_555 1_555
H7 C5 1_555 1_555
C6 N4 1_555 1_555
H8 C6 1_555 1_555
C7 N3 1_555 1_555
H9 C7 1_555 1_555
N5 O2 1_555 1_555
N6 O4 1_555 1_555
O1 C8 1_555 1_555
O3 N5 1_555 1_555
C8 C9 1_555 1_555
C9 N5 1_555 1_555
C10 C9 1_555 1_555
H10 C10 1_555 1_555
C11 N6 1_555 1_555
N7 O5 1_555 1_555
N8 O7 1_555 1_555
O6 N7 1_555 1_555
C12 C13 1_555 1_555
C13 N7 1_555 1_555
C14 C13 1_555 1_555
H11 C14 1_555 1_555
C15 N8 1_555 1_555
O8 C12 1_555 1_555
N5A O2A 1_555 1_555
O3A N5A 1_555 1_555
O4A N6 1_555 1_555
C9A C8 1_555 1_555
C10A C11 1_555 1_555
H10A C10A 1_555 1_555
N7A O5A 1_555 1_555
O6A N7A 1_555 1_555
O7A N8 1_555 1_555
C12A C15 1_555 1_555
C13A C14 1_555 1_555
O8A C12A 1_555 1_555
N4 C5 1_555 1_555
C3 C4 1_555 1_555
C6 C7 1_555 1_555
C10 C11 1_555 1_555
C12 C15 1_555 1_555
N5A C9A 1_555 1_555
C9A C10A 1_555 1_555
N7A C13A 1_555 1_555
C12A C13A 1_555 1_555

#END
