
#######################################################################
#
#                 Cambridge Crystallographic Data Centre
#                                CCDC 
#
#######################################################################
#
# If this CIF has been generated from an entry in the Cambridge 
# Structural Database, then it will include bibliographic, chemical, 
# crystal, experimental, refinement or atomic coordinate data resulting 
# from the CCDC's data processing and validation procedures.
#
#######################################################################

data_YUNNAX
_chemical_formula_moiety         'C30 H16 S6'
_chemical_name_systematic        
trans-2,2'-(1,2-Ethenediyl)bis(5-phenyldithieno[2,3-b:3',2'-d]thiophene)
_symmetry_cell_setting           monoclinic
_symmetry_space_group_name_H-M   'P 21/c'
_symmetry_Int_Tables_number      14
_space_group_name_Hall           '-P 2ybc'
loop_
_symmetry_equiv_pos_site_id
_symmetry_equiv_pos_as_xyz
1 x,y,z
2 -x,1/2+y,1/2-z
3 -x,-y,-z
4 x,1/2-y,1/2+z
_cell_length_a                   26.259(5)
_cell_length_b                   7.3600(15)
_cell_length_c                   6.1739(12)
_cell_angle_alpha                90
_cell_angle_beta                 94.51(3)
_cell_angle_gamma                90
_cell_volume                     1189.51
_chemical_melting_point          '360 deg.C'
_cell_formula_units_Z            2
_exptl_crystal_recrystallization_method chlorobenzene
loop_
_atom_site_label
_atom_site_type_symbol
_atom_site_fract_x
_atom_site_fract_y
_atom_site_fract_z
S1 S 0.28952(4) 0.92491(16) 0.16989(18)
S2 S 0.17579(4) 0.89895(16) -0.02248(18)
S3 S 0.06771(4) 0.94227(16) 0.15491(18)
C1 C 0.38970(16) 0.9126(6) 0.4535(7)
H1 H 0.3830 0.8492 0.3241
C2 C 0.43886(17) 0.9131(6) 0.5542(7)
H2 H 0.4650 0.8513 0.4921
C3 C 0.44879(16) 1.0062(7) 0.7474(7)
H3 H 0.4818 1.0081 0.8140
C4 C 0.41045(16) 1.0956(6) 0.8416(7)
H4 H 0.4174 1.1555 0.9732
C5 C 0.36136(17) 1.0971(6) 0.7414(7)
H5 H 0.3356 1.1590 0.8057
C6 C 0.35019(15) 1.0058(6) 0.5436(7)
C7 C 0.29808(16) 1.0103(6) 0.4346(7)
C8 C 0.25280(15) 1.0633(5) 0.5131(7)
H6 H 0.2502 1.1125 0.6506
C9 C 0.20998(15) 1.0335(6) 0.3572(7)
C10 C 0.22540(16) 0.9616(6) 0.1680(7)
C11 C 0.13276(16) 0.9673(6) 0.1595(7)
C12 C 0.15477(16) 1.0394(6) 0.3532(7)
C13 C 0.11699(15) 1.0786(5) 0.5002(7)
H7 H 0.1245 1.1308 0.6362
C14 C 0.06839(16) 1.0315(6) 0.4209(7)
C15 C 0.02264(16) 1.0386(6) 0.5309(7)
H8 H 0.0243 1.1040 0.6602
S1B S -0.28952(4) 1.07509(16) 0.83011(18)
S2B S -0.17579(4) 1.10105(16) 1.02248(18)
S3B S -0.06771(4) 1.05773(16) 0.84509(18)
C1B C -0.38970(16) 1.0874(6) 0.5465(7)
H1B H -0.3830 1.1508 0.6759
C2B C -0.43886(17) 1.0869(6) 0.4458(7)
H2B H -0.4650 1.1487 0.5079
C3B C -0.44879(16) 0.9938(7) 0.2526(7)
H3B H -0.4818 0.9919 0.1860
C4B C -0.41045(16) 0.9044(6) 0.1584(7)
H4B H -0.4174 0.8445 0.0268
C5B C -0.36136(17) 0.9029(6) 0.2586(7)
H5B H -0.3356 0.8410 0.1943
C6B C -0.35019(15) 0.9942(6) 0.4564(7)
C7B C -0.29808(16) 0.9897(6) 0.5654(7)
C8B C -0.25280(15) 0.9367(5) 0.4869(7)
H6B H -0.2502 0.8875 0.3494
C9B C -0.20998(15) 0.9665(6) 0.6428(7)
C10B C -0.22540(16) 1.0384(6) 0.8320(7)
C11B C -0.13276(16) 1.0327(6) 0.8405(7)
C12B C -0.15477(16) 0.9606(6) 0.6468(7)
C13B C -0.11699(15) 0.9214(5) 0.4998(7)
H7B H -0.1245 0.8692 0.3638
C14B C -0.06839(16) 0.9685(6) 0.5791(7)
C15B C -0.02264(16) 0.9614(6) 0.4691(7)
H8B H -0.0243 0.8960 0.3398
loop_
_geom_bond_atom_site_label_1
_geom_bond_atom_site_label_2
_geom_bond_site_symmetry_1
_geom_bond_site_symmetry_2
S1 C7 1_555 1_555
S2 C10 1_555 1_555
S3 C11 1_555 1_555
C1 H1 1_555 1_555
C2 C1 1_555 1_555
H2 C2 1_555 1_555
C3 C2 1_555 1_555
H3 C3 1_555 1_555
C4 C3 1_555 1_555
H4 C4 1_555 1_555
C5 C4 1_555 1_555
H5 C5 1_555 1_555
C6 C1 1_555 1_555
C7 C6 1_555 1_555
C8 C7 1_555 1_555
H6 C8 1_555 1_555
C9 C8 1_555 1_555
C10 S1 1_555 1_555
C11 S2 1_555 1_555
C12 C9 1_555 1_555
C13 C12 1_555 1_555
H7 C13 1_555 1_555
C14 S3 1_555 1_555
C15 C14 1_555 1_555
H8 C15 1_555 1_555
S1B C7B 1_555 1_555
S2B C10B 1_555 1_555
S3B C11B 1_555 1_555
C1B H1B 1_555 1_555
C2B C1B 1_555 1_555
H2B C2B 1_555 1_555
C3B C2B 1_555 1_555
H3B C3B 1_555 1_555
C4B C3B 1_555 1_555
H4B C4B 1_555 1_555
C5B C4B 1_555 1_555
H5B C5B 1_555 1_555
C6B C1B 1_555 1_555
C7B C6B 1_555 1_555
C8B C7B 1_555 1_555
H6B C8B 1_555 1_555
C9B C8B 1_555 1_555
C10B S1B 1_555 1_555
C11B S2B 1_555 1_555
C12B C9B 1_555 1_555
C13B C12B 1_555 1_555
H7B C13B 1_555 1_555
C14B S3B 1_555 1_555
C15B C15 1_555 1_555
H8B C15B 1_555 1_555
C5 C6 1_555 1_555
C9 C10 1_555 1_555
C11 C12 1_555 1_555
C13 C14 1_555 1_555
C5B C6B 1_555 1_555
C9B C10B 1_555 1_555
C11B C12B 1_555 1_555
C13B C14B 1_555 1_555
C14B C15B 1_555 1_555

#END
