
#######################################################################
#
#                 Cambridge Crystallographic Data Centre
#                                CCDC 
#
#######################################################################
#
# If this CIF has been generated from an entry in the Cambridge 
# Structural Database, then it will include bibliographic, chemical, 
# crystal, experimental, refinement or atomic coordinate data resulting 
# from the CCDC's data processing and validation procedures.
#
#######################################################################

data_YUNSIJ
_chemical_formula_moiety         'C34 H36 O10,2(H2 O1)'
_chemical_name_systematic        
"3,3'-bis(Methoxycarbonyl)-2,3,4,5-diazulene-1,6,9,12,15,18-hexaoxaicosane-2,4-diene dihydrate"
_symmetry_cell_setting           monoclinic
_symmetry_space_group_name_H-M   'C 2/c'
_symmetry_Int_Tables_number      15
_space_group_name_Hall           '-C 2yn'
loop_
_symmetry_equiv_pos_site_id
_symmetry_equiv_pos_as_xyz
1 x,y,z
2 -x,y,1/2-z
3 1/2+x,1/2+y,z
4 1/2-x,1/2+y,1/2-z
5 -x,-y,-z
6 x,-y,1/2+z
7 1/2-x,1/2-y,-z
8 1/2+x,1/2-y,1/2+z
_cell_length_a                   9.494(3)
_cell_length_b                   20.038(4)
_cell_length_c                   17.387(4)
_cell_angle_alpha                90
_cell_angle_beta                 93.835(21)
_cell_angle_gamma                90
_cell_volume                     3300.31
_exptl_crystal_colour            red-brown
_chemical_melting_point          '141-142 deg.C'
_cell_formula_units_Z            4
loop_
_atom_site_label
_atom_site_type_symbol
_atom_site_fract_x
_atom_site_fract_y
_atom_site_fract_z
C1 C 0.4652(9) 0.9723(4) 0.2107(4)
C2 C 0.3627(9) 1.0158(4) 0.1803(4)
C3 C 0.3257(9) 1.0001(4) 0.1004(4)
C4 C 0.4100(9) 0.9146(4) 0.0104(4)
C5 C 0.4865(10) 0.8600(5) -0.0105(5)
C6 C 0.5817(11) 0.8219(5) 0.0325(5)
C7 C 0.6295(10) 0.8286(4) 0.1106(5)
C8 C 0.5919(9) 0.8758(4) 0.1618(4)
C9 C 0.4965(8) 0.9267(4) 0.1523(4)
C10 C 0.4085(8) 0.9456(4) 0.0814(4)
C11 C 0.2809(11) 1.0645(5) 0.2911(6)
C12 C 0.1954(12) 1.1234(6) 0.3153(6)
C13 C 0.2064(12) 1.2377(6) 0.3457(6)
C14 C 0.3125(12) 1.2929(5) 0.3538(6)
C15 C 0.4635(14) 1.3625(5) 0.2828(6)
C16 C 0.2258(10) 1.0331(5) 0.0443(5)
C17 C 0.0706(12) 1.1190(6) 0.0217(7)
O1 O 0.3011(7) 1.0679(3) 0.2138(3)
O2 O 0.2785(7) 1.1791(3) 0.3228(4)
O3 O 0.3664(7) 1.3078(3) 0.2837(3)
O4 O 0.1976(7) 1.0163(3) -0.0204(3)
O5 O 0.1679(6) 1.0855(3) 0.0758(3)
H1 H 0.351 0.932 -0.033
H2 H 0.465 0.843 -0.063
H3 H 0.623 0.785 0.004
H4 H 0.696 0.791 0.130
H5 H 0.649 0.871 0.212
H6 H 0.239 1.022 0.309
H7 H 0.371 1.066 0.326
H8 H 0.137 1.116 0.358
H9 H 0.119 1.131 0.271
H10 H 0.134 1.253 0.309
H11 H 0.163 1.233 0.395
H12 H 0.390 1.275 0.390
H13 H 0.276 1.330 0.378
H14 H 0.410 1.386 0.320
H15 H 0.529 1.349 0.326
H16 H 0.081 1.125 -0.033
H17 H 0.029 1.167 0.034
H18 H -0.021 1.095 0.022
C1A C 0.5348(9) 0.9723(4) 0.2893(4)
C15A C 0.5365(14) 1.3625(5) 0.2172(6)
C2A C 0.6373(9) 1.0158(4) 0.3197(4)
C9A C 0.5035(8) 0.9267(4) 0.3477(4)
O3A O 0.6336(7) 1.3078(3) 0.2163(3)
H14A H 0.590 1.386 0.180
H15A H 0.471 1.349 0.174
C3A C 0.6743(9) 1.0001(4) 0.3996(4)
O1A O 0.6989(7) 1.0679(3) 0.2862(3)
C8A C 0.4081(9) 0.8758(4) 0.3382(4)
C10A C 0.5915(8) 0.9456(4) 0.4186(4)
C14A C 0.6875(12) 1.2929(5) 0.1462(6)
C16A C 0.7742(10) 1.0331(5) 0.4557(5)
C11A C 0.7191(11) 1.0645(5) 0.2089(6)
C7A C 0.3705(10) 0.8286(4) 0.3894(5)
H5A H 0.351 0.871 0.288
C4A C 0.5900(9) 0.9146(4) 0.4896(4)
C13A C 0.7936(12) 1.2377(6) 0.1543(6)
H12A H 0.610 1.275 0.110
H13A H 0.724 1.330 0.122
O4A O 0.8024(7) 1.0163(3) 0.5204(3)
O5A O 0.8321(6) 1.0855(3) 0.4242(3)
C12A C 0.8046(12) 1.1234(6) 0.1847(6)
H6A H 0.761 1.022 0.191
H7A H 0.629 1.066 0.174
C6A C 0.4183(11) 0.8219(5) 0.4675(5)
H4A H 0.304 0.791 0.370
C5A C 0.5135(10) 0.8600(5) 0.5105(5)
H1A H 0.649 0.932 0.533
O2A O 0.7215(7) 1.1791(3) 0.1772(4)
H10A H 0.866 1.253 0.191
H11A H 0.837 1.233 0.105
C17A C 0.9294(12) 1.1190(6) 0.4783(7)
H8A H 0.863 1.116 0.142
H9A H 0.881 1.131 0.229
H3A H 0.377 0.785 0.496
H2A H 0.535 0.843 0.563
H16A H 0.919 1.125 0.533
H17A H 0.971 1.167 0.466
H18A H 1.021 1.095 0.478
O6 O 0.8489(10) 0.7051(4) 0.1555(4)
H19 H 0.866 0.739 0.121
H20 H 0.893 0.665 0.156
loop_
_geom_bond_atom_site_label_1
_geom_bond_atom_site_label_2
_geom_bond_site_symmetry_1
_geom_bond_site_symmetry_2
C1 C2 1_555 1_555
C2 C3 1_555 1_555
C3 C10 1_555 1_555
C4 C5 1_555 1_555
C5 C6 1_555 1_555
C6 C7 1_555 1_555
C7 C8 1_555 1_555
C8 C9 1_555 1_555
C9 C1 1_555 1_555
C10 C4 1_555 1_555
C11 C12 1_555 1_555
C12 O2 1_555 1_555
C13 C14 1_555 1_555
C14 O3 1_555 1_555
C15 O3 1_555 1_555
C16 C3 1_555 1_555
C17 O5 1_555 1_555
O1 C2 1_555 1_555
O2 C13 1_555 1_555
O4 C16 1_555 1_555
O5 C16 1_555 1_555
H1 C4 1_555 1_555
H2 C5 1_555 1_555
H3 C6 1_555 1_555
H4 C7 1_555 1_555
H5 C8 1_555 1_555
H6 C11 1_555 1_555
H7 C11 1_555 1_555
H8 C12 1_555 1_555
H9 C12 1_555 1_555
H10 C13 1_555 1_555
H11 C13 1_555 1_555
H12 C14 1_555 1_555
H13 C14 1_555 1_555
H14 C15 1_555 1_555
H15 C15 1_555 1_555
H16 C17 1_555 1_555
H17 C17 1_555 1_555
H18 C17 1_555 1_555
O6 H19 1_555 1_555
H20 O6 1_555 1_555
C1A C1 1_555 1_555
C15A C15 1_555 1_555
C2A C1A 1_555 1_555
C9A C1A 1_555 1_555
O3A C15A 1_555 1_555
H14A C15A 1_555 1_555
H15A C15A 1_555 1_555
C3A C2A 1_555 1_555
O1A C2A 1_555 1_555
C8A C9A 1_555 1_555
C10A C9A 1_555 1_555
C14A O3A 1_555 1_555
C16A C3A 1_555 1_555
C11A O1A 1_555 1_555
C7A C8A 1_555 1_555
H5A C8A 1_555 1_555
C4A C10A 1_555 1_555
C13A C14A 1_555 1_555
H12A C14A 1_555 1_555
H13A C14A 1_555 1_555
O4A C16A 1_555 1_555
O5A C16A 1_555 1_555
C12A C11A 1_555 1_555
H6A C11A 1_555 1_555
H7A C11A 1_555 1_555
C6A C7A 1_555 1_555
H4A C7A 1_555 1_555
C5A C4A 1_555 1_555
H1A C4A 1_555 1_555
O2A C13A 1_555 1_555
H10A C13A 1_555 1_555
H11A C13A 1_555 1_555
C17A O5A 1_555 1_555
H8A C12A 1_555 1_555
H9A C12A 1_555 1_555
H3A C6A 1_555 1_555
H2A C5A 1_555 1_555
H16A C17A 1_555 1_555
H17A C17A 1_555 1_555
H18A C17A 1_555 1_555
C9 C10 1_555 1_555
C11 O1 1_555 1_555
C3A C10A 1_555 1_555
C12A O2A 1_555 1_555
C6A C5A 1_555 1_555

#END
