
#######################################################################
#
#                 Cambridge Crystallographic Data Centre
#                                CCDC 
#
#######################################################################
#
# If this CIF has been generated from an entry in the Cambridge 
# Structural Database, then it will include bibliographic, chemical, 
# crystal, experimental, refinement or atomic coordinate data resulting 
# from the CCDC's data processing and validation procedures.
#
#######################################################################

data_YUPFUM
_chemical_formula_moiety         'C7 H5 Cl1 N2 O2'
_chemical_name_systematic        
3-chloro-5-formyl-4-methoxy-1H-pyrrole-2-carbonitrile
_symmetry_cell_setting           triclinic
_symmetry_space_group_name_H-M   'P -1'
_symmetry_Int_Tables_number      2
_space_group_name_Hall           '-P 1'
loop_
_symmetry_equiv_pos_site_id
_symmetry_equiv_pos_as_xyz
1 x,y,z
2 -x,-y,-z
_cell_length_a                   6.037(2)
_cell_length_b                   8.101(3)
_cell_length_c                   9.222(3)
_cell_angle_alpha                70.622(5)
_cell_angle_beta                 74.480(5)
_cell_angle_gamma                85.612(5)
_cell_volume                     409.908
_exptl_crystal_colour            colorless
_exptl_crystal_description       block
_cell_formula_units_Z            2
loop_
_atom_site_label
_atom_site_type_symbol
_atom_site_fract_x
_atom_site_fract_y
_atom_site_fract_z
Cl1 Cl 0.18430(18) 0.92439(15) -0.15160(13)
O1 O 0.2638(5) 0.8367(4) 0.1842(3)
N1 N 0.7117(5) 0.6525(4) -0.0517(4)
O2 O 0.9138(5) 0.5201(4) 0.1970(3)
C1 C 0.4196(6) 0.7759(5) 0.0805(4)
C2 C 0.5806(6) 0.7321(5) -0.1526(4)
C3 C 0.6205(6) 0.6779(5) 0.0923(4)
N2 N 0.6695(7) 0.7275(6) -0.4381(4)
C4 C 0.6333(7) 0.7296(5) -0.3119(5)
C5 C 0.3983(6) 0.8093(5) -0.0738(4)
C6 C 0.7413(7) 0.6071(5) 0.2146(5)
H1 H 0.6852 0.6289 0.3107
C7 C 0.2621(8) 0.7735(7) 0.3469(5)
H2 H 0.2605 0.6479 0.3829
H3 H 0.1276 0.8145 0.4076
H4 H 0.3971 0.8152 0.3608
H5 H 0.826(7) 0.598(5) -0.074(5)
loop_
_geom_bond_atom_site_label_1
_geom_bond_atom_site_label_2
_geom_bond_site_symmetry_1
_geom_bond_site_symmetry_2
Cl1 C5 1_555 1_555
O1 C1 1_555 1_555
N1 C2 1_555 1_555
O2 C6 1_555 1_555
C1 C3 1_555 1_555
C2 C4 1_555 1_555
C3 N1 1_555 1_555
N2 C4 1_555 1_555
C5 C1 1_555 1_555
C6 C3 1_555 1_555
H1 C6 1_555 1_555
C7 O1 1_555 1_555
H2 C7 1_555 1_555
H3 C7 1_555 1_555
H4 C7 1_555 1_555
H5 N1 1_555 1_555
C2 C5 1_555 1_555

#END
