
#######################################################################
#
#                 Cambridge Crystallographic Data Centre
#                                CCDC 
#
#######################################################################
#
# If this CIF has been generated from an entry in the Cambridge 
# Structural Database, then it will include bibliographic, chemical, 
# crystal, experimental, refinement or atomic coordinate data resulting 
# from the CCDC's data processing and validation procedures.
#
#######################################################################

data_YUPFOG
_chemical_formula_moiety         'C6 H6 Cl1 N1 O2'
_chemical_name_systematic        4-chloro-3-methoxy-1H-pyrrole-2-carbaldehyde
_symmetry_cell_setting           monoclinic
_symmetry_space_group_name_H-M   'P 21/c'
_symmetry_Int_Tables_number      14
_space_group_name_Hall           '-P 2ybc'
loop_
_symmetry_equiv_pos_site_id
_symmetry_equiv_pos_as_xyz
1 x,y,z
2 -x,1/2+y,1/2-z
3 -x,-y,-z
4 x,1/2-y,1/2+z
_cell_length_a                   12.132(3)
_cell_length_b                   6.7332(17)
_cell_length_c                   8.752(2)
_cell_angle_alpha                90
_cell_angle_beta                 91.331(4)
_cell_angle_gamma                90
_cell_volume                     714.733
_exptl_crystal_colour            colorless
_exptl_crystal_description       block
_cell_formula_units_Z            4
loop_
_atom_site_label
_atom_site_type_symbol
_atom_site_fract_x
_atom_site_fract_y
_atom_site_fract_z
Cl1 Cl 0.36873(5) 1.19021(12) 0.73138(7)
O1 O 0.02089(14) 0.9188(3) 0.2385(2)
N1 N 0.12608(16) 1.1943(3) 0.4383(2)
C1 C 0.23457(18) 0.9600(3) 0.5381(2)
O2 O 0.27765(15) 0.7777(3) 0.5714(2)
C2 C 0.14844(18) 0.9950(3) 0.4340(3)
C3 C 0.19468(19) 1.2845(3) 0.5373(3)
H1 H 0.1958 1.4196 0.5595
C4 C 0.0910(2) 0.8630(4) 0.3324(3)
H2 H 0.1074 0.7283 0.3376
C5 C 0.26362(18) 1.1429(4) 0.6010(2)
C6 C 0.3839(3) 0.7442(5) 0.5112(5)
H3 H 0.3792 0.7467 0.4016
H4 H 0.4109 0.6170 0.5447
H5 H 0.4335 0.8462 0.5467
H6 H 0.081(2) 1.250(4) 0.383(3)
loop_
_geom_bond_atom_site_label_1
_geom_bond_atom_site_label_2
_geom_bond_site_symmetry_1
_geom_bond_site_symmetry_2
Cl1 C5 1_555 1_555
O1 C4 1_555 1_555
N1 C2 1_555 1_555
C1 O2 1_555 1_555
O2 C6 1_555 1_555
C2 C1 1_555 1_555
C3 N1 1_555 1_555
H1 C3 1_555 1_555
C4 C2 1_555 1_555
H2 C4 1_555 1_555
C5 C1 1_555 1_555
C6 H3 1_555 1_555
H4 C6 1_555 1_555
H5 C6 1_555 1_555
H6 N1 1_555 1_555
C3 C5 1_555 1_555

#END
