
#######################################################################
#
#                 Cambridge Crystallographic Data Centre
#                                CCDC 
#
#######################################################################
#
# If this CIF has been generated from an entry in the Cambridge 
# Structural Database, then it will include bibliographic, chemical, 
# crystal, experimental, refinement or atomic coordinate data resulting 
# from the CCDC's data processing and validation procedures.
#
#######################################################################

data_YUPGEX
_chemical_name_common            
2,7,12,17-tetrachloro-3,6,13,16-tetramethoxyporphycene
_chemical_formula_moiety         'C24 H18 Cl4 N4 O4'
_chemical_name_systematic        
4,9,14,19-tetrachloro-3,10,13,20-tetramethoxy-21,22,23,24-tetraazapentacyclo[16.2.1.1^2,5^.1^8,11^.1^12,15^]tetracosa-1(21),2,4,6,8(23),9,11,13,15,17,19-undecaene
_symmetry_cell_setting           monoclinic
_symmetry_space_group_name_H-M   'P 21/c'
_symmetry_Int_Tables_number      14
_space_group_name_Hall           '-P 2ybc'
loop_
_symmetry_equiv_pos_site_id
_symmetry_equiv_pos_as_xyz
1 x,y,z
2 -x,1/2+y,1/2-z
3 -x,-y,-z
4 x,1/2-y,1/2+z
_cell_length_a                   3.9469(2)
_cell_length_b                   27.0301(15)
_cell_length_c                   10.9065(5)
_cell_angle_alpha                90
_cell_angle_beta                 98.544(5)
_cell_angle_gamma                90
_cell_volume                     1150.65
_exptl_crystal_colour            purple
_exptl_crystal_description       needle
_cell_formula_units_Z            2
loop_
_atom_site_label
_atom_site_type_symbol
_atom_site_fract_x
_atom_site_fract_y
_atom_site_fract_z
Cl1 Cl 1.3877(4) 0.58562(5) 0.42327(11)
Cl2 Cl 0.2619(4) 0.67989(5) -0.29717(13)
N1 N 0.4290(10) 0.56204(14) -0.0893(3)
N2 N 0.8097(11) 0.53150(14) 0.1329(3)
O1 O 1.0865(12) 0.65612(14) 0.1966(3)
C1 C 0.2710(13) 0.58570(17) -0.1935(4)
C2 C 0.5884(13) 0.64271(17) -0.0755(4)
C3 C 1.1292(13) 0.5735(2) 0.2844(4)
C4 C 0.6218(12) 0.59536(16) -0.0157(4)
O2 O 0.7615(11) 0.68423(13) -0.0330(4)
C5 C 1.0604(13) 0.48257(19) 0.3161(4)
H1 H 1.2026 0.4867 0.3914
C6 C 0.9984(13) 0.52578(18) 0.2465(4)
C7 C 0.8072(12) 0.57987(16) 0.0993(4)
C8 C 0.3810(13) 0.63631(17) -0.1832(4)
C9 C 1.0143(13) 0.60706(18) 0.1960(4)
C10 C 0.0524(13) 0.56503(18) -0.2925(4)
H2 H -0.0324 0.5876 -0.3538
C11 C 0.944(2) 0.6843(2) 0.2871(7)
H3 H 0.6990 0.6807 0.2738
H4 H 1.0024 0.7185 0.2799
H5 H 1.0338 0.6726 0.3685
C12 C 0.558(2) 0.7253(2) -0.0084(8)
H6 H 0.4148 0.7351 -0.0833
H7 H 0.7047 0.7524 0.0221
H8 H 0.4178 0.7163 0.0528
H9 H 0.35(3) 0.523(3) -0.085(10)
Cl1B Cl -0.3877(4) 0.41438(5) -0.42327(11)
Cl2B Cl 0.7381(4) 0.32011(5) 0.29717(13)
N1B N 0.5710(10) 0.43796(14) 0.0893(3)
N2B N 0.1903(11) 0.46850(14) -0.1329(3)
O1B O -0.0865(12) 0.34388(14) -0.1966(3)
C1B C 0.7290(13) 0.41430(17) 0.1935(4)
C2B C 0.4116(13) 0.35729(17) 0.0755(4)
C3B C -0.1292(13) 0.4265(2) -0.2844(4)
C4B C 0.3782(12) 0.40464(16) 0.0157(4)
O2B O 0.2385(11) 0.31577(13) 0.0330(4)
C5B C -0.0604(13) 0.51743(19) -0.3161(4)
H1B H -0.2026 0.5133 -0.3914
C6B C 0.0016(13) 0.47422(18) -0.2465(4)
C7B C 0.1928(12) 0.42013(16) -0.0993(4)
C8B C 0.6190(13) 0.36369(17) 0.1832(4)
C9B C -0.0143(13) 0.39294(18) -0.1960(4)
C10B C 0.9476(13) 0.43497(18) 0.2925(4)
H2B H 1.0324 0.4124 0.3538
C11B C 0.056(2) 0.3157(2) -0.2871(7)
H3B H 0.3010 0.3193 -0.2738
H4B H -0.0024 0.2815 -0.2799
H5B H -0.0338 0.3274 -0.3685
C12B C 0.442(2) 0.2747(2) 0.0084(8)
H6B H 0.5852 0.2649 0.0833
H7B H 0.2953 0.2476 -0.0221
H8B H 0.5822 0.2837 -0.0528
H9B H 0.65(3) 0.477(3) 0.085(10)
loop_
_geom_bond_atom_site_label_1
_geom_bond_atom_site_label_2
_geom_bond_site_symmetry_1
_geom_bond_site_symmetry_2
Cl1 C3 1_555 1_555
Cl2 C8 1_555 1_555
N1 C1 1_555 1_555
N2 C6 1_555 1_555
O1 C9 1_555 1_555
C1 C8 1_555 1_555
C2 C4 1_555 1_555
C3 C6 1_555 1_555
C4 N1 1_555 1_555
O2 C2 1_555 1_555
C5 H1 1_555 1_555
C6 C5 1_555 1_555
C7 N2 1_555 1_555
C8 C2 1_555 1_555
C9 C3 1_555 1_555
C10 C1 1_555 1_555
H2 C10 1_555 1_555
C11 O1 1_555 1_555
H3 C11 1_555 1_555
H4 C11 1_555 1_555
H5 C11 1_555 1_555
C12 O2 1_555 1_555
H6 C12 1_555 1_555
H7 C12 1_555 1_555
H8 C12 1_555 1_555
H9 N1 1_555 1_555
Cl1B C3B 1_555 1_555
Cl2B C8B 1_555 1_555
N1B C1B 1_555 1_555
N2B C6B 1_555 1_555
O1B C9B 1_555 1_555
C1B C8B 1_555 1_555
C2B C4B 1_555 1_555
C3B C6B 1_555 1_555
C4B N1B 1_555 1_555
O2B C2B 1_555 1_555
C5B C10 1_555 1_555
H1B C5B 1_555 1_555
C6B C5B 1_555 1_555
C7B N2B 1_555 1_555
C8B C2B 1_555 1_555
C9B C3B 1_555 1_555
C10B C5 1_555 1_555
H2B C10B 1_555 1_555
C11B O1B 1_555 1_555
H3B C11B 1_555 1_555
H4B C11B 1_555 1_555
H5B C11B 1_555 1_555
C12B O2B 1_555 1_555
H6B C12B 1_555 1_555
H7B C12B 1_555 1_555
H8B C12B 1_555 1_555
H9B N1B 1_555 1_555
C4 C7 1_555 1_555
C7 C9 1_555 1_555
C1B C10B 1_555 1_555
C4B C7B 1_555 1_555
C7B C9B 1_555 1_555

#END
