
#######################################################################
#
#                 Cambridge Crystallographic Data Centre
#                                CCDC 
#
#######################################################################
#
# If this CIF has been generated from an entry in the Cambridge 
# Structural Database, then it will include bibliographic, chemical, 
# crystal, experimental, refinement or atomic coordinate data resulting 
# from the CCDC's data processing and validation procedures.
#
#######################################################################

data_YUPGAT
_chemical_formula_moiety         'C12 H10 Cl2 N2 O4'
_chemical_name_systematic        
4,4'-dichloro-3,3'-dimethoxy-1H,1'H-2,2'-bipyrrole-5,5'-dicarbaldehyde
_symmetry_cell_setting           monoclinic
_symmetry_space_group_name_H-M   'P 21/n'
_symmetry_Int_Tables_number      14
_space_group_name_Hall           '-P 2yn'
loop_
_symmetry_equiv_pos_site_id
_symmetry_equiv_pos_as_xyz
1 x,y,z
2 1/2-x,1/2+y,1/2-z
3 -x,-y,-z
4 1/2+x,1/2-y,1/2+z
_cell_length_a                   4.4859(8)
_cell_length_b                   20.457(4)
_cell_length_c                   14.700(3)
_cell_angle_alpha                90
_cell_angle_beta                 97.600(3)
_cell_angle_gamma                90
_cell_volume                     1337.14
_exptl_crystal_colour            yellow
_exptl_crystal_description       needle
_cell_formula_units_Z            4
loop_
_atom_site_label
_atom_site_type_symbol
_atom_site_fract_x
_atom_site_fract_y
_atom_site_fract_z
Cl1 Cl 0.1610(6) 0.75993(10) 0.86608(16)
Cl2 Cl 0.8309(6) 1.11122(12) 0.60554(15)
N1 N 0.1536(13) 0.9483(3) 0.8815(4)
N2 N 0.5186(15) 1.0552(3) 0.8253(4)
O1 O 0.5155(11) 0.9679(3) 0.6190(3)
C1 C -0.1277(16) 0.8819(4) 0.9782(5)
H1 H -0.1922 0.8404 0.9925
O2 O -0.2097(13) 0.9291(3) 1.0200(4)
O3 O 0.6702(17) 1.1852(3) 0.8853(4)
C2 C 0.4632(16) 0.9992(3) 0.7761(5)
C3 C 0.3494(16) 0.8757(4) 0.7952(5)
C4 C 0.3280(15) 0.9425(4) 0.8129(5)
O4 O 0.5242(12) 0.8485(3) 0.7361(4)
C5 C 0.5598(14) 1.0099(4) 0.6911(5)
C6 C 0.6504(18) 1.1016(4) 0.7763(5)
C7 C 0.1896(17) 0.8431(3) 0.8552(5)
C8 C 0.7811(19) 0.9453(5) 0.5862(7)
H2 H 0.9056 0.9819 0.5755
H3 H 0.7280 0.9217 0.5299
H4 H 0.8889 0.9169 0.6310
C9 C 0.0631(15) 0.8885(3) 0.9086(5)
C10 C 0.364(2) 0.8167(4) 0.6578(6)
H5 H 0.2000 0.7920 0.6763
H6 H 0.4974 0.7877 0.6313
H7 H 0.2872 0.8488 0.6132
C11 C 0.6829(15) 1.0720(4) 0.6937(5)
C12 C 0.726(2) 1.1644(4) 0.8126(6)
H8 H 0.8288 1.1922 0.7773
H9 H 0.126(13) 0.980(3) 0.919(4)
H10 H 0.450(14) 1.065(3) 0.871(5)
loop_
_geom_bond_atom_site_label_1
_geom_bond_atom_site_label_2
_geom_bond_site_symmetry_1
_geom_bond_site_symmetry_2
Cl1 C7 1_555 1_555
Cl2 C11 1_555 1_555
N1 C4 1_555 1_555
N2 C2 1_555 1_555
O1 C5 1_555 1_555
C1 H1 1_555 1_555
O2 C1 1_555 1_555
O3 C12 1_555 1_555
C2 C4 1_555 1_555
C3 C4 1_555 1_555
O4 C3 1_555 1_555
C5 C2 1_555 1_555
C6 N2 1_555 1_555
C7 C3 1_555 1_555
C8 O1 1_555 1_555
H2 C8 1_555 1_555
H3 C8 1_555 1_555
H4 C8 1_555 1_555
C9 N1 1_555 1_555
C10 O4 1_555 1_555
H5 C10 1_555 1_555
H6 C10 1_555 1_555
H7 C10 1_555 1_555
C11 C5 1_555 1_555
C12 C6 1_555 1_555
H8 C12 1_555 1_555
H9 N1 1_555 1_555
H10 N2 1_555 1_555
C1 C9 1_555 1_555
C6 C11 1_555 1_555
C7 C9 1_555 1_555

#END
