
#######################################################################
#
#                 Cambridge Crystallographic Data Centre
#                                CCDC 
#
#######################################################################
#
# If this CIF has been generated from an entry in the Cambridge 
# Structural Database, then it will include bibliographic, chemical, 
# crystal, experimental, refinement or atomic coordinate data resulting 
# from the CCDC's data processing and validation procedures.
#
#######################################################################

data_YUPGIB
_chemical_name_common            
3,6,13,16-tetrachloro-2,7,12,17-tetramethoxyporphycene
_chemical_formula_moiety         'C24 H18 Cl4 N4 O4'
_chemical_name_systematic        
3,10,13,20-tetrachloro-4,9,14,19-tetramethoxy-21,22,23,24-tetraazapentacyclo[16.2.1.1^2,5^.1^8,11^.1^12,15^]tetracosa-1(21),2,4,6,8(23),9,11,13,15,17,19-undecaene
_symmetry_cell_setting           monoclinic
_symmetry_space_group_name_H-M   'P 21/c'
_symmetry_Int_Tables_number      14
_space_group_name_Hall           '-P 2ybc'
loop_
_symmetry_equiv_pos_site_id
_symmetry_equiv_pos_as_xyz
1 x,y,z
2 -x,1/2+y,1/2-z
3 -x,-y,-z
4 x,1/2-y,1/2+z
_cell_length_a                   4.1263(3)
_cell_length_b                   23.8718(19)
_cell_length_c                   11.9867(6)
_cell_angle_alpha                90
_cell_angle_beta                 98.803(5)
_cell_angle_gamma                90
_cell_volume                     1166.81
_exptl_crystal_colour            purple
_exptl_crystal_description       needle
_cell_formula_units_Z            2
loop_
_atom_site_label
_atom_site_type_symbol
_atom_site_fract_x
_atom_site_fract_y
_atom_site_fract_z
Cl1 Cl 0.2238(4) 0.66821(8) 0.78099(13)
Cl2 Cl 1.6542(5) 0.29911(8) 0.96482(14)
O1 O 1.3807(12) 0.33859(19) 0.7220(3)
N1 N 0.7775(13) 0.5355(2) 0.8624(3)
O2 O 0.3871(11) 0.5855(2) 0.5955(3)
N2 N 1.1596(12) 0.4412(2) 0.9126(4)
C1 C 1.0035(15) 0.4433(3) 0.7038(4)
H1 H 1.0356 0.4225 0.6409
C2 C 0.5085(15) 0.5779(3) 0.7074(5)
C3 C 0.6287(14) 0.5831(3) 0.8967(4)
C4 C 0.7091(15) 0.5315(3) 0.7471(4)
C5 C 1.3326(15) 0.3693(3) 0.8129(5)
C6 C 0.4572(14) 0.6092(3) 0.7961(5)
C7 C 1.4414(15) 0.3589(3) 0.9231(5)
C8 C 0.8163(15) 0.4907(3) 0.6789(4)
H2 H 0.7494 0.4965 0.6021
C9 C 1.1541(15) 0.4209(3) 0.8065(5)
C10 C 1.3348(15) 0.4046(3) 0.9871(4)
C11 C 1.1775(18) 0.2902(3) 0.6996(6)
H3 H 1.2140 0.2653 0.7633
H4 H 1.2307 0.2713 0.6341
H5 H 0.9514 0.3013 0.6863
C12 C 0.5361(19) 0.6296(4) 0.5426(5)
H6 H 0.4925 0.6646 0.5768
H7 H 0.4482 0.6305 0.4637
H8 H 0.7687 0.6236 0.5514
H9 H 0.99(3) 0.495(5) 0.920(7)
Cl1B Cl 1.7762(4) 0.33179(8) 1.21901(13)
Cl2B Cl 0.3458(5) 0.70089(8) 1.03518(14)
O1B O 0.6193(12) 0.66141(19) 1.2780(3)
N1B N 1.2225(13) 0.4645(2) 1.1376(3)
O2B O 1.6129(11) 0.4145(2) 1.4045(3)
N2B N 0.8404(12) 0.5588(2) 1.0874(4)
C1B C 0.9965(15) 0.5567(3) 1.2962(4)
H1B H 0.9644 0.5775 1.3591
C2B C 1.4915(15) 0.4221(3) 1.2926(5)
C3B C 1.3713(14) 0.4169(3) 1.1033(4)
C4B C 1.2909(15) 0.4685(3) 1.2529(4)
C5B C 0.6674(15) 0.6307(3) 1.1871(5)
C6B C 1.5428(14) 0.3908(3) 1.2039(5)
C7B C 0.5586(15) 0.6411(3) 1.0769(5)
C8B C 1.1837(15) 0.5093(3) 1.3211(4)
H2B H 1.2506 0.5035 1.3979
C9B C 0.8459(15) 0.5791(3) 1.1935(5)
C10B C 0.6652(15) 0.5954(3) 1.0129(4)
C11B C 0.8225(18) 0.7098(3) 1.3004(6)
H3B H 0.7860 0.7347 1.2367
H4B H 0.7693 0.7287 1.3659
H5B H 1.0486 0.6987 1.3137
C12B C 1.4639(19) 0.3704(4) 1.4574(5)
H6B H 1.5075 0.3354 1.4232
H7B H 1.5518 0.3695 1.5363
H8B H 1.2313 0.3764 1.4486
loop_
_geom_bond_atom_site_label_1
_geom_bond_atom_site_label_2
_geom_bond_site_symmetry_1
_geom_bond_site_symmetry_2
Cl1 C6 1_555 1_555
Cl2 C7 1_555 1_555
O1 C5 1_555 1_555
N1 C3 1_555 1_555
O2 C2 1_555 1_555
N2 C9 1_555 1_555
C1 H1 1_555 1_555
C2 C4 1_555 1_555
C3 C6 1_555 1_555
C4 N1 1_555 1_555
C5 C7 1_555 1_555
C6 C2 1_555 1_555
C7 C10 1_555 1_555
C8 C1 1_555 1_555
H2 C8 1_555 1_555
C9 C1 1_555 1_555
C10 N2 1_555 1_555
C11 O1 1_555 1_555
H3 C11 1_555 1_555
H4 C11 1_555 1_555
H5 C11 1_555 1_555
C12 O2 1_555 1_555
H6 C12 1_555 1_555
H7 C12 1_555 1_555
H8 C12 1_555 1_555
H9 N1 1_555 1_555
Cl1B C6B 1_555 1_555
Cl2B C7B 1_555 1_555
O1B C5B 1_555 1_555
N1B C3B 1_555 1_555
O2B C2B 1_555 1_555
N2B C9B 1_555 1_555
C1B H1B 1_555 1_555
C2B C4B 1_555 1_555
C3B C10 1_555 1_555
C4B N1B 1_555 1_555
C5B C7B 1_555 1_555
C6B C2B 1_555 1_555
C7B C10B 1_555 1_555
C8B C1B 1_555 1_555
H2B C8B 1_555 1_555
C9B C1B 1_555 1_555
C10B C3 1_555 1_555
C11B O1B 1_555 1_555
H3B C11B 1_555 1_555
H4B C11B 1_555 1_555
H5B C11B 1_555 1_555
C12B O2B 1_555 1_555
H6B C12B 1_555 1_555
H7B C12B 1_555 1_555
H8B C12B 1_555 1_555
C4 C8 1_555 1_555
C5 C9 1_555 1_555
N2B C10B 1_555 1_555
C3B C6B 1_555 1_555
C4B C8B 1_555 1_555
C5B C9B 1_555 1_555

#END
