
#######################################################################
#
#                 Cambridge Crystallographic Data Centre
#                                CCDC 
#
#######################################################################
#
# If this CIF has been generated from an entry in the Cambridge 
# Structural Database, then it will include bibliographic, chemical, 
# crystal, experimental, refinement or atomic coordinate data resulting 
# from the CCDC's data processing and validation procedures.
#
#######################################################################

data_YUPHAU
_chemical_formula_moiety         'C46 H34 N2 O4 P2,2(C1 H4 O1)'
_chemical_name_systematic        
'4,8-bis(4-(diphenylphosphoryl)phenyl)-2,6-dimethyl[1,3]oxazolo[5,4-f][1,3]benzoxazole methanol solvate'
_symmetry_cell_setting           monoclinic
_symmetry_space_group_name_H-M   'P 21/n'
_symmetry_Int_Tables_number      14
_space_group_name_Hall           '-P 2yn'
loop_
_symmetry_equiv_pos_site_id
_symmetry_equiv_pos_as_xyz
1 x,y,z
2 1/2-x,1/2+y,1/2-z
3 -x,-y,-z
4 1/2+x,1/2-y,1/2+z
_cell_length_a                   9.8428(15)
_cell_length_b                   17.450(3)
_cell_length_c                   12.4113(19)
_cell_angle_alpha                90
_cell_angle_beta                 101.866(2)
_cell_angle_gamma                90
_cell_volume                     2086.17
_exptl_crystal_colour            white
_exptl_crystal_description       block
_chemical_melting_point          '403 K'
_cell_formula_units_Z            2
_exptl_crystal_recrystallization_method methanol
_exptl_crystal_preparation       Luminescent
loop_
_atom_site_label
_atom_site_type_symbol
_atom_site_fract_x
_atom_site_fract_y
_atom_site_fract_z
P1 P 0.33389(6) 0.17269(3) 0.68002(5)
O1 O 1.02905(16) 0.14471(9) 0.93266(13)
C1 C 0.7408(2) 0.07104(12) 0.87602(17)
C2 C 0.8703(2) 0.03552(13) 0.93817(17)
C3 C 0.9988(2) 0.07036(12) 0.95930(17)
N1 N 0.77222(19) -0.09341(11) 0.97316(16)
C4 C 0.8768(2) -0.03852(13) 0.98195(17)
C5 C 0.4966(2) 0.13654(12) 0.75764(18)
C6 C 0.7427(2) 0.11488(13) 0.78291(19)
H1 H 0.8261 0.1230 0.7605
C7 C 0.6222(2) 0.14629(13) 0.72377(19)
H2 H 0.6243 0.1744 0.6604
C8 C 0.3386(2) 0.15085(14) 0.5392(2)
C9 C 0.4948(2) 0.09375(14) 0.8517(2)
H3 H 0.4122 0.0873 0.8759
O2 O 0.21536(17) 0.13653(11) 0.71819(16)
C10 C 0.3312(3) 0.27560(13) 0.69333(19)
C11 C 0.6158(2) 0.06078(14) 0.90952(19)
H4 H 0.6134 0.0314 0.9716
C12 C 1.1665(2) 0.15318(14) 0.97635(19)
C13 C 1.2292(3) 0.22875(15) 0.9638(2)
H5 H 1.3278 0.2232 0.9720
H6 H 1.2097 0.2631 1.0191
H7 H 1.1907 0.2490 0.8921
C14 C 0.3412(3) 0.20526(17) 0.4596(2)
H8 H 0.3393 0.2570 0.4773
C15 C 0.4516(3) 0.32016(15) 0.7191(3)
H9 H 0.5383 0.2970 0.7279
C16 C 0.2035(3) 0.31146(17) 0.6787(3)
H10 H 0.1224 0.2829 0.6592
C17 C 0.3126(5) 0.43361(17) 0.7182(3)
H11 H 0.3058 0.4864 0.7264
C18 C 0.3468(4) 0.1084(2) 0.3254(3)
H12 H 0.3476 0.0942 0.2533
C19 C 0.1963(4) 0.3903(2) 0.6932(3)
H13 H 0.1100 0.4137 0.6855
C20 C 0.4420(4) 0.39914(17) 0.7315(3)
H14 H 0.5221 0.4287 0.7488
C21 C 0.3468(4) 0.1835(2) 0.3533(3)
H15 H 0.3505 0.2208 0.3005
C22 C 0.3455(6) 0.0544(2) 0.4034(4)
H16 H 0.3502 0.0030 0.3851
C23 C 0.3374(5) 0.07443(19) 0.5101(3)
H17 H 0.3311 0.0366 0.5616
P1B P 1.66611(6) -0.17269(3) 1.31998(5)
O1B O 0.97095(16) -0.14471(9) 1.06734(13)
C1B C 1.2592(2) -0.07104(12) 1.12398(17)
C2B C 1.1297(2) -0.03552(13) 1.06183(17)
C3B C 1.0012(2) -0.07036(12) 1.04070(17)
N1B N 1.22778(19) 0.09341(11) 1.02684(16)
C4B C 1.1232(2) 0.03852(13) 1.01805(17)
C5B C 1.5034(2) -0.13654(12) 1.24236(18)
C6B C 1.2573(2) -0.11488(13) 1.21709(19)
H1B H 1.1739 -0.1230 1.2395
C7B C 1.3778(2) -0.14629(13) 1.27623(19)
H2B H 1.3757 -0.1744 1.3396
C8B C 1.6614(2) -0.15085(14) 1.4608(2)
C9B C 1.5052(2) -0.09375(14) 1.1483(2)
H3B H 1.5878 -0.0873 1.1241
O2B O 1.78464(17) -0.13653(11) 1.28181(16)
C10B C 1.6688(3) -0.27560(13) 1.30667(19)
C11B C 1.3842(2) -0.06078(14) 1.09048(19)
H4B H 1.3866 -0.0314 1.0284
C12B C 0.8335(2) -0.15318(14) 1.02365(19)
C13B C 0.7708(3) -0.22875(15) 1.0362(2)
H5B H 0.6722 -0.2232 1.0280
H6B H 0.7903 -0.2631 0.9809
H7B H 0.8093 -0.2490 1.1079
C14B C 1.6588(3) -0.20526(17) 1.5404(2)
H8B H 1.6607 -0.2570 1.5227
C15B C 1.5484(3) -0.32016(15) 1.2809(3)
H9B H 1.4617 -0.2970 1.2721
C16B C 1.7965(3) -0.31146(17) 1.3213(3)
H10B H 1.8776 -0.2829 1.3408
C17B C 1.6874(5) -0.43361(17) 1.2818(3)
H11B H 1.6942 -0.4864 1.2736
C18B C 1.6532(4) -0.1084(2) 1.6746(3)
H12B H 1.6524 -0.0942 1.7467
C19B C 1.8037(4) -0.3903(2) 1.3068(3)
H13B H 1.8900 -0.4137 1.3145
C20B C 1.5580(4) -0.39914(17) 1.2685(3)
H14B H 1.4779 -0.4287 1.2512
C21B C 1.6532(4) -0.1835(2) 1.6467(3)
H15B H 1.6495 -0.2208 1.6995
C22B C 1.6545(6) -0.0544(2) 1.5966(4)
H16B H 1.6498 -0.0030 1.6149
C23B C 1.6626(5) -0.07443(19) 1.4899(3)
H17B H 1.6689 -0.0366 1.4384
O3 O 0.9462(3) 0.1496(2) 0.6164(2)
C24 C 0.9297(6) 0.1039(4) 0.5239(6)
H18 H 0.9695 0.1290 0.4689
H19 H 0.8326 0.0952 0.4957
H20 H 0.9755 0.0557 0.5428
H21 H 1.026(3) 0.141(3) 0.656(4)
C25? C 0.962(3) 0.0705(10) 0.621(3)
H22? H 1.0252 0.0551 0.5757
H23? H 0.8735 0.0465 0.5952
H24? H 0.9982 0.0552 0.6959
loop_
_geom_bond_atom_site_label_1
_geom_bond_atom_site_label_2
_geom_bond_site_symmetry_1
_geom_bond_site_symmetry_2
P1 C5 1_555 1_555
O1 C3 1_555 1_555
C1 C2 1_555 1_555
C2 C3 1_555 1_555
C3 C4B 1_555 1_555
N1 C4 1_555 1_555
C4 C2 1_555 1_555
C5 C7 1_555 1_555
C6 C1 1_555 1_555
H1 C6 1_555 1_555
C7 C6 1_555 1_555
H2 C7 1_555 1_555
C8 P1 1_555 1_555
C9 C5 1_555 1_555
H3 C9 1_555 1_555
O2 P1 1_555 1_555
C10 P1 1_555 1_555
C11 C1 1_555 1_555
H4 C11 1_555 1_555
C12 O1 1_555 1_555
C13 C12 1_555 1_555
H5 C13 1_555 1_555
H6 C13 1_555 1_555
H7 C13 1_555 1_555
C14 C8 1_555 1_555
H8 C14 1_555 1_555
C15 C10 1_555 1_555
H9 C15 1_555 1_555
C16 C10 1_555 1_555
H10 C16 1_555 1_555
C17 H11 1_555 1_555
C18 H12 1_555 1_555
C19 C16 1_555 1_555
H13 C19 1_555 1_555
C20 C15 1_555 1_555
H14 C20 1_555 1_555
C21 C14 1_555 1_555
H15 C21 1_555 1_555
C22 C18 1_555 1_555
H16 C22 1_555 1_555
C23 C8 1_555 1_555
H17 C23 1_555 1_555
O3 C24 1_555 1_555
C24 H18 1_555 1_555
H19 C24 1_555 1_555
H20 C24 1_555 1_555
H21 O3 1_555 1_555
P1B C5B 1_555 1_555
O1B C3B 1_555 1_555
C1B C2B 1_555 1_555
C2B C3B 1_555 1_555
C3B C4 1_555 1_555
N1B C12 1_555 1_555
C4B C2B 1_555 1_555
C5B C7B 1_555 1_555
C6B C1B 1_555 1_555
H1B C6B 1_555 1_555
C7B C6B 1_555 1_555
H2B C7B 1_555 1_555
C8B P1B 1_555 1_555
C9B C5B 1_555 1_555
H3B C9B 1_555 1_555
O2B P1B 1_555 1_555
C10B P1B 1_555 1_555
C11B C1B 1_555 1_555
H4B C11B 1_555 1_555
C12B N1 1_555 1_555
C13B C12B 1_555 1_555
H5B C13B 1_555 1_555
H6B C13B 1_555 1_555
H7B C13B 1_555 1_555
C14B C8B 1_555 1_555
H8B C14B 1_555 1_555
C15B C10B 1_555 1_555
H9B C15B 1_555 1_555
C16B C10B 1_555 1_555
H10B C16B 1_555 1_555
C17B H11B 1_555 1_555
C18B H12B 1_555 1_555
C19B C16B 1_555 1_555
H13B C19B 1_555 1_555
C20B C15B 1_555 1_555
H14B C20B 1_555 1_555
C21B C14B 1_555 1_555
H15B C21B 1_555 1_555
C22B C18B 1_555 1_555
H16B C22B 1_555 1_555
C23B C8B 1_555 1_555
H17B C23B 1_555 1_555
C9 C11 1_555 1_555
C17 C19 1_555 1_555
C17 C20 1_555 1_555
C18 C21 1_555 1_555
C22 C23 1_555 1_555
O1B C12B 1_555 1_555
N1B C4B 1_555 1_555
C9B C11B 1_555 1_555
C17B C19B 1_555 1_555
C17B C20B 1_555 1_555
C18B C21B 1_555 1_555
C22B C23B 1_555 1_555

#END
