
#######################################################################
#
#                 Cambridge Crystallographic Data Centre
#                                CCDC 
#
#######################################################################
#
# If this CIF has been generated from an entry in the Cambridge 
# Structural Database, then it will include bibliographic, chemical, 
# crystal, experimental, refinement or atomic coordinate data resulting 
# from the CCDC's data processing and validation procedures.
#
#######################################################################

data_YUPMED01
_chemical_name_common            bis(3-(bromomethyl)phenyl)diazene
_chemical_formula_moiety         'C14 H12 Br2 N2'
_chemical_name_systematic        (1E)-1,2-bis[3-(Bromomethyl)phenyl]-diazene
_symmetry_cell_setting           monoclinic
_symmetry_space_group_name_H-M   'P 21/c'
_symmetry_Int_Tables_number      14
_space_group_name_Hall           '-P 2ybc'
loop_
_symmetry_equiv_pos_site_id
_symmetry_equiv_pos_as_xyz
1 x,y,z
2 -x,1/2+y,1/2-z
3 -x,-y,-z
4 x,1/2-y,1/2+z
_cell_length_a                   13.8531(19)
_cell_length_b                   4.3928(6)
_cell_length_c                   11.1633(15)
_cell_angle_alpha                90
_cell_angle_beta                 98.597(2)
_cell_angle_gamma                90
_cell_volume                     671.698
_exptl_crystal_colour            orange
_exptl_crystal_description       plate
_chemical_melting_point          '419-420 K'
_cell_formula_units_Z            2
loop_
_atom_site_label
_atom_site_type_symbol
_atom_site_fract_x
_atom_site_fract_y
_atom_site_fract_z
Br1 Br 0.42693(4) 0.57960(10) 0.13792(3)
C1 C 0.34934(13) 0.8140(4) 0.00536(16)
H1 H 0.3226 0.9987 0.0392
H2 H 0.3922 0.8796 -0.0532
C2 C 0.26727(12) 0.6265(4) -0.05866(14)
C3 C 0.28092(13) 0.4560(5) -0.16109(16)
H3 H 0.3428 0.4552 -0.1880
C4 C 0.20425(13) 0.2882(4) -0.22346(16)
H4 H 0.2137 0.1741 -0.2930
C5 C 0.11363(12) 0.2878(4) -0.18382(15)
H5 H 0.0610 0.1745 -0.2265
C6 C 0.10043(12) 0.4543(4) -0.08119(14)
C7 C 0.17681(12) 0.6264(4) -0.01883(14)
H6 H 0.1670 0.7423 0.0502
N1 N 0.00409(11) 0.4372(3) -0.04925(13)
Br1B Br -0.42693(4) 0.42040(10) -0.13792(3)
C1B C -0.34934(13) 0.1860(4) -0.00536(16)
H1B H -0.3226 0.0013 -0.0392
H2B H -0.3922 0.1204 0.0532
C2B C -0.26727(12) 0.3735(4) 0.05866(14)
C3B C -0.28092(13) 0.5440(5) 0.16109(16)
H3B H -0.3428 0.5448 0.1880
C4B C -0.20425(13) 0.7118(4) 0.22346(16)
H4B H -0.2137 0.8259 0.2930
C5B C -0.11363(12) 0.7122(4) 0.18382(15)
H5B H -0.0610 0.8255 0.2265
C6B C -0.10043(12) 0.5457(4) 0.08119(14)
C7B C -0.17681(12) 0.3736(4) 0.01883(14)
H6B H -0.1670 0.2577 -0.0502
N1B N -0.00409(11) 0.5628(3) 0.04925(13)
Br2? Br 0.4462(9) 0.591(4) 0.1358(11)
C8? C 0.3869(7) 0.781(5) -0.0189(14)
H7? H 0.3793 1.0022 -0.0067
H8? H 0.4307 0.7519 -0.0804
C9? C 0.2893(7) 0.644(5) -0.0638(12)
C10? C 0.2784(12) 0.448(8) -0.164(2)
H9? H 0.3325 0.4092 -0.2053
C11? C 0.1887(13) 0.312(9) -0.205(3)
H10? H 0.1812 0.1847 -0.2741
C12? C 0.1101(11) 0.362(6) -0.1426(18)
H11? H 0.0485 0.2723 -0.1705
C13? C 0.1222(9) 0.545(5) -0.0395(16)
C14? C 0.2105(9) 0.696(6) -0.0025(19)
H12? H 0.2167 0.8337 0.0640
N2? N 0.0392(10) 0.558(8) 0.023(2)
loop_
_geom_bond_atom_site_label_1
_geom_bond_atom_site_label_2
_geom_bond_site_symmetry_1
_geom_bond_site_symmetry_2
Br1 C1 1_555 1_555
C1 H1 1_555 1_555
H2 C1 1_555 1_555
C2 C1 1_555 1_555
C3 C2 1_555 1_555
H3 C3 1_555 1_555
C4 C3 1_555 1_555
H4 C4 1_555 1_555
C5 C4 1_555 1_555
H5 C5 1_555 1_555
C6 C5 1_555 1_555
C7 C2 1_555 1_555
H6 C7 1_555 1_555
N1 C6 1_555 1_555
Br1B C1B 1_555 1_555
C1B H1B 1_555 1_555
H2B C1B 1_555 1_555
C2B C1B 1_555 1_555
C3B C2B 1_555 1_555
H3B C3B 1_555 1_555
C4B C3B 1_555 1_555
H4B C4B 1_555 1_555
C5B C4B 1_555 1_555
H5B C5B 1_555 1_555
C6B C5B 1_555 1_555
C7B C2B 1_555 1_555
H6B C7B 1_555 1_555
N1B N1 1_555 1_555
C6 C7 1_555 1_555
C6B C7B 1_555 1_555
C6B N1B 1_555 1_555

#END
