
#######################################################################
#
#                 Cambridge Crystallographic Data Centre
#                                CCDC 
#
#######################################################################
#
# If this CIF has been generated from an entry in the Cambridge 
# Structural Database, then it will include bibliographic, chemical, 
# crystal, experimental, refinement or atomic coordinate data resulting 
# from the CCDC's data processing and validation procedures.
#
#######################################################################

data_YUPMED09
_chemical_name_common            bis(3-(bromomethyl)phenyl)diazene
_chemical_formula_moiety         'C14 H12 Br2 N2'
_chemical_name_systematic        (1E)-1,2-bis[3-(Bromomethyl)phenyl]-diazene
_symmetry_cell_setting           monoclinic
_symmetry_space_group_name_H-M   'P 21/c'
_symmetry_Int_Tables_number      14
_space_group_name_Hall           '-P 2ybc'
loop_
_symmetry_equiv_pos_site_id
_symmetry_equiv_pos_as_xyz
1 x,y,z
2 -x,1/2+y,1/2-z
3 -x,-y,-z
4 x,1/2-y,1/2+z
_cell_length_a                   14.129(5)
_cell_length_b                   4.4805(14)
_cell_length_c                   11.264(4)
_cell_angle_alpha                90
_cell_angle_beta                 99.369(5)
_cell_angle_gamma                90
_cell_volume                     703.555
_exptl_crystal_colour            orange
_exptl_crystal_description       plate
_chemical_melting_point          '419-420 K'
_cell_formula_units_Z            2
loop_
_atom_site_label
_atom_site_type_symbol
_atom_site_fract_x
_atom_site_fract_y
_atom_site_fract_z
Br1 Br 0.4226(2) 0.5670(6) 0.1372(3)
C1 C 0.3428(3) 0.8073(10) 0.0107(4)
H1 H 0.3171 0.9795 0.0469
H2 H 0.3819 0.8783 -0.0467
C2 C 0.2619(2) 0.6205(11) -0.0530(3)
C3 C 0.2746(5) 0.467(3) -0.1564(10)
H3 H 0.3338 0.4711 -0.1824
C4 C 0.1991(4) 0.306(2) -0.2210(7)
H4 H 0.2072 0.2055 -0.2908
C5 C 0.1108(3) 0.2968(12) -0.1800(4)
H5 H 0.0604 0.1846 -0.2208
C6 C 0.0996(2) 0.4568(9) -0.0781(4)
C7 C 0.1734(3) 0.6212(10) -0.0166(4)
H6 H 0.1638 0.7335 0.0498
N1 N 0.0046(2) 0.4392(10) -0.0467(3)
Br1B Br -0.4226(2) 0.4330(6) -0.1372(3)
C1B C -0.3428(3) 0.1927(10) -0.0107(4)
H1B H -0.3171 0.0205 -0.0469
H2B H -0.3819 0.1217 0.0467
C2B C -0.2619(2) 0.3795(11) 0.0530(3)
C3B C -0.2746(5) 0.533(3) 0.1564(10)
H3B H -0.3338 0.5289 0.1824
C4B C -0.1991(4) 0.694(2) 0.2210(7)
H4B H -0.2072 0.7945 0.2908
C5B C -0.1108(3) 0.7032(12) 0.1800(4)
H5B H -0.0604 0.8154 0.2208
C6B C -0.0996(2) 0.5432(9) 0.0781(4)
C7B C -0.1734(3) 0.3788(10) 0.0166(4)
H6B H -0.1638 0.2665 -0.0498
N1B N -0.0046(2) 0.5608(10) 0.0467(3)
Br2? Br 0.4320(4) 0.6271(10) 0.1372(5)
C8? C 0.3726(4) 0.7946(19) -0.0206(6)
H7? H 0.3626 1.0074 -0.0128
H8? H 0.4152 0.7650 -0.0790
C9? C 0.2784(3) 0.644(2) -0.0634(5)
C10? C 0.2704(8) 0.449(6) -0.1605(18)
H9? H 0.3223 0.4198 -0.2004
C11? C 0.1847(7) 0.298(4) -0.1983(14)
H10? H 0.1800 0.1618 -0.2612
C12? C 0.1058(5) 0.353(2) -0.1408(7)
H11? H 0.0466 0.2671 -0.1694
C13? C 0.1173(4) 0.5367(16) -0.0407(6)
C14? C 0.2029(5) 0.676(2) -0.0009(6)
H12? H 0.2101 0.7916 0.0684
N2? N 0.0352(4) 0.552(2) 0.0205(6)
loop_
_geom_bond_atom_site_label_1
_geom_bond_atom_site_label_2
_geom_bond_site_symmetry_1
_geom_bond_site_symmetry_2
Br1 C1 1_555 1_555
C1 H1 1_555 1_555
H2 C1 1_555 1_555
C2 C1 1_555 1_555
C3 C2 1_555 1_555
H3 C3 1_555 1_555
C4 C3 1_555 1_555
H4 C4 1_555 1_555
C5 C4 1_555 1_555
H5 C5 1_555 1_555
C6 C5 1_555 1_555
C7 C2 1_555 1_555
H6 C7 1_555 1_555
N1 C6 1_555 1_555
Br1B C1B 1_555 1_555
C1B H1B 1_555 1_555
H2B C1B 1_555 1_555
C2B C1B 1_555 1_555
C3B C2B 1_555 1_555
H3B C3B 1_555 1_555
C4B C3B 1_555 1_555
H4B C4B 1_555 1_555
C5B C4B 1_555 1_555
H5B C5B 1_555 1_555
C6B C5B 1_555 1_555
C7B C2B 1_555 1_555
H6B C7B 1_555 1_555
N1B N1 1_555 1_555
C6 C7 1_555 1_555
C6B C7B 1_555 1_555
C6B N1B 1_555 1_555

#END
