
#######################################################################
#
#                 Cambridge Crystallographic Data Centre
#                                CCDC 
#
#######################################################################
#
# If this CIF has been generated from an entry in the Cambridge 
# Structural Database, then it will include bibliographic, chemical, 
# crystal, experimental, refinement or atomic coordinate data resulting 
# from the CCDC's data processing and validation procedures.
#
#######################################################################

data_YUPMED06
_chemical_name_common            bis(3-(bromomethyl)phenyl)diazene
_chemical_formula_moiety         'C14 H12 Br2 N2'
_chemical_name_systematic        (1E)-1,2-bis[3-(Bromomethyl)phenyl]-diazene
_symmetry_cell_setting           monoclinic
_symmetry_space_group_name_H-M   'P 21/c'
_symmetry_Int_Tables_number      14
_space_group_name_Hall           '-P 2ybc'
loop_
_symmetry_equiv_pos_site_id
_symmetry_equiv_pos_as_xyz
1 x,y,z
2 -x,1/2+y,1/2-z
3 -x,-y,-z
4 x,1/2-y,1/2+z
_cell_length_a                   14.051(2)
_cell_length_b                   4.4406(6)
_cell_length_c                   11.2041(16)
_cell_angle_alpha                90
_cell_angle_beta                 99.129(2)
_cell_angle_gamma                90
_cell_volume                     690.224
_exptl_crystal_colour            orange
_exptl_crystal_description       plate
_chemical_melting_point          '419-420 K'
_cell_formula_units_Z            2
loop_
_atom_site_label
_atom_site_type_symbol
_atom_site_fract_x
_atom_site_fract_y
_atom_site_fract_z
Br1 Br 0.42463(16) 0.5754(4) 0.13745(19)
C1 C 0.3457(2) 0.8129(7) 0.0076(3)
H1 H 0.3202 0.9900 0.0422
H2 H 0.3856 0.8793 -0.0504
C2 C 0.26396(19) 0.6240(8) -0.0552(3)
C3 C 0.2766(3) 0.463(2) -0.1582(7)
H3 H 0.3360 0.4659 -0.1849
C4 C 0.2006(3) 0.2981(16) -0.2212(5)
H4 H 0.2091 0.1906 -0.2899
C5 C 0.1117(2) 0.2945(8) -0.1811(3)
H5 H 0.0608 0.1830 -0.2223
C6 C 0.09970(19) 0.4590(7) -0.0789(3)
C7 C 0.1751(2) 0.6253(7) -0.0172(3)
H6 H 0.1659 0.7381 0.0500
N1 N 0.00417(19) 0.4389(7) -0.0481(2)
Br1B Br -0.42463(16) 0.4246(4) -0.13745(19)
C1B C -0.3457(2) 0.1871(7) -0.0076(3)
H1B H -0.3202 0.0100 -0.0422
H2B H -0.3856 0.1207 0.0504
C2B C -0.26396(19) 0.3760(8) 0.0552(3)
C3B C -0.2766(3) 0.537(2) 0.1582(7)
H3B H -0.3360 0.5341 0.1849
C4B C -0.2006(3) 0.7019(16) 0.2212(5)
H4B H -0.2091 0.8094 0.2899
C5B C -0.1117(2) 0.7055(8) 0.1811(3)
H5B H -0.0608 0.8170 0.2223
C6B C -0.09970(19) 0.5410(7) 0.0789(3)
C7B C -0.1751(2) 0.3747(7) 0.0172(3)
H6B H -0.1659 0.2619 -0.0500
N1B N -0.00417(19) 0.5611(7) 0.0481(2)
Br2? Br 0.4334(5) 0.6195(13) 0.1375(6)
C8? C 0.3769(5) 0.792(2) -0.0217(7)
H7? H 0.3688 1.0073 -0.0140
H8? H 0.4202 0.7569 -0.0797
C9? C 0.2809(4) 0.648(2) -0.0660(6)
C10? C 0.2725(8) 0.449(6) -0.1631(18)
H9? H 0.3250 0.4146 -0.2025
C11? C 0.1857(8) 0.301(5) -0.2013(16)
H10? H 0.1800 0.1690 -0.2665
C12? C 0.1073(5) 0.351(2) -0.1416(8)
H11? H 0.0480 0.2620 -0.1695
C13? C 0.1187(4) 0.5350(18) -0.0400(6)
C14? C 0.2053(5) 0.680(2) -0.0017(7)
H12? H 0.2127 0.7987 0.0674
N2? N 0.0353(4) 0.551(2) 0.0195(7)
loop_
_geom_bond_atom_site_label_1
_geom_bond_atom_site_label_2
_geom_bond_site_symmetry_1
_geom_bond_site_symmetry_2
Br1 C1 1_555 1_555
C1 H1 1_555 1_555
H2 C1 1_555 1_555
C2 C1 1_555 1_555
C3 C2 1_555 1_555
H3 C3 1_555 1_555
C4 C3 1_555 1_555
H4 C4 1_555 1_555
C5 C4 1_555 1_555
H5 C5 1_555 1_555
C6 C5 1_555 1_555
C7 C2 1_555 1_555
H6 C7 1_555 1_555
N1 C6 1_555 1_555
Br1B C1B 1_555 1_555
C1B H1B 1_555 1_555
H2B C1B 1_555 1_555
C2B C1B 1_555 1_555
C3B C2B 1_555 1_555
H3B C3B 1_555 1_555
C4B C3B 1_555 1_555
H4B C4B 1_555 1_555
C5B C4B 1_555 1_555
H5B C5B 1_555 1_555
C6B C5B 1_555 1_555
C7B C2B 1_555 1_555
H6B C7B 1_555 1_555
N1B N1 1_555 1_555
C6 C7 1_555 1_555
C6B C7B 1_555 1_555
C6B N1B 1_555 1_555

#END
