
#######################################################################
#
#                 Cambridge Crystallographic Data Centre
#                                CCDC 
#
#######################################################################
#
# If this CIF has been generated from an entry in the Cambridge 
# Structural Database, then it will include bibliographic, chemical, 
# crystal, experimental, refinement or atomic coordinate data resulting 
# from the CCDC's data processing and validation procedures.
#
#######################################################################

data_YUPMED03
_chemical_name_common            bis(3-(bromomethyl)phenyl)diazene
_chemical_formula_moiety         'C14 H12 Br2 N2'
_chemical_name_systematic        (1E)-1,2-bis[3-(Bromomethyl)phenyl]-diazene
_symmetry_cell_setting           monoclinic
_symmetry_space_group_name_H-M   'P 21/c'
_symmetry_Int_Tables_number      14
_space_group_name_Hall           '-P 2ybc'
loop_
_symmetry_equiv_pos_site_id
_symmetry_equiv_pos_as_xyz
1 x,y,z
2 -x,1/2+y,1/2-z
3 -x,-y,-z
4 x,1/2-y,1/2+z
_cell_length_a                   13.936(2)
_cell_length_b                   4.4112(7)
_cell_length_c                   11.1717(16)
_cell_angle_alpha                90
_cell_angle_beta                 98.840(2)
_cell_angle_gamma                90
_cell_volume                     678.617
_exptl_crystal_colour            orange
_exptl_crystal_description       plate
_chemical_melting_point          '419-420 K'
_cell_formula_units_Z            2
loop_
_atom_site_label
_atom_site_type_symbol
_atom_site_fract_x
_atom_site_fract_y
_atom_site_fract_z
Br1 Br 0.42552(5) 0.5810(2) 0.13822(7)
C1 C 0.34782(19) 0.8137(5) 0.0055(2)
H1 H 0.3216 0.9984 0.0391
H2 H 0.3900 0.8776 -0.0535
C2 C 0.26606(16) 0.6268(5) -0.05724(18)
C3 C 0.27895(19) 0.4575(10) -0.1598(3)
H3 H 0.3403 0.4568 -0.1868
C4 C 0.20268(19) 0.2909(8) -0.2222(3)
H4 H 0.2118 0.1772 -0.2918
C5 C 0.11275(15) 0.2913(6) -0.1822(2)
H5 H 0.0601 0.1790 -0.2249
C6 C 0.10027(15) 0.4565(5) -0.07979(19)
C7 C 0.17640(17) 0.6270(5) -0.01814(18)
H6 H 0.1668 0.7432 0.0506
N1 N 0.00403(14) 0.4388(5) -0.04902(16)
Br1B Br -0.42552(5) 0.4190(2) -0.13822(7)
C1B C -0.34782(19) 0.1863(5) -0.0055(2)
H1B H -0.3216 0.0016 -0.0391
H2B H -0.3900 0.1224 0.0535
C2B C -0.26606(16) 0.3732(5) 0.05724(18)
C3B C -0.27895(19) 0.5425(10) 0.1598(3)
H3B H -0.3403 0.5432 0.1868
C4B C -0.20268(19) 0.7091(8) 0.2222(3)
H4B H -0.2118 0.8228 0.2918
C5B C -0.11275(15) 0.7087(6) 0.1822(2)
H5B H -0.0601 0.8210 0.2249
C6B C -0.10027(15) 0.5435(5) 0.07979(19)
C7B C -0.17640(17) 0.3730(5) 0.01814(18)
H6B H -0.1668 0.2568 -0.0506
N1B N -0.00403(14) 0.5612(5) 0.04902(16)
Br2? Br 0.4418(4) 0.5975(19) 0.1339(6)
C8? C 0.3828(6) 0.787(3) -0.0210(9)
H7? H 0.3754 1.0078 -0.0089
H8? H 0.4262 0.7579 -0.0823
C9? C 0.2859(5) 0.651(3) -0.0656(7)
C10? C 0.2749(10) 0.460(7) -0.167(2)
H9? H 0.3277 0.4307 -0.2104
C11? C 0.1873(10) 0.313(6) -0.2048(18)
H10? H 0.1804 0.1828 -0.2734
C12? C 0.1096(7) 0.357(4) -0.1417(11)
H11? H 0.0487 0.2649 -0.1691
C13? C 0.1218(6) 0.538(3) -0.0385(10)
C14? C 0.2096(6) 0.685(3) -0.0007(11)
H12? H 0.2171 0.8095 0.0697
N2? N 0.0371(5) 0.559(3) 0.0199(10)
loop_
_geom_bond_atom_site_label_1
_geom_bond_atom_site_label_2
_geom_bond_site_symmetry_1
_geom_bond_site_symmetry_2
Br1 C1 1_555 1_555
C1 H1 1_555 1_555
H2 C1 1_555 1_555
C2 C1 1_555 1_555
C3 C2 1_555 1_555
H3 C3 1_555 1_555
C4 C3 1_555 1_555
H4 C4 1_555 1_555
C5 C4 1_555 1_555
H5 C5 1_555 1_555
C6 C5 1_555 1_555
C7 C2 1_555 1_555
H6 C7 1_555 1_555
N1 C6 1_555 1_555
Br1B C1B 1_555 1_555
C1B H1B 1_555 1_555
H2B C1B 1_555 1_555
C2B C1B 1_555 1_555
C3B C2B 1_555 1_555
H3B C3B 1_555 1_555
C4B C3B 1_555 1_555
H4B C4B 1_555 1_555
C5B C4B 1_555 1_555
H5B C5B 1_555 1_555
C6B C5B 1_555 1_555
C7B C2B 1_555 1_555
H6B C7B 1_555 1_555
N1B N1 1_555 1_555
C6 C7 1_555 1_555
C6B C7B 1_555 1_555
C6B N1B 1_555 1_555

#END
