
#######################################################################
#
#                 Cambridge Crystallographic Data Centre
#                                CCDC 
#
#######################################################################
#
# If this CIF has been generated from an entry in the Cambridge 
# Structural Database, then it will include bibliographic, chemical, 
# crystal, experimental, refinement or atomic coordinate data resulting 
# from the CCDC's data processing and validation procedures.
#
#######################################################################

data_YUPMED07
_chemical_name_common            bis(3-(bromomethyl)phenyl)diazene
_chemical_formula_moiety         'C14 H12 Br2 N2'
_chemical_name_systematic        (1E)-1,2-bis[3-(Bromomethyl)phenyl]-diazene
_symmetry_cell_setting           monoclinic
_symmetry_space_group_name_H-M   'P 21/c'
_symmetry_Int_Tables_number      14
_space_group_name_Hall           '-P 2ybc'
loop_
_symmetry_equiv_pos_site_id
_symmetry_equiv_pos_as_xyz
1 x,y,z
2 -x,1/2+y,1/2-z
3 -x,-y,-z
4 x,1/2-y,1/2+z
_cell_length_a                   14.0837(18)
_cell_length_b                   4.4538(6)
_cell_length_c                   11.2236(14)
_cell_angle_alpha                90
_cell_angle_beta                 99.2049(18)
_cell_angle_gamma                90
_cell_volume                     694.945
_exptl_crystal_colour            orange
_exptl_crystal_description       plate
_chemical_melting_point          '419-420 K'
_cell_formula_units_Z            2
loop_
_atom_site_label
_atom_site_type_symbol
_atom_site_fract_x
_atom_site_fract_y
_atom_site_fract_z
Br1 Br 0.4243(2) 0.5734(6) 0.1374(3)
C1 C 0.3451(3) 0.8121(10) 0.0081(4)
H1 H 0.3199 0.9886 0.0429
H2 H 0.3847 0.8782 -0.0501
C2 C 0.2634(3) 0.6237(11) -0.0540(3)
C3 C 0.2758(4) 0.463(3) -0.1576(8)
H3 H 0.3351 0.4655 -0.1842
C4 C 0.2000(4) 0.300(2) -0.2208(6)
H4 H 0.2084 0.1937 -0.2897
C5 C 0.1114(3) 0.2955(12) -0.1805(4)
H5 H 0.0606 0.1843 -0.2216
C6 C 0.0997(3) 0.4594(11) -0.0782(4)
C7 C 0.1749(3) 0.6259(10) -0.0167(3)
H6 H 0.1656 0.7395 0.0500
N1 N 0.0041(3) 0.4402(10) -0.0473(3)
Br1B Br -0.4243(2) 0.4266(6) -0.1374(3)
C1B C -0.3451(3) 0.1879(10) -0.0081(4)
H1B H -0.3199 0.0114 -0.0429
H2B H -0.3847 0.1218 0.0501
C2B C -0.2634(3) 0.3763(11) 0.0540(3)
C3B C -0.2758(4) 0.537(3) 0.1576(8)
H3B H -0.3351 0.5345 0.1842
C4B C -0.2000(4) 0.700(2) 0.2208(6)
H4B H -0.2084 0.8063 0.2897
C5B C -0.1114(3) 0.7045(12) 0.1805(4)
H5B H -0.0606 0.8157 0.2216
C6B C -0.0997(3) 0.5406(11) 0.0782(4)
C7B C -0.1749(3) 0.3741(10) 0.0167(3)
H6B H -0.1656 0.2605 -0.0500
N1B N -0.0041(3) 0.5598(10) 0.0473(3)
Br2? Br 0.4328(6) 0.6240(15) 0.1371(7)
C8? C 0.3765(6) 0.792(3) -0.0230(8)
H7? H 0.3686 1.0074 -0.0165
H8? H 0.4194 0.7542 -0.0808
C9? C 0.2805(5) 0.649(3) -0.0659(7)
C10? C 0.2714(9) 0.451(6) -0.1640(19)
H9? H 0.3233 0.4187 -0.2043
C11? C 0.1850(9) 0.302(6) -0.2014(18)
H10? H 0.1792 0.1701 -0.2663
C12? C 0.1071(6) 0.352(3) -0.1413(10)
H11? H 0.0479 0.2634 -0.1688
C13? C 0.1190(5) 0.536(2) -0.0398(8)
C14? C 0.2058(6) 0.678(3) -0.0011(8)
H12? H 0.2137 0.7942 0.0687
N2? N 0.0358(5) 0.551(3) 0.0205(8)
loop_
_geom_bond_atom_site_label_1
_geom_bond_atom_site_label_2
_geom_bond_site_symmetry_1
_geom_bond_site_symmetry_2
Br1 C1 1_555 1_555
C1 H1 1_555 1_555
H2 C1 1_555 1_555
C2 C1 1_555 1_555
C3 C2 1_555 1_555
H3 C3 1_555 1_555
C4 C3 1_555 1_555
H4 C4 1_555 1_555
C5 C4 1_555 1_555
H5 C5 1_555 1_555
C6 C5 1_555 1_555
C7 C2 1_555 1_555
H6 C7 1_555 1_555
N1 C6 1_555 1_555
Br1B C1B 1_555 1_555
C1B H1B 1_555 1_555
H2B C1B 1_555 1_555
C2B C1B 1_555 1_555
C3B C2B 1_555 1_555
H3B C3B 1_555 1_555
C4B C3B 1_555 1_555
H4B C4B 1_555 1_555
C5B C4B 1_555 1_555
H5B C5B 1_555 1_555
C6B C5B 1_555 1_555
C7B C2B 1_555 1_555
H6B C7B 1_555 1_555
N1B N1 1_555 1_555
C6 C7 1_555 1_555
C6B C7B 1_555 1_555
C6B N1B 1_555 1_555

#END
