
#######################################################################
#
#                 Cambridge Crystallographic Data Centre
#                                CCDC 
#
#######################################################################
#
# If this CIF has been generated from an entry in the Cambridge 
# Structural Database, then it will include bibliographic, chemical, 
# crystal, experimental, refinement or atomic coordinate data resulting 
# from the CCDC's data processing and validation procedures.
#
#######################################################################

data_YUPMED08
_chemical_name_common            bis(3-(bromomethyl)phenyl)diazene
_chemical_formula_moiety         'C14 H12 Br2 N2'
_chemical_name_systematic        (1E)-1,2-bis[3-(Bromomethyl)phenyl]-diazene
_symmetry_cell_setting           monoclinic
_symmetry_space_group_name_H-M   'P 21/c'
_symmetry_Int_Tables_number      14
_space_group_name_Hall           '-P 2ybc'
loop_
_symmetry_equiv_pos_site_id
_symmetry_equiv_pos_as_xyz
1 x,y,z
2 -x,1/2+y,1/2-z
3 -x,-y,-z
4 x,1/2-y,1/2+z
_cell_length_a                   14.105(3)
_cell_length_b                   4.4657(10)
_cell_length_c                   11.245(2)
_cell_angle_alpha                90
_cell_angle_beta                 99.262(3)
_cell_angle_gamma                90
_cell_volume                     699.073
_exptl_crystal_colour            orange
_exptl_crystal_description       plate
_chemical_melting_point          '419-420 K'
_cell_formula_units_Z            2
loop_
_atom_site_label
_atom_site_type_symbol
_atom_site_fract_x
_atom_site_fract_y
_atom_site_fract_z
Br1 Br 0.4233(2) 0.5705(6) 0.1369(3)
C1 C 0.3434(3) 0.8104(9) 0.0092(4)
H1 H 0.3176 0.9837 0.0451
H2 H 0.3828 0.8807 -0.0482
C2 C 0.2627(2) 0.6232(11) -0.0543(3)
C3 C 0.2752(4) 0.464(3) -0.1569(10)
H3 H 0.3347 0.4650 -0.1825
C4 C 0.2001(4) 0.302(2) -0.2214(7)
H4 H 0.2084 0.2007 -0.2911
C5 C 0.1116(3) 0.2942(12) -0.1805(4)
H5 H 0.0612 0.1811 -0.2213
C6 C 0.0995(2) 0.4558(10) -0.0788(4)
C7 C 0.1740(3) 0.6214(10) -0.0169(4)
H6 H 0.1645 0.7323 0.0502
N1 N 0.0044(2) 0.4397(10) -0.0477(3)
Br1B Br -0.4233(2) 0.4295(6) -0.1369(3)
C1B C -0.3434(3) 0.1896(9) -0.0092(4)
H1B H -0.3176 0.0163 -0.0451
H2B H -0.3828 0.1193 0.0482
C2B C -0.2627(2) 0.3768(11) 0.0543(3)
C3B C -0.2752(4) 0.536(3) 0.1569(10)
H3B H -0.3347 0.5350 0.1825
C4B C -0.2001(4) 0.698(2) 0.2214(7)
H4B H -0.2084 0.7993 0.2911
C5B C -0.1116(3) 0.7058(12) 0.1805(4)
H5B H -0.0612 0.8189 0.2213
C6B C -0.0995(2) 0.5442(10) 0.0788(4)
C7B C -0.1740(3) 0.3786(10) 0.0169(4)
H6B H -0.1645 0.2677 -0.0502
N1B N -0.0044(2) 0.5603(10) 0.0477(3)
Br2? Br 0.4328(5) 0.6237(13) 0.1380(6)
C8? C 0.3737(5) 0.794(2) -0.0201(7)
H7? H 0.3638 1.0077 -0.0118
H8? H 0.4165 0.7650 -0.0785
C9? C 0.2794(4) 0.645(2) -0.0635(6)
C10? C 0.2704(8) 0.452(6) -0.1620(19)
H9? H 0.3224 0.4233 -0.2023
C11? C 0.1850(8) 0.303(5) -0.2008(16)
H10? H 0.1799 0.1707 -0.2655
C12? C 0.1063(5) 0.352(2) -0.1419(8)
H11? H 0.0473 0.2635 -0.1700
C13? C 0.1171(5) 0.5353(18) -0.0411(6)
C14? C 0.2029(5) 0.679(2) -0.0019(7)
H12? H 0.2092 0.8007 0.0661
N2? N 0.0349(4) 0.550(2) 0.0201(7)
loop_
_geom_bond_atom_site_label_1
_geom_bond_atom_site_label_2
_geom_bond_site_symmetry_1
_geom_bond_site_symmetry_2
Br1 C1 1_555 1_555
C1 H1 1_555 1_555
H2 C1 1_555 1_555
C2 C1 1_555 1_555
C3 C2 1_555 1_555
H3 C3 1_555 1_555
C4 C3 1_555 1_555
H4 C4 1_555 1_555
C5 C4 1_555 1_555
H5 C5 1_555 1_555
C6 C5 1_555 1_555
C7 C2 1_555 1_555
H6 C7 1_555 1_555
N1 C6 1_555 1_555
Br1B C1B 1_555 1_555
C1B H1B 1_555 1_555
H2B C1B 1_555 1_555
C2B C1B 1_555 1_555
C3B C2B 1_555 1_555
H3B C3B 1_555 1_555
C4B C3B 1_555 1_555
H4B C4B 1_555 1_555
C5B C4B 1_555 1_555
H5B C5B 1_555 1_555
C6B C5B 1_555 1_555
C7B C2B 1_555 1_555
H6B C7B 1_555 1_555
N1B N1 1_555 1_555
C6 C7 1_555 1_555
C6B C7B 1_555 1_555
C6B N1B 1_555 1_555

#END
