
#######################################################################
#
#                 Cambridge Crystallographic Data Centre
#                                CCDC 
#
#######################################################################
#
# If this CIF has been generated from an entry in the Cambridge 
# Structural Database, then it will include bibliographic, chemical, 
# crystal, experimental, refinement or atomic coordinate data resulting 
# from the CCDC's data processing and validation procedures.
#
#######################################################################

data_YUPMED05
_chemical_name_common            bis(3-(bromomethyl)phenyl)diazene
_chemical_formula_moiety         'C14 H12 Br2 N2'
_chemical_name_systematic        (1E)-1,2-bis[3-(Bromomethyl)phenyl]-diazene
_symmetry_cell_setting           monoclinic
_symmetry_space_group_name_H-M   'P 21/c'
_symmetry_Int_Tables_number      14
_space_group_name_Hall           '-P 2ybc'
loop_
_symmetry_equiv_pos_site_id
_symmetry_equiv_pos_as_xyz
1 x,y,z
2 -x,1/2+y,1/2-z
3 -x,-y,-z
4 x,1/2-y,1/2+z
_cell_length_a                   14.0179(18)
_cell_length_b                   4.4297(6)
_cell_length_c                   11.1892(14)
_cell_angle_alpha                90
_cell_angle_beta                 99.047(2)
_cell_angle_gamma                90
_cell_volume                     686.151
_exptl_crystal_colour            orange
_exptl_crystal_description       plate
_chemical_melting_point          '419-420 K'
_cell_formula_units_Z            2
loop_
_atom_site_label
_atom_site_type_symbol
_atom_site_fract_x
_atom_site_fract_y
_atom_site_fract_z
Br1 Br 0.42481(12) 0.5774(4) 0.13779(15)
C1 C 0.3463(2) 0.8136(6) 0.0064(3)
H1 H 0.3204 0.9940 0.0406
H2 H 0.3871 0.8789 -0.0522
C2 C 0.26488(18) 0.6245(7) -0.0559(2)
C3 C 0.2774(3) 0.4592(18) -0.1583(5)
H3 H 0.3378 0.4595 -0.1849
C4 C 0.2013(3) 0.2939(14) -0.2214(4)
H4 H 0.2101 0.1834 -0.2906
C5 C 0.11170(18) 0.2931(7) -0.1814(3)
H5 H 0.0598 0.1821 -0.2234
C6 C 0.10003(18) 0.4586(6) -0.0786(3)
C7 C 0.1754(2) 0.6270(6) -0.0174(2)
H6 H 0.1661 0.7429 0.0501
N1 N 0.00394(17) 0.4389(6) -0.0486(2)
Br1B Br -0.42481(12) 0.4226(4) -0.13779(15)
C1B C -0.3463(2) 0.1864(6) -0.0064(3)
H1B H -0.3204 0.0060 -0.0406
H2B H -0.3871 0.1211 0.0522
C2B C -0.26488(18) 0.3755(7) 0.0559(2)
C3B C -0.2774(3) 0.5408(18) 0.1583(5)
H3B H -0.3378 0.5405 0.1849
C4B C -0.2013(3) 0.7061(14) 0.2214(4)
H4B H -0.2101 0.8166 0.2906
C5B C -0.11170(18) 0.7069(7) 0.1814(3)
H5B H -0.0598 0.8179 0.2234
C6B C -0.10003(18) 0.5414(6) 0.0786(3)
C7B C -0.1754(2) 0.3730(6) 0.0174(2)
H6B H -0.1661 0.2571 -0.0501
N1B N -0.00394(17) 0.5611(6) 0.0486(2)
Br2? Br 0.4353(5) 0.6161(15) 0.1368(6)
C8? C 0.3787(5) 0.793(2) -0.0221(7)
H7? H 0.3708 1.0111 -0.0135
H8? H 0.4225 0.7584 -0.0810
C9? C 0.2828(4) 0.651(2) -0.0664(6)
C10? C 0.2731(8) 0.457(6) -0.1656(19)
H9? H 0.3255 0.4271 -0.2074
C11? C 0.1863(8) 0.307(5) -0.2033(17)
H10? H 0.1804 0.1744 -0.2698
C12? C 0.1081(5) 0.353(2) -0.1418(8)
H11? H 0.0482 0.2611 -0.1690
C13? C 0.1201(5) 0.538(2) -0.0395(7)
C14? C 0.2072(5) 0.680(2) -0.0005(7)
H12? H 0.2153 0.7967 0.0706
N2? N 0.0353(4) 0.557(2) 0.0181(7)
loop_
_geom_bond_atom_site_label_1
_geom_bond_atom_site_label_2
_geom_bond_site_symmetry_1
_geom_bond_site_symmetry_2
Br1 C1 1_555 1_555
C1 H1 1_555 1_555
H2 C1 1_555 1_555
C2 C1 1_555 1_555
C3 C2 1_555 1_555
H3 C3 1_555 1_555
C4 C3 1_555 1_555
H4 C4 1_555 1_555
C5 C4 1_555 1_555
H5 C5 1_555 1_555
C6 C5 1_555 1_555
C7 C2 1_555 1_555
H6 C7 1_555 1_555
N1 C6 1_555 1_555
Br1B C1B 1_555 1_555
C1B H1B 1_555 1_555
H2B C1B 1_555 1_555
C2B C1B 1_555 1_555
C3B C2B 1_555 1_555
H3B C3B 1_555 1_555
C4B C3B 1_555 1_555
H4B C4B 1_555 1_555
C5B C4B 1_555 1_555
H5B C5B 1_555 1_555
C6B C5B 1_555 1_555
C7B C2B 1_555 1_555
H6B C7B 1_555 1_555
N1B N1 1_555 1_555
C6 C7 1_555 1_555
C6B C7B 1_555 1_555
C6B N1B 1_555 1_555

#END
