
#######################################################################
#
#                 Cambridge Crystallographic Data Centre
#                                CCDC 
#
#######################################################################
#
# If this CIF has been generated from an entry in the Cambridge 
# Structural Database, then it will include bibliographic, chemical, 
# crystal, experimental, refinement or atomic coordinate data resulting 
# from the CCDC's data processing and validation procedures.
#
#######################################################################

data_YUPMED02
_chemical_name_common            bis(3-(bromomethyl)phenyl)diazene
_chemical_formula_moiety         'C14 H12 Br2 N2'
_chemical_name_systematic        (1E)-1,2-bis[3-(Bromomethyl)phenyl]-diazene
_symmetry_cell_setting           monoclinic
_symmetry_space_group_name_H-M   'P 21/c'
_symmetry_Int_Tables_number      14
_space_group_name_Hall           '-P 2ybc'
loop_
_symmetry_equiv_pos_site_id
_symmetry_equiv_pos_as_xyz
1 x,y,z
2 -x,1/2+y,1/2-z
3 -x,-y,-z
4 x,1/2-y,1/2+z
_cell_length_a                   13.891(2)
_cell_length_b                   4.4024(7)
_cell_length_c                   11.1676(17)
_cell_angle_alpha                90
_cell_angle_beta                 98.719(2)
_cell_angle_gamma                90
_cell_volume                     675.048
_exptl_crystal_colour            orange
_exptl_crystal_description       plate
_chemical_melting_point          '419-420 K'
_cell_formula_units_Z            2
loop_
_atom_site_label
_atom_site_type_symbol
_atom_site_fract_x
_atom_site_fract_y
_atom_site_fract_z
Br1 Br 0.42627(4) 0.58035(15) 0.13805(5)
C1 C 0.34848(16) 0.8138(4) 0.00550(19)
H1 H 0.3219 0.9981 0.0393
H2 H 0.3910 0.8790 -0.0533
C2 C 0.26673(14) 0.6268(4) -0.05803(16)
C3 C 0.28026(15) 0.4566(7) -0.1604(2)
H3 H 0.3420 0.4553 -0.1871
C4 C 0.20371(16) 0.2898(5) -0.22294(18)
H4 H 0.2131 0.1762 -0.2926
C5 C 0.11306(14) 0.2894(5) -0.18335(17)
H5 H 0.0605 0.1766 -0.2261
C6 C 0.10027(13) 0.4552(4) -0.08081(16)
C7 C 0.17653(14) 0.6264(4) -0.01847(16)
H6 H 0.1668 0.7418 0.0506
N1 N 0.00394(12) 0.4379(4) -0.04911(14)
Br1B Br -0.42627(4) 0.41965(15) -0.13805(5)
C1B C -0.34848(16) 0.1862(4) -0.00550(19)
H1B H -0.3219 0.0019 -0.0393
H2B H -0.3910 0.1210 0.0533
C2B C -0.26673(14) 0.3732(4) 0.05803(16)
C3B C -0.28026(15) 0.5434(7) 0.1604(2)
H3B H -0.3420 0.5447 0.1871
C4B C -0.20371(16) 0.7102(5) 0.22294(18)
H4B H -0.2131 0.8238 0.2926
C5B C -0.11306(14) 0.7106(5) 0.18335(17)
H5B H -0.0605 0.8234 0.2261
C6B C -0.10027(13) 0.5448(4) 0.08081(16)
C7B C -0.17653(14) 0.3736(4) 0.01847(16)
H6B H -0.1668 0.2582 -0.0506
N1B N -0.00394(12) 0.5621(4) 0.04911(14)
Br2? Br 0.4434(6) 0.595(2) 0.1346(7)
C8? C 0.3845(6) 0.784(4) -0.0204(11)
H7? H 0.3773 1.0051 -0.0085
H8? H 0.4282 0.7538 -0.0817
C9? C 0.2873(5) 0.648(4) -0.0653(9)
C10? C 0.2760(10) 0.457(7) -0.1670(19)
H9? H 0.3282 0.4327 -0.2121
C11? C 0.1888(11) 0.304(6) -0.202(2)
H10? H 0.1828 0.1657 -0.2681
C12? C 0.1100(9) 0.354(4) -0.1404(14)
H11? H 0.0488 0.2613 -0.1676
C13? C 0.1218(7) 0.540(4) -0.0386(13)
C14? C 0.2100(7) 0.689(4) -0.0010(14)
H12? H 0.2171 0.8182 0.0680
N2? N 0.0380(7) 0.559(5) 0.0223(13)
loop_
_geom_bond_atom_site_label_1
_geom_bond_atom_site_label_2
_geom_bond_site_symmetry_1
_geom_bond_site_symmetry_2
Br1 C1 1_555 1_555
C1 H1 1_555 1_555
H2 C1 1_555 1_555
C2 C1 1_555 1_555
C3 C2 1_555 1_555
H3 C3 1_555 1_555
C4 C3 1_555 1_555
H4 C4 1_555 1_555
C5 C4 1_555 1_555
H5 C5 1_555 1_555
C6 C5 1_555 1_555
C7 C2 1_555 1_555
H6 C7 1_555 1_555
N1 C6 1_555 1_555
Br1B C1B 1_555 1_555
C1B H1B 1_555 1_555
H2B C1B 1_555 1_555
C2B C1B 1_555 1_555
C3B C2B 1_555 1_555
H3B C3B 1_555 1_555
C4B C3B 1_555 1_555
H4B C4B 1_555 1_555
C5B C4B 1_555 1_555
H5B C5B 1_555 1_555
C6B C5B 1_555 1_555
C7B C2B 1_555 1_555
H6B C7B 1_555 1_555
N1B N1 1_555 1_555
C6 C7 1_555 1_555
C6B C7B 1_555 1_555
C6B N1B 1_555 1_555

#END
