
#######################################################################
#
#                 Cambridge Crystallographic Data Centre
#                                CCDC 
#
#######################################################################
#
# If this CIF has been generated from an entry in the Cambridge 
# Structural Database, then it will include bibliographic, chemical, 
# crystal, experimental, refinement or atomic coordinate data resulting 
# from the CCDC's data processing and validation procedures.
#
#######################################################################

data_YUPNUT
_chemical_formula_moiety         'C15 H15 F1 O2'
_chemical_name_systematic        
(Z)-5-(2,2-Dimethylpropylidene)-3-(3-fluorophenyl)-2(5H)-furanone
_symmetry_cell_setting           triclinic
_symmetry_space_group_name_H-M   'P -1'
_symmetry_Int_Tables_number      2
_space_group_name_Hall           '-P 1'
loop_
_symmetry_equiv_pos_site_id
_symmetry_equiv_pos_as_xyz
1 x,y,z
2 -x,-y,-z
_cell_length_a                   6.475(2)
_cell_length_b                   12.450(5)
_cell_length_c                   17.926(7)
_cell_angle_alpha                109.52(3)
_cell_angle_beta                 96.19(3)
_cell_angle_gamma                92.03(4)
_cell_volume                     1350.14
_exptl_crystal_colour            colorless
_exptl_crystal_description       plate
_chemical_melting_point          '62-65 deg.C'
_cell_formula_units_Z            4
loop_
_atom_site_label
_atom_site_type_symbol
_atom_site_fract_x
_atom_site_fract_y
_atom_site_fract_z
F1 F 0.9241(4) 0.5561(2) 0.7069(2)
O1 O 0.7054(4) 0.2334(3) 0.3275(2)
O2 O 0.9474(4) 0.3004(3) 0.4331(2)
C1 C 0.7663(7) 0.2891(4) 0.4076(3)
C2 C 0.5810(6) 0.3213(3) 0.4469(2)
C3 C 0.4190(5) 0.2843(3) 0.3899(2)
C4 C 0.4889(6) 0.2312(3) 0.3145(2)
C5 C 0.5828(6) 0.3809(3) 0.5326(2)
C6 C 0.7608(6) 0.4408(3) 0.5806(2)
C7 C 0.7490(7) 0.4968(4) 0.6602(3)
C8 C 0.5726(7) 0.4984(4) 0.6957(2)
C9 C 0.3944(7) 0.4374(4) 0.6469(3)
C10 C 0.3998(6) 0.3789(4) 0.5666(2)
C11 C 0.3804(6) 0.1852(3) 0.2426(2)
C12 C 0.4521(7) 0.1268(4) 0.1632(3)
C13 C 0.5900(12) 0.2044(6) 0.1433(3)
C14 C 0.5462(10) 0.0224(5) 0.1610(3)
C15 C 0.2649(10) 0.0938(6) 0.0997(3)
H1 H 0.2698 0.2928 0.3989
H2 H 0.8946 0.4432 0.5578
H3 H 0.5709 0.5412 0.7538
H4 H 0.2614 0.4359 0.6703
H5 H 0.2712 0.3347 0.5327
H6 H 0.2263 0.1902 0.2413
H7 H 0.6365 0.1643 0.0902
H8 H 0.5145 0.2721 0.1409
H9 H 0.7143 0.2304 0.1849
H10 H 0.5924 -0.0145 0.1074
H11 H 0.6692 0.0403 0.2031
H12 H 0.4420 -0.0309 0.1709
H13 H 0.3111 0.0548 0.0464
H14 H 0.1644 0.0408 0.1116
H15 H 0.1955 0.1640 0.0990
F2 F 0.4396(4) 0.2875(2) -0.0692(2)
O3 O -0.0669(4) 0.6731(2) 0.2293(2)
O4 O -0.2894(4) 0.5263(3) 0.1570(2)
C16 C -0.1155(6) 0.5696(4) 0.1700(2)
C17 C 0.0728(5) 0.5325(3) 0.1321(2)
C18 C 0.2227(5) 0.6154(3) 0.1708(2)
C19 C 0.1435(6) 0.7030(4) 0.2319(2)
C20 C 0.0807(6) 0.4270(3) 0.0656(2)
C21 C 0.2624(6) 0.4058(3) 0.0293(2)
C22 C 0.2645(7) 0.3073(4) -0.0336(3)
C23 C 0.1029(7) 0.2272(4) -0.0643(2)
C24 C -0.0790(6) 0.2470(4) -0.0288(3)
C25 C -0.0872(6) 0.3457(4) 0.0359(2)
C26 C 0.2387(6) 0.7997(4) 0.2848(3)
C27 C 0.1574(8) 0.8925(4) 0.3488(3)
C28 C 0.0677(13) 0.8462(5) 0.4042(4)
C29 C 0.0018(11) 0.9522(6) 0.3143(4)
C30 C 0.3341(11) 0.9797(6) 0.3938(4)
H16 H 0.3696 0.6155 0.1584
H17 H 0.3878 0.4615 0.0489
H18 H 0.1138 0.1566 -0.1108
H19 H -0.2030 0.1904 -0.0496
H20 H -0.2176 0.3587 0.0618
H21 H 0.3900 0.8118 0.2806
H22 H 0.0138 0.9094 0.4468
H23 H -0.0494 0.7878 0.3745
H24 H 0.1772 0.8096 0.4290
H25 H -0.0508 1.0141 0.3582
H26 H 0.0678 0.9865 0.2787
H27 H -0.1171 0.8966 0.2826
H28 H 0.2807 1.0424 0.4370
H29 H 0.4437 0.9424 0.4181
H30 H 0.3952 1.0123 0.3564
loop_
_geom_bond_atom_site_label_1
_geom_bond_atom_site_label_2
_geom_bond_site_symmetry_1
_geom_bond_site_symmetry_2
F1 C7 1_555 1_555
O1 C1 1_555 1_555
O2 C1 1_555 1_555
C1 C2 1_555 1_555
C2 C3 1_555 1_555
C3 C4 1_555 1_555
C4 O1 1_555 1_555
C5 C2 1_555 1_555
C6 C5 1_555 1_555
C7 C6 1_555 1_555
C8 C7 1_555 1_555
C9 C8 1_555 1_555
C10 C5 1_555 1_555
C11 C4 1_555 1_555
C12 C11 1_555 1_555
C13 C12 1_555 1_555
C14 C12 1_555 1_555
C15 C12 1_555 1_555
F2 C22 1_555 1_555
O3 C16 1_555 1_555
O4 C16 1_555 1_555
C16 C17 1_555 1_555
C17 C18 1_555 1_555
C18 C19 1_555 1_555
C19 O3 1_555 1_555
C20 C17 1_555 1_555
C21 C20 1_555 1_555
C22 C21 1_555 1_555
C23 C22 1_555 1_555
C24 C23 1_555 1_555
C25 C20 1_555 1_555
C26 C19 1_555 1_555
C27 C26 1_555 1_555
C28 C27 1_555 1_555
C29 C27 1_555 1_555
C30 C27 1_555 1_555
H1 C3 1_555 1_555
H2 C6 1_555 1_555
H3 C8 1_555 1_555
H4 C9 1_555 1_555
H5 C10 1_555 1_555
H6 C11 1_555 1_555
H7 C13 1_555 1_555
H8 C13 1_555 1_555
H9 C13 1_555 1_555
H10 C14 1_555 1_555
H11 C14 1_555 1_555
H12 C14 1_555 1_555
H13 C15 1_555 1_555
H14 C15 1_555 1_555
H15 C15 1_555 1_555
H16 C18 1_555 1_555
H17 C21 1_555 1_555
H18 C23 1_555 1_555
H19 C24 1_555 1_555
H20 C25 1_555 1_555
H21 C26 1_555 1_555
H22 C28 1_555 1_555
H23 C28 1_555 1_555
H24 C28 1_555 1_555
H25 C29 1_555 1_555
H26 C29 1_555 1_555
H27 C29 1_555 1_555
H28 C30 1_555 1_555
H29 C30 1_555 1_555
H30 C30 1_555 1_555
C9 C10 1_555 1_555
C24 C25 1_555 1_555

#END
