
#######################################################################
#
#                 Cambridge Crystallographic Data Centre
#                                CCDC 
#
#######################################################################
#
# If this CIF has been generated from an entry in the Cambridge 
# Structural Database, then it will include bibliographic, chemical, 
# crystal, experimental, refinement or atomic coordinate data resulting 
# from the CCDC's data processing and validation procedures.
#
#######################################################################

data_YUPPEG06
_chemical_name_common            bis(4-(bromomethyl)phenyl)diazene
_chemical_formula_moiety         'C14 H12 Br2 N2'
_chemical_name_systematic        (1E)-1,2-bis[4-(Bromomethyl)phenyl]-diazene
_symmetry_cell_setting           monoclinic
_symmetry_space_group_name_H-M   'P 21/c'
_symmetry_Int_Tables_number      14
_space_group_name_Hall           '-P 2ybc'
loop_
_symmetry_equiv_pos_site_id
_symmetry_equiv_pos_as_xyz
1 x,y,z
2 -x,1/2+y,1/2-z
3 -x,-y,-z
4 x,1/2-y,1/2+z
_cell_length_a                   13.097(4)
_cell_length_b                   4.5652(15)
_cell_length_c                   11.779(4)
_cell_angle_alpha                90
_cell_angle_beta                 102.471(5)
_cell_angle_gamma                90
_cell_volume                     687.654
_exptl_crystal_colour            orange
_exptl_crystal_description       plate
_chemical_melting_point          '492-498 K'
_cell_formula_units_Z            2
loop_
_atom_site_label
_atom_site_type_symbol
_atom_site_fract_x
_atom_site_fract_y
_atom_site_fract_z
Br1 Br -0.4276(3) 1.1020(7) 0.6685(3)
C1 C -0.3465(9) 1.311(3) 0.5700(14)
H1 H -0.3912 1.3454 0.4919
H2 H -0.3233 1.5031 0.6050
C2 C -0.2534(11) 1.132(5) 0.5591(12)
C3 C -0.1702(9) 1.093(3) 0.6527(8)
H3 H -0.1692 1.1939 0.7235
C4 C -0.0885(5) 0.9091(14) 0.6438(5)
H4 H -0.0314 0.8866 0.7084
C5 C -0.0887(5) 0.7582(14) 0.5430(5)
C6 C -0.1696(8) 0.798(3) 0.4478(7)
H5 H -0.1681 0.7046 0.3760
C7 C -0.2534(14) 0.974(5) 0.4579(11)
H6 H -0.3120 0.9881 0.3945
N1 N 0.0009(3) 0.5649(9) 0.5467(4)
Br1B Br 0.4276(3) -0.1020(7) 0.3315(3)
C1B C 0.3465(9) -0.311(3) 0.4300(14)
H1B H 0.3912 -0.3454 0.5081
H2B H 0.3233 -0.5031 0.3950
C2B C 0.2534(11) -0.132(5) 0.4409(12)
C3B C 0.1702(9) -0.093(3) 0.3473(8)
H3B H 0.1692 -0.1939 0.2765
C4B C 0.0885(5) 0.0909(14) 0.3562(5)
H4B H 0.0314 0.1134 0.2916
C5B C 0.0887(5) 0.2418(14) 0.4570(5)
C6B C 0.1696(8) 0.202(3) 0.5522(7)
H5B H 0.1681 0.2954 0.6240
C7B C 0.2534(14) 0.026(5) 0.5421(11)
H6B H 0.3120 0.0119 0.6055
N1B N -0.0009(3) 0.4351(9) 0.4533(4)
Br2? Br -0.4308(5) 1.1720(10) 0.6580(6)
C8? C -0.3275(18) 1.345(5) 0.578(3)
H7? H -0.3641 1.4374 0.5044
H8? H -0.2869 1.4981 0.6275
C9? C -0.2548(19) 1.113(10) 0.552(2)
C10? C -0.1633(17) 1.049(5) 0.6333(17)
H9? H -0.1511 1.1373 0.7080
C11? C -0.0899(10) 0.858(3) 0.6064(10)
H10? H -0.0286 0.8116 0.6630
C12? C -0.1061(11) 0.737(3) 0.4990(9)
C13? C -0.1947(17) 0.800(6) 0.4173(15)
H11? H -0.2063 0.7048 0.3439
C14? C -0.268(3) 1.002(10) 0.439(2)
H12? H -0.3255 1.0614 0.3793
N2? N -0.0380(7) 0.5363(16) 0.4618(7)
loop_
_geom_bond_atom_site_label_1
_geom_bond_atom_site_label_2
_geom_bond_site_symmetry_1
_geom_bond_site_symmetry_2
Br1 C1 1_555 1_555
C1 H1 1_555 1_555
H2 C1 1_555 1_555
C2 C1 1_555 1_555
C3 C2 1_555 1_555
H3 C3 1_555 1_555
C4 C3 1_555 1_555
H4 C4 1_555 1_555
C5 C4 1_555 1_555
C6 C5 1_555 1_555
H5 C6 1_555 1_555
C7 C2 1_555 1_555
H6 C7 1_555 1_555
N1 C5 1_555 1_555
Br1B C1B 1_555 1_555
C1B H1B 1_555 1_555
H2B C1B 1_555 1_555
C2B C1B 1_555 1_555
C3B C2B 1_555 1_555
H3B C3B 1_555 1_555
C4B C3B 1_555 1_555
H4B C4B 1_555 1_555
C5B C4B 1_555 1_555
C6B C5B 1_555 1_555
H5B C6B 1_555 1_555
C7B C2B 1_555 1_555
H6B C7B 1_555 1_555
N1B N1 1_555 1_555
C6 C7 1_555 1_555
C5B N1B 1_555 1_555
C6B C7B 1_555 1_555

#END
