
#######################################################################
#
#                 Cambridge Crystallographic Data Centre
#                                CCDC 
#
#######################################################################
#
# If this CIF has been generated from an entry in the Cambridge 
# Structural Database, then it will include bibliographic, chemical, 
# crystal, experimental, refinement or atomic coordinate data resulting 
# from the CCDC's data processing and validation procedures.
#
#######################################################################

data_YUPPEG04
_chemical_name_common            bis(4-(bromomethyl)phenyl)diazene
_chemical_formula_moiety         'C14 H12 Br2 N2'
_chemical_name_systematic        (1E)-1,2-bis[4-(Bromomethyl)phenyl]-diazene
_symmetry_cell_setting           monoclinic
_symmetry_space_group_name_H-M   'P 21/c'
_symmetry_Int_Tables_number      14
_space_group_name_Hall           '-P 2ybc'
loop_
_symmetry_equiv_pos_site_id
_symmetry_equiv_pos_as_xyz
1 x,y,z
2 -x,1/2+y,1/2-z
3 -x,-y,-z
4 x,1/2-y,1/2+z
_cell_length_a                   13.0320(11)
_cell_length_b                   4.5311(4)
_cell_length_c                   11.6944(10)
_cell_angle_alpha                90
_cell_angle_beta                 102.4830(10)
_cell_angle_gamma                90
_cell_volume                     674.222
_exptl_crystal_colour            orange
_exptl_crystal_description       plate
_chemical_melting_point          '492-498 K'
_cell_formula_units_Z            2
loop_
_atom_site_label
_atom_site_type_symbol
_atom_site_fract_x
_atom_site_fract_y
_atom_site_fract_z
Br1 Br -0.4355(2) 1.1381(9) 0.6588(3)
C1 C -0.3456(7) 1.328(2) 0.5643(9)
H1 H -0.3875 1.3700 0.4847
H2 H -0.3186 1.5178 0.6008
C2 C -0.2561(9) 1.132(4) 0.5562(9)
C3 C -0.1716(6) 1.1012(16) 0.6518(6)
H3 H -0.1701 1.2105 0.7214
C4 C -0.0893(3) 0.9096(9) 0.6449(4)
H4 H -0.0334 0.8829 0.7112
C5 C -0.0880(3) 0.7588(9) 0.5429(4)
C6 C -0.1692(5) 0.7973(16) 0.4460(5)
H5 H -0.1672 0.7006 0.3744
C7 C -0.2539(11) 0.978(4) 0.4538(9)
H6 H -0.3110 0.9973 0.3882
N1 N 0.0004(3) 0.5650(7) 0.5476(3)
Br1B Br 0.4355(2) -0.1381(9) 0.3412(3)
C1B C 0.3456(7) -0.328(2) 0.4357(9)
H1B H 0.3875 -0.3700 0.5153
H2B H 0.3186 -0.5178 0.3992
C2B C 0.2561(9) -0.132(4) 0.4438(9)
C3B C 0.1716(6) -0.1012(16) 0.3482(6)
H3B H 0.1701 -0.2105 0.2786
C4B C 0.0893(3) 0.0904(9) 0.3551(4)
H4B H 0.0334 0.1171 0.2888
C5B C 0.0880(3) 0.2412(9) 0.4571(4)
C6B C 0.1692(5) 0.2027(16) 0.5540(5)
H5B H 0.1672 0.2994 0.6256
C7B C 0.2539(11) 0.022(4) 0.5462(9)
H6B H 0.3110 0.0027 0.6118
N1B N -0.0004(3) 0.4350(7) 0.4524(3)
Br2? Br -0.4208(5) 1.120(2) 0.6744(6)
C8? C -0.3322(18) 1.332(5) 0.586(2)
H7? H -0.3767 1.4130 0.5128
H8? H -0.2971 1.4996 0.6328
C9? C -0.252(2) 1.133(10) 0.555(2)
C10? C -0.1619(15) 1.048(4) 0.6387(17)
H9? H -0.1514 1.1189 0.7168
C11? C -0.0894(9) 0.861(2) 0.6075(10)
H10? H -0.0262 0.8165 0.6623
C12? C -0.1077(9) 0.741(2) 0.4991(9)
C13? C -0.1962(12) 0.812(4) 0.4164(12)
H11? H -0.2085 0.7218 0.3414
C14? C -0.268(2) 1.015(9) 0.442(2)
H12? H -0.3267 1.0731 0.3839
N2? N -0.0379(6) 0.5357(16) 0.4608(6)
loop_
_geom_bond_atom_site_label_1
_geom_bond_atom_site_label_2
_geom_bond_site_symmetry_1
_geom_bond_site_symmetry_2
Br1 C1 1_555 1_555
C1 H1 1_555 1_555
H2 C1 1_555 1_555
C2 C1 1_555 1_555
C3 C2 1_555 1_555
H3 C3 1_555 1_555
C4 C3 1_555 1_555
H4 C4 1_555 1_555
C5 C4 1_555 1_555
C6 C5 1_555 1_555
H5 C6 1_555 1_555
C7 C2 1_555 1_555
H6 C7 1_555 1_555
N1 C5 1_555 1_555
Br1B C1B 1_555 1_555
C1B H1B 1_555 1_555
H2B C1B 1_555 1_555
C2B C1B 1_555 1_555
C3B C2B 1_555 1_555
H3B C3B 1_555 1_555
C4B C3B 1_555 1_555
H4B C4B 1_555 1_555
C5B C4B 1_555 1_555
C6B C5B 1_555 1_555
H5B C6B 1_555 1_555
C7B C2B 1_555 1_555
H6B C7B 1_555 1_555
N1B N1 1_555 1_555
C6 C7 1_555 1_555
C5B N1B 1_555 1_555
C6B C7B 1_555 1_555

#END
