
#######################################################################
#
#                 Cambridge Crystallographic Data Centre
#                                CCDC 
#
#######################################################################
#
# If this CIF has been generated from an entry in the Cambridge 
# Structural Database, then it will include bibliographic, chemical, 
# crystal, experimental, refinement or atomic coordinate data resulting 
# from the CCDC's data processing and validation procedures.
#
#######################################################################

data_YUPPEG
_chemical_name_common            bis(4-(bromomethyl)phenyl)diazene
_chemical_formula_moiety         'C14 H12 Br2 N2'
_chemical_name_systematic        (1E)-1,2-bis[4-(Bromomethyl)phenyl]-diazene
_symmetry_cell_setting           monoclinic
_symmetry_space_group_name_H-M   'P 21/c'
_symmetry_Int_Tables_number      14
_space_group_name_Hall           '-P 2ybc'
loop_
_symmetry_equiv_pos_site_id
_symmetry_equiv_pos_as_xyz
1 x,y,z
2 -x,1/2+y,1/2-z
3 -x,-y,-z
4 x,1/2-y,1/2+z
_cell_length_a                   12.9324(11)
_cell_length_b                   4.4704(4)
_cell_length_c                   11.5909(10)
_cell_angle_alpha                90
_cell_angle_beta                 102.5920(10)
_cell_angle_gamma                90
_cell_volume                     653.987
_exptl_crystal_colour            orange
_exptl_crystal_description       plate
_chemical_melting_point          '492-498 K'
_cell_formula_units_Z            2
loop_
_atom_site_label
_atom_site_type_symbol
_atom_site_fract_x
_atom_site_fract_y
_atom_site_fract_z
Br1 Br -0.43784(9) 1.1449(3) 0.65843(10)
C1 C -0.3475(3) 1.3429(11) 0.5635(4)
H1 H -0.3898 1.3858 0.4832
H2 H -0.3207 1.5350 0.6009
C2 C -0.2567(6) 1.145(3) 0.5555(6)
C3 C -0.1734(3) 1.1047(10) 0.6537(4)
H3 H -0.1738 1.2088 0.7251
C4 C -0.08967(18) 0.9129(5) 0.6476(2)
H4 H -0.0336 0.8854 0.7149
C5 C -0.08813(16) 0.7613(4) 0.5428(2)
C6 C -0.1690(2) 0.8043(6) 0.4438(2)
H5 H -0.1671 0.7054 0.3718
C7 C -0.2537(4) 0.9945(14) 0.4507(4)
H6 H -0.3096 1.0215 0.3832
N1 N -0.00001(14) 0.5655(4) 0.54816(14)
Br1B Br 0.43784(9) -0.1449(3) 0.34157(10)
C1B C 0.3475(3) -0.3429(11) 0.4365(4)
H1B H 0.3898 -0.3858 0.5168
H2B H 0.3207 -0.5350 0.3991
C2B C 0.2567(6) -0.145(3) 0.4445(6)
C3B C 0.1734(3) -0.1047(10) 0.3463(4)
H3B H 0.1738 -0.2088 0.2749
C4B C 0.08967(18) 0.0871(5) 0.3524(2)
H4B H 0.0336 0.1146 0.2851
C5B C 0.08813(16) 0.2387(4) 0.4572(2)
C6B C 0.1690(2) 0.1957(6) 0.5562(2)
H5B H 0.1671 0.2946 0.6282
C7B C 0.2537(4) 0.0055(14) 0.5493(4)
H6B H 0.3096 -0.0215 0.6168
N1B N 0.00001(14) 0.4345(4) 0.45184(14)
Br2? Br -0.4274(3) 1.1299(11) 0.6719(4)
C8? C -0.3359(15) 1.353(4) 0.5841(18)
H7? H -0.3796 1.4347 0.5100
H8? H -0.3010 1.5213 0.6327
C9? C -0.254(2) 1.144(10) 0.5562(19)
C10? C -0.1618(13) 1.068(4) 0.6411(15)
H9? H -0.1488 1.1526 0.7181
C11? C -0.0903(7) 0.8673(19) 0.6099(8)
H10? H -0.0283 0.8117 0.6662
C12? C -0.1093(6) 0.7492(17) 0.4979(7)
C13? C -0.1970(8) 0.826(2) 0.4153(9)
H11? H -0.2073 0.7433 0.3381
C14? C -0.2711(15) 1.020(6) 0.4414(16)
H12? H -0.3326 1.0706 0.3833
N2? N -0.0387(5) 0.5377(14) 0.4599(5)
loop_
_geom_bond_atom_site_label_1
_geom_bond_atom_site_label_2
_geom_bond_site_symmetry_1
_geom_bond_site_symmetry_2
Br1 C1 1_555 1_555
C1 H1 1_555 1_555
H2 C1 1_555 1_555
C2 C1 1_555 1_555
C3 C2 1_555 1_555
H3 C3 1_555 1_555
C4 C3 1_555 1_555
H4 C4 1_555 1_555
C5 C4 1_555 1_555
C6 C5 1_555 1_555
H5 C6 1_555 1_555
C7 C2 1_555 1_555
H6 C7 1_555 1_555
N1 C5 1_555 1_555
Br1B C1B 1_555 1_555
C1B H1B 1_555 1_555
H2B C1B 1_555 1_555
C2B C1B 1_555 1_555
C3B C2B 1_555 1_555
H3B C3B 1_555 1_555
C4B C3B 1_555 1_555
H4B C4B 1_555 1_555
C5B C4B 1_555 1_555
C6B C5B 1_555 1_555
H5B C6B 1_555 1_555
C7B C2B 1_555 1_555
H6B C7B 1_555 1_555
N1B N1 1_555 1_555
C6 C7 1_555 1_555
C5B N1B 1_555 1_555
C6B C7B 1_555 1_555

#END
