
#######################################################################
#
#                 Cambridge Crystallographic Data Centre
#                                CCDC 
#
#######################################################################
#
# If this CIF has been generated from an entry in the Cambridge 
# Structural Database, then it will include bibliographic, chemical, 
# crystal, experimental, refinement or atomic coordinate data resulting 
# from the CCDC's data processing and validation procedures.
#
#######################################################################

data_YUPPEG02
_chemical_name_common            bis(4-(bromomethyl)phenyl)diazene
_chemical_formula_moiety         'C14 H12 Br2 N2'
_chemical_name_systematic        (1E)-1,2-bis[4-(Bromomethyl)phenyl]-diazene
_symmetry_cell_setting           monoclinic
_symmetry_space_group_name_H-M   'P 21/c'
_symmetry_Int_Tables_number      14
_space_group_name_Hall           '-P 2ybc'
loop_
_symmetry_equiv_pos_site_id
_symmetry_equiv_pos_as_xyz
1 x,y,z
2 -x,1/2+y,1/2-z
3 -x,-y,-z
4 x,1/2-y,1/2+z
_cell_length_a                   12.9648(11)
_cell_length_b                   4.5026(4)
_cell_length_c                   11.6333(10)
_cell_angle_alpha                90
_cell_angle_beta                 102.4990(10)
_cell_angle_gamma                90
_cell_volume                     663.003
_exptl_crystal_colour            orange
_exptl_crystal_description       plate
_chemical_melting_point          '492-498 K'
_cell_formula_units_Z            2
loop_
_atom_site_label
_atom_site_type_symbol
_atom_site_fract_x
_atom_site_fract_y
_atom_site_fract_z
Br1 Br -0.43659(10) 1.1438(4) 0.65891(12)
C1 C -0.3464(4) 1.3369(12) 0.5636(4)
H1 H -0.3885 1.3788 0.4836
H2 H -0.3193 1.5278 0.6004
C2 C -0.2563(6) 1.138(3) 0.5558(6)
C3 C -0.1725(4) 1.1023(10) 0.6528(4)
H3 H -0.1720 1.2091 0.7233
C4 C -0.0895(2) 0.9108(6) 0.6464(3)
H4 H -0.0336 0.8835 0.7134
C5 C -0.08803(19) 0.7598(5) 0.5428(2)
C6 C -0.1691(2) 0.8012(7) 0.4445(3)
H5 H -0.1671 0.7030 0.3727
C7 C -0.2534(5) 0.9876(16) 0.4515(5)
H6 H -0.3095 1.0127 0.3846
N1 N -0.00015(16) 0.5657(5) 0.54771(17)
Br1B Br 0.43659(10) -0.1438(4) 0.34109(12)
C1B C 0.3464(4) -0.3369(12) 0.4364(4)
H1B H 0.3885 -0.3788 0.5164
H2B H 0.3193 -0.5278 0.3996
C2B C 0.2563(6) -0.138(3) 0.4442(6)
C3B C 0.1725(4) -0.1023(10) 0.3472(4)
H3B H 0.1720 -0.2091 0.2767
C4B C 0.0895(2) 0.0892(6) 0.3536(3)
H4B H 0.0336 0.1165 0.2866
C5B C 0.08803(19) 0.2402(5) 0.4572(2)
C6B C 0.1691(2) 0.1988(7) 0.5555(3)
H5B H 0.1671 0.2970 0.6273
C7B C 0.2534(5) 0.0124(16) 0.5485(5)
H6B H 0.3095 -0.0127 0.6154
N1B N 0.00015(16) 0.4343(5) 0.45229(17)
Br2? Br -0.4243(4) 1.1242(14) 0.6730(5)
C8? C -0.3344(16) 1.346(5) 0.586(2)
H7? H -0.3785 1.4272 0.5125
H8? H -0.3001 1.5136 0.6344
C9? C -0.252(2) 1.144(10) 0.557(2)
C10? C -0.1616(15) 1.058(4) 0.6404(16)
H9? H -0.1500 1.1318 0.7187
C11? C -0.0896(8) 0.866(2) 0.6081(9)
H10? H -0.0264 0.8158 0.6628
C12? C -0.1095(7) 0.748(2) 0.4979(8)
C13? C -0.1974(9) 0.825(3) 0.4161(10)
H11? H -0.2088 0.7420 0.3393
C14? C -0.2697(19) 1.021(7) 0.4430(19)
H12? H -0.3310 1.0733 0.3855
N2? N -0.0378(6) 0.5365(17) 0.4606(6)
loop_
_geom_bond_atom_site_label_1
_geom_bond_atom_site_label_2
_geom_bond_site_symmetry_1
_geom_bond_site_symmetry_2
Br1 C1 1_555 1_555
C1 H1 1_555 1_555
H2 C1 1_555 1_555
C2 C1 1_555 1_555
C3 C2 1_555 1_555
H3 C3 1_555 1_555
C4 C3 1_555 1_555
H4 C4 1_555 1_555
C5 C4 1_555 1_555
C6 C5 1_555 1_555
H5 C6 1_555 1_555
C7 C2 1_555 1_555
H6 C7 1_555 1_555
N1 C5 1_555 1_555
Br1B C1B 1_555 1_555
C1B H1B 1_555 1_555
H2B C1B 1_555 1_555
C2B C1B 1_555 1_555
C3B C2B 1_555 1_555
H3B C3B 1_555 1_555
C4B C3B 1_555 1_555
H4B C4B 1_555 1_555
C5B C4B 1_555 1_555
C6B C5B 1_555 1_555
H5B C6B 1_555 1_555
C7B C2B 1_555 1_555
H6B C7B 1_555 1_555
N1B N1 1_555 1_555
C6 C7 1_555 1_555
C5B N1B 1_555 1_555
C6B C7B 1_555 1_555

#END
