
#######################################################################
#
#                 Cambridge Crystallographic Data Centre
#                                CCDC 
#
#######################################################################
#
# If this CIF has been generated from an entry in the Cambridge 
# Structural Database, then it will include bibliographic, chemical, 
# crystal, experimental, refinement or atomic coordinate data resulting 
# from the CCDC's data processing and validation procedures.
#
#######################################################################

data_YUPSUY
_chemical_formula_moiety         'C13 H14 N2 O3'
_chemical_name_systematic        1-(Morpholinomethyl)indoline-2,3-dione
_symmetry_cell_setting           monoclinic
_symmetry_space_group_name_H-M   'P 21/c'
_symmetry_Int_Tables_number      14
_space_group_name_Hall           '-P 2ybc'
loop_
_symmetry_equiv_pos_site_id
_symmetry_equiv_pos_as_xyz
1 x,y,z
2 -x,1/2+y,1/2-z
3 -x,-y,-z
4 x,1/2-y,1/2+z
_cell_length_a                   11.608(2)
_cell_length_b                   8.2818(17)
_cell_length_c                   12.595(3)
_cell_angle_alpha                90
_cell_angle_beta                 100.20(3)
_cell_angle_gamma                90
_cell_volume                     1191.69
_exptl_crystal_colour            orange
_exptl_crystal_description       block
_cell_formula_units_Z            4
_exptl_crystal_recrystallization_method methanol
loop_
_atom_site_label
_atom_site_type_symbol
_atom_site_fract_x
_atom_site_fract_y
_atom_site_fract_z
N1 N 0.91766(9) 0.23385(12) 0.11391(8)
N2 N 0.73127(8) 0.33226(11) 0.00535(8)
C1 C 0.68098(9) 0.48053(14) 0.03062(9)
O1 O 0.59676(8) 0.46330(13) -0.24949(7)
C2 C 0.98088(11) 0.23531(16) 0.02322(11)
H1 H 0.9591 0.3302 -0.0209
H2 H 0.9604 0.1404 -0.0212
O2 O 1.14402(7) 0.37200(13) 0.13337(9)
O3 O 0.73752(10) 0.19019(12) -0.15122(8)
C3 C 0.68346(10) 0.54811(15) 0.13085(10)
H3 H 0.7192 0.4957 0.1934
C4 C 0.62332(10) 0.55651(14) -0.06320(9)
C5 C 0.63447(10) 0.45189(15) -0.15409(10)
C6 C 0.79252(11) 0.21364(15) 0.08256(11)
C7 C 0.63034(11) 0.69807(15) 0.13481(11)
H4 H 0.6323 0.7477 0.2014
C8 C 0.70789(11) 0.30626(15) -0.10310(10)
C9 C 0.56961(11) 0.70484(16) -0.05764(11)
H5 H 0.5311 0.7557 -0.1197
C10 C 0.95237(11) 0.37262(17) 0.18371(11)
H6 H 0.9126 0.3692 0.2452
H7 H 0.9303 0.4718 0.1443
C11 C 0.57469(12) 0.77531(16) 0.04263(12)
H8 H 0.5403 0.8757 0.0481
C12 C 1.08328(12) 0.3691(2) 0.22195(12)
H9 H 1.1065 0.4616 0.2680
H10 H 1.1043 0.2721 0.2642
C13 C 1.11103(11) 0.23690(17) 0.06581(12)
H11 H 1.1329 0.1385 0.1062
H12 H 1.1529 0.2397 0.0057
H13 H 0.7745(10) 0.1067(17) 0.0422(11)
H14 H 0.7566(11) 0.2191(14) 0.1471(11)
loop_
_geom_bond_atom_site_label_1
_geom_bond_atom_site_label_2
_geom_bond_site_symmetry_1
_geom_bond_site_symmetry_2
N1 C2 1_555 1_555
N2 C1 1_555 1_555
C1 C3 1_555 1_555
O1 C5 1_555 1_555
C2 H1 1_555 1_555
H2 C2 1_555 1_555
O2 C12 1_555 1_555
O3 C8 1_555 1_555
C3 H3 1_555 1_555
C4 C1 1_555 1_555
C5 C4 1_555 1_555
C6 N1 1_555 1_555
C7 C3 1_555 1_555
H4 C7 1_555 1_555
C8 N2 1_555 1_555
C9 C4 1_555 1_555
H5 C9 1_555 1_555
C10 N1 1_555 1_555
H6 C10 1_555 1_555
H7 C10 1_555 1_555
C11 C7 1_555 1_555
H8 C11 1_555 1_555
C12 C10 1_555 1_555
H9 C12 1_555 1_555
H10 C12 1_555 1_555
C13 C2 1_555 1_555
H11 C13 1_555 1_555
H12 C13 1_555 1_555
H13 C6 1_555 1_555
H14 C6 1_555 1_555
N2 C6 1_555 1_555
O2 C13 1_555 1_555
C5 C8 1_555 1_555
C9 C11 1_555 1_555

#END
