
#######################################################################
#
#                 Cambridge Crystallographic Data Centre
#                                CCDC 
#
#######################################################################
#
# If this CIF has been generated from an entry in the Cambridge 
# Structural Database, then it will include bibliographic, chemical, 
# crystal, experimental, refinement or atomic coordinate data resulting 
# from the CCDC's data processing and validation procedures.
#
#######################################################################

data_YUPYOY
_chemical_name_common            
'2-((2-Hydroxy-4-methoxybenzylidene)ammonio)benzoate monohydrate'
_chemical_formula_moiety         'C15 H13 N1 O4,H2 O1'
_chemical_name_systematic        
'2-[(2-Hydroxy-4-methoxybenzylidene)azaniumyl]benzoate monohydrate'
_symmetry_cell_setting           triclinic
_symmetry_space_group_name_H-M   'P -1'
_symmetry_Int_Tables_number      2
_space_group_name_Hall           '-P 1'
loop_
_symmetry_equiv_pos_site_id
_symmetry_equiv_pos_as_xyz
1 x,y,z
2 -x,-y,-z
_cell_length_a                   8.7240(5)
_cell_length_b                   8.9252(4)
_cell_length_c                   10.7967(5)
_cell_angle_alpha                111.312(2)
_cell_angle_beta                 93.084(3)
_cell_angle_gamma                117.500(2)
_cell_volume                     669.239
_exptl_crystal_colour            colorless
_exptl_crystal_description       block
_cell_formula_units_Z            2
loop_
_atom_site_label
_atom_site_type_symbol
_atom_site_fract_x
_atom_site_fract_y
_atom_site_fract_z
N1 N 0.91763(18) 0.38037(19) 0.21508(14)
O1 O 0.65275(15) 0.22394(15) -0.01717(12)
O2 O 0.65944(15) 0.04540(16) 0.17602(12)
O3 O 0.65792(17) -0.01967(18) 0.35525(13)
O4 O 0.59187(15) 0.62901(16) -0.17000(12)
C1 C 0.8648(2) 0.5485(2) 0.10069(16)
C2 C 0.7092(2) 0.3956(2) -0.00735(16)
C3 C 0.6248(2) 0.4303(2) -0.09650(16)
H1 H 0.5244 0.3306 -0.1682
C4 C 0.6884(2) 0.6120(2) -0.07994(16)
C5 C 0.8428(2) 0.7642(2) 0.02468(18)
H2 H 0.8866 0.8859 0.0346
C6 C 0.9272(2) 0.7302(2) 0.11142(18)
H3 H 1.0301 0.8309 0.1805
C7 C 0.9597(2) 0.5313(2) 0.19950(17)
H4 H 1.0645 0.6404 0.2605
C8 C 1.0163(2) 0.3714(2) 0.31829(16)
C9 C 0.9308(2) 0.2225(2) 0.35416(16)
C10 C 1.0311(2) 0.2180(3) 0.45585(19)
H5 H 0.9764 0.1205 0.4813
C11 C 1.2094(3) 0.3539(3) 0.5200(2)
H6 H 1.2743 0.3465 0.5865
C12 C 1.2902(2) 0.5003(3) 0.48467(19)
H7 H 1.4098 0.5937 0.5289
C13 C 1.1959(2) 0.5100(2) 0.38442(18)
H8 H 1.2520 0.6092 0.3608
C14 C 0.7341(2) 0.0706(2) 0.29112(17)
C15 C 0.6600(3) 0.8098(3) -0.1699(2)
H9 H 0.6832 0.9017 -0.0787
H10 H 0.5730 0.8035 -0.2330
H11 H 0.7693 0.8447 -0.1978
H14 H 0.8112(18) 0.2707(19) 0.166(2)
H15 H 0.5504(18) 0.145(3) -0.0780(19)
O5 O 0.68483(19) 0.0450(2) 0.63223(16)
H12 H 0.675(3) 0.022(3) 0.5468(12)
H13 H 0.591(2) 0.046(3) 0.648(2)
loop_
_geom_bond_atom_site_label_1
_geom_bond_atom_site_label_2
_geom_bond_site_symmetry_1
_geom_bond_site_symmetry_2
N1 C7 1_555 1_555
O1 C2 1_555 1_555
O2 C14 1_555 1_555
O3 C14 1_555 1_555
O4 C4 1_555 1_555
O5 H12 1_555 1_555
C1 C2 1_555 1_555
C2 C3 1_555 1_555
C3 H1 1_555 1_555
C4 C3 1_555 1_555
C5 C4 1_555 1_555
H2 C5 1_555 1_555
C6 C1 1_555 1_555
H3 C6 1_555 1_555
C7 C1 1_555 1_555
H4 C7 1_555 1_555
C8 N1 1_555 1_555
C9 C8 1_555 1_555
C10 C9 1_555 1_555
H5 C10 1_555 1_555
C11 C10 1_555 1_555
H6 C11 1_555 1_555
C12 C11 1_555 1_555
H7 C12 1_555 1_555
C13 C8 1_555 1_555
H8 C13 1_555 1_555
C14 C9 1_555 1_555
C15 O4 1_555 1_555
H9 C15 1_555 1_555
H10 C15 1_555 1_555
H11 C15 1_555 1_555
H13 O5 1_555 1_555
H14 N1 1_555 1_555
H15 O1 1_555 1_555
C5 C6 1_555 1_555
C12 C13 1_555 1_555

#END
