
#######################################################################
#
#                 Cambridge Crystallographic Data Centre
#                                CCDC 
#
#######################################################################
#
# If this CIF has been generated from an entry in the Cambridge 
# Structural Database, then it will include bibliographic, chemical, 
# crystal, experimental, refinement or atomic coordinate data resulting 
# from the CCDC's data processing and validation procedures.
#
#######################################################################

data_YUQDOE
_chemical_formula_moiety         'C14 H16 N2 O2 S1'
_chemical_name_systematic        
N-(3-Butyl-4-oxo-1,3-thiazolidin-2-ylidene)benzamide
_symmetry_cell_setting           monoclinic
_symmetry_space_group_name_H-M   'P 21/n'
_symmetry_Int_Tables_number      14
_space_group_name_Hall           '-P 2yn'
loop_
_symmetry_equiv_pos_site_id
_symmetry_equiv_pos_as_xyz
1 x,y,z
2 1/2-x,1/2+y,1/2-z
3 -x,-y,-z
4 1/2+x,1/2-y,1/2+z
_cell_length_a                   5.46900(10)
_cell_length_b                   30.5591(8)
_cell_length_c                   8.6032(2)
_cell_angle_alpha                90
_cell_angle_beta                 99.895(3)
_cell_angle_gamma                90
_cell_volume                     1416.44
_exptl_crystal_colour            yellow
_exptl_crystal_description       platelet
_cell_formula_units_Z            4
loop_
_atom_site_label
_atom_site_type_symbol
_atom_site_fract_x
_atom_site_fract_y
_atom_site_fract_z
S1 S 0.28923(11) 0.210301(19) 0.34733(8)
N1 N 0.0399(3) 0.14912(6) 0.1466(2)
N2 N 0.4097(3) 0.12988(6) 0.3021(2)
O1 O -0.1307(3) 0.21815(6) 0.1475(2)
O2 O 0.7761(3) 0.11970(7) 0.4680(2)
C1 C -0.3441(4) 0.12483(8) -0.0946(3)
H1 H -0.2120 0.1058 -0.0637
C2 C -0.5428(5) 0.11225(10) -0.2086(3)
H2 H -0.5435 0.0846 -0.2540
C3 C -0.7382(5) 0.14015(11) -0.2550(3)
H3 H -0.8711 0.1313 -0.3310
C4 C -0.7377(4) 0.18069(11) -0.1902(3)
H4 H -0.8697 0.1996 -0.2228
C5 C -0.5429(4) 0.19391(8) -0.0765(3)
H5 H -0.5441 0.2217 -0.0322
C6 C -0.3447(4) 0.16583(7) -0.0278(2)
C7 C -0.1369(4) 0.18080(7) 0.0965(3)
C8 C 0.2273(4) 0.16005(7) 0.2522(2)
C9 C 0.6056(4) 0.14333(9) 0.4145(3)
C10 C 0.5774(4) 0.19006(9) 0.4582(3)
H6 H 0.7154 0.2071 0.4338
H7 H 0.5756 0.1925 0.5704
C11 C 0.4005(4) 0.08576(8) 0.2365(3)
H8 H 0.5683 0.0746 0.2452
H9 H 0.3289 0.0870 0.1253
C12 C 0.2517(5) 0.05489(9) 0.3177(4)
H10 H 0.0871 0.0669 0.3160
H11 H 0.3303 0.0516 0.4271
C13 C 0.2296(8) 0.01017(11) 0.2380(6)
H12 H 0.1831 0.0146 0.1251
H13 H 0.3921 -0.0035 0.2564
C14 C 0.0574(10) -0.01942(15) 0.2872(8)
H14 H 0.0878 -0.0214 0.4002
H15 H 0.0767 -0.0478 0.2430
H16 H -0.1084 -0.0091 0.2515
loop_
_geom_bond_atom_site_label_1
_geom_bond_atom_site_label_2
_geom_bond_site_symmetry_1
_geom_bond_site_symmetry_2
S1 C8 1_555 1_555
N1 C7 1_555 1_555
N2 C8 1_555 1_555
O1 C7 1_555 1_555
O2 C9 1_555 1_555
C1 H1 1_555 1_555
C2 C1 1_555 1_555
H2 C2 1_555 1_555
C3 C2 1_555 1_555
H3 C3 1_555 1_555
C4 C3 1_555 1_555
H4 C4 1_555 1_555
C5 C4 1_555 1_555
H5 C5 1_555 1_555
C6 C1 1_555 1_555
C7 C6 1_555 1_555
C8 N1 1_555 1_555
C9 N2 1_555 1_555
C10 S1 1_555 1_555
H6 C10 1_555 1_555
H7 C10 1_555 1_555
C11 N2 1_555 1_555
H8 C11 1_555 1_555
H9 C11 1_555 1_555
C12 C11 1_555 1_555
H10 C12 1_555 1_555
H11 C12 1_555 1_555
C13 C12 1_555 1_555
H12 C13 1_555 1_555
H13 C13 1_555 1_555
C14 C13 1_555 1_555
H14 C14 1_555 1_555
H15 C14 1_555 1_555
H16 C14 1_555 1_555
C5 C6 1_555 1_555
C9 C10 1_555 1_555

#END
