
#######################################################################
#
#                 Cambridge Crystallographic Data Centre
#                                CCDC 
#
#######################################################################
#
# If this CIF has been generated from an entry in the Cambridge 
# Structural Database, then it will include bibliographic, chemical, 
# crystal, experimental, refinement or atomic coordinate data resulting 
# from the CCDC's data processing and validation procedures.
#
#######################################################################

data_YUQFOG
_chemical_name_common            N-(3,4-Difluorophenyl)phthalimide
_chemical_formula_moiety         'C14 H7 F2 N1 O2'
_chemical_name_systematic        
2-(3,4-Difluorophenyl)-1H-isoindole-1,3(2H)-dione
_symmetry_cell_setting           orthorhombic
_symmetry_space_group_name_H-M   'P b c a'
_symmetry_Int_Tables_number      61
_space_group_name_Hall           '-P 2ac 2ab'
loop_
_symmetry_equiv_pos_site_id
_symmetry_equiv_pos_as_xyz
1 x,y,z
2 1/2-x,-y,1/2+z
3 -x,1/2+y,1/2-z
4 1/2+x,1/2-y,-z
5 -x,-y,-z
6 1/2+x,y,1/2-z
7 x,1/2-y,1/2+z
8 1/2-x,1/2+y,z
_cell_length_a                   15.101(3)
_cell_length_b                   5.8093(12)
_cell_length_c                   24.866(5)
_cell_angle_alpha                90
_cell_angle_beta                 90
_cell_angle_gamma                90
_cell_volume                     2181.4
_exptl_crystal_colour            colorless
_exptl_crystal_description       prism
_cell_formula_units_Z            8
loop_
_atom_site_label
_atom_site_type_symbol
_atom_site_fract_x
_atom_site_fract_y
_atom_site_fract_z
F1 F 0.18581(6) 0.83152(17) 0.21976(4)
F2 F 0.12250(7) 0.45784(18) 0.17125(4)
O1 O 0.04193(7) 0.85824(18) 0.40561(4)
O2 O 0.19778(7) 0.17995(18) 0.40802(4)
N1 N 0.11557(7) 0.5119(2) 0.39257(5)
C1 C 0.08090(9) 0.6931(2) 0.42336(6)
C2 C 0.10111(9) 0.6332(3) 0.48041(6)
C3 C 0.08065(10) 0.7479(3) 0.52755(6)
H1 H 0.0499 0.8905 0.5271
C4 C 0.10706(10) 0.6458(3) 0.57568(6)
H2 H 0.0942 0.7206 0.6087
C5 C 0.15184(10) 0.4367(3) 0.57625(6)
H3 H 0.1688 0.3708 0.6097
C6 C 0.17221(10) 0.3224(3) 0.52856(6)
H4 H 0.2028 0.1794 0.5287
C7 C 0.14620(9) 0.4251(3) 0.48107(6)
C8 C 0.15903(9) 0.3464(2) 0.42484(6)
C9 C 0.11494(9) 0.5016(3) 0.33528(6)
C10 C 0.15100(9) 0.6824(3) 0.30585(6)
H5 H 0.1744 0.8147 0.3232
C11 C 0.15153(9) 0.6626(3) 0.25060(6)
C12 C 0.11839(10) 0.4696(3) 0.22544(6)
C13 C 0.08237(10) 0.2919(3) 0.25441(6)
H6 H 0.0591 0.1601 0.2367
C14 C 0.08046(9) 0.3082(3) 0.31032(6)
H7 H 0.0557 0.1874 0.3312
loop_
_geom_bond_atom_site_label_1
_geom_bond_atom_site_label_2
_geom_bond_site_symmetry_1
_geom_bond_site_symmetry_2
F1 C11 1_555 1_555
F2 C12 1_555 1_555
O1 C1 1_555 1_555
O2 C8 1_555 1_555
N1 C1 1_555 1_555
C1 C2 1_555 1_555
C2 C3 1_555 1_555
C3 H1 1_555 1_555
C4 C3 1_555 1_555
H2 C4 1_555 1_555
C5 C4 1_555 1_555
H3 C5 1_555 1_555
C6 C5 1_555 1_555
H4 C6 1_555 1_555
C7 C2 1_555 1_555
C8 N1 1_555 1_555
C9 N1 1_555 1_555
C10 C9 1_555 1_555
H5 C10 1_555 1_555
C11 C10 1_555 1_555
C12 C11 1_555 1_555
C13 C12 1_555 1_555
H6 C13 1_555 1_555
C14 C9 1_555 1_555
H7 C14 1_555 1_555
C6 C7 1_555 1_555
C7 C8 1_555 1_555
C13 C14 1_555 1_555

#END
