
#######################################################################
#
#                 Cambridge Crystallographic Data Centre
#                                CCDC 
#
#######################################################################
#
# If this CIF has been generated from an entry in the Cambridge 
# Structural Database, then it will include bibliographic, chemical, 
# crystal, experimental, refinement or atomic coordinate data resulting 
# from the CCDC's data processing and validation procedures.
#
#######################################################################

data_YUQHAU
_chemical_name_common            
'Methyl 5-chloro-2-((4-ethoxy-4-oxobutyl)((4-methylphenyl)sulfonyl)amino)benzoate'
_chemical_formula_moiety         'C21 H24 Cl1 N1 O6 S1'
_chemical_name_systematic        
'Methyl 5-chloro-2-[N-(3-ethoxycarbonylpropyl)-4-methylbenzenesulfonamido]benzoate'
_symmetry_cell_setting           orthorhombic
_symmetry_space_group_name_H-M   'P 21 21 21'
_symmetry_Int_Tables_number      19
_space_group_name_Hall           'P 2ac 2ab'
loop_
_symmetry_equiv_pos_site_id
_symmetry_equiv_pos_as_xyz
1 x,y,z
2 1/2-x,-y,1/2+z
3 -x,1/2+y,1/2-z
4 1/2+x,1/2-y,-z
_cell_length_a                   9.1480(18)
_cell_length_b                   10.742(2)
_cell_length_c                   23.258(5)
_cell_angle_alpha                90
_cell_angle_beta                 90
_cell_angle_gamma                90
_cell_volume                     2285.51
_exptl_crystal_colour            colorless
_exptl_crystal_description       needle
_chemical_melting_point          '353 K'
_cell_formula_units_Z            4
loop_
_atom_site_label
_atom_site_type_symbol
_atom_site_fract_x
_atom_site_fract_y
_atom_site_fract_z
S1 S 0.32206(15) 0.97963(12) 0.21916(6)
Cl1 Cl -0.34814(14) 1.01035(14) 0.35104(7)
O1 O 0.5372(6) 0.6826(5) 0.4389(3)
O2 O 0.3409(6) 0.5726(4) 0.4257(2)
O3 O 0.2927(4) 1.1049(3) 0.23835(15)
O4 O 0.4681(4) 0.9398(3) 0.21051(16)
O5 O 0.1790(4) 1.2067(3) 0.35132(15)
O6 O 0.3165(4) 1.0402(3) 0.37290(16)
N1 N 0.2482(4) 0.8844(3) 0.26778(18)
C1 C 0.6798(12) 0.6647(8) 0.5254(4)
H1 H 0.6820 0.6204 0.5613
H2 H 0.6714 0.7524 0.5328
H3 H 0.7684 0.6487 0.5045
C2 C 0.5609(11) 0.6252(9) 0.4933(4)
H4 H 0.4737 0.6372 0.5163
H5 H 0.5713 0.5363 0.4869
C3 C 0.4202(8) 0.6527(6) 0.4104(3)
C4 C 0.4113(6) 0.7278(5) 0.3548(3)
H6 H 0.3982 0.8152 0.3641
H7 H 0.5023 0.7193 0.3338
C5 C 0.2883(6) 0.6854(5) 0.3181(2)
H8 H 0.1971 0.6994 0.3384
H9 H 0.2978 0.5966 0.3116
C6 C 0.2816(6) 0.7504(4) 0.2610(2)
H10 H 0.3746 0.7411 0.2415
H11 H 0.2069 0.7118 0.2374
C7 C 0.1045(6) 0.9196(4) 0.2868(2)
C8 C 0.0844(5) 1.0121(4) 0.3272(2)
C9 C -0.0552(5) 1.0403(5) 0.3460(2)
H12 H -0.0678 1.1043 0.3725
C10 C -0.1762(6) 0.9764(4) 0.3267(2)
C11 C -0.1565(6) 0.8815(5) 0.2868(3)
H13 H -0.2360 0.8361 0.2734
C12 C -0.0171(6) 0.8557(5) 0.2676(3)
H14 H -0.0045 0.7927 0.2405
C13 C 0.2085(6) 1.0834(4) 0.3535(2)
C14 C 0.2962(6) 1.2856(5) 0.3736(3)
H15 H 0.2676 1.3714 0.3709
H16 H 0.3834 1.2724 0.3514
H17 H 0.3147 1.2648 0.4131
C15 C 0.2247(6) 0.9560(5) 0.1556(2)
C16 C 0.0987(6) 1.0246(6) 0.1445(3)
H18 H 0.0677 1.0842 0.1708
C17 C 0.0199(7) 1.0052(7) 0.0952(3)
H19 H -0.0607 1.0549 0.0870
C18 C 0.0601(7) 0.9126(7) 0.0581(3)
C19 C 0.1794(8) 0.8414(6) 0.0698(3)
H20 H 0.2045 0.7768 0.0451
C20 C 0.2628(7) 0.8637(6) 0.1175(2)
H21 H 0.3460 0.8160 0.1242
C21 C -0.0298(8) 0.8910(8) 0.0048(3)
H22 H -0.1074 0.9511 0.0032
H23 H -0.0705 0.8087 0.0059
H24 H 0.0311 0.8995 -0.0285
loop_
_geom_bond_atom_site_label_1
_geom_bond_atom_site_label_2
_geom_bond_site_symmetry_1
_geom_bond_site_symmetry_2
S1 O3 1_555 1_555
Cl1 C10 1_555 1_555
O1 C2 1_555 1_555
O2 C3 1_555 1_555
O4 S1 1_555 1_555
O5 C13 1_555 1_555
O6 C13 1_555 1_555
N1 S1 1_555 1_555
C1 H1 1_555 1_555
H2 C1 1_555 1_555
H3 C1 1_555 1_555
C2 C1 1_555 1_555
H4 C2 1_555 1_555
H5 C2 1_555 1_555
C3 O1 1_555 1_555
C4 C3 1_555 1_555
H6 C4 1_555 1_555
H7 C4 1_555 1_555
C5 C4 1_555 1_555
H8 C5 1_555 1_555
H9 C5 1_555 1_555
C6 N1 1_555 1_555
H10 C6 1_555 1_555
H11 C6 1_555 1_555
C7 N1 1_555 1_555
C8 C7 1_555 1_555
C9 C8 1_555 1_555
H12 C9 1_555 1_555
C10 C9 1_555 1_555
C11 C10 1_555 1_555
H13 C11 1_555 1_555
C12 C7 1_555 1_555
H14 C12 1_555 1_555
C13 C8 1_555 1_555
C14 O5 1_555 1_555
H15 C14 1_555 1_555
H16 C14 1_555 1_555
H17 C14 1_555 1_555
C15 S1 1_555 1_555
C16 C15 1_555 1_555
H18 C16 1_555 1_555
C17 C16 1_555 1_555
H19 C17 1_555 1_555
C18 C17 1_555 1_555
C19 C18 1_555 1_555
H20 C19 1_555 1_555
C20 C15 1_555 1_555
H21 C20 1_555 1_555
C21 C18 1_555 1_555
H22 C21 1_555 1_555
H23 C21 1_555 1_555
H24 C21 1_555 1_555
C5 C6 1_555 1_555
C11 C12 1_555 1_555
C19 C20 1_555 1_555

#END
