
#######################################################################
#
#                 Cambridge Crystallographic Data Centre
#                                CCDC 
#
#######################################################################
#
# If this CIF has been generated from an entry in the Cambridge 
# Structural Database, then it will include bibliographic, chemical, 
# crystal, experimental, refinement or atomic coordinate data resulting 
# from the CCDC's data processing and validation procedures.
#
#######################################################################

data_YUQJEA
_chemical_formula_moiety         'C14 H11 Cl2 N3 S1'
_chemical_name_systematic        
2-(3-[1-(3,4-Dichlorophenyl)ethyl]-1,3-thiazolidin-2-ylidene)malononitrile
_symmetry_cell_setting           monoclinic
_symmetry_space_group_name_H-M   'P 21/n'
_symmetry_Int_Tables_number      14
_space_group_name_Hall           '-P 2yn'
loop_
_symmetry_equiv_pos_site_id
_symmetry_equiv_pos_as_xyz
1 x,y,z
2 1/2-x,1/2+y,1/2-z
3 -x,-y,-z
4 1/2+x,1/2-y,1/2+z
_cell_length_a                   7.5900(15)
_cell_length_b                   14.957(3)
_cell_length_c                   12.783(3)
_cell_angle_alpha                90
_cell_angle_beta                 99.03(3)
_cell_angle_gamma                90
_cell_volume                     1433.19
_exptl_crystal_colour            black
_exptl_crystal_description       prism
_cell_formula_units_Z            4
loop_
_atom_site_label
_atom_site_type_symbol
_atom_site_fract_x
_atom_site_fract_y
_atom_site_fract_z
S1 S 0.64889(9) 0.08386(5) -0.14263(5)
Cl1 Cl 0.92712(10) 0.58799(5) 0.13883(6)
Cl2 Cl 0.74727(10) 0.62951(5) -0.09604(6)
N1 N 0.7016(3) 0.19511(15) 0.01236(18)
N2 N 0.2888(3) 0.16439(17) 0.1598(2)
N3 N 0.1985(3) 0.01685(18) -0.1358(2)
C1 C 0.5784(4) 0.13843(17) -0.0353(2)
C2 C 0.8768(4) 0.1872(2) -0.0228(2)
H1 H 0.9508 0.1414 0.0192
H2 H 0.9410 0.2450 -0.0150
C3 C 0.8370(4) 0.1601(2) -0.1382(2)
H3 H 0.9408 0.1297 -0.1607
H4 H 0.8047 0.2127 -0.1843
C4 C 0.4095(4) 0.11831(18) -0.0098(2)
C5 C 0.3460(4) 0.14437(18) 0.0850(2)
C6 C 0.2938(4) 0.06174(19) -0.0798(2)
C7 C 0.6790(4) 0.26246(19) 0.0927(2)
H5 H 0.5539 0.2575 0.1076
C8 C 0.8041(4) 0.2423(2) 0.1955(2)
H6 H 0.7885 0.1800 0.2160
H7 H 0.7762 0.2821 0.2516
H8 H 0.9279 0.2518 0.1850
C9 C 0.6999(4) 0.35513(18) 0.0458(2)
C10 C 0.7943(4) 0.42212(19) 0.1048(2)
H9 H 0.8506 0.4103 0.1752
C11 C 0.8072(4) 0.50688(18) 0.0613(2)
C12 C 0.7274(4) 0.52438(19) -0.0414(2)
C13 C 0.6305(4) 0.45847(19) -0.1013(2)
H10 H 0.5743 0.4708 -0.1716
C14 C 0.6165(4) 0.37428(19) -0.0575(2)
H11 H 0.5494 0.3291 -0.0981
loop_
_geom_bond_atom_site_label_1
_geom_bond_atom_site_label_2
_geom_bond_site_symmetry_1
_geom_bond_site_symmetry_2
S1 C1 1_555 1_555
Cl1 C11 1_555 1_555
Cl2 C12 1_555 1_555
N1 C1 1_555 1_555
N2 C5 1_555 1_555
N3 C6 1_555 1_555
C1 C4 1_555 1_555
C2 N1 1_555 1_555
H1 C2 1_555 1_555
H2 C2 1_555 1_555
C3 S1 1_555 1_555
H3 C3 1_555 1_555
H4 C3 1_555 1_555
C4 C5 1_555 1_555
C6 C4 1_555 1_555
C7 N1 1_555 1_555
H5 C7 1_555 1_555
C8 C7 1_555 1_555
H6 C8 1_555 1_555
H7 C8 1_555 1_555
H8 C8 1_555 1_555
C9 C7 1_555 1_555
C10 C9 1_555 1_555
H9 C10 1_555 1_555
C11 C10 1_555 1_555
C12 C11 1_555 1_555
C13 C12 1_555 1_555
H10 C13 1_555 1_555
C14 C9 1_555 1_555
H11 C14 1_555 1_555
C2 C3 1_555 1_555
C13 C14 1_555 1_555

#END
