
#######################################################################
#
#                 Cambridge Crystallographic Data Centre
#                                CCDC 
#
#######################################################################
#
# If this CIF has been generated from an entry in the Cambridge 
# Structural Database, then it will include bibliographic, chemical, 
# crystal, experimental, refinement or atomic coordinate data resulting 
# from the CCDC's data processing and validation procedures.
#
#######################################################################

data_YUQMIH
_chemical_formula_moiety         'C17 H15 F3 N4 O2'
_chemical_name_systematic        
3-(2-Aminoethyl)-2-((4-(trifluoromethoxy)phenyl)amino)quinazolin-4(3H)-one
_symmetry_cell_setting           orthorhombic
_symmetry_space_group_name_H-M   'P b c n'
_symmetry_Int_Tables_number      60
_space_group_name_Hall           '-P 2n 2ab'
loop_
_symmetry_equiv_pos_site_id
_symmetry_equiv_pos_as_xyz
1 x,y,z
2 1/2-x,1/2-y,1/2+z
3 -x,y,1/2-z
4 1/2+x,1/2-y,-z
5 -x,-y,-z
6 1/2+x,1/2+y,1/2-z
7 x,-y,1/2+z
8 1/2-x,1/2+y,z
_cell_length_a                   11.9675(13)
_cell_length_b                   12.9579(13)
_cell_length_c                   21.280(2)
_cell_angle_alpha                90
_cell_angle_beta                 90
_cell_angle_gamma                90
_cell_volume                     3299.97
_exptl_crystal_colour            colorless
_exptl_crystal_description       block
_cell_formula_units_Z            8
loop_
_atom_site_label
_atom_site_type_symbol
_atom_site_fract_x
_atom_site_fract_y
_atom_site_fract_z
C1 C 0.9187(2) 1.31297(18) 0.55231(11)
C2 C 0.9408(2) 1.24194(18) 0.60015(11)
C3 C 0.9930(2) 1.2767(2) 0.65508(12)
H1 H 1.0093 1.2304 0.6871
C4 C 1.0200(2) 1.3792(2) 0.66172(14)
H2 H 1.0546 1.4014 0.6984
C5 C 0.9967(2) 1.4498(2) 0.61481(14)
H3 H 1.0156 1.5189 0.6199
C6 C 0.9457(2) 1.41721(19) 0.56101(14)
H4 H 0.9286 1.4648 0.5297
C7 C 0.8649(2) 1.27789(18) 0.49482(11)
C8 C 0.8673(2) 1.10775(18) 0.54329(10)
C9 C 0.7649(2) 1.1385(2) 0.44173(12)
H5 H 0.7257 1.1979 0.4249
H6 H 0.7092 1.0915 0.4585
C10 C 0.8258(2) 1.0850(2) 0.38838(11)
H7 H 0.7795 1.0861 0.3510
H8 H 0.8943 1.1220 0.3791
C11 C 0.8519(2) 0.92710(18) 0.57795(12)
C12 C 0.8785(2) 0.82950(18) 0.55666(12)
H9 H 0.8970 0.8200 0.5146
C13 C 0.8781(2) 0.74562(19) 0.59680(13)
H10 H 0.8987 0.6808 0.5821
C14 C 0.8473(13) 0.7581(8) 0.6583(5)
C15 C 0.812(2) 0.855(2) 0.6764(13)
H11 H 0.7805 0.8616 0.7161
C16 C 0.8208(17) 0.9417(9) 0.6397(8)
H12 H 0.8065 1.0072 0.6558
C17 C 0.8238(9) 0.6670(8) 0.7538(5)
O1 O 0.8387(12) 0.6644(9) 0.6922(5)
F1 F 0.8935(8) 0.7216(9) 0.7869(6)
F2 F 0.7234(6) 0.7043(7) 0.7658(5)
F3 F 0.8159(10) 0.5681(5) 0.7691(4)
N1 N 0.83729(16) 1.17338(14) 0.49385(9)
N2 N 0.91631(18) 1.13823(14) 0.59417(9)
N3 N 0.8525(2) 0.97796(19) 0.40455(11)
H13 H 0.7992(19) 0.936(2) 0.3949(14)
H14 H 0.9115(17) 0.952(2) 0.3871(14)
N4 N 0.8435(2) 1.00667(16) 0.53333(9)
H15 H 0.843(2) 0.988(2) 0.4945(6)
O2 O 0.84285(17) 1.33377(14) 0.45034(9)
C18? C 0.8582(12) 0.7631(9) 0.6591(6)
C19? C 0.842(3) 0.8590(19) 0.6855(14)
C20? C 0.834(3) 0.9368(16) 0.6418(13)
C21? C 0.8114(10) 0.6564(9) 0.7475(6)
F4? F 0.8435(10) 0.7198(6) 0.7928(4)
F5? F 0.7057(9) 0.6717(8) 0.7373(5)
F6? F 0.8383(15) 0.5654(9) 0.7708(7)
H16? H 0.8374 0.8700 0.7286
H17? H 0.8148 1.0020 0.6566
O3? O 0.8747(11) 0.6749(8) 0.6976(5)
loop_
_geom_bond_atom_site_label_1
_geom_bond_atom_site_label_2
_geom_bond_site_symmetry_1
_geom_bond_site_symmetry_2
C1 C2 1_555 1_555
C2 C3 1_555 1_555
C3 H1 1_555 1_555
C4 C3 1_555 1_555
H2 C4 1_555 1_555
C5 C4 1_555 1_555
H3 C5 1_555 1_555
C6 C1 1_555 1_555
H4 C6 1_555 1_555
C7 C1 1_555 1_555
C8 N1 1_555 1_555
C9 H5 1_555 1_555
H6 C9 1_555 1_555
C10 C9 1_555 1_555
H7 C10 1_555 1_555
H8 C10 1_555 1_555
C11 C12 1_555 1_555
C12 H9 1_555 1_555
C13 C12 1_555 1_555
H10 C13 1_555 1_555
C14 C13 1_555 1_555
C15 C14 1_555 1_555
H11 C15 1_555 1_555
C16 C11 1_555 1_555
H12 C16 1_555 1_555
C17 O1 1_555 1_555
O1 C14 1_555 1_555
F1 C17 1_555 1_555
F2 C17 1_555 1_555
F3 C17 1_555 1_555
N1 C7 1_555 1_555
N2 C2 1_555 1_555
N3 C10 1_555 1_555
H13 N3 1_555 1_555
H14 N3 1_555 1_555
N4 C8 1_555 1_555
H15 N4 1_555 1_555
O2 C7 1_555 1_555
C5 C6 1_555 1_555
C8 N2 1_555 1_555
C9 N1 1_555 1_555
C11 N4 1_555 1_555
C15 C16 1_555 1_555

#END
