
#######################################################################
#
#                 Cambridge Crystallographic Data Centre
#                                CCDC 
#
#######################################################################
#
# If this CIF has been generated from an entry in the Cambridge 
# Structural Database, then it will include bibliographic, chemical, 
# crystal, experimental, refinement or atomic coordinate data resulting 
# from the CCDC's data processing and validation procedures.
#
#######################################################################

data_YUQNII
_chemical_name_common            
'1-(Diphenylmethyl)-4-ethylpiperazinediium dichloride'
_chemical_formula_moiety         'C19 H26 N2 2+,2(Cl1 1-)'
_chemical_name_systematic        
'1-Diphenylmethyl-4-ethylpiperazine-1,4-diium dichloride'
_symmetry_cell_setting           monoclinic
_symmetry_space_group_name_H-M   'P 21/c'
_symmetry_Int_Tables_number      14
_space_group_name_Hall           '-P 2ybc'
loop_
_symmetry_equiv_pos_site_id
_symmetry_equiv_pos_as_xyz
1 x,y,z
2 -x,1/2+y,1/2-z
3 -x,-y,-z
4 x,1/2-y,1/2+z
_cell_length_a                   15.069(3)
_cell_length_b                   7.2950(15)
_cell_length_c                   18.565(4)
_cell_angle_alpha                90
_cell_angle_beta                 106.35(3)
_cell_angle_gamma                90
_cell_volume                     1958.29
_exptl_crystal_colour            yellow
_exptl_crystal_description       block
_cell_formula_units_Z            4
loop_
_atom_site_label
_atom_site_type_symbol
_atom_site_fract_x
_atom_site_fract_y
_atom_site_fract_z
C1 C 0.6307(3) 0.4082(10) 0.0245(3)
H1 H 0.6052 0.4038 -0.0273
C2 C 0.6600(4) 0.2480(8) 0.0637(3)
H2 H 0.6549 0.1369 0.0383
C3 C 0.6968(3) 0.2534(6) 0.1407(2)
H3 H 0.7158 0.1459 0.1676
C4 C 0.7053(2) 0.4206(5) 0.17766(19)
C5 C 0.6766(3) 0.5794(6) 0.1372(2)
H4 H 0.6830 0.6915 0.1619
C6 C 0.6387(3) 0.5729(8) 0.0607(3)
H5 H 0.6187 0.6799 0.0338
C7 C 0.7408(2) 0.4406(4) 0.26239(18)
H6 H 0.7627 0.5672 0.2719
C8 C 0.6648(2) 0.4179(5) 0.30018(19)
C9 C 0.6408(3) 0.5678(5) 0.3367(2)
H7 H 0.6747 0.6758 0.3413
C10 C 0.5665(3) 0.5563(7) 0.3663(2)
H8 H 0.5506 0.6578 0.3903
C11 C 0.5164(3) 0.4010(8) 0.3610(2)
H9 H 0.4664 0.3957 0.3810
C12 C 0.5400(3) 0.2510(7) 0.3258(2)
H10 H 0.5056 0.1437 0.3222
C13 C 0.6142(3) 0.2571(6) 0.2956(2)
H11 H 0.6300 0.1541 0.2724
C14 C 0.9003(2) 0.3678(4) 0.26354(17)
H12 H 0.9148 0.4970 0.2721
H13 H 0.8801 0.3476 0.2097
C15 C 0.9859(2) 0.2566(5) 0.29714(17)
H14 H 0.9727 0.1281 0.2854
H15 H 1.0342 0.2941 0.2751
C16 C 0.9435(2) 0.2275(5) 0.41299(18)
H16 H 0.9638 0.2468 0.4669
H17 H 0.9295 0.0983 0.4039
C17 C 0.8575(2) 0.3387(5) 0.37957(17)
H18 H 0.8093 0.2996 0.4015
H19 H 0.8705 0.4668 0.3921
C18 C 1.1074(3) 0.1783(5) 0.4132(2)
H20 H 1.1505 0.2061 0.3845
H21 H 1.0950 0.0476 0.4091
C19 C 1.1516(3) 0.2259(6) 0.4946(2)
H22 H 1.2073 0.1561 0.5132
H23 H 1.1095 0.1975 0.5234
H24 H 1.1660 0.3543 0.4989
H25 H 0.807(2) 0.193(5) 0.2866(18)
H26 H 1.033(2) 0.392(5) 0.3885(19)
N1 N 0.82357(19) 0.3192(4) 0.29633(14)
N2 N 1.0189(2) 0.2800(4) 0.37993(15)
Cl1 Cl 1.05758(8) 0.68359(12) 0.40163(5)
Cl2 Cl 0.80657(8) -0.09301(13) 0.27873(7)
loop_
_geom_bond_atom_site_label_1
_geom_bond_atom_site_label_2
_geom_bond_site_symmetry_1
_geom_bond_site_symmetry_2
C1 H1 1_555 1_555
C2 C1 1_555 1_555
H2 C2 1_555 1_555
C3 C2 1_555 1_555
H3 C3 1_555 1_555
C4 C3 1_555 1_555
C5 C4 1_555 1_555
H4 C5 1_555 1_555
C6 C1 1_555 1_555
H5 C6 1_555 1_555
C7 C4 1_555 1_555
H6 C7 1_555 1_555
C8 C7 1_555 1_555
C9 C8 1_555 1_555
H7 C9 1_555 1_555
C10 C9 1_555 1_555
H8 C10 1_555 1_555
C11 C10 1_555 1_555
H9 C11 1_555 1_555
C12 C11 1_555 1_555
H10 C12 1_555 1_555
C13 C8 1_555 1_555
H11 C13 1_555 1_555
C14 H12 1_555 1_555
H13 C14 1_555 1_555
C15 C14 1_555 1_555
H14 C15 1_555 1_555
H15 C15 1_555 1_555
C16 H16 1_555 1_555
H17 C16 1_555 1_555
C17 C16 1_555 1_555
H18 C17 1_555 1_555
H19 C17 1_555 1_555
C18 H20 1_555 1_555
H21 C18 1_555 1_555
C19 C18 1_555 1_555
H22 C19 1_555 1_555
H23 C19 1_555 1_555
H24 C19 1_555 1_555
H25 N1 1_555 1_555
H26 N2 1_555 1_555
N1 C7 1_555 1_555
N2 C15 1_555 1_555
C5 C6 1_555 1_555
C12 C13 1_555 1_555
C14 N1 1_555 1_555
C16 N2 1_555 1_555
C17 N1 1_555 1_555
C18 N2 1_555 1_555

#END
