
#######################################################################
#
#                 Cambridge Crystallographic Data Centre
#                                CCDC 
#
#######################################################################
#
# If this CIF has been generated from an entry in the Cambridge 
# Structural Database, then it will include bibliographic, chemical, 
# crystal, experimental, refinement or atomic coordinate data resulting 
# from the CCDC's data processing and validation procedures.
#
#######################################################################

data_YUQPOQ
_chemical_name_common            2-(7-methoxynaphthalen-1-yl)acetonitrile
_chemical_formula_moiety         'C13 H11 N1 O1'
_chemical_name_systematic        2-(7-Methoxy-1-naphthyl)acetonitrile
_symmetry_cell_setting           monoclinic
_symmetry_space_group_name_H-M   'P 21/n'
_symmetry_Int_Tables_number      14
_space_group_name_Hall           '-P 2yn'
loop_
_symmetry_equiv_pos_site_id
_symmetry_equiv_pos_as_xyz
1 x,y,z
2 1/2-x,1/2+y,1/2-z
3 -x,-y,-z
4 1/2+x,1/2-y,1/2+z
_cell_length_a                   7.5110(15)
_cell_length_b                   9.6170(19)
_cell_length_c                   14.731(3)
_cell_angle_alpha                90
_cell_angle_beta                 101.03(3)
_cell_angle_gamma                90
_cell_volume                     1044.41
_exptl_crystal_colour            colorless
_exptl_crystal_description       block
_chemical_melting_point          '353 K'
_cell_formula_units_Z            4
_exptl_crystal_recrystallization_method methanol
loop_
_atom_site_label
_atom_site_type_symbol
_atom_site_fract_x
_atom_site_fract_y
_atom_site_fract_z
O1 O 0.8616(3) -0.2547(2) 0.13823(13)
N1 N 0.7349(5) 0.1342(3) -0.3297(2)
C1 C 0.7327(4) 0.0786(3) -0.2623(2)
C2 C 0.7316(4) 0.0085(3) -0.17484(17)
H1 H 0.8471 -0.0380 -0.1550
H2 H 0.6376 -0.0620 -0.1842
C3 C 0.6992(3) 0.1069(3) -0.09873(18)
C4 C 0.6435(4) 0.2412(3) -0.1174(2)
H3 H 0.6228 0.2727 -0.1782
C5 C 0.6171(4) 0.3319(3) -0.0472(3)
H4 H 0.5794 0.4227 -0.0613
C6 C 0.6466(4) 0.2874(3) 0.0411(2)
H5 H 0.6293 0.3486 0.0876
C7 C 0.7028(4) 0.1504(3) 0.06461(19)
C8 C 0.7346(4) 0.1027(3) 0.1570(2)
H6 H 0.7200 0.1635 0.2042
C9 C 0.7857(4) -0.0299(4) 0.1779(2)
H7 H 0.8060 -0.0596 0.2391
C10 C 0.8086(4) -0.1236(3) 0.10760(19)
C11 C 0.7816(3) -0.0820(3) 0.01827(18)
H8 H 0.7979 -0.1448 -0.0275
C12 C 0.7285(3) 0.0571(3) -0.00618(18)
C13 C 0.8857(4) -0.3548(3) 0.0708(2)
H9 H 0.9233 -0.4415 0.1007
H10 H 0.9768 -0.3229 0.0380
H11 H 0.7733 -0.3677 0.0280
loop_
_geom_bond_atom_site_label_1
_geom_bond_atom_site_label_2
_geom_bond_site_symmetry_1
_geom_bond_site_symmetry_2
O1 C10 1_555 1_555
N1 C1 1_555 1_555
C1 C2 1_555 1_555
C2 H1 1_555 1_555
H2 C2 1_555 1_555
C3 C2 1_555 1_555
C4 C3 1_555 1_555
H3 C4 1_555 1_555
C5 C4 1_555 1_555
H4 C5 1_555 1_555
C6 C5 1_555 1_555
H5 C6 1_555 1_555
C7 C6 1_555 1_555
C8 C7 1_555 1_555
H6 C8 1_555 1_555
C9 C8 1_555 1_555
H7 C9 1_555 1_555
C10 C9 1_555 1_555
C11 C10 1_555 1_555
H8 C11 1_555 1_555
C12 C3 1_555 1_555
C13 O1 1_555 1_555
H9 C13 1_555 1_555
H10 C13 1_555 1_555
H11 C13 1_555 1_555
C7 C12 1_555 1_555
C11 C12 1_555 1_555

#END
