
#######################################################################
#
#                 Cambridge Crystallographic Data Centre
#                                CCDC 
#
#######################################################################
#
# If this CIF has been generated from an entry in the Cambridge 
# Structural Database, then it will include bibliographic, chemical, 
# crystal, experimental, refinement or atomic coordinate data resulting 
# from the CCDC's data processing and validation procedures.
#
#######################################################################

data_YUQPAC
_chemical_formula_moiety         'C8 H14 N2 2+,2(Br1 1-)'
_chemical_name_systematic        'p-Phenylenedimethanaminium dibromide'
_symmetry_cell_setting           triclinic
_symmetry_space_group_name_H-M   'P -1'
_symmetry_Int_Tables_number      2
_space_group_name_Hall           '-P 1'
loop_
_symmetry_equiv_pos_site_id
_symmetry_equiv_pos_as_xyz
1 x,y,z
2 -x,-y,-z
_cell_length_a                   4.4462(9)
_cell_length_b                   6.0331(12)
_cell_length_c                   10.347(2)
_cell_angle_alpha                101.90(3)
_cell_angle_beta                 99.79(3)
_cell_angle_gamma                94.29(3)
_cell_volume                     265.889
_exptl_crystal_colour            colorless
_exptl_crystal_description       prism
_cell_formula_units_Z            1
loop_
_atom_site_label
_atom_site_type_symbol
_atom_site_fract_x
_atom_site_fract_y
_atom_site_fract_z
N1 N 0.5050(7) 0.6880(4) 0.8667(3)
H1 H 0.4270 0.7394 0.9393
H2 H 0.6628 0.7845 0.8646
H3 H 0.5668 0.5525 0.8698
C1 C 0.2679(7) 0.6652(6) 0.7437(3)
H4 H 0.1943 0.8121 0.7417
H5 H 0.0952 0.5593 0.7466
C2 C 0.3474(8) 0.3493(5) 0.5579(3)
H6 H 0.2447 0.2476 0.5965
C3 C 0.3911(7) 0.5816(5) 0.6174(3)
C4 C 0.4567(8) 0.2702(6) 0.4418(3)
H7 H 0.4276 0.1150 0.4028
N1A N 0.4950(7) 0.3120(4) 0.1333(3)
H1A H 0.5730 0.2606 0.0607
H2A H 0.3372 0.2155 0.1354
H3A H 0.4332 0.4475 0.1302
C1A C 0.7321(7) 0.3348(6) 0.2563(3)
H4A H 0.8057 0.1879 0.2583
H5A H 0.9048 0.4407 0.2534
C2A C 0.6526(8) 0.6507(5) 0.4421(3)
H6A H 0.7553 0.7524 0.4035
C3A C 0.6089(7) 0.4184(5) 0.3826(3)
C4A C 0.5433(8) 0.7298(6) 0.5582(3)
H7A H 0.5724 0.8850 0.5972
Br1 Br -0.14338(7) 0.20342(5) 0.87105(3)
loop_
_geom_bond_atom_site_label_1
_geom_bond_atom_site_label_2
_geom_bond_site_symmetry_1
_geom_bond_site_symmetry_2
N1 H1 1_555 1_555
H2 N1 1_555 1_555
H3 N1 1_555 1_555
C1 N1 1_555 1_555
H4 C1 1_555 1_555
H5 C1 1_555 1_555
C2 H6 1_555 1_555
C3 C1 1_555 1_555
C4 C2 1_555 1_555
H7 C4 1_555 1_555
N1A H1A 1_555 1_555
H2A N1A 1_555 1_555
H3A N1A 1_555 1_555
C1A N1A 1_555 1_555
H4A C1A 1_555 1_555
H5A C1A 1_555 1_555
C2A H6A 1_555 1_555
C3A C4 1_555 1_555
C4A C3 1_555 1_555
H7A C4A 1_555 1_555
C2 C3 1_555 1_555
C1A C3A 1_555 1_555
C2A C3A 1_555 1_555
C2A C4A 1_555 1_555

#END
