
#######################################################################
#
#                 Cambridge Crystallographic Data Centre
#                                CCDC 
#
#######################################################################
#
# If this CIF has been generated from an entry in the Cambridge 
# Structural Database, then it will include bibliographic, chemical, 
# crystal, experimental, refinement or atomic coordinate data resulting 
# from the CCDC's data processing and validation procedures.
#
#######################################################################

data_YUQROS
_chemical_formula_moiety         'C11 H10 Cl1 N1 O2,H2 O1'
_chemical_name_systematic        
'(2-Chloro-8-methoxyquinolin-3-yl)methanol monohydrate'
_symmetry_cell_setting           monoclinic
_symmetry_space_group_name_H-M   'P 21/n'
_symmetry_Int_Tables_number      14
_space_group_name_Hall           '-P 2yn'
loop_
_symmetry_equiv_pos_site_id
_symmetry_equiv_pos_as_xyz
1 x,y,z
2 1/2-x,1/2+y,1/2-z
3 -x,-y,-z
4 1/2+x,1/2-y,1/2+z
_cell_length_a                   9.161(5)
_cell_length_b                   14.246(5)
_cell_length_c                   9.464(5)
_cell_angle_alpha                90
_cell_angle_beta                 116.819(5)
_cell_angle_gamma                90
_cell_volume                     1102.27
_exptl_crystal_colour            colorless
_exptl_crystal_description       slab
_cell_formula_units_Z            4
_exptl_crystal_recrystallization_method chloroform
loop_
_atom_site_label
_atom_site_type_symbol
_atom_site_fract_x
_atom_site_fract_y
_atom_site_fract_z
Cl1 Cl -0.12994(10) 0.21700(5) -0.05478(9)
O1 O 0.0858(3) 0.2656(2) -0.3822(3)
O2 O 0.1487(3) 0.46372(14) 0.3536(2)
N1 N 0.0521(3) 0.35801(15) 0.0948(3)
C1 C 0.0114(4) 0.30580(19) -0.0297(3)
C2 C 0.0664(4) 0.3140(2) -0.1453(3)
C3 C 0.1715(4) 0.3870(2) -0.1243(3)
C4 C 0.3261(4) 0.5254(2) 0.0313(4)
C5 C 0.3720(4) 0.5792(2) 0.1620(5)
C6 C 0.3158(4) 0.5601(2) 0.2743(4)
C7 C 0.2105(4) 0.4875(2) 0.2525(3)
C8 C 0.1595(3) 0.43029(18) 0.1160(3)
C9 C 0.2198(4) 0.4484(2) 0.0056(3)
C10 C 0.0147(4) 0.2459(3) -0.2813(4)
C11 C 0.2035(5) 0.5135(3) 0.4973(4)
H1 H 0.18120 0.24780 -0.34070
H2 H 0.21180 0.39630 -0.19750
H3 H 0.36470 0.53900 -0.04200
H4 H 0.44190 0.62970 0.17760
H5 H 0.35070 0.59720 0.36460
H6 H 0.04510 0.18290 -0.23950
H7 H -0.10340 0.24780 -0.34210
H8 H 0.32050 0.50900 0.55460
H9 H 0.15520 0.48700 0.55960
H10 H 0.17230 0.57820 0.47550
O3 O 0.8868(3) 0.3074(2) 0.2937(3)
H11 H 0.943(5) 0.331(3) 0.252(5)
H12 H 0.949(6) 0.301(3) 0.389(5)
loop_
_geom_bond_atom_site_label_1
_geom_bond_atom_site_label_2
_geom_bond_site_symmetry_1
_geom_bond_site_symmetry_2
Cl1 C1 1_555 1_555
O1 C10 1_555 1_555
O2 C7 1_555 1_555
N1 C1 1_555 1_555
C1 C2 1_555 1_555
C2 C3 1_555 1_555
C3 C9 1_555 1_555
C4 C5 1_555 1_555
C5 C6 1_555 1_555
C6 C7 1_555 1_555
C7 C8 1_555 1_555
C8 N1 1_555 1_555
C9 C4 1_555 1_555
C10 C2 1_555 1_555
C11 O2 1_555 1_555
O3 H11 1_555 1_555
H1 O1 1_555 1_555
H2 C3 1_555 1_555
H3 C4 1_555 1_555
H4 C5 1_555 1_555
H5 C6 1_555 1_555
H6 C10 1_555 1_555
H7 C10 1_555 1_555
H8 C11 1_555 1_555
H9 C11 1_555 1_555
H10 C11 1_555 1_555
H12 O3 1_555 1_555
C8 C9 1_555 1_555

#END
