
#######################################################################
#
#                 Cambridge Crystallographic Data Centre
#                                CCDC 
#
#######################################################################
#
# If this CIF has been generated from an entry in the Cambridge 
# Structural Database, then it will include bibliographic, chemical, 
# crystal, experimental, refinement or atomic coordinate data resulting 
# from the CCDC's data processing and validation procedures.
#
#######################################################################

data_YUQTAG
_chemical_formula_moiety         'C27 H18 Cl2 N2 O2'
_chemical_name_systematic        
1-(6-Chloro-2-((2-chloroquinolin-3-yl)methoxy)-4-phenylquinolin-3-yl)ethanone
_symmetry_cell_setting           triclinic
_symmetry_space_group_name_H-M   'P -1'
_symmetry_Int_Tables_number      2
_space_group_name_Hall           '-P 1'
loop_
_symmetry_equiv_pos_site_id
_symmetry_equiv_pos_as_xyz
1 x,y,z
2 -x,-y,-z
_cell_length_a                   9.2694(3)
_cell_length_b                   10.8862(4)
_cell_length_c                   13.0490(5)
_cell_angle_alpha                100.615(3)
_cell_angle_beta                 103.570(3)
_cell_angle_gamma                111.894(4)
_cell_volume                     1132.51
_exptl_crystal_colour            colorless
_exptl_crystal_description       block
_cell_formula_units_Z            2
_exptl_crystal_recrystallization_method ethanol
loop_
_atom_site_label
_atom_site_type_symbol
_atom_site_fract_x
_atom_site_fract_y
_atom_site_fract_z
Cl1 Cl -0.01220(6) 0.20006(6) 1.04669(4)
Cl2 Cl 0.74140(7) 0.93000(5) 0.71360(5)
O1 O 0.59905(14) 0.49825(11) 0.72135(10)
O2 O 0.74428(17) 0.29669(16) 0.77583(12)
N1 N 0.84627(17) 0.84682(14) 0.56079(12)
N2 N 0.43430(15) 0.49906(13) 0.82893(10)
C1 C 0.7687(2) 0.80443(17) 0.62730(14)
C2 C 0.70647(18) 0.66777(16) 0.63617(13)
C3 C 0.73284(19) 0.57472(16) 0.56702(13)
C4 C 0.8507(2) 0.52185(18) 0.42066(13)
C5 C 0.9361(2) 0.56806(19) 0.35310(14)
C6 C 0.9910(2) 0.7072(2) 0.35350(15)
C7 C 0.9603(2) 0.79738(19) 0.42130(14)
C8 C 0.87261(19) 0.75263(16) 0.49223(13)
C9 C 0.81637(19) 0.61318(16) 0.49267(13)
C10 C 0.6179(2) 0.63335(16) 0.71731(14)
C11 C 0.50542(19) 0.43665(16) 0.77951(13)
C12 C 0.49480(18) 0.30284(15) 0.77809(12)
C13 C 0.39256(18) 0.22631(15) 0.82609(12)
C14 C 0.19783(18) 0.21883(17) 0.93163(13)
C15 C 0.12456(19) 0.28562(18) 0.98332(14)
C16 C 0.1567(2) 0.42295(19) 0.98914(14)
C17 C 0.25945(19) 0.49098(17) 0.93803(13)
C18 C 0.33581(18) 0.42562(15) 0.88126(12)
C19 C 0.30637(17) 0.28760(15) 0.87940(12)
C20 C 0.37473(19) 0.08368(15) 0.82266(13)
C21 C 0.2255(2) -0.03105(17) 0.76412(15)
C22 C 0.2112(3) -0.16304(18) 0.75627(17)
C23 C 0.3442(3) -0.18296(19) 0.80755(16)
C24 C 0.4922(3) -0.0704(2) 0.86684(15)
C25 C 0.5077(2) 0.06250(17) 0.87376(13)
C26 C 0.6008(2) 0.25390(17) 0.72580(14)
C27 C 0.5199(3) 0.1518(2) 0.61324(16)
H1 H 0.69470 0.48340 0.56900
H2 H 0.81460 0.42950 0.41950
H3 H 0.95820 0.50720 0.30630
H4 H 1.04900 0.73760 0.30680
H5 H 0.99740 0.88930 0.42100
H6 H 0.68150 0.70080 0.78980
H7 H 0.51100 0.63400 0.69340
H8 H 0.17640 0.12800 0.93070
H9 H 0.10850 0.46760 1.02750
H10 H 0.27950 0.58200 0.94070
H11 H 0.13420 -0.01860 0.72980
H12 H 0.11080 -0.23920 0.71600
H13 H 0.33410 -0.27240 0.80220
H14 H 0.58240 -0.08340 0.90250
H15 H 0.60880 0.13830 0.91330
H16 H 0.59860 0.12490 0.59180
H17 H 0.47890 0.19330 0.56160
H18 H 0.43000 0.07140 0.61380
loop_
_geom_bond_atom_site_label_1
_geom_bond_atom_site_label_2
_geom_bond_site_symmetry_1
_geom_bond_site_symmetry_2
Cl1 C15 1_555 1_555
Cl2 C1 1_555 1_555
O1 C10 1_555 1_555
O2 C26 1_555 1_555
N1 C1 1_555 1_555
N2 C11 1_555 1_555
C1 C2 1_555 1_555
C2 C3 1_555 1_555
C3 C9 1_555 1_555
C4 C5 1_555 1_555
C5 C6 1_555 1_555
C6 C7 1_555 1_555
C7 C8 1_555 1_555
C8 N1 1_555 1_555
C9 C4 1_555 1_555
C10 C2 1_555 1_555
C11 O1 1_555 1_555
C12 C11 1_555 1_555
C13 C12 1_555 1_555
C14 C15 1_555 1_555
C15 C16 1_555 1_555
C16 C17 1_555 1_555
C17 C18 1_555 1_555
C18 N2 1_555 1_555
C19 C13 1_555 1_555
C20 C13 1_555 1_555
C21 C20 1_555 1_555
C22 C21 1_555 1_555
C23 C22 1_555 1_555
C24 C23 1_555 1_555
C25 C20 1_555 1_555
C26 C12 1_555 1_555
C27 C26 1_555 1_555
H1 C3 1_555 1_555
H2 C4 1_555 1_555
H3 C5 1_555 1_555
H4 C6 1_555 1_555
H5 C7 1_555 1_555
H6 C10 1_555 1_555
H7 C10 1_555 1_555
H8 C14 1_555 1_555
H9 C16 1_555 1_555
H10 C17 1_555 1_555
H11 C21 1_555 1_555
H12 C22 1_555 1_555
H13 C23 1_555 1_555
H14 C24 1_555 1_555
H15 C25 1_555 1_555
H16 C27 1_555 1_555
H17 C27 1_555 1_555
H18 C27 1_555 1_555
C8 C9 1_555 1_555
C14 C19 1_555 1_555
C18 C19 1_555 1_555
C24 C25 1_555 1_555

#END
