
#######################################################################
#
#                 Cambridge Crystallographic Data Centre
#                                CCDC 
#
#######################################################################
#
# If this CIF has been generated from an entry in the Cambridge 
# Structural Database, then it will include bibliographic, chemical, 
# crystal, experimental, refinement or atomic coordinate data resulting 
# from the CCDC's data processing and validation procedures.
#
#######################################################################

data_YUQVUC
_chemical_formula_moiety         'C25 H20 Br2 N2 2+,2(Cl1 O4 1-)'
_chemical_name_systematic        
"4,4'-[(2,7-Dibromofluorene-9,9-diyl)dimethylene]dipyridinium bis(perchlorate)"
_symmetry_cell_setting           monoclinic
_symmetry_space_group_name_H-M   'C 2/c'
_symmetry_Int_Tables_number      15
_space_group_name_Hall           '-C 2yn'
loop_
_symmetry_equiv_pos_site_id
_symmetry_equiv_pos_as_xyz
1 x,y,z
2 -x,y,1/2-z
3 1/2+x,1/2+y,z
4 1/2-x,1/2+y,1/2-z
5 -x,-y,-z
6 x,-y,1/2+z
7 1/2-x,1/2-y,-z
8 1/2+x,1/2-y,1/2+z
_cell_length_a                   15.605(3)
_cell_length_b                   11.267(2)
_cell_length_c                   16.318(3)
_cell_angle_alpha                90
_cell_angle_beta                 117.60(3)
_cell_angle_gamma                90
_cell_volume                     2542.57
_exptl_crystal_colour            yellow
_exptl_crystal_description       block
_cell_formula_units_Z            4
loop_
_atom_site_label
_atom_site_type_symbol
_atom_site_fract_x
_atom_site_fract_y
_atom_site_fract_z
Br1 Br -0.201221(15) 0.319251(18) -0.114789(15)
N1 N 0.33006(13) 0.39368(16) 0.24329(14)
H1 H 0.3819 0.3707 0.2418
C1 C -0.13197(15) 0.2901(2) 0.01439(16)
C2 C -0.11455(16) 0.17300(17) 0.04368(17)
H2 H -0.1377 0.1115 0.0009
C3 C -0.06207(15) 0.14838(19) 0.13788(15)
H3 H -0.0500 0.0704 0.1589
C4 C -0.02836(14) 0.24228(18) 0.19940(15)
C5 C -0.04692(14) 0.36049(18) 0.16834(16)
C6 C -0.09989(14) 0.38606(18) 0.07490(15)
H4 H -0.1134 0.4638 0.0536
C7 C 0.0000 0.4457(2) 0.2500
C8 C 0.07543(14) 0.52981(17) 0.24235(15)
H5 H 0.0429 0.5737 0.1849
H6 H 0.0965 0.5870 0.2924
C9 C 0.16421(14) 0.47237(18) 0.24518(15)
C10 C 0.16000(15) 0.39694(18) 0.17545(15)
H7 H 0.1004 0.3722 0.1290
C11 C 0.24415(15) 0.35912(19) 0.17540(16)
H8 H 0.2413 0.3098 0.1285
C12 C 0.33797(15) 0.46320(19) 0.31370(16)
H9 H 0.3986 0.4841 0.3605
C13 C 0.25553(15) 0.50303(18) 0.31584(15)
H10 H 0.2606 0.5505 0.3645
Br1A Br 0.201221(15) 0.319251(18) 0.614789(15)
N1A N -0.33006(13) 0.39368(16) 0.25671(14)
H1A H -0.3819 0.3707 0.2582
C1A C 0.13197(15) 0.2901(2) 0.48561(16)
C2A C 0.11455(16) 0.17300(17) 0.45632(17)
H2A H 0.1377 0.1115 0.4991
C3A C 0.06207(15) 0.14838(19) 0.36212(15)
H3A H 0.0500 0.0704 0.3411
C4A C 0.02836(14) 0.24228(18) 0.30060(15)
C5A C 0.04692(14) 0.36049(18) 0.33166(16)
C6A C 0.09989(14) 0.38606(18) 0.42510(15)
H4A H 0.1134 0.4638 0.4464
C8A C -0.07543(14) 0.52981(17) 0.25765(15)
H5A H -0.0429 0.5737 0.3151
H6A H -0.0965 0.5870 0.2076
C9A C -0.16421(14) 0.47237(18) 0.25482(15)
C10A C -0.16000(15) 0.39694(18) 0.32455(15)
H7A H -0.1004 0.3722 0.3710
C11A C -0.24415(15) 0.35912(19) 0.32460(16)
H8A H -0.2413 0.3098 0.3715
C12A C -0.33797(15) 0.46320(19) 0.18630(16)
H9A H -0.3986 0.4841 0.1395
C13A C -0.25553(15) 0.50303(18) 0.18416(15)
H10A H -0.2606 0.5505 0.1355
Cl1 Cl 0.41022(4) 0.31707(4) 0.05644(4)
O1 O 0.31184(11) 0.35890(17) 0.01812(12)
O2 O 0.41264(16) 0.19359(15) 0.03767(15)
O3 O 0.45717(12) 0.33505(14) 0.15648(12)
O4 O 0.46088(12) 0.38494(16) 0.01772(12)
loop_
_geom_bond_atom_site_label_1
_geom_bond_atom_site_label_2
_geom_bond_site_symmetry_1
_geom_bond_site_symmetry_2
Br1 C1 1_555 1_555
N1 H1 1_555 1_555
C1 C2 1_555 1_555
C2 H2 1_555 1_555
C3 C2 1_555 1_555
H3 C3 1_555 1_555
C4 C3 1_555 1_555
C5 C4 1_555 1_555
C6 C1 1_555 1_555
H4 C6 1_555 1_555
C7 C5 1_555 1_555
C8 C7 1_555 1_555
H5 C8 1_555 1_555
H6 C8 1_555 1_555
C9 C8 1_555 1_555
C10 C9 1_555 1_555
H7 C10 1_555 1_555
C11 N1 1_555 1_555
H8 C11 1_555 1_555
C12 N1 1_555 1_555
H9 C12 1_555 1_555
C13 C9 1_555 1_555
H10 C13 1_555 1_555
Cl1 O1 1_555 1_555
O2 Cl1 1_555 1_555
O3 Cl1 1_555 1_555
O4 Cl1 1_555 1_555
Br1A C1A 1_555 1_555
N1A H1A 1_555 1_555
C1A C2A 1_555 1_555
C2A H2A 1_555 1_555
C3A C2A 1_555 1_555
H3A C3A 1_555 1_555
C4A C4 1_555 1_555
C5A C7 1_555 1_555
C6A C1A 1_555 1_555
H4A C6A 1_555 1_555
C8A C7 1_555 1_555
H5A C8A 1_555 1_555
H6A C8A 1_555 1_555
C9A C8A 1_555 1_555
C10A C9A 1_555 1_555
H7A C10A 1_555 1_555
C11A N1A 1_555 1_555
H8A C11A 1_555 1_555
C12A N1A 1_555 1_555
H9A C12A 1_555 1_555
C13A C9A 1_555 1_555
H10A C13A 1_555 1_555
C5 C6 1_555 1_555
C10 C11 1_555 1_555
C12 C13 1_555 1_555
C3A C4A 1_555 1_555
C4A C5A 1_555 1_555
C5A C6A 1_555 1_555
C10A C11A 1_555 1_555
C12A C13A 1_555 1_555

#END
