
#######################################################################
#
#                 Cambridge Crystallographic Data Centre
#                                CCDC 
#
#######################################################################
#
# If this CIF has been generated from an entry in the Cambridge 
# Structural Database, then it will include bibliographic, chemical, 
# crystal, experimental, refinement or atomic coordinate data resulting 
# from the CCDC's data processing and validation procedures.
#
#######################################################################

data_YUQWUD
_chemical_name_common            
N-(4,5-Diaza-9H-fluoren-9-ylidene)-4-methoxyaniline
_chemical_formula_moiety         'C18 H13 N3 O1'
_chemical_name_systematic        
4-Methoxy-N-(5H-pyrido[3',2':4,5]cyclopenta[1,2-b]pyridin-5-ylidene)aniline
_symmetry_cell_setting           monoclinic
_symmetry_space_group_name_H-M   'P 21/n'
_symmetry_Int_Tables_number      14
_space_group_name_Hall           '-P 2yn'
loop_
_symmetry_equiv_pos_site_id
_symmetry_equiv_pos_as_xyz
1 x,y,z
2 1/2-x,1/2+y,1/2-z
3 -x,-y,-z
4 1/2+x,1/2-y,1/2+z
_cell_length_a                   8.3070(17)
_cell_length_b                   12.839(3)
_cell_length_c                   13.233(3)
_cell_angle_alpha                90
_cell_angle_beta                 97.12(3)
_cell_angle_gamma                90
_cell_volume                     1400.46
_exptl_crystal_colour            colorless
_exptl_crystal_description       block
_cell_formula_units_Z            4
_exptl_crystal_recrystallization_method 'ethyl acetate'
loop_
_atom_site_label
_atom_site_type_symbol
_atom_site_fract_x
_atom_site_fract_y
_atom_site_fract_z
O1 O 0.1797(4) 0.1191(2) 0.5460(2)
N1 N -0.4360(4) 0.2396(3) 0.3622(3)
C1 C 0.2903(6) 0.0674(4) 0.4883(4)
H1 H 0.3927 0.0584 0.5298
H2 H 0.3054 0.1085 0.4296
H3 H 0.2473 0.0005 0.4668
N2 N -0.4715(5) 0.6162(3) 0.3850(3)
C2 C 0.0291(5) 0.1441(3) 0.4969(3)
C3 C -0.0260(5) 0.1213(3) 0.3959(3)
H4 H 0.0405 0.0853 0.3563
N3 N -0.7987(5) 0.5270(3) 0.2939(3)
C4 C -0.1786(5) 0.1517(4) 0.3544(3)
H5 H -0.2162 0.1317 0.2881
C5 C -0.2786(5) 0.2115(3) 0.4081(3)
C6 C -0.2233(6) 0.2327(4) 0.5093(3)
H6 H -0.2908 0.2678 0.5489
C7 C -0.0708(5) 0.2028(3) 0.5526(3)
H7 H -0.0342 0.2218 0.6193
C8 C -0.4781(5) 0.3355(3) 0.3556(3)
C9 C -0.3939(5) 0.4347(3) 0.3850(3)
C10 C -0.2335(5) 0.4605(4) 0.4154(3)
H8 H -0.1533 0.4096 0.4233
C11 C -0.1965(6) 0.5636(4) 0.4337(4)
H9 H -0.0902 0.5835 0.4554
C12 C -0.3178(6) 0.6378(4) 0.4197(3)
H10 H -0.2906 0.7066 0.4355
C13 C -0.5040(5) 0.5164(3) 0.3679(3)
C14 C -0.6635(5) 0.4748(4) 0.3245(3)
C15 C -0.9247(6) 0.4701(5) 0.2532(4)
H11 H -1.0208 0.5047 0.2307
C16 C -0.9214(6) 0.3612(5) 0.2422(4)
H12 H -1.0131 0.3252 0.2137
C17 C -0.7832(5) 0.3104(4) 0.2738(3)
H13 H -0.7777 0.2384 0.2674
C18 C -0.6499(5) 0.3656(4) 0.3156(3)
loop_
_geom_bond_atom_site_label_1
_geom_bond_atom_site_label_2
_geom_bond_site_symmetry_1
_geom_bond_site_symmetry_2
O1 C1 1_555 1_555
N1 C5 1_555 1_555
C1 H1 1_555 1_555
H2 C1 1_555 1_555
H3 C1 1_555 1_555
N2 C12 1_555 1_555
C2 O1 1_555 1_555
C3 C2 1_555 1_555
H4 C3 1_555 1_555
N3 C14 1_555 1_555
C4 C3 1_555 1_555
H5 C4 1_555 1_555
C5 C4 1_555 1_555
C6 C5 1_555 1_555
H6 C6 1_555 1_555
C7 C2 1_555 1_555
H7 C7 1_555 1_555
C8 N1 1_555 1_555
C9 C8 1_555 1_555
C10 C9 1_555 1_555
H8 C10 1_555 1_555
C11 C10 1_555 1_555
H9 C11 1_555 1_555
C12 C11 1_555 1_555
H10 C12 1_555 1_555
C13 N2 1_555 1_555
C14 C13 1_555 1_555
C15 N3 1_555 1_555
H11 C15 1_555 1_555
C16 C15 1_555 1_555
H12 C16 1_555 1_555
C17 C16 1_555 1_555
H13 C17 1_555 1_555
C18 C8 1_555 1_555
C6 C7 1_555 1_555
C9 C13 1_555 1_555
C14 C18 1_555 1_555
C17 C18 1_555 1_555

#END
