
#######################################################################
#
#                 Cambridge Crystallographic Data Centre
#                                CCDC 
#
#######################################################################
#
# If this CIF has been generated from an entry in the Cambridge 
# Structural Database, then it will include bibliographic, chemical, 
# crystal, experimental, refinement or atomic coordinate data resulting 
# from the CCDC's data processing and validation procedures.
#
#######################################################################

data_YUQXEP
_chemical_formula_moiety         'C25 H19 Cl1 N2 O1'
_chemical_name_systematic        
4-(4-Chlorophenyl)-3-methyl-1,6-diphenyl-1,4-dihydropyrano[2,3-c]pyrazole
_symmetry_cell_setting           monoclinic
_symmetry_space_group_name_H-M   'C 2'
_symmetry_Int_Tables_number      5
_space_group_name_Hall           'C 2y'
loop_
_symmetry_equiv_pos_site_id
_symmetry_equiv_pos_as_xyz
1 x,y,z
2 -x,y,-z
3 1/2+x,1/2+y,z
4 1/2-x,1/2+y,-z
_cell_length_a                   21.832(2)
_cell_length_b                   5.1765(5)
_cell_length_c                   18.5849(19)
_cell_angle_alpha                90
_cell_angle_beta                 103.747(2)
_cell_angle_gamma                90
_cell_volume                     2040.18
_exptl_crystal_colour            colorless
_exptl_crystal_description       needle
_cell_formula_units_Z            4
_exptl_crystal_recrystallization_method hexane/ethanol
loop_
_atom_site_label
_atom_site_type_symbol
_atom_site_fract_x
_atom_site_fract_y
_atom_site_fract_z
Cl1 Cl 0.35330(9) 0.9493(6) 0.65602(8)
O1 O 0.27662(15) 0.6258(8) 0.20199(17)
N1 N 0.37739(17) 0.4284(11) 0.2207(2)
N2 N 0.43598(19) 0.4553(14) 0.2689(2)
C1 C 0.3376(2) 0.6034(12) 0.2401(2)
C2 C 0.4298(3) 0.6438(15) 0.3149(3)
C3 C 0.3681(2) 0.7416(13) 0.2989(3)
C4 C 0.3382(2) 0.9628(13) 0.3286(2)
H1 H 0.3594 1.1208 0.3184
C5 C 0.2714(2) 0.9741(14) 0.2839(2)
H2 H 0.2460 1.1002 0.2976
C6 C 0.2444(2) 0.8276(11) 0.2277(2)
C7 C 0.4858(3) 0.729(2) 0.3727(4)
H3 H 0.5226 0.6395 0.3661
H4 H 0.4793 0.6904 0.4208
H5 H 0.4916 0.9115 0.3684
C8 C 0.3424(2) 0.9553(12) 0.4113(2)
C9 C 0.3770(3) 1.1313(14) 0.4577(3)
H6 H 0.3990 1.2565 0.4382
C10 C 0.3809(3) 1.1317(16) 0.5332(3)
H7 H 0.4051 1.2548 0.5638
C11 C 0.3491(3) 0.9505(17) 0.5615(3)
C12 C 0.3140(3) 0.7657(15) 0.5174(3)
H8 H 0.2929 0.6393 0.5377
C13 C 0.3105(3) 0.7708(14) 0.4422(3)
H9 H 0.2863 0.6477 0.4117
C14 C 0.1792(2) 0.8410(12) 0.1841(3)
C15 C 0.0559(3) 0.8821(15) 0.1024(3)
H10 H 0.0151 0.9026 0.0735
C16 C 0.3684(2) 0.2386(12) 0.1635(3)
C17 C 0.3118(3) 0.2089(14) 0.1134(3)
H11 H 0.2780 0.3155 0.1156
C18 C 0.3050(3) 0.0221(15) 0.0601(4)
H12 H 0.2663 0.0022 0.0263
C19 C 0.3542(3) -0.1362(15) 0.0554(4)
H13 H 0.3493 -0.2615 0.0186
C20 C 0.4106(3) -0.1065(16) 0.1060(4)
H14 H 0.4443 -0.2135 0.1036
C21 C 0.4182(3) 0.0787(16) 0.1600(4)
H15 H 0.4567 0.0964 0.1942
C22 C 0.1292(4) 0.929(3) 0.2169(5)
H16 H 0.1388 0.9790 0.2664
C23 C 0.0677(5) 0.942(3) 0.1762(6)
H17 H 0.0353 0.9892 0.1982
C24 C 0.0990(5) 0.798(3) 0.0712(6)
H18 H 0.0886 0.7513 0.0214
C25 C 0.1604(5) 0.780(3) 0.1118(5)
H19 H 0.1907 0.7208 0.0879
H20? H 0.0135 0.8946 0.0779
C26? C 0.1522(6) 1.079(3) 0.1725(7)
H21? H 0.1753 1.2256 0.1907
C27? C 0.0899(7) 1.101(4) 0.1335(9)
H22? H 0.0706 1.2623 0.1279
C28? C 0.0876(7) 0.642(4) 0.1093(10)
H23? H 0.0666 0.4965 0.0862
C29? C 0.1507(6) 0.619(4) 0.1505(8)
H24? H 0.1721 0.4618 0.1549
loop_
_geom_bond_atom_site_label_1
_geom_bond_atom_site_label_2
_geom_bond_site_symmetry_1
_geom_bond_site_symmetry_2
Cl1 C11 1_555 1_555
O1 C1 1_555 1_555
N1 N2 1_555 1_555
N2 C2 1_555 1_555
C1 N1 1_555 1_555
C2 C3 1_555 1_555
C3 C1 1_555 1_555
C4 C3 1_555 1_555
H1 C4 1_555 1_555
C5 C4 1_555 1_555
H2 C5 1_555 1_555
C6 O1 1_555 1_555
C7 C2 1_555 1_555
H3 C7 1_555 1_555
H4 C7 1_555 1_555
H5 C7 1_555 1_555
C8 C4 1_555 1_555
C9 C8 1_555 1_555
H6 C9 1_555 1_555
C10 C9 1_555 1_555
H7 C10 1_555 1_555
C11 C10 1_555 1_555
C12 C11 1_555 1_555
H8 C12 1_555 1_555
C13 C8 1_555 1_555
H9 C13 1_555 1_555
C14 C6 1_555 1_555
C15 H10 1_555 1_555
C16 N1 1_555 1_555
C17 C16 1_555 1_555
H11 C17 1_555 1_555
C18 C17 1_555 1_555
H12 C18 1_555 1_555
C19 C18 1_555 1_555
H13 C19 1_555 1_555
C20 C19 1_555 1_555
H14 C20 1_555 1_555
C21 C16 1_555 1_555
H15 C21 1_555 1_555
C22 C14 1_555 1_555
H16 C22 1_555 1_555
C23 C15 1_555 1_555
H17 C23 1_555 1_555
C24 C15 1_555 1_555
H18 C24 1_555 1_555
C25 C14 1_555 1_555
H19 C25 1_555 1_555
C5 C6 1_555 1_555
C12 C13 1_555 1_555
C20 C21 1_555 1_555
C22 C23 1_555 1_555
C24 C25 1_555 1_555

#END
