
#######################################################################
#
#                 Cambridge Crystallographic Data Centre
#                                CCDC 
#
#######################################################################
#
# If this CIF has been generated from an entry in the Cambridge 
# Structural Database, then it will include bibliographic, chemical, 
# crystal, experimental, refinement or atomic coordinate data resulting 
# from the CCDC's data processing and validation procedures.
#
#######################################################################

data_YURJIG
_chemical_formula_moiety         'C30 H30 O6,H2 O1'
_chemical_name_systematic        
"2'-hydroxy-4'-(2-hydroxypropan-2-yl)-1,2',4,4,6,7'-hexamethyl-4H,7H-spiro[furo[3',2':3,4]naphtho[1,8-bc]furan-8,1'-indene]-3',7(2'H)-dione monohydrate"
_symmetry_cell_setting           orthorhombic
_symmetry_space_group_name_H-M   'P 21 21 21'
_symmetry_Int_Tables_number      19
_space_group_name_Hall           'P 2ac 2ab'
loop_
_symmetry_equiv_pos_site_id
_symmetry_equiv_pos_as_xyz
1 x,y,z
2 1/2-x,-y,1/2+z
3 1/2+x,1/2-y,-z
4 -x,1/2+y,1/2-z
_cell_length_a                   9.19100(10)
_cell_length_b                   10.43070(10)
_cell_length_c                   27.4512(2)
_cell_angle_alpha                90
_cell_angle_beta                 90
_cell_angle_gamma                90
_cell_volume                     2631.71
_exptl_crystal_colour            colorless
_exptl_crystal_description       block
_cell_formula_units_Z            4
loop_
_atom_site_label
_atom_site_type_symbol
_atom_site_fract_x
_atom_site_fract_y
_atom_site_fract_z
O1 O 1.29904(19) 0.1185(2) 0.73412(6)
O2 O 1.14962(19) -0.04803(18) 0.54700(6)
O3 O 0.84584(17) 0.09124(17) 0.60539(6)
O4 O 0.8785(2) -0.20230(17) 0.58155(6)
H1 H 0.8392 -0.2699 0.5738
O5 O 0.8590(2) -0.22120(16) 0.47898(6)
O6 O 0.9199(2) -0.1361(2) 0.38796(7)
H2 H 0.9071 -0.1826 0.4117
C1 C 1.0641(3) 0.1595(2) 0.71242(7)
C2 C 1.0645(2) -0.0010(2) 0.57554(7)
C3 C 0.9355(3) 0.1605(2) 0.68516(8)
C4 C 1.1965(2) 0.1030(2) 0.69837(7)
C5 C 1.0853(2) 0.0450(2) 0.62513(7)
C6 C 1.0786(3) 0.2139(2) 0.75833(8)
C7 C 0.9542(2) 0.0985(2) 0.63927(7)
C8 C 1.2139(2) 0.0421(2) 0.65472(7)
C9 C 0.9030(3) 0.0248(2) 0.56346(8)
C10 C 0.8214(2) -0.1021(2) 0.55338(8)
C11 C 0.8580(2) 0.0138(2) 0.47778(8)
C12 C 0.9615(3) 0.2756(3) 0.77809(9)
H3 H 0.9683 0.3160 0.8082
C13 C 0.8420(3) 0.0560(2) 0.42993(8)
C14 C 0.6573(3) -0.0864(3) 0.56162(10)
H4 H 0.6074 -0.1612 0.5500
H5 H 0.6232 -0.0124 0.5442
H6 H 0.6385 -0.0756 0.5958
C15 C 0.8306(3) 0.2767(3) 0.75179(9)
H7 H 0.7510 0.3177 0.7658
C16 C 0.8538(3) 0.1875(3) 0.42311(10)
H8 H 0.8430 0.2208 0.3919
C17 C 0.6670(3) 0.2245(4) 0.68096(13)
H9 H 0.5955 0.2604 0.7025
H10 H 0.6386 0.1391 0.6720
H11 H 0.6743 0.2765 0.6522
C18 C 0.8849(2) 0.0979(2) 0.51662(9)
C19 C 0.8117(3) 0.2205(2) 0.70620(9)
C20 C 1.3514(3) -0.0236(3) 0.63955(9)
H12 H 1.4164 -0.0287 0.6669
H13 H 1.3967 0.0242 0.6138
H14 H 1.3293 -0.1085 0.6283
C21 C 0.8112(3) -0.0363(3) 0.38759(8)
C22 C 1.2303(3) 0.1847(3) 0.77645(8)
C23 C 0.8483(2) -0.1177(2) 0.49872(8)
C24 C 0.9000(3) 0.2295(2) 0.50934(10)
C25 C 0.6600(3) -0.0953(3) 0.39362(12)
H15 H 0.6444 -0.1583 0.3687
H16 H 0.5876 -0.0293 0.3909
H17 H 0.6529 -0.1353 0.4250
C26 C 1.3210(4) 0.3020(4) 0.78773(12)
H18 H 1.4198 0.2767 0.7938
H19 H 1.2827 0.3442 0.8160
H20 H 1.3182 0.3598 0.7605
C27 C 1.2286(4) 0.0901(3) 0.81830(9)
H21 H 1.1769 0.0142 0.8087
H22 H 1.1812 0.1282 0.8459
H23 H 1.3267 0.0679 0.8269
C28 C 0.8812(4) 0.2703(3) 0.46123(11)
H24 H 0.8875 0.3575 0.4546
C29 C 0.8254(5) 0.0256(4) 0.33812(10)
H25 H 0.9206 0.0624 0.3349
H26 H 0.7533 0.0916 0.3348
H27 H 0.8112 -0.0379 0.3132
C30 C 0.9378(5) 0.3234(3) 0.54842(13)
H28 H 0.8604 0.3269 0.5718
H29 H 0.9514 0.4067 0.5343
H30 H 1.0260 0.2970 0.5642
O7 O 1.2089(3) -0.0847(2) 0.44099(8)
H31 H 1.199(5) -0.065(5) 0.4714(6)
H32 H 1.121(2) -0.088(5) 0.4283(14)
loop_
_geom_bond_atom_site_label_1
_geom_bond_atom_site_label_2
_geom_bond_site_symmetry_1
_geom_bond_site_symmetry_2
O1 C4 1_555 1_555
O2 C2 1_555 1_555
O3 C7 1_555 1_555
O4 H1 1_555 1_555
O5 C23 1_555 1_555
O6 H2 1_555 1_555
C1 C3 1_555 1_555
C2 C5 1_555 1_555
C3 C7 1_555 1_555
C4 C1 1_555 1_555
C5 C7 1_555 1_555
C6 C1 1_555 1_555
C8 C4 1_555 1_555
C9 O3 1_555 1_555
C10 O4 1_555 1_555
C11 C13 1_555 1_555
C12 C6 1_555 1_555
H3 C12 1_555 1_555
C13 C16 1_555 1_555
C14 C10 1_555 1_555
H4 C14 1_555 1_555
H5 C14 1_555 1_555
H6 C14 1_555 1_555
C15 C12 1_555 1_555
H7 C15 1_555 1_555
C16 H8 1_555 1_555
C17 H9 1_555 1_555
H10 C17 1_555 1_555
H11 C17 1_555 1_555
C18 C9 1_555 1_555
C19 C3 1_555 1_555
C20 C8 1_555 1_555
H12 C20 1_555 1_555
H13 C20 1_555 1_555
H14 C20 1_555 1_555
C21 O6 1_555 1_555
C22 O1 1_555 1_555
C23 C10 1_555 1_555
C24 C18 1_555 1_555
C25 C21 1_555 1_555
H15 C25 1_555 1_555
H16 C25 1_555 1_555
H17 C25 1_555 1_555
C26 C22 1_555 1_555
H18 C26 1_555 1_555
H19 C26 1_555 1_555
H20 C26 1_555 1_555
C27 C22 1_555 1_555
H21 C27 1_555 1_555
H22 C27 1_555 1_555
H23 C27 1_555 1_555
C28 C16 1_555 1_555
H24 C28 1_555 1_555
C29 C21 1_555 1_555
H25 C29 1_555 1_555
H26 C29 1_555 1_555
H27 C29 1_555 1_555
C30 C24 1_555 1_555
H28 C30 1_555 1_555
H29 C30 1_555 1_555
H30 C30 1_555 1_555
O7 H31 1_555 1_555
H32 O7 1_555 1_555
C2 C9 1_555 1_555
C5 C8 1_555 1_555
C6 C22 1_555 1_555
C9 C10 1_555 1_555
C11 C18 1_555 1_555
C11 C23 1_555 1_555
C13 C21 1_555 1_555
C15 C19 1_555 1_555
C17 C19 1_555 1_555
C24 C28 1_555 1_555

#END
