
#######################################################################
#
#                 Cambridge Crystallographic Data Centre
#                                CCDC 
#
#######################################################################
#
# If this CIF has been generated from an entry in the Cambridge 
# Structural Database, then it will include bibliographic, chemical, 
# crystal, experimental, refinement or atomic coordinate data resulting 
# from the CCDC's data processing and validation procedures.
#
#######################################################################

data_YURMAB
_chemical_compound_source        
'isolated from the fruiting bodies of Ganoderma cochlear'
_chemical_name_common            'Cochlearic acid A monohydrate'
_chemical_formula_moiety         'C27 H38 O6,H2 O1'
_chemical_name_systematic        
'3-(9-hydroxy-3a,6,9b-trimethyl-3-(2-methyl-5-oxotetrahydrofuran-2-yl)-5-oxo-7-(prop-1-en-2-yl)-2,3,3a,4,5,6,7,8,9,9b-decahydro-1H-cyclopenta[a]naphthalen-6-yl)propanoic acid monohydrate'
_symmetry_cell_setting           triclinic
_symmetry_space_group_name_H-M   'P 1'
_symmetry_Int_Tables_number      1
_space_group_name_Hall           'P 1'
loop_
_symmetry_equiv_pos_site_id
_symmetry_equiv_pos_as_xyz
1 x,y,z
_cell_length_a                   8.1696(8)
_cell_length_b                   11.5686(9)
_cell_length_c                   13.0762(8)
_cell_angle_alpha                89.962(4)
_cell_angle_beta                 89.807(2)
_cell_angle_gamma                87.127(4)
_cell_volume                     1234.28
_exptl_crystal_colour            colorless
_exptl_crystal_description       prism
_cell_formula_units_Z            2
loop_
_atom_site_label
_atom_site_type_symbol
_atom_site_fract_x
_atom_site_fract_y
_atom_site_fract_z
O1 O 0.3917(5) 0.3470(3) 0.0175(3)
O2 O 1.4368(5) 1.2330(3) 1.2188(3)
O3 O 1.2667(4) 1.1034(3) 1.1594(3)
O4 O 0.3608(5) 0.5737(3) 0.9918(3)
H1 H 0.3784 0.5054 1.0124
O5 O 0.5530(5) 0.5227(3) 0.8773(3)
O6 O 0.9119(5) 0.7535(4) 0.8649(3)
O7 O 0.6389(5) 1.2261(3) 0.8988(3)
H2 H 0.6861 1.2378 0.8428
C1 C 1.3521(6) 1.1489(5) 1.2350(4)
C2 C 1.1754(6) 1.0046(4) 1.1977(4)
C3 C 1.0000(6) 1.0147(4) 1.1576(4)
H3 H 0.9375 0.9596 1.1997
C4 C 0.9585(6) 0.9873(4) 1.0441(4)
C5 C 0.7778(6) 1.0377(4) 1.0399(4)
C6 C 0.7019(6) 1.0216(4) 0.9332(4)
C7 C 0.7268(7) 0.9182(4) 0.8828(4)
C8 C 0.6215(7) 0.8809(4) 0.7919(4)
C9 C 0.5693(6) 0.7537(4) 0.8062(4)
H4 H 0.4931 0.7359 0.7503
H5 H 0.6680 0.7013 0.7983
C10 C 0.4885(7) 0.7263(5) 0.9062(4)
H6 H 0.3787 0.7664 0.9089
H7 H 0.5543 0.7563 0.9629
C11 C 0.4707(7) 0.5976(5) 0.9215(4)
C12 C 1.1814(6) 1.0179(5) 1.3153(4)
H8 H 1.0821 1.0611 1.3413
H9 H 1.1913 0.9414 1.3494
C13 C 1.3359(7) 1.0864(5) 1.3326(4)
H10 H 1.3207 1.1409 1.3906
H11 H 1.4331 1.0340 1.3456
C14 C 0.9126(7) 1.1359(5) 1.1750(4)
H12 H 0.8496 1.1366 1.2398
H13 H 0.9944 1.1960 1.1789
C15 C 0.7968(6) 1.1600(4) 1.0840(4)
H14 H 0.8460 1.2115 1.0332
H15 H 0.6900 1.1952 1.1069
C16 C 0.5748(6) 1.1118(4) 0.8985(4)
H16 H 0.4830 1.1125 0.9493
C17 C 0.5031(6) 1.0874(4) 0.7956(4)
H17 H 0.5829 1.1055 0.7415
H18 H 0.4029 1.1377 0.7853
C18 C 0.4604(6) 0.9600(4) 0.7868(4)
H19 H 0.3962 0.9425 0.8497
C19 C 0.3480(7) 0.9409(5) 0.6973(5)
C20 C 0.2147(7) 0.8818(5) 0.7095(5)
H20 H 0.1404 0.8749 0.6544
H21 H 0.1935 0.8463 0.7734
C21 C 0.3801(8) 0.9965(6) 0.5964(5)
H22 H 0.4814 0.9618 0.5667
H23 H 0.3915 1.0796 0.6062
H24 H 0.2884 0.9843 0.5501
C22 C 0.8657(6) 0.8375(4) 0.9166(4)
C23 C 0.9571(6) 0.8584(4) 1.0159(4)
H25 H 1.0715 0.8269 1.0089
H26 H 0.9049 0.8160 1.0720
C24 C 1.0683(6) 1.0487(5) 0.9689(4)
H27 H 1.1736 1.0048 0.9625
H28 H 1.0867 1.1267 0.9941
H29 H 1.0150 1.0539 0.9019
C25 C 0.7210(7) 0.8847(5) 0.6928(4)
H30 H 0.7421 0.9652 0.6761
H31 H 0.6592 0.8509 0.6371
H32 H 0.8254 0.8404 0.7016
C26 C 0.6588(6) 0.9760(5) 1.1107(4)
H33 H 0.6915 0.9861 1.1821
H34 H 0.6620 0.8933 1.0942
H35 H 0.5473 1.0094 1.1010
C27 C 1.2683(7) 0.8932(4) 1.1658(4)
H36 H 1.2959 0.8971 1.0929
H37 H 1.1996 0.8275 1.1780
H38 H 1.3691 0.8833 1.2059
O8 O 0.8890(5) 0.1454(3) 0.5178(3)
O9 O 0.7274(5) 0.9688(3) 0.3772(3)
O10 O 0.0131(4) 0.3888(3) 0.6594(3)
O11 O -0.1544(4) 0.2589(3) 0.7186(3)
O12 O 0.3697(5) 0.7374(4) 0.3647(3)
O13 O 0.9195(5) 0.9183(3) 0.4915(3)
H39 H 0.8934 0.8886 0.5475
O14 O 0.6422(5) 0.2663(3) 0.3988(3)
H40 H 0.5913 0.2565 0.3441
C28 C 0.8081(7) 0.8960(5) 0.4212(4)
C29 C 0.7910(7) 0.7658(4) 0.4060(4)
H41 H 0.9010 0.7259 0.4082
H42 H 0.7254 0.7355 0.4630
C30 C 0.7103(6) 0.7385(4) 0.3063(4)
H43 H 0.7864 0.7565 0.2501
H44 H 0.6114 0.7909 0.2988
C31 C 0.6587(6) 0.6121(4) 0.2922(4)
C32 C 0.5546(6) 0.5722(5) 0.3832(4)
C33 C 0.4124(6) 0.6558(4) 0.4160(4)
C34 C 0.3234(6) 0.6334(5) 0.5148(4)
H45 H 0.2087 0.6644 0.5086
H46 H 0.3754 0.6764 0.5704
C35 C 0.3224(6) 0.5058(4) 0.5447(4)
C36 C 0.2808(6) 0.4781(4) 0.6580(4)
H47 H 0.3431 0.5331 0.7000
C37 C 0.1046(6) 0.4887(4) 0.6977(4)
C38 C -0.0734(6) 0.3420(4) 0.7346(4)
C39 C 0.5780(6) 0.4724(4) 0.4336(4)
C40 C 0.5026(6) 0.4543(4) 0.5390(4)
C41 C 0.6223(6) 0.5159(5) 0.6111(4)
H48 H 0.7338 0.4825 0.6013
H49 H 0.5887 0.5054 0.6824
H50 H 0.6197 0.5988 0.5950
C42 C 0.4854(6) 0.3327(4) 0.5849(4)
H51 H 0.4383 0.2797 0.5346
H52 H 0.5926 0.2990 0.6083
C43 C 0.3680(6) 0.3559(4) 0.6753(4)
H53 H 0.4297 0.3547 0.7404
H54 H 0.2860 0.2958 0.6786
C44 C 0.7068(6) 0.3798(4) 0.3990(4)
H55 H 0.7987 0.3789 0.4494
C45 C 0.7777(6) 0.4050(4) 0.2948(4)
H56 H 0.6974 0.3873 0.2412
H57 H 0.8780 0.3550 0.2833
C46 C 0.8195(6) 0.5327(5) 0.2872(4)
H58 H 0.8833 0.5498 0.3501
C47 C 0.9328(7) 0.5515(5) 0.1970(4)
C48 C 0.9005(9) 0.4942(6) 0.0956(5)
H59 H 0.8037 0.5323 0.0637
H60 H 0.8813 0.4122 0.1068
H61 H 0.9956 0.5011 0.0506
C49 C 1.0656(8) 0.6093(5) 0.2094(5)
H62 H 1.1414 0.6153 0.1547
H63 H 1.0858 0.6453 0.2732
C50 C 0.5599(7) 0.6083(5) 0.1933(4)
H64 H 0.5368 0.5279 0.1776
H65 H 0.6232 0.6405 0.1372
H66 H 0.4566 0.6541 0.2017
C51 C 0.2115(6) 0.4430(5) 0.4693(4)
H67 H 0.1013 0.4806 0.4701
H68 H 0.2054 0.3619 0.4899
H69 H 0.2575 0.4468 0.4002
C52 C 0.0123(6) 0.5977(4) 0.6668(4)
H70 H -0.0068 0.5968 0.5929
H71 H 0.0763 0.6643 0.6843
H72 H -0.0931 0.6036 0.7029
C53 C 0.1004(6) 0.4727(5) 0.8152(4)
H73 H 0.1992 0.4278 0.8393
H74 H 0.0929 0.5484 0.8506
C54 C -0.0532(7) 0.4066(5) 0.8331(4)
H75 H -0.0387 0.3524 0.8914
H76 H -0.1492 0.4601 0.8467
loop_
_geom_bond_atom_site_label_1
_geom_bond_atom_site_label_2
_geom_bond_site_symmetry_1
_geom_bond_site_symmetry_2
O2 C1 1_555 1_555
O3 C1 1_555 1_555
O4 H1 1_555 1_555
O5 C11 1_555 1_555
O6 C22 1_555 1_555
O7 H2 1_555 1_555
C1 C13 1_555 1_555
C2 O3 1_555 1_555
C3 C2 1_555 1_555
H3 C3 1_555 1_555
C4 C3 1_555 1_555
C5 C4 1_555 1_555
C6 C5 1_555 1_555
C7 C6 1_555 1_555
C8 C7 1_555 1_555
C9 C8 1_555 1_555
H4 C9 1_555 1_555
H5 C9 1_555 1_555
C10 C9 1_555 1_555
H6 C10 1_555 1_555
H7 C10 1_555 1_555
C11 O4 1_555 1_555
C12 C2 1_555 1_555
H8 C12 1_555 1_555
H9 C12 1_555 1_555
C13 C12 1_555 1_555
H10 C13 1_555 1_555
H11 C13 1_555 1_555
C14 C3 1_555 1_555
H12 C14 1_555 1_555
H13 C14 1_555 1_555
C15 C5 1_555 1_555
H14 C15 1_555 1_555
H15 C15 1_555 1_555
C16 O7 1_555 1_555
H16 C16 1_555 1_555
C17 C16 1_555 1_555
H17 C17 1_555 1_555
H18 C17 1_555 1_555
C18 C8 1_555 1_555
H19 C18 1_555 1_555
C19 C18 1_555 1_555
C20 C19 1_555 1_555
H20 C20 1_555 1_555
H21 C20 1_555 1_555
C21 C19 1_555 1_555
H22 C21 1_555 1_555
H23 C21 1_555 1_555
H24 C21 1_555 1_555
C22 C7 1_555 1_555
C23 C4 1_555 1_555
H25 C23 1_555 1_555
H26 C23 1_555 1_555
C24 C4 1_555 1_555
H27 C24 1_555 1_555
H28 C24 1_555 1_555
H29 C24 1_555 1_555
C25 C8 1_555 1_555
H30 C25 1_555 1_555
H31 C25 1_555 1_555
H32 C25 1_555 1_555
C26 C5 1_555 1_555
H33 C26 1_555 1_555
H34 C26 1_555 1_555
H35 C26 1_555 1_555
C27 C2 1_555 1_555
H36 C27 1_555 1_555
H37 C27 1_555 1_555
H38 C27 1_555 1_555
O9 C28 1_555 1_555
O10 C37 1_555 1_555
O11 C38 1_555 1_555
O12 C33 1_555 1_555
O13 H39 1_555 1_555
O14 H40 1_555 1_555
C28 O13 1_555 1_555
C29 C28 1_555 1_555
H41 C29 1_555 1_555
H42 C29 1_555 1_555
C30 C29 1_555 1_555
H43 C30 1_555 1_555
H44 C30 1_555 1_555
C31 C30 1_555 1_555
C32 C31 1_555 1_555
C33 C32 1_555 1_555
C34 C33 1_555 1_555
H45 C34 1_555 1_555
H46 C34 1_555 1_555
C35 C34 1_555 1_555
C36 C35 1_555 1_555
H47 C36 1_555 1_555
C37 C36 1_555 1_555
C38 O10 1_555 1_555
C39 C32 1_555 1_555
C40 C35 1_555 1_555
C41 C40 1_555 1_555
H48 C41 1_555 1_555
H49 C41 1_555 1_555
H50 C41 1_555 1_555
C42 C40 1_555 1_555
H51 C42 1_555 1_555
H52 C42 1_555 1_555
C43 C36 1_555 1_555
H53 C43 1_555 1_555
H54 C43 1_555 1_555
C44 O14 1_555 1_555
H55 C44 1_555 1_555
C45 C44 1_555 1_555
H56 C45 1_555 1_555
H57 C45 1_555 1_555
C46 C31 1_555 1_555
H58 C46 1_555 1_555
C47 C46 1_555 1_555
C48 C47 1_555 1_555
H59 C48 1_555 1_555
H60 C48 1_555 1_555
H61 C48 1_555 1_555
C49 C47 1_555 1_555
H62 C49 1_555 1_555
H63 C49 1_555 1_555
C50 C31 1_555 1_555
H64 C50 1_555 1_555
H65 C50 1_555 1_555
H66 C50 1_555 1_555
C51 C35 1_555 1_555
H67 C51 1_555 1_555
H68 C51 1_555 1_555
H69 C51 1_555 1_555
C52 C37 1_555 1_555
H70 C52 1_555 1_555
H71 C52 1_555 1_555
H72 C52 1_555 1_555
C53 C37 1_555 1_555
H73 C53 1_555 1_555
H74 C53 1_555 1_555
C54 C38 1_555 1_555
H75 C54 1_555 1_555
H76 C54 1_555 1_555
C6 C16 1_555 1_555
C10 C11 1_555 1_555
C14 C15 1_555 1_555
C17 C18 1_555 1_555
C22 C23 1_555 1_555
C39 C40 1_555 1_555
C39 C44 1_555 1_555
C42 C43 1_555 1_555
C45 C46 1_555 1_555
C53 C54 1_555 1_555

#END
