
#######################################################################
#
#                 Cambridge Crystallographic Data Centre
#                                CCDC 
#
#######################################################################
#
# If this CIF has been generated from an entry in the Cambridge 
# Structural Database, then it will include bibliographic, chemical, 
# crystal, experimental, refinement or atomic coordinate data resulting 
# from the CCDC's data processing and validation procedures.
#
#######################################################################

data_YURPEI
_chemical_formula_moiety         'C23 H25 N2 S1 1+,H2 O1,I1 1-'
_chemical_name_systematic        
'N,N-dimethyl-5-(2-(1,1,3-trimethyl-1,3-dihydro-2H-benzo[e]indol-2-ylidene)ethylidene)thiophen-2(5H)-iminium iodide monohydrate'
_symmetry_cell_setting           monoclinic
_symmetry_space_group_name_H-M   'P 21/c'
_symmetry_Int_Tables_number      14
_space_group_name_Hall           '-P 2ybc'
loop_
_symmetry_equiv_pos_site_id
_symmetry_equiv_pos_as_xyz
1 x,y,z
2 -x,1/2+y,1/2-z
3 -x,-y,-z
4 x,1/2-y,1/2+z
_cell_length_a                   11.9049(8)
_cell_length_b                   12.9122(9)
_cell_length_c                   14.2096(16)
_cell_angle_alpha                90
_cell_angle_beta                 92.885(10)
_cell_angle_gamma                90
_cell_volume                     2181.51
_cell_formula_units_Z            4
loop_
_atom_site_label
_atom_site_type_symbol
_atom_site_fract_x
_atom_site_fract_y
_atom_site_fract_z
C1 C 0.4045(8) 0.6986(9) 0.6606(8)
H1 H 0.3305 0.7212 0.6624
C2 C 0.4289(8) 0.5938(9) 0.6636(7)
H2 H 0.3706 0.5465 0.6684
C3 C 0.5360(7) 0.5587(7) 0.6599(6)
H3 H 0.5496 0.4878 0.6605
C4 C 0.6276(7) 0.6285(6) 0.6551(5)
C5 C 0.6028(7) 0.7362(7) 0.6534(5)
C6 C 0.4888(8) 0.7677(8) 0.6549(7)
H4 H 0.4718 0.8380 0.6519
C7 C 0.6904(8) 0.8087(7) 0.6493(6)
H5 H 0.6729 0.8789 0.6478
C8 C 0.8008(8) 0.7796(6) 0.6473(6)
H6 H 0.8583 0.8281 0.6454
C9 C 0.8227(6) 0.6731(6) 0.6482(5)
C10 C 0.7415(6) 0.5988(6) 0.6512(5)
C11 C 0.7951(6) 0.4932(6) 0.6451(5)
C12 C 0.7779(8) 0.4255(7) 0.7320(6)
H7 H 0.6989 0.4182 0.7410
H8 H 0.8137 0.4576 0.7866
H9 H 0.8104 0.3584 0.7228
C13 C 0.7529(7) 0.4375(6) 0.5543(6)
H10 H 0.7766 0.4752 0.5006
H11 H 0.6723 0.4337 0.5522
H12 H 0.7835 0.3687 0.5536
C14 C 0.9193(6) 0.5227(6) 0.6414(5)
C15 C 1.0330(7) 0.6838(8) 0.6436(7)
H13 H 1.0663 0.6733 0.5842
H14 H 1.0836 0.6598 0.6936
H15 H 1.0183 0.7562 0.6520
C16 C 1.0111(7) 0.4576(7) 0.6350(6)
H16 H 1.0817 0.4888 0.6381
C17 C 1.0086(7) 0.3515(7) 0.6244(6)
H17 H 0.9386 0.3197 0.6244
C18 C 1.0998(6) 0.2888(6) 0.6138(5)
C19 C 1.0995(7) 0.1824(7) 0.6014(6)
H18 H 1.0338 0.1434 0.6012
C20 C 1.2025(7) 0.1386(6) 0.5894(6)
H19 H 1.2136 0.0683 0.5793
C21 C 1.2891(6) 0.2117(6) 0.5941(5)
C22 C 1.4783(7) 0.2792(7) 0.5928(7)
H20 H 1.4701 0.3171 0.6501
H21 H 1.4647 0.3246 0.5399
H22 H 1.5532 0.2519 0.5918
C23 C 1.4386(8) 0.0904(7) 0.5756(8)
H23 H 1.3994 0.0589 0.5223
H24 H 1.4260 0.0507 0.6312
H25 H 1.5177 0.0922 0.5653
N1 N 1.3978(5) 0.1945(5) 0.5874(5)
N2 N 0.9278(5) 0.6261(5) 0.6450(5)
S1 S 1.23803(16) 0.33523(15) 0.60997(15)
I1 I 0.77909(6) 0.38858(6) 0.09013(8)
O1 O 0.979(2) 0.063(2) 0.4110(19)
H26 H 1.0234 0.0514 0.3671
H27 H 0.9933 0.1279 0.4346
loop_
_geom_bond_atom_site_label_1
_geom_bond_atom_site_label_2
_geom_bond_site_symmetry_1
_geom_bond_site_symmetry_2
C1 H1 1_555 1_555
C2 C1 1_555 1_555
H2 C2 1_555 1_555
C3 C2 1_555 1_555
H3 C3 1_555 1_555
C4 C3 1_555 1_555
C5 C4 1_555 1_555
C6 C1 1_555 1_555
H4 C6 1_555 1_555
C7 C5 1_555 1_555
H5 C7 1_555 1_555
C8 C7 1_555 1_555
H6 C8 1_555 1_555
C9 C8 1_555 1_555
C10 C4 1_555 1_555
C11 C10 1_555 1_555
C12 C11 1_555 1_555
H7 C12 1_555 1_555
H8 C12 1_555 1_555
H9 C12 1_555 1_555
C13 C11 1_555 1_555
H10 C13 1_555 1_555
H11 C13 1_555 1_555
H12 C13 1_555 1_555
C14 C11 1_555 1_555
C15 H13 1_555 1_555
H14 C15 1_555 1_555
H15 C15 1_555 1_555
C16 C14 1_555 1_555
H16 C16 1_555 1_555
C17 C16 1_555 1_555
H17 C17 1_555 1_555
C18 C17 1_555 1_555
C19 C18 1_555 1_555
H18 C19 1_555 1_555
C20 C19 1_555 1_555
H19 C20 1_555 1_555
C21 C20 1_555 1_555
C22 H20 1_555 1_555
H21 C22 1_555 1_555
H22 C22 1_555 1_555
C23 H23 1_555 1_555
H24 C23 1_555 1_555
H25 C23 1_555 1_555
N1 C21 1_555 1_555
N2 C9 1_555 1_555
S1 C18 1_555 1_555
O1 H26 1_555 1_555
H27 O1 1_555 1_555
C5 C6 1_555 1_555
C9 C10 1_555 1_555
C14 N2 1_555 1_555
C15 N2 1_555 1_555
C21 S1 1_555 1_555
C22 N1 1_555 1_555
C23 N1 1_555 1_555

#END
