
#######################################################################
#
#                 Cambridge Crystallographic Data Centre
#                                CCDC 
#
#######################################################################
#
# If this CIF has been generated from an entry in the Cambridge 
# Structural Database, then it will include bibliographic, chemical, 
# crystal, experimental, refinement or atomic coordinate data resulting 
# from the CCDC's data processing and validation procedures.
#
#######################################################################

data_YURQIM
_chemical_name_common            
"N,N,N',N'-Tetrabenzylethylenediamine oxonium hemikis(hexachlorotellurate) hydrogen chloride hemihydrate"
_chemical_formula_moiety         
'C30 H32 N2,0.5(Cl6 Te1 2-),H3 O1 1+,H1 Cl1,0.5(H2 O1)'
_chemical_name_systematic        
"N,N,N',N'-Tetrabenzylethylenediamine oxonium hemikis(hexachloro-tellurium) hydrogen chloride hemihydrate"
_symmetry_cell_setting           triclinic
_symmetry_space_group_name_H-M   'P -1'
_symmetry_Int_Tables_number      2
_space_group_name_Hall           '-P 1'
loop_
_symmetry_equiv_pos_site_id
_symmetry_equiv_pos_as_xyz
1 x,y,z
2 -x,-y,-z
_cell_length_a                   10.350(4)
_cell_length_b                   11.687(4)
_cell_length_c                   13.638(2)
_cell_angle_alpha                78.59(2)
_cell_angle_beta                 74.66(2)
_cell_angle_gamma                84.97(3)
_cell_volume                     1558.35
_exptl_crystal_description       block
_chemical_melting_point          154deg.C
_cell_formula_units_Z            2
loop_
_atom_site_label
_atom_site_type_symbol
_atom_site_fract_x
_atom_site_fract_y
_atom_site_fract_z
Te1 Te 0.0000 0.0000 0.5000
Cl1 Cl -0.2433(2) -0.0240(2) 0.50510(17)
Cl2 Cl 0.0486(2) -0.21654(17) 0.51386(18)
Cl3 Cl 0.0621(2) 0.0219(2) 0.30583(14)
Cl1A Cl 0.2433(2) 0.0240(2) 0.49490(17)
Cl2A Cl -0.0486(2) 0.21654(17) 0.48614(18)
Cl3A Cl -0.0621(2) -0.0219(2) 0.69417(14)
C1 C 0.2122(7) 0.0110(6) -0.1910(6)
H1 H 0.1850 0.0292 -0.2553
H2 H 0.1785 -0.0649 -0.1550
C2 C 0.1504(7) 0.0998(6) -0.1266(5)
C3 C 0.0978(7) 0.2043(7) -0.1724(6)
H3 H 0.1013 0.2172 -0.2426
C4 C 0.0402(9) 0.2892(8) -0.1143(7)
H4 H 0.0065 0.3594 -0.1452
C5 C 0.0338(10) 0.2679(10) -0.0109(7)
H5 H -0.0043 0.3247 0.0283
C6 C 0.0810(11) 0.1674(9) 0.0350(7)
H6 H 0.0740 0.1544 0.1057
C7 C 0.1410(10) 0.0813(7) -0.0228(6)
H7 H 0.1745 0.0117 0.0094
C8 C 0.4228(8) -0.0819(7) -0.2876(6)
H8 H 0.4028 -0.0524 -0.3539
H9 H 0.5195 -0.0871 -0.2990
C9 C 0.3686(7) -0.2020(6) -0.2464(6)
C10 C 0.2563(8) -0.2320(8) -0.2707(7)
H10 H 0.2149 -0.1783 -0.3139
C11 C 0.2051(9) -0.3422(9) -0.2305(9)
H11 H 0.1291 -0.3624 -0.2464
C12 C 0.2668(11) -0.4202(9) -0.1679(10)
H12 H 0.2313 -0.4935 -0.1397
C13 C 0.3791(12) -0.3927(9) -0.1460(10)
H13 H 0.4222 -0.4478 -0.1050
C14 C 0.4298(9) -0.2825(7) -0.1844(7)
H14 H 0.5058 -0.2632 -0.1679
C15 C 0.6197(7) 0.3295(7) -0.3752(5)
H15 H 0.6469 0.4050 -0.3703
H16 H 0.6909 0.2973 -0.4255
C16 C 0.4955(7) 0.3464(6) -0.4135(5)
C17 C 0.4858(10) 0.2998(8) -0.4967(6)
H17 H 0.5577 0.2572 -0.5313
C18 C 0.3685(13) 0.3172(10) -0.5278(7)
H18 H 0.3620 0.2868 -0.5844
C19 C 0.2616(12) 0.3780(11) -0.4773(9)
H19 H 0.1815 0.3863 -0.4972
C20 C 0.2734(10) 0.4257(9) -0.3984(8)
H20 H 0.2019 0.4694 -0.3650
C21 C 0.3901(8) 0.4106(7) -0.3665(6)
H21 H 0.3968 0.4448 -0.3120
C22 C 0.7335(6) 0.2446(6) -0.2368(5)
H22 H 0.7217 0.1961 -0.1688
H23 H 0.8048 0.2088 -0.2844
C23 C 0.7736(7) 0.3639(6) -0.2332(6)
C24 C 0.7146(9) 0.4156(8) -0.1478(8)
H24 H 0.7329 0.3645 -0.0874
C25 C 0.7532(13) 0.5291(11) -0.1485(12)
H25 H 0.7157 0.5666 -0.0928
C26 C 0.8483(13) 0.5837(9) -0.2340(13)
H26 H 0.8703 0.6598 -0.2361
C27 C 0.9087(11) 0.5305(8) -0.3127(9)
H27 H 0.9757 0.5672 -0.3668
C28 C 0.8710(8) 0.4207(7) -0.3131(7)
H28 H 0.9122 0.3840 -0.3687
C29 C 0.4186(7) 0.1234(6) -0.2616(6)
H29 H 0.3697 0.1789 -0.2196
H30 H 0.4038 0.1469 -0.3302
C30 C 0.5674(6) 0.1272(6) -0.2690(5)
H31 H 0.5890 0.0754 -0.2101
H32 H 0.6192 0.1006 -0.3313
N1 N 0.3650(5) 0.0042(4) -0.2155(4)
N2 N 0.6035(5) 0.2498(4) -0.2712(4)
Cl4 Cl 0.4146(3) 0.2870(3) -0.0661(3)
H33 H 0.376(4) 0.308(3) -0.133(3)
O1 O 0.5295(7) 0.1093(4) 0.0301(3)
H34 H 0.5159 0.0697 0.0911
H35 H 0.5596 0.1775 0.0170
H36 H 0.6281 0.0761 0.0214
O2 O 0.3254(7) 0.0852(4) 0.1361(3)
H37? H 0.6184 0.4187 -0.1390
O3? O 0.3223(7) 0.1355(4) 0.1761(3)
loop_
_geom_bond_atom_site_label_1
_geom_bond_atom_site_label_2
_geom_bond_site_symmetry_1
_geom_bond_site_symmetry_2
Te1 Cl1 1_555 1_555
Cl2 Te1 1_555 1_555
Cl3 Te1 1_555 1_555
C1 H1 1_555 1_555
H2 C1 1_555 1_555
C2 C1 1_555 1_555
C3 C2 1_555 1_555
H3 C3 1_555 1_555
C4 C3 1_555 1_555
H4 C4 1_555 1_555
C5 C4 1_555 1_555
H5 C5 1_555 1_555
C6 C5 1_555 1_555
H6 C6 1_555 1_555
C7 C2 1_555 1_555
H7 C7 1_555 1_555
C8 H8 1_555 1_555
H9 C8 1_555 1_555
C9 C8 1_555 1_555
C10 C9 1_555 1_555
H10 C10 1_555 1_555
C11 C10 1_555 1_555
H11 C11 1_555 1_555
C12 C11 1_555 1_555
H12 C12 1_555 1_555
C13 C12 1_555 1_555
H13 C13 1_555 1_555
C14 C9 1_555 1_555
H14 C14 1_555 1_555
C15 H15 1_555 1_555
H16 C15 1_555 1_555
C16 C15 1_555 1_555
C17 C16 1_555 1_555
H17 C17 1_555 1_555
C18 C17 1_555 1_555
H18 C18 1_555 1_555
C19 C18 1_555 1_555
H19 C19 1_555 1_555
C20 C19 1_555 1_555
H20 C20 1_555 1_555
C21 C16 1_555 1_555
H21 C21 1_555 1_555
C22 H22 1_555 1_555
H23 C22 1_555 1_555
C23 C22 1_555 1_555
C24 C23 1_555 1_555
H24 C24 1_555 1_555
C25 C24 1_555 1_555
H25 C25 1_555 1_555
C26 C25 1_555 1_555
H26 C26 1_555 1_555
C27 C26 1_555 1_555
H27 C27 1_555 1_555
C28 C23 1_555 1_555
H28 C28 1_555 1_555
C29 H29 1_555 1_555
H30 C29 1_555 1_555
C30 C29 1_555 1_555
H31 C30 1_555 1_555
H32 C30 1_555 1_555
N1 C1 1_555 1_555
N2 C15 1_555 1_555
Cl4 H33 1_555 1_555
O1 H34 1_555 1_555
H35 O1 1_555 1_555
H36 O1 1_555 1_555
Cl1A Te1 1_555 1_555
Cl2A Te1 1_555 1_555
Cl3A Te1 1_555 1_555
C6 C7 1_555 1_555
C8 N1 1_555 1_555
C13 C14 1_555 1_555
C20 C21 1_555 1_555
C22 N2 1_555 1_555
C27 C28 1_555 1_555
C29 N1 1_555 1_555
C30 N2 1_555 1_555

#END
