
#######################################################################
#
#                 Cambridge Crystallographic Data Centre
#                                CCDC 
#
#######################################################################
#
# If this CIF has been generated from an entry in the Cambridge 
# Structural Database, then it will include bibliographic, chemical, 
# crystal, experimental, refinement or atomic coordinate data resulting 
# from the CCDC's data processing and validation procedures.
#
#######################################################################

data_YURROU
_chemical_formula_moiety         'C25 H29 N2 1+,I1 1-,C2 H6 O1 S1'
_chemical_name_systematic        
'2-(2-(4-(Dimethylamino)phenyl)ethyl)-1,1,3-trimethyl-1H-benzo[e]indolium iodide dimethyl sulfoxide solvate'
_symmetry_cell_setting           monoclinic
_symmetry_space_group_name_H-M   'P 21'
_symmetry_Int_Tables_number      4
_space_group_name_Hall           'P 2yb'
loop_
_symmetry_equiv_pos_site_id
_symmetry_equiv_pos_as_xyz
1 x,y,z
2 -x,1/2+y,-z
_cell_length_a                   12.3912(15)
_cell_length_b                   7.2160(8)
_cell_length_c                   16.781(2)
_cell_angle_alpha                90
_cell_angle_beta                 92.145(11)
_cell_angle_gamma                90
_cell_volume                     1499.42
_exptl_crystal_colour            purple
_exptl_crystal_description       block
_cell_formula_units_Z            2
loop_
_atom_site_label
_atom_site_type_symbol
_atom_site_fract_x
_atom_site_fract_y
_atom_site_fract_z
C1 C 1.5453(14) 0.248(6) 0.5751(12)
H1 H 1.6108 0.2347 0.6034
C2 C 1.547(3) 0.246(8) 0.4977(14)
H2 H 1.6120 0.2512 0.4723
C3 C 1.442(2) 0.234(6) 0.4490(13)
H3 H 1.4409 0.2180 0.3940
C4 C 1.3521(19) 0.247(6) 0.4871(13)
H4 H 1.2885 0.2625 0.4566
C5 C 1.3434(17) 0.240(5) 0.5714(10)
C6 C 1.2470(15) 0.236(6) 0.6066(12)
H5 H 1.1828 0.2140 0.5776
C7 C 1.2494(18) 0.267(7) 0.6955(10)
H6 H 1.1868 0.2957 0.7219
C8 C 1.3439(13) 0.253(5) 0.7346(9)
C9 C 1.4443(12) 0.262(6) 0.6995(9)
C10 C 1.4481(14) 0.271(4) 0.6204(10)
C11 C 1.5337(12) 0.248(5) 0.7628(9)
C12 C 1.600(3) 0.079(4) 0.7618(17)
H7 H 1.5533 -0.0280 0.7604
H8 H 1.6460 0.0744 0.8089
H9 H 1.6429 0.0791 0.7155
C13 C 1.607(2) 0.436(4) 0.759(2)
H10 H 1.6644 0.4301 0.7984
H11 H 1.5625 0.5420 0.7681
H12 H 1.6367 0.4457 0.7068
C14 C 1.4668(16) 0.248(6) 0.8398(9)
C15 C 1.5069(12) 0.236(4) 0.9226(8)
H13 H 1.4687 0.3294 0.9518
H14 H 1.4831 0.1166 0.9424
C16 C 1.6144(16) 0.252(7) 0.9456(9)
H15 H 1.6403 0.3639 0.9206
H16 H 1.6514 0.1494 0.9211
C17 C 1.6538(8) 0.258(4) 1.0284(5)
C18 C 1.7653(7) 0.261(4) 1.0409(5)
H17 H 1.8100 0.2628 0.9976
C19 C 1.8100(6) 0.262(5) 1.1181(6)
H18 H 1.8846 0.2642 1.1264
C20 C 1.7432(8) 0.260(5) 1.1828(5)
C21 C 1.6317(8) 0.257(5) 1.1703(5)
H19 H 1.5871 0.2553 1.2136
C22 C 1.5870(6) 0.256(5) 1.0931(6)
H20 H 1.5124 0.2539 1.0847
C23 C 1.7203(16) 0.254(9) 1.3323(12)
H21 H 1.7666 0.2355 1.3788
H22 H 1.6657 0.1597 1.3299
H23 H 1.6867 0.3737 1.3351
C24 C 1.9126(14) 0.285(4) 1.2784(12)
H24 H 1.9256 0.2748 1.3350
H25 H 1.9302 0.4077 1.2613
H26 H 1.9567 0.1966 1.2518
C25 C 1.2774(14) 0.269(7) 0.8740(11)
H27 H 1.2119 0.2670 0.8417
H28 H 1.2849 0.3878 0.8996
H29 H 1.2751 0.1738 0.9138
N1 N 1.3678(11) 0.238(4) 0.8247(9)
N2 N 1.7878(9) 0.243(7) 1.2570(8)
I1 I 1.95392(10) 0.2524 0.82357(8)
S1 S 0.9500(5) 0.2340(18) 0.5642(4)
O1 O 0.9396(19) 0.207(5) 0.4770(14)
C26 C 0.915(4) 0.406(8) 0.594(3)
H30 H 0.9545 0.5045 0.5706
H31 H 0.9271 0.4084 0.6511
H32 H 0.8392 0.4211 0.5817
C27 C 0.871(2) 0.071(4) 0.6022(15)
H33 H 0.9002 -0.0495 0.5910
H34 H 0.7996 0.0805 0.5785
H35 H 0.8683 0.0872 0.6588
loop_
_geom_bond_atom_site_label_1
_geom_bond_atom_site_label_2
_geom_bond_site_symmetry_1
_geom_bond_site_symmetry_2
C1 H1 1_555 1_555
C2 C1 1_555 1_555
H2 C2 1_555 1_555
C3 C2 1_555 1_555
H3 C3 1_555 1_555
C4 C3 1_555 1_555
H4 C4 1_555 1_555
C5 C4 1_555 1_555
C6 C5 1_555 1_555
H5 C6 1_555 1_555
C7 C6 1_555 1_555
H6 C7 1_555 1_555
C8 C7 1_555 1_555
C9 C8 1_555 1_555
C10 C1 1_555 1_555
C11 C9 1_555 1_555
C12 C11 1_555 1_555
H7 C12 1_555 1_555
H8 C12 1_555 1_555
H9 C12 1_555 1_555
C13 C11 1_555 1_555
H10 C13 1_555 1_555
H11 C13 1_555 1_555
H12 C13 1_555 1_555
C14 C11 1_555 1_555
C15 C14 1_555 1_555
H13 C15 1_555 1_555
H14 C15 1_555 1_555
C16 C15 1_555 1_555
H15 C16 1_555 1_555
H16 C16 1_555 1_555
C17 C16 1_555 1_555
C18 C17 1_555 1_555
H17 C18 1_555 1_555
C19 C18 1_555 1_555
H18 C19 1_555 1_555
C20 C19 1_555 1_555
C21 C20 1_555 1_555
H19 C21 1_555 1_555
C22 C17 1_555 1_555
H20 C22 1_555 1_555
C23 H21 1_555 1_555
H22 C23 1_555 1_555
H23 C23 1_555 1_555
C24 H24 1_555 1_555
H25 C24 1_555 1_555
H26 C24 1_555 1_555
C25 H27 1_555 1_555
H28 C25 1_555 1_555
H29 C25 1_555 1_555
N1 C8 1_555 1_555
N2 C20 1_555 1_555
S1 O1 1_555 1_555
C26 S1 1_555 1_555
H30 C26 1_555 1_555
H31 C26 1_555 1_555
H32 C26 1_555 1_555
C27 S1 1_555 1_555
H33 C27 1_555 1_555
H34 C27 1_555 1_555
H35 C27 1_555 1_555
C5 C10 1_555 1_555
C9 C10 1_555 1_555
C14 N1 1_555 1_555
C21 C22 1_555 1_555
C23 N2 1_555 1_555
C24 N2 1_555 1_555
C25 N1 1_555 1_555

#END
