
#######################################################################
#
#                 Cambridge Crystallographic Data Centre
#                                CCDC 
#
#######################################################################
#
# If this CIF has been generated from an entry in the Cambridge 
# Structural Database, then it will include bibliographic, chemical, 
# crystal, experimental, refinement or atomic coordinate data resulting 
# from the CCDC's data processing and validation procedures.
#
#######################################################################

data_YUSDIA
_chemical_formula_moiety         'C57 H68 N6 O5,2(H2 O1)'
_chemical_name_systematic        
'2-(1-Naphthyl)ethyl 3,7,12-tris((phenylcarbamoyl)amino)cholan-24-oate dihydrate'
_symmetry_cell_setting           hexagonal
_symmetry_space_group_name_H-M   'P 61'
_symmetry_Int_Tables_number      169
_space_group_name_Hall           'P 61'
loop_
_symmetry_equiv_pos_site_id
_symmetry_equiv_pos_as_xyz
1 x,y,z
2 -y,x-y,1/3+z
3 -x+y,-x,2/3+z
4 -x,-y,1/2+z
5 y,-x+y,5/6+z
6 x-y,x,1/6+z
_cell_length_a                   28.9480(6)
_cell_length_b                   28.9480(6)
_cell_length_c                   11.4319(2)
_cell_angle_alpha                90
_cell_angle_beta                 90
_cell_angle_gamma                120
_cell_volume                     8296.33
_exptl_crystal_colour            colorless
_exptl_crystal_description       needle
_chemical_melting_point          168-170deg.C
_cell_formula_units_Z            6
_exptl_crystal_recrystallization_method acetone/water
loop_
_atom_site_label
_atom_site_type_symbol
_atom_site_fract_x
_atom_site_fract_y
_atom_site_fract_z
C1 C 0.41100(8) 0.54160(8) 0.38454(17)
H1 H 0.3975 0.5558 0.4463
H2 H 0.4239 0.5196 0.4233
C2 C 0.45810(8) 0.58843(8) 0.32378(17)
H3 H 0.4736 0.5751 0.2648
H4 H 0.4861 0.6101 0.3818
C3 C 0.43810(8) 0.62260(7) 0.26433(17)
H5 H 0.4209 0.6331 0.3268
C4 C 0.39456(7) 0.58947(7) 0.17604(17)
H6 H 0.4095 0.5770 0.1138
H7 H 0.3819 0.6120 0.1391
C5 C 0.34709(7) 0.54089(7) 0.23430(16)
H8 H 0.3323 0.5554 0.2935
C6 C 0.30164(7) 0.50787(7) 0.14818(17)
H9 H 0.2944 0.5324 0.1017
H10 H 0.2690 0.4843 0.1933
C7 C 0.31299(7) 0.47337(7) 0.06382(16)
H11 H 0.2785 0.4477 0.0253
C8 C 0.33292(7) 0.44041(7) 0.13002(16)
H12 H 0.3027 0.4138 0.1791
C9 C 0.37961(7) 0.47502(7) 0.21287(16)
H13 H 0.4088 0.5027 0.1633
C10 C 0.36418(7) 0.50538(7) 0.30275(17)
C11 C 0.40178(7) 0.44184(7) 0.26960(16)
H14 H 0.3746 0.4155 0.3234
H15 H 0.4336 0.4658 0.3168
C12 C 0.41736(7) 0.41212(7) 0.18043(16)
H16 H 0.4291 0.3898 0.2242
C13 C 0.36871(7) 0.37492(7) 0.10386(16)
C14 C 0.34798(7) 0.40950(7) 0.04531(16)
H17 H 0.3777 0.4365 -0.0042
C15 C 0.30482(7) 0.37080(7) -0.03837(17)
H18 H 0.2991 0.3901 -0.1031
H19 H 0.2706 0.3488 0.0031
C16 C 0.32784(8) 0.33606(8) -0.08446(19)
H20 H 0.3383 0.3444 -0.1676
H21 H 0.3009 0.2977 -0.0779
C17 C 0.37756(7) 0.34952(7) -0.00744(17)
H22 H 0.4095 0.3782 -0.0487
C18 C 0.31790(8) 0.46644(8) 0.38142(18)
H23 H 0.3290 0.4450 0.4270
H24 H 0.2872 0.4429 0.3327
H25 H 0.3080 0.4866 0.4346
C19 C 0.32667(8) 0.33112(8) 0.18252(18)
H26 H 0.3432 0.3144 0.2274
H27 H 0.2979 0.3041 0.1340
H28 H 0.3120 0.3469 0.2364
C20 C 0.38599(8) 0.30122(8) 0.00474(19)
H29 H 0.3530 0.2713 0.0404
C21 C 0.39226(9) 0.28376(9) -0.1189(2)
H30 H 0.3612 0.2778 -0.1667
H31 H 0.4246 0.3133 -0.1553
C22 C 0.43325(8) 0.31259(8) 0.0842(2)
H32 H 0.4386 0.2817 0.0839
H33 H 0.4258 0.3193 0.1641
H34 H 0.4655 0.3440 0.0552
C23 C 0.39673(10) 0.23306(9) -0.1231(2)
H35 H 0.3966 0.2227 -0.2057
H36 H 0.4311 0.2407 -0.0878
C24 C 0.35227(11) 0.18802(11) -0.0596(3)
C25 C 0.51373(7) 0.67637(7) 0.12542(17)
C26 C 0.33481(7) 0.52743(7) -0.11303(16)
C27 C 0.51281(7) 0.47558(7) 0.15385(16)
C28 C 0.58248(8) 0.74424(7) -0.00552(18)
C29 C 0.58121(10) 0.77234(9) -0.1019(2)
H37 H 0.5516 0.7775 -0.1134
C30 C 0.62281(11) 0.79314(10) -0.1820(2)
H38 H 0.6218 0.8128 -0.2475
C31 C 0.66559(11) 0.78533(10) -0.1666(3)
H39 H 0.6943 0.7998 -0.2209
C32 C 0.66644(10) 0.75643(10) -0.0722(3)
H40 H 0.6955 0.7502 -0.0628
C33 C 0.62555(9) 0.73612(9) 0.0098(2)
H41 H 0.6270 0.7169 0.0756
C34 C 0.37212(7) 0.59366(7) -0.27735(16)
C35 C 0.32484(8) 0.58974(9) -0.31708(19)
H42 H 0.2919 0.5667 -0.2793
C36 C 0.32666(9) 0.62031(9) -0.4137(2)
H43 H 0.2945 0.6177 -0.4414
C37 C 0.37362(9) 0.65396(8) -0.46940(18)
H44 H 0.3741 0.6745 -0.5347
C38 C 0.42055(8) 0.65751(8) -0.42847(19)
H45 H 0.4534 0.6807 -0.4660
C39 C 0.41963(8) 0.62759(7) -0.33399(18)
H46 H 0.4519 0.6302 -0.3072
C40 C 0.60095(7) 0.55714(8) 0.11957(16)
C41 C 0.62376(8) 0.60940(8) 0.07755(18)
H47 H 0.6018 0.6217 0.0442
C42 C 0.67875(9) 0.64341(9) 0.0847(2)
H48 H 0.6942 0.6788 0.0554
C43 C 0.71106(8) 0.62581(9) 0.1345(2)
H49 H 0.7485 0.6490 0.1394
C44 C 0.68825(8) 0.57447(9) 0.17671(18)
H50 H 0.7103 0.5626 0.2115
C45 C 0.63353(8) 0.53973(8) 0.16932(18)
H51 H 0.6184 0.5043 0.1981
C46 C 0.25834(13) 0.13264(13) -0.0445(5)
H52 H 0.2260 0.1334 -0.0701
H53 H 0.2629 0.1402 0.0404
C47 C 0.25085(18) 0.07699(15) -0.0674(7)
H54 H 0.2478 0.0701 -0.1527
H55 H 0.2825 0.0759 -0.0388
C48 C 0.20144(19) 0.03386(15) -0.0071(7)
C49 C 0.1575(2) 0.00442(19) -0.0679(7)
H56 H 0.1580 0.0106 -0.1497
C50 C 0.1106(2) -0.0350(2) -0.0180(8)
H57 H 0.0795 -0.0543 -0.0644
C51 C 0.10954(19) -0.04606(16) 0.0984(8)
H58 H 0.0777 -0.0745 0.1306
C52 C 0.1534(2) -0.01711(18) 0.1727(8)
C53 C 0.20212(17) 0.02495(16) 0.1207(7)
C54 C 0.2451(2) 0.0553(2) 0.1922(8)
H59 H 0.2774 0.0825 0.1590
C55 C 0.2420(2) 0.0467(2) 0.3104(9)
H60 H 0.2720 0.0690 0.3576
C56 C 0.1972(3) 0.0075(3) 0.3627(11)
H61 H 0.1963 0.0021 0.4448
C57 C 0.1526(3) -0.0250(2) 0.2931(8)
H62 H 0.1214 -0.0527 0.3286
N1 N 0.48086(7) 0.67255(6) 0.21387(15)
H63 H 0.4754(10) 0.6994(8) 0.225(2)
N2 N 0.54134(7) 0.72688(7) 0.07942(16)
H64 H 0.5320(10) 0.7489(9) 0.101(2)
N3 N 0.35042(6) 0.50561(6) -0.02858(13)
H65 H 0.3847(7) 0.5150(9) -0.021(2)
N4 N 0.37540(6) 0.56554(6) -0.17918(14)
H66 H 0.4064(7) 0.5712(9) -0.166(2)
N5 N 0.46219(6) 0.45106(6) 0.10903(13)
H67 H 0.4564(9) 0.4731(9) 0.0601(19)
N6 N 0.54578(6) 0.52392(6) 0.10269(14)
H68 H 0.5332(9) 0.5402(9) 0.065(2)
O1 O 0.35747(10) 0.16707(8) 0.0277(2)
O2 O 0.30502(9) 0.17406(9) -0.1073(3)
O3 O 0.51953(6) 0.63930(5) 0.08991(13)
O4 O 0.28731(5) 0.51362(5) -0.12922(12)
O5 O 0.52685(5) 0.45535(5) 0.23124(12)
O6 O 0.92182(5) 0.46943(5) 0.13477(12)
H69 H 0.9257(10) 0.4732(10) 0.0642(15)
H70 H 0.9073(9) 0.4855(9) 0.164(2)
O7 O 0.092(2) 0.0803(17) -0.231(3)
loop_
_geom_bond_atom_site_label_1
_geom_bond_atom_site_label_2
_geom_bond_site_symmetry_1
_geom_bond_site_symmetry_2
C1 H1 1_555 1_555
H2 C1 1_555 1_555
C2 C1 1_555 1_555
H3 C2 1_555 1_555
H4 C2 1_555 1_555
C3 C2 1_555 1_555
H5 C3 1_555 1_555
C4 C3 1_555 1_555
H6 C4 1_555 1_555
H7 C4 1_555 1_555
C5 C4 1_555 1_555
H8 C5 1_555 1_555
C6 C5 1_555 1_555
H9 C6 1_555 1_555
H10 C6 1_555 1_555
C7 C6 1_555 1_555
H11 C7 1_555 1_555
C8 C7 1_555 1_555
H12 C8 1_555 1_555
C9 C8 1_555 1_555
H13 C9 1_555 1_555
C10 C1 1_555 1_555
C11 C9 1_555 1_555
H14 C11 1_555 1_555
H15 C11 1_555 1_555
C12 C11 1_555 1_555
H16 C12 1_555 1_555
C13 C12 1_555 1_555
C14 C8 1_555 1_555
H17 C14 1_555 1_555
C15 C14 1_555 1_555
H18 C15 1_555 1_555
H19 C15 1_555 1_555
C16 C15 1_555 1_555
H20 C16 1_555 1_555
H21 C16 1_555 1_555
C17 C13 1_555 1_555
H22 C17 1_555 1_555
C18 C10 1_555 1_555
H23 C18 1_555 1_555
H24 C18 1_555 1_555
H25 C18 1_555 1_555
C19 C13 1_555 1_555
H26 C19 1_555 1_555
H27 C19 1_555 1_555
H28 C19 1_555 1_555
C20 C17 1_555 1_555
H29 C20 1_555 1_555
C21 C20 1_555 1_555
H30 C21 1_555 1_555
H31 C21 1_555 1_555
C22 C20 1_555 1_555
H32 C22 1_555 1_555
H33 C22 1_555 1_555
H34 C22 1_555 1_555
C23 C21 1_555 1_555
H35 C23 1_555 1_555
H36 C23 1_555 1_555
C24 C23 1_555 1_555
C25 N1 1_555 1_555
C26 N3 1_555 1_555
C27 N5 1_555 1_555
C28 C29 1_555 1_555
C29 H37 1_555 1_555
C30 C29 1_555 1_555
H38 C30 1_555 1_555
C31 C30 1_555 1_555
H39 C31 1_555 1_555
C32 C31 1_555 1_555
H40 C32 1_555 1_555
C33 C28 1_555 1_555
H41 C33 1_555 1_555
C34 C35 1_555 1_555
C35 H42 1_555 1_555
C36 C35 1_555 1_555
H43 C36 1_555 1_555
C37 C36 1_555 1_555
H44 C37 1_555 1_555
C38 C37 1_555 1_555
H45 C38 1_555 1_555
C39 C34 1_555 1_555
H46 C39 1_555 1_555
C40 C41 1_555 1_555
C41 H47 1_555 1_555
C42 C41 1_555 1_555
H48 C42 1_555 1_555
C43 C42 1_555 1_555
H49 C43 1_555 1_555
C44 C43 1_555 1_555
H50 C44 1_555 1_555
C45 C40 1_555 1_555
H51 C45 1_555 1_555
C46 H52 1_555 1_555
H53 C46 1_555 1_555
C47 C46 1_555 1_555
H54 C47 1_555 1_555
H55 C47 1_555 1_555
C48 C47 1_555 1_555
C49 C48 1_555 1_555
H56 C49 1_555 1_555
C50 C49 1_555 1_555
H57 C50 1_555 1_555
C51 C50 1_555 1_555
H58 C51 1_555 1_555
C52 C51 1_555 1_555
C53 C48 1_555 1_555
C54 C53 1_555 1_555
H59 C54 1_555 1_555
C55 C54 1_555 1_555
H60 C55 1_555 1_555
C56 C55 1_555 1_555
H61 C56 1_555 1_555
C57 C52 1_555 1_555
H62 C57 1_555 1_555
N1 C3 1_555 1_555
H63 N1 1_555 1_555
N2 C25 1_555 1_555
H64 N2 1_555 1_555
N3 C7 1_555 1_555
H65 N3 1_555 1_555
N4 C26 1_555 1_555
H66 N4 1_555 1_555
N5 C12 1_555 1_555
H67 N5 1_555 1_555
N6 C27 1_555 1_555
H68 N6 1_555 1_555
O1 C24 1_555 1_555
O2 C24 1_555 1_555
O3 C25 1_555 1_555
O4 C26 1_555 1_555
O5 C27 1_555 1_555
O6 H69 1_555 1_555
H70 O6 1_555 1_555
C5 C10 1_555 1_555
C9 C10 1_555 1_555
C13 C14 1_555 1_555
C16 C17 1_555 1_555
C28 N2 1_555 1_555
C32 C33 1_555 1_555
C34 N4 1_555 1_555
C38 C39 1_555 1_555
C40 N6 1_555 1_555
C44 C45 1_555 1_555
C46 O2 1_555 1_555
C52 C53 1_555 1_555
C56 C57 1_555 1_555

#END
