
#######################################################################
#
#                 Cambridge Crystallographic Data Centre
#                                CCDC 
#
#######################################################################
#
# If this CIF has been generated from an entry in the Cambridge 
# Structural Database, then it will include bibliographic, chemical, 
# crystal, experimental, refinement or atomic coordinate data resulting 
# from the CCDC's data processing and validation procedures.
#
#######################################################################

data_YUSGEZ
_chemical_formula_moiety         'C32 H30 N4 O4,3(C1 H2 Cl2)'
_chemical_name_systematic        
"3,3'-(2,2'-Dihydroxy-1,1'-binaphthalene-3,3'-diyl)bishexahydro-1H-pyrrolo[1,2-c]imidazol-1-one dichloromethane solvate"
_symmetry_cell_setting           hexagonal
_symmetry_space_group_name_H-M   'P 61'
_symmetry_Int_Tables_number      169
_space_group_name_Hall           'P 61'
loop_
_symmetry_equiv_pos_site_id
_symmetry_equiv_pos_as_xyz
1 x,y,z
2 x-y,x,1/6+z
3 -y,x-y,1/3+z
4 -x,-y,1/2+z
5 -x+y,-x,2/3+z
6 y,-x+y,5/6+z
_cell_length_a                   23.743(2)
_cell_length_b                   23.743(2)
_cell_length_c                   11.9410(13)
_cell_angle_alpha                90
_cell_angle_beta                 90
_cell_angle_gamma                120
_cell_volume                     5829.65
_exptl_crystal_colour            colorless
_exptl_crystal_description       block
_cell_formula_units_Z            6
loop_
_atom_site_label
_atom_site_type_symbol
_atom_site_fract_x
_atom_site_fract_y
_atom_site_fract_z
Cl1 Cl 0.4295(3) 0.6289(2) 0.9852(6)
Cl2 Cl 0.35867(18) 0.58502(19) 0.7772(5)
C33 C 0.3597(7) 0.5887(6) 0.9102(12)
H31 H 0.3369 0.5433 0.9377
H32 H 0.3324 0.6077 0.9315
Cl3 Cl 0.8461(5) 0.8560(7) 0.9608(12)
Cl4 Cl 0.7282(7) 0.8503(7) 1.0075(13)
C34 C 0.7871(12) 0.870(2) 0.951(5)
H33 H 0.8091 0.9180 0.9551
H34 H 0.7733 0.8591 0.8722
Cl5 Cl 1.1265(10) 0.9473(6) 0.6217(14)
Cl6 Cl 1.2586(7) 0.9960(9) 0.5669(15)
C35 C 1.2010(10) 0.9866(13) 0.634(4)
H35 H 1.2098 1.0316 0.6456
H36 H 1.2084 0.9726 0.7082
O1 O 0.7344(3) 0.7171(3) 0.7759(7)
O2 O 0.8943(3) 0.6547(3) 0.9196(6)
H1 H 0.9334 0.6651 0.9117
O3 O 0.9687(3) 0.6752(3) 0.6759(7)
H2 H 0.9438 0.6823 0.7158
O4 O 1.1806(3) 0.8604(3) 0.8189(7)
N1 N 0.6979(4) 0.5843(4) 0.9580(8)
N2 N 0.7844(4) 0.6733(3) 0.8775(8)
H3 H 0.8250 0.7038 0.8664
N3 N 1.1605(3) 0.7377(4) 0.6239(9)
N4 N 1.1036(3) 0.7795(3) 0.7190(7)
H4 H 1.0723 0.7884 0.7321
C1 C 0.7327(4) 0.6768(5) 0.8383(11)
C2 C 0.6745(4) 0.6219(5) 0.8902(10)
H5 H 0.6441 0.5933 0.8304
C3 C 0.6379(8) 0.6414(8) 0.9729(14)
H6 H 0.5994 0.6398 0.9374
H7 H 0.6665 0.6856 1.0032
C4 C 0.6172(13) 0.5879(13) 1.067(3)
H8 H 0.6087 0.6029 1.1393
H9 H 0.5783 0.5465 1.0451
C5 C 0.6757(5) 0.5813(6) 1.0732(10)
H10 H 0.7100 0.6170 1.1183
H11 H 0.6652 0.5394 1.1082
C6 C 0.7660(4) 0.6136(4) 0.9400(9)
H12 H 0.7888 0.6251 1.0139
C7 C 0.7868(4) 0.5725(4) 0.8738(10)
C8 C 0.7445(4) 0.5145(4) 0.8240(7)
H13 H 0.6990 0.4979 0.8318
C9 C 0.7674(4) 0.4773(4) 0.7587(9)
C10 C 0.7221(5) 0.4205(5) 0.7099(11)
H14 H 0.6770 0.4049 0.7201
C11 C 0.7426(5) 0.3863(5) 0.6462(11)
H15 H 0.7124 0.3501 0.6030
C12 C 0.8110(5) 0.4061(5) 0.6454(11)
H16 H 0.8259 0.3801 0.6103
C13 C 0.8542(5) 0.4643(5) 0.6974(12)
H17 H 0.8995 0.4799 0.6910
C14 C 0.8335(5) 0.5006(4) 0.7589(9)
C15 C 0.8792(4) 0.5604(4) 0.8084(9)
C16 C 0.8550(4) 0.5961(4) 0.8657(8)
C17 C 0.9505(3) 0.5852(4) 0.7975(9)
C18 C 0.9811(4) 0.5512(4) 0.8515(10)
C19 C 0.9455(4) 0.4994(4) 0.9200(9)
H18 H 0.9005 0.4848 0.9290
C20 C 0.9714(4) 0.4675(5) 0.9765(10)
H19 H 0.9461 0.4328 1.0267
C21 C 1.0382(5) 0.4892(6) 0.9559(14)
H20 H 1.0584 0.4684 0.9925
C22 C 1.0726(5) 0.5382(6) 0.8857(11)
H21 H 1.1165 0.5505 0.8701
C23 C 1.0444(4) 0.5733(4) 0.8328(9)
C24 C 1.0813(4) 0.6274(4) 0.7630(9)
H22 H 1.1256 0.6404 0.7498
C25 C 1.0568(4) 0.6616(4) 0.7141(9)
C26 C 0.9887(4) 0.6387(4) 0.7355(9)
C27 C 1.0943(4) 0.7224(4) 0.6518(10)
H23 H 1.0706 0.7200 0.5812
C28 C 1.1814(6) 0.7696(6) 0.5081(13)
H24 H 1.1628 0.7978 0.4916
H25 H 1.1692 0.7368 0.4480
C29 C 1.2598(11) 0.8117(10) 0.526(2)
H26 H 1.2797 0.7838 0.5212
H27 H 1.2805 0.8471 0.4698
C30 C 1.2645(5) 0.8384(6) 0.6438(12)
H28 H 1.2675 0.8814 0.6405
H29 H 1.3038 0.8434 0.6820
C31 C 1.2028(4) 0.7897(5) 0.7083(10)
H30 H 1.2154 0.7692 0.7693
C32 C 1.1632(4) 0.8150(4) 0.7563(9)
loop_
_geom_bond_atom_site_label_1
_geom_bond_atom_site_label_2
_geom_bond_site_symmetry_1
_geom_bond_site_symmetry_2
Cl1 C33 1_555 1_555
Cl2 C33 1_555 1_555
Cl3 C34 1_555 1_555
Cl4 C34 1_555 1_555
Cl5 C35 1_555 1_555
Cl6 C35 1_555 1_555
O1 C1 1_555 1_555
O2 H1 1_555 1_555
O3 H2 1_555 1_555
O4 C32 1_555 1_555
N1 C2 1_555 1_555
N2 H3 1_555 1_555
N3 C27 1_555 1_555
N4 H4 1_555 1_555
C1 N2 1_555 1_555
C2 C1 1_555 1_555
H5 C2 1_555 1_555
C3 C2 1_555 1_555
H6 C3 1_555 1_555
H7 C3 1_555 1_555
C4 C3 1_555 1_555
H8 C4 1_555 1_555
H9 C4 1_555 1_555
C5 N1 1_555 1_555
H10 C5 1_555 1_555
H11 C5 1_555 1_555
C6 N1 1_555 1_555
H12 C6 1_555 1_555
C7 C6 1_555 1_555
C8 C7 1_555 1_555
H13 C8 1_555 1_555
C9 C8 1_555 1_555
C10 C9 1_555 1_555
H14 C10 1_555 1_555
C11 C10 1_555 1_555
H15 C11 1_555 1_555
C12 C11 1_555 1_555
H16 C12 1_555 1_555
C13 C12 1_555 1_555
H17 C13 1_555 1_555
C14 C9 1_555 1_555
C15 C14 1_555 1_555
C16 O2 1_555 1_555
C17 C15 1_555 1_555
C18 C17 1_555 1_555
C19 C18 1_555 1_555
H18 C19 1_555 1_555
C20 C19 1_555 1_555
H19 C20 1_555 1_555
C21 C20 1_555 1_555
H20 C21 1_555 1_555
C22 C21 1_555 1_555
H21 C22 1_555 1_555
C23 C18 1_555 1_555
C24 C23 1_555 1_555
H22 C24 1_555 1_555
C25 C24 1_555 1_555
C26 O3 1_555 1_555
C27 N4 1_555 1_555
H23 C27 1_555 1_555
C28 N3 1_555 1_555
H24 C28 1_555 1_555
H25 C28 1_555 1_555
C29 C28 1_555 1_555
H26 C29 1_555 1_555
H27 C29 1_555 1_555
C30 C29 1_555 1_555
H28 C30 1_555 1_555
H29 C30 1_555 1_555
C31 N3 1_555 1_555
H30 C31 1_555 1_555
C32 N4 1_555 1_555
C33 H31 1_555 1_555
H32 C33 1_555 1_555
C34 H33 1_555 1_555
H34 C34 1_555 1_555
C35 H35 1_555 1_555
H36 C35 1_555 1_555
N2 C6 1_555 1_555
C4 C5 1_555 1_555
C7 C16 1_555 1_555
C13 C14 1_555 1_555
C15 C16 1_555 1_555
C17 C26 1_555 1_555
C22 C23 1_555 1_555
C25 C26 1_555 1_555
C25 C27 1_555 1_555
C30 C31 1_555 1_555
C31 C32 1_555 1_555

#END
