
#######################################################################
#
#                 Cambridge Crystallographic Data Centre
#                                CCDC 
#
#######################################################################
#
# If this CIF has been generated from an entry in the Cambridge 
# Structural Database, then it will include bibliographic, chemical, 
# crystal, experimental, refinement or atomic coordinate data resulting 
# from the CCDC's data processing and validation procedures.
#
#######################################################################

data_YUSQUZ
_chemical_formula_moiety         'C28 H48 Li2 N6 S2'
_chemical_name_systematic        
bis(\m~2~-N,N'-Di-t-butyl-S-(2-pyridylmethyl)di-imidosulfinato)-di-lithium
_symmetry_cell_setting           monoclinic
_symmetry_space_group_name_H-M   'C 2/c'
_symmetry_Int_Tables_number      15
_space_group_name_Hall           '-C 2yn'
loop_
_symmetry_equiv_pos_site_id
_symmetry_equiv_pos_as_xyz
1 x,y,z
2 -x,y,1/2-z
3 1/2+x,1/2+y,z
4 1/2-x,1/2+y,1/2-z
5 -x,-y,-z
6 x,-y,1/2+z
7 1/2-x,1/2-y,-z
8 1/2+x,1/2-y,1/2+z
_cell_length_a                   9.883(3)
_cell_length_b                   18.001(5)
_cell_length_c                   17.611(5)
_cell_angle_alpha                90
_cell_angle_beta                 91.175(4)
_cell_angle_gamma                90
_cell_volume                     3132.41
_exptl_crystal_colour            colorless
_exptl_crystal_description       block
_cell_formula_units_Z            4
loop_
_atom_site_label
_atom_site_type_symbol
_atom_site_fract_x
_atom_site_fract_y
_atom_site_fract_z
C1 C -0.0883(2) 0.22674(12) 0.05329(12)
C2 C -0.1956(2) 0.20862(12) 0.09956(13)
H1 H -0.2172 0.2395 0.1414
C3 C -0.2704(2) 0.14553(13) 0.08431(13)
H2 H -0.3429 0.1317 0.1160
C4 C -0.2381(2) 0.10303(12) 0.02233(13)
H3 H -0.2895 0.0601 0.0095
C5 C -0.1293(2) 0.12411(12) -0.02098(13)
H4 H -0.1068 0.0942 -0.0633
C6 C -0.0013(2) 0.29271(11) 0.06842(13)
H5 H -0.0560 0.3317 0.0929
H6 H 0.0301 0.3127 0.0194
C7 C 0.2502(2) 0.13960(10) 0.12701(12)
C8 C 0.2574(2) 0.09708(11) -0.17399(12)
C9 C 0.3503(3) 0.15712(14) 0.19164(14)
H7 H 0.4309 0.1808 0.1710
H8 H 0.3765 0.1110 0.2176
H9 H 0.3079 0.1908 0.2278
C10 C 0.3156(3) 0.08398(12) 0.07394(14)
H10 H 0.2565 0.0762 0.0293
H11 H 0.3292 0.0367 0.1006
H12 H 0.4031 0.1033 0.0578
C11 C 0.1234(3) 0.10373(15) 0.15897(18)
H13 H 0.0804 0.1383 0.1940
H14 H 0.1485 0.0581 0.1862
H15 H 0.0600 0.0918 0.1172
C12 C 0.3819(2) 0.04788(12) -0.16148(14)
H16 H 0.3874 0.0322 -0.1082
H17 H 0.3747 0.0040 -0.1943
H18 H 0.4635 0.0759 -0.1740
C13 C 0.1299(2) 0.05158(12) -0.15955(13)
H19 H 0.0497 0.0824 -0.1693
H20 H 0.1275 0.0084 -0.1934
H21 H 0.1307 0.0347 -0.1066
C14 C 0.2527(3) 0.12442(12) -0.25641(12)
H22 H 0.3349 0.1528 -0.2667
H23 H 0.2469 0.0817 -0.2908
H24 H 0.1733 0.1563 -0.2645
Li1 Li 0.1520(4) 0.2008(2) -0.0325(2)
N1 N -0.05408(18) 0.18442(10) -0.00638(10)
N2 N 0.21693(18) 0.20661(9) 0.08008(10)
N3 N 0.25233(18) 0.15826(9) -0.11833(10)
S1 S 0.14865(5) 0.27187(3) 0.13030(3)
C1F C 0.5883(2) 0.27326(12) -0.05329(12)
C2F C 0.6956(2) 0.29138(12) -0.09956(13)
H1F H 0.7172 0.2605 -0.1414
C3F C 0.7704(2) 0.35447(13) -0.08431(13)
H2F H 0.8429 0.3683 -0.1160
C4F C 0.7381(2) 0.39697(12) -0.02233(13)
H3F H 0.7895 0.4399 -0.0095
C5F C 0.6293(2) 0.37589(12) 0.02098(13)
H4F H 0.6068 0.4058 0.0633
C6F C 0.5013(2) 0.20729(11) -0.06842(13)
H5F H 0.5560 0.1683 -0.0929
H6F H 0.4699 0.1873 -0.0194
C7F C 0.2498(2) 0.36040(10) -0.12701(12)
C8F C 0.2426(2) 0.40292(11) 0.17399(12)
C9F C 0.1497(3) 0.34288(14) -0.19164(14)
H7F H 0.0691 0.3192 -0.1710
H8F H 0.1235 0.3890 -0.2176
H9F H 0.1921 0.3092 -0.2278
C10F C 0.1844(3) 0.41602(12) -0.07394(14)
H10F H 0.2435 0.4238 -0.0293
H11F H 0.1708 0.4633 -0.1006
H12F H 0.0969 0.3967 -0.0578
C11F C 0.3766(3) 0.39627(15) -0.15897(18)
H13F H 0.4196 0.3617 -0.1940
H14F H 0.3515 0.4419 -0.1862
H15F H 0.4400 0.4082 -0.1172
C12F C 0.1181(2) 0.45212(12) 0.16148(14)
H16F H 0.1126 0.4678 0.1082
H17F H 0.1253 0.4960 0.1943
H18F H 0.0365 0.4241 0.1740
C13F C 0.3701(2) 0.44842(12) 0.15955(13)
H19F H 0.4503 0.4176 0.1693
H20F H 0.3725 0.4916 0.1934
H21F H 0.3693 0.4653 0.1066
C14F C 0.2473(3) 0.37558(12) 0.25641(12)
H22F H 0.1651 0.3472 0.2667
H23F H 0.2531 0.4183 0.2908
H24F H 0.3267 0.3437 0.2645
Li1F Li 0.3480(4) 0.2992(2) 0.0325(2)
N1F N 0.55408(18) 0.31558(10) 0.00638(10)
N2F N 0.28307(18) 0.29339(9) -0.08008(10)
N3F N 0.24767(18) 0.34174(9) 0.11833(10)
S1F S 0.35135(5) 0.22813(3) -0.13030(3)
loop_
_geom_bond_atom_site_label_1
_geom_bond_atom_site_label_2
_geom_bond_site_symmetry_1
_geom_bond_site_symmetry_2
C1 C2 1_555 1_555
C2 H1 1_555 1_555
C3 C2 1_555 1_555
H2 C3 1_555 1_555
C4 C3 1_555 1_555
H3 C4 1_555 1_555
C5 C4 1_555 1_555
H4 C5 1_555 1_555
C6 C1 1_555 1_555
H5 C6 1_555 1_555
H6 C6 1_555 1_555
C7 C9 1_555 1_555
C8 C12 1_555 1_555
C9 H7 1_555 1_555
H8 C9 1_555 1_555
H9 C9 1_555 1_555
C10 C7 1_555 1_555
H10 C10 1_555 1_555
H11 C10 1_555 1_555
H12 C10 1_555 1_555
C11 C7 1_555 1_555
H13 C11 1_555 1_555
H14 C11 1_555 1_555
H15 C11 1_555 1_555
C12 H16 1_555 1_555
H17 C12 1_555 1_555
H18 C12 1_555 1_555
C13 C8 1_555 1_555
H19 C13 1_555 1_555
H20 C13 1_555 1_555
H21 C13 1_555 1_555
C14 C8 1_555 1_555
H22 C14 1_555 1_555
H23 C14 1_555 1_555
H24 C14 1_555 1_555
Li1 N1 1_555 1_555
N1 C1 1_555 1_555
N2 C7 1_555 1_555
N3 C8 1_555 1_555
S1 C6 1_555 1_555
C1F C2F 1_555 1_555
C2F H1F 1_555 1_555
C3F C2F 1_555 1_555
H2F C3F 1_555 1_555
C4F C3F 1_555 1_555
H3F C4F 1_555 1_555
C5F C4F 1_555 1_555
H4F C5F 1_555 1_555
C6F C1F 1_555 1_555
H5F C6F 1_555 1_555
H6F C6F 1_555 1_555
C7F C9F 1_555 1_555
C8F C12F 1_555 1_555
C9F H7F 1_555 1_555
H8F C9F 1_555 1_555
H9F C9F 1_555 1_555
C10F C7F 1_555 1_555
H10F C10F 1_555 1_555
H11F C10F 1_555 1_555
H12F C10F 1_555 1_555
C11F C7F 1_555 1_555
H13F C11F 1_555 1_555
H14F C11F 1_555 1_555
H15F C11F 1_555 1_555
C12F H16F 1_555 1_555
H17F C12F 1_555 1_555
H18F C12F 1_555 1_555
C13F C8F 1_555 1_555
H19F C13F 1_555 1_555
H20F C13F 1_555 1_555
H21F C13F 1_555 1_555
C14F C8F 1_555 1_555
H22F C14F 1_555 1_555
H23F C14F 1_555 1_555
H24F C14F 1_555 1_555
Li1F N2 1_555 1_555
N1F C1F 1_555 1_555
N2F Li1 1_555 1_555
N3F S1 1_555 1_555
S1F N3 1_555 1_555
C5 N1 1_555 1_555
Li1 N2 1_555 1_555
Li1 N3 1_555 1_555
N2 S1 1_555 1_555
C5F N1F 1_555 1_555
C6F S1F 1_555 1_555
C7F N2F 1_555 1_555
C8F N3F 1_555 1_555
Li1F N1F 1_555 1_555
Li1F N2F 1_555 1_555
Li1F N3F 1_555 1_555
N2F S1F 1_555 1_555

#END
