
#######################################################################
#
#                 Cambridge Crystallographic Data Centre
#                                CCDC 
#
#######################################################################
#
# If this CIF has been generated from an entry in the Cambridge 
# Structural Database, then it will include bibliographic, chemical, 
# crystal, experimental, refinement or atomic coordinate data resulting 
# from the CCDC's data processing and validation procedures.
#
#######################################################################

data_YUSRAG
_chemical_formula_moiety         'C34 H58 Li2 N4 O1 S2,4(C4 H8 O1)'
_chemical_name_systematic        
"bis(\m~2~-N,N'-Di-t-butyl-S-benzyldi-imidosulfinato)-tetrahydrofuran-di-lithium tetrahydrofuran solvate"
_symmetry_cell_setting           monoclinic
_symmetry_space_group_name_H-M   'C 2/c'
_symmetry_Int_Tables_number      15
_space_group_name_Hall           '-C 2yn'
loop_
_symmetry_equiv_pos_site_id
_symmetry_equiv_pos_as_xyz
1 x,y,z
2 -x,y,1/2-z
3 1/2+x,1/2+y,z
4 1/2-x,1/2+y,1/2-z
5 -x,-y,-z
6 x,-y,1/2+z
7 1/2-x,1/2-y,-z
8 1/2+x,1/2-y,1/2+z
_cell_length_a                   16.3216(10)
_cell_length_b                   12.2763(8)
_cell_length_c                   26.9940(17)
_cell_angle_alpha                90
_cell_angle_beta                 94.0910(10)
_cell_angle_gamma                90
_cell_volume                     5394.98
_exptl_crystal_colour            colorless
_exptl_crystal_description       block
_cell_formula_units_Z            4
loop_
_atom_site_label
_atom_site_type_symbol
_atom_site_fract_x
_atom_site_fract_y
_atom_site_fract_z
S1 S 0.10528(3) 0.33784(4) 0.326020(17)
Li1 Li 0.0000 0.3911(4) 0.2500
Li2 Li 0.0000 0.1876(4) 0.2500
N1 N 0.02857(9) 0.42092(12) 0.32394(6)
N2 N 0.09713(9) 0.27770(12) 0.27188(5)
O1 O 0.0000 0.03526(15) 0.2500
C3 C 0.04564(12) 0.53029(15) 0.34627(7)
C4 C -0.03346(13) 0.59496(17) 0.33480(8)
H5 H -0.0449 0.6001 0.2987
H6 H -0.0270 0.6683 0.3489
H7 H -0.0791 0.5579 0.3494
C5 C 0.06441(13) 0.52711(16) 0.40245(7)
H8 H 0.0192 0.4912 0.4180
H9 H 0.0708 0.6016 0.4152
H10 H 0.1154 0.4864 0.4102
C6 C 0.11664(13) 0.58843(16) 0.32302(8)
H11 H 0.1678 0.5482 0.3309
H12 H 0.1221 0.6625 0.3364
H13 H 0.1054 0.5917 0.2869
C7 C 0.17606(11) 0.27050(16) 0.24737(7)
C8 C 0.15449(13) 0.21545(18) 0.19741(7)
H14 H 0.1305 0.1437 0.2029
H15 H 0.2043 0.2069 0.1796
H16 H 0.1148 0.2604 0.1776
C9 C 0.21205(12) 0.38329(17) 0.23758(8)
H17 H 0.1712 0.4271 0.2181
H18 H 0.2612 0.3752 0.2191
H19 H 0.2267 0.4197 0.2693
C10 C 0.24021(12) 0.20191(18) 0.27756(8)
H20 H 0.2529 0.2360 0.3100
H21 H 0.2903 0.1973 0.2597
H22 H 0.2184 0.1285 0.2822
C11 C 0.07563(12) 0.22323(15) 0.36478(7)
H23 H 0.0207 0.1968 0.3522
H24 H 0.1152 0.1629 0.3617
C12 C 0.07324(12) 0.25251(15) 0.41846(7)
C13 C -0.00062(13) 0.26441(16) 0.44041(7)
H25 H -0.0509 0.2502 0.4216
C14 C -0.00175(14) 0.29675(17) 0.48944(8)
H26 H -0.0527 0.3043 0.5041
C15 C 0.07093(14) 0.31812(18) 0.51729(8)
H27 H 0.0700 0.3408 0.5509
C16 C 0.14489(13) 0.30624(18) 0.49587(8)
H28 H 0.1950 0.3209 0.5148
C17 C 0.14620(13) 0.27310(17) 0.44701(7)
H29 H 0.1973 0.2643 0.4327
C18 C 0.05537(15) -0.03270(18) 0.28024(10)
H30 H 0.0426 -0.0288 0.3155
H31 H 0.1129 -0.0091 0.2776
C19 C 0.04346(16) -0.1447(2) 0.26111(13)
H32 H 0.0509 -0.1988 0.2883
H33 H 0.0824 -0.1613 0.2357
S1A S -0.10528(3) 0.33784(4) 0.173980(17)
N1A N -0.02857(9) 0.42092(12) 0.17606(6)
N2A N -0.09713(9) 0.27770(12) 0.22812(5)
C3A C -0.04564(12) 0.53029(15) 0.15373(7)
C4A C 0.03346(13) 0.59496(17) 0.16520(8)
H5A H 0.0449 0.6001 0.2013
H6A H 0.0270 0.6683 0.1511
H7A H 0.0791 0.5579 0.1506
C5A C -0.06441(13) 0.52711(16) 0.09755(7)
H8A H -0.0192 0.4912 0.0820
H9A H -0.0708 0.6016 0.0848
H10A H -0.1154 0.4864 0.0898
C6A C -0.11664(13) 0.58843(16) 0.17698(8)
H11A H -0.1678 0.5482 0.1691
H12A H -0.1221 0.6625 0.1636
H13A H -0.1054 0.5917 0.2131
C7A C -0.17606(11) 0.27050(16) 0.25263(7)
C8A C -0.15449(13) 0.21545(18) 0.30259(7)
H14A H -0.1305 0.1437 0.2971
H15A H -0.2043 0.2069 0.3204
H16A H -0.1148 0.2604 0.3224
C9A C -0.21205(12) 0.38329(17) 0.26242(8)
H17A H -0.1712 0.4271 0.2819
H18A H -0.2612 0.3752 0.2809
H19A H -0.2267 0.4197 0.2307
C10A C -0.24021(12) 0.20191(18) 0.22244(8)
H20A H -0.2529 0.2360 0.1900
H21A H -0.2903 0.1973 0.2403
H22A H -0.2184 0.1285 0.2178
C11A C -0.07563(12) 0.22323(15) 0.13522(7)
H23A H -0.0207 0.1968 0.1478
H24A H -0.1152 0.1629 0.1383
C12A C -0.07324(12) 0.25251(15) 0.08154(7)
C13A C 0.00062(13) 0.26441(16) 0.05959(7)
H25A H 0.0509 0.2502 0.0784
C14A C 0.00175(14) 0.29675(17) 0.01056(8)
H26A H 0.0527 0.3043 -0.0041
C15A C -0.07093(14) 0.31812(18) -0.01729(8)
H27A H -0.0700 0.3408 -0.0509
C16A C -0.14489(13) 0.30624(18) 0.00413(8)
H28A H -0.1950 0.3209 -0.0148
C17A C -0.14620(13) 0.27310(17) 0.05299(7)
H29A H -0.1973 0.2643 0.0673
C18A C -0.05537(15) -0.03270(18) 0.21976(10)
H30A H -0.0426 -0.0288 0.1845
H31A H -0.1129 -0.0091 0.2224
C19A C -0.04346(16) -0.1447(2) 0.23889(13)
H32A H -0.0509 -0.1988 0.2117
H33A H -0.0824 -0.1613 0.2643
O2 O 0.30009(11) 0.81174(15) 0.44297(7)
C20 C 0.21555(16) 0.7901(3) 0.43463(10)
H34 H 0.1880 0.7967 0.4660
H35 H 0.2068 0.7154 0.4215
C21 C 0.18173(16) 0.8719(2) 0.39776(10)
H36 H 0.1230 0.8869 0.4020
H37 H 0.1878 0.8471 0.3633
C22 C 0.23494(19) 0.9718(2) 0.41049(12)
H38 H 0.2470 1.0123 0.3802
H39 H 0.2079 1.0213 0.4332
C23 C 0.3112(2) 0.9231(2) 0.43525(17)
H40 H 0.3578 0.9344 0.4142
H41 H 0.3246 0.9597 0.4675
O3 O 0.9384(5) 0.9559(17) 0.38021(17)
C1 C 0.96554(16) 0.9641(2) 0.43098(10)
H1 H 1.0082 1.0211 0.4361
H2 H 0.9885 0.8939 0.4435
C2 C 0.8564 0.9165 0.3790
H3 H 0.8536 0.8401 0.3905
H4 H 0.8274 0.9235 0.3457
C24 C 0.89097(18) 0.9935(2) 0.45667(11)
H42 H 0.8968 1.0661 0.4725
H43 H 0.8793 0.9387 0.4821
C25 C 0.82551(19) 0.9939(3) 0.41492(15)
H44 H 0.7722 0.9694 0.4264
H45 H 0.8187 1.0675 0.4002
C26? C 0.96554(16) 0.9641(2) 0.43098(10)
C27? C 0.8564 0.9165 0.3790
H46? H 0.9936 1.0311 0.4208
H47? H 1.0041 0.9228 0.4539
H48? H 0.8274 0.8460 0.3813
H49? H 0.8453 0.9450 0.3449
O4? O 0.9428(3) 0.9001(8) 0.3888(3)
loop_
_geom_bond_atom_site_label_1
_geom_bond_atom_site_label_2
_geom_bond_site_symmetry_1
_geom_bond_site_symmetry_2
S1 N1 1_555 1_555
Li1 N1 1_555 1_555
Li2 N2 1_555 1_555
N1 C3 1_555 1_555
N2 S1 1_555 1_555
O1 Li2 1_555 1_555
O2 C20 1_555 1_555
O3 C1 1_555 1_555
C1 H1 1_555 1_555
H2 C1 1_555 1_555
C2 O3 1_555 1_555
H3 C2 1_555 1_555
H4 C2 1_555 1_555
C3 C4 1_555 1_555
C4 H5 1_555 1_555
H6 C4 1_555 1_555
H7 C4 1_555 1_555
C5 C3 1_555 1_555
H8 C5 1_555 1_555
H9 C5 1_555 1_555
H10 C5 1_555 1_555
C6 C3 1_555 1_555
H11 C6 1_555 1_555
H12 C6 1_555 1_555
H13 C6 1_555 1_555
C7 N2 1_555 1_555
C8 C7 1_555 1_555
H14 C8 1_555 1_555
H15 C8 1_555 1_555
H16 C8 1_555 1_555
C9 C7 1_555 1_555
H17 C9 1_555 1_555
H18 C9 1_555 1_555
H19 C9 1_555 1_555
C10 C7 1_555 1_555
H20 C10 1_555 1_555
H21 C10 1_555 1_555
H22 C10 1_555 1_555
C11 S1 1_555 1_555
H23 C11 1_555 1_555
H24 C11 1_555 1_555
C12 C11 1_555 1_555
C13 C12 1_555 1_555
H25 C13 1_555 1_555
C14 C13 1_555 1_555
H26 C14 1_555 1_555
C15 C14 1_555 1_555
H27 C15 1_555 1_555
C16 C15 1_555 1_555
H28 C16 1_555 1_555
C17 C12 1_555 1_555
H29 C17 1_555 1_555
C18 O1 1_555 1_555
H30 C18 1_555 1_555
H31 C18 1_555 1_555
C19 C18 1_555 1_555
H32 C19 1_555 1_555
H33 C19 1_555 1_555
C20 H34 1_555 1_555
H35 C20 1_555 1_555
C21 C20 1_555 1_555
H36 C21 1_555 1_555
H37 C21 1_555 1_555
C22 C21 1_555 1_555
H38 C22 1_555 1_555
H39 C22 1_555 1_555
C23 O2 1_555 1_555
H40 C23 1_555 1_555
H41 C23 1_555 1_555
C24 C1 1_555 1_555
H42 C24 1_555 1_555
H43 C24 1_555 1_555
C25 C2 1_555 1_555
H44 C25 1_555 1_555
H45 C25 1_555 1_555
S1A N1A 1_555 1_555
N1A Li1 1_555 1_555
N2A Li1 1_555 1_555
C3A N1A 1_555 1_555
C4A C3A 1_555 1_555
H5A C4A 1_555 1_555
H6A C4A 1_555 1_555
H7A C4A 1_555 1_555
C5A C3A 1_555 1_555
H8A C5A 1_555 1_555
H9A C5A 1_555 1_555
H10A C5A 1_555 1_555
C6A C3A 1_555 1_555
H11A C6A 1_555 1_555
H12A C6A 1_555 1_555
H13A C6A 1_555 1_555
C7A N2A 1_555 1_555
C8A C7A 1_555 1_555
H14A C8A 1_555 1_555
H15A C8A 1_555 1_555
H16A C8A 1_555 1_555
C9A C7A 1_555 1_555
H17A C9A 1_555 1_555
H18A C9A 1_555 1_555
H19A C9A 1_555 1_555
C10A C7A 1_555 1_555
H20A C10A 1_555 1_555
H21A C10A 1_555 1_555
H22A C10A 1_555 1_555
C11A S1A 1_555 1_555
H23A C11A 1_555 1_555
H24A C11A 1_555 1_555
C12A C11A 1_555 1_555
C13A C12A 1_555 1_555
H25A C13A 1_555 1_555
C14A C13A 1_555 1_555
H26A C14A 1_555 1_555
C15A C14A 1_555 1_555
H27A C15A 1_555 1_555
C16A C15A 1_555 1_555
H28A C16A 1_555 1_555
C17A C12A 1_555 1_555
H29A C17A 1_555 1_555
C18A O1 1_555 1_555
H30A C18A 1_555 1_555
H31A C18A 1_555 1_555
C19A C19 1_555 1_555
H32A C19A 1_555 1_555
H33A C19A 1_555 1_555
Li1 N2 1_555 1_555
Li2 N2A 1_555 1_555
C16 C17 1_555 1_555
C22 C23 1_555 1_555
C24 C25 1_555 1_555
S1A N2A 1_555 1_555
C16A C17A 1_555 1_555
C18A C19A 1_555 1_555

#END
