
#######################################################################
#
#                 Cambridge Crystallographic Data Centre
#                                CCDC 
#
#######################################################################
#
# If this CIF has been generated from an entry in the Cambridge 
# Structural Database, then it will include bibliographic, chemical, 
# crystal, experimental, refinement or atomic coordinate data resulting 
# from the CCDC's data processing and validation procedures.
#
#######################################################################

data_YUSXIU
_chemical_formula_moiety         'C40 H41 N3'
_chemical_name_systematic        
2,2,4,4,6,6,8,8-octamethyl-1,3,5(2,5)-tripyrrola-7(1,3)-pyrenacyclooctaphane
_symmetry_cell_setting           monoclinic
_symmetry_space_group_name_H-M   'P 21/n'
_symmetry_Int_Tables_number      14
_space_group_name_Hall           '-P 2yn'
loop_
_symmetry_equiv_pos_site_id
_symmetry_equiv_pos_as_xyz
1 x,y,z
2 1/2-x,1/2+y,1/2-z
3 -x,-y,-z
4 1/2+x,1/2-y,1/2+z
_cell_length_a                   10.0878(11)
_cell_length_b                   32.621(4)
_cell_length_c                   10.2902(11)
_cell_angle_alpha                90
_cell_angle_beta                 109.273(2)
_cell_angle_gamma                90
_cell_volume                     3196.46
_exptl_crystal_colour            colorless
_exptl_crystal_description       block
_cell_formula_units_Z            4
loop_
_atom_site_label
_atom_site_type_symbol
_atom_site_fract_x
_atom_site_fract_y
_atom_site_fract_z
C1 C 0.94789(15) 0.13244(6) 0.21150(15)
C2 C 1.06660(15) 0.11945(6) 0.15645(15)
H1 H 1.1553 0.1283 0.2195
H2 H 1.0516 0.1318 0.0681
H3 H 1.0666 0.0902 0.1475
C3 C 0.95543(16) 0.17940(6) 0.22523(16)
H4 H 0.8869 0.1887 0.2648
H5 H 0.9366 0.1915 0.1359
H6 H 1.0475 0.1873 0.2836
C4 C 0.97077(16) 0.11568(5) 0.35394(16)
C5 C 1.08554(17) 0.10310(6) 0.45843(17)
H7 H 1.1749 0.0990 0.4534
C6 C 1.04495(18) 0.09741(6) 0.57656(17)
H8 H 1.1036 0.0891 0.6629
C7 C 0.90640(17) 0.10611(5) 0.54254(16)
C8 C 0.80597(17) 0.10477(6) 0.62385(16)
C9 C 0.87560(17) 0.12489(6) 0.76581(15)
H9 H 0.8999 0.1527 0.7535
H10 H 0.9589 0.1099 0.8155
H11 H 0.8113 0.1245 0.8168
C10 C 0.77261(18) 0.05991(6) 0.64579(18)
H12 H 0.7070 0.0589 0.6953
H13 H 0.8575 0.0460 0.6977
H14 H 0.7325 0.0467 0.5581
C11 C 0.67221(18) 0.12699(6) 0.54765(15)
C12 C 0.53672(18) 0.11443(6) 0.49813(16)
H15 H 0.5045 0.0881 0.5050
C13 C 0.45273(17) 0.14825(6) 0.43427(16)
H16 H 0.3558 0.1478 0.3922
C14 C 0.53711(17) 0.18148(6) 0.44452(15)
C15 C 0.50481(16) 0.22423(5) 0.38885(15)
C16 C 0.60515(16) 0.25534(5) 0.48439(15)
H17 H 0.6993 0.2502 0.4857
H18 H 0.6010 0.2526 0.5759
H19 H 0.5778 0.2826 0.4513
C17 C 0.35316(16) 0.23543(5) 0.37998(16)
H20 H 0.3320 0.2628 0.3446
H21 H 0.3446 0.2339 0.4701
H22 H 0.2886 0.2165 0.3197
C18 C 0.51649(16) 0.22684(6) 0.24622(16)
C19 C 0.54557(16) 0.25822(6) 0.17312(17)
H23 H 0.5713 0.2846 0.2055
C20 C 0.52998(16) 0.24378(6) 0.03909(17)
H24 H 0.5442 0.2591 -0.0314
C21 C 0.49078(15) 0.20377(5) 0.03094(16)
C22 C 0.45889(16) 0.17203(5) -0.08245(15)
C23 C 0.30770(15) 0.15684(5) -0.10252(16)
H25 H 0.3099 0.1377 -0.0311
H26 H 0.2701 0.1437 -0.1906
H27 H 0.2496 0.1798 -0.0983
C24 C 0.46413(19) 0.19294(5) -0.21489(15)
H28 H 0.3951 0.2144 -0.2407
H29 H 0.4448 0.1731 -0.2876
H30 H 0.5558 0.2044 -0.1989
C25 C 0.56881(15) 0.13726(5) -0.04168(14)
C26 C 0.69831(16) 0.14628(5) 0.05548(14)
H31 H 0.7152 0.1733 0.0848
C27 C 0.80472(15) 0.11788(5) 0.11223(14)
C28 C 0.77554(16) 0.07644(5) 0.07519(15)
C29 C 0.86624(17) 0.04331(6) 0.14216(17)
H32 H 0.9459 0.0490 0.2170
C30 C 0.83912(19) 0.00450(6) 0.09977(19)
H33 H 0.9008 -0.0160 0.1461
C31 C 0.72000(19) -0.00650(6) -0.01302(18)
C32 C 0.6929(2) -0.04653(6) -0.0585(2)
H34 H 0.7553 -0.0671 -0.0143
C33 C 0.5758(2) -0.05654(6) -0.1675(2)
H35 H 0.5599 -0.0836 -0.1969
C34 C 0.4819(2) -0.02636(7) -0.23350(19)
H36 H 0.4029 -0.0332 -0.3075
C35 C 0.50381(18) 0.01413(6) -0.19077(17)
C36 C 0.62468(17) 0.02495(6) -0.07873(16)
C37 C 0.64984(15) 0.06628(5) -0.03335(15)
C38 C 0.54912(15) 0.09739(5) -0.09694(15)
C39 C 0.43297(16) 0.08519(6) -0.21559(15)
H37 H 0.3701 0.1052 -0.2637
C40 C 0.41163(17) 0.04629(6) -0.25964(16)
H38 H 0.3349 0.0401 -0.3369
N1 N 0.86305(15) 0.11711(5) 0.40637(14)
H39 H 0.7779(16) 0.1247(5) 0.3649(16)
N2 N 0.67122(16) 0.16786(5) 0.51384(14)
H40 H 0.7424(16) 0.1834(5) 0.5342(16)
N3 N 0.48173(14) 0.19392(5) 0.15783(14)
H41 H 0.4657(15) 0.1692(5) 0.1850(15)
loop_
_geom_bond_atom_site_label_1
_geom_bond_atom_site_label_2
_geom_bond_site_symmetry_1
_geom_bond_site_symmetry_2
C1 C2 1_555 1_555
C2 H1 1_555 1_555
H2 C2 1_555 1_555
H3 C2 1_555 1_555
C3 C1 1_555 1_555
H4 C3 1_555 1_555
H5 C3 1_555 1_555
H6 C3 1_555 1_555
C4 C1 1_555 1_555
C5 C4 1_555 1_555
H7 C5 1_555 1_555
C6 C5 1_555 1_555
H8 C6 1_555 1_555
C7 C6 1_555 1_555
C8 C7 1_555 1_555
C9 C8 1_555 1_555
H9 C9 1_555 1_555
H10 C9 1_555 1_555
H11 C9 1_555 1_555
C10 C8 1_555 1_555
H12 C10 1_555 1_555
H13 C10 1_555 1_555
H14 C10 1_555 1_555
C11 C8 1_555 1_555
C12 C11 1_555 1_555
H15 C12 1_555 1_555
C13 C12 1_555 1_555
H16 C13 1_555 1_555
C14 C13 1_555 1_555
C15 C14 1_555 1_555
C16 C15 1_555 1_555
H17 C16 1_555 1_555
H18 C16 1_555 1_555
H19 C16 1_555 1_555
C17 C15 1_555 1_555
H20 C17 1_555 1_555
H21 C17 1_555 1_555
H22 C17 1_555 1_555
C18 C15 1_555 1_555
C19 C18 1_555 1_555
H23 C19 1_555 1_555
C20 C19 1_555 1_555
H24 C20 1_555 1_555
C21 C20 1_555 1_555
C22 C21 1_555 1_555
C23 C22 1_555 1_555
H25 C23 1_555 1_555
H26 C23 1_555 1_555
H27 C23 1_555 1_555
C24 C22 1_555 1_555
H28 C24 1_555 1_555
H29 C24 1_555 1_555
H30 C24 1_555 1_555
C25 C22 1_555 1_555
C26 C25 1_555 1_555
H31 C26 1_555 1_555
C27 C1 1_555 1_555
C28 C27 1_555 1_555
C29 C28 1_555 1_555
H32 C29 1_555 1_555
C30 C29 1_555 1_555
H33 C30 1_555 1_555
C31 C30 1_555 1_555
C32 C31 1_555 1_555
H34 C32 1_555 1_555
C33 C32 1_555 1_555
H35 C33 1_555 1_555
C34 C33 1_555 1_555
H36 C34 1_555 1_555
C35 C34 1_555 1_555
C36 C31 1_555 1_555
C37 C28 1_555 1_555
C38 C25 1_555 1_555
C39 C38 1_555 1_555
H37 C39 1_555 1_555
C40 C35 1_555 1_555
H38 C40 1_555 1_555
N1 C4 1_555 1_555
H39 N1 1_555 1_555
N2 C11 1_555 1_555
H40 N2 1_555 1_555
N3 C18 1_555 1_555
H41 N3 1_555 1_555
C7 N1 1_555 1_555
C14 N2 1_555 1_555
C21 N3 1_555 1_555
C26 C27 1_555 1_555
C35 C36 1_555 1_555
C36 C37 1_555 1_555
C37 C38 1_555 1_555
C39 C40 1_555 1_555

#END
