
#######################################################################
#
#                 Cambridge Crystallographic Data Centre
#                                CCDC 
#
#######################################################################
#
# If this CIF has been generated from an entry in the Cambridge 
# Structural Database, then it will include bibliographic, chemical, 
# crystal, experimental, refinement or atomic coordinate data resulting 
# from the CCDC's data processing and validation procedures.
#
#######################################################################

data_YUSYIV
_chemical_formula_moiety         'C22 H25 N1 O4'
_chemical_name_systematic        
5-Benzyl-1-(2-hydroxy-1-(4-methoxyphenyl)ethyl)-4-methoxy-3-methyl-1,5-dihydro-2H-pyrrol-2-one
_symmetry_cell_setting           monoclinic
_symmetry_space_group_name_H-M   'P 21'
_symmetry_Int_Tables_number      4
_space_group_name_Hall           'P 2yb'
loop_
_symmetry_equiv_pos_site_id
_symmetry_equiv_pos_as_xyz
1 x,y,z
2 -x,1/2+y,-z
_cell_length_a                   11.079(3)
_cell_length_b                   6.5096(15)
_cell_length_c                   13.174(3)
_cell_angle_alpha                90
_cell_angle_beta                 99.774(4)
_cell_angle_gamma                90
_cell_volume                     936.316
_exptl_crystal_colour            colorless
_exptl_crystal_description       plate
_cell_formula_units_Z            2
loop_
_atom_site_label
_atom_site_type_symbol
_atom_site_fract_x
_atom_site_fract_y
_atom_site_fract_z
C1 C -0.6824(5) 0.3864(10) 0.2751(4)
O1 O -0.3019(4) 0.4322(7) 0.0929(3)
N1 N -0.4825(5) 0.2329(8) 0.2637(3)
O2 O -0.5140(6) -0.0368(10) 0.4287(4)
H1 H -0.5404 -0.1364 0.4561
C2 C -0.7209(5) 0.5621(12) 0.3115(5)
H2 H -0.6775 0.6176 0.3718
O3 O -0.5200(5) -0.0987(8) 0.2197(4)
C3 C -0.4741(5) 0.0650(9) 0.2078(4)
C4 C -0.3686(5) 0.3066(9) 0.1419(4)
C5 C -0.3173(6) 0.4923(10) 0.3097(5)
H3 H -0.2816 0.6097 0.2804
H4 H -0.3542 0.5411 0.3668
C6 C -0.5697(6) 0.2754(10) 0.3306(5)
H5 H -0.5296 0.3674 0.3849
C7 C -0.7494(6) 0.3048(11) 0.1869(5)
H6 H -0.7248 0.1819 0.1607
C8 C -0.8519(6) 0.4030(12) 0.1374(5)
H7 H -0.8964 0.3460 0.0778
C9 C -0.2358(7) 0.2001(16) 0.4187(5)
H8 H -0.3101 0.1931 0.4425
O4 O -0.9899(4) 0.6646(9) 0.1190(4)
C10 C -0.4189(5) 0.3981(9) 0.2265(4)
H9 H -0.4775 0.5057 0.1994
C11 C -0.8234(6) 0.6625(10) 0.2615(6)
H10 H -0.8477 0.7858 0.2875
C12 C -0.8893(6) 0.5806(12) 0.1738(5)
C13 C -0.3813(7) -0.0540(13) 0.0556(6)
H11 H -0.3321 -0.0024 0.0079
H12 H -0.4591 -0.0987 0.0186
H13 H -0.3402 -0.1678 0.0930
C14 C -0.2180(6) 0.3435(11) 0.3492(5)
C15 C -0.1087(6) 0.3525(11) 0.3150(5)
H14 H -0.0971 0.4509 0.2664
C16 C -0.4006(5) 0.1111(9) 0.1289(4)
C17 C -0.0166(7) 0.2203(14) 0.3505(6)
H15 H 0.0578 0.2295 0.3271
C18 C -0.2406(7) 0.3543(14) 0.0172(6)
H16 H -0.1975 0.4634 -0.0102
H17 H -0.2987 0.2945 -0.0371
H18 H -0.1833 0.2511 0.0467
C19 C -0.0332(7) 0.0756(17) 0.4199(6)
H19 H 0.0294 -0.0159 0.4444
C20 C -0.6121(7) 0.0872(14) 0.3834(6)
H20 H -0.6579 0.1314 0.4361
H21 H -0.6666 0.0068 0.3332
C21 C -1.0311(9) 0.8460(18) 0.1546(9)
H22 H -1.1028 0.8909 0.1085
H23 H -0.9683 0.9486 0.1579
H24 H -1.0508 0.8250 0.2220
C22 C -0.1434(8) 0.0642(16) 0.4541(6)
H25 H -0.1555 -0.0362 0.5016
loop_
_geom_bond_atom_site_label_1
_geom_bond_atom_site_label_2
_geom_bond_site_symmetry_1
_geom_bond_site_symmetry_2
C1 C2 1_555 1_555
O1 C4 1_555 1_555
N1 C3 1_555 1_555
O2 H1 1_555 1_555
C2 H2 1_555 1_555
O3 C3 1_555 1_555
C3 C16 1_555 1_555
C4 C10 1_555 1_555
C5 H3 1_555 1_555
H4 C5 1_555 1_555
C6 C1 1_555 1_555
H5 C6 1_555 1_555
C7 C1 1_555 1_555
H6 C7 1_555 1_555
C8 C7 1_555 1_555
H7 C8 1_555 1_555
C9 H8 1_555 1_555
O4 C12 1_555 1_555
C10 N1 1_555 1_555
H9 C10 1_555 1_555
C11 C2 1_555 1_555
H10 C11 1_555 1_555
C12 C8 1_555 1_555
C13 H11 1_555 1_555
H12 C13 1_555 1_555
H13 C13 1_555 1_555
C14 C5 1_555 1_555
C15 C14 1_555 1_555
H14 C15 1_555 1_555
C16 C4 1_555 1_555
C17 C15 1_555 1_555
H15 C17 1_555 1_555
C18 O1 1_555 1_555
H16 C18 1_555 1_555
H17 C18 1_555 1_555
H18 C18 1_555 1_555
C19 C17 1_555 1_555
H19 C19 1_555 1_555
C20 O2 1_555 1_555
H20 C20 1_555 1_555
H21 C20 1_555 1_555
C21 O4 1_555 1_555
H22 C21 1_555 1_555
H23 C21 1_555 1_555
H24 C21 1_555 1_555
C22 C9 1_555 1_555
H25 C22 1_555 1_555
N1 C6 1_555 1_555
C5 C10 1_555 1_555
C6 C20 1_555 1_555
C9 C14 1_555 1_555
C11 C12 1_555 1_555
C13 C16 1_555 1_555
C19 C22 1_555 1_555

#END
