
#######################################################################
#
#                 Cambridge Crystallographic Data Centre
#                                CCDC 
#
#######################################################################
#
# If this CIF has been generated from an entry in the Cambridge 
# Structural Database, then it will include bibliographic, chemical, 
# crystal, experimental, refinement or atomic coordinate data resulting 
# from the CCDC's data processing and validation procedures.
#
#######################################################################

data_YUSZIW
_chemical_formula_moiety         'C79 H17 N5,3(C6 H5 Cl1)'
_chemical_name_systematic        
'9-cyano-12-isopropyl-1,2-(1-cyano-2-(4-(dimethylamino)phenyl)-3-(dicyanomethylene)prop-1-ene-1,3-diyl)-C60fullerene chlorobenzene solvate'
_symmetry_cell_setting           triclinic
_symmetry_space_group_name_H-M   'P -1'
_symmetry_Int_Tables_number      2
_space_group_name_Hall           '-P 1'
loop_
_symmetry_equiv_pos_site_id
_symmetry_equiv_pos_as_xyz
1 x,y,z
2 -x,-y,-z
_cell_length_a                   9.9620(7)
_cell_length_b                   17.8492(9)
_cell_length_c                   18.4538(12)
_cell_angle_alpha                64.282(3)
_cell_angle_beta                 84.813(2)
_cell_angle_gamma                85.112(2)
_cell_volume                     2940.32
_exptl_crystal_colour            black
_exptl_crystal_description       needle
_cell_formula_units_Z            2
_exptl_crystal_recrystallization_method n-hexane/chlorobenzene
loop_
_atom_site_label
_atom_site_type_symbol
_atom_site_fract_x
_atom_site_fract_y
_atom_site_fract_z
Cl1 Cl 0.1589(4) 0.2945(3) 0.2323(2)
C80 C 0.0194(13) 0.3619(7) 0.1894(9)
C81 C 0.0047(15) 0.3890(8) 0.1106(9)
C82 C -0.1071(15) 0.4424(10) 0.0777(11)
C83 C -0.1977(14) 0.4661(9) 0.1265(12)
C84 C -0.1735(17) 0.4354(11) 0.2080(12)
C85 C -0.0656(15) 0.3826(9) 0.2402(9)
H18 H 0.0702 0.3719 0.0769
H19 H -0.1213 0.4631 0.0202
H20 H -0.2766 0.5033 0.1043
H21 H -0.2359 0.4523 0.2430
H22 H -0.0500 0.3604 0.2976
Cl2 Cl 0.2427(5) 0.1195(3) 0.4103(4)
C92 C 0.2592(14) 0.1638(7) 0.4702(8)
C93 C 0.2993(14) 0.2449(7) 0.4424(7)
C94 C 0.3148(18) 0.2779(7) 0.4967(10)
C95 C 0.2902(19) 0.2299(10) 0.5788(9)
C96 C 0.2501(18) 0.1489(10) 0.6066(7)
C97 C 0.2346(16) 0.1158(7) 0.5523(8)
H28 H 0.3166 0.2787 0.3845
H29 H 0.3431 0.3350 0.4771
H30 H 0.3012 0.2532 0.6171
H31 H 0.2328 0.1151 0.6645
H32 H 0.2064 0.0587 0.5720
Cl3 Cl -0.2539(7) 0.5589(4) 0.4470(3)
C86 C -0.2209(11) 0.4661(6) 0.4462(8)
C87 C -0.3259(10) 0.4234(9) 0.4396(10)
C88 C -0.3008(15) 0.3442(9) 0.4428(12)
C89 C -0.1707(17) 0.3078(7) 0.4526(12)
C90 C -0.0656(12) 0.3506(8) 0.4592(10)
C91 C -0.0907(10) 0.4298(7) 0.4560(8)
H23 H -0.4177 0.4490 0.4328
H24 H -0.3749 0.3141 0.4382
H25 H -0.1530 0.2520 0.4549
H26 H 0.0261 0.3249 0.4661
H27 H -0.0166 0.4599 0.4606
N1 N 0.0018(11) 0.0397(6) 0.2260(6)
N2 N -0.2923(9) -0.0479(6) 0.2001(6)
N3 N -0.4516(10) 0.3336(6) 0.2941(7)
N4 N -0.5897(11) 0.4195(7) 0.0672(7)
N5 N -0.2524(11) 0.0857(7) 0.5438(7)
C1 C -0.2381(11) 0.1680(6) 0.0833(6)
C2 C -0.3611(10) 0.2368(6) 0.0710(6)
C3 C -0.5033(10) 0.2251(6) 0.0433(6)
C4 C -0.4899(10) 0.1593(6) 0.0104(6)
C5 C -0.3904(9) 0.0999(6) 0.0206(6)
C6 C -0.2615(10) 0.0897(6) 0.0651(7)
C7 C -0.1555(10) 0.0704(6) 0.0077(7)
C8 C -0.2195(10) 0.0461(6) -0.0440(7)
C9 C -0.3641(11) 0.0628(6) -0.0357(6)
C10 C -0.4428(10) 0.0855(6) -0.1003(7)
C11 C -0.3838(11) 0.0964(6) -0.1777(6)
C12 C -0.2456(11) 0.0829(6) -0.1873(7)
C13 C -0.1616(10) 0.0568(6) -0.1183(7)
C14 C -0.0370(10) 0.0985(6) -0.1492(7)
C15 C -0.0396(10) 0.1504(6) -0.2331(6)
C16 C -0.1719(11) 0.1411(6) -0.2583(6)
C17 C -0.2380(11) 0.2087(6) -0.3147(6)
C18 C -0.3843(11) 0.2230(6) -0.3063(6)
C19 C -0.4572(10) 0.1693(6) -0.2384(6)
C20 C -0.5591(10) 0.1996(6) -0.1986(6)
C21 C -0.5883(11) 0.2851(6) -0.2265(7)
C22 C -0.5149(10) 0.3414(6) -0.2956(6)
C23 C -0.4133(11) 0.3118(6) -0.3351(6)
C24 C -0.2845(11) 0.3535(7) -0.3639(7)
C25 C -0.1787(11) 0.2899(7) -0.3522(6)
C26 C -0.0555(10) 0.3001(6) -0.3278(6)
C27 C -0.0340(10) 0.3719(6) -0.3156(7)
C28 C -0.1383(11) 0.4324(6) -0.3263(6)
C29 C -0.2670(11) 0.4230(6) -0.3506(6)
C30 C -0.3065(12) 0.4823(6) -0.2586(7)
C31 C -0.1619(11) 0.4696(6) -0.2712(7)
C32 C -0.3711(12) 0.4542(6) -0.3106(6)
C33 C -0.4934(10) 0.4137(6) -0.2824(7)
C34 C -0.5542(10) 0.4021(6) -0.2057(7)
C35 C -0.4930(11) 0.4270(6) -0.1557(6)
C36 C -0.3650(11) 0.4699(6) -0.1858(7)
C37 C -0.2822(11) 0.4417(6) -0.1161(6)
C38 C -0.3561(11) 0.3855(6) -0.0454(6)
C39 C -0.2944(11) 0.3170(6) 0.0111(6)
C40 C -0.1488(10) 0.3021(6) -0.0003(6)
C41 C -0.0747(10) 0.3589(6) -0.0657(7)
C42 C -0.1419(11) 0.4294(6) -0.1243(7)
C43 C -0.0825(11) 0.4439(6) -0.2041(7)
C44 C 0.0248(10) 0.3824(6) -0.1935(7)
C45 C 0.0520(10) 0.3451(7) -0.2466(6)
C46 C 0.0791(9) 0.2552(7) -0.2155(7)
C47 C 0.0138(11) 0.2267(7) -0.2665(7)
C48 C 0.0832(10) 0.2068(6) -0.1357(6)
C49 C 0.0235(10) 0.1257(6) -0.0993(7)
C50 C -0.0376(10) 0.1125(6) -0.0210(6)
C51 C -0.0181(10) 0.1863(6) -0.0076(7)
C52 C 0.0542(9) 0.2443(7) -0.0792(6)
C53 C 0.0298(9) 0.3294(6) -0.1072(6)
C54 C -0.4915(10) 0.3761(6) -0.0712(7)
C55 C -0.5478(10) 0.2996(6) -0.0347(7)
C56 C -0.6053(9) 0.2714(6) -0.0873(7)
C57 C -0.6115(10) 0.3211(6) -0.1694(7)
C58 C -0.5525(10) 0.1482(6) -0.1120(7)
C59 C -0.5703(9) 0.1831(6) -0.0576(6)
C60 C -0.1177(9) 0.2157(6) 0.0300(6)
C61 C -0.6149(10) 0.1980(7) 0.1128(7)
C62 C -0.7580(10) 0.1999(7) 0.0836(8)
C63 C -0.5838(11) 0.1119(6) 0.1803(7)
C64 C -0.2041(10) 0.1406(6) 0.1701(7)
C65 C -0.0923(12) 0.0820(7) 0.2040(7)
C66 C -0.2775(10) 0.0121(7) 0.1425(8)
C67 C -0.2787(10) 0.1783(6) 0.2096(6)
C68 C -0.3713(10) 0.2413(6) 0.1543(7)
C69 C -0.4382(11) 0.3052(6) 0.1678(7)
C70 C -0.4386(10) 0.3150(6) 0.2406(8)
C71 C -0.5203(12) 0.3679(7) 0.1101(8)
C72 C -0.2707(11) 0.1580(6) 0.2961(7)
C73 C -0.3855(12) 0.1369(7) 0.3490(8)
C74 C -0.3836(12) 0.1130(7) 0.4301(7)
C75 C -0.2581(12) 0.1079(7) 0.4640(7)
C76 C -0.1417(12) 0.1282(7) 0.4100(8)
C77 C -0.1489(12) 0.1506(7) 0.3301(7)
C78 C -0.1202(15) 0.0690(11) 0.5817(9)
C79 C -0.3780(15) 0.0723(9) 0.5968(8)
H1 H -0.6195 0.2421 0.1387
H2 H -0.7593 0.1538 0.0605
H3 H -0.7815 0.2609 0.0366
H4 H -0.8321 0.1863 0.1335
H5 H -0.5936 0.0649 0.1593
H6 H -0.6539 0.1015 0.2316
H7 H -0.4821 0.1085 0.1978
H8 H -0.4722 0.1394 0.3268
H9 H -0.4673 0.0995 0.4644
H10 H -0.0538 0.1259 0.4310
H11 H -0.0655 0.1618 0.2955
H12 H -0.0580 0.0255 0.5652
H13 H -0.1373 0.0428 0.6465
H14 H -0.0696 0.1265 0.5609
H15 H -0.4472 0.1259 0.5716
H16 H -0.3540 0.0634 0.6560
H17 H -0.4243 0.0177 0.6014
loop_
_geom_bond_atom_site_label_1
_geom_bond_atom_site_label_2
_geom_bond_site_symmetry_1
_geom_bond_site_symmetry_2
Cl1 C80 1_555 1_555
Cl2 C92 1_555 1_555
Cl3 C86 1_555 1_555
N1 C65 1_555 1_555
N2 C66 1_555 1_555
N3 C70 1_555 1_555
N4 C71 1_555 1_555
N5 C75 1_555 1_555
C1 C2 1_555 1_555
C2 C3 1_555 1_555
C3 C4 1_555 1_555
C4 C5 1_555 1_555
C5 C6 1_555 1_555
C6 C1 1_555 1_555
C7 C6 1_555 1_555
C8 C7 1_555 1_555
C9 C5 1_555 1_555
C10 C9 1_555 1_555
C11 C10 1_555 1_555
C12 C11 1_555 1_555
C13 C8 1_555 1_555
C14 C13 1_555 1_555
C15 C14 1_555 1_555
C16 C12 1_555 1_555
C17 C16 1_555 1_555
C18 C17 1_555 1_555
C19 C11 1_555 1_555
C20 C19 1_555 1_555
C21 C20 1_555 1_555
C22 C21 1_555 1_555
C23 C18 1_555 1_555
C24 C23 1_555 1_555
C25 C17 1_555 1_555
C26 C25 1_555 1_555
C27 C26 1_555 1_555
C28 C27 1_555 1_555
C29 C24 1_555 1_555
C30 C31 1_555 1_555
C31 C28 1_555 1_555
C32 C29 1_555 1_555
C33 C22 1_555 1_555
C34 C33 1_555 1_555
C35 C34 1_555 1_555
C36 C30 1_555 1_555
C37 C36 1_555 1_555
C38 C37 1_555 1_555
C39 C2 1_555 1_555
C40 C39 1_555 1_555
C41 C40 1_555 1_555
C42 C37 1_555 1_555
C43 C31 1_555 1_555
C44 C43 1_555 1_555
C45 C27 1_555 1_555
C46 C45 1_555 1_555
C47 C15 1_555 1_555
C48 C46 1_555 1_555
C49 C14 1_555 1_555
C50 C7 1_555 1_555
C51 C50 1_555 1_555
C52 C48 1_555 1_555
C53 C41 1_555 1_555
C54 C35 1_555 1_555
C55 C3 1_555 1_555
C56 C55 1_555 1_555
C57 C21 1_555 1_555
C58 C10 1_555 1_555
C59 C4 1_555 1_555
C60 C1 1_555 1_555
C61 C3 1_555 1_555
C62 C61 1_555 1_555
C63 C61 1_555 1_555
C64 C1 1_555 1_555
C65 C64 1_555 1_555
C66 C6 1_555 1_555
C67 C64 1_555 1_555
C68 C2 1_555 1_555
C69 C68 1_555 1_555
C70 C69 1_555 1_555
C71 C69 1_555 1_555
C72 C67 1_555 1_555
C73 C72 1_555 1_555
C74 C73 1_555 1_555
C75 C74 1_555 1_555
C76 C75 1_555 1_555
C77 C72 1_555 1_555
C78 N5 1_555 1_555
C79 N5 1_555 1_555
C80 C81 1_555 1_555
C81 C82 1_555 1_555
C82 C83 1_555 1_555
C83 C84 1_555 1_555
C84 C85 1_555 1_555
C85 C80 1_555 1_555
C86 C87 1_555 1_555
C87 C88 1_555 1_555
C88 C89 1_555 1_555
C89 C90 1_555 1_555
C90 C91 1_555 1_555
C91 C86 1_555 1_555
C92 C93 1_555 1_555
C93 C94 1_555 1_555
C94 C95 1_555 1_555
C95 C96 1_555 1_555
C96 C97 1_555 1_555
C97 C92 1_555 1_555
H1 C61 1_555 1_555
H2 C62 1_555 1_555
H3 C62 1_555 1_555
H4 C62 1_555 1_555
H5 C63 1_555 1_555
H6 C63 1_555 1_555
H7 C63 1_555 1_555
H8 C73 1_555 1_555
H9 C74 1_555 1_555
H10 C76 1_555 1_555
H11 C77 1_555 1_555
H12 C78 1_555 1_555
H13 C78 1_555 1_555
H14 C78 1_555 1_555
H15 C79 1_555 1_555
H16 C79 1_555 1_555
H17 C79 1_555 1_555
H18 C81 1_555 1_555
H19 C82 1_555 1_555
H20 C83 1_555 1_555
H21 C84 1_555 1_555
H22 C85 1_555 1_555
H23 C87 1_555 1_555
H24 C88 1_555 1_555
H25 C89 1_555 1_555
H26 C90 1_555 1_555
H27 C91 1_555 1_555
H28 C93 1_555 1_555
H29 C94 1_555 1_555
H30 C95 1_555 1_555
H31 C96 1_555 1_555
H32 C97 1_555 1_555
C8 C9 1_555 1_555
C12 C13 1_555 1_555
C15 C16 1_555 1_555
C18 C19 1_555 1_555
C20 C58 1_555 1_555
C22 C23 1_555 1_555
C24 C25 1_555 1_555
C26 C47 1_555 1_555
C28 C29 1_555 1_555
C30 C32 1_555 1_555
C32 C33 1_555 1_555
C34 C57 1_555 1_555
C35 C36 1_555 1_555
C38 C39 1_555 1_555
C38 C54 1_555 1_555
C40 C60 1_555 1_555
C41 C42 1_555 1_555
C42 C43 1_555 1_555
C44 C45 1_555 1_555
C44 C53 1_555 1_555
C46 C47 1_555 1_555
C48 C49 1_555 1_555
C49 C50 1_555 1_555
C51 C52 1_555 1_555
C51 C60 1_555 1_555
C52 C53 1_555 1_555
C54 C55 1_555 1_555
C56 C57 1_555 1_555
C56 C59 1_555 1_555
C58 C59 1_555 1_555
C67 C68 1_555 1_555
C76 C77 1_555 1_555

#END
