
#######################################################################
#
#                 Cambridge Crystallographic Data Centre
#                                CCDC 
#
#######################################################################
#
# If this CIF has been generated from an entry in the Cambridge 
# Structural Database, then it will include bibliographic, chemical, 
# crystal, experimental, refinement or atomic coordinate data resulting 
# from the CCDC's data processing and validation procedures.
#
#######################################################################

data_YUSZES
_chemical_formula_moiety         'C78 H15 N5,3(C1 S2)'
_chemical_name_systematic        
'1-ethyl-9-(1,1,4,4-tetracyano-3-(4-(dimethylamino)phenyl)buta-1,3-dien-2-yl)-C60fullerene carbon disulfide solvate'
_symmetry_cell_setting           triclinic
_symmetry_space_group_name_H-M   'P -1'
_symmetry_Int_Tables_number      2
_space_group_name_Hall           '-P 1'
loop_
_symmetry_equiv_pos_site_id
_symmetry_equiv_pos_as_xyz
1 x,y,z
2 -x,-y,-z
_cell_length_a                   13.0651(3)
_cell_length_b                   13.5710(3)
_cell_length_c                   15.9971(5)
_cell_angle_alpha                74.0161(11)
_cell_angle_beta                 77.3303(12)
_cell_angle_gamma                75.1841(12)
_cell_volume                     2602.02
_exptl_crystal_colour            'dark brown'
_exptl_crystal_description       cube
_cell_formula_units_Z            2
loop_
_atom_site_label
_atom_site_type_symbol
_atom_site_fract_x
_atom_site_fract_y
_atom_site_fract_z
S1 S 0.64304(11) 0.11046(14) 0.33401(13)
S2 S 0.48414(14) 0.13170(12) 0.51015(10)
C81 C 0.5674(4) 0.1186(4) 0.4226(4)
S3 S 0.68055(8) 0.18641(10) 0.06888(8)
S4 S 0.63023(18) 0.41797(11) 0.07135(14)
C82 C 0.6545(3) 0.3019(4) 0.0696(3)
S5 S 0.65325(18) -0.1615(3) 0.26875(13)
C1 C 0.6937(5) -0.2828(5) 0.2664(4)
S6 S 0.7242(2) -0.4017(2) 0.25979(14)
N1 N 0.1109(2) 0.70337(19) 0.39018(18)
N2 N -0.0955(2) 0.4927(2) 0.42196(18)
N3 N 0.4600(3) 0.6669(3) 0.1617(2)
N4 N 0.1383(2) 0.6762(2) 0.12723(18)
N5 N 0.6083(2) 0.3382(2) 0.50406(17)
C3 C 0.1733(2) 0.36721(19) 0.29689(16)
C4 C 0.1626(2) 0.26728(19) 0.38034(16)
C5 C 0.0629(2) 0.2227(2) 0.38660(16)
C6 C -0.0212(2) 0.2718(2) 0.34157(17)
C7 C -0.0837(2) 0.2105(2) 0.31992(19)
C8 C -0.0601(2) 0.1017(2) 0.34550(19)
C9 C 0.0288(2) 0.0502(2) 0.39185(18)
C10 C 0.0896(2) 0.1106(2) 0.41026(17)
C11 C 0.2055(2) 0.0772(2) 0.39976(17)
C12 C 0.0826(2) 0.39830(19) 0.24137(17)
C13 C 0.1262(2) 0.42609(19) 0.14908(17)
C14 C 0.2411(2) 0.3931(2) 0.13912(17)
C15 C 0.2709(2) 0.3451(2) 0.22465(17)
C16 C 0.3535(2) 0.2584(2) 0.23432(18)
C17 C 0.4111(2) 0.2190(2) 0.15874(19)
C18 C 0.3855(2) 0.2681(2) 0.07490(19)
C19 C 0.2987(2) 0.3567(2) 0.06490(18)
C20 C 0.2415(3) 0.3514(2) -0.00184(18)
C21 C 0.2944(2) 0.2574(2) -0.03204(17)
C22 C 0.3840(2) 0.2055(2) 0.01484(18)
C23 C 0.4086(2) 0.0964(2) 0.04107(19)
C24 C 0.3454(2) 0.0354(2) 0.02023(19)
C25 C 0.2598(3) 0.0851(2) -0.02494(18)
C26 C 0.2334(3) 0.1985(2) -0.05179(18)
C27 C 0.1177(3) 0.2319(2) -0.04174(18)
C28 C 0.2400(2) -0.0900(2) 0.1198(2)
C29 C 0.1604(2) 0.0480(2) 0.00177(19)
C30 C 0.1504(2) -0.0378(2) 0.0726(2)
C31 C 0.0525(2) -0.0368(2) 0.1362(2)
C32 C -0.0316(2) 0.0508(2) 0.1263(2)
C33 C -0.0215(2) 0.1399(2) 0.0526(2)
C34 C -0.0737(2) 0.2346(2) 0.0830(2)
C35 C -0.1161(2) 0.2032(2) 0.1761(2)
C36 C -0.0900(2) 0.0892(2) 0.2028(2)
C37 C -0.0628(2) 0.0399(2) 0.2862(2)
C38 C 0.0243(2) -0.0509(2) 0.2962(2)
C39 C 0.0816(2) -0.0884(2) 0.2223(2)
C40 C 0.1968(2) -0.1211(2) 0.2119(2)
C41 C 0.0725(3) 0.1389(2) -0.00902(19)
C42 C 0.3355(2) -0.0544(2) 0.0949(2)
C43 C 0.3921(2) -0.0478(2) 0.1602(2)
C44 C 0.3519(2) -0.0783(2) 0.2494(2)
C45 C 0.2515(2) -0.1148(2) 0.2758(2)
C46 C 0.1916(2) -0.0762(2) 0.35255(18)
C47 C 0.0818(2) -0.0444(2) 0.36166(18)
C48 C 0.2560(2) -0.0150(2) 0.37230(18)
C49 C 0.3532(2) -0.0161(2) 0.30941(19)
C50 C 0.3956(2) 0.0741(2) 0.27802(19)
C51 C 0.3429(2) 0.1680(2) 0.30960(18)
C52 C 0.2503(2) 0.1691(2) 0.36937(17)
C53 C -0.0107(2) 0.3621(2) 0.26636(18)
C54 C -0.0673(2) 0.3555(2) 0.20047(19)
C55 C -0.1124(2) 0.2621(2) 0.2334(2)
C56 C -0.0276(2) 0.3854(2) 0.11076(19)
C57 C 0.0709(2) 0.4219(2) 0.08523(18)
C58 C 0.1312(3) 0.3839(2) 0.00794(17)
C59 C 0.0675(3) 0.3225(2) -0.01268(18)
C60 C -0.0307(2) 0.3236(2) 0.05144(19)
C61 C 0.4368(2) 0.0456(2) 0.1274(2)
C62 C 0.4378(2) 0.1053(2) 0.18531(19)
C63 C 0.1651(2) 0.2923(2) 0.46950(17)
C64 C 0.1594(3) 0.2007(2) 0.55058(19)
C65 C 0.1784(2) 0.46935(19) 0.32114(16)
C66 C 0.2822(2) 0.5069(2) 0.29157(17)
C67 C 0.3667(2) 0.4583(2) 0.34543(17)
C68 C 0.3422(2) 0.4463(2) 0.43782(18)
C69 C 0.4214(2) 0.4076(2) 0.48975(18)
C70 C 0.5301(2) 0.3767(2) 0.45252(19)
C71 C 0.5539(2) 0.3881(2) 0.36003(19)
C72 C 0.4741(2) 0.4283(2) 0.30817(18)
C73 C 0.0936(2) 0.5313(2) 0.36034(17)
C74 C 0.1047(2) 0.6275(2) 0.37572(18)
C75 C -0.0116(2) 0.5069(2) 0.39249(18)
C76 C 0.2923(2) 0.5852(2) 0.21713(18)
C77 C 0.3874(2) 0.6293(2) 0.1872(2)
C78 C 0.2067(2) 0.6340(2) 0.16632(18)
C79 C 0.7187(2) 0.3044(3) 0.4654(2)
C80 C 0.5811(3) 0.3218(3) 0.5992(2)
H1 H 0.2380 0.3191 0.4634
H2 H 0.0986 0.3560 0.4805
H3 H 0.0888 0.1705 0.5559
H4 H 0.1553 0.2277 0.6090
H5 H 0.2300 0.1395 0.5439
H6 H 0.2675 0.4658 0.4654
H7 H 0.4023 0.4014 0.5535
H8 H 0.6282 0.3670 0.3323
H9 H 0.4929 0.4361 0.2443
H10 H 0.7255 0.2374 0.4391
H11 H 0.7695 0.2832 0.5153
H12 H 0.7435 0.3674 0.4130
H13 H 0.5348 0.3939 0.6160
H14 H 0.6538 0.2978 0.6277
H15 H 0.5346 0.2615 0.6246
C2? C 0.6588(13) 0.0252(16) 0.2844(15)
S7? S 0.6828(4) -0.0756(5) 0.2454(4)
C83? C 0.8139(12) -0.3521(12) 0.2564(9)
S8? S 0.9070(3) -0.2958(4) 0.2407(2)
S9? S 0.7278(16) -0.4104(17) 0.2604(16)
loop_
_geom_bond_atom_site_label_1
_geom_bond_atom_site_label_2
_geom_bond_site_symmetry_1
_geom_bond_site_symmetry_2
S1 C81 1_555 1_555
S2 C81 1_555 1_555
S3 C82 1_555 1_555
S4 C82 1_555 1_555
S5 C1 1_555 1_555
C1 S6 1_555 1_555
N1 C74 1_555 1_555
N2 C75 1_555 1_555
N3 C77 1_555 1_555
N4 C78 1_555 1_555
N5 C70 1_555 1_555
C3 C4 1_555 1_555
C4 C5 1_555 1_555
C5 C6 1_555 1_555
C6 C7 1_555 1_555
C7 C8 1_555 1_555
C8 C9 1_555 1_555
C9 C10 1_555 1_555
C10 C5 1_555 1_555
C11 C10 1_555 1_555
C12 C3 1_555 1_555
C13 C12 1_555 1_555
C14 C13 1_555 1_555
C15 C3 1_555 1_555
C16 C15 1_555 1_555
C17 C16 1_555 1_555
C18 C17 1_555 1_555
C19 C14 1_555 1_555
C20 C19 1_555 1_555
C21 C20 1_555 1_555
C22 C18 1_555 1_555
C23 C22 1_555 1_555
C24 C23 1_555 1_555
C25 C24 1_555 1_555
C26 C21 1_555 1_555
C27 C26 1_555 1_555
C28 C30 1_555 1_555
C29 C25 1_555 1_555
C30 C29 1_555 1_555
C31 C30 1_555 1_555
C32 C31 1_555 1_555
C33 C32 1_555 1_555
C34 C33 1_555 1_555
C35 C34 1_555 1_555
C36 C32 1_555 1_555
C37 C8 1_555 1_555
C38 C37 1_555 1_555
C39 C31 1_555 1_555
C40 C28 1_555 1_555
C41 C27 1_555 1_555
C42 C24 1_555 1_555
C43 C42 1_555 1_555
C44 C43 1_555 1_555
C45 C40 1_555 1_555
C46 C45 1_555 1_555
C47 C9 1_555 1_555
C48 C11 1_555 1_555
C49 C44 1_555 1_555
C50 C49 1_555 1_555
C51 C16 1_555 1_555
C52 C4 1_555 1_555
C53 C6 1_555 1_555
C54 C53 1_555 1_555
C55 C7 1_555 1_555
C56 C54 1_555 1_555
C57 C13 1_555 1_555
C58 C20 1_555 1_555
C59 C27 1_555 1_555
C60 C34 1_555 1_555
C61 C23 1_555 1_555
C62 C17 1_555 1_555
C63 C4 1_555 1_555
C64 C63 1_555 1_555
C65 C3 1_555 1_555
C66 C65 1_555 1_555
C67 C66 1_555 1_555
C68 C67 1_555 1_555
C69 C68 1_555 1_555
C70 C69 1_555 1_555
C71 C70 1_555 1_555
C72 C67 1_555 1_555
C73 C65 1_555 1_555
C74 C73 1_555 1_555
C75 C73 1_555 1_555
C76 C66 1_555 1_555
C77 C76 1_555 1_555
C78 C76 1_555 1_555
C79 N5 1_555 1_555
C80 N5 1_555 1_555
H1 C63 1_555 1_555
H2 C63 1_555 1_555
H3 C64 1_555 1_555
H4 C64 1_555 1_555
H5 C64 1_555 1_555
H6 C68 1_555 1_555
H7 C69 1_555 1_555
H8 C71 1_555 1_555
H9 C72 1_555 1_555
H10 C79 1_555 1_555
H11 C79 1_555 1_555
H12 C79 1_555 1_555
H13 C80 1_555 1_555
H14 C80 1_555 1_555
H15 C80 1_555 1_555
C11 C52 1_555 1_555
C12 C53 1_555 1_555
C14 C15 1_555 1_555
C18 C19 1_555 1_555
C21 C22 1_555 1_555
C25 C26 1_555 1_555
C28 C42 1_555 1_555
C29 C41 1_555 1_555
C33 C41 1_555 1_555
C35 C36 1_555 1_555
C35 C55 1_555 1_555
C36 C37 1_555 1_555
C38 C39 1_555 1_555
C38 C47 1_555 1_555
C39 C40 1_555 1_555
C43 C61 1_555 1_555
C44 C45 1_555 1_555
C46 C47 1_555 1_555
C46 C48 1_555 1_555
C48 C49 1_555 1_555
C50 C51 1_555 1_555
C50 C62 1_555 1_555
C51 C52 1_555 1_555
C54 C55 1_555 1_555
C56 C57 1_555 1_555
C56 C60 1_555 1_555
C57 C58 1_555 1_555
C58 C59 1_555 1_555
C59 C60 1_555 1_555
C61 C62 1_555 1_555
C71 C72 1_555 1_555

#END
