
#######################################################################
#
#                 Cambridge Crystallographic Data Centre
#                                CCDC 
#
#######################################################################
#
# If this CIF has been generated from an entry in the Cambridge 
# Structural Database, then it will include bibliographic, chemical, 
# crystal, experimental, refinement or atomic coordinate data resulting 
# from the CCDC's data processing and validation procedures.
#
#######################################################################

data_YUTFOI
_chemical_formula_moiety         'C22 H19 N1'
_chemical_name_systematic        
Spiro(9,10-dihydrophenanthrene-9,2'-(1'-methylindoline))
_symmetry_cell_setting           monoclinic
_symmetry_space_group_name_H-M   'P 21'
_symmetry_Int_Tables_number      4
_space_group_name_Hall           'P 2yb'
loop_
_symmetry_equiv_pos_site_id
_symmetry_equiv_pos_as_xyz
1 x,y,z
2 -x,1/2+y,-z
_cell_length_a                   9.752(3)
_cell_length_b                   6.471(2)
_cell_length_c                   12.898(2)
_cell_angle_alpha                90
_cell_angle_beta                 91.58(2)
_cell_angle_gamma                90
_cell_volume                     813.621
_exptl_crystal_colour            colorless
_chemical_melting_point          135.5-136.5deg.C
_cell_formula_units_Z            2
loop_
_atom_site_label
_atom_site_type_symbol
_atom_site_fract_x
_atom_site_fract_y
_atom_site_fract_z
N1 N 0.7901(4) 0.2510 0.8380(3)
C1 C 0.8400(6) 0.434(1) 0.4701(4)
C2 C 0.8223(7) 0.585(1) 0.3924(4)
C3 C 0.7315(7) 0.743(2) 0.4029(5)
C4 C 0.6553(7) 0.758(1) 0.4918(4)
C5 C 0.4787(6) 0.749(1) 0.6760(4)
C6 C 0.4125(6) 0.775(1) 0.7687(5)
C7 C 0.4639(6) 0.677(1) 0.8563(4)
C8 C 0.5788(5) 0.554(1) 0.8509(4)
C9 C 0.7759(5) 0.403(1) 0.7529(3)
C10 C 0.7788(6) 0.291(1) 0.6466(4)
C11 C 0.7630(5) 0.451(1) 0.5604(4)
C12 C 0.6714(5) 0.613(1) 0.5722(4)
C13 C 0.5948(5) 0.630(1) 0.6699(3)
C14 C 0.6456(5) 0.527(1) 0.7583(3)
C15 C 0.9052(5) 0.534(1) 0.7701(4)
C16 C 1.0044(5) 0.389(1) 0.8222(3)
C17 C 1.1426(5) 0.399(1) 0.8391(4)
C18 C 1.2100(6) 0.240(1) 0.8933(4)
C19 C 1.1344(6) 0.076(1) 0.9289(4)
C20 C 0.9941(6) 0.063(1) 0.9131(3)
C21 C 0.9301(5) 0.223(1) 0.8600(3)
C22 C 0.6969(7) 0.075(1) 0.8416(5)
H1 H 0.905(5) 0.30(1) 0.462(3)
H2 H 0.878(6) 0.58(1) 0.323(5)
H3 H 0.711(7) 0.85(1) 0.341(5)
H4 H 0.605(5) 0.89(1) 0.509(4)
H5 H 0.444(5) 0.81(1) 0.621(4)
H6 H 0.338(5) 0.86(1) 0.772(4)
H7 H 0.403(5) 0.691(8) 0.924(3)
H8 H 0.625(5) 0.484(8) 0.919(4)
H9 H 0.876(5) 0.24(1) 0.648(3)
H10 H 0.678(6) 0.21(1) 0.635(4)
H11 H 0.935(4) 0.608(8) 0.705(3)
H12 H 0.885(6) 0.64(1) 0.819(4)
H13 H 1.192(4) 0.538(8) 0.814(3)
H14 H 1.322(5) 0.27(1) 0.912(4)
H15 H 1.185(5) -0.035(8) 0.968(4)
H16 H 0.937(5) -0.052(8) 0.938(3)
H17 H 0.729(6) -0.02(1) 0.780(6)
H18 H 0.600(6) 0.15(1) 0.822(4)
H19 H 0.704(5) 0.04(1) 0.918(5)
loop_
_geom_bond_atom_site_label_1
_geom_bond_atom_site_label_2
_geom_bond_site_symmetry_1
_geom_bond_site_symmetry_2
N1 C9 1_555 1_555
C1 C2 1_555 1_555
C2 C3 1_555 1_555
C3 C4 1_555 1_555
C4 C12 1_555 1_555
C5 C6 1_555 1_555
C6 C7 1_555 1_555
C7 C8 1_555 1_555
C8 C14 1_555 1_555
C9 C10 1_555 1_555
C10 C11 1_555 1_555
C11 C1 1_555 1_555
C12 C11 1_555 1_555
C13 C5 1_555 1_555
C14 C9 1_555 1_555
C15 C9 1_555 1_555
C16 C15 1_555 1_555
C17 C16 1_555 1_555
C18 C17 1_555 1_555
C19 C18 1_555 1_555
C20 C19 1_555 1_555
C21 N1 1_555 1_555
C22 N1 1_555 1_555
H1 C1 1_555 1_555
H2 C2 1_555 1_555
H3 C3 1_555 1_555
H4 C4 1_555 1_555
H5 C5 1_555 1_555
H6 C6 1_555 1_555
H7 C7 1_555 1_555
H8 C8 1_555 1_555
H9 C10 1_555 1_555
H10 C10 1_555 1_555
H11 C15 1_555 1_555
H12 C15 1_555 1_555
H13 C17 1_555 1_555
H14 C18 1_555 1_555
H15 C19 1_555 1_555
H16 C20 1_555 1_555
H17 C22 1_555 1_555
H18 C22 1_555 1_555
H19 C22 1_555 1_555
C12 C13 1_555 1_555
C13 C14 1_555 1_555
C16 C21 1_555 1_555
C20 C21 1_555 1_555

#END
