
#######################################################################
#
#                 Cambridge Crystallographic Data Centre
#                                CCDC 
#
#######################################################################
#
# If this CIF has been generated from an entry in the Cambridge 
# Structural Database, then it will include bibliographic, chemical, 
# crystal, experimental, refinement or atomic coordinate data resulting 
# from the CCDC's data processing and validation procedures.
#
#######################################################################

data_YUTFUO
_chemical_formula_moiety         'C27 H27 N1 O2'
_chemical_name_systematic        
"4-(Spiro(9,10-dihydrophenanthrene-9,2'-indolin)-1-yl)-butyl acetate"
_symmetry_cell_setting           orthorhombic
_symmetry_space_group_name_H-M   'P n a 21'
_symmetry_Int_Tables_number      33
_space_group_name_Hall           'P 2c -2n'
loop_
_symmetry_equiv_pos_site_id
_symmetry_equiv_pos_as_xyz
1 x,y,z
2 -x,-y,1/2+z
3 1/2-x,1/2+y,1/2+z
4 1/2+x,1/2-y,z
_cell_length_a                   9.22(1)
_cell_length_b                   38.30(1)
_cell_length_c                   12.38(1)
_cell_angle_alpha                90
_cell_angle_beta                 90
_cell_angle_gamma                90
_cell_volume                     4371.7
_exptl_crystal_colour            colorless
_chemical_melting_point          94.5-95deg.C
_cell_formula_units_Z            8
loop_
_atom_site_label
_atom_site_type_symbol
_atom_site_fract_x
_atom_site_fract_y
_atom_site_fract_z
O1 O 1.076(1) 0.2040(2) 0.4432
O2 O 1.216(1) 0.2453(3) 0.375(1)
N1 N 0.878(1) 0.1336(2) 0.777(1)
C1 C 0.841(1) 0.0322(3) 0.531(1)
C2 C 0.790(2) -0.0012(3) 0.517(2)
C3 C 0.684(2) -0.0142(3) 0.579(1)
C4 C 0.619(1) 0.0058(3) 0.659(1)
C5 C 0.447(1) 0.0589(3) 0.785(1)
C6 C 0.383(1) 0.0833(3) 0.856(1)
C7 C 0.453(2) 0.1114(3) 0.892(1)
C8 C 0.598(1) 0.1167(3) 0.860(1)
C9 C 0.821(1) 0.0983(3) 0.756(1)
C10 C 0.833(1) 0.0887(3) 0.635(1)
C11 C 0.782(1) 0.0526(3) 0.611(1)
C12 C 0.667(1) 0.0401(3) 0.675(1)
C13 C 0.594(1) 0.0640(3) 0.752(1)
C14 C 0.663(1) 0.093(33) 0.791(1)
C15 C 0.924(1) 0.0757(3) 0.826(1)
C16 C 0.977(1) 0.1010(3) 0.910(1)
C17 C 1.052(1) 0.0966(3) 1.007(1)
C18 C 1.101(1) 0.1246(3) 1.064(1)
C19 C 1.078(1) 0.1578(3) 1.024(1)
C20 C 1.003(1) 0.1646(3) 0.928(1)
C21 C 0.956(1) 0.1350(3) 0.872(1)
C22 C 0.828(1) 0.1637(3) 0.719(1)
C23 C 0.950(1) 0.1792(3) 0.648(1)
C24 C 0.899(2) 0.2106(4) 0.588(1)
C25 C 1.024(2) 0.2278(4) 0.523(1)
C26 C 1.173(2) 0.2168(4) 0.374(1)
C27 C 1.219(2) 0.1896(3) 0.295(2)
H1 H 0.9157 0.0410 0.4861
H2 H 0.8307 -0.0155 0.4624
H3 H 0.6535 -0.0376 0.5684
H4 H 0.5432 -0.0037 0.7013
H5 H 0.3933 0.0393 0.7605
H6 H 0.2853 0.0796 0.8784
H7 H 0.4067 0.1276 0.9385
H8 H 0.6500 0.1363 0.8861
H9 H 0.7770 0.1048 0.5948
H10 H 0.9323 0.0905 0.6144
H11 H 0.8723 0.0569 0.8586
H12 H 1.0017 0.0667 0.7844
H13 H 1.0693 0.0737 1.0338
H14 H 1.1506 0.1213 1.1309
H15 H 1.1145 0.1770 1.0642
H16 H 0.9853 0.1877 0.9030
H17 H 0.7489 0.1571 0.6740
H18 H 0.7965 0.1809 0.7690
H19 H 1.0294 0.1855 0.6925
H20 H 0.9807 0.1621 0.5971
H21 H 0.8247 0.2039 0.5394
H22 H 0.8623 0.2271 0.6384
H23 H 1.1006 0.2337 0.5711
H24 H 0.9886 0.2484 0.4892
H25 H 1.1704 0.1683 0.3099
H26 H 1.1954 0.1970 0.2235
H27 H 1.3208 0.1861 0.3000
O3 O 0.772(1) 0.2603(2) -0.037(1)
O4 O 0.659(1) 0.2546(3) -0.193(1)
N2 N 0.671(1) 0.1397(2) 0.285(1)
C28 C 0.668(1) 0.0390(3) 0.039(1)
C29 C 0.702(2) 0.0041(3) 0.021(1)
C30 C 0.806(2) -0.0116(3) 0.085(1)
C31 C 0.877(1) 0.0065(3) 0.167(1)
C32 C 1.069(1) 0.0546(3) 0.287(1)
C33 C 1.144(1) 0.0754(3) 0.356(1)
C34 C 1.084(1) 0.1048(3) 0.397(1)
C35 C 0.944(1) 0.1151(3) 0.371(1)
C36 C 0.712(1) 0.1029(3) 0.263(1)
C37 C 0.700(1) 0.0952(3) 0.142(1)
C38 C 0.737(1) 0.0574(3) 0.120(1)
C39 C 0.847(1) 0.0416(3) 0.179(1)
C40 C 0.927(1) 0.0631(3) 0.258(1)
C41 C 0.867(1) 0.0940(3) 0.300(1)
C42 C 0.598(1) 0.0830(3) 0.333(1)
C43 C 0.549(1) 0.1091(3) 0.414(1)
C44 C 0.473(1) 0.1049(3) 0.508(1)
C45 C 0.438(2) 0.1347(3) 0.568(1)
C46 C 0.481(1) 0.1666(3) 0.534(1)
C47 C 0.562(1) 0.1713(3) 0.441(1)
C48 C 0.596(1) 0.1417(3) 0.379(1)
C49 C 0.753(1) 0.1684(3) 0.237(1)
C50 C 0.660(1) 0.1878(3) 0.153(1)
C51 C 0.753(1) 0.2180(3) 0.106(1)
C52 C 0.679(2) 0.2327(4) 0.008(1)
C53 C 0.753(2) 0.2672(4) -0.139(2)
C54 C 0.850(2) 0.2957(3) -0.176(1)
H28 H 0.5983 0.0503 -0.0056
H29 H 0.6537 -0.0087 -0.0342
H30 H 0.8292 -0.0354 0.0731
H31 H 0.9441 -0.0050 0.2130
H32 H 1.1131 0.0343 0.2576
H33 H 1.2407 0.0692 0.3762
H34 H 1.1384 0.1188 0.4457
H35 H 0.9025 0.1357 0.3998
H36 H 0.6032 0.0996 0.1191
H37 H 0.7646 0.1099 0.1035
H38 H 0.5187 0.0754 0.2896
H39 H 0.6410 0.0634 0.3674
H40 H 0.4445 0.0823 0.5319
H41 H 0.3839 0.1325 0.6334
H42 H 0.4546 0.1865 0.5751
H43 H 0.5931 0.1939 0.4188
H44 H 0.7808 0.1842 0.2929
H45 H 0.8376 0.1594 0.2033
H46 H 0.6328 0.1722 0.0971
H47 H 0.5756 0.1969 0.1868
H48 H 0.7633 0.2358 0.1593
H49 H 0.8458 0.2094 0.0868
H50 H 0.5877 0.2423 0.0281
H51 H 0.6653 0.2148 -0.0437
H52 H 0.9485 0.2886 -0.1686
H53 H 0.8307 0.3007 -0.2499
H54 H 0.8334 0.3160 -0.1338
loop_
_geom_bond_atom_site_label_1
_geom_bond_atom_site_label_2
_geom_bond_site_symmetry_1
_geom_bond_site_symmetry_2
O1 C25 1_555 1_555
O2 C26 1_555 1_555
N1 C9 1_555 1_555
C1 C2 1_555 1_555
C2 C3 1_555 1_555
C3 C4 1_555 1_555
C4 C12 1_555 1_555
C5 C6 1_555 1_555
C6 C7 1_555 1_555
C7 C8 1_555 1_555
C8 C14 1_555 1_555
C9 C10 1_555 1_555
C10 C11 1_555 1_555
C11 C1 1_555 1_555
C12 C11 1_555 1_555
C13 C5 1_555 1_555
C14 C9 1_555 1_555
C15 C9 1_555 1_555
C16 C15 1_555 1_555
C17 C16 1_555 1_555
C18 C17 1_555 1_555
C19 C18 1_555 1_555
C20 C19 1_555 1_555
C21 N1 1_555 1_555
C22 N1 1_555 1_555
C23 C22 1_555 1_555
C24 C23 1_555 1_555
C25 C24 1_555 1_555
C26 O1 1_555 1_555
C27 C26 1_555 1_555
H1 C1 1_555 1_555
H2 C2 1_555 1_555
H3 C3 1_555 1_555
H4 C4 1_555 1_555
H5 C5 1_555 1_555
H6 C6 1_555 1_555
H7 C7 1_555 1_555
H8 C8 1_555 1_555
H9 C10 1_555 1_555
H10 C10 1_555 1_555
H11 C15 1_555 1_555
H12 C15 1_555 1_555
H13 C17 1_555 1_555
H14 C18 1_555 1_555
H15 C19 1_555 1_555
H16 C20 1_555 1_555
H17 C22 1_555 1_555
H18 C22 1_555 1_555
H19 C23 1_555 1_555
H20 C23 1_555 1_555
H21 C24 1_555 1_555
H22 C24 1_555 1_555
H23 C25 1_555 1_555
H24 C25 1_555 1_555
H25 C27 1_555 1_555
H26 C27 1_555 1_555
H27 C27 1_555 1_555
O3 C52 1_555 1_555
O4 C53 1_555 1_555
N2 C36 1_555 1_555
C28 C29 1_555 1_555
C29 C30 1_555 1_555
C30 C31 1_555 1_555
C31 C39 1_555 1_555
C32 C33 1_555 1_555
C33 C34 1_555 1_555
C34 C35 1_555 1_555
C35 C41 1_555 1_555
C36 C37 1_555 1_555
C37 C38 1_555 1_555
C38 C28 1_555 1_555
C39 C38 1_555 1_555
C40 C32 1_555 1_555
C41 C36 1_555 1_555
C42 C36 1_555 1_555
C43 C42 1_555 1_555
C44 C43 1_555 1_555
C45 C44 1_555 1_555
C46 C45 1_555 1_555
C47 C46 1_555 1_555
C48 N2 1_555 1_555
C49 N2 1_555 1_555
C50 C49 1_555 1_555
C51 C50 1_555 1_555
C52 C51 1_555 1_555
C53 O3 1_555 1_555
C54 C53 1_555 1_555
H28 C28 1_555 1_555
H29 C29 1_555 1_555
H30 C30 1_555 1_555
H31 C31 1_555 1_555
H32 C32 1_555 1_555
H33 C33 1_555 1_555
H34 C34 1_555 1_555
H35 C35 1_555 1_555
H36 C37 1_555 1_555
H37 C37 1_555 1_555
H38 C42 1_555 1_555
H39 C42 1_555 1_555
H40 C44 1_555 1_555
H41 C45 1_555 1_555
H42 C46 1_555 1_555
H43 C47 1_555 1_555
H44 C49 1_555 1_555
H45 C49 1_555 1_555
H46 C50 1_555 1_555
H47 C50 1_555 1_555
H48 C51 1_555 1_555
H49 C51 1_555 1_555
H50 C52 1_555 1_555
H51 C52 1_555 1_555
H52 C54 1_555 1_555
H53 C54 1_555 1_555
H54 C54 1_555 1_555
C12 C13 1_555 1_555
C13 C14 1_555 1_555
C16 C21 1_555 1_555
C20 C21 1_555 1_555
C39 C40 1_555 1_555
C40 C41 1_555 1_555
C43 C48 1_555 1_555
C47 C48 1_555 1_555

#END
