
#######################################################################
#
#                 Cambridge Crystallographic Data Centre
#                                CCDC 
#
#######################################################################
#
# If this CIF has been generated from an entry in the Cambridge 
# Structural Database, then it will include bibliographic, chemical, 
# crystal, experimental, refinement or atomic coordinate data resulting 
# from the CCDC's data processing and validation procedures.
#
#######################################################################

data_YUTGAV
_chemical_formula_moiety         'C27 H29 N1 O1'
_chemical_name_systematic        
1,2,3,6,7,8,9,10,11,12-Decahydro-1-oxa-6-aza(4,5)benzododecine-3-spiro-9'-(9',10-dihydrophenanthrene)
_symmetry_cell_setting           triclinic
_symmetry_space_group_name_H-M   'P -1'
_symmetry_Int_Tables_number      2
_space_group_name_Hall           '-P 1'
loop_
_symmetry_equiv_pos_site_id
_symmetry_equiv_pos_as_xyz
1 x,y,z
2 -x,-y,-z
_cell_length_a                   10.555(2)
_cell_length_b                   11.512(2)
_cell_length_c                   9.524(2)
_cell_angle_alpha                99.58(1)
_cell_angle_beta                 95.05(1)
_cell_angle_gamma                65.25(1)
_cell_volume                     1036.08
_exptl_crystal_colour            colorless
_chemical_melting_point          192.5-193deg.C
_cell_formula_units_Z            2
loop_
_atom_site_label
_atom_site_type_symbol
_atom_site_fract_x
_atom_site_fract_y
_atom_site_fract_z
O1 O -0.2835(1) 0.1136(1) 0.2512(1)
N1 N -0.3113(1) 0.3648(1) 0.2387(1)
C1 C -0.0522(2) 0.3697(2) 0.5877(2)
C2 C 0.0377(2) 0.4233(2) 0.6497(2)
C3 C 0.1785(2) 0.3564(2) 0.6302(2)
C4 C 0.2298(2) 0.2360(2) 0.5491(2)
C5 C 0.3263(2) -0.0381(2) 0.4069(2)
C6 C 0.3754(2) -0.1540(2) 0.3175(2)
C7 C 0.2882(2) -0.1796(2) 0.2133(2)
C8 C 0.1518(2) -0.0917(1) 0.2020(2)
C9 C -0.0535(1) 0.1230(1) 0.2830(1)
C10 C -0.0972(2) 0.1879(2) 0.4372(2)
C11 C -0.0027(1) 0.2491(1) 0.5061(1)
C12 C 0.1403(1) 0.1809(1) 0.4862(1)
C13 C 0.1899(1) 0.0538(1) 0.3954(1)
C14 C 0.0993(1) 0.0251(1) 0.2931(1)
C15 C -0.0667(1) 0.2223(1) 0.1839(1)
C16 C -0.1917(1) 0.3318(1) 0.1625(1)
C17 C -0.1927(2) 0.4108(1) 0.0652(2)
C18 C -0.0761(2) 0.3868(2) -0.0087(2)
C19 C 0.0463(2) 0.2840(2) 0.0136(2)
C20 C 0.0491(2) 0.2041(1) 0.1091(2)
C21 C -0.1386(2) 0.0435(2) 0.2250(2)
C22 C -0.3632(2) 0.0490(2) 0.1739(3)
C23 C -0.5152(2) 0.1217(2) 0.2074(3)
C24 C -0.5779(3) 0.2633(3) 0.1838(3)
C25 C -0.5635(2) 0.3535(2) 0.3195(2)
C26 C -0.5608(2) 0.4761(2) 0.2904(2)
C27 C -0.4453(2) 0.4587(2) 0.1953(2)
H1 H -0.315(2) 0.293(1) 0.257(2)
H2 H -0.152(2) 0.416(1) 0.601(2)
H3 H -0.001(2) 0.509(2) 0.702(2)
H4 H 0.246(2) 0.394(2) 0.675(2)
H5 H 0.330(2) 0.188(1) 0.532(2)
H6 H 0.387(2) -0.019(1) 0.482(2)
H7 H 0.470(2) -0.216(2) 0.325(2)
H8 H 0.322(2) -0.262(2) 0.149(2)
H9 H 0.096(1) -0.117(1) 0.126(1)
H10 H -0.196(1) 0.252(1) 0.444(1)
H11 H -0.090(1) 0.118(1) 0.493(1)
H12 H -0.279(2) 0.483(1) 0.048(2)
H13 H -0.082(2) 0.445(1) -0.075(2)
H14 H 0.135(2) 0.263(1) -0.035(2)
H15 H 0.137(1) 0.135(1) 0.123(1)
H16 H -0.125(1) 0.017(1) 0.118(2)
H17 H -0.107(1) -0.036(1) 0.273(1)
H18 H -0.348(2) 0.046(2) 0.068(2)
H19 H -0.323(2) -0.040(2) 0.199(2)
H20 H -0.567(2) 0.077(2) 0.142(2)
H21 H -0.537(2) 0.123(2) 0.315(3)
H22 H -0.670(2) 0.298(2) 0.165(2)
H23 H -0.524(2) 0.262(2) 0.095(2)
H24 H -0.469(2) 0.300(2) 0.375(2)
H25 H -0.649(2) 0.375(2) 0.389(2)
H26 H -0.657(2) 0.533(2) 0.245(2)
H27 H -0.549(2) 0.529(2) 0.391(2)
H28 H -0.442(2) 0.550(2) 0.198(2)
H29 H -0.468(2) 0.425(2) 0.095(2)
loop_
_geom_bond_atom_site_label_1
_geom_bond_atom_site_label_2
_geom_bond_site_symmetry_1
_geom_bond_site_symmetry_2
O1 C21 1_555 1_555
N1 C16 1_555 1_555
C1 C2 1_555 1_555
C2 C3 1_555 1_555
C3 C4 1_555 1_555
C4 C12 1_555 1_555
C5 C6 1_555 1_555
C6 C7 1_555 1_555
C7 C8 1_555 1_555
C8 C14 1_555 1_555
C9 C10 1_555 1_555
C10 C11 1_555 1_555
C11 C1 1_555 1_555
C12 C11 1_555 1_555
C13 C5 1_555 1_555
C14 C9 1_555 1_555
C15 C9 1_555 1_555
C16 C15 1_555 1_555
C17 C16 1_555 1_555
C18 C17 1_555 1_555
C19 C18 1_555 1_555
C20 C15 1_555 1_555
C21 C9 1_555 1_555
C22 O1 1_555 1_555
C23 C22 1_555 1_555
C24 C23 1_555 1_555
C25 C24 1_555 1_555
C26 C25 1_555 1_555
C27 N1 1_555 1_555
H1 N1 1_555 1_555
H2 C1 1_555 1_555
H3 C2 1_555 1_555
H4 C3 1_555 1_555
H5 C4 1_555 1_555
H6 C5 1_555 1_555
H7 C6 1_555 1_555
H8 C7 1_555 1_555
H9 C8 1_555 1_555
H10 C10 1_555 1_555
H11 C10 1_555 1_555
H12 C17 1_555 1_555
H13 C18 1_555 1_555
H14 C19 1_555 1_555
H15 C20 1_555 1_555
H16 C21 1_555 1_555
H17 C21 1_555 1_555
H18 C22 1_555 1_555
H19 C22 1_555 1_555
H20 C23 1_555 1_555
H21 C23 1_555 1_555
H22 C24 1_555 1_555
H23 C24 1_555 1_555
H24 C25 1_555 1_555
H25 C25 1_555 1_555
H26 C26 1_555 1_555
H27 C26 1_555 1_555
H28 C27 1_555 1_555
H29 C27 1_555 1_555
C12 C13 1_555 1_555
C13 C14 1_555 1_555
C19 C20 1_555 1_555
C26 C27 1_555 1_555

#END
