
#######################################################################
#
#                 Cambridge Crystallographic Data Centre
#                                CCDC 
#
#######################################################################
#
# If this CIF has been generated from an entry in the Cambridge 
# Structural Database, then it will include bibliographic, chemical, 
# crystal, experimental, refinement or atomic coordinate data resulting 
# from the CCDC's data processing and validation procedures.
#
#######################################################################

data_YUTQUA
_chemical_formula_moiety         'C23 H21 Br1 O5'
_chemical_name_systematic        
5-(1-(4-((3-Bromobenzyl)oxy)phenyl)but-2-yn-1-yl)-2,2-dimethyl-1,3-dioxane-4,6-dione
_symmetry_cell_setting           orthorhombic
_symmetry_space_group_name_H-M   'P 21 21 21'
_symmetry_Int_Tables_number      19
_space_group_name_Hall           'P 2ac 2ab'
loop_
_symmetry_equiv_pos_site_id
_symmetry_equiv_pos_as_xyz
1 x,y,z
2 1/2+x,1/2-y,-z
3 -x,1/2+y,1/2-z
4 1/2-x,-y,1/2+z
_cell_length_a                   5.55360(10)
_cell_length_b                   8.6287(2)
_cell_length_c                   42.4623(7)
_cell_angle_alpha                90
_cell_angle_beta                 90
_cell_angle_gamma                90
_cell_volume                     2034.81
_exptl_crystal_colour            colorless
_exptl_crystal_description       needle
_cell_formula_units_Z            4
loop_
_atom_site_label
_atom_site_type_symbol
_atom_site_fract_x
_atom_site_fract_y
_atom_site_fract_z
Br1 Br 0.34167(9) 0.36588(7) -0.118061(10)
O1 O 0.7791(5) 0.5786(4) 0.01573(6)
O2 O 0.7753(4) 0.5036(3) 0.22439(5)
O3 O 0.4703(4) 0.3910(3) 0.19355(5)
O4 O 0.9907(5) 0.6981(3) 0.20674(6)
O5 O 0.3764(5) 0.4849(3) 0.14753(6)
C1 C 0.5524(7) 0.3643(5) -0.08228(8)
C2 C 0.4921(7) 0.4588(5) -0.05708(9)
H1 H 0.3535 0.5232 -0.0579
C3 C 0.6383(7) 0.4573(4) -0.03055(8)
C4 C 0.8418(7) 0.3652(5) -0.03039(9)
H2 H 0.9431 0.3638 -0.0124
C5 C 0.8996(7) 0.2742(5) -0.05646(11)
H3 H 1.0407 0.2119 -0.0562
C6 C 0.7521(8) 0.2744(5) -0.08272(9)
H4 H 0.7900 0.2130 -0.1006
C7 C 0.5703(7) 0.5553(5) -0.00255(9)
H5 H 0.5051 0.6561 -0.0097
H6 H 0.4454 0.5021 0.0101
C8 C 0.7565(6) 0.6136(5) 0.04739(8)
C9 C 0.5639(6) 0.6914(5) 0.06060(8)
H7 H 0.4329 0.7241 0.0478
C10 C 0.5642(6) 0.7214(4) 0.09287(8)
H8 H 0.4325 0.7754 0.1020
C11 C 0.7514(6) 0.6742(4) 0.11161(8)
C12 C 0.9438(6) 0.5982(5) 0.09777(9)
H9 H 1.0768 0.5673 0.1104
C13 C 0.9447(7) 0.5667(5) 0.06587(9)
H10 H 1.0762 0.5124 0.0568
C14 C 0.7644(6) 0.7069(4) 0.14715(8)
H11 H 0.9234 0.7581 0.1509
C15 C 0.5816(7) 0.8150(4) 0.15881(8)
C16 C 0.4339(7) 0.9016(4) 0.16889(8)
C17 C 0.2541(7) 1.0113(5) 0.18077(9)
H12 H 0.2701 1.1101 0.1696
H13 H 0.2796 1.0279 0.2034
H14 H 0.0924 0.9691 0.1773
C18 C 0.7641(6) 0.5570(4) 0.16778(8)
H15 H 0.8817 0.4835 0.1580
C19 C 0.5219(6) 0.4768(4) 0.16793(8)
C20 C 0.8565(6) 0.5940(4) 0.20074(7)
C21 C 0.6475(6) 0.3630(4) 0.21779(7)
C22 C 0.8194(7) 0.2378(5) 0.20815(9)
H16 H 0.9207 0.2751 0.1908
H17 H 0.7286 0.1466 0.2012
H18 H 0.9212 0.2098 0.2261
C23 C 0.5049(8) 0.3247(5) 0.24700(9)
H19 H 0.6155 0.3059 0.2646
H20 H 0.4080 0.2316 0.2432
H21 H 0.3985 0.4116 0.2522
loop_
_geom_bond_atom_site_label_1
_geom_bond_atom_site_label_2
_geom_bond_site_symmetry_1
_geom_bond_site_symmetry_2
Br1 C1 1_555 1_555
O1 C7 1_555 1_555
O2 C20 1_555 1_555
O3 C19 1_555 1_555
O4 C20 1_555 1_555
O5 C19 1_555 1_555
C1 C2 1_555 1_555
C2 H1 1_555 1_555
C3 C2 1_555 1_555
C4 C3 1_555 1_555
H2 C4 1_555 1_555
C5 C4 1_555 1_555
H3 C5 1_555 1_555
C6 C1 1_555 1_555
H4 C6 1_555 1_555
C7 C3 1_555 1_555
H5 C7 1_555 1_555
H6 C7 1_555 1_555
C8 O1 1_555 1_555
C9 C8 1_555 1_555
H7 C9 1_555 1_555
C10 C9 1_555 1_555
H8 C10 1_555 1_555
C11 C10 1_555 1_555
C12 C11 1_555 1_555
H9 C12 1_555 1_555
C13 C8 1_555 1_555
H10 C13 1_555 1_555
C14 C11 1_555 1_555
H11 C14 1_555 1_555
C15 C14 1_555 1_555
C16 C15 1_555 1_555
C17 C16 1_555 1_555
H12 C17 1_555 1_555
H13 C17 1_555 1_555
H14 C17 1_555 1_555
C18 C14 1_555 1_555
H15 C18 1_555 1_555
C19 C18 1_555 1_555
C20 C18 1_555 1_555
C21 O2 1_555 1_555
C22 C21 1_555 1_555
H16 C22 1_555 1_555
H17 C22 1_555 1_555
H18 C22 1_555 1_555
C23 C21 1_555 1_555
H19 C23 1_555 1_555
H20 C23 1_555 1_555
H21 C23 1_555 1_555
O3 C21 1_555 1_555
C5 C6 1_555 1_555
C12 C13 1_555 1_555

#END
