
#######################################################################
#
#                 Cambridge Crystallographic Data Centre
#                                CCDC 
#
#######################################################################
#
# If this CIF has been generated from an entry in the Cambridge 
# Structural Database, then it will include bibliographic, chemical, 
# crystal, experimental, refinement or atomic coordinate data resulting 
# from the CCDC's data processing and validation procedures.
#
#######################################################################

data_YUTTIS
_chemical_formula_moiety         'C9 H20 N1 O1 1+,C1 F3 O3 S1 1-'
_chemical_name_systematic        
'1-hydroxy-2,2,6,6-tetramethylpiperidinium trifluoromethanesulfonate'
_symmetry_cell_setting           triclinic
_symmetry_space_group_name_H-M   'P -1'
_symmetry_Int_Tables_number      2
_space_group_name_Hall           '-P 1'
loop_
_symmetry_equiv_pos_site_id
_symmetry_equiv_pos_as_xyz
1 x,y,z
2 -x,-y,-z
_cell_length_a                   8.2824(2)
_cell_length_b                   8.7656(2)
_cell_length_c                   10.5703(3)
_cell_angle_alpha                79.5417(7)
_cell_angle_beta                 76.5159(7)
_cell_angle_gamma                75.5022(6)
_cell_volume                     716.282
_exptl_crystal_colour            colorless
_exptl_crystal_description       prism
_cell_formula_units_Z            2
loop_
_atom_site_label
_atom_site_type_symbol
_atom_site_fract_x
_atom_site_fract_y
_atom_site_fract_z
C1 C 0.96872(15) 0.80108(15) 0.28534(12)
C2 C 0.96590(19) 0.86192(17) 0.14106(13)
H1 H 0.8640 0.9487 0.1352
H2 H 1.0673 0.9072 0.1019
C3 C 0.9637(2) 0.7356(2) 0.06137(14)
H3 H 1.0691 0.6517 0.0611
H4 H 0.9595 0.7834 -0.0305
C4 C 0.8101(2) 0.66311(19) 0.11958(15)
H5 H 0.8100 0.5820 0.0655
H6 H 0.7057 0.7472 0.1151
C5 C 0.80421(17) 0.58576(15) 0.26184(13)
C6 C 1.13968(18) 0.69450(19) 0.30494(17)
H7 H 1.2234 0.7600 0.2937
H8 H 1.1782 0.6194 0.2402
H9 H 1.1273 0.6356 0.3936
C7 C 0.92379(19) 0.93950(17) 0.36579(16)
H10 H 0.9328 0.8983 0.4571
H11 H 0.8072 0.9985 0.3625
H12 H 1.0026 1.0105 0.3294
C8 C 0.6305(2) 0.5497(2) 0.3250(2)
H13 H 0.6018 0.4827 0.2724
H14 H 0.5446 0.6494 0.3293
H15 H 0.6334 0.4938 0.4138
C9 C 0.94213(19) 0.43502(16) 0.27559(15)
H16 H 0.9560 0.4085 0.3671
H17 H 1.0498 0.4523 0.2192
H18 H 0.9093 0.3473 0.2493
N1 N 0.82282(12) 0.71302(11) 0.33670(9)
O1 O 0.82554(13) 0.64554(11) 0.46877(8)
H19 H 0.745(3) 0.700(2) 0.516(2)
H20 H 0.730(2) 0.7873(18) 0.3356(15)
C10 C 0.48030(17) 0.77783(16) 0.86989(13)
F1 F 0.32733(11) 0.76163(11) 0.86237(9)
F2 F 0.57731(13) 0.63247(11) 0.88758(10)
F3 F 0.46049(15) 0.84651(13) 0.97606(9)
O2 O 0.74038(13) 0.88719(14) 0.74267(14)
O3 O 0.45998(13) 1.04716(11) 0.72367(10)
O4 O 0.56749(14) 0.80767(14) 0.61969(10)
S1 S 0.57433(4) 0.89340(4) 0.72262(3)
loop_
_geom_bond_atom_site_label_1
_geom_bond_atom_site_label_2
_geom_bond_site_symmetry_1
_geom_bond_site_symmetry_2
C1 C2 1_555 1_555
C2 H1 1_555 1_555
H2 C2 1_555 1_555
C3 C2 1_555 1_555
H3 C3 1_555 1_555
H4 C3 1_555 1_555
C4 C3 1_555 1_555
H5 C4 1_555 1_555
H6 C4 1_555 1_555
C5 C4 1_555 1_555
C6 C1 1_555 1_555
H7 C6 1_555 1_555
H8 C6 1_555 1_555
H9 C6 1_555 1_555
C7 C1 1_555 1_555
H10 C7 1_555 1_555
H11 C7 1_555 1_555
H12 C7 1_555 1_555
C8 C5 1_555 1_555
H13 C8 1_555 1_555
H14 C8 1_555 1_555
H15 C8 1_555 1_555
C9 C5 1_555 1_555
H16 C9 1_555 1_555
H17 C9 1_555 1_555
H18 C9 1_555 1_555
N1 C1 1_555 1_555
O1 N1 1_555 1_555
H19 O1 1_555 1_555
H20 N1 1_555 1_555
C10 F1 1_555 1_555
F2 C10 1_555 1_555
F3 C10 1_555 1_555
O2 S1 1_555 1_555
O3 S1 1_555 1_555
O4 S1 1_555 1_555
S1 C10 1_555 1_555
C5 N1 1_555 1_555

#END
