
#######################################################################
#
#                 Cambridge Crystallographic Data Centre
#                                CCDC 
#
#######################################################################
#
# If this CIF has been generated from an entry in the Cambridge 
# Structural Database, then it will include bibliographic, chemical, 
# crystal, experimental, refinement or atomic coordinate data resulting 
# from the CCDC's data processing and validation procedures.
#
#######################################################################

data_YUVHED
_chemical_formula_moiety         'C15 H18 Cl2 O3'
_chemical_name_systematic        
(25R)-5-(3,3-Dichloro-1-hydroxy-2-(2-methylphenyl)propyl)-3-methyldihydrofuran-2(3H)-one
_symmetry_cell_setting           monoclinic
_symmetry_space_group_name_H-M   'P 21/n'
_symmetry_Int_Tables_number      14
_space_group_name_Hall           '-P 2yn'
loop_
_symmetry_equiv_pos_site_id
_symmetry_equiv_pos_as_xyz
1 x,y,z
2 1/2-x,1/2+y,1/2-z
3 -x,-y,-z
4 1/2+x,1/2-y,1/2+z
_cell_length_a                   7.0000(7)
_cell_length_b                   17.7274(16)
_cell_length_c                   12.3192(14)
_cell_angle_alpha                90
_cell_angle_beta                 92.187(4)
_cell_angle_gamma                90
_cell_volume                     1527.6
_exptl_crystal_colour            colorless
_exptl_crystal_description       plate
_cell_formula_units_Z            4
loop_
_atom_site_label
_atom_site_type_symbol
_atom_site_fract_x
_atom_site_fract_y
_atom_site_fract_z
Cl1 Cl 0.1596(3) 0.25740(9) 0.35304(13)
Cl2 Cl 0.0825(2) 0.41347(9) 0.30312(14)
O1 O 0.4425(4) 0.38289(19) -0.0121(3)
O2 O -0.0661(5) 0.3524(2) 0.0371(3)
H1 H -0.0827 0.3452 -0.0284
O3 O 0.6844(5) 0.4459(2) -0.0796(3)
C1 C 0.0838(8) 0.3200(3) 0.2472(5)
H2 H -0.0475 0.3068 0.2242
C2 C 0.2067(7) 0.3158(3) 0.1493(4)
H3 H 0.3347 0.3334 0.1724
C3 C 0.2270(8) 0.2345(3) 0.1119(4)
C4 C 0.0741(8) 0.1952(4) 0.0636(5)
H4 H -0.0435 0.2193 0.0546
C5 C 0.0916(12) 0.1220(4) 0.0288(5)
H5 H -0.0122 0.0971 -0.0042
C6 C 0.2636(13) 0.0862(4) 0.0433(6)
H6 H 0.2766 0.0365 0.0208
C7 C 0.4182(11) 0.1233(4) 0.0911(6)
H7 H 0.5341 0.0981 0.1006
C8 C 0.4041(8) 0.1979(4) 0.1255(5)
C9 C 0.5783(8) 0.2353(3) 0.1748(6)
H8 H 0.6835 0.2005 0.1759
H9 H 0.5537 0.2507 0.2477
H10 H 0.6095 0.2787 0.1324
C10 C 0.1314(6) 0.3698(3) 0.0609(4)
H11 H 0.1397 0.4214 0.0892
C11 C 0.2427(7) 0.3658(3) -0.0431(4)
H12 H 0.2331 0.3150 -0.0743
C12 C 0.1886(7) 0.4239(3) -0.1286(4)
H13 H 0.1384 0.4692 -0.0960
H14 H 0.0945 0.4041 -0.1809
C13 C 0.3787(7) 0.4395(3) -0.1814(5)
H15 H 0.3965 0.3994 -0.2349
C14 C 0.5229(9) 0.4255(3) -0.0886(5)
C15 C 0.4043(8) 0.5128(4) -0.2388(5)
H16 H 0.3080 0.5178 -0.2960
H17 H 0.5286 0.5142 -0.2692
H18 H 0.3927 0.5536 -0.1882
loop_
_geom_bond_atom_site_label_1
_geom_bond_atom_site_label_2
_geom_bond_site_symmetry_1
_geom_bond_site_symmetry_2
Cl1 C1 1_555 1_555
Cl2 C1 1_555 1_555
O1 C11 1_555 1_555
O2 H1 1_555 1_555
O3 C14 1_555 1_555
C1 H2 1_555 1_555
C2 C1 1_555 1_555
H3 C2 1_555 1_555
C3 C2 1_555 1_555
C4 C3 1_555 1_555
H4 C4 1_555 1_555
C5 C4 1_555 1_555
H5 C5 1_555 1_555
C6 C5 1_555 1_555
H6 C6 1_555 1_555
C7 C6 1_555 1_555
H7 C7 1_555 1_555
C8 C3 1_555 1_555
C9 C8 1_555 1_555
H8 C9 1_555 1_555
H9 C9 1_555 1_555
H10 C9 1_555 1_555
C10 O2 1_555 1_555
H11 C10 1_555 1_555
C11 C10 1_555 1_555
H12 C11 1_555 1_555
C12 C11 1_555 1_555
H13 C12 1_555 1_555
H14 C12 1_555 1_555
C13 C12 1_555 1_555
H15 C13 1_555 1_555
C14 O1 1_555 1_555
C15 C13 1_555 1_555
H16 C15 1_555 1_555
H17 C15 1_555 1_555
H18 C15 1_555 1_555
C2 C10 1_555 1_555
C7 C8 1_555 1_555
C13 C14 1_555 1_555

#END
