
#######################################################################
#
#                 Cambridge Crystallographic Data Centre
#                                CCDC 
#
#######################################################################
#
# If this CIF has been generated from an entry in the Cambridge 
# Structural Database, then it will include bibliographic, chemical, 
# crystal, experimental, refinement or atomic coordinate data resulting 
# from the CCDC's data processing and validation procedures.
#
#######################################################################

data_YUVHIH
_chemical_formula_moiety         'C15 H18 Cl2 O3'
_chemical_name_systematic        
(25S)-5-(3,3-Dichloro-1-hydroxy-2-(2-methylphenyl)propyl)-3-methyldihydrofuran-2(3H)-one
_symmetry_cell_setting           triclinic
_symmetry_space_group_name_H-M   'P -1'
_symmetry_Int_Tables_number      2
_space_group_name_Hall           '-P 1'
loop_
_symmetry_equiv_pos_site_id
_symmetry_equiv_pos_as_xyz
1 x,y,z
2 -x,-y,-z
_cell_length_a                   7.2623(4)
_cell_length_b                   8.6146(4)
_cell_length_c                   12.9699(9)
_cell_angle_alpha                105.490(2)
_cell_angle_beta                 88.947(2)
_cell_angle_gamma                93.441(4)
_cell_volume                     780.535
_exptl_crystal_colour            colorless
_exptl_crystal_description       plate
_cell_formula_units_Z            2
loop_
_atom_site_label
_atom_site_type_symbol
_atom_site_fract_x
_atom_site_fract_y
_atom_site_fract_z
Cl1 Cl 1.00814(17) -0.14719(13) 0.79080(11)
Cl2 Cl 0.89118(19) -0.12669(14) 0.58528(10)
O1 O 1.0432(4) 0.2619(3) 0.8924(3)
H1 H 1.1129 0.2114 0.9186
O2 O 0.5435(3) 0.2562(3) 0.9204(2)
O3 O 0.3167(4) 0.1629(4) 1.0070(3)
C1 C 0.9558(5) -0.0108(5) 0.7149(4)
H2 H 1.0686 0.0545 0.7087
C2 C 0.8103(5) 0.1014(4) 0.7684(3)
H3 H 0.6961 0.0354 0.7697
C3 C 0.7749(5) 0.2158(4) 0.6986(3)
C4 C 0.9160(6) 0.3290(5) 0.6882(3)
H4 H 1.0263 0.3363 0.7250
C5 C 0.8908(8) 0.4301(5) 0.6229(4)
H5 H 0.9843 0.5056 0.6164
C6 C 0.7303(9) 0.4197(6) 0.5682(4)
H6 H 0.7150 0.4864 0.5236
C7 C 0.5911(7) 0.3101(6) 0.5792(4)
H7 H 0.4813 0.3054 0.5424
C8 C 0.6087(5) 0.2059(5) 0.6437(3)
C9 C 0.4516(6) 0.0902(6) 0.6531(4)
H8 H 0.3507 0.1031 0.6099
H9 H 0.4128 0.1115 0.7265
H10 H 0.4905 -0.0181 0.6291
C10 C 0.8623(5) 0.1863(4) 0.8853(3)
H11 H 0.8583 0.1056 0.9262
C11 C 0.7352(5) 0.3195(4) 0.9391(3)
H12 H 0.7575 0.4126 0.9096
C12 C 0.7504(6) 0.3728(5) 1.0608(3)
H13 H 0.8728 0.3577 1.0837
H14 H 0.7236 0.4854 1.0883
C13 C 0.6077(5) 0.2648(4) 1.0975(3)
H15 H 0.6661 0.1665 1.1006
C14 C 0.4717(6) 0.2214(5) 1.0077(3)
C15 C 0.5215(7) 0.3371(7) 1.2058(4)
H16 H 0.4351 0.2590 1.2232
H17 H 0.4586 0.4309 1.2035
H18 H 0.6163 0.3670 1.2593
loop_
_geom_bond_atom_site_label_1
_geom_bond_atom_site_label_2
_geom_bond_site_symmetry_1
_geom_bond_site_symmetry_2
Cl1 C1 1_555 1_555
Cl2 C1 1_555 1_555
O1 H1 1_555 1_555
O2 C11 1_555 1_555
O3 C14 1_555 1_555
C1 H2 1_555 1_555
C2 C1 1_555 1_555
H3 C2 1_555 1_555
C3 C2 1_555 1_555
C4 C3 1_555 1_555
H4 C4 1_555 1_555
C5 C4 1_555 1_555
H5 C5 1_555 1_555
C6 C5 1_555 1_555
H6 C6 1_555 1_555
C7 C6 1_555 1_555
H7 C7 1_555 1_555
C8 C3 1_555 1_555
C9 C8 1_555 1_555
H8 C9 1_555 1_555
H9 C9 1_555 1_555
H10 C9 1_555 1_555
C10 O1 1_555 1_555
H11 C10 1_555 1_555
C11 C10 1_555 1_555
H12 C11 1_555 1_555
C12 C11 1_555 1_555
H13 C12 1_555 1_555
H14 C12 1_555 1_555
C13 C12 1_555 1_555
H15 C13 1_555 1_555
C14 O2 1_555 1_555
C15 C13 1_555 1_555
H16 C15 1_555 1_555
H17 C15 1_555 1_555
H18 C15 1_555 1_555
C2 C10 1_555 1_555
C7 C8 1_555 1_555
C13 C14 1_555 1_555

#END
