
#######################################################################
#
#                 Cambridge Crystallographic Data Centre
#                                CCDC 
#
#######################################################################
#
# If this CIF has been generated from an entry in the Cambridge 
# Structural Database, then it will include bibliographic, chemical, 
# crystal, experimental, refinement or atomic coordinate data resulting 
# from the CCDC's data processing and validation procedures.
#
#######################################################################

data_YUVQOX
_chemical_formula_moiety         'C43 H40 N2 S2,C4 H10 O1'
_chemical_name_systematic        
'4,5-bis(2-methyl-5-phenylthiophen-3-yl)-1,3-bis(2,4,6-trimethylphenyl)-1,3-dihydro-2H-imidazol-2-ylidene radical diethyl ether solvate'
_symmetry_cell_setting           orthorhombic
_symmetry_space_group_name_H-M   'I b a 2'
_symmetry_Int_Tables_number      45
_space_group_name_Hall           'I 2 -2c'
loop_
_symmetry_equiv_pos_site_id
_symmetry_equiv_pos_as_xyz
1 x,y,z
2 -x,-y,z
3 -x,y,1/2+z
4 x,-y,1/2+z
5 1/2+x,1/2+y,1/2+z
6 1/2-x,1/2-y,1/2+z
7 1/2-x,1/2+y,z
8 1/2+x,1/2-y,z
_cell_length_a                   22.4800(16)
_cell_length_b                   45.496(3)
_cell_length_c                   15.6977(10)
_cell_angle_alpha                90
_cell_angle_beta                 90
_cell_angle_gamma                90
_cell_volume                     16054.8
_exptl_crystal_colour            colorless
_exptl_crystal_description       plate
_cell_formula_units_Z            16
loop_
_atom_site_label
_atom_site_type_symbol
_atom_site_fract_x
_atom_site_fract_y
_atom_site_fract_z
C1 C 1.0000 1.0000 0.3335(5)
C2 C 0.9773(3) 0.98993(13) 0.4759(4)
C3 C 0.9490(3) 0.97403(13) 0.5457(4)
C4 C 0.9170(3) 0.96570(14) 0.3598(4)
C5 C 0.8623(3) 0.97882(15) 0.3387(4)
C6 C 0.8178(3) 0.95972(14) 0.3102(4)
H1 H 0.7810 0.9675 0.2953
C7 C 0.8261(3) 0.92994(15) 0.3033(4)
C8 C 0.8812(3) 0.91824(14) 0.3249(4)
H2 H 0.8875 0.8981 0.3192
C9 C 0.9271(3) 0.93603(14) 0.3550(4)
C10 C 0.8519(3) 1.01092(14) 0.3476(4)
H3 H 0.8530 1.0162 0.4067
H4 H 0.8137 1.0158 0.3243
H5 H 0.8823 1.0215 0.3174
C11 C 0.7765(3) 0.91050(15) 0.2699(4)
H6 H 0.7388 0.9190 0.2841
H7 H 0.7796 0.8914 0.2954
H8 H 0.7799 0.9088 0.2092
C12 C 0.9859(3) 0.92271(15) 0.3796(5)
H9 H 1.0175 0.9332 0.3518
H10 H 0.9868 0.9025 0.3624
H11 H 0.9909 0.9240 0.4402
C13 C 1.0447(3) 0.96064(15) 0.6289(4)
H12 H 1.0661 0.9607 0.5760
H13 H 1.0545 0.9432 0.6604
H14 H 1.0555 0.9776 0.6616
C14 C 0.9794(3) 0.96118(14) 0.6113(4)
C15 C 0.8858(3) 0.96970(13) 0.5539(4)
H15 H 0.8586 0.9770 0.5146
C16 C 0.8693(3) 0.95433(14) 0.6225(4)
C17 C 0.8084(3) 0.94687(13) 0.6527(4)
C18 C 0.7610(3) 0.96392(15) 0.6242(4)
H16 H 0.7679 0.9792 0.5862
C19 C 0.7039(3) 0.95831(16) 0.6521(4)
H17 H 0.6725 0.9696 0.6321
C20 C 0.6934(3) 0.93605(15) 0.7094(5)
H18 H 0.6548 0.9324 0.7283
C21 C 0.7392(3) 0.91932(15) 0.7385(4)
H19 H 0.7322 0.9042 0.7771
C22 C 0.7972(3) 0.92506(14) 0.7098(4)
H20 H 0.8285 0.9137 0.7302
N1 N 0.9644(2) 0.98495(11) 0.3892(3)
S1 S 0.93131(7) 0.94402(4) 0.68099(10)
C2A C 1.0227(3) 1.01007(13) 0.4759(4)
C3A C 1.0510(3) 1.02597(13) 0.5457(4)
C4A C 1.0830(3) 1.03430(14) 0.3598(4)
C5A C 1.1377(3) 1.02118(15) 0.3387(4)
C6A C 1.1822(3) 1.04028(14) 0.3102(4)
H1A H 1.2190 1.0325 0.2953
C7A C 1.1739(3) 1.07006(15) 0.3033(4)
C8A C 1.1188(3) 1.08176(14) 0.3249(4)
H2A H 1.1125 1.1019 0.3192
C9A C 1.0729(3) 1.06397(14) 0.3550(4)
C10A C 1.1481(3) 0.98908(14) 0.3476(4)
H3A H 1.1470 0.9838 0.4067
H4A H 1.1863 0.9842 0.3243
H5A H 1.1177 0.9785 0.3174
C11A C 1.2235(3) 1.08950(15) 0.2699(4)
H6A H 1.2612 1.0810 0.2841
H7A H 1.2204 1.1086 0.2954
H8A H 1.2201 1.0912 0.2092
C12A C 1.0141(3) 1.07729(15) 0.3796(5)
H9A H 0.9825 1.0668 0.3518
H10A H 1.0132 1.0975 0.3624
H11A H 1.0091 1.0760 0.4402
C13A C 0.9553(3) 1.03936(15) 0.6289(4)
H12A H 0.9339 1.0393 0.5760
H13A H 0.9455 1.0568 0.6604
H14A H 0.9445 1.0224 0.6616
C14A C 1.0206(3) 1.03882(14) 0.6113(4)
C15A C 1.1142(3) 1.03030(13) 0.5539(4)
H15A H 1.1414 1.0230 0.5146
C16A C 1.1307(3) 1.04567(14) 0.6225(4)
C17A C 1.1916(3) 1.05313(13) 0.6527(4)
C18A C 1.2390(3) 1.03608(15) 0.6242(4)
H16A H 1.2321 1.0208 0.5862
C19A C 1.2961(3) 1.04169(16) 0.6521(4)
H17A H 1.3275 1.0304 0.6321
C20A C 1.3066(3) 1.06395(15) 0.7094(5)
H18A H 1.3452 1.0676 0.7283
C21A C 1.2608(3) 1.08068(15) 0.7385(4)
H19A H 1.2678 1.0958 0.7771
C22A C 1.2028(3) 1.07494(14) 0.7098(4)
H20A H 1.1715 1.0863 0.7302
N1A N 1.0356(2) 1.01505(11) 0.3892(3)
S1A S 1.06869(7) 1.05598(4) 0.68099(10)
C23 C 0.7434(3) 0.69938(13) 0.3249(4)
C24 C 0.8317(3) 0.65932(14) 0.4758(4)
C25 C 0.8910(3) 0.65047(14) 0.4579(4)
C26 C 0.9233(3) 0.63844(14) 0.5250(5)
H21 H 0.9625 0.6328 0.5154
C27 C 0.8995(4) 0.63448(15) 0.6055(5)
C28 C 0.8419(4) 0.64332(16) 0.6200(4)
H22 H 0.8258 0.6409 0.6740
C29 C 0.8070(3) 0.65587(15) 0.5561(5)
C30 C 0.9158(3) 0.65292(15) 0.3698(4)
H23 H 0.9584 0.6513 0.3720
H24 H 0.9051 0.6716 0.3459
H25 H 0.8999 0.6375 0.3350
C31 C 0.9356(4) 0.62109(18) 0.6778(6)
H26 H 0.9377 0.6348 0.7243
H27 H 0.9751 0.6168 0.6580
H28 H 0.9169 0.6033 0.6967
C32 C 0.7431(3) 0.66440(19) 0.5720(5)
H29 H 0.7387 0.6852 0.5647
H30 H 0.7322 0.6591 0.6290
H31 H 0.7179 0.6543 0.5322
C33 C 0.6981(3) 0.65913(13) 0.2360(4)
C34 C 0.6856(4) 0.64790(14) 0.0897(4)
H32 H 0.7005 0.6474 0.0344
C35 C 0.6288(4) 0.63710(15) 0.1057(5)
C36 C 0.6079(3) 0.63737(14) 0.1882(5)
H33 H 0.5700 0.6300 0.1992
C37 C 0.6412(3) 0.64814(13) 0.2551(4)
C38 C 0.7831(3) 0.67086(17) 0.1360(5)
H34 H 0.7933 0.6667 0.0778
H35 H 0.8111 0.6614 0.1731
H36 H 0.7843 0.6917 0.1455
C39 C 0.5932(5) 0.62360(19) 0.0340(6)
H37 H 0.6198 0.6155 -0.0076
H38 H 0.5690 0.6384 0.0078
H39 H 0.5682 0.6083 0.0563
C40 C 0.6200(3) 0.64636(17) 0.3461(5)
H40 H 0.5805 0.6384 0.3474
H41 H 0.6199 0.6657 0.3707
H42 H 0.6462 0.6338 0.3780
C41 C 0.7058(3) 0.75018(15) 0.4744(4)
H43 H 0.6929 0.7621 0.4275
H44 H 0.6939 0.7592 0.5269
H45 H 0.6881 0.7310 0.4700
C42 C 0.7723(3) 0.74730(13) 0.4722(4)
C43 C 0.8055(3) 0.72486(13) 0.4389(4)
C44 C 0.8680(3) 0.72944(14) 0.4524(4)
H46 H 0.8969 0.7160 0.4360
C45 C 0.8808(3) 0.75519(13) 0.4911(4)
C46 C 0.9396(3) 0.76802(16) 0.5128(5)
C47 C 0.9899(4) 0.75576(19) 0.4770(6)
H47 H 0.9865 0.7393 0.4420
C48 C 1.0462(4) 0.7679(3) 0.4931(8)
H48 H 1.0799 0.7598 0.4681
C49 C 1.0511(4) 0.7916(2) 0.5455(7)
H49 H 1.0885 0.7995 0.5566
C50 C 1.0010(4) 0.80414(18) 0.5828(5)
H50 H 1.0047 0.8202 0.6191
C51 C 0.9452(3) 0.79234(16) 0.5648(4)
H51 H 0.9114 0.8009 0.5882
C52 C 0.8120(3) 0.75183(15) 0.2403(5)
H52 H 0.8238 0.7640 0.2874
H53 H 0.8220 0.7614 0.1878
H54 H 0.8323 0.7333 0.2435
C53 C 0.7456(3) 0.74674(14) 0.2439(4)
C54 C 0.7151(3) 0.72384(13) 0.2789(4)
C55 C 0.6519(3) 0.72755(14) 0.2715(4)
H55 H 0.6245 0.7141 0.2926
C56 C 0.6359(3) 0.75269(14) 0.2305(4)
C57 C 0.5757(3) 0.76480(14) 0.2188(4)
C58 C 0.5272(3) 0.75043(17) 0.2527(6)
H56 H 0.5324 0.7328 0.2818
C59 C 0.4702(3) 0.76236(19) 0.2435(6)
H57 H 0.4377 0.7525 0.2663
C60 C 0.4620(3) 0.78812(17) 0.2018(6)
H58 H 0.4241 0.7962 0.1971
C61 C 0.5094(3) 0.80210(16) 0.1670(5)
H59 H 0.5039 0.8196 0.1376
C62 C 0.5661(3) 0.79038(16) 0.1749(5)
H60 H 0.5982 0.8000 0.1499
C63 C 0.7666(3) 0.65087(12) 0.3550(4)
C64 C 0.7817(3) 0.69979(13) 0.3920(4)
C65 C 0.7205(3) 0.65936(14) 0.1546(4)
N2 N 0.7342(2) 0.66972(10) 0.3050(3)
N3 N 0.7956(2) 0.67022(10) 0.4069(3)
S2 S 0.81606(7) 0.77417(4) 0.51526(11)
S3 S 0.69789(7) 0.77222(4) 0.20128(11)
C66 C 0.5000 1.0000 0.3928(5)
C67 C 0.5210(3) 0.98951(12) 0.2521(4)
C68 C 0.5760(3) 0.96260(13) 0.3694(3)
C69 C 0.6322(3) 0.97283(15) 0.3960(4)
C70 C 0.6705(3) 0.95157(17) 0.4306(4)
H61 H 0.7080 0.9575 0.4485
C71 C 0.6558(4) 0.92283(17) 0.4394(4)
C72 C 0.6002(4) 0.91338(16) 0.4094(4)
H62 H 0.5901 0.8936 0.4129
C73 C 0.5599(3) 0.93344(14) 0.3743(4)
C74 C 0.6498(3) 1.00427(15) 0.3886(4)
H63 H 0.6910 1.0064 0.4037
H64 H 0.6259 1.0159 0.4264
H65 H 0.6440 1.0108 0.3311
C75 C 0.6977(5) 0.90084(19) 0.4804(5)
H66 H 0.7357 0.9016 0.4524
H67 H 0.6815 0.8814 0.4752
H68 H 0.7026 0.9056 0.5396
C76 C 0.5002(3) 0.92367(14) 0.3429(4)
H69 H 0.4700 0.9363 0.3658
H70 H 0.4930 0.9038 0.3609
H71 H 0.4993 0.9246 0.2818
C77 C 0.4522(3) 0.96152(15) 0.0993(4)
H72 H 0.4319 0.9670 0.1507
H73 H 0.4393 0.9424 0.0816
H74 H 0.4433 0.9755 0.0554
C78 C 0.5179(3) 0.96107(13) 0.1151(4)
C79 C 0.5487(2) 0.97329(13) 0.1817(4)
C80 C 0.6121(3) 0.96819(13) 0.1743(4)
H75 H 0.6398 0.9747 0.2141
C81 C 0.6270(3) 0.95272(13) 0.1026(4)
C82 C 0.6870(3) 0.94491(14) 0.0725(4)
C83 C 0.7363(3) 0.96008(16) 0.1038(4)
H76 H 0.7313 0.9747 0.1448
C84 C 0.7933(3) 0.95331(17) 0.0735(5)
H77 H 0.8261 0.9633 0.0950
C85 C 0.8011(3) 0.93225(15) 0.0127(4)
H78 H 0.8390 0.9282 -0.0080
C86 C 0.7528(3) 0.91693(15) -0.0179(4)
H79 H 0.7585 0.9023 -0.0585
C87 C 0.6960(3) 0.92304(13) 0.0109(4)
H80 H 0.6637 0.9126 -0.0106
N4 N 0.5340(2) 0.98383(10) 0.3381(3)
S4 S 0.56474(7) 0.94429(4) 0.04450(9)
C67A C 0.4790(3) 1.01049(12) 0.2521(4)
C68A C 0.4240(3) 1.03740(13) 0.3694(3)
C69A C 0.3678(3) 1.02717(15) 0.3960(4)
C70A C 0.3295(3) 1.04843(17) 0.4306(4)
H61A H 0.2920 1.0425 0.4485
C71A C 0.3442(4) 1.07717(17) 0.4394(4)
C72A C 0.3998(4) 1.08662(16) 0.4094(4)
H62A H 0.4099 1.1064 0.4129
C73A C 0.4401(3) 1.06656(14) 0.3743(4)
C74A C 0.3502(3) 0.99573(15) 0.3886(4)
H63A H 0.3090 0.9936 0.4037
H64A H 0.3741 0.9841 0.4264
H65A H 0.3560 0.9892 0.3311
C75A C 0.3023(5) 1.09916(19) 0.4804(5)
H66A H 0.2643 1.0984 0.4524
H67A H 0.3185 1.1186 0.4752
H68A H 0.2974 1.0944 0.5396
C76A C 0.4998(3) 1.07633(14) 0.3429(4)
H69A H 0.5300 1.0637 0.3658
H70A H 0.5070 1.0962 0.3609
H71A H 0.5007 1.0754 0.2818
C77A C 0.5478(3) 1.03848(15) 0.0993(4)
H72A H 0.5681 1.0330 0.1507
H73A H 0.5607 1.0576 0.0816
H74A H 0.5567 1.0245 0.0554
C78A C 0.4821(3) 1.03893(13) 0.1151(4)
C79A C 0.4513(2) 1.02671(13) 0.1817(4)
C80A C 0.3879(3) 1.03181(13) 0.1743(4)
H75A H 0.3602 1.0253 0.2141
C81A C 0.3730(3) 1.04728(13) 0.1026(4)
C82A C 0.3130(3) 1.05509(14) 0.0725(4)
C83A C 0.2637(3) 1.03992(16) 0.1038(4)
H76A H 0.2687 1.0253 0.1448
C84A C 0.2067(3) 1.04669(17) 0.0735(5)
H77A H 0.1739 1.0367 0.0950
C85A C 0.1989(3) 1.06775(15) 0.0127(4)
H78A H 0.1610 1.0718 -0.0080
C86A C 0.2472(3) 1.08307(15) -0.0179(4)
H79A H 0.2415 1.0977 -0.0585
C87A C 0.3040(3) 1.07696(13) 0.0109(4)
H80A H 0.3363 1.0874 -0.0106
N4A N 0.4660(2) 1.01617(10) 0.3381(3)
S4A S 0.43526(7) 1.05571(4) 0.04450(9)
C88 C 0.7473(4) 0.82940(17) 0.3453(5)
H81 H 0.7645 0.8418 0.3882
H82 H 0.7644 0.8340 0.2909
H83 H 0.7553 0.8092 0.3589
C89 C 0.6807(4) 0.83433(18) 0.3421(5)
H84 H 0.6722 0.8550 0.3324
H85 H 0.6634 0.8230 0.2959
O1 O 0.6564(2) 0.82540(12) 0.4200(4)
C90 C 0.5920(4) 0.8238(3) 0.4124(7)
H86 H 0.5766 0.8424 0.3915
H87 H 0.5811 0.8086 0.3722
C91 C 0.5680(5) 0.8177(3) 0.4917(9)
H88 H 0.5847 0.7997 0.5131
H89 H 0.5256 0.8156 0.4867
H90 H 0.5769 0.8335 0.5302
O2 O 1.0632(10) 0.8554(6) 0.7044(14)
C92 C 1.0993(10) 0.8683(6) 0.6378(14)
H91 H 1.1235 0.8533 0.6110
H92 H 1.1255 0.8831 0.6617
C93 C 1.0958(10) 0.8365(5) 0.7570(14)
H93 H 1.1260 0.8477 0.7866
H94 H 1.1159 0.8220 0.7217
C94 C 1.0589(14) 0.8210(7) 0.8200(18)
H95 H 1.0465 0.8346 0.8634
H96 H 1.0815 0.8054 0.8455
H97 H 1.0244 0.8130 0.7924
C95 C 1.0600(11) 0.8816(5) 0.5752(12)
H98 H 1.0370 0.8665 0.5478
H99 H 1.0832 0.8918 0.5334
H100 H 1.0337 0.8952 0.6031
O3? O 1.0645(9) 0.8494(5) 0.7336(13)
C96? C 1.1106(8) 0.8532(4) 0.6746(12)
H101? H 1.1194 0.8347 0.6471
H102? H 1.1462 0.8599 0.7036
C97? C 1.0749(10) 0.8275(4) 0.7974(17)
H103? H 1.1080 0.8332 0.8334
H104? H 1.0843 0.8088 0.7708
C98? C 1.0206(8) 0.8248(4) 0.8483(12)
H105? H 1.0126 0.8431 0.8762
H106? H 1.0258 0.8097 0.8904
H107? H 0.9879 0.8198 0.8119
C99? C 1.0922(14) 0.8754(7) 0.609(2)
H108? H 1.0586 0.8681 0.5778
H109? H 1.1247 0.8789 0.5706
H110? H 1.0816 0.8935 0.6368
loop_
_geom_bond_atom_site_label_1
_geom_bond_atom_site_label_2
_geom_bond_site_symmetry_1
_geom_bond_site_symmetry_2
C1 N1 1_555 1_555
C2 C3 1_555 1_555
C3 C14 1_555 1_555
C4 C5 1_555 1_555
C5 C6 1_555 1_555
C6 H1 1_555 1_555
C7 C6 1_555 1_555
C8 C7 1_555 1_555
H2 C8 1_555 1_555
C9 C4 1_555 1_555
C10 C5 1_555 1_555
H3 C10 1_555 1_555
H4 C10 1_555 1_555
H5 C10 1_555 1_555
C11 C7 1_555 1_555
H6 C11 1_555 1_555
H7 C11 1_555 1_555
H8 C11 1_555 1_555
C12 C9 1_555 1_555
H9 C12 1_555 1_555
H10 C12 1_555 1_555
H11 C12 1_555 1_555
C13 H12 1_555 1_555
H13 C13 1_555 1_555
H14 C13 1_555 1_555
C14 C13 1_555 1_555
C15 C3 1_555 1_555
H15 C15 1_555 1_555
C16 C15 1_555 1_555
C17 C16 1_555 1_555
C18 C17 1_555 1_555
H16 C18 1_555 1_555
C19 C18 1_555 1_555
H17 C19 1_555 1_555
C20 C19 1_555 1_555
H18 C20 1_555 1_555
C21 C20 1_555 1_555
H19 C21 1_555 1_555
C22 C17 1_555 1_555
H20 C22 1_555 1_555
N1 C2 1_555 1_555
S1 C14 1_555 1_555
C23 C54 1_555 1_555
C24 C25 1_555 1_555
C25 C26 1_555 1_555
C26 H21 1_555 1_555
C27 C26 1_555 1_555
C28 C27 1_555 1_555
H22 C28 1_555 1_555
C29 C24 1_555 1_555
C30 C25 1_555 1_555
H23 C30 1_555 1_555
H24 C30 1_555 1_555
H25 C30 1_555 1_555
C31 C27 1_555 1_555
H26 C31 1_555 1_555
H27 C31 1_555 1_555
H28 C31 1_555 1_555
C32 C29 1_555 1_555
H29 C32 1_555 1_555
H30 C32 1_555 1_555
H31 C32 1_555 1_555
C33 C37 1_555 1_555
C34 H32 1_555 1_555
C35 C34 1_555 1_555
C36 C35 1_555 1_555
H33 C36 1_555 1_555
C37 C36 1_555 1_555
C38 H34 1_555 1_555
H35 C38 1_555 1_555
H36 C38 1_555 1_555
C39 C35 1_555 1_555
H37 C39 1_555 1_555
H38 C39 1_555 1_555
H39 C39 1_555 1_555
C40 C37 1_555 1_555
H40 C40 1_555 1_555
H41 C40 1_555 1_555
H42 C40 1_555 1_555
C41 H43 1_555 1_555
H44 C41 1_555 1_555
H45 C41 1_555 1_555
C42 C41 1_555 1_555
C43 C42 1_555 1_555
C44 C43 1_555 1_555
H46 C44 1_555 1_555
C45 C44 1_555 1_555
C46 C45 1_555 1_555
C47 C46 1_555 1_555
H47 C47 1_555 1_555
C48 C47 1_555 1_555
H48 C48 1_555 1_555
C49 C48 1_555 1_555
H49 C49 1_555 1_555
C50 C49 1_555 1_555
H50 C50 1_555 1_555
C51 C46 1_555 1_555
H51 C51 1_555 1_555
C52 H52 1_555 1_555
H53 C52 1_555 1_555
H54 C52 1_555 1_555
C53 C52 1_555 1_555
C54 C53 1_555 1_555
C55 C54 1_555 1_555
H55 C55 1_555 1_555
C56 C55 1_555 1_555
C57 C56 1_555 1_555
C58 C57 1_555 1_555
H56 C58 1_555 1_555
C59 C58 1_555 1_555
H57 C59 1_555 1_555
C60 C59 1_555 1_555
H58 C60 1_555 1_555
C61 C60 1_555 1_555
H59 C61 1_555 1_555
C62 C57 1_555 1_555
H60 C62 1_555 1_555
C63 N2 1_555 1_555
C64 C23 1_555 1_555
C65 C33 1_555 1_555
N2 C23 1_555 1_555
N3 C24 1_555 1_555
S2 C42 1_555 1_555
S3 C53 1_555 1_555
C66 N4 1_555 1_555
C67 C79 1_555 1_555
C68 C69 1_555 1_555
C69 C70 1_555 1_555
C70 H61 1_555 1_555
C71 C70 1_555 1_555
C72 C71 1_555 1_555
H62 C72 1_555 1_555
C73 C68 1_555 1_555
C74 C69 1_555 1_555
H63 C74 1_555 1_555
H64 C74 1_555 1_555
H65 C74 1_555 1_555
C75 C71 1_555 1_555
H66 C75 1_555 1_555
H67 C75 1_555 1_555
H68 C75 1_555 1_555
C76 C73 1_555 1_555
H69 C76 1_555 1_555
H70 C76 1_555 1_555
H71 C76 1_555 1_555
C77 H72 1_555 1_555
H73 C77 1_555 1_555
H74 C77 1_555 1_555
C78 C77 1_555 1_555
C79 C78 1_555 1_555
C80 C79 1_555 1_555
H75 C80 1_555 1_555
C81 C80 1_555 1_555
C82 C81 1_555 1_555
C83 C82 1_555 1_555
H76 C83 1_555 1_555
C84 C83 1_555 1_555
H77 C84 1_555 1_555
C85 C84 1_555 1_555
H78 C85 1_555 1_555
C86 C85 1_555 1_555
H79 C86 1_555 1_555
C87 C82 1_555 1_555
H80 C87 1_555 1_555
N4 C67 1_555 1_555
S4 C78 1_555 1_555
C88 H81 1_555 1_555
H82 C88 1_555 1_555
H83 C88 1_555 1_555
C89 C88 1_555 1_555
H84 C89 1_555 1_555
H85 C89 1_555 1_555
O1 C89 1_555 1_555
C90 O1 1_555 1_555
H86 C90 1_555 1_555
H87 C90 1_555 1_555
C91 C90 1_555 1_555
H88 C91 1_555 1_555
H89 C91 1_555 1_555
H90 C91 1_555 1_555
O2 C92 1_555 1_555
C92 H91 1_555 1_555
H92 C92 1_555 1_555
C93 O2 1_555 1_555
H93 C93 1_555 1_555
H94 C93 1_555 1_555
C94 C93 1_555 1_555
H95 C94 1_555 1_555
H96 C94 1_555 1_555
H97 C94 1_555 1_555
C95 C92 1_555 1_555
H98 C95 1_555 1_555
H99 C95 1_555 1_555
H100 C95 1_555 1_555
C2A C2 1_555 1_555
C3A C2A 1_555 1_555
C4A C5A 1_555 1_555
C5A C6A 1_555 1_555
C6A H1A 1_555 1_555
C7A C6A 1_555 1_555
C8A C7A 1_555 1_555
H2A C8A 1_555 1_555
C9A C4A 1_555 1_555
C10A C5A 1_555 1_555
H3A C10A 1_555 1_555
H4A C10A 1_555 1_555
H5A C10A 1_555 1_555
C11A C7A 1_555 1_555
H6A C11A 1_555 1_555
H7A C11A 1_555 1_555
H8A C11A 1_555 1_555
C12A C9A 1_555 1_555
H9A C12A 1_555 1_555
H10A C12A 1_555 1_555
H11A C12A 1_555 1_555
C13A H12A 1_555 1_555
H13A C13A 1_555 1_555
H14A C13A 1_555 1_555
C14A C3A 1_555 1_555
C15A C3A 1_555 1_555
H15A C15A 1_555 1_555
C16A C15A 1_555 1_555
C17A C16A 1_555 1_555
C18A C17A 1_555 1_555
H16A C18A 1_555 1_555
C19A C18A 1_555 1_555
H17A C19A 1_555 1_555
C20A C19A 1_555 1_555
H18A C20A 1_555 1_555
C21A C20A 1_555 1_555
H19A C21A 1_555 1_555
C22A C17A 1_555 1_555
H20A C22A 1_555 1_555
N1A C1 1_555 1_555
S1A C14A 1_555 1_555
C67A C67 1_555 1_555
C68A C69A 1_555 1_555
C69A C70A 1_555 1_555
C70A H61A 1_555 1_555
C71A C70A 1_555 1_555
C72A C71A 1_555 1_555
H62A C72A 1_555 1_555
C73A C68A 1_555 1_555
C74A C69A 1_555 1_555
H63A C74A 1_555 1_555
H64A C74A 1_555 1_555
H65A C74A 1_555 1_555
C75A C71A 1_555 1_555
H66A C75A 1_555 1_555
H67A C75A 1_555 1_555
H68A C75A 1_555 1_555
C76A C73A 1_555 1_555
H69A C76A 1_555 1_555
H70A C76A 1_555 1_555
H71A C76A 1_555 1_555
C77A H72A 1_555 1_555
H73A C77A 1_555 1_555
H74A C77A 1_555 1_555
C78A C77A 1_555 1_555
C79A C67A 1_555 1_555
C80A C79A 1_555 1_555
H75A C80A 1_555 1_555
C81A C80A 1_555 1_555
C82A C81A 1_555 1_555
C83A C82A 1_555 1_555
H76A C83A 1_555 1_555
C84A C83A 1_555 1_555
H77A C84A 1_555 1_555
C85A C84A 1_555 1_555
H78A C85A 1_555 1_555
C86A C85A 1_555 1_555
H79A C86A 1_555 1_555
C87A C82A 1_555 1_555
H80A C87A 1_555 1_555
N4A C66 1_555 1_555
S4A C78A 1_555 1_555
C4 N1 1_555 1_555
C8 C9 1_555 1_555
C16 S1 1_555 1_555
C21 C22 1_555 1_555
C28 C29 1_555 1_555
C33 N2 1_555 1_555
C34 C65 1_555 1_555
C38 C65 1_555 1_555
C43 C64 1_555 1_555
C45 S2 1_555 1_555
C50 C51 1_555 1_555
C56 S3 1_555 1_555
C61 C62 1_555 1_555
C63 N3 1_555 1_555
C64 N3 1_555 1_555
C68 N4 1_555 1_555
C72 C73 1_555 1_555
C81 S4 1_555 1_555
C86 C87 1_555 1_555
C2A N1A 1_555 1_555
C4A N1A 1_555 1_555
C8A C9A 1_555 1_555
C13A C14A 1_555 1_555
C16A S1A 1_555 1_555
C21A C22A 1_555 1_555
C67A N4A 1_555 1_555
C68A N4A 1_555 1_555
C72A C73A 1_555 1_555
C78A C79A 1_555 1_555
C81A S4A 1_555 1_555
C86A C87A 1_555 1_555

#END
