
#######################################################################
#
#                 Cambridge Crystallographic Data Centre
#                                CCDC 
#
#######################################################################
#
# If this CIF has been generated from an entry in the Cambridge 
# Structural Database, then it will include bibliographic, chemical, 
# crystal, experimental, refinement or atomic coordinate data resulting 
# from the CCDC's data processing and validation procedures.
#
#######################################################################

data_YUVTEP
_chemical_formula_moiety         'C15 H13 N1 O2'
_chemical_name_systematic        N-(4-Methylphenyl)-2-oxo-2-phenylacetamide
_symmetry_cell_setting           monoclinic
_symmetry_space_group_name_H-M   'P 21'
_symmetry_Int_Tables_number      4
_space_group_name_Hall           'P 2yb'
loop_
_symmetry_equiv_pos_site_id
_symmetry_equiv_pos_as_xyz
1 x,y,z
2 -x,1/2+y,-z
_cell_length_a                   6.6869(12)
_cell_length_b                   13.862(3)
_cell_length_c                   13.166(2)
_cell_angle_alpha                90
_cell_angle_beta                 97.899(4)
_cell_angle_gamma                90
_cell_volume                     1208.83
_exptl_crystal_colour            yellow
_exptl_crystal_description       prismatic
_cell_formula_units_Z            4
loop_
_atom_site_label
_atom_site_type_symbol
_atom_site_fract_x
_atom_site_fract_y
_atom_site_fract_z
N1 N 0.4232(4) 0.48356(18) 1.00907(19)
O1 O 0.2806(4) 0.57614(18) 0.87600(18)
O2 O 0.7302(3) 0.44966(17) 0.90936(16)
C1 C 0.4099(4) 0.5206(2) 0.9152(2)
C2 C 0.5866(4) 0.4878(2) 0.8596(2)
C3 C 0.5785(5) 0.5018(2) 0.7477(2)
C4 C 0.3990(5) 0.5049(3) 0.6810(2)
H1 H 0.2759 0.5055 0.7063
C5 C 0.4049(6) 0.5069(3) 0.5767(3)
H2 H 0.2847 0.5077 0.5318
C6 C 0.5841(6) 0.5076(4) 0.5385(3)
H3 H 0.5854 0.5091 0.4680
C7 C 0.7626(6) 0.5062(3) 0.6037(3)
H4 H 0.8849 0.5066 0.5776
C8 C 0.7600(6) 0.5042(3) 0.7082(3)
H5 H 0.8811 0.5045 0.7524
C9 C 0.2943(4) 0.49694(19) 1.0847(2)
C10 C 0.3633(5) 0.4658(2) 1.1828(2)
H6 H 0.4909 0.4381 1.1972
C11 C 0.2434(5) 0.4754(3) 1.2600(2)
H7 H 0.2914 0.4539 1.3257
C12 C 0.0548(5) 0.5162(2) 1.2412(2)
C13 C -0.0124(5) 0.5459(2) 1.1429(2)
H8 H -0.1408 0.5726 1.1287
C14 C 0.1046(5) 0.5375(2) 1.0642(2)
H9 H 0.0559 0.5589 0.9985
C15 C -0.0777(5) 0.5271(3) 1.3254(3)
H10 H -0.0354 0.5827 1.3664
H11 H -0.0656 0.4706 1.3679
H12 H -0.2158 0.5350 1.2953
H25 H 0.535(4) 0.452(2) 1.029(2)
N2 N 0.0339(4) 0.28872(19) 0.01932(18)
O3 O 0.1849(4) 0.19984(19) 0.15420(17)
O4 O -0.2692(3) 0.32369(17) 0.11889(17)
C16 C 0.0523(4) 0.2521(2) 0.1140(2)
C17 C -0.1278(4) 0.2825(2) 0.1691(2)
C18 C -0.1278(5) 0.2644(2) 0.2797(2)
C19 C 0.0479(5) 0.2535(3) 0.3481(2)
H13 H 0.1724 0.2496 0.3243
C20 C 0.0361(6) 0.2484(4) 0.4517(3)
H14 H 0.1543 0.2433 0.4977
C21 C -0.1449(6) 0.2507(3) 0.4881(3)
H15 H -0.1504 0.2476 0.5582
C22 C -0.3190(6) 0.2577(3) 0.4200(3)
H16 H -0.4435 0.2575 0.4440
C23 C -0.3110(6) 0.2652(3) 0.3170(3)
H17 H -0.4301 0.2708 0.2717
C24 C 0.1670(4) 0.2746(2) -0.0559(2)
C25 C 0.0951(5) 0.3011(2) -0.1557(2)
H18 H -0.0334 0.3274 -0.1711
C26 C 0.2129(5) 0.2884(2) -0.2314(2)
H19 H 0.1628 0.3061 -0.2982
C27 C 0.4063(5) 0.2497(2) -0.2112(2)
C28 C 0.4745(4) 0.2258(2) -0.1106(2)
H20 H 0.6042 0.2009 -0.0946
C29 C 0.3575(4) 0.2376(2) -0.0328(2)
H21 H 0.4074 0.2206 0.0342
C30 C 0.5349(5) 0.2359(3) -0.2957(3)
H22 H 0.6519 0.1983 -0.2704
H23 H 0.5765 0.2976 -0.3182
H24 H 0.4581 0.2028 -0.3521
H26 H -0.079(5) 0.325(3) 0.000(2)
loop_
_geom_bond_atom_site_label_1
_geom_bond_atom_site_label_2
_geom_bond_site_symmetry_1
_geom_bond_site_symmetry_2
N1 C1 1_555 1_555
N2 C16 1_555 1_555
O1 C1 1_555 1_555
O2 C2 1_555 1_555
O3 C16 1_555 1_555
O4 C17 1_555 1_555
C1 C2 1_555 1_555
C2 C3 1_555 1_555
C3 C4 1_555 1_555
C4 H1 1_555 1_555
C5 C4 1_555 1_555
H2 C5 1_555 1_555
C6 C5 1_555 1_555
H3 C6 1_555 1_555
C7 C6 1_555 1_555
H4 C7 1_555 1_555
C8 C3 1_555 1_555
H5 C8 1_555 1_555
C9 N1 1_555 1_555
C10 C9 1_555 1_555
H6 C10 1_555 1_555
C11 C10 1_555 1_555
H7 C11 1_555 1_555
C12 C11 1_555 1_555
C13 C12 1_555 1_555
H8 C13 1_555 1_555
C14 C9 1_555 1_555
H9 C14 1_555 1_555
C15 C12 1_555 1_555
H10 C15 1_555 1_555
H11 C15 1_555 1_555
H12 C15 1_555 1_555
C16 C17 1_555 1_555
C17 C18 1_555 1_555
C18 C19 1_555 1_555
C19 H13 1_555 1_555
C20 C19 1_555 1_555
H14 C20 1_555 1_555
C21 C20 1_555 1_555
H15 C21 1_555 1_555
C22 C21 1_555 1_555
H16 C22 1_555 1_555
C23 C18 1_555 1_555
H17 C23 1_555 1_555
C24 N2 1_555 1_555
C25 C24 1_555 1_555
H18 C25 1_555 1_555
C26 C25 1_555 1_555
H19 C26 1_555 1_555
C27 C26 1_555 1_555
C28 C27 1_555 1_555
H20 C28 1_555 1_555
C29 C24 1_555 1_555
H21 C29 1_555 1_555
C30 C27 1_555 1_555
H22 C30 1_555 1_555
H23 C30 1_555 1_555
H24 C30 1_555 1_555
H25 N1 1_555 1_555
H26 N2 1_555 1_555
C7 C8 1_555 1_555
C13 C14 1_555 1_555
C22 C23 1_555 1_555
C28 C29 1_555 1_555

#END
