
#######################################################################
#
#                 Cambridge Crystallographic Data Centre
#                                CCDC 
#
#######################################################################
#
# If this CIF has been generated from an entry in the Cambridge 
# Structural Database, then it will include bibliographic, chemical, 
# crystal, experimental, refinement or atomic coordinate data resulting 
# from the CCDC's data processing and validation procedures.
#
#######################################################################

data_YUVTOA
_chemical_name_common            
'ethyl 6-((4-iodophenyl)amino)-5-phenyl-2,3,3a,6,7,7a-hexahydro-1H-indene-4-carboxylate'
_chemical_formula_moiety         'C24 H26 I1 N1 O2'
_chemical_name_systematic        
'(3aR,6R,7aS)-ethyl 6-(4-iodophenylamino)-5-phenyl-2,3,3a,6,7,7a-hexahydro-1H-indene-4-carboxylate'
_symmetry_cell_setting           monoclinic
_symmetry_space_group_name_H-M   'P 21/n'
_symmetry_Int_Tables_number      14
_space_group_name_Hall           '-P 2yn'
loop_
_symmetry_equiv_pos_site_id
_symmetry_equiv_pos_as_xyz
1 x,y,z
2 1/2-x,1/2+y,1/2-z
3 -x,-y,-z
4 1/2+x,1/2-y,1/2+z
_cell_length_a                   11.0128(9)
_cell_length_b                   17.4833(14)
_cell_length_c                   11.2982(8)
_cell_angle_alpha                90
_cell_angle_beta                 91.191(2)
_cell_angle_gamma                90
_cell_volume                     2174.89
_exptl_crystal_colour            colorless
_exptl_crystal_description       block
_cell_formula_units_Z            4
_exptl_crystal_recrystallization_method 'Vapour Deposition'
loop_
_atom_site_label
_atom_site_type_symbol
_atom_site_fract_x
_atom_site_fract_y
_atom_site_fract_z
I1 I 1.45299(3) 0.137910(15) 1.15461(2)
C1 C 1.0745(3) 0.14043(19) 0.6205(3)
H1 H 1.0819 0.1905 0.6629
O1 O 0.6721(2) 0.12422(14) 0.5935(2)
C2 C 1.2176(3) 0.10168(19) 0.7860(3)
C3 C 0.9407(3) 0.11612(18) 0.6240(3)
N1 N 1.1530(3) 0.08588(17) 0.6828(3)
C4 C 0.7440(3) 0.08059(19) 0.5275(3)
O2 O 0.7081(2) 0.02598(14) 0.4709(2)
C5 C 0.8925(3) 0.10211(19) 0.7453(3)
C6 C 0.8721(3) 0.10838(18) 0.5262(3)
C7 C 0.9211(3) 0.1226(2) 0.4042(3)
H2 H 0.9568 0.0736 0.3753
C8 C 1.2477(4) 0.1669(2) 0.9741(3)
H3 H 1.2209 0.2030 1.0308
C9 C 1.0220(3) 0.18162(19) 0.4116(3)
H4 H 0.9881 0.2294 0.4465
C10 C 1.3253(3) 0.06087(19) 0.8097(3)
H5 H 1.3519 0.0241 0.7542
C11 C 1.3931(3) 0.0731(2) 0.9119(3)
H6 H 1.4662 0.0454 0.9256
C12 C 1.1212(3) 0.1525(2) 0.4939(3)
H7 H 1.1890 0.1896 0.4962
H8 H 1.1526 0.1034 0.4633
C13 C 0.7865(4) 0.1476(2) 0.9167(3)
H9 H 0.7455 0.1876 0.9563
C14 C 0.8338(3) 0.1604(2) 0.8054(3)
H10 H 0.8259 0.2095 0.7699
C15 C 0.8352(4) 0.1535(2) 0.3065(3)
H11 H 0.7726 0.1873 0.3401
H12 H 0.7946 0.1111 0.2631
C16 C 1.3543(3) 0.1263(2) 0.9950(3)
C17 C 1.1801(3) 0.1550(2) 0.8702(3)
H13 H 1.1077 0.1835 0.8562
C18 C 0.9064(4) 0.0325(2) 0.8009(4)
H14 H 0.9480 -0.0076 0.7621
C19 C 0.7988(4) 0.0774(2) 0.9697(3)
H15 H 0.7651 0.0686 1.0452
C20 C 0.8601(5) 0.0200(2) 0.9133(4)
H16 H 0.8710 -0.0282 0.9508
C21 C 0.5450(3) 0.1019(2) 0.5996(3)
H17 H 0.5109 0.1202 0.6748
H18 H 0.5385 0.0454 0.5978
C22 C 0.4746(3) 0.1351(3) 0.4976(4)
H19 H 0.4816 0.1910 0.4993
H20 H 0.3889 0.1206 0.5034
H21 H 0.5068 0.1156 0.4233
C23 C 1.0483(4) 0.1972(2) 0.2814(3)
H22 H 1.0982 0.1559 0.2474
H23 H 1.0906 0.2467 0.2716
C24 C 0.9204(4) 0.1990(3) 0.2238(4)
H24 H 0.9213 0.1752 0.1444
H25 H 0.8918 0.2525 0.2153
H26 H 1.189(4) 0.055(2) 0.644(4)
loop_
_geom_bond_atom_site_label_1
_geom_bond_atom_site_label_2
_geom_bond_site_symmetry_1
_geom_bond_site_symmetry_2
I1 C16 1_555 1_555
C1 H1 1_555 1_555
O1 C4 1_555 1_555
C2 N1 1_555 1_555
C3 C1 1_555 1_555
N1 C1 1_555 1_555
C4 O2 1_555 1_555
C5 C3 1_555 1_555
C6 C3 1_555 1_555
C7 C6 1_555 1_555
H2 C7 1_555 1_555
C8 H3 1_555 1_555
C9 C7 1_555 1_555
H4 C9 1_555 1_555
C10 C2 1_555 1_555
H5 C10 1_555 1_555
C11 C10 1_555 1_555
H6 C11 1_555 1_555
C12 C1 1_555 1_555
H7 C12 1_555 1_555
H8 C12 1_555 1_555
C13 H9 1_555 1_555
C14 C5 1_555 1_555
H10 C14 1_555 1_555
C15 C7 1_555 1_555
H11 C15 1_555 1_555
H12 C15 1_555 1_555
C16 C8 1_555 1_555
C17 C2 1_555 1_555
H13 C17 1_555 1_555
C18 C5 1_555 1_555
H14 C18 1_555 1_555
C19 C13 1_555 1_555
H15 C19 1_555 1_555
C20 C18 1_555 1_555
H16 C20 1_555 1_555
C21 O1 1_555 1_555
H17 C21 1_555 1_555
H18 C21 1_555 1_555
C22 C21 1_555 1_555
H19 C22 1_555 1_555
H20 C22 1_555 1_555
H21 C22 1_555 1_555
C23 C9 1_555 1_555
H22 C23 1_555 1_555
H23 C23 1_555 1_555
C24 C15 1_555 1_555
H24 C24 1_555 1_555
H25 C24 1_555 1_555
H26 N1 1_555 1_555
C4 C6 1_555 1_555
C8 C17 1_555 1_555
C9 C12 1_555 1_555
C11 C16 1_555 1_555
C13 C14 1_555 1_555
C19 C20 1_555 1_555
C23 C24 1_555 1_555

#END
