
#######################################################################
#
#                 Cambridge Crystallographic Data Centre
#                                CCDC 
#
#######################################################################
#
# If this CIF has been generated from an entry in the Cambridge 
# Structural Database, then it will include bibliographic, chemical, 
# crystal, experimental, refinement or atomic coordinate data resulting 
# from the CCDC's data processing and validation procedures.
#
#######################################################################

data_YUWNIN
_chemical_name_common            5-Bromomilrinone
_chemical_formula_moiety         'C11 H9 Br1 N2 O1'
_chemical_name_systematic        5-Bromo-2-methyl-(3,4')-bipyridin-6(1H)-one
_chemical_properties_biological  'stimulatory myocardial membrane activity'
_symmetry_cell_setting           monoclinic
_symmetry_space_group_name_H-M   'C 2/c'
_symmetry_Int_Tables_number      15
_space_group_name_Hall           '-C 2yn'
loop_
_symmetry_equiv_pos_site_id
_symmetry_equiv_pos_as_xyz
1 x,y,z
2 -x,y,1/2-z
3 1/2+x,1/2+y,z
4 1/2-x,1/2+y,1/2-z
5 -x,-y,-z
6 x,-y,1/2+z
7 1/2-x,1/2-y,-z
8 1/2+x,1/2-y,1/2+z
_cell_length_a                   24.813(3)
_cell_length_b                   6.9012(8)
_cell_length_c                   12.398(2)
_cell_angle_alpha                90
_cell_angle_beta                 98.51(1)
_cell_angle_gamma                90
_cell_volume                     2099.65
_cell_formula_units_Z            8
loop_
_atom_site_label
_atom_site_type_symbol
_atom_site_fract_x
_atom_site_fract_y
_atom_site_fract_z
C1 C -0.0899(1) 0.2913(4) 0.0044(3)
C2 C -0.0900(1) 0.3048(4) -0.1055(3)
C3 C -0.1392(1) 0.3288(5) -0.1907(3)
N1 N -0.0417(1) 0.2875(3) -0.1453(2)
C4 C 0.0086(1) 0.2560(4) -0.0858(3)
O1 O 0.0498(1) 0.2429(4) -0.1317(2)
C5 C 0.0077(1) 0.2421(4) 0.0290(3)
Br1 Br 0.0745(1) 0.1973(1) 0.1195(1)
C6 C -0.0396(1) 0.2576(4) 0.0719(3)
C7 C -0.1404(1) 0.3068(4) 0.0543(2)
C8 C -0.1748(1) 0.4652(5) 0.0376(3)
C9 C -0.2207(1) 0.4706(5) 0.0891(3)
N2 N -0.2341(1) 0.3322(5) 0.1548(3)
C10 C -0.2011(1) 0.1779(6) 0.1699(3)
C11 C -0.1541(1) 0.1583(5) 0.1223(3)
H1 H -0.160 0.461 -0.175
H2 H -0.126 0.335 -0.270
H3 H -0.166 0.206 -0.187
H4 H -0.039 0.243 0.159
H5 H -0.166 0.585 -0.014
H6 H -0.247 0.594 0.075
H7 H -0.212 0.063 0.223
H8 H -0.128 0.031 0.137
H9 H -0.044 0.284 -0.214
loop_
_geom_bond_atom_site_label_1
_geom_bond_atom_site_label_2
_geom_bond_site_symmetry_1
_geom_bond_site_symmetry_2
C1 C2 1_555 1_555
C2 C3 1_555 1_555
C3 H1 1_555 1_555
N1 C2 1_555 1_555
C4 N1 1_555 1_555
O1 C4 1_555 1_555
C5 C4 1_555 1_555
Br1 C5 1_555 1_555
C6 C1 1_555 1_555
C7 C1 1_555 1_555
C8 C7 1_555 1_555
C9 C8 1_555 1_555
N2 C9 1_555 1_555
C10 N2 1_555 1_555
C11 C7 1_555 1_555
H2 C3 1_555 1_555
H3 C3 1_555 1_555
H4 C6 1_555 1_555
H5 C8 1_555 1_555
H6 C9 1_555 1_555
H7 C10 1_555 1_555
H8 C11 1_555 1_555
H9 N1 1_555 1_555
C5 C6 1_555 1_555
C10 C11 1_555 1_555

#END
