
#######################################################################
#
#                 Cambridge Crystallographic Data Centre
#                                CCDC 
#
#######################################################################
#
# If this CIF has been generated from an entry in the Cambridge 
# Structural Database, then it will include bibliographic, chemical, 
# crystal, experimental, refinement or atomic coordinate data resulting 
# from the CCDC's data processing and validation procedures.
#
#######################################################################

data_YUWPIP
_chemical_formula_moiety         'C14 H18 Br1 N1 O1'
_chemical_name_systematic        
anti-5-Bromo-4'-cyano-4'-methylspiro(adamantane-2,2'-oxetane)
_symmetry_cell_setting           monoclinic
_symmetry_space_group_name_H-M   'P 21/n'
_symmetry_Int_Tables_number      14
_space_group_name_Hall           '-P 2yn'
loop_
_symmetry_equiv_pos_site_id
_symmetry_equiv_pos_as_xyz
1 x,y,z
2 1/2-x,1/2+y,1/2-z
3 -x,-y,-z
4 1/2+x,1/2-y,1/2+z
_cell_length_a                   10.459(4)
_cell_length_b                   11.684(3)
_cell_length_c                   11.566(4)
_cell_angle_alpha                90
_cell_angle_beta                 111.06(3)
_cell_angle_gamma                90
_cell_volume                     1318.99
_exptl_crystal_colour            colorless
_chemical_melting_point          108-112deg.C
_cell_formula_units_Z            4
loop_
_atom_site_label
_atom_site_type_symbol
_atom_site_fract_x
_atom_site_fract_y
_atom_site_fract_z
Br1 Br 0.35152(5) -0.08974(5) 0.26395(5)
O1 O 0.7826(2) 0.0479(2) 0.2148(3)
N1 N 1.1079(4) 0.0858(4) 0.4195(4)
C1 C 0.6922(3) 0.1348(3) 0.3635(3)
C2 C 0.7071(3) 0.1461(3) 0.2387(4)
C3 C 0.5677(4) 0.1583(4) 0.1391(4)
C4 C 0.4797(4) 0.0536(3) 0.1385(3)
C5 C 0.4658(4) 0.0473(3) 0.2651(4)
C6 C 0.3955(4) 0.1531(4) 0.2897(4)
C7 C 0.4850(4) 0.2577(4) 0.2906(5)
C8 C 0.6256(4) 0.2440(4) 0.3895(4)
C9 C 0.6053(3) 0.0308(3) 0.3646(3)
C10 C 0.5000(4) 0.2669(4) 0.1637(5)
C11 C 0.8185(4) 0.2281(4) 0.2298(4)
C12 C 0.8967(4) 0.1203(4) 0.2187(4)
C13 C 1.0176(4) 0.0992(4) 0.3346(5)
C14 C 0.9360(4) 0.1059(4) 0.1060(5)
H1 H 0.7804 0.1261 0.4257
H2 H 0.5776 0.1645 0.0608
H3 H 0.3918 0.0613 0.0755
H4 H 0.5227 -0.0138 0.1242
H5 H 0.3080 0.1616 0.2265
H6 H 0.3852 0.1462 0.3678
H7 H 0.4428 0.3250 0.3062
H8 H 0.6173 0.2383 0.4684
H9 H 0.6806 0.3084 0.3883
H10 H 0.6470 -0.0364 0.3481
H11 H 0.5964 0.0240 0.4432
H12 H 0.5552 0.3314 0.1631
H13 H 0.4121 0.2758 0.1010
H14 H 0.7907 0.2762 0.1588
H15 H 0.8624 0.2728 0.3017
H16 H 0.9624 0.0291 0.1009
H17 H 0.8600 0.1249 0.0337
H18 H 1.0104 0.1556 0.1126
loop_
_geom_bond_atom_site_label_1
_geom_bond_atom_site_label_2
_geom_bond_site_symmetry_1
_geom_bond_site_symmetry_2
Br1 C5 1_555 1_555
O1 C2 1_555 1_555
N1 C13 1_555 1_555
C1 C2 1_555 1_555
C2 C3 1_555 1_555
C3 C4 1_555 1_555
C4 C5 1_555 1_555
C5 C6 1_555 1_555
C6 C7 1_555 1_555
C7 C8 1_555 1_555
C8 C1 1_555 1_555
C9 C1 1_555 1_555
C10 C3 1_555 1_555
C11 C2 1_555 1_555
C12 O1 1_555 1_555
C13 C12 1_555 1_555
C14 C12 1_555 1_555
H1 C1 1_555 1_555
H2 C3 1_555 1_555
H3 C4 1_555 1_555
H4 C4 1_555 1_555
H5 C6 1_555 1_555
H6 C6 1_555 1_555
H7 C7 1_555 1_555
H8 C8 1_555 1_555
H9 C8 1_555 1_555
H10 C9 1_555 1_555
H11 C9 1_555 1_555
H12 C10 1_555 1_555
H13 C10 1_555 1_555
H14 C11 1_555 1_555
H15 C11 1_555 1_555
H16 C14 1_555 1_555
H17 C14 1_555 1_555
H18 C14 1_555 1_555
C5 C9 1_555 1_555
C7 C10 1_555 1_555
C11 C12 1_555 1_555

#END
