
#######################################################################
#
#                 Cambridge Crystallographic Data Centre
#                                CCDC 
#
#######################################################################
#
# If this CIF has been generated from an entry in the Cambridge 
# Structural Database, then it will include bibliographic, chemical, 
# crystal, experimental, refinement or atomic coordinate data resulting 
# from the CCDC's data processing and validation procedures.
#
#######################################################################

data_YUWWIW08
_chemical_formula_moiety         'C4 H10 Cl2 N1 1+,Cl1 1-'
_chemical_name_systematic        'bis(2-chloroethyl)ammonium chloride'
_symmetry_cell_setting           monoclinic
_symmetry_space_group_name_H-M   'P 2/c'
_symmetry_Int_Tables_number      13
_space_group_name_Hall           '-P 2yc'
loop_
_symmetry_equiv_pos_site_id
_symmetry_equiv_pos_as_xyz
1 x,y,z
2 -x,y,1/2-z
3 -x,-y,-z
4 x,-y,1/2+z
_cell_length_a                   15.278(3)
_cell_length_b                   4.9867(9)
_cell_length_c                   22.054(5)
_cell_angle_alpha                90
_cell_angle_beta                 131.211(13)
_cell_angle_gamma                90
_cell_volume                     1264.01
_exptl_crystal_colour            colorless
_exptl_crystal_description       block
_chemical_melting_point          '430 K'
_cell_formula_units_Z            6
loop_
_atom_site_label
_atom_site_type_symbol
_atom_site_fract_x
_atom_site_fract_y
_atom_site_fract_z
C1 C 0.2641(2) 0.2371(5) 0.19138(16)
H1 H 0.3047 0.3097 0.1750
H2 H 0.2464 0.3849 0.2104
C2 C 0.1520(3) 0.1110(6) 0.11945(19)
H3 H 0.1030 0.2484 0.0792
H4 H 0.1114 0.0388 0.1358
C3 C 0.4331(2) 0.1778(6) 0.33796(16)
H5 H 0.3964 0.2874 0.3521
H6 H 0.4799 0.2942 0.3339
C4 C 0.5096(3) -0.0274(7) 0.40242(17)
H7 H 0.5504 -0.1298 0.3903
H8 H 0.4626 -0.1503 0.4047
Cl1 Cl 0.17329(9) -0.14800(18) 0.07567(5)
Cl2 Cl 0.61202(7) 0.1378(2) 0.49718(5)
N1 N 0.34175(17) 0.0442(4) 0.25866(12)
H9 H 0.3766 -0.0612 0.2469
H10 H 0.2983 -0.0617 0.2629
C5 C 0.0647(3) 0.2041(5) 0.32410(18)
H11 H 0.1087 0.0696 0.3222
H12 H 0.0089 0.1112 0.3241
C6 C 0.1464(3) 0.3585(6) 0.40116(19)
H13 H 0.2008 0.4569 0.4008
H14 H 0.1907 0.2340 0.4461
Cl3 Cl 0.07104(8) 0.58894(16) 0.41527(5)
N2 N 0.0000 0.3739(6) 0.2500
H15 H -0.0505 0.4799 0.2469
H15A H 0.0505 0.4799 0.2531
C5A C -0.0647(3) 0.2041(5) 0.17590(18)
H11A H -0.1087 0.0696 0.1778
H12A H -0.0089 0.1112 0.1759
C6A C -0.1464(3) 0.3585(6) 0.09884(19)
H13A H -0.2008 0.4569 0.0992
H14A H -0.1907 0.2340 0.0539
Cl3A Cl -0.07104(8) 0.58894(16) 0.08473(5)
Cl4 Cl 0.5000 0.68694(19) 0.2500
Cl5 Cl 0.20768(6) 0.70501(14) 0.29156(4)
H16? H -0.0505 0.4799 0.2469
loop_
_geom_bond_atom_site_label_1
_geom_bond_atom_site_label_2
_geom_bond_site_symmetry_1
_geom_bond_site_symmetry_2
C1 H1 1_555 1_555
H2 C1 1_555 1_555
C2 C1 1_555 1_555
H3 C2 1_555 1_555
H4 C2 1_555 1_555
C3 H5 1_555 1_555
H6 C3 1_555 1_555
C4 C3 1_555 1_555
H7 C4 1_555 1_555
H8 C4 1_555 1_555
Cl1 C2 1_555 1_555
Cl2 C4 1_555 1_555
N1 C1 1_555 1_555
H9 N1 1_555 1_555
H10 N1 1_555 1_555
C5 H11 1_555 1_555
H12 C5 1_555 1_555
C6 C5 1_555 1_555
H13 C6 1_555 1_555
H14 C6 1_555 1_555
Cl3 C6 1_555 1_555
N2 C5 1_555 1_555
H15 N2 1_555 1_555
H15A N2 1_555 1_555
C5A N2 1_555 1_555
H11A C5A 1_555 1_555
H12A C5A 1_555 1_555
C6A C5A 1_555 1_555
H13A C6A 1_555 1_555
H14A C6A 1_555 1_555
Cl3A C6A 1_555 1_555
C3 N1 1_555 1_555

#END
