
#######################################################################
#
#                 Cambridge Crystallographic Data Centre
#                                CCDC 
#
#######################################################################
#
# If this CIF has been generated from an entry in the Cambridge 
# Structural Database, then it will include bibliographic, chemical, 
# crystal, experimental, refinement or atomic coordinate data resulting 
# from the CCDC's data processing and validation procedures.
#
#######################################################################

data_YUWWIW09
_chemical_formula_moiety         'C4 H10 Cl2 N1 1+,Cl1 1-'
_chemical_name_systematic        'bis(2-chloroethyl)ammonium chloride'
_symmetry_cell_setting           monoclinic
_symmetry_space_group_name_H-M   'P 2/c'
_symmetry_Int_Tables_number      13
_space_group_name_Hall           '-P 2yc'
loop_
_symmetry_equiv_pos_site_id
_symmetry_equiv_pos_as_xyz
1 x,y,z
2 -x,y,1/2-z
3 -x,-y,-z
4 x,-y,1/2+z
_cell_length_a                   15.334(3)
_cell_length_b                   4.9966(8)
_cell_length_c                   22.089(4)
_cell_angle_alpha                90
_cell_angle_beta                 131.300(12)
_cell_angle_gamma                90
_cell_volume                     1271.45
_exptl_crystal_colour            colorless
_exptl_crystal_description       block
_chemical_melting_point          '430 K'
_cell_formula_units_Z            6
loop_
_atom_site_label
_atom_site_type_symbol
_atom_site_fract_x
_atom_site_fract_y
_atom_site_fract_z
C1 C 0.2356(2) 0.2621(5) 0.30841(15)
H1 H 0.2526 0.1143 0.2891
H2 H 0.1953 0.1905 0.3249
C2 C 0.3486(2) 0.3881(6) 0.38066(16)
H3 H 0.3889 0.4598 0.3641
H4 H 0.3975 0.2510 0.4208
C3 C 0.0663(2) 0.3226(5) 0.16176(14)
H5 H 0.0197 0.2068 0.1659
H6 H 0.1026 0.2131 0.1475
C4 C -0.0104(2) 0.5289(6) 0.09721(15)
H7 H 0.0366 0.6523 0.0953
H8 H -0.0512 0.6302 0.1093
Cl1 Cl 0.32756(7) 0.64839(15) 0.42467(4)
Cl2 Cl -0.11265(6) 0.36441(18) 0.00189(4)
N1 N 0.15811(15) 0.4561(4) 0.24127(11)
H9 H 0.2015 0.5613 0.2370
H10 H 0.1237 0.5615 0.2532
C5 C 0.4352(2) 0.2957(5) 0.17571(16)
H11 H 0.4909 0.3890 0.1759
H12 H 0.3912 0.4296 0.1776
C6 C 0.3536(2) 0.1418(6) 0.09837(17)
H13 H 0.3100 0.2664 0.0536
H14 H 0.2989 0.0445 0.0984
Cl3 Cl 0.42847(7) -0.09014(14) 0.08438(4)
N2 N 0.5000 0.1254(5) 0.2500
H15 H 0.4496 0.0196 0.2468
H15A H 0.5504 0.0196 0.2532
C5A C 0.5648(2) 0.2957(5) 0.32429(16)
H11A H 0.5091 0.3890 0.3241
H12A H 0.6088 0.4296 0.3224
C6A C 0.6464(2) 0.1418(6) 0.40163(17)
H13A H 0.6900 0.2664 0.4464
H14A H 0.7011 0.0445 0.4016
Cl3A Cl 0.57153(7) -0.09014(14) 0.41562(4)
Cl4 Cl 0.0000 0.81381(17) 0.2500
Cl5 Cl 0.29223(5) 0.79514(12) 0.20838(4)
H16? H 0.4496 0.0196 0.2468
loop_
_geom_bond_atom_site_label_1
_geom_bond_atom_site_label_2
_geom_bond_site_symmetry_1
_geom_bond_site_symmetry_2
C1 H1 1_555 1_555
H2 C1 1_555 1_555
C2 C1 1_555 1_555
H3 C2 1_555 1_555
H4 C2 1_555 1_555
C3 H5 1_555 1_555
H6 C3 1_555 1_555
C4 C3 1_555 1_555
H7 C4 1_555 1_555
H8 C4 1_555 1_555
Cl1 C2 1_555 1_555
Cl2 C4 1_555 1_555
N1 C1 1_555 1_555
H9 N1 1_555 1_555
H10 N1 1_555 1_555
C5 H11 1_555 1_555
H12 C5 1_555 1_555
C6 C5 1_555 1_555
H13 C6 1_555 1_555
H14 C6 1_555 1_555
Cl3 C6 1_555 1_555
N2 C5 1_555 1_555
H15 N2 1_555 1_555
H15A N2 1_555 1_555
C5A N2 1_555 1_555
H11A C5A 1_555 1_555
H12A C5A 1_555 1_555
C6A C5A 1_555 1_555
H13A C6A 1_555 1_555
H14A C6A 1_555 1_555
Cl3A C6A 1_555 1_555
C3 N1 1_555 1_555

#END
