
#######################################################################
#
#                 Cambridge Crystallographic Data Centre
#                                CCDC 
#
#######################################################################
#
# If this CIF has been generated from an entry in the Cambridge 
# Structural Database, then it will include bibliographic, chemical, 
# crystal, experimental, refinement or atomic coordinate data resulting 
# from the CCDC's data processing and validation procedures.
#
#######################################################################

data_YUWWIW11
_chemical_formula_moiety         'C4 H10 Cl2 N1 1+,Cl1 1-'
_chemical_name_systematic        'bis(2-chloroethyl)ammonium chloride'
_symmetry_cell_setting           monoclinic
_symmetry_space_group_name_H-M   'P 2/c'
_symmetry_Int_Tables_number      13
_space_group_name_Hall           '-P 2yc'
loop_
_symmetry_equiv_pos_site_id
_symmetry_equiv_pos_as_xyz
1 x,y,z
2 -x,y,1/2-z
3 -x,-y,-z
4 x,-y,1/2+z
_cell_length_a                   15.329(12)
_cell_length_b                   4.983(4)
_cell_length_c                   22.038(13)
_cell_angle_alpha                90
_cell_angle_beta                 131.52(3)
_cell_angle_gamma                90
_cell_volume                     1260.37
_exptl_crystal_colour            colorless
_exptl_crystal_description       block
_chemical_melting_point          '430 K'
_cell_formula_units_Z            6
loop_
_atom_site_label
_atom_site_type_symbol
_atom_site_fract_x
_atom_site_fract_y
_atom_site_fract_z
Cl1 Cl 0.07259(5) 0.40781(11) 0.91641(3)
N1 N 0.0000 0.6253(4) 0.7500
H1 H -0.0506 0.5192 0.7466
C1 C 0.06499(18) 0.7957(4) 0.82465(13)
H2 H 0.0091 0.8887 0.8243
H3 H 0.1089 0.9304 0.8228
C2 C 0.14716(19) 0.6420(4) 0.90246(13)
H4 H 0.1907 0.7672 0.9475
H5 H 0.2023 0.5454 0.9027
H1A H 0.0506 0.5192 0.7534
Cl1A Cl -0.07259(5) 0.40781(11) 0.58359(3)
C1A C -0.06499(18) 0.7957(4) 0.67535(13)
H2A H -0.0091 0.8887 0.6757
H3A H -0.1089 0.9304 0.6772
C2A C -0.14716(19) 0.6420(4) 0.59754(13)
H4A H -0.1907 0.7672 0.5525
H5A H -0.2023 0.5454 0.5973
Cl2 Cl 0.17087(5) 1.14940(11) 0.57480(3)
Cl3 Cl 0.61375(5) 0.86840(13) 0.99980(3)
N2 N 0.34226(13) 0.9569(3) 0.75906(9)
H7 H 0.3765 1.0624 0.7469
H8 H 0.2989 1.0626 0.7633
C3 C 0.51170(18) 1.0328(4) 0.90361(12)
H9 H 0.4646 1.1580 0.9050
H10 H 0.5531 1.1325 0.8916
C4 C 0.15071(18) 0.8859(4) 0.61935(12)
H11 H 0.1107 0.9568 0.6362
H12 H 0.1016 0.7484 0.5789
C5 C 0.26420(17) 0.7608(4) 0.69157(12)
H13 H 0.2479 0.6123 0.7112
H14 H 0.3042 0.6894 0.6748
C6 C 0.43444(17) 0.8237(4) 0.83882(11)
H15 H 0.4810 0.7072 0.8347
H16 H 0.3983 0.7144 0.8534
Cl4 Cl 0.79201(4) 0.29570(10) 0.70822(3)
Cl5 Cl 0.5000 0.31473(14) 0.7500
H6? H -0.0506 0.5192 0.7466
loop_
_geom_bond_atom_site_label_1
_geom_bond_atom_site_label_2
_geom_bond_site_symmetry_1
_geom_bond_site_symmetry_2
Cl1 C2 1_555 1_555
N1 H1 1_555 1_555
C1 N1 1_555 1_555
H2 C1 1_555 1_555
H3 C1 1_555 1_555
C2 C1 1_555 1_555
H4 C2 1_555 1_555
H5 C2 1_555 1_555
Cl2 C4 1_555 1_555
Cl3 C3 1_555 1_555
N2 H7 1_555 1_555
H8 N2 1_555 1_555
C3 H9 1_555 1_555
H10 C3 1_555 1_555
C4 H11 1_555 1_555
H12 C4 1_555 1_555
C5 N2 1_555 1_555
H13 C5 1_555 1_555
H14 C5 1_555 1_555
C6 N2 1_555 1_555
H15 C6 1_555 1_555
H16 C6 1_555 1_555
H1A N1 1_555 1_555
Cl1A C2A 1_555 1_555
C1A N1 1_555 1_555
H2A C1A 1_555 1_555
H3A C1A 1_555 1_555
C2A C1A 1_555 1_555
H4A C2A 1_555 1_555
H5A C2A 1_555 1_555
C3 C6 1_555 1_555
C4 C5 1_555 1_555

#END
