
#######################################################################
#
#                 Cambridge Crystallographic Data Centre
#                                CCDC 
#
#######################################################################
#
# If this CIF has been generated from an entry in the Cambridge 
# Structural Database, then it will include bibliographic, chemical, 
# crystal, experimental, refinement or atomic coordinate data resulting 
# from the CCDC's data processing and validation procedures.
#
#######################################################################

data_YUWWIW13
_chemical_formula_moiety         'C4 H10 Cl2 N1 1+,Cl1 1-'
_chemical_name_systematic        'bis(2-chloroethyl)ammonium chloride'
_symmetry_cell_setting           monoclinic
_symmetry_space_group_name_H-M   'P 2/c'
_symmetry_Int_Tables_number      13
_space_group_name_Hall           '-P 2yc'
loop_
_symmetry_equiv_pos_site_id
_symmetry_equiv_pos_as_xyz
1 x,y,z
2 -x,y,1/2-z
3 -x,-y,-z
4 x,-y,1/2+z
_cell_length_a                   15.323(13)
_cell_length_b                   4.972(4)
_cell_length_c                   22.005(14)
_cell_angle_alpha                90
_cell_angle_beta                 131.66(4)
_cell_angle_gamma                90
_cell_volume                     1252.5
_exptl_crystal_colour            colorless
_exptl_crystal_description       block
_chemical_melting_point          '430 K'
_cell_formula_units_Z            6
loop_
_atom_site_label
_atom_site_type_symbol
_atom_site_fract_x
_atom_site_fract_y
_atom_site_fract_z
C1 C 0.26414(16) 0.2397(4) 0.69143(11)
H1 H 0.3039 0.3099 0.6743
H2 H 0.2486 0.3892 0.7114
C2 C 0.14966(16) 0.1158(4) 0.61908(11)
H3 H 0.1006 0.2538 0.5785
H4 H 0.1097 0.0459 0.6361
C3 C 0.43530(16) 0.1760(4) 0.83965(11)
H5 H 0.3992 0.2847 0.8544
H6 H 0.4819 0.2934 0.8357
C4 C 0.51289(16) -0.0349(4) 0.90439(11)
H7 H 0.5547 -0.1331 0.8925
H8 H 0.4657 -0.1617 0.9054
Cl1 Cl 0.16954(5) -0.15035(10) 0.57447(3)
Cl2 Cl 0.61466(4) 0.12856(11) 1.00122(3)
N1 N 0.34230(12) 0.0428(3) 0.75901(8)
H9 H 0.3766 -0.0627 0.7468
H10 H 0.2987 -0.0633 0.7630
C5 C 0.06473(17) 0.2032(4) 0.82466(11)
H11 H 0.1085 0.0676 0.8228
H12 H 0.0085 0.1106 0.8241
C6 C 0.14749(17) 0.3566(4) 0.90296(12)
H13 H 0.2031 0.4524 0.9034
H14 H 0.1908 0.2308 0.9480
Cl3 Cl 0.07317(5) 0.59345(10) 0.91692(3)
N2 N 0.0000 0.3737(4) 0.7500
H15 H -0.0508 0.4801 0.7464
H15A H 0.0508 0.4801 0.7536
C5A C -0.06473(17) 0.2032(4) 0.67534(11)
H11A H -0.1085 0.0676 0.6772
H12A H -0.0085 0.1106 0.6759
C6A C -0.14749(17) 0.3566(4) 0.59704(12)
H13A H -0.2031 0.4524 0.5966
H14A H -0.1908 0.2308 0.5520
Cl3A Cl -0.07317(5) 0.59345(10) 0.58308(3)
Cl4 Cl 0.5000 0.68422(12) 0.7500
Cl5 Cl 0.79179(4) 0.70366(9) 0.70794(3)
H16? H -0.0508 0.4801 0.7464
loop_
_geom_bond_atom_site_label_1
_geom_bond_atom_site_label_2
_geom_bond_site_symmetry_1
_geom_bond_site_symmetry_2
C1 H1 1_555 1_555
H2 C1 1_555 1_555
C2 C1 1_555 1_555
H3 C2 1_555 1_555
H4 C2 1_555 1_555
C3 H5 1_555 1_555
H6 C3 1_555 1_555
C4 C3 1_555 1_555
H7 C4 1_555 1_555
H8 C4 1_555 1_555
Cl1 C2 1_555 1_555
Cl2 C4 1_555 1_555
N1 C1 1_555 1_555
H9 N1 1_555 1_555
H10 N1 1_555 1_555
C5 H11 1_555 1_555
H12 C5 1_555 1_555
C6 C5 1_555 1_555
H13 C6 1_555 1_555
H14 C6 1_555 1_555
Cl3 C6 1_555 1_555
N2 C5 1_555 1_555
H15 N2 1_555 1_555
H15A N2 1_555 1_555
C5A N2 1_555 1_555
H11A C5A 1_555 1_555
H12A C5A 1_555 1_555
C6A C5A 1_555 1_555
H13A C6A 1_555 1_555
H14A C6A 1_555 1_555
Cl3A C6A 1_555 1_555
C3 N1 1_555 1_555

#END
