
#######################################################################
#
#                 Cambridge Crystallographic Data Centre
#                                CCDC 
#
#######################################################################
#
# If this CIF has been generated from an entry in the Cambridge 
# Structural Database, then it will include bibliographic, chemical, 
# crystal, experimental, refinement or atomic coordinate data resulting 
# from the CCDC's data processing and validation procedures.
#
#######################################################################

data_YUWYIA
_chemical_formula_moiety         'C18 H17 N1 O6 S1'
_chemical_name_systematic        
2-methoxy-5-(7-methoxy-4-oxo-4H-chromen-3-yl)-N-methylbenzenesulfonamide
_symmetry_cell_setting           monoclinic
_symmetry_space_group_name_H-M   'C 2/c'
_symmetry_Int_Tables_number      15
_space_group_name_Hall           '-C 2yn'
loop_
_symmetry_equiv_pos_site_id
_symmetry_equiv_pos_as_xyz
1 x,y,z
2 -x,y,1/2-z
3 1/2+x,1/2+y,z
4 1/2-x,1/2+y,1/2-z
5 -x,-y,-z
6 x,-y,1/2+z
7 1/2-x,1/2-y,-z
8 1/2+x,1/2-y,1/2+z
_cell_length_a                   27.677(13)
_cell_length_b                   10.491(5)
_cell_length_c                   13.983(7)
_cell_angle_alpha                90
_cell_angle_beta                 118.781(9)
_cell_angle_gamma                90
_cell_volume                     3558.54
_exptl_crystal_colour            yellow
_exptl_crystal_description       plate
_chemical_melting_point          '537.1 K'
_cell_formula_units_Z            8
loop_
_atom_site_label
_atom_site_type_symbol
_atom_site_fract_x
_atom_site_fract_y
_atom_site_fract_z
S1 S 0.74082(4) 0.50788(7) 0.72111(6)
N1 N 0.73400(13) 0.6449(3) 0.7674(2)
O1 O 0.78832(9) 0.5175(2) 0.70499(18)
O2 O 0.74044(9) 0.41239(17) 0.79449(15)
O3 O 0.69500(8) 0.68178(16) 0.53438(15)
O4 O 0.59103(8) -0.01680(16) 0.46681(15)
O5 O 0.49151(8) 0.29684(17) 0.36265(15)
O6 O 0.43534(8) -0.29302(17) 0.33038(15)
C1 C 0.68237(11) 0.4808(2) 0.5935(2)
C2 C 0.66569(11) 0.5706(2) 0.5093(2)
C3 C 0.62153(12) 0.5437(2) 0.4084(2)
H1 H 0.6100 0.6031 0.3523
C4 C 0.59444(12) 0.4280(3) 0.3909(2)
H2 H 0.5646 0.4112 0.3226
C5 C 0.61039(11) 0.3365(2) 0.4721(2)
C6 C 0.65405(11) 0.3655(2) 0.5740(2)
H3 H 0.6646 0.3069 0.6305
C7 C 0.58221(12) 0.2113(2) 0.4496(2)
C8 C 0.52191(12) 0.2025(3) 0.3927(2)
C9 C 0.49986(11) 0.0726(2) 0.3748(2)
C10 C 0.53466(12) -0.0307(2) 0.4121(2)
C11 C 0.61218(12) 0.1031(2) 0.4824(2)
H4 H 0.6504 0.1111 0.5185
C12 C 0.44288(12) 0.0481(2) 0.3213(2)
H5 H 0.4183 0.1160 0.2947
C13 C 0.42301(12) -0.0721(3) 0.3076(2)
H6 H 0.3852 -0.0865 0.2724
C14 C 0.45998(13) -0.1751(3) 0.3471(2)
C15 C 0.51582(12) -0.1568(2) 0.3994(2)
H7 H 0.5402 -0.2250 0.4255
C16 C 0.46953(13) -0.4010(3) 0.3756(2)
H8 H 0.4923 -0.4121 0.3417
H9 H 0.4470 -0.4753 0.3632
H10 H 0.4925 -0.3887 0.4527
C17 C 0.68085(13) 0.7740(2) 0.4495(2)
H11 H 0.6860 0.7376 0.3920
H12 H 0.7041 0.8475 0.4784
H13 H 0.6430 0.7987 0.4211
C18 C 0.68881(19) 0.6635(4) 0.7917(3)
H14 H 0.6544 0.6614 0.7251
H15 H 0.6929 0.7445 0.8268
H16 H 0.6894 0.5967 0.8393
H17 H 0.7355(15) 0.703(2) 0.725(2)
loop_
_geom_bond_atom_site_label_1
_geom_bond_atom_site_label_2
_geom_bond_site_symmetry_1
_geom_bond_site_symmetry_2
S1 N1 1_555 1_555
N1 C18 1_555 1_555
O1 S1 1_555 1_555
O2 S1 1_555 1_555
O3 C2 1_555 1_555
O4 C10 1_555 1_555
O5 C8 1_555 1_555
O6 C14 1_555 1_555
C1 S1 1_555 1_555
C2 C1 1_555 1_555
C3 C2 1_555 1_555
H1 C3 1_555 1_555
C4 C3 1_555 1_555
H2 C4 1_555 1_555
C5 C4 1_555 1_555
C6 C1 1_555 1_555
H3 C6 1_555 1_555
C7 C5 1_555 1_555
C8 C7 1_555 1_555
C9 C8 1_555 1_555
C10 C9 1_555 1_555
C11 O4 1_555 1_555
H4 C11 1_555 1_555
C12 C9 1_555 1_555
H5 C12 1_555 1_555
C13 C12 1_555 1_555
H6 C13 1_555 1_555
C14 C13 1_555 1_555
C15 C10 1_555 1_555
H7 C15 1_555 1_555
C16 O6 1_555 1_555
H8 C16 1_555 1_555
H9 C16 1_555 1_555
H10 C16 1_555 1_555
C17 O3 1_555 1_555
H11 C17 1_555 1_555
H12 C17 1_555 1_555
H13 C17 1_555 1_555
C18 H14 1_555 1_555
H15 C18 1_555 1_555
H16 C18 1_555 1_555
H17 N1 1_555 1_555
C5 C6 1_555 1_555
C7 C11 1_555 1_555
C14 C15 1_555 1_555

#END
