
#######################################################################
#
#                 Cambridge Crystallographic Data Centre
#                                CCDC 
#
#######################################################################
#
# If this CIF has been generated from an entry in the Cambridge 
# Structural Database, then it will include bibliographic, chemical, 
# crystal, experimental, refinement or atomic coordinate data resulting 
# from the CCDC's data processing and validation procedures.
#
#######################################################################

data_YUXFIH01
_chemical_formula_moiety         'C24 H20 B1 1-,C9 H24 N4 2+,Cl1 1-'
_chemical_name_systematic        
"N''-[2-(Dimethylammonio)ethyl]-N,N,N',N'-tetramethylguanidinium chloride tetraphenylborate"
_symmetry_cell_setting           orthorhombic
_symmetry_space_group_name_H-M   'P n a 21'
_symmetry_Int_Tables_number      33
_space_group_name_Hall           'P 2c -2n'
loop_
_symmetry_equiv_pos_site_id
_symmetry_equiv_pos_as_xyz
1 x,y,z
2 -x,-y,1/2+z
3 1/2-x,1/2+y,1/2+z
4 1/2+x,1/2-y,z
_cell_length_a                   13.1099(4)
_cell_length_b                   69.1810(11)
_cell_length_c                   13.5847(5)
_cell_angle_alpha                90
_cell_angle_beta                 90
_cell_angle_gamma                90
_cell_volume                     12320.7
_exptl_crystal_colour            colorless
_exptl_crystal_description       plate
_cell_formula_units_Z            16
loop_
_atom_site_label
_atom_site_type_symbol
_atom_site_fract_x
_atom_site_fract_y
_atom_site_fract_z
Cl1 Cl 0.57868(12) 0.11737(2) 0.26262(13)
Cl2 Cl 0.84653(11) 0.11670(2) -0.22755(13)
Cl3 Cl 1.07906(12) 0.13268(2) 0.09989(13)
Cl4 Cl 1.34373(12) 0.13525(2) -0.38919(14)
N1 N 1.5102(4) 0.20374(6) -0.3188(4)
N2 N 1.4021(3) 0.19422(6) -0.4463(4)
N3 N 1.4902(4) 0.17146(7) -0.3579(4)
H1 H 1.442(5) 0.1612(9) -0.373(5)
N4 N 1.5715(4) 0.12965(6) -0.3776(4)
H2 H 1.500(3) 0.1325(6) -0.400(3)
C1 C 1.4682(4) 0.19005(8) -0.3740(5)
C2 C 1.5360(5) 0.20062(9) -0.2153(5)
H3 H 1.5029 0.1891 -0.1921
H4 H 1.5135 0.2115 -0.1771
H5 H 1.6085 0.1992 -0.2087
C3 C 1.5330(5) 0.22307(8) -0.3578(5)
H6 H 1.5265 0.2230 -0.4282
H7 H 1.6014 0.2266 -0.3402
H8 H 1.4860 0.2323 -0.3305
C4 C 1.3341(4) 0.21101(8) -0.4422(5)
H9 H 1.3354 0.2164 -0.3771
H10 H 1.2658 0.2071 -0.4580
H11 H 1.3565 0.2205 -0.4888
C5 C 1.3828(5) 0.18094(9) -0.5279(4)
H12 H 1.4415 0.1729 -0.5378
H13 H 1.3697 0.1882 -0.5868
H14 H 1.3247 0.1730 -0.5129
C6 C 1.5906(4) 0.16463(8) -0.3237(5)
H15 H 1.5848 0.1604 -0.2558
H16 H 1.6386 0.1753 -0.3256
C7 C 1.6316(4) 0.14817(7) -0.3853(4)
H17 H 1.6327 0.1522 -0.4537
H18 H 1.7014 0.1456 -0.3656
C8 C 1.6041(5) 0.11626(9) -0.4577(5)
H19 H 1.6767 0.1146 -0.4552
H20 H 1.5851 0.1216 -0.5203
H21 H 1.5713 0.1040 -0.4491
C9 C 1.5828(5) 0.12001(9) -0.2809(5)
H22 H 1.5377 0.1091 -0.2777
H23 H 1.5661 0.1290 -0.2294
H24 H 1.6520 0.1157 -0.2730
N5 N 0.8972(4) 0.05616(7) -0.1888(4)
N6 N 0.9988(4) 0.04710(6) -0.3226(4)
N7 N 0.9860(4) 0.07927(7) -0.2774(4)
H25 H 0.943(5) 0.0885(8) -0.254(4)
N8 N 1.0731(4) 0.12106(7) -0.2598(4)
H26 H 1.016(4) 0.1187(6) -0.239(3)
C10 C 0.9605(4) 0.06059(8) -0.2635(4)
C11 C 0.8830(5) 0.06913(9) -0.1052(4)
H27 H 0.9441 0.0765 -0.0949
H28 H 0.8682 0.0617 -0.0473
H29 H 0.8272 0.0777 -0.1185
C12 C 0.8287(4) 0.03938(8) -0.1898(4)
H30 H 0.8352 0.0327 -0.2515
H31 H 0.7595 0.0437 -0.1815
H32 H 0.8465 0.0308 -0.1370
C13 C 1.0186(5) 0.02759(8) -0.2932(5)
H33 H 1.0159 0.0267 -0.2227
H34 H 1.0850 0.0238 -0.3157
H35 H 0.9681 0.0192 -0.3213
C14 C 1.0212(5) 0.05134(8) -0.4267(4)
H36 H 0.9881 0.0632 -0.4455
H37 H 0.9967 0.0410 -0.4672
H38 H 1.0936 0.0527 -0.4354
C15 C 1.0849(4) 0.08574(8) -0.3136(4)
H39 H 1.0779 0.0898 -0.3816
H40 H 1.1323 0.0750 -0.3119
C16 C 1.1289(4) 0.10234(8) -0.2540(5)
H41 H 1.1316 0.0984 -0.1856
H42 H 1.1985 0.1045 -0.2756
C17 C 1.1146(5) 0.13517(8) -0.1899(5)
H43 H 1.1845 0.1378 -0.2060
H44 H 1.1105 0.1300 -0.1244
H45 H 1.0758 0.1469 -0.1937
C18 C 1.0733(5) 0.12943(8) -0.3606(4)
H46 H 1.0297 0.1406 -0.3622
H47 H 1.0487 0.1200 -0.4066
H48 H 1.1415 0.1331 -0.3781
N9 N 1.5199(3) 0.05738(6) 0.3114(3)
N10 N 1.4165(4) 0.04764(6) 0.1814(4)
N11 N 1.4375(4) 0.08024(7) 0.2186(4)
H49 H 1.491(4) 0.0885(7) 0.208(4)
N12 N 1.3539(4) 0.12211(6) 0.2359(4)
H50 H 1.421(4) 0.1192(7) 0.256(4)
C19 C 1.4585(4) 0.06161(8) 0.2369(4)
C20 C 1.5385(4) 0.07104(8) 0.3918(5)
H51 H 1.5963 0.0790 0.3759
H52 H 1.5519 0.0640 0.4514
H53 H 1.4795 0.0791 0.4007
C21 C 1.5809(5) 0.03981(8) 0.3148(5)
H54 H 1.5521 0.0310 0.3619
H55 H 1.6495 0.0430 0.3337
H56 H 1.5815 0.0339 0.2509
C22 C 1.3900(5) 0.02860(8) 0.2199(5)
H57 H 1.4366 0.0191 0.1943
H58 H 1.3217 0.0254 0.2003
H59 H 1.3942 0.0288 0.2905
C23 C 1.3959(4) 0.05070(8) 0.0757(5)
H60 H 1.3244 0.0530 0.0662
H61 H 1.4158 0.0394 0.0394
H62 H 1.4342 0.0616 0.0528
C24 C 1.3403(4) 0.08702(8) 0.1794(4)
H63 H 1.2925 0.0763 0.1774
H64 H 1.3503 0.0916 0.1125
C25 C 1.2954(4) 0.10332(7) 0.2413(5)
H65 H 1.2259 0.1056 0.2199
H66 H 1.2928 0.0991 0.3094
C26 C 1.3154(5) 0.13570(8) 0.3123(5)
H67 H 1.3535 0.1475 0.3093
H68 H 1.3234 0.1300 0.3762
H69 H 1.2446 0.1383 0.3006
C27 C 1.3519(4) 0.13108(8) 0.1362(4)
H70 H 1.3768 0.1220 0.0886
H71 H 1.3944 0.1424 0.1358
H72 H 1.2832 0.1347 0.1199
N13 N 1.0262(3) 0.19280(6) 0.0525(4)
N14 N 0.9172(4) 0.20232(7) 0.1799(4)
N15 N 0.9359(4) 0.16983(7) 0.1405(4)
H73 H 0.974(3) 0.1615(6) 0.123(3)
N16 N 0.8516(4) 0.12804(6) 0.1203(4)
H74 H 0.915(5) 0.1311(10) 0.139(6)
C28 C 0.9603(4) 0.18854(8) 0.1246(5)
C29 C 1.0456(5) 0.17964(9) -0.0282(4)
H75 H 1.1020 0.1714 -0.0119
H76 H 1.0615 0.1869 -0.0865
H77 H 0.9860 0.1719 -0.0399
C30 C 1.0927(4) 0.20984(8) 0.0574(5)
H78 H 1.0852 0.2160 0.1204
H79 H 1.0741 0.2188 0.0064
H80 H 1.1624 0.2059 0.0486
C31 C 0.8930(5) 0.22147(8) 0.1431(5)
H81 H 0.9352 0.2309 0.1756
H82 H 0.8226 0.2243 0.1559
H83 H 0.9053 0.2219 0.0735
C32 C 0.8923(5) 0.19896(9) 0.2844(5)
H84 H 0.8197 0.1977 0.2917
H85 H 0.9158 0.2097 0.3231
H86 H 0.9250 0.1873 0.3065
C33 C 0.8376(4) 0.16291(8) 0.1765(4)
H87 H 0.7897 0.1736 0.1774
H88 H 0.8456 0.1584 0.2436
C34 C 0.7945(4) 0.14691(8) 0.1149(5)
H89 H 0.7931 0.1511 0.0468
H90 H 0.7245 0.1447 0.1351
C35 C 0.8137(5) 0.11404(9) 0.0460(5)
H91 H 0.8531 0.1024 0.0496
H92 H 0.8201 0.1195 -0.0186
H93 H 0.7433 0.1112 0.0588
C36 C 0.8476(5) 0.11915(9) 0.2214(5)
H94 H 0.7782 0.1160 0.2375
H95 H 0.8738 0.1282 0.2688
H96 H 0.8881 0.1076 0.2224
B1 B 0.9479(5) 0.05109(10) 0.2226(6)
C37 C 1.0254(4) 0.05633(8) 0.1331(4)
C38 C 1.0606(4) 0.04191(9) 0.0698(5)
H97 H 1.0428 0.0292 0.0834
C39 C 1.1208(5) 0.04550(9) -0.0125(5)
H98 H 1.1412 0.0352 -0.0522
C40 C 1.1508(4) 0.06418(9) -0.0363(5)
H99 H 1.1921 0.0667 -0.0905
C41 C 1.1160(4) 0.07902(8) 0.0252(4)
H100 H 1.1340 0.0917 0.0117
C42 C 1.0548(4) 0.07497(8) 0.1063(5)
H101 H 1.0323 0.0853 0.1447
C43 C 0.9321(4) 0.06884(8) 0.2999(4)
C44 C 1.0150(5) 0.07925(8) 0.3361(4)
H102 H 1.0796 0.0759 0.3135
C45 C 1.0085(5) 0.09404(9) 0.4025(4)
H103 H 1.0670 0.1008 0.4208
C46 C 0.9143(5) 0.09911(9) 0.4429(5)
H104 H 0.9082 0.1089 0.4893
C47 C 0.8308(5) 0.08882(8) 0.4107(5)
H105 H 0.7669 0.0918 0.4359
C48 C 0.8389(5) 0.07399(8) 0.3413(4)
H106 H 0.7804 0.0674 0.3222
C49 C 0.8408(4) 0.04452(9) 0.1681(4)
C50 C 0.7687(5) 0.05799(10) 0.1321(5)
H107 H 0.7789 0.0711 0.1440
C51 C 0.6825(5) 0.05217(11) 0.0790(5)
H108 H 0.6365 0.0614 0.0567
C52 C 0.6653(5) 0.03323(11) 0.0595(5)
H109 H 0.6073 0.0295 0.0248
C53 C 0.7333(5) 0.01947(10) 0.0911(4)
H110 H 0.7224 0.0065 0.0776
C54 C 0.8191(5) 0.02538(10) 0.1437(4)
H111 H 0.8649 0.0159 0.1639
C55 C 0.9905(4) 0.03336(8) 0.2906(4)
C56 C 0.9257(4) 0.02315(8) 0.3536(4)
H112 H 0.8565 0.0260 0.3517
C57 C 0.9584(4) 0.00884(8) 0.4196(5)
H113 H 0.9119 0.0024 0.4594
C58 C 1.0634(5) 0.00447(9) 0.4243(5)
H114 H 1.0875 -0.0048 0.4679
C59 C 1.1296(5) 0.01423(9) 0.3631(5)
H115 H 1.1989 0.0114 0.3650
C60 C 1.0939(5) 0.02821(8) 0.2989(5)
H116 H 1.1408 0.0345 0.2590
B2 B 0.9761(5) 0.19727(9) -0.3655(5)
C61 C 1.0858(4) 0.20087(8) -0.3096(4)
C62 C 1.1526(4) 0.18577(10) -0.2867(5)
H117 H 1.1373 0.1733 -0.3082
C63 C 1.2427(5) 0.18884(11) -0.2318(5)
H118 H 1.2872 0.1786 -0.2207
C64 C 1.2650(5) 0.20668(12) -0.1951(5)
H119 H 1.3232 0.2086 -0.1572
C65 C 1.2008(5) 0.22182(11) -0.2145(5)
H120 H 1.2154 0.2341 -0.1901
C66 C 1.1127(5) 0.21881(10) -0.2714(5)
H121 H 1.0704 0.2293 -0.2842
C67 C 0.9462(4) 0.21609(8) -0.4320(4)
C68 C 1.0201(5) 0.22581(8) -0.4881(4)
H122 H 1.0880 0.2223 -0.4801
C69 C 0.9973(5) 0.24045(8) -0.5548(5)
H123 H 1.0494 0.2464 -0.5900
C70 C 0.8956(5) 0.24621(9) -0.5689(5)
H124 H 0.8791 0.2556 -0.6150
C71 C 0.8211(5) 0.23755(8) -0.5128(5)
H125 H 0.7540 0.2418 -0.5179
C72 C 0.8442(5) 0.22257(8) -0.4489(5)
H126 H 0.7911 0.2165 -0.4156
C73 C 0.8964(4) 0.19322(8) -0.2740(5)
C74 C 0.8626(4) 0.20834(8) -0.2141(5)
H127 H 0.8788 0.2210 -0.2317
C75 C 0.8058(5) 0.20520(10) -0.1293(5)
H128 H 0.7860 0.2157 -0.0913
C76 C 0.7781(5) 0.18696(9) -0.1005(5)
H129 H 0.7399 0.1850 -0.0437
C77 C 0.8097(4) 0.17133(9) -0.1597(4)
H130 H 0.7917 0.1588 -0.1427
C78 C 0.8677(4) 0.17470(8) -0.2434(4)
H131 H 0.8884 0.1642 -0.2809
C79 C 0.9804(4) 0.17926(8) -0.4434(5)
C80 C 0.8935(5) 0.16882(8) -0.4732(4)
H132 H 0.8307 0.1720 -0.4459
C81 C 0.8978(5) 0.15400(8) -0.5413(4)
H133 H 0.8380 0.1477 -0.5594
C82 C 0.9895(5) 0.14830(8) -0.5833(4)
H134 H 0.9926 0.1380 -0.6269
C83 C 1.0763(5) 0.15857(8) -0.5581(4)
H135 H 1.1388 0.1552 -0.5855
C84 C 1.0708(5) 0.17375(8) -0.4929(5)
H136 H 1.1299 0.1808 -0.4807
B3 B 0.4505(5) 0.19740(9) 0.1350(6)
C85 C 0.4802(5) 0.21671(8) 0.0676(4)
C86 C 0.5810(5) 0.22307(8) 0.0514(5)
H137 H 0.6340 0.2169 0.0843
C87 C 0.6038(5) 0.23815(8) -0.0117(5)
H138 H 0.6709 0.2424 -0.0179
C88 C 0.5269(5) 0.24706(8) -0.0659(5)
H139 H 0.5423 0.2567 -0.1110
C89 C 0.4263(5) 0.24119(8) -0.0513(5)
H140 H 0.3737 0.2472 -0.0855
C90 C 0.4049(4) 0.22655(8) 0.0135(4)
H141 H 0.3372 0.2229 0.0222
C91 C 0.4471(4) 0.17977(8) 0.0543(4)
C92 C 0.3582(5) 0.17454(8) 0.0036(5)
H142 H 0.2992 0.1817 0.0150
C93 C 0.3538(5) 0.15947(8) -0.0619(4)
H143 H 0.2919 0.1561 -0.0905
C94 C 0.4404(5) 0.14939(8) -0.0851(5)
H144 H 0.4380 0.1391 -0.1294
C95 C 0.5311(5) 0.15470(8) -0.0416(4)
H145 H 0.5910 0.1483 -0.0583
C96 C 0.5341(4) 0.16934(8) 0.0261(4)
H146 H 0.5964 0.1725 0.0545
C97 C 0.5307(4) 0.19355(8) 0.2250(4)
C98 C 0.5602(4) 0.17489(8) 0.2564(4)
H147 H 0.5405 0.1643 0.2189
C99 C 0.6174(4) 0.17168(9) 0.3412(4)
H148 H 0.6345 0.1591 0.3595
C100 C 0.6484(4) 0.18696(9) 0.3976(4)
H149 H 0.6883 0.1849 0.4532
C101 C 0.6200(4) 0.20545(9) 0.3709(5)
H150 H 0.6382 0.2158 0.4106
C102 C 0.5648(4) 0.20862(8) 0.2859(5)
H151 H 0.5496 0.2213 0.2682
C103 C 0.3412(4) 0.20086(8) 0.1903(4)
C104 C 0.2743(5) 0.18567(9) 0.2120(5)
H152 H 0.2899 0.1734 0.1883
C105 C 0.1859(4) 0.18794(9) 0.2673(5)
H153 H 0.1426 0.1775 0.2776
C106 C 0.1631(5) 0.20554(10) 0.3061(5)
H154 H 0.1053 0.2071 0.3449
C107 C 0.2264(5) 0.22104(10) 0.2876(5)
H155 H 0.2110 0.2331 0.3139
C108 C 0.3137(4) 0.21865(10) 0.2294(5)
H156 H 0.3545 0.2293 0.2164
B4 B 1.4650(5) 0.05459(10) 0.7176(6)
C109 C 1.3939(4) 0.06159(8) 0.6232(4)
C110 C 1.3613(4) 0.04750(8) 0.5542(5)
H157 H 1.3824 0.0348 0.5627
C111 C 1.2996(4) 0.05186(9) 0.4752(4)
H158 H 1.2781 0.0421 0.4329
C112 C 1.2693(4) 0.07108(9) 0.4588(5)
H159 H 1.2284 0.0741 0.4051
C113 C 1.3010(4) 0.08562(8) 0.5236(4)
H160 H 1.2821 0.0984 0.5133
C114 C 1.3614(4) 0.08057(8) 0.6036(4)
H161 H 1.3815 0.0903 0.6467
C115 C 1.4144(4) 0.03639(7) 0.7761(4)
C116 C 1.3109(4) 0.03096(8) 0.7649(4)
H162 H 1.2691 0.0380 0.7227
C117 C 1.2706(5) 0.01527(8) 0.8158(4)
H163 H 1.2026 0.0119 0.8069
C118 C 1.3315(5) 0.00463(8) 0.8802(4)
H164 H 1.3052 -0.0061 0.9126
C119 C 1.4318(5) 0.01021(8) 0.8953(5)
H165 H 1.4726 0.0035 0.9395
C120 C 1.4706(5) 0.02572(8) 0.8446(4)
H166 H 1.5379 0.0293 0.8565
C121 C 1.5744(4) 0.04769(8) 0.6668(4)
C122 C 1.5966(5) 0.02845(9) 0.6459(4)
H167 H 1.5506 0.0190 0.6655
C123 C 1.6848(5) 0.02282(10) 0.5970(5)
H168 H 1.6968 0.0098 0.5849
C124 C 1.7537(5) 0.03627(10) 0.5666(5)
H169 H 1.8125 0.0325 0.5335
C125 C 1.7353(5) 0.05569(10) 0.5856(4)
H170 H 1.7821 0.0650 0.5654
C126 C 1.6478(4) 0.06120(9) 0.6343(5)
H171 H 1.6367 0.0743 0.6461
C127 C 1.4825(4) 0.07152(8) 0.8001(4)
C128 C 1.5751(5) 0.07567(8) 0.8464(5)
H172 H 1.6327 0.0688 0.8268
C129 C 1.5858(5) 0.08921(8) 0.9187(4)
H173 H 1.6496 0.0912 0.9469
C130 C 1.5032(5) 0.10010(8) 0.9509(5)
H174 H 1.5112 0.1095 0.9991
C131 C 1.4078(5) 0.09649(8) 0.9087(4)
H175 H 1.3507 0.1034 0.9290
C132 C 1.3990(5) 0.08247(8) 0.8361(4)
H176 H 1.3348 0.0801 0.8096
loop_
_geom_bond_atom_site_label_1
_geom_bond_atom_site_label_2
_geom_bond_site_symmetry_1
_geom_bond_site_symmetry_2
N1 C1 1_555 1_555
N2 C1 1_555 1_555
N3 H1 1_555 1_555
N4 H2 1_555 1_555
C1 N3 1_555 1_555
C2 N1 1_555 1_555
H3 C2 1_555 1_555
H4 C2 1_555 1_555
H5 C2 1_555 1_555
C3 N1 1_555 1_555
H6 C3 1_555 1_555
H7 C3 1_555 1_555
H8 C3 1_555 1_555
C4 N2 1_555 1_555
H9 C4 1_555 1_555
H10 C4 1_555 1_555
H11 C4 1_555 1_555
C5 N2 1_555 1_555
H12 C5 1_555 1_555
H13 C5 1_555 1_555
H14 C5 1_555 1_555
C6 N3 1_555 1_555
H15 C6 1_555 1_555
H16 C6 1_555 1_555
C7 N4 1_555 1_555
H17 C7 1_555 1_555
H18 C7 1_555 1_555
C8 N4 1_555 1_555
H19 C8 1_555 1_555
H20 C8 1_555 1_555
H21 C8 1_555 1_555
C9 N4 1_555 1_555
H22 C9 1_555 1_555
H23 C9 1_555 1_555
H24 C9 1_555 1_555
N5 C10 1_555 1_555
N6 C10 1_555 1_555
N7 H25 1_555 1_555
N8 H26 1_555 1_555
C10 N7 1_555 1_555
C11 N5 1_555 1_555
H27 C11 1_555 1_555
H28 C11 1_555 1_555
H29 C11 1_555 1_555
C12 N5 1_555 1_555
H30 C12 1_555 1_555
H31 C12 1_555 1_555
H32 C12 1_555 1_555
C13 N6 1_555 1_555
H33 C13 1_555 1_555
H34 C13 1_555 1_555
H35 C13 1_555 1_555
C14 N6 1_555 1_555
H36 C14 1_555 1_555
H37 C14 1_555 1_555
H38 C14 1_555 1_555
C15 N7 1_555 1_555
H39 C15 1_555 1_555
H40 C15 1_555 1_555
C16 N8 1_555 1_555
H41 C16 1_555 1_555
H42 C16 1_555 1_555
C17 N8 1_555 1_555
H43 C17 1_555 1_555
H44 C17 1_555 1_555
H45 C17 1_555 1_555
C18 N8 1_555 1_555
H46 C18 1_555 1_555
H47 C18 1_555 1_555
H48 C18 1_555 1_555
N9 C19 1_555 1_555
N10 C19 1_555 1_555
N11 H49 1_555 1_555
N12 H50 1_555 1_555
C19 N11 1_555 1_555
C20 N9 1_555 1_555
H51 C20 1_555 1_555
H52 C20 1_555 1_555
H53 C20 1_555 1_555
C21 N9 1_555 1_555
H54 C21 1_555 1_555
H55 C21 1_555 1_555
H56 C21 1_555 1_555
C22 N10 1_555 1_555
H57 C22 1_555 1_555
H58 C22 1_555 1_555
H59 C22 1_555 1_555
C23 N10 1_555 1_555
H60 C23 1_555 1_555
H61 C23 1_555 1_555
H62 C23 1_555 1_555
C24 N11 1_555 1_555
H63 C24 1_555 1_555
H64 C24 1_555 1_555
C25 N12 1_555 1_555
H65 C25 1_555 1_555
H66 C25 1_555 1_555
C26 N12 1_555 1_555
H67 C26 1_555 1_555
H68 C26 1_555 1_555
H69 C26 1_555 1_555
C27 N12 1_555 1_555
H70 C27 1_555 1_555
H71 C27 1_555 1_555
H72 C27 1_555 1_555
N13 C28 1_555 1_555
N14 C28 1_555 1_555
N15 H73 1_555 1_555
N16 H74 1_555 1_555
C28 N15 1_555 1_555
C29 N13 1_555 1_555
H75 C29 1_555 1_555
H76 C29 1_555 1_555
H77 C29 1_555 1_555
C30 N13 1_555 1_555
H78 C30 1_555 1_555
H79 C30 1_555 1_555
H80 C30 1_555 1_555
C31 N14 1_555 1_555
H81 C31 1_555 1_555
H82 C31 1_555 1_555
H83 C31 1_555 1_555
C32 N14 1_555 1_555
H84 C32 1_555 1_555
H85 C32 1_555 1_555
H86 C32 1_555 1_555
C33 N15 1_555 1_555
H87 C33 1_555 1_555
H88 C33 1_555 1_555
C34 N16 1_555 1_555
H89 C34 1_555 1_555
H90 C34 1_555 1_555
C35 N16 1_555 1_555
H91 C35 1_555 1_555
H92 C35 1_555 1_555
H93 C35 1_555 1_555
C36 N16 1_555 1_555
H94 C36 1_555 1_555
H95 C36 1_555 1_555
H96 C36 1_555 1_555
B1 C37 1_555 1_555
C37 C38 1_555 1_555
C38 H97 1_555 1_555
C39 C38 1_555 1_555
H98 C39 1_555 1_555
C40 C39 1_555 1_555
H99 C40 1_555 1_555
C41 C40 1_555 1_555
H100 C41 1_555 1_555
C42 C37 1_555 1_555
H101 C42 1_555 1_555
C43 B1 1_555 1_555
C44 C43 1_555 1_555
H102 C44 1_555 1_555
C45 C44 1_555 1_555
H103 C45 1_555 1_555
C46 C45 1_555 1_555
H104 C46 1_555 1_555
C47 C46 1_555 1_555
H105 C47 1_555 1_555
C48 C43 1_555 1_555
H106 C48 1_555 1_555
C49 B1 1_555 1_555
C50 C49 1_555 1_555
H107 C50 1_555 1_555
C51 C50 1_555 1_555
H108 C51 1_555 1_555
C52 C51 1_555 1_555
H109 C52 1_555 1_555
C53 C52 1_555 1_555
H110 C53 1_555 1_555
C54 C49 1_555 1_555
H111 C54 1_555 1_555
C55 B1 1_555 1_555
C56 C55 1_555 1_555
H112 C56 1_555 1_555
C57 C56 1_555 1_555
H113 C57 1_555 1_555
C58 C57 1_555 1_555
H114 C58 1_555 1_555
C59 C58 1_555 1_555
H115 C59 1_555 1_555
C60 C55 1_555 1_555
H116 C60 1_555 1_555
B2 C61 1_555 1_555
C61 C62 1_555 1_555
C62 H117 1_555 1_555
C63 C62 1_555 1_555
H118 C63 1_555 1_555
C64 C63 1_555 1_555
H119 C64 1_555 1_555
C65 C64 1_555 1_555
H120 C65 1_555 1_555
C66 C61 1_555 1_555
H121 C66 1_555 1_555
C67 B2 1_555 1_555
C68 C67 1_555 1_555
H122 C68 1_555 1_555
C69 C68 1_555 1_555
H123 C69 1_555 1_555
C70 C69 1_555 1_555
H124 C70 1_555 1_555
C71 C70 1_555 1_555
H125 C71 1_555 1_555
C72 C67 1_555 1_555
H126 C72 1_555 1_555
C73 B2 1_555 1_555
C74 C73 1_555 1_555
H127 C74 1_555 1_555
C75 C74 1_555 1_555
H128 C75 1_555 1_555
C76 C75 1_555 1_555
H129 C76 1_555 1_555
C77 C76 1_555 1_555
H130 C77 1_555 1_555
C78 C73 1_555 1_555
H131 C78 1_555 1_555
C79 B2 1_555 1_555
C80 C79 1_555 1_555
H132 C80 1_555 1_555
C81 C80 1_555 1_555
H133 C81 1_555 1_555
C82 C81 1_555 1_555
H134 C82 1_555 1_555
C83 C82 1_555 1_555
H135 C83 1_555 1_555
C84 C79 1_555 1_555
H136 C84 1_555 1_555
B3 C85 1_555 1_555
C85 C86 1_555 1_555
C86 H137 1_555 1_555
C87 C86 1_555 1_555
H138 C87 1_555 1_555
C88 C87 1_555 1_555
H139 C88 1_555 1_555
C89 C88 1_555 1_555
H140 C89 1_555 1_555
C90 C85 1_555 1_555
H141 C90 1_555 1_555
C91 B3 1_555 1_555
C92 C91 1_555 1_555
H142 C92 1_555 1_555
C93 C92 1_555 1_555
H143 C93 1_555 1_555
C94 C93 1_555 1_555
H144 C94 1_555 1_555
C95 C94 1_555 1_555
H145 C95 1_555 1_555
C96 C91 1_555 1_555
H146 C96 1_555 1_555
C97 B3 1_555 1_555
C98 C97 1_555 1_555
H147 C98 1_555 1_555
C99 C98 1_555 1_555
H148 C99 1_555 1_555
C100 C99 1_555 1_555
H149 C100 1_555 1_555
C101 C100 1_555 1_555
H150 C101 1_555 1_555
C102 C97 1_555 1_555
H151 C102 1_555 1_555
C103 B3 1_555 1_555
C104 C103 1_555 1_555
H152 C104 1_555 1_555
C105 C104 1_555 1_555
H153 C105 1_555 1_555
C106 C105 1_555 1_555
H154 C106 1_555 1_555
C107 C106 1_555 1_555
H155 C107 1_555 1_555
C108 C103 1_555 1_555
H156 C108 1_555 1_555
B4 C109 1_555 1_555
C109 C110 1_555 1_555
C110 H157 1_555 1_555
C111 C110 1_555 1_555
H158 C111 1_555 1_555
C112 C111 1_555 1_555
H159 C112 1_555 1_555
C113 C112 1_555 1_555
H160 C113 1_555 1_555
C114 C109 1_555 1_555
H161 C114 1_555 1_555
C115 B4 1_555 1_555
C116 C115 1_555 1_555
H162 C116 1_555 1_555
C117 C116 1_555 1_555
H163 C117 1_555 1_555
C118 C117 1_555 1_555
H164 C118 1_555 1_555
C119 C118 1_555 1_555
H165 C119 1_555 1_555
C120 C115 1_555 1_555
H166 C120 1_555 1_555
C121 B4 1_555 1_555
C122 C121 1_555 1_555
H167 C122 1_555 1_555
C123 C122 1_555 1_555
H168 C123 1_555 1_555
C124 C123 1_555 1_555
H169 C124 1_555 1_555
C125 C124 1_555 1_555
H170 C125 1_555 1_555
C126 C121 1_555 1_555
H171 C126 1_555 1_555
C127 B4 1_555 1_555
C128 C127 1_555 1_555
H172 C128 1_555 1_555
C129 C128 1_555 1_555
H173 C129 1_555 1_555
C130 C129 1_555 1_555
H174 C130 1_555 1_555
C131 C130 1_555 1_555
H175 C131 1_555 1_555
C132 C127 1_555 1_555
H176 C132 1_555 1_555
C6 C7 1_555 1_555
C15 C16 1_555 1_555
C24 C25 1_555 1_555
C33 C34 1_555 1_555
C41 C42 1_555 1_555
C47 C48 1_555 1_555
C53 C54 1_555 1_555
C59 C60 1_555 1_555
C65 C66 1_555 1_555
C71 C72 1_555 1_555
C77 C78 1_555 1_555
C83 C84 1_555 1_555
C89 C90 1_555 1_555
C95 C96 1_555 1_555
C101 C102 1_555 1_555
C107 C108 1_555 1_555
C113 C114 1_555 1_555
C119 C120 1_555 1_555
C125 C126 1_555 1_555
C131 C132 1_555 1_555

#END
