
#######################################################################
#
#                 Cambridge Crystallographic Data Centre
#                                CCDC 
#
#######################################################################
#
# If this CIF has been generated from an entry in the Cambridge 
# Structural Database, then it will include bibliographic, chemical, 
# crystal, experimental, refinement or atomic coordinate data resulting 
# from the CCDC's data processing and validation procedures.
#
#######################################################################

data_YUXFED
_chemical_formula_moiety         'C24 H20 B1 1-,C10 H26 N4 2+,Cl1 1-'
_chemical_name_systematic        
"N''-[3-(Dimethylammonio)propyl]-N,N,N',N'-tetramethylguanidinium chloride tetraphenylborate"
_symmetry_cell_setting           monoclinic
_symmetry_space_group_name_H-M   'P 21/c'
_symmetry_Int_Tables_number      14
_space_group_name_Hall           '-P 2ybc'
loop_
_symmetry_equiv_pos_site_id
_symmetry_equiv_pos_as_xyz
1 x,y,z
2 -x,1/2+y,1/2-z
3 -x,-y,-z
4 x,1/2-y,1/2+z
_cell_length_a                   10.8010(3)
_cell_length_b                   14.1502(5)
_cell_length_c                   20.9867(9)
_cell_angle_alpha                90
_cell_angle_beta                 94.3220(10)
_cell_angle_gamma                90
_cell_volume                     3198.41
_exptl_crystal_colour            colorless
_exptl_crystal_description       block
_cell_formula_units_Z            4
loop_
_atom_site_label
_atom_site_type_symbol
_atom_site_fract_x
_atom_site_fract_y
_atom_site_fract_z
Cl1 Cl 0.62340(3) 0.40242(2) 0.248739(16)
N1 N 0.33583(10) 0.72800(8) 0.08192(5)
N2 N 0.35976(10) 0.57331(8) 0.11674(5)
N3 N 0.41074(11) 0.69842(8) 0.18580(5)
H1 H 0.3928(16) 0.7578(13) 0.1964(8)
N4 N 0.76942(10) 0.58443(8) 0.28377(5)
H2 H 0.7149(16) 0.5415(12) 0.2648(8)
C1 C 0.36896(11) 0.66675(9) 0.12837(6)
C2 C 0.38198(14) 0.82493(9) 0.08266(7)
H3 H 0.3222 0.8659 0.1000
H4 H 0.3951 0.8443 0.0399
H5 H 0.4590 0.8283 0.1086
C3 C 0.23472(13) 0.70782(10) 0.03337(7)
H6 H 0.1965 0.6488 0.0430
H7 H 0.2673 0.7040 -0.0079
H8 H 0.1741 0.7575 0.0331
C4 C 0.37786(13) 0.53334(10) 0.05403(6)
H9 H 0.2997 0.5114 0.0347
H10 H 0.4350 0.4814 0.0587
H11 H 0.4108 0.5809 0.0274
C5 C 0.32327(14) 0.50625(10) 0.16458(7)
H12 H 0.3925 0.4663 0.1775
H13 H 0.2557 0.4682 0.1467
H14 H 0.2976 0.5401 0.2010
C6 C 0.50069(13) 0.64958(9) 0.23028(6)
H15 H 0.5251 0.5904 0.2115
H16 H 0.4626 0.6353 0.2696
C7 C 0.61475(13) 0.71116(9) 0.24500(6)
H17 H 0.6601 0.7161 0.2070
H18 H 0.5882 0.7742 0.2560
C8 C 0.70091(12) 0.67299(9) 0.29930(6)
H19 H 0.7612 0.7215 0.3122
H20 H 0.6526 0.6604 0.3355
C9 C 0.82321(13) 0.53993(10) 0.34401(6)
H21 H 0.8718 0.4859 0.3339
H22 H 0.7574 0.5204 0.3693
H23 H 0.8752 0.5848 0.3676
C10 C 0.86862(13) 0.60269(11) 0.23964(7)
H24 H 0.9315 0.6422 0.2606
H25 H 0.8334 0.6338 0.2019
H26 H 0.9049 0.5438 0.2281
B1 B 0.19895(13) 0.22935(10) -0.02608(7)
C11 C 0.32812(11) 0.19799(9) 0.01513(6)
C12 C 0.40951(12) 0.26318(9) 0.04628(6)
H27 H 0.3914 0.3272 0.0417
C13 C 0.51616(12) 0.23708(10) 0.08372(6)
H28 H 0.5670 0.2830 0.1037
C14 C 0.54588(12) 0.14222(10) 0.09101(6)
H29 H 0.6181 0.1239 0.1147
C15 C 0.46657(12) 0.07502(10) 0.06255(6)
H30 H 0.4846 0.0111 0.0680
C16 C 0.35993(12) 0.10270(9) 0.02589(6)
H31 H 0.3076 0.0562 0.0078
C17 C 0.20353(11) 0.34086(9) -0.04879(6)
C18 C 0.10294(12) 0.40318(9) -0.04731(6)
H32 H 0.0325 0.3832 -0.0282
C19 C 0.10387(12) 0.49391(9) -0.07320(6)
H33 H 0.0350 0.5329 -0.0711
C20 C 0.20704(12) 0.52610(9) -0.10198(6)
H34 H 0.2084 0.5867 -0.1191
C21 C 0.30836(12) 0.46639(9) -0.10479(6)
H35 H 0.3782 0.4869 -0.1242
C22 C 0.30623(12) 0.37628(9) -0.07879(6)
H36 H 0.3754 0.3377 -0.0813
C23 C 0.08763(11) 0.20963(9) 0.02154(6)
C24 C 0.00745(12) 0.13145(9) 0.01615(6)
H37 H 0.0143 0.0895 -0.0175
C25 C -0.08211(12) 0.11411(10) 0.05937(7)
H38 H -0.1329 0.0612 0.0543
C26 C -0.09563(12) 0.17532(10) 0.10973(7)
H39 H -0.1560 0.1645 0.1382
C27 C -0.01753(12) 0.25318(10) 0.11703(6)
H40 H -0.0254 0.2949 0.1507
C28 C 0.07216(12) 0.26881(9) 0.07419(6)
H41 H 0.1244 0.3207 0.0806
C29 C 0.17435(12) 0.17267(9) -0.09425(6)
C30 C 0.26102(12) 0.11573(9) -0.12212(6)
H42 H 0.3361 0.1030 -0.0990
C31 C 0.23972(14) 0.07717(10) -0.18309(7)
H43 H 0.3000 0.0396 -0.1998
C32 C 0.12933(14) 0.09462(10) -0.21877(7)
H44 H 0.1149 0.0694 -0.2596
C33 C 0.04013(13) 0.15047(10) -0.19276(7)
H45 H -0.0349 0.1625 -0.2161
C34 C 0.06294(12) 0.18829(10) -0.13213(6)
H46 H 0.0020 0.2256 -0.1157
loop_
_geom_bond_atom_site_label_1
_geom_bond_atom_site_label_2
_geom_bond_site_symmetry_1
_geom_bond_site_symmetry_2
N1 C1 1_555 1_555
N2 C1 1_555 1_555
N3 H1 1_555 1_555
N4 H2 1_555 1_555
C1 N3 1_555 1_555
C2 N1 1_555 1_555
H3 C2 1_555 1_555
H4 C2 1_555 1_555
H5 C2 1_555 1_555
C3 N1 1_555 1_555
H6 C3 1_555 1_555
H7 C3 1_555 1_555
H8 C3 1_555 1_555
C4 N2 1_555 1_555
H9 C4 1_555 1_555
H10 C4 1_555 1_555
H11 C4 1_555 1_555
C5 N2 1_555 1_555
H12 C5 1_555 1_555
H13 C5 1_555 1_555
H14 C5 1_555 1_555
C6 N3 1_555 1_555
H15 C6 1_555 1_555
H16 C6 1_555 1_555
C7 C6 1_555 1_555
H17 C7 1_555 1_555
H18 C7 1_555 1_555
C8 N4 1_555 1_555
H19 C8 1_555 1_555
H20 C8 1_555 1_555
C9 N4 1_555 1_555
H21 C9 1_555 1_555
H22 C9 1_555 1_555
H23 C9 1_555 1_555
C10 N4 1_555 1_555
H24 C10 1_555 1_555
H25 C10 1_555 1_555
H26 C10 1_555 1_555
B1 C11 1_555 1_555
C11 C12 1_555 1_555
C12 H27 1_555 1_555
C13 C12 1_555 1_555
H28 C13 1_555 1_555
C14 C13 1_555 1_555
H29 C14 1_555 1_555
C15 C14 1_555 1_555
H30 C15 1_555 1_555
C16 C11 1_555 1_555
H31 C16 1_555 1_555
C17 B1 1_555 1_555
C18 C17 1_555 1_555
H32 C18 1_555 1_555
C19 C18 1_555 1_555
H33 C19 1_555 1_555
C20 C19 1_555 1_555
H34 C20 1_555 1_555
C21 C20 1_555 1_555
H35 C21 1_555 1_555
C22 C17 1_555 1_555
H36 C22 1_555 1_555
C23 B1 1_555 1_555
C24 C23 1_555 1_555
H37 C24 1_555 1_555
C25 C24 1_555 1_555
H38 C25 1_555 1_555
C26 C25 1_555 1_555
H39 C26 1_555 1_555
C27 C26 1_555 1_555
H40 C27 1_555 1_555
C28 C23 1_555 1_555
H41 C28 1_555 1_555
C29 B1 1_555 1_555
C30 C29 1_555 1_555
H42 C30 1_555 1_555
C31 C30 1_555 1_555
H43 C31 1_555 1_555
C32 C31 1_555 1_555
H44 C32 1_555 1_555
C33 C32 1_555 1_555
H45 C33 1_555 1_555
C34 C29 1_555 1_555
H46 C34 1_555 1_555
C7 C8 1_555 1_555
C15 C16 1_555 1_555
C21 C22 1_555 1_555
C27 C28 1_555 1_555
C33 C34 1_555 1_555

#END
