
#######################################################################
#
#                 Cambridge Crystallographic Data Centre
#                                CCDC 
#
#######################################################################
#
# If this CIF has been generated from an entry in the Cambridge 
# Structural Database, then it will include bibliographic, chemical, 
# crystal, experimental, refinement or atomic coordinate data resulting 
# from the CCDC's data processing and validation procedures.
#
#######################################################################

data_YUXGON
_chemical_formula_moiety         'C16 H11 N1'
_chemical_name_systematic        6H-Indeno(1,2-b)quinoline
_symmetry_cell_setting           monoclinic
_symmetry_space_group_name_H-M   'P 21/n'
_symmetry_Int_Tables_number      14
_space_group_name_Hall           '-P 2yn'
loop_
_symmetry_equiv_pos_site_id
_symmetry_equiv_pos_as_xyz
1 x,y,z
2 1/2-x,1/2+y,1/2-z
3 -x,-y,-z
4 1/2+x,1/2-y,1/2+z
_cell_length_a                   6.058(2)
_cell_length_b                   9.650(3)
_cell_length_c                   19.185(4)
_cell_angle_alpha                90
_cell_angle_beta                 94.17(2)
_cell_angle_gamma                90
_cell_volume                     1118.58
_chemical_melting_point          '160-162 deg.C'
_cell_formula_units_Z            4
loop_
_atom_site_label
_atom_site_type_symbol
_atom_site_fract_x
_atom_site_fract_y
_atom_site_fract_z
C1 C -0.2573(6) 0.3484(3) 0.5019(2)
C2 C -0.0956(5) 0.2545(3) 0.5269(1)
C3 C -0.2397(5) 0.4119(3) 0.4390(1)
C4 C -0.0625(5) 0.3850(3) 0.3991(2)
C5 C 0.1000(5) 0.2946(3) 0.4221(1)
C6 C 0.0869(5) 0.2269(2) 0.4869(1)
C7 C 0.2454(5) 0.1284(3) 0.5156(2)
C8 C 0.2000(3) 0.0724(2) 0.5792(1)
C9 C 0.3171(5) -0.0295(4) 0.6243(1)
C10 C 0.1837(4) -0.0497(2) 0.6856(1)
C11 C 0.2243(5) -0.1403(3) 0.7411(1)
C12 C 0.0759(5) -0.1501(3) 0.7915(1)
C13 C -0.1123(5) -0.0683(3) 0.7888(1)
C14 C -0.1528(5) 0.0241(3) 0.7346(1)
C15 C -0.0055(4) 0.0322(2) 0.6821(1)
C16 C 0.0074(5) 0.1090(3) 0.6152(2)
N1 N -0.1440(5) 0.1978(3) 0.5920(1)
H1 H -0.386(5) 0.367(3) 0.533(2)
H2 H -0.357(5) 0.482(3) 0.424(2)
H3 H -0.052(4) 0.431(3) 0.355(1)
H4 H 0.217(4) 0.271(3) 0.395(1)
H5 H 0.361(5) 0.108(3) 0.493(1)
H7 H 0.472(6) -0.003(3) 0.638(2)
H8 H 0.336(20) -0.120(14) 0.597(6)
H11 H 0.356(5) -0.197(3) 0.741(1)
H12 H 0.100(5) -0.213(3) 0.830(2)
H13 H -0.213(4) -0.078(3) 0.825(1)
H14 H -0.277(4) 0.082(3) 0.734(1)
C17? C 0.0002(18) 0.1495(10) 0.5834(5)
N2? N -0.1260(14) 0.1353(7) 0.6380(4)
H6? H 0.354(25) -0.108(20) 0.604(9)
H9? H 0.442(13) 0.165(8) 0.508(4)
H10? H 0.294(13) 0.044(8) 0.473(4)
loop_
_geom_bond_atom_site_label_1
_geom_bond_atom_site_label_2
_geom_bond_site_symmetry_1
_geom_bond_site_symmetry_2
C1 C2 1_555 1_555
C2 C6 1_555 1_555
C3 C1 1_555 1_555
C4 C3 1_555 1_555
C5 C4 1_555 1_555
C6 C5 1_555 1_555
C7 C6 1_555 1_555
C8 C7 1_555 1_555
C9 C8 1_555 1_555
C10 C9 1_555 1_555
C11 C10 1_555 1_555
C12 C11 1_555 1_555
C13 C12 1_555 1_555
C14 C13 1_555 1_555
C15 C10 1_555 1_555
C16 C8 1_555 1_555
N1 C2 1_555 1_555
H1 C1 1_555 1_555
H2 C3 1_555 1_555
H3 C4 1_555 1_555
H4 C5 1_555 1_555
H5 C7 1_555 1_555
H7 C9 1_555 1_555
H8 C9 1_555 1_555
H11 C11 1_555 1_555
H12 C12 1_555 1_555
H13 C13 1_555 1_555
H14 C14 1_555 1_555
C14 C15 1_555 1_555
C15 C16 1_555 1_555
C16 N1 1_555 1_555

#END
