
#######################################################################
#
#                 Cambridge Crystallographic Data Centre
#                                CCDC 
#
#######################################################################
#
# If this CIF has been generated from an entry in the Cambridge 
# Structural Database, then it will include bibliographic, chemical, 
# crystal, experimental, refinement or atomic coordinate data resulting 
# from the CCDC's data processing and validation procedures.
#
#######################################################################

data_YUXMUA
_chemical_formula_moiety         'C25 H32 N2 O8'
_chemical_name_systematic        
'Methyl 2-methoxy-3-((2-methoxy-3-nitro-5-(octyloxy)benzoyl)amino)benzoate'
_symmetry_cell_setting           triclinic
_symmetry_space_group_name_H-M   'P -1'
_symmetry_Int_Tables_number      2
_space_group_name_Hall           '-P 1'
loop_
_symmetry_equiv_pos_site_id
_symmetry_equiv_pos_as_xyz
1 x,y,z
2 -x,-y,-z
_cell_length_a                   8.6807(5)
_cell_length_b                   12.2715(8)
_cell_length_c                   12.4359(8)
_cell_angle_alpha                80.749(2)
_cell_angle_beta                 73.924(2)
_cell_angle_gamma                81.848(2)
_cell_volume                     1249.75
_exptl_crystal_colour            yellow
_exptl_crystal_description       block
_cell_formula_units_Z            2
loop_
_atom_site_label
_atom_site_type_symbol
_atom_site_fract_x
_atom_site_fract_y
_atom_site_fract_z
N1 N 0.5130(9) 0.3961(5) 0.1536(4)
O1 O 0.5318(6) 0.2947(3) 0.1603(4)
O2 O 0.5334(5) 0.4551(2) 0.0621(2)
O3 O -0.00375(12) 0.15882(8) 0.56557(8)
O4 O 0.15596(15) 0.50048(10) 0.62997(10)
O5 O -0.33910(15) 0.02139(10) 0.85489(10)
O6 O -0.22563(16) 0.00524(10) 0.67433(11)
O7 O 0.29508(12) 0.30517(8) 0.36314(9)
O8 O 0.53508(13) 0.70498(8) 0.34596(9)
N2 N 0.08984(14) 0.35682(10) 0.56355(10)
H1 H 0.115(2) 0.3180(14) 0.5076(13)
C1 C -0.08071(16) 0.21392(11) 0.65636(11)
C2 C -0.19665(16) 0.16791(11) 0.74928(12)
C3 C -0.25976(17) 0.22642(12) 0.84171(12)
H2 H -0.3357 0.1962 0.9039
C4 C -0.21128(17) 0.32833(13) 0.84229(12)
H3 H -0.2560 0.3667 0.9042
C5 C -0.09682(17) 0.37407(12) 0.75166(12)
H4 H -0.0647 0.4430 0.7527
C6 C -0.02939(16) 0.31686(11) 0.65859(11)
C7 C -0.0879(2) 0.16850(15) 0.47892(14)
H5 H -0.1987 0.1564 0.5131
H6 H -0.0390 0.1141 0.4288
H7 H -0.0821 0.2414 0.4372
C8 C -0.25154(17) 0.05754(12) 0.75169(13)
C9 C -0.4004(2) -0.08438(14) 0.86717(16)
H8 H -0.4790 -0.0780 0.8247
H9 H -0.4497 -0.1068 0.9454
H10 H -0.3133 -0.1388 0.8396
C10 C 0.17575(17) 0.44320(11) 0.55522(12)
C11 C 0.35573(17) 0.40463(11) 0.35597(12)
C12 C 0.30149(16) 0.46964(11) 0.44517(12)
C13 C 0.36569(16) 0.56865(11) 0.43639(12)
H11 H 0.3304 0.6106 0.4962
C14 C 0.48081(17) 0.60735(11) 0.34138(13)
C15 C 0.53226(18) 0.54652(12) 0.25168(13)
H12 H 0.6081 0.5717 0.1867
C16 C 0.46863(18) 0.44703(12) 0.26038(12)
C17 C 0.3966(2) 0.20971(12) 0.39742(15)
H13 H 0.4986 0.2050 0.3421
H14 H 0.3454 0.1437 0.4040
H15 H 0.4133 0.2170 0.4690
C18 C 0.64810(18) 0.75351(12) 0.24761(13)
H16 H 0.6020 0.7680 0.1834
H17 H 0.7463 0.7038 0.2291
C19 C 0.68290(17) 0.86010(12) 0.27684(13)
H18 H 0.7323 0.8431 0.3394
H19 H 0.5819 0.9055 0.3016
C20 C 0.79332(18) 0.92670(11) 0.17920(12)
H20 H 0.8939 0.8813 0.1531
H21 H 0.7430 0.9459 0.1172
C21 C 0.82845(18) 1.03216(12) 0.21333(13)
H22 H 0.8854 1.0119 0.2718
H23 H 0.7269 1.0739 0.2454
C22 C 0.9278(2) 1.10670(12) 0.11709(13)
H24 H 0.8705 1.1282 0.0590
H25 H 1.0291 1.0651 0.0843
C23 C 0.9626(2) 1.21074(13) 0.15443(14)
H26 H 0.8611 1.2501 0.1904
H27 H 1.0235 1.1888 0.2105
C24 C 1.0558(2) 1.28973(14) 0.05946(14)
H28 H 1.1577 1.2510 0.0230
H29 H 0.9949 1.3132 0.0036
C25 C 1.0881(3) 1.39151(17) 0.10203(19)
H30 H 0.9876 1.4301 0.1382
H31 H 1.1451 1.4399 0.0396
H32 H 1.1521 1.3689 0.1551
N3? N 0.5367(9) 0.3818(6) 0.1659(5)
O9? O 0.4567(7) 0.3183(5) 0.1470(5)
O10? O 0.6676(3) 0.4026(3) 0.1063(2)
loop_
_geom_bond_atom_site_label_1
_geom_bond_atom_site_label_2
_geom_bond_site_symmetry_1
_geom_bond_site_symmetry_2
N1 O1 1_555 1_555
O2 N1 1_555 1_555
O3 C1 1_555 1_555
O4 C10 1_555 1_555
O5 C8 1_555 1_555
O6 C8 1_555 1_555
O7 C11 1_555 1_555
O8 C14 1_555 1_555
N2 H1 1_555 1_555
C1 C2 1_555 1_555
C2 C3 1_555 1_555
C3 H2 1_555 1_555
C4 C3 1_555 1_555
H3 C4 1_555 1_555
C5 C4 1_555 1_555
H4 C5 1_555 1_555
C6 N2 1_555 1_555
C7 O3 1_555 1_555
H5 C7 1_555 1_555
H6 C7 1_555 1_555
H7 C7 1_555 1_555
C8 C2 1_555 1_555
C9 O5 1_555 1_555
H8 C9 1_555 1_555
H9 C9 1_555 1_555
H10 C9 1_555 1_555
C10 N2 1_555 1_555
C11 C12 1_555 1_555
C12 C10 1_555 1_555
C13 C12 1_555 1_555
H11 C13 1_555 1_555
C14 C13 1_555 1_555
C15 C14 1_555 1_555
H12 C15 1_555 1_555
C16 N1 1_555 1_555
C17 O7 1_555 1_555
H13 C17 1_555 1_555
H14 C17 1_555 1_555
H15 C17 1_555 1_555
C18 O8 1_555 1_555
H16 C18 1_555 1_555
H17 C18 1_555 1_555
C19 C18 1_555 1_555
H18 C19 1_555 1_555
H19 C19 1_555 1_555
C20 C19 1_555 1_555
H20 C20 1_555 1_555
H21 C20 1_555 1_555
C21 C20 1_555 1_555
H22 C21 1_555 1_555
H23 C21 1_555 1_555
C22 C21 1_555 1_555
H24 C22 1_555 1_555
H25 C22 1_555 1_555
C23 C22 1_555 1_555
H26 C23 1_555 1_555
H27 C23 1_555 1_555
C24 C23 1_555 1_555
H28 C24 1_555 1_555
H29 C24 1_555 1_555
C25 C24 1_555 1_555
H30 C25 1_555 1_555
H31 C25 1_555 1_555
H32 C25 1_555 1_555
C1 C6 1_555 1_555
C5 C6 1_555 1_555
C11 C16 1_555 1_555
C15 C16 1_555 1_555

#END
