
#######################################################################
#
#                 Cambridge Crystallographic Data Centre
#                                CCDC 
#
#######################################################################
#
# If this CIF has been generated from an entry in the Cambridge 
# Structural Database, then it will include bibliographic, chemical, 
# crystal, experimental, refinement or atomic coordinate data resulting 
# from the CCDC's data processing and validation procedures.
#
#######################################################################

data_YUXMEK
_chemical_formula_moiety         'C17 H16 N2 O7'
_chemical_name_systematic        
'Methyl 2-methoxy-3-((2-methoxy-3-nitrobenzoyl)amino)benzoate'
_symmetry_cell_setting           monoclinic
_symmetry_space_group_name_H-M   'P 21/c'
_symmetry_Int_Tables_number      14
_space_group_name_Hall           '-P 2ybc'
loop_
_symmetry_equiv_pos_site_id
_symmetry_equiv_pos_as_xyz
1 x,y,z
2 -x,1/2+y,1/2-z
3 -x,-y,-z
4 x,1/2-y,1/2+z
_cell_length_a                   6.9923(4)
_cell_length_b                   28.3844(18)
_cell_length_c                   8.1995(5)
_cell_angle_alpha                90
_cell_angle_beta                 91.323(2)
_cell_angle_gamma                90
_cell_volume                     1626.94
_exptl_crystal_colour            colorless
_exptl_crystal_description       block
_cell_formula_units_Z            4
loop_
_atom_site_label
_atom_site_type_symbol
_atom_site_fract_x
_atom_site_fract_y
_atom_site_fract_z
O1 O 0.2795(2) 0.53359(4) 0.31326(14)
O2 O 0.24616(15) 0.57005(4) 0.80589(12)
O3 O 0.1669(3) 0.64707(5) 0.99068(18)
O4 O 0.3210(3) 0.70884(5) 0.9218(2)
O5 O 0.26932(16) 0.44843(4) 0.82172(13)
O6 O 0.1952(3) 0.30152(4) 0.74915(19)
O7 O 0.3147(2) 0.35293(5) 0.92720(18)
N1 N 0.24791(19) 0.50502(4) 0.56847(16)
H1 H 0.246(3) 0.5127(8) 0.669(3)
N2 N 0.2509(2) 0.67018(5) 0.8911(2)
C1 C 0.2658(2) 0.54020(5) 0.45959(18)
C2 C 0.2693(2) 0.59023(5) 0.52403(18)
C3 C 0.2642(2) 0.60374(5) 0.68886(18)
C4 C 0.2699(2) 0.65224(5) 0.7237(2)
C5 C 0.2823(2) 0.68596(6) 0.6025(2)
H2 H 0.2891 0.7181 0.6301
C6 C 0.2846(3) 0.67240(6) 0.4422(2)
H3 H 0.2907 0.6951 0.3591
C7 C 0.2780(2) 0.62501(6) 0.4038(2)
H4 H 0.2793 0.6159 0.2936
C8 C 0.4019(2) 0.56461(6) 0.92452(19)
H5 H 0.4850 0.5392 0.8908
H6 H 0.3502 0.5573 1.0303
H7 H 0.4745 0.5937 0.9317
C9 C 0.2413(2) 0.45641(5) 0.53669(18)
C10 C 0.2479(2) 0.42663(5) 0.67376(18)
C11 C 0.2381(2) 0.37768(5) 0.6529(2)
C12 C 0.2214(2) 0.35954(6) 0.4949(2)
H8 H 0.2135 0.3268 0.4798
C13 C 0.2164(2) 0.38870(6) 0.3614(2)
H9 H 0.2067 0.3758 0.2561
C14 C 0.2256(2) 0.43709(6) 0.38113(19)
H10 H 0.2213 0.4569 0.2893
C15 C 0.1083(3) 0.44609(8) 0.9260(2)
H11 H -0.0061 0.4558 0.8657
H12 H 0.1291 0.4669 1.0185
H13 H 0.0927 0.4140 0.9643
C16 C 0.2553(2) 0.34446(5) 0.7926(2)
C17 C 0.2098(5) 0.26573(8) 0.8732(4)
H14 H 0.3419 0.2629 0.9106
H15 H 0.1664 0.2358 0.8284
H16 H 0.1307 0.2744 0.9642
loop_
_geom_bond_atom_site_label_1
_geom_bond_atom_site_label_2
_geom_bond_site_symmetry_1
_geom_bond_site_symmetry_2
O1 C1 1_555 1_555
O2 C3 1_555 1_555
O3 N2 1_555 1_555
O4 N2 1_555 1_555
O5 C10 1_555 1_555
O6 C16 1_555 1_555
O7 C16 1_555 1_555
N1 H1 1_555 1_555
N2 C4 1_555 1_555
C1 N1 1_555 1_555
C2 C1 1_555 1_555
C3 C2 1_555 1_555
C4 C3 1_555 1_555
C5 C4 1_555 1_555
H2 C5 1_555 1_555
C6 C5 1_555 1_555
H3 C6 1_555 1_555
C7 C2 1_555 1_555
H4 C7 1_555 1_555
C8 O2 1_555 1_555
H5 C8 1_555 1_555
H6 C8 1_555 1_555
H7 C8 1_555 1_555
C9 N1 1_555 1_555
C10 C9 1_555 1_555
C11 C10 1_555 1_555
C12 C11 1_555 1_555
H8 C12 1_555 1_555
C13 C12 1_555 1_555
H9 C13 1_555 1_555
C14 C9 1_555 1_555
H10 C14 1_555 1_555
C15 O5 1_555 1_555
H11 C15 1_555 1_555
H12 C15 1_555 1_555
H13 C15 1_555 1_555
C16 C11 1_555 1_555
C17 O6 1_555 1_555
H14 C17 1_555 1_555
H15 C17 1_555 1_555
H16 C17 1_555 1_555
C6 C7 1_555 1_555
C13 C14 1_555 1_555

#END
