
#######################################################################
#
#                 Cambridge Crystallographic Data Centre
#                                CCDC 
#
#######################################################################
#
# If this CIF has been generated from an entry in the Cambridge 
# Structural Database, then it will include bibliographic, chemical, 
# crystal, experimental, refinement or atomic coordinate data resulting 
# from the CCDC's data processing and validation procedures.
#
#######################################################################

data_YUXMOU
_chemical_formula_moiety         'C33 H30 N4 O11'
_chemical_name_systematic        
'Methyl 2-methoxy-3-((2-methoxy-3-((2-methoxy-3-((2-methoxy-3-nitrobenzoyl)amino)benzoyl)amino)benzoyl)amino)benzoate'
_symmetry_cell_setting           triclinic
_symmetry_space_group_name_H-M   'P -1'
_symmetry_Int_Tables_number      2
_space_group_name_Hall           '-P 1'
loop_
_symmetry_equiv_pos_site_id
_symmetry_equiv_pos_as_xyz
1 x,y,z
2 -x,-y,-z
_cell_length_a                   8.0316(10)
_cell_length_b                   13.8306(17)
_cell_length_c                   15.0009(18)
_cell_angle_alpha                109.279(2)
_cell_angle_beta                 93.852(2)
_cell_angle_gamma                106.744(2)
_cell_volume                     1481.72
_exptl_crystal_colour            colorless
_exptl_crystal_description       block
_cell_formula_units_Z            2
loop_
_atom_site_label
_atom_site_type_symbol
_atom_site_fract_x
_atom_site_fract_y
_atom_site_fract_z
O1 O 0.0335(3) -0.1851(2) 0.7932(3)
O2 O 0.0124(3) -0.04180(18) 0.89033(19)
O3 O 0.2662(2) 0.12890(12) 0.87552(11)
O4 O 0.8191(2) 0.25818(14) 0.93577(14)
O5 O 0.34252(19) 0.35271(12) 0.80980(11)
O6 O 0.4437(2) 0.65549(13) 0.81382(13)
O7 O 0.0370(2) 0.30060(12) 0.64336(11)
O8 O -0.4849(2) 0.30941(13) 0.60558(13)
O9 O -0.1740(2) 0.06408(13) 0.62831(12)
O10 O -0.2287(2) -0.14411(14) 0.62325(15)
O11 O -0.5060(2) -0.24292(14) 0.61536(13)
N1 N 0.0993(3) -0.09283(18) 0.84807(18)
N2 N 0.5740(3) 0.27885(16) 0.87202(14)
H1 H 0.468(3) 0.2482(19) 0.8516(17)
N3 N 0.3109(3) 0.48424(16) 0.70529(14)
H2 H 0.308(3) 0.4146(19) 0.6953(17)
N4 N -0.3096(3) 0.21325(16) 0.62716(15)
H3 H -0.200(4) 0.215(2) 0.634(2)
C1 C 0.3706(3) 0.06621(18) 0.87824(16)
C2 C 0.2928(3) -0.04361(19) 0.86290(17)
C3 C 0.3904(4) -0.1113(2) 0.85899(18)
H4 H 0.3341 -0.1852 0.8471
C4 C 0.5724(4) -0.0694(2) 0.87274(18)
H5 H 0.6413 -0.1145 0.8705
C5 C 0.6518(3) 0.0388(2) 0.88969(18)
H6 H 0.7759 0.0674 0.9011
C6 C 0.5536(3) 0.10768(18) 0.89045(16)
C7 C 0.2345(4) 0.1882(2) 0.96868(18)
H7 H 0.1876 0.1382 1.0006
H8 H 0.1500 0.2239 0.9604
H9 H 0.3446 0.2422 1.0074
C8 C 0.6612(3) 0.22267(19) 0.90316(17)
C9 C 0.5167(3) 0.41995(17) 0.83232(16)
C10 C 0.6414(3) 0.38247(17) 0.86622(16)
C11 C 0.8177(3) 0.44664(19) 0.89071(17)
H10 H 0.9033 0.4224 0.9138
C12 C 0.8673(3) 0.54664(18) 0.88098(17)
H11 H 0.9869 0.5904 0.8984
C13 C 0.7435(3) 0.58284(18) 0.84608(16)
H12 H 0.7795 0.6509 0.8397
C14 C 0.5659(3) 0.51949(17) 0.82021(16)
C15 C 0.2345(3) 0.3933(2) 0.8753(2)
H13 H 0.2856 0.4054 0.9402
H14 H 0.1164 0.3407 0.8581
H15 H 0.2286 0.4611 0.8720
C16 C 0.4352(3) 0.56080(18) 0.78094(17)
C17 C 0.0001(3) 0.39348(18) 0.64575(16)
C18 C 0.1452(3) 0.48968(18) 0.67388(17)
C19 C 0.1178(3) 0.58318(19) 0.66973(18)
H16 H 0.2135 0.6478 0.6862
C20 C -0.0520(3) 0.5800(2) 0.64112(18)
H17 H -0.0700 0.6417 0.6346
C21 C -0.1953(3) 0.48741(19) 0.62203(17)
H18 H -0.3099 0.4883 0.6060
C22 C -0.1726(3) 0.39284(18) 0.62612(16)
C23 C 0.0782(3) 0.24407(19) 0.55170(18)
H19 H -0.0107 0.2355 0.5000
H20 H 0.0796 0.1732 0.5489
H21 H 0.1933 0.2858 0.5450
C24 C -0.3379(3) 0.30075(18) 0.61717(16)
C25 C -0.3525(3) 0.03697(18) 0.62823(16)
C26 C -0.4289(3) 0.11557(18) 0.62573(16)
C27 C -0.6090(3) 0.0945(2) 0.62303(18)
H22 H -0.6602 0.1473 0.6219
C28 C -0.7132(3) -0.00536(19) 0.62202(18)
H23 H -0.8354 -0.0200 0.6202
C29 C -0.6390(3) -0.08324(19) 0.62364(17)
H24 H -0.7114 -0.1505 0.6229
C30 C -0.4575(3) -0.06358(18) 0.62636(16)
C31 C -0.0673(3) 0.0971(2) 0.72061(19)
H25 H -0.1053 0.1496 0.7680
H26 H 0.0556 0.1298 0.7179
H27 H -0.0800 0.0343 0.7384
C32 C -0.3812(3) -0.15128(19) 0.62205(17)
C33 C -0.4439(4) -0.3330(2) 0.6057(2)
H28 H -0.3917 -0.3493 0.5484
H29 H -0.5424 -0.3960 0.6007
H30 H -0.3559 -0.3145 0.6615
loop_
_geom_bond_atom_site_label_1
_geom_bond_atom_site_label_2
_geom_bond_site_symmetry_1
_geom_bond_site_symmetry_2
O1 N1 1_555 1_555
O2 N1 1_555 1_555
O3 C1 1_555 1_555
O4 C8 1_555 1_555
O5 C9 1_555 1_555
O6 C16 1_555 1_555
O7 C17 1_555 1_555
O8 C24 1_555 1_555
O9 C25 1_555 1_555
O10 C32 1_555 1_555
O11 C32 1_555 1_555
N1 C2 1_555 1_555
N2 H1 1_555 1_555
N3 H2 1_555 1_555
N4 H3 1_555 1_555
C1 C2 1_555 1_555
C2 C3 1_555 1_555
C3 H4 1_555 1_555
C4 C3 1_555 1_555
H5 C4 1_555 1_555
C5 C4 1_555 1_555
H6 C5 1_555 1_555
C6 C1 1_555 1_555
C7 O3 1_555 1_555
H7 C7 1_555 1_555
H8 C7 1_555 1_555
H9 C7 1_555 1_555
C8 N2 1_555 1_555
C9 C10 1_555 1_555
C10 N2 1_555 1_555
C11 C10 1_555 1_555
H10 C11 1_555 1_555
C12 C11 1_555 1_555
H11 C12 1_555 1_555
C13 C12 1_555 1_555
H12 C13 1_555 1_555
C14 C9 1_555 1_555
C15 O5 1_555 1_555
H13 C15 1_555 1_555
H14 C15 1_555 1_555
H15 C15 1_555 1_555
C16 N3 1_555 1_555
C17 C18 1_555 1_555
C18 N3 1_555 1_555
C19 C18 1_555 1_555
H16 C19 1_555 1_555
C20 C19 1_555 1_555
H17 C20 1_555 1_555
C21 C20 1_555 1_555
H18 C21 1_555 1_555
C22 C17 1_555 1_555
C23 O7 1_555 1_555
H19 C23 1_555 1_555
H20 C23 1_555 1_555
H21 C23 1_555 1_555
C24 N4 1_555 1_555
C25 C26 1_555 1_555
C26 N4 1_555 1_555
C27 C26 1_555 1_555
H22 C27 1_555 1_555
C28 C27 1_555 1_555
H23 C28 1_555 1_555
C29 C28 1_555 1_555
H24 C29 1_555 1_555
C30 C25 1_555 1_555
C31 O9 1_555 1_555
H25 C31 1_555 1_555
H26 C31 1_555 1_555
H27 C31 1_555 1_555
C32 C30 1_555 1_555
C33 O11 1_555 1_555
H28 C33 1_555 1_555
H29 C33 1_555 1_555
H30 C33 1_555 1_555
C5 C6 1_555 1_555
C6 C8 1_555 1_555
C13 C14 1_555 1_555
C14 C16 1_555 1_555
C21 C22 1_555 1_555
C22 C24 1_555 1_555
C29 C30 1_555 1_555

#END
