
#######################################################################
#
#                 Cambridge Crystallographic Data Centre
#                                CCDC 
#
#######################################################################
#
# If this CIF has been generated from an entry in the Cambridge 
# Structural Database, then it will include bibliographic, chemical, 
# crystal, experimental, refinement or atomic coordinate data resulting 
# from the CCDC's data processing and validation procedures.
#
#######################################################################

data_YUXNEL
_chemical_formula_moiety         'C27 H27 N3 O11'
_chemical_name_systematic        
'Methyl 3-((3-((2,5-dimethoxy-3-nitrobenzoyl)amino)-2-methoxybenzoyl)amino)-2,5-dimethoxybenzoate'
_symmetry_cell_setting           triclinic
_symmetry_space_group_name_H-M   'P -1'
_symmetry_Int_Tables_number      2
_space_group_name_Hall           '-P 1'
loop_
_symmetry_equiv_pos_site_id
_symmetry_equiv_pos_as_xyz
1 x,y,z
2 -x,-y,-z
_cell_length_a                   7.8202(4)
_cell_length_b                   11.1046(5)
_cell_length_c                   15.2948(7)
_cell_angle_alpha                102.7860(10)
_cell_angle_beta                 93.9600(10)
_cell_angle_gamma                103.0680(10)
_cell_volume                     1251.77
_exptl_crystal_colour            yellow
_exptl_crystal_description       block
_cell_formula_units_Z            2
loop_
_atom_site_label
_atom_site_type_symbol
_atom_site_fract_x
_atom_site_fract_y
_atom_site_fract_z
O1 O 0.02926(13) 0.09598(9) 0.19733(6)
O2 O -0.37713(13) -0.18907(9) 0.01611(7)
O3 O -0.21870(18) -0.13787(10) 0.15170(7)
O4 O -0.23225(13) 0.17577(9) -0.12388(6)
O5 O 0.20422(13) 0.48167(9) 0.08987(6)
O6 O 0.44411(12) 0.32400(9) 0.27453(6)
O7 O 0.78650(14) 0.63009(9) 0.54073(7)
O8 O 0.68932(13) 0.23532(9) 0.42722(6)
O9 O 0.80996(17) 0.03267(10) 0.45182(7)
O10 O 0.82819(15) 0.02285(10) 0.59135(7)
O11 O 1.07821(12) 0.47522(9) 0.76164(6)
N1 N 0.15333(15) 0.31344(11) 0.15583(8)
H1 H 0.189(2) 0.2870(17) 0.2006(13)
N2 N 0.66044(15) 0.46811(11) 0.41794(7)
H2 H 0.644(2) 0.387(2) 0.3975(13)
N3 N 0.82943(15) 0.08237(11) 0.53256(8)
C1 C -0.05277(17) 0.11060(13) 0.11913(8)
C2 C -0.18625(17) 0.01575(12) 0.06123(9)
C3 C -0.25082(17) 0.03613(12) -0.02100(9)
H3 H -0.3419 -0.0280 -0.0607
C4 C -0.18188(17) 0.14942(12) -0.04404(8)
C5 C -0.05117(17) 0.24619(12) 0.01404(9)
H4 H -0.0079 0.3249 -0.0014
C6 C 0.01485(16) 0.22611(12) 0.09467(8)
C7 C -0.0606(2) 0.12113(14) 0.27598(9)
H5 H -0.0880 0.2044 0.2831
H6 H 0.0157 0.1214 0.3297
H7 H -0.1707 0.0547 0.2687
C8 C -0.25858(18) -0.10960(13) 0.08329(9)
C9 C -0.4586(2) -0.31205(13) 0.03147(10)
H8 H -0.3722 -0.3641 0.0281
H9 H -0.5602 -0.3551 -0.0147
H10 H -0.4984 -0.3002 0.0914
C10 C -0.33385(19) 0.07180(13) -0.19393(9)
H11 H -0.2778 0.0003 -0.2009
H12 H -0.3399 0.0984 -0.2508
H13 H -0.4537 0.0452 -0.1782
C11 C 0.23790(17) 0.43274(13) 0.15104(9)
C12 C 0.46573(17) 0.45454(12) 0.28802(9)
C13 C 0.37508(16) 0.50704(12) 0.23056(9)
C14 C 0.40673(17) 0.63979(13) 0.24825(9)
H14 H 0.3468 0.6772 0.2095
C15 C 0.52410(17) 0.71701(12) 0.32142(9)
H15 H 0.5457 0.8070 0.3316
C16 C 0.61130(17) 0.66482(13) 0.38046(9)
H16 H 0.6904 0.7186 0.4312
C17 C 0.58094(16) 0.53250(13) 0.36421(9)
C18 C 0.55509(19) 0.27469(13) 0.21130(10)
H17 H 0.5063 0.2710 0.1497
H18 H 0.5594 0.1889 0.2162
H19 H 0.6749 0.3307 0.2250
C19 C 0.75424(17) 0.51757(13) 0.50116(9)
C20 C 0.78643(16) 0.29079(12) 0.51038(8)
C21 C 0.82099(16) 0.42377(12) 0.54504(8)
C22 C 0.92176(16) 0.47941(12) 0.62796(9)
H20 H 0.9474 0.5693 0.6501
C23 C 0.98715(16) 0.40766(13) 0.68035(8)
C24 C 0.95445(16) 0.27702(12) 0.64794(9)
H21 H 0.9976 0.2265 0.6826
C25 C 0.85681(17) 0.22134(12) 0.56325(9)
C26 C 0.51899(19) 0.14849(14) 0.42465(10)
H22 H 0.5112 0.1252 0.4827
H23 H 0.5062 0.0715 0.3762
H24 H 0.4245 0.1900 0.4133
C27 C 1.13007(19) 0.40412(14) 0.82228(9)
H25 H 1.0260 0.3413 0.8305
H26 H 1.1821 0.4625 0.8808
H27 H 1.2174 0.3601 0.7969
loop_
_geom_bond_atom_site_label_1
_geom_bond_atom_site_label_2
_geom_bond_site_symmetry_1
_geom_bond_site_symmetry_2
O1 C1 1_555 1_555
O2 C8 1_555 1_555
O3 C8 1_555 1_555
O4 C4 1_555 1_555
O5 C11 1_555 1_555
O6 C12 1_555 1_555
O7 C19 1_555 1_555
O8 C20 1_555 1_555
O9 N3 1_555 1_555
O10 N3 1_555 1_555
O11 C23 1_555 1_555
N1 H1 1_555 1_555
N2 H2 1_555 1_555
N3 C25 1_555 1_555
C1 C2 1_555 1_555
C2 C3 1_555 1_555
C3 H3 1_555 1_555
C4 C3 1_555 1_555
C5 C4 1_555 1_555
H4 C5 1_555 1_555
C6 N1 1_555 1_555
C7 O1 1_555 1_555
H5 C7 1_555 1_555
H6 C7 1_555 1_555
H7 C7 1_555 1_555
C8 C2 1_555 1_555
C9 O2 1_555 1_555
H8 C9 1_555 1_555
H9 C9 1_555 1_555
H10 C9 1_555 1_555
C10 O4 1_555 1_555
H11 C10 1_555 1_555
H12 C10 1_555 1_555
H13 C10 1_555 1_555
C11 N1 1_555 1_555
C12 C13 1_555 1_555
C13 C11 1_555 1_555
C14 C13 1_555 1_555
H14 C14 1_555 1_555
C15 C14 1_555 1_555
H15 C15 1_555 1_555
C16 C15 1_555 1_555
H16 C16 1_555 1_555
C17 N2 1_555 1_555
C18 O6 1_555 1_555
H17 C18 1_555 1_555
H18 C18 1_555 1_555
H19 C18 1_555 1_555
C19 N2 1_555 1_555
C20 C21 1_555 1_555
C21 C19 1_555 1_555
C22 C21 1_555 1_555
H20 C22 1_555 1_555
C23 C22 1_555 1_555
C24 C23 1_555 1_555
H21 C24 1_555 1_555
C25 C20 1_555 1_555
C26 O8 1_555 1_555
H22 C26 1_555 1_555
H23 C26 1_555 1_555
H24 C26 1_555 1_555
C27 O11 1_555 1_555
H25 C27 1_555 1_555
H26 C27 1_555 1_555
H27 C27 1_555 1_555
C1 C6 1_555 1_555
C5 C6 1_555 1_555
C12 C17 1_555 1_555
C16 C17 1_555 1_555
C24 C25 1_555 1_555

#END
