
#######################################################################
#
#                 Cambridge Crystallographic Data Centre
#                                CCDC 
#
#######################################################################
#
# If this CIF has been generated from an entry in the Cambridge 
# Structural Database, then it will include bibliographic, chemical, 
# crystal, experimental, refinement or atomic coordinate data resulting 
# from the CCDC's data processing and validation procedures.
#
#######################################################################

data_YUXPEN
_chemical_formula_moiety         'C12 H10 S2'
_chemical_name_systematic        '(P)-Diphenyl disulfide'
_symmetry_cell_setting           orthorhombic
_symmetry_space_group_name_H-M   'P 21 21 21'
_symmetry_Int_Tables_number      19
_space_group_name_Hall           'P 2ac 2ab'
loop_
_symmetry_equiv_pos_site_id
_symmetry_equiv_pos_as_xyz
1 x,y,z
2 1/2+x,1/2-y,-z
3 -x,1/2+y,1/2-z
4 1/2-x,-y,1/2+z
_cell_length_a                   5.5401(11)
_cell_length_b                   8.0864(18)
_cell_length_c                   23.478(5)
_cell_angle_alpha                90
_cell_angle_beta                 90
_cell_angle_gamma                90
_cell_volume                     1051.8
_exptl_crystal_colour            colorless
_exptl_crystal_description       prism
_cell_formula_units_Z            4
loop_
_atom_site_label
_atom_site_type_symbol
_atom_site_fract_x
_atom_site_fract_y
_atom_site_fract_z
S1 S 0.4331(2) 0.7795(2) 0.44334(6)
S2 S 0.1166(2) 0.7107(2) 0.40763(6)
C1 C 0.4590(11) 0.9970(8) 0.4319(2)
C2 C 0.6684(10) 1.0711(8) 0.4528(2)
C3 C 0.7041(12) 1.2373(9) 0.4455(2)
C4 C 0.5399(12) 1.3323(8) 0.4164(2)
C5 C 0.3356(11) 1.2580(8) 0.3945(2)
C6 C 0.2952(11) 1.0898(8) 0.4023(2)
C7 C 0.1876(11) 0.6784(7) 0.3338(2)
C8 C 0.3902(11) 0.7424(8) 0.3068(2)
C9 C 0.4121(11) 0.7174(8) 0.2484(2)
C10 C 0.2444(13) 0.6296(8) 0.2182(2)
C11 C 0.0440(12) 0.5624(8) 0.2456(3)
C12 C 0.0163(13) 0.5881(8) 0.3033(2)
H1 H 0.7860 1.0065 0.4721
H2 H 0.8448 1.2877 0.4608
H3 H 0.5664 1.4475 0.4114
H4 H 0.2217 1.3224 0.3740
H5 H 0.1542 1.0395 0.3871
H6 H 0.5098 0.8013 0.3275
H7 H 0.5473 0.7625 0.2289
H8 H 0.2646 0.6144 0.1784
H9 H -0.0716 0.4998 0.2249
H10 H -0.1205 0.5441 0.3224
loop_
_geom_bond_atom_site_label_1
_geom_bond_atom_site_label_2
_geom_bond_site_symmetry_1
_geom_bond_site_symmetry_2
S1 S2 1_555 1_555
S2 C7 1_555 1_555
C1 S1 1_555 1_555
C2 C1 1_555 1_555
C3 C2 1_555 1_555
C4 C3 1_555 1_555
C5 C4 1_555 1_555
C6 C1 1_555 1_555
C7 C8 1_555 1_555
C8 C9 1_555 1_555
C9 C10 1_555 1_555
C10 C11 1_555 1_555
C11 C12 1_555 1_555
C12 C7 1_555 1_555
H1 C2 1_555 1_555
H2 C3 1_555 1_555
H3 C4 1_555 1_555
H4 C5 1_555 1_555
H5 C6 1_555 1_555
H6 C8 1_555 1_555
H7 C9 1_555 1_555
H8 C10 1_555 1_555
H9 C11 1_555 1_555
H10 C12 1_555 1_555
C5 C6 1_555 1_555

#END
