
#######################################################################
#
#                 Cambridge Crystallographic Data Centre
#                                CCDC 
#
#######################################################################
#
# If this CIF has been generated from an entry in the Cambridge 
# Structural Database, then it will include bibliographic, chemical, 
# crystal, experimental, refinement or atomic coordinate data resulting 
# from the CCDC's data processing and validation procedures.
#
#######################################################################

data_YUYFAB
_chemical_formula_moiety         'C22 H21 N1 O1 P1 S2 1+,Cl1 O4 1-'
_chemical_name_systematic        
'2-acetamido-2-methyl-3-phenyl-3-(2-sulfanylphenyl)-2,3-dihydro-1,3-benzothiaphosphol-3-ium perchlorate'
_symmetry_cell_setting           triclinic
_symmetry_space_group_name_H-M   'P -1'
_symmetry_Int_Tables_number      2
_space_group_name_Hall           '-P 1'
loop_
_symmetry_equiv_pos_site_id
_symmetry_equiv_pos_as_xyz
1 x,y,z
2 -x,-y,-z
_cell_length_a                   8.6493(3)
_cell_length_b                   10.7076(4)
_cell_length_c                   13.9856(6)
_cell_angle_alpha                109.381(2)
_cell_angle_beta                 90.385(2)
_cell_angle_gamma                105.756(2)
_cell_volume                     1169.24
_exptl_crystal_colour            colorless
_exptl_crystal_description       prism
_cell_formula_units_Z            2
loop_
_atom_site_label
_atom_site_type_symbol
_atom_site_fract_x
_atom_site_fract_y
_atom_site_fract_z
Cl1 Cl 0.88678(13) 0.28541(11) 0.19892(9)
O1 O 0.8357(5) 0.3433(5) 0.2949(3)
O2 O 0.8052(5) 0.1462(4) 0.1518(4)
O3 O 1.0578(4) 0.3110(3) 0.2055(3)
O4 O 0.8471(5) 0.3621(6) 0.1381(4)
S1 S 0.53957(16) 0.51124(12) 0.20266(10)
H1 H 0.6664 0.4836 0.1787
S2 S 0.10102(13) 0.77520(13) 0.20795(10)
P1 P 0.45223(12) 0.80299(10) 0.22986(8)
O5 O 0.2805(4) 0.7990(3) 0.4110(2)
N1 N 0.2209(4) 0.6036(4) 0.2744(3)
H2 H 0.1953 0.5046 0.2490
C1 C 0.5875(5) 0.7865(4) 0.3208(3)
C2 C 0.6371(5) 0.6661(4) 0.3045(3)
C3 C 0.7606(5) 0.6697(5) 0.3707(3)
H3 H 0.7936 0.5879 0.3598
C4 C 0.8326(6) 0.7887(5) 0.4510(3)
H4 H 0.9211 0.7900 0.4935
C5 C 0.7804(5) 0.9047(5) 0.4705(3)
H5 H 0.8311 0.9854 0.5285
C6 C 0.6588(5) 0.9039(4) 0.4069(3)
H6 H 0.6209 0.9840 0.4213
C7 C 0.5528(5) 0.8015(4) 0.1173(3)
C8 C 0.7085(5) 0.7899(4) 0.1108(3)
H7 H 0.7591 0.7710 0.1636
C9 C 0.7893(6) 0.8048(5) 0.0297(3)
H8 H 0.8978 0.7983 0.0259
C10 C 0.7156(6) 0.8299(5) -0.0477(3)
H9 H 0.7708 0.8390 -0.1054
C11 C 0.5595(6) 0.8408(5) -0.0421(3)
H10 H 0.5084 0.8581 -0.0956
C12 C 0.4781(5) 0.8280(4) 0.0403(3)
H11 H 0.3704 0.8365 0.0448
C13 C 0.3999(5) 0.9615(4) 0.2709(3)
C14 C 0.5097(6) 1.0941(4) 0.3031(3)
H12 H 0.6232 1.1041 0.3115
C15 C 0.4522(6) 1.2078(5) 0.3232(3)
H13 H 0.5266 1.2993 0.3471
C16 C 0.2868(7) 1.1891(5) 0.3093(4)
H14 H 0.2507 1.2700 0.3239
C17 C 0.1771(6) 1.0581(5) 0.2745(3)
H15 H 0.0633 1.0448 0.2631
C18 C 0.2345(5) 0.9430(5) 0.2559(3)
C19 C 0.2455(5) 0.6730(4) 0.2009(3)
C20 C 0.2142(6) 0.5649(5) 0.0938(3)
H16 H 0.1073 0.5025 0.0841
H17 H 0.2920 0.5141 0.0858
H18 H 0.2241 0.6100 0.0442
C21 C 0.2346(5) 0.6721(4) 0.3771(3)
C22 C 0.1963(7) 0.5838(5) 0.4417(4)
H19 H 0.1621 0.4882 0.3986
H20 H 0.1113 0.6051 0.4821
H21 H 0.2909 0.6007 0.4859
loop_
_geom_bond_atom_site_label_1
_geom_bond_atom_site_label_2
_geom_bond_site_symmetry_1
_geom_bond_site_symmetry_2
Cl1 O1 1_555 1_555
O2 Cl1 1_555 1_555
O3 Cl1 1_555 1_555
O4 Cl1 1_555 1_555
S1 H1 1_555 1_555
S2 C18 1_555 1_555
P1 C1 1_555 1_555
O5 C21 1_555 1_555
N1 H2 1_555 1_555
C1 C2 1_555 1_555
C2 S1 1_555 1_555
C3 C2 1_555 1_555
H3 C3 1_555 1_555
C4 C3 1_555 1_555
H4 C4 1_555 1_555
C5 C4 1_555 1_555
H5 C5 1_555 1_555
C6 C1 1_555 1_555
H6 C6 1_555 1_555
C7 P1 1_555 1_555
C8 C7 1_555 1_555
H7 C8 1_555 1_555
C9 C8 1_555 1_555
H8 C9 1_555 1_555
C10 C9 1_555 1_555
H9 C10 1_555 1_555
C11 C10 1_555 1_555
H10 C11 1_555 1_555
C12 C7 1_555 1_555
H11 C12 1_555 1_555
C13 P1 1_555 1_555
C14 C13 1_555 1_555
H12 C14 1_555 1_555
C15 C14 1_555 1_555
H13 C15 1_555 1_555
C16 C15 1_555 1_555
H14 C16 1_555 1_555
C17 C16 1_555 1_555
H15 C17 1_555 1_555
C18 C13 1_555 1_555
C19 S2 1_555 1_555
C20 C19 1_555 1_555
H16 C20 1_555 1_555
H17 C20 1_555 1_555
H18 C20 1_555 1_555
C21 N1 1_555 1_555
C22 C21 1_555 1_555
H19 C22 1_555 1_555
H20 C22 1_555 1_555
H21 C22 1_555 1_555
P1 C19 1_555 1_555
N1 C19 1_555 1_555
C5 C6 1_555 1_555
C11 C12 1_555 1_555
C17 C18 1_555 1_555

#END
