
#######################################################################
#
#                 Cambridge Crystallographic Data Centre
#                                CCDC 
#
#######################################################################
#
# If this CIF has been generated from an entry in the Cambridge 
# Structural Database, then it will include bibliographic, chemical, 
# crystal, experimental, refinement or atomic coordinate data resulting 
# from the CCDC's data processing and validation procedures.
#
#######################################################################

data_YUYMIO
_chemical_formula_moiety         'C16 H10 O3'
_chemical_name_systematic        '2,3-Diphenylmaleic anhydride'
_symmetry_cell_setting           orthorhombic
_symmetry_space_group_name_H-M   'P b c a'
_symmetry_Int_Tables_number      61
_space_group_name_Hall           '-P 2ac 2ab'
loop_
_symmetry_equiv_pos_site_id
_symmetry_equiv_pos_as_xyz
1 x,y,z
2 1/2-x,-y,1/2+z
3 1/2+x,1/2-y,-z
4 -x,1/2+y,1/2-z
5 -x,-y,-z
6 1/2+x,y,1/2-z
7 1/2-x,1/2+y,z
8 x,1/2-y,1/2+z
_cell_length_a                   18.959(3)
_cell_length_b                   13.339(3)
_cell_length_c                   19.684(2)
_cell_angle_alpha                90
_cell_angle_beta                 90
_cell_angle_gamma                90
_cell_volume                     4977.97
_exptl_crystal_colour            Green
_chemical_melting_point          432-433K
_cell_formula_units_Z            16
loop_
_atom_site_label
_atom_site_type_symbol
_atom_site_fract_x
_atom_site_fract_y
_atom_site_fract_z
O1 O 0.1742(4) 0.1146(5) 0.1942(4)
O2 O 0.0825(4) 0.0853(5) 0.2622(4)
O3 O 0.0197(3) 0.0498(6) 0.3569(4)
C1 C 0.1545(6) 0.0881(7) 0.2477(5)
C2 C 0.1940(4) 0.0552(6) 0.3084(4)
C3 C 0.1476(4) 0.0282(6) 0.3567(4)
C4 C 0.0754(5) 0.0517(7) 0.3293(6)
C5 C 0.2715(4) 0.0646(6) 0.3131(4)
C6 C 0.3145(6) 0.0453(7) 0.2572(6)
C7 C 0.3874(6) 0.0566(8) 0.2640(6)
C8 C 0.4164(6) 0.0872(8) 0.3233(7)
C9 C 0.3740(5) 0.1074(9) 0.3794(6)
C10 C 0.3025(5) 0.0962(8) 0.3743(5)
C11 C 0.1565(4) -0.0194(7) 0.4223(4)
C12 C 0.2019(5) -0.0997(8) 0.4296(6)
C13 C 0.2087(6) -0.1483(9) 0.4920(7)
C14 C 0.1744(7) -0.1103(10) 0.5489(6)
C15 C 0.1298(6) -0.0312(10) 0.5441(6)
C16 C 0.1205(5) 0.0141(9) 0.4797(6)
H1 H 0.289(5) 0.010(7) 0.229(5)
H2 H 0.410(3) 0.037(5) 0.226(3)
H3 H 0.468(5) 0.098(6) 0.331(4)
H4 H 0.396(4) 0.142(6) 0.421(4)
H5 H 0.269(4) 0.110(5) 0.413(3)
H6 H 0.222(5) -0.130(7) 0.394(5)
H7 H 0.241(6) -0.200(8) 0.493(6)
H8 H 0.176(5) -0.156(7) 0.593(5)
H9 H 0.097(7) 0.007(9) 0.579(6)
H10 H 0.094(4) 0.064(6) 0.468(4)
O4 O 0.6549(4) 0.2052(5) 0.6719(3)
O5 O 0.5705(4) 0.1781(5) 0.7498(3)
O6 O 0.4643(4) 0.1544(5) 0.7987(3)
C17 C 0.5949(6) 0.1896(7) 0.6842(5)
C18 C 0.5321(5) 0.1808(6) 0.6372(4)
C19 C 0.4749(5) 0.1669(6) 0.6761(4)
C20 C 0.4979(6) 0.1649(7) 0.7488(5)
C21 C 0.5411(4) 0.1961(7) 0.5643(4)
C22 C 0.5968(5) 0.1502(7) 0.5304(4)
C23 C 0.6050(5) 0.1655(8) 0.4602(5)
C24 C 0.5591(6) 0.2287(9) 0.4263(5)
C25 C 0.5040(5) 0.2745(8) 0.4590(4)
C26 C 0.4955(5) 0.2571(7) 0.5277(4)
C27 C 0.4006(5) 0.1528(6) 0.6576(4)
C28 C 0.3817(5) 0.1020(8) 0.5988(5)
C29 C 0.3127(6) 0.0921(8) 0.5804(5)
C30 C 0.2605(6) 0.1307(9) 0.6207(7)
C31 C 0.2763(6) 0.1790(9) 0.6806(7)
C32 C 0.3467(6) 0.1898(7) 0.6996(5)
H11 H 0.629(4) 0.098(6) 0.560(4)
H12 H 0.654(4) 0.147(5) 0.435(3)
H13 H 0.567(4) 0.233(5) 0.387(3)
H14 H 0.473(6) 0.328(8) 0.430(5)
H15 H 0.463(3) 0.295(4) 0.555(3)
H16 H 0.417(3) 0.076(5) 0.569(3)
H17 H 0.301(3) 0.051(5) 0.548(3)
H18 H 0.211(4) 0.129(5) 0.606(4)
H19 H 0.246(6) 0.212(9) 0.717(6)
H20 H 0.360(4) 0.232(6) 0.741(4)
loop_
_geom_bond_atom_site_label_1
_geom_bond_atom_site_label_2
_geom_bond_site_symmetry_1
_geom_bond_site_symmetry_2
O1 C1 1_555 1_555
O2 C1 1_555 1_555
O3 C4 1_555 1_555
C1 C2 1_555 1_555
C2 C3 1_555 1_555
C3 C4 1_555 1_555
C4 O2 1_555 1_555
C5 C2 1_555 1_555
C6 C5 1_555 1_555
C7 C6 1_555 1_555
C8 C7 1_555 1_555
C9 C8 1_555 1_555
C10 C5 1_555 1_555
C11 C3 1_555 1_555
C12 C11 1_555 1_555
C13 C12 1_555 1_555
C14 C13 1_555 1_555
C15 C14 1_555 1_555
C16 C11 1_555 1_555
H1 C6 1_555 1_555
H2 C7 1_555 1_555
H3 C8 1_555 1_555
H4 C9 1_555 1_555
H5 C10 1_555 1_555
H6 C12 1_555 1_555
H7 C13 1_555 1_555
H8 C14 1_555 1_555
H9 C15 1_555 1_555
H10 C16 1_555 1_555
O4 C17 1_555 1_555
O5 C17 1_555 1_555
O6 C20 1_555 1_555
C17 C18 1_555 1_555
C18 C19 1_555 1_555
C19 C20 1_555 1_555
C20 O5 1_555 1_555
C21 C18 1_555 1_555
C22 C21 1_555 1_555
C23 C22 1_555 1_555
C24 C23 1_555 1_555
C25 C24 1_555 1_555
C26 C21 1_555 1_555
C27 C19 1_555 1_555
C28 C27 1_555 1_555
C29 C28 1_555 1_555
C30 C29 1_555 1_555
C31 C30 1_555 1_555
C32 C27 1_555 1_555
H11 C22 1_555 1_555
H12 C23 1_555 1_555
H13 C24 1_555 1_555
H14 C25 1_555 1_555
H15 C26 1_555 1_555
H16 C28 1_555 1_555
H17 C29 1_555 1_555
H18 C30 1_555 1_555
H19 C31 1_555 1_555
H20 C32 1_555 1_555
C9 C10 1_555 1_555
C15 C16 1_555 1_555
C25 C26 1_555 1_555
C31 C32 1_555 1_555

#END
