
#######################################################################
#
#                 Cambridge Crystallographic Data Centre
#                                CCDC 
#
#######################################################################
#
# If this CIF has been generated from an entry in the Cambridge 
# Structural Database, then it will include bibliographic, chemical, 
# crystal, experimental, refinement or atomic coordinate data resulting 
# from the CCDC's data processing and validation procedures.
#
#######################################################################

data_YUYMIO03
_chemical_formula_moiety         'C16 H10 O3'
_chemical_name_systematic        3,4-diphenylfuran-2,5-dione
_symmetry_cell_setting           monoclinic
_symmetry_space_group_name_H-M   'P 21/c'
_symmetry_Int_Tables_number      14
_space_group_name_Hall           '-P 2ybc'
loop_
_symmetry_equiv_pos_site_id
_symmetry_equiv_pos_as_xyz
1 x,y,z
2 -x,1/2+y,1/2-z
3 -x,-y,-z
4 x,1/2-y,1/2+z
_cell_length_a                   15.2208(4)
_cell_length_b                   5.94826(19)
_cell_length_c                   13.8485(4)
_cell_angle_alpha                90
_cell_angle_beta                 101.601(3)
_cell_angle_gamma                90
_cell_volume                     1228.19
_cell_formula_units_Z            4
loop_
_atom_site_label
_atom_site_type_symbol
_atom_site_fract_x
_atom_site_fract_y
_atom_site_fract_z
O1 O 0.74464(7) 0.0719(2) 0.46687(7)
C1 C 0.71629(9) 0.3355(2) 0.33896(9)
C2 C 0.83355(9) 0.1997(2) 0.24184(10)
C3 C 0.78159(9) 0.1995(2) 0.32106(10)
O2 O 0.85029(9) -0.1261(2) 0.41210(10)
O3 O 0.63819(9) 0.3271(2) 0.47654(8)
C4 C 0.79953(11) 0.0286(3) 0.40064(11)
C5 C 0.66719(9) 0.5158(2) 0.27983(10)
C6 C 0.62872(10) 0.6930(3) 0.32243(11)
H1 H 0.6352 0.6999 0.3906
C7 C 0.65453(10) 0.5075(3) 0.17696(10)
H2 H 0.6785 0.3890 0.1468
C8 C 0.60676(11) 0.6741(3) 0.12007(12)
H3 H 0.5988 0.6674 0.0518
C9 C 0.69259(10) 0.2579(3) 0.43297(10)
C10 C 0.88639(10) 0.3834(3) 0.22973(11)
H4 H 0.8872 0.5088 0.2700
C11 C 0.93525(12) 0.1993(4) 0.09705(13)
H5 H 0.9694 0.1991 0.0484
C12 C 0.88219(13) 0.0169(3) 0.10743(13)
H6 H 0.8801 -0.1055 0.0652
C13 C 0.83193(11) 0.0150(3) 0.18041(12)
H7 H 0.7972 -0.1098 0.1882
C14 C 0.58101(11) 0.8587(3) 0.26445(14)
H8 H 0.5557 0.9762 0.2938
C15 C 0.93769(11) 0.3815(3) 0.15849(13)
H9 H 0.9741 0.5038 0.1519
C16 C 0.57071(11) 0.8506(3) 0.16362(14)
H10 H 0.5395 0.9639 0.1249
loop_
_geom_bond_atom_site_label_1
_geom_bond_atom_site_label_2
_geom_bond_site_symmetry_1
_geom_bond_site_symmetry_2
O1 C4 1_555 1_555
C1 C3 1_555 1_555
C2 C3 1_555 1_555
C3 C4 1_555 1_555
O2 C4 1_555 1_555
O3 C9 1_555 1_555
C5 C1 1_555 1_555
C6 C5 1_555 1_555
H1 C6 1_555 1_555
C7 C5 1_555 1_555
H2 C7 1_555 1_555
C8 C7 1_555 1_555
H3 C8 1_555 1_555
C9 O1 1_555 1_555
C10 C2 1_555 1_555
H4 C10 1_555 1_555
C11 H5 1_555 1_555
C12 C11 1_555 1_555
H6 C12 1_555 1_555
C13 C2 1_555 1_555
H7 C13 1_555 1_555
C14 C6 1_555 1_555
H8 C14 1_555 1_555
C15 C10 1_555 1_555
H9 C15 1_555 1_555
C16 C8 1_555 1_555
H10 C16 1_555 1_555
C1 C9 1_555 1_555
C11 C15 1_555 1_555
C12 C13 1_555 1_555
C14 C16 1_555 1_555

#END
