
#######################################################################
#
#                 Cambridge Crystallographic Data Centre
#                                CCDC 
#
#######################################################################
#
# If this CIF has been generated from an entry in the Cambridge 
# Structural Database, then it will include bibliographic, chemical, 
# crystal, experimental, refinement or atomic coordinate data resulting 
# from the CCDC's data processing and validation procedures.
#
#######################################################################

data_YUYQEP
_chemical_name_common            
1,1,3,3-Tetramethyl-2-(4-nitrophenyl)guanidine
_chemical_formula_moiety         'C11 H16 N4 O2'
_chemical_name_systematic        
N,N,N',N'-Tetramethyl-N''-(p-nitrophenyl)-guanidine
_symmetry_cell_setting           monoclinic
_symmetry_space_group_name_H-M   'P 21/n'
_symmetry_Int_Tables_number      14
_space_group_name_Hall           '-P 2yn'
loop_
_symmetry_equiv_pos_site_id
_symmetry_equiv_pos_as_xyz
1 x,y,z
2 1/2-x,1/2+y,1/2-z
3 -x,-y,-z
4 1/2+x,1/2-y,1/2+z
_cell_length_a                   8.1532(3)
_cell_length_b                   9.0285(4)
_cell_length_c                   17.2766(8)
_cell_angle_alpha                90
_cell_angle_beta                 91.615(2)
_cell_angle_gamma                90
_cell_volume                     1271.25
_exptl_crystal_colour            yellow
_exptl_crystal_description       polyhedral
_chemical_melting_point          '85-86 deg.C'
_cell_formula_units_Z            4
loop_
_atom_site_label
_atom_site_type_symbol
_atom_site_fract_x
_atom_site_fract_y
_atom_site_fract_z
O1 O 0.7555(3) 0.3530(4) 0.12333(15)
O2 O 0.8265(4) 0.5687(4) 0.16349(19)
N1 N 0.0020(3) 0.3409(3) 0.41779(14)
N2 N 0.2665(3) 0.2500(2) 0.43298(13)
N3 N 0.2120(3) 0.4755(3) 0.36732(14)
N4 N 0.7336(3) 0.4621(4) 0.16432(16)
C1 C 0.1627(3) 0.3567(3) 0.40345(16)
C2 C -0.1182(4) 0.4295(4) 0.3745(2)
H1 H -0.1438 0.5166 0.4037
H2 H -0.2162 0.3724 0.3654
H3 H -0.0739 0.4581 0.3258
C3 C -0.0586(4) 0.2678(4) 0.4861(2)
H4 H 0.0324 0.2362 0.5184
H5 H -0.1231 0.1833 0.4707
H6 H -0.1253 0.3356 0.5143
C4 C 0.4343(3) 0.2849(3) 0.45597(18)
H7 H 0.5062 0.2565 0.4155
H8 H 0.4638 0.2318 0.5025
H9 H 0.4442 0.3894 0.4652
C5 C 0.2307(4) 0.0931(3) 0.42558(19)
H10 H 0.1204 0.0803 0.4058
H11 H 0.2421 0.0467 0.4754
H12 H 0.3058 0.0486 0.3906
C6 C 0.3425(3) 0.4678(3) 0.31868(16)
C7 C 0.4480(3) 0.5895(3) 0.31171(17)
H13 H 0.4313 0.6733 0.3418
C8 C 0.5738(4) 0.5876(3) 0.26195(18)
H14 H 0.6434 0.6689 0.2587
C9 C 0.5982(3) 0.4644(3) 0.21593(15)
C10 C 0.4961(4) 0.3439(3) 0.21983(16)
H15 H 0.5124 0.2618 0.1885
C11 C 0.3709(3) 0.3462(3) 0.27003(16)
H16 H 0.3016 0.2645 0.2723
loop_
_geom_bond_atom_site_label_1
_geom_bond_atom_site_label_2
_geom_bond_site_symmetry_1
_geom_bond_site_symmetry_2
O1 N4 1_555 1_555
O2 N4 1_555 1_555
N1 C1 1_555 1_555
N2 C1 1_555 1_555
N3 C1 1_555 1_555
N4 C9 1_555 1_555
C2 N1 1_555 1_555
H1 C2 1_555 1_555
H2 C2 1_555 1_555
H3 C2 1_555 1_555
C3 N1 1_555 1_555
H4 C3 1_555 1_555
H5 C3 1_555 1_555
H6 C3 1_555 1_555
C4 N2 1_555 1_555
H7 C4 1_555 1_555
H8 C4 1_555 1_555
H9 C4 1_555 1_555
C5 N2 1_555 1_555
H10 C5 1_555 1_555
H11 C5 1_555 1_555
H12 C5 1_555 1_555
C6 N3 1_555 1_555
C7 C6 1_555 1_555
H13 C7 1_555 1_555
C8 C7 1_555 1_555
H14 C8 1_555 1_555
C9 C8 1_555 1_555
C10 C9 1_555 1_555
H15 C10 1_555 1_555
C11 C6 1_555 1_555
H16 C11 1_555 1_555
C10 C11 1_555 1_555

#END
