
#######################################################################
#
#                 Cambridge Crystallographic Data Centre
#                                CCDC 
#
#######################################################################
#
# If this CIF has been generated from an entry in the Cambridge 
# Structural Database, then it will include bibliographic, chemical, 
# crystal, experimental, refinement or atomic coordinate data resulting 
# from the CCDC's data processing and validation procedures.
#
#######################################################################

data_YUYQOZ
_chemical_formula_moiety         'C54 H98 N6 2+,2(Br1 1-)'
_chemical_name_systematic        
"N-Benzyl-N-(6-(N-benzyl-N',N',N'',N''-tetrabutylguanidinio)hexyl)-N',N',N'',N''-tetrabutylguanidinium dibromide"
_symmetry_cell_setting           monoclinic
_symmetry_space_group_name_H-M   'P 21/c'
_symmetry_Int_Tables_number      14
_space_group_name_Hall           '-P 2ybc'
loop_
_symmetry_equiv_pos_site_id
_symmetry_equiv_pos_as_xyz
1 x,y,z
2 -x,1/2+y,1/2-z
3 -x,-y,-z
4 x,1/2-y,1/2+z
_cell_length_a                   10.515(2)
_cell_length_b                   16.944(5)
_cell_length_c                   16.195(4)
_cell_angle_alpha                90
_cell_angle_beta                 94.494(14)
_cell_angle_gamma                90
_cell_volume                     2876.53
_exptl_crystal_colour            colorless
_exptl_crystal_description       block
_cell_formula_units_Z            2
loop_
_atom_site_label
_atom_site_type_symbol
_atom_site_fract_x
_atom_site_fract_y
_atom_site_fract_z
Br1 Br 0.50405(8) 0.14816(7) 0.68592(5)
N1 N 0.7847(5) 0.3666(3) 0.9873(3)
C1 C 0.7623(6) 0.3195(4) 0.9200(5)
N2 N 0.8061(5) 0.3394(4) 0.8473(3)
C2 C 0.7906(7) 0.4523(4) 0.9807(5)
H1 H 0.7865 0.4670 0.9227
H2 H 0.8717 0.4706 1.0065
N3 N 0.6978(5) 0.2515(4) 0.9260(3)
C3 C 0.6837(7) 0.4928(4) 1.0214(5)
H3 H 0.6991 0.5492 1.0217
H4 H 0.6853 0.4755 1.0785
C4 C 0.5518(7) 0.4772(5) 0.9796(5)
H5 H 0.5337 0.4212 0.9820
H6 H 0.5505 0.4922 0.9218
C5 C 0.7956(6) 0.3323(4) 1.0712(4)
H7 H 0.7914 0.2752 1.0670
H8 H 0.7241 0.3498 1.1008
C6 C 0.9188(7) 0.3556(4) 1.1196(4)
C7 C 0.9133(8) 0.3890(5) 1.1972(5)
H9 H 0.8351 0.4007 1.2174
C8 C 1.0268(10) 0.4050(6) 1.2446(6)
H10 H 1.0247 0.4266 1.2972
C9 C 1.1404(10) 0.3890(6) 1.2140(7)
H11 H 1.2151 0.4003 1.2465
C10 C 1.1491(8) 0.3574(6) 1.1389(7)
H12 H 1.2282 0.3470 1.1194
C11 C 1.0372(8) 0.3404(6) 1.0906(5)
H13 H 1.0418 0.3185 1.0383
C12 C 0.9290(7) 0.3785(5) 0.8418(5)
H14 H 0.9694 0.3854 0.8973
H15 H 0.9146 0.4305 0.8178
C13 C 1.0182(8) 0.3335(7) 0.7907(6)
H16 H 0.9774 0.3253 0.7356
H17 H 1.0353 0.2822 0.8156
C14 C 1.1430(10) 0.3767(8) 0.7842(9)
H18 H 1.1234 0.4315 0.7713
H19 H 1.1895 0.3756 0.8383
C15 C 1.2238(16) 0.3494(10) 0.7269(11)
H20 H 1.2990 0.3817 0.7290
H21 H 1.1809 0.3519 0.6723
H22 H 1.2473 0.2958 0.7396
C16 C 0.7259(8) 0.3286(5) 0.7702(5)
H23 H 0.6616 0.2887 0.7777
H24 H 0.7775 0.3113 0.7266
C17 C 0.6601(13) 0.4095(6) 0.7460(6)
H25 H 0.6104 0.4268 0.7907
H26 H 0.7253 0.4489 0.7390
C18 C 0.5738(12) 0.4036(10) 0.6668(7)
H27 H 0.6199 0.3788 0.6242
H28 H 0.5011 0.3705 0.6764
C19 C 0.5286(16) 0.4815(9) 0.6381(10)
H29 H 0.4720 0.4756 0.5890
H30 H 0.6001 0.5134 0.6259
H31 H 0.4841 0.5065 0.6806
C20 C 0.7324(7) 0.1822(5) 0.8770(5)
H32 H 0.8077 0.1946 0.8485
H33 H 0.6633 0.1707 0.8355
C21 C 0.7585(10) 0.1104(5) 0.9304(7)
H34 H 0.7696 0.0651 0.8950
H35 H 0.6852 0.1003 0.9616
C22 C 0.8776(16) 0.1193(7) 0.9909(8)
H36 H 0.8692 0.1650 1.0261
H37 H 0.9529 0.1260 0.9607
C23 C 0.889(2) 0.0431(15) 1.0439(13)
H38 H 0.9636 0.0463 1.0819
H39 H 0.8956 -0.0017 1.0083
H40 H 0.8147 0.0377 1.0743
C24 C 0.5849(6) 0.2449(5) 0.9733(5)
H41 H 0.5811 0.2904 1.0094
H42 H 0.5928 0.1982 1.0080
C25 C 0.4632(8) 0.2399(8) 0.9185(6)
H43 H 0.4662 0.1951 0.8814
H44 H 0.4519 0.2875 0.8853
C26 C 0.3491(11) 0.2303(13) 0.9754(11)
H45 H 0.3852 0.2154 1.0301
H46 H 0.3104 0.2819 0.9805
C27 C 0.268(2) 0.1863(15) 0.9566(16)
H47 H 0.2077 0.1861 0.9980
H48 H 0.3035 0.1343 0.9520
H49 H 0.2265 0.2017 0.9043
N1B N 0.2153(5) 0.6334(3) 1.0127(3)
C1B C 0.2377(6) 0.6805(4) 1.0800(5)
N2B N 0.1939(5) 0.6606(4) 1.1527(3)
C2B C 0.2094(7) 0.5477(4) 1.0193(5)
H1B H 0.2135 0.5330 1.0773
H2B H 0.1283 0.5294 0.9935
N3B N 0.3022(5) 0.7485(4) 1.0740(3)
C3B C 0.3163(7) 0.5072(4) 0.9786(5)
H3B H 0.3009 0.4508 0.9783
H4B H 0.3147 0.5245 0.9215
C4B C 0.4482(7) 0.5228(5) 1.0204(5)
H5B H 0.4663 0.5788 1.0180
H6B H 0.4495 0.5078 1.0782
C5B C 0.2044(6) 0.6677(4) 0.9288(4)
H7B H 0.2086 0.7248 0.9330
H8B H 0.2759 0.6502 0.8992
C6B C 0.0812(7) 0.6444(4) 0.8804(4)
C7B C 0.0867(8) 0.6110(5) 0.8028(5)
H9B H 0.1649 0.5993 0.7826
C8B C -0.0268(10) 0.5950(6) 0.7554(6)
H10B H -0.0247 0.5734 0.7028
C9B C -0.1404(10) 0.6110(6) 0.7860(7)
H11B H -0.2151 0.5997 0.7535
C10B C -0.1491(8) 0.6426(6) 0.8611(7)
H12B H -0.2282 0.6530 0.8806
C11B C -0.0372(8) 0.6596(6) 0.9094(5)
H13B H -0.0418 0.6815 0.9617
C12B C 0.0710(7) 0.6215(5) 1.1582(5)
H14B H 0.0306 0.6146 1.1027
H15B H 0.0854 0.5695 1.1822
C13B C -0.0182(8) 0.6665(7) 1.2093(6)
H16B H 0.0226 0.6747 1.2644
H17B H -0.0353 0.7178 1.1844
C14B C -0.1430(10) 0.6233(8) 1.2158(9)
H18B H -0.1234 0.5685 1.2287
H19B H -0.1895 0.6244 1.1617
C15B C -0.2238(16) 0.6506(10) 1.2731(11)
H20B H -0.2990 0.6183 1.2710
H21B H -0.1809 0.6481 1.3277
H22B H -0.2473 0.7042 1.2604
C16B C 0.2741(8) 0.6714(5) 1.2298(5)
H23B H 0.3384 0.7113 1.2223
H24B H 0.2225 0.6887 1.2734
C17B C 0.3399(13) 0.5905(6) 1.2540(6)
H25B H 0.3896 0.5732 1.2093
H26B H 0.2747 0.5511 1.2610
C18B C 0.4262(12) 0.5964(10) 1.3332(7)
H27B H 0.3801 0.6212 1.3758
H28B H 0.4989 0.6295 1.3236
C19B C 0.4714(16) 0.5185(9) 1.3619(10)
H29B H 0.5280 0.5244 1.4110
H30B H 0.3999 0.4866 1.3741
H31B H 0.5159 0.4935 1.3194
C20B C 0.2676(7) 0.8178(5) 1.1230(5)
H32B H 0.1923 0.8054 1.1515
H33B H 0.3367 0.8293 1.1645
C21B C 0.2415(10) 0.8896(5) 1.0696(7)
H34B H 0.2304 0.9349 1.1050
H35B H 0.3148 0.8997 1.0384
C22B C 0.1224(16) 0.8807(7) 1.0091(8)
H36B H 0.1308 0.8350 0.9739
H37B H 0.0471 0.8740 1.0393
C23B C 0.111(2) 0.9569(15) 0.9561(13)
H38B H 0.0364 0.9537 0.9181
H39B H 0.1044 1.0017 0.9917
H40B H 0.1853 0.9623 0.9257
C24B C 0.4151(6) 0.7551(5) 1.0267(5)
H41B H 0.4189 0.7096 0.9906
H42B H 0.4072 0.8018 0.9920
C25B C 0.5368(8) 0.7601(8) 1.0815(6)
H43B H 0.5338 0.8049 1.1186
H44B H 0.5481 0.7125 1.1147
C26B C 0.6509(11) 0.7697(13) 1.0246(11)
H45B H 0.6148 0.7846 0.9699
H46B H 0.6896 0.7181 1.0195
C27B C 0.732(2) 0.8137(15) 1.0434(16)
H47B H 0.7923 0.8139 1.0020
H48B H 0.6965 0.8657 1.0480
H49B H 0.7735 0.7983 1.0957
C28? C 0.7097(13) 0.3952(12) 0.7068(10)
H50? H 0.7670 0.3858 0.6637
H51? H 0.7347 0.4445 0.7338
loop_
_geom_bond_atom_site_label_1
_geom_bond_atom_site_label_2
_geom_bond_site_symmetry_1
_geom_bond_site_symmetry_2
N1 C1 1_555 1_555
C1 N2 1_555 1_555
N2 C12 1_555 1_555
C2 N1 1_555 1_555
H1 C2 1_555 1_555
H2 C2 1_555 1_555
N3 C1 1_555 1_555
C3 C2 1_555 1_555
H3 C3 1_555 1_555
H4 C3 1_555 1_555
C4 C3 1_555 1_555
H5 C4 1_555 1_555
H6 C4 1_555 1_555
C5 N1 1_555 1_555
H7 C5 1_555 1_555
H8 C5 1_555 1_555
C6 C5 1_555 1_555
C7 C6 1_555 1_555
H9 C7 1_555 1_555
C8 C7 1_555 1_555
H10 C8 1_555 1_555
C9 C8 1_555 1_555
H11 C9 1_555 1_555
C10 C9 1_555 1_555
H12 C10 1_555 1_555
C11 C6 1_555 1_555
H13 C11 1_555 1_555
C12 H14 1_555 1_555
H15 C12 1_555 1_555
C13 C12 1_555 1_555
H16 C13 1_555 1_555
H17 C13 1_555 1_555
C14 C13 1_555 1_555
H18 C14 1_555 1_555
H19 C14 1_555 1_555
C15 C14 1_555 1_555
H20 C15 1_555 1_555
H21 C15 1_555 1_555
H22 C15 1_555 1_555
C16 N2 1_555 1_555
H23 C16 1_555 1_555
H24 C16 1_555 1_555
C17 C16 1_555 1_555
H25 C17 1_555 1_555
H26 C17 1_555 1_555
C18 C17 1_555 1_555
H27 C18 1_555 1_555
H28 C18 1_555 1_555
C19 C18 1_555 1_555
H29 C19 1_555 1_555
H30 C19 1_555 1_555
H31 C19 1_555 1_555
C20 N3 1_555 1_555
H32 C20 1_555 1_555
H33 C20 1_555 1_555
C21 C20 1_555 1_555
H34 C21 1_555 1_555
H35 C21 1_555 1_555
C22 C21 1_555 1_555
H36 C22 1_555 1_555
H37 C22 1_555 1_555
C23 C22 1_555 1_555
H38 C23 1_555 1_555
H39 C23 1_555 1_555
H40 C23 1_555 1_555
C24 N3 1_555 1_555
H41 C24 1_555 1_555
H42 C24 1_555 1_555
C25 C24 1_555 1_555
H43 C25 1_555 1_555
H44 C25 1_555 1_555
C26 C25 1_555 1_555
H45 C26 1_555 1_555
H46 C26 1_555 1_555
C27 C26 1_555 1_555
H47 C27 1_555 1_555
H48 C27 1_555 1_555
H49 C27 1_555 1_555
N1B C1B 1_555 1_555
C1B N2B 1_555 1_555
N2B C12B 1_555 1_555
C2B N1B 1_555 1_555
H1B C2B 1_555 1_555
H2B C2B 1_555 1_555
N3B C1B 1_555 1_555
C3B C2B 1_555 1_555
H3B C3B 1_555 1_555
H4B C3B 1_555 1_555
C4B C4 1_555 1_555
H5B C4B 1_555 1_555
H6B C4B 1_555 1_555
C5B N1B 1_555 1_555
H7B C5B 1_555 1_555
H8B C5B 1_555 1_555
C6B C5B 1_555 1_555
C7B C6B 1_555 1_555
H9B C7B 1_555 1_555
C8B C7B 1_555 1_555
H10B C8B 1_555 1_555
C9B C8B 1_555 1_555
H11B C9B 1_555 1_555
C10B C9B 1_555 1_555
H12B C10B 1_555 1_555
C11B C6B 1_555 1_555
H13B C11B 1_555 1_555
C12B H14B 1_555 1_555
H15B C12B 1_555 1_555
C13B C12B 1_555 1_555
H16B C13B 1_555 1_555
H17B C13B 1_555 1_555
C14B C13B 1_555 1_555
H18B C14B 1_555 1_555
H19B C14B 1_555 1_555
C15B C14B 1_555 1_555
H20B C15B 1_555 1_555
H21B C15B 1_555 1_555
H22B C15B 1_555 1_555
C16B N2B 1_555 1_555
H23B C16B 1_555 1_555
H24B C16B 1_555 1_555
C17B C16B 1_555 1_555
H25B C17B 1_555 1_555
H26B C17B 1_555 1_555
C18B C17B 1_555 1_555
H27B C18B 1_555 1_555
H28B C18B 1_555 1_555
C19B C18B 1_555 1_555
H29B C19B 1_555 1_555
H30B C19B 1_555 1_555
H31B C19B 1_555 1_555
C20B N3B 1_555 1_555
H32B C20B 1_555 1_555
H33B C20B 1_555 1_555
C21B C20B 1_555 1_555
H34B C21B 1_555 1_555
H35B C21B 1_555 1_555
C22B C21B 1_555 1_555
H36B C22B 1_555 1_555
H37B C22B 1_555 1_555
C23B C22B 1_555 1_555
H38B C23B 1_555 1_555
H39B C23B 1_555 1_555
H40B C23B 1_555 1_555
C24B N3B 1_555 1_555
H41B C24B 1_555 1_555
H42B C24B 1_555 1_555
C25B C24B 1_555 1_555
H43B C25B 1_555 1_555
H44B C25B 1_555 1_555
C26B C25B 1_555 1_555
H45B C26B 1_555 1_555
H46B C26B 1_555 1_555
C27B C26B 1_555 1_555
H47B C27B 1_555 1_555
H48B C27B 1_555 1_555
H49B C27B 1_555 1_555
C10 C11 1_555 1_555
C3B C4B 1_555 1_555
C10B C11B 1_555 1_555

#END
