
#######################################################################
#
#                 Cambridge Crystallographic Data Centre
#                                CCDC 
#
#######################################################################
#
# If this CIF has been generated from an entry in the Cambridge 
# Structural Database, then it will include bibliographic, chemical, 
# crystal, experimental, refinement or atomic coordinate data resulting 
# from the CCDC's data processing and validation procedures.
#
#######################################################################

data_YUYYAU
_chemical_formula_moiety         'C23 H40 O4 Si1'
_chemical_name_systematic        
5-((t-butyl(dimethyl)silyl)oxy)-9-methoxy-6,12-dimethyl-15-oxatetracyclo[10.2.1.0^1,9^.0^2,6^]pentadecan-11-one
_symmetry_cell_setting           orthorhombic
_symmetry_space_group_name_H-M   'P 21 21 21'
_symmetry_Int_Tables_number      19
_space_group_name_Hall           'P 2ac 2ab'
loop_
_symmetry_equiv_pos_site_id
_symmetry_equiv_pos_as_xyz
1 x,y,z
2 1/2+x,1/2-y,-z
3 -x,1/2+y,1/2-z
4 1/2-x,-y,1/2+z
_cell_length_a                   9.34240(10)
_cell_length_b                   10.4854(2)
_cell_length_c                   25.0795(17)
_cell_angle_alpha                90
_cell_angle_beta                 90
_cell_angle_gamma                90
_cell_volume                     2456.76
_exptl_crystal_colour            colorless
_exptl_crystal_description       block
_cell_formula_units_Z            4
loop_
_atom_site_label
_atom_site_type_symbol
_atom_site_fract_x
_atom_site_fract_y
_atom_site_fract_z
Si1 Si 0.19713(19) 0.99348(16) 0.20250(6)
O1 O 0.1512(3) 0.5713(3) -0.03343(11)
O2 O 0.0015(3) 0.5050(3) 0.05063(12)
O3 O 0.2741(4) 0.9005(3) 0.15916(12)
O4 O 0.0692(5) 0.2631(4) -0.0537(2)
C1 C 0.2029(4) 0.7024(3) 0.04256(15)
H1 H 0.0989 0.7130 0.0452
C2 C 0.2245(4) 0.5723(4) 0.01737(16)
C3 C 0.2587(4) 0.7118(4) 0.10057(16)
C4 C 0.2570(4) 0.8240(4) 0.01576(17)
H2 H 0.1945 0.8492 -0.0133
H3 H 0.3533 0.8126 0.0021
C5 C 0.1506(4) 0.4706(4) 0.05286(18)
C6 C 0.2121(5) 0.8495(4) 0.11175(16)
H4 H 0.1077 0.8515 0.1154
C7 C 0.4228(5) 0.7041(5) 0.1061(2)
H5 H 0.4663 0.7689 0.0844
H6 H 0.4491 0.7170 0.1427
H7 H 0.4552 0.6217 0.0946
C8 C 0.1547(6) 0.4679(6) -0.1187(2)
H8 H 0.1871 0.3936 -0.1376
H9 H 0.0522 0.4727 -0.1206
H10 H 0.1956 0.5427 -0.1346
C9 C 0.2540(4) 0.9230(4) 0.06115(17)
H11 H 0.3473 0.9622 0.0654
H12 H 0.1844 0.9893 0.0536
C10 C 0.3794(4) 0.5348(4) 0.00196(19)
H13 H 0.4391 0.6099 -0.0020
H14 H 0.4214 0.4795 0.0287
C11 C 0.1393(5) 0.3446(4) -0.0316(2)
C12 C 0.1869(6) 0.6106(4) 0.13436(18)
H15 H 0.0856 0.6295 0.1373
H16 H 0.2275 0.6120 0.1700
C13 C 0.2007(5) 0.4593(4) -0.06099(19)
C14 C 0.2061(6) 0.4770(4) 0.1102(2)
H17 H 0.3068 0.4545 0.1107
H18 H 0.1550 0.4153 0.1318
C15 C 0.1729(6) 0.3383(4) 0.0269(2)
H19 H 0.2713 0.3112 0.0319
H20 H 0.1111 0.2762 0.0440
C16 C 0.3632(4) 0.4643(5) -0.0516(2)
H21 H 0.4107 0.5105 -0.0800
H22 H 0.4031 0.3791 -0.0494
C17 C -0.1004(6) 0.4226(6) 0.0727(3)
H23 H -0.1943 0.4583 0.0682
H24 H -0.0957 0.3414 0.0551
H25 H -0.0812 0.4115 0.1100
C18 C 0.2566(9) 1.0964(10) 0.3017(3)
H26 H 0.1571 1.0829 0.3096
H27 H 0.3110 1.0931 0.3342
H28 H 0.2686 1.1784 0.2854
C19 C 0.3104(7) 0.9898(8) 0.2626(2)
C20 C 0.0142(9) 0.9523(16) 0.2157(4)
H29 H -0.0248 1.0104 0.2414
H30 H -0.0401 0.9574 0.1833
H31 H 0.0096 0.8669 0.2294
C21 C 0.4654(8) 1.0105(13) 0.2503(4)
H32 H 0.4980 0.9452 0.2264
H33 H 0.4776 1.0925 0.2338
H34 H 0.5200 1.0071 0.2827
C22 C 0.2910(17) 0.8529(11) 0.2876(4)
H35 H 0.1918 0.8389 0.2957
H36 H 0.3231 0.7897 0.2627
H37 H 0.3464 0.8467 0.3198
C23 C 0.205(3) 1.1592(9) 0.1731(4)
H38 H 0.1608 1.2185 0.1972
H39 H 0.3031 1.1831 0.1676
H40 H 0.1552 1.1603 0.1396
loop_
_geom_bond_atom_site_label_1
_geom_bond_atom_site_label_2
_geom_bond_site_symmetry_1
_geom_bond_site_symmetry_2
Si1 O3 1_555 1_555
O1 C2 1_555 1_555
O2 C5 1_555 1_555
O3 C6 1_555 1_555
O4 C11 1_555 1_555
C1 H1 1_555 1_555
C2 C1 1_555 1_555
C3 C1 1_555 1_555
C4 C1 1_555 1_555
H2 C4 1_555 1_555
H3 C4 1_555 1_555
C5 C2 1_555 1_555
C6 C3 1_555 1_555
H4 C6 1_555 1_555
C7 C3 1_555 1_555
H5 C7 1_555 1_555
H6 C7 1_555 1_555
H7 C7 1_555 1_555
C8 H8 1_555 1_555
H9 C8 1_555 1_555
H10 C8 1_555 1_555
C9 C4 1_555 1_555
H11 C9 1_555 1_555
H12 C9 1_555 1_555
C10 C2 1_555 1_555
H13 C10 1_555 1_555
H14 C10 1_555 1_555
C11 C13 1_555 1_555
C12 C3 1_555 1_555
H15 C12 1_555 1_555
H16 C12 1_555 1_555
C13 O1 1_555 1_555
C14 C5 1_555 1_555
H17 C14 1_555 1_555
H18 C14 1_555 1_555
C15 C5 1_555 1_555
H19 C15 1_555 1_555
H20 C15 1_555 1_555
C16 C10 1_555 1_555
H21 C16 1_555 1_555
H22 C16 1_555 1_555
C17 O2 1_555 1_555
H23 C17 1_555 1_555
H24 C17 1_555 1_555
H25 C17 1_555 1_555
C18 H26 1_555 1_555
H27 C18 1_555 1_555
H28 C18 1_555 1_555
C19 Si1 1_555 1_555
C20 Si1 1_555 1_555
H29 C20 1_555 1_555
H30 C20 1_555 1_555
H31 C20 1_555 1_555
C21 C19 1_555 1_555
H32 C21 1_555 1_555
H33 C21 1_555 1_555
H34 C21 1_555 1_555
C22 C19 1_555 1_555
H35 C22 1_555 1_555
H36 C22 1_555 1_555
H37 C22 1_555 1_555
C23 Si1 1_555 1_555
H38 C23 1_555 1_555
H39 C23 1_555 1_555
H40 C23 1_555 1_555
C6 C9 1_555 1_555
C8 C13 1_555 1_555
C11 C15 1_555 1_555
C12 C14 1_555 1_555
C13 C16 1_555 1_555
C18 C19 1_555 1_555

#END
