
#######################################################################
#
#                 Cambridge Crystallographic Data Centre
#                                CCDC 
#
#######################################################################
#
# If this CIF has been generated from an entry in the Cambridge 
# Structural Database, then it will include bibliographic, chemical, 
# crystal, experimental, refinement or atomic coordinate data resulting 
# from the CCDC's data processing and validation procedures.
#
#######################################################################

data_YUZDII01
_chemical_formula_moiety         'C6 H13 N2 1+,F6 P1 1-,H2 O1'
_chemical_name_systematic        
'4-aza-1-azoniabicyclo[2.2.2]octane hexafluorophosphate monohydrate'
_symmetry_cell_setting           orthorhombic
_symmetry_space_group_name_H-M   'P n m a'
_symmetry_Int_Tables_number      62
_space_group_name_Hall           '-P 2ac 2n'
loop_
_symmetry_equiv_pos_site_id
_symmetry_equiv_pos_as_xyz
1 x,y,z
2 1/2-x,-y,1/2+z
3 1/2+x,1/2-y,1/2-z
4 -x,1/2+y,-z
5 -x,-y,-z
6 1/2+x,y,1/2-z
7 1/2-x,1/2+y,1/2+z
8 x,1/2-y,z
_cell_length_a                   11.852(9)
_cell_length_b                   9.062(7)
_cell_length_c                   10.238(8)
_cell_angle_alpha                90
_cell_angle_beta                 90
_cell_angle_gamma                90
_cell_volume                     1099.59
_exptl_crystal_colour            colorless
_exptl_crystal_description       Columnar
_cell_formula_units_Z            4
loop_
_atom_site_label
_atom_site_type_symbol
_atom_site_fract_x
_atom_site_fract_y
_atom_site_fract_z
F1 F 0.0781(2) 0.1286(2) 0.2072(2)
F2 F -0.0692(3) 0.2500 0.2891(4)
F3 F 0.0452(3) 0.3723(4) 0.4243(3)
F4 F 0.1923(3) 0.2500 0.3422(4)
P1 P 0.06111(9) 0.2500 0.31962(10)
F1G F 0.0781(2) 0.3714(2) 0.2072(2)
F3G F 0.0452(3) 0.1277(4) 0.4243(3)
C1 C 0.3932(4) 0.6169(4) 0.3463(4)
H1 H 0.3818 0.5288 0.3985
H2 H 0.4700 0.6162 0.3136
C2 C 0.2573(4) 0.7500 0.4776(5)
H3 H 0.2447 0.8368 0.5312
C3 C 0.1764(4) 0.7500 0.3624(4)
H4 H 0.1284 0.6634 0.3670
C4 C 0.3107(3) 0.6188(3) 0.2330(3)
H5 H 0.3522 0.6186 0.1514
H6 H 0.2646 0.5305 0.2358
H7 H 0.434(4) 0.7500 0.492(5)
N1 N 0.3742(3) 0.7500 0.4270(3)
N2 N 0.2374(3) 0.7500 0.2384(3)
C1G C 0.3932(4) 0.8831(4) 0.3463(4)
H1G H 0.3818 0.9712 0.3985
H2G H 0.4700 0.8838 0.3136
H3G H 0.2447 0.6632 0.5312
H4G H 0.1284 0.8366 0.3670
C4G C 0.3107(3) 0.8812(3) 0.2330(3)
H5G H 0.3522 0.8814 0.1514
H6G H 0.2646 0.9695 0.2358
H8? H 0.2447 0.8368 0.5312
H9? H 0.1284 0.6634 0.3670
O1? O 0.1053(3) 0.7206(19) 0.0064(4)
H10? H 0.140(5) 0.7500 0.062(6)
H11? H 0.148(5) 0.7500 -0.065(6)
loop_
_geom_bond_atom_site_label_1
_geom_bond_atom_site_label_2
_geom_bond_site_symmetry_1
_geom_bond_site_symmetry_2
C1 H1 1_555 1_555
H2 C1 1_555 1_555
C2 H3 1_555 1_555
C3 C2 1_555 1_555
H4 C3 1_555 1_555
C4 C1 1_555 1_555
H5 C4 1_555 1_555
H6 C4 1_555 1_555
H7 N1 1_555 1_555
N1 C1 1_555 1_555
N2 C3 1_555 1_555
F1 P1 1_555 1_555
F2 P1 1_555 1_555
F3 P1 1_555 1_555
F4 P1 1_555 1_555
P1 F1G 1_555 1_555
C1G N1 1_555 1_555
H1G C1G 1_555 1_555
H2G C1G 1_555 1_555
H3G C2 1_555 1_555
H4G C3 1_555 1_555
C4G N2 1_555 1_555
H5G C4G 1_555 1_555
H6G C4G 1_555 1_555
F3G P1 1_555 1_555
C2 N1 1_555 1_555
C4 N2 1_555 1_555
C1G C4G 1_555 1_555

#END
