
#######################################################################
#
#                 Cambridge Crystallographic Data Centre
#                                CCDC 
#
#######################################################################
#
# If this CIF has been generated from an entry in the Cambridge 
# Structural Database, then it will include bibliographic, chemical, 
# crystal, experimental, refinement or atomic coordinate data resulting 
# from the CCDC's data processing and validation procedures.
#
#######################################################################

data_YUZGEF10
_chemical_name_common            (3R,4S,2'R)-(-)-cis-Ohmefentanyl
_chemical_formula_moiety         'C23 H30 N2 O2'
_chemical_name_systematic        
cis-(3R,4S,2'R)-N-(1-(2-Hydroxy-2-phenylethyl)-3-methyl-4-piperidyl)-N-phenylpropanamide
_chemical_properties_biological  'analgesic activity'
_symmetry_cell_setting           orthorhombic
_symmetry_space_group_name_H-M   'P 21 21 21'
_symmetry_Int_Tables_number      19
_space_group_name_Hall           'P 2ac 2ab'
loop_
_symmetry_equiv_pos_site_id
_symmetry_equiv_pos_as_xyz
1 x,y,z
2 1/2-x,-y,1/2+z
3 1/2+x,1/2-y,-z
4 -x,1/2+y,1/2-z
_cell_length_a                   7.583(1)
_cell_length_b                   11.732(8)
_cell_length_c                   23.214(7)
_cell_angle_alpha                90
_cell_angle_beta                 90
_cell_angle_gamma                90
_cell_volume                     2065.2
_exptl_crystal_colour            colorless
_chemical_melting_point          135-137deg.C
_cell_formula_units_Z            4
loop_
_atom_site_label
_atom_site_type_symbol
_atom_site_fract_x
_atom_site_fract_y
_atom_site_fract_z
O1 O -0.3293(13) -0.5505(8) -0.9305(4)
O2 O -1.2394(9) -0.2866(6) -0.8813(3)
N1 N -0.6079(10) -0.4043(6) -0.9472(3)
C1 C -0.7876(14) -0.4523(8) -0.9399(4)
C2 C -0.8731(12) -0.4117(8) -0.8847(4)
C3 C -0.8886(12) -0.2791(8) -0.8897(4)
C4 C -0.7067(12) -0.2256(7) -0.8996(4)
C5 C -0.6215(13) -0.2779(8) -0.9530(4)
N2 N -0.9844(9) -0.2259(6) -0.8408(3)
C6 C -1.1652(13) -0.2335(8) -0.8422(4)
C7 C -1.2726(14) -0.1678(10) -0.7985(4)
C8 C -1.3324(15) -0.0520(11) -0.8238(6)
C9 C -0.7722(15) -0.4513(9) -0.8306(4)
C10 C -0.5183(13) -0.4546(8) -0.9962(4)
C11 C -0.4394(16) -0.5703(10) -0.9787(4)
C12 C -0.3394(14) -0.6207(8) -1.0280(4)
C13 C -0.1570(15) -0.6025(9) -1.0360(5)
C14 C -0.0689(16) -0.6511(10) -1.0829(5)
C15 C -0.1631(18) -0.7181(10) -1.1202(5)
C16 C -0.3368(18) -0.7391(9) -1.1116(5)
C17 C -0.4246(14) -0.6900(8) -1.0659(5)
C18 C -0.8942(12) -0.1593(8) -0.7975(3)
C19 C -0.8543(14) -0.2097(9) -0.7451(4)
C20 C -0.7714(15) -0.1399(10) -0.7022(4)
C21 C -0.7359(14) -0.0260(9) -0.7141(4)
C22 C -0.7772(17) 0.0192(9) -0.7659(4)
C23 C -0.8604(14) -0.0464(8) -0.8085(4)
H1 H 0.064(14) -0.639(9) -1.087(4)
H2 H -0.410(14) -0.794(8) -1.142(4)
H3 H -0.891(11) -0.009(7) -0.850(3)
H4 H -0.739(13) -0.179(7) -0.664(4)
H5 H -1.199(12) -0.156(7) -0.759(4)
H6 H -1.392(13) -0.216(8) -0.787(4)
H7 H -0.247(11) -0.497(6) -0.941(3)
H8 H -0.761(10) -0.539(6) -0.838(3)
H9 H -0.599(10) -0.453(6) -1.033(3)
H10 H -0.401(10) -0.400(6) -1.011(3)
H11 H -0.781(11) -0.545(7) -0.939(3)
H12 H -0.868(11) -0.426(7) -0.975(3)
H13 H -0.698(11) -0.255(7) -0.990(3)
H14 H -0.487(11) -0.244(7) -0.958(3)
H15 H -1.394(14) -0.061(9) -0.866(4)
H16 H -1.427(14) -0.013(9) -0.798(4)
H17 H -0.553(13) -0.631(8) -0.966(4)
H18 H -1.004(10) -0.444(7) -0.883(3)
H19 H -0.965(11) -0.260(7) -0.928(3)
H20 H -0.716(11) -0.138(6) -0.905(3)
H21 H -0.626(11) -0.243(7) -0.863(3)
H22 H -0.650(12) -0.413(7) -0.828(3)
H23 H -0.849(12) -0.434(7) -0.794(3)
H24 H -1.216(14) -0.004(9) -0.827(4)
H25 H -0.097(14) -0.756(8) -1.158(4)
H26 H -0.088(12) -0.551(8) -1.007(4)
H27 H -0.563(12) -0.709(7) -1.059(4)
H28 H -0.746(13) 0.110(7) -0.775(4)
H29 H -0.677(12) 0.027(7) -0.681(4)
H30 H -0.889(12) -0.297(7) -0.736(3)
loop_
_geom_bond_atom_site_label_1
_geom_bond_atom_site_label_2
_geom_bond_site_symmetry_1
_geom_bond_site_symmetry_2
O1 C11 1_555 1_555
O2 C6 1_555 1_555
N1 C1 1_555 1_555
C1 C2 1_555 1_555
C2 C3 1_555 1_555
C3 C4 1_555 1_555
C4 C5 1_555 1_555
C5 N1 1_555 1_555
N2 C3 1_555 1_555
C6 N2 1_555 1_555
C7 C6 1_555 1_555
C8 C7 1_555 1_555
C9 C2 1_555 1_555
C10 N1 1_555 1_555
C11 C10 1_555 1_555
C12 C11 1_555 1_555
C13 C12 1_555 1_555
C14 C13 1_555 1_555
C15 C14 1_555 1_555
C16 C15 1_555 1_555
C17 C12 1_555 1_555
C18 N2 1_555 1_555
C19 C18 1_555 1_555
C20 C19 1_555 1_555
C21 C20 1_555 1_555
C22 C21 1_555 1_555
C23 C18 1_555 1_555
H1 C14 1_555 1_555
H2 C16 1_555 1_555
H3 C23 1_555 1_555
H4 C20 1_555 1_555
H5 C7 1_555 1_555
H6 C7 1_555 1_555
H7 O1 1_555 1_555
H8 C9 1_555 1_555
H9 C10 1_555 1_555
H10 C10 1_555 1_555
H11 C1 1_555 1_555
H12 C1 1_555 1_555
H13 C5 1_555 1_555
H14 C5 1_555 1_555
H15 C8 1_555 1_555
H16 C8 1_555 1_555
H17 C11 1_555 1_555
H18 C2 1_555 1_555
H19 C3 1_555 1_555
H20 C4 1_555 1_555
H21 C4 1_555 1_555
H22 C9 1_555 1_555
H23 C9 1_555 1_555
H24 C8 1_555 1_555
H25 C15 1_555 1_555
H26 C13 1_555 1_555
H27 C17 1_555 1_555
H28 C22 1_555 1_555
H29 C21 1_555 1_555
H30 C19 1_555 1_555
C16 C17 1_555 1_555
C22 C23 1_555 1_555

#END
