
#######################################################################
#
#                 Cambridge Crystallographic Data Centre
#                                CCDC 
#
#######################################################################
#
# If this CIF has been generated from an entry in the Cambridge 
# Structural Database, then it will include bibliographic, chemical, 
# crystal, experimental, refinement or atomic coordinate data resulting 
# from the CCDC's data processing and validation procedures.
#
#######################################################################

data_YUZGIJ10
_chemical_name_common            (3R,4R,2'S)-(-)-trans-Ohmefentanyl
_chemical_formula_moiety         'C23 H30 N2 O2'
_chemical_name_systematic        
trans-(3R,4R,2'S)-N-(1-(2-Hydroxy-2-phenylethyl)-3-methyl-4-piperidyl)-N-phenylpropanamide
_chemical_properties_biological  'analgesic activity'
_symmetry_cell_setting           orthorhombic
_symmetry_space_group_name_H-M   'P 21 21 21'
_symmetry_Int_Tables_number      19
_space_group_name_Hall           'P 2ac 2ab'
loop_
_symmetry_equiv_pos_site_id
_symmetry_equiv_pos_as_xyz
1 x,y,z
2 1/2-x,-y,1/2+z
3 1/2+x,1/2-y,-z
4 -x,1/2+y,1/2-z
_cell_length_a                   8.398(1)
_cell_length_b                   12.712(3)
_cell_length_c                   20.064(5)
_cell_angle_alpha                90
_cell_angle_beta                 90
_cell_angle_gamma                90
_cell_volume                     2141.94
_exptl_crystal_colour            colorless
_cell_formula_units_Z            4
loop_
_atom_site_label
_atom_site_type_symbol
_atom_site_fract_x
_atom_site_fract_y
_atom_site_fract_z
O1 O 0.6762(9) 0.0445(5) 0.5595(3)
O2 O -0.2204(7) 0.2036(5) 0.6518(4)
N1 N 0.3902(9) 0.0685(6) 0.6314(4)
C1 C 0.2701(12) 0.0767(7) 0.5781(5)
C2 C 0.1818(11) 0.1813(7) 0.5770(4)
C3 C 0.1014(11) 0.1935(7) 0.6470(5)
C4 C 0.2248(14) 0.1855(9) 0.7029(4)
C5 C 0.3116(13) 0.0819(9) 0.6986(5)
N2 N 0.0130(8) 0.2944(6) 0.6523(4)
C6 C -0.1523(11) 0.2845(8) 0.6538(5)
C7 C -0.2419(12) 0.3911(8) 0.6551(5)
C8 C -0.4169(13) 0.3743(9) 0.6743(6)
C9 C 0.0590(13) 0.1845(9) 0.5207(5)
C10 C 0.4734(11) -0.0327(8) 0.6311(5)
C11 C 0.5787(12) -0.0428(8) 0.5685(5)
C12 C 0.6756(13) -0.1466(8) 0.5760(5)
C13 C 0.8349(14) -0.1419(9) 0.5963(6)
C14 C 0.9190(14) -0.2358(11) 0.6056(6)
C15 C 0.8465(16) -0.3278(9) 0.5943(6)
C16 C 0.6871(16) -0.3358(10) 0.5707(7)
C17 C 0.6001(15) -0.2399(9) 0.5618(6)
C18 C 0.0942(11) 0.3931(7) 0.6573(5)
C19 C 0.1555(12) 0.4405(8) 0.6003(5)
C20 C 0.2363(13) 0.5356(8) 0.6062(6)
C21 C 0.2515(14) 0.5788(9) 0.6735(7)
C22 C 0.1934(14) 0.5301(10) 0.7273(6)
C23 C 0.1168(12) 0.4378(8) 0.7201(5)
H1 H 0.894 -0.065 0.607
H2 H 1.045 -0.237 0.621
H3 H 0.907 -0.401 0.607
H4 H 0.640 -0.416 0.555
H5 H 0.476 -0.239 0.542
H6 H 0.141 0.401 0.551
H7 H 0.278 0.578 0.560
H8 H 0.327 0.652 0.679
H9 H 0.212 0.566 0.777
H10 H 0.071 0.394 0.766
H11 H 0.502 -0.051 0.525
H12 H 0.543 -0.043 0.676
H13 H 0.383 -0.098 0.630
H14 H 0.334 0.067 0.530
H15 H 0.185 0.013 0.582
H16 H 0.265 0.246 0.569
H17 H 0.017 0.129 0.652
H18 H 0.306 0.250 0.700
H19 H 0.161 0.191 0.751
H20 H 0.229 0.016 0.708
H21 H 0.404 0.077 0.737
H22 H -0.185 0.445 0.691
H23 H -0.233 0.429 0.606
H24 H 0.112 0.162 0.486
H25 H -0.466 0.434 0.663
H26 H -0.435 0.359 0.728
H27 H -0.473 0.309 0.647
H28 H 0.016 0.263 0.510
H29 H -0.043 0.134 0.529
H30 H 0.709 0.033 0.594
loop_
_geom_bond_atom_site_label_1
_geom_bond_atom_site_label_2
_geom_bond_site_symmetry_1
_geom_bond_site_symmetry_2
O1 C11 1_555 1_555
O2 C6 1_555 1_555
N1 C1 1_555 1_555
C1 C2 1_555 1_555
C2 C3 1_555 1_555
C3 C4 1_555 1_555
C4 C5 1_555 1_555
C5 N1 1_555 1_555
N2 C3 1_555 1_555
C6 N2 1_555 1_555
C7 C6 1_555 1_555
C8 C7 1_555 1_555
C9 C2 1_555 1_555
C10 N1 1_555 1_555
C11 C10 1_555 1_555
C12 C11 1_555 1_555
C13 C12 1_555 1_555
C14 C13 1_555 1_555
C15 C14 1_555 1_555
C16 C15 1_555 1_555
C17 C12 1_555 1_555
C18 N2 1_555 1_555
C19 C18 1_555 1_555
C20 C19 1_555 1_555
C21 C20 1_555 1_555
C22 C21 1_555 1_555
C23 C18 1_555 1_555
H1 C13 1_555 1_555
H2 C14 1_555 1_555
H3 C15 1_555 1_555
H4 C16 1_555 1_555
H5 C17 1_555 1_555
H6 C19 1_555 1_555
H7 C20 1_555 1_555
H8 C21 1_555 1_555
H9 C22 1_555 1_555
H10 C23 1_555 1_555
H11 C11 1_555 1_555
H12 C10 1_555 1_555
H13 C10 1_555 1_555
H14 C1 1_555 1_555
H15 C1 1_555 1_555
H16 C2 1_555 1_555
H17 C3 1_555 1_555
H18 C4 1_555 1_555
H19 C4 1_555 1_555
H20 C5 1_555 1_555
H21 C5 1_555 1_555
H22 C7 1_555 1_555
H23 C7 1_555 1_555
H24 C9 1_555 1_555
H25 C8 1_555 1_555
H26 C8 1_555 1_555
H27 C8 1_555 1_555
H28 C9 1_555 1_555
H29 C9 1_555 1_555
H30 O1 1_555 1_555
C16 C17 1_555 1_555
C22 C23 1_555 1_555

#END
