
#######################################################################
#
#                 Cambridge Crystallographic Data Centre
#                                CCDC 
#
#######################################################################
#
# If this CIF has been generated from an entry in the Cambridge 
# Structural Database, then it will include bibliographic, chemical, 
# crystal, experimental, refinement or atomic coordinate data resulting 
# from the CCDC's data processing and validation procedures.
#
#######################################################################

data_YUZHAE
_chemical_formula_moiety         
'C81 H81 N15 O6 6+,9(C3 H6 O1),12(H2 O1),6(Cl1 1-)'
_chemical_name_systematic        
'18,30,61-tris(2-(Dimethylamino)ethoxy)-16,32,59-trioxo-2,14,15,33,34,46,57,58,70-nona-aza-7,41,50-triazoniatridecacyclo[22.22.18.2^4,7^.2^9,12^.2^36,39^.2^41,44^.2^47,50^.2^52,55^.1^3,45^.1^17,21^.1^22,26^.1^27,31^.1^60,64^]henoctaconta-1,3(70),4,6,9,11,13,17(77),18,20,22(76),23,25,27(75),28,30,34,36,38,41,43,45,47,49,52,54,56,60,62,64,66,68,71,73,78,80-hexatriacontaene hexachloride acetone unknown solvate dodecahydrate'
_symmetry_cell_setting           monoclinic
_symmetry_space_group_name_H-M   'P 21/c'
_symmetry_Int_Tables_number      14
_space_group_name_Hall           '-P 2ybc'
loop_
_symmetry_equiv_pos_site_id
_symmetry_equiv_pos_as_xyz
1 x,y,z
2 -x,1/2+y,1/2-z
3 -x,-y,-z
4 x,1/2-y,1/2+z
_cell_length_a                   19.4062(15)
_cell_length_b                   30.4471(16)
_cell_length_c                   19.8996(8)
_cell_angle_alpha                90
_cell_angle_beta                 101.576(6)
_cell_angle_gamma                90
_cell_volume                     11518.8
_exptl_crystal_colour            yellow
_exptl_crystal_description       plate
_cell_formula_units_Z            4
loop_
_atom_site_label
_atom_site_type_symbol
_atom_site_fract_x
_atom_site_fract_y
_atom_site_fract_z
O1 O 0.6828(5) 0.6937(3) 0.6091(5)
O2 O 0.7863(4) 0.6003(3) 0.6932(4)
O3 O 0.4020(4) 0.4773(2) 0.9034(3)
O4 O 0.2530(4) 0.4320(2) 0.8078(3)
O5 O 0.3259(5) 0.7039(2) 0.3419(3)
O6 O 0.2252(4) 0.6157(2) 0.2611(3)
N1 N 0.6338(4) 0.3664(2) 0.3231(3)
N2 N 0.6415(4) 0.3268(2) 0.4262(3)
N3 N 0.5342(4) 0.3279(2) 0.3431(3)
N4 N 0.8719(5) 0.4060(4) 0.4495(5)
N5 N 0.7773(5) 0.6094(3) 0.5499(5)
N6 N 0.7539(6) 0.6492(4) 0.5594(5)
H1 H 0.7697 0.6719 0.5396
N7 N 0.4745(5) 0.2471(2) 0.5414(4)
N8 N 0.4063(4) 0.3830(2) 0.8042(3)
N9 N 0.4151(4) 0.4123(2) 0.8605(3)
H2 H 0.4372 0.4031 0.9011
N10 N 0.4489(5) 0.4158(3) 0.1298(3)
N11 N 0.3634(4) 0.6214(2) 0.2344(3)
N12 N 0.3553(5) 0.6636(3) 0.2575(3)
H3 H 0.3636 0.6867 0.2338
C1 C 0.6700(5) 0.3525(3) 0.3833(4)
C2 C 0.5754(5) 0.3165(3) 0.4035(4)
C3 C 0.5664(5) 0.3539(3) 0.3054(4)
C4 C 0.7427(5) 0.3693(3) 0.4048(4)
C5 C 0.7791(5) 0.3631(3) 0.4727(5)
H4 H 0.7589 0.3463 0.5041
C6 C 0.8436(6) 0.3816(4) 0.4927(5)
H5 H 0.8691 0.3771 0.5382
C7 C 0.8366(6) 0.4126(4) 0.3817(5)
H6 H 0.8564 0.4304 0.3512
C8 C 0.7730(6) 0.3927(3) 0.3610(5)
H7 H 0.7494 0.3955 0.3145
C9 C 0.9336(6) 0.4346(4) 0.4737(6)
H8 H 0.9642 0.4349 0.4394
H9 H 0.9613 0.4231 0.5174
C10 C 0.9083(6) 0.4807(4) 0.4841(6)
C11 C 0.8768(6) 0.4892(4) 0.5383(6)
H10 H 0.8744 0.4666 0.5707
C12 C 0.8489(6) 0.5293(4) 0.5465(5)
H11 H 0.8251 0.5341 0.5832
C13 C 0.8551(5) 0.5638(4) 0.5009(5)
C14 C 0.8909(5) 0.5563(4) 0.4481(5)
H12 H 0.8974 0.5795 0.4180
C15 C 0.9155(5) 0.5170(4) 0.4401(6)
H13 H 0.9392 0.5123 0.4033
C16 C 0.8239(6) 0.6066(4) 0.5115(5)
H14 H 0.8377 0.6321 0.4903
C17 C 0.7050(7) 0.6555(5) 0.5998(7)
C18 C 0.5395(5) 0.2889(3) 0.4505(4)
C19 C 0.5770(6) 0.2763(3) 0.5114(4)
H15 H 0.6261 0.2817 0.5233
C20 C 0.5419(7) 0.2548(3) 0.5573(5)
H16 H 0.5679 0.2457 0.6007
C21 C 0.4397(6) 0.2581(3) 0.4812(5)
H17 H 0.3912 0.2508 0.4689
C22 C 0.4704(6) 0.2797(3) 0.4351(4)
H18 H 0.4431 0.2882 0.3920
C23 C 0.4416(6) 0.2251(3) 0.5934(4)
H19 H 0.4699 0.1991 0.6117
H20 H 0.3939 0.2149 0.5717
C24 C 0.4365(6) 0.2571(3) 0.6538(4)
C25 C 0.3835(6) 0.2874(3) 0.6485(5)
H21 H 0.3481 0.2884 0.6079
C26 C 0.3808(6) 0.3156(4) 0.6996(4)
H22 H 0.3434 0.3362 0.6958
C27 C 0.4357(6) 0.3145(3) 0.7607(4)
C28 C 0.4874(6) 0.2835(3) 0.7672(4)
H23 H 0.5228 0.2820 0.8078
C29 C 0.4874(6) 0.2536(3) 0.7124(5)
H24 H 0.5223 0.2314 0.7162
C30 C 0.4355(5) 0.3466(3) 0.8167(4)
H25 H 0.4577 0.3393 0.8624
C31 C 0.3915(5) 0.4522(3) 0.8542(4)
C32 C 0.5232(5) 0.3724(3) 0.2421(4)
C33 C 0.4550(5) 0.3666(3) 0.2220(4)
H26 H 0.4312 0.3472 0.2471
C34 C 0.4168(5) 0.3882(3) 0.1648(4)
H27 H 0.3677 0.3831 0.1508
C35 C 0.5156(6) 0.4203(3) 0.1453(4)
H28 H 0.5372 0.4384 0.1167
C36 C 0.5584(6) 0.4006(3) 0.2012(4)
H29 H 0.6078 0.4053 0.2119
C37 C 0.4073(6) 0.4424(3) 0.0730(4)
H30 H 0.3601 0.4294 0.0576
H31 H 0.4313 0.4431 0.0336
C38 C 0.4008(6) 0.4890(3) 0.1000(4)
C39 C 0.3730(6) 0.4950(3) 0.1587(5)
H32 H 0.3572 0.4705 0.1810
C40 C 0.3688(5) 0.5358(3) 0.1833(4)
H33 H 0.3532 0.5397 0.2253
C41 C 0.3874(5) 0.5737(3) 0.1476(4)
C42 C 0.4118(5) 0.5670(3) 0.0884(4)
H34 H 0.4232 0.5913 0.0628
C43 C 0.4198(6) 0.5257(4) 0.0666(4)
H35 H 0.4391 0.5216 0.0268
C44 C 0.3801(5) 0.6173(3) 0.1760(4)
H36 H 0.3879 0.6427 0.1508
C45 C 0.3341(6) 0.6681(3) 0.3187(5)
C46 C 0.4968(5) 0.5604(3) 0.6029(3)
C47 C 0.4611(5) 0.5370(3) 0.6459(3)
H37 H 0.4870 0.5273 0.6890
C48 C 0.3900(5) 0.5271(3) 0.6293(3)
C49 C 0.3524(5) 0.5419(3) 0.5637(4)
H38 H 0.3031 0.5370 0.5510
C50 C 0.3872(5) 0.5635(3) 0.5184(3)
C51 C 0.4588(5) 0.5739(3) 0.5378(4)
H39 H 0.4817 0.5898 0.5075
C52 C 0.5729(5) 0.5708(3) 0.6247(4)
C53 C 0.6053(5) 0.6060(3) 0.6040(4)
H40 H 0.5776 0.6259 0.5730
C54 C 0.6753(6) 0.6148(4) 0.6245(5)
C55 C 0.7178(6) 0.5868(4) 0.6711(5)
C56 C 0.6855(6) 0.5495(4) 0.6911(5)
H41 H 0.7129 0.5299 0.7227
C57 C 0.3516(5) 0.5035(3) 0.6753(4)
C58 C 0.6175(5) 0.5402(3) 0.6677(4)
H42 H 0.5987 0.5131 0.6797
C59 C 0.3875(5) 0.4898(2) 0.7413(3)
H43 H 0.4360 0.4965 0.7564
C60 C 0.3514(5) 0.4663(3) 0.7841(3)
C61 C 0.2827(5) 0.4553(3) 0.7635(4)
C62 C 0.2475(5) 0.4689(4) 0.6976(5)
H44 H 0.1994 0.4616 0.6820
C63 C 0.2817(5) 0.4924(3) 0.6564(4)
H45 H 0.2563 0.5015 0.6128
C64 C 0.3444(5) 0.5765(3) 0.4504(4)
C65 C 0.3591(5) 0.6159(3) 0.4162(4)
H46 H 0.3970 0.6342 0.4369
C66 C 0.3188(5) 0.6270(3) 0.3543(4)
C67 C 0.2618(6) 0.6011(3) 0.3233(4)
C68 C 0.2462(5) 0.5628(3) 0.3554(4)
H47 H 0.2074 0.5449 0.3355
C69 C 0.2898(5) 0.5515(3) 0.4182(4)
H48 H 0.2805 0.5247 0.4393
C70 C 0.8309(6) 0.5723(4) 0.7390(7)
H49 H 0.8391 0.5452 0.7143
H50 H 0.8068 0.5638 0.7764
C71 C 0.8991(8) 0.5918(6) 0.7693(11)
H51 H 0.9016 0.5934 0.8194
H52 H 0.9357 0.5707 0.7619
N13 N 0.9194(9) 0.6342(6) 0.7481(10)
C72 C 0.9954(10) 0.6439(9) 0.7723(18)
H53 H 1.0136 0.6269 0.8139
H54 H 1.0016 0.6753 0.7826
H55 H 1.0212 0.6360 0.7365
C73 C 0.8782(16) 0.6705(7) 0.770(2)
H56 H 0.8355 0.6577 0.7811
H57 H 0.8652 0.6930 0.7344
H58 H 0.9066 0.6838 0.8112
C74 C 0.1822(5) 0.4187(4) 0.7886(5)
H59 H 0.1745 0.4035 0.7437
H60 H 0.1509 0.4446 0.7842
C75 C 0.1650(7) 0.3878(4) 0.8429(6)
H61 H 0.1283 0.3670 0.8206
H62 H 0.2076 0.3704 0.8620
N14 N 0.1409(8) 0.4092(5) 0.8989(6)
C76 C 0.1834(14) 0.4468(6) 0.9280(10)
H63 H 0.1792 0.4701 0.8935
H64 H 0.2327 0.4379 0.9416
H65 H 0.1666 0.4577 0.9682
C77 C 0.1307(17) 0.3792(7) 0.9547(9)
H66 H 0.1278 0.3489 0.9380
H67 H 0.0873 0.3868 0.9701
H68 H 0.1708 0.3822 0.9931
C78 C 0.1773(6) 0.5867(3) 0.2201(5)
H69 H 0.1344 0.5834 0.2395
H70 H 0.1990 0.5574 0.2187
C79 C 0.1586(6) 0.6060(4) 0.1484(4)
H71 H 0.2025 0.6118 0.1319
H72 H 0.1313 0.5839 0.1174
N15 N 0.1177(6) 0.6467(3) 0.1442(5)
C80 C 0.1626(14) 0.6855(5) 0.1671(13)
H73 H 0.2066 0.6826 0.1505
H74 H 0.1729 0.6869 0.2174
H75 H 0.1383 0.7124 0.1485
C81 C 0.0826(11) 0.6552(6) 0.0708(8)
H76 H 0.1141 0.6726 0.0484
H77 H 0.0387 0.6714 0.0694
H78 H 0.0723 0.6271 0.0467
Cl1 Cl 0.51864(17) 0.64156(8) 0.00149(10)
Cl2 Cl 0.2375(3) 0.4009(2) 0.1080(3)
O7 O 0.4651(4) 0.3572(2) 0.5670(3)
C82 C 0.3681(6) 0.3992(4) 0.5786(5)
H79 H 0.3637 0.4292 0.5604
H80 H 0.3470 0.3976 0.6193
H81 H 0.3438 0.3789 0.5436
C83 C 0.4400(6) 0.3877(3) 0.5965(4)
C84 C 0.4857(6) 0.4122(3) 0.6525(4)
H82 H 0.4795 0.4006 0.6969
H83 H 0.4729 0.4434 0.6493
H84 H 0.5350 0.4089 0.6486
O8 O 0.9653(3) 0.4001(2) 0.6535(3)
O9 O 0.6607(3) 0.2676(2) 0.8559(3)
O10 O 0.9072(4) 0.4697(2) 0.2488(3)
O11 O 0.1980(6) 0.5001(4) 0.1128(6)
loop_
_geom_bond_atom_site_label_1
_geom_bond_atom_site_label_2
_geom_bond_site_symmetry_1
_geom_bond_site_symmetry_2
O1 C17 1_555 1_555
O2 C55 1_555 1_555
O3 C31 1_555 1_555
O4 C61 1_555 1_555
O5 C45 1_555 1_555
O6 C67 1_555 1_555
N1 C1 1_555 1_555
N2 C1 1_555 1_555
N3 C2 1_555 1_555
N4 C6 1_555 1_555
N5 N6 1_555 1_555
N6 H1 1_555 1_555
N7 C20 1_555 1_555
N8 N9 1_555 1_555
N9 H2 1_555 1_555
N10 C34 1_555 1_555
N11 N12 1_555 1_555
N12 H3 1_555 1_555
C1 C4 1_555 1_555
C2 N2 1_555 1_555
C3 N1 1_555 1_555
C4 C5 1_555 1_555
C5 H4 1_555 1_555
C6 C5 1_555 1_555
H5 C6 1_555 1_555
C7 N4 1_555 1_555
H6 C7 1_555 1_555
C8 C4 1_555 1_555
H7 C8 1_555 1_555
C9 N4 1_555 1_555
H8 C9 1_555 1_555
H9 C9 1_555 1_555
C10 C9 1_555 1_555
C11 C10 1_555 1_555
H10 C11 1_555 1_555
C12 C11 1_555 1_555
H11 C12 1_555 1_555
C13 C12 1_555 1_555
C14 C13 1_555 1_555
H12 C14 1_555 1_555
C15 C10 1_555 1_555
H13 C15 1_555 1_555
C16 N5 1_555 1_555
H14 C16 1_555 1_555
C17 N6 1_555 1_555
C18 C2 1_555 1_555
C19 C18 1_555 1_555
H15 C19 1_555 1_555
C20 C19 1_555 1_555
H16 C20 1_555 1_555
C21 N7 1_555 1_555
H17 C21 1_555 1_555
C22 C18 1_555 1_555
H18 C22 1_555 1_555
C23 N7 1_555 1_555
H19 C23 1_555 1_555
H20 C23 1_555 1_555
C24 C23 1_555 1_555
C25 C24 1_555 1_555
H21 C25 1_555 1_555
C26 C25 1_555 1_555
H22 C26 1_555 1_555
C27 C26 1_555 1_555
C28 C27 1_555 1_555
H23 C28 1_555 1_555
C29 C24 1_555 1_555
H24 C29 1_555 1_555
C30 N8 1_555 1_555
H25 C30 1_555 1_555
C31 N9 1_555 1_555
C32 C3 1_555 1_555
C33 C32 1_555 1_555
H26 C33 1_555 1_555
C34 C33 1_555 1_555
H27 C34 1_555 1_555
C35 N10 1_555 1_555
H28 C35 1_555 1_555
C36 C32 1_555 1_555
H29 C36 1_555 1_555
C37 N10 1_555 1_555
H30 C37 1_555 1_555
H31 C37 1_555 1_555
C38 C37 1_555 1_555
C39 C38 1_555 1_555
H32 C39 1_555 1_555
C40 C39 1_555 1_555
H33 C40 1_555 1_555
C41 C40 1_555 1_555
C42 C41 1_555 1_555
H34 C42 1_555 1_555
C43 C38 1_555 1_555
H35 C43 1_555 1_555
C44 N11 1_555 1_555
H36 C44 1_555 1_555
C45 N12 1_555 1_555
C46 C47 1_555 1_555
C47 H37 1_555 1_555
C48 C47 1_555 1_555
C49 C48 1_555 1_555
H38 C49 1_555 1_555
C50 C49 1_555 1_555
C51 C46 1_555 1_555
H39 C51 1_555 1_555
C52 C46 1_555 1_555
C53 C52 1_555 1_555
H40 C53 1_555 1_555
C54 C17 1_555 1_555
C55 C54 1_555 1_555
C56 C55 1_555 1_555
H41 C56 1_555 1_555
C57 C48 1_555 1_555
C58 C52 1_555 1_555
H42 C58 1_555 1_555
C59 C57 1_555 1_555
H43 C59 1_555 1_555
C60 C31 1_555 1_555
C61 C60 1_555 1_555
C62 C61 1_555 1_555
H44 C62 1_555 1_555
C63 C57 1_555 1_555
H45 C63 1_555 1_555
C64 C50 1_555 1_555
C65 C64 1_555 1_555
H46 C65 1_555 1_555
C66 C45 1_555 1_555
C67 C66 1_555 1_555
C68 C67 1_555 1_555
H47 C68 1_555 1_555
C69 C64 1_555 1_555
H48 C69 1_555 1_555
C70 O2 1_555 1_555
H49 C70 1_555 1_555
H50 C70 1_555 1_555
C71 C70 1_555 1_555
H51 C71 1_555 1_555
H52 C71 1_555 1_555
N13 C71 1_555 1_555
C72 N13 1_555 1_555
H53 C72 1_555 1_555
H54 C72 1_555 1_555
H55 C72 1_555 1_555
C73 N13 1_555 1_555
H56 C73 1_555 1_555
H57 C73 1_555 1_555
H58 C73 1_555 1_555
C74 O4 1_555 1_555
H59 C74 1_555 1_555
H60 C74 1_555 1_555
C75 C74 1_555 1_555
H61 C75 1_555 1_555
H62 C75 1_555 1_555
N14 C75 1_555 1_555
C76 N14 1_555 1_555
H63 C76 1_555 1_555
H64 C76 1_555 1_555
H65 C76 1_555 1_555
C77 N14 1_555 1_555
H66 C77 1_555 1_555
H67 C77 1_555 1_555
H68 C77 1_555 1_555
C78 O6 1_555 1_555
H69 C78 1_555 1_555
H70 C78 1_555 1_555
C79 C78 1_555 1_555
H71 C79 1_555 1_555
H72 C79 1_555 1_555
N15 C79 1_555 1_555
C80 N15 1_555 1_555
H73 C80 1_555 1_555
H74 C80 1_555 1_555
H75 C80 1_555 1_555
C81 N15 1_555 1_555
H76 C81 1_555 1_555
H77 C81 1_555 1_555
H78 C81 1_555 1_555
O7 C83 1_555 1_555
C82 H79 1_555 1_555
H80 C82 1_555 1_555
H81 C82 1_555 1_555
C83 C82 1_555 1_555
C84 C83 1_555 1_555
H82 C84 1_555 1_555
H83 C84 1_555 1_555
H84 C84 1_555 1_555
N3 C3 1_555 1_555
C7 C8 1_555 1_555
C13 C16 1_555 1_555
C14 C15 1_555 1_555
C21 C22 1_555 1_555
C27 C30 1_555 1_555
C28 C29 1_555 1_555
C35 C36 1_555 1_555
C41 C44 1_555 1_555
C42 C43 1_555 1_555
C50 C51 1_555 1_555
C53 C54 1_555 1_555
C56 C58 1_555 1_555
C59 C60 1_555 1_555
C62 C63 1_555 1_555
C65 C66 1_555 1_555
C68 C69 1_555 1_555

#END
