
#######################################################################
#
#                 Cambridge Crystallographic Data Centre
#                                CCDC 
#
#######################################################################
#
# If this CIF has been generated from an entry in the Cambridge 
# Structural Database, then it will include bibliographic, chemical, 
# crystal, experimental, refinement or atomic coordinate data resulting 
# from the CCDC's data processing and validation procedures.
#
#######################################################################

data_YUZLOU
_chemical_formula_moiety         'C22 H36 O8 S8'
_chemical_name_systematic        
4,4',5,5'-tetrakis(Hydroxyethoxyethylthio)tetrathiafulvalene
_symmetry_cell_setting           monoclinic
_symmetry_space_group_name_H-M   'P 21/c'
_symmetry_Int_Tables_number      14
_space_group_name_Hall           '-P 2ybc'
loop_
_symmetry_equiv_pos_site_id
_symmetry_equiv_pos_as_xyz
1 x,y,z
2 -x,1/2+y,1/2-z
3 -x,-y,-z
4 x,1/2-y,1/2+z
_cell_length_a                   5.051(2)
_cell_length_b                   37.876(13)
_cell_length_c                   8.319(3)
_cell_angle_alpha                90
_cell_angle_beta                 107.63(3)
_cell_angle_gamma                90
_cell_volume                     1516.77
_exptl_crystal_colour            red
_chemical_melting_point          '81-83 deg.C'
_cell_formula_units_Z            2
loop_
_atom_site_label
_atom_site_type_symbol
_atom_site_fract_x
_atom_site_fract_y
_atom_site_fract_z
S1 S 0.7553(1) 0.5160(1) 0.2436(1)
S2 S 0.7315(1) 0.5370(1) 0.5826(1)
S3 S 0.2546(1) 0.5599(1) 0.0631(1)
S4 S 0.2522(1) 0.5865(1) 0.4480(1)
O1 O 0.4819(4) 0.6361(1) -0.0053(2)
O2 O 0.6226(5) 0.7260(1) 0.1553(3)
O3 O 0.7649(4) 0.6696(1) 0.4914(2)
O4 O 0.9048(5) 0.7426(1) 0.4703(3)
C1 C 0.8947(5) 0.5110(1) 0.4648(3)
C2 C 0.4992(5) 0.5466(1) 0.2524(3)
C3 C 0.4911(5) 0.5566(1) 0.4064(3)
C4 C 0.4757(6) 0.5738(1) -0.0630(3)
C5 C 0.6522(6) 0.6058(1) 0.0021(3)
C6 C 0.6487(6) 0.6663(1) 0.0607(3)
C7 C 0.4622(7) 0.6963(1) 0.0766(4)
C8 C 0.3960(6) 0.6282(1) 0.4043(3)
C9 C 0.6490(6) 0.6393(1) 0.5459(3)
C10 C 0.9637(7) 0.6872(1) 0.6264(3)
C11 C 1.0984(7) 0.7160(1) 0.5554(4)
H1 H 0.6973(78) 0.7334(10) 0.1016(43)
H2 H 0.8064(71) 0.7353(8) 0.3841(39)
H3 H 0.5932(55) 0.5545(7) -0.0690(31)
H4 H 0.3425(62) 0.5777(7) -0.1721(36)
H5 H 0.7706(57) 0.6020(7) 0.1201(34)
H6 H 0.7828(56) 0.6094(7) -0.0629(31)
H7 H 0.7580(62) 0.6724(8) -0.0154(35)
H8 H 0.7734(58) 0.6601(7) 0.1724(34)
H9 H 0.3495(58) 0.7021(7) -0.0378(34)
H10 H 0.3469(67) 0.6889(8) 0.1491(38)
H11 H 0.4370(56) 0.6264(7) 0.2973(33)
H12 H 0.2438(60) 0.6445(8) 0.3880(33)
H13 H 0.6003(55) 0.6439(7) 0.6519(33)
H14 H 0.7939(65) 0.6200(8) 0.5756(36)
H15 H 1.1145(65) 0.6695(8) 0.6902(35)
H16 H 0.8615(63) 0.6979(8) 0.6997(36)
H17 H 1.2394(77) 0.7289(9) 0.6462(43)
H18 H 1.1913(72) 0.7057(8) 0.4761(41)
C1B C 1.1053(5) 0.4890(1) 0.5352(3)
S1B S 1.2447(1) 0.4840(1) 0.7564(1)
S2B S 1.2685(1) 0.4630(1) 0.4174(1)
C2B C 1.5008(5) 0.4534(1) 0.7476(3)
C3B C 1.5089(5) 0.4434(1) 0.5936(3)
S3B S 1.7454(1) 0.4401(1) 0.9369(1)
S4B S 1.7478(1) 0.4135(1) 0.5520(1)
C4B C 1.5243(6) 0.4262(1) 1.0630(3)
C8B C 1.6040(6) 0.3718(1) 0.5957(3)
C5B C 1.3478(6) 0.3942(1) 0.9979(3)
H3B H 1.4068(55) 0.4455(7) 1.0690(31)
H4B H 1.6575(62) 0.4223(7) 1.1721(36)
C9B C 1.3510(6) 0.3607(1) 0.4541(3)
H11B H 1.5630(56) 0.3736(7) 0.7027(33)
H12B H 1.7562(60) 0.3555(8) 0.6120(33)
O1B O 1.5181(4) 0.3639(1) 1.0053(2)
H5B H 1.2294(57) 0.3980(7) 0.8799(34)
H6B H 1.2172(56) 0.3906(7) 1.0629(31)
O3B O 1.2351(4) 0.3304(1) 0.5086(2)
H13B H 1.3997(55) 0.3561(7) 0.3481(33)
H14B H 1.2061(65) 0.3800(8) 0.4244(36)
C6B C 1.3513(6) 0.3337(1) 0.9393(3)
C10B C 1.0363(7) 0.3128(1) 0.3736(3)
C7B C 1.5378(7) 0.3037(1) 0.9234(4)
H7B H 1.2420(62) 0.3276(8) 1.0154(35)
H8B H 1.2266(58) 0.3399(7) 0.8276(34)
C11B C 0.9016(7) 0.2840(1) 0.4446(4)
H15B H 0.8855(65) 0.3305(8) 0.3098(35)
H16B H 1.1385(63) 0.3021(8) 0.3003(36)
O2B O 1.3774(5) 0.2740(1) 0.8447(3)
H9B H 1.6505(58) 0.2979(7) 1.0378(34)
H10B H 1.6531(67) 0.3111(8) 0.8509(38)
O4B O 1.0952(5) 0.2574(1) 0.5297(3)
H17B H 0.7606(77) 0.2711(9) 0.3538(43)
H18B H 0.8087(72) 0.2943(8) 0.5239(41)
H1B H 1.3027(78) 0.2666(10) 0.8984(43)
H2B H 1.1936(71) 0.2647(8) 0.6159(39)
loop_
_geom_bond_atom_site_label_1
_geom_bond_atom_site_label_2
_geom_bond_site_symmetry_1
_geom_bond_site_symmetry_2
S1 C1 1_555 1_555
S2 C1 1_555 1_555
S3 C2 1_555 1_555
S4 C3 1_555 1_555
O1 C5 1_555 1_555
O2 C7 1_555 1_555
O3 C9 1_555 1_555
O4 C11 1_555 1_555
C1 C1B 1_555 1_555
C2 S1 1_555 1_555
C3 S2 1_555 1_555
C4 S3 1_555 1_555
C5 C4 1_555 1_555
C6 O1 1_555 1_555
C7 C6 1_555 1_555
C8 S4 1_555 1_555
C9 C8 1_555 1_555
C10 O3 1_555 1_555
C11 C10 1_555 1_555
H1 O2 1_555 1_555
H2 O4 1_555 1_555
H3 C4 1_555 1_555
H4 C4 1_555 1_555
H5 C5 1_555 1_555
H6 C5 1_555 1_555
H7 C6 1_555 1_555
H8 C6 1_555 1_555
H9 C7 1_555 1_555
H10 C7 1_555 1_555
H11 C8 1_555 1_555
H12 C8 1_555 1_555
H13 C9 1_555 1_555
H14 C9 1_555 1_555
H15 C10 1_555 1_555
H16 C10 1_555 1_555
H17 C11 1_555 1_555
H18 C11 1_555 1_555
C1B S1B 1_555 1_555
S1B C2B 1_555 1_555
S2B C1B 1_555 1_555
C2B C3B 1_555 1_555
C3B S2B 1_555 1_555
S3B C2B 1_555 1_555
S4B C3B 1_555 1_555
C4B S3B 1_555 1_555
C8B S4B 1_555 1_555
C5B C4B 1_555 1_555
H3B C4B 1_555 1_555
H4B C4B 1_555 1_555
C9B C8B 1_555 1_555
H11B C8B 1_555 1_555
H12B C8B 1_555 1_555
O1B C5B 1_555 1_555
H5B C5B 1_555 1_555
H6B C5B 1_555 1_555
O3B C9B 1_555 1_555
H13B C9B 1_555 1_555
H14B C9B 1_555 1_555
C6B O1B 1_555 1_555
C10B O3B 1_555 1_555
C7B C6B 1_555 1_555
H7B C6B 1_555 1_555
H8B C6B 1_555 1_555
C11B C10B 1_555 1_555
H15B C10B 1_555 1_555
H16B C10B 1_555 1_555
O2B C7B 1_555 1_555
H9B C7B 1_555 1_555
H10B C7B 1_555 1_555
O4B C11B 1_555 1_555
H17B C11B 1_555 1_555
H18B C11B 1_555 1_555
H1B O2B 1_555 1_555
H2B O4B 1_555 1_555
C2 C3 1_555 1_555

#END
