
#######################################################################
#
#                 Cambridge Crystallographic Data Centre
#                                CCDC 
#
#######################################################################
#
# If this CIF has been generated from an entry in the Cambridge 
# Structural Database, then it will include bibliographic, chemical, 
# crystal, experimental, refinement or atomic coordinate data resulting 
# from the CCDC's data processing and validation procedures.
#
#######################################################################

data_YUZLIO
_chemical_formula_moiety         'C14 H20 O4 S8,2(C1 H4 O1)'
_chemical_name_systematic        
"4,4',5,5'-tetrakis(Hydroxyethylthio)tetrathiafulvalene methanol solvate"
_symmetry_cell_setting           monoclinic
_symmetry_space_group_name_H-M   'P 21/c'
_symmetry_Int_Tables_number      14
_space_group_name_Hall           '-P 2ybc'
loop_
_symmetry_equiv_pos_site_id
_symmetry_equiv_pos_as_xyz
1 x,y,z
2 -x,1/2+y,1/2-z
3 -x,-y,-z
4 x,1/2-y,1/2+z
_cell_length_a                   5.171(2)
_cell_length_b                   31.286(7)
_cell_length_c                   7.946(1)
_cell_angle_alpha                90
_cell_angle_beta                 99.98(2)
_cell_angle_gamma                90
_cell_volume                     1266.05
_exptl_crystal_colour            yellow
_cell_formula_units_Z            2
loop_
_atom_site_label
_atom_site_type_symbol
_atom_site_fract_x
_atom_site_fract_y
_atom_site_fract_z
S1 S 0.1721(4) 0.54444(6) 0.4250(2)
S2 S 0.4458(4) 0.51461(6) 0.7625(2)
S3 S -0.1680(4) 0.60672(6) 0.5749(3)
S4 S 0.1284(4) 0.57027(7) 0.9584(3)
O1 O 0.2730(16) 0.6883(2) 0.3424(9)
O2 O 0.2727(20) 0.6701(2) 1.0034(11)
C1 C 0.4210(15) 0.5125(2) 0.5383(9)
C2 C 0.0849(14) 0.5686(2) 0.6065(9)
C3 C 0.2090(15) 0.5548(2) 0.7612(9)
C4 C -0.0661(16) 0.6409(2) 0.4136(10)
C5 C 0.1873(19) 0.6638(3) 0.4734(11)
C6 C 0.4299(16) 0.5975(3) 1.0521(10)
C7 C 0.4614(20) 0.6405(3) 0.9749(12)
H1 H 0.249(24) 0.7135(37) 0.353(15)
H2 H 0.269(23) 0.6706(36) 1.093(14)
H3 H -0.0488(16) 0.6237(2) 0.3146(10)
H4 H -0.2023(16) 0.6619(2) 0.3780(10)
H5 H 0.1666(19) 0.6825(3) 0.5673(11)
H6 H 0.3212(19) 0.6429(3) 0.5163(11)
H7 H 0.4348(16) 0.6007(3) 1.1741(10)
H8 H 0.5776(16) 0.5798(3) 1.0363(10)
H9 H 0.6334(20) 0.6517(3) 1.0229(12)
H10 H 0.4541(20) 0.6374(3) 0.8527(12)
C1B C 0.5790(15) 0.4875(2) 0.4617(9)
S1B S 0.8279(4) 0.45556(6) 0.5750(2)
S2B S 0.5542(4) 0.48539(6) 0.2375(2)
C2B C 0.9151(14) 0.4314(2) 0.3935(9)
C3B C 0.7910(15) 0.4452(2) 0.2388(9)
S3B S 1.1680(4) 0.39328(6) 0.4251(3)
S4B S 0.8716(4) 0.42973(7) 0.0416(3)
C4B C 1.0661(16) 0.3591(2) 0.5864(10)
C6B C 0.5701(16) 0.4025(3) -0.0521(10)
C5B C 0.8127(19) 0.3362(3) 0.5266(11)
H3B H 1.0488(16) 0.3763(2) 0.6854(10)
H4B H 1.2023(16) 0.3381(2) 0.6220(10)
C7B C 0.5386(20) 0.3595(3) 0.0251(12)
H7B H 0.5652(16) 0.3993(3) -0.1741(10)
H8B H 0.4224(16) 0.4202(3) -0.0363(10)
O1B O 0.7270(16) 0.3117(2) 0.6576(9)
H5B H 0.8334(19) 0.3175(3) 0.4327(11)
H6B H 0.6788(19) 0.3571(3) 0.4837(11)
O2B O 0.7273(20) 0.3299(2) -0.0034(11)
H9B H 0.3666(20) 0.3483(3) -0.0229(12)
H10B H 0.5459(20) 0.3626(3) 0.1473(12)
H1B H 0.751(24) 0.2865(37) 0.647(15)
H2B H 0.731(23) 0.3294(36) -0.093(14)
O3 O 0.0357(19) 0.7363(2) 0.8194(12)
C8 C -0.2330(26) 0.7313(4) 0.7522(18)
H11 H 0.103(19) 0.7127(33) 0.908(13)
H12 H -0.2939(60) 0.7556(18) 0.682(12)
H13 H -0.3313(38) 0.7291(37) 0.8439(18)
H14 H -0.2580(38) 0.7058(21) 0.684(12)
loop_
_geom_bond_atom_site_label_1
_geom_bond_atom_site_label_2
_geom_bond_site_symmetry_1
_geom_bond_site_symmetry_2
S1 C1 1_555 1_555
S2 C1 1_555 1_555
S3 C2 1_555 1_555
S4 C3 1_555 1_555
O1 C5 1_555 1_555
O2 C7 1_555 1_555
C1 C1B 1_555 1_555
C2 S1 1_555 1_555
C3 S2 1_555 1_555
C4 S3 1_555 1_555
C5 C4 1_555 1_555
C6 S4 1_555 1_555
C7 C6 1_555 1_555
O3 C8 1_555 1_555
C8 H12 1_555 1_555
H1 O1 1_555 1_555
H2 O2 1_555 1_555
H3 C4 1_555 1_555
H4 C4 1_555 1_555
H5 C5 1_555 1_555
H6 C5 1_555 1_555
H7 C6 1_555 1_555
H8 C6 1_555 1_555
H9 C7 1_555 1_555
H10 C7 1_555 1_555
H11 O3 1_555 1_555
H13 C8 1_555 1_555
H14 C8 1_555 1_555
C1B S1B 1_555 1_555
S1B C2B 1_555 1_555
S2B C1B 1_555 1_555
C2B C3B 1_555 1_555
C3B S2B 1_555 1_555
S3B C2B 1_555 1_555
S4B C3B 1_555 1_555
C4B S3B 1_555 1_555
C6B S4B 1_555 1_555
C5B C4B 1_555 1_555
H3B C4B 1_555 1_555
H4B C4B 1_555 1_555
C7B C6B 1_555 1_555
H7B C6B 1_555 1_555
H8B C6B 1_555 1_555
O1B C5B 1_555 1_555
H5B C5B 1_555 1_555
H6B C5B 1_555 1_555
O2B C7B 1_555 1_555
H9B C7B 1_555 1_555
H10B C7B 1_555 1_555
H1B O1B 1_555 1_555
H2B O2B 1_555 1_555
C2 C3 1_555 1_555

#END
