
#######################################################################
#
#                 Cambridge Crystallographic Data Centre
#                                CCDC 
#
#######################################################################
#
# If this CIF has been generated from an entry in the Cambridge 
# Structural Database, then it will include bibliographic, chemical, 
# crystal, experimental, refinement or atomic coordinate data resulting 
# from the CCDC's data processing and validation procedures.
#
#######################################################################

data_YUZLOW
_chemical_formula_moiety         'C23 H20 N4'
_chemical_name_systematic        
2-(9-hexyl-9H-carbazol-3-yl)ethene-1,1,2-tricarbonitrile
_symmetry_cell_setting           triclinic
_symmetry_space_group_name_H-M   'P -1'
_symmetry_Int_Tables_number      2
_space_group_name_Hall           '-P 1'
loop_
_symmetry_equiv_pos_site_id
_symmetry_equiv_pos_as_xyz
1 x,y,z
2 -x,-y,-z
_cell_length_a                   8.101(4)
_cell_length_b                   8.385(4)
_cell_length_c                   14.676(6)
_cell_angle_alpha                83.80(4)
_cell_angle_beta                 84.18(4)
_cell_angle_gamma                70.75(4)
_cell_volume                     933.351
_exptl_crystal_colour            orange
_exptl_crystal_description       block
_cell_formula_units_Z            2
loop_
_atom_site_label
_atom_site_type_symbol
_atom_site_fract_x
_atom_site_fract_y
_atom_site_fract_z
N1 N 1.1615(5) -0.0725(4) 0.2283(2)
N2 N 0.5744(5) -0.1357(5) -0.0723(3)
N3 N 0.8004(6) -0.4125(5) -0.2563(3)
N4 N 1.3102(6) -0.5693(5) -0.1498(3)
C1 C 1.3321(5) -0.1195(5) 0.2686(3)
H1 H 1.3417 -0.0203 0.2960
H2 H 1.4275 -0.1522 0.2196
C2 C 1.3533(6) -0.2649(5) 0.3416(3)
H3 H 1.3382 -0.3619 0.3144
H4 H 1.2596 -0.2301 0.3913
C3 C 1.5323(5) -0.3227(5) 0.3832(3)
H5 H 1.5434 -0.4272 0.4240
H6 H 1.6259 -0.3508 0.3330
C4 C 1.5591(5) -0.1929(5) 0.4368(3)
H7 H 1.4568 -0.1522 0.4811
H8 H 1.5662 -0.0949 0.3943
C5 C 1.7267(6) -0.2625(6) 0.4892(3)
H9 H 1.7290 -0.1766 0.5299
H10 H 1.7221 -0.3647 0.5287
C6 C 1.8934(6) -0.3079(6) 0.4283(4)
H11 H 1.8970 -0.3998 0.3914
H12 H 1.9941 -0.3450 0.4663
H13 H 1.8978 -0.2086 0.3876
C7 C 1.0055(6) 0.0313(5) 0.2687(3)
C8 C 0.9754(6) 0.1225(5) 0.3451(3)
H14 H 1.0691 0.1183 0.3803
C9 C 0.8060(6) 0.2197(5) 0.3688(3)
H15 H 0.7834 0.2848 0.4205
C10 C 0.6670(6) 0.2247(5) 0.3188(3)
H16 H 0.5512 0.2922 0.3369
C11 C 0.6960(6) 0.1325(5) 0.2433(3)
H17 H 0.6012 0.1370 0.2088
C12 C 0.8666(5) 0.0322(5) 0.2180(3)
C13 C 0.9445(5) -0.0749(5) 0.1443(3)
C14 C 0.8763(6) -0.1216(5) 0.0734(3)
H18 H 0.7536 -0.0804 0.0668
C15 C 0.9883(6) -0.2301(5) 0.0111(3)
C16 C 1.1719(6) -0.2901(5) 0.0218(3)
H19 H 1.2481 -0.3627 -0.0210
C17 C 1.2407(6) -0.2450(5) 0.0927(3)
H20 H 1.3632 -0.2862 0.0997
C18 C 1.1269(6) -0.1376(5) 0.1539(3)
C19 C 0.9122(6) -0.2755(5) -0.0649(3)
C20 C 0.7205(6) -0.1965(5) -0.0687(3)
C21 C 0.9861(6) -0.3793(5) -0.1320(3)
C22 C 0.8808(6) -0.3981(5) -0.2011(3)
C23 C 1.1711(7) -0.4811(6) -0.1414(3)
loop_
_geom_bond_atom_site_label_1
_geom_bond_atom_site_label_2
_geom_bond_site_symmetry_1
_geom_bond_site_symmetry_2
N1 C1 1_555 1_555
N2 C20 1_555 1_555
N3 C22 1_555 1_555
N4 C23 1_555 1_555
C1 H1 1_555 1_555
H2 C1 1_555 1_555
C2 C1 1_555 1_555
H3 C2 1_555 1_555
H4 C2 1_555 1_555
C3 C2 1_555 1_555
H5 C3 1_555 1_555
H6 C3 1_555 1_555
C4 C3 1_555 1_555
H7 C4 1_555 1_555
H8 C4 1_555 1_555
C5 C4 1_555 1_555
H9 C5 1_555 1_555
H10 C5 1_555 1_555
C6 C5 1_555 1_555
H11 C6 1_555 1_555
H12 C6 1_555 1_555
H13 C6 1_555 1_555
C7 N1 1_555 1_555
C8 C7 1_555 1_555
H14 C8 1_555 1_555
C9 C8 1_555 1_555
H15 C9 1_555 1_555
C10 C9 1_555 1_555
H16 C10 1_555 1_555
C11 C10 1_555 1_555
H17 C11 1_555 1_555
C12 C7 1_555 1_555
C13 C12 1_555 1_555
C14 C13 1_555 1_555
H18 C14 1_555 1_555
C15 C14 1_555 1_555
C16 C15 1_555 1_555
H19 C16 1_555 1_555
C17 C16 1_555 1_555
H20 C17 1_555 1_555
C18 N1 1_555 1_555
C19 C15 1_555 1_555
C20 C19 1_555 1_555
C21 C19 1_555 1_555
C22 C21 1_555 1_555
C23 C21 1_555 1_555
C11 C12 1_555 1_555
C13 C18 1_555 1_555
C17 C18 1_555 1_555

#END
