
#######################################################################
#
#                 Cambridge Crystallographic Data Centre
#                                CCDC 
#
#######################################################################
#
# If this CIF has been generated from an entry in the Cambridge 
# Structural Database, then it will include bibliographic, chemical, 
# crystal, experimental, refinement or atomic coordinate data resulting 
# from the CCDC's data processing and validation procedures.
#
#######################################################################

data_YUZZIE
_chemical_formula_moiety         'C15 H15 Cl1 N2 O4'
_chemical_name_systematic        
N-(4-chloro-2,5-dimethoxyphenyl)-5-cyclopropyl-1,2-oxazole-3-carboxamide
_symmetry_cell_setting           monoclinic
_symmetry_space_group_name_H-M   'P 21/n'
_symmetry_Int_Tables_number      14
_space_group_name_Hall           '-P 2yn'
loop_
_symmetry_equiv_pos_site_id
_symmetry_equiv_pos_as_xyz
1 x,y,z
2 1/2-x,1/2+y,1/2-z
3 -x,-y,-z
4 1/2+x,1/2-y,1/2+z
_cell_length_a                   12.1479(16)
_cell_length_b                   9.3690(13)
_cell_length_c                   13.4069(18)
_cell_angle_alpha                90
_cell_angle_beta                 104.398(3)
_cell_angle_gamma                90
_cell_volume                     1477.96
_exptl_crystal_colour            colorless
_exptl_crystal_description       block
_cell_formula_units_Z            4
_exptl_crystal_recrystallization_method 
'Re-crystallisation from solvent: dichloromethane'
loop_
_atom_site_label
_atom_site_type_symbol
_atom_site_fract_x
_atom_site_fract_y
_atom_site_fract_z
C1 C -0.17763(14) 0.96004(19) 0.45046(13)
C2 C -0.10107(15) 0.85983(18) 0.43179(13)
H1 H -0.0952 0.8442 0.3648
C3 C -0.03328(14) 0.78289(18) 0.51207(13)
C4 C -0.04300(14) 0.80456(19) 0.61275(13)
C5 C -0.11767(15) 0.90513(19) 0.63162(14)
H2 H -0.1238 0.9208 0.6985
C6 C -0.18360(14) 0.98286(19) 0.55100(14)
C7 C -0.24502(19) 1.0171(3) 0.27192(15)
H3 H -0.1707 1.0392 0.2634
H4 H -0.3002 1.0775 0.2278
H5 H -0.2625 0.9190 0.2541
C8 C 0.01595(19) 0.7301(3) 0.78910(14)
H6 H 0.0386 0.8234 0.8161
H7 H 0.0637 0.6595 0.8306
H8 H -0.0617 0.7133 0.7902
C9 C 0.07141(15) 0.63864(18) 0.41117(13)
C10 C 0.17018(14) 0.53869(18) 0.42553(13)
C11 C 0.21995(15) 0.4903(2) 0.34779(13)
H9 H 0.1991 0.5134 0.2781
C12 C 0.30442(15) 0.40343(19) 0.39618(13)
C13 C 0.38963(16) 0.3204(2) 0.36175(14)
H10 H 0.3784 0.3156 0.2850
C14 C 0.44502(17) 0.1919(2) 0.41956(16)
H11 H 0.4226 0.1654 0.4816
H12 H 0.4620 0.1121 0.3797
C15 C 0.51182(17) 0.3218(2) 0.4224(2)
H13 H 0.5700 0.3224 0.3843
H14 H 0.5306 0.3756 0.4862
Cl1 Cl -0.27616(4) 1.11158(5) 0.57587(4)
H15 H 0.0893(16) 0.6427(19) 0.5547(15)
N1 N 0.04838(13) 0.68308(17) 0.49953(11)
N2 N 0.21908(13) 0.48600(17) 0.51529(11)
O1 O -0.24743(12) 1.04019(16) 0.37605(10)
O2 O 0.02670(11) 0.72106(15) 0.68608(9)
O3 O 0.02008(11) 0.67388(16) 0.32517(9)
O4 O 0.30605(11) 0.39785(14) 0.49772(9)
loop_
_geom_bond_atom_site_label_1
_geom_bond_atom_site_label_2
_geom_bond_site_symmetry_1
_geom_bond_site_symmetry_2
C1 C2 1_555 1_555
C2 H1 1_555 1_555
C3 C2 1_555 1_555
C4 C3 1_555 1_555
C5 C4 1_555 1_555
H2 C5 1_555 1_555
C6 C1 1_555 1_555
C7 H3 1_555 1_555
H4 C7 1_555 1_555
H5 C7 1_555 1_555
C8 H6 1_555 1_555
H7 C8 1_555 1_555
H8 C8 1_555 1_555
C9 C10 1_555 1_555
C10 C11 1_555 1_555
C11 H9 1_555 1_555
C12 C11 1_555 1_555
C13 C12 1_555 1_555
H10 C13 1_555 1_555
C14 C13 1_555 1_555
H11 C14 1_555 1_555
H12 C14 1_555 1_555
C15 C13 1_555 1_555
H13 C15 1_555 1_555
H14 C15 1_555 1_555
Cl1 C6 1_555 1_555
H15 N1 1_555 1_555
N1 C3 1_555 1_555
N2 C10 1_555 1_555
O1 C1 1_555 1_555
O2 C4 1_555 1_555
O3 C9 1_555 1_555
O4 C12 1_555 1_555
C5 C6 1_555 1_555
C7 O1 1_555 1_555
C8 O2 1_555 1_555
C9 N1 1_555 1_555
C14 C15 1_555 1_555
N2 O4 1_555 1_555

#END
