
#######################################################################
#
#                 Cambridge Crystallographic Data Centre
#                                CCDC 
#
#######################################################################
#
# If this CIF has been generated from an entry in the Cambridge 
# Structural Database, then it will include bibliographic, chemical, 
# crystal, experimental, refinement or atomic coordinate data resulting 
# from the CCDC's data processing and validation procedures.
#
#######################################################################

data_ZABMUN
_chemical_formula_moiety         'C16 H18 O2'
_chemical_name_systematic        1-benzylidene-2-oxaspiro[4.5]decan-3-one
_symmetry_cell_setting           monoclinic
_symmetry_space_group_name_H-M   'C 2/c'
_symmetry_Int_Tables_number      15
_space_group_name_Hall           '-C 2yn'
loop_
_symmetry_equiv_pos_site_id
_symmetry_equiv_pos_as_xyz
1 x,y,z
2 -x,y,1/2-z
3 1/2+x,1/2+y,z
4 1/2-x,1/2+y,1/2-z
5 -x,-y,-z
6 x,-y,1/2+z
7 1/2-x,1/2-y,-z
8 1/2+x,1/2-y,1/2+z
_cell_length_a                   26.558(3)
_cell_length_b                   7.6785(7)
_cell_length_c                   15.0400(15)
_cell_angle_alpha                90
_cell_angle_beta                 121.8490(10)
_cell_angle_gamma                90
_cell_volume                     2605.27
_cell_formula_units_Z            8
loop_
_atom_site_label
_atom_site_type_symbol
_atom_site_fract_x
_atom_site_fract_y
_atom_site_fract_z
O1 O 0.23554(16) 0.1590(5) 0.1185(3)
C1 C 0.2592(2) 0.3295(6) 0.1364(4)
C2 C 0.3255(2) 0.3257(7) 0.2035(4)
O2 O 0.27018(19) -0.1125(6) 0.1470(3)
C3 C 0.2814(2) 0.0406(7) 0.1600(4)
C4 C 0.1587(2) 0.4764(6) 0.0324(4)
C5 C 0.2235(2) 0.4671(7) 0.0958(4)
C6 C 0.1212(3) 0.3489(7) 0.0343(4)
C7 C 0.1321(3) 0.6219(7) -0.0348(4)
C8 C 0.3455(2) 0.4113(7) 0.3097(4)
C9 C 0.4221(3) 0.4233(8) 0.2224(5)
C10 C 0.4137(3) 0.4176(8) 0.3815(4)
C11 C 0.0607(3) 0.3647(8) -0.0251(5)
C12 C 0.3545(2) 0.4208(8) 0.1520(4)
C13 C 0.3394(3) 0.1284(8) 0.2162(4)
C14 C 0.0699(3) 0.6327(9) -0.0989(5)
C15 C 0.0341(3) 0.5067(9) -0.0943(5)
C16 C 0.4414(3) 0.5124(8) 0.3282(5)
loop_
_geom_bond_atom_site_label_1
_geom_bond_atom_site_label_2
_geom_bond_site_symmetry_1
_geom_bond_site_symmetry_2
O1 C1 1_555 1_555
C1 C2 1_555 1_555
C2 C8 1_555 1_555
O2 C3 1_555 1_555
C3 O1 1_555 1_555
C4 C5 1_555 1_555
C5 C1 1_555 1_555
C6 C4 1_555 1_555
C7 C4 1_555 1_555
C8 C10 1_555 1_555
C9 C12 1_555 1_555
C10 C16 1_555 1_555
C11 C6 1_555 1_555
C12 C2 1_555 1_555
C13 C2 1_555 1_555
C14 C7 1_555 1_555
C15 C11 1_555 1_555
C16 C9 1_555 1_555
C3 C13 1_555 1_555
C14 C15 1_555 1_555

#END
