
#######################################################################
#
#                 Cambridge Crystallographic Data Centre
#                                CCDC 
#
#######################################################################
#
# If this CIF has been generated from an entry in the Cambridge 
# Structural Database, then it will include bibliographic, chemical, 
# crystal, experimental, refinement or atomic coordinate data resulting 
# from the CCDC's data processing and validation procedures.
#
#######################################################################

data_ZABNIC
_chemical_formula_moiety         'C24 H21 Cl1 O3 S1'
_chemical_name_systematic        
5-Chloro-2-((4-methylphenyl)sulfonyl)-1,4-diphenylpent-4-en-1-one
_symmetry_cell_setting           monoclinic
_symmetry_space_group_name_H-M   'C 2/c'
_symmetry_Int_Tables_number      15
_space_group_name_Hall           '-C 2yn'
loop_
_symmetry_equiv_pos_site_id
_symmetry_equiv_pos_as_xyz
1 x,y,z
2 -x,y,1/2-z
3 1/2+x,1/2+y,z
4 1/2-x,1/2+y,1/2-z
5 -x,-y,-z
6 x,-y,1/2+z
7 1/2-x,1/2-y,-z
8 1/2+x,1/2-y,1/2+z
_cell_length_a                   17.1277(9)
_cell_length_b                   11.8028(6)
_cell_length_c                   22.7698(13)
_cell_angle_alpha                90
_cell_angle_beta                 108.933(3)
_cell_angle_gamma                90
_cell_volume                     4353.99
_exptl_crystal_colour            colorless
_cell_formula_units_Z            8
loop_
_atom_site_label
_atom_site_type_symbol
_atom_site_fract_x
_atom_site_fract_y
_atom_site_fract_z
Cl1 Cl 0.86704(5) -0.05333(5) 0.05851(3)
S1 S 1.11151(3) 0.25888(5) 0.13208(3)
O1 O 0.92846(10) 0.22225(13) 0.14240(8)
O2 O 1.16575(10) 0.25257(16) 0.09576(8)
O3 O 1.11424(10) 0.35536(13) 0.17079(8)
C1 C 1.13969(14) -0.0611(2) 0.24577(10)
C2 C 1.16617(16) -0.0571(2) 0.19477(11)
H1 H 1.1896 -0.1212 0.1836
C3 C 1.15845(14) 0.0404(2) 0.16008(10)
H2 H 1.1757 0.0420 0.1254
C4 C 1.12453(12) 0.13634(18) 0.17754(9)
C5 C 1.00814(12) 0.25302(16) 0.07682(9)
H3 H 1.0049 0.3083 0.0440
C6 C 0.98852(12) 0.13631(17) 0.04635(10)
H4 H 1.0283 0.1188 0.0256
H5 H 0.9941 0.0797 0.0783
C7 C 0.90281(12) 0.12991(17) -0.00001(9)
C8 C 0.87829(12) 0.21565(17) -0.05010(9)
C9 C 0.93494(14) 0.25995(19) -0.07584(10)
H6 H 0.9890 0.2334 -0.0625
C10 C 0.91224(16) 0.3428(2) -0.12092(12)
H7 H 0.9510 0.3721 -0.1374
C11 C 0.83231(18) 0.3822(2) -0.14151(12)
H8 H 0.8170 0.4379 -0.1720
C12 C 0.94727(12) 0.28925(18) 0.10923(10)
C13 C 0.91356(12) 0.40689(18) 0.10078(10)
C14 C 0.88897(16) 0.4530(2) 0.14795(13)
H9 H 0.8958 0.4124 0.1843
C15 C 0.85401(18) 0.5602(3) 0.14044(18)
H10 H 0.8385 0.5922 0.1723
C16 C 0.84227(17) 0.6189(2) 0.08682(19)
H11 H 0.8182 0.6904 0.0823
C17 C 0.86518(14) 0.5747(2) 0.03994(14)
H12 H 0.8563 0.6154 0.0034
C18 C 0.90195(13) 0.46825(18) 0.04657(11)
H13 H 0.9187 0.4383 0.0148
C19 C 0.84947(14) 0.05095(19) 0.00262(10)
H14 H 0.7982 0.0516 -0.0282
C20 C 0.79813(14) 0.25795(19) -0.07156(10)
H15 H 0.7591 0.2307 -0.0547
C21 C 0.77573(16) 0.3391(2) -0.11704(12)
H16 H 0.7215 0.3650 -0.1313
C22 C 1.09986(13) 0.13420(19) 0.22918(9)
H17 H 1.0784 0.1991 0.2414
C23 C 1.10699(14) 0.0356(2) 0.26268(10)
H18 H 1.0895 0.0341 0.2973
C24 C 1.1466(2) -0.1693(2) 0.28268(14)
H19 H 1.1830 -0.1573 0.3243
H20 H 1.1682 -0.2284 0.2635
H21 H 1.0930 -0.1907 0.2837
loop_
_geom_bond_atom_site_label_1
_geom_bond_atom_site_label_2
_geom_bond_site_symmetry_1
_geom_bond_site_symmetry_2
Cl1 C19 1_555 1_555
S1 O2 1_555 1_555
O1 C12 1_555 1_555
O3 S1 1_555 1_555
C1 C2 1_555 1_555
C2 H1 1_555 1_555
C3 C2 1_555 1_555
H2 C3 1_555 1_555
C4 S1 1_555 1_555
C5 S1 1_555 1_555
H3 C5 1_555 1_555
C6 C5 1_555 1_555
H4 C6 1_555 1_555
H5 C6 1_555 1_555
C7 C6 1_555 1_555
C8 C7 1_555 1_555
C9 C8 1_555 1_555
H6 C9 1_555 1_555
C10 C9 1_555 1_555
H7 C10 1_555 1_555
C11 C10 1_555 1_555
H8 C11 1_555 1_555
C12 C5 1_555 1_555
C13 C12 1_555 1_555
C14 C13 1_555 1_555
H9 C14 1_555 1_555
C15 C14 1_555 1_555
H10 C15 1_555 1_555
C16 C15 1_555 1_555
H11 C16 1_555 1_555
C17 C16 1_555 1_555
H12 C17 1_555 1_555
C18 C13 1_555 1_555
H13 C18 1_555 1_555
C19 C7 1_555 1_555
H14 C19 1_555 1_555
C20 C8 1_555 1_555
H15 C20 1_555 1_555
C21 C11 1_555 1_555
H16 C21 1_555 1_555
C22 C4 1_555 1_555
H17 C22 1_555 1_555
C23 C1 1_555 1_555
H18 C23 1_555 1_555
C24 C1 1_555 1_555
H19 C24 1_555 1_555
H20 C24 1_555 1_555
H21 C24 1_555 1_555
C3 C4 1_555 1_555
C17 C18 1_555 1_555
C20 C21 1_555 1_555
C22 C23 1_555 1_555

#END
