
#######################################################################
#
#                 Cambridge Crystallographic Data Centre
#                                CCDC 
#
#######################################################################
#
# If this CIF has been generated from an entry in the Cambridge 
# Structural Database, then it will include bibliographic, chemical, 
# crystal, experimental, refinement or atomic coordinate data resulting 
# from the CCDC's data processing and validation procedures.
#
#######################################################################

data_ZABNOI
_chemical_formula_moiety         'C25 H23 Br1 O4 S1'
_chemical_name_systematic        
5-Bromo-1-(4-methoxyphenyl)-2-((4-methylphenyl)sulfonyl)-4-phenylpent-4-en-1-one
_symmetry_cell_setting           triclinic
_symmetry_space_group_name_H-M   'P -1'
_symmetry_Int_Tables_number      2
_space_group_name_Hall           '-P 1'
loop_
_symmetry_equiv_pos_site_id
_symmetry_equiv_pos_as_xyz
1 x,y,z
2 -x,-y,-z
_cell_length_a                   8.5565(7)
_cell_length_b                   10.4912(9)
_cell_length_c                   13.4305(12)
_cell_angle_alpha                103.093(2)
_cell_angle_beta                 97.701(2)
_cell_angle_gamma                100.077(2)
_cell_volume                     1137.06
_exptl_crystal_colour            colorless
_cell_formula_units_Z            2
loop_
_atom_site_label
_atom_site_type_symbol
_atom_site_fract_x
_atom_site_fract_y
_atom_site_fract_z
C1 C 1.0230(12) 0.3009(9) 0.3189(6)
H1 H 1.0357 0.3823 0.3677
Br1 Br 1.20109(9) 0.22017(9) 0.31652(8)
C2 C 1.1784(7) -0.4246(6) 0.1376(5)
H2 H 1.2248 -0.4463 0.0763
H3 H 1.1331 -0.5056 0.1546
H4 H 1.2606 -0.3700 0.1943
C3 C 1.0472(6) -0.3490(5) 0.1179(4)
C4 C 0.9011(7) -0.3806(5) 0.1485(4)
H5 H 0.8838 -0.4498 0.1810
C5 C 0.7791(6) -0.3124(5) 0.1322(4)
H6 H 0.6816 -0.3353 0.1538
C6 C 0.8044(6) -0.2100(4) 0.0836(3)
C7 C 0.6934(5) 0.0220(4) 0.1768(3)
H7 H 0.6004 0.0648 0.1750
C8 C 0.7132(6) -0.0254(4) 0.2768(3)
C9 C 0.5710(5) -0.0730(4) 0.3208(3)
C10 C 0.4161(5) -0.0579(4) 0.2888(3)
H8 H 0.3968 -0.0171 0.2350
C11 C 0.2904(5) -0.1017(5) 0.3346(3)
H9 H 0.1881 -0.0879 0.3134
C12 C 0.3158(5) -0.1662(4) 0.4123(3)
C13 C 0.0454(6) -0.1906(7) 0.4392(4)
H10 H 0.0536 -0.0968 0.4445
H11 H -0.0179 -0.2168 0.4879
H12 H -0.0056 -0.2410 0.3700
C14 C 1.0690(6) -0.2466(5) 0.0702(4)
H13 H 1.1668 -0.2233 0.0490
C15 C 0.9503(6) -0.1772(5) 0.0529(4)
H14 H 0.9685 -0.1080 0.0204
C16 C 0.4698(6) -0.1828(5) 0.4452(3)
H15 H 0.4879 -0.2259 0.4977
C17 C 0.5950(6) -0.1360(4) 0.4007(3)
H16 H 0.6982 -0.1465 0.4242
C18 C 0.8405(6) 0.1238(5) 0.1717(4)
H17 H 0.9333 0.0824 0.1741
H18 H 0.8234 0.1459 0.1053
C19 C 0.8797(6) 0.2523(5) 0.2571(4)
C20 C 0.7512(6) 0.3299(4) 0.2722(4)
C21 C 0.6416(6) 0.3339(5) 0.1885(4)
H19 H 0.6439 0.2831 0.1225
C22 C 0.5277(7) 0.4129(5) 0.2016(5)
H20 H 0.4534 0.4140 0.1447
C23 C 0.5251(8) 0.4881(6) 0.2972(6)
H21 H 0.4510 0.5431 0.3055
C24 C 0.6302(9) 0.4840(6) 0.3816(5)
H22 H 0.6254 0.5345 0.4473
C25 C 0.7436(7) 0.4056(6) 0.3705(4)
H23 H 0.8148 0.4032 0.4284
O1 O 0.2010(4) -0.2160(4) 0.4614(3)
O2 O 0.8497(4) -0.0254(4) 0.3168(3)
O3 O 0.6697(4) -0.0686(3) -0.0239(2)
O4 O 0.5010(4) -0.2035(3) 0.0661(2)
S1 S 0.65199(14) -0.12059(11) 0.06451(8)
C26? C 1.035(6) 0.289(3) 0.282(3)
H24? H 1.1019 0.2361 0.2531
Br2? Br 1.1174(5) 0.4530(4) 0.3787(3)
loop_
_geom_bond_atom_site_label_1
_geom_bond_atom_site_label_2
_geom_bond_site_symmetry_1
_geom_bond_site_symmetry_2
C1 H1 1_555 1_555
Br1 C1 1_555 1_555
C2 H2 1_555 1_555
H3 C2 1_555 1_555
H4 C2 1_555 1_555
C3 C2 1_555 1_555
C4 C3 1_555 1_555
H5 C4 1_555 1_555
C5 C4 1_555 1_555
H6 C5 1_555 1_555
C6 C5 1_555 1_555
C7 H7 1_555 1_555
C8 C7 1_555 1_555
C9 C8 1_555 1_555
C10 C9 1_555 1_555
H8 C10 1_555 1_555
C11 C10 1_555 1_555
H9 C11 1_555 1_555
C12 C11 1_555 1_555
C13 H10 1_555 1_555
H11 C13 1_555 1_555
H12 C13 1_555 1_555
C14 C3 1_555 1_555
H13 C14 1_555 1_555
C15 C6 1_555 1_555
H14 C15 1_555 1_555
C16 C12 1_555 1_555
H15 C16 1_555 1_555
C17 C9 1_555 1_555
H16 C17 1_555 1_555
C18 C7 1_555 1_555
H17 C18 1_555 1_555
H18 C18 1_555 1_555
C19 C1 1_555 1_555
C20 C19 1_555 1_555
C21 C20 1_555 1_555
H19 C21 1_555 1_555
C22 C21 1_555 1_555
H20 C22 1_555 1_555
C23 C22 1_555 1_555
H21 C23 1_555 1_555
C24 C23 1_555 1_555
H22 C24 1_555 1_555
C25 C20 1_555 1_555
H23 C25 1_555 1_555
O1 C12 1_555 1_555
O2 C8 1_555 1_555
O3 S1 1_555 1_555
O4 S1 1_555 1_555
S1 C6 1_555 1_555
C7 S1 1_555 1_555
C13 O1 1_555 1_555
C14 C15 1_555 1_555
C16 C17 1_555 1_555
C18 C19 1_555 1_555
C24 C25 1_555 1_555

#END
