
#######################################################################
#
#                 Cambridge Crystallographic Data Centre
#                                CCDC 
#
#######################################################################
#
# If this CIF has been generated from an entry in the Cambridge 
# Structural Database, then it will include bibliographic, chemical, 
# crystal, experimental, refinement or atomic coordinate data resulting 
# from the CCDC's data processing and validation procedures.
#
#######################################################################

data_ZABVEG
_chemical_formula_moiety         'C26 H43 B3 O6'
_chemical_name_systematic        
4,4,5,5-tetramethyl-2-(2-phenyl-1,1-bis(4,4,5,5-tetramethyl-1,3,2-dioxaborolan-2-yl)ethyl)-1,3,2-dioxaborolane
_symmetry_cell_setting           monoclinic
_symmetry_space_group_name_H-M   'P 21/n'
_symmetry_Int_Tables_number      14
_space_group_name_Hall           '-P 2yn'
loop_
_symmetry_equiv_pos_site_id
_symmetry_equiv_pos_as_xyz
1 x,y,z
2 1/2-x,1/2+y,1/2-z
3 -x,-y,-z
4 1/2+x,1/2-y,1/2+z
_cell_length_a                   9.7658(11)
_cell_length_b                   12.3604(14)
_cell_length_c                   22.998(3)
_cell_angle_alpha                90
_cell_angle_beta                 92.758(2)
_cell_angle_gamma                90
_cell_volume                     2772.85
_exptl_crystal_colour            colorless
_exptl_crystal_description       block
_cell_formula_units_Z            4
loop_
_atom_site_label
_atom_site_type_symbol
_atom_site_fract_x
_atom_site_fract_y
_atom_site_fract_z
O1 O 1.03299(9) 0.34736(7) 0.17859(4)
O2 O 1.11410(8) 0.23484(7) 0.10950(3)
O3 O 0.71962(10) 0.19411(7) 0.19550(4)
O4 O 0.86392(9) 0.07585(7) 0.15333(4)
O5 O 0.90719(9) 0.16817(7) 0.01291(4)
O6 O 0.68961(9) 0.23346(7) 0.01915(4)
C1 C 0.84773(11) 0.26952(9) 0.10847(5)
C2 C 0.75454(12) 0.36846(9) 0.12071(5)
H1 H 0.6581 0.3435 0.1188
H2 H 0.7761 0.3929 0.1611
C3 C 0.76469(12) 0.46493(10) 0.08097(5)
C4 C 0.64693(15) 0.51491(13) 0.05839(7)
H3 H 0.5602 0.4844 0.0658
C5 C 0.65211(18) 0.60833(15) 0.02523(7)
H4 H 0.5695 0.6406 0.0103
C6 C 0.77495(18) 0.65412(12) 0.01397(6)
H5 H 0.7788 0.7190 -0.0080
C7 C 0.89233(19) 0.60499(17) 0.03490(9)
H6 H 0.9787 0.6352 0.0267
C8 C 0.88713(16) 0.51132(15) 0.06804(9)
H7 H 0.9703 0.4786 0.0821
C9 C 1.18153(12) 0.34785(10) 0.18774(5)
C10 C 1.22335(12) 0.24419(10) 0.15494(5)
C11 C 1.36124(13) 0.25041(13) 0.12748(6)
H8 H 1.3769 0.1837 0.1057
H9 H 1.4338 0.2592 0.1580
H10 H 1.3621 0.3124 0.1009
C12 C 1.21622(14) 0.14200(11) 0.19131(6)
H11 H 1.1269 0.1381 0.2089
H12 H 1.2892 0.1433 0.2221
H13 H 1.2279 0.0786 0.1664
C13 C 1.21473(15) 0.34632(13) 0.25293(6)
H14 H 1.1850 0.4145 0.2701
H15 H 1.3138 0.3377 0.2603
H16 H 1.1668 0.2858 0.2705
C14 C 1.23315(16) 0.45170(12) 0.16112(7)
H17 H 1.2145 0.4501 0.1189
H18 H 1.3321 0.4583 0.1696
H19 H 1.1861 0.5137 0.1777
C15 C 0.73245(13) 0.10152(10) 0.23512(6)
C16 C 0.79034(12) 0.01255(10) 0.19527(5)
C17 C 0.89008(14) -0.06653(11) 0.22465(6)
H20 H 0.9247 -0.1161 0.1955
H21 H 0.8432 -0.1080 0.2541
H22 H 0.9669 -0.0266 0.2434
C18 C 0.67913(17) -0.04868(13) 0.16023(8)
H23 H 0.6176 0.0030 0.1399
H24 H 0.6267 -0.0932 0.1865
H25 H 0.7215 -0.0953 0.1317
C19 C 0.59216(16) 0.07915(14) 0.25763(8)
H26 H 0.5631 0.1410 0.2807
H27 H 0.5963 0.0142 0.2821
H28 H 0.5263 0.0678 0.2247
C20 C 0.83164(18) 0.13483(13) 0.28461(6)
H29 H 0.9210 0.1516 0.2692
H30 H 0.8419 0.0755 0.3127
H31 H 0.7962 0.1989 0.3039
C21 C 0.82687(14) 0.12127(11) -0.03615(5)
C22 C 0.69989(13) 0.19720(11) -0.04073(5)
C23 C 0.56778(16) 0.14118(14) -0.06060(7)
H32 H 0.5449 0.0861 -0.0320
H33 H 0.5794 0.1067 -0.0984
H34 H 0.4936 0.1945 -0.0642
C24 C 0.72041(16) 0.29822(13) -0.07710(6)
H35 H 0.6447 0.3488 -0.0717
H36 H 0.7224 0.2782 -0.1183
H37 H 0.8073 0.3328 -0.0647
C25 C 0.91343(17) 0.12117(15) -0.08914(6)
H38 H 0.9517 0.1936 -0.0946
H39 H 0.8563 0.1010 -0.1236
H40 H 0.9883 0.0689 -0.0834
C26 C 0.79218(17) 0.00585(12) -0.01863(7)
H41 H 0.8771 -0.0350 -0.0109
H42 H 0.7377 -0.0289 -0.0503
H43 H 0.7395 0.0073 0.0166
B1 B 1.00156(13) 0.28564(10) 0.12990(5)
B2 B 0.80872(13) 0.17736(11) 0.15247(5)
B3 B 0.81791(13) 0.22318(10) 0.04588(5)
loop_
_geom_bond_atom_site_label_1
_geom_bond_atom_site_label_2
_geom_bond_site_symmetry_1
_geom_bond_site_symmetry_2
O1 C9 1_555 1_555
O2 C10 1_555 1_555
O3 C15 1_555 1_555
O4 C16 1_555 1_555
O5 C21 1_555 1_555
O6 C22 1_555 1_555
C1 C2 1_555 1_555
C2 H1 1_555 1_555
H2 C2 1_555 1_555
C3 C2 1_555 1_555
C4 C3 1_555 1_555
H3 C4 1_555 1_555
C5 C4 1_555 1_555
H4 C5 1_555 1_555
C6 C5 1_555 1_555
H5 C6 1_555 1_555
C7 C6 1_555 1_555
H6 C7 1_555 1_555
C8 C3 1_555 1_555
H7 C8 1_555 1_555
C9 C10 1_555 1_555
C10 C11 1_555 1_555
C11 H8 1_555 1_555
H9 C11 1_555 1_555
H10 C11 1_555 1_555
C12 C10 1_555 1_555
H11 C12 1_555 1_555
H12 C12 1_555 1_555
H13 C12 1_555 1_555
C13 C9 1_555 1_555
H14 C13 1_555 1_555
H15 C13 1_555 1_555
H16 C13 1_555 1_555
C14 C9 1_555 1_555
H17 C14 1_555 1_555
H18 C14 1_555 1_555
H19 C14 1_555 1_555
C15 C16 1_555 1_555
C16 C17 1_555 1_555
C17 H20 1_555 1_555
H21 C17 1_555 1_555
H22 C17 1_555 1_555
C18 C16 1_555 1_555
H23 C18 1_555 1_555
H24 C18 1_555 1_555
H25 C18 1_555 1_555
C19 C15 1_555 1_555
H26 C19 1_555 1_555
H27 C19 1_555 1_555
H28 C19 1_555 1_555
C20 C15 1_555 1_555
H29 C20 1_555 1_555
H30 C20 1_555 1_555
H31 C20 1_555 1_555
C21 C22 1_555 1_555
C22 C23 1_555 1_555
C23 H32 1_555 1_555
H33 C23 1_555 1_555
H34 C23 1_555 1_555
C24 C22 1_555 1_555
H35 C24 1_555 1_555
H36 C24 1_555 1_555
H37 C24 1_555 1_555
C25 C21 1_555 1_555
H38 C25 1_555 1_555
H39 C25 1_555 1_555
H40 C25 1_555 1_555
C26 C21 1_555 1_555
H41 C26 1_555 1_555
H42 C26 1_555 1_555
H43 C26 1_555 1_555
B1 O1 1_555 1_555
B2 O3 1_555 1_555
B3 O5 1_555 1_555
O2 B1 1_555 1_555
O4 B2 1_555 1_555
O6 B3 1_555 1_555
C1 B1 1_555 1_555
C1 B2 1_555 1_555
C1 B3 1_555 1_555
C7 C8 1_555 1_555

#END
