
#######################################################################
#
#                 Cambridge Crystallographic Data Centre
#                                CCDC 
#
#######################################################################
#
# If this CIF has been generated from an entry in the Cambridge 
# Structural Database, then it will include bibliographic, chemical, 
# crystal, experimental, refinement or atomic coordinate data resulting 
# from the CCDC's data processing and validation procedures.
#
#######################################################################

data_ZACBOX
_chemical_formula_moiety         'C42 H44 N2 O6'
_chemical_name_systematic        
3,7-bis(1-(2-ethylhexyl)-2-oxo-1,2-dihydro-3H-indol-3-ylidene)-3,7-dihydrofuro[2,3-f][1]benzofuran-2,6-dione
_symmetry_cell_setting           rhombohedral
_symmetry_space_group_name_H-M   'R -3'
_symmetry_Int_Tables_number      148
_space_group_name_Hall           '-R 3'
loop_
_symmetry_equiv_pos_site_id
_symmetry_equiv_pos_as_xyz
1 x,y,z
2 -y,x-y,z
3 -x+y,-x,z
4 2/3+x,1/3+y,1/3+z
5 2/3-y,1/3+x-y,1/3+z
6 2/3-x+y,1/3-x,1/3+z
7 1/3+x,2/3+y,2/3+z
8 1/3-y,2/3+x-y,2/3+z
9 1/3-x+y,2/3-x,2/3+z
10 -x,-y,-z
11 y,-x+y,-z
12 x-y,x,-z
13 1/3-x,2/3-y,2/3-z
14 1/3+y,2/3-x+y,2/3-z
15 1/3+x-y,2/3+x,2/3-z
16 2/3-x,1/3-y,1/3-z
17 2/3+y,1/3-x+y,1/3-z
18 2/3+x-y,1/3+x,1/3-z
_cell_length_a                   37.317(8)
_cell_length_b                   37.317(8)
_cell_length_c                   6.4679(13)
_cell_angle_alpha                90
_cell_angle_beta                 90
_cell_angle_gamma                120
_cell_volume                     7800.23
_exptl_crystal_description       needle-like
_cell_formula_units_Z            9
_exptl_crystal_recrystallization_method 'Re-crystallisation from solvent:'
loop_
_atom_site_label
_atom_site_type_symbol
_atom_site_fract_x
_atom_site_fract_y
_atom_site_fract_z
C1 C 0.42093(19) 0.46887(17) -0.1642(8)
C2 C 0.45510(15) 0.45903(16) -0.1369(7)
C3 C 0.48275(16) 0.47849(16) -0.3147(7)
C4 C 0.46614(16) 0.49774(17) -0.4331(8)
C5 C 0.48076(15) 0.51812(16) -0.6120(7)
H1 H 0.4668 0.5297 -0.6848
C6 C 0.45616(16) 0.43690(16) 0.0280(7)
C7 C 0.49210(19) 0.42952(18) 0.0611(9)
C8 C 0.44448(18) 0.39640(16) 0.3171(8)
C9 C 0.42767(16) 0.41566(16) 0.2003(8)
C10 C 0.39031(17) 0.41241(17) 0.2678(7)
H2 H 0.3776 0.4249 0.1921
C11 C 0.3726(2) 0.39046(18) 0.4486(8)
H3 H 0.3478 0.3887 0.4984
C12 C 0.38984(19) 0.37118(17) 0.5573(8)
H4 H 0.3762 0.3554 0.6768
C13 C 0.42686(19) 0.37435(16) 0.4952(7)
H5 H 0.4395 0.3619 0.5719
C14 C 0.51047(19) 0.3919(2) 0.3222(9)
H6 H 0.5109 0.3945 0.4746
H7 H 0.5389 0.4101 0.2697
C15 C 0.4956(3) 0.3461(3) 0.2611(14)
H8 H 0.4657 0.3323 0.3008
C16 C 0.4926(3) 0.3346(3) 0.0479(13)
H9 H 0.5204 0.3517 -0.0139
H10 H 0.4740 0.3428 -0.0200
C17 C 0.4775(2) 0.2898(2) -0.0126(12)
H11 H 0.4869 0.2770 0.0904
H12 H 0.4888 0.2891 -0.1484
H13 H 0.4472 0.2745 -0.0189
C18 C 0.5119(4) 0.3264(4) 0.4170(17)
H14 H 0.5011 0.3272 0.5557
H15 H 0.5006 0.2970 0.3795
C19 C 0.5579(5) 0.3463(5) 0.431(2)
H16 H 0.5703 0.3760 0.4652
H17 H 0.5694 0.3439 0.2969
C20 C 0.5676(5) 0.3231(5) 0.605(2)
H18 H 0.5582 0.3268 0.7425
H19 H 0.5550 0.2932 0.5754
C21 C 0.6147(6) 0.3451(5) 0.593(2)
H20 H 0.6241 0.3637 0.4729
H21 H 0.6236 0.3246 0.5778
H22 H 0.6266 0.3613 0.7191
N1 N 0.48269(16) 0.40411(14) 0.2349(7)
O1 O 0.42905(11) 0.49216(12) -0.3448(5)
O2 O 0.39015(12) 0.45956(13) -0.0724(5)
O3 O 0.52447(13) 0.44253(14) -0.0336(6)
C1I C 0.57907(19) 0.53113(17) -0.8358(8)
C2I C 0.54490(15) 0.54097(16) -0.8631(7)
C3I C 0.51725(16) 0.52151(16) -0.6853(7)
C4I C 0.53386(16) 0.50226(17) -0.5669(8)
C5I C 0.51924(15) 0.48188(16) -0.3880(7)
H1I H 0.5332 0.4703 -0.3152
C6I C 0.54384(16) 0.56310(16) -1.0280(7)
C7I C 0.50790(19) 0.57048(18) -1.0611(9)
C8I C 0.55552(18) 0.60360(16) -1.3171(8)
C9I C 0.57233(16) 0.58434(16) -1.2003(8)
C10I C 0.60969(17) 0.58759(17) -1.2678(7)
H2I H 0.6224 0.5751 -1.1921
C11I C 0.6274(2) 0.60954(18) -1.4486(8)
H3I H 0.6522 0.6113 -1.4984
C12I C 0.61016(19) 0.62882(17) -1.5573(8)
H4I H 0.6238 0.6446 -1.6768
C13I C 0.57314(19) 0.62565(16) -1.4952(7)
H5I H 0.5605 0.6381 -1.5719
C14I C 0.48953(19) 0.6081(2) -1.3222(9)
H6I H 0.4891 0.6055 -1.4746
H7I H 0.4611 0.5899 -1.2697
C15I C 0.5044(3) 0.6539(3) -1.2611(14)
H8I H 0.5343 0.6677 -1.3008
C16I C 0.5074(3) 0.6654(3) -1.0479(13)
H9I H 0.4796 0.6483 -0.9861
H10I H 0.5260 0.6572 -0.9800
C17I C 0.5225(2) 0.7102(2) -0.9874(12)
H11I H 0.5131 0.7230 -1.0904
H12I H 0.5112 0.7109 -0.8516
H13I H 0.5528 0.7255 -0.9811
C18I C 0.4881(4) 0.6736(4) -1.4170(17)
H14I H 0.4989 0.6728 -1.5557
H15I H 0.4994 0.7030 -1.3795
C19I C 0.4421(5) 0.6537(5) -1.431(2)
H16I H 0.4297 0.6240 -1.4652
H17I H 0.4306 0.6561 -1.2969
C20I C 0.4324(5) 0.6769(5) -1.605(2)
H18I H 0.4418 0.6732 -1.7425
H19I H 0.4450 0.7068 -1.5754
C21I C 0.3853(6) 0.6549(5) -1.593(2)
H20I H 0.3759 0.6363 -1.4729
H21I H 0.3764 0.6754 -1.5778
H22I H 0.3734 0.6387 -1.7191
N1I N 0.51731(16) 0.59589(14) -1.2349(7)
O1I O 0.57095(11) 0.50784(12) -0.6552(5)
O2I O 0.60985(12) 0.54044(13) -0.9276(5)
O3I O 0.47553(13) 0.55747(14) -0.9664(6)
loop_
_geom_bond_atom_site_label_1
_geom_bond_atom_site_label_2
_geom_bond_site_symmetry_1
_geom_bond_site_symmetry_2
C1 C2 1_555 1_555
C2 C3 1_555 1_555
C3 C4 1_555 1_555
C4 C5 1_555 1_555
C5 H1 1_555 1_555
C6 C2 1_555 1_555
C7 C6 1_555 1_555
C8 C9 1_555 1_555
C9 C6 1_555 1_555
C10 C9 1_555 1_555
H2 C10 1_555 1_555
C11 C10 1_555 1_555
H3 C11 1_555 1_555
C12 C11 1_555 1_555
H4 C12 1_555 1_555
C13 C8 1_555 1_555
H5 C13 1_555 1_555
C14 H6 1_555 1_555
H7 C14 1_555 1_555
C15 C14 1_555 1_555
H8 C15 1_555 1_555
C16 C15 1_555 1_555
H9 C16 1_555 1_555
H10 C16 1_555 1_555
C17 C16 1_555 1_555
H11 C17 1_555 1_555
H12 C17 1_555 1_555
H13 C17 1_555 1_555
C18 C15 1_555 1_555
H14 C18 1_555 1_555
H15 C18 1_555 1_555
C19 C18 1_555 1_555
H16 C19 1_555 1_555
H17 C19 1_555 1_555
C20 C19 1_555 1_555
H18 C20 1_555 1_555
H19 C20 1_555 1_555
C21 C20 1_555 1_555
H20 C21 1_555 1_555
H21 C21 1_555 1_555
H22 C21 1_555 1_555
N1 C7 1_555 1_555
O1 C1 1_555 1_555
O2 C1 1_555 1_555
O3 C7 1_555 1_555
C1I C2I 1_555 1_555
C2I C3I 1_555 1_555
C3I C5 1_555 1_555
C4I C3I 1_555 1_555
C5I C3 1_555 1_555
H1I C5I 1_555 1_555
C6I C2I 1_555 1_555
C7I C6I 1_555 1_555
C8I C9I 1_555 1_555
C9I C6I 1_555 1_555
C10I C9I 1_555 1_555
H2I C10I 1_555 1_555
C11I C10I 1_555 1_555
H3I C11I 1_555 1_555
C12I C11I 1_555 1_555
H4I C12I 1_555 1_555
C13I C8I 1_555 1_555
H5I C13I 1_555 1_555
C14I H6I 1_555 1_555
H7I C14I 1_555 1_555
C15I C14I 1_555 1_555
H8I C15I 1_555 1_555
C16I C15I 1_555 1_555
H9I C16I 1_555 1_555
H10I C16I 1_555 1_555
C17I C16I 1_555 1_555
H11I C17I 1_555 1_555
H12I C17I 1_555 1_555
H13I C17I 1_555 1_555
C18I C15I 1_555 1_555
H14I C18I 1_555 1_555
H15I C18I 1_555 1_555
C19I C18I 1_555 1_555
H16I C19I 1_555 1_555
H17I C19I 1_555 1_555
C20I C19I 1_555 1_555
H18I C20I 1_555 1_555
H19I C20I 1_555 1_555
C21I C20I 1_555 1_555
H20I C21I 1_555 1_555
H21I C21I 1_555 1_555
H22I C21I 1_555 1_555
N1I C7I 1_555 1_555
O1I C1I 1_555 1_555
O2I C1I 1_555 1_555
O3I C7I 1_555 1_555
C4 O1 1_555 1_555
C8 N1 1_555 1_555
C12 C13 1_555 1_555
C14 N1 1_555 1_555
C4I C5I 1_555 1_555
C4I O1I 1_555 1_555
C8I N1I 1_555 1_555
C12I C13I 1_555 1_555
C14I N1I 1_555 1_555

#END
