
#######################################################################
#
#                 Cambridge Crystallographic Data Centre
#                                CCDC 
#
#######################################################################
#
# If this CIF has been generated from an entry in the Cambridge 
# Structural Database, then it will include bibliographic, chemical, 
# crystal, experimental, refinement or atomic coordinate data resulting 
# from the CCDC's data processing and validation procedures.
#
#######################################################################

data_ZACCAK
_chemical_formula_moiety         'C42 H42 F2 N2 O6'
_chemical_name_systematic        
3,7-bis(1-(2-ethylhexyl)-7-fluoro-2-oxo-1,2-dihydro-3H-indol-3-ylidene)-3,7-dihydrofuro[2,3-f][1]benzofuran-2,6-dione
_symmetry_cell_setting           triclinic
_symmetry_space_group_name_H-M   'P -1'
_symmetry_Int_Tables_number      2
_space_group_name_Hall           '-P 1'
loop_
_symmetry_equiv_pos_site_id
_symmetry_equiv_pos_as_xyz
1 x,y,z
2 -x,-y,-z
_cell_length_a                   5.3586(2)
_cell_length_b                   15.9637(12)
_cell_length_c                   20.5234(11)
_cell_angle_alpha                85.975(5)
_cell_angle_beta                 83.990(4)
_cell_angle_gamma                82.010(5)
_cell_volume                     1726.27
_exptl_crystal_colour            black
_exptl_crystal_description       needle
_cell_formula_units_Z            2
loop_
_atom_site_label
_atom_site_type_symbol
_atom_site_fract_x
_atom_site_fract_y
_atom_site_fract_z
O1 O 0.6096(5) 0.6055(2) 0.45381(15)
O2 O 0.2447(6) 0.6674(2) 0.50110(16)
O3 O 1.2795(6) 0.5099(3) 0.30648(17)
F1 F 2.0787(6) 0.3624(2) 0.17245(15)
N1 N 1.6409(7) 0.4405(3) 0.2577(2)
C1 C 1.0082(8) 0.5190(3) 0.4311(2)
H1 H 1.0076 0.5325 0.3863
C2 C 0.8155(8) 0.5510(3) 0.4749(2)
C3 C 1.2068(8) 0.4648(3) 0.4569(2)
C4 C 1.4464(8) 0.4169(3) 0.4313(2)
C5 C 0.4449(8) 0.6249(3) 0.5086(2)
C6 C 1.5689(8) 0.4097(3) 0.3696(2)
C7 C 1.4685(9) 0.4595(3) 0.3102(2)
C8 C 1.8060(8) 0.3592(3) 0.3441(2)
C9 C 1.9855(9) 0.2994(3) 0.3716(3)
H2 H 1.9665 0.2840 0.4163
C10 C 2.1934(9) 0.2628(3) 0.3322(3)
H3 H 2.3138 0.2232 0.3508
C11 C 2.2232(10) 0.2848(4) 0.2657(3)
H4 H 2.3636 0.2603 0.2398
C12 C 2.0463(10) 0.3424(4) 0.2382(3)
C13 C 1.8402(9) 0.3805(3) 0.2761(3)
C14 C 1.6144(10) 0.4814(4) 0.1915(3)
H5 H 1.4441 0.5108 0.1896
H6 H 1.6424 0.4386 0.1593
C15 C 1.8132(13) 0.5465(5) 0.1751(3)
H7 H 1.9775 0.5179 0.1870
C16 C 1.7485(12) 0.6225(5) 0.2140(3)
H8 H 1.7203 0.6048 0.2601
H9 H 1.5922 0.6543 0.2009
C17 C 1.9517(11) 0.6786(4) 0.2053(4)
H10 H 1.9011 0.7272 0.2310
H11 H 1.9791 0.6968 0.1598
H12 H 2.1055 0.6480 0.2195
C18 C 1.8366(12) 0.5642(5) 0.0992(3)
H13 H 1.9718 0.5986 0.0875
H14 H 1.8868 0.5106 0.0789
C19 C 1.6055(13) 0.6072(5) 0.0707(4)
H15 H 1.5527 0.6608 0.0908
H16 H 1.4700 0.5725 0.0809
C20 C 1.6493(14) 0.6235(6) -0.0053(3)
H17 H 1.7870 0.6573 -0.0153
H18 H 1.7004 0.5696 -0.0252
C21 C 1.4283(16) 0.6665(6) -0.0344(4)
H19 H 1.4664 0.6735 -0.0811
H20 H 1.3809 0.7210 -0.0165
H21 H 1.2911 0.6334 -0.0249
O1A O 1.3904(5) 0.3945(2) 0.54619(15)
O2A O 1.7553(6) 0.3326(2) 0.49890(16)
O3A O 0.7205(6) 0.4901(3) 0.69352(17)
F1A F -0.0787(6) 0.6376(2) 0.82755(15)
N1A N 0.3591(7) 0.5595(3) 0.7423(2)
C1A C 0.9918(8) 0.4810(3) 0.5689(2)
H1A H 0.9924 0.4675 0.6137
C2A C 1.1845(8) 0.4490(3) 0.5251(2)
C3A C 0.7932(8) 0.5352(3) 0.5431(2)
C4A C 0.5536(8) 0.5831(3) 0.5687(2)
C5A C 1.5551(8) 0.3751(3) 0.4914(2)
C6A C 0.4311(8) 0.5903(3) 0.6304(2)
C7A C 0.5315(9) 0.5405(3) 0.6898(2)
C8A C 0.1940(8) 0.6408(3) 0.6559(2)
C9A C 0.0145(9) 0.7006(3) 0.6284(3)
H2A H 0.0335 0.7160 0.5837
C10A C -0.1934(9) 0.7372(3) 0.6678(3)
H3A H -0.3138 0.7768 0.6492
C11A C -0.2232(10) 0.7152(4) 0.7343(3)
H4A H -0.3636 0.7397 0.7602
C12A C -0.0463(10) 0.6576(4) 0.7618(3)
C13A C 0.1598(9) 0.6195(3) 0.7239(3)
C14A C 0.3856(10) 0.5186(4) 0.8085(3)
H5A H 0.5559 0.4892 0.8104
H6A H 0.3576 0.5614 0.8407
C15A C 0.1868(13) 0.4535(5) 0.8249(3)
H7A H 0.0225 0.4821 0.8130
C16A C 0.2515(12) 0.3775(5) 0.7860(3)
H8A H 0.2797 0.3952 0.7399
H9A H 0.4078 0.3457 0.7991
C17A C 0.0483(11) 0.3214(4) 0.7947(4)
H10A H 0.0989 0.2728 0.7690
H11A H 0.0209 0.3032 0.8402
H12A H -0.1055 0.3520 0.7805
C18A C 0.1634(12) 0.4358(5) 0.9008(3)
H13A H 0.0282 0.4014 0.9125
H14A H 0.1132 0.4894 0.9211
C19A C 0.3945(13) 0.3928(5) 0.9293(4)
H15A H 0.4473 0.3392 0.9092
H16A H 0.5300 0.4275 0.9191
C20A C 0.3507(14) 0.3765(6) 1.0053(3)
H17A H 0.2130 0.3427 1.0153
H18A H 0.2996 0.4304 1.0252
C21A C 0.5717(16) 0.3335(6) 1.0344(4)
H19A H 0.5336 0.3265 1.0811
H20A H 0.6191 0.2790 1.0165
H21A H 0.7089 0.3666 1.0249
O4 O 0.7218(6) 0.1450(2) 0.45854(16)
O5 O 0.3483(6) 0.2126(2) 0.49410(17)
O6 O 0.5048(7) -0.0625(2) 0.65621(18)
F2 F -0.3638(6) 0.0836(2) 0.75907(18)
N2 N 0.1282(7) 0.0102(3) 0.6938(2)
C22 C 1.0934(9) 0.0432(3) 0.4412(2)
H22 H 1.1495 0.0728 0.4030
C23 C 0.8715(9) 0.0715(3) 0.4779(2)
C24 C 1.2297(9) -0.0319(3) 0.4642(2)
C25 C 0.5335(9) 0.0858(3) 0.5561(2)
C26 C 0.5129(9) 0.1567(3) 0.5038(2)
C27 C 0.3533(9) 0.0793(3) 0.6083(2)
C28 C 0.3495(9) 0.0011(3) 0.6541(2)
C29 C 0.1251(9) 0.1364(3) 0.6307(2)
C30 C 0.0291(10) 0.2185(4) 0.6135(3)
H23 H 0.1152 0.2495 0.5806
C31 C -0.1980(10) 0.2552(4) 0.6457(3)
H24 H -0.2612 0.3111 0.6347
C32 C -0.3295(10) 0.2093(4) 0.6938(3)
H25 H -0.4833 0.2334 0.7142
C33 C -0.2313(9) 0.1281(4) 0.7112(3)
C34 C -0.0064(9) 0.0906(3) 0.6818(2)
C35 C 0.0576(10) -0.0584(4) 0.7400(3)
H26 H 0.0953 -0.1119 0.7190
H27 H -0.1229 -0.0489 0.7531
C36 C 0.2118(14) -0.0628(5) 0.8042(4)
H28 H 0.3917 -0.0671 0.7882
C37 C 0.1700(13) -0.1543(6) 0.8451(4)
H29 H 0.2121 -0.2008 0.8162
H30 H 0.2770 -0.1645 0.8809
C38 C -0.0887(13) -0.1473(6) 0.8696(5)
H31 H -0.1235 -0.1997 0.8922
H32 H -0.1921 -0.1349 0.8337
H33 H -0.1258 -0.1025 0.8994
C39 C 0.1550(14) 0.0119(5) 0.8388(3)
H34 H -0.0268 0.0208 0.8499
H35 H 0.1962 0.0586 0.8085
C40 C 0.2765(16) 0.0193(6) 0.9001(4)
H36 H 0.4473 -0.0105 0.8946
H37 H 0.1852 -0.0107 0.9356
C41 C 0.295(2) 0.1161(11) 0.9241(8)
H38 H 0.3914 0.1131 0.9618
H39 H 0.3709 0.1507 0.8889
C42 C 0.047(4) 0.1468(12) 0.9400(8)
H40 H 0.0356 0.2034 0.9541
H41 H -0.0239 0.1113 0.9749
H42 H -0.0454 0.1474 0.9023
O4A O 1.2782(6) -0.1450(2) 0.54146(16)
O5A O 1.6517(6) -0.2126(2) 0.50590(17)
O6A O 1.4952(7) 0.0625(2) 0.34379(18)
F2A F 2.3638(6) -0.0836(2) 0.24093(18)
N2A N 1.8718(7) -0.0102(3) 0.3062(2)
C22A C 0.9066(9) -0.0432(3) 0.5588(2)
H22A H 0.8505 -0.0728 0.5970
C23A C 1.1285(9) -0.0715(3) 0.5221(2)
C24A C 0.7703(9) 0.0319(3) 0.5358(2)
C25A C 1.4665(9) -0.0858(3) 0.4439(2)
C26A C 1.4871(9) -0.1567(3) 0.4962(2)
C27A C 1.6467(9) -0.0793(3) 0.3917(2)
C28A C 1.6505(9) -0.0011(3) 0.3459(2)
C29A C 1.8749(9) -0.1364(3) 0.3693(2)
C30A C 1.9709(10) -0.2185(4) 0.3865(3)
H23A H 1.8848 -0.2495 0.4194
C31A C 2.1980(10) -0.2552(4) 0.3543(3)
H24A H 2.2612 -0.3111 0.3653
C32A C 2.3295(10) -0.2093(4) 0.3062(3)
H25A H 2.4833 -0.2334 0.2858
C33A C 2.2313(9) -0.1281(4) 0.2888(3)
C34A C 2.0064(9) -0.0906(3) 0.3182(2)
C35A C 1.9424(10) 0.0584(4) 0.2600(3)
H26A H 1.9047 0.1119 0.2810
H27A H 2.1229 0.0489 0.2469
C36A C 1.7882(14) 0.0628(5) 0.1958(4)
H28A H 1.6083 0.0671 0.2118
C37A C 1.8300(13) 0.1543(6) 0.1549(4)
H29A H 1.7879 0.2008 0.1838
H30A H 1.7230 0.1645 0.1191
C38A C 2.0887(13) 0.1473(6) 0.1304(5)
H31A H 2.1235 0.1997 0.1078
H32A H 2.1921 0.1349 0.1663
H33A H 2.1258 0.1025 0.1006
C39A C 1.8450(14) -0.0119(5) 0.1612(3)
H34A H 2.0268 -0.0208 0.1501
H35A H 1.8038 -0.0586 0.1915
C40A C 1.7235(16) -0.0193(6) 0.0999(4)
H36A H 1.5527 0.0105 0.1054
H37A H 1.8148 0.0107 0.0644
C41A C 1.705(2) -0.1161(11) 0.0759(8)
H38A H 1.6086 -0.1131 0.0382
H39A H 1.6291 -0.1507 0.1111
C42A C 1.953(4) -0.1468(12) 0.0600(8)
H40A H 1.9644 -0.2034 0.0459
H41A H 2.0239 -0.1113 0.0251
H42A H 2.0454 -0.1474 0.0977
C43? C -0.005(3) -0.0420(12) 0.8103(9)
loop_
_geom_bond_atom_site_label_1
_geom_bond_atom_site_label_2
_geom_bond_site_symmetry_1
_geom_bond_site_symmetry_2
O1 C2 1_555 1_555
O2 C5 1_555 1_555
O3 C7 1_555 1_555
F1 C12 1_555 1_555
N1 C7 1_555 1_555
C1 H1 1_555 1_555
C2 C1 1_555 1_555
C3 C1 1_555 1_555
C4 C3 1_555 1_555
C5 O1 1_555 1_555
C6 C4 1_555 1_555
C7 C6 1_555 1_555
C8 C6 1_555 1_555
C9 C8 1_555 1_555
H2 C9 1_555 1_555
C10 C9 1_555 1_555
H3 C10 1_555 1_555
C11 C10 1_555 1_555
H4 C11 1_555 1_555
C12 C11 1_555 1_555
C13 N1 1_555 1_555
C14 N1 1_555 1_555
H5 C14 1_555 1_555
H6 C14 1_555 1_555
C15 C14 1_555 1_555
H7 C15 1_555 1_555
C16 C15 1_555 1_555
H8 C16 1_555 1_555
H9 C16 1_555 1_555
C17 C16 1_555 1_555
H10 C17 1_555 1_555
H11 C17 1_555 1_555
H12 C17 1_555 1_555
C18 C15 1_555 1_555
H13 C18 1_555 1_555
H14 C18 1_555 1_555
C19 C18 1_555 1_555
H15 C19 1_555 1_555
H16 C19 1_555 1_555
C20 C19 1_555 1_555
H17 C20 1_555 1_555
H18 C20 1_555 1_555
C21 C20 1_555 1_555
H19 C21 1_555 1_555
H20 C21 1_555 1_555
H21 C21 1_555 1_555
O4 C23 1_555 1_555
O5 C26 1_555 1_555
O6 C28 1_555 1_555
F2 C33 1_555 1_555
N2 C28 1_555 1_555
C22 H22 1_555 1_555
C23 C22 1_555 1_555
C24 C22 1_555 1_555
C25 C26 1_555 1_555
C26 O4 1_555 1_555
C27 C25 1_555 1_555
C28 C27 1_555 1_555
C29 C27 1_555 1_555
C30 C29 1_555 1_555
H23 C30 1_555 1_555
C31 C30 1_555 1_555
H24 C31 1_555 1_555
C32 C31 1_555 1_555
H25 C32 1_555 1_555
C33 C32 1_555 1_555
C34 N2 1_555 1_555
C35 N2 1_555 1_555
H26 C35 1_555 1_555
H27 C35 1_555 1_555
C36 C35 1_555 1_555
H28 C36 1_555 1_555
C37 C36 1_555 1_555
H29 C37 1_555 1_555
H30 C37 1_555 1_555
C38 C37 1_555 1_555
H31 C38 1_555 1_555
H32 C38 1_555 1_555
H33 C38 1_555 1_555
C39 C36 1_555 1_555
H34 C39 1_555 1_555
H35 C39 1_555 1_555
C40 C39 1_555 1_555
H36 C40 1_555 1_555
H37 C40 1_555 1_555
C41 C40 1_555 1_555
H38 C41 1_555 1_555
H39 C41 1_555 1_555
C42 C41 1_555 1_555
H40 C42 1_555 1_555
H41 C42 1_555 1_555
H42 C42 1_555 1_555
O1A C2A 1_555 1_555
O2A C5A 1_555 1_555
O3A C7A 1_555 1_555
F1A C12A 1_555 1_555
N1A C7A 1_555 1_555
C1A H1A 1_555 1_555
C2A C3 1_555 1_555
C3A C2 1_555 1_555
C4A C5 1_555 1_555
C5A C4 1_555 1_555
C6A C4A 1_555 1_555
C7A C6A 1_555 1_555
C8A C6A 1_555 1_555
C9A C8A 1_555 1_555
H2A C9A 1_555 1_555
C10A C9A 1_555 1_555
H3A C10A 1_555 1_555
C11A C10A 1_555 1_555
H4A C11A 1_555 1_555
C12A C11A 1_555 1_555
C13A N1A 1_555 1_555
C14A N1A 1_555 1_555
H5A C14A 1_555 1_555
H6A C14A 1_555 1_555
C15A C14A 1_555 1_555
H7A C15A 1_555 1_555
C16A C15A 1_555 1_555
H8A C16A 1_555 1_555
H9A C16A 1_555 1_555
C17A C16A 1_555 1_555
H10A C17A 1_555 1_555
H11A C17A 1_555 1_555
H12A C17A 1_555 1_555
C18A C15A 1_555 1_555
H13A C18A 1_555 1_555
H14A C18A 1_555 1_555
C19A C18A 1_555 1_555
H15A C19A 1_555 1_555
H16A C19A 1_555 1_555
C20A C19A 1_555 1_555
H17A C20A 1_555 1_555
H18A C20A 1_555 1_555
C21A C20A 1_555 1_555
H19A C21A 1_555 1_555
H20A C21A 1_555 1_555
H21A C21A 1_555 1_555
O4A C23A 1_555 1_555
O5A C26A 1_555 1_555
O6A C28A 1_555 1_555
F2A C33A 1_555 1_555
N2A C28A 1_555 1_555
C22A H22A 1_555 1_555
C23A C24 1_555 1_555
C24A C23 1_555 1_555
C25A C24 1_555 1_555
C26A O4A 1_555 1_555
C27A C25A 1_555 1_555
C28A C27A 1_555 1_555
C29A C27A 1_555 1_555
C30A C29A 1_555 1_555
H23A C30A 1_555 1_555
C31A C30A 1_555 1_555
H24A C31A 1_555 1_555
C32A C31A 1_555 1_555
H25A C32A 1_555 1_555
C33A C32A 1_555 1_555
C34A N2A 1_555 1_555
C35A N2A 1_555 1_555
H26A C35A 1_555 1_555
H27A C35A 1_555 1_555
C36A C35A 1_555 1_555
H28A C36A 1_555 1_555
C37A C36A 1_555 1_555
H29A C37A 1_555 1_555
H30A C37A 1_555 1_555
C38A C37A 1_555 1_555
H31A C38A 1_555 1_555
H32A C38A 1_555 1_555
H33A C38A 1_555 1_555
C39A C36A 1_555 1_555
H34A C39A 1_555 1_555
H35A C39A 1_555 1_555
C40A C39A 1_555 1_555
H36A C40A 1_555 1_555
H37A C40A 1_555 1_555
C41A C40A 1_555 1_555
H38A C41A 1_555 1_555
H39A C41A 1_555 1_555
C42A C41A 1_555 1_555
H40A C42A 1_555 1_555
H41A C42A 1_555 1_555
H42A C42A 1_555 1_555
C8 C13 1_555 1_555
C12 C13 1_555 1_555
C25 C24A 1_555 1_555
C29 C34 1_555 1_555
C33 C34 1_555 1_555
O1A C5A 1_555 1_555
C1A C2A 1_555 1_555
C1A C3A 1_555 1_555
C3A C4A 1_555 1_555
C8A C13A 1_555 1_555
C12A C13A 1_555 1_555
C22A C23A 1_555 1_555
C22A C24A 1_555 1_555
C25A C26A 1_555 1_555
C29A C34A 1_555 1_555
C33A C34A 1_555 1_555

#END
