
#######################################################################
#
#                 Cambridge Crystallographic Data Centre
#                                CCDC 
#
#######################################################################
#
# If this CIF has been generated from an entry in the Cambridge 
# Structural Database, then it will include bibliographic, chemical, 
# crystal, experimental, refinement or atomic coordinate data resulting 
# from the CCDC's data processing and validation procedures.
#
#######################################################################

data_ZACJIZ
_chemical_formula_moiety         'C25 H20 Br1 N3 O2'
_chemical_name_systematic        
(R)-3-((5-(Biphenyl-4-yl)-1,3,4-oxadiazol-2-yl)methyl)-5-bromo-1,3-dimethyl-1,3-dihydro-2H-indol-2-one
_symmetry_cell_setting           monoclinic
_symmetry_space_group_name_H-M   'P 21'
_symmetry_Int_Tables_number      4
_space_group_name_Hall           'P 2yb'
loop_
_symmetry_equiv_pos_site_id
_symmetry_equiv_pos_as_xyz
1 x,y,z
2 -x,1/2+y,-z
_cell_length_a                   10.862(2)
_cell_length_b                   8.9413(18)
_cell_length_c                   44.757(9)
_cell_angle_alpha                90
_cell_angle_beta                 96.87(3)
_cell_angle_gamma                90
_cell_volume                     4315.61
_exptl_crystal_colour            colorless
_exptl_crystal_description       prism
_cell_formula_units_Z            8
loop_
_atom_site_label
_atom_site_type_symbol
_atom_site_fract_x
_atom_site_fract_y
_atom_site_fract_z
Br1 Br 0.52436(15) 0.06873(16) 0.13914(3)
O1 O 0.0560(8) -0.3514(12) 0.0267(2)
O2 O 0.1946(6) -0.5401(8) 0.12656(15)
N1 N 0.0992(9) -0.1205(11) 0.0472(2)
N2 N 0.0795(8) -0.3524(11) 0.1066(2)
N3 N 0.0334(9) -0.3952(12) 0.1348(2)
C1 C 0.2527(9) -0.3096(11) 0.0605(2)
C2 C 0.2794(9) -0.1685(11) 0.0775(2)
C3 C 0.3818(9) -0.1322(12) 0.0997(2)
H1 H 0.4449 -0.2018 0.1066
C4 C 0.3801(10) 0.0191(12) 0.1104(2)
C5 C 0.3009(10) 0.1199(15) 0.1013(2)
H2 H 0.3123 0.2188 0.1089
C6 C 0.1907(11) 0.0854(14) 0.0791(3)
H3 H 0.1266 0.1551 0.0730
C7 C 0.1927(10) -0.0585(12) 0.0685(2)
C8 C 0.1254(10) -0.2697(13) 0.0432(2)
C9 C -0.0084(13) -0.0427(17) 0.0319(3)
H4 H -0.0645 -0.1154 0.0210
H5 H 0.0189 0.0297 0.0176
H6 H -0.0518 0.0098 0.0467
C10 C 0.3452(10) -0.3313(13) 0.0372(2)
H7 H 0.4285 -0.3486 0.0476
H8 H 0.3458 -0.2414 0.0246
H9 H 0.3199 -0.4176 0.0244
C11 C 0.2447(12) -0.4485(14) 0.0793(3)
H10 H 0.2161 -0.5319 0.0657
H11 H 0.3293 -0.4737 0.0887
C12 C 0.1641(10) -0.4409(13) 0.1029(2)
C13 C 0.0985(10) -0.5076(13) 0.1438(2)
C14 C 0.1082(11) -0.5974(14) 0.1723(3)
C15 C 0.1825(11) -0.7147(14) 0.1782(3)
H12 H 0.2368 -0.7446 0.1642
C16 C 0.1805(12) -0.7911(14) 0.2041(3)
H13 H 0.2284 -0.8801 0.2067
C17 C 0.1123(9) -0.7483(12) 0.2279(2)
C18 C 0.0277(9) -0.6266(11) 0.2200(2)
H14 H -0.0300 -0.6002 0.2335
C19 C 0.0273(9) -0.5456(12) 0.1931(2)
H15 H -0.0241 -0.4604 0.1889
C20 C 0.1173(10) -0.8268(12) 0.2572(2)
C21 C 0.2170(10) -0.9175(13) 0.2659(3)
H16 H 0.2794 -0.9308 0.2530
C22 C 0.2276(13) -0.9921(16) 0.2944(3)
H17 H 0.2953 -1.0580 0.2997
C23 C 0.1454(9) -0.9713(11) 0.3134(2)
H18 H 0.1569 -1.0120 0.3331
C24 C 0.0314(12) -0.8792(16) 0.3023(3)
H19 H -0.0351 -0.8701 0.3141
C25 C 0.0262(14) -0.8104(18) 0.2752(3)
H20 H -0.0431 -0.7490 0.2686
Br2 Br 0.67447(12) -0.25055(14) -0.00432(3)
O3 O 0.0338(8) -0.2128(10) -0.09814(19)
O4 O 0.2755(6) -0.0599(8) -0.12379(15)
N4 N 0.1945(9) -0.3739(13) -0.0846(2)
N5 N 0.4019(10) 0.0951(13) -0.0991(2)
N6 N 0.4439(11) 0.0625(14) -0.1263(3)
C26 C 0.2075(10) -0.1371(12) -0.0602(2)
C27 C 0.3249(10) -0.2215(12) -0.0523(2)
C28 C 0.4344(9) -0.1837(12) -0.0340(2)
H21 H 0.4460 -0.0878 -0.0249
C29 C 0.5243(10) -0.2936(13) -0.0297(2)
C30 C 0.5111(13) -0.4362(17) -0.0430(3)
H22 H 0.5755 -0.5084 -0.0398
C31 C 0.3984(11) -0.4693(14) -0.0616(3)
H23 H 0.3867 -0.5645 -0.0710
C32 C 0.3092(9) -0.3653(13) -0.0659(2)
C33 C 0.1272(11) -0.2425(14) -0.0833(3)
C34 C 0.1440(14) -0.4920(17) -0.1051(3)
H24 H 0.0684 -0.4560 -0.1171
H25 H 0.1245 -0.5797 -0.0934
H26 H 0.2054 -0.5193 -0.1185
C35 C 0.1338(10) -0.1208(13) -0.0333(2)
H27 H 0.1591 -0.0289 -0.0223
H28 H 0.1501 -0.2071 -0.0199
H29 H 0.0450 -0.1160 -0.0404
C36 C 0.2171(11) 0.0213(14) -0.0738(3)
H30 H 0.1336 0.0547 -0.0825
H31 H 0.2477 0.0921 -0.0575
C37 C 0.3025(10) 0.0250(12) -0.0977(2)
C38 C 0.3728(9) -0.0296(12) -0.1393(2)
C39 C 0.3708(9) -0.1056(11) -0.1687(2)
C40 C 0.4664(11) -0.0811(13) -0.1862(2)
H32 H 0.5302 -0.0131 -0.1789
C41 C 0.4740(10) -0.1493(13) -0.2133(2)
H33 H 0.5448 -0.1351 -0.2236
C42 C 0.3710(10) -0.2449(13) -0.2265(2)
C43 C 0.2702(10) -0.2601(12) -0.2082(2)
H34 H 0.1988 -0.3160 -0.2158
C44 C 0.2754(9) -0.1948(12) -0.1800(2)
H35 H 0.2100 -0.2133 -0.1681
C45 C 0.3732(11) -0.3228(13) -0.2552(2)
C46 C 0.4360(10) -0.2676(13) -0.2763(2)
H36 H 0.4818 -0.1778 -0.2725
C47 C 0.4366(10) -0.3372(13) -0.3038(3)
H37 H 0.4907 -0.3028 -0.3175
C48 C 0.3521(9) -0.4669(11) -0.3121(2)
H38 H 0.3425 -0.5102 -0.3316
C49 C 0.2888(10) -0.5191(12) -0.2888(2)
H39 H 0.2374 -0.6049 -0.2922
C50 C 0.2984(9) -0.4483(11) -0.2603(2)
H40 H 0.2543 -0.4864 -0.2448
Br3 Br -0.11888(12) -2.18087(14) -0.64024(2)
O5 O -0.4689(7) -1.7697(9) -0.52662(16)
O6 O -0.4458(6) -1.5713(7) -0.62498(14)
N7 N -0.4457(7) -2.0007(9) -0.54770(17)
N8 N -0.5375(7) -1.7599(10) -0.60514(18)
N9 N -0.6078(7) -1.7154(8) -0.63231(16)
C51 C -0.3131(8) -1.8124(10) -0.56029(19)
C52 C -0.3011(8) -1.9532(10) -0.57860(18)
C53 C -0.2271(8) -1.9859(10) -0.60068(18)
H41 H -0.1770 -1.9109 -0.6082
C54 C -0.2275(11) -2.1285(14) -0.6114(3)
C55 C -0.3072(9) -2.2390(13) -0.6018(2)
H42 H -0.3101 -2.3356 -0.6107
C56 C -0.3770(9) -2.2087(12) -0.5807(2)
H43 H -0.4267 -2.2846 -0.5733
C57 C -0.3777(9) -2.0612(11) -0.5689(2)
C58 C -0.4216(8) -1.8498(11) -0.5433(2)
C59 C -0.5368(11) -2.0862(15) -0.5327(3)
H44 H -0.4990 -2.1798 -0.5247
H45 H -0.6092 -2.1088 -0.5472
H46 H -0.5627 -2.0268 -0.5161
C60 C -0.1983(9) -1.7927(11) -0.5370(2)
H47 H -0.1889 -1.8807 -0.5238
H48 H -0.2085 -1.7033 -0.5248
H49 H -0.1244 -1.7816 -0.5474
C61 C -0.3319(8) -1.6632(9) -0.57817(18)
H50 H -0.3464 -1.5814 -0.5641
H51 H -0.2551 -1.6395 -0.5871
C62 C -0.4385(8) -1.6700(10) -0.60263(18)
C63 C -0.5517(8) -1.6039(10) -0.64339(19)
C64 C -0.5807(8) -1.5227(9) -0.67096(17)
C65 C -0.5158(9) -1.3891(12) -0.6752(2)
H52 H -0.4622 -1.3467 -0.6590
C66 C -0.5316(11) -1.3194(13) -0.7036(2)
H53 H -0.4810 -1.2368 -0.7076
C67 C -0.6185(8) -1.3702(12) -0.7251(2)
C68 C -0.6915(10) -1.4936(12) -0.7202(2)
H54 H -0.7530 -1.5275 -0.7356
C69 C -0.6741(9) -1.5661(12) -0.6931(2)
H55 H -0.7268 -1.6471 -0.6894
C70 C -0.6333(9) -1.2937(11) -0.7552(2)
C71 C -0.5423(9) -1.2116(12) -0.7660(2)
H56 H -0.4648 -1.2020 -0.7538
C72 C -0.5574(9) -1.1419(11) -0.7937(2)
H57 H -0.4911 -1.0907 -0.8012
C73 C -0.6776(9) -1.1505(13) -0.8104(2)
H58 H -0.6932 -1.0922 -0.8281
C74 C -0.7654(8) -1.2318(11) -0.8029(2)
H59 H -0.8399 -1.2449 -0.8161
C75 C -0.7484(9) -1.3015(10) -0.7744(2)
H60 H -0.8155 -1.3553 -0.7678
Br4 Br 0.18266(10) -1.87286(13) -0.49586(2)
O7 O -0.3698(7) -1.9042(9) -0.40351(16)
O8 O -0.0967(6) -2.0553(8) -0.37703(15)
N10 N -0.2125(8) -1.7491(11) -0.41580(18)
N11 N 0.0127(9) -2.2169(12) -0.4009(2)
N12 N 0.0826(8) -2.1854(11) -0.3729(2)
C76 C -0.2292(8) -1.9841(10) -0.43970(19)
C77 C -0.1181(8) -1.8998(10) -0.44782(19)
C78 C -0.0321(8) -1.9344(12) -0.4670(2)
H61 H -0.0343 -2.0283 -0.4770
C79 C 0.0583(10) -1.8285(13) -0.4714(2)
C80 C 0.0588(9) -1.6869(12) -0.4579(2)
H62 H 0.1205 -1.6161 -0.4616
C81 C -0.0295(10) -1.6492(13) -0.4393(2)
H63 H -0.0307 -1.5526 -0.4305
C82 C -0.1154(9) -1.7561(12) -0.4340(2)
C83 C -0.2790(8) -1.8779(11) -0.41685(19)
C84 C -0.2317(11) -1.6176(14) -0.3979(3)
H64 H -0.3015 -1.6351 -0.3863
H65 H -0.2499 -1.5314 -0.4112
H66 H -0.1566 -1.5976 -0.3840
C85 C -0.3285(9) -1.9983(12) -0.4673(2)
H67 H -0.3244 -1.9108 -0.4804
H68 H -0.4109 -2.0041 -0.4606
H69 H -0.3131 -2.0891 -0.4786
C86 C -0.1957(8) -2.1395(10) -0.42534(19)
H70 H -0.2702 -2.1791 -0.4173
H71 H -0.1767 -2.2081 -0.4416
C87 C -0.0922(9) -2.1451(11) -0.4013(2)
C88 C 0.0153(9) -2.0871(12) -0.3594(2)
C89 C 0.0505(8) -2.0190(11) -0.3301(2)
C90 C 0.1637(10) -2.0337(13) -0.3137(2)
H72 H 0.2264 -2.0940 -0.3207
C91 C 0.1847(10) -1.9588(13) -0.2868(2)
H73 H 0.2634 -1.9701 -0.2753
C92 C 0.1002(8) -1.8699(11) -0.27570(19)
C93 C -0.0163(9) -1.8499(11) -0.2917(2)
H74 H -0.0748 -1.7853 -0.2842
C94 C -0.0478(9) -1.9262(11) -0.3194(2)
H75 H -0.1279 -1.9181 -0.3304
C95 C 0.1237(8) -1.7937(10) -0.24566(19)
C96 C 0.2330(9) -1.8264(11) -0.2250(2)
H76 H 0.2917 -1.8972 -0.2304
C97 C 0.2533(9) -1.7541(12) -0.1967(2)
H77 H 0.3210 -1.7821 -0.1824
C98 C 0.1783(9) -1.6495(12) -0.1908(2)
H78 H 0.1977 -1.5963 -0.1725
C99 C 0.0693(11) -1.6075(14) -0.2094(3)
H79 H 0.0140 -1.5337 -0.2036
C100 C 0.0489(11) -1.6806(14) -0.2366(3)
H80 H -0.0213 -1.6518 -0.2501
loop_
_geom_bond_atom_site_label_1
_geom_bond_atom_site_label_2
_geom_bond_site_symmetry_1
_geom_bond_site_symmetry_2
Br1 C4 1_555 1_555
O1 C8 1_555 1_555
O2 C12 1_555 1_555
N1 C7 1_555 1_555
N2 N3 1_555 1_555
N3 C13 1_555 1_555
C1 C2 1_555 1_555
C2 C3 1_555 1_555
C3 H1 1_555 1_555
C4 C3 1_555 1_555
C5 C4 1_555 1_555
H2 C5 1_555 1_555
C6 C5 1_555 1_555
H3 C6 1_555 1_555
C7 C2 1_555 1_555
C8 N1 1_555 1_555
C9 N1 1_555 1_555
H4 C9 1_555 1_555
H5 C9 1_555 1_555
H6 C9 1_555 1_555
C10 C1 1_555 1_555
H7 C10 1_555 1_555
H8 C10 1_555 1_555
H9 C10 1_555 1_555
C11 C1 1_555 1_555
H10 C11 1_555 1_555
H11 C11 1_555 1_555
C12 N2 1_555 1_555
C13 O2 1_555 1_555
C14 C13 1_555 1_555
C15 C14 1_555 1_555
H12 C15 1_555 1_555
C16 C15 1_555 1_555
H13 C16 1_555 1_555
C17 C16 1_555 1_555
C18 C17 1_555 1_555
H14 C18 1_555 1_555
C19 C14 1_555 1_555
H15 C19 1_555 1_555
C20 C17 1_555 1_555
C21 C20 1_555 1_555
H16 C21 1_555 1_555
C22 C21 1_555 1_555
H17 C22 1_555 1_555
C23 C22 1_555 1_555
H18 C23 1_555 1_555
C24 C23 1_555 1_555
H19 C24 1_555 1_555
C25 C20 1_555 1_555
H20 C25 1_555 1_555
Br2 C29 1_555 1_555
O3 C33 1_555 1_555
O4 C37 1_555 1_555
N4 C32 1_555 1_555
N5 N6 1_555 1_555
N6 C38 1_555 1_555
C26 C27 1_555 1_555
C27 C28 1_555 1_555
C28 H21 1_555 1_555
C29 C28 1_555 1_555
C30 C29 1_555 1_555
H22 C30 1_555 1_555
C31 C30 1_555 1_555
H23 C31 1_555 1_555
C32 C27 1_555 1_555
C33 N4 1_555 1_555
C34 N4 1_555 1_555
H24 C34 1_555 1_555
H25 C34 1_555 1_555
H26 C34 1_555 1_555
C35 C26 1_555 1_555
H27 C35 1_555 1_555
H28 C35 1_555 1_555
H29 C35 1_555 1_555
C36 C26 1_555 1_555
H30 C36 1_555 1_555
H31 C36 1_555 1_555
C37 N5 1_555 1_555
C38 O4 1_555 1_555
C39 C38 1_555 1_555
C40 C39 1_555 1_555
H32 C40 1_555 1_555
C41 C40 1_555 1_555
H33 C41 1_555 1_555
C42 C41 1_555 1_555
C43 C42 1_555 1_555
H34 C43 1_555 1_555
C44 C39 1_555 1_555
H35 C44 1_555 1_555
C45 C42 1_555 1_555
C46 C45 1_555 1_555
H36 C46 1_555 1_555
C47 C46 1_555 1_555
H37 C47 1_555 1_555
C48 C47 1_555 1_555
H38 C48 1_555 1_555
C49 C48 1_555 1_555
H39 C49 1_555 1_555
C50 C45 1_555 1_555
H40 C50 1_555 1_555
Br3 C54 1_555 1_555
O5 C58 1_555 1_555
O6 C62 1_555 1_555
N7 C57 1_555 1_555
N8 N9 1_555 1_555
N9 C63 1_555 1_555
C51 C52 1_555 1_555
C52 C53 1_555 1_555
C53 H41 1_555 1_555
C54 C53 1_555 1_555
C55 C54 1_555 1_555
H42 C55 1_555 1_555
C56 C55 1_555 1_555
H43 C56 1_555 1_555
C57 C52 1_555 1_555
C58 N7 1_555 1_555
C59 N7 1_555 1_555
H44 C59 1_555 1_555
H45 C59 1_555 1_555
H46 C59 1_555 1_555
C60 C51 1_555 1_555
H47 C60 1_555 1_555
H48 C60 1_555 1_555
H49 C60 1_555 1_555
C61 C51 1_555 1_555
H50 C61 1_555 1_555
H51 C61 1_555 1_555
C62 N8 1_555 1_555
C63 O6 1_555 1_555
C64 C63 1_555 1_555
C65 C64 1_555 1_555
H52 C65 1_555 1_555
C66 C65 1_555 1_555
H53 C66 1_555 1_555
C67 C66 1_555 1_555
C68 C67 1_555 1_555
H54 C68 1_555 1_555
C69 C64 1_555 1_555
H55 C69 1_555 1_555
C70 C67 1_555 1_555
C71 C70 1_555 1_555
H56 C71 1_555 1_555
C72 C71 1_555 1_555
H57 C72 1_555 1_555
C73 C72 1_555 1_555
H58 C73 1_555 1_555
C74 C73 1_555 1_555
H59 C74 1_555 1_555
C75 C70 1_555 1_555
H60 C75 1_555 1_555
Br4 C79 1_555 1_555
O7 C83 1_555 1_555
O8 C87 1_555 1_555
N10 C82 1_555 1_555
N11 N12 1_555 1_555
N12 C88 1_555 1_555
C76 C77 1_555 1_555
C77 C78 1_555 1_555
C78 H61 1_555 1_555
C79 C78 1_555 1_555
C80 C79 1_555 1_555
H62 C80 1_555 1_555
C81 C80 1_555 1_555
H63 C81 1_555 1_555
C82 C77 1_555 1_555
C83 N10 1_555 1_555
C84 N10 1_555 1_555
H64 C84 1_555 1_555
H65 C84 1_555 1_555
H66 C84 1_555 1_555
C85 C76 1_555 1_555
H67 C85 1_555 1_555
H68 C85 1_555 1_555
H69 C85 1_555 1_555
C86 C76 1_555 1_555
H70 C86 1_555 1_555
H71 C86 1_555 1_555
C87 N11 1_555 1_555
C88 O8 1_555 1_555
C89 C88 1_555 1_555
C90 C89 1_555 1_555
H72 C90 1_555 1_555
C91 C90 1_555 1_555
H73 C91 1_555 1_555
C92 C91 1_555 1_555
C93 C92 1_555 1_555
H74 C93 1_555 1_555
C94 C89 1_555 1_555
H75 C94 1_555 1_555
C95 C92 1_555 1_555
C96 C95 1_555 1_555
H76 C96 1_555 1_555
C97 C96 1_555 1_555
H77 C97 1_555 1_555
C98 C97 1_555 1_555
H78 C98 1_555 1_555
C99 C98 1_555 1_555
H79 C99 1_555 1_555
C100 C95 1_555 1_555
H80 C100 1_555 1_555
C1 C8 1_555 1_555
C6 C7 1_555 1_555
C11 C12 1_555 1_555
C18 C19 1_555 1_555
C24 C25 1_555 1_555
C26 C33 1_555 1_555
C31 C32 1_555 1_555
C36 C37 1_555 1_555
C43 C44 1_555 1_555
C49 C50 1_555 1_555
C51 C58 1_555 1_555
C56 C57 1_555 1_555
C61 C62 1_555 1_555
C68 C69 1_555 1_555
C74 C75 1_555 1_555
C76 C83 1_555 1_555
C81 C82 1_555 1_555
C86 C87 1_555 1_555
C93 C94 1_555 1_555
C99 C100 1_555 1_555

#END
