
#######################################################################
#
#                 Cambridge Crystallographic Data Centre
#                                CCDC 
#
#######################################################################
#
# If this CIF has been generated from an entry in the Cambridge 
# Structural Database, then it will include bibliographic, chemical, 
# crystal, experimental, refinement or atomic coordinate data resulting 
# from the CCDC's data processing and validation procedures.
#
#######################################################################

data_ZACLEX
_chemical_formula_moiety         'C8 H10 N6 O9'
_chemical_name_systematic        
'Diethyl 1,2,5-oxadiazole-3,4-diylbis(nitrocarbamate)'
_symmetry_cell_setting           triclinic
_symmetry_space_group_name_H-M   'P -1'
_symmetry_Int_Tables_number      2
_space_group_name_Hall           '-P 1'
loop_
_symmetry_equiv_pos_site_id
_symmetry_equiv_pos_as_xyz
1 x,y,z
2 -x,-y,-z
_cell_length_a                   7.9009(16)
_cell_length_b                   9.3741(19)
_cell_length_c                   11.064(2)
_cell_angle_alpha                109.257(7)
_cell_angle_beta                 107.931(8)
_cell_angle_gamma                95.355(8)
_cell_volume                     718.488
_exptl_crystal_colour            colorless
_exptl_crystal_description       plate
_cell_formula_units_Z            2
loop_
_atom_site_label
_atom_site_type_symbol
_atom_site_fract_x
_atom_site_fract_y
_atom_site_fract_z
C1 C -0.219(2) -0.4154(17) 0.0835(12)
H1 H -0.3144 -0.3721 0.0407
H2 H -0.2702 -0.4953 0.1065
H3 H -0.1582 -0.4584 0.0214
C2 C -0.0966(12) -0.3020(12) 0.2002(9)
H4 H -0.0248 -0.3513 0.2562
H5 H -0.1642 -0.2437 0.2514
O1 O 0.0275(5) -0.1936(6) 0.1825(4)
C3 C 0.0211(7) -0.0479(9) 0.2358(5)
O2 O -0.0772(6) 0.0053(7) 0.2920(5)
N1 N 0.1573(6) 0.0382(5) 0.2148(4)
N2 N 0.1727(8) 0.2001(7) 0.2430(5)
O3 O 0.0991(8) 0.2672(7) 0.3162(5)
O4 O 0.2511(8) 0.2488(6) 0.1819(7)
C4 C 0.2523(6) -0.0360(5) 0.1307(4)
N3 N 0.1912(5) -0.0709(5) 0.0001(4)
O5 O 0.3194(5) -0.1411(4) -0.0428(3)
N4 N 0.4596(5) -0.1465(5) 0.0654(4)
C5 C 0.4176(5) -0.0831(4) 0.1722(4)
N5 N 0.5277(4) -0.0703(4) 0.3033(3)
N6 N 0.5186(6) -0.2088(5) 0.3297(5)
O6 O 0.4093(7) -0.3182(5) 0.2374(5)
O7 O 0.6160(6) -0.2039(5) 0.4383(4)
C6 C 0.6354(6) 0.0719(5) 0.4056(5)
O8 O 0.7233(5) 0.0917(4) 0.5205(3)
O9 O 0.6149(4) 0.1758(4) 0.3499(3)
C7 C 0.7228(10) 0.3340(6) 0.4394(6)
H6 H 0.6771 0.3775 0.5125
H7 H 0.8492 0.3308 0.4806
C8 C 0.7105(11) 0.4264(7) 0.3622(7)
H8 H 0.7533 0.3816 0.2887
H9 H 0.7839 0.5282 0.4198
H10 H 0.5859 0.4329 0.3248
C9? C -0.087(4) -0.4485(15) 0.132(3)
H11? H -0.0920 -0.4603 0.0416
H12? H -0.1882 -0.5197 0.1259
H13? H 0.0248 -0.4694 0.1808
H14? H -0.0647 -0.2825 0.2971
H15? H -0.2200 -0.2883 0.1652
loop_
_geom_bond_atom_site_label_1
_geom_bond_atom_site_label_2
_geom_bond_site_symmetry_1
_geom_bond_site_symmetry_2
C1 H1 1_555 1_555
H2 C1 1_555 1_555
H3 C1 1_555 1_555
C2 C1 1_555 1_555
H4 C2 1_555 1_555
H5 C2 1_555 1_555
O1 C2 1_555 1_555
C3 O1 1_555 1_555
O2 C3 1_555 1_555
N1 C3 1_555 1_555
N2 N1 1_555 1_555
O3 N2 1_555 1_555
O4 N2 1_555 1_555
C4 N1 1_555 1_555
N3 C4 1_555 1_555
O5 N3 1_555 1_555
N4 O5 1_555 1_555
C5 C4 1_555 1_555
N5 C5 1_555 1_555
N6 N5 1_555 1_555
O6 N6 1_555 1_555
O7 N6 1_555 1_555
C6 N5 1_555 1_555
O8 C6 1_555 1_555
O9 C6 1_555 1_555
C7 O9 1_555 1_555
H6 C7 1_555 1_555
H7 C7 1_555 1_555
C8 C7 1_555 1_555
H8 C8 1_555 1_555
H9 C8 1_555 1_555
H10 C8 1_555 1_555
N4 C5 1_555 1_555

#END
