
#######################################################################
#
#                 Cambridge Crystallographic Data Centre
#                                CCDC 
#
#######################################################################
#
# If this CIF has been generated from an entry in the Cambridge 
# Structural Database, then it will include bibliographic, chemical, 
# crystal, experimental, refinement or atomic coordinate data resulting 
# from the CCDC's data processing and validation procedures.
#
#######################################################################

data_ZACTUV
_chemical_formula_moiety         'C38 H49 Na1 O6'
_chemical_name_systematic        
(2-(9-anthryl)-4,6-di-t-butylphenolato)-(15-crown-5)-sodium
_symmetry_cell_setting           triclinic
_symmetry_space_group_name_H-M   'P -1'
_symmetry_Int_Tables_number      2
_space_group_name_Hall           '-P 1'
loop_
_symmetry_equiv_pos_site_id
_symmetry_equiv_pos_as_xyz
1 x,y,z
2 -x,-y,-z
_cell_length_a                   11.0496(10)
_cell_length_b                   12.0612(12)
_cell_length_c                   14.4233(13)
_cell_angle_alpha                108.317(9)
_cell_angle_beta                 96.963(7)
_cell_angle_gamma                101.806(8)
_cell_volume                     1750.25
_exptl_crystal_colour            'light red'
_exptl_crystal_description       block
_cell_formula_units_Z            2
_chemical_properties_physical    
'Air-sensitive, Moisture-sensitive, Oxygen-sensitive'
_exptl_crystal_recrystallization_method 'glycol dimethyl ether'
loop_
_atom_site_label
_atom_site_type_symbol
_atom_site_fract_x
_atom_site_fract_y
_atom_site_fract_z
Na1 Na 0.37964(8) 0.68387(9) 0.27518(7)
O1 O 0.22305(14) 0.53432(14) 0.25571(12)
O2 O 0.53365(18) 0.6165(2) 0.35762(17)
O3 O 0.5304(2) 0.6159(2) 0.16757(18)
O4 O 0.4755(2) 0.8358(2) 0.2013(2)
O5 O 0.3171(2) 0.8711(2) 0.3286(2)
O6 O 0.42321(19) 0.7862(2) 0.46424(17)
C1 C 0.11874(19) 0.45287(19) 0.23593(15)
C2 C 0.1100(2) 0.32476(19) 0.20137(15)
C3 C -0.0049(2) 0.24312(19) 0.18690(15)
H1 H -0.0074 0.1613 0.1661
C4 C -0.1178(2) 0.27611(19) 0.20169(16)
C5 C -0.1101(2) 0.39868(19) 0.23183(16)
H2 H -0.1831 0.4241 0.2417
C6 C 0.0025(2) 0.48545(19) 0.24793(15)
C7 C 0.2291(2) 0.2811(2) 0.18158(17)
C8 C 0.2023(2) 0.1431(2) 0.1411(2)
H3 H 0.1715 0.1112 0.1894
H4 H 0.2787 0.1205 0.1281
H5 H 0.1401 0.1112 0.0804
C9 C 0.3273(2) 0.3272(2) 0.27887(19)
H6 H 0.3474 0.4139 0.3057
H7 H 0.4023 0.3018 0.2658
H8 H 0.2937 0.2949 0.3260
C10 C 0.2836(2) 0.3273(2) 0.10348(18)
H9 H 0.2225 0.2955 0.0421
H10 H 0.3588 0.3013 0.0923
H11 H 0.3035 0.4140 0.1272
C11 C -0.2409(2) 0.1800(2) 0.18565(18)
C12 C -0.2743(4) 0.0934(4) 0.0787(3)
H12 H -0.3504 0.0326 0.0694
H13 H -0.2069 0.0557 0.0643
H14 H -0.2868 0.1371 0.0345
C13 C -0.2237(3) 0.1066(3) 0.2530(3)
H15 H -0.1970 0.1599 0.3211
H16 H -0.1610 0.0637 0.2347
H17 H -0.3023 0.0498 0.2454
C14 C -0.3489(3) 0.2350(3) 0.2098(5)
H18 H -0.3649 0.2785 0.1661
H19 H -0.3277 0.2896 0.2776
H20 H -0.4230 0.1722 0.2011
C15 C -0.00186(18) 0.61466(19) 0.27864(16)
C16 C 0.01288(19) 0.67869(19) 0.21172(16)
C17 C 0.0461(2) 0.6284(2) 0.11731(17)
H21 H 0.0603 0.5518 0.0994
C18 C 0.0574(2) 0.6906(2) 0.05323(18)
H22 H 0.0790 0.6559 -0.0077
C19 C 0.0365(2) 0.8077(2) 0.07883(18)
H23 H 0.0449 0.8496 0.0348
C20 C 0.0043(2) 0.8588(2) 0.16696(18)
H24 H -0.0099 0.9353 0.1825
C21 C -0.0083(2) 0.79704(19) 0.23677(16)
C22 C -0.0413(2) 0.84937(19) 0.32769(17)
H25 H -0.0578 0.9249 0.3426
C23 C -0.05000(19) 0.79071(19) 0.39675(16)
C24 C -0.0795(2) 0.8457(2) 0.49157(17)
H26 H -0.0953 0.9216 0.5071
C25 C -0.0849(2) 0.7889(2) 0.55958(18)
H27 H -0.1032 0.8266 0.6212
C26 C -0.0627(2) 0.6726(2) 0.53687(18)
H28 H -0.0655 0.6347 0.5839
C27 C -0.0372(2) 0.6160(2) 0.44622(17)
H29 H -0.0245 0.5391 0.4321
C28 C -0.02946(19) 0.67174(19) 0.37223(16)
C29 C 0.4376(3) 0.6867(4) 0.4944(3)
H30 H 0.3648 0.6182 0.4625
H31 H 0.4463 0.7090 0.5660
C30 C 0.5556(4) 0.6553(3) 0.4624(3)
H32 H 0.6272 0.7256 0.4909
H33 H 0.5736 0.5916 0.4851
C31 C 0.6426(3) 0.6091(4) 0.3195(3)
H34 H 0.6856 0.5593 0.3454
H35 H 0.6993 0.6890 0.3391
C32 C 0.6060(4) 0.5546(4) 0.2084(3)
H36 H 0.6817 0.5566 0.1806
H37 H 0.5600 0.4706 0.1896
C33 C 0.5998(4) 0.7052(4) 0.1385(3)
H38 H 0.6351 0.6688 0.0815
H39 H 0.6685 0.7588 0.1926
C34 C 0.5120(5) 0.7739(4) 0.1118(3)
H40 H 0.5537 0.8312 0.0839
H41 H 0.4385 0.7192 0.0630
C35 C 0.3882(4) 0.8998(4) 0.1880(4)
H42 H 0.3114 0.8455 0.1431
H43 H 0.4219 0.9598 0.1597
C36 C 0.3610(4) 0.9602(3) 0.2884(4)
H44 H 0.4371 1.0174 0.3321
H45 H 0.2978 1.0039 0.2820
C37 C 0.3051(3) 0.9130(4) 0.4281(3)
H46 H 0.2268 0.9370 0.4323
H47 H 0.3744 0.9831 0.4657
C38 C 0.3060(3) 0.8155(4) 0.4713(3)
H48 H 0.2973 0.8437 0.5404
H49 H 0.2368 0.7451 0.4344
loop_
_geom_bond_atom_site_label_1
_geom_bond_atom_site_label_2
_geom_bond_site_symmetry_1
_geom_bond_site_symmetry_2
Na1 O1 1_555 1_555
O1 C1 1_555 1_555
O2 Na1 1_555 1_555
O3 Na1 1_555 1_555
O4 Na1 1_555 1_555
O5 Na1 1_555 1_555
O6 Na1 1_555 1_555
C1 C2 1_555 1_555
C2 C3 1_555 1_555
C3 H1 1_555 1_555
C4 C3 1_555 1_555
C5 C4 1_555 1_555
H2 C5 1_555 1_555
C6 C1 1_555 1_555
C7 C2 1_555 1_555
C8 C7 1_555 1_555
H3 C8 1_555 1_555
H4 C8 1_555 1_555
H5 C8 1_555 1_555
C9 C7 1_555 1_555
H6 C9 1_555 1_555
H7 C9 1_555 1_555
H8 C9 1_555 1_555
C10 C7 1_555 1_555
H9 C10 1_555 1_555
H10 C10 1_555 1_555
H11 C10 1_555 1_555
C11 C4 1_555 1_555
C12 C11 1_555 1_555
H12 C12 1_555 1_555
H13 C12 1_555 1_555
H14 C12 1_555 1_555
C13 C11 1_555 1_555
H15 C13 1_555 1_555
H16 C13 1_555 1_555
H17 C13 1_555 1_555
C14 C11 1_555 1_555
H18 C14 1_555 1_555
H19 C14 1_555 1_555
H20 C14 1_555 1_555
C15 C6 1_555 1_555
C16 C15 1_555 1_555
C17 C16 1_555 1_555
H21 C17 1_555 1_555
C18 C17 1_555 1_555
H22 C18 1_555 1_555
C19 C18 1_555 1_555
H23 C19 1_555 1_555
C20 C19 1_555 1_555
H24 C20 1_555 1_555
C21 C16 1_555 1_555
C22 C21 1_555 1_555
H25 C22 1_555 1_555
C23 C22 1_555 1_555
C24 C23 1_555 1_555
H26 C24 1_555 1_555
C25 C24 1_555 1_555
H27 C25 1_555 1_555
C26 C25 1_555 1_555
H28 C26 1_555 1_555
C27 C26 1_555 1_555
H29 C27 1_555 1_555
C28 C15 1_555 1_555
C29 O6 1_555 1_555
H30 C29 1_555 1_555
H31 C29 1_555 1_555
C30 O2 1_555 1_555
H32 C30 1_555 1_555
H33 C30 1_555 1_555
C31 O2 1_555 1_555
H34 C31 1_555 1_555
H35 C31 1_555 1_555
C32 O3 1_555 1_555
H36 C32 1_555 1_555
H37 C32 1_555 1_555
C33 O3 1_555 1_555
H38 C33 1_555 1_555
H39 C33 1_555 1_555
C34 O4 1_555 1_555
H40 C34 1_555 1_555
H41 C34 1_555 1_555
C35 O4 1_555 1_555
H42 C35 1_555 1_555
H43 C35 1_555 1_555
C36 O5 1_555 1_555
H44 C36 1_555 1_555
H45 C36 1_555 1_555
C37 O5 1_555 1_555
H46 C37 1_555 1_555
H47 C37 1_555 1_555
C38 O6 1_555 1_555
H48 C38 1_555 1_555
H49 C38 1_555 1_555
C5 C6 1_555 1_555
C20 C21 1_555 1_555
C23 C28 1_555 1_555
C27 C28 1_555 1_555
C29 C30 1_555 1_555
C31 C32 1_555 1_555
C33 C34 1_555 1_555
C35 C36 1_555 1_555
C37 C38 1_555 1_555

#END
