
#######################################################################
#
#                 Cambridge Crystallographic Data Centre
#                                CCDC 
#
#######################################################################
#
# If this CIF has been generated from an entry in the Cambridge 
# Structural Database, then it will include bibliographic, chemical, 
# crystal, experimental, refinement or atomic coordinate data resulting 
# from the CCDC's data processing and validation procedures.
#
#######################################################################

data_ZACVEH
_chemical_formula_moiety         'C33 H39 K1 O8'
_chemical_name_systematic        
(2-(9-anthryl)-4-methoxyphenolato)-(18-crown-6)-potassium
_symmetry_cell_setting           orthorhombic
_symmetry_space_group_name_H-M   'P n a 21'
_symmetry_Int_Tables_number      33
_space_group_name_Hall           'P 2c -2n'
loop_
_symmetry_equiv_pos_site_id
_symmetry_equiv_pos_as_xyz
1 x,y,z
2 -x,-y,1/2+z
3 1/2-x,1/2+y,1/2+z
4 1/2+x,1/2-y,z
_cell_length_a                   20.300(2)
_cell_length_b                   10.7796(7)
_cell_length_c                   14.2425(8)
_cell_angle_alpha                90
_cell_angle_beta                 90
_cell_angle_gamma                90
_cell_volume                     3116.63
_exptl_crystal_colour            'reddish red'
_exptl_crystal_description       block
_cell_formula_units_Z            4
_chemical_properties_physical    
'Air-sensitive, Moisture-sensitive, Oxygen-sensitive'
_exptl_crystal_recrystallization_method toluene
loop_
_atom_site_label
_atom_site_type_symbol
_atom_site_fract_x
_atom_site_fract_y
_atom_site_fract_z
K1 K 0.41150(5) 0.84484(9) 0.45387(8)
O1 O 0.10646(15) 0.4160(3) 0.4634(3)
C1 C 0.2011(2) 0.9016(4) 0.3411(3)
C2 C 0.2170(2) 0.8401(5) 0.2558(3)
H1 H 0.2277 0.7543 0.2564
O2 O 0.40020(17) 1.0047(3) 0.6172(2)
O3 O 0.36638(15) 1.0875(3) 0.4391(2)
C3 C 0.1876(2) 0.9056(4) 0.5118(3)
C4 C 0.1589(2) 0.4965(4) 0.4491(3)
O4 O 0.41962(17) 0.9797(4) 0.2765(2)
C5 C 0.1913(2) 0.8501(4) 0.6025(3)
H2 H 0.2009 0.7641 0.6074
C6 C 0.1994(2) 0.8380(4) 0.4290(3)
C7 C 0.2711(2) 0.6483(4) 0.4138(3)
O5 O 0.51040(18) 0.6568(3) 0.4785(3)
O6 O 0.44578(18) 0.7604(3) 0.6346(2)
C8 C 0.2200(2) 0.4446(4) 0.4329(3)
H3 H 0.2244 0.3568 0.4331
C9 C 0.1734(2) 1.0362(4) 0.5072(4)
O7 O 0.32253(17) 0.7137(3) 0.3946(2)
C10 C 0.1855(2) 1.0322(4) 0.3378(3)
O8 O 0.47350(18) 0.7404(4) 0.2995(2)
C11 C 0.1713(2) 1.0954(4) 0.4198(3)
H4 H 0.1599 1.1808 0.4168
C12 C 0.1857(3) 1.0923(5) 0.2486(3)
H5 H 0.1751 1.1780 0.2449
C13 C 0.3634(3) 1.0588(6) 0.2756(4)
H6 H 0.3229 1.0089 0.2841
H7 H 0.3605 1.1020 0.2145
C14 C 0.3483(3) 1.0893(6) 0.6032(4)
H8 H 0.3433 1.1432 0.6590
H9 H 0.3065 1.0440 0.5933
C15 C 0.1621(2) 1.1023(5) 0.5929(3)
H10 H 0.1516 1.1881 0.5904
C16 C 0.2084(2) 0.6992(4) 0.4304(3)
C17 C 0.1534(2) 0.6256(4) 0.4481(3)
H11 H 0.1120 0.6634 0.4597
C18 C 0.2741(2) 0.5162(4) 0.4168(3)
H12 H 0.3154 0.4767 0.4072
C19 C 0.2006(3) 1.0294(5) 0.1689(3)
H13 H 0.1999 1.0711 0.1101
C20 C 0.1813(3) 0.9169(5) 0.6820(3)
H14 H 0.1846 0.8776 0.7415
C21 C 0.3871(3) 0.9300(5) 0.6979(4)
H15 H 0.3459 0.8824 0.6887
H16 H 0.3817 0.9834 0.7540
C22 C 0.1660(2) 1.0457(5) 0.6768(3)
H17 H 0.1586 1.0916 0.7327
C23 C 0.3644(3) 1.1676(5) 0.5172(4)
H18 H 0.3303 1.2321 0.5080
H19 H 0.4075 1.2092 0.5254
C24 C 0.3691(3) 1.1504(5) 0.3520(3)
H20 H 0.4113 1.1958 0.3465
H21 H 0.3327 1.2112 0.3478
C25 C 0.4724(3) 0.8049(6) 0.2135(4)
H22 H 0.4725 0.7453 0.1607
H23 H 0.5121 0.8579 0.2081
C26 C 0.5000(3) 0.6782(6) 0.6434(4)
H24 H 0.4972 0.6321 0.7034
H25 H 0.5419 0.7252 0.6426
C27 C 0.4123(3) 0.8828(6) 0.2095(4)
H26 H 0.4068 0.9181 0.1458
H27 H 0.3729 0.8323 0.2244
C28 C 0.0425(2) 0.4691(4) 0.4642(4)
H28 H 0.0097 0.4037 0.4744
H29 H 0.0341 0.5097 0.4038
H30 H 0.0396 0.5304 0.5148
C29 C 0.4431(3) 0.8437(6) 0.7120(4)
H31 H 0.4848 0.8910 0.7165
H32 H 0.4370 0.7968 0.7712
C30 C 0.5118(3) 0.5801(6) 0.3966(5)
H33 H 0.4687 0.5386 0.3886
H34 H 0.5460 0.5152 0.4039
C31 C 0.2171(3) 0.9040(5) 0.1728(3)
H35 H 0.2285 0.8619 0.1165
C32 C 0.4976(3) 0.5893(6) 0.5619(4)
H36 H 0.5311 0.5233 0.5701
H37 H 0.4537 0.5497 0.5583
C33 C 0.5268(3) 0.6574(6) 0.3117(4)
H38 H 0.5683 0.7041 0.3210
H39 H 0.5317 0.6039 0.2556
loop_
_geom_bond_atom_site_label_1
_geom_bond_atom_site_label_2
_geom_bond_site_symmetry_1
_geom_bond_site_symmetry_2
K1 O2 1_555 1_555
O1 C4 1_555 1_555
C1 C2 1_555 1_555
C2 H1 1_555 1_555
O2 C14 1_555 1_555
O3 K1 1_555 1_555
C3 C5 1_555 1_555
C4 C8 1_555 1_555
O4 K1 1_555 1_555
C5 H2 1_555 1_555
C6 C1 1_555 1_555
C7 O7 1_555 1_555
O5 K1 1_555 1_555
O6 K1 1_555 1_555
C8 H3 1_555 1_555
C9 C3 1_555 1_555
O7 K1 1_555 1_555
C10 C1 1_555 1_555
O8 K1 1_555 1_555
C11 C9 1_555 1_555
H4 C11 1_555 1_555
C12 C10 1_555 1_555
H5 C12 1_555 1_555
C13 O4 1_555 1_555
H6 C13 1_555 1_555
H7 C13 1_555 1_555
C14 H8 1_555 1_555
H9 C14 1_555 1_555
C15 C9 1_555 1_555
H10 C15 1_555 1_555
C16 C6 1_555 1_555
C17 C4 1_555 1_555
H11 C17 1_555 1_555
C18 C7 1_555 1_555
H12 C18 1_555 1_555
C19 C12 1_555 1_555
H13 C19 1_555 1_555
C20 C5 1_555 1_555
H14 C20 1_555 1_555
C21 O2 1_555 1_555
H15 C21 1_555 1_555
H16 C21 1_555 1_555
C22 C15 1_555 1_555
H17 C22 1_555 1_555
C23 O3 1_555 1_555
H18 C23 1_555 1_555
H19 C23 1_555 1_555
C24 O3 1_555 1_555
H20 C24 1_555 1_555
H21 C24 1_555 1_555
C25 O8 1_555 1_555
H22 C25 1_555 1_555
H23 C25 1_555 1_555
C26 O6 1_555 1_555
H24 C26 1_555 1_555
H25 C26 1_555 1_555
C27 O4 1_555 1_555
H26 C27 1_555 1_555
H27 C27 1_555 1_555
C28 O1 1_555 1_555
H28 C28 1_555 1_555
H29 C28 1_555 1_555
H30 C28 1_555 1_555
C29 O6 1_555 1_555
H31 C29 1_555 1_555
H32 C29 1_555 1_555
C30 O5 1_555 1_555
H33 C30 1_555 1_555
H34 C30 1_555 1_555
C31 C2 1_555 1_555
H35 C31 1_555 1_555
C32 O5 1_555 1_555
H36 C32 1_555 1_555
H37 C32 1_555 1_555
C33 O8 1_555 1_555
H38 C33 1_555 1_555
H39 C33 1_555 1_555
C3 C6 1_555 1_555
C7 C16 1_555 1_555
C8 C18 1_555 1_555
C10 C11 1_555 1_555
C13 C24 1_555 1_555
C14 C23 1_555 1_555
C16 C17 1_555 1_555
C19 C31 1_555 1_555
C20 C22 1_555 1_555
C21 C29 1_555 1_555
C25 C27 1_555 1_555
C26 C32 1_555 1_555
C30 C33 1_555 1_555

#END
