
#######################################################################
#
#                 Cambridge Crystallographic Data Centre
#                                CCDC 
#
#######################################################################
#
# If this CIF has been generated from an entry in the Cambridge 
# Structural Database, then it will include bibliographic, chemical, 
# crystal, experimental, refinement or atomic coordinate data resulting 
# from the CCDC's data processing and validation procedures.
#
#######################################################################

data_ZADBOY
_chemical_formula_moiety         'C13 H16 N2 O2'
_chemical_name_systematic        N-(2-oxoazepan-3-yl)benzamide
_symmetry_cell_setting           orthorhombic
_symmetry_space_group_name_H-M   'P 21 21 21'
_symmetry_Int_Tables_number      19
_space_group_name_Hall           'P 2ac 2ab'
loop_
_symmetry_equiv_pos_site_id
_symmetry_equiv_pos_as_xyz
1 x,y,z
2 1/2-x,-y,1/2+z
3 -x,1/2+y,1/2-z
4 1/2+x,1/2-y,-z
_cell_length_a                   7.4880(15)
_cell_length_b                   9.6330(19)
_cell_length_c                   16.933(3)
_cell_angle_alpha                90
_cell_angle_beta                 90
_cell_angle_gamma                90
_cell_volume                     1221.41
_exptl_crystal_colour            colorless
_exptl_crystal_description       block
_cell_formula_units_Z            4
loop_
_atom_site_label
_atom_site_type_symbol
_atom_site_fract_x
_atom_site_fract_y
_atom_site_fract_z
N1 N -0.1475(4) 0.7058(3) 0.11909(19)
H1 H -0.2490 0.6943 0.0963
O1 O 0.0170(4) 0.8309(3) 0.20488(18)
C1 C -0.4461(6) 0.8877(4) 0.1596(3)
H2 H -0.4763 0.7975 0.1455
O2 O 0.1132(4) 0.7799(3) 0.01863(16)
N2 N 0.2959(5) 0.6055(4) 0.0508(2)
H3 H 0.3803 0.6473 0.0259
C2 C -0.5796(6) 0.9849(5) 0.1695(3)
H4 H -0.6990 0.9609 0.1629
C3 C -0.5304(7) 1.1208(5) 0.1899(3)
H5 H -0.6184 1.1877 0.1969
C4 C -0.3546(8) 1.1565(5) 0.1995(3)
H6 H -0.3239 1.2473 0.2124
C5 C -0.2210(6) 1.0555(4) 0.1897(2)
H7 H -0.1014 1.0789 0.1964
C6 C -0.2685(6) 0.9215(4) 0.1703(2)
C7 C -0.1207(6) 0.8170(4) 0.1663(2)
C8 C -0.0054(5) 0.6059(4) 0.1069(2)
H8 H 0.0464 0.5838 0.1585
C9 C 0.1417(5) 0.6709(4) 0.0559(2)
C10 C 0.3373(6) 0.4686(4) 0.0834(3)
H9 H 0.3232 0.4718 0.1403
H10 H 0.4612 0.4470 0.0722
C11 C 0.2193(7) 0.3520(5) 0.0504(3)
H11 H 0.2067 0.3651 -0.0061
H12 H 0.2793 0.2640 0.0587
C12 C 0.0385(6) 0.3446(4) 0.0862(3)
H13 H 0.0517 0.3319 0.1428
H14 H -0.0218 0.2631 0.0657
C13 C -0.0807(5) 0.4711(4) 0.0719(3)
H15 H -0.1973 0.4536 0.0948
H16 H -0.0966 0.4832 0.0155
loop_
_geom_bond_atom_site_label_1
_geom_bond_atom_site_label_2
_geom_bond_site_symmetry_1
_geom_bond_site_symmetry_2
N1 H1 1_555 1_555
O1 C7 1_555 1_555
C1 H2 1_555 1_555
O2 C9 1_555 1_555
N2 H3 1_555 1_555
C2 C1 1_555 1_555
H4 C2 1_555 1_555
C3 C2 1_555 1_555
H5 C3 1_555 1_555
C4 C3 1_555 1_555
H6 C4 1_555 1_555
C5 C4 1_555 1_555
H7 C5 1_555 1_555
C6 C1 1_555 1_555
C7 N1 1_555 1_555
C8 N1 1_555 1_555
H8 C8 1_555 1_555
C9 N2 1_555 1_555
C10 N2 1_555 1_555
H9 C10 1_555 1_555
H10 C10 1_555 1_555
C11 C10 1_555 1_555
H11 C11 1_555 1_555
H12 C11 1_555 1_555
C12 C11 1_555 1_555
H13 C12 1_555 1_555
H14 C12 1_555 1_555
C13 C8 1_555 1_555
H15 C13 1_555 1_555
H16 C13 1_555 1_555
C5 C6 1_555 1_555
C6 C7 1_555 1_555
C8 C9 1_555 1_555
C12 C13 1_555 1_555

#END
