
#######################################################################
#
#                 Cambridge Crystallographic Data Centre
#                                CCDC 
#
#######################################################################
#
# If this CIF has been generated from an entry in the Cambridge 
# Structural Database, then it will include bibliographic, chemical, 
# crystal, experimental, refinement or atomic coordinate data resulting 
# from the CCDC's data processing and validation procedures.
#
#######################################################################

data_ZADQUQ
_chemical_formula_moiety         'C80 H12 O2,2(C1 S2)'
_chemical_name_systematic        
'1,9-Dihydro-74,75-dimethoxy-1,9-(methano(1,2)benzenomethano)C70fullerene carbondisulfide solvate'
_symmetry_cell_setting           monoclinic
_symmetry_space_group_name_H-M   'P 21/c'
_symmetry_Int_Tables_number      14
_space_group_name_Hall           '-P 2ybc'
loop_
_symmetry_equiv_pos_site_id
_symmetry_equiv_pos_as_xyz
1 x,y,z
2 -x,1/2+y,1/2-z
3 -x,-y,-z
4 x,1/2-y,1/2+z
_cell_length_a                   17.550(2)
_cell_length_b                   14.912(2)
_cell_length_c                   19.442(4)
_cell_angle_alpha                90
_cell_angle_beta                 115.94(2)
_cell_angle_gamma                90
_cell_volume                     4575.47
_exptl_crystal_colour            black
_cell_formula_units_Z            4
loop_
_atom_site_label
_atom_site_type_symbol
_atom_site_fract_x
_atom_site_fract_y
_atom_site_fract_z
C1 C 0.3604(1) -0.2075(1) 0.2176(1)
C2 C 0.2648(1) -0.1909(1) 0.1810(1)
C3 C 0.2231(1) -0.2449(1) 0.1136(1)
C4 C 0.2826(2) -0.3103(2) 0.1127(1)
C5 C 0.3612(1) -0.2972(1) 0.1795(1)
C6 C 0.4072(1) -0.3703(2) 0.2177(1)
C7 C 0.4452(1) -0.3741(1) 0.3017(1)
C8 C 0.4356(1) -0.3042(1) 0.3421(1)
C9 C 0.4023(1) -0.2119(1) 0.3092(1)
C10 C 0.3394(1) -0.1982(1) 0.3433(1)
C11 C 0.2586(1) -0.1680(1) 0.3040(1)
C12 C 0.2199(1) -0.1643(1) 0.2203(1)
C13 C 0.1324(1) -0.1898(1) 0.1941(1)
C14 C 0.0915(1) -0.2392(1) 0.1279(1)
C15 C 0.1371(1) -0.2672(2) 0.0860(1)
C16 C 0.1089(2) -0.3572(2) 0.0582(1)
C17 C 0.1660(2) -0.4201(2) 0.0574(1)
C18 C 0.2548(2) -0.3969(2) 0.0843(1)
C19 C 0.3036(2) -0.4729(2) 0.1248(1)
C20 C 0.3778(2) -0.4598(2) 0.1909(2)
C21 C 0.3984(2) -0.5179(2) 0.2559(2)
C22 C 0.4395(1) -0.4653(2) 0.3236(2)
C23 C 0.4301(1) -0.4858(2) 0.3906(1)
C24 C 0.4184(1) -0.4117(2) 0.4333(1)
C25 C 0.4175(1) -0.3232(1) 0.4058(1)
C26 C 0.3580(1) -0.2582(1) 0.4063(1)
C27 C 0.2981(1) -0.2792(1) 0.4350(1)
C28 C 0.2121(1) -0.2455(1) 0.3933(1)
C29 C 0.1937(1) -0.1941(1) 0.3269(1)
C30 C 0.1164(1) -0.2074(1) 0.2593(1)
C31 C 0.0557(1) -0.2718(1) 0.2563(1)
C32 C 0.0128(1) -0.3251(2) 0.1866(1)
C33 C 0.0338(1) -0.3103(2) 0.1250(1)
C34 C 0.0443(1) -0.3828(2) 0.0821(1)
C35 C 0.0345(1) -0.4733(2) 0.0999(1)
C36 C 0.0954(2) -0.5398(2) 0.0993(1)
C37 C 0.1613(2) -0.5114(2) 0.0806(1)
C38 C 0.2461(2) -0.5439(2) 0.1224(1)
C39 C 0.2676(2) -0.6055(1) 0.1836(2)
C40 C 0.3471(2) -0.5924(2) 0.2529(2)
C41 C 0.3518(2) -0.6225(1) 0.3235(2)
C42 C 0.3929(1) -0.5703(2) 0.3918(1)
C43 C 0.3493(1) -0.5846(2) 0.4389(1)
C44 C 0.3383(2) -0.5142(2) 0.4795(1)
C45 C 0.3707(1) -0.4261(2) 0.4753(1)
C46 C 0.3111(1) -0.3611(2) 0.4757(1)
C47 C 0.2416(2) -0.4079(2) 0.4806(1)
C48 C 0.1602(2) -0.3762(2) 0.4409(1)
C49 C 0.1444(2) -0.2963(2) 0.3947(1)
C50 C 0.0672(1) -0.3090(2) 0.3272(1)
C51 C 0.0342(1) -0.3969(2) 0.3314(1)
C52 C -0.0053(1) -0.4476(2) 0.2659(1)
C53 C -0.0138(1) -0.4131(2) 0.1930(1)
C54 C -0.0032(1) -0.4860(2) 0.1505(1)
C55 C 0.0125(1) -0.5663(2) 0.1967(1)
C56 C 0.0698(1) -0.6291(2) 0.1960(1)
C57 C 0.1140(2) -0.6143(2) 0.1491(1)
C58 C 0.1984(2) -0.6468(1) 0.1903(1)
C59 C 0.2074(2) -0.6819(1) 0.2632(1)
C60 C 0.2824(2) -0.6705(1) 0.3282(2)
C61 C 0.2808(2) -0.6481(2) 0.3998(1)
C62 C 0.2042(2) -0.6372(2) 0.4035(1)
C63 C 0.1924(2) -0.5635(2) 0.4461(1)
C64 C 0.2585(2) -0.5030(2) 0.4836(1)
C65 C 0.0909(2) -0.4385(2) 0.4019(1)
C66 C 0.1066(2) -0.5303(2) 0.4044(1)
C67 C 0.0654(1) -0.5837(2) 0.3360(1)
C68 C 0.0102(1) -0.5427(2) 0.2678(1)
C69 C 0.1274(2) -0.6719(1) 0.2663(1)
C70 C 0.1251(1) -0.6498(1) 0.3350(1)
C71 C 0.4042(1) -0.1344(1) 0.1901(1)
C72 C 0.4079(1) -0.0471(1) 0.2294(1)
C73 C 0.3781(1) 0.0335(1) 0.1912(1)
C74 C 0.3886(1) 0.1124(1) 0.2317(1)
O1 O 0.3658(1) 0.1957(1) 0.1999(1)
C75 C 0.3250(2) 0.1994(2) 0.1184(1)
C76 C 0.4749(1) -0.1402(1) 0.3441(1)
C77 C 0.4454(1) -0.0497(1) 0.3094(1)
C78 C 0.4548(1) 0.0294(2) 0.3504(1)
C79 C 0.4284(1) 0.1106(2) 0.3126(1)
O2 O 0.4381(1) 0.19231 0.3466(1)
C80 C 0.4858(2) 0.1958(2) 0.4266(2)
H1 H 0.3730 -0.1268 0.1358
H2 H 0.4606 -0.1534 0.2008
H3 H 0.3493 0.0342 0.1364
H4 H 0.3119 0.2607 0.1023
H5 H 0.3616 0.1751 0.0981
H6 H 0.2736 0.1651 0.0999
H7 H 0.5222 -0.1585 0.3351
H8 H 0.4934 -0.1368 0.3984
H9 H 0.4796 0.0276 0.4053
H10 H 0.4878 0.2565 0.4439
H11 H 0.4605 0.1581 0.4509
H12 H 0.5423 0.1754 0.4394
S1 S 0.1166(1) -0.0046(1) 0.0933(1)
S2 S 0.0687(1) 0.1921(1) 0.0476(1)
C81 C 0.0936(2) 0.0941(2) 0.0710(1)
loop_
_geom_bond_atom_site_label_1
_geom_bond_atom_site_label_2
_geom_bond_site_symmetry_1
_geom_bond_site_symmetry_2
C1 C2 1_555 1_555
C2 C3 1_555 1_555
C3 C4 1_555 1_555
C4 C5 1_555 1_555
C5 C1 1_555 1_555
C6 C5 1_555 1_555
C7 C6 1_555 1_555
C8 C7 1_555 1_555
C9 C1 1_555 1_555
C10 C9 1_555 1_555
C11 C10 1_555 1_555
C12 C2 1_555 1_555
C13 C12 1_555 1_555
C14 C13 1_555 1_555
C15 C3 1_555 1_555
C16 C15 1_555 1_555
C17 C16 1_555 1_555
C18 C4 1_555 1_555
C19 C18 1_555 1_555
C20 C6 1_555 1_555
C21 C20 1_555 1_555
C22 C7 1_555 1_555
C23 C22 1_555 1_555
C24 C23 1_555 1_555
C25 C8 1_555 1_555
C26 C10 1_555 1_555
C27 C26 1_555 1_555
C28 C27 1_555 1_555
C29 C11 1_555 1_555
C30 C13 1_555 1_555
C31 C30 1_555 1_555
C32 C31 1_555 1_555
C33 C14 1_555 1_555
C34 C16 1_555 1_555
C35 C34 1_555 1_555
C36 C35 1_555 1_555
C37 C17 1_555 1_555
C38 C19 1_555 1_555
C39 C38 1_555 1_555
C40 C21 1_555 1_555
C41 C40 1_555 1_555
C42 C23 1_555 1_555
C43 C42 1_555 1_555
C44 C43 1_555 1_555
C45 C24 1_555 1_555
C46 C27 1_555 1_555
C47 C46 1_555 1_555
C48 C47 1_555 1_555
C49 C28 1_555 1_555
C50 C31 1_555 1_555
C51 C50 1_555 1_555
C52 C51 1_555 1_555
C53 C32 1_555 1_555
C54 C35 1_555 1_555
C55 C54 1_555 1_555
C56 C55 1_555 1_555
C57 C36 1_555 1_555
C58 C39 1_555 1_555
C59 C58 1_555 1_555
C60 C41 1_555 1_555
C61 C43 1_555 1_555
C62 C61 1_555 1_555
C63 C62 1_555 1_555
C64 C44 1_555 1_555
C65 C48 1_555 1_555
C66 C63 1_555 1_555
C67 C66 1_555 1_555
C68 C52 1_555 1_555
C69 C56 1_555 1_555
C70 C62 1_555 1_555
C71 C1 1_555 1_555
C72 C71 1_555 1_555
C73 C72 1_555 1_555
C74 C73 1_555 1_555
O1 C74 1_555 1_555
C75 O1 1_555 1_555
C76 C9 1_555 1_555
C77 C72 1_555 1_555
C78 C77 1_555 1_555
C79 C74 1_555 1_555
O2 C79 1_555 1_555
C80 O2 1_555 1_555
S1 C81 1_555 1_555
S2 C81 1_555 1_555
H1 C71 1_555 1_555
H2 C71 1_555 1_555
H3 C73 1_555 1_555
H4 C75 1_555 1_555
H5 C75 1_555 1_555
H6 C75 1_555 1_555
H7 C76 1_555 1_555
H8 C76 1_555 1_555
H9 C78 1_555 1_555
H10 C80 1_555 1_555
H11 C80 1_555 1_555
H12 C80 1_555 1_555
C8 C9 1_555 1_555
C11 C12 1_555 1_555
C14 C15 1_555 1_555
C17 C18 1_555 1_555
C19 C20 1_555 1_555
C21 C22 1_555 1_555
C24 C25 1_555 1_555
C25 C26 1_555 1_555
C28 C29 1_555 1_555
C29 C30 1_555 1_555
C32 C33 1_555 1_555
C33 C34 1_555 1_555
C36 C37 1_555 1_555
C37 C38 1_555 1_555
C39 C40 1_555 1_555
C41 C42 1_555 1_555
C44 C45 1_555 1_555
C45 C46 1_555 1_555
C47 C64 1_555 1_555
C48 C49 1_555 1_555
C49 C50 1_555 1_555
C51 C65 1_555 1_555
C52 C53 1_555 1_555
C53 C54 1_555 1_555
C55 C68 1_555 1_555
C56 C57 1_555 1_555
C57 C58 1_555 1_555
C59 C60 1_555 1_555
C59 C69 1_555 1_555
C60 C61 1_555 1_555
C63 C64 1_555 1_555
C65 C66 1_555 1_555
C67 C68 1_555 1_555
C67 C70 1_555 1_555
C69 C70 1_555 1_555
C76 C77 1_555 1_555
C78 C79 1_555 1_555

#END
