
#######################################################################
#
#                 Cambridge Crystallographic Data Centre
#                                CCDC 
#
#######################################################################
#
# If this CIF has been generated from an entry in the Cambridge 
# Structural Database, then it will include bibliographic, chemical, 
# crystal, experimental, refinement or atomic coordinate data resulting 
# from the CCDC's data processing and validation procedures.
#
#######################################################################

data_ZADRAX
_chemical_formula_moiety         'C80 H12 O2,2(C1 S2)'
_chemical_name_systematic        
'7,8-Dihydro-74,75-dimethoxy-7,8-(methano(1,2)benzenomethano)C70fullerene carbondisulfide solvate'
_symmetry_cell_setting           orthorhombic
_symmetry_space_group_name_H-M   'P n m a'
_symmetry_Int_Tables_number      62
_space_group_name_Hall           '-P 2ac 2n'
loop_
_symmetry_equiv_pos_site_id
_symmetry_equiv_pos_as_xyz
1 x,y,z
2 1/2-x,-y,1/2+z
3 1/2+x,1/2-y,1/2-z
4 -x,1/2+y,-z
5 -x,-y,-z
6 1/2+x,y,1/2-z
7 1/2-x,1/2+y,1/2+z
8 x,1/2-y,z
_cell_length_a                   21.358(4)
_cell_length_b                   16.042(3)
_cell_length_c                   13.179(2)
_cell_angle_alpha                90
_cell_angle_beta                 90
_cell_angle_gamma                90
_cell_volume                     4515.46
_exptl_crystal_colour            black
_cell_formula_units_Z            4
loop_
_atom_site_label
_atom_site_type_symbol
_atom_site_fract_x
_atom_site_fract_y
_atom_site_fract_z
C1 C -0.3408(1) 0.2961(1) -0.0487(1)
C2 C -0.3836(1) 0.3228(1) 0.0296(1)
C3 C -0.4099(1) 0.2500 0.0774(2)
C4 C -0.2246(1) 0.2994(1) -0.1031(1)
C5 C -0.2853(1) 0.3380(1) -0.0637(1)
C6 C -0.2707(1) 0.4077(1) -0.0001(1)
C7 C -0.3120(1) 0.4365(1) 0.0725(1)
C8 C -0.3698(1) 0.3933(1) 0.0880(1)
C9 C -0.3814(1) 0.3928(1) 0.1967(1)
C10 C -0.4064(1) 0.3225(1) 0.2420(1)
C11 C -0.4213(1) 0.2500 0.1817(2)
C12 C -0.1255(1) 0.2962(1) 0.0136(1)
C13 C -0.1775(1) 0.3374(1) -0.0284(1)
C14 C -0.2040(1) 0.4069(1) 0.0201(1)
C15 C -0.1792(1) 0.4408(1) 0.1118(1)
C16 C -0.2231(1) 0.4698(1) 0.1893(1)
C17 C -0.2880(1) 0.4639(1) 0.1698(1)
C18 C -0.3311(1) 0.4370(1) 0.2464(1)
C19 C -0.3099(1) 0.4144(1) 0.3447(1)
C20 C -0.3370(1) 0.3405(1) 0.3932(1)
C21 C -0.3831(1) 0.2945(1) 0.3394(1)
C22 C -0.0586(1) 0.2932(1) 0.1695(1)
C23 C -0.0940(1) 0.3377(1) 0.0936(1)
C24 C -0.1205(1) 0.4102(1) 0.1410(1)
C25 C -0.1012(1) 0.4105(1) 0.2470(1)
C26 C -0.1427(1) 0.4371(1) 0.3208(1)
C27 C -0.2048(1) 0.4642(1) 0.2929(1)
C28 C -0.2475(1) 0.4366(1) 0.3689(1)
C29 C -0.2123(1) 0.3923(1) 0.4452(1)
C30 C -0.2377(1) 0.3226(1) 0.4913(1)
C31 C -0.2997(1) 0.2946(1) 0.4625(1)
C32 C -0.0668(1) 0.2952(1) 0.3567(1)
C33 C -0.0621(1) 0.3385(1) 0.2649(1)
C34 C -0.1470(1) 0.3931(1) 0.4165(1)
C35 C -0.1097(1) 0.3233(1) 0.4338(1)
C36 C -0.1366(1) 0.2500 0.4818(2)
C37 C -0.1988(1) 0.2500 0.5106(2)
C38 C -0.2098(1) 0.3344(1) -0.2113(1)
C39 C -0.1528(1) 0.2935(1) -0.2543(1)
C40 C -0.1014(1) 0.3371(1) -0.2931(1)
C41 C -0.0510(1) 0.2943(1) -0.3335(1)
C42 C 0.0014(1) 0.4205(1) -0.3780(2)
O1 O 0.0002(1) 0.3309(1) -0.3767(1)
H1 H -0.2033 0.3934 -0.2075
H2 H -0.2447 0.3244 -0.2553
H3 H -0.1012 0.3968 -0.2918
H4 H 0.0390 0.4401 -0.4095
H5 H -0.0340 0.4401 -0.4156
H6 H -0.0008 0.4410 -0.3099
C1G C -0.3408(1) 0.2039(1) -0.0487(1)
C2G C -0.3836(1) 0.1772(1) 0.0296(1)
C4G C -0.2246(1) 0.2006(1) -0.1031(1)
C5G C -0.2853(1) 0.1620(1) -0.0637(1)
C6G C -0.2707(1) 0.0923(1) -0.0001(1)
C7G C -0.3120(1) 0.0635(1) 0.0725(1)
C8G C -0.3698(1) 0.1067(1) 0.0880(1)
C9G C -0.3814(1) 0.1072(1) 0.1967(1)
C10G C -0.4064(1) 0.1775(1) 0.2420(1)
C39G C -0.1528(1) 0.2065(1) -0.2543(1)
C38G C -0.2098(1) 0.1656(1) -0.2113(1)
C13G C -0.1775(1) 0.1626(1) -0.0284(1)
C12G C -0.1255(1) 0.2038(1) 0.0136(1)
C22G C -0.0586(1) 0.2068(1) 0.1695(1)
C23G C -0.0940(1) 0.1623(1) 0.0936(1)
C24G C -0.1205(1) 0.0898(1) 0.1410(1)
C15G C -0.1792(1) 0.0592(1) 0.1118(1)
C14G C -0.2040(1) 0.0931(1) 0.0201(1)
C16G C -0.2231(1) 0.0302(1) 0.1893(1)
C17G C -0.2880(1) 0.0361(1) 0.1698(1)
C18G C -0.3311(1) 0.0630(1) 0.2464(1)
C19G C -0.3099(1) 0.0856(1) 0.3447(1)
C20G C -0.3370(1) 0.1595(1) 0.3932(1)
C21G C -0.3831(1) 0.2055(1) 0.3394(1)
C31G C -0.2997(1) 0.2054(1) 0.4625(1)
C30G C -0.2377(1) 0.1774(1) 0.4913(1)
C29G C -0.2123(1) 0.1077(1) 0.4452(1)
C28G C -0.2475(1) 0.0634(1) 0.3689(1)
C27G C -0.2048(1) 0.0358(1) 0.2929(1)
C26G C -0.1427(1) 0.0629(1) 0.3208(1)
C25G C -0.1012(1) 0.0895(1) 0.2470(1)
C33G C -0.0621(1) 0.1615(1) 0.2649(1)
C32G C -0.0668(1) 0.2048(1) 0.3567(1)
C35G C -0.1097(1) 0.1767(1) 0.4338(1)
C34G C -0.1470(1) 0.1069(1) 0.4165(1)
H1G H -0.2033 0.1066 -0.2075
H2G H -0.2447 0.1756 -0.2553
C40G C -0.1014(1) 0.1629(1) -0.2931(1)
C41G C -0.0510(1) 0.2057(1) -0.3335(1)
O1G O 0.0002(1) 0.1691(1) -0.3767(1)
C42G C 0.0014(1) 0.0795(1) -0.3780(2)
H4G H 0.0390 0.0599 -0.4095
H5G H -0.0340 0.0599 -0.4156
H6G H -0.0008 0.0590 -0.3099
H3G H -0.1012 0.1032 -0.2918
S1 S 0.0446(1) 0.0003(1) 0.0923(1)
C43 C 0.0000 0.0000 0.0000
S1D S -0.0446(1) -0.0003(1) -0.0923(1)
loop_
_geom_bond_atom_site_label_1
_geom_bond_atom_site_label_2
_geom_bond_site_symmetry_1
_geom_bond_site_symmetry_2
C1 C2 1_555 1_555
C2 C3 1_555 1_555
C3 C11 1_555 1_555
C4 C5 1_555 1_555
C5 C1 1_555 1_555
C6 C5 1_555 1_555
C7 C6 1_555 1_555
C8 C2 1_555 1_555
C9 C8 1_555 1_555
C10 C9 1_555 1_555
C11 C10 1_555 1_555
C12 C13 1_555 1_555
C13 C4 1_555 1_555
C14 C6 1_555 1_555
C15 C14 1_555 1_555
C16 C15 1_555 1_555
C17 C7 1_555 1_555
C18 C9 1_555 1_555
C19 C18 1_555 1_555
C20 C19 1_555 1_555
C21 C10 1_555 1_555
C22 C23 1_555 1_555
C23 C12 1_555 1_555
C24 C15 1_555 1_555
C25 C24 1_555 1_555
C26 C25 1_555 1_555
C27 C16 1_555 1_555
C28 C19 1_555 1_555
C29 C28 1_555 1_555
C30 C29 1_555 1_555
C31 C20 1_555 1_555
C32 C33 1_555 1_555
C33 C22 1_555 1_555
C34 C26 1_555 1_555
C35 C32 1_555 1_555
C36 C35 1_555 1_555
C37 C30 1_555 1_555
C38 C4 1_555 1_555
C39 C38 1_555 1_555
C40 C39 1_555 1_555
C41 C40 1_555 1_555
C42 O1 1_555 1_555
O1 C41 1_555 1_555
S1 C43 1_555 1_555
C43 S1D 1_555 1_555
H1 C38 1_555 1_555
H2 C38 1_555 1_555
H3 C40 1_555 1_555
H4 C42 1_555 1_555
H5 C42 1_555 1_555
H6 C42 1_555 1_555
C1G C1 1_555 1_555
C2G C3 1_555 1_555
C4G C4 1_555 1_555
C5G C1G 1_555 1_555
C6G C5G 1_555 1_555
C7G C6G 1_555 1_555
C8G C2G 1_555 1_555
C9G C8G 1_555 1_555
C10G C11 1_555 1_555
C39G C39 1_555 1_555
C38G C4G 1_555 1_555
C13G C4G 1_555 1_555
C12G C12 1_555 1_555
C22G C22 1_555 1_555
C23G C12G 1_555 1_555
C24G C23G 1_555 1_555
C15G C24G 1_555 1_555
C14G C6G 1_555 1_555
C16G C15G 1_555 1_555
C17G C7G 1_555 1_555
C18G C9G 1_555 1_555
C19G C18G 1_555 1_555
C20G C19G 1_555 1_555
C21G C21 1_555 1_555
C31G C31 1_555 1_555
C30G C37 1_555 1_555
C29G C30G 1_555 1_555
C28G C19G 1_555 1_555
C27G C16G 1_555 1_555
C26G C27G 1_555 1_555
C25G C24G 1_555 1_555
C33G C22G 1_555 1_555
C32G C32 1_555 1_555
C35G C36 1_555 1_555
C34G C29G 1_555 1_555
H1G C38G 1_555 1_555
H2G C38G 1_555 1_555
C40G C39G 1_555 1_555
C41G C41 1_555 1_555
O1G C41G 1_555 1_555
C42G O1G 1_555 1_555
H4G C42G 1_555 1_555
H5G C42G 1_555 1_555
H6G C42G 1_555 1_555
H3G C40G 1_555 1_555
C7 C8 1_555 1_555
C13 C14 1_555 1_555
C16 C17 1_555 1_555
C17 C18 1_555 1_555
C20 C21 1_555 1_555
C23 C24 1_555 1_555
C25 C33 1_555 1_555
C26 C27 1_555 1_555
C27 C28 1_555 1_555
C29 C34 1_555 1_555
C30 C31 1_555 1_555
C34 C35 1_555 1_555
C36 C37 1_555 1_555
C1G C2G 1_555 1_555
C4G C5G 1_555 1_555
C7G C8G 1_555 1_555
C9G C10G 1_555 1_555
C10G C21G 1_555 1_555
C39G C38G 1_555 1_555
C13G C12G 1_555 1_555
C13G C14G 1_555 1_555
C22G C23G 1_555 1_555
C15G C14G 1_555 1_555
C16G C17G 1_555 1_555
C17G C18G 1_555 1_555
C20G C21G 1_555 1_555
C20G C31G 1_555 1_555
C31G C30G 1_555 1_555
C29G C28G 1_555 1_555
C28G C27G 1_555 1_555
C26G C25G 1_555 1_555
C26G C34G 1_555 1_555
C25G C33G 1_555 1_555
C33G C32G 1_555 1_555
C32G C35G 1_555 1_555
C35G C34G 1_555 1_555
C40G C41G 1_555 1_555

#END
