
#######################################################################
#
#                 Cambridge Crystallographic Data Centre
#                                CCDC 
#
#######################################################################
#
# If this CIF has been generated from an entry in the Cambridge 
# Structural Database, then it will include bibliographic, chemical, 
# crystal, experimental, refinement or atomic coordinate data resulting 
# from the CCDC's data processing and validation procedures.
#
#######################################################################

data_ZADVIM
_chemical_name_common            
(S)-2-(2,2'-diethoxy-[1,1'-binaphthalen]-6-yl)-4,4,5,5-tetramethyl-2-iotamidazoline-1-oxyle
_chemical_formula_moiety         'C31 H33 N2 O3'
_chemical_name_systematic        
2-(2,2'-diethoxy-1,1'-binaphthalen-6-yl)-4,4,5,5-tetramethyl-4,5-dihydro-1H-imidazol-1-ol
_symmetry_cell_setting           orthorhombic
_symmetry_space_group_name_H-M   'P 21 21 21'
_symmetry_Int_Tables_number      19
_space_group_name_Hall           'P 2ac 2ab'
loop_
_symmetry_equiv_pos_site_id
_symmetry_equiv_pos_as_xyz
1 x,y,z
2 1/2-x,-y,1/2+z
3 -x,1/2+y,1/2-z
4 1/2+x,1/2-y,-z
_cell_length_a                   7.8122(11)
_cell_length_b                   12.2682(18)
_cell_length_c                   28.837(4)
_cell_angle_alpha                90
_cell_angle_beta                 90
_cell_angle_gamma                90
_cell_volume                     2763.79
_exptl_crystal_colour            red
_exptl_crystal_description       block
_cell_formula_units_Z            4
loop_
_atom_site_label
_atom_site_type_symbol
_atom_site_fract_x
_atom_site_fract_y
_atom_site_fract_z
C1 C 1.0133(6) 0.4742(4) 0.28517(17)
H1 H 0.8991 0.4982 0.2919
H2 H 1.0916 0.5066 0.3068
H3 H 1.0191 0.3963 0.2877
C2 C 1.0405(6) 0.6318(4) 0.23092(18)
H4 H 0.9262 0.6522 0.2395
H5 H 1.0615 0.6527 0.1993
H6 H 1.1208 0.6681 0.2509
C3 C 1.0615(6) 0.5085(4) 0.23580(16)
C4 C 1.2273(6) 0.4595(4) 0.21772(16)
C5 C 1.3555(6) 0.4268(4) 0.25490(16)
H7 H 1.3022 0.3773 0.2763
H8 H 1.3934 0.4906 0.2712
H9 H 1.4520 0.3918 0.2406
C6 C 1.3203(6) 0.5281(4) 0.18210(18)
H10 H 1.4149 0.4875 0.1697
H11 H 1.3619 0.5935 0.1965
H12 H 1.2431 0.5468 0.1575
C7 C 1.0099(6) 0.3665(3) 0.18457(14)
C8 C 0.9117(5) 0.2834(3) 0.15767(13)
C9 C 1.0016(5) 0.2190(3) 0.12543(14)
H13 H 1.1164 0.2337 0.1197
C10 C 0.9239(5) 0.1355(3) 0.10250(13)
H14 H 0.9869 0.0943 0.0815
C11 C 0.7511(5) 0.1104(3) 0.10995(12)
C12 C 0.6570(5) 0.1754(3) 0.14199(13)
C13 C 0.7438(6) 0.2627(3) 0.16497(13)
H15 H 0.6831 0.3064 0.1855
C14 C 0.4844(5) 0.1512(4) 0.15060(14)
H16 H 0.4228 0.1936 0.1715
C15 C 0.4057(5) 0.0662(3) 0.12867(14)
H17 H 0.2912 0.0510 0.1347
C16 C 0.4974(5) 0.0022(3) 0.09719(13)
C17 C 0.6654(5) 0.0218(3) 0.08750(12)
C18 C 0.2547(5) -0.1177(4) 0.08373(16)
H18 H 0.2087 -0.1580 0.0576
H19 H 0.1805 -0.0557 0.0893
C19 C 0.2559(6) -0.1883(4) 0.12507(17)
H20 H 0.3357 -0.2468 0.1205
H21 H 0.1434 -0.2176 0.1299
H22 H 0.2894 -0.1464 0.1517
C20 C 0.8440(10) 0.2685(7) -0.0236(2)
H23 H 0.7237 0.2843 -0.0244
H24 H 0.9021 0.3116 -0.0464
H25 H 0.8883 0.2855 0.0066
C21 C 0.8723(10) 0.1478(5) -0.0338(2)
H26 H 0.8290 0.1282 -0.0642
H27 H 0.9925 0.1286 -0.0318
C22 C 0.8146(6) -0.0110(4) 0.01201(17)
C23 C 0.7608(5) -0.0494(3) 0.05403(14)
C24 C 0.7963(5) -0.1605(4) 0.06529(16)
C25 C 0.7452(5) -0.2062(4) 0.10744(17)
H28 H 0.6898 -0.1623 0.1290
C26 C 0.7743(6) -0.3147(5) 0.1182(2)
H29 H 0.7370 -0.3438 0.1462
C27 C 0.8610(8) -0.3794(5) 0.0860(3)
H30 H 0.8815 -0.4523 0.0928
C28 C 0.9156(7) -0.3384(5) 0.0453(2)
H31 H 0.9752 -0.3832 0.0249
C29 C 0.8837(5) -0.2259(4) 0.0326(2)
C30 C 0.9364(7) -0.1808(5) -0.0096(2)
H32 H 0.9950 -0.2242 -0.0307
C31 C 0.9041(6) -0.0756(5) -0.02027(17)
H33 H 0.9403 -0.0465 -0.0484
N1 N 0.9327(5) 0.4563(3) 0.20435(12)
N2 N 1.1742(4) 0.3594(3) 0.19200(12)
O1 O 0.7768(4) 0.4838(3) 0.20190(12)
O2 O 0.7739(4) 0.0964(3) 0.00283(10)
O3 O 0.4225(3) -0.0794(2) 0.07236(9)
loop_
_geom_bond_atom_site_label_1
_geom_bond_atom_site_label_2
_geom_bond_site_symmetry_1
_geom_bond_site_symmetry_2
C1 H1 1_555 1_555
H2 C1 1_555 1_555
H3 C1 1_555 1_555
C2 H4 1_555 1_555
H5 C2 1_555 1_555
H6 C2 1_555 1_555
C3 C1 1_555 1_555
C4 C3 1_555 1_555
C5 C4 1_555 1_555
H7 C5 1_555 1_555
H8 C5 1_555 1_555
H9 C5 1_555 1_555
C6 C4 1_555 1_555
H10 C6 1_555 1_555
H11 C6 1_555 1_555
H12 C6 1_555 1_555
C7 C8 1_555 1_555
C8 C9 1_555 1_555
C9 H13 1_555 1_555
C10 C9 1_555 1_555
H14 C10 1_555 1_555
C11 C10 1_555 1_555
C12 C11 1_555 1_555
C13 C8 1_555 1_555
H15 C13 1_555 1_555
C14 C12 1_555 1_555
H16 C14 1_555 1_555
C15 C14 1_555 1_555
H17 C15 1_555 1_555
C16 C15 1_555 1_555
C17 C11 1_555 1_555
C18 H18 1_555 1_555
H19 C18 1_555 1_555
C19 C18 1_555 1_555
H20 C19 1_555 1_555
H21 C19 1_555 1_555
H22 C19 1_555 1_555
C20 H23 1_555 1_555
H24 C20 1_555 1_555
H25 C20 1_555 1_555
C21 C20 1_555 1_555
H26 C21 1_555 1_555
H27 C21 1_555 1_555
C22 C23 1_555 1_555
C23 C17 1_555 1_555
C24 C23 1_555 1_555
C25 C24 1_555 1_555
H28 C25 1_555 1_555
C26 C25 1_555 1_555
H29 C26 1_555 1_555
C27 C26 1_555 1_555
H30 C27 1_555 1_555
C28 C27 1_555 1_555
H31 C28 1_555 1_555
C29 C24 1_555 1_555
C30 C29 1_555 1_555
H32 C30 1_555 1_555
C31 C22 1_555 1_555
H33 C31 1_555 1_555
N1 C3 1_555 1_555
N2 C4 1_555 1_555
O1 N1 1_555 1_555
O2 C21 1_555 1_555
O3 C16 1_555 1_555
C2 C3 1_555 1_555
C7 N1 1_555 1_555
C7 N2 1_555 1_555
C12 C13 1_555 1_555
C16 C17 1_555 1_555
C18 O3 1_555 1_555
C22 O2 1_555 1_555
C28 C29 1_555 1_555
C30 C31 1_555 1_555

#END
