
#######################################################################
#
#                 Cambridge Crystallographic Data Centre
#                                CCDC 
#
#######################################################################
#
# If this CIF has been generated from an entry in the Cambridge 
# Structural Database, then it will include bibliographic, chemical, 
# crystal, experimental, refinement or atomic coordinate data resulting 
# from the CCDC's data processing and validation procedures.
#
#######################################################################

data_ZAFDUI
_chemical_formula_moiety         'C37 H46 N4'
_chemical_name_systematic        
2-((1,3-bis(2,6-diisopropylphenyl)-1,3-dihydro-2H-imidazol-2-ylidene)methylene)-1,3-dimethyl-2,3-dihydro-1H-benzimidazole
_symmetry_cell_setting           monoclinic
_symmetry_space_group_name_H-M   'P 21/c'
_symmetry_Int_Tables_number      14
_space_group_name_Hall           '-P 2ybc'
loop_
_symmetry_equiv_pos_site_id
_symmetry_equiv_pos_as_xyz
1 x,y,z
2 -x,1/2+y,1/2-z
3 -x,-y,-z
4 x,1/2-y,1/2+z
_cell_length_a                   10.0306(3)
_cell_length_b                   15.5399(4)
_cell_length_c                   20.9421(6)
_cell_angle_alpha                90
_cell_angle_beta                 102.8701(16)
_cell_angle_gamma                90
_cell_volume                     3182.33
_exptl_crystal_colour            colorless
_exptl_crystal_description       prism
_cell_formula_units_Z            4
loop_
_atom_site_label
_atom_site_type_symbol
_atom_site_fract_x
_atom_site_fract_y
_atom_site_fract_z
N1 N 0.26856(15) 0.22259(9) 0.64160(7)
N2 N 0.44192(15) 0.17049(9) 0.60558(8)
N3 N 0.66610(15) 0.24388(10) 0.78725(7)
N4 N 0.66429(15) 0.37965(9) 0.75396(7)
C1 C 0.48967(19) 0.28702(12) 0.68972(10)
C2 C 0.41082(18) 0.22863(11) 0.65156(9)
C3 C 0.2170(2) 0.16610(12) 0.59073(9)
H1 H 0.1252(2) 0.15297(12) 0.57458(9)
C4 C 0.3222(2) 0.13391(12) 0.56904(9)
H2 H 0.3166(2) 0.09404(12) 0.53542(9)
C5 C 0.15272(19) 0.36147(12) 0.63326(9)
C6 C 0.0682(2) 0.41806(13) 0.65732(11)
H3 H 0.0444(2) 0.47030(13) 0.63616(11)
C7 C 0.0189(2) 0.39810(14) 0.71198(11)
H4 H -0.0381(2) 0.43665(14) 0.72699(11)
C8 C 0.0536(2) 0.32131(13) 0.74454(11)
H5 H 0.0200(2) 0.30871(13) 0.78143(11)
C9 C 0.13842(19) 0.26247(12) 0.72279(10)
C10 C 0.18599(18) 0.28364(11) 0.66710(9)
C11 C 0.2044(2) 0.38392(13) 0.57275(10)
H6 H 0.2716(2) 0.34024(13) 0.56743(10)
C12 C 0.2751(2) 0.47120(14) 0.57899(11)
H7 H 0.2092(4) 0.51569(16) 0.5798(8)
H8 H 0.3445(11) 0.4729(4) 0.6188(4)
H9 H 0.3163(14) 0.4800(5) 0.5423(4)
C13 C 0.0875(3) 0.38150(16) 0.51196(11)
H10 H 0.0444(12) 0.3260(4) 0.5086(5)
H11 H 0.0217(9) 0.4251(8) 0.5154(4)
H12 H 0.1229(4) 0.3918(11) 0.47368(13)
C14 C 0.1793(2) 0.17993(12) 0.76061(10)
H13 H 0.2248(2) 0.14288(12) 0.73408(10)
C15 C 0.2821(3) 0.19979(16) 0.82449(13)
H14 H 0.3590(10) 0.2300(11) 0.81498(14)
H15 H 0.2393(6) 0.2349(11) 0.8519(4)
H16 H 0.3128(15) 0.14698(17) 0.8468(5)
C16 C 0.0574(3) 0.13143(15) 0.77372(16)
H17 H 0.0109(12) 0.1665(5) 0.7996(8)
H18 H -0.0041(10) 0.1177(11) 0.73289(17)
H19 H 0.0879(3) 0.0793(7) 0.7970(9)
C17 C 0.6245(2) 0.06479(13) 0.61002(11)
C18 C 0.7496(2) 0.04425(15) 0.59583(16)
H20 H 0.7844(2) -0.01107(15) 0.60425(16)
C19 C 0.8230(3) 0.10440(18) 0.5695(2)
H21 H 0.9056(3) 0.08897(18) 0.5595(2)
C20 C 0.7747(3) 0.18724(17) 0.55782(19)
H22 H 0.8267(3) 0.22752(17) 0.54125(19)
C21 C 0.6500(2) 0.21169(13) 0.57032(13)
C22 C 0.5755(2) 0.14911(12) 0.59626(10)
C23 C 0.5466(2) -0.00493(12) 0.63733(10)
H23 H 0.4704(2) 0.02215(12) 0.65204(10)
C24 C 0.4879(2) -0.07114(14) 0.58464(12)
H24 H 0.4308(13) -0.04260(19) 0.5479(3)
H25 H 0.5614(2) -0.0999(7) 0.5708(6)
H26 H 0.4347(14) -0.1126(6) 0.6022(3)
C25 C 0.6366(3) -0.05117(14) 0.69565(12)
H27 H 0.7082(11) -0.0815(9) 0.6814(2)
H28 H 0.6761(14) -0.00978(17) 0.7285(4)
H29 H 0.5822(4) -0.0913(8) 0.7137(5)
C26 C 0.5923(2) 0.30098(13) 0.55157(11)
H30 H 0.5295(2) 0.31463(13) 0.57990(11)
C27 C 0.5105(3) 0.30152(17) 0.48185(14)
H31 H 0.5687(6) 0.2865(14) 0.45292(16)
H32 H 0.4373(14) 0.2605(10) 0.4772(3)
H33 H 0.4732(19) 0.3579(4) 0.4710(4)
C28 C 0.7030(3) 0.36999(15) 0.56267(14)
H34 H 0.7588(11) 0.3645(7) 0.6061(3)
H35 H 0.7589(11) 0.3630(7) 0.5313(6)
H36 H 0.6612(3) 0.42586(15) 0.5576(9)
C29 C 0.59803(18) 0.29986(11) 0.73746(9)
C30 C 0.6385(2) 0.15345(12) 0.78920(10)
H37 H 0.5674(11) 0.1381(2) 0.7521(4)
H38 H 0.7199(5) 0.12160(12) 0.7880(7)
H39 H 0.6096(14) 0.14012(19) 0.8288(4)
C31 C 0.76558(19) 0.28742(12) 0.83159(9)
C32 C 0.8584(2) 0.25975(14) 0.88644(10)
H40 H 0.8610(2) 0.20267(14) 0.90000(10)
C33 C 0.9487(3) 0.32101(16) 0.92099(11)
H41 H 1.0141(3) 0.30391(16) 0.95760(11)
C34 C 0.9430(2) 0.40580(15) 0.90204(11)
H42 H 1.0024(2) 0.44521(15) 0.92700(11)
C35 C 0.8499(2) 0.43411(13) 0.84619(9)
H43 H 0.8466(2) 0.49143(13) 0.83318(9)
C36 C 0.76316(18) 0.37349(11) 0.81111(9)
C37 C 0.6276(2) 0.45731(12) 0.71701(10)
H44 H 0.7001(6) 0.4734(5) 0.6963(6)
H45 H 0.5453(8) 0.4479(3) 0.6842(5)
H46 H 0.6127(14) 0.5025(3) 0.74586(15)
loop_
_geom_bond_atom_site_label_1
_geom_bond_atom_site_label_2
_geom_bond_site_symmetry_1
_geom_bond_site_symmetry_2
N1 C2 1_555 1_555
N2 C2 1_555 1_555
N3 C29 1_555 1_555
N4 C29 1_555 1_555
C1 C2 1_555 1_555
C3 N1 1_555 1_555
H1 C3 1_555 1_555
C4 N2 1_555 1_555
H2 C4 1_555 1_555
C5 C6 1_555 1_555
C6 H3 1_555 1_555
C7 C6 1_555 1_555
H4 C7 1_555 1_555
C8 C7 1_555 1_555
H5 C8 1_555 1_555
C9 C8 1_555 1_555
C10 N1 1_555 1_555
C11 C5 1_555 1_555
H6 C11 1_555 1_555
C12 C11 1_555 1_555
H7 C12 1_555 1_555
H8 C12 1_555 1_555
H9 C12 1_555 1_555
C13 C11 1_555 1_555
H10 C13 1_555 1_555
H11 C13 1_555 1_555
H12 C13 1_555 1_555
C14 C9 1_555 1_555
H13 C14 1_555 1_555
C15 C14 1_555 1_555
H14 C15 1_555 1_555
H15 C15 1_555 1_555
H16 C15 1_555 1_555
C16 C14 1_555 1_555
H17 C16 1_555 1_555
H18 C16 1_555 1_555
H19 C16 1_555 1_555
C17 C18 1_555 1_555
C18 H20 1_555 1_555
C19 C18 1_555 1_555
H21 C19 1_555 1_555
C20 C19 1_555 1_555
H22 C20 1_555 1_555
C21 C20 1_555 1_555
C22 N2 1_555 1_555
C23 C17 1_555 1_555
H23 C23 1_555 1_555
C24 C23 1_555 1_555
H24 C24 1_555 1_555
H25 C24 1_555 1_555
H26 C24 1_555 1_555
C25 C23 1_555 1_555
H27 C25 1_555 1_555
H28 C25 1_555 1_555
H29 C25 1_555 1_555
C26 C21 1_555 1_555
H30 C26 1_555 1_555
C27 C26 1_555 1_555
H31 C27 1_555 1_555
H32 C27 1_555 1_555
H33 C27 1_555 1_555
C28 C26 1_555 1_555
H34 C28 1_555 1_555
H35 C28 1_555 1_555
H36 C28 1_555 1_555
C29 C1 1_555 1_555
C30 N3 1_555 1_555
H37 C30 1_555 1_555
H38 C30 1_555 1_555
H39 C30 1_555 1_555
C31 N3 1_555 1_555
C32 C31 1_555 1_555
H40 C32 1_555 1_555
C33 C32 1_555 1_555
H41 C33 1_555 1_555
C34 C33 1_555 1_555
H42 C34 1_555 1_555
C35 C34 1_555 1_555
H43 C35 1_555 1_555
C36 N4 1_555 1_555
C37 N4 1_555 1_555
H44 C37 1_555 1_555
H45 C37 1_555 1_555
H46 C37 1_555 1_555
C3 C4 1_555 1_555
C5 C10 1_555 1_555
C9 C10 1_555 1_555
C17 C22 1_555 1_555
C21 C22 1_555 1_555
C31 C36 1_555 1_555
C35 C36 1_555 1_555

#END
