
#######################################################################
#
#                 Cambridge Crystallographic Data Centre
#                                CCDC 
#
#######################################################################
#
# If this CIF has been generated from an entry in the Cambridge 
# Structural Database, then it will include bibliographic, chemical, 
# crystal, experimental, refinement or atomic coordinate data resulting 
# from the CCDC's data processing and validation procedures.
#
#######################################################################

data_ZAFGAR
_chemical_formula_moiety         'C45 H61 B1 N4'
_chemical_name_systematic        
'2-((1,3-bis(2,6-diisopropylphenyl)-1,3-dihydro-2H-imidazol-2-ylidene)(9-borabicyclo[3.3.1]non-9-yl)methyl)-1,3-dimethyl-2,3-dihydro-1H-benzimidazole unknown solvate'
_symmetry_cell_setting           monoclinic
_symmetry_space_group_name_H-M   'C 2/c'
_symmetry_Int_Tables_number      15
_space_group_name_Hall           '-C 2yn'
loop_
_symmetry_equiv_pos_site_id
_symmetry_equiv_pos_as_xyz
1 x,y,z
2 -x,y,1/2-z
3 1/2+x,1/2+y,z
4 1/2-x,1/2+y,1/2-z
5 -x,-y,-z
6 x,-y,1/2+z
7 1/2-x,1/2-y,-z
8 1/2+x,1/2-y,1/2+z
_cell_length_a                   24.1141(6)
_cell_length_b                   18.7740(5)
_cell_length_c                   19.4387(6)
_cell_angle_alpha                90
_cell_angle_beta                 114.0454(14)
_cell_angle_gamma                90
_cell_volume                     8036.59
_exptl_crystal_colour            colorless
_exptl_crystal_description       prism
_cell_formula_units_Z            8
_exptl_crystal_recrystallization_method 'dichloromethane/diethyl ether'
loop_
_atom_site_label
_atom_site_type_symbol
_atom_site_fract_x
_atom_site_fract_y
_atom_site_fract_z
N1 N 0.69813(4) 0.08812(5) 0.51897(5)
N2 N 0.78370(4) 0.04665(5) 0.52184(5)
N3 N 0.67382(5) -0.05729(6) 0.66575(6)
N4 N 0.66426(5) -0.11775(5) 0.55874(6)
C1 C 0.74117(5) -0.01743(6) 0.60364(7)
C2 C 0.74187(5) 0.03632(6) 0.55336(6)
C3 C 0.59174(6) 0.10785(7) 0.49495(7)
C4 C 0.54869(6) 0.14101(7) 0.51490(8)
H1 H 0.50675(6) 0.13653(7) 0.48311(8)
C5 C 0.56644(6) 0.18027(7) 0.58039(8)
H2 H 0.53660(6) 0.20245(7) 0.59337(8)
C6 C 0.62739(6) 0.18765(7) 0.62742(8)
H3 H 0.63866(6) 0.21423(7) 0.67269(8)
C7 C 0.67248(6) 0.15686(6) 0.60966(7)
C8 C 0.65315(5) 0.11646(6) 0.54323(7)
C9 C 0.57142(6) 0.06600(7) 0.42202(7)
H4 H 0.60640(6) 0.03625(7) 0.42388(7)
C10 C 0.51827(6) 0.01600(8) 0.41126(9)
H5 H 0.5288(2) -0.0143(4) 0.4559(3)
H6 H 0.48218(15) 0.04425(8) 0.4043(6)
H7 H 0.5098(3) -0.0139(4) 0.3668(4)
C11 C 0.55383(7) 0.11641(9) 0.35423(8)
H8 H 0.5186(3) 0.1449(4) 0.3501(4)
H9 H 0.58801(19) 0.1481(4) 0.3612(3)
H10 H 0.5437(5) 0.08843(10) 0.30812(11)
C12 C 0.73959(6) 0.16907(7) 0.65929(7)
H11 H 0.76187(6) 0.12390(7) 0.66024(7)
C13 C 0.76584(6) 0.22782(7) 0.62646(8)
H12 H 0.7592(4) 0.2154(3) 0.5747(2)
H13 H 0.7456(3) 0.27309(13) 0.6265(5)
H14 H 0.80950(10) 0.2325(4) 0.6572(3)
C14 C 0.75203(7) 0.18870(7) 0.74074(7)
H15 H 0.7369(4) 0.2369(2) 0.74217(10)
H16 H 0.7314(4) 0.1547(3) 0.7606(2)
H17 H 0.79584(8) 0.1871(5) 0.77159(14)
C15 C 0.71156(5) 0.12569(6) 0.46597(7)
H18 H 0.68770(5) 0.16249(6) 0.43405(7)
C16 C 0.76399(5) 0.10069(6) 0.46810(7)
H19 H 0.78434(5) 0.11687(6) 0.43823(7)
C17 C 0.89318(6) 0.05069(7) 0.55864(7)
C18 C 0.94582(6) 0.01795(8) 0.56061(7)
H20 H 0.98271(6) 0.04415(8) 0.57819(7)
C19 C 0.94535(6) -0.05154(8) 0.53759(8)
H21 H 0.98179(6) -0.07304(8) 0.54009(8)
C20 C 0.89162(6) -0.09005(7) 0.51075(8)
H22 H 0.89180(6) -0.13795(7) 0.49508(8)
C21 C 0.83735(6) -0.06011(7) 0.50624(7)
C22 C 0.83956(5) 0.01008(7) 0.53231(6)
C23 C 0.89637(6) 0.12818(7) 0.58267(7)
H23 H 0.85662(6) 0.14111(7) 0.58409(7)
C24 C 0.90666(7) 0.17733(8) 0.52578(8)
H24 H 0.9462(2) 0.1668(4) 0.5250(4)
H25 H 0.8745(3) 0.1695(4) 0.47551(13)
H26 H 0.9058(5) 0.22710(8) 0.5406(3)
C25 C 0.94665(6) 0.14079(9) 0.66138(8)
H27 H 0.9400(3) 0.1097(4) 0.69783(13)
H28 H 0.98620(8) 0.1300(5) 0.66075(17)
H29 H 0.9459(3) 0.19067(16) 0.6758(3)
C26 C 0.77764(6) -0.09994(7) 0.46957(7)
H30 H 0.75475(6) -0.09373(7) 0.50203(7)
C27 C 0.73938(6) -0.06756(7) 0.39200(7)
H31 H 0.7273(4) -0.0190(2) 0.39844(8)
H32 H 0.76340(16) -0.0663(5) 0.3617(2)
H33 H 0.7030(2) -0.0967(3) 0.3664(2)
C28 C 0.78475(7) -0.17968(7) 0.46015(9)
H34 H 0.74482(8) -0.20264(11) 0.4418(6)
H35 H 0.8028(4) -0.18724(7) 0.4238(4)
H36 H 0.8112(4) -0.20036(12) 0.50881(14)
C29 C 0.67885(5) -0.04541(6) 0.59348(7)
H37 H 0.64684(5) -0.01098(6) 0.56229(7)
C30 C 0.66575(6) 0.00433(7) 0.70484(7)
H38 H 0.6986(2) 0.0384(2) 0.7128(5)
H39 H 0.6266(2) 0.0267(3) 0.6747(3)
H40 H 0.6665(4) -0.01023(10) 0.7536(2)
C31 C 0.64216(5) -0.11974(7) 0.66189(7)
C32 C 0.62014(6) -0.14815(7) 0.71131(8)
H41 H 0.62512(6) -0.12384(7) 0.75632(8)
C33 C 0.59011(6) -0.21416(8) 0.69303(9)
H42 H 0.57538(6) -0.23519(8) 0.72679(9)
C34 C 0.58164(6) -0.24891(7) 0.62708(9)
H43 H 0.56052(6) -0.29302(7) 0.61549(9)
C35 C 0.60398(6) -0.21968(7) 0.57673(8)
H44 H 0.59767(6) -0.24302(7) 0.53077(8)
C36 C 0.63535(5) -0.15609(7) 0.59602(7)
C37 C 0.63832(6) -0.12124(7) 0.47712(7)
H45 H 0.59421(8) -0.1149(5) 0.45765(8)
H46 H 0.6558(3) -0.0834(3) 0.45735(8)
H47 H 0.6474(4) -0.1677(2) 0.46119(7)
C38 C 0.85934(6) -0.00539(7) 0.70850(7)
H48 H 0.85896(6) 0.03857(7) 0.67927(7)
C39 C 0.91580(6) -0.05031(9) 0.71887(8)
H49 H 0.92192(6) -0.04799(9) 0.67155(8)
H50 H 0.95164(6) -0.02795(9) 0.75886(8)
C40 C 0.91412(7) -0.12891(9) 0.73923(9)
H51 H 0.94276(7) -0.15590(9) 0.72436(9)
H52 H 0.92830(7) -0.13305(9) 0.79456(9)
C41 C 0.85121(7) -0.16278(8) 0.70168(8)
H53 H 0.84111(7) -0.16876(8) 0.64728(8)
H54 H 0.85255(7) -0.21078(8) 0.72339(8)
C42 C 0.80014(6) -0.11916(7) 0.71083(7)
H55 H 0.76075(6) -0.14509(7) 0.68564(7)
C43 C 0.81162(6) -0.10454(7) 0.79399(7)
H56 H 0.77263(6) -0.09028(7) 0.79558(7)
H57 H 0.82439(6) -0.14972(7) 0.82236(7)
C44 C 0.85925(6) -0.04728(8) 0.83513(7)
H58 H 0.85217(6) -0.02991(8) 0.87896(7)
H59 H 0.90011(6) -0.06923(8) 0.85447(7)
C45 C 0.85808(6) 0.01634(8) 0.78518(7)
H60 H 0.89353(6) 0.04717(8) 0.81281(7)
H61 H 0.82097(6) 0.04464(8) 0.77528(7)
B1 B 0.79713(6) -0.04678(8) 0.66715(8)
loop_
_geom_bond_atom_site_label_1
_geom_bond_atom_site_label_2
_geom_bond_site_symmetry_1
_geom_bond_site_symmetry_2
N1 C2 1_555 1_555
N2 C2 1_555 1_555
N3 C29 1_555 1_555
N4 C29 1_555 1_555
C1 C2 1_555 1_555
C3 C4 1_555 1_555
C4 H1 1_555 1_555
C5 C4 1_555 1_555
H2 C5 1_555 1_555
C6 C5 1_555 1_555
H3 C6 1_555 1_555
C7 C6 1_555 1_555
C8 N1 1_555 1_555
C9 C3 1_555 1_555
H4 C9 1_555 1_555
C10 C9 1_555 1_555
H5 C10 1_555 1_555
H6 C10 1_555 1_555
H7 C10 1_555 1_555
C11 C9 1_555 1_555
H8 C11 1_555 1_555
H9 C11 1_555 1_555
H10 C11 1_555 1_555
C12 C7 1_555 1_555
H11 C12 1_555 1_555
C13 C12 1_555 1_555
H12 C13 1_555 1_555
H13 C13 1_555 1_555
H14 C13 1_555 1_555
C14 C12 1_555 1_555
H15 C14 1_555 1_555
H16 C14 1_555 1_555
H17 C14 1_555 1_555
C15 N1 1_555 1_555
H18 C15 1_555 1_555
C16 N2 1_555 1_555
H19 C16 1_555 1_555
C17 C18 1_555 1_555
C18 H20 1_555 1_555
C19 C18 1_555 1_555
H21 C19 1_555 1_555
C20 C19 1_555 1_555
H22 C20 1_555 1_555
C21 C20 1_555 1_555
C22 N2 1_555 1_555
C23 C17 1_555 1_555
H23 C23 1_555 1_555
C24 C23 1_555 1_555
H24 C24 1_555 1_555
H25 C24 1_555 1_555
H26 C24 1_555 1_555
C25 C23 1_555 1_555
H27 C25 1_555 1_555
H28 C25 1_555 1_555
H29 C25 1_555 1_555
C26 C21 1_555 1_555
H30 C26 1_555 1_555
C27 C26 1_555 1_555
H31 C27 1_555 1_555
H32 C27 1_555 1_555
H33 C27 1_555 1_555
C28 C26 1_555 1_555
H34 C28 1_555 1_555
H35 C28 1_555 1_555
H36 C28 1_555 1_555
C29 C1 1_555 1_555
H37 C29 1_555 1_555
C30 N3 1_555 1_555
H38 C30 1_555 1_555
H39 C30 1_555 1_555
H40 C30 1_555 1_555
C31 N3 1_555 1_555
C32 C31 1_555 1_555
H41 C32 1_555 1_555
C33 C32 1_555 1_555
H42 C33 1_555 1_555
C34 C33 1_555 1_555
H43 C34 1_555 1_555
C35 C34 1_555 1_555
H44 C35 1_555 1_555
C36 N4 1_555 1_555
C37 N4 1_555 1_555
H45 C37 1_555 1_555
H46 C37 1_555 1_555
H47 C37 1_555 1_555
C38 H48 1_555 1_555
C39 C38 1_555 1_555
H49 C39 1_555 1_555
H50 C39 1_555 1_555
C40 C39 1_555 1_555
H51 C40 1_555 1_555
H52 C40 1_555 1_555
C41 C40 1_555 1_555
H53 C41 1_555 1_555
H54 C41 1_555 1_555
C42 C41 1_555 1_555
H55 C42 1_555 1_555
C43 C42 1_555 1_555
H56 C43 1_555 1_555
H57 C43 1_555 1_555
C44 C43 1_555 1_555
H58 C44 1_555 1_555
H59 C44 1_555 1_555
C45 C38 1_555 1_555
H60 C45 1_555 1_555
H61 C45 1_555 1_555
B1 C1 1_555 1_555
C3 C8 1_555 1_555
C7 C8 1_555 1_555
C15 C16 1_555 1_555
C17 C22 1_555 1_555
C21 C22 1_555 1_555
C31 C36 1_555 1_555
C35 C36 1_555 1_555
C38 B1 1_555 1_555
C42 B1 1_555 1_555
C44 C45 1_555 1_555

#END
