
#######################################################################
#
#                 Cambridge Crystallographic Data Centre
#                                CCDC 
#
#######################################################################
#
# If this CIF has been generated from an entry in the Cambridge 
# Structural Database, then it will include bibliographic, chemical, 
# crystal, experimental, refinement or atomic coordinate data resulting 
# from the CCDC's data processing and validation procedures.
#
#######################################################################

data_ZAFWEL
_chemical_formula_moiety         'C13 H19 N1 O1'
_chemical_name_systematic        
3-(cyclopropylimino)-1,7,7-trimethylbicyclo[2.2.1]heptan-2-one
_symmetry_cell_setting           triclinic
_symmetry_space_group_name_H-M   'P -1'
_symmetry_Int_Tables_number      2
_space_group_name_Hall           '-P 1'
loop_
_symmetry_equiv_pos_site_id
_symmetry_equiv_pos_as_xyz
1 x,y,z
2 -x,-y,-z
_cell_length_a                   6.8086(4)
_cell_length_b                   8.3354(6)
_cell_length_c                   11.1192(8)
_cell_angle_alpha                68.507(5)
_cell_angle_beta                 88.425(6)
_cell_angle_gamma                87.301(5)
_cell_volume                     586.473
_exptl_crystal_colour            colorless
_exptl_crystal_description       plate
_cell_formula_units_Z            2
loop_
_atom_site_label
_atom_site_type_symbol
_atom_site_fract_x
_atom_site_fract_y
_atom_site_fract_z
O1 O 0.13547(13) 0.53585(12) 0.18952(12)
N1 N 0.14623(14) 0.19257(13) 0.17752(10)
C1 C -0.00142(16) 0.44143(15) 0.21552(13)
C2 C -0.20826(16) 0.47771(15) 0.25566(12)
C3 C -0.33337(18) 0.49757(17) 0.13571(13)
H1 H -0.462(2) 0.544(2) 0.1464(15)
H2 H -0.272(3) 0.579(2) 0.0527(17)
C4 C -0.33974(18) 0.31348(17) 0.13480(13)
H3 H -0.283(2) 0.304(2) 0.0508(17)
H4 H -0.477(3) 0.279(2) 0.1455(16)
C5 C -0.21153(16) 0.20619(15) 0.25173(12)
H5 H -0.231(2) 0.082(2) 0.2830(15)
C6 C -0.00367(16) 0.26148(15) 0.21207(12)
C7 C -0.25999(17) 0.29439(16) 0.35024(12)
C8 C -0.1273(3) 0.2279(2) 0.46847(15)
H6 H -0.160(3) 0.105(3) 0.520(2)
H7 H -0.155(3) 0.298(3) 0.5247(19)
H8 H 0.017(3) 0.234(2) 0.4443(18)
C9 C -0.4747(2) 0.2809(2) 0.39525(16)
H9 H -0.570(3) 0.321(2) 0.3247(18)
H10 H -0.502(3) 0.157(3) 0.445(2)
H11 H -0.497(3) 0.350(3) 0.452(2)
C10 C -0.2278(2) 0.6264(2) 0.30190(18)
H12 H -0.357(3) 0.641(3) 0.3265(19)
H13 H -0.145(3) 0.612(3) 0.376(2)
H14 H -0.185(3) 0.740(3) 0.230(2)
C11 C 0.13470(18) 0.02603(17) 0.17143(14)
H15 H 0.010(3) -0.030(2) 0.1966(16)
C12 C 0.3182(2) -0.08761(18) 0.20307(16)
H16 H 0.299(3) -0.208(3) 0.2445(18)
H17 H 0.429(3) -0.039(3) 0.2326(19)
C13 C 0.2574(3) -0.0055(2) 0.06719(16)
H18 H 0.200(3) -0.080(3) 0.0265(19)
H19 H 0.329(3) 0.093(3) 0.0118(19)
loop_
_geom_bond_atom_site_label_1
_geom_bond_atom_site_label_2
_geom_bond_site_symmetry_1
_geom_bond_site_symmetry_2
O1 C1 1_555 1_555
N1 C6 1_555 1_555
C1 C2 1_555 1_555
C2 C3 1_555 1_555
C3 H1 1_555 1_555
H2 C3 1_555 1_555
C4 C3 1_555 1_555
H3 C4 1_555 1_555
H4 C4 1_555 1_555
C5 C4 1_555 1_555
H5 C5 1_555 1_555
C6 C1 1_555 1_555
C7 C2 1_555 1_555
C8 C7 1_555 1_555
H6 C8 1_555 1_555
H7 C8 1_555 1_555
H8 C8 1_555 1_555
C9 C7 1_555 1_555
H9 C9 1_555 1_555
H10 C9 1_555 1_555
H11 C9 1_555 1_555
C10 C2 1_555 1_555
H12 C10 1_555 1_555
H13 C10 1_555 1_555
H14 C10 1_555 1_555
C11 N1 1_555 1_555
H15 C11 1_555 1_555
C12 C11 1_555 1_555
H16 C12 1_555 1_555
H17 C12 1_555 1_555
C13 C11 1_555 1_555
H18 C13 1_555 1_555
H19 C13 1_555 1_555
C5 C6 1_555 1_555
C5 C7 1_555 1_555
C12 C13 1_555 1_555

#END
