
#######################################################################
#
#                 Cambridge Crystallographic Data Centre
#                                CCDC 
#
#######################################################################
#
# If this CIF has been generated from an entry in the Cambridge 
# Structural Database, then it will include bibliographic, chemical, 
# crystal, experimental, refinement or atomic coordinate data resulting 
# from the CCDC's data processing and validation procedures.
#
#######################################################################

data_ZAFWIP
_chemical_formula_moiety         'C14 H23 N1 O1'
_chemical_name_systematic        
3-(t-butylimino)-1,7,7-trimethylbicyclo[2.2.1]heptan-2-one
_symmetry_cell_setting           monoclinic
_symmetry_space_group_name_H-M   'P 21/n'
_symmetry_Int_Tables_number      14
_space_group_name_Hall           '-P 2yn'
loop_
_symmetry_equiv_pos_site_id
_symmetry_equiv_pos_as_xyz
1 x,y,z
2 1/2-x,1/2+y,1/2-z
3 -x,-y,-z
4 1/2+x,1/2-y,1/2+z
_cell_length_a                   11.980(2)
_cell_length_b                   11.824(2)
_cell_length_c                   19.770(4)
_cell_angle_alpha                90
_cell_angle_beta                 102.39(3)
_cell_angle_gamma                90
_cell_volume                     2735.23
_exptl_crystal_colour            colorless
_exptl_crystal_description       plate
_cell_formula_units_Z            8
loop_
_atom_site_label
_atom_site_type_symbol
_atom_site_fract_x
_atom_site_fract_y
_atom_site_fract_z
O1 O 0.3674(2) 0.2527(2) 0.20500(13)
N1 N 0.3373(3) 0.1161(3) 0.32046(17)
C1 C 0.3275(3) 0.1569(3) 0.2000(2)
C2 C 0.2872(3) 0.0900(3) 0.13414(19)
C3 C 0.1874(3) 0.0240(3) 0.1541(2)
C4 C 0.2596(3) -0.0255(3) 0.2224(2)
H1 H 0.2171 -0.0749 0.2493
C5 C 0.3106(3) 0.0820(3) 0.2592(2)
C6 C 0.3593(3) -0.0838(3) 0.1965(2)
H2 H 0.4282 -0.0904 0.2342
H3 H 0.3368 -0.1600 0.1777
C7 C 0.3803(3) -0.0034(3) 0.1392(2)
H4 H 0.3722 -0.0441 0.0946
H5 H 0.4578 0.0299 0.1517
C8 C 0.2649(4) 0.1571(3) 0.0681(2)
H6 H 0.2015 0.2097 0.0678
H7 H 0.2449 0.1056 0.0285
H8 H 0.3336 0.1999 0.0648
C9 C 0.0911(3) 0.1015(4) 0.1674(2)
H9 H 0.1234 0.1594 0.2015
H10 H 0.0351 0.0564 0.1852
H11 H 0.0535 0.1381 0.1240
C10 C 0.1358(4) -0.0668(4) 0.1007(2)
H12 H 0.0858 -0.0306 0.0608
H13 H 0.0913 -0.1206 0.1219
H14 H 0.1974 -0.1071 0.0853
C11 C 0.3243(3) 0.0473(3) 0.3805(2)
C12 C 0.1976(4) 0.0306(4) 0.3802(2)
H15 H 0.1593 0.1043 0.3761
H16 H 0.1899 -0.0058 0.4235
H17 H 0.1626 -0.0172 0.3409
C13 C 0.3818(4) 0.1143(4) 0.4449(2)
H18 H 0.4624 0.1266 0.4441
H19 H 0.3764 0.0717 0.4865
H20 H 0.3435 0.1875 0.4451
C14 C 0.3861(4) -0.0665(3) 0.3814(2)
H21 H 0.3423 -0.1160 0.3455
H22 H 0.3931 -0.1022 0.4268
H23 H 0.4624 -0.0540 0.3723
O2 O 0.8795(2) 0.5176(2) 0.21800(13)
N2 N 0.8500(3) 0.6531(3) 0.33451(16)
C15 C 0.8397(3) 0.6131(3) 0.21326(19)
C16 C 0.8247(3) 0.6877(3) 0.2734(2)
C17 C 0.7750(3) 0.7959(3) 0.2366(2)
H24 H 0.7342 0.8462 0.2640
C18 C 0.6996(3) 0.7463(3) 0.16958(19)
C19 C 0.7978(3) 0.6800(3) 0.14826(19)
C20 C 0.8911(3) 0.7727(3) 0.1513(2)
H25 H 0.9686 0.7392 0.1626
H26 H 0.8809 0.8134 0.1066
C21 C 0.8723(3) 0.8526(3) 0.2094(2)
H27 H 0.9424 0.8586 0.2463
H28 H 0.8498 0.9290 0.1910
C22 C 0.7728(4) 0.6118(3) 0.0824(2)
H29 H 0.8396 0.5655 0.0797
H30 H 0.7556 0.6630 0.0425
H31 H 0.7070 0.5625 0.0821
C23 C 0.6040(3) 0.6702(4) 0.1835(2)
H32 H 0.5628 0.6370 0.1399
H33 H 0.5511 0.7150 0.2041
H34 H 0.6370 0.6096 0.2155
C24 C 0.6463(4) 0.8384(4) 0.1170(2)
H35 H 0.7073 0.8832 0.1040
H36 H 0.5976 0.8879 0.1380
H37 H 0.6003 0.8024 0.0756
C25 C 0.8350(4) 0.7210(3) 0.3944(2)
C26 C 0.8844(4) 0.6497(4) 0.4581(2)
H38 H 0.8416 0.5787 0.4561
H39 H 0.8782 0.6915 0.5000
H40 H 0.9649 0.6332 0.4592
C27 C 0.7077(4) 0.7403(5) 0.3907(2)
H41 H 0.6768 0.7909 0.3519
H42 H 0.6972 0.7747 0.4340
H43 H 0.6673 0.6678 0.3838
C28 C 0.9015(4) 0.8319(4) 0.3989(2)
H44 H 0.9790 0.8169 0.3926
H45 H 0.9054 0.8664 0.4445
H46 H 0.8627 0.8837 0.3627
loop_
_geom_bond_atom_site_label_1
_geom_bond_atom_site_label_2
_geom_bond_site_symmetry_1
_geom_bond_site_symmetry_2
O1 C1 1_555 1_555
N1 C5 1_555 1_555
C1 C2 1_555 1_555
C2 C3 1_555 1_555
C3 C4 1_555 1_555
C4 H1 1_555 1_555
C5 C1 1_555 1_555
C6 C4 1_555 1_555
H2 C6 1_555 1_555
H3 C6 1_555 1_555
C7 C2 1_555 1_555
H4 C7 1_555 1_555
H5 C7 1_555 1_555
C8 C2 1_555 1_555
H6 C8 1_555 1_555
H7 C8 1_555 1_555
H8 C8 1_555 1_555
C9 C3 1_555 1_555
H9 C9 1_555 1_555
H10 C9 1_555 1_555
H11 C9 1_555 1_555
C10 C3 1_555 1_555
H12 C10 1_555 1_555
H13 C10 1_555 1_555
H14 C10 1_555 1_555
C11 N1 1_555 1_555
C12 C11 1_555 1_555
H15 C12 1_555 1_555
H16 C12 1_555 1_555
H17 C12 1_555 1_555
C13 C11 1_555 1_555
H18 C13 1_555 1_555
H19 C13 1_555 1_555
H20 C13 1_555 1_555
C14 C11 1_555 1_555
H21 C14 1_555 1_555
H22 C14 1_555 1_555
H23 C14 1_555 1_555
O2 C15 1_555 1_555
N2 C16 1_555 1_555
C15 C16 1_555 1_555
C16 C17 1_555 1_555
C17 H24 1_555 1_555
C18 C17 1_555 1_555
C19 C15 1_555 1_555
C20 C19 1_555 1_555
H25 C20 1_555 1_555
H26 C20 1_555 1_555
C21 C17 1_555 1_555
H27 C21 1_555 1_555
H28 C21 1_555 1_555
C22 C19 1_555 1_555
H29 C22 1_555 1_555
H30 C22 1_555 1_555
H31 C22 1_555 1_555
C23 C18 1_555 1_555
H32 C23 1_555 1_555
H33 C23 1_555 1_555
H34 C23 1_555 1_555
C24 C18 1_555 1_555
H35 C24 1_555 1_555
H36 C24 1_555 1_555
H37 C24 1_555 1_555
C25 N2 1_555 1_555
C26 C25 1_555 1_555
H38 C26 1_555 1_555
H39 C26 1_555 1_555
H40 C26 1_555 1_555
C27 C25 1_555 1_555
H41 C27 1_555 1_555
H42 C27 1_555 1_555
H43 C27 1_555 1_555
C28 C25 1_555 1_555
H44 C28 1_555 1_555
H45 C28 1_555 1_555
H46 C28 1_555 1_555
C4 C5 1_555 1_555
C6 C7 1_555 1_555
C18 C19 1_555 1_555
C20 C21 1_555 1_555

#END
