
#######################################################################
#
#                 Cambridge Crystallographic Data Centre
#                                CCDC 
#
#######################################################################
#
# If this CIF has been generated from an entry in the Cambridge 
# Structural Database, then it will include bibliographic, chemical, 
# crystal, experimental, refinement or atomic coordinate data resulting 
# from the CCDC's data processing and validation procedures.
#
#######################################################################

data_ZAFWOV
_chemical_formula_moiety         'C11 H15 N1 O1'
_chemical_name_systematic        
3-isocyano-1,7,7-trimethylbicyclo[2.2.1]heptan-2-one
_symmetry_cell_setting           monoclinic
_symmetry_space_group_name_H-M   'P 21'
_symmetry_Int_Tables_number      4
_space_group_name_Hall           'P 2yb'
loop_
_symmetry_equiv_pos_site_id
_symmetry_equiv_pos_as_xyz
1 x,y,z
2 -x,1/2+y,-z
_cell_length_a                   7.0714(5)
_cell_length_b                   7.3622(3)
_cell_length_c                   9.3761(6)
_cell_angle_alpha                90
_cell_angle_beta                 94.730(5)
_cell_angle_gamma                90
_cell_volume                     486.467
_exptl_crystal_colour            colorless
_cell_formula_units_Z            2
loop_
_atom_site_label
_atom_site_type_symbol
_atom_site_fract_x
_atom_site_fract_y
_atom_site_fract_z
O1 O 0.40093(17) 0.3937(2) 0.55813(14)
N1 N 0.7395(2) 0.3756(3) 0.40092(16)
C1 C 0.5599(2) 0.4063(2) 0.61409(18)
C2 C 0.6328(2) 0.3621(3) 0.76592(18)
C3 C 0.7208(3) 0.1709(3) 0.7475(2)
H1 H 0.630(4) 0.085(4) 0.700(3)
H2 H 0.752(4) 0.114(4) 0.848(3)
C4 C 0.8998(3) 0.2079(3) 0.6682(2)
H3 H 1.021(4) 0.166(4) 0.728(3)
H4 H 0.892(4) 0.136(4) 0.571(3)
C5 C 0.8972(2) 0.4151(3) 0.64931(18)
H5 H 1.024(3) 0.466(3) 0.631(2)
C6 C 0.7360(3) 0.4632(2) 0.53668(19)
H6 H 0.729(3) 0.600(4) 0.525(2)
C7 C 0.8118(2) 0.4839(2) 0.78621(19)
C8 C 0.9390(3) 0.4417(3) 0.9217(2)
H7 H 0.975(4) 0.310(4) 0.928(3)
H8 H 1.054(4) 0.509(4) 0.923(3)
H9 H 0.872(4) 0.471(5) 1.014(3)
C9 C 0.7658(3) 0.6869(3) 0.7870(2)
H10 H 0.664(4) 0.722(4) 0.707(3)
H11 H 0.716(4) 0.724(5) 0.883(3)
H12 H 0.887(4) 0.757(4) 0.781(3)
C10 C 0.4850(3) 0.3725(4) 0.8737(2)
H13 H 0.420(5) 0.501(5) 0.874(3)
H14 H 0.549(4) 0.341(4) 0.974(3)
H15 H 0.384(4) 0.286(5) 0.843(3)
C11 C 0.7382(3) 0.3096(4) 0.2888(2)
loop_
_geom_bond_atom_site_label_1
_geom_bond_atom_site_label_2
_geom_bond_site_symmetry_1
_geom_bond_site_symmetry_2
O1 C1 1_555 1_555
N1 C6 1_555 1_555
C1 C2 1_555 1_555
C2 C3 1_555 1_555
C3 H1 1_555 1_555
H2 C3 1_555 1_555
C4 C3 1_555 1_555
H3 C4 1_555 1_555
H4 C4 1_555 1_555
C5 C4 1_555 1_555
H5 C5 1_555 1_555
C6 C1 1_555 1_555
H6 C6 1_555 1_555
C7 C2 1_555 1_555
C8 C7 1_555 1_555
H7 C8 1_555 1_555
H8 C8 1_555 1_555
H9 C8 1_555 1_555
C9 C7 1_555 1_555
H10 C9 1_555 1_555
H11 C9 1_555 1_555
H12 C9 1_555 1_555
C10 C2 1_555 1_555
H13 C10 1_555 1_555
H14 C10 1_555 1_555
H15 C10 1_555 1_555
C11 N1 1_555 1_555
C5 C6 1_555 1_555
C5 C7 1_555 1_555

#END
