
#######################################################################
#
#                 Cambridge Crystallographic Data Centre
#                                CCDC 
#
#######################################################################
#
# If this CIF has been generated from an entry in the Cambridge 
# Structural Database, then it will include bibliographic, chemical, 
# crystal, experimental, refinement or atomic coordinate data resulting 
# from the CCDC's data processing and validation procedures.
#
#######################################################################

data_ZAFZIS
_chemical_formula_moiety         'C38 H56 N3 O1 P1 Si2'
_chemical_name_systematic        
(1,3-diisopropyl-4,5-dimethylimidazol-2-ylidene)-(diphenylphosphino)-((2,6-diisopropylphenyl)imido)-(trimethylsiloxy)-silicon
_symmetry_cell_setting           orthorhombic
_symmetry_space_group_name_H-M   'P c a 21'
_symmetry_Int_Tables_number      29
_space_group_name_Hall           'P 2c -2ac'
loop_
_symmetry_equiv_pos_site_id
_symmetry_equiv_pos_as_xyz
1 x,y,z
2 -x,-y,1/2+z
3 1/2+x,-y,z
4 1/2-x,y,1/2+z
_cell_length_a                   18.700(4)
_cell_length_b                   11.581(3)
_cell_length_c                   17.899(4)
_cell_angle_alpha                90
_cell_angle_beta                 90
_cell_angle_gamma                90
_cell_volume                     3876.29
_exptl_crystal_colour            colorless
_exptl_crystal_description       Prism
_cell_formula_units_Z            4
loop_
_atom_site_label
_atom_site_type_symbol
_atom_site_fract_x
_atom_site_fract_y
_atom_site_fract_z
P1 P 0.48985(2) 0.17942(3) 1.14025(2)
O1 O 0.56215(5) 0.30754(8) 1.00184(6)
Si1 Si 0.52357(2) 0.18291(3) 1.01852(2)
Si2 Si 0.64151(2) 0.36404(3) 0.98541(3)
N1 N 0.56870(6) 0.06983(10) 0.99766(7)
N2 N 0.38664(7) 0.09587(10) 0.96461(7)
N3 N 0.39856(7) 0.27393(11) 0.92986(8)
C1 C 0.57744(8) -0.02463(12) 0.95293(8)
C2 C 0.59190(8) -0.13458(12) 0.98609(9)
C3 C 0.60130(9) -0.23183(13) 0.94162(9)
H1 H 0.6113 -0.3039 0.9647
C4 C 0.59638(8) -0.22622(14) 0.86445(9)
H2 H 0.6025 -0.2936 0.8348
C5 C 0.58237(8) -0.12062(13) 0.83141(8)
H3 H 0.5790 -0.1163 0.7785
C6 C 0.57301(7) -0.02024(12) 0.87349(8)
C7 C 0.59725(11) -0.14564(14) 1.07096(9)
H4 H 0.5827 -0.0699 1.0930
C8 C 0.67309(13) -0.1691(2) 1.09518(12)
H5 H 0.6750 -0.1745 1.1498
H6 H 0.7041 -0.1061 1.0783
H7 H 0.6894 -0.2420 1.0732
C9 C 0.54640(12) -0.23723(17) 1.10111(10)
H8 H 0.4969 -0.2136 1.0916
H9 H 0.5538 -0.2460 1.1550
H10 H 0.5558 -0.3110 1.0761
C10 C 0.55761(9) 0.09238(13) 0.83274(8)
H11 H 0.5556 0.1554 0.8709
C11 C 0.61686(11) 0.12230(16) 0.77730(11)
H12 H 0.6633 0.1180 0.8025
H13 H 0.6094 0.2007 0.7582
H14 H 0.6159 0.0674 0.7357
C12 C 0.48524(10) 0.08916(15) 0.79248(9)
H15 H 0.4866 0.0308 0.7529
H16 H 0.4753 0.1650 0.7705
H17 H 0.4475 0.0696 0.8283
C13 C 0.43046(8) 0.18881(12) 0.96996(8)
C14 C 0.32730(8) 0.12229(14) 0.92061(9)
C15 C 0.33516(8) 0.23380(15) 0.89867(10)
C16 C 0.40090(8) -0.01699(12) 1.00226(9)
H18 H 0.4499 -0.0118 1.0243
C17 C 0.40185(9) -0.11797(14) 0.94714(10)
H19 H 0.3529 -0.1347 0.9308
H20 H 0.4220 -0.1863 0.9716
H21 H 0.4312 -0.0976 0.9037
C18 C 0.34957(9) -0.03527(14) 1.06660(10)
H22 H 0.3516 0.0313 1.1003
H23 H 0.3630 -0.1053 1.0940
H24 H 0.3009 -0.0437 1.0472
C19 C 0.26831(9) 0.04130(15) 0.90010(11)
H25 H 0.2272 0.0855 0.8819
H26 H 0.2542 -0.0035 0.9442
H27 H 0.2848 -0.0113 0.8608
C20 C 0.28731(11) 0.30014(17) 0.84632(13)
H28 H 0.2438 0.2553 0.8366
H29 H 0.3125 0.3141 0.7992
H30 H 0.2744 0.3742 0.8691
C21 C 0.42637(9) 0.39397(13) 0.92524(10)
H31 H 0.4712 0.3959 0.9557
C22 C 0.44786(10) 0.42487(16) 0.84569(12)
H32 H 0.4785 0.3639 0.8253
H33 H 0.4741 0.4982 0.8458
H34 H 0.4049 0.4325 0.8147
C23 C 0.37495(12) 0.47966(15) 0.96120(11)
H35 H 0.3333 0.4903 0.9287
H36 H 0.3992 0.5539 0.9682
H37 H 0.3593 0.4499 1.0098
C24 C 0.63541(10) 0.44687(16) 0.89606(12)
H38 H 0.6226 0.3943 0.8553
H39 H 0.6817 0.4829 0.8853
H40 H 0.5987 0.5069 0.9008
C25 C 0.71153(9) 0.25168(15) 0.97482(11)
H41 H 0.7169 0.2096 1.0220
H42 H 0.7570 0.2884 0.9616
H43 H 0.6976 0.1977 0.9353
C26 C 0.66434(10) 0.45987(15) 1.06487(12)
H44 H 0.6253 0.5149 1.0731
H45 H 0.7084 0.5021 1.0535
H46 H 0.6714 0.4133 1.1100
C27 C 0.57443(8) 0.21199(13) 1.18795(8)
C28 C 0.63804(9) 0.16178(14) 1.16360(9)
H47 H 0.6379 0.1136 1.1207
C29 C 0.70190(9) 0.18163(15) 1.20168(9)
H48 H 0.7448 0.1468 1.1844
C30 C 0.70344(9) 0.25174(14) 1.26449(9)
H49 H 0.7473 0.2673 1.2894
C31 C 0.64009(10) 0.29864(14) 1.29026(10)
H50 H 0.6403 0.3449 1.3341
C32 C 0.57642(9) 0.27897(14) 1.25302(9)
H51 H 0.5334 0.3114 1.2719
C33 C 0.43764(8) 0.31331(12) 1.15158(8)
C34 C 0.46662(9) 0.42469(14) 1.15067(9)
H52 H 0.5163 0.4349 1.1418
C35 C 0.42335(10) 0.52077(15) 1.16259(10)
H53 H 0.4440 0.5957 1.1636
C36 C 0.35024(10) 0.50796(15) 1.17300(10)
H54 H 0.3209 0.5738 1.1806
C37 C 0.32050(9) 0.39897(16) 1.17223(10)
H55 H 0.2704 0.3896 1.1784
C38 C 0.36410(9) 0.30259(14) 1.16238(9)
H56 H 0.3432 0.2278 1.1630
loop_
_geom_bond_atom_site_label_1
_geom_bond_atom_site_label_2
_geom_bond_site_symmetry_1
_geom_bond_site_symmetry_2
P1 Si1 1_555 1_555
O1 Si1 1_555 1_555
Si1 N1 1_555 1_555
Si2 O1 1_555 1_555
N1 C1 1_555 1_555
N2 C13 1_555 1_555
N3 C13 1_555 1_555
C1 C2 1_555 1_555
C2 C3 1_555 1_555
C3 H1 1_555 1_555
C4 C3 1_555 1_555
H2 C4 1_555 1_555
C5 C4 1_555 1_555
H3 C5 1_555 1_555
C6 C1 1_555 1_555
C7 C2 1_555 1_555
H4 C7 1_555 1_555
C8 C7 1_555 1_555
H5 C8 1_555 1_555
H6 C8 1_555 1_555
H7 C8 1_555 1_555
C9 C7 1_555 1_555
H8 C9 1_555 1_555
H9 C9 1_555 1_555
H10 C9 1_555 1_555
C10 C6 1_555 1_555
H11 C10 1_555 1_555
C11 C10 1_555 1_555
H12 C11 1_555 1_555
H13 C11 1_555 1_555
H14 C11 1_555 1_555
C12 C10 1_555 1_555
H15 C12 1_555 1_555
H16 C12 1_555 1_555
H17 C12 1_555 1_555
C13 Si1 1_555 1_555
C14 N2 1_555 1_555
C15 N3 1_555 1_555
C16 N2 1_555 1_555
H18 C16 1_555 1_555
C17 C16 1_555 1_555
H19 C17 1_555 1_555
H20 C17 1_555 1_555
H21 C17 1_555 1_555
C18 C16 1_555 1_555
H22 C18 1_555 1_555
H23 C18 1_555 1_555
H24 C18 1_555 1_555
C19 C14 1_555 1_555
H25 C19 1_555 1_555
H26 C19 1_555 1_555
H27 C19 1_555 1_555
C20 C15 1_555 1_555
H28 C20 1_555 1_555
H29 C20 1_555 1_555
H30 C20 1_555 1_555
C21 N3 1_555 1_555
H31 C21 1_555 1_555
C22 C21 1_555 1_555
H32 C22 1_555 1_555
H33 C22 1_555 1_555
H34 C22 1_555 1_555
C23 C21 1_555 1_555
H35 C23 1_555 1_555
H36 C23 1_555 1_555
H37 C23 1_555 1_555
C24 Si2 1_555 1_555
H38 C24 1_555 1_555
H39 C24 1_555 1_555
H40 C24 1_555 1_555
C25 Si2 1_555 1_555
H41 C25 1_555 1_555
H42 C25 1_555 1_555
H43 C25 1_555 1_555
C26 Si2 1_555 1_555
H44 C26 1_555 1_555
H45 C26 1_555 1_555
H46 C26 1_555 1_555
C27 P1 1_555 1_555
C28 C27 1_555 1_555
H47 C28 1_555 1_555
C29 C28 1_555 1_555
H48 C29 1_555 1_555
C30 C29 1_555 1_555
H49 C30 1_555 1_555
C31 C30 1_555 1_555
H50 C31 1_555 1_555
C32 C27 1_555 1_555
H51 C32 1_555 1_555
C33 P1 1_555 1_555
C34 C33 1_555 1_555
H52 C34 1_555 1_555
C35 C34 1_555 1_555
H53 C35 1_555 1_555
C36 C35 1_555 1_555
H54 C36 1_555 1_555
C37 C36 1_555 1_555
H55 C37 1_555 1_555
C38 C33 1_555 1_555
H56 C38 1_555 1_555
C5 C6 1_555 1_555
C14 C15 1_555 1_555
C31 C32 1_555 1_555
C37 C38 1_555 1_555

#END
