
#######################################################################
#
#                 Cambridge Crystallographic Data Centre
#                                CCDC 
#
#######################################################################
#
# If this CIF has been generated from an entry in the Cambridge 
# Structural Database, then it will include bibliographic, chemical, 
# crystal, experimental, refinement or atomic coordinate data resulting 
# from the CCDC's data processing and validation procedures.
#
#######################################################################

data_ZAGDAP
_chemical_formula_moiety         'C32 H37 K1 O7,0.5(C6 H6)'
_chemical_name_systematic        
'(2-(9-anthryl)phenolato)-(18-crown-6)-potassium benzene solvate'
_symmetry_cell_setting           monoclinic
_symmetry_space_group_name_H-M   'C 2/c'
_symmetry_Int_Tables_number      15
_space_group_name_Hall           '-C 2yn'
loop_
_symmetry_equiv_pos_site_id
_symmetry_equiv_pos_as_xyz
1 x,y,z
2 -x,y,1/2-z
3 1/2+x,1/2+y,z
4 1/2-x,1/2+y,1/2-z
5 -x,-y,-z
6 x,-y,1/2+z
7 1/2-x,1/2-y,-z
8 1/2+x,1/2-y,1/2+z
_cell_length_a                   20.5706(10)
_cell_length_b                   10.8792(5)
_cell_length_c                   28.0601(16)
_cell_angle_alpha                90
_cell_angle_beta                 91.238(6)
_cell_angle_gamma                90
_cell_volume                     6278.15
_exptl_crystal_colour            'dark yellow'
_exptl_crystal_description       block
_cell_formula_units_Z            8
_chemical_properties_physical    
'Air-sensitive, Moisture-sensitive, Efflorescent, Oxygen-sensitive'
_exptl_crystal_recrystallization_method Benzene
loop_
_atom_site_label
_atom_site_type_symbol
_atom_site_fract_x
_atom_site_fract_y
_atom_site_fract_z
K1 K 0.34012(3) 0.90015(5) 0.11030(2)
O1 O 0.22373(8) 0.81492(16) 0.11499(6)
O2 O 0.37485(8) 0.68064(15) 0.06204(6)
O3 O 0.39651(8) 0.70582(16) 0.16016(6)
O4 O 0.41700(8) 0.94039(16) 0.19757(6)
O5 O 0.35470(8) 1.14309(16) 0.14938(6)
O6 O 0.33959(8) 1.12270(16) 0.04989(6)
O7 O 0.32544(8) 0.88703(15) 0.01124(6)
C1 C 0.17225(12) 0.8473(2) 0.13715(9)
C2 C 0.15486(13) 0.9735(2) 0.14340(10)
H1 H 0.1820 1.0350 0.1303
C3 C 0.10084(14) 1.0097(2) 0.16746(10)
H2 H 0.0914 1.0949 0.1703
C4 C 0.05972(13) 0.9243(2) 0.18770(10)
H3 H 0.0229 0.9495 0.2050
C5 C 0.07423(12) 0.8007(2) 0.18175(9)
H4 H 0.0461 0.7413 0.1951
C6 C 0.12814(11) 0.7598(2) 0.15713(9)
C7 C 0.13910(11) 0.6241(2) 0.15211(9)
C8 C 0.09381(12) 0.5511(2) 0.12654(9)
C9 C 0.03966(11) 0.6009(3) 0.10060(9)
H5 H 0.0332 0.6873 0.1009
C10 C -0.00320(12) 0.5294(3) 0.07543(10)
H6 H -0.0383 0.5664 0.0582
C11 C 0.00447(13) 0.3993(3) 0.07485(10)
H7 H -0.0258 0.3492 0.0577
C12 C 0.05539(13) 0.3477(3) 0.09894(10)
H8 H 0.0603 0.2609 0.0984
C13 C 0.10172(12) 0.4195(2) 0.12498(9)
C14 C 0.15485(12) 0.3661(2) 0.14845(9)
H9 H 0.1605 0.2795 0.1467
C15 C 0.19988(12) 0.4354(2) 0.17432(9)
C16 C 0.25135(12) 0.3804(2) 0.20202(9)
H10 H 0.2570 0.2938 0.2008
C17 C 0.29215(13) 0.4477(2) 0.22988(10)
H11 H 0.3252 0.4085 0.2485
C18 C 0.28514(12) 0.5777(2) 0.23108(10)
H12 H 0.3138 0.6252 0.2507
C19 C 0.23815(11) 0.6352(2) 0.20456(9)
H13 H 0.2356 0.7224 0.2051
C20 C 0.19256(12) 0.5676(2) 0.17587(9)
C21 C 0.33352(13) 0.6718(2) 0.02047(10)
H14 H 0.2874 0.6734 0.0298
H15 H 0.3417 0.5934 0.0037
C22 C 0.36403(16) 0.5832(3) 0.09480(11)
H16 H 0.3709(12) 0.5047(18) 0.0778(9)
H17 H 0.3185(9) 0.589(3) 0.1048(10)
C23 C 0.41136(14) 0.5958(2) 0.13539(10)
H18 H 0.4081 0.5243 0.1570
H19 H 0.4563 0.5995 0.1234
C24 C 0.43825(13) 0.7257(3) 0.20026(10)
H20 H 0.4831 0.7418 0.1898
H21 H 0.4389 0.6522 0.2211
C25 C 0.41260(14) 0.8347(2) 0.22678(10)
H22 H 0.3667 0.8203 0.2352
H23 H 0.4383 0.8471 0.2566
C26 C 0.39187(14) 1.0460(2) 0.22091(10)
H24 H 0.4161 1.0601 0.2513
H25 H 0.3455 1.0328 0.2282
C27 C 0.39845(14) 1.1550(3) 0.18924(10)
H26 H 0.3885 1.2309 0.2071
H27 H 0.4437 1.1609 0.1781
C28 C 0.35906(14) 1.2458(2) 0.11826(10)
H28 H 0.4044 1.2560 0.1079
H29 H 0.3460 1.3216 0.1350
C29 C 0.31519(13) 1.2245(2) 0.07602(10)
H30 H 0.2705 1.2069 0.0865
H31 H 0.3138 1.2988 0.0556
C30 C 0.30304(13) 1.0999(2) 0.00694(10)
H32 H 0.3040 1.1733 -0.0139
H33 H 0.2572 1.0822 0.0144
C31 C 0.33217(13) 0.9925(2) -0.01795(9)
H34 H 0.3097 0.9792 -0.0491
H35 H 0.3787 1.0082 -0.0238
C32 C 0.34720(12) 0.7773(2) -0.01168(9)
H36 H 0.3944 0.7825 -0.0176
H37 H 0.3239 0.7663 -0.0426
C33 C 0.0236(2) 0.9443(4) 0.04153(14)
H38 H 0.0398 0.9059 0.0698
C34 C -0.0245(2) 0.8896(3) 0.01427(15)
H39 H -0.0420 0.8131 0.0240
C35 C 0.04789(18) 1.0557(4) 0.02712(14)
H40 H 0.0809 1.0953 0.0457
C33D C -0.0236(2) 1.0557(4) -0.04153(14)
H38D H -0.0398 1.0941 -0.0698
C34D C 0.0245(2) 1.1104(3) -0.01427(15)
H39D H 0.0420 1.1869 -0.0240
C35D C -0.04789(18) 0.9443(4) -0.02712(14)
H40D H -0.0809 0.9047 -0.0457
loop_
_geom_bond_atom_site_label_1
_geom_bond_atom_site_label_2
_geom_bond_site_symmetry_1
_geom_bond_site_symmetry_2
K1 O1 1_555 1_555
O1 C1 1_555 1_555
O2 K1 1_555 1_555
O3 K1 1_555 1_555
O4 K1 1_555 1_555
O5 K1 1_555 1_555
O6 K1 1_555 1_555
O7 K1 1_555 1_555
C1 C2 1_555 1_555
C2 H1 1_555 1_555
C3 C2 1_555 1_555
H2 C3 1_555 1_555
C4 C3 1_555 1_555
H3 C4 1_555 1_555
C5 C4 1_555 1_555
H4 C5 1_555 1_555
C6 C1 1_555 1_555
C7 C6 1_555 1_555
C8 C7 1_555 1_555
C9 C8 1_555 1_555
H5 C9 1_555 1_555
C10 C9 1_555 1_555
H6 C10 1_555 1_555
C11 C10 1_555 1_555
H7 C11 1_555 1_555
C12 C11 1_555 1_555
H8 C12 1_555 1_555
C13 C8 1_555 1_555
C14 C13 1_555 1_555
H9 C14 1_555 1_555
C15 C14 1_555 1_555
C16 C15 1_555 1_555
H10 C16 1_555 1_555
C17 C16 1_555 1_555
H11 C17 1_555 1_555
C18 C17 1_555 1_555
H12 C18 1_555 1_555
C19 C18 1_555 1_555
H13 C19 1_555 1_555
C20 C7 1_555 1_555
C21 O2 1_555 1_555
H14 C21 1_555 1_555
H15 C21 1_555 1_555
C22 O2 1_555 1_555
H16 C22 1_555 1_555
H17 C22 1_555 1_555
C23 O3 1_555 1_555
H18 C23 1_555 1_555
H19 C23 1_555 1_555
C24 O3 1_555 1_555
H20 C24 1_555 1_555
H21 C24 1_555 1_555
C25 O4 1_555 1_555
H22 C25 1_555 1_555
H23 C25 1_555 1_555
C26 O4 1_555 1_555
H24 C26 1_555 1_555
H25 C26 1_555 1_555
C27 O5 1_555 1_555
H26 C27 1_555 1_555
H27 C27 1_555 1_555
C28 O5 1_555 1_555
H28 C28 1_555 1_555
H29 C28 1_555 1_555
C29 O6 1_555 1_555
H30 C29 1_555 1_555
H31 C29 1_555 1_555
C30 O6 1_555 1_555
H32 C30 1_555 1_555
H33 C30 1_555 1_555
C31 O7 1_555 1_555
H34 C31 1_555 1_555
H35 C31 1_555 1_555
C32 O7 1_555 1_555
H36 C32 1_555 1_555
H37 C32 1_555 1_555
C33 H38 1_555 1_555
C34 C33 1_555 1_555
H39 C34 1_555 1_555
C35 C33 1_555 1_555
H40 C35 1_555 1_555
C33D H38D 1_555 1_555
C34D C35 1_555 1_555
H39D C34D 1_555 1_555
C35D C34 1_555 1_555
H40D C35D 1_555 1_555
C5 C6 1_555 1_555
C12 C13 1_555 1_555
C15 C20 1_555 1_555
C19 C20 1_555 1_555
C21 C32 1_555 1_555
C22 C23 1_555 1_555
C24 C25 1_555 1_555
C26 C27 1_555 1_555
C28 C29 1_555 1_555
C30 C31 1_555 1_555
C33D C34D 1_555 1_555
C33D C35D 1_555 1_555

#END
