
#######################################################################
#
#                 Cambridge Crystallographic Data Centre
#                                CCDC 
#
#######################################################################
#
# If this CIF has been generated from an entry in the Cambridge 
# Structural Database, then it will include bibliographic, chemical, 
# crystal, experimental, refinement or atomic coordinate data resulting 
# from the CCDC's data processing and validation procedures.
#
#######################################################################

data_ZAGGAS
_chemical_formula_moiety         'C38 H27 N1 O7,1.5(C4 H10 O1)'
_chemical_name_systematic        
"3'-(diethylamino)-11'-hydroxy-3H,3''H-dispiro[2-benzofuran-1,14'-chromeno[2,3-a]xanthene-8',1''-[2]benzofuran]-3,3''-dione diethyl ether solvate"
_symmetry_cell_setting           triclinic
_symmetry_space_group_name_H-M   'P -1'
_symmetry_Int_Tables_number      2
_space_group_name_Hall           '-P 1'
loop_
_symmetry_equiv_pos_site_id
_symmetry_equiv_pos_as_xyz
1 x,y,z
2 -x,-y,-z
_cell_length_a                   8.2867(2)
_cell_length_b                   9.9403(3)
_cell_length_c                   23.3563(16)
_cell_angle_alpha                89.016(6)
_cell_angle_beta                 86.264(6)
_cell_angle_gamma                73.891(5)
_cell_volume                     1844.44
_exptl_crystal_colour            colorless
_exptl_crystal_description       prism
_cell_formula_units_Z            2
loop_
_atom_site_label
_atom_site_type_symbol
_atom_site_fract_x
_atom_site_fract_y
_atom_site_fract_z
C1 C 0.6271(10) 0.1704(8) 0.1163(3)
C2 C 0.8106(11) 0.1440(8) 0.1019(3)
C3 C 0.9216(12) 0.0274(9) 0.0763(4)
H1 H 0.8862 -0.0503 0.0644
C4 C 1.0877(12) 0.0306(9) 0.0690(4)
H2 H 1.1692 -0.0465 0.0512
C5 C 1.1377(12) 0.1453(10) 0.0873(4)
H3 H 1.2530 0.1436 0.0829
C6 C 1.0210(11) 0.2622(9) 0.1120(4)
H4 H 1.0534 0.3423 0.1227
C7 C 0.8558(10) 0.2569(8) 0.1203(3)
C8 C 0.7048(11) 0.3646(9) 0.1476(4)
C9 C 0.6596(11) 0.5019(8) 0.1172(4)
C10 C 0.6462(12) 0.5105(9) 0.0581(4)
H5 H 0.6649 0.4262 0.0369
C11 C 0.6071(12) 0.6359(9) 0.0291(4)
H6 H 0.5996 0.6382 -0.0114
C12 C 0.5784(12) 0.7602(9) 0.0604(4)
C13 C 0.5888(12) 0.7567(9) 0.1190(4)
H7 H 0.5678 0.8411 0.1402
C14 C 0.6303(12) 0.6285(9) 0.1464(4)
C15 C 0.6825(11) 0.5142(8) 0.2358(4)
C16 C 0.7187(11) 0.3830(8) 0.2112(3)
C17 C 0.7649(12) 0.2656(9) 0.2469(4)
H8 H 0.7911 0.1745 0.2306
C18 C 0.7729(11) 0.2795(9) 0.3047(4)
H9 H 0.8053 0.1992 0.3285
C19 C 0.7324(11) 0.4150(8) 0.3285(4)
C20 C 0.6882(10) 0.5336(8) 0.2951(4)
C21 C 0.6472(11) 0.6788(8) 0.3210(4)
C22 C 0.4959(11) 0.7857(9) 0.2989(3)
C23 C 0.3308(11) 0.7853(9) 0.3012(4)
H10 H 0.2951 0.7123 0.3203
C24 C 0.2129(11) 0.8980(8) 0.2742(4)
H11 H 0.0984 0.8977 0.2736
C25 C 0.2649(11) 1.0068(9) 0.2490(4)
H12 H 0.1854 1.0826 0.2322
C26 C 0.4330(11) 1.0061(9) 0.2480(4)
H13 H 0.4698 1.0800 0.2302
C27 C 0.5459(10) 0.8951(8) 0.2735(3)
C28 C 0.7296(11) 0.8637(8) 0.2740(4)
C29 C 0.6408(11) 0.6691(9) 0.3854(4)
C30 C 0.5872(12) 0.7900(9) 0.4202(4)
H14 H 0.5501 0.8788 0.4022
C31 C 0.5864(12) 0.7848(9) 0.4792(4)
H15 H 0.5495 0.8694 0.5006
C32 C 0.6397(11) 0.6554(9) 0.5086(4)
C33 C 0.6923(11) 0.5346(9) 0.4743(4)
H16 H 0.7290 0.4455 0.4920
C34 C 0.6913(11) 0.5435(8) 0.4148(4)
C35 C 0.6979(11) 0.5169(10) 0.5973(4)
H17 H 0.6602 0.4435 0.5784
H18 H 0.6480 0.5270 0.6372
C36 C 0.8927(12) 0.4688(10) 0.5986(4)
H19 H 0.9430 0.4502 0.5594
H20 H 0.9264 0.3833 0.6215
H21 H 0.9316 0.5427 0.6157
C37 C 0.5987(13) 0.7769(9) 0.6018(4)
H22 H 0.5698 0.7544 0.6420
H23 H 0.4983 0.8449 0.5874
C38 C 0.7416(14) 0.8463(10) 0.6015(4)
H24 H 0.8381 0.7837 0.6194
H25 H 0.7036 0.9344 0.6230
H26 H 0.7749 0.8654 0.5618
N1 N 0.6362(9) 0.6482(7) 0.5674(3)
O1 O 0.5326(8) 0.0982(6) 0.1073(3)
O2 O 0.5657(7) 0.2972(6) 0.1416(3)
O3 O 0.5420(9) 0.8825(6) 0.0295(3)
O4 O 0.6422(8) 0.6352(6) 0.2047(2)
O5 O 0.7875(7) 0.7402(6) 0.3022(2)
O6 O 0.8232(8) 0.9284(7) 0.2547(3)
O7 O 0.7433(8) 0.4163(6) 0.3870(2)
C39 C 0.1922(15) 0.4103(12) 0.2404(5)
H27 H 0.0844 0.3887 0.2382
H28 H 0.2142 0.4190 0.2807
H29 H 0.2825 0.3348 0.2222
C40 C 0.1856(14) 0.5460(11) 0.2097(5)
H30 H 0.1135 0.6254 0.2327
H31 H 0.3000 0.5585 0.2046
C41 C 0.1265(15) 0.6594(12) 0.1192(5)
H32 H 0.2447 0.6627 0.1130
H33 H 0.0603 0.7479 0.1380
C42 C 0.0576(15) 0.6438(11) 0.0635(4)
H34 H 0.1079 0.5485 0.0489
H35 H 0.0842 0.7112 0.0359
H36 H -0.0647 0.6613 0.0688
O8 O 0.1186(9) 0.5435(7) 0.1550(3)
O9 O 1.0000 1.0000 0.5000
C43 C 0.9256(16) 0.9507(12) 0.4086(5)
H37 H 0.8799 1.0515 0.4156
H38 H 0.8329 0.9077 0.4074
H39 H 0.9926 0.9354 0.3720
C44 C 1.034(2) 0.8863(17) 0.4558(7)
H40 H 1.1547 0.8584 0.4421
H41 H 1.0038 0.8029 0.4715
C43A C 1.0744(16) 1.0493(12) 0.5914(5)
H37A H 1.1201 0.9485 0.5844
H38A H 1.1671 1.0923 0.5926
H39A H 1.0074 1.0646 0.6280
C44A C 0.966(2) 1.1137(17) 0.5442(7)
H40A H 0.8453 1.1416 0.5579
H41A H 0.9962 1.1971 0.5285
H42? H 0.8434 0.9761 0.3792
H43? H 0.9232 0.8604 0.4256
H44? H 1.0384 0.9438 0.3912
C45? C 0.883(3) 1.0608(19) 0.4545(7)
H45? H 0.9011 1.1497 0.4398
H46? H 0.7639 1.0785 0.4694
loop_
_geom_bond_atom_site_label_1
_geom_bond_atom_site_label_2
_geom_bond_site_symmetry_1
_geom_bond_site_symmetry_2
C1 C2 1_555 1_555
C2 C3 1_555 1_555
C3 H1 1_555 1_555
C4 C3 1_555 1_555
H2 C4 1_555 1_555
C5 C4 1_555 1_555
H3 C5 1_555 1_555
C6 C5 1_555 1_555
H4 C6 1_555 1_555
C7 C2 1_555 1_555
C8 C7 1_555 1_555
C9 C8 1_555 1_555
C10 C9 1_555 1_555
H5 C10 1_555 1_555
C11 C10 1_555 1_555
H6 C11 1_555 1_555
C12 C11 1_555 1_555
C13 C12 1_555 1_555
H7 C13 1_555 1_555
C14 C9 1_555 1_555
C15 C16 1_555 1_555
C16 C8 1_555 1_555
C17 C16 1_555 1_555
H8 C17 1_555 1_555
C18 C17 1_555 1_555
H9 C18 1_555 1_555
C19 C18 1_555 1_555
C20 C15 1_555 1_555
C21 C20 1_555 1_555
C22 C21 1_555 1_555
C23 C22 1_555 1_555
H10 C23 1_555 1_555
C24 C23 1_555 1_555
H11 C24 1_555 1_555
C25 C24 1_555 1_555
H12 C25 1_555 1_555
C26 C25 1_555 1_555
H13 C26 1_555 1_555
C27 C22 1_555 1_555
C28 C27 1_555 1_555
C29 C21 1_555 1_555
C30 C29 1_555 1_555
H14 C30 1_555 1_555
C31 C30 1_555 1_555
H15 C31 1_555 1_555
C32 C31 1_555 1_555
C33 C32 1_555 1_555
H16 C33 1_555 1_555
C34 C29 1_555 1_555
C35 H17 1_555 1_555
H18 C35 1_555 1_555
C36 C35 1_555 1_555
H19 C36 1_555 1_555
H20 C36 1_555 1_555
H21 C36 1_555 1_555
C37 H22 1_555 1_555
H23 C37 1_555 1_555
C38 C37 1_555 1_555
H24 C38 1_555 1_555
H25 C38 1_555 1_555
H26 C38 1_555 1_555
N1 C32 1_555 1_555
O1 C1 1_555 1_555
O2 C1 1_555 1_555
O3 C12 1_555 1_555
O4 C14 1_555 1_555
O5 C21 1_555 1_555
O6 C28 1_555 1_555
O7 C19 1_555 1_555
C39 H27 1_555 1_555
H28 C39 1_555 1_555
H29 C39 1_555 1_555
C40 C39 1_555 1_555
H30 C40 1_555 1_555
H31 C40 1_555 1_555
C41 H32 1_555 1_555
H33 C41 1_555 1_555
C42 C41 1_555 1_555
H34 C42 1_555 1_555
H35 C42 1_555 1_555
H36 C42 1_555 1_555
O8 C40 1_555 1_555
O9 C44 1_555 1_555
C43 H37 1_555 1_555
H38 C43 1_555 1_555
H39 C43 1_555 1_555
C44 C43 1_555 1_555
H40 C44 1_555 1_555
H41 C44 1_555 1_555
C43A H37A 1_555 1_555
H38A C43A 1_555 1_555
H39A C43A 1_555 1_555
C44A O9 1_555 1_555
H40A C44A 1_555 1_555
H41A C44A 1_555 1_555
C6 C7 1_555 1_555
C8 O2 1_555 1_555
C13 C14 1_555 1_555
C15 O4 1_555 1_555
C19 C20 1_555 1_555
C26 C27 1_555 1_555
C28 O5 1_555 1_555
C33 C34 1_555 1_555
C34 O7 1_555 1_555
C35 N1 1_555 1_555
C37 N1 1_555 1_555
C41 O8 1_555 1_555
C43A C44A 1_555 1_555

#END
