
#######################################################################
#
#                 Cambridge Crystallographic Data Centre
#                                CCDC 
#
#######################################################################
#
# If this CIF has been generated from an entry in the Cambridge 
# Structural Database, then it will include bibliographic, chemical, 
# crystal, experimental, refinement or atomic coordinate data resulting 
# from the CCDC's data processing and validation procedures.
#
#######################################################################

data_ZAGNIH
_chemical_formula_moiety         'C38 H56 N3 P1 Si2'
_chemical_name_systematic        
N-((1,3-Di-isopropyl-4,5-dimethyl-2,3-dihydro-1H-imidazol-2-ylidene)(diphenylphosphino)silyl)-N-(2,6-diisopropylphenyl)-1,1,1-trimethylsilanamine
_symmetry_cell_setting           monoclinic
_symmetry_space_group_name_H-M   'P 21/n'
_symmetry_Int_Tables_number      14
_space_group_name_Hall           '-P 2yn'
loop_
_symmetry_equiv_pos_site_id
_symmetry_equiv_pos_as_xyz
1 x,y,z
2 1/2-x,1/2+y,1/2-z
3 -x,-y,-z
4 1/2+x,1/2-y,1/2+z
_cell_length_a                   12.415(2)
_cell_length_b                   20.760(4)
_cell_length_c                   14.192(2)
_cell_angle_alpha                90
_cell_angle_beta                 93.289(3)
_cell_angle_gamma                90
_cell_volume                     3651.76
_exptl_crystal_colour            red
_exptl_crystal_description       Prism
_cell_formula_units_Z            4
loop_
_atom_site_label
_atom_site_type_symbol
_atom_site_fract_x
_atom_site_fract_y
_atom_site_fract_z
P1 P 0.28678(4) 0.11281(2) 0.60004(3)
Si1 Si 0.27487(4) 0.02972(2) 0.89927(3)
Si2 Si 0.17428(4) 0.08408(2) 0.72316(3)
N1 N 0.24646(12) 0.10046(7) 0.83529(9)
N2 N -0.03673(12) 0.14717(7) 0.72595(10)
N3 N 0.07897(12) 0.22136(7) 0.69581(10)
C1 C 0.27884(14) 0.16069(8) 0.87929(11)
C2 C 0.38067(15) 0.18817(8) 0.86410(12)
C3 C 0.41353(16) 0.24359(9) 0.91313(12)
H1 H 0.4820 0.2619 0.9027
C4 C 0.34821(16) 0.27253(9) 0.97682(13)
H2 H 0.3720 0.3099 1.0106
C5 C 0.24823(16) 0.24640(9) 0.99058(12)
H3 H 0.2033 0.2666 1.0338
C6 C 0.21105(15) 0.19109(8) 0.94293(12)
C7 C 0.45772(15) 0.15831(9) 0.79724(13)
H4 H 0.4180 0.1232 0.7617
C8 C 0.55568(16) 0.12794(10) 0.85051(14)
H5 H 0.5993 0.1618 0.8822
H6 H 0.5993 0.1050 0.8059
H7 H 0.5312 0.0975 0.8976
C9 C 0.49518(16) 0.20718(9) 0.72475(13)
H8 H 0.4321 0.2271 0.6919
H9 H 0.5382 0.1851 0.6789
H10 H 0.5391 0.2405 0.7572
C10 C 0.09914(15) 0.16670(9) 0.96198(12)
H11 H 0.0812 0.1307 0.9170
C11 C 0.09246(17) 0.14049(11) 1.06282(13)
H12 H 0.1441 0.1051 1.0731
H13 H 0.0193 0.1246 1.0713
H14 H 0.1097 0.1750 1.1083
C12 C 0.01333(17) 0.21922(10) 0.94587(14)
H15 H 0.0230 0.2521 0.9952
H16 H -0.0586 0.2001 0.9482
H17 H 0.0207 0.2391 0.8839
C13 C 0.34624(16) 0.04886(9) 1.01607(13)
H18 H 0.4188 0.0651 1.0059
H19 H 0.3517 0.0098 1.0547
H20 H 0.3055 0.0817 1.0486
C14 C 0.36597(17) -0.02515(9) 0.83744(13)
H21 H 0.3303 -0.0391 0.7775
H22 H 0.3828 -0.0629 0.8771
H23 H 0.4329 -0.0024 0.8251
C15 C 0.14995(17) -0.01676(10) 0.92165(14)
H24 H 0.1029 0.0094 0.9594
H25 H 0.1696 -0.0564 0.9559
H26 H 0.1119 -0.0276 0.8613
C16 C 0.07058(14) 0.15726(8) 0.71378(11)
C17 C -0.09347(15) 0.20485(9) 0.71757(12)
C18 C -0.02138(15) 0.25103(9) 0.69718(12)
C19 C -0.08487(15) 0.08205(9) 0.73599(13)
H27 H -0.0242 0.0505 0.7331
C20 C -0.13286(17) 0.07222(11) 0.83140(13)
H28 H -0.0776 0.0807 0.8820
H29 H -0.1583 0.0277 0.8363
H30 H -0.1935 0.1019 0.8373
C21 C -0.16423(16) 0.06628(10) 0.65315(14)
H31 H -0.2307 0.0910 0.6589
H32 H -0.1809 0.0201 0.6535
H33 H -0.1321 0.0775 0.5939
C22 C -0.20933(15) 0.21342(10) 0.73645(14)
H34 H -0.2179 0.2116 0.8046
H35 H -0.2519 0.1790 0.7052
H36 H -0.2345 0.2553 0.7120
C23 C -0.04370(17) 0.32081(9) 0.67803(15)
H37 H -0.1218 0.3283 0.6751
H38 H -0.0148 0.3329 0.6177
H39 H -0.0092 0.3469 0.7288
C24 C 0.18280(15) 0.25310(9) 0.67764(12)
H40 H 0.2401 0.2195 0.6872
C25 C 0.21134(16) 0.30668(9) 0.74761(13)
H41 H 0.1611 0.3427 0.7368
H42 H 0.2851 0.3214 0.7391
H43 H 0.2062 0.2905 0.8120
C26 C 0.18522(17) 0.27497(10) 0.57486(13)
H44 H 0.1614 0.2395 0.5330
H45 H 0.2589 0.2875 0.5615
H46 H 0.1369 0.3119 0.5643
C27 C 0.35598(14) 0.03420(9) 0.59610(12)
C28 C 0.30193(15) -0.02273(9) 0.57163(12)
H47 H 0.2265 -0.0217 0.5560
C29 C 0.35676(16) -0.08091(9) 0.56975(13)
H48 H 0.3191 -0.1192 0.5518
C30 C 0.46632(17) -0.08322(10) 0.59408(13)
H49 H 0.5037 -0.1231 0.5932
C31 C 0.52146(16) -0.02734(9) 0.61963(13)
H50 H 0.5964 -0.0289 0.6371
C32 C 0.46662(15) 0.03098(9) 0.61956(12)
H51 H 0.5051 0.0693 0.6358
C33 C 0.19097(15) 0.10551(9) 0.49537(12)
C34 C 0.22629(16) 0.12793(10) 0.40955(12)
H52 H 0.2968 0.1455 0.4076
C35 C 0.16054(17) 0.12508(10) 0.32695(13)
H53 H 0.1873 0.1393 0.2691
C36 C 0.05686(17) 0.10177(9) 0.32847(13)
H54 H 0.0116 0.1005 0.2722
C37 C 0.01921(16) 0.08018(10) 0.41306(13)
H55 H -0.0524 0.0642 0.4149
C38 C 0.08590(16) 0.08182(9) 0.49507(13)
H56 H 0.0593 0.0664 0.5523
loop_
_geom_bond_atom_site_label_1
_geom_bond_atom_site_label_2
_geom_bond_site_symmetry_1
_geom_bond_site_symmetry_2
P1 Si2 1_555 1_555
Si1 N1 1_555 1_555
Si2 N1 1_555 1_555
N1 C1 1_555 1_555
N2 C16 1_555 1_555
N3 C16 1_555 1_555
C1 C2 1_555 1_555
C2 C3 1_555 1_555
C3 H1 1_555 1_555
C4 C3 1_555 1_555
H2 C4 1_555 1_555
C5 C4 1_555 1_555
H3 C5 1_555 1_555
C6 C1 1_555 1_555
C7 C2 1_555 1_555
H4 C7 1_555 1_555
C8 C7 1_555 1_555
H5 C8 1_555 1_555
H6 C8 1_555 1_555
H7 C8 1_555 1_555
C9 C7 1_555 1_555
H8 C9 1_555 1_555
H9 C9 1_555 1_555
H10 C9 1_555 1_555
C10 C6 1_555 1_555
H11 C10 1_555 1_555
C11 C10 1_555 1_555
H12 C11 1_555 1_555
H13 C11 1_555 1_555
H14 C11 1_555 1_555
C12 C10 1_555 1_555
H15 C12 1_555 1_555
H16 C12 1_555 1_555
H17 C12 1_555 1_555
C13 Si1 1_555 1_555
H18 C13 1_555 1_555
H19 C13 1_555 1_555
H20 C13 1_555 1_555
C14 Si1 1_555 1_555
H21 C14 1_555 1_555
H22 C14 1_555 1_555
H23 C14 1_555 1_555
C15 Si1 1_555 1_555
H24 C15 1_555 1_555
H25 C15 1_555 1_555
H26 C15 1_555 1_555
C16 Si2 1_555 1_555
C17 N2 1_555 1_555
C18 N3 1_555 1_555
C19 N2 1_555 1_555
H27 C19 1_555 1_555
C20 C19 1_555 1_555
H28 C20 1_555 1_555
H29 C20 1_555 1_555
H30 C20 1_555 1_555
C21 C19 1_555 1_555
H31 C21 1_555 1_555
H32 C21 1_555 1_555
H33 C21 1_555 1_555
C22 C17 1_555 1_555
H34 C22 1_555 1_555
H35 C22 1_555 1_555
H36 C22 1_555 1_555
C23 C18 1_555 1_555
H37 C23 1_555 1_555
H38 C23 1_555 1_555
H39 C23 1_555 1_555
C24 N3 1_555 1_555
H40 C24 1_555 1_555
C25 C24 1_555 1_555
H41 C25 1_555 1_555
H42 C25 1_555 1_555
H43 C25 1_555 1_555
C26 C24 1_555 1_555
H44 C26 1_555 1_555
H45 C26 1_555 1_555
H46 C26 1_555 1_555
C27 P1 1_555 1_555
C28 C27 1_555 1_555
H47 C28 1_555 1_555
C29 C28 1_555 1_555
H48 C29 1_555 1_555
C30 C29 1_555 1_555
H49 C30 1_555 1_555
C31 C30 1_555 1_555
H50 C31 1_555 1_555
C32 C27 1_555 1_555
H51 C32 1_555 1_555
C33 P1 1_555 1_555
C34 C33 1_555 1_555
H52 C34 1_555 1_555
C35 C34 1_555 1_555
H53 C35 1_555 1_555
C36 C35 1_555 1_555
H54 C36 1_555 1_555
C37 C36 1_555 1_555
H55 C37 1_555 1_555
C38 C33 1_555 1_555
H56 C38 1_555 1_555
C5 C6 1_555 1_555
C17 C18 1_555 1_555
C31 C32 1_555 1_555
C37 C38 1_555 1_555

#END
