
#######################################################################
#
#                 Cambridge Crystallographic Data Centre
#                                CCDC 
#
#######################################################################
#
# If this CIF has been generated from an entry in the Cambridge 
# Structural Database, then it will include bibliographic, chemical, 
# crystal, experimental, refinement or atomic coordinate data resulting 
# from the CCDC's data processing and validation procedures.
#
#######################################################################

data_ZAGWEM
_chemical_name_common            
'N-Benzyl-N-methyl-N,N-bis(2-hydroxyethyl)ammonium chloride'
_chemical_formula_moiety         'C12 H20 N1 O2 1+,Cl1 1-'
_chemical_name_systematic        
'N-Benzyl-2-hydroxy-N-(2-hydroxyethyl)-N-methylethanaminium chloride'
_chemical_properties_biological  'antibacterial activity'
_symmetry_cell_setting           orthorhombic
_symmetry_space_group_name_H-M   'P b c a'
_symmetry_Int_Tables_number      61
_space_group_name_Hall           '-P 2ac 2ab'
loop_
_symmetry_equiv_pos_site_id
_symmetry_equiv_pos_as_xyz
1 x,y,z
2 1/2-x,-y,1/2+z
3 -x,1/2+y,1/2-z
4 1/2+x,1/2-y,-z
5 -x,-y,-z
6 1/2+x,y,1/2-z
7 x,1/2-y,1/2+z
8 1/2-x,1/2+y,z
_cell_length_a                   9.595(4)
_cell_length_b                   9.894(4)
_cell_length_c                   27.420(10)
_cell_angle_alpha                90
_cell_angle_beta                 90
_cell_angle_gamma                90
_cell_volume                     2603.06
_exptl_crystal_colour            colorless
_exptl_crystal_description       block
_cell_formula_units_Z            8
loop_
_atom_site_label
_atom_site_type_symbol
_atom_site_fract_x
_atom_site_fract_y
_atom_site_fract_z
C1 C 1.09784(19) 0.6547(2) 0.38672(7)
H1 H 1.1619 0.6978 0.4086
H2 H 1.1077 0.6929 0.3547
H3 H 1.1175 0.5596 0.3854
C2 C 0.91432(19) 0.82553(18) 0.40445(7)
H4 H 0.9124 0.8570 0.3710
H5 H 0.8211 0.8359 0.4176
C3 C 1.0127(2) 0.9151(2) 0.43329(8)
H6 H 0.9596 0.9867 0.4487
H7 H 1.0560 0.8619 0.4589
C4 C 0.94183(19) 0.61542(18) 0.45546(6)
H8 H 0.9524 0.5182 0.4527
H9 H 1.0198 0.6488 0.4745
C5 C 0.8087(2) 0.6441(2) 0.48344(7)
H10 H 0.7304 0.6355 0.4613
H11 H 0.7980 0.5762 0.5087
C6 C 0.84819(18) 0.59899(19) 0.37176(6)
H12 H 0.8628 0.5028 0.3764
H13 H 0.7542 0.6196 0.3825
C7 C 0.85872(18) 0.62983(19) 0.31815(6)
C8 C 0.7789(2) 0.7317(2) 0.29732(7)
H14 H 0.7187 0.7822 0.3167
C9 C 0.7886(3) 0.7584(3) 0.24768(9)
H15 H 0.7358 0.8275 0.2340
C10 C 0.8757(3) 0.6834(3) 0.21893(9)
H16 H 0.8828 0.7024 0.1858
C11 C 0.9522(3) 0.5805(3) 0.23880(9)
H17 H 1.0100 0.5288 0.2190
C12 C 0.9442(2) 0.5528(2) 0.28823(8)
H18 H 0.9963 0.4824 0.3014
N1 N 0.95137(14) 0.67599(14) 0.40452(5)
O1 O 1.11743(16) 0.97273(17) 0.40394(7)
H19 H 1.1554 0.9133 0.3879
O2 O 0.80375(16) 0.77344(15) 0.50541(5)
H20 H 0.8577 0.7757 0.5286
Cl1 Cl 0.99365(5) 0.26572(5) 0.406345(17)
loop_
_geom_bond_atom_site_label_1
_geom_bond_atom_site_label_2
_geom_bond_site_symmetry_1
_geom_bond_site_symmetry_2
C1 H1 1_555 1_555
H2 C1 1_555 1_555
H3 C1 1_555 1_555
C2 H4 1_555 1_555
H5 C2 1_555 1_555
C3 C2 1_555 1_555
H6 C3 1_555 1_555
H7 C3 1_555 1_555
C4 H8 1_555 1_555
H9 C4 1_555 1_555
C5 C4 1_555 1_555
H10 C5 1_555 1_555
H11 C5 1_555 1_555
C6 H12 1_555 1_555
H13 C6 1_555 1_555
C7 C6 1_555 1_555
C8 C7 1_555 1_555
H14 C8 1_555 1_555
C9 C8 1_555 1_555
H15 C9 1_555 1_555
C10 C9 1_555 1_555
H16 C10 1_555 1_555
C11 C10 1_555 1_555
H17 C11 1_555 1_555
C12 C7 1_555 1_555
H18 C12 1_555 1_555
N1 C1 1_555 1_555
O1 C3 1_555 1_555
H19 O1 1_555 1_555
O2 C5 1_555 1_555
H20 O2 1_555 1_555
C2 N1 1_555 1_555
C4 N1 1_555 1_555
C6 N1 1_555 1_555
C11 C12 1_555 1_555

#END
