
#######################################################################
#
#                 Cambridge Crystallographic Data Centre
#                                CCDC 
#
#######################################################################
#
# If this CIF has been generated from an entry in the Cambridge 
# Structural Database, then it will include bibliographic, chemical, 
# crystal, experimental, refinement or atomic coordinate data resulting 
# from the CCDC's data processing and validation procedures.
#
#######################################################################

data_ZAGXAJ
_chemical_formula_moiety         'C13 H12 N2 O1'
_chemical_name_systematic        
9-Methylene-6,7,8,9-tetrahydro-11H-pyrido[2,1-b]quinazolin-11-one
_symmetry_cell_setting           monoclinic
_symmetry_space_group_name_H-M   'P 21/c'
_symmetry_Int_Tables_number      14
_space_group_name_Hall           '-P 2ybc'
loop_
_symmetry_equiv_pos_site_id
_symmetry_equiv_pos_as_xyz
1 x,y,z
2 -x,1/2+y,1/2-z
3 -x,-y,-z
4 x,1/2-y,1/2+z
_cell_length_a                   11.846(5)
_cell_length_b                   9.163(4)
_cell_length_c                   10.019(4)
_cell_angle_alpha                90
_cell_angle_beta                 103.216(8)
_cell_angle_gamma                90
_cell_volume                     1058.71
_exptl_crystal_colour            colorless
_exptl_crystal_description       prismatic
_cell_formula_units_Z            4
loop_
_atom_site_label
_atom_site_type_symbol
_atom_site_fract_x
_atom_site_fract_y
_atom_site_fract_z
N1 N 0.89079(9) 0.08284(13) 0.37272(12)
N2 N 0.71337(8) 0.16257(11) 0.41981(10)
O1 O 0.54373(7) 0.03762(10) 0.34594(10)
C1 C 0.64774(10) 0.04462(13) 0.35497(12)
C2 C 0.71477(10) -0.06247(13) 0.29850(13)
C3 C 0.66020(12) -0.18518(14) 0.23037(14)
H1 H 0.5817 -0.2011 0.2250
C4 C 0.72225(14) -0.28236(15) 0.17134(17)
H2 H 0.6855 -0.3634 0.1248
C5 C 0.83967(15) -0.26000(17) 0.18086(19)
H3 H 0.8814 -0.3262 0.1407
C6 C 0.89444(13) -0.14118(17) 0.24906(18)
H4 H 0.9734 -0.1281 0.2559
C7 C 0.83317(11) -0.03919(14) 0.30856(14)
C8 C 0.83114(10) 0.17553(15) 0.42422(13)
C9 C 0.88390(12) 0.31387(17) 0.48781(16)
H5 H 0.9638 0.3208 0.4800
H6 H 0.8827 0.3160 0.5843
C10 C 0.81421(13) 0.44028(16) 0.41366(18)
H7 H 0.8171 0.4387 0.3177
H8 H 0.8476 0.5317 0.4529
C11 C 0.68891(13) 0.43001(15) 0.42592(16)
H9 H 0.6750 0.5042 0.4893
H10 H 0.6382 0.4501 0.3372
C12 C 0.65872(11) 0.28307(14) 0.47482(13)
C13 C 0.58951(12) 0.25942(18) 0.55748(15)
H11 H 0.5749 0.1645 0.5816
H12 H 0.5550 0.3376 0.5921
loop_
_geom_bond_atom_site_label_1
_geom_bond_atom_site_label_2
_geom_bond_site_symmetry_1
_geom_bond_site_symmetry_2
N1 C7 1_555 1_555
N2 C1 1_555 1_555
O1 C1 1_555 1_555
C1 C2 1_555 1_555
C2 C3 1_555 1_555
C3 H1 1_555 1_555
C4 C3 1_555 1_555
H2 C4 1_555 1_555
C5 C4 1_555 1_555
H3 C5 1_555 1_555
C6 C5 1_555 1_555
H4 C6 1_555 1_555
C7 C2 1_555 1_555
C8 N1 1_555 1_555
C9 C8 1_555 1_555
H5 C9 1_555 1_555
H6 C9 1_555 1_555
C10 C9 1_555 1_555
H7 C10 1_555 1_555
H8 C10 1_555 1_555
C11 C10 1_555 1_555
H9 C11 1_555 1_555
H10 C11 1_555 1_555
C12 N2 1_555 1_555
C13 C12 1_555 1_555
H11 C13 1_555 1_555
H12 C13 1_555 1_555
N2 C8 1_555 1_555
C6 C7 1_555 1_555
C11 C12 1_555 1_555

#END
