
#######################################################################
#
#                 Cambridge Crystallographic Data Centre
#                                CCDC 
#
#######################################################################
#
# If this CIF has been generated from an entry in the Cambridge 
# Structural Database, then it will include bibliographic, chemical, 
# crystal, experimental, refinement or atomic coordinate data resulting 
# from the CCDC's data processing and validation procedures.
#
#######################################################################

data_ZAGZAL
_chemical_name_common            
'N-Methyl-N-dodecyl-N,N-bis(2-hydroxyethyl)ammonium bromide'
_chemical_formula_moiety         'C17 H38 N1 O2 1+,Br1 1-'
_chemical_name_systematic        
'N,N-bis(2-Hydroxyethyl)-N-methyldodecan-1-aminium bromide'
_chemical_properties_biological  'antibacterial activity'
_symmetry_cell_setting           monoclinic
_symmetry_space_group_name_H-M   'P 21/c'
_symmetry_Int_Tables_number      14
_space_group_name_Hall           '-P 2ybc'
loop_
_symmetry_equiv_pos_site_id
_symmetry_equiv_pos_as_xyz
1 x,y,z
2 -x,1/2+y,1/2-z
3 -x,-y,-z
4 x,1/2-y,1/2+z
_cell_length_a                   19.217(6)
_cell_length_b                   7.305(2)
_cell_length_c                   14.552(5)
_cell_angle_alpha                90
_cell_angle_beta                 95.084(6)
_cell_angle_gamma                90
_cell_volume                     2034.78
_exptl_crystal_colour            colorless
_exptl_crystal_description       block
_cell_formula_units_Z            4
loop_
_atom_site_label
_atom_site_type_symbol
_atom_site_fract_x
_atom_site_fract_y
_atom_site_fract_z
Br1 Br 0.38859(2) 0.82122(6) 0.83336(3)
C1 C 0.3953(2) 0.4035(5) 1.1078(3)
H1 H 0.3946 0.4307 1.0432
H2 H 0.4424 0.4122 1.1358
H3 H 0.3663 0.4894 1.1366
C2 C 0.41559(17) 0.0836(5) 1.0726(2)
H4 H 0.4112 0.1115 1.0072
H5 H 0.4635 0.1087 1.0957
C3 C 0.4024(2) -0.1190(5) 1.0839(2)
H6 H 0.4404 -0.1863 1.0600
H7 H 0.4031 -0.1462 1.1492
C4 C 0.36775(18) 0.1702(5) 1.2226(2)
H8 H 0.3382 0.2595 1.2495
H9 H 0.3462 0.0512 1.2284
C5 C 0.4377(2) 0.1682(5) 1.2792(2)
H10 H 0.4691 0.0839 1.2521
H11 H 0.4583 0.2894 1.2798
C6 C 0.29293(18) 0.2000(5) 1.0794(2)
H12 H 0.2648 0.2794 1.1146
H13 H 0.2770 0.0755 1.0877
C7 C 0.27877(19) 0.2493(6) 0.9779(2)
H14 H 0.2870 0.3790 0.9694
H15 H 0.3103 0.1817 0.9419
C8 C 0.20367(19) 0.2032(6) 0.9449(3)
H16 H 0.1969 0.0724 0.9512
H17 H 0.1730 0.2643 0.9845
C9 C 0.1825(2) 0.2573(6) 0.8457(3)
H18 H 0.1883 0.3886 0.8397
H19 H 0.2139 0.1985 0.8062
C10 C 0.1084(2) 0.2081(6) 0.8117(3)
H20 H 0.0772 0.2627 0.8529
H21 H 0.1032 0.0763 0.8155
C11 C 0.0857(2) 0.2681(6) 0.7141(3)
H22 H 0.0873 0.4008 0.7116
H23 H 0.1191 0.2219 0.6737
C12 C 0.0139(2) 0.2064(6) 0.6775(3)
H24 H -0.0195 0.2535 0.7178
H25 H 0.0123 0.0739 0.6807
C13 C -0.0095(2) 0.2637(6) 0.5797(3)
H26 H -0.0094 0.3964 0.5770
H27 H 0.0248 0.2203 0.5397
C14 C -0.0801(2) 0.1970(6) 0.5418(3)
H28 H -0.1144 0.2407 0.5816
H29 H -0.0801 0.0644 0.5447
C15 C -0.1032(2) 0.2534(7) 0.4446(3)
H30 H -0.1040 0.3861 0.4422
H31 H -0.0681 0.2125 0.4051
C16 C -0.1724(2) 0.1846(7) 0.4050(3)
H32 H -0.2074 0.2247 0.4448
H33 H -0.1714 0.0519 0.4070
C17 C -0.1958(3) 0.2420(9) 0.3082(3)
H34 H -0.2014 0.3726 0.3059
H35 H -0.2396 0.1845 0.2889
H36 H -0.1614 0.2058 0.2678
N1 N 0.36838(14) 0.2135(3) 1.12013(18)
O1 O 0.33968(16) -0.1815(4) 1.0399(2)
H37 H 0.3413 -0.1758 0.9839
O2 O 0.42783(16) 0.1131(4) 1.37029(15)
H38 H 0.4129 0.0080 1.3697
loop_
_geom_bond_atom_site_label_1
_geom_bond_atom_site_label_2
_geom_bond_site_symmetry_1
_geom_bond_site_symmetry_2
C1 H1 1_555 1_555
H2 C1 1_555 1_555
H3 C1 1_555 1_555
C2 H4 1_555 1_555
H5 C2 1_555 1_555
C3 C2 1_555 1_555
H6 C3 1_555 1_555
H7 C3 1_555 1_555
C4 H8 1_555 1_555
H9 C4 1_555 1_555
C5 C4 1_555 1_555
H10 C5 1_555 1_555
H11 C5 1_555 1_555
C6 H12 1_555 1_555
H13 C6 1_555 1_555
C7 C6 1_555 1_555
H14 C7 1_555 1_555
H15 C7 1_555 1_555
C8 C7 1_555 1_555
H16 C8 1_555 1_555
H17 C8 1_555 1_555
C9 C8 1_555 1_555
H18 C9 1_555 1_555
H19 C9 1_555 1_555
C10 C9 1_555 1_555
H20 C10 1_555 1_555
H21 C10 1_555 1_555
C11 C10 1_555 1_555
H22 C11 1_555 1_555
H23 C11 1_555 1_555
C12 C11 1_555 1_555
H24 C12 1_555 1_555
H25 C12 1_555 1_555
C13 C12 1_555 1_555
H26 C13 1_555 1_555
H27 C13 1_555 1_555
C14 C13 1_555 1_555
H28 C14 1_555 1_555
H29 C14 1_555 1_555
C15 C14 1_555 1_555
H30 C15 1_555 1_555
H31 C15 1_555 1_555
C16 C15 1_555 1_555
H32 C16 1_555 1_555
H33 C16 1_555 1_555
C17 C16 1_555 1_555
H34 C17 1_555 1_555
H35 C17 1_555 1_555
H36 C17 1_555 1_555
N1 C1 1_555 1_555
O1 C3 1_555 1_555
H37 O1 1_555 1_555
O2 C5 1_555 1_555
H38 O2 1_555 1_555
C2 N1 1_555 1_555
C4 N1 1_555 1_555
C6 N1 1_555 1_555

#END
