
#######################################################################
#
#                 Cambridge Crystallographic Data Centre
#                                CCDC 
#
#######################################################################
#
# If this CIF has been generated from an entry in the Cambridge 
# Structural Database, then it will include bibliographic, chemical, 
# crystal, experimental, refinement or atomic coordinate data resulting 
# from the CCDC's data processing and validation procedures.
#
#######################################################################

data_ZAGZEP
_chemical_name_common            
'N-Methyl-N-hexadecyl-N,N-bis(2-hydroxyethyl)ammonium bromide'
_chemical_formula_moiety         'C21 H46 N1 O2 1+,Br1 1-'
_chemical_name_systematic        
'N,N-bis(2-Hydroxyethyl)-N-methylhexadecan-1-aminium bromide'
_chemical_properties_biological  'antibacterial activity'
_symmetry_cell_setting           monoclinic
_symmetry_space_group_name_H-M   'P 21/c'
_symmetry_Int_Tables_number      14
_space_group_name_Hall           '-P 2ybc'
loop_
_symmetry_equiv_pos_site_id
_symmetry_equiv_pos_as_xyz
1 x,y,z
2 -x,1/2+y,1/2-z
3 -x,-y,-z
4 x,1/2-y,1/2+z
_cell_length_a                   22.767(7)
_cell_length_b                   7.331(2)
_cell_length_c                   14.479(5)
_cell_angle_alpha                90
_cell_angle_beta                 94.796(5)
_cell_angle_gamma                90
_cell_volume                     2408.15
_exptl_crystal_colour            colorless
_exptl_crystal_description       block
_cell_formula_units_Z            4
loop_
_atom_site_label
_atom_site_type_symbol
_atom_site_fract_x
_atom_site_fract_y
_atom_site_fract_z
Br1 Br 0.406442(13) 0.32111(5) 0.141118(18)
C1 C 0.41144(14) 0.5973(4) 0.36759(19)
H1 H 0.4106 0.5693 0.4322
H2 H 0.4512 0.5880 0.3505
H3 H 0.3868 0.5127 0.3315
C2 C 0.42901(10) 0.9173(4) 0.40792(16)
H4 H 0.4254 0.8895 0.4727
H5 H 0.4694 0.8922 0.3956
C3 C 0.41797(13) 1.1182(4) 0.39370(18)
H6 H 0.4501 1.1850 0.4263
H7 H 0.4186 1.1452 0.3282
C4 C 0.38844(11) 0.8311(4) 0.24704(15)
H8 H 0.3634 0.7423 0.2132
H9 H 0.3703 0.9498 0.2365
C5 C 0.44736(12) 0.8328(4) 0.20619(17)
H10 H 0.4739 0.9165 0.2407
H11 H 0.4647 0.7119 0.2102
C6 C 0.32553(10) 0.8010(4) 0.37348(17)
H12 H 0.3121 0.9248 0.3612
H13 H 0.3018 0.7215 0.3318
C7 C 0.31358(11) 0.7531(4) 0.47164(18)
H14 H 0.3401 0.8210 0.5149
H15 H 0.3206 0.6241 0.4823
C8 C 0.25041(12) 0.7985(4) 0.48779(19)
H16 H 0.2447 0.9289 0.4802
H17 H 0.2245 0.7380 0.4407
C9 C 0.23263(12) 0.7444(5) 0.5814(2)
H18 H 0.2590 0.8031 0.6283
H19 H 0.2378 0.6136 0.5885
C10 C 0.17018(12) 0.7915(5) 0.5990(2)
H20 H 0.1653 0.9226 0.5934
H21 H 0.1439 0.7355 0.5510
C11 C 0.15117(12) 0.7337(5) 0.6918(2)
H22 H 0.1535 0.6018 0.6956
H23 H 0.1791 0.7829 0.7397
C12 C 0.09054(12) 0.7906(5) 0.7124(2)
H24 H 0.0627 0.7409 0.6646
H25 H 0.0881 0.9224 0.7081
C13 C 0.07156(12) 0.7342(5) 0.8046(2)
H26 H 0.1000 0.7815 0.8523
H27 H 0.0732 0.6022 0.8083
C14 C 0.01135(13) 0.7939(5) 0.8266(2)
H28 H 0.0098 0.9260 0.8231
H29 H -0.0170 0.7470 0.7788
C15 C -0.00782(12) 0.7376(5) 0.9183(2)
H30 H 0.0206 0.7841 0.9662
H31 H -0.0064 0.6055 0.9217
C16 C -0.06782(13) 0.7977(5) 0.9405(2)
H32 H -0.0693 0.9297 0.9366
H33 H -0.0962 0.7506 0.8927
C17 C -0.08734(13) 0.7431(5) 1.0320(2)
H34 H -0.0587 0.7887 1.0798
H35 H -0.0864 0.6110 1.0356
C18 C -0.14679(13) 0.8047(5) 1.0547(2)
H36 H -0.1478 0.9367 1.0510
H37 H -0.1755 0.7587 1.0071
C19 C -0.16622(12) 0.7504(5) 1.1463(2)
H38 H -0.1660 0.6182 1.1494
H39 H -0.1370 0.7940 1.1939
C20 C -0.22491(14) 0.8146(5) 1.1701(2)
H40 H -0.2541 0.7708 1.1226
H41 H -0.2252 0.9467 1.1670
C21 C -0.24403(16) 0.7594(6) 1.2623(3)
H42 H -0.2456 0.6288 1.2658
H43 H -0.2824 0.8091 1.2697
H44 H -0.2164 0.8049 1.3105
N1 N 0.38918(8) 0.7877(3) 0.34964(13)
O1 O 0.36499(10) 1.1820(3) 0.42334(14)
H45 H 0.3670 1.1825 0.4802
O2 O 0.43922(10) 0.8878(3) 0.11279(11)
H46 H 0.4295 0.9955 0.1102
loop_
_geom_bond_atom_site_label_1
_geom_bond_atom_site_label_2
_geom_bond_site_symmetry_1
_geom_bond_site_symmetry_2
C1 H1 1_555 1_555
H2 C1 1_555 1_555
H3 C1 1_555 1_555
C2 H4 1_555 1_555
H5 C2 1_555 1_555
C3 C2 1_555 1_555
H6 C3 1_555 1_555
H7 C3 1_555 1_555
C4 H8 1_555 1_555
H9 C4 1_555 1_555
C5 C4 1_555 1_555
H10 C5 1_555 1_555
H11 C5 1_555 1_555
C6 H12 1_555 1_555
H13 C6 1_555 1_555
C7 C6 1_555 1_555
H14 C7 1_555 1_555
H15 C7 1_555 1_555
C8 C7 1_555 1_555
H16 C8 1_555 1_555
H17 C8 1_555 1_555
C9 C8 1_555 1_555
H18 C9 1_555 1_555
H19 C9 1_555 1_555
C10 C9 1_555 1_555
H20 C10 1_555 1_555
H21 C10 1_555 1_555
C11 C10 1_555 1_555
H22 C11 1_555 1_555
H23 C11 1_555 1_555
C12 C11 1_555 1_555
H24 C12 1_555 1_555
H25 C12 1_555 1_555
C13 C12 1_555 1_555
H26 C13 1_555 1_555
H27 C13 1_555 1_555
C14 C13 1_555 1_555
H28 C14 1_555 1_555
H29 C14 1_555 1_555
C15 C14 1_555 1_555
H30 C15 1_555 1_555
H31 C15 1_555 1_555
C16 C15 1_555 1_555
H32 C16 1_555 1_555
H33 C16 1_555 1_555
C17 C16 1_555 1_555
H34 C17 1_555 1_555
H35 C17 1_555 1_555
C18 C17 1_555 1_555
H36 C18 1_555 1_555
H37 C18 1_555 1_555
C19 C18 1_555 1_555
H38 C19 1_555 1_555
H39 C19 1_555 1_555
C20 C19 1_555 1_555
H40 C20 1_555 1_555
H41 C20 1_555 1_555
C21 C20 1_555 1_555
H42 C21 1_555 1_555
H43 C21 1_555 1_555
H44 C21 1_555 1_555
N1 C1 1_555 1_555
O1 C3 1_555 1_555
H45 O1 1_555 1_555
O2 C5 1_555 1_555
H46 O2 1_555 1_555
C2 N1 1_555 1_555
C4 N1 1_555 1_555
C6 N1 1_555 1_555

#END
