
#######################################################################
#
#                 Cambridge Crystallographic Data Centre
#                                CCDC 
#
#######################################################################
#
# If this CIF has been generated from an entry in the Cambridge 
# Structural Database, then it will include bibliographic, chemical, 
# crystal, experimental, refinement or atomic coordinate data resulting 
# from the CCDC's data processing and validation procedures.
#
#######################################################################

data_ZAHBUI
_chemical_formula_moiety         'C26 H18 O1 S2'
_chemical_name_systematic        
'S-Methyl S-(12-phenyltetracen-5-yl) carbonodithioate'
_symmetry_cell_setting           triclinic
_symmetry_space_group_name_H-M   'P -1'
_symmetry_Int_Tables_number      2
_space_group_name_Hall           '-P 1'
loop_
_symmetry_equiv_pos_site_id
_symmetry_equiv_pos_as_xyz
1 x,y,z
2 -x,-y,-z
_cell_length_a                   11.6880(6)
_cell_length_b                   11.8041(6)
_cell_length_c                   14.8723(9)
_cell_angle_alpha                97.659(5)
_cell_angle_beta                 94.935(5)
_cell_angle_gamma                102.361(4)
_cell_volume                     1972.47
_exptl_crystal_colour            orange
_exptl_crystal_description       block
_cell_formula_units_Z            4
loop_
_atom_site_label
_atom_site_type_symbol
_atom_site_fract_x
_atom_site_fract_y
_atom_site_fract_z
S1 S 0.24700(10) 0.44850(10) -0.19258(7)
S2 S 0.03732(11) 0.48527(12) -0.10098(9)
O1 O 0.0318(3) 0.3304(3) -0.2465(3)
C1 C 0.2642(4) 0.7155(4) -0.1692(3)
H1 H 0.2275 0.6624 -0.2226
C2 C 0.2745(4) 0.8320(4) -0.1680(3)
H2 H 0.2437 0.8596 -0.2199
C3 C 0.3309(4) 0.9131(4) -0.0894(3)
H3 H 0.3395 0.9949 -0.0900
C4 C 0.3728(4) 0.8752(4) -0.0135(3)
H4 H 0.4101 0.9311 0.0383
C5 C 0.4019(3) 0.7127(4) 0.0687(3)
C6 C 0.4285(4) 0.5475(4) 0.1492(3)
H5 H 0.4640 0.6017 0.2024
C7 C 0.4545(4) 0.3844(4) 0.2310(3)
H6 H 0.4920 0.4376 0.2842
C8 C 0.4390(4) 0.2667(4) 0.2307(3)
H7 H 0.4674 0.2387 0.2834
C9 C 0.3807(5) 0.1848(4) 0.1526(4)
H8 H 0.3687 0.1029 0.1541
C10 C 0.3421(5) 0.2234(4) 0.0762(3)
H9 H 0.3038 0.1679 0.0245
C11 C 0.3220(4) 0.3874(4) -0.0057(3)
H10 H 0.2850 0.3323 -0.0581
C12 C 0.2991(4) 0.5504(4) -0.0900(3)
C13 C 0.3077(4) 0.6704(4) -0.0914(3)
C14 C 0.3619(3) 0.7531(4) -0.0103(3)
C15 C 0.3913(3) 0.5914(4) 0.0698(3)
C16 C 0.4149(4) 0.4286(4) 0.1517(3)
C17 C 0.3580(4) 0.3453(4) 0.0720(3)
C18 C 0.3374(4) 0.5074(4) -0.0108(3)
C19 C 0.4513(4) 0.7987(4) 0.1539(3)
C20 C 0.3784(4) 0.8609(4) 0.1997(3)
H11 H 0.2978 0.8490 0.1763
C21 C 0.4231(4) 0.9397(4) 0.2788(3)
H12 H 0.3728 0.9811 0.3095
C22 C 0.5413(5) 0.9589(4) 0.3138(3)
H13 H 0.5718 1.0139 0.3676
C23 C 0.6136(4) 0.8976(4) 0.2698(3)
H14 H 0.6940 0.9093 0.2938
C24 C 0.5686(4) 0.8179(4) 0.1898(3)
H15 H 0.6191 0.7764 0.1596
C25 C 0.0922(4) 0.4075(4) -0.1894(3)
C26 C -0.1157(5) 0.4126(6) -0.1251(4)
H16 H -0.1366 0.3901 -0.1913
H17 H -0.1639 0.4657 -0.1014
H18 H -0.1304 0.3421 -0.0957
S3 S -0.09959(11) 0.99690(12) 0.73575(9)
S4 S -0.09289(14) 1.10018(15) 0.92573(10)
O2 O 0.1027(3) 1.0855(4) 0.8515(3)
C27 C -0.0934(5) 0.7361(5) 0.7184(4)
H19 H -0.1415 0.7719 0.7561
C28 C -0.1018(5) 0.6204(5) 0.7123(4)
H20 H -0.1554 0.5757 0.7459
C29 C -0.0322(4) 0.5638(5) 0.6566(4)
H21 H -0.0408 0.4813 0.6518
C30 C 0.0468(4) 0.6269(4) 0.6099(4)
H22 H 0.0943 0.5880 0.5739
C31 C 0.1398(4) 0.8163(4) 0.5639(3)
C32 C 0.2207(4) 1.0053(4) 0.5122(3)
H23 H 0.2708 0.9687 0.4771
C33 C 0.3004(4) 1.1912(4) 0.4576(4)
H24 H 0.3506 1.1557 0.4218
C34 C 0.3013(4) 1.3064(5) 0.4569(4)
H25 H 0.3504 1.3499 0.4197
C35 C 0.2289(4) 1.3621(4) 0.5116(4)
H26 H 0.2310 1.4430 0.5115
C36 C 0.1572(4) 1.3011(4) 0.5638(3)
H27 H 0.1095 1.3396 0.6000
C37 C 0.0779(4) 1.1139(4) 0.6169(3)
H28 H 0.0299 1.1519 0.6531
C38 C -0.0053(4) 0.9274(4) 0.6707(3)
C39 C -0.0132(4) 0.8079(4) 0.6693(3)
C40 C 0.0599(4) 0.7506(4) 0.6139(3)
C41 C 0.1444(4) 0.9368(4) 0.5634(3)
C42 C 0.2255(4) 1.1220(4) 0.5110(3)
C43 C 0.1521(4) 1.1787(4) 0.5652(3)
C44 C 0.0714(4) 0.9940(4) 0.6174(3)
C45 C 0.2221(4) 0.7581(4) 0.5142(3)
C46 C 0.3107(4) 0.7203(4) 0.5646(3)
H29 H 0.3160 0.7310 0.6294
C47 C 0.3901(4) 0.6680(4) 0.5207(4)
H30 H 0.4491 0.6428 0.5557
C48 C 0.3847(5) 0.6520(4) 0.4263(4)
H31 H 0.4397 0.6164 0.3965
C49 C 0.2985(5) 0.6884(5) 0.3765(4)
H32 H 0.2943 0.6775 0.3117
C50 C 0.2159(4) 0.7415(4) 0.4197(3)
H33 H 0.1567 0.7658 0.3842
C51 C -0.0051(6) 1.0618(6) 0.8424(5)
C52 C 0.0136(7) 1.1921(7) 1.0165(5)
H34 H 0.0578 1.2601 0.9931
H35 H 0.0683 1.1468 1.0387
H36 H -0.0277 1.2191 1.0669
loop_
_geom_bond_atom_site_label_1
_geom_bond_atom_site_label_2
_geom_bond_site_symmetry_1
_geom_bond_site_symmetry_2
S1 C12 1_555 1_555
S2 C25 1_555 1_555
O1 C25 1_555 1_555
C1 H1 1_555 1_555
C2 C1 1_555 1_555
H2 C2 1_555 1_555
C3 C2 1_555 1_555
H3 C3 1_555 1_555
C4 C3 1_555 1_555
H4 C4 1_555 1_555
C5 C14 1_555 1_555
C6 H5 1_555 1_555
C7 H6 1_555 1_555
C8 C7 1_555 1_555
H7 C8 1_555 1_555
C9 C8 1_555 1_555
H8 C9 1_555 1_555
C10 C9 1_555 1_555
H9 C10 1_555 1_555
C11 H10 1_555 1_555
C12 C13 1_555 1_555
C13 C1 1_555 1_555
C14 C4 1_555 1_555
C15 C5 1_555 1_555
C16 C6 1_555 1_555
C17 C10 1_555 1_555
C18 C11 1_555 1_555
C19 C5 1_555 1_555
C20 C19 1_555 1_555
H11 C20 1_555 1_555
C21 C20 1_555 1_555
H12 C21 1_555 1_555
C22 C21 1_555 1_555
H13 C22 1_555 1_555
C23 C22 1_555 1_555
H14 C23 1_555 1_555
C24 C19 1_555 1_555
H15 C24 1_555 1_555
C25 S1 1_555 1_555
C26 S2 1_555 1_555
H16 C26 1_555 1_555
H17 C26 1_555 1_555
H18 C26 1_555 1_555
S3 C38 1_555 1_555
S4 C51 1_555 1_555
O2 C51 1_555 1_555
C27 H19 1_555 1_555
C28 C27 1_555 1_555
H20 C28 1_555 1_555
C29 C28 1_555 1_555
H21 C29 1_555 1_555
C30 C29 1_555 1_555
H22 C30 1_555 1_555
C31 C40 1_555 1_555
C32 H23 1_555 1_555
C33 H24 1_555 1_555
C34 C33 1_555 1_555
H25 C34 1_555 1_555
C35 C34 1_555 1_555
H26 C35 1_555 1_555
C36 C35 1_555 1_555
H27 C36 1_555 1_555
C37 H28 1_555 1_555
C38 C39 1_555 1_555
C39 C27 1_555 1_555
C40 C30 1_555 1_555
C41 C31 1_555 1_555
C42 C32 1_555 1_555
C43 C36 1_555 1_555
C44 C37 1_555 1_555
C45 C31 1_555 1_555
C46 C45 1_555 1_555
H29 C46 1_555 1_555
C47 C46 1_555 1_555
H30 C47 1_555 1_555
C48 C47 1_555 1_555
H31 C48 1_555 1_555
C49 C48 1_555 1_555
H32 C49 1_555 1_555
C50 C45 1_555 1_555
H33 C50 1_555 1_555
C51 S3 1_555 1_555
C52 S4 1_555 1_555
H34 C52 1_555 1_555
H35 C52 1_555 1_555
H36 C52 1_555 1_555
C6 C15 1_555 1_555
C7 C16 1_555 1_555
C11 C17 1_555 1_555
C12 C18 1_555 1_555
C13 C14 1_555 1_555
C15 C18 1_555 1_555
C16 C17 1_555 1_555
C23 C24 1_555 1_555
C32 C41 1_555 1_555
C33 C42 1_555 1_555
C37 C43 1_555 1_555
C38 C44 1_555 1_555
C39 C40 1_555 1_555
C41 C44 1_555 1_555
C42 C43 1_555 1_555
C49 C50 1_555 1_555

#END
