
#######################################################################
#
#                 Cambridge Crystallographic Data Centre
#                                CCDC 
#
#######################################################################
#
# If this CIF has been generated from an entry in the Cambridge 
# Structural Database, then it will include bibliographic, chemical, 
# crystal, experimental, refinement or atomic coordinate data resulting 
# from the CCDC's data processing and validation procedures.
#
#######################################################################

data_ZAHCIX
_chemical_formula_moiety         'C28 H22 O3 S2'
_chemical_name_systematic        
'S-(2-Methoxy-12-(4-methoxyphenyl)tetracen-5-yl) S-methyl carbonodithioate'
_symmetry_cell_setting           triclinic
_symmetry_space_group_name_H-M   'P -1'
_symmetry_Int_Tables_number      2
_space_group_name_Hall           '-P 1'
loop_
_symmetry_equiv_pos_site_id
_symmetry_equiv_pos_as_xyz
1 x,y,z
2 -x,-y,-z
_cell_length_a                   7.44498(13)
_cell_length_b                   12.5972(2)
_cell_length_c                   12.99287(15)
_cell_angle_alpha                98.1381(11)
_cell_angle_beta                 105.3241(12)
_cell_angle_gamma                101.3831(14)
_cell_volume                     1127.66
_exptl_crystal_colour            orange
_exptl_crystal_description       irregular
_cell_formula_units_Z            2
loop_
_atom_site_label
_atom_site_type_symbol
_atom_site_fract_x
_atom_site_fract_y
_atom_site_fract_z
S1 S 0.51023(6) 0.28085(3) 0.92873(3)
S2 S 0.68516(7) 0.15592(4) 1.08253(3)
O1 O 0.21111(18) 0.23749(9) 0.10436(8)
O2 O 0.6620(2) 0.11387(10) 0.87365(10)
O3 O -0.27167(16) 0.06345(9) 0.50660(9)
C1 C 0.1210(2) 0.17728(12) 0.75355(13)
H1 H 0.1413 0.1808 0.8294
C2 C -0.0560(2) 0.12835(13) 0.68334(13)
H2 H -0.1579 0.0994 0.7105
C3 C -0.0905(2) 0.11992(12) 0.56845(13)
C4 C 0.0521(2) 0.16504(12) 0.52897(12)
H3 H 0.0262 0.1610 0.4527
C5 C 0.3876(2) 0.26347(12) 0.55977(11)
C6 C 0.7286(2) 0.35277(12) 0.59041(12)
H4 H 0.7052 0.3438 0.5138
C7 C 1.0681(2) 0.44424(13) 0.61801(13)
H5 H 1.0484 0.4304 0.5416
C8 C 1.2433(2) 0.50138(14) 0.68643(14)
H6 H 1.3442 0.5282 0.6576
C9 C 1.2759(2) 0.52115(14) 0.80143(14)
H7 H 1.3978 0.5629 0.8487
C10 C 1.1353(2) 0.48119(13) 0.84411(13)
H8 H 1.1611 0.4937 0.9210
C11 C 0.8013(2) 0.37746(12) 0.81572(12)
H9 H 0.8266 0.3858 0.8924
C12 C 0.4641(2) 0.27451(12) 0.78648(11)
C13 C 0.2788(2) 0.22409(12) 0.71660(12)
C14 C 0.2410(2) 0.21875(11) 0.60065(12)
C15 C 0.5763(2) 0.31326(11) 0.63065(11)
C16 C 0.9129(2) 0.40468(12) 0.65899(12)
C17 C 0.9482(2) 0.42038(12) 0.77511(12)
C18 C 0.6151(2) 0.32181(11) 0.74707(12)
C19 C 0.3451(2) 0.26010(12) 0.44014(11)
C20 C 0.3096(2) 0.35093(12) 0.39680(12)
H10 H 0.3170 0.4173 0.4444
C21 C 0.2632(2) 0.34703(12) 0.28506(12)
H11 H 0.2373 0.4097 0.2566
C22 C 0.2552(2) 0.25035(13) 0.21558(12)
C23 C 0.2927(2) 0.15878(13) 0.25766(12)
H12 H 0.2891 0.0931 0.2103
C24 C 0.3352(2) 0.16352(13) 0.36890(12)
H13 H 0.3580 0.1002 0.3971
C25 C 0.1457(3) 0.32373(15) 0.05802(12)
H14 H 0.2500 0.3913 0.0817
H15 H 0.0367 0.3375 0.0821
H16 H 0.1052 0.3019 -0.0217
C26 C 0.6280(2) 0.16968(14) 0.94526(13)
C27 C 0.8039(3) 0.04518(18) 1.07501(18)
H17 H 0.8419 0.0260 1.1468
H18 H 0.9183 0.0688 1.0522
H19 H 0.7161 -0.0196 1.0219
C28 C -0.3055(2) 0.04116(14) 0.39092(14)
H20 H -0.2055 0.0082 0.3738
H21 H -0.3027 0.1104 0.3645
H22 H -0.4315 -0.0104 0.3554
loop_
_geom_bond_atom_site_label_1
_geom_bond_atom_site_label_2
_geom_bond_site_symmetry_1
_geom_bond_site_symmetry_2
S1 C12 1_555 1_555
S2 C26 1_555 1_555
O1 C22 1_555 1_555
O2 C26 1_555 1_555
O3 C3 1_555 1_555
C1 H1 1_555 1_555
C2 C1 1_555 1_555
H2 C2 1_555 1_555
C3 C2 1_555 1_555
C4 C3 1_555 1_555
H3 C4 1_555 1_555
C5 C14 1_555 1_555
C6 H4 1_555 1_555
C7 H5 1_555 1_555
C8 C7 1_555 1_555
H6 C8 1_555 1_555
C9 C8 1_555 1_555
H7 C9 1_555 1_555
C10 C9 1_555 1_555
H8 C10 1_555 1_555
C11 H9 1_555 1_555
C12 C13 1_555 1_555
C13 C1 1_555 1_555
C14 C4 1_555 1_555
C15 C5 1_555 1_555
C16 C6 1_555 1_555
C17 C10 1_555 1_555
C18 C11 1_555 1_555
C19 C5 1_555 1_555
C20 C19 1_555 1_555
H10 C20 1_555 1_555
C21 C20 1_555 1_555
H11 C21 1_555 1_555
C22 C21 1_555 1_555
C23 C22 1_555 1_555
H12 C23 1_555 1_555
C24 C19 1_555 1_555
H13 C24 1_555 1_555
C25 O1 1_555 1_555
H14 C25 1_555 1_555
H15 C25 1_555 1_555
H16 C25 1_555 1_555
C26 S1 1_555 1_555
C27 S2 1_555 1_555
H17 C27 1_555 1_555
H18 C27 1_555 1_555
H19 C27 1_555 1_555
C28 O3 1_555 1_555
H20 C28 1_555 1_555
H21 C28 1_555 1_555
H22 C28 1_555 1_555
C6 C15 1_555 1_555
C7 C16 1_555 1_555
C11 C17 1_555 1_555
C12 C18 1_555 1_555
C13 C14 1_555 1_555
C15 C18 1_555 1_555
C16 C17 1_555 1_555
C23 C24 1_555 1_555

#END
