
#######################################################################
#
#                 Cambridge Crystallographic Data Centre
#                                CCDC 
#
#######################################################################
#
# If this CIF has been generated from an entry in the Cambridge 
# Structural Database, then it will include bibliographic, chemical, 
# crystal, experimental, refinement or atomic coordinate data resulting 
# from the CCDC's data processing and validation procedures.
#
#######################################################################

data_ZAHFAS
_chemical_formula_moiety         'C20 H35 F3 N2 O4'
_chemical_name_systematic        
't-butyl 2-ethyl-2-((2-propyl-N-(trifluoroacetyl)norvalyl)amino)butanoate'
_symmetry_cell_setting           orthorhombic
_symmetry_space_group_name_H-M   'P 21 21 21'
_symmetry_Int_Tables_number      19
_space_group_name_Hall           'P 2ac 2ab'
loop_
_symmetry_equiv_pos_site_id
_symmetry_equiv_pos_as_xyz
1 x,y,z
2 1/2-x,-y,1/2+z
3 1/2+x,1/2-y,-z
4 -x,1/2+y,1/2-z
_cell_length_a                   11.29793(19)
_cell_length_b                   12.19148(18)
_cell_length_c                   17.0784(3)
_cell_angle_alpha                90
_cell_angle_beta                 90
_cell_angle_gamma                90
_cell_volume                     2352.35
_exptl_crystal_colour            colorless
_exptl_crystal_description       block
_cell_formula_units_Z            4
loop_
_atom_site_label
_atom_site_type_symbol
_atom_site_fract_x
_atom_site_fract_y
_atom_site_fract_z
C1 C 0.52187(19) -0.09996(15) -0.08555(11)
F1 F 0.55285(15) -0.06688(10) -0.01504(7)
F2 F 0.42622(15) -0.16005(12) -0.07768(10)
F3 F 0.60643(16) -0.16594(13) -0.11193(10)
C2 C 0.50441(16) -0.00642(13) -0.14506(10)
O1 O 0.45282(15) -0.02821(11) -0.20568(8)
N1 N 0.55276(13) 0.08710(11) -0.12433(8)
H1 H 0.5827 0.0903 -0.0781
C3 C 0.56071(15) 0.18691(13) -0.17228(9)
C4 C 0.43780(15) 0.23562(14) -0.18753(10)
H2 H 0.4468 0.2994 -0.2209
H3 H 0.3913 0.1821 -0.2162
C5 C 0.36907(18) 0.26924(19) -0.11549(13)
H4 H 0.3590 0.2060 -0.0817
H5 H 0.4139 0.3239 -0.0868
C6 C 0.2493(2) 0.3154(2) -0.13590(19)
H6 H 0.2591 0.3810 -0.1663
H7 H 0.2070 0.3322 -0.0887
H8 H 0.2056 0.2623 -0.1657
C7 C 0.62451(17) 0.16389(14) -0.25049(10)
H9 H 0.5740 0.1175 -0.2823
H10 H 0.6343 0.2328 -0.2781
C8 C 0.74518(19) 0.10916(19) -0.24328(13)
H11 H 0.7347 0.0336 -0.2269
H12 H 0.7910 0.1465 -0.2033
C9 C 0.8130(3) 0.1116(2) -0.32030(18)
H13 H 0.7634 0.0842 -0.3615
H14 H 0.8824 0.0665 -0.3160
H15 H 0.8361 0.1856 -0.3319
C10 C 0.63655(14) 0.26584(13) -0.12154(9)
O2 O 0.67175(14) 0.23724(11) -0.05697(8)
N2 N 0.66144(12) 0.36363(11) -0.15216(8)
H16 H 0.6293 0.3818 -0.1959
C11 C 0.74207(14) 0.44153(13) -0.11369(10)
C12 C 0.73276(17) 0.55060(15) -0.15920(12)
H17 H 0.7528 0.5369 -0.2136
H18 H 0.6512 0.5753 -0.1576
C13 C 0.8115(2) 0.64224(17) -0.12862(16)
H19 H 0.7919 0.6573 -0.0750
H20 H 0.7994 0.7071 -0.1595
H21 H 0.8929 0.6202 -0.1321
C14 C 0.86924(15) 0.39537(16) -0.11316(12)
H22 H 0.9199 0.4457 -0.0847
H23 H 0.8694 0.3261 -0.0852
C15 C 0.92073(19) 0.3773(2) -0.19418(15)
H24 H 0.8672 0.3335 -0.2246
H25 H 0.9954 0.3402 -0.1898
H26 H 0.9322 0.4469 -0.2194
C16 C 0.70154(16) 0.46397(13) -0.02920(10)
O3 O 0.76820(14) 0.47089(12) 0.02526(8)
O4 O 0.58534(12) 0.48369(12) -0.02676(8)
C17 C 0.5265(2) 0.5181(2) 0.04644(14)
C18 C 0.5793(3) 0.6248(2) 0.07460(17)
H27 H 0.6601 0.6130 0.0900
H28 H 0.5349 0.6514 0.1186
H29 H 0.5766 0.6779 0.0331
C19 C 0.5385(4) 0.4272(3) 0.10651(19)
H30 H 0.5178 0.3583 0.0829
H31 H 0.4866 0.4415 0.1498
H32 H 0.6188 0.4241 0.1248
C20 C 0.3999(3) 0.5343(4) 0.0207(2)
H33 H 0.3986 0.5686 -0.0299
H34 H 0.3596 0.5801 0.0578
H35 H 0.3609 0.4644 0.0178
loop_
_geom_bond_atom_site_label_1
_geom_bond_atom_site_label_2
_geom_bond_site_symmetry_1
_geom_bond_site_symmetry_2
C1 F1 1_555 1_555
F2 C1 1_555 1_555
F3 C1 1_555 1_555
C2 C1 1_555 1_555
O1 C2 1_555 1_555
N1 C2 1_555 1_555
H1 N1 1_555 1_555
C3 N1 1_555 1_555
C4 C3 1_555 1_555
H2 C4 1_555 1_555
H3 C4 1_555 1_555
C5 C4 1_555 1_555
H4 C5 1_555 1_555
H5 C5 1_555 1_555
C6 C5 1_555 1_555
H6 C6 1_555 1_555
H7 C6 1_555 1_555
H8 C6 1_555 1_555
C7 C3 1_555 1_555
H9 C7 1_555 1_555
H10 C7 1_555 1_555
C8 C7 1_555 1_555
H11 C8 1_555 1_555
H12 C8 1_555 1_555
C9 C8 1_555 1_555
H13 C9 1_555 1_555
H14 C9 1_555 1_555
H15 C9 1_555 1_555
C10 C3 1_555 1_555
O2 C10 1_555 1_555
N2 C10 1_555 1_555
H16 N2 1_555 1_555
C11 N2 1_555 1_555
C12 C11 1_555 1_555
H17 C12 1_555 1_555
H18 C12 1_555 1_555
C13 C12 1_555 1_555
H19 C13 1_555 1_555
H20 C13 1_555 1_555
H21 C13 1_555 1_555
C14 C11 1_555 1_555
H22 C14 1_555 1_555
H23 C14 1_555 1_555
C15 C14 1_555 1_555
H24 C15 1_555 1_555
H25 C15 1_555 1_555
H26 C15 1_555 1_555
C16 C11 1_555 1_555
O3 C16 1_555 1_555
O4 C16 1_555 1_555
C17 O4 1_555 1_555
C18 C17 1_555 1_555
H27 C18 1_555 1_555
H28 C18 1_555 1_555
H29 C18 1_555 1_555
C19 C17 1_555 1_555
H30 C19 1_555 1_555
H31 C19 1_555 1_555
H32 C19 1_555 1_555
C20 C17 1_555 1_555
H33 C20 1_555 1_555
H34 C20 1_555 1_555
H35 C20 1_555 1_555

#END
