
#######################################################################
#
#                 Cambridge Crystallographic Data Centre
#                                CCDC 
#
#######################################################################
#
# If this CIF has been generated from an entry in the Cambridge 
# Structural Database, then it will include bibliographic, chemical, 
# crystal, experimental, refinement or atomic coordinate data resulting 
# from the CCDC's data processing and validation procedures.
#
#######################################################################

data_ZAHFEW
_chemical_formula_moiety         'C10 H16 F3 N1 O3'
_chemical_name_systematic        2-propyl-N-(trifluoroacetyl)norvaline
_symmetry_cell_setting           triclinic
_symmetry_space_group_name_H-M   'P -1'
_symmetry_Int_Tables_number      2
_space_group_name_Hall           '-P 1'
loop_
_symmetry_equiv_pos_site_id
_symmetry_equiv_pos_as_xyz
1 x,y,z
2 -x,-y,-z
_cell_length_a                   8.3532(8)
_cell_length_b                   12.3593(11)
_cell_length_c                   14.7460(13)
_cell_angle_alpha                65.531(8)
_cell_angle_beta                 81.625(7)
_cell_angle_gamma                74.723(8)
_cell_volume                     1335.52
_exptl_crystal_colour            colorless
_exptl_crystal_description       block
_cell_formula_units_Z            4
loop_
_atom_site_label
_atom_site_type_symbol
_atom_site_fract_x
_atom_site_fract_y
_atom_site_fract_z
C1 C 0.2836(3) -0.10809(19) 0.18114(17)
F1 F 0.4100(8) -0.1731(9) 0.2413(3)
F2 F 0.2474(8) -0.1787(10) 0.1465(9)
F3 F 0.3540(7) -0.0310(5) 0.1073(4)
C2 C 0.1447(2) -0.04315(16) 0.23211(14)
O1 O 0.17103(18) 0.03862(13) 0.24983(13)
N1 N 0.00732(17) -0.08431(13) 0.25597(11)
H1 H 0.0022 -0.1437 0.2411
C3 C -0.1375(2) -0.03244(16) 0.30701(13)
C4 C -0.2433(2) -0.12906(18) 0.35547(15)
H2 H -0.2830 -0.1422 0.3030
H3 H -0.1726 -0.2054 0.3962
C5 C -0.3914(3) -0.0966(3) 0.4196(2)
H4 H -0.3536 -0.0787 0.4700
H5 H -0.4670 -0.0235 0.3783
C6 C -0.4830(3) -0.1973(3) 0.4700(2)
H6 H -0.5156 -0.2184 0.4208
H7 H -0.5801 -0.1704 0.5056
H8 H -0.4119 -0.2675 0.5159
C7 C -0.2314(2) 0.08995(17) 0.23389(14)
H9 H -0.3247 0.1227 0.2697
H10 H -0.1582 0.1463 0.2094
C8 C -0.2960(3) 0.0846(2) 0.14502(17)
H11 H -0.2025 0.0574 0.1062
H12 H -0.3642 0.0248 0.1690
C9 C -0.3956(4) 0.2042(3) 0.0793(2)
H13 H -0.4856 0.2334 0.1178
H14 H -0.4392 0.1943 0.0271
H15 H -0.3262 0.2619 0.0504
C10 C -0.0755(2) -0.01608(16) 0.39211(13)
O2 O -0.12917(16) 0.07694(12) 0.40812(10)
O3 O 0.02968(17) -0.11088(12) 0.44746(10)
H16 H 0.0519 -0.0987 0.4943
C11 C -0.1512(3) 0.7550(2) 0.08010(18)
F7 F -0.2060(11) 0.6987(6) 0.0360(7)
F8 F -0.2807(11) 0.8304(10) 0.0970(7)
F9 F -0.0597(9) 0.8208(12) 0.0095(6)
C12 C -0.0549(2) 0.66394(17) 0.17121(16)
O4 O -0.0178(2) 0.70170(12) 0.22761(12)
N2 N -0.0197(2) 0.54966(14) 0.17997(13)
H17 H -0.0571 0.5353 0.1357
C13 C 0.0774(2) 0.44489(16) 0.25828(15)
C14 C 0.0005(3) 0.4286(2) 0.36290(17)
H18 H 0.0644 0.3541 0.4106
H19 H 0.0130 0.4957 0.3772
C15 C -0.1797(3) 0.4227(3) 0.3806(2)
H20 H -0.1924 0.3495 0.3757
H21 H -0.2445 0.4926 0.3294
C16 C -0.2460(4) 0.4217(3) 0.4828(3)
H22 H -0.1797 0.3543 0.5335
H23 H -0.3591 0.4135 0.4931
H24 H -0.2410 0.4967 0.4862
C17 C 0.2576(3) 0.45736(19) 0.25184(17)
H25 H 0.2572 0.5246 0.2698
H26 H 0.3200 0.3837 0.3011
C18 C 0.3473(3) 0.4785(3) 0.1522(2)
H27 H 0.2881 0.5536 0.1027
H28 H 0.3474 0.4123 0.1331
C19 C 0.5258(3) 0.4869(3) 0.1528(3)
H29 H 0.5263 0.5544 0.1691
H30 H 0.5786 0.4989 0.0881
H31 H 0.5851 0.4127 0.2015
C20 C 0.0724(3) 0.33636(19) 0.23366(18)
O5 O -0.0030(2) 0.34556(15) 0.16687(15)
O6 O 0.1606(2) 0.23294(13) 0.29523(13)
H32 H 0.1553 0.1770 0.2804
F4? F 0.3313(12) -0.2223(4) 0.2396(5)
F5? F 0.2184(8) -0.1120(9) 0.1063(5)
F6? F 0.4025(11) -0.0541(9) 0.1440(11)
F10? F -0.3043(6) 0.7836(15) 0.1119(7)
F11? F -0.0955(15) 0.8549(6) 0.0456(10)
F12? F -0.1580(17) 0.7211(9) 0.0083(7)
loop_
_geom_bond_atom_site_label_1
_geom_bond_atom_site_label_2
_geom_bond_site_symmetry_1
_geom_bond_site_symmetry_2
C1 F1 1_555 1_555
F2 C1 1_555 1_555
F3 C1 1_555 1_555
C2 C1 1_555 1_555
O1 C2 1_555 1_555
N1 C2 1_555 1_555
H1 N1 1_555 1_555
C3 N1 1_555 1_555
C4 C3 1_555 1_555
H2 C4 1_555 1_555
H3 C4 1_555 1_555
C5 C4 1_555 1_555
H4 C5 1_555 1_555
H5 C5 1_555 1_555
C6 C5 1_555 1_555
H6 C6 1_555 1_555
H7 C6 1_555 1_555
H8 C6 1_555 1_555
C7 C3 1_555 1_555
H9 C7 1_555 1_555
H10 C7 1_555 1_555
C8 C7 1_555 1_555
H11 C8 1_555 1_555
H12 C8 1_555 1_555
C9 C8 1_555 1_555
H13 C9 1_555 1_555
H14 C9 1_555 1_555
H15 C9 1_555 1_555
C10 C3 1_555 1_555
O2 C10 1_555 1_555
O3 C10 1_555 1_555
H16 O3 1_555 1_555
C11 F7 1_555 1_555
F8 C11 1_555 1_555
F9 C11 1_555 1_555
C12 C11 1_555 1_555
O4 C12 1_555 1_555
N2 C12 1_555 1_555
H17 N2 1_555 1_555
C13 N2 1_555 1_555
C14 C13 1_555 1_555
H18 C14 1_555 1_555
H19 C14 1_555 1_555
C15 C14 1_555 1_555
H20 C15 1_555 1_555
H21 C15 1_555 1_555
C16 C15 1_555 1_555
H22 C16 1_555 1_555
H23 C16 1_555 1_555
H24 C16 1_555 1_555
C17 C13 1_555 1_555
H25 C17 1_555 1_555
H26 C17 1_555 1_555
C18 C17 1_555 1_555
H27 C18 1_555 1_555
H28 C18 1_555 1_555
C19 C18 1_555 1_555
H29 C19 1_555 1_555
H30 C19 1_555 1_555
H31 C19 1_555 1_555
C20 C13 1_555 1_555
O5 C20 1_555 1_555
O6 C20 1_555 1_555
H32 O6 1_555 1_555

#END
