
#######################################################################
#
#                 Cambridge Crystallographic Data Centre
#                                CCDC 
#
#######################################################################
#
# If this CIF has been generated from an entry in the Cambridge 
# Structural Database, then it will include bibliographic, chemical, 
# crystal, experimental, refinement or atomic coordinate data resulting 
# from the CCDC's data processing and validation procedures.
#
#######################################################################

data_ZAHFIA
_chemical_name_common            'diethylglycine monohydrate'
_chemical_formula_moiety         'C6 H13 N1 O2,H2 O1'
_chemical_name_systematic        '2-ammonio-2-ethylbutanoate monohydrate'
_symmetry_cell_setting           monoclinic
_symmetry_space_group_name_H-M   'P 21/c'
_symmetry_Int_Tables_number      14
_space_group_name_Hall           '-P 2ybc'
loop_
_symmetry_equiv_pos_site_id
_symmetry_equiv_pos_as_xyz
1 x,y,z
2 -x,1/2+y,1/2-z
3 -x,-y,-z
4 x,1/2-y,1/2+z
_cell_length_a                   10.85110(17)
_cell_length_b                   13.68859(17)
_cell_length_c                   11.04563(16)
_cell_angle_alpha                90
_cell_angle_beta                 93.3150(10)
_cell_angle_gamma                90
_cell_volume                     1637.93
_exptl_crystal_colour            colorless
_exptl_crystal_description       rod
_cell_formula_units_Z            8
loop_
_atom_site_label
_atom_site_type_symbol
_atom_site_fract_x
_atom_site_fract_y
_atom_site_fract_z
N1 N 0.64178(7) 0.48748(6) 0.13076(8)
H1 H 0.7238 0.4913 0.1357
H2 H 0.6134 0.5033 0.0561
H3 H 0.6188 0.4268 0.1475
C1 C 0.59005(9) 0.55686(8) 0.22019(9)
C2 C 0.63330(12) 0.66017(8) 0.19074(12)
H4 H 0.6099 0.7037 0.2548
H5 H 0.7227 0.6601 0.1912
C3 C 0.58257(16) 0.70110(10) 0.07007(15)
H6 H 0.6073 0.6599 0.0054
H7 H 0.6143 0.7658 0.0594
H8 H 0.4941 0.7034 0.0691
C4 C 0.63736(11) 0.52716(10) 0.34834(11)
H9 H 0.7269 0.5277 0.3520
H10 H 0.6109 0.5759 0.4051
C5 C 0.59457(16) 0.42786(12) 0.38907(13)
H11 H 0.5071 0.4221 0.3724
H12 H 0.6135 0.4206 0.4746
H13 H 0.6360 0.3778 0.3461
C6 C 0.44757(9) 0.55186(8) 0.20813(10)
O1 O 0.39986(7) 0.49773(6) 0.12574(7)
O2 O 0.39160(8) 0.60047(8) 0.28117(9)
N2 N 0.14317(7) 0.51293(6) 0.13412(8)
H14 H 0.1197 0.5734 0.1516
H15 H 0.1154 0.4977 0.0591
H16 H 0.2252 0.5095 0.1395
C7 C 0.09141(9) 0.44259(8) 0.22207(9)
C8 C 0.12689(12) 0.47708(11) 0.35125(11)
H17 H 0.0992 0.4287 0.4077
H18 H 0.2162 0.4804 0.3614
C9 C 0.07451(18) 0.57510(13) 0.38401(14)
H19 H 0.1142 0.6256 0.3402
H20 H 0.0886 0.5860 0.4695
H21 H -0.0126 0.5760 0.3631
C10 C 0.14716(11) 0.34178(9) 0.20075(13)
H22 H 0.2361 0.3465 0.2138
H23 H 0.1181 0.2971 0.2610
C11 C 0.11781(16) 0.29834(10) 0.07627(16)
H24 H 0.0299 0.2955 0.0607
H25 H 0.1515 0.2336 0.0732
H26 H 0.1534 0.3384 0.0160
C12 C -0.05059(9) 0.43978(8) 0.20061(9)
O3 O -0.09920(7) 0.49772(6) 0.12363(7)
O4 O -0.10668(8) 0.38088(8) 0.26255(10)
O5 O 0.30604(11) 0.77873(7) 0.37523(11)
H27 H 0.2430(13) 0.7907(15) 0.3319(16)
H28 H 0.3335(19) 0.7264(10) 0.3483(19)
O6 O -0.16018(14) 0.21696(8) 0.40000(12)
H29 H -0.144(2) 0.2707(11) 0.373(2)
H30 H -0.2070(19) 0.2217(17) 0.4568(16)
loop_
_geom_bond_atom_site_label_1
_geom_bond_atom_site_label_2
_geom_bond_site_symmetry_1
_geom_bond_site_symmetry_2
N1 H1 1_555 1_555
H2 N1 1_555 1_555
H3 N1 1_555 1_555
C1 N1 1_555 1_555
C2 C1 1_555 1_555
H4 C2 1_555 1_555
H5 C2 1_555 1_555
C3 C2 1_555 1_555
H6 C3 1_555 1_555
H7 C3 1_555 1_555
H8 C3 1_555 1_555
C4 C1 1_555 1_555
H9 C4 1_555 1_555
H10 C4 1_555 1_555
C5 C4 1_555 1_555
H11 C5 1_555 1_555
H12 C5 1_555 1_555
H13 C5 1_555 1_555
C6 C1 1_555 1_555
O1 C6 1_555 1_555
O2 C6 1_555 1_555
N2 H14 1_555 1_555
H15 N2 1_555 1_555
H16 N2 1_555 1_555
C7 N2 1_555 1_555
C8 C7 1_555 1_555
H17 C8 1_555 1_555
H18 C8 1_555 1_555
C9 C8 1_555 1_555
H19 C9 1_555 1_555
H20 C9 1_555 1_555
H21 C9 1_555 1_555
C10 C7 1_555 1_555
H22 C10 1_555 1_555
H23 C10 1_555 1_555
C11 C10 1_555 1_555
H24 C11 1_555 1_555
H25 C11 1_555 1_555
H26 C11 1_555 1_555
C12 C7 1_555 1_555
O3 C12 1_555 1_555
O4 C12 1_555 1_555
O5 H27 1_555 1_555
H28 O5 1_555 1_555
O6 H29 1_555 1_555
H30 O6 1_555 1_555

#END
