
#######################################################################
#
#                 Cambridge Crystallographic Data Centre
#                                CCDC 
#
#######################################################################
#
# If this CIF has been generated from an entry in the Cambridge 
# Structural Database, then it will include bibliographic, chemical, 
# crystal, experimental, refinement or atomic coordinate data resulting 
# from the CCDC's data processing and validation procedures.
#
#######################################################################

data_ZAHHUO
_chemical_formula_moiety         'C19 H15 N1 O1 S1'
_chemical_name_systematic        'O-pyren-1-yl dimethylcarbamothioate'
_symmetry_cell_setting           monoclinic
_symmetry_space_group_name_H-M   'P 21'
_symmetry_Int_Tables_number      4
_space_group_name_Hall           'P 2yb'
loop_
_symmetry_equiv_pos_site_id
_symmetry_equiv_pos_as_xyz
1 x,y,z
2 -x,1/2+y,-z
_cell_length_a                   10.3571(6)
_cell_length_b                   18.9930(11)
_cell_length_c                   15.3449(9)
_cell_angle_alpha                90
_cell_angle_beta                 90.702(4)
_cell_angle_gamma                90
_cell_volume                     3018.31
_exptl_crystal_colour            brown
_exptl_crystal_description       Block
_cell_formula_units_Z            8
loop_
_atom_site_label
_atom_site_type_symbol
_atom_site_fract_x
_atom_site_fract_y
_atom_site_fract_z
S1 S 1.07813(11) 0.43604(6) 0.51610(7)
O1 O 0.9239(3) 0.46394(14) 0.64950(18)
C1 C 0.8933(3) 0.3404(2) 0.6714(2)
C2 C 0.8585(4) 0.2136(2) 0.6918(2)
C3 C 0.8575(4) 0.4017(2) 0.6291(3)
C4 C 0.7161(3) 0.2807(2) 0.5923(2)
C5 C 0.8217(3) 0.2784(2) 0.6530(2)
C6 C 1.0318(4) 0.2743(2) 0.7698(3)
H1 H 1.1002 0.2733 0.8096
N1 N 1.0695(3) 0.54612(18) 0.6237(2)
C7 C 0.6838(4) 0.1553(2) 0.6104(3)
H2 H 0.6377 0.1147 0.5965
C8 C 0.9646(4) 0.2105(2) 0.7512(3)
C9 C 0.6842(4) 0.3444(2) 0.5544(2)
H3 H 0.6143 0.3466 0.5158
C10 C 1.0005(4) 0.1460(3) 0.7876(3)
H4 H 1.0682 0.1439 0.8278
C11 C 0.6480(4) 0.2168(2) 0.5741(3)
H5 H 0.5772 0.2178 0.5363
C12 C 1.0001(4) 0.3359(2) 0.7320(3)
H6 H 1.0477 0.3761 0.7453
C13 C 0.7538(4) 0.4048(2) 0.5724(3)
H7 H 0.7307 0.4472 0.5464
C14 C 0.8343(5) 0.0870(2) 0.7066(3)
H8 H 0.7930 0.0452 0.6914
C15 C 0.7907(4) 0.1506(2) 0.6697(3)
C16 C 1.0231(4) 0.4841(2) 0.5977(2)
C17 C 0.9355(5) 0.0851(2) 0.7639(3)
H9 H 0.9614 0.0422 0.7876
C18 C 1.1786(4) 0.5770(2) 0.5785(3)
H10 H 1.2489 0.5440 0.5780
H11 H 1.2055 0.6192 0.6080
H12 H 1.1535 0.5881 0.5197
C19 C 1.0135(5) 0.5856(2) 0.6964(3)
H13 H 0.9274 0.5691 0.7066
H14 H 1.0109 0.6348 0.6821
H15 H 1.0654 0.5788 0.7480
S2 S 0.36622(10) 0.13907(6) 0.42877(7)
O2 O 0.2082(2) 0.24360(13) 0.38018(18)
C20 C 0.3704(4) 0.3182(2) 0.3211(2)
C21 C 0.5396(4) 0.39326(19) 0.2577(2)
C22 C 0.4533(3) 0.33560(19) 0.2496(2)
C23 C 0.2932(4) 0.2598(2) 0.3112(3)
C24 C 0.5392(4) 0.4361(2) 0.3333(3)
C25 C 0.4504(4) 0.4201(2) 0.4005(3)
H16 H 0.4456 0.4496 0.4487
C26 C 0.6290(4) 0.4075(2) 0.1893(3)
C27 C 0.6253(4) 0.4925(2) 0.3389(3)
H17 H 0.6240 0.5220 0.3873
C28 C 0.4496(4) 0.2941(2) 0.1728(2)
C29 C 0.3724(4) 0.3627(2) 0.3959(2)
H18 H 0.3192 0.3522 0.4426
C30 C 0.5389(4) 0.3107(2) 0.1042(3)
H19 H 0.5377 0.2844 0.0532
N2 N 0.1394(3) 0.18142(15) 0.4907(2)
C31 C 0.3634(4) 0.2385(2) 0.1657(3)
H20 H 0.3575 0.2130 0.1141
C32 C 0.2342(3) 0.18879(19) 0.4345(2)
C33 C 0.7147(4) 0.4631(2) 0.2000(3)
H21 H 0.7746 0.4722 0.1568
C34 C 0.2853(4) 0.2206(2) 0.2360(3)
H22 H 0.2287 0.1827 0.2319
C35 C 0.6242(4) 0.3641(2) 0.1135(3)
H23 H 0.6818 0.3730 0.0688
C36 C 0.7130(4) 0.5051(2) 0.2731(3)
H24 H 0.7711 0.5422 0.2784
C37 C 0.0321(4) 0.2311(2) 0.4950(3)
H25 H 0.0557 0.2698 0.5321
H26 H -0.0423 0.2078 0.5181
H27 H 0.0124 0.2483 0.4375
C38 C 0.1424(4) 0.1240(2) 0.5549(3)
H28 H 0.1166 0.0808 0.5271
H29 H 0.0842 0.1346 0.6013
H30 H 0.2284 0.1190 0.5781
S3 S 0.32120(11) 0.16532(6) 0.92982(7)
O3 O 0.5043(3) 0.14565(15) 0.81127(18)
C39 C 0.6551(4) 0.2635(2) 0.8619(3)
H31 H 0.6742 0.2207 0.8885
C40 C 0.5496(3) 0.2682(2) 0.7985(2)
C41 C 0.4717(4) 0.2129(2) 0.7753(3)
C42 C 0.3494(4) 0.2834(3) 0.6757(3)
H32 H 0.2826 0.2872 0.6349
C43 C 0.5259(4) 0.3346(2) 0.7592(2)
C44 C 0.4233(4) 0.3423(2) 0.6964(3)
C45 C 0.7248(4) 0.3209(2) 0.8820(3)
H33 H 0.7918 0.3163 0.9225
C46 C 0.4005(4) 0.4100(3) 0.6580(3)
H34 H 0.3348 0.4152 0.6167
C47 C 0.7023(4) 0.3876(2) 0.8456(3)
C48 C 0.3744(4) 0.2190(3) 0.7154(3)
H35 H 0.3244 0.1800 0.7010
N3 N 0.5000(3) 0.06573(18) 0.9153(2)
C49 C 0.5763(4) 0.4615(2) 0.7444(3)
C50 C 0.7468(5) 0.5117(3) 0.8292(3)
H36 H 0.7961 0.5506 0.8452
C51 C 0.6006(4) 0.3947(2) 0.7823(3)
C52 C 0.6486(5) 0.5192(3) 0.7683(3)
H37 H 0.6315 0.5630 0.7435
C53 C 0.7730(4) 0.4468(3) 0.8670(3)
H38 H 0.8399 0.4432 0.9077
C54 C 0.4460(4) 0.1237(2) 0.8851(3)
C55 C 0.4732(4) 0.4670(3) 0.6809(3)
H39 H 0.4560 0.5104 0.6549
C56 C 0.4515(5) 0.0315(3) 0.9924(3)
H40 H 0.4430 0.0655 1.0383
H41 H 0.5106 -0.0047 1.0106
H42 H 0.3687 0.0110 0.9796
C57 C 0.6094(5) 0.0318(2) 0.8719(3)
H43 H 0.5967 0.0339 0.8099
H44 H 0.6153 -0.0165 0.8901
H45 H 0.6879 0.0559 0.8875
S4 S 1.04444(12) 0.48279(6) 0.02179(8)
O4 O 1.1885(3) 0.37211(14) 0.06713(17)
C58 C 1.1041(4) 0.3603(2) 0.1364(2)
C59 C 1.0158(4) 0.30607(19) 0.1275(2)
C60 C 1.0055(4) 0.2618(2) 0.0514(3)
H46 H 1.0616 0.2688 0.0053
C61 C 0.8266(4) 0.1980(2) 0.1150(3)
C62 C 0.7566(4) 0.2742(2) 0.3349(2)
H47 H 0.6978 0.2686 0.3797
C63 C 1.0348(4) 0.3873(2) 0.2796(3)
H48 H 1.0425 0.4142 0.3300
C64 C 0.9393(4) 0.3363(2) 0.2745(2)
N4 N 1.2317(4) 0.41514(18) -0.0628(2)
C65 C 0.8342(4) 0.2404(2) 0.1899(3)
C66 C 0.8483(4) 0.3237(2) 0.3425(3)
H49 H 0.8530 0.3506 0.3931
C67 C 0.7467(4) 0.2301(2) 0.2606(3)
C68 C 0.9160(4) 0.2106(2) 0.0461(3)
H50 H 0.9121 0.1826 -0.0035
C69 C 1.1186(4) 0.3991(2) 0.2124(3)
H51 H 1.1838 0.4325 0.2177
C70 C 0.7293(4) 0.1473(2) 0.1088(3)
H52 H 0.7217 0.1198 0.0589
C71 C 1.1565(4) 0.4221(2) 0.0068(3)
C72 C 0.9302(4) 0.29435(19) 0.1981(2)
C73 C 0.6437(4) 0.1375(2) 0.1768(3)
H53 H 0.5805 0.1029 0.1723
C74 C 0.6514(4) 0.1784(2) 0.2507(3)
H54 H 0.5920 0.1716 0.2949
C75 C 1.3262(5) 0.3589(3) -0.0711(3)
H55 H 1.3183 0.3269 -0.0231
H56 H 1.4116 0.3787 -0.0710
H57 H 1.3113 0.3341 -0.1248
C76 C 1.2196(6) 0.4627(3) -0.1357(3)
H58 H 1.1417 0.4896 -0.1304
H59 H 1.2166 0.4362 -0.1889
H60 H 1.2925 0.4939 -0.1362
loop_
_geom_bond_atom_site_label_1
_geom_bond_atom_site_label_2
_geom_bond_site_symmetry_1
_geom_bond_site_symmetry_2
S1 C16 1_555 1_555
O1 C3 1_555 1_555
C1 C3 1_555 1_555
C2 C5 1_555 1_555
C3 C13 1_555 1_555
C4 C5 1_555 1_555
C5 C1 1_555 1_555
C6 H1 1_555 1_555
N1 C16 1_555 1_555
C7 H2 1_555 1_555
C8 C2 1_555 1_555
C9 C4 1_555 1_555
H3 C9 1_555 1_555
C10 C8 1_555 1_555
H4 C10 1_555 1_555
C11 C4 1_555 1_555
H5 C11 1_555 1_555
C12 C1 1_555 1_555
H6 C12 1_555 1_555
C13 C9 1_555 1_555
H7 C13 1_555 1_555
C14 H8 1_555 1_555
C15 C2 1_555 1_555
C16 O1 1_555 1_555
C17 C10 1_555 1_555
H9 C17 1_555 1_555
C18 N1 1_555 1_555
H10 C18 1_555 1_555
H11 C18 1_555 1_555
H12 C18 1_555 1_555
C19 N1 1_555 1_555
H13 C19 1_555 1_555
H14 C19 1_555 1_555
H15 C19 1_555 1_555
S2 C32 1_555 1_555
O2 C23 1_555 1_555
C20 C22 1_555 1_555
C21 C22 1_555 1_555
C22 C28 1_555 1_555
C23 C20 1_555 1_555
C24 C21 1_555 1_555
C25 C24 1_555 1_555
H16 C25 1_555 1_555
C26 C21 1_555 1_555
C27 C24 1_555 1_555
H17 C27 1_555 1_555
C28 C30 1_555 1_555
C29 C20 1_555 1_555
H18 C29 1_555 1_555
C30 H19 1_555 1_555
N2 C32 1_555 1_555
C31 C28 1_555 1_555
H20 C31 1_555 1_555
C32 O2 1_555 1_555
C33 C26 1_555 1_555
H21 C33 1_555 1_555
C34 C23 1_555 1_555
H22 C34 1_555 1_555
C35 C26 1_555 1_555
H23 C35 1_555 1_555
C36 C27 1_555 1_555
H24 C36 1_555 1_555
C37 N2 1_555 1_555
H25 C37 1_555 1_555
H26 C37 1_555 1_555
H27 C37 1_555 1_555
C38 N2 1_555 1_555
H28 C38 1_555 1_555
H29 C38 1_555 1_555
H30 C38 1_555 1_555
S3 C54 1_555 1_555
O3 C41 1_555 1_555
C39 H31 1_555 1_555
C40 C39 1_555 1_555
C41 C40 1_555 1_555
C42 H32 1_555 1_555
C43 C40 1_555 1_555
C44 C42 1_555 1_555
C45 C39 1_555 1_555
H33 C45 1_555 1_555
C46 C44 1_555 1_555
H34 C46 1_555 1_555
C47 C45 1_555 1_555
C48 C41 1_555 1_555
H35 C48 1_555 1_555
N3 C54 1_555 1_555
C49 C51 1_555 1_555
C50 H36 1_555 1_555
C51 C43 1_555 1_555
C52 C49 1_555 1_555
H37 C52 1_555 1_555
C53 C47 1_555 1_555
H38 C53 1_555 1_555
C54 O3 1_555 1_555
C55 C46 1_555 1_555
H39 C55 1_555 1_555
C56 N3 1_555 1_555
H40 C56 1_555 1_555
H41 C56 1_555 1_555
H42 C56 1_555 1_555
C57 N3 1_555 1_555
H43 C57 1_555 1_555
H44 C57 1_555 1_555
H45 C57 1_555 1_555
S4 C71 1_555 1_555
O4 C58 1_555 1_555
C58 C59 1_555 1_555
C59 C60 1_555 1_555
C60 H46 1_555 1_555
C61 C65 1_555 1_555
C62 H47 1_555 1_555
C63 H48 1_555 1_555
C64 C63 1_555 1_555
N4 C71 1_555 1_555
C65 C67 1_555 1_555
C66 C62 1_555 1_555
H49 C66 1_555 1_555
C67 C62 1_555 1_555
C68 C60 1_555 1_555
H50 C68 1_555 1_555
C69 C58 1_555 1_555
H51 C69 1_555 1_555
C70 C61 1_555 1_555
H52 C70 1_555 1_555
C71 O4 1_555 1_555
C72 C59 1_555 1_555
C73 C70 1_555 1_555
H53 C73 1_555 1_555
C74 C67 1_555 1_555
H54 C74 1_555 1_555
C75 N4 1_555 1_555
H55 C75 1_555 1_555
H56 C75 1_555 1_555
H57 C75 1_555 1_555
C76 N4 1_555 1_555
H58 C76 1_555 1_555
H59 C76 1_555 1_555
H60 C76 1_555 1_555
C6 C8 1_555 1_555
C6 C12 1_555 1_555
C7 C11 1_555 1_555
C7 C15 1_555 1_555
C14 C15 1_555 1_555
C14 C17 1_555 1_555
C25 C29 1_555 1_555
C30 C35 1_555 1_555
C31 C34 1_555 1_555
C33 C36 1_555 1_555
C42 C48 1_555 1_555
C43 C44 1_555 1_555
C47 C51 1_555 1_555
C49 C55 1_555 1_555
C50 C52 1_555 1_555
C50 C53 1_555 1_555
C61 C68 1_555 1_555
C63 C69 1_555 1_555
C64 C66 1_555 1_555
C64 C72 1_555 1_555
C65 C72 1_555 1_555
C73 C74 1_555 1_555

#END
