
#######################################################################
#
#                 Cambridge Crystallographic Data Centre
#                                CCDC 
#
#######################################################################
#
# If this CIF has been generated from an entry in the Cambridge 
# Structural Database, then it will include bibliographic, chemical, 
# crystal, experimental, refinement or atomic coordinate data resulting 
# from the CCDC's data processing and validation procedures.
#
#######################################################################

data_ZAHKUO
_chemical_formula_moiety         'C27 H24 O10'
_chemical_name_systematic        
"Propane-1,3-diyl 3,4':3',4-bis(4-methyl-7-coumarinyl)-bis(oxyacetate)"
_symmetry_cell_setting           orthorhombic
_symmetry_space_group_name_H-M   'P b c a'
_symmetry_Int_Tables_number      61
_space_group_name_Hall           '-P 2ac 2ab'
loop_
_symmetry_equiv_pos_site_id
_symmetry_equiv_pos_as_xyz
1 x,y,z
2 1/2-x,-y,1/2+z
3 1/2+x,1/2-y,-z
4 -x,1/2+y,1/2-z
5 -x,-y,-z
6 1/2+x,y,1/2-z
7 1/2-x,1/2+y,z
8 x,1/2-y,1/2+z
_cell_length_a                   10.745(5)
_cell_length_b                   13.443(4)
_cell_length_c                   33.358(9)
_cell_angle_alpha                90
_cell_angle_beta                 90
_cell_angle_gamma                90
_cell_volume                     4818.4
_exptl_crystal_colour            colorless
_chemical_melting_point          204-206deg.C
_cell_formula_units_Z            8
loop_
_atom_site_label
_atom_site_type_symbol
_atom_site_fract_x
_atom_site_fract_y
_atom_site_fract_z
O1 O 0.4545(6) 0.0537(6) 0.7176(2)
O2 O 0.5435(6) 0.0858(6) 0.7887(2)
O3 O 0.3547(6) 0.0955(6) 0.8165(2)
O4 O 0.4645(7) 0.2988(5) 0.8071(2)
O5 O 0.6568(7) 0.3314(6) 0.7843(2)
O6 O 0.5700(6) 0.3683(5) 0.7113(2)
O7 O 0.7406(7) 0.1533(6) 0.5413(2)
O8 O 0.6344(6) 0.1033(6) 0.5932(2)
O9 O 0.1317(6) 0.2815(6) 0.5618(2)
O10 O 0.2747(6) 0.3226(5) 0.6059(2)
C1 C 0.3633(9) 0.0731(7) 0.7470(3)
C2 C 0.4325(9) 0.0857(7) 0.7861(3)
C3 C 0.411(1) 0.1078(8) 0.8562(3)
C4 C 0.420(1) 0.2129(9) 0.8684(3)
C5 C 0.516(1) 0.2749(8) 0.8474(3)
C6 C 0.548(1) 0.3249(8) 0.7795(3)
C7 C 0.481(1) 0.3418(8) 0.7402(3)
C8 C 0.5199(9) 0.0953(7) 0.6138(3)
C9 C 0.5329(9) 0.0765(8) 0.6537(3)
C10 C 0.4295(9) 0.0677(7) 0.6774(3)
C11 C 0.3132(9) 0.0786(8) 0.6608(3)
C12 C 0.3019(9) 0.0962(7) 0.6200(3)
C13 C 0.4057(9) 0.1083(7) 0.5962(3)
C14 C 0.3975(9) 0.1374(7) 0.5520(3)
C15 C 0.5224(9) 0.1825(7) 0.5377(3)
C16 C 0.641(1) 0.1483(8) 0.5561(3)
C17 C 0.344(1) 0.0537(9) 0.5260(3)
C18 C 0.3990(9) 0.3313(7) 0.6174(3)
C19 C 0.4167(9) 0.3476(8) 0.6581(3)
C20 C 0.5376(9) 0.3570(7) 0.6716(3)
C21 C 0.6354(9) 0.3576(8) 0.6448(3)
C22 C 0.6160(1) 0.3394(8) 0.6038(3)
C23 C 0.4954(9) 0.3214(7) 0.5900(2)
C24 C 0.4700(1) 0.2883(7) 0.5476(3)
C25 C 0.3399(9) 0.2439(8) 0.5435(3)
C26 C 0.240(1) 0.2803(8) 0.5699(3)
C27 C 0.504(1) 0.375(1) 0.5199(3)
loop_
_geom_bond_atom_site_label_1
_geom_bond_atom_site_label_2
_geom_bond_site_symmetry_1
_geom_bond_site_symmetry_2
O1 C1 1_555 1_555
O2 C2 1_555 1_555
O3 C2 1_555 1_555
O4 C5 1_555 1_555
O5 C6 1_555 1_555
O6 C7 1_555 1_555
O7 C16 1_555 1_555
O8 C8 1_555 1_555
O9 C26 1_555 1_555
O10 C18 1_555 1_555
C1 C2 1_555 1_555
C3 O3 1_555 1_555
C4 C3 1_555 1_555
C5 C4 1_555 1_555
C6 O4 1_555 1_555
C7 C6 1_555 1_555
C8 C9 1_555 1_555
C9 C10 1_555 1_555
C10 O1 1_555 1_555
C11 C10 1_555 1_555
C12 C11 1_555 1_555
C13 C8 1_555 1_555
C14 C13 1_555 1_555
C15 C14 1_555 1_555
C16 O8 1_555 1_555
C17 C14 1_555 1_555
C18 C19 1_555 1_555
C19 C20 1_555 1_555
C20 O6 1_555 1_555
C21 C20 1_555 1_555
C22 C21 1_555 1_555
C23 C18 1_555 1_555
C24 C15 1_555 1_555
C25 C14 1_555 1_555
C26 O10 1_555 1_555
C27 C24 1_555 1_555
C12 C13 1_555 1_555
C15 C16 1_555 1_555
C22 C23 1_555 1_555
C23 C24 1_555 1_555
C24 C25 1_555 1_555
C25 C26 1_555 1_555

#END
