
#######################################################################
#
#                 Cambridge Crystallographic Data Centre
#                                CCDC 
#
#######################################################################
#
# If this CIF has been generated from an entry in the Cambridge 
# Structural Database, then it will include bibliographic, chemical, 
# crystal, experimental, refinement or atomic coordinate data resulting 
# from the CCDC's data processing and validation procedures.
#
#######################################################################

data_ZAHLAV
_chemical_formula_moiety         'C24 H18 N2 O2'
_chemical_name_systematic        
3-Methyl-1-phenyl-4-phenylbenzoylmethylene-5-pyrazolone
_symmetry_cell_setting           monoclinic
_symmetry_space_group_name_H-M   'P 21/n'
_symmetry_Int_Tables_number      14
_space_group_name_Hall           '-P 2yn'
loop_
_symmetry_equiv_pos_site_id
_symmetry_equiv_pos_as_xyz
1 x,y,z
2 1/2-x,1/2+y,1/2-z
3 -x,-y,-z
4 1/2+x,1/2-y,1/2+z
_cell_length_a                   7.479(1)
_cell_length_b                   16.992(1)
_cell_length_c                   15.165(1)
_cell_angle_alpha                90
_cell_angle_beta                 100.99(1)
_cell_angle_gamma                90
_cell_volume                     1891.87
_exptl_crystal_colour            red
_chemical_melting_point          175-176deg.C
_cell_formula_units_Z            4
loop_
_atom_site_label
_atom_site_type_symbol
_atom_site_fract_x
_atom_site_fract_y
_atom_site_fract_z
O1 O 0.6011(3) -0.0028(1) 0.7892(1)
O2 O 0.2708(3) 0.1039(1) 0.6771(2)
N1 N 0.6915(3) 0.0247(1) 0.9417(1)
N2 N 0.6866(3) 0.0904(1) 0.9985(2)
C1 C 0.6218(4) 0.0411(2) 0.8535(2)
C2 C 0.6240(4) 0.1494(2) 0.9487(2)
C3 C 0.5764(4) 0.1272(2) 0.8541(2)
C4 C 0.5000(4) 0.1666(2) 0.7800(2)
C5 C 0.4292(4) 0.1244(2) 0.6918(2)
C6 C 0.5475(4) 0.1173(2) 0.6244(2)
C7 C 0.7351(4) 0.1231(2) 0.6484(2)
C8 C 0.8404(4) 0.1130(2) 0.5835(3)
C9 C 0.7616(5) 0.0992(2) 0.4955(2)
C10 C 0.5744(5) 0.0946(2) 0.4710(2)
C11 C 0.4673(4) 0.1027(2) 0.5353(2)
C12 C 0.4669(4) 0.2535(2) 0.7767(2)
C13 C 0.2916(4) 0.2820(2) 0.7489(2)
C14 C 0.2627(5) 0.3639(2) 0.7481(2)
C15 C 0.4070(6) 0.4145(2) 0.7727(2)
C16 C 0.5820(5) 0.3862(2) 0.7980(2)
C17 C 0.6133(5) 0.3051(2) 0.7997(2)
C18 C 0.7678(3) -0.0461(2) 0.9821(2)
C19 C 0.8147(4) -0.0499(2) 1.0746(2)
C20 C 0.8886(4) -0.1193(2) 1.1141(2)
C21 C 0.9175(4) -0.1834(2) 1.0634(2)
C22 C 0.8721(5) -0.1784(2) 0.9715(2)
C23 C 0.7961(5) -0.1095(2) 0.9291(2)
C24 C 0.5969(5) 0.2263(2) 0.9927(2)
loop_
_geom_bond_atom_site_label_1
_geom_bond_atom_site_label_2
_geom_bond_site_symmetry_1
_geom_bond_site_symmetry_2
O1 C1 1_555 1_555
O2 C5 1_555 1_555
N1 N2 1_555 1_555
N2 C2 1_555 1_555
C1 N1 1_555 1_555
C2 C3 1_555 1_555
C3 C1 1_555 1_555
C4 C3 1_555 1_555
C5 C4 1_555 1_555
C6 C5 1_555 1_555
C7 C6 1_555 1_555
C8 C7 1_555 1_555
C9 C8 1_555 1_555
C10 C9 1_555 1_555
C11 C6 1_555 1_555
C12 C4 1_555 1_555
C13 C12 1_555 1_555
C14 C13 1_555 1_555
C15 C14 1_555 1_555
C16 C15 1_555 1_555
C17 C12 1_555 1_555
C18 N1 1_555 1_555
C19 C18 1_555 1_555
C20 C19 1_555 1_555
C21 C20 1_555 1_555
C22 C21 1_555 1_555
C23 C18 1_555 1_555
C24 C2 1_555 1_555
C10 C11 1_555 1_555
C16 C17 1_555 1_555
C22 C23 1_555 1_555

#END
