
#######################################################################
#
#                 Cambridge Crystallographic Data Centre
#                                CCDC 
#
#######################################################################
#
# If this CIF has been generated from an entry in the Cambridge 
# Structural Database, then it will include bibliographic, chemical, 
# crystal, experimental, refinement or atomic coordinate data resulting 
# from the CCDC's data processing and validation procedures.
#
#######################################################################

data_ZAHMIE
_chemical_formula_moiety         'C44 H52 O7 P2,1.5(C2 H3 N1)'
_chemical_name_systematic        
'5,11,17,23-Tetra-t-butyl-25,26,27,28-tetra-oxycalix(4)arene pyrophosphate acetonitrile solvate'
_symmetry_cell_setting           orthorhombic
_symmetry_space_group_name_H-M   'P b c a'
_symmetry_Int_Tables_number      61
_space_group_name_Hall           '-P 2ac 2ab'
loop_
_symmetry_equiv_pos_site_id
_symmetry_equiv_pos_as_xyz
1 x,y,z
2 1/2-x,-y,1/2+z
3 1/2+x,1/2-y,-z
4 -x,1/2+y,1/2-z
5 -x,-y,-z
6 1/2+x,y,1/2-z
7 1/2-x,1/2+y,z
8 x,1/2-y,1/2+z
_cell_length_a                   20.272(4)
_cell_length_b                   33.099(3)
_cell_length_c                   14.184(1)
_cell_angle_alpha                90
_cell_angle_beta                 90
_cell_angle_gamma                90
_cell_volume                     9517.22
_chemical_melting_point          375-376.5deg.C
_cell_formula_units_Z            8
loop_
_atom_site_label
_atom_site_type_symbol
_atom_site_fract_x
_atom_site_fract_y
_atom_site_fract_z
P1 P 0.8873(1) 0.1498(1) 0.2561(3)
P2 P 0.7640(1) 0.1746(1) 0.1729(3)
O1 O 0.8430(3) 0.1130(2) 0.2809(5)
O2 O 0.8835(3) 0.1787(2) 0.3442(6)
O3 O 0.7461(3) 0.1761(2) 0.2804(5)
O4 O 0.7408(3) 0.1316(2) 0.1397(5)
O5 O 0.9534(3) 0.1427(2) 0.2208(5)
O6 O 0.7443(4) 0.2077(2) 0.1130(5)
O7 O 0.8430(3) 0.1716(2) 0.1777(5)
C1 C 0.8598(5) 0.0735(3) 0.3148(9)
C2 C 0.8328(5) 0.0429(3) 0.2633(8)
C3 C 0.8411(5) 0.0045(3) 0.2973(8)
C4 C 0.8741(5) -0.0023(3) 0.3830(9)
C5 C 0.9023(5) 0.0304(3) 0.4276(8)
C6 C 0.8963(5) 0.0692(3) 0.3933(8)
C7 C 0.9278(5) 0.1055(3) 0.4446(8)
C8 C 0.8577(5) 0.1693(3) 0.4346(9)
C9 C 0.8805(5) 0.1355(3) 0.485(1)
C10 C 0.8599(6) 0.1311(3) 0.576(1)
C11 C 0.8171(6) 0.1581(4) 0.6183(9)
C12 C 0.7929(6) 0.1899(3) 0.567(1)
C13 C 0.8102(5) 0.1958(3) 0.474(1)
C14 C 0.7816(5) 0.2311(3) 0.4174(9)
C15 C 0.6925(6) 0.1969(3) 0.3202(9)
C16 C 0.7096(6) 0.2233(3) 0.3894(9)
C17 C 0.6590(6) 0.2451(3) 0.4333(9)
C18 C 0.5926(6) 0.2384(4) 0.404(1)
C19 C 0.5789(6) 0.2104(3) 0.336(1)
C20 C 0.6294(6) 0.1890(3) 0.2912(9)
C21 C 0.6144(5) 0.1602(3) 0.2111(8)
C22 C 0.7006(5) 0.1048(3) 0.1923(8)
C23 C 0.6397(5) 0.1176(3) 0.2245(7)
C24 C 0.5995(5) 0.0893(3) 0.2666(8)
C25 C 0.6183(5) 0.0494(3) 0.2789(8)
C26 C 0.6803(5) 0.0389(3) 0.2475(9)
C27 C 0.7233(5) 0.0659(3) 0.2036(7)
C28 C 0.7916(5) 0.0507(3) 0.1759(8)
C29 C 0.8755(5) -0.0454(3) 0.4226(8)
C30 C 0.8047(6) -0.0597(4) 0.439(1)
C31 C 0.9097(7) -0.0731(4) 0.355(1)
C32 C 0.9111(6) -0.0473(3) 0.518(1)
C33 C 0.7987(7) 0.1548(4) 0.721(1)
C34 C 0.8173(8) 0.1152(5) 0.769(1)
C35 C 0.839(1) 0.1875(6) 0.772(1)
C36 C 0.727(1) 0.1613(7) 0.738(2)
C37 C 0.5378(8) 0.2631(5) 0.456(1)
C38 C 0.5398(9) 0.2566(6) 0.557(1)
C39 C 0.553(1) 0.3058(6) 0.445(1)
C40 C 0.470(1) 0.2539(6) 0.417(1)
C41 C 0.5728(6) 0.0174(3) 0.322(1)
C42 C 0.5066(9) 0.0328(5) 0.349(1)
C43 C 0.5612(8) -0.0160(5) 0.250(1)
C44 C 0.6041(8) -0.0031(4) 0.405(1)
H1 H 0.8243 -0.0178 0.2626
H2 H 0.9266 0.0261 0.4840
H3 H 0.8756 0.1088 0.6117
H4 H 0.7634 0.2084 0.5958
H5 H 0.6686 0.2639 0.4820
H6 H 0.5343 0.2054 0.3190
H7 H 0.5572 0.0975 0.2880
H8 H 0.6946 0.0118 0.2561
H9 H 0.9540 0.0953 0.4947
H10 H 0.9551 0.1193 0.4007
H11 H 0.7836 0.2549 0.4546
H12 H 0.8071 0.2347 0.3619
H13 H 0.5679 0.1590 0.2037
H14 H 0.6338 0.1708 0.1554
H15 H 0.8129 0.0705 0.1381
H16 H 0.7873 0.0264 0.1410
H17 H 0.7834 -0.0422 0.4821
H18 H 0.7815 -0.0595 0.3805
H19 H 0.8053 -0.0864 0.4633
H20 H 0.9106 -0.0996 0.3807
H21 H 0.8866 -0.0733 0.2969
H22 H 0.9535 -0.0639 0.3451
H23 H 0.9098 -0.0742 0.5413
H24 H 0.9557 -0.0392 0.5102
H25 H 0.8899 -0.0298 0.5614
H26 H 0.8049 0.1162 0.8334
H27 H 0.7949 0.0935 0.7387
H28 H 0.8635 0.1112 0.7641
H29 H 0.8850 0.1823 0.7639
H30 H 0.8288 0.2133 0.7472
H31 H 0.8291 0.1871 0.8379
H32 H 0.7146 0.1867 0.7128
H33 H 0.7028 0.1404 0.7091
H34 H 0.7191 0.1611 0.8043
H35 H 0.5092 0.2741 0.5873
H36 H 0.5285 0.2293 0.5708
H37 H 0.5830 0.2620 0.5800
H38 H 0.5959 0.3110 0.4670
H39 H 0.5495 0.3130 0.3801
H40 H 0.5218 0.3212 0.4803
H41 H 0.4383 0.2697 0.4486
H42 H 0.4694 0.2600 0.3513
H43 H 0.4608 0.2260 0.4257
H44 H 0.5112 0.0532 0.3952
H45 H 0.4854 0.0437 0.2947
H46 H 0.4808 0.0113 0.3733
H47 H 0.5337 -0.0362 0.2763
H48 H 0.5405 -0.0050 0.1954
H49 H 0.6023 -0.0276 0.2322
H50 H 0.5755 -0.0236 0.4281
H51 H 0.6448 -0.0149 0.3864
H52 H 0.6120 0.0162 0.4534
N1 N 0.7448(9) 0.0463(6) 0.585(1)
C45 C 0.724(1) 0.0701(6) 0.533(2)
C46 C 0.7091(7) 0.0999(4) 0.463(1)
N2 N 0.540(2) 0.112(1) 0.594(3)
C47 C 0.498(3) 0.127(1) 0.559(3)
C48 C 0.447(2) 0.126(1) 0.511(3)
loop_
_geom_bond_atom_site_label_1
_geom_bond_atom_site_label_2
_geom_bond_site_symmetry_1
_geom_bond_site_symmetry_2
P1 O1 1_555 1_555
P2 O3 1_555 1_555
O1 C1 1_555 1_555
O2 P1 1_555 1_555
O3 C15 1_555 1_555
O4 P2 1_555 1_555
O5 P1 1_555 1_555
O6 P2 1_555 1_555
O7 P1 1_555 1_555
C1 C2 1_555 1_555
C2 C3 1_555 1_555
C3 C4 1_555 1_555
C4 C5 1_555 1_555
C5 C6 1_555 1_555
C6 C1 1_555 1_555
C7 C6 1_555 1_555
C8 O2 1_555 1_555
C9 C7 1_555 1_555
C10 C9 1_555 1_555
C11 C10 1_555 1_555
C12 C11 1_555 1_555
C13 C8 1_555 1_555
C14 C13 1_555 1_555
C15 C16 1_555 1_555
C16 C14 1_555 1_555
C17 C16 1_555 1_555
C18 C17 1_555 1_555
C19 C18 1_555 1_555
C20 C15 1_555 1_555
C21 C20 1_555 1_555
C22 O4 1_555 1_555
C23 C21 1_555 1_555
C24 C23 1_555 1_555
C25 C24 1_555 1_555
C26 C25 1_555 1_555
C27 C22 1_555 1_555
C28 C2 1_555 1_555
C29 C4 1_555 1_555
C30 C29 1_555 1_555
C31 C29 1_555 1_555
C32 C29 1_555 1_555
C33 C11 1_555 1_555
C34 C33 1_555 1_555
C35 C33 1_555 1_555
C36 C33 1_555 1_555
C37 C18 1_555 1_555
C38 C37 1_555 1_555
C39 C37 1_555 1_555
C40 C37 1_555 1_555
C41 C25 1_555 1_555
C42 C41 1_555 1_555
C43 C41 1_555 1_555
C44 C41 1_555 1_555
H1 C3 1_555 1_555
H2 C5 1_555 1_555
H3 C10 1_555 1_555
H4 C12 1_555 1_555
H5 C17 1_555 1_555
H6 C19 1_555 1_555
H7 C24 1_555 1_555
H8 C26 1_555 1_555
H9 C7 1_555 1_555
H10 C7 1_555 1_555
H11 C14 1_555 1_555
H12 C14 1_555 1_555
H13 C21 1_555 1_555
H14 C21 1_555 1_555
H15 C28 1_555 1_555
H16 C28 1_555 1_555
H17 C30 1_555 1_555
H18 C30 1_555 1_555
H19 C30 1_555 1_555
H20 C31 1_555 1_555
H21 C31 1_555 1_555
H22 C31 1_555 1_555
H23 C32 1_555 1_555
H24 C32 1_555 1_555
H25 C32 1_555 1_555
H26 C34 1_555 1_555
H27 C34 1_555 1_555
H28 C34 1_555 1_555
H29 C35 1_555 1_555
H30 C35 1_555 1_555
H31 C35 1_555 1_555
H32 C36 1_555 1_555
H33 C36 1_555 1_555
H34 C36 1_555 1_555
H35 C38 1_555 1_555
H36 C38 1_555 1_555
H37 C38 1_555 1_555
H38 C39 1_555 1_555
H39 C39 1_555 1_555
H40 C39 1_555 1_555
H41 C40 1_555 1_555
H42 C40 1_555 1_555
H43 C40 1_555 1_555
H44 C42 1_555 1_555
H45 C42 1_555 1_555
H46 C42 1_555 1_555
H47 C43 1_555 1_555
H48 C43 1_555 1_555
H49 C43 1_555 1_555
H50 C44 1_555 1_555
H51 C44 1_555 1_555
H52 C44 1_555 1_555
N1 C45 1_555 1_555
C45 C46 1_555 1_555
N2 C47 1_555 1_555
C47 C48 1_555 1_555
P2 O7 1_555 1_555
C8 C9 1_555 1_555
C12 C13 1_555 1_555
C19 C20 1_555 1_555
C22 C23 1_555 1_555
C26 C27 1_555 1_555
C27 C28 1_555 1_555

#END
