
#######################################################################
#
#                 Cambridge Crystallographic Data Centre
#                                CCDC 
#
#######################################################################
#
# If this CIF has been generated from an entry in the Cambridge 
# Structural Database, then it will include bibliographic, chemical, 
# crystal, experimental, refinement or atomic coordinate data resulting 
# from the CCDC's data processing and validation procedures.
#
#######################################################################

data_ZAHREI01
_chemical_formula_moiety         'C7 H17 N2 O1 1+,B1 F4 1-'
_chemical_name_systematic        
'3-(morpholin-4-yl)propan-1-aminium tetrafluoroborate'
_symmetry_cell_setting           triclinic
_symmetry_space_group_name_H-M   'P -1'
_symmetry_Int_Tables_number      2
_space_group_name_Hall           '-P 1'
loop_
_symmetry_equiv_pos_site_id
_symmetry_equiv_pos_as_xyz
1 x,y,z
2 -x,-y,-z
_cell_length_a                   10.021(7)
_cell_length_b                   7.662(3)
_cell_length_c                   7.920(4)
_cell_angle_alpha                95.012(14)
_cell_angle_beta                 101.67(4)
_cell_angle_gamma                91.48(3)
_cell_volume                     592.667
_cell_formula_units_Z            2
loop_
_atom_site_label
_atom_site_type_symbol
_atom_site_fract_x
_atom_site_fract_y
_atom_site_fract_z
C1 C 0.2568(9) 0.8655(10) 0.9670(9)
H1 H 0.2414 0.9670 0.9016
H2 H 0.3290 0.8971 1.0677
C2 C 0.1258(7) 0.8129(12) 1.0256(10)
H3 H 0.1001 0.9103 1.0974
H4 H 0.0527 0.7885 0.9247
C3 C 0.1796(7) 0.5252(9) 1.0158(9)
H5 H 0.1082 0.4962 0.9137
H6 H 0.1910 0.4233 1.0811
C4 C 0.3124(6) 0.5710(9) 0.9610(9)
H7 H 0.3842 0.5972 1.0632
H8 H 0.3384 0.4709 0.8930
C5 C 0.4290(8) 0.7610(15) 0.8082(11)
H9 H 0.4788 0.8494 0.8948
H10 H 0.4809 0.6559 0.8173
C6 C 0.4317(8) 0.815(2) 0.6565(12)
H11 H 0.5222 0.7913 0.6368
H12 H 0.4285 0.9418 0.6727
C7 C 0.3381(7) 0.7622(10) 0.4890(8)
H13 H 0.3458 0.8512 0.4112
H14 H 0.3690 0.6541 0.4396
N1 N 0.2985(4) 0.7210(8) 0.8597(6)
N2 N 0.1925(5) 0.7352(6) 0.4937(5)
H15 H 0.1457 0.6998 0.3878
H16 H 0.1607 0.8355 0.5313
H17 H 0.1834 0.6540 0.5649
O1 O 0.1413(4) 0.6667(8) 1.1179(6)
B1 B 0.1848(8) 0.2373(10) 1.4978(11)
F1 F 0.0917(10) 0.3586(11) 1.4367(17)
F2 F 0.1395(16) 0.152(2) 1.619(2)
F3 F 0.3061(9) 0.3173(17) 1.562(2)
F4 F 0.1975(14) 0.121(2) 1.3629(18)
F5? F 0.229(3) 0.305(5) 1.380(4)
F6? F 0.123(2) 0.347(4) 1.582(4)
F7? F 0.294(2) 0.199(3) 1.611(3)
F8? F 0.114(2) 0.0979(19) 1.449(4)
loop_
_geom_bond_atom_site_label_1
_geom_bond_atom_site_label_2
_geom_bond_site_symmetry_1
_geom_bond_site_symmetry_2
C1 H1 1_555 1_555
H2 C1 1_555 1_555
C2 C1 1_555 1_555
H3 C2 1_555 1_555
H4 C2 1_555 1_555
C3 H5 1_555 1_555
H6 C3 1_555 1_555
C4 C3 1_555 1_555
H7 C4 1_555 1_555
H8 C4 1_555 1_555
C5 H9 1_555 1_555
H10 C5 1_555 1_555
C6 C5 1_555 1_555
H11 C6 1_555 1_555
H12 C6 1_555 1_555
C7 C6 1_555 1_555
H13 C7 1_555 1_555
H14 C7 1_555 1_555
N1 C1 1_555 1_555
N2 C7 1_555 1_555
H15 N2 1_555 1_555
H16 N2 1_555 1_555
H17 N2 1_555 1_555
O1 C2 1_555 1_555
B1 F1 1_555 1_555
F2 B1 1_555 1_555
F3 B1 1_555 1_555
F4 B1 1_555 1_555
C3 O1 1_555 1_555
C4 N1 1_555 1_555
C5 N1 1_555 1_555

#END
