
#######################################################################
#
#                 Cambridge Crystallographic Data Centre
#                                CCDC 
#
#######################################################################
#
# If this CIF has been generated from an entry in the Cambridge 
# Structural Database, then it will include bibliographic, chemical, 
# crystal, experimental, refinement or atomic coordinate data resulting 
# from the CCDC's data processing and validation procedures.
#
#######################################################################

data_ZAHSIN
_chemical_formula_moiety         'C12 H13 N1 O5,H2 O1'
_chemical_name_systematic        
'3,7-dihydroxy-2-(pent-1-en-1-yl)-6,7-dihydropyrano[2,3-c]pyrrole-4,5-dione monohydrate'
_symmetry_cell_setting           triclinic
_symmetry_space_group_name_H-M   'P 1'
_symmetry_Int_Tables_number      1
_space_group_name_Hall           'P 1'
loop_
_symmetry_equiv_pos_site_id
_symmetry_equiv_pos_as_xyz
1 x,y,z
_cell_length_a                   4.1371(3)
_cell_length_b                   10.1027(11)
_cell_length_c                   15.4011(12)
_cell_angle_alpha                97.233(2)
_cell_angle_beta                 94.7010(10)
_cell_angle_gamma                96.0690(10)
_cell_volume                     632.033
_cell_formula_units_Z            2
loop_
_atom_site_label
_atom_site_type_symbol
_atom_site_fract_x
_atom_site_fract_y
_atom_site_fract_z
N1 N -0.510(3) 0.7110(10) 0.4353(7)
H1 H -0.6438 0.6583 0.3971
O1 O 0.027(2) 0.8073(7) 0.6310(5)
O2 O -0.109(3) 1.1337(8) 0.5043(6)
O3 O 0.295(3) 1.1606(8) 0.6606(6)
H2 H 0.2906 1.2135 0.6244
O4 O -0.538(2) 0.6088(9) 0.5708(7)
H3 H -0.5172 0.5289 0.5701
O5 O -0.549(3) 0.9035(9) 0.3744(7)
C1 C 0.182(3) 0.9330(11) 0.6629(8)
C2 C 0.139(4) 1.0419(13) 0.6246(9)
C3 C -0.065(4) 1.0334(12) 0.5393(8)
C4 C -0.211(3) 0.8983(12) 0.5106(8)
C5 C -0.153(3) 0.7987(12) 0.5544(9)
C6 C -0.327(3) 0.6661(12) 0.5104(9)
H4 H -0.1722 0.6044 0.4906
C7 C -0.446(4) 0.8417(15) 0.4337(10)
C8 C 0.381(3) 0.9347(12) 0.7453(9)
H5 H 0.4716 1.0182 0.7746
C9 C 0.447(4) 0.8261(12) 0.7832(9)
H6 H 0.3680 0.7426 0.7518
C10 C 0.632(4) 0.8258(13) 0.8689(9)
H7 H 0.8112 0.7728 0.8595
H8 H 0.4893 0.7796 0.9054
C11 C 0.769(4) 0.9584(14) 0.9198(9)
H9 H 0.5958 1.0157 0.9255
H10 H 0.9323 1.0013 0.8874
C12 C 0.921(4) 0.9462(19) 1.0096(10)
H11 H 1.1363 0.9201 1.0054
H12 H 0.7897 0.8795 1.0347
H13 H 0.9347 1.0311 1.0463
N2 N 0.719(3) 0.2017(11) 0.3356(7)
H14 H 0.7518 0.1473 0.3733
O6 O 0.425(2) 0.3046(9) 0.1343(6)
O7 O 1.053(3) 0.6091(10) 0.2810(7)
O8 O 0.768(3) 0.6434(9) 0.1183(7)
H15 H 0.7962 0.7062 0.1584
O9 O 0.582(2) 0.0544(9) 0.1996(6)
H16 H 0.4819 -0.0152 0.2104
O10 O 1.056(3) 0.3841(10) 0.4082(7)
C13 C 0.496(4) 0.4269(13) 0.1045(9)
C14 C 0.705(4) 0.5300(12) 0.1506(9)
C15 C 0.865(4) 0.5185(13) 0.2395(9)
C16 C 0.773(3) 0.3885(12) 0.2638(8)
C17 C 0.564(3) 0.2923(12) 0.2148(8)
C18 C 0.496(3) 0.1645(11) 0.2549(9)
H17 H 0.2683 0.1498 0.2680
C19 C 0.867(4) 0.3279(13) 0.3452(10)
C20 C 0.348(4) 0.4353(13) 0.0163(9)
H18 H 0.3735 0.5185 -0.0037
C21 C 0.178(4) 0.3327(13) -0.0384(9)
H19 H 0.1573 0.2507 -0.0167
C22 C 0.023(4) 0.3318(13) -0.1263(9)
H20 H -0.0763 0.2536 -0.1607
C23 C 0.035(4) 0.4671(13) -0.1578(10)
H21 H 0.2607 0.5072 -0.1526
H22 H -0.0828 0.5249 -0.1198
C24 C -0.111(4) 0.4615(16) -0.2536(10)
H23 H -0.3422 0.4346 -0.2577
H24 H -0.0108 0.3978 -0.2910
H25 H -0.0721 0.5487 -0.2719
O11 O 0.476(3) 0.3398(8) 0.5473(7)
H26 H 0.2926 0.2916 0.5373
H27 H 0.6243 0.2894 0.5368
O12 O 0.065(3) 0.8745(9) 0.2181(6)
H28 H 0.1764 0.8890 0.2680
H29 H -0.0728 0.9310 0.2170
loop_
_geom_bond_atom_site_label_1
_geom_bond_atom_site_label_2
_geom_bond_site_symmetry_1
_geom_bond_site_symmetry_2
N1 H1 1_555 1_555
O1 C1 1_555 1_555
O2 C3 1_555 1_555
O3 H2 1_555 1_555
O4 H3 1_555 1_555
O5 C7 1_555 1_555
C1 C2 1_555 1_555
C2 O3 1_555 1_555
C3 C2 1_555 1_555
C4 C3 1_555 1_555
C5 O1 1_555 1_555
C6 N1 1_555 1_555
H4 C6 1_555 1_555
C7 N1 1_555 1_555
C8 C1 1_555 1_555
H5 C8 1_555 1_555
C9 C8 1_555 1_555
H6 C9 1_555 1_555
C10 C9 1_555 1_555
H7 C10 1_555 1_555
H8 C10 1_555 1_555
C11 C10 1_555 1_555
H9 C11 1_555 1_555
H10 C11 1_555 1_555
C12 C11 1_555 1_555
H11 C12 1_555 1_555
H12 C12 1_555 1_555
H13 C12 1_555 1_555
N2 H14 1_555 1_555
O6 C13 1_555 1_555
O7 C15 1_555 1_555
O8 H15 1_555 1_555
O9 H16 1_555 1_555
O10 C19 1_555 1_555
C13 C14 1_555 1_555
C14 O8 1_555 1_555
C15 C14 1_555 1_555
C16 C15 1_555 1_555
C17 O6 1_555 1_555
C18 N2 1_555 1_555
H17 C18 1_555 1_555
C19 N2 1_555 1_555
C20 C13 1_555 1_555
H18 C20 1_555 1_555
C21 C20 1_555 1_555
H19 C21 1_555 1_555
C22 C21 1_555 1_555
H20 C22 1_555 1_555
C23 C22 1_555 1_555
H21 C23 1_555 1_555
H22 C23 1_555 1_555
C24 C23 1_555 1_555
H23 C24 1_555 1_555
H24 C24 1_555 1_555
H25 C24 1_555 1_555
O11 H26 1_555 1_555
H27 O11 1_555 1_555
O12 H28 1_555 1_555
H29 O12 1_555 1_555
O4 C6 1_555 1_555
C4 C5 1_555 1_555
C4 C7 1_555 1_555
C5 C6 1_555 1_555
O9 C18 1_555 1_555
C16 C17 1_555 1_555
C16 C19 1_555 1_555
C17 C18 1_555 1_555

#END
