
#######################################################################
#
#                 Cambridge Crystallographic Data Centre
#                                CCDC 
#
#######################################################################
#
# If this CIF has been generated from an entry in the Cambridge 
# Structural Database, then it will include bibliographic, chemical, 
# crystal, experimental, refinement or atomic coordinate data resulting 
# from the CCDC's data processing and validation procedures.
#
#######################################################################

data_ZAHWOX
_chemical_formula_moiety         'C17 H18 O4'
_chemical_name_systematic        
8-methoxy-3'-vinylspiro[chromene-4,2'-[7]oxabicyclo[4.1.0]heptan]-2(3H)-one
_symmetry_cell_setting           monoclinic
_symmetry_space_group_name_H-M   'C 2/c'
_symmetry_Int_Tables_number      15
_space_group_name_Hall           '-C 2yn'
loop_
_symmetry_equiv_pos_site_id
_symmetry_equiv_pos_as_xyz
1 x,y,z
2 -x,y,1/2-z
3 1/2+x,1/2+y,z
4 1/2-x,1/2+y,1/2-z
5 -x,-y,-z
6 x,-y,1/2+z
7 1/2-x,1/2-y,-z
8 1/2+x,1/2-y,1/2+z
_cell_length_a                   20.029(3)
_cell_length_b                   8.6832(14)
_cell_length_c                   17.423(3)
_cell_angle_alpha                90
_cell_angle_beta                 106.424(2)
_cell_angle_gamma                90
_cell_volume                     2906.49
_exptl_crystal_colour            colorless
_exptl_crystal_description       sheet
_cell_formula_units_Z            8
loop_
_atom_site_label
_atom_site_type_symbol
_atom_site_fract_x
_atom_site_fract_y
_atom_site_fract_z
O1 O 0.08278(5) 0.59818(12) 0.26913(6)
O2 O 0.09137(5) 0.48176(10) 0.13714(6)
O3 O 0.07852(6) 0.52849(12) 0.00990(6)
O4 O 0.08456(6) -0.07386(12) 0.02308(6)
C1 C 0.19660(10) -0.13663(19) 0.12604(11)
H1 H 0.2134 -0.1666 0.0799
H2 H 0.2145 -0.2132 0.1690
C2 C 0.22626(8) 0.02169(18) 0.15587(10)
H3 H 0.2754 0.0267 0.1550
H4 H 0.2254 0.0350 0.2120
C3 C 0.18555(7) 0.15369(16) 0.10516(8)
H5 H 0.1836 0.1326 0.0481
C4 C 0.10903(7) 0.15908(15) 0.11040(8)
C5 C 0.10390(7) 0.21943(15) 0.19041(8)
C6 C 0.09464(7) 0.37649(15) 0.19836(8)
C7 C 0.08998(7) 0.44183(16) 0.27024(8)
C8 C 0.07521(8) 0.66839(19) 0.34065(9)
H6 H 0.0350 0.6235 0.3540
H7 H 0.0681 0.7795 0.3321
H8 H 0.1174 0.6502 0.3847
C9 C 0.09311(7) 0.34631(18) 0.33520(8)
H9 H 0.0897 0.3883 0.3843
C10 C 0.10138(8) 0.18786(18) 0.32739(9)
H10 H 0.1033 0.1223 0.3716
C11 C 0.10688(7) 0.12442(17) 0.25639(9)
H11 H 0.1127 0.0164 0.2524
C12 C 0.07894(7) 0.43304(15) 0.05994(8)
C13 C 0.06421(7) 0.26473(15) 0.04519(8)
H12 H 0.0719 0.2369 -0.0068
H13 H 0.0145 0.2457 0.0409
C14 C 0.11807(9) -0.14132(17) 0.10112(9)
H14 H 0.0963 -0.2372 0.1149
C15 C 0.07677(8) -0.00013(16) 0.09431(9)
H15 H 0.0302 -0.0121 0.1040
C16 C 0.22382(7) 0.30373(18) 0.12857(9)
H16 H 0.2375 0.3300 0.1838
C17 C 0.23999(8) 0.4020(2) 0.07832(11)
H17 H 0.2273 0.3800 0.0226
H18 H 0.2643 0.4943 0.0980
loop_
_geom_bond_atom_site_label_1
_geom_bond_atom_site_label_2
_geom_bond_site_symmetry_1
_geom_bond_site_symmetry_2
O1 C7 1_555 1_555
O2 C6 1_555 1_555
O3 C12 1_555 1_555
O4 C14 1_555 1_555
C1 H1 1_555 1_555
H2 C1 1_555 1_555
C2 C1 1_555 1_555
H3 C2 1_555 1_555
H4 C2 1_555 1_555
C3 C2 1_555 1_555
H5 C3 1_555 1_555
C4 C3 1_555 1_555
C5 C4 1_555 1_555
C6 C5 1_555 1_555
C7 C6 1_555 1_555
C8 O1 1_555 1_555
H6 C8 1_555 1_555
H7 C8 1_555 1_555
H8 C8 1_555 1_555
C9 C7 1_555 1_555
H9 C9 1_555 1_555
C10 C9 1_555 1_555
H10 C10 1_555 1_555
C11 C5 1_555 1_555
H11 C11 1_555 1_555
C12 O2 1_555 1_555
C13 C4 1_555 1_555
H12 C13 1_555 1_555
H13 C13 1_555 1_555
C14 C1 1_555 1_555
H14 C14 1_555 1_555
C15 O4 1_555 1_555
H15 C15 1_555 1_555
C16 C3 1_555 1_555
H16 C16 1_555 1_555
C17 C16 1_555 1_555
H17 C17 1_555 1_555
H18 C17 1_555 1_555
C4 C15 1_555 1_555
C10 C11 1_555 1_555
C12 C13 1_555 1_555
C14 C15 1_555 1_555

#END
