
#######################################################################
#
#                 Cambridge Crystallographic Data Centre
#                                CCDC 
#
#######################################################################
#
# If this CIF has been generated from an entry in the Cambridge 
# Structural Database, then it will include bibliographic, chemical, 
# crystal, experimental, refinement or atomic coordinate data resulting 
# from the CCDC's data processing and validation procedures.
#
#######################################################################

data_ZAJDUM
_chemical_formula_moiety         'C16 H17 N1 O2 S1'
_chemical_name_systematic        
'11-ethyl-6a,9,10,10a-tetrahydroindolo[1,2-b][1,2]benzothiazole 5,5-dioxide'
_symmetry_cell_setting           orthorhombic
_symmetry_space_group_name_H-M   'P 21 21 21'
_symmetry_Int_Tables_number      19
_space_group_name_Hall           'P 2ac 2ab'
loop_
_symmetry_equiv_pos_site_id
_symmetry_equiv_pos_as_xyz
1 x,y,z
2 1/2-x,-y,1/2+z
3 1/2+x,1/2-y,-z
4 -x,1/2+y,1/2-z
_cell_length_a                   9.0793(9)
_cell_length_b                   10.4132(10)
_cell_length_c                   15.2584(14)
_cell_angle_alpha                90
_cell_angle_beta                 90
_cell_angle_gamma                90
_cell_volume                     1442.6
_exptl_crystal_colour            colorless
_exptl_crystal_description       block
_cell_formula_units_Z            4
loop_
_atom_site_label
_atom_site_type_symbol
_atom_site_fract_x
_atom_site_fract_y
_atom_site_fract_z
S1 S 0.64363(6) 0.28388(5) 0.84653(4)
O1 O 0.7232(2) 0.33959(18) 0.77548(11)
O2 O 0.6613(2) 0.14944(14) 0.85852(11)
N1 N 0.46729(19) 0.32130(15) 0.84244(11)
C1 C 0.6718(2) 0.36947(19) 0.94419(14)
C2 C 0.7972(3) 0.3682(2) 0.99487(16)
H1 H 0.8777 0.3172 0.9803
C3 C 0.7987(3) 0.4460(2) 1.06856(16)
H2 H 0.8816 0.4482 1.1043
C4 C 0.6774(3) 0.5202(3) 1.08902(19)
H3 H 0.6796 0.5709 1.1392
C5 C 0.5539(3) 0.5212(2) 1.03757(17)
H4 H 0.4736 0.5722 1.0526
C6 C 0.5496(3) 0.44512(19) 0.96255(14)
C7 C 0.4350(3) 0.42966(19) 0.89716(13)
C8 C 0.3166(3) 0.4927(2) 0.86865(16)
C9 C 0.2538(3) 0.4227(2) 0.79020(15)
H5 H 0.2256 0.4846 0.7448
C10 C 0.3864(3) 0.3432(2) 0.75901(14)
H6 H 0.4473 0.3966 0.7204
C11 C 0.3491(3) 0.2215(3) 0.71230(16)
H7 H 0.4255 0.1718 0.6900
C12 C 0.2132(4) 0.1817(3) 0.70140(18)
H8 H 0.1980 0.1074 0.6688
C13 C 0.0831(3) 0.2476(2) 0.7378(2)
H9 H 0.0133 0.1841 0.7585
H10 H 0.0357 0.2968 0.6917
C14 C 0.1230(3) 0.3366(2) 0.81239(17)
H11 H 0.1466 0.2858 0.8638
H12 H 0.0386 0.3898 0.8265
C15 C 0.2524(3) 0.6140(2) 0.90720(19)
H13 H 0.3307 0.6615 0.9359
H14 H 0.2152 0.6669 0.8598
C16 C 0.1312(4) 0.5925(3) 0.9716(2)
H15 H 0.0515 0.5481 0.9435
H16 H 0.0969 0.6737 0.9932
H17 H 0.1673 0.5418 1.0196
loop_
_geom_bond_atom_site_label_1
_geom_bond_atom_site_label_2
_geom_bond_site_symmetry_1
_geom_bond_site_symmetry_2
S1 O1 1_555 1_555
O2 S1 1_555 1_555
N1 S1 1_555 1_555
C1 S1 1_555 1_555
C2 C1 1_555 1_555
H1 C2 1_555 1_555
C3 C2 1_555 1_555
H2 C3 1_555 1_555
C4 C3 1_555 1_555
H3 C4 1_555 1_555
C5 C4 1_555 1_555
H4 C5 1_555 1_555
C6 C1 1_555 1_555
C7 N1 1_555 1_555
C8 C7 1_555 1_555
C9 C8 1_555 1_555
H5 C9 1_555 1_555
C10 N1 1_555 1_555
H6 C10 1_555 1_555
C11 C10 1_555 1_555
H7 C11 1_555 1_555
C12 C11 1_555 1_555
H8 C12 1_555 1_555
C13 C12 1_555 1_555
H9 C13 1_555 1_555
H10 C13 1_555 1_555
C14 C9 1_555 1_555
H11 C14 1_555 1_555
H12 C14 1_555 1_555
C15 C8 1_555 1_555
H13 C15 1_555 1_555
H14 C15 1_555 1_555
C16 C15 1_555 1_555
H15 C16 1_555 1_555
H16 C16 1_555 1_555
H17 C16 1_555 1_555
C5 C6 1_555 1_555
C6 C7 1_555 1_555
C9 C10 1_555 1_555
C13 C14 1_555 1_555

#END
