
#######################################################################
#
#                 Cambridge Crystallographic Data Centre
#                                CCDC 
#
#######################################################################
#
# If this CIF has been generated from an entry in the Cambridge 
# Structural Database, then it will include bibliographic, chemical, 
# crystal, experimental, refinement or atomic coordinate data resulting 
# from the CCDC's data processing and validation procedures.
#
#######################################################################

data_ZAJFAU
_chemical_formula_moiety         'C20 H21 N1 O2 S1'
_chemical_name_systematic        
'11-phenyl-6a,7,8,9,10,10a,11,11a-octahydroindolo[1,2-b][1,2]benzothiazole 5,5-dioxide'
_symmetry_cell_setting           orthorhombic
_symmetry_space_group_name_H-M   'P 21 21 21'
_symmetry_Int_Tables_number      19
_space_group_name_Hall           'P 2ac 2ab'
loop_
_symmetry_equiv_pos_site_id
_symmetry_equiv_pos_as_xyz
1 x,y,z
2 1/2-x,-y,1/2+z
3 1/2+x,1/2-y,-z
4 -x,1/2+y,1/2-z
_cell_length_a                   6.3817(3)
_cell_length_b                   9.4230(4)
_cell_length_c                   28.5737(12)
_cell_angle_alpha                90
_cell_angle_beta                 90
_cell_angle_gamma                90
_cell_volume                     1718.27
_exptl_crystal_colour            colorless
_exptl_crystal_description       block
_cell_formula_units_Z            4
loop_
_atom_site_label
_atom_site_type_symbol
_atom_site_fract_x
_atom_site_fract_y
_atom_site_fract_z
S1 S 0.38690(8) 0.16325(5) 0.100469(19)
O1 O 0.3974(3) 0.03492(15) 0.07378(6)
O2 O 0.2119(2) 0.17672(19) 0.13130(6)
N1 N 0.6082(3) 0.18990(16) 0.12882(5)
C1 C 0.2709(4) 0.3504(3) 0.02906(7)
H1 H 0.1436 0.3037 0.0253
C2 C 0.3242(5) 0.4638(3) 0.00129(9)
H2 H 0.2308 0.4967 -0.0212
C3 C 0.5174(5) 0.5291(3) 0.00677(9)
H3 H 0.5519 0.6054 -0.0124
C4 C 0.6594(4) 0.4840(2) 0.03987(8)
H4 H 0.7898 0.5273 0.0424
C5 C 0.6042(4) 0.3722(2) 0.06951(7)
C6 C 0.4137(4) 0.3082(2) 0.06297(7)
C7 C 0.7372(3) 0.3049(2) 0.10719(7)
H5 H 0.8620 0.2629 0.0928
C8 C 0.8054(3) 0.3998(2) 0.14943(7)
H6 H 0.9367 0.3601 0.1615
C9 C 0.6371(3) 0.3703(2) 0.18614(7)
H7 H 0.5088 0.4201 0.1769
C10 C 0.6008(4) 0.2107(2) 0.18052(7)
H8 H 0.4611 0.1859 0.1922
C11 C 0.7644(4) 0.1197(2) 0.20465(8)
H9 H 0.8971 0.1287 0.1883
H10 H 0.7220 0.0209 0.2034
C12 C 0.7922(4) 0.1642(3) 0.25543(8)
H11 H 0.6617 0.1504 0.2722
H12 H 0.8984 0.1053 0.2700
C13 C 0.8570(5) 0.3188(3) 0.25843(8)
H13 H 0.9897 0.3320 0.2425
H14 H 0.8755 0.3453 0.2910
C14 C 0.6917(4) 0.4131(3) 0.23620(8)
H15 H 0.7417 0.5103 0.2362
H16 H 0.5655 0.4096 0.2551
C15 C 0.8482(3) 0.5538(2) 0.13741(7)
C16 C 1.0483(4) 0.5932(2) 0.12345(8)
H17 H 1.1548 0.5258 0.1227
C17 C 1.0904(5) 0.7321(3) 0.11058(9)
H18 H 1.2244 0.7575 0.1009
C18 C 0.9350(5) 0.8320(3) 0.11217(8)
H19 H 0.9639 0.9252 0.1037
C19 C 0.7372(5) 0.7954(2) 0.12618(9)
H20 H 0.6319 0.8635 0.1273
C20 C 0.6944(4) 0.6559(2) 0.13878(8)
H21 H 0.5599 0.6313 0.1483
loop_
_geom_bond_atom_site_label_1
_geom_bond_atom_site_label_2
_geom_bond_site_symmetry_1
_geom_bond_site_symmetry_2
S1 O1 1_555 1_555
O2 S1 1_555 1_555
N1 S1 1_555 1_555
C1 H1 1_555 1_555
C2 C1 1_555 1_555
H2 C2 1_555 1_555
C3 C2 1_555 1_555
H3 C3 1_555 1_555
C4 C3 1_555 1_555
H4 C4 1_555 1_555
C5 C4 1_555 1_555
C6 S1 1_555 1_555
C7 N1 1_555 1_555
H5 C7 1_555 1_555
C8 C7 1_555 1_555
H6 C8 1_555 1_555
C9 C8 1_555 1_555
H7 C9 1_555 1_555
C10 N1 1_555 1_555
H8 C10 1_555 1_555
C11 C10 1_555 1_555
H9 C11 1_555 1_555
H10 C11 1_555 1_555
C12 C11 1_555 1_555
H11 C12 1_555 1_555
H12 C12 1_555 1_555
C13 C12 1_555 1_555
H13 C13 1_555 1_555
H14 C13 1_555 1_555
C14 C9 1_555 1_555
H15 C14 1_555 1_555
H16 C14 1_555 1_555
C15 C8 1_555 1_555
C16 C15 1_555 1_555
H17 C16 1_555 1_555
C17 C16 1_555 1_555
H18 C17 1_555 1_555
C18 C17 1_555 1_555
H19 C18 1_555 1_555
C19 C18 1_555 1_555
H20 C19 1_555 1_555
C20 C15 1_555 1_555
H21 C20 1_555 1_555
C1 C6 1_555 1_555
C5 C6 1_555 1_555
C5 C7 1_555 1_555
C9 C10 1_555 1_555
C13 C14 1_555 1_555
C19 C20 1_555 1_555

#END
