
#######################################################################
#
#                 Cambridge Crystallographic Data Centre
#                                CCDC 
#
#######################################################################
#
# If this CIF has been generated from an entry in the Cambridge 
# Structural Database, then it will include bibliographic, chemical, 
# crystal, experimental, refinement or atomic coordinate data resulting 
# from the CCDC's data processing and validation procedures.
#
#######################################################################

data_ZAJMOM
_chemical_formula_moiety         'C19 H17 N1 O2 S3'
_chemical_name_systematic        
2-methylnaphtho[1,8-de]-1,3-dithiin-1-N-tosylsulfimide
_symmetry_cell_setting           triclinic
_symmetry_space_group_name_H-M   'P -1'
_symmetry_Int_Tables_number      2
_space_group_name_Hall           '-P 1'
loop_
_symmetry_equiv_pos_site_id
_symmetry_equiv_pos_as_xyz
1 x,y,z
2 -x,-y,-z
_cell_length_a                   10.158
_cell_length_b                   12.257(1)
_cell_length_c                   8.390(1)
_cell_angle_alpha                104.96(28)
_cell_angle_beta                 109.05(30)
_cell_angle_gamma                67.81(28)
_cell_volume                     903.35
_exptl_crystal_colour            colorless
_chemical_melting_point          164-165deg.C
_cell_formula_units_Z            2
loop_
_atom_site_label
_atom_site_type_symbol
_atom_site_fract_x
_atom_site_fract_y
_atom_site_fract_z
S1 S 0.39958(9) 0.34096(7) 0.4968(1)
S2 S 0.6590(1) 0.19471(8) 0.6591(1)
S3 S 0.1824(1) 0.43719(9) 0.2079(1)
O1 O 0.7916(3) 0.2052(3) 0.7821(4)
O2 O 0.5677(3) 0.1474(2) 0.7039(3)
N1 N 0.5672(3) 0.3277(2) 0.6078(4)
C1 C 0.2933(3) 0.4675(3) 0.6159(4)
C2 C 0.3438(4) 0.4758(3) 0.7904(4)
C3 C 0.2670(4) 0.5685(3) 0.8946(4)
C4 C 0.1408(4) 0.6504(3) 0.8271(4)
C5 C 0.0831(4) 0.6442(3) 0.6475(4)
C6 C -0.0522(4) 0.7272(3) 0.5771(5)
C7 C -0.1081(4) 0.7205(3) 0.4049(5)
C8 C -0.0302(4) 0.6329(3) 0.2968(5)
C9 C 0.0998(4) 0.5497(3) 0.3573(4)
C10 C 0.1607(3) 0.5513(3) 0.5378(4)
C11 C 0.3739(4) 0.4079(3) 0.3143(4)
C12 C 0.4675(4) 0.3206(3) 0.2000(4)
C13 C 0.7060(4) 0.1054(3) 0.4720(4)
C14 C 0.6198(4) 0.0382(3) 0.3617(5)
C15 C 0.6494(4) -0.0211(3) 0.2071(5)
C16 C 0.7654(5) -0.0169(3) 0.1609(5)
C17 C 0.8532(4) 0.0497(4) 0.2732(5)
C18 C 0.8242(4) 0.1093(4) 0.4288(5)
C19 C 0.7984(6) -0.0806(5) -0.0068(6)
H1 H 0.437(3) 0.417(3) 0.829(4)
H2 H 0.298(3) 0.570(3) 1.007(4)
H3 H 0.083(3) 0.711(3) 0.895(4)
H4 H -0.108(3) 0.784(3) 0.645(4)
H5 H -0.199(3) 0.774(3) 0.363(4)
H6 H -0.061(3) 0.627(3) 0.192(4)
H7 H 0.397(3) 0.479(3) 0.348(4)
H8 H 0.4543 0.3556 0.1053
H9 H 0.5681 0.3007 0.2627
H10 H 0.4399 0.2506 0.1619
H11 H 0.541(3) 0.046(3) 0.385(4)
H12 H 0.588(3) -0.071(3) 0.117(4)
H13 H 0.953(3) 0.048(3) 0.251(4)
H14 H 0.887(3) 0.168(3) 0.506(4)
H15 H 0.7350 -0.1218 -0.0745
H16 H 0.7950 -0.0222 -0.0726
H17 H 0.8995 -0.1344 0.0098
loop_
_geom_bond_atom_site_label_1
_geom_bond_atom_site_label_2
_geom_bond_site_symmetry_1
_geom_bond_site_symmetry_2
S1 N1 1_555 1_555
S2 O1 1_555 1_555
S3 C9 1_555 1_555
O2 S2 1_555 1_555
N1 S2 1_555 1_555
C1 S1 1_555 1_555
C2 C1 1_555 1_555
C3 C2 1_555 1_555
C4 C3 1_555 1_555
C5 C4 1_555 1_555
C6 C5 1_555 1_555
C7 C6 1_555 1_555
C8 C7 1_555 1_555
C9 C8 1_555 1_555
C10 C1 1_555 1_555
C11 S1 1_555 1_555
C12 C11 1_555 1_555
C13 S2 1_555 1_555
C14 C13 1_555 1_555
C15 C14 1_555 1_555
C16 C15 1_555 1_555
C17 C16 1_555 1_555
C18 C13 1_555 1_555
C19 C16 1_555 1_555
H1 C2 1_555 1_555
H2 C3 1_555 1_555
H3 C4 1_555 1_555
H4 C6 1_555 1_555
H5 C7 1_555 1_555
H6 C8 1_555 1_555
H7 C11 1_555 1_555
H8 C12 1_555 1_555
H9 C12 1_555 1_555
H10 C12 1_555 1_555
H11 C14 1_555 1_555
H12 C15 1_555 1_555
H13 C17 1_555 1_555
H14 C18 1_555 1_555
H15 C19 1_555 1_555
H16 C19 1_555 1_555
H17 C19 1_555 1_555
S3 C11 1_555 1_555
C5 C10 1_555 1_555
C9 C10 1_555 1_555
C17 C18 1_555 1_555

#END
