
#######################################################################
#
#                 Cambridge Crystallographic Data Centre
#                                CCDC 
#
#######################################################################
#
# If this CIF has been generated from an entry in the Cambridge 
# Structural Database, then it will include bibliographic, chemical, 
# crystal, experimental, refinement or atomic coordinate data resulting 
# from the CCDC's data processing and validation procedures.
#
#######################################################################

data_ZAJMUS
_chemical_formula_moiety         'C24 H19 N1 O2 S3'
_chemical_name_systematic        
2-[(4-methylphenyl)sulfonyl]-3-phenyl-2,3-dihydronaphtho[1,8-ef][1,4,2]dithiazepine
_symmetry_cell_setting           orthorhombic
_symmetry_space_group_name_H-M   'P b c a'
_symmetry_Int_Tables_number      61
_space_group_name_Hall           '-P 2ac 2ab'
loop_
_symmetry_equiv_pos_site_id
_symmetry_equiv_pos_as_xyz
1 x,y,z
2 1/2-x,-y,1/2+z
3 1/2+x,1/2-y,-z
4 -x,1/2+y,1/2-z
5 -x,-y,-z
6 1/2+x,y,1/2-z
7 1/2-x,1/2+y,z
8 x,1/2-y,1/2+z
_cell_length_a                   18.672(2)
_cell_length_b                   11.699(1)
_cell_length_c                   19.171(1)
_cell_angle_alpha                90
_cell_angle_beta                 90
_cell_angle_gamma                90
_cell_volume                     4187.78
_exptl_crystal_colour            colorless
_chemical_melting_point          153-154deg.C
_cell_formula_units_Z            8
loop_
_atom_site_label
_atom_site_type_symbol
_atom_site_fract_x
_atom_site_fract_y
_atom_site_fract_z
S1 S 0.10441(7) 0.2029(1) 0.63381(6)
S2 S 0.17005(7) 0.4092(1) 0.68855(6)
S3 S 0.29755(7) 0.2566(1) 0.73530(6)
O1 O 0.0543(2) 0.2803(3) 0.6032(2)
O2 O 0.1293(2) 0.1066(3) 0.5948(2)
N1 N 0.1778(2) 0.2761(3) 0.6543(2)
C1 C 0.2380(2) 0.2315(4) 0.8061(2)
C2 C 0.2589(3) 0.1465(5) 0.8516(2)
C3 C 0.2250(3) 0.1325(5) 0.9164(2)
C4 C 0.1728(3) 0.2048(5) 0.9353(2)
C5 C 0.1482(3) 0.2920(4) 0.8906(2)
C6 C 0.0931(3) 0.3678(5) 0.9122(2)
C7 C 0.0673(3) 0.4500(4) 0.8697(3)
C8 C 0.0926(3) 0.4568(4) 0.8013(3)
C9 C 0.1470(2) 0.3881(4) 0.7778(2)
C10 C 0.1790(2) 0.3051(4) 0.8225(2)
C11 C 0.2470(3) 0.2127(4) 0.6592(2)
C12 C 0.0690(2) 0.1534(4) 0.7133(2)
C13 C 0.0156(2) 0.2145(4) 0.7463(3)
C14 C -0.0064(3) 0.1794(4) 0.8121(3)
C15 C 0.0226(3) 0.0843(4) 0.8439(2)
C16 C 0.0742(3) 0.0234(4) 0.8087(3)
C17 C 0.0983(3) 0.0569(4) 0.7437(2)
C18 C -0.0010(3) 0.0516(5) 0.9161(3)
C19 C 0.2936(3) 0.2293(4) 0.5951(2)
C20 C 0.3307(3) 0.3297(4) 0.5842(2)
C21 C 0.3748(3) 0.3427(5) 0.5264(3)
C22 C 0.3803(3) 0.2541(6) 0.4798(3)
C23 C 0.3433(3) 0.1553(5) 0.4889(3)
C24 C 0.2998(3) 0.1420(4) 0.5465(3)
H1 H 0.295(2) 0.096(4) 0.839(2)
H2 H 0.240(2) 0.074(4) 0.943(2)
H3 H 0.151(2) 0.196(4) 0.971(2)
H4 H 0.072(2) 0.362(4) 0.951(2)
H5 H 0.028(2) 0.503(4) 0.884(2)
H6 H 0.075(2) 0.514(4) 0.769(2)
H7 H 0.232(2) 0.127(4) 0.663(2)
H8 H -0.005(2) 0.282(3) 0.725(2)
H9 H -0.045(2) 0.217(4) 0.829(2)
H10 H 0.098(2) -0.040(4) 0.827(2)
H11 H 0.138(2) 0.019(4) 0.722(2)
H12 H 0.0245 -0.0179 0.9293
H13 H 0.0091 0.1087 0.9479
H14 H -0.0507 0.0335 0.9157
H15 H 0.328(2) 0.395(4) 0.614(2)
H16 H 0.403(2) 0.414(4) 0.520(2)
H17 H 0.409(2) 0.261(4) 0.445(2)
H18 H 0.347(2) 0.096(4) 0.456(2)
H19 H 0.274(2) 0.069(4) 0.556(2)
loop_
_geom_bond_atom_site_label_1
_geom_bond_atom_site_label_2
_geom_bond_site_symmetry_1
_geom_bond_site_symmetry_2
S1 O1 1_555 1_555
S2 N1 1_555 1_555
S3 C1 1_555 1_555
O2 S1 1_555 1_555
N1 S1 1_555 1_555
C1 C2 1_555 1_555
C2 C3 1_555 1_555
C3 C4 1_555 1_555
C4 C5 1_555 1_555
C5 C6 1_555 1_555
C6 C7 1_555 1_555
C7 C8 1_555 1_555
C8 C9 1_555 1_555
C9 S2 1_555 1_555
C10 C1 1_555 1_555
C11 S3 1_555 1_555
C12 S1 1_555 1_555
C13 C12 1_555 1_555
C14 C13 1_555 1_555
C15 C14 1_555 1_555
C16 C15 1_555 1_555
C17 C12 1_555 1_555
C18 C15 1_555 1_555
C19 C11 1_555 1_555
C20 C19 1_555 1_555
C21 C20 1_555 1_555
C22 C21 1_555 1_555
C23 C22 1_555 1_555
C24 C19 1_555 1_555
H1 C2 1_555 1_555
H2 C3 1_555 1_555
H3 C4 1_555 1_555
H4 C6 1_555 1_555
H5 C7 1_555 1_555
H6 C8 1_555 1_555
H7 C11 1_555 1_555
H8 C13 1_555 1_555
H9 C14 1_555 1_555
H10 C16 1_555 1_555
H11 C17 1_555 1_555
H12 C18 1_555 1_555
H13 C18 1_555 1_555
H14 C18 1_555 1_555
H15 C20 1_555 1_555
H16 C21 1_555 1_555
H17 C22 1_555 1_555
H18 C23 1_555 1_555
H19 C24 1_555 1_555
N1 C11 1_555 1_555
C5 C10 1_555 1_555
C9 C10 1_555 1_555
C16 C17 1_555 1_555
C23 C24 1_555 1_555

#END
