
#######################################################################
#
#                 Cambridge Crystallographic Data Centre
#                                CCDC 
#
#######################################################################
#
# If this CIF has been generated from an entry in the Cambridge 
# Structural Database, then it will include bibliographic, chemical, 
# crystal, experimental, refinement or atomic coordinate data resulting 
# from the CCDC's data processing and validation procedures.
#
#######################################################################

data_ZAJXUG
_chemical_formula_moiety         'C15 H12 Cl1 N3'
_chemical_name_systematic        1-(4-chlorobenzyl)-4-phenyl-1H-1,2,3-triazole
_symmetry_cell_setting           monoclinic
_symmetry_space_group_name_H-M   'P 21/c'
_symmetry_Int_Tables_number      14
_space_group_name_Hall           '-P 2ybc'
loop_
_symmetry_equiv_pos_site_id
_symmetry_equiv_pos_as_xyz
1 x,y,z
2 -x,1/2+y,1/2-z
3 -x,-y,-z
4 x,1/2-y,1/2+z
_cell_length_a                   5.7050(8)
_cell_length_b                   8.6478(12)
_cell_length_c                   26.865(4)
_cell_angle_alpha                90
_cell_angle_beta                 90.946(2)
_cell_angle_gamma                90
_cell_volume                     1325.22
_exptl_crystal_colour            colorless
_exptl_crystal_description       needle
_cell_formula_units_Z            4
loop_
_atom_site_label
_atom_site_type_symbol
_atom_site_fract_x
_atom_site_fract_y
_atom_site_fract_z
Cl1 Cl 0.06701(13) 0.11521(8) 0.43094(2)
N1 N -0.3088(3) -0.17845(17) 0.20922(5)
N2 N -0.5434(3) -0.1646(2) 0.21115(6)
N3 N -0.6109(3) -0.0809(2) 0.17244(6)
C1 C -0.0026(3) 0.0111(2) 0.37717(6)
C2 C 0.1516(3) -0.0975(3) 0.36029(8)
H1 H 0.2925 -0.1153 0.3772
C3 C 0.0950(3) -0.1805(2) 0.31765(7)
H2 H 0.2009 -0.2526 0.3056
C4 C -0.1162(3) -0.15793(19) 0.29274(6)
C5 C -0.2683(3) -0.0469(2) 0.31062(7)
H3 H -0.4102 -0.0293 0.2940
C6 C -0.2123(4) 0.0380(2) 0.35284(7)
H4 H -0.3153 0.1124 0.3646
C7 C -0.1773(4) -0.2590(2) 0.24857(7)
H5 H -0.0336 -0.2995 0.2348
H6 H -0.2693 -0.3462 0.2599
C8 C -0.2256(3) -0.1038(2) 0.16959(6)
H7 H -0.0699 -0.0954 0.1602
C9 C -0.4190(3) -0.0423(2) 0.14569(6)
C10 C -0.4340(3) 0.0521(2) 0.10015(6)
C11 C -0.2516(3) 0.0504(2) 0.06644(7)
H8 H -0.1226 -0.0132 0.0722
C12 C -0.2608(4) 0.1427(3) 0.02443(7)
H9 H -0.1379 0.1408 0.0021
C13 C -0.4507(4) 0.2376(3) 0.01537(8)
H10 H -0.4560 0.2998 -0.0129
C14 C -0.6326(4) 0.2399(3) 0.04842(8)
H11 H -0.7612 0.3037 0.0424
C15 C -0.6253(3) 0.1478(2) 0.09050(7)
H12 H -0.7493 0.1499 0.1125
loop_
_geom_bond_atom_site_label_1
_geom_bond_atom_site_label_2
_geom_bond_site_symmetry_1
_geom_bond_site_symmetry_2
Cl1 C1 1_555 1_555
N1 N2 1_555 1_555
N2 N3 1_555 1_555
N3 C9 1_555 1_555
C1 C2 1_555 1_555
C2 H1 1_555 1_555
C3 C2 1_555 1_555
H2 C3 1_555 1_555
C4 C3 1_555 1_555
C5 C4 1_555 1_555
H3 C5 1_555 1_555
C6 C1 1_555 1_555
H4 C6 1_555 1_555
C7 N1 1_555 1_555
H5 C7 1_555 1_555
H6 C7 1_555 1_555
C8 N1 1_555 1_555
H7 C8 1_555 1_555
C9 C8 1_555 1_555
C10 C9 1_555 1_555
C11 C10 1_555 1_555
H8 C11 1_555 1_555
C12 C11 1_555 1_555
H9 C12 1_555 1_555
C13 C12 1_555 1_555
H10 C13 1_555 1_555
C14 C13 1_555 1_555
H11 C14 1_555 1_555
C15 C10 1_555 1_555
H12 C15 1_555 1_555
C4 C7 1_555 1_555
C5 C6 1_555 1_555
C14 C15 1_555 1_555

#END
