
#######################################################################
#
#                 Cambridge Crystallographic Data Centre
#                                CCDC 
#
#######################################################################
#
# If this CIF has been generated from an entry in the Cambridge 
# Structural Database, then it will include bibliographic, chemical, 
# crystal, experimental, refinement or atomic coordinate data resulting 
# from the CCDC's data processing and validation procedures.
#
#######################################################################

data_ZAJYER
_chemical_formula_moiety         'C22 H19 N1 O1'
_chemical_name_systematic        1-benzyl-6-methoxy-3-phenyl-1H-indole
_symmetry_cell_setting           monoclinic
_symmetry_space_group_name_H-M   'P 21/n'
_symmetry_Int_Tables_number      14
_space_group_name_Hall           '-P 2yn'
loop_
_symmetry_equiv_pos_site_id
_symmetry_equiv_pos_as_xyz
1 x,y,z
2 1/2-x,1/2+y,1/2-z
3 -x,-y,-z
4 1/2+x,1/2-y,1/2+z
_cell_length_a                   17.091(11)
_cell_length_b                   5.378(4)
_cell_length_c                   18.581(12)
_cell_angle_alpha                90
_cell_angle_beta                 101.524(11)
_cell_angle_gamma                90
_cell_volume                     1673.45
_cell_formula_units_Z            4
loop_
_atom_site_label
_atom_site_type_symbol
_atom_site_fract_x
_atom_site_fract_y
_atom_site_fract_z
N1 N 0.63280(11) 0.1230(3) 0.40179(10)
O1 O 0.88634(10) 0.5471(3) 0.45634(9)
C1 C 0.63892(13) 0.0396(4) 0.53437(12)
C2 C 0.76560(14) 0.3297(4) 0.43406(12)
C3 C 0.51661(13) 0.4332(4) 0.23941(12)
C4 C 0.81195(14) 0.5159(4) 0.41217(12)
C5 C 0.69003(13) 0.2941(4) 0.39216(11)
C6 C 0.57716(13) 0.3495(4) 0.30250(12)
C7 C 0.64200(15) -0.0635(4) 0.45958(12)
C8 C 0.70761(14) 0.6222(4) 0.30925(12)
C9 C 0.78300(15) 0.6582(4) 0.34996(12)
C10 C 0.67988(15) -0.0784(5) 0.59660(14)
C11 C 0.56684(14) 0.1590(4) 0.34859(12)
C12 C 0.65761(13) 0.4391(4) 0.32975(11)
C13 C 0.93379(15) 0.7483(5) 0.43987(15)
C14 C 0.59447(17) 0.2474(4) 0.54358(15)
C15 C 0.52281(16) 0.6512(4) 0.20095(13)
C16 C 0.39814(16) 0.5767(5) 0.11851(15)
C17 C 0.46452(18) 0.7186(5) 0.14109(14)
C18 C 0.44800(15) 0.2910(5) 0.21515(13)
C19 C 0.59235(19) 0.3357(5) 0.61283(16)
C20 C 0.67730(18) 0.0130(6) 0.66598(16)
C21 C 0.39044(16) 0.3640(6) 0.15621(15)
C22 C 0.63393(18) 0.2190(6) 0.67402(17)
H1 H 0.68949(14) 0.7193(4) 0.26787(12)
H2 H 0.81541(15) 0.7801(4) 0.33574(12)
H3 H 0.78463(14) 0.2327(4) 0.47528(12)
H4 H 0.56563(17) 0.3288(4) 0.50258(15)
H5 H 0.56227(19) 0.4763(5) 0.61798(16)
H6 H 0.63252(18) 0.2799(6) 0.72058(17)
H7 H 0.70558(18) -0.0678(6) 0.70737(16)
H8 H 0.70949(15) -0.2205(5) 0.59200(14)
H9 H 0.44112(15) 0.1438(5) 0.23940(13)
H10 H 0.34524(16) 0.2658(6) 0.14176(15)
H11 H 0.35913(16) 0.6239(5) 0.07844(15)
H12 H 0.47085(18) 0.8640(5) 0.11575(14)
H13 H 0.56691(16) 0.7538(4) 0.21563(13)
H14 H 0.60009(15) -0.1866(4) 0.44656(12)
H15 H 0.69273(15) -0.1474(4) 0.46216(12)
H16 H 0.52029(14) 0.0657(4) 0.34399(12)
H17 H 0.9449(9) 0.7261(18) 0.3916(4)
H18 H 0.9055(5) 0.9017(6) 0.4416(10)
H19 H 0.9831(5) 0.753(2) 0.4753(6)
loop_
_geom_bond_atom_site_label_1
_geom_bond_atom_site_label_2
_geom_bond_site_symmetry_1
_geom_bond_site_symmetry_2
N1 C5 1_555 1_555
O1 C4 1_555 1_555
C1 C7 1_555 1_555
C2 C4 1_555 1_555
C3 C6 1_555 1_555
C4 C9 1_555 1_555
C5 C2 1_555 1_555
C6 C11 1_555 1_555
C7 N1 1_555 1_555
C8 C9 1_555 1_555
C9 H2 1_555 1_555
C10 C1 1_555 1_555
C11 N1 1_555 1_555
C12 C5 1_555 1_555
C13 O1 1_555 1_555
C14 C1 1_555 1_555
C15 C3 1_555 1_555
C16 C17 1_555 1_555
C17 C15 1_555 1_555
C18 C3 1_555 1_555
C19 C14 1_555 1_555
C20 C10 1_555 1_555
C21 C16 1_555 1_555
C22 C19 1_555 1_555
H1 C8 1_555 1_555
H3 C2 1_555 1_555
H4 C14 1_555 1_555
H5 C19 1_555 1_555
H6 C22 1_555 1_555
H7 C20 1_555 1_555
H8 C10 1_555 1_555
H9 C18 1_555 1_555
H10 C21 1_555 1_555
H11 C16 1_555 1_555
H12 C17 1_555 1_555
H13 C15 1_555 1_555
H14 C7 1_555 1_555
H15 C7 1_555 1_555
H16 C11 1_555 1_555
H17 C13 1_555 1_555
H18 C13 1_555 1_555
H19 C13 1_555 1_555
C6 C12 1_555 1_555
C8 C12 1_555 1_555
C18 C21 1_555 1_555
C20 C22 1_555 1_555

#END
