
#######################################################################
#
#                 Cambridge Crystallographic Data Centre
#                                CCDC 
#
#######################################################################
#
# If this CIF has been generated from an entry in the Cambridge 
# Structural Database, then it will include bibliographic, chemical, 
# crystal, experimental, refinement or atomic coordinate data resulting 
# from the CCDC's data processing and validation procedures.
#
#######################################################################

data_ZAJZAO
_chemical_formula_moiety         'C18 H30 N2 O5'
_chemical_name_systematic        
12-sec-butyl-3,7,9,9,11-pentamethyl-1-oxa-4,7-diazacyclododecane-2,5,8,10-tetrone
_symmetry_cell_setting           tetragonal
_symmetry_space_group_name_H-M   'P 43'
_symmetry_Int_Tables_number      78
_space_group_name_Hall           'P 4cw'
loop_
_symmetry_equiv_pos_site_id
_symmetry_equiv_pos_as_xyz
1 x,y,z
2 -y,x,3/4+z
3 -x,-y,1/2+z
4 y,-x,1/4+z
_cell_length_a                   10.0307(16)
_cell_length_b                   10.0307(16)
_cell_length_c                   19.782(3)
_cell_angle_alpha                90
_cell_angle_beta                 90
_cell_angle_gamma                90
_cell_volume                     1990.36
_exptl_crystal_colour            'light colorless'
_exptl_crystal_description       block
_cell_formula_units_Z            4
loop_
_atom_site_label
_atom_site_type_symbol
_atom_site_fract_x
_atom_site_fract_y
_atom_site_fract_z
O1 O 0.7816(4) 0.8232(4) 0.05918(18)
O2 O 0.8050(5) 0.6677(5) -0.0217(3)
O3 O 1.0632(5) 0.9340(4) -0.02960(19)
O4 O 0.9434(6) 1.3180(6) -0.0691(3)
O5 O 0.7660(5) 1.0192(5) -0.0521(2)
N1 N 1.0355(5) 0.8486(5) 0.0752(2)
H1 H 1.0560 0.8597 0.1170
N2 N 1.0251(6) 1.1927(5) 0.0152(3)
C1 C 0.8490(7) 0.7329(6) 0.0236(3)
C2 C 0.9914(6) 0.7206(6) 0.0501(4)
H2 H 1.0497 0.6936 0.0127
C3 C 1.0433(6) 0.9505(7) 0.0305(3)
C4 C 1.0169(7) 1.0848(5) 0.0619(3)
H3 H 0.9287 1.0841 0.0819
H4 H 1.0809 1.0994 0.0979
C5 C 0.9233(8) 1.2445(6) -0.0198(3)
C6 C 0.7777(7) 1.2261(6) 0.0042(3)
C7 C 0.7339(6) 1.0795(6) -0.0017(3)
C8 C 0.6440(6) 1.0120(6) 0.0500(3)
H5 H 0.6767 1.0340 0.0953
C9 C 0.6467(6) 0.8617(6) 0.0416(3)
H6 H 0.6311 0.8401 -0.0061
C10 C 0.5474(7) 0.7840(7) 0.0847(4)
H7 H 0.4592 0.8218 0.0754
C11 C 0.5417(10) 0.6366(9) 0.0631(7)
H8 H 0.5463 0.6325 0.0141
H9 H 0.6200 0.5916 0.0807
C12 C 0.4231(11) 0.5633(13) 0.0853(8)
H10 H 0.4121 0.4852 0.0578
H11 H 0.3460 0.6193 0.0809
H12 H 0.4336 0.5375 0.1317
C13 C 0.5730(10) 0.8045(10) 0.1572(4)
H13 H 0.6614 0.7743 0.1680
H14 H 0.5093 0.7549 0.1832
H15 H 0.5653 0.8976 0.1677
C14 C 0.9985(8) 0.6147(7) 0.1057(5)
H16 H 1.0882 0.6088 0.1224
H17 H 0.9720 0.5299 0.0876
H18 H 0.9399 0.6389 0.1420
C15 C 1.1622(8) 1.2302(8) -0.0071(5)
H19 H 1.1780 1.1958 -0.0517
H20 H 1.2264 1.1935 0.0236
H21 H 1.1703 1.3256 -0.0077
C16 C 0.7598(8) 1.2882(6) 0.0750(3)
H22 H 0.6681 1.2812 0.0884
H23 H 0.7852 1.3805 0.0737
H24 H 0.8148 1.2417 0.1069
C17 C 0.6860(9) 1.3029(8) -0.0455(4)
H25 H 0.6925 1.2639 -0.0896
H26 H 0.7132 1.3946 -0.0475
H27 H 0.5954 1.2979 -0.0300
C18 C 0.5002(7) 1.0694(8) 0.0422(4)
H28 H 0.5040 1.1650 0.0413
H29 H 0.4464 1.0410 0.0796
H30 H 0.4617 1.0376 0.0008
loop_
_geom_bond_atom_site_label_1
_geom_bond_atom_site_label_2
_geom_bond_site_symmetry_1
_geom_bond_site_symmetry_2
O1 C1 1_555 1_555
O2 C1 1_555 1_555
O3 C3 1_555 1_555
O4 C5 1_555 1_555
O5 C7 1_555 1_555
N1 H1 1_555 1_555
N2 C4 1_555 1_555
C1 C2 1_555 1_555
C2 N1 1_555 1_555
H2 C2 1_555 1_555
C3 N1 1_555 1_555
C4 C3 1_555 1_555
H3 C4 1_555 1_555
H4 C4 1_555 1_555
C5 N2 1_555 1_555
C6 C5 1_555 1_555
C7 C6 1_555 1_555
C8 C7 1_555 1_555
H5 C8 1_555 1_555
C9 O1 1_555 1_555
H6 C9 1_555 1_555
C10 C9 1_555 1_555
H7 C10 1_555 1_555
C11 C10 1_555 1_555
H8 C11 1_555 1_555
H9 C11 1_555 1_555
C12 C11 1_555 1_555
H10 C12 1_555 1_555
H11 C12 1_555 1_555
H12 C12 1_555 1_555
C13 C10 1_555 1_555
H13 C13 1_555 1_555
H14 C13 1_555 1_555
H15 C13 1_555 1_555
C14 C2 1_555 1_555
H16 C14 1_555 1_555
H17 C14 1_555 1_555
H18 C14 1_555 1_555
C15 N2 1_555 1_555
H19 C15 1_555 1_555
H20 C15 1_555 1_555
H21 C15 1_555 1_555
C16 C6 1_555 1_555
H22 C16 1_555 1_555
H23 C16 1_555 1_555
H24 C16 1_555 1_555
C17 C6 1_555 1_555
H25 C17 1_555 1_555
H26 C17 1_555 1_555
H27 C17 1_555 1_555
C18 C8 1_555 1_555
H28 C18 1_555 1_555
H29 C18 1_555 1_555
H30 C18 1_555 1_555
C8 C9 1_555 1_555

#END
