
#######################################################################
#
#                 Cambridge Crystallographic Data Centre
#                                CCDC 
#
#######################################################################
#
# If this CIF has been generated from an entry in the Cambridge 
# Structural Database, then it will include bibliographic, chemical, 
# crystal, experimental, refinement or atomic coordinate data resulting 
# from the CCDC's data processing and validation procedures.
#
#######################################################################

data_ZAKWIU
_chemical_formula_moiety         'C15 H13 N3 O5'
_chemical_name_systematic        
'methyl 6-amino-5-cyano-2-methyl-4-(2-nitrophenyl)-4H-pyran-3-carboxylate'
_symmetry_cell_setting           monoclinic
_symmetry_space_group_name_H-M   'C 2/c'
_symmetry_Int_Tables_number      15
_space_group_name_Hall           '-C 2yn'
loop_
_symmetry_equiv_pos_site_id
_symmetry_equiv_pos_as_xyz
1 x,y,z
2 -x,y,1/2-z
3 1/2+x,1/2+y,z
4 1/2-x,1/2+y,1/2-z
5 -x,-y,-z
6 x,-y,1/2+z
7 1/2-x,1/2-y,-z
8 1/2+x,1/2-y,1/2+z
_cell_length_a                   12.3069(8)
_cell_length_b                   9.7023(7)
_cell_length_c                   24.812(2)
_cell_angle_alpha                90
_cell_angle_beta                 94.862(6)
_cell_angle_gamma                90
_cell_volume                     2952.02
_exptl_crystal_colour            white
_exptl_crystal_description       block
_cell_formula_units_Z            8
loop_
_atom_site_label
_atom_site_type_symbol
_atom_site_fract_x
_atom_site_fract_y
_atom_site_fract_z
O1 O 0.63798(14) 0.05751(19) 0.54280(8)
C1 C 0.7328(2) 0.0241(3) 0.57479(12)
C2 C 0.7979(2) 0.1190(3) 0.59845(11)
C3 C 0.7752(2) 0.2729(3) 0.59284(10)
H1 H 0.8357 0.3152 0.5756
C4 C 0.6717(2) 0.2966(3) 0.55670(11)
C5 C 0.6103(2) 0.1933(3) 0.53500(11)
C6 C 0.8986(2) 0.0774(3) 0.63142(12)
O2 O 0.92041(18) -0.0354(2) 0.64965(10)
O3 O 0.96592(14) 0.1861(2) 0.63985(9)
C7 C 1.0653(2) 0.1606(4) 0.67349(15)
H2 H 1.1072 0.2440 0.6772
H3 H 1.1069 0.0908 0.6571
H4 H 1.0478 0.1299 0.7085
C8 C 0.76873(19) 0.3405(3) 0.64779(11)
C9 C 0.8390(2) 0.4422(3) 0.66987(12)
C10 C 0.8361(3) 0.4924(3) 0.72194(15)
H5 H 0.8872 0.5568 0.7356
C11 C 0.7571(2) 0.4459(4) 0.75319(14)
H6 H 0.7534 0.4800 0.7880
C12 C 0.6837(2) 0.3494(3) 0.73289(13)
H7 H 0.6293 0.3187 0.7538
C13 C 0.6900(2) 0.2967(3) 0.68103(12)
H8 H 0.6399 0.2301 0.6682
N1 N 0.9219(2) 0.5026(3) 0.63738(14)
O4 O 0.89507(19) 0.5351(3) 0.59075(12)
O5 O 1.0142(2) 0.5202(3) 0.65979(13)
C14 C 0.7442(3) -0.1294(3) 0.57398(15)
H9 H 0.6826 -0.1689 0.5532
H10 H 0.7476 -0.1641 0.6103
H11 H 0.8098 -0.1537 0.5579
N2 N 0.51850(18) 0.2030(3) 0.50193(10)
H12 H 0.4929 0.2827 0.4924
H13 H 0.4853 0.1295 0.4902
C15 C 0.6370(2) 0.4343(3) 0.54644(12)
N3 N 0.6094(2) 0.5457(3) 0.53835(12)
loop_
_geom_bond_atom_site_label_1
_geom_bond_atom_site_label_2
_geom_bond_site_symmetry_1
_geom_bond_site_symmetry_2
O1 C1 1_555 1_555
C1 C2 1_555 1_555
C2 C3 1_555 1_555
C3 H1 1_555 1_555
C4 C3 1_555 1_555
C5 O1 1_555 1_555
C6 C2 1_555 1_555
O2 C6 1_555 1_555
O3 C6 1_555 1_555
C7 O3 1_555 1_555
H2 C7 1_555 1_555
H3 C7 1_555 1_555
H4 C7 1_555 1_555
C8 C3 1_555 1_555
C9 C8 1_555 1_555
C10 C9 1_555 1_555
H5 C10 1_555 1_555
C11 C10 1_555 1_555
H6 C11 1_555 1_555
C12 C11 1_555 1_555
H7 C12 1_555 1_555
C13 C8 1_555 1_555
H8 C13 1_555 1_555
N1 C9 1_555 1_555
O4 N1 1_555 1_555
O5 N1 1_555 1_555
C14 C1 1_555 1_555
H9 C14 1_555 1_555
H10 C14 1_555 1_555
H11 C14 1_555 1_555
N2 C5 1_555 1_555
H12 N2 1_555 1_555
H13 N2 1_555 1_555
C15 C4 1_555 1_555
N3 C15 1_555 1_555
C4 C5 1_555 1_555
C12 C13 1_555 1_555

#END
