
#######################################################################
#
#                 Cambridge Crystallographic Data Centre
#                                CCDC 
#
#######################################################################
#
# If this CIF has been generated from an entry in the Cambridge 
# Structural Database, then it will include bibliographic, chemical, 
# crystal, experimental, refinement or atomic coordinate data resulting 
# from the CCDC's data processing and validation procedures.
#
#######################################################################

data_ZALGOI
_chemical_formula_moiety         'C44 H53 As1 O4,1.5(C6 H6)'
_chemical_name_systematic        
'(5,11,17,23-Tetra-t-butyl-25-hydroxycalix(4)arene-26,27,28-triolato)-arsenic benzene solvate'
_symmetry_cell_setting           triclinic
_symmetry_space_group_name_H-M   'P -1'
_symmetry_Int_Tables_number      2
_space_group_name_Hall           '-P 1'
loop_
_symmetry_equiv_pos_site_id
_symmetry_equiv_pos_as_xyz
1 x,y,z
2 -x,-y,-z
_cell_length_a                   9.821(2)
_cell_length_b                   13.913(3)
_cell_length_c                   16.884(4)
_cell_angle_alpha                100.52(2)
_cell_angle_beta                 101.39(2)
_cell_angle_gamma                90.23(2)
_cell_volume                     2221.65
_exptl_crystal_colour            colorless
_chemical_melting_point          '346-348 deg.C'
_cell_formula_units_Z            2
_chemical_properties_physical    Air-sensitive
loop_
_atom_site_label
_atom_site_type_symbol
_atom_site_fract_x
_atom_site_fract_y
_atom_site_fract_z
As1 As 0.1949(1) 0.1238(1) 0.7733(1)
O1 O 0.2628(6) 0.0774(4) 0.5734(3)
O2 O 0.3421(5) 0.0635(4) 0.7463(3)
O3 O 0.2756(6) 0.1804(4) 0.8767(3)
O4 O 0.2471(5) 0.2175(4) 0.7253(3)
C1 C 0.1402(8) 0.0500(6) 0.5939(5)
C2 C 0.0328(9) 0.1147(6) 0.5949(5)
C3 C -0.0890(9) 0.0865(6) 0.6154(5)
C4 C -0.1068(9) -0.0055(7) 0.6361(5)
C5 C 0.0054(9) -0.0660(6) 0.6369(5)
C6 C 0.1303(9) -0.0399(6) 0.6171(5)
C7 C -0.2378(9) -0.0360(7) 0.6604(6)
C8 C -0.2837(12) -0.1387(9) 0.6195(8)
C9 C -0.3565(11) 0.0281(11) 0.6413(10)
C10 C -0.2080(14) -0.0325(12) 0.7521(7)
C11 C 0.3753(8) -0.0259(5) 0.7679(5)
C12 C 0.3337(8) -0.1096(6) 0.7084(5)
C13 C 0.3764(9) -0.1994(6) 0.7284(5)
C14 C 0.4592(9) -0.2065(6) 0.8028(5)
C15 C 0.4976(9) -0.1202(6) 0.8596(5)
C16 C 0.4585(8) -0.0282(6) 0.8445(5)
C17 C 0.5121(10) -0.3033(6) 0.8258(6)
C18 C 0.4404(12) -0.3250(7) 0.8956(6)
C19 C 0.4724(11) -0.3886(7) 0.7541(6)
C20 C 0.6666(11) -0.2959(8) 0.8552(8)
C21 C 0.4074(9) 0.2188(6) 0.8827(5)
C22 C 0.5201(9) 0.1618(6) 0.8952(5)
C23 C 0.6513(9) 0.2028(6) 0.8989(5)
C24 C 0.6718(9) 0.2984(6) 0.8902(5)
C25 C 0.5555(9) 0.3531(6) 0.8784(5)
C26 C 0.4223(8) 0.3164(6) 0.8746(5)
C27 C 0.8167(9) 0.3391(7) 0.8968(6)
C28 C 0.8968(12) 0.3499(9) 0.9869(7)
C29 C 0.8230(11) 0.4401(8) 0.8760(8)
C30 C 0.8979(12) 0.2736(9) 0.8425(8)
C31 C 0.1736(8) 0.3013(5) 0.7199(5)
C32 C 0.2045(8) 0.3812(6) 0.7826(5)
C33 C 0.1383(8) 0.4678(6) 0.7702(5)
C34 C 0.0446(9) 0.4743(6) 0.6990(5)
C35 C 0.0158(9) 0.3914(6) 0.6389(5)
C36 C 0.0776(8) 0.3028(6) 0.6457(5)
C37 C -0.0222(9) 0.5703(6) 0.6840(5)
C38 C 0.0170(11) 0.6531(7) 0.7566(6)
C39 C 0.0242(13) 0.6015(7) 0.6106(7)
C40 C -0.1827(10) 0.5535(8) 0.6644(7)
C41 C 0.2505(9) -0.1074(6) 0.6231(5)
C42 C 0.5025(10) 0.0588(5) 0.9126(5)
C43 C 0.2980(9) 0.3812(6) 0.8669(5)
C44 C 0.0508(9) 0.2171(6) 0.5746(5)
H1 H 0.3252 0.1081 0.6430
H2 H -0.1635 0.1310 0.6153
H3 H -0.0033 -0.1288 0.6518
H4 H -0.2087 -0.1814 0.6309
H5 H -0.3104 -0.1421 0.5612
H6 H -0.3616 -0.1587 0.6401
H7 H -0.3783 0.0277 0.5833
H8 H -0.3313 0.0937 0.6704
H9 H -0.4362 0.0045 0.6582
H10 H -0.1319 -0.0734 0.7664
H11 H -0.2890 -0.0557 0.7679
H12 H -0.1841 0.0336 0.7802
H13 H 0.3468 -0.2582 0.6888
H14 H 0.5541 -0.1244 0.9121
H15 H 0.4630 -0.2727 0.9422
H16 H 0.4726 -0.3852 0.9113
H17 H 0.3415 -0.3306 0.8761
H18 H 0.3733 -0.3929 0.7356
H19 H 0.5029 -0.4483 0.7716
H20 H 0.5158 -0.3786 0.7099
H21 H 0.6909 -0.2420 0.9005
H22 H 0.7104 -0.2857 0.8112
H23 H 0.6975 -0.3554 0.8729
H24 H 0.7307 0.1631 0.9077
H25 H 0.5672 0.4198 0.8725
H26 H 0.8965 0.2878 1.0039
H27 H 0.8529 0.3966 1.0220
H28 H 0.9910 0.3721 0.9906
H29 H 0.7746 0.4383 0.8205
H30 H 0.9184 0.4608 0.8815
H31 H 0.7802 0.4853 0.9129
H32 H 0.8963 0.2086 0.8538
H33 H 0.9923 0.2986 0.8533
H34 H 0.8564 0.2724 0.7858
H35 H 0.1591 0.5249 0.8128
H36 H -0.0507 0.3950 0.5896
H37 H -0.0109 0.6356 0.8037
H38 H -0.0290 0.7109 0.7440
H39 H 0.1158 0.6657 0.7684
H40 H 0.0005 0.5499 0.5633
H41 H 0.1230 0.6144 0.6234
H42 H -0.0218 0.6596 0.5990
H43 H -0.2092 0.5009 0.6182
H44 H -0.2258 0.6121 0.6515
H45 H -0.2125 0.5372 0.7113
H46 H 0.2139 -0.1726 0.5993
H47 H 0.3134 -0.0880 0.5914
H48 H 0.4345 0.0626 0.9467
H49 H 0.5907 0.0441 0.9431
H50 H 0.2393 0.3625 0.9013
H51 H 0.3333 0.4473 0.8881
H52 H -0.0327 0.2289 0.5378
H53 H 0.1278 0.2156 0.5471
C45 C 0.4062(17) 0.3887(13) 0.5387(16)
C46 C 0.4154(17) 0.3705(13) 0.6120(14)
C47 C 0.5177(27) 0.3217(17) 0.6430(8)
C48 C 0.6154(19) 0.2966(15) 0.6029(17)
C49 C 0.6041(20) 0.3122(15) 0.5287(15)
C50 C 0.5014(26) 0.3606(19) 0.4975(7)
H54 H 0.3286 0.4231 0.5149
H55 H 0.3464 0.3933 0.6434
H56 H 0.5213 0.3040 0.6957
H57 H 0.6961 0.2663 0.6280
H58 H 0.6718 0.2880 0.4968
H59 H 0.4958 0.3758 0.4437
C51 C -0.0038(28) -0.0864(12) 0.9539(12)
C52 C 0.0840(18) -0.0212(20) 0.9456(9)
C53 C -0.0937(19) -0.0652(16) 1.0090(14)
H60 H 0.0043 -0.1522 0.9175
H61 H 0.1420 -0.0369 0.9059
H62 H -0.1583 -0.1153 1.0098
C53A C 0.0937(19) 0.0652(16) 0.9910(14)
C52A C -0.0840(18) 0.0212(20) 1.0544(9)
C51A C 0.0038(28) 0.0864(12) 1.0461(12)
H62A H 0.1583 0.1153 0.9902
H61A H -0.1420 0.0369 1.0941
H60A H -0.0043 0.1522 1.0825
loop_
_geom_bond_atom_site_label_1
_geom_bond_atom_site_label_2
_geom_bond_site_symmetry_1
_geom_bond_site_symmetry_2
As1 O2 1_555 1_555
O1 C1 1_555 1_555
O2 C11 1_555 1_555
O3 As1 1_555 1_555
O4 As1 1_555 1_555
C1 C2 1_555 1_555
C2 C3 1_555 1_555
C3 C4 1_555 1_555
C4 C5 1_555 1_555
C5 C6 1_555 1_555
C6 C1 1_555 1_555
C7 C4 1_555 1_555
C8 C7 1_555 1_555
C9 C7 1_555 1_555
C10 C7 1_555 1_555
C11 C12 1_555 1_555
C12 C13 1_555 1_555
C13 C14 1_555 1_555
C14 C15 1_555 1_555
C15 C16 1_555 1_555
C16 C11 1_555 1_555
C17 C14 1_555 1_555
C18 C17 1_555 1_555
C19 C17 1_555 1_555
C20 C17 1_555 1_555
C21 O3 1_555 1_555
C22 C21 1_555 1_555
C23 C22 1_555 1_555
C24 C23 1_555 1_555
C25 C24 1_555 1_555
C26 C21 1_555 1_555
C27 C24 1_555 1_555
C28 C27 1_555 1_555
C29 C27 1_555 1_555
C30 C27 1_555 1_555
C31 O4 1_555 1_555
C32 C31 1_555 1_555
C33 C32 1_555 1_555
C34 C33 1_555 1_555
C35 C34 1_555 1_555
C36 C31 1_555 1_555
C37 C34 1_555 1_555
C38 C37 1_555 1_555
C39 C37 1_555 1_555
C40 C37 1_555 1_555
C41 C6 1_555 1_555
C42 C16 1_555 1_555
C43 C26 1_555 1_555
C44 C2 1_555 1_555
C45 C46 1_555 1_555
C46 C47 1_555 1_555
C47 C48 1_555 1_555
C48 C49 1_555 1_555
C49 C50 1_555 1_555
C50 C45 1_555 1_555
C51 C52 1_555 1_555
C52 H61 1_555 1_555
C53 C51 1_555 1_555
H1 O1 1_555 1_555
H2 C3 1_555 1_555
H3 C5 1_555 1_555
H4 C8 1_555 1_555
H5 C8 1_555 1_555
H6 C8 1_555 1_555
H7 C9 1_555 1_555
H8 C9 1_555 1_555
H9 C9 1_555 1_555
H10 C10 1_555 1_555
H11 C10 1_555 1_555
H12 C10 1_555 1_555
H13 C13 1_555 1_555
H14 C15 1_555 1_555
H15 C18 1_555 1_555
H16 C18 1_555 1_555
H17 C18 1_555 1_555
H18 C19 1_555 1_555
H19 C19 1_555 1_555
H20 C19 1_555 1_555
H21 C20 1_555 1_555
H22 C20 1_555 1_555
H23 C20 1_555 1_555
H24 C23 1_555 1_555
H25 C25 1_555 1_555
H26 C28 1_555 1_555
H27 C28 1_555 1_555
H28 C28 1_555 1_555
H29 C29 1_555 1_555
H30 C29 1_555 1_555
H31 C29 1_555 1_555
H32 C30 1_555 1_555
H33 C30 1_555 1_555
H34 C30 1_555 1_555
H35 C33 1_555 1_555
H36 C35 1_555 1_555
H37 C38 1_555 1_555
H38 C38 1_555 1_555
H39 C38 1_555 1_555
H40 C39 1_555 1_555
H41 C39 1_555 1_555
H42 C39 1_555 1_555
H43 C40 1_555 1_555
H44 C40 1_555 1_555
H45 C40 1_555 1_555
H46 C41 1_555 1_555
H47 C41 1_555 1_555
H48 C42 1_555 1_555
H49 C42 1_555 1_555
H50 C43 1_555 1_555
H51 C43 1_555 1_555
H52 C44 1_555 1_555
H53 C44 1_555 1_555
H54 C45 1_555 1_555
H55 C46 1_555 1_555
H56 C47 1_555 1_555
H57 C48 1_555 1_555
H58 C49 1_555 1_555
H59 C50 1_555 1_555
H60 C51 1_555 1_555
H62 C53 1_555 1_555
C53A C52 1_555 1_555
C52A C53 1_555 1_555
C51A C53A 1_555 1_555
H62A C53A 1_555 1_555
H61A C52A 1_555 1_555
H60A C51A 1_555 1_555
C12 C41 1_555 1_555
C22 C42 1_555 1_555
C25 C26 1_555 1_555
C32 C43 1_555 1_555
C35 C36 1_555 1_555
C36 C44 1_555 1_555
C52A C51A 1_555 1_555

#END
