
#######################################################################
#
#                 Cambridge Crystallographic Data Centre
#                                CCDC 
#
#######################################################################
#
# If this CIF has been generated from an entry in the Cambridge 
# Structural Database, then it will include bibliographic, chemical, 
# crystal, experimental, refinement or atomic coordinate data resulting 
# from the CCDC's data processing and validation procedures.
#
#######################################################################

data_ZALHEZ
_chemical_formula_moiety         'C28 H20 As2 O5'
_chemical_name_systematic        
(\m~2~-Calix(4)arene-25,26,27,28-tetraolato)-(\m~2~-oxo)-di-arsenic
_symmetry_cell_setting           triclinic
_symmetry_space_group_name_H-M   'P -1'
_symmetry_Int_Tables_number      2
_space_group_name_Hall           '-P 1'
loop_
_symmetry_equiv_pos_site_id
_symmetry_equiv_pos_as_xyz
1 x,y,z
2 -x,-y,-z
_cell_length_a                   10.303(4)
_cell_length_b                   11.175(3)
_cell_length_c                   11.339(2)
_cell_angle_alpha                117.12(2)
_cell_angle_beta                 102.29(2)
_cell_angle_gamma                92.12(2)
_cell_volume                     1121.8
_exptl_crystal_colour            colorless
_cell_formula_units_Z            2
loop_
_atom_site_label
_atom_site_type_symbol
_atom_site_fract_x
_atom_site_fract_y
_atom_site_fract_z
As1 As 0.2300(1) 0.1868(1) -0.0760(1)
As2 As 0.3314(1) 0.5072(1) 0.0419(1)
O1 O 0.2753(4) 0.3367(5) -0.0843(5)
O2 O 0.3496(4) 0.2389(4) 0.0839(5)
O3 O 0.4990(4) 0.4952(5) 0.1195(4)
O4 O 0.2568(4) 0.4981(4) 0.1679(4)
O5 O 0.0854(5) 0.2264(5) -0.0104(5)
C1 C 0.4088(7) 0.1525(7) 0.1265(7)
C2 C 0.3300(7) 0.0501(7) 0.1288(7)
C3 C 0.3952(8) -0.0282(7) 0.1818(7)
C4 C 0.5328(8) -0.0024(7) 0.2303(8)
C5 C 0.6097(7) 0.0996(7) 0.2273(7)
C6 C 0.5460(7) 0.1774(7) 0.1732(7)
C7 C 0.6251(7) 0.2934(7) 0.1701(7)
C8 C 0.5418(7) 0.5226(7) 0.2562(7)
C9 C 0.6119(7) 0.4296(7) 0.2826(7)
C10 C 0.6650(6) 0.4627(7) 0.4193(7)
C11 C 0.6492(7) 0.5816(8) 0.5248(8)
C12 C 0.5767(7) 0.6699(7) 0.4937(7)
C13 C 0.5238(7) 0.6431(7) 0.3610(7)
C14 C 0.4464(7) 0.7450(7) 0.3348(8)
C15 C 0.2099(7) 0.6110(8) 0.2492(7)
C16 C 0.2992(8) 0.7325(8) 0.3327(7)
C17 C 0.2461(8) 0.8478(8) 0.4136(8)
C18 C 0.1103(10) 0.8364(10) 0.4091(9)
C19 C 0.0268(9) 0.7140(10) 0.3265(9)
C20 C 0.0744(8) 0.5992(8) 0.2453(8)
C21 C -0.0127(7) 0.4647(8) 0.1545(8)
C22 C 0.0771(7) 0.2445(8) 0.1177(7)
C23 C 0.0222(7) 0.3555(8) 0.1947(8)
C24 C -0.0055(7) 0.3639(9) 0.3129(8)
C25 C 0.0251(8) 0.2672(10) 0.3535(9)
C26 C 0.0830(8) 0.1633(9) 0.2796(9)
C27 C 0.1123(7) 0.1488(8) 0.1586(7)
C28 C 0.1788(7) 0.0262(8) 0.0792(8)
H1 H 0.3443 -0.1002 0.1845
H2 H 0.5767 -0.0567 0.2673
H3 H 0.7057 0.1162 0.2621
H4 H 0.5914 0.2904 0.0830
H5 H 0.7182 0.2826 0.1824
H6 H 0.7140 0.4003 0.4401
H7 H 0.6877 0.6033 0.6184
H8 H 0.5630 0.7522 0.5672
H9 H 0.4523 0.7348 0.2474
H10 H 0.4889 0.8345 0.4056
H11 H 0.3036 0.9337 0.4714
H12 H 0.0743 0.9149 0.4643
H13 H -0.0667 0.7085 0.3254
H14 H -0.1041 0.4767 0.1570
H15 H -0.0046 0.4342 0.0627
H16 H -0.0467 0.4384 0.3671
H17 H 0.0047 0.2744 0.4350
H18 H 0.1050 0.0973 0.3096
H19 H 0.1551 0.0047 -0.0156
H20 H 0.1445 -0.0496 0.0879
loop_
_geom_bond_atom_site_label_1
_geom_bond_atom_site_label_2
_geom_bond_site_symmetry_1
_geom_bond_site_symmetry_2
As1 O1 1_555 1_555
As2 O1 1_555 1_555
O2 As1 1_555 1_555
O3 As2 1_555 1_555
O4 As2 1_555 1_555
O5 As1 1_555 1_555
C1 O2 1_555 1_555
C2 C1 1_555 1_555
C3 C2 1_555 1_555
C4 C3 1_555 1_555
C5 C4 1_555 1_555
C6 C1 1_555 1_555
C7 C6 1_555 1_555
C8 O3 1_555 1_555
C9 C7 1_555 1_555
C10 C9 1_555 1_555
C11 C10 1_555 1_555
C12 C11 1_555 1_555
C13 C8 1_555 1_555
C14 C13 1_555 1_555
C15 O4 1_555 1_555
C16 C14 1_555 1_555
C17 C16 1_555 1_555
C18 C17 1_555 1_555
C19 C18 1_555 1_555
C20 C15 1_555 1_555
C21 C20 1_555 1_555
C22 O5 1_555 1_555
C23 C21 1_555 1_555
C24 C23 1_555 1_555
C25 C24 1_555 1_555
C26 C25 1_555 1_555
C27 C22 1_555 1_555
C28 C2 1_555 1_555
H1 C3 1_555 1_555
H2 C4 1_555 1_555
H3 C5 1_555 1_555
H4 C7 1_555 1_555
H5 C7 1_555 1_555
H6 C10 1_555 1_555
H7 C11 1_555 1_555
H8 C12 1_555 1_555
H9 C14 1_555 1_555
H10 C14 1_555 1_555
H11 C17 1_555 1_555
H12 C18 1_555 1_555
H13 C19 1_555 1_555
H14 C21 1_555 1_555
H15 C21 1_555 1_555
H16 C24 1_555 1_555
H17 C25 1_555 1_555
H18 C26 1_555 1_555
H19 C28 1_555 1_555
H20 C28 1_555 1_555
C5 C6 1_555 1_555
C8 C9 1_555 1_555
C12 C13 1_555 1_555
C15 C16 1_555 1_555
C19 C20 1_555 1_555
C22 C23 1_555 1_555
C26 C27 1_555 1_555
C27 C28 1_555 1_555

#END
