
#######################################################################
#
#                 Cambridge Crystallographic Data Centre
#                                CCDC 
#
#######################################################################
#
# If this CIF has been generated from an entry in the Cambridge 
# Structural Database, then it will include bibliographic, chemical, 
# crystal, experimental, refinement or atomic coordinate data resulting 
# from the CCDC's data processing and validation procedures.
#
#######################################################################

data_ZALXIW
_chemical_formula_moiety         'C61 H72 O4'
_chemical_name_systematic        
5,11,17,23-tetra-t-butyl-2-(diphenylmethylidene)-25,26,27,28-tetramethoxycalix[4]-arene
_symmetry_cell_setting           triclinic
_symmetry_space_group_name_H-M   'P -1'
_symmetry_Int_Tables_number      2
_space_group_name_Hall           '-P 1'
loop_
_symmetry_equiv_pos_site_id
_symmetry_equiv_pos_as_xyz
1 x,y,z
2 -x,-y,-z
_cell_length_a                   13.1514(5)
_cell_length_b                   13.5458(6)
_cell_length_c                   15.7625(6)
_cell_angle_alpha                103.262(3)
_cell_angle_beta                 97.743(3)
_cell_angle_gamma                100.037(4)
_cell_volume                     2646.22
_exptl_crystal_colour            white
_exptl_crystal_description       block
_cell_formula_units_Z            2
loop_
_atom_site_label
_atom_site_type_symbol
_atom_site_fract_x
_atom_site_fract_y
_atom_site_fract_z
C1 C 0.1517(7) 0.0596(6) 0.2958(6)
C2 C 0.3729(7) 0.1088(7) 0.1935(6)
C3 C 0.3275(7) 0.3925(7) 0.2025(6)
C4 C 0.1119(7) 0.3313(7) 0.3251(6)
O1 O 0.1037(4) 0.0316(4) 0.2088(3)
O2 O 0.3999(4) 0.1735(4) 0.2769(3)
O3 O 0.2034(4) 0.2968(4) 0.3234(4)
O4 O 0.4006(4) 0.4234(4) 0.2795(4)
C5 C 0.2817(7) -0.0883(7) -0.0749(6)
C6 C 0.3154(7) -0.0170(7) 0.0194(6)
C7 C 0.2907(7) -0.0519(7) 0.0925(6)
H1 H 0.2520 -0.1192 0.0821
C8 C 0.0158(7) 0.4622(7) 0.3078(6)
H2 H 0.0137 0.5267 0.2973
C9 C -0.1713(7) 0.4558(7) 0.3325(6)
C10 C 0.0077(7) 0.1550(6) 0.3399(6)
H3 H -0.0351 0.1465 0.3844
H4 H -0.0316 0.1104 0.2837
C11 C 0.2838(7) 0.1086(7) 0.5748(6)
C12 C -0.2008(7) 0.4918(7) 0.2545(6)
H5 H -0.2399 0.5450 0.2691
H6 H -0.2433 0.4348 0.2083
H7 H -0.1387 0.5194 0.2347
C13 C 0.4940(7) 0.1624(7) 0.3286(6)
H8 H 0.5539 0.1900 0.3060
H9 H 0.4913 0.0903 0.3250
H10 H 0.4996 0.1996 0.3893
C14 C 0.1838(8) 0.3331(7) 0.0417(6)
C15 C 0.2346(7) 0.0896(7) 0.4754(6)
C16 C 0.1044(7) 0.1149(7) 0.3618(6)
C17 C 0.3473(7) 0.3211(7) 0.1295(6)
C18 C 0.0191(7) 0.2683(7) 0.3334(6)
C19 C 0.2815(7) 0.0408(7) 0.4086(6)
H11 H 0.3431 0.0190 0.4239
C20 C -0.1437(7) 0.5466(7) 0.4171(6)
H12 H -0.0858 0.5977 0.4122
H13 H -0.1246 0.5210 0.4677
H14 H -0.2035 0.5775 0.4240
C21 C 0.2016(7) 0.4880(7) 0.2822(6)
H15 H 0.2597 0.5063 0.3319
H16 H 0.1861 0.5518 0.2712
C22 C -0.0699(7) 0.3094(7) 0.3365(6)
H17 H -0.1296 0.2696 0.3472
C23 C 0.2870(7) -0.0416(7) 0.2502(6)
C24 C 0.2391(7) 0.0236(7) 0.3199(6)
C25 C 0.3523(7) -0.2036(6) 0.1949(6)
C26 C 0.3047(7) -0.2283(6) 0.3738(6)
H18 H 0.3743 -0.2294 0.3695
C27 C -0.2666(7) 0.3760(7) 0.3401(6)
H19 H -0.3295 0.4016 0.3294
H20 H -0.2575 0.3653 0.3986
H21 H -0.2722 0.3114 0.2972
C28 C 0.2454(7) -0.1875(6) 0.3177(6)
C29 C 0.1124(7) 0.1092(6) 0.1594(6)
H22 H 0.1051 0.0759 0.0975
H23 H 0.1799 0.1557 0.1797
H24 H 0.0582 0.1476 0.1680
C30 C 0.3942(7) 0.1508(7) 0.1220(6)
C31 C 0.1049(8) 0.3032(7) -0.0479(7)
C32 C 0.2345(7) 0.4252(7) 0.1994(6)
C33 C 0.1076(7) 0.4283(7) 0.3056(6)
C34 C 0.4536(7) -0.1666(7) 0.1863(6)
H25 H 0.4870 -0.0983 0.2148
C35 C 0.2752(7) 0.3329(7) 0.4053(6)
H26 H 0.3435 0.3224 0.3958
H27 H 0.2519 0.2951 0.4462
H28 H 0.2786 0.4055 0.4292
C36 C 0.3694(7) 0.0873(7) 0.0392(6)
H29 H 0.3888 0.1137 -0.0072
C37 C 0.2954(7) -0.1375(6) 0.2535(5)
C38 C 0.1626(8) 0.3960(7) 0.1173(6)
H30 H 0.1002 0.4195 0.1143
C39 C 0.2592(8) -0.2680(7) 0.4375(6)
H31 H 0.3009 -0.2915 0.4778
C40 C 0.4371(7) 0.2676(7) 0.1371(6)
H32 H 0.4807 0.2957 0.1954
H33 H 0.4800 0.2791 0.0933
C41 C 0.1595(17) 0.2796(17) -0.1274(15)
H34 H 0.2307 0.3186 -0.1119
H35 H 0.1230 0.2985 -0.1762
H36 H 0.1592 0.2068 -0.1440
C42 C 0.0595(8) 0.3929(7) -0.0618(6)
H37 H 0.0133 0.4077 -0.0206
H38 H 0.0208 0.3761 -0.1213
H39 H 0.1151 0.4526 -0.0526
C43 C 0.3193(7) 0.0058(7) 0.1770(6)
C44 C 0.2744(8) 0.2975(7) 0.0509(6)
H40 H 0.2887 0.2542 0.0009
C45 C -0.0747(7) 0.4058(7) 0.3247(6)
C46 C 0.1475(7) 0.1265(7) 0.4494(6)
H41 H 0.1160 0.1611 0.4932
C47 C 0.5063(7) -0.2315(7) 0.1347(6)
H42 H 0.5743 -0.2057 0.1282
C48 C 0.3032(7) -0.3068(7) 0.1525(6)
H43 H 0.2356 -0.3332 0.1596
C49 C 0.1400(7) -0.1932(6) 0.3217(6)
H44 H 0.0985 -0.1680 0.2827
C50 C 0.0963(8) -0.2363(7) 0.3835(6)
H45 H 0.0253 -0.2403 0.3852
C51 C 0.4722(7) 0.5179(7) 0.2869(6)
H46 H 0.5189 0.5061 0.2456
H47 H 0.5121 0.5428 0.3461
H48 H 0.4339 0.5686 0.2742
C52 C 0.3572(8) -0.3716(7) 0.0981(6)
H49 H 0.3238 -0.4389 0.0665
C53 C 0.4588(8) -0.3326(7) 0.0937(6)
H50 H 0.4965 -0.3756 0.0621
C54 C 0.1571(8) -0.2733(7) 0.4426(6)
H51 H 0.1282 -0.3012 0.4849
C55 C 0.0313(8) 0.2006(7) -0.0564(6)
H52 H 0.0567 0.1700 -0.0108
H53 H 0.0283 0.1547 -0.1134
H54 H -0.0377 0.2122 -0.0504
C56 C 0.3331(7) -0.0432(7) -0.1422(6)
H55 H 0.3206 0.0253 -0.1382
H56 H 0.3038 -0.0866 -0.2008
H57 H 0.4073 -0.0399 -0.1302
C57 C 0.3170(7) -0.1922(7) -0.0769(6)
H58 H 0.3776 -0.1804 -0.0315
H59 H 0.3342 -0.2191 -0.1337
H60 H 0.2610 -0.2413 -0.0666
C58 C 0.1644(7) -0.1097(7) -0.1009(6)
H61 H 0.1329 -0.1540 -0.0676
H62 H 0.1442 -0.1433 -0.1630
H63 H 0.1410 -0.0454 -0.0885
C59 C 0.3529(7) 0.2099(7) 0.6078(6)
H64 H 0.3951 0.2225 0.5647
H65 H 0.3976 0.2125 0.6620
H66 H 0.3118 0.2620 0.6187
C60 C 0.3260(7) 0.0209(7) 0.5924(6)
H67 H 0.2740 -0.0421 0.5674
H68 H 0.3444 0.0307 0.6553
H69 H 0.3874 0.0166 0.5662
C61 C 0.1929(7) 0.1223(7) 0.6325(6)
H70 H 0.1927 0.1947 0.6527
H71 H 0.2058 0.0942 0.6826
H72 H 0.1261 0.0862 0.5965
H73? H 0.1472 0.2892 -0.0942
loop_
_geom_bond_atom_site_label_1
_geom_bond_atom_site_label_2
_geom_bond_site_symmetry_1
_geom_bond_site_symmetry_2
C1 O1 1_555 1_555
C2 O2 1_555 1_555
C3 O4 1_555 1_555
C4 O3 1_555 1_555
O1 C29 1_555 1_555
O2 C13 1_555 1_555
O3 C35 1_555 1_555
O4 C51 1_555 1_555
C5 C6 1_555 1_555
C6 C7 1_555 1_555
C7 H1 1_555 1_555
C8 H2 1_555 1_555
C9 C12 1_555 1_555
C10 H3 1_555 1_555
H4 C10 1_555 1_555
C11 C15 1_555 1_555
C12 H5 1_555 1_555
H6 C12 1_555 1_555
H7 C12 1_555 1_555
C13 H8 1_555 1_555
H9 C13 1_555 1_555
H10 C13 1_555 1_555
C14 C31 1_555 1_555
C15 C19 1_555 1_555
C16 C1 1_555 1_555
C17 C3 1_555 1_555
C18 C4 1_555 1_555
C19 H11 1_555 1_555
C20 C9 1_555 1_555
H12 C20 1_555 1_555
H13 C20 1_555 1_555
H14 C20 1_555 1_555
C21 H15 1_555 1_555
H16 C21 1_555 1_555
C22 C18 1_555 1_555
H17 C22 1_555 1_555
C23 C24 1_555 1_555
C24 C1 1_555 1_555
C25 C34 1_555 1_555
C26 H18 1_555 1_555
C27 C9 1_555 1_555
H19 C27 1_555 1_555
H20 C27 1_555 1_555
H21 C27 1_555 1_555
C28 C26 1_555 1_555
C29 H22 1_555 1_555
H23 C29 1_555 1_555
H24 C29 1_555 1_555
C30 C2 1_555 1_555
C31 C41 1_555 1_555
C32 C3 1_555 1_555
C33 C4 1_555 1_555
C34 H25 1_555 1_555
C35 H26 1_555 1_555
H27 C35 1_555 1_555
H28 C35 1_555 1_555
C36 C6 1_555 1_555
H29 C36 1_555 1_555
C37 C23 1_555 1_555
C38 C14 1_555 1_555
H30 C38 1_555 1_555
C39 C26 1_555 1_555
H31 C39 1_555 1_555
C40 C17 1_555 1_555
H32 C40 1_555 1_555
H33 C40 1_555 1_555
C41 H34 1_555 1_555
H35 C41 1_555 1_555
H36 C41 1_555 1_555
C42 C31 1_555 1_555
H37 C42 1_555 1_555
H38 C42 1_555 1_555
H39 C42 1_555 1_555
C43 C2 1_555 1_555
C44 C14 1_555 1_555
H40 C44 1_555 1_555
C45 C8 1_555 1_555
C46 C15 1_555 1_555
H41 C46 1_555 1_555
C47 C34 1_555 1_555
H42 C47 1_555 1_555
C48 C25 1_555 1_555
H43 C48 1_555 1_555
C49 C28 1_555 1_555
H44 C49 1_555 1_555
C50 C49 1_555 1_555
H45 C50 1_555 1_555
C51 H46 1_555 1_555
H47 C51 1_555 1_555
H48 C51 1_555 1_555
C52 C48 1_555 1_555
H49 C52 1_555 1_555
C53 C47 1_555 1_555
H50 C53 1_555 1_555
C54 C39 1_555 1_555
H51 C54 1_555 1_555
C55 C31 1_555 1_555
H52 C55 1_555 1_555
H53 C55 1_555 1_555
H54 C55 1_555 1_555
C56 C5 1_555 1_555
H55 C56 1_555 1_555
H56 C56 1_555 1_555
H57 C56 1_555 1_555
C57 C5 1_555 1_555
H58 C57 1_555 1_555
H59 C57 1_555 1_555
H60 C57 1_555 1_555
C58 C5 1_555 1_555
H61 C58 1_555 1_555
H62 C58 1_555 1_555
H63 C58 1_555 1_555
C59 C11 1_555 1_555
H64 C59 1_555 1_555
H65 C59 1_555 1_555
H66 C59 1_555 1_555
C60 C11 1_555 1_555
H67 C60 1_555 1_555
H68 C60 1_555 1_555
H69 C60 1_555 1_555
C61 C11 1_555 1_555
H70 C61 1_555 1_555
H71 C61 1_555 1_555
H72 C61 1_555 1_555
C7 C43 1_555 1_555
C8 C33 1_555 1_555
C9 C45 1_555 1_555
C10 C16 1_555 1_555
C10 C18 1_555 1_555
C16 C46 1_555 1_555
C17 C44 1_555 1_555
C19 C24 1_555 1_555
C21 C32 1_555 1_555
C21 C33 1_555 1_555
C22 C45 1_555 1_555
C23 C43 1_555 1_555
C25 C37 1_555 1_555
C28 C37 1_555 1_555
C30 C36 1_555 1_555
C30 C40 1_555 1_555
C32 C38 1_555 1_555
C50 C54 1_555 1_555
C52 C53 1_555 1_555

#END
