
#######################################################################
#
#                 Cambridge Crystallographic Data Centre
#                                CCDC 
#
#######################################################################
#
# If this CIF has been generated from an entry in the Cambridge 
# Structural Database, then it will include bibliographic, chemical, 
# crystal, experimental, refinement or atomic coordinate data resulting 
# from the CCDC's data processing and validation procedures.
#
#######################################################################

data_ZAMDID
_chemical_formula_moiety         'C48 H60 Br2 O4 Si2'
_chemical_name_systematic        
((5,8-bis(4-(5-bromo-2-furyl)phenyl)-5,8-dihydronaphthalene-1,4-diyl)bis(oxy))bis(triisopropylsilane)
_symmetry_cell_setting           monoclinic
_symmetry_space_group_name_H-M   'P 21/c'
_symmetry_Int_Tables_number      14
_space_group_name_Hall           '-P 2ybc'
loop_
_symmetry_equiv_pos_site_id
_symmetry_equiv_pos_as_xyz
1 x,y,z
2 -x,1/2+y,1/2-z
3 -x,-y,-z
4 x,1/2-y,1/2+z
_cell_length_a                   14.1093(5)
_cell_length_b                   14.2735(6)
_cell_length_c                   22.7675(9)
_cell_angle_alpha                90
_cell_angle_beta                 91.2285(12)
_cell_angle_gamma                90
_cell_volume                     4584.07
_exptl_crystal_colour            colorless
_exptl_crystal_description       parallelepiped
_cell_formula_units_Z            4
loop_
_atom_site_label
_atom_site_type_symbol
_atom_site_fract_x
_atom_site_fract_y
_atom_site_fract_z
Br1 Br -0.06125(2) 0.06168(2) 0.19997(2)
Br2 Br 0.46991(2) -0.20326(2) 0.25357(2)
Si1 Si 0.23397(3) 0.36900(3) -0.13396(2)
Si2 Si 0.73548(3) 0.15148(3) -0.04720(2)
O1 O 0.31068(8) 0.37517(8) -0.07733(5)
O2 O 0.66733(8) 0.23811(8) -0.02320(5)
O3 O 0.04697(8) 0.20041(8) 0.15258(5)
O4 O 0.54503(8) -0.04557(8) 0.20546(5)
C1 C 0.39848(10) 0.33760(10) -0.06584(6)
C2 C 0.44166(10) 0.35990(10) -0.01134(6)
C3 C 0.39126(10) 0.42733(10) 0.02888(6)
H1 H 0.3749 0.4843 0.0052
C4 C 0.45382(11) 0.45871(10) 0.07989(6)
H2 H 0.4321 0.5091 0.1033
C5 C 0.53687(11) 0.42077(10) 0.09414(6)
H3 H 0.569 0.4433 0.1284
C6 C 0.58367(10) 0.34429(10) 0.05966(6)
H4 H 0.6487 0.3665 0.05
C7 C 0.53169(10) 0.32428(10) 0.00222(6)
C8 C 0.57820(10) 0.26774(10) -0.03872(6)
C9 C 0.53505(11) 0.24662(11) -0.09218(7)
H5 H 0.5669 0.2086 -0.1198
C10 C 0.44490(11) 0.28111(12) -0.10556(7)
H6 H 0.415 0.2659 -0.1421
C11 C 0.27566(11) 0.45062(12) -0.19376(7)
H7 H 0.2899 0.5116 -0.1738
C12 C 0.19973(13) 0.47247(16) -0.24086(8)
H8 H 0.2205 0.5254 -0.2648
H9 H 0.1401 0.4885 -0.2219
H10 H 0.19 0.4174 -0.266
C13 C 0.36731(13) 0.42174(14) -0.22322(8)
H11 H 0.3577 0.3619 -0.2436
H12 H 0.4179 0.4148 -0.1933
H13 H 0.3852 0.4699 -0.2516
C14 C 0.21927(12) 0.24485(12) -0.16036(8)
H14 H 0.2742 0.2315 -0.1861
C15 C 0.22233(16) 0.17115(14) -0.11128(9)
H15 H 0.1675 0.1794 -0.0861
H16 H 0.2808 0.1786 -0.0878
H17 H 0.2206 0.1083 -0.1286
C16 C 0.12930(15) 0.23228(15) -0.19877(9)
H18 H 0.126 0.1676 -0.2132
H19 H 0.1312 0.2754 -0.2322
H20 H 0.0734 0.2458 -0.1754
C17 C 0.12335(11) 0.42082(12) -0.10289(7)
H21 H 0.0767 0.4287 -0.1362
C18 C 0.07608(14) 0.35954(14) -0.05651(9)
H22 H 0.1212 0.3475 -0.0241
H23 H 0.0565 0.2999 -0.0743
H24 H 0.0204 0.392 -0.0415
C19 C 0.14245(12) 0.51850(13) -0.07687(8)
H25 H 0.0829 0.5455 -0.0634
H26 H 0.1693 0.559 -0.107
H27 H 0.1873 0.5132 -0.0436
C20 C 0.82512(12) 0.14539(12) 0.01496(7)
H28 H 0.7873 0.1364 0.0512
C21 C 0.89557(14) 0.06343(15) 0.01454(9)
H29 H 0.9369 0.0696 -0.0193
H30 H 0.8607 0.0042 0.0118
H31 H 0.9341 0.0642 0.0509
C22 C 0.87728(13) 0.23871(14) 0.02392(9)
H32 H 0.9124 0.2375 0.0615
H33 H 0.8312 0.29 0.0241
H34 H 0.9216 0.2482 -0.0081
C23 C 0.78329(12) 0.18441(12) -0.12130(7)
H35 H 0.7376 0.1595 -0.1516
C24 C 0.78888(17) 0.29107(13) -0.13067(9)
H36 H 0.8333 0.3183 -0.1017
H37 H 0.7259 0.3187 -0.1259
H38 H 0.811 0.3041 -0.1704
C25 C 0.88036(13) 0.13944(14) -0.13342(8)
H39 H 0.8977 0.1521 -0.1741
H40 H 0.8765 0.0716 -0.1273
H41 H 0.9285 0.166 -0.1066
C26 C 0.66289(12) 0.04083(12) -0.05372(8)
H42 H 0.6028 0.0575 -0.0754
C27 C 0.71178(13) -0.03473(13) -0.08968(10)
H43 H 0.7734 -0.0498 -0.0714
H44 H 0.7211 -0.0117 -0.1297
H45 H 0.6722 -0.0911 -0.0911
C28 C 0.63481(17) 0.00247(16) 0.00636(10)
H46 H 0.5919 -0.0509 0.0008
H47 H 0.6028 0.0517 0.0285
H48 H 0.6918 -0.0179 0.0282
C29 C 0.29939(10) 0.39085(10) 0.05467(6)
C30 C 0.27790(11) 0.29616(10) 0.05856(7)
H49 H 0.318 0.2515 0.0406
C31 C 0.19853(11) 0.26562(11) 0.08831(7)
H50 H 0.1854 0.2004 0.0906
C32 C 0.13801(11) 0.32924(11) 0.11476(7)
C33 C 0.15705(11) 0.42508(11) 0.10903(7)
H51 H 0.1154 0.4698 0.1254
C34 C 0.23644(11) 0.45483(11) 0.07951(7)
H52 H 0.2485 0.5201 0.076
C35 C 0.05708(11) 0.29633(11) 0.14771(7)
C36 C -0.01404(11) 0.33958(13) 0.17671(7)
H53 H -0.0235 0.4052 0.1803
C37 C -0.07191(12) 0.26727(14) 0.20081(7)
H54 H -0.1274 0.2751 0.2232
C38 C -0.03169(11) 0.18633(13) 0.18516(8)
C39 C 0.59494(10) 0.25661(10) 0.09752(6)
C40 C 0.52084(12) 0.19291(11) 0.10198(7)
H55 H 0.4638 0.2031 0.08
C41 C 0.52883(12) 0.11453(11) 0.13802(7)
H56 H 0.4775 0.0717 0.1403
C42 C 0.61191(11) 0.09833(11) 0.17088(6)
C43 C 0.68622(11) 0.16222(11) 0.16677(7)
H57 H 0.7431 0.1525 0.189
C44 C 0.67756(11) 0.24016(11) 0.13038(7)
H58 H 0.7289 0.2829 0.1279
C45 C 0.61912(11) 0.01714(11) 0.20974(7)
C46 C 0.68190(13) -0.01192(13) 0.25219(8)
H59 H 0.7392 0.0184 0.2638
C47 C 0.64498(14) -0.09706(13) 0.27615(8)
H60 H 0.6726 -0.1344 0.3065
C48 C 0.56337(13) -0.11293(11) 0.24670(7)
loop_
_geom_bond_atom_site_label_1
_geom_bond_atom_site_label_2
_geom_bond_site_symmetry_1
_geom_bond_site_symmetry_2
Br1 C38 1_555 1_555
Br2 C48 1_555 1_555
Si1 O1 1_555 1_555
Si2 O2 1_555 1_555
O1 C1 1_555 1_555
O2 C8 1_555 1_555
O3 C35 1_555 1_555
O4 C45 1_555 1_555
C1 C2 1_555 1_555
C2 C3 1_555 1_555
C3 H1 1_555 1_555
C4 C3 1_555 1_555
H2 C4 1_555 1_555
C5 C4 1_555 1_555
H3 C5 1_555 1_555
C6 C5 1_555 1_555
H4 C6 1_555 1_555
C7 C2 1_555 1_555
C8 C7 1_555 1_555
C9 C8 1_555 1_555
H5 C9 1_555 1_555
C10 C1 1_555 1_555
H6 C10 1_555 1_555
C11 Si1 1_555 1_555
H7 C11 1_555 1_555
C12 C11 1_555 1_555
H8 C12 1_555 1_555
H9 C12 1_555 1_555
H10 C12 1_555 1_555
C13 C11 1_555 1_555
H11 C13 1_555 1_555
H12 C13 1_555 1_555
H13 C13 1_555 1_555
C14 Si1 1_555 1_555
H14 C14 1_555 1_555
C15 C14 1_555 1_555
H15 C15 1_555 1_555
H16 C15 1_555 1_555
H17 C15 1_555 1_555
C16 C14 1_555 1_555
H18 C16 1_555 1_555
H19 C16 1_555 1_555
H20 C16 1_555 1_555
C17 Si1 1_555 1_555
H21 C17 1_555 1_555
C18 C17 1_555 1_555
H22 C18 1_555 1_555
H23 C18 1_555 1_555
H24 C18 1_555 1_555
C19 C17 1_555 1_555
H25 C19 1_555 1_555
H26 C19 1_555 1_555
H27 C19 1_555 1_555
C20 Si2 1_555 1_555
H28 C20 1_555 1_555
C21 C20 1_555 1_555
H29 C21 1_555 1_555
H30 C21 1_555 1_555
H31 C21 1_555 1_555
C22 C20 1_555 1_555
H32 C22 1_555 1_555
H33 C22 1_555 1_555
H34 C22 1_555 1_555
C23 Si2 1_555 1_555
H35 C23 1_555 1_555
C24 C23 1_555 1_555
H36 C24 1_555 1_555
H37 C24 1_555 1_555
H38 C24 1_555 1_555
C25 C23 1_555 1_555
H39 C25 1_555 1_555
H40 C25 1_555 1_555
H41 C25 1_555 1_555
C26 Si2 1_555 1_555
H42 C26 1_555 1_555
C27 C26 1_555 1_555
H43 C27 1_555 1_555
H44 C27 1_555 1_555
H45 C27 1_555 1_555
C28 C26 1_555 1_555
H46 C28 1_555 1_555
H47 C28 1_555 1_555
H48 C28 1_555 1_555
C29 C3 1_555 1_555
C30 C29 1_555 1_555
H49 C30 1_555 1_555
C31 C30 1_555 1_555
H50 C31 1_555 1_555
C32 C31 1_555 1_555
C33 C32 1_555 1_555
H51 C33 1_555 1_555
C34 C29 1_555 1_555
H52 C34 1_555 1_555
C35 C32 1_555 1_555
C36 C35 1_555 1_555
H53 C36 1_555 1_555
C37 C36 1_555 1_555
H54 C37 1_555 1_555
C38 O3 1_555 1_555
C39 C6 1_555 1_555
C40 C39 1_555 1_555
H55 C40 1_555 1_555
C41 C40 1_555 1_555
H56 C41 1_555 1_555
C42 C41 1_555 1_555
C43 C42 1_555 1_555
H57 C43 1_555 1_555
C44 C39 1_555 1_555
H58 C44 1_555 1_555
C45 C42 1_555 1_555
C46 C45 1_555 1_555
H59 C46 1_555 1_555
C47 C46 1_555 1_555
H60 C47 1_555 1_555
C48 O4 1_555 1_555
C6 C7 1_555 1_555
C9 C10 1_555 1_555
C33 C34 1_555 1_555
C37 C38 1_555 1_555
C43 C44 1_555 1_555
C47 C48 1_555 1_555

#END
