
#######################################################################
#
#                 Cambridge Crystallographic Data Centre
#                                CCDC 
#
#######################################################################
#
# If this CIF has been generated from an entry in the Cambridge 
# Structural Database, then it will include bibliographic, chemical, 
# crystal, experimental, refinement or atomic coordinate data resulting 
# from the CCDC's data processing and validation procedures.
#
#######################################################################

data_ZAMQUC
_chemical_formula_moiety         'C55 H11 F24 N5,1.37(C1 H4 O1)'
_chemical_name_systematic        
'6,7,8,9-tetrafluoro-16,21,26,31-tetrakis(pentafluorophenyl)-4,33,34,35,36-pentaazanonacyclo[25.5.1.1^12,15^.1^17,20^.1^22,25^.0^3,11^.0^4,32^.0^5,10^.0^30,33^]hexatriaconta-1(32),2,5,7,9,11,13,15,17(35),18,20,22,24,26,28,30-hexadecaene methanol solvate'
_symmetry_cell_setting           triclinic
_symmetry_space_group_name_H-M   'P -1'
_symmetry_Int_Tables_number      2
_space_group_name_Hall           '-P 1'
loop_
_symmetry_equiv_pos_site_id
_symmetry_equiv_pos_as_xyz
1 x,y,z
2 -x,-y,-z
_cell_length_a                   7.7862(19)
_cell_length_b                   17.425(3)
_cell_length_c                   17.978(3)
_cell_angle_alpha                77.233(9)
_cell_angle_beta                 89.25(2)
_cell_angle_gamma                88.900(15)
_cell_volume                     2378.32
_exptl_crystal_colour            violet
_exptl_crystal_description       prism
_cell_formula_units_Z            2
loop_
_atom_site_label
_atom_site_type_symbol
_atom_site_fract_x
_atom_site_fract_y
_atom_site_fract_z
C1 C 1.3973(4) 1.24413(16) 0.14864(15)
C2 C 1.3357(4) 1.23932(17) 0.07390(15)
H1 H 1.3786 1.2690 0.0268
C3 C 1.2088(4) 1.18652(16) 0.08125(15)
H2 H 1.1468 1.1732 0.0408
C4 C 1.1844(3) 1.15418(16) 0.16084(15)
C5 C 1.1040(3) 1.09107(15) 0.20853(14)
C6 C 1.1753(3) 1.08861(15) 0.28128(14)
C7 C 1.2889(3) 1.15100(15) 0.27742(14)
C8 C 1.3489(3) 1.15242(15) 0.35063(14)
H3 H 1.4239 1.1895 0.3641
C9 C 1.2739(3) 1.08713(15) 0.39966(14)
C10 C 1.2843(3) 1.03980(15) 0.47603(14)
C11 C 1.3606(3) 1.06075(15) 0.53821(14)
C12 C 1.3899(3) 1.01643(16) 0.61467(14)
H4 H 1.3659 0.9623 0.6332
C13 C 1.4570(3) 1.06436(16) 0.65563(14)
H5 H 1.4912 1.0494 0.7074
C14 C 1.4683(3) 1.14191(16) 0.60797(14)
C15 C 1.4944(4) 1.21231(17) 0.62973(15)
C16 C 1.4712(4) 1.28569(18) 0.57835(17)
C17 C 1.4253(5) 1.3615(2) 0.5966(2)
H6 H 1.4256 1.3736 0.6456
C18 C 1.3828(6) 1.4105(2) 0.5304(2)
H7 H 1.3409 1.4631 0.5238
C19 C 1.4134(5) 1.36701(18) 0.47089(19)
C20 C 1.4000(6) 1.39142(19) 0.3933(2)
F1 F 1.1815(2) 0.98205(11) 0.11651(10)
F2 F 0.9412(2) 0.92004(10) 0.04304(9)
F3 F 0.6032(2) 0.95204(11) 0.06354(11)
F4 F 0.5089(2) 1.04497(11) 0.16066(11)
F5 F 0.7496(2) 1.10834(9) 0.23347(9)
F6 F 0.97164(19) 0.92745(9) 0.30726(8)
F7 F 0.91281(19) 0.79071(9) 0.41184(9)
F8 F 1.0204(2) 0.77368(9) 0.55667(9)
F9 F 1.1999(2) 0.88256(9) 0.59921(8)
F10 F 1.2244(2) 1.21990(12) 0.73607(10)
F11 F 1.2773(2) 1.21846(12) 0.88398(10)
F12 F 1.6002(3) 1.20462(12) 0.93991(9)
F13 F 1.8724(3) 1.19599(15) 0.84641(12)
F14 F 1.8221(2) 1.20444(15) 0.69714(11)
F15 F 1.5276(3) 1.45546(11) 0.11750(11)
F16 F 1.7248(3) 1.53452(11) 0.00259(12)
F17 F 1.9326(3) 1.45419(13) -0.07711(11)
F18 F 1.9461(3) 1.29467(12) -0.04002(10)
F19 F 1.7553(2) 1.21498(10) 0.07654(9)
N1 N 1.2934(3) 1.19180(13) 0.20125(12)
N2 N 1.1685(3) 1.04941(12) 0.35697(11)
N3 N 1.4191(3) 1.13559(13) 0.53639(12)
H8 H 1.4241 1.1738 0.4952
N4 N 1.4667(3) 1.29134(14) 0.50300(14)
N5 N 1.4337(4) 1.33922(14) 0.27625(14)
H9 H 1.3312 1.3543 0.2580
C21 C 1.4921(5) 1.34800(18) 0.34532(17)
C22 C 1.6562(5) 1.3161(2) 0.35299(18)
H10 H 1.7292 1.3121 0.3957
C23 C 1.6942(5) 1.2910(3) 0.28702(18)
H11 H 1.8004 1.2680 0.2759
C24 C 1.5544(4) 1.30442(18) 0.24011(16)
C25 C 1.5238(4) 1.29018(17) 0.16448(16)
C26 C 0.9732(3) 1.04662(15) 0.17793(13)
C27 C 1.0164(3) 0.99749(16) 0.12934(14)
C28 C 0.8933(4) 0.96509(16) 0.09159(14)
C29 C 0.7231(4) 0.98142(17) 0.10161(15)
C30 C 0.6754(3) 1.02895(17) 0.15075(16)
C31 C 0.7990(3) 1.06054(15) 0.18768(14)
C32 C 1.1904(3) 0.96745(15) 0.47411(14)
C33 C 1.1233(3) 0.97557(15) 0.40017(14)
C34 C 1.0308(3) 0.91771(15) 0.37851(14)
C35 C 0.9998(3) 0.84843(15) 0.43101(15)
C36 C 1.0583(3) 0.83977(15) 0.50484(15)
C37 C 1.1511(3) 0.89751(15) 0.52612(14)
C38 C 1.5216(4) 1.21044(16) 0.71219(15)
C39 C 1.3861(4) 1.21430(17) 0.76166(16)
C40 C 1.4116(4) 1.21366(18) 0.83752(16)
C41 C 1.5751(4) 1.20652(18) 0.86610(16)
C42 C 1.7128(4) 1.2021(2) 0.81904(18)
C43 C 1.6846(4) 1.2055(2) 0.74265(17)
C44 C 1.6337(4) 1.33229(17) 0.10063(16)
C45 C 1.6317(5) 1.41404(19) 0.08015(18)
C46 C 1.7300(5) 1.45541(19) 0.02096(19)
C47 C 1.8359(5) 1.4147(2) -0.01967(18)
C48 C 1.8433(4) 1.3335(2) -0.00090(17)
C49 C 1.7422(4) 1.29369(17) 0.05899(15)
C50 C 1.2572(17) 1.4553(7) 0.3607(7)
C51 C 1.3048(17) 1.5105(5) 0.2970(6)
C52 C 1.184(2) 1.5660(5) 0.2579(6)
C53 C 1.0221(17) 1.5643(5) 0.2796(6)
C54 C 0.9711(16) 1.5091(5) 0.3437(5)
C55 C 1.0915(15) 1.4564(6) 0.3815(7)
F20 F 1.469(2) 1.5161(8) 0.2689(8)
F21 F 1.2455(14) 1.6177(3) 0.1933(4)
F22 F 0.9111(11) 1.6164(3) 0.2399(4)
F23 F 0.8087(8) 1.5070(4) 0.3648(4)
F24 F 1.0328(7) 1.4014(3) 0.4418(3)
O2 O 0.0899(6) 0.3804(3) 0.2341(3)
C63 C 0.0510(6) 0.3680(3) 0.1668(3)
H16 H -0.0417 0.4044 0.1445
H17 H 0.0134 0.3137 0.1724
H18 H 0.1524 0.3769 0.1333
C56? C 1.3390(19) 1.4649(9) 0.3506(8)
C57? C 1.422(4) 1.5124(10) 0.2832(14)
C58? C 1.3186(18) 1.5801(5) 0.2462(5)
C59? C 1.166(2) 1.6038(8) 0.2721(7)
C60? C 1.0917(17) 1.5537(7) 0.3361(6)
C61? C 1.179(2) 1.4903(7) 0.3747(7)
F25? F 1.5646(15) 1.5013(8) 0.2599(8)
F26? F 1.3905(11) 1.6254(4) 0.1831(4)
F27? F 0.9386(11) 1.5736(5) 0.3619(5)
F28? F 1.0794(11) 1.6649(4) 0.2353(5)
F29? F 1.0983(11) 1.4434(5) 0.4333(5)
O1? O 0.8333(13) 1.4964(5) 0.2217(6)
H12? H 0.7594 1.4756 0.2540
C62? C 0.781(2) 1.5780(8) 0.1878(9)
H13? H 0.7762 1.6086 0.2274
H14? H 0.6667 1.5785 0.1650
H15? H 0.8638 1.6013 0.1482
loop_
_geom_bond_atom_site_label_1
_geom_bond_atom_site_label_2
_geom_bond_site_symmetry_1
_geom_bond_site_symmetry_2
C1 C2 1_555 1_555
C2 H1 1_555 1_555
C3 C2 1_555 1_555
H2 C3 1_555 1_555
C4 C3 1_555 1_555
C5 C4 1_555 1_555
C6 C5 1_555 1_555
C7 C6 1_555 1_555
C8 C7 1_555 1_555
H3 C8 1_555 1_555
C9 C8 1_555 1_555
C10 C9 1_555 1_555
C11 C10 1_555 1_555
C12 C11 1_555 1_555
H4 C12 1_555 1_555
C13 C12 1_555 1_555
H5 C13 1_555 1_555
C14 C13 1_555 1_555
C15 C14 1_555 1_555
C16 C15 1_555 1_555
C17 C16 1_555 1_555
H6 C17 1_555 1_555
C18 C17 1_555 1_555
H7 C18 1_555 1_555
C19 C18 1_555 1_555
C20 C19 1_555 1_555
F1 C27 1_555 1_555
F2 C28 1_555 1_555
F3 C29 1_555 1_555
F4 C30 1_555 1_555
F5 C31 1_555 1_555
F6 C34 1_555 1_555
F7 C35 1_555 1_555
F8 C36 1_555 1_555
F9 C37 1_555 1_555
F10 C39 1_555 1_555
F11 C40 1_555 1_555
F12 C41 1_555 1_555
F13 C42 1_555 1_555
F14 C43 1_555 1_555
F15 C45 1_555 1_555
F16 C46 1_555 1_555
F17 C47 1_555 1_555
F18 C48 1_555 1_555
F19 C49 1_555 1_555
N1 C1 1_555 1_555
N2 C6 1_555 1_555
N3 C11 1_555 1_555
H8 N3 1_555 1_555
N4 C16 1_555 1_555
N5 H9 1_555 1_555
C21 C20 1_555 1_555
C22 C21 1_555 1_555
H10 C22 1_555 1_555
C23 C22 1_555 1_555
H11 C23 1_555 1_555
C24 N5 1_555 1_555
C25 C1 1_555 1_555
C26 C5 1_555 1_555
C27 C26 1_555 1_555
C28 C27 1_555 1_555
C29 C28 1_555 1_555
C30 C29 1_555 1_555
C31 C26 1_555 1_555
C32 C10 1_555 1_555
C33 N2 1_555 1_555
C34 C33 1_555 1_555
C35 C34 1_555 1_555
C36 C35 1_555 1_555
C37 C32 1_555 1_555
C38 C15 1_555 1_555
C39 C38 1_555 1_555
C40 C39 1_555 1_555
C41 C40 1_555 1_555
C42 C41 1_555 1_555
C43 C38 1_555 1_555
C44 C25 1_555 1_555
C45 C44 1_555 1_555
C46 C45 1_555 1_555
C47 C46 1_555 1_555
C48 C47 1_555 1_555
C49 C44 1_555 1_555
C50 C20 1_555 1_555
C51 C50 1_555 1_555
C52 C51 1_555 1_555
C53 C52 1_555 1_555
C54 C53 1_555 1_555
C55 C50 1_555 1_555
F20 C51 1_555 1_555
F21 C52 1_555 1_555
F22 C53 1_555 1_555
F23 C54 1_555 1_555
F24 C55 1_555 1_555
O2 C63 1_555 1_555
C63 H16 1_555 1_555
H17 C63 1_555 1_555
H18 C63 1_555 1_555
C4 N1 1_555 1_555
C7 N1 1_555 1_555
C9 N2 1_555 1_555
C14 N3 1_555 1_555
C19 N4 1_555 1_555
N5 C21 1_555 1_555
C23 C24 1_555 1_555
C24 C25 1_555 1_555
C30 C31 1_555 1_555
C32 C33 1_555 1_555
C36 C37 1_555 1_555
C42 C43 1_555 1_555
C48 C49 1_555 1_555
C54 C55 1_555 1_555

#END
