
#######################################################################
#
#                 Cambridge Crystallographic Data Centre
#                                CCDC 
#
#######################################################################
#
# If this CIF has been generated from an entry in the Cambridge 
# Structural Database, then it will include bibliographic, chemical, 
# crystal, experimental, refinement or atomic coordinate data resulting 
# from the CCDC's data processing and validation procedures.
#
#######################################################################

data_ZAMRIR
_chemical_formula_moiety         
'C55 H11 F24 N5 O1,0.764(C1 H1 Cl3),0.491(C8 H18)'
_chemical_name_systematic        
'6,7,8,9-tetrafluoro-16,21,26,31-tetrakis(pentafluorophenyl)-4,33,34,35,36-pentaazanonacyclo[25.5.1.1^12,15^.1^17,20^.1^22,25^.0^3,11^.0^4,32^.0^5,10^.0^30,33^]hexatriaconta-1(32),3(11),5,7,9,12,14,16,18,20,22,24,26,28,30-pentadecaen-2-one chloroform n-octane solvate'
_symmetry_cell_setting           triclinic
_symmetry_space_group_name_H-M   'P -1'
_symmetry_Int_Tables_number      2
_space_group_name_Hall           '-P 1'
loop_
_symmetry_equiv_pos_site_id
_symmetry_equiv_pos_as_xyz
1 x,y,z
2 -x,-y,-z
_cell_length_a                   11.1600(11)
_cell_length_b                   12.0142(16)
_cell_length_c                   21.980(4)
_cell_angle_alpha                93.76(2)
_cell_angle_beta                 93.01(3)
_cell_angle_gamma                117.197(12)
_cell_volume                     2604.26
_exptl_crystal_colour            orange
_exptl_crystal_description       prism
_cell_formula_units_Z            2
loop_
_atom_site_label
_atom_site_type_symbol
_atom_site_fract_x
_atom_site_fract_y
_atom_site_fract_z
Cl1 Cl 0.0981(6) 0.4988(6) 1.0479(3)
Cl2 Cl 0.3058(8) 0.3969(7) 0.9709(3)
C56 C 0.196(2) 0.478(2) 0.9837(7)
H12 H 0.2754 0.5632 0.9945
Cl3 Cl 0.1283(7) 0.5293(6) 0.9172(3)
C1 C -0.1695(4) 0.0337(4) 0.70391(18)
H1 H -0.2249 0.0139 0.7370
C2 C -0.2090(4) 0.0460(4) 0.64663(17)
H2 H -0.2966 0.0331 0.6321
C3 C -0.0928(4) 0.0825(3) 0.61148(17)
C4 C -0.0483(4) 0.1319(3) 0.55630(16)
C5 C 0.0935(4) 0.1697(3) 0.56300(16)
C6 C 0.1306(4) 0.1459(3) 0.62044(16)
C7 C 0.2749(4) 0.2064(3) 0.63361(16)
C8 C 0.3227(4) 0.2599(3) 0.57579(16)
C9 C 0.4420(4) 0.3190(3) 0.54786(16)
C10 C 0.5758(4) 0.3585(3) 0.57628(16)
C11 C 0.7032(4) 0.4253(3) 0.55580(17)
H3 H 0.7213 0.4546 0.5165
C12 C 0.7993(4) 0.4414(3) 0.60319(18)
H4 H 0.8947 0.4851 0.6022
C13 C 0.7314(4) 0.3826(3) 0.65235(17)
C14 C 0.7911(4) 0.3727(3) 0.71078(17)
C15 C 0.7321(4) 0.2924(4) 0.75369(17)
C16 C 0.8015(4) 0.2863(4) 0.81049(17)
H5 H 0.8933 0.3410 0.8247
C17 C 0.7150(4) 0.1911(4) 0.83953(17)
H6 H 0.7359 0.1667 0.8773
C18 C 0.5850(4) 0.1319(3) 0.80418(17)
C19 C 0.4679(4) 0.0348(4) 0.81718(16)
C20 C 0.3423(4) 0.0002(3) 0.77793(17)
C21 C 0.2981(4) -0.0656(4) 0.72054(17)
H7 H 0.3400 -0.1071 0.6987
C22 C 0.1794(4) -0.0597(4) 0.70047(17)
H8 H 0.1270 -0.0959 0.6623
C23 C 0.1529(4) 0.0081(3) 0.74630(16)
C24 C -0.0310(4) 0.0549(3) 0.70760(16)
C25 C 0.0391(4) 0.0320(3) 0.75332(17)
C26 C -0.1355(4) 0.1520(3) 0.51058(15)
C27 C -0.2670(4) 0.0588(3) 0.49214(16)
C28 C -0.3531(4) 0.0763(3) 0.45121(16)
C29 C -0.3109(4) 0.1912(4) 0.42750(16)
C30 C -0.1820(4) 0.2854(3) 0.44498(16)
C31 C -0.0971(4) 0.2660(3) 0.48569(16)
C32 C 0.3996(4) 0.3274(3) 0.48501(16)
C33 C 0.2564(4) 0.2694(3) 0.47852(16)
C34 C 0.1833(4) 0.2476(3) 0.42227(16)
N1 N 0.0113(3) 0.0863(3) 0.64878(14)
N2 N 0.2529(3) 0.0423(3) 0.79327(14)
H9 H 0.2582 0.0852 0.8282
F1 F -0.3132(2) -0.05289(19) 0.51469(10)
F2 F -0.4775(2) -0.0174(2) 0.43378(10)
F3 F -0.3943(2) 0.2090(2) 0.38813(10)
F4 F -0.1406(2) 0.3975(2) 0.42264(10)
F5 F 0.0269(2) 0.3607(2) 0.50189(10)
F6 F 0.0473(2) 0.1832(2) 0.41658(9)
F7 F 0.1825(2) 0.2716(2) 0.31704(10)
F8 F 0.4560(2) 0.3969(2) 0.32702(10)
F9 F 0.5999(2) 0.4318(2) 0.43312(9)
F10 F 1.2640(3) 0.4980(3) 0.68001(14)
F11 F 1.3482(3) 0.6936(3) 0.76911(16)
F12 F 1.1626(3) 0.7320(3) 0.83039(14)
F13 F 0.8975(3) 0.5783(2) 0.80204(12)
F14 F 0.6226(2) -0.0987(2) 0.82658(11)
F15 F 0.6084(3) -0.2437(3) 0.91614(14)
F16 F 0.4455(3) -0.2650(3) 1.00744(13)
F17 F 0.2956(3) -0.1397(3) 1.00718(11)
F18 F 0.3081(3) 0.0059(2) 0.91786(10)
F19 F 0.0438(3) 0.2387(2) 0.82651(13)
F20 F -0.0391(3) 0.2217(4) 0.93986(14)
F21 F -0.1305(4) -0.0010(5) 0.99052(13)
F22 F -0.1290(4) -0.2023(4) 0.92829(16)
F23 F -0.0563(3) -0.1881(3) 0.81334(14)
C35 C 0.2516(4) 0.2908(4) 0.37140(16)
C36 C 0.3918(4) 0.3529(4) 0.37686(17)
C37 C 0.4646(4) 0.3712(3) 0.43223(17)
C38 C 0.9398(4) 0.4595(3) 0.72433(17)
C39 C 1.0370(4) 0.4414(4) 0.69510(18)
C40 C 1.1741(4) 0.5189(5) 0.7092(2)
C41 C 1.2159(4) 0.6185(4) 0.7544(2)
C42 C 1.1223(5) 0.6381(4) 0.7850(2)
C43 C 0.9859(4) 0.5590(4) 0.76983(19)
C44 C 0.4662(4) -0.0401(3) 0.86837(16)
C45 C 0.5416(4) -0.1051(4) 0.87074(18)
C46 C 0.5351(4) -0.1814(4) 0.9165(2)
C47 C 0.4512(4) -0.1929(4) 0.9626(2)
C48 C 0.3752(4) -0.1296(4) 0.96209(18)
C49 C 0.3833(4) -0.0553(4) 0.91560(17)
C50 C -0.0086(4) 0.0244(4) 0.81566(17)
N3 N 0.2113(3) 0.2343(3) 0.53455(13)
N4 N 0.5953(3) 0.3327(3) 0.63531(14)
H10 H 0.5305 0.2908 0.6584
N5 N 0.6003(3) 0.1979(3) 0.75292(14)
H11 H 0.5352 0.1818 0.7240
C51 C -0.0046(4) 0.1275(5) 0.8493(2)
C52 C -0.0454(5) 0.1193(6) 0.9080(2)
C53 C -0.0899(5) 0.0083(6) 0.9337(2)
C54 C -0.0914(5) -0.0945(6) 0.9022(2)
C55 C -0.0515(4) -0.0872(5) 0.8435(2)
O1 O 0.3479(3) 0.2181(3) 0.68100(12)
F24 F 1.0008(2) 0.3454(2) 0.65161(11)
C57? C 0.440(2) 0.435(3) 0.8724(14)
H13? H 0.4768 0.4987 0.9089
Cl4? Cl 0.3506(10) 0.4836(9) 0.8209(5)
Cl5? Cl 0.3390(8) 0.2948(12) 0.8975(4)
Cl6? Cl 0.5835(10) 0.4487(11) 0.8315(6)
Cl7? Cl 0.368(2) 0.3774(14) 0.9929(6)
Cl8? Cl 0.2800(8) 0.2243(6) 0.8952(4)
C58? C 0.4398(15) 0.3245(13) 0.9352(8)
H14? H 0.5134 0.3002 0.9431
Cl9? Cl 0.4513(10) 0.4433(6) 0.8889(3)
C59? C 0.2620(12) 0.4677(10) 0.9003(5)
C60? C 0.1506(13) 0.5097(13) 0.9272(7)
C61? C 0.0347(11) 0.5470(10) 0.9595(5)
C62? C 0.5817(12) 0.5070(11) 0.8041(5)
C63? C -0.1288(12) 0.4571(12) 0.9587(6)
C64? C 0.4643(12) 0.3903(10) 0.8246(5)
C65? C 0.4083(14) 0.3082(11) 0.8850(5)
C66? C 0.3295(13) 0.3573(11) 0.9165(6)
loop_
_geom_bond_atom_site_label_1
_geom_bond_atom_site_label_2
_geom_bond_site_symmetry_1
_geom_bond_site_symmetry_2
C1 H1 1_555 1_555
C2 C1 1_555 1_555
H2 C2 1_555 1_555
C3 C2 1_555 1_555
C4 C3 1_555 1_555
C5 C4 1_555 1_555
C6 C5 1_555 1_555
C7 C6 1_555 1_555
C8 C7 1_555 1_555
C9 C8 1_555 1_555
C10 C9 1_555 1_555
C11 C10 1_555 1_555
H3 C11 1_555 1_555
C12 C11 1_555 1_555
H4 C12 1_555 1_555
C13 C12 1_555 1_555
C14 C13 1_555 1_555
C15 C14 1_555 1_555
C16 C15 1_555 1_555
H5 C16 1_555 1_555
C17 C16 1_555 1_555
H6 C17 1_555 1_555
C18 C17 1_555 1_555
C19 C18 1_555 1_555
C20 C19 1_555 1_555
C21 C20 1_555 1_555
H7 C21 1_555 1_555
C22 C21 1_555 1_555
H8 C22 1_555 1_555
C23 C22 1_555 1_555
C24 C1 1_555 1_555
C25 C23 1_555 1_555
C26 C4 1_555 1_555
C27 C26 1_555 1_555
C28 C27 1_555 1_555
C29 C28 1_555 1_555
C30 C29 1_555 1_555
C31 C26 1_555 1_555
C32 C9 1_555 1_555
C33 C32 1_555 1_555
C34 C33 1_555 1_555
N1 C3 1_555 1_555
N2 C20 1_555 1_555
H9 N2 1_555 1_555
F1 C27 1_555 1_555
F2 C28 1_555 1_555
F3 C29 1_555 1_555
F4 C30 1_555 1_555
F5 C31 1_555 1_555
F6 C34 1_555 1_555
F7 C35 1_555 1_555
F8 C36 1_555 1_555
F9 C37 1_555 1_555
F10 C40 1_555 1_555
F11 C41 1_555 1_555
F12 C42 1_555 1_555
F13 C43 1_555 1_555
F14 C45 1_555 1_555
F15 C46 1_555 1_555
F16 C47 1_555 1_555
F17 C48 1_555 1_555
F18 C49 1_555 1_555
F19 C51 1_555 1_555
F20 C52 1_555 1_555
F21 C53 1_555 1_555
F22 C54 1_555 1_555
F23 C55 1_555 1_555
C35 C34 1_555 1_555
C36 C35 1_555 1_555
C37 C32 1_555 1_555
C38 C14 1_555 1_555
C39 C38 1_555 1_555
C40 C39 1_555 1_555
C41 C40 1_555 1_555
C42 C41 1_555 1_555
C43 C38 1_555 1_555
C44 C19 1_555 1_555
C45 C44 1_555 1_555
C46 C45 1_555 1_555
C47 C46 1_555 1_555
C48 C47 1_555 1_555
C49 C44 1_555 1_555
C50 C25 1_555 1_555
N3 C5 1_555 1_555
N4 C10 1_555 1_555
H10 N4 1_555 1_555
N5 C15 1_555 1_555
H11 N5 1_555 1_555
C51 C50 1_555 1_555
C52 C51 1_555 1_555
C53 C52 1_555 1_555
C54 C53 1_555 1_555
C55 C50 1_555 1_555
O1 C7 1_555 1_555
F24 C39 1_555 1_555
Cl1 C56 1_555 1_555
Cl2 C56 1_555 1_555
C56 H12 1_555 1_555
Cl3 C56 1_555 1_555
C6 N1 1_555 1_555
C8 N3 1_555 1_555
C13 N4 1_555 1_555
C18 N5 1_555 1_555
C23 N2 1_555 1_555
C24 C25 1_555 1_555
C24 N1 1_555 1_555
C30 C31 1_555 1_555
C33 N3 1_555 1_555
C36 C37 1_555 1_555
C42 C43 1_555 1_555
C48 C49 1_555 1_555
C54 C55 1_555 1_555

#END
