
#######################################################################
#
#                 Cambridge Crystallographic Data Centre
#                                CCDC 
#
#######################################################################
#
# If this CIF has been generated from an entry in the Cambridge 
# Structural Database, then it will include bibliographic, chemical, 
# crystal, experimental, refinement or atomic coordinate data resulting 
# from the CCDC's data processing and validation procedures.
#
#######################################################################

data_ZAMRAJ
_chemical_formula_moiety         
'C56 H11 F25 N5 Si1 1-,C18 H36 K1 N2 O6 1+,C3 H6 O1'
_chemical_name_systematic        
'potassium cryptate(222) (6,7,8,9-tetrafluoro-16,21,26,31-tetrakis(pentafluorophenyl)-4,33,34,35,36-pentaazanonacyclo[25.5.1.1^12,15^.1^17,20^.1^22,25^.0^3,11^.0^4,32^.0^5,10^.0^30,33^]hexatriaconta-1(32),2,5,7,9,11,13,15,17(35),18,20,22,24,26,28,30-33,35-diylhexadecaene )-methyl-fluoro-silicon acetone solvate solvate'
_symmetry_cell_setting           monoclinic
_symmetry_space_group_name_H-M   'P 21/c'
_symmetry_Int_Tables_number      14
_space_group_name_Hall           '-P 2ybc'
loop_
_symmetry_equiv_pos_site_id
_symmetry_equiv_pos_as_xyz
1 x,y,z
2 -x,1/2+y,1/2-z
3 -x,-y,-z
4 x,1/2-y,1/2+z
_cell_length_a                   17.811(9)
_cell_length_b                   21.579(9)
_cell_length_c                   19.933(10)
_cell_angle_alpha                90
_cell_angle_beta                 109.482(15)
_cell_angle_gamma                90
_cell_volume                     7222.49
_exptl_crystal_colour            violet
_exptl_crystal_description       prism
_cell_formula_units_Z            4
loop_
_atom_site_label
_atom_site_type_symbol
_atom_site_fract_x
_atom_site_fract_y
_atom_site_fract_z
C1 C 0.6381(5) 0.4041(3) 0.6407(5)
C2 C 0.5994(6) 0.4615(4) 0.6166(5)
H1 H 0.6241 0.5010 0.6222
C3 C 0.5201(6) 0.4497(4) 0.5840(5)
H2 H 0.4808 0.4798 0.5617
C4 C 0.5058(5) 0.3856(4) 0.5889(4)
C5 C 0.4474(5) 0.3443(4) 0.5926(4)
C6 C 0.4876(5) 0.2928(4) 0.6324(4)
C7 C 0.5712(5) 0.3027(3) 0.6515(4)
C8 C 0.6171(5) 0.2580(3) 0.6991(4)
C9 C 0.5576(5) 0.2198(3) 0.7071(4)
C10 C 0.5537(5) 0.1736(3) 0.7545(4)
C11 C 0.6240(5) 0.1540(3) 0.8097(4)
C12 C 0.6305(6) 0.1206(3) 0.8721(5)
H3 H 0.5880 0.1032 0.8848
C13 C 0.7093(6) 0.1181(4) 0.9106(5)
H4 H 0.7319 0.1001 0.9564
C14 C 0.7517(5) 0.1467(3) 0.8709(4)
C15 C 0.8334(6) 0.1444(3) 0.8845(5)
C16 C 0.8677(5) 0.1546(3) 0.8335(5)
C17 C 0.9399(5) 0.1266(4) 0.8294(5)
H5 H 0.9796 0.1065 0.8674
C18 C 0.9413(5) 0.1338(4) 0.7635(6)
H6 H 0.9799 0.1175 0.7450
C19 C 0.8728(5) 0.1714(3) 0.7251(5)
C20 C 0.8530(5) 0.1953(4) 0.6560(5)
C21 C 0.7996(5) 0.2436(4) 0.6329(5)
C22 C 0.7728(5) 0.2727(4) 0.5645(5)
H7 H 0.7836 0.2603 0.5229
C23 C 0.7284(5) 0.3221(4) 0.5720(5)
H8 H 0.6987 0.3487 0.5347
C24 C 0.7337(5) 0.3271(3) 0.6437(4)
C25 C 0.7155(5) 0.3838(4) 0.6733(5)
C26 C 0.3606(6) 0.3588(4) 0.5659(6)
C27 C 0.3250(7) 0.3863(4) 0.5001(6)
C28 C 0.2463(9) 0.3984(6) 0.4734(8)
C29 C 0.1966(8) 0.3856(7) 0.5115(10)
C30 C 0.2316(8) 0.3621(6) 0.5775(9)
N1 N 0.5800(4) 0.3593(3) 0.6207(4)
N2 N 0.4795(4) 0.2362(3) 0.6642(3)
N3 N 0.6969(4) 0.1704(3) 0.8075(3)
N4 N 0.8309(4) 0.1838(3) 0.7691(4)
N5 N 0.7725(4) 0.2759(3) 0.6796(4)
F1 F 0.3699(4) 0.3989(2) 0.4583(4)
F2 F 0.2155(4) 0.4228(3) 0.4060(4)
F3 F 0.1193(5) 0.3935(5) 0.4857(5)
F4 F 0.1855(5) 0.3482(4) 0.6183(5)
F5 F 0.3409(3) 0.3265(2) 0.6711(3)
F6 F 0.3067(3) 0.2260(2) 0.5887(3)
F7 F 0.2249(4) 0.1521(3) 0.6493(4)
F8 F 0.3029(4) 0.0828(3) 0.7659(4)
F9 F 0.4609(3) 0.0810(2) 0.8191(3)
F10 F 1.0194(4) 0.2000(4) 0.6738(4)
F11 F 1.0770(6) 0.1527(5) 0.5762(6)
F12 F 0.9792(8) 0.0992(5) 0.4564(5)
F13 F 0.8214(7) 0.0912(3) 0.4340(4)
F14 F 0.7634(4) 0.1347(2) 0.5319(3)
F15 F 0.6995(2) 0.17191(17) 0.6798(2)
C31 C 0.3102(7) 0.3498(5) 0.6039(7)
C32 C 0.4267(5) 0.2001(3) 0.6818(5)
C33 C 0.3449(6) 0.1939(4) 0.6500(6)
C34 C 0.3038(6) 0.1555(5) 0.6766(7)
C35 C 0.3435(7) 0.1188(4) 0.7365(7)
C36 C 0.4258(6) 0.1210(4) 0.7636(5)
C37 C 0.4694(5) 0.1601(4) 0.7391(5)
C38 C 0.8895(6) 0.1696(4) 0.6059(5)
C39 C 0.9656(9) 0.1719(5) 0.6140(7)
C40 C 0.9973(9) 0.1472(7) 0.5629(10)
C41 C 0.9448(11) 0.1212(6) 0.5028(8)
C42 C 0.8680(10) 0.1190(6) 0.4952(8)
C43 C 0.8376(8) 0.1386(5) 0.5417(6)
C44 C 0.7656(5) 0.2857(3) 0.8178(5)
H9 H 0.7634 0.2674 0.8621
H10 H 0.7316 0.3226 0.8062
H11 H 0.8206 0.2973 0.8237
Si1 Si 0.72891(13) 0.22698(9) 0.74305(12)
F16 F 0.9348(12) 0.2255(7) 0.9745(11)
F17 F 1.0365(12) 0.1980(7) 1.1031(11)
F18 F 1.0400(11) 0.0817(11) 1.1558(10)
F19 F 0.9344(14) -0.0038(8) 1.0776(10)
F20 F 0.8351(13) 0.0221(6) 0.9463(10)
C45 C 0.8815(10) 0.1247(5) 0.9551(6)
C46 C 0.9340(11) 0.1696(5) 0.9941(9)
C47 C 0.9857(10) 0.1559(7) 1.0619(9)
C48 C 0.9849(9) 0.0973(8) 1.0907(6)
C49 C 0.9324(11) 0.0525(7) 1.0517(8)
C50 C 0.8807(11) 0.0662(6) 0.9839(7)
C51 C 0.7789(9) 0.4209(8) 0.7322(10)
C52 C 0.8581(10) 0.4207(7) 0.7353(13)
C53 C 0.9142(8) 0.4555(7) 0.7868(16)
C54 C 0.8913(9) 0.4906(7) 0.8351(14)
C55 C 0.8121(10) 0.4909(8) 0.8320(11)
C56 C 0.7560(8) 0.4561(8) 0.7806(10)
F21 F 0.8823(14) 0.3883(9) 0.6911(17)
F22 F 0.9887(10) 0.4545(10) 0.789(2)
F23 F 0.9456(12) 0.5230(10) 0.8836(18)
F24 F 0.7890(19) 0.5236(12) 0.8777(14)
F25 F 0.6814(15) 0.4567(12) 0.7783(14)
O1 O 0.2383(4) 0.1734(3) 0.3283(4)
O2 O 0.3830(4) 0.2418(2) 0.3639(3)
O3 O 0.4723(3) 0.1081(2) 0.5285(3)
O4 O 0.3413(4) 0.0277(3) 0.4754(3)
O5 O 0.3615(4) 0.0326(3) 0.2627(3)
O6 O 0.5116(4) 0.0883(3) 0.3267(3)
N6 N 0.2350(5) 0.0360(4) 0.3258(4)
N7 N 0.5364(5) 0.1834(3) 0.4385(4)
C69 C 0.5963(6) 0.1556(5) 0.4144(6)
H12 H 0.6169 0.1180 0.4430
H13 H 0.6412 0.1850 0.4229
C70 C 0.5664(7) 0.1382(5) 0.3366(6)
H14 H 0.5399 0.1742 0.3075
H15 H 0.6117 0.1256 0.3212
C71 C 0.4860(6) 0.0689(5) 0.2556(5)
H16 H 0.5323 0.0555 0.2423
H17 H 0.4596 0.1036 0.2242
C72 C 0.4298(7) 0.0169(5) 0.2468(5)
H18 H 0.4138 0.0020 0.1970
H19 H 0.4573 -0.0176 0.2781
C73 C 0.3099(8) -0.0169(5) 0.2572(5)
H20 H 0.3335 -0.0461 0.2970
H21 H 0.3024 -0.0393 0.2121
C74 C 0.2314(7) 0.0048(5) 0.2590(5)
H22 H 0.2082 0.0338 0.2189
H23 H 0.1952 -0.0313 0.2518
C75 C 0.1686(6) 0.0779(5) 0.3152(7)
H24 H 0.1638 0.0878 0.3621
H25 H 0.1191 0.0566 0.2866
C76 C 0.1759(7) 0.1380(5) 0.2784(8)
H26 H 0.1893 0.1294 0.2349
H27 H 0.1250 0.1612 0.2646
C77 C 0.2443(7) 0.2328(5) 0.3018(7)
H28 H 0.1927 0.2546 0.2901
H29 H 0.2584 0.2295 0.2579
C78 C 0.3073(7) 0.2678(5) 0.3572(6)
H30 H 0.3059 0.3120 0.3434
H31 H 0.2977 0.2653 0.4033
C79 C 0.4467(7) 0.2737(4) 0.4152(5)
H32 H 0.4428 0.2684 0.4632
H33 H 0.4437 0.3186 0.4040
C80 C 0.5232(7) 0.2483(4) 0.4136(5)
H34 H 0.5243 0.2505 0.3643
H35 H 0.5673 0.2742 0.4440
C81 C 0.5639(6) 0.1826(4) 0.5178(5)
H36 H 0.5345 0.2147 0.5344
H37 H 0.6211 0.1937 0.5361
C82 C 0.5528(5) 0.1216(4) 0.5486(5)
H38 H 0.5807 0.0888 0.5313
H39 H 0.5759 0.1232 0.6011
C83 C 0.4563(6) 0.0580(4) 0.5686(5)
H40 H 0.4778 0.0679 0.6199
H41 H 0.4830 0.0200 0.5602
C84 C 0.3707(6) 0.0472(4) 0.5477(5)
H42 H 0.3598 0.0150 0.5786
H43 H 0.3435 0.0858 0.5535
C85 C 0.2608(7) 0.0119(5) 0.4550(6)
H44 H 0.2291 0.0486 0.4588
H45 H 0.2529 -0.0208 0.4868
C86 C 0.2328(7) -0.0116(5) 0.3778(5)
H46 H 0.2670 -0.0467 0.3742
H47 H 0.1776 -0.0273 0.3656
K1 K 0.38420(10) 0.11102(7) 0.38169(9)
O7 O 0.1215(11) 0.2876(10) 0.3720(9)
C87 C 0.0904(13) 0.2406(13) 0.3918(11)
C88 C 0.0153(11) 0.2200(10) 0.3424(12)
H48 H -0.0278 0.2315 0.3603
H49 H 0.0163 0.1748 0.3372
H50 H 0.0064 0.2396 0.2960
C89 C 0.136(2) 0.2160(15) 0.4596(12)
H51 H 0.1922 0.2156 0.4644
H52 H 0.1180 0.1736 0.4639
H53 H 0.1279 0.2419 0.4972
F26? F 0.9155(13) 0.2215(10) 0.9987(13)
F27? F 1.0150(13) 0.1832(12) 1.1244(11)
F28? F 1.0457(12) 0.0630(12) 1.1471(10)
F29? F 0.9808(14) -0.0176(6) 1.0479(10)
F30? F 0.8793(15) 0.0185(5) 0.9211(9)
C57? C 0.8951(8) 0.1213(6) 0.9568(6)
C58? C 0.9303(8) 0.1643(6) 1.0099(7)
C59? C 0.9822(8) 0.1445(7) 1.0753(7)
C60? C 0.9988(8) 0.0818(8) 1.0876(5)
C61? C 0.9636(10) 0.0388(6) 1.0345(7)
C62? C 0.9117(10) 0.0585(5) 0.9691(6)
C63? C 0.7767(10) 0.4242(9) 0.7186(12)
C64? C 0.8506(11) 0.4276(10) 0.7094(17)
C65? C 0.9100(10) 0.4652(11) 0.754(2)
C66? C 0.8955(9) 0.4992(9) 0.8074(18)
C67? C 0.8216(11) 0.4958(8) 0.8166(12)
C68? C 0.7622(10) 0.4583(8) 0.7722(10)
F31? F 0.8681(18) 0.3956(15) 0.659(2)
F32? F 0.9807(15) 0.4691(16) 0.745(3)
F33? F 0.9521(15) 0.5349(14) 0.850(2)
F34? F 0.8072(18) 0.5277(12) 0.8688(12)
F35? F 0.6920(14) 0.4572(9) 0.7833(11)
loop_
_geom_bond_atom_site_label_1
_geom_bond_atom_site_label_2
_geom_bond_site_symmetry_1
_geom_bond_site_symmetry_2
C1 C2 1_555 1_555
C2 H1 1_555 1_555
C3 C2 1_555 1_555
H2 C3 1_555 1_555
C4 C3 1_555 1_555
C5 C4 1_555 1_555
C6 C5 1_555 1_555
C7 C6 1_555 1_555
C8 C7 1_555 1_555
C9 C8 1_555 1_555
C10 C9 1_555 1_555
C11 C10 1_555 1_555
C12 C11 1_555 1_555
H3 C12 1_555 1_555
C13 C12 1_555 1_555
H4 C13 1_555 1_555
C14 C13 1_555 1_555
C15 C14 1_555 1_555
C16 C15 1_555 1_555
C17 C16 1_555 1_555
H5 C17 1_555 1_555
C18 C17 1_555 1_555
H6 C18 1_555 1_555
C19 C18 1_555 1_555
C20 C19 1_555 1_555
C21 C20 1_555 1_555
C22 C21 1_555 1_555
H7 C22 1_555 1_555
C23 C22 1_555 1_555
H8 C23 1_555 1_555
C24 C23 1_555 1_555
C25 C1 1_555 1_555
C26 C5 1_555 1_555
C27 C26 1_555 1_555
C28 C27 1_555 1_555
C29 C28 1_555 1_555
C30 C29 1_555 1_555
N1 C1 1_555 1_555
N2 C6 1_555 1_555
N3 C11 1_555 1_555
N4 C16 1_555 1_555
N5 C21 1_555 1_555
F1 C27 1_555 1_555
F2 C28 1_555 1_555
F3 C29 1_555 1_555
F4 C30 1_555 1_555
F5 C31 1_555 1_555
F6 C33 1_555 1_555
F7 C34 1_555 1_555
F8 C35 1_555 1_555
F9 C36 1_555 1_555
F10 C39 1_555 1_555
F11 C40 1_555 1_555
F12 C41 1_555 1_555
F13 C42 1_555 1_555
F14 C43 1_555 1_555
F15 Si1 1_555 1_555
C31 C26 1_555 1_555
C32 N2 1_555 1_555
C33 C32 1_555 1_555
C34 C33 1_555 1_555
C35 C34 1_555 1_555
C36 C35 1_555 1_555
C37 C10 1_555 1_555
C38 C20 1_555 1_555
C39 C38 1_555 1_555
C40 C39 1_555 1_555
C41 C40 1_555 1_555
C42 C41 1_555 1_555
C43 C38 1_555 1_555
C44 H9 1_555 1_555
H10 C44 1_555 1_555
H11 C44 1_555 1_555
Si1 C8 1_555 1_555
F16 C46 1_555 1_555
F17 C47 1_555 1_555
F18 C48 1_555 1_555
F19 C49 1_555 1_555
F20 C50 1_555 1_555
C45 C15 1_555 1_555
C46 C45 1_555 1_555
C47 C46 1_555 1_555
C48 C47 1_555 1_555
C49 C48 1_555 1_555
C50 C45 1_555 1_555
C51 C25 1_555 1_555
C52 C51 1_555 1_555
C53 C52 1_555 1_555
C54 C53 1_555 1_555
C55 C54 1_555 1_555
C56 C51 1_555 1_555
F21 C52 1_555 1_555
F22 C53 1_555 1_555
F23 C54 1_555 1_555
F24 C55 1_555 1_555
F25 C56 1_555 1_555
O1 C76 1_555 1_555
O2 C78 1_555 1_555
O3 C82 1_555 1_555
O4 C84 1_555 1_555
O5 C72 1_555 1_555
O6 C70 1_555 1_555
N6 C74 1_555 1_555
N7 C69 1_555 1_555
C69 H12 1_555 1_555
H13 C69 1_555 1_555
C70 C69 1_555 1_555
H14 C70 1_555 1_555
H15 C70 1_555 1_555
C71 O6 1_555 1_555
H16 C71 1_555 1_555
H17 C71 1_555 1_555
C72 C71 1_555 1_555
H18 C72 1_555 1_555
H19 C72 1_555 1_555
C73 O5 1_555 1_555
H20 C73 1_555 1_555
H21 C73 1_555 1_555
C74 C73 1_555 1_555
H22 C74 1_555 1_555
H23 C74 1_555 1_555
C75 N6 1_555 1_555
H24 C75 1_555 1_555
H25 C75 1_555 1_555
C76 C75 1_555 1_555
H26 C76 1_555 1_555
H27 C76 1_555 1_555
C77 O1 1_555 1_555
H28 C77 1_555 1_555
H29 C77 1_555 1_555
C78 C77 1_555 1_555
H30 C78 1_555 1_555
H31 C78 1_555 1_555
C79 O2 1_555 1_555
H32 C79 1_555 1_555
H33 C79 1_555 1_555
C80 N7 1_555 1_555
H34 C80 1_555 1_555
H35 C80 1_555 1_555
C81 N7 1_555 1_555
H36 C81 1_555 1_555
H37 C81 1_555 1_555
C82 C81 1_555 1_555
H38 C82 1_555 1_555
H39 C82 1_555 1_555
C83 O3 1_555 1_555
H40 C83 1_555 1_555
H41 C83 1_555 1_555
C84 C83 1_555 1_555
H42 C84 1_555 1_555
H43 C84 1_555 1_555
C85 O4 1_555 1_555
H44 C85 1_555 1_555
H45 C85 1_555 1_555
C86 N6 1_555 1_555
H46 C86 1_555 1_555
H47 C86 1_555 1_555
K1 O1 1_555 1_555
O7 C87 1_555 1_555
C87 C88 1_555 1_555
C88 H48 1_555 1_555
H49 C88 1_555 1_555
H50 C88 1_555 1_555
C89 C87 1_555 1_555
H51 C89 1_555 1_555
H52 C89 1_555 1_555
H53 C89 1_555 1_555
C4 N1 1_555 1_555
C7 N1 1_555 1_555
C9 N2 1_555 1_555
C14 N3 1_555 1_555
C19 N4 1_555 1_555
C24 C25 1_555 1_555
C24 N5 1_555 1_555
C30 C31 1_555 1_555
N3 Si1 1_555 1_555
N4 Si1 1_555 1_555
N5 Si1 1_555 1_555
C32 C37 1_555 1_555
C36 C37 1_555 1_555
C42 C43 1_555 1_555
C44 Si1 1_555 1_555
C49 C50 1_555 1_555
C55 C56 1_555 1_555
O2 K1 1_555 1_555
O3 K1 1_555 1_555
O4 K1 1_555 1_555
O5 K1 1_555 1_555
O6 K1 1_555 1_555
N6 K1 1_555 1_555
N7 K1 1_555 1_555
C79 C80 1_555 1_555
C85 C86 1_555 1_555

#END
