
#######################################################################
#
#                 Cambridge Crystallographic Data Centre
#                                CCDC 
#
#######################################################################
#
# If this CIF has been generated from an entry in the Cambridge 
# Structural Database, then it will include bibliographic, chemical, 
# crystal, experimental, refinement or atomic coordinate data resulting 
# from the CCDC's data processing and validation procedures.
#
#######################################################################

data_ZAMRUD
_chemical_formula_moiety         'C40 H40 B1 N1'
_chemical_name_systematic        
2'-(dimesitylboryl)-N,N-dimethyl-1,1'-binaphthalen-2-amine
_symmetry_cell_setting           monoclinic
_symmetry_space_group_name_H-M   'P 21/c'
_symmetry_Int_Tables_number      14
_space_group_name_Hall           '-P 2ybc'
loop_
_symmetry_equiv_pos_site_id
_symmetry_equiv_pos_as_xyz
1 x,y,z
2 -x,1/2+y,1/2-z
3 -x,-y,-z
4 x,1/2-y,1/2+z
_cell_length_a                   12.9053(17)
_cell_length_b                   13.940(2)
_cell_length_c                   17.476(4)
_cell_angle_alpha                90
_cell_angle_beta                 92.051(13)
_cell_angle_gamma                90
_cell_volume                     3141.92
_exptl_crystal_description       needle
_cell_formula_units_Z            4
loop_
_atom_site_label
_atom_site_type_symbol
_atom_site_fract_x
_atom_site_fract_y
_atom_site_fract_z
B1 B 0.7441(3) 0.8399(3) 0.4129(2)
C1 C 1.1632(3) 0.6902(4) 0.2372(3)
H1 H 1.2209 0.6826 0.2074
C2 C 1.1207(3) 0.6110(3) 0.2729(3)
H2 H 1.1515 0.5511 0.2682
C3 C 1.0339(3) 0.6205(3) 0.3149(2)
H3 H 1.0058 0.5666 0.3378
C4 C 1.1206(3) 0.7792(3) 0.2458(2)
H4 H 1.1502 0.8319 0.2224
C5 C 1.0322(3) 0.7917(3) 0.2897(2)
C6 C 0.9856(3) 0.7122(3) 0.32440(19)
C7 C 0.8932(3) 0.7229(2) 0.36641(19)
C8 C 0.9897(3) 0.8837(3) 0.3022(2)
H5 H 1.0204 0.9376 0.2814
C9 C 0.9043(3) 0.8935(3) 0.3444(2)
H6 H 0.8794 0.9550 0.3529
C10 C 0.8505(3) 0.8146(2) 0.37658(19)
C11 C 0.7812(3) 0.5879(3) 0.2664(2)
H7 H 0.8191 0.6377 0.2457
C12 C 0.7222(3) 0.5302(3) 0.2185(3)
H8 H 0.7205 0.5414 0.1660
C13 C 0.6648(3) 0.4548(3) 0.2480(3)
H9 H 0.6243 0.4166 0.2152
C14 C 0.6678(3) 0.4372(3) 0.3234(3)
H10 H 0.6301 0.3860 0.3422
C15 C 0.7277(3) 0.4954(3) 0.3752(3)
C16 C 0.7857(3) 0.5734(3) 0.3465(2)
C17 C 0.8434(3) 0.6347(2) 0.3988(2)
C18 C 0.7329(3) 0.4781(3) 0.4540(3)
H11 H 0.6946 0.4281 0.4740
C19 C 0.7931(3) 0.5332(3) 0.5020(3)
H12 H 0.7975 0.5181 0.5539
C20 C 0.8490(3) 0.6125(3) 0.4756(2)
C21 C 1.0192(3) 0.6772(3) 0.5156(2)
H13 H 1.0487 0.7257 0.5488
H14 H 1.0290 0.6948 0.4632
H15 H 1.0528 0.6170 0.5262
C22 C 0.8906(3) 0.6563(3) 0.6102(2)
H16 H 0.9204 0.5968 0.6278
H17 H 0.8173 0.6556 0.6179
H18 H 0.9218 0.7085 0.6385
C23 C 0.4084(3) 0.5586(3) 0.3520(3)
H19 H 0.4215 0.5044 0.3848
H20 H 0.4097 0.5386 0.2994
H21 H 0.3415 0.5851 0.3620
C24 C 0.4913(3) 0.6343(3) 0.3673(3)
C25 C 0.5246(3) 0.6551(3) 0.4417(2)
H22 H 0.4959 0.6225 0.4822
C26 C 0.5330(3) 0.6840(3) 0.3084(2)
H23 H 0.5082 0.6729 0.2586
C27 C 0.6122(3) 0.7513(3) 0.3216(2)
C28 C 0.6015(3) 0.7252(3) 0.4567(2)
C29 C 0.6309(3) 0.7460(3) 0.5390(2)
H24 H 0.5970 0.8036 0.5547
H25 H 0.7047 0.7541 0.5444
H26 H 0.6099 0.6935 0.5704
C30 C 0.6535(3) 0.8034(3) 0.2530(2)
H27 H 0.6819 0.7577 0.2185
H28 H 0.7066 0.8476 0.2698
H29 H 0.5980 0.8378 0.2273
C31 C 0.6492(3) 0.7709(2) 0.3963(2)
C32 C 0.9021(3) 0.9064(3) 0.5373(2)
H30 H 0.9623 0.9190 0.5083
H31 H 0.8821 0.8405 0.5310
H32 H 0.9176 0.9190 0.5905
C33 C 0.8136(3) 0.9710(3) 0.5092(2)
C34 C 0.7352(3) 0.9387(3) 0.4558(2)
C35 C 0.6521(3) 1.0035(3) 0.4406(2)
C36 C 0.5603(3) 0.9789(3) 0.3869(3)
H33 H 0.5119 1.0311 0.3857
H34 H 0.5269 0.9221 0.4049
H35 H 0.5844 0.9678 0.3363
C37 C 0.6529(3) 1.0944(3) 0.4726(2)
H36 H 0.5992 1.1364 0.4593
C38 C 0.8091(3) 1.0615(3) 0.5414(2)
H37 H 0.8612 1.0799 0.5765
C39 C 0.7308(3) 1.1251(3) 0.5237(2)
C40 C 0.7285(3) 1.2235(3) 0.5593(3)
H38 H 0.7185 1.2709 0.5199
H39 H 0.7930 1.2354 0.5868
H40 H 0.6726 1.2270 0.5940
N1 N 0.9093(2) 0.6684(2) 0.52857(18)
loop_
_geom_bond_atom_site_label_1
_geom_bond_atom_site_label_2
_geom_bond_site_symmetry_1
_geom_bond_site_symmetry_2
B1 C10 1_555 1_555
C1 H1 1_555 1_555
C2 C1 1_555 1_555
H2 C2 1_555 1_555
C3 C2 1_555 1_555
H3 C3 1_555 1_555
C4 C1 1_555 1_555
H4 C4 1_555 1_555
C5 C4 1_555 1_555
C6 C3 1_555 1_555
C7 C6 1_555 1_555
C8 C5 1_555 1_555
H5 C8 1_555 1_555
C9 C8 1_555 1_555
H6 C9 1_555 1_555
C10 C7 1_555 1_555
C11 H7 1_555 1_555
C12 C11 1_555 1_555
H8 C12 1_555 1_555
C13 C12 1_555 1_555
H9 C13 1_555 1_555
C14 C13 1_555 1_555
H10 C14 1_555 1_555
C15 C14 1_555 1_555
C16 C11 1_555 1_555
C17 C7 1_555 1_555
C18 C15 1_555 1_555
H11 C18 1_555 1_555
C19 C18 1_555 1_555
H12 C19 1_555 1_555
C20 C17 1_555 1_555
C21 H13 1_555 1_555
H14 C21 1_555 1_555
H15 C21 1_555 1_555
C22 H16 1_555 1_555
H17 C22 1_555 1_555
H18 C22 1_555 1_555
C23 H19 1_555 1_555
H20 C23 1_555 1_555
H21 C23 1_555 1_555
C24 C23 1_555 1_555
C25 C24 1_555 1_555
H22 C25 1_555 1_555
C26 C24 1_555 1_555
H23 C26 1_555 1_555
C27 C26 1_555 1_555
C28 C25 1_555 1_555
C29 C28 1_555 1_555
H24 C29 1_555 1_555
H25 C29 1_555 1_555
H26 C29 1_555 1_555
C30 C27 1_555 1_555
H27 C30 1_555 1_555
H28 C30 1_555 1_555
H29 C30 1_555 1_555
C31 B1 1_555 1_555
C32 H30 1_555 1_555
H31 C32 1_555 1_555
H32 C32 1_555 1_555
C33 C32 1_555 1_555
C34 B1 1_555 1_555
C35 C34 1_555 1_555
C36 C35 1_555 1_555
H33 C36 1_555 1_555
H34 C36 1_555 1_555
H35 C36 1_555 1_555
C37 C35 1_555 1_555
H36 C37 1_555 1_555
C38 C33 1_555 1_555
H37 C38 1_555 1_555
C39 C37 1_555 1_555
C40 C39 1_555 1_555
H38 C40 1_555 1_555
H39 C40 1_555 1_555
H40 C40 1_555 1_555
N1 C20 1_555 1_555
C5 C6 1_555 1_555
C9 C10 1_555 1_555
C15 C16 1_555 1_555
C16 C17 1_555 1_555
C19 C20 1_555 1_555
C21 N1 1_555 1_555
C22 N1 1_555 1_555
C27 C31 1_555 1_555
C28 C31 1_555 1_555
C33 C34 1_555 1_555
C38 C39 1_555 1_555

#END
