
#######################################################################
#
#                 Cambridge Crystallographic Data Centre
#                                CCDC 
#
#######################################################################
#
# If this CIF has been generated from an entry in the Cambridge 
# Structural Database, then it will include bibliographic, chemical, 
# crystal, experimental, refinement or atomic coordinate data resulting 
# from the CCDC's data processing and validation procedures.
#
#######################################################################

data_ZAMYIY
_chemical_formula_moiety         'C28 H31 N1 O2 Si1'
_chemical_name_systematic        
3-((t-butyl(dimethyl)silyl)oxy)-2-(diphenylmethylene)-N-hydroxyindan-1-imine
_symmetry_cell_setting           monoclinic
_symmetry_space_group_name_H-M   'P 21/c'
_symmetry_Int_Tables_number      14
_space_group_name_Hall           '-P 2ybc'
loop_
_symmetry_equiv_pos_site_id
_symmetry_equiv_pos_as_xyz
1 x,y,z
2 -x,1/2+y,1/2-z
3 -x,-y,-z
4 x,1/2-y,1/2+z
_cell_length_a                   16.9960(17)
_cell_length_b                   10.1968(10)
_cell_length_c                   14.9707(15)
_cell_angle_alpha                90
_cell_angle_beta                 102.988(2)
_cell_angle_gamma                90
_cell_volume                     2528.12
_exptl_crystal_colour            colorless
_exptl_crystal_description       block
_cell_formula_units_Z            4
loop_
_atom_site_label
_atom_site_type_symbol
_atom_site_fract_x
_atom_site_fract_y
_atom_site_fract_z
Si1 Si 0.78090(4) 0.93989(6) 0.21582(4)
O1 O 0.50746(9) 0.84066(16) 0.00751(14)
H1 H 0.4686 0.8877 0.0088
O2 O 0.81704(8) 0.87695(13) 0.13217(9)
N1 N 0.57159(10) 0.91789(17) -0.00600(13)
C1 C 0.63635(12) 0.85128(19) 0.00020(14)
C2 C 0.65486(13) 0.71341(19) 0.02653(14)
C3 C 0.60503(15) 0.6067(2) 0.03134(17)
H2 H 0.5491 0.6151 0.0154
C4 C 0.6405(2) 0.4887(2) 0.06017(18)
H3 H 0.6080 0.4160 0.0628
C5 C 0.7229(2) 0.4754(2) 0.08525(17)
H4 H 0.7453 0.3943 0.1048
C6 C 0.77254(16) 0.5808(2) 0.08177(15)
H5 H 0.8283 0.5722 0.0999
C7 C 0.73788(13) 0.69970(19) 0.05074(14)
C8 C 0.78025(12) 0.82721(19) 0.04367(13)
H6 H 0.8215 0.8142 0.0081
C9 C 0.71298(11) 0.91227(18) -0.01026(13)
C10 C 0.72274(11) 1.01065(18) -0.06570(13)
C11 C 0.80405(12) 1.05299(18) -0.07566(14)
C12 C 0.86482(14) 1.0898(2) -0.00341(17)
H7 H 0.8562 1.0882 0.0558
C13 C 0.93904(15) 1.1293(3) -0.0177(2)
H8 H 0.9798 1.1549 0.0318
C14 C 0.95234(15) 1.1308(3) -0.1040(2)
H9 H 1.0023 1.1569 -0.1134
C15 C 0.89335(15) 1.0945(3) -0.1757(2)
H10 H 0.9029 1.0944 -0.2345
C16 C 0.81914(13) 1.0577(2) -0.16252(16)
H11 H 0.7783 1.0355 -0.2129
C17 C 0.65532(11) 1.08362(19) -0.12506(14)
C18 C 0.64779(14) 1.2163(2) -0.11154(18)
H12 H 0.6831 1.2577 -0.0633
C19 C 0.58903(19) 1.2875(3) -0.1681(3)
H13 H 0.5840 1.3766 -0.1574
C20 C 0.53770(18) 1.2291(3) -0.2403(3)
H14 H 0.4980 1.2782 -0.2789
C21 C 0.54475(16) 1.0987(3) -0.2554(2)
H15 H 0.5099 1.0586 -0.3047
C22 C 0.60356(14) 1.0250(2) -0.19800(18)
H16 H 0.6081 0.9358 -0.2088
C23 C 0.73197(19) 1.1000(3) 0.1819(2)
H17 H 0.7682 1.1552 0.1581
H18 H 0.7189 1.1411 0.2344
H19 H 0.6834 1.0866 0.1357
C24 C 0.7080(2) 0.8287(3) 0.2529(2)
H20 H 0.6584 0.8273 0.2071
H21 H 0.6977 0.8595 0.3098
H22 H 0.7302 0.7418 0.2611
C25 C 0.87337(19) 0.9614(3) 0.30844(17)
C26 C 0.8507(2) 1.0306(4) 0.3915(2)
H23 H 0.8278 1.1150 0.3729
H24 H 0.8983 1.0413 0.4395
H25 H 0.8120 0.9782 0.4134
C27 C 0.9125(3) 0.8290(4) 0.3361(3)
H26 H 0.8773 0.7767 0.3636
H27 H 0.9629 0.8417 0.3794
H28 H 0.9220 0.7850 0.2828
C28 C 0.93435(18) 1.0486(3) 0.2761(2)
H29 H 0.9499 1.0082 0.2247
H30 H 0.9812 1.0599 0.3251
H31 H 0.9104 1.1325 0.2581
loop_
_geom_bond_atom_site_label_1
_geom_bond_atom_site_label_2
_geom_bond_site_symmetry_1
_geom_bond_site_symmetry_2
Si1 O2 1_555 1_555
O1 H1 1_555 1_555
O2 C8 1_555 1_555
N1 O1 1_555 1_555
C1 N1 1_555 1_555
C2 C1 1_555 1_555
C3 C2 1_555 1_555
H2 C3 1_555 1_555
C4 C3 1_555 1_555
H3 C4 1_555 1_555
C5 C4 1_555 1_555
H4 C5 1_555 1_555
C6 C5 1_555 1_555
H5 C6 1_555 1_555
C7 C2 1_555 1_555
C8 C7 1_555 1_555
H6 C8 1_555 1_555
C9 C1 1_555 1_555
C10 C9 1_555 1_555
C11 C10 1_555 1_555
C12 C11 1_555 1_555
H7 C12 1_555 1_555
C13 C12 1_555 1_555
H8 C13 1_555 1_555
C14 C13 1_555 1_555
H9 C14 1_555 1_555
C15 C14 1_555 1_555
H10 C15 1_555 1_555
C16 C11 1_555 1_555
H11 C16 1_555 1_555
C17 C10 1_555 1_555
C18 C17 1_555 1_555
H12 C18 1_555 1_555
C19 C18 1_555 1_555
H13 C19 1_555 1_555
C20 C19 1_555 1_555
H14 C20 1_555 1_555
C21 C20 1_555 1_555
H15 C21 1_555 1_555
C22 C17 1_555 1_555
H16 C22 1_555 1_555
C23 Si1 1_555 1_555
H17 C23 1_555 1_555
H18 C23 1_555 1_555
H19 C23 1_555 1_555
C24 Si1 1_555 1_555
H20 C24 1_555 1_555
H21 C24 1_555 1_555
H22 C24 1_555 1_555
C25 Si1 1_555 1_555
C26 C25 1_555 1_555
H23 C26 1_555 1_555
H24 C26 1_555 1_555
H25 C26 1_555 1_555
C27 C25 1_555 1_555
H26 C27 1_555 1_555
H27 C27 1_555 1_555
H28 C27 1_555 1_555
C28 C25 1_555 1_555
H29 C28 1_555 1_555
H30 C28 1_555 1_555
H31 C28 1_555 1_555
C6 C7 1_555 1_555
C8 C9 1_555 1_555
C15 C16 1_555 1_555
C21 C22 1_555 1_555

#END
