
#######################################################################
#
#                 Cambridge Crystallographic Data Centre
#                                CCDC 
#
#######################################################################
#
# If this CIF has been generated from an entry in the Cambridge 
# Structural Database, then it will include bibliographic, chemical, 
# crystal, experimental, refinement or atomic coordinate data resulting 
# from the CCDC's data processing and validation procedures.
#
#######################################################################

data_ZAMYAQ
_chemical_formula_moiety         'C22 H21 N1'
_chemical_name_systematic        2,3-diethyl-4-phenyl-9H-indeno[2,1-b]pyridine
_symmetry_cell_setting           monoclinic
_symmetry_space_group_name_H-M   'P 21/n'
_symmetry_Int_Tables_number      14
_space_group_name_Hall           '-P 2yn'
loop_
_symmetry_equiv_pos_site_id
_symmetry_equiv_pos_as_xyz
1 x,y,z
2 1/2-x,1/2+y,1/2-z
3 -x,-y,-z
4 1/2+x,1/2-y,1/2+z
_cell_length_a                   9.1480(9)
_cell_length_b                   15.3468(16)
_cell_length_c                   12.5118(12)
_cell_angle_alpha                90
_cell_angle_beta                 104.234(2)
_cell_angle_gamma                90
_cell_volume                     1702.64
_exptl_crystal_colour            colorless
_exptl_crystal_description       prismatic
_cell_formula_units_Z            4
loop_
_atom_site_label
_atom_site_type_symbol
_atom_site_fract_x
_atom_site_fract_y
_atom_site_fract_z
N1 N 0.14971(15) -0.12526(9) 0.00407(11)
C1 C 0.26418(17) 0.05260(10) 0.19542(13)
C2 C 0.31012(19) 0.13531(11) 0.23607(14)
H1 H 0.3283 0.1787 0.1891
C3 C 0.3282(2) 0.15193(12) 0.34668(15)
H2 H 0.3589 0.2070 0.3742
C4 C 0.3018(3) 0.08850(13) 0.41698(16)
H3 H 0.3140 0.1011 0.4914
C5 C 0.2569(3) 0.00594(13) 0.37773(16)
H4 H 0.2400 -0.0372 0.4255
C6 C 0.23765(19) -0.01178(11) 0.26750(14)
C7 C 0.1904(2) -0.09556(11) 0.20620(14)
H5 H 0.2623 -0.1418 0.2330
H6 H 0.0913 -0.1138 0.2125
C8 C 0.18843(17) -0.07121(10) 0.08990(13)
C9 C 0.23354(16) 0.01493(10) 0.08389(13)
C10 C 0.24162(17) 0.04803(10) -0.01840(13)
C11 C 0.19953(17) -0.00708(11) -0.10986(14)
C12 C 0.15388(18) -0.09300(11) -0.09458(14)
C13 C 0.29532(18) 0.13904(10) -0.02697(13)
C14 C 0.1967(2) 0.20854(11) -0.04121(15)
H7 H 0.0943 0.1985 -0.0493
C15 C 0.2485(2) 0.29264(11) -0.04348(16)
H8 H 0.1810 0.3390 -0.0536
C16 C 0.3996(2) 0.30820(13) -0.03089(17)
H9 H 0.4348 0.3650 -0.0314
C17 C 0.4985(2) 0.23950(13) -0.01759(18)
H10 H 0.6007 0.2499 -0.0100
C18 C 0.4474(2) 0.15550(12) -0.01540(16)
H11 H 0.5153 0.1094 -0.0061
C19 C 0.2048(2) 0.02529(12) -0.22332(15)
H12 H 0.1224 -0.0007 -0.2779
H13 H 0.1903 0.0879 -0.2264
C20 C 0.3519(3) 0.00398(16) -0.25222(18)
H14 H 0.4329 0.0344 -0.2030
H15 H 0.3464 0.0217 -0.3267
H16 H 0.3698 -0.0576 -0.2453
C21 C 0.1078(2) -0.15469(12) -0.19130(15)
H17 H 0.0206 -0.1302 -0.2429
H18 H 0.1891 -0.1571 -0.2285
C22 C 0.0702(3) -0.24581(13) -0.16550(19)
H19 H 0.1572 -0.2724 -0.1179
H20 H 0.0405 -0.2787 -0.2326
H21 H -0.0110 -0.2449 -0.1294
loop_
_geom_bond_atom_site_label_1
_geom_bond_atom_site_label_2
_geom_bond_site_symmetry_1
_geom_bond_site_symmetry_2
N1 C8 1_555 1_555
C1 C2 1_555 1_555
C2 H1 1_555 1_555
C3 C2 1_555 1_555
H2 C3 1_555 1_555
C4 C3 1_555 1_555
H3 C4 1_555 1_555
C5 C4 1_555 1_555
H4 C5 1_555 1_555
C6 C1 1_555 1_555
C7 C6 1_555 1_555
H5 C7 1_555 1_555
H6 C7 1_555 1_555
C8 C7 1_555 1_555
C9 C1 1_555 1_555
C10 C9 1_555 1_555
C11 C10 1_555 1_555
C12 N1 1_555 1_555
C13 C10 1_555 1_555
C14 C13 1_555 1_555
H7 C14 1_555 1_555
C15 C14 1_555 1_555
H8 C15 1_555 1_555
C16 C15 1_555 1_555
H9 C16 1_555 1_555
C17 C16 1_555 1_555
H10 C17 1_555 1_555
C18 C13 1_555 1_555
H11 C18 1_555 1_555
C19 C11 1_555 1_555
H12 C19 1_555 1_555
H13 C19 1_555 1_555
C20 C19 1_555 1_555
H14 C20 1_555 1_555
H15 C20 1_555 1_555
H16 C20 1_555 1_555
C21 C12 1_555 1_555
H17 C21 1_555 1_555
H18 C21 1_555 1_555
C22 C21 1_555 1_555
H19 C22 1_555 1_555
H20 C22 1_555 1_555
H21 C22 1_555 1_555
C5 C6 1_555 1_555
C8 C9 1_555 1_555
C11 C12 1_555 1_555
C17 C18 1_555 1_555

#END
