
#######################################################################
#
#                 Cambridge Crystallographic Data Centre
#                                CCDC 
#
#######################################################################
#
# If this CIF has been generated from an entry in the Cambridge 
# Structural Database, then it will include bibliographic, chemical, 
# crystal, experimental, refinement or atomic coordinate data resulting 
# from the CCDC's data processing and validation procedures.
#
#######################################################################

data_ZAMYUK
_chemical_formula_moiety         'C29 H33 N1 O3 Si1'
_chemical_name_systematic        
(E)-3-((t-butyl(dimethyl)silyl)oxy)-N-hydroxy-2-((4-methoxyphenyl)(phenyl)methylene)indan-1-imine
_symmetry_cell_setting           triclinic
_symmetry_space_group_name_H-M   'P -1'
_symmetry_Int_Tables_number      2
_space_group_name_Hall           '-P 1'
loop_
_symmetry_equiv_pos_site_id
_symmetry_equiv_pos_as_xyz
1 x,y,z
2 -x,-y,-z
_cell_length_a                   12.581(3)
_cell_length_b                   13.028(3)
_cell_length_c                   17.470(4)
_cell_angle_alpha                89.935(5)
_cell_angle_beta                 88.641(5)
_cell_angle_gamma                73.971(6)
_cell_volume                     2751.28
_exptl_crystal_colour            colorless
_exptl_crystal_description       prismatic
_cell_formula_units_Z            4
loop_
_atom_site_label
_atom_site_type_symbol
_atom_site_fract_x
_atom_site_fract_y
_atom_site_fract_z
Si1 Si -0.03863(11) 0.43966(9) 0.18826(7)
N1 N 0.0301(3) 0.4049(2) 0.44244(17)
O1 O -0.0579(2) 0.4011(2) 0.49371(16)
H1 H -0.0746 0.4551 0.5205
O2 O 0.0512(2) 0.32098(19) 0.20027(14)
O3 O 0.3739(3) 0.4975(3) 0.60883(18)
C1 C -0.0118(3) 0.2471(3) 0.3758(2)
C2 C -0.0883(4) 0.2107(3) 0.4200(2)
H2 H -0.1113 0.2393 0.4683
C3 C -0.1292(4) 0.1305(4) 0.3898(3)
H3 H -0.1787 0.1042 0.4189
C4 C -0.0969(4) 0.0891(4) 0.3165(3)
H4 H -0.1262 0.0365 0.2971
C5 C -0.0218(3) 0.1255(3) 0.2723(2)
H5 H -0.0002 0.0975 0.2236
C6 C 0.0202(3) 0.2042(3) 0.3019(2)
C7 C 0.1016(3) 0.2560(3) 0.26303(19)
H6 H 0.1659 0.2000 0.2438
C8 C 0.1375(3) 0.3161(3) 0.3294(2)
C9 C 0.0490(3) 0.3298(3) 0.39112(19)
C10 C 0.2381(3) 0.3351(3) 0.3351(2)
C11 C 0.3291(3) 0.3012(3) 0.2744(2)
C12 C 0.3094(4) 0.3060(4) 0.1953(2)
H7 H 0.2378 0.3341 0.1781
C13 C 0.3975(4) 0.2684(4) 0.1418(3)
H8 H 0.3837 0.2730 0.0897
C14 C 0.5040(4) 0.2251(4) 0.1662(3)
H9 H 0.5614 0.1983 0.1309
C15 C 0.5246(4) 0.2218(4) 0.2447(3)
H10 H 0.5964 0.1944 0.2616
C16 C 0.4382(4) 0.2594(4) 0.2975(3)
H11 H 0.4532 0.2567 0.3494
C17 C 0.2713(3) 0.3811(3) 0.4069(2)
C18 C 0.2958(3) 0.4790(3) 0.4065(2)
H12 H 0.2899 0.5173 0.3611
C19 C 0.3292(4) 0.5218(3) 0.4729(3)
H13 H 0.3438 0.5880 0.4714
C20 C 0.3401(3) 0.4645(3) 0.5400(2)
C21 C 0.3180(4) 0.3649(3) 0.5418(2)
H14 H 0.3264 0.3257 0.5869
C22 C 0.2833(4) 0.3249(3) 0.4760(2)
H15 H 0.2678 0.2591 0.4780
C23 C 0.3860(5) 0.6029(4) 0.6135(3)
H16 H 0.4474 0.6079 0.5815
H17 H 0.3992 0.6186 0.6655
H18 H 0.3197 0.6532 0.5967
C24 C -0.1082(5) 0.5066(4) 0.2781(3)
H19 H -0.1491 0.4626 0.3023
H20 H -0.1579 0.5746 0.2658
H21 H -0.0534 0.5168 0.3124
C25 C 0.0414(6) 0.5247(5) 0.1433(4)
H22 H 0.1030 0.5250 0.1745
H23 H -0.0054 0.5963 0.1386
H24 H 0.0679 0.4970 0.0934
C26 C -0.1446(5) 0.4165(4) 0.1210(3)
C27 C -0.2260(6) 0.3662(6) 0.1647(6)
H25 H -0.2878 0.3678 0.1330
H26 H -0.2518 0.4060 0.2109
H27 H -0.1890 0.2935 0.1772
C28 C -0.2121(6) 0.5276(5) 0.0865(4)
H28 H -0.2726 0.5176 0.0578
H29 H -0.1642 0.5547 0.0534
H30 H -0.2402 0.5775 0.1274
C29 C -0.0895(6) 0.3416(5) 0.0532(4)
H31 H -0.0505 0.2729 0.0727
H32 H -0.0385 0.3720 0.0259
H33 H -0.1455 0.3336 0.0191
Si2 Si 0.37320(11) 0.87477(11) 0.29542(7)
N2 N 0.5213(3) 0.9078(3) 0.05717(17)
O4 O 0.4435(2) 0.8988(2) 0.00183(16)
H34 H 0.4407 0.9437 -0.0316
O5 O 0.5085(2) 0.8127(2) 0.29273(14)
O6 O 0.8865(3) 1.0146(3) -0.09383(17)
C30 C 0.4955(3) 0.7347(3) 0.1124(2)
C31 C 0.4369(4) 0.6890(4) 0.0614(3)
H35 H 0.4152 0.7203 0.0143
C32 C 0.4118(5) 0.5936(4) 0.0839(3)
H36 H 0.3743 0.5612 0.0505
C33 C 0.4415(5) 0.5477(4) 0.1543(3)
H37 H 0.4237 0.4852 0.1677
C34 C 0.4983(4) 0.5949(3) 0.2055(3)
H38 H 0.5183 0.5641 0.2529
C35 C 0.5243(3) 0.6883(3) 0.1845(2)
C36 C 0.5813(3) 0.7536(3) 0.2319(2)
H39 H 0.6473 0.7059 0.2545
C37 C 0.6171(3) 0.8238(3) 0.1709(2)
C38 C 0.5411(3) 0.8283(3) 0.1048(2)
C39 C 0.7104(3) 0.8581(3) 0.1718(2)
C40 C 0.7777(3) 0.8451(3) 0.2425(2)
C41 C 0.7289(5) 0.8779(4) 0.3157(2)
H40 H 0.6533 0.9109 0.3203
C42 C 0.7925(7) 0.8611(6) 0.3796(3)
H41 H 0.7593 0.8827 0.4272
C43 C 0.9044(8) 0.8131(6) 0.3747(4)
H42 H 0.9458 0.8013 0.4189
C44 C 0.9552(5) 0.7826(5) 0.3047(5)
H43 H 1.0310 0.7505 0.3016
C45 C 0.8925(4) 0.7999(3) 0.2372(3)
H44 H 0.9273 0.7814 0.1897
C46 C 0.7556(3) 0.9003(3) 0.1025(2)
C47 C 0.7824(3) 0.9989(3) 0.1055(2)
H45 H 0.7714 1.0374 0.1512
C48 C 0.8251(3) 1.0397(3) 0.0413(2)
H46 H 0.8409 1.1052 0.0443
C49 C 0.8439(3) 0.9821(4) -0.0272(2)
C50 C 0.8209(3) 0.8839(4) -0.0310(2)
H47 H 0.8346 0.8446 -0.0763
C51 C 0.7774(3) 0.8440(3) 0.0330(2)
H48 H 0.7624 0.7782 0.0294
C52 C 0.8981(4) 1.1209(5) -0.0958(3)
H49 H 0.8277 1.1711 -0.0846
H50 H 0.9239 1.1349 -0.1459
H51 H 0.9504 1.1280 -0.0585
C53 C 0.3367(5) 0.9825(5) 0.2229(3)
H52 H 0.3892 1.0237 0.2239
H53 H 0.2640 1.0281 0.2343
H54 H 0.3381 0.9514 0.1729
C54 C 0.2828(5) 0.7804(6) 0.2805(5)
H55 H 0.2990 0.7473 0.2309
H56 H 0.2062 0.8202 0.2838
H57 H 0.2977 0.7264 0.3193
C55 C 0.3463(4) 0.9296(4) 0.3963(3)
C56 C 0.2225(5) 0.9880(6) 0.4093(3)
H58 H 0.1786 0.9417 0.3950
H59 H 0.2033 1.0513 0.3787
H60 H 0.2087 1.0072 0.4624
C57 C 0.3805(5) 0.8414(5) 0.4552(3)
H61 H 0.3709 0.8722 0.5056
H62 H 0.4568 0.8032 0.4465
H63 H 0.3354 0.7932 0.4506
C58 C 0.4177(7) 1.0109(7) 0.4063(5)
H64 H 0.4286 1.0200 0.4598
H65 H 0.3798 1.0784 0.3847
H66 H 0.4882 0.9836 0.3806
loop_
_geom_bond_atom_site_label_1
_geom_bond_atom_site_label_2
_geom_bond_site_symmetry_1
_geom_bond_site_symmetry_2
Si1 O2 1_555 1_555
N1 O1 1_555 1_555
O1 H1 1_555 1_555
O2 C7 1_555 1_555
O3 C20 1_555 1_555
C1 C2 1_555 1_555
C2 H2 1_555 1_555
C3 C2 1_555 1_555
H3 C3 1_555 1_555
C4 C3 1_555 1_555
H4 C4 1_555 1_555
C5 C4 1_555 1_555
H5 C5 1_555 1_555
C6 C1 1_555 1_555
C7 C6 1_555 1_555
H6 C7 1_555 1_555
C8 C7 1_555 1_555
C9 N1 1_555 1_555
C10 C8 1_555 1_555
C11 C10 1_555 1_555
C12 C11 1_555 1_555
H7 C12 1_555 1_555
C13 C12 1_555 1_555
H8 C13 1_555 1_555
C14 C13 1_555 1_555
H9 C14 1_555 1_555
C15 C14 1_555 1_555
H10 C15 1_555 1_555
C16 C11 1_555 1_555
H11 C16 1_555 1_555
C17 C10 1_555 1_555
C18 C17 1_555 1_555
H12 C18 1_555 1_555
C19 C18 1_555 1_555
H13 C19 1_555 1_555
C20 C19 1_555 1_555
C21 C20 1_555 1_555
H14 C21 1_555 1_555
C22 C17 1_555 1_555
H15 C22 1_555 1_555
C23 O3 1_555 1_555
H16 C23 1_555 1_555
H17 C23 1_555 1_555
H18 C23 1_555 1_555
C24 Si1 1_555 1_555
H19 C24 1_555 1_555
H20 C24 1_555 1_555
H21 C24 1_555 1_555
C25 Si1 1_555 1_555
H22 C25 1_555 1_555
H23 C25 1_555 1_555
H24 C25 1_555 1_555
C26 Si1 1_555 1_555
C27 C26 1_555 1_555
H25 C27 1_555 1_555
H26 C27 1_555 1_555
H27 C27 1_555 1_555
C28 C26 1_555 1_555
H28 C28 1_555 1_555
H29 C28 1_555 1_555
H30 C28 1_555 1_555
C29 C26 1_555 1_555
H31 C29 1_555 1_555
H32 C29 1_555 1_555
H33 C29 1_555 1_555
Si2 O5 1_555 1_555
N2 O4 1_555 1_555
O4 H34 1_555 1_555
O5 C36 1_555 1_555
O6 C49 1_555 1_555
C30 C31 1_555 1_555
C31 H35 1_555 1_555
C32 C31 1_555 1_555
H36 C32 1_555 1_555
C33 C32 1_555 1_555
H37 C33 1_555 1_555
C34 C33 1_555 1_555
H38 C34 1_555 1_555
C35 C30 1_555 1_555
C36 C35 1_555 1_555
H39 C36 1_555 1_555
C37 C36 1_555 1_555
C38 N2 1_555 1_555
C39 C37 1_555 1_555
C40 C39 1_555 1_555
C41 C40 1_555 1_555
H40 C41 1_555 1_555
C42 C41 1_555 1_555
H41 C42 1_555 1_555
C43 C42 1_555 1_555
H42 C43 1_555 1_555
C44 C43 1_555 1_555
H43 C44 1_555 1_555
C45 C40 1_555 1_555
H44 C45 1_555 1_555
C46 C39 1_555 1_555
C47 C46 1_555 1_555
H45 C47 1_555 1_555
C48 C47 1_555 1_555
H46 C48 1_555 1_555
C49 C48 1_555 1_555
C50 C49 1_555 1_555
H47 C50 1_555 1_555
C51 C46 1_555 1_555
H48 C51 1_555 1_555
C52 O6 1_555 1_555
H49 C52 1_555 1_555
H50 C52 1_555 1_555
H51 C52 1_555 1_555
C53 Si2 1_555 1_555
H52 C53 1_555 1_555
H53 C53 1_555 1_555
H54 C53 1_555 1_555
C54 Si2 1_555 1_555
H55 C54 1_555 1_555
H56 C54 1_555 1_555
H57 C54 1_555 1_555
C55 Si2 1_555 1_555
C56 C55 1_555 1_555
H58 C56 1_555 1_555
H59 C56 1_555 1_555
H60 C56 1_555 1_555
C57 C55 1_555 1_555
H61 C57 1_555 1_555
H62 C57 1_555 1_555
H63 C57 1_555 1_555
C58 C55 1_555 1_555
H64 C58 1_555 1_555
H65 C58 1_555 1_555
H66 C58 1_555 1_555
C1 C9 1_555 1_555
C5 C6 1_555 1_555
C8 C9 1_555 1_555
C15 C16 1_555 1_555
C21 C22 1_555 1_555
C30 C38 1_555 1_555
C34 C35 1_555 1_555
C37 C38 1_555 1_555
C44 C45 1_555 1_555
C50 C51 1_555 1_555

#END
