
#######################################################################
#
#                 Cambridge Crystallographic Data Centre
#                                CCDC 
#
#######################################################################
#
# If this CIF has been generated from an entry in the Cambridge 
# Structural Database, then it will include bibliographic, chemical, 
# crystal, experimental, refinement or atomic coordinate data resulting 
# from the CCDC's data processing and validation procedures.
#
#######################################################################

data_ZANCAV
_chemical_formula_moiety         'C20 H25 N2 O4'
_chemical_name_systematic        
'methyl N-(2-(2-oxo-2,3-dihydro-1H-pyrrol-1-yl)-3-phenylpropanoyl)leucinate'
_symmetry_cell_setting           orthorhombic
_symmetry_space_group_name_H-M   'P 21 21 21'
_symmetry_Int_Tables_number      19
_space_group_name_Hall           'P 2ac 2ab'
loop_
_symmetry_equiv_pos_site_id
_symmetry_equiv_pos_as_xyz
1 x,y,z
2 1/2-x,-y,1/2+z
3 1/2+x,1/2-y,-z
4 -x,1/2+y,1/2-z
_cell_length_a                   8.529(2)
_cell_length_b                   12.675(3)
_cell_length_c                   18.347(5)
_cell_angle_alpha                90
_cell_angle_beta                 90
_cell_angle_gamma                90
_cell_volume                     1983.4
_exptl_crystal_colour            colorless
_exptl_crystal_description       prism
_cell_formula_units_Z            4
loop_
_atom_site_label
_atom_site_type_symbol
_atom_site_fract_x
_atom_site_fract_y
_atom_site_fract_z
C1 C 0.4076(6) 0.4902(4) 0.0570(3)
H1 H 0.4272 0.5617 0.0635
C2 C 0.3760(7) 0.4288(5) 0.1177(3)
H2 H 0.3743 0.4595 0.1637
C3 C 0.3481(8) 0.3263(6) 0.1102(4)
H3 H 0.3281 0.2846 0.1509
C4 C 0.3490(11) 0.2835(5) 0.0431(4)
H4 H 0.3269 0.2121 0.0375
C5 C 0.3825(8) 0.3444(4) -0.0178(3)
H5 H 0.3855 0.3131 -0.0636
C6 C 0.4111(5) 0.4501(3) -0.0111(2)
C7 C 0.4418(5) 0.5167(3) -0.0778(2)
H6 H 0.4233 0.4745 -0.121
H7 H 0.5511 0.5379 -0.078
N1 N 0.1734(4) 0.5907(2) -0.07537(16)
C8 C 0.0922(5) 0.5056(3) -0.1123(2)
H8 H 0.1329 0.4544 -0.1433
C9 C -0.0695(5) 0.5204(4) -0.0886(2)
H9 H -0.1532 0.4779 -0.1025
C10 C -0.0807(5) 0.6023(4) -0.0449(2)
H10 H -0.1723 0.6262 -0.0229
C11 C 0.0732(5) 0.6491(3) -0.0366(2)
C12 C 0.3710(5) 0.6776(3) -0.1510(2)
C13 C 0.5272(5) 0.8236(3) -0.2018(2)
H11 H 0.4524 0.8144 -0.2418
C14 C 0.6889(6) 0.8075(3) -0.2325(3)
C15 C 0.9517(6) 0.7628(5) -0.2071(3)
H12 H 0.9586 0.7143 -0.2472
H13 H 1.0149 0.7377 -0.1675
H14 H 0.9885 0.8309 -0.2223
C16 C 0.5141(6) 0.9370(3) -0.1758(2)
H15 H 0.5631 0.9821 -0.2119
H16 H 0.5738 0.9439 -0.1311
C17 C 0.3491(6) 0.9782(4) -0.1618(3)
H17 H 0.2943 0.9272 -0.1308
C18 C 0.2582(7) 0.9878(5) -0.2340(3)
H18 H 0.154 1.0128 -0.2243
H19 H 0.2528 0.92 -0.2571
H20 H 0.311 1.0367 -0.2656
C19 C 0.3551(8) 1.0835(4) -0.1216(3)
H21 H 0.4065 1.0742 -0.0755
H22 H 0.2504 1.1088 -0.1137
H23 H 0.4122 1.1339 -0.1503
O1 O 0.1094(3) 0.7289(2) -0.00121(16)
O2 O 0.2977(4) 0.6631(3) -0.20676(15)
O3 O 0.7871(4) 0.7712(3) -0.18319(17)
O4 O 0.7241(4) 0.8293(3) -0.29313(18)
C20 C 0.3387(4) 0.6156(3) -0.0812(2)
H24 H 0.3666 0.6606 -0.0398
N2 N 0.4835(4) 0.7499(2) -0.14418(17)
H25 H 0.5332 0.7533 -0.1035
loop_
_geom_bond_atom_site_label_1
_geom_bond_atom_site_label_2
_geom_bond_site_symmetry_1
_geom_bond_site_symmetry_2
C1 H1 1_555 1_555
C2 C1 1_555 1_555
H2 C2 1_555 1_555
C3 C2 1_555 1_555
H3 C3 1_555 1_555
C4 C3 1_555 1_555
H4 C4 1_555 1_555
C5 C4 1_555 1_555
H5 C5 1_555 1_555
C6 C1 1_555 1_555
C7 C6 1_555 1_555
H6 C7 1_555 1_555
H7 C7 1_555 1_555
N1 C8 1_555 1_555
C8 H8 1_555 1_555
C9 C8 1_555 1_555
H9 C9 1_555 1_555
C10 C9 1_555 1_555
H10 C10 1_555 1_555
C11 N1 1_555 1_555
C12 O2 1_555 1_555
C13 H11 1_555 1_555
C14 C13 1_555 1_555
C15 H12 1_555 1_555
H13 C15 1_555 1_555
H14 C15 1_555 1_555
C16 C13 1_555 1_555
H15 C16 1_555 1_555
H16 C16 1_555 1_555
C17 C16 1_555 1_555
H17 C17 1_555 1_555
C18 C17 1_555 1_555
H18 C18 1_555 1_555
H19 C18 1_555 1_555
H20 C18 1_555 1_555
C19 C17 1_555 1_555
H21 C19 1_555 1_555
H22 C19 1_555 1_555
H23 C19 1_555 1_555
O1 C11 1_555 1_555
O3 C14 1_555 1_555
O4 C14 1_555 1_555
C20 C7 1_555 1_555
H24 C20 1_555 1_555
N2 C12 1_555 1_555
H25 N2 1_555 1_555
C5 C6 1_555 1_555
N1 C20 1_555 1_555
C10 C11 1_555 1_555
C12 C20 1_555 1_555
C13 N2 1_555 1_555
C15 O3 1_555 1_555

#END
