
#######################################################################
#
#                 Cambridge Crystallographic Data Centre
#                                CCDC 
#
#######################################################################
#
# If this CIF has been generated from an entry in the Cambridge 
# Structural Database, then it will include bibliographic, chemical, 
# crystal, experimental, refinement or atomic coordinate data resulting 
# from the CCDC's data processing and validation procedures.
#
#######################################################################

data_ZANKIL
_chemical_formula_moiety         'C20 H24 N6 O1'
_chemical_name_systematic        
N-benzyl-N^2^-methyl-N^2^-(6-(3-(prop-2-yn-1-yl)imidazolidin-1-yl)pyrimidin-4-yl)glycinamide
_symmetry_cell_setting           orthorhombic
_symmetry_space_group_name_H-M   'P 21 21 21'
_symmetry_Int_Tables_number      19
_space_group_name_Hall           'P 2ac 2ab'
loop_
_symmetry_equiv_pos_site_id
_symmetry_equiv_pos_as_xyz
1 x,y,z
2 1/2-x,-y,1/2+z
3 -x,1/2+y,1/2-z
4 1/2+x,1/2-y,-z
_cell_length_a                   9.4370(19)
_cell_length_b                   11.928(2)
_cell_length_c                   34.465(7)
_cell_angle_alpha                90
_cell_angle_beta                 90
_cell_angle_gamma                90
_cell_volume                     3879.54
_exptl_crystal_colour            colorless
_exptl_crystal_description       rod
_cell_formula_units_Z            8
loop_
_atom_site_label
_atom_site_type_symbol
_atom_site_fract_x
_atom_site_fract_y
_atom_site_fract_z
N1 N 1.0241(3) 0.3971(3) 0.03923(10)
H1 H 1.1144(7) 0.398(3) 0.0426(11)
N2 N 0.9199(3) 0.5530(2) 0.12552(8)
N3 N 0.8582(3) 0.3770(2) 0.14761(8)
N4 N 0.6875(3) 0.3506(2) 0.19876(8)
N5 N 0.5843(3) 0.4998(2) 0.22918(8)
N6 N 0.4945(3) 0.5061(2) 0.29017(8)
O1 O 0.8139(3) 0.4743(2) 0.05635(7)
C1 C 1.0791(5) 0.4972(4) -0.04372(13)
H2 H 1.0154 0.5506 -0.0331
C2 C 1.1723(6) 0.5298(4) -0.07244(15)
H3 H 1.1716 0.6048 -0.0817
C3 C 1.2658(5) 0.4534(5) -0.08751(12)
H4 H 1.3309 0.4757 -0.1071
C4 C 1.2657(5) 0.3437(4) -0.07431(13)
H5 H 1.3292 0.2903 -0.0851
C5 C 1.1728(4) 0.3127(3) -0.04552(11)
H6 H 1.1748 0.2380 -0.0360
C6 C 1.0767(4) 0.3882(4) -0.03021(11)
C7 C 0.9762(5) 0.3543(4) 0.00123(11)
H7 H 0.8807 0.3843 -0.0046
H8 H 0.9697 0.2716 0.0022
C8 C 0.9405(4) 0.4559(3) 0.06264(11)
C9 C 1.0147(4) 0.4993(3) 0.09841(10)
H9 H 1.0625 0.4360 0.1116
H10 H 1.0885 0.5536 0.0905
C10 C 0.8402(4) 0.4907(3) 0.15016(10)
C11 C 0.7452(4) 0.5368(3) 0.17731(10)
H11 H 0.7316 0.6155 0.1792
C12 C 0.6725(4) 0.4636(3) 0.20114(11)
C13 C 0.7787(4) 0.3172(3) 0.17175(10)
H12 H 0.7886 0.2382 0.1693
C14 C 0.5567(4) 0.6183(3) 0.23756(10)
H13 H 0.5166 0.6574 0.2147
H14 H 0.6438 0.6574 0.2461
C15 C 0.4488(4) 0.6098(3) 0.27040(10)
H15 H 0.4543 0.6754 0.2879
H16 H 0.3511 0.6029 0.2603
C16 C 0.5198(4) 0.4272(3) 0.25839(9)
H17 H 0.5851 0.3664 0.2663
H18 H 0.4302 0.3939 0.2489
C17 C 0.3872(4) 0.4663(3) 0.31756(10)
H19 H 0.2981 0.4503 0.3034
H20 H 0.3676 0.5255 0.3369
C18 C 0.4357(4) 0.3639(3) 0.33758(10)
C19 C 0.4722(4) 0.2829(3) 0.35235(10)
H21 H 0.5025 0.2156 0.3646
C20 C 0.8934(4) 0.6739(3) 0.12124(10)
H22 H 0.7946 0.6860 0.1136
H23 H 0.9565 0.7046 0.1013
H24 H 0.9116 0.7117 0.1460
N7 N 0.5282(3) 0.4893(3) 0.03380(9)
H25 H 0.6146(13) 0.492(3) 0.0418(10)
N8 N 0.4245(3) 0.3781(2) 0.12897(8)
N9 N 0.3429(3) 0.5526(2) 0.14642(8)
N10 N 0.1710(4) 0.5760(2) 0.19788(9)
N11 N 0.0856(3) 0.4251(2) 0.23198(9)
N12 N -0.0072(3) 0.4232(2) 0.29267(8)
O2 O 0.3179(3) 0.4230(2) 0.05549(7)
C21 C 0.5837(5) 0.7007(3) -0.01330(11)
H26 H 0.5280 0.7237 0.0082
C22 C 0.6711(5) 0.7761(4) -0.03179(13)
H27 H 0.6762 0.8513 -0.0228
C23 C 0.7515(4) 0.7431(4) -0.06335(13)
H28 H 0.8121 0.7952 -0.0760
C24 C 0.7432(5) 0.6357(4) -0.07617(13)
H29 H 0.7986 0.6132 -0.0978
C25 C 0.6550(5) 0.5578(3) -0.05813(12)
H30 H 0.6482 0.4832 -0.0676
C26 C 0.5777(4) 0.5914(4) -0.02633(11)
C27 C 0.4808(4) 0.5073(3) -0.00603(10)
H31 H 0.3824 0.5360 -0.0060
H32 H 0.4820 0.4353 -0.0203
C28 C 0.4433(4) 0.4463(3) 0.06089(11)
C29 C 0.5139(4) 0.4314(3) 0.10020(10)
H33 H 0.6007 0.3859 0.0968
H34 H 0.5430 0.5059 0.1100
C30 C 0.3377(4) 0.4395(3) 0.15181(10)
C31 C 0.2499(4) 0.3921(3) 0.17953(10)
H35 H 0.2455 0.3131 0.1828
C32 C 0.1690(4) 0.4626(3) 0.20235(11)
C33 C 0.2566(4) 0.6103(3) 0.16990(11)
H36 H 0.2570 0.6891 0.1658
C34 C 0.0693(4) 0.3073(3) 0.24252(9)
H37 H 0.1595 0.2750 0.2520
H38 H 0.0341 0.2623 0.2204
C35 C -0.0399(4) 0.3144(3) 0.27469(10)
H39 H -0.1374 0.3132 0.2642
H40 H -0.0286 0.2522 0.2935
C36 C 0.0137(4) 0.4987(3) 0.25964(10)
H41 H -0.0778 0.5259 0.2492
H42 H 0.0736 0.5637 0.2667
C37 C -0.1205(4) 0.4597(3) 0.31856(11)
H43 H -0.1378 0.4012 0.3384
H44 H -0.2089 0.4696 0.3034
C38 C -0.0847(4) 0.5655(3) 0.33791(11)
C39 C -0.0559(4) 0.6512(3) 0.35276(10)
H45 H -0.0326 0.7205 0.3648
C40 C 0.4154(4) 0.2565(3) 0.12783(10)
H46 H 0.4293 0.2263 0.1540
H47 H 0.4889 0.2269 0.1105
H48 H 0.3219 0.2342 0.1182
loop_
_geom_bond_atom_site_label_1
_geom_bond_atom_site_label_2
_geom_bond_site_symmetry_1
_geom_bond_site_symmetry_2
N1 H1 1_555 1_555
N2 C9 1_555 1_555
N3 C10 1_555 1_555
N4 C12 1_555 1_555
N5 C12 1_555 1_555
N6 C15 1_555 1_555
O1 C8 1_555 1_555
C1 H2 1_555 1_555
C2 C1 1_555 1_555
H3 C2 1_555 1_555
C3 C2 1_555 1_555
H4 C3 1_555 1_555
C4 C3 1_555 1_555
H5 C4 1_555 1_555
C5 C4 1_555 1_555
H6 C5 1_555 1_555
C6 C1 1_555 1_555
C7 N1 1_555 1_555
H7 C7 1_555 1_555
H8 C7 1_555 1_555
C8 N1 1_555 1_555
C9 C8 1_555 1_555
H9 C9 1_555 1_555
H10 C9 1_555 1_555
C10 N2 1_555 1_555
C11 C10 1_555 1_555
H11 C11 1_555 1_555
C12 C11 1_555 1_555
C13 N3 1_555 1_555
H12 C13 1_555 1_555
C14 N5 1_555 1_555
H13 C14 1_555 1_555
H14 C14 1_555 1_555
C15 C14 1_555 1_555
H15 C15 1_555 1_555
H16 C15 1_555 1_555
C16 N5 1_555 1_555
H17 C16 1_555 1_555
H18 C16 1_555 1_555
C17 N6 1_555 1_555
H19 C17 1_555 1_555
H20 C17 1_555 1_555
C18 C17 1_555 1_555
C19 C18 1_555 1_555
H21 C19 1_555 1_555
C20 N2 1_555 1_555
H22 C20 1_555 1_555
H23 C20 1_555 1_555
H24 C20 1_555 1_555
N7 H25 1_555 1_555
N8 C29 1_555 1_555
N9 C30 1_555 1_555
N10 C32 1_555 1_555
N11 C32 1_555 1_555
N12 C35 1_555 1_555
O2 C28 1_555 1_555
C21 H26 1_555 1_555
C22 C21 1_555 1_555
H27 C22 1_555 1_555
C23 C22 1_555 1_555
H28 C23 1_555 1_555
C24 C23 1_555 1_555
H29 C24 1_555 1_555
C25 C24 1_555 1_555
H30 C25 1_555 1_555
C26 C21 1_555 1_555
C27 N7 1_555 1_555
H31 C27 1_555 1_555
H32 C27 1_555 1_555
C28 N7 1_555 1_555
C29 C28 1_555 1_555
H33 C29 1_555 1_555
H34 C29 1_555 1_555
C30 N8 1_555 1_555
C31 C30 1_555 1_555
H35 C31 1_555 1_555
C32 C31 1_555 1_555
C33 N9 1_555 1_555
H36 C33 1_555 1_555
C34 N11 1_555 1_555
H37 C34 1_555 1_555
H38 C34 1_555 1_555
C35 C34 1_555 1_555
H39 C35 1_555 1_555
H40 C35 1_555 1_555
C36 N11 1_555 1_555
H41 C36 1_555 1_555
H42 C36 1_555 1_555
C37 N12 1_555 1_555
H43 C37 1_555 1_555
H44 C37 1_555 1_555
C38 C37 1_555 1_555
C39 C38 1_555 1_555
H45 C39 1_555 1_555
C40 N8 1_555 1_555
H46 C40 1_555 1_555
H47 C40 1_555 1_555
H48 C40 1_555 1_555
N4 C13 1_555 1_555
N6 C16 1_555 1_555
C5 C6 1_555 1_555
C6 C7 1_555 1_555
N10 C33 1_555 1_555
N12 C36 1_555 1_555
C25 C26 1_555 1_555
C26 C27 1_555 1_555

#END
