
#######################################################################
#
#                 Cambridge Crystallographic Data Centre
#                                CCDC 
#
#######################################################################
#
# If this CIF has been generated from an entry in the Cambridge 
# Structural Database, then it will include bibliographic, chemical, 
# crystal, experimental, refinement or atomic coordinate data resulting 
# from the CCDC's data processing and validation procedures.
#
#######################################################################

data_ZANNEH
_chemical_formula_moiety         'C28 H33 B1 O3'
_chemical_name_systematic        
(S)-(4\a,5\b)-4,5-Di-isopropyl-2-((triphenylmethoxy)methyl)-1,3,2-dioxaborolane
_symmetry_cell_setting           trigonal
_symmetry_space_group_name_H-M   'P 32'
_symmetry_Int_Tables_number      145
_space_group_name_Hall           'P 32'
loop_
_symmetry_equiv_pos_site_id
_symmetry_equiv_pos_as_xyz
1 x,y,z
2 -y,x-y,2/3+z
3 -x+y,-x,1/3+z
_cell_length_a                   9.450(2)
_cell_length_b                   9.450(2)
_cell_length_c                   24.719(5)
_cell_angle_alpha                90
_cell_angle_beta                 90
_cell_angle_gamma                120
_cell_volume                     1911.72
_exptl_crystal_colour            white
_chemical_melting_point          48-50deg.C
_cell_formula_units_Z            3
loop_
_atom_site_label
_atom_site_type_symbol
_atom_site_fract_x
_atom_site_fract_y
_atom_site_fract_z
O1 O 0.9077(7) 0.8184(6) 0.2039(3)
O2 O 0.9237(6) 0.5902(6) 0.1919(3)
O3 O 0.6868(6) 0.4080(6) 0.2678
B1 B 0.8496(11) 0.6602(10) 0.2182(4)
C1 C 1.0279(10) 0.8606(9) 0.1610(4)
C2 C 1.0489(10) 0.7073(9) 0.1571(4)
C3 C 0.7119(10) 0.5702(9) 0.2607(4)
C4 C 0.5984(8) 0.3207(9) 0.3151(3)
C5 C 0.9697(13) 0.9030(11) 0.1098(4)
C6 C 1.0888(13) 0.9517(13) 0.0641(4)
C7 C 0.9334(15) 1.0411(13) 0.1208(5)
C8 C 1.2138(12) 0.7347(12) 0.1789(5)
C9 C 1.3540(14) 0.8501(16) 0.1446(6)
C10 C 1.2117(15) 0.5746(16) 0.1800(6)
C11 C 0.8706(6) 0.5000(7) 0.3614(3)
C12 C 0.9676 0.5618 0.4075
C13 C 0.8971 0.5157 0.4588
C14 C 0.7296 0.4079 0.4638
C15 C 0.6326 0.3461 0.4177
C16 C 0.7031 0.3922 0.3665
C17 C 0.4024(6) 0.4137(5) 0.3501(3)
C18 C 0.2526 0.4090 0.3478
C19 C 0.1346 0.3079 0.3104
C20 C 0.1664 0.2117 0.2752
C21 C 0.3163 0.2165 0.2775
C22 C 0.4342 0.3175 0.3149
C23 C 0.4514(6) 0.0180(6) 0.3371(3)
C24 C 0.4306 -0.1382 0.3316
C25 C 0.5324 -0.1640 0.2971
C26 C 0.6551 -0.0335 0.2681
C27 C 0.6759 0.1227 0.2737
C28 C 0.5740 0.1484 0.3081
H1 H 1.1318 0.9563 0.1678
H2 H 1.0433 0.6761 0.1198
H3 H 0.6129 0.5641 0.2482
H4 H 0.7438 0.6280 0.2945
H5 H 0.8722 0.8054 0.0989
H6 H 1.1119 0.8653 0.0570
H7 H 1.1881 1.0492 0.0738
H8 H 1.0431 0.9718 0.0324
H9 H 0.8568 1.0105 0.1501
H10 H 0.8879 1.0611 0.0890
H11 H 1.0329 1.1385 0.1304
H12 H 1.2276 0.7803 0.2145
H13 H 1.3581 0.9536 0.1433
H14 H 1.3402 0.8065 0.1087
H15 H 1.4539 0.8644 0.1597
H16 H 1.1222 0.4978 0.2020
H17 H 1.3126 0.5908 0.1949
H18 H 1.1989 0.5329 0.1439
H19 H 0.9191 0.5317 0.3262
H20 H 1.0828 0.6360 0.4040
H21 H 0.9638 0.5582 0.4905
H22 H 0.6811 0.3762 0.4991
H23 H 0.5174 0.2719 0.4212
H24 H 0.4836 0.4833 0.3758
H25 H 0.2306 0.4752 0.3720
H26 H 0.0315 0.3046 0.3088
H27 H 0.0852 0.1422 0.2495
H28 H 0.3382 0.1502 0.2533
H29 H 0.3812 0.0358 0.3608
H30 H 0.3461 -0.2279 0.3515
H31 H 0.5181 -0.2715 0.2933
H32 H 0.7252 -0.0513 0.2444
H33 H 0.7603 0.2124 0.2537
loop_
_geom_bond_atom_site_label_1
_geom_bond_atom_site_label_2
_geom_bond_site_symmetry_1
_geom_bond_site_symmetry_2
O1 B1 1_555 1_555
O2 B1 1_555 1_555
O3 C3 1_555 1_555
B1 C3 1_555 1_555
C1 O1 1_555 1_555
C2 O2 1_555 1_555
C3 H3 1_555 1_555
C4 O3 1_555 1_555
C5 C1 1_555 1_555
C6 C5 1_555 1_555
C7 C5 1_555 1_555
C8 C2 1_555 1_555
C9 C8 1_555 1_555
C10 C8 1_555 1_555
C11 C12 1_555 1_555
C12 C13 1_555 1_555
C13 C14 1_555 1_555
C14 C15 1_555 1_555
C15 C16 1_555 1_555
C16 C4 1_555 1_555
C17 C18 1_555 1_555
C18 C19 1_555 1_555
C19 C20 1_555 1_555
C20 C21 1_555 1_555
C21 C22 1_555 1_555
C22 C4 1_555 1_555
C23 C24 1_555 1_555
C24 C25 1_555 1_555
C25 C26 1_555 1_555
C26 C27 1_555 1_555
C27 C28 1_555 1_555
C28 C4 1_555 1_555
H1 C1 1_555 1_555
H2 C2 1_555 1_555
H4 C3 1_555 1_555
H5 C5 1_555 1_555
H6 C6 1_555 1_555
H7 C6 1_555 1_555
H8 C6 1_555 1_555
H9 C7 1_555 1_555
H10 C7 1_555 1_555
H11 C7 1_555 1_555
H12 C8 1_555 1_555
H13 C9 1_555 1_555
H14 C9 1_555 1_555
H15 C9 1_555 1_555
H16 C10 1_555 1_555
H17 C10 1_555 1_555
H18 C10 1_555 1_555
H19 C11 1_555 1_555
H20 C12 1_555 1_555
H21 C13 1_555 1_555
H22 C14 1_555 1_555
H23 C15 1_555 1_555
H24 C17 1_555 1_555
H25 C18 1_555 1_555
H26 C19 1_555 1_555
H27 C20 1_555 1_555
H28 C21 1_555 1_555
H29 C23 1_555 1_555
H30 C24 1_555 1_555
H31 C25 1_555 1_555
H32 C26 1_555 1_555
H33 C27 1_555 1_555
C1 C2 1_555 1_555
C11 C16 1_555 1_555
C17 C22 1_555 1_555
C23 C28 1_555 1_555

#END
