
#######################################################################
#
#                 Cambridge Crystallographic Data Centre
#                                CCDC 
#
#######################################################################
#
# If this CIF has been generated from an entry in the Cambridge 
# Structural Database, then it will include bibliographic, chemical, 
# crystal, experimental, refinement or atomic coordinate data resulting 
# from the CCDC's data processing and validation procedures.
#
#######################################################################

data_ZANXOD
_chemical_formula_moiety         'C23 H25 N4 O1 1+,F6 P1 1-'
_chemical_name_systematic        
'3-[(8-Butoxyquinolin-2-yl)methyl]-1-(pyridin-2-ylmethyl)-1H-imidazol-3-ium hexafluoridophosphate'
_symmetry_cell_setting           triclinic
_symmetry_space_group_name_H-M   'P -1'
_symmetry_Int_Tables_number      2
_space_group_name_Hall           '-P 1'
loop_
_symmetry_equiv_pos_site_id
_symmetry_equiv_pos_as_xyz
1 x,y,z
2 -x,-y,-z
_cell_length_a                   9.975(3)
_cell_length_b                   11.056(4)
_cell_length_c                   12.382(4)
_cell_angle_alpha                99.010(4)
_cell_angle_beta                 103.527(3)
_cell_angle_gamma                112.734(3)
_cell_volume                     1177.14
_exptl_crystal_colour            colorless
_exptl_crystal_description       prism
_cell_formula_units_Z            2
loop_
_atom_site_label
_atom_site_type_symbol
_atom_site_fract_x
_atom_site_fract_y
_atom_site_fract_z
O1 O 0.18574(14) -0.05015(11) 0.50857(9)
N1 N 0.46828(17) 0.15399(13) 0.59818(11)
N2 N 0.67464(17) 0.44123(14) 0.81155(11)
N3 N 0.76044(18) 0.65447(14) 0.89753(11)
N4 N 0.7840(2) 0.96366(16) 1.02355(13)
C1 C 0.4087(2) 0.10204(16) 0.48018(13)
C2 C 0.2576(2) -0.00743(17) 0.43121(14)
C3 C 0.1955(2) -0.06110(18) 0.31350(14)
H1 H 0.0950 -0.1341 0.2805
C4 C 0.2801(2) -0.00833(18) 0.24126(14)
H2 H 0.2356 -0.0472 0.1600
C5 C 0.4231(2) 0.09621(17) 0.28470(14)
H3 H 0.4769 0.1310 0.2341
C6 C 0.4921(2) 0.15361(17) 0.40557(14)
C7 C 0.6411(2) 0.26183(17) 0.45754(15)
H4 H 0.7005 0.2993 0.4109
C8 C 0.6998(2) 0.31251(17) 0.57488(15)
H5 H 0.8000 0.3854 0.6107
C9 C 0.6087(2) 0.25439(17) 0.64230(14)
C10 C 0.0333(2) -0.15994(17) 0.46166(14)
H6 H 0.0348 -0.2408 0.4154
H7 H -0.0352 -0.1324 0.4105
C11 C -0.0249(2) -0.19441(17) 0.55992(14)
H8 H -0.0195 -0.1114 0.6084
H9 H 0.0421 -0.2253 0.6087
C12 C -0.1897(2) -0.30559(18) 0.51700(14)
H10 H -0.2554 -0.2771 0.4642
H11 H -0.1937 -0.3902 0.4725
C13 C -0.2529(2) -0.33511(18) 0.61483(15)
H12 H -0.1896 -0.3654 0.6664
H13 H -0.3588 -0.4069 0.5831
H14 H -0.2512 -0.2521 0.6583
C14 C 0.6703(2) 0.30680(16) 0.77246(14)
H15 H 0.6045 0.2414 0.8059
H16 H 0.7753 0.3138 0.8003
C15 C 0.5510(2) 0.47198(18) 0.79151(14)
H17 H 0.4474 0.4105 0.7479
C16 C 0.6041(2) 0.60457(18) 0.84485(14)
H18 H 0.5454 0.6547 0.8462
C17 C 0.7995(2) 0.55370(17) 0.87609(13)
H19 H 0.9003 0.5608 0.9026
C18 C 0.8687(2) 0.79717(18) 0.96022(16)
H20 H 0.8857 0.8516 0.9042
H21 H 0.9686 0.8015 1.0025
C19 C 0.8087(2) 0.85781(17) 1.04502(15)
C20 C 0.7801(2) 0.80741(19) 1.13636(15)
H22 H 0.7968 0.7308 1.1481
C21 C 0.7279(2) 0.86810(18) 1.20933(15)
H23 H 0.7099 0.8355 1.2736
C22 C 0.7014(2) 0.97635(19) 1.18994(16)
H24 H 0.6644 1.0200 1.2399
C23 C 0.7295(3) 1.0200(2) 1.09668(18)
H25 H 0.7096 1.0944 1.0825
P1 P 0.80855(6) 0.43611(5) 0.15376(4)
F1 F 0.93828(12) 0.57111(10) 0.14046(9)
F2 F 0.93902(13) 0.42366(12) 0.24704(9)
F3 F 0.78373(14) 0.52848(11) 0.25236(8)
F4 F 0.68142(13) 0.30267(10) 0.16650(9)
F5 F 0.68041(12) 0.45015(10) 0.05947(8)
F6 F 0.83460(13) 0.34588(10) 0.05310(9)
loop_
_geom_bond_atom_site_label_1
_geom_bond_atom_site_label_2
_geom_bond_site_symmetry_1
_geom_bond_site_symmetry_2
O1 C2 1_555 1_555
N1 C1 1_555 1_555
N2 C14 1_555 1_555
N3 C16 1_555 1_555
N4 C19 1_555 1_555
C1 C2 1_555 1_555
C2 C3 1_555 1_555
C3 H1 1_555 1_555
C4 C3 1_555 1_555
H2 C4 1_555 1_555
C5 C4 1_555 1_555
H3 C5 1_555 1_555
C6 C1 1_555 1_555
C7 C6 1_555 1_555
H4 C7 1_555 1_555
C8 C7 1_555 1_555
H5 C8 1_555 1_555
C9 N1 1_555 1_555
C10 O1 1_555 1_555
H6 C10 1_555 1_555
H7 C10 1_555 1_555
C11 C10 1_555 1_555
H8 C11 1_555 1_555
H9 C11 1_555 1_555
C12 C11 1_555 1_555
H10 C12 1_555 1_555
H11 C12 1_555 1_555
C13 C12 1_555 1_555
H12 C13 1_555 1_555
H13 C13 1_555 1_555
H14 C13 1_555 1_555
C14 C9 1_555 1_555
H15 C14 1_555 1_555
H16 C14 1_555 1_555
C15 N2 1_555 1_555
H17 C15 1_555 1_555
C16 C15 1_555 1_555
H18 C16 1_555 1_555
C17 N2 1_555 1_555
H19 C17 1_555 1_555
C18 N3 1_555 1_555
H20 C18 1_555 1_555
H21 C18 1_555 1_555
C19 C18 1_555 1_555
C20 C19 1_555 1_555
H22 C20 1_555 1_555
C21 C20 1_555 1_555
H23 C21 1_555 1_555
C22 C21 1_555 1_555
H24 C22 1_555 1_555
C23 N4 1_555 1_555
H25 C23 1_555 1_555
P1 F1 1_555 1_555
F2 P1 1_555 1_555
F3 P1 1_555 1_555
F4 P1 1_555 1_555
F5 P1 1_555 1_555
F6 P1 1_555 1_555
N3 C17 1_555 1_555
C5 C6 1_555 1_555
C8 C9 1_555 1_555
C22 C23 1_555 1_555

#END
