
#######################################################################
#
#                 Cambridge Crystallographic Data Centre
#                                CCDC 
#
#######################################################################
#
# If this CIF has been generated from an entry in the Cambridge 
# Structural Database, then it will include bibliographic, chemical, 
# crystal, experimental, refinement or atomic coordinate data resulting 
# from the CCDC's data processing and validation procedures.
#
#######################################################################

data_ZANXIX
_chemical_formula_moiety         'C17 H17 N3 O2'
_chemical_name_systematic        
(Z)-4-[(Ethylamino)(furan-2-yl)methylidene]-3-methyl-1-phenyl-1H-pyrazol-5(4H)-one
_symmetry_cell_setting           orthorhombic
_symmetry_space_group_name_H-M   'P b c a'
_symmetry_Int_Tables_number      61
_space_group_name_Hall           '-P 2ac 2ab'
loop_
_symmetry_equiv_pos_site_id
_symmetry_equiv_pos_as_xyz
1 x,y,z
2 1/2-x,-y,1/2+z
3 1/2+x,1/2-y,-z
4 -x,1/2+y,1/2-z
5 -x,-y,-z
6 1/2+x,y,1/2-z
7 1/2-x,1/2+y,z
8 x,1/2-y,1/2+z
_cell_length_a                   8.5729(13)
_cell_length_b                   17.555(3)
_cell_length_c                   20.427(3)
_cell_angle_alpha                90
_cell_angle_beta                 90
_cell_angle_gamma                90
_cell_volume                     3074.21
_exptl_crystal_colour            yellow
_exptl_crystal_description       block
_cell_formula_units_Z            8
loop_
_atom_site_label
_atom_site_type_symbol
_atom_site_fract_x
_atom_site_fract_y
_atom_site_fract_z
C1 C 0.3274(2) 0.36448(10) 0.37402(8)
C2 C 0.4490(2) 0.31933(11) 0.35231(9)
H1 H 0.4819 0.3221 0.3090
C3 C 0.5211(2) 0.27020(12) 0.39536(10)
H2 H 0.6030 0.2399 0.3807
C4 C 0.4740(3) 0.26520(13) 0.45952(11)
H3 H 0.5234 0.2317 0.4881
C5 C 0.3540(2) 0.30984(13) 0.48091(10)
H4 H 0.3219 0.3067 0.5243
C6 C 0.2797(2) 0.35970(12) 0.43881(9)
H5 H 0.1981 0.3899 0.4538
C7 C 0.2554(2) 0.42127(10) 0.26479(8)
C8 C 0.1713(2) 0.48955(10) 0.24974(8)
C9 C 0.1213(2) 0.51919(11) 0.31153(9)
C10 C 0.0283(3) 0.58819(12) 0.32686(10)
H6 H -0.0075 0.5856 0.3713
H7 H -0.0597 0.5909 0.2979
H8 H 0.0921 0.6327 0.3213
C11 C 0.1465(2) 0.51345(10) 0.18519(9)
C12 C 0.0770(2) 0.58668(10) 0.16927(9)
C13 C -0.0461(2) 0.60530(12) 0.13197(9)
H9 H -0.1068 0.5722 0.1072
C14 C -0.0655(3) 0.68398(15) 0.13746(12)
H10 H -0.1426 0.7132 0.1175
C15 C 0.0474(3) 0.70936(13) 0.17668(12)
H11 H 0.0622 0.7600 0.1884
C16 C 0.1841(3) 0.48181(15) 0.06678(10)
H12 H 0.2017 0.5355 0.0585
H13 H 0.0818 0.4686 0.0500
C17 C 0.3046(3) 0.43617(17) 0.03265(11)
H14 H 0.4054 0.4478 0.0506
H15 H 0.3036 0.4482 -0.0132
H16 H 0.2829 0.3829 0.0385
N1 N 0.25453(19) 0.41740(8) 0.33228(6)
N2 N 0.16849(17) 0.47679(9) 0.36000(7)
N3 N 0.1892(2) 0.46750(9) 0.13692(7)
H17 H 0.2364 0.4192 0.1514
O1 O 0.31504(18) 0.37337(8) 0.22731(6)
O2 O 0.13911(19) 0.64946(9) 0.19731(8)
loop_
_geom_bond_atom_site_label_1
_geom_bond_atom_site_label_2
_geom_bond_site_symmetry_1
_geom_bond_site_symmetry_2
C1 C2 1_555 1_555
C2 H1 1_555 1_555
C3 C2 1_555 1_555
H2 C3 1_555 1_555
C4 C3 1_555 1_555
H3 C4 1_555 1_555
C5 C4 1_555 1_555
H4 C5 1_555 1_555
C6 C1 1_555 1_555
H5 C6 1_555 1_555
C7 C8 1_555 1_555
C8 C9 1_555 1_555
C9 C10 1_555 1_555
C10 H6 1_555 1_555
H7 C10 1_555 1_555
H8 C10 1_555 1_555
C11 C8 1_555 1_555
C12 C11 1_555 1_555
C13 C12 1_555 1_555
H9 C13 1_555 1_555
C14 C13 1_555 1_555
H10 C14 1_555 1_555
C15 C14 1_555 1_555
H11 C15 1_555 1_555
C16 H12 1_555 1_555
H13 C16 1_555 1_555
C17 C16 1_555 1_555
H14 C17 1_555 1_555
H15 C17 1_555 1_555
H16 C17 1_555 1_555
N1 C1 1_555 1_555
N2 C9 1_555 1_555
N3 C11 1_555 1_555
H17 N3 1_555 1_555
O1 C7 1_555 1_555
O2 C12 1_555 1_555
C5 C6 1_555 1_555
C7 N1 1_555 1_555
C15 O2 1_555 1_555
C16 N3 1_555 1_555
N1 N2 1_555 1_555

#END
