
#######################################################################
#
#                 Cambridge Crystallographic Data Centre
#                                CCDC 
#
#######################################################################
#
# If this CIF has been generated from an entry in the Cambridge 
# Structural Database, then it will include bibliographic, chemical, 
# crystal, experimental, refinement or atomic coordinate data resulting 
# from the CCDC's data processing and validation procedures.
#
#######################################################################

data_ZANZIZ
_chemical_formula_moiety         'C9 H11 N3'
_chemical_name_systematic        1,3-Dimethyl-1H-indazol-6-amine
_symmetry_cell_setting           orthorhombic
_symmetry_space_group_name_H-M   'P c a 21'
_symmetry_Int_Tables_number      29
_space_group_name_Hall           'P 2c -2ac'
loop_
_symmetry_equiv_pos_site_id
_symmetry_equiv_pos_as_xyz
1 x,y,z
2 -x,-y,1/2+z
3 1/2+x,-y,z
4 1/2-x,y,1/2+z
_cell_length_a                   18.3004(10)
_cell_length_b                   8.3399(7)
_cell_length_c                   5.65630(10)
_cell_angle_alpha                90
_cell_angle_beta                 90
_cell_angle_gamma                90
_cell_volume                     863.284
_exptl_crystal_colour            yellow
_exptl_crystal_description       prism
_cell_formula_units_Z            4
loop_
_atom_site_label
_atom_site_type_symbol
_atom_site_fract_x
_atom_site_fract_y
_atom_site_fract_z
N1 N 0.10351(9) 0.83358(18) 0.4784(4)
N2 N 0.14711(8) 0.72497(19) 0.5968(4)
N3 N 0.19922(10) 0.1548(2) 0.4581(5)
H1 H 0.1689(11) 0.071(2) 0.449(5)
H2 H 0.2287(12) 0.150(3) 0.587(3)
C1 C 0.01866(14) 0.8321(3) 0.1420(6)
H3 H -0.0293 0.7890 0.1680
H4 H 0.0330 0.8131 -0.0188
H5 H 0.0182 0.9454 0.1721
C2 C 0.07147(10) 0.7530(3) 0.3043(5)
C3 C 0.09469(10) 0.5900(2) 0.3044(4)
C4 C 0.08096(11) 0.4531(3) 0.1658(5)
H6 H 0.0489 0.4579 0.0384
C5 C 0.11558(12) 0.3130(3) 0.2223(5)
H7 H 0.1072 0.2228 0.1295
C6 C 0.16353(10) 0.3008(2) 0.4163(5)
C7 C 0.17824(11) 0.4336(2) 0.5559(4)
H8 H 0.2102 0.4277 0.6836
C8 C 0.14298(9) 0.5768(2) 0.4964(4)
C9 C 0.19061(12) 0.7763(3) 0.7940(5)
H9 H 0.1936 0.6913 0.9081
H10 H 0.1685 0.8688 0.8655
H11 H 0.2388 0.8032 0.7402
loop_
_geom_bond_atom_site_label_1
_geom_bond_atom_site_label_2
_geom_bond_site_symmetry_1
_geom_bond_site_symmetry_2
N1 N2 1_555 1_555
N2 C8 1_555 1_555
N3 H1 1_555 1_555
H2 N3 1_555 1_555
C1 H3 1_555 1_555
H4 C1 1_555 1_555
H5 C1 1_555 1_555
C2 N1 1_555 1_555
C3 C2 1_555 1_555
C4 C3 1_555 1_555
H6 C4 1_555 1_555
C5 C4 1_555 1_555
H7 C5 1_555 1_555
C6 N3 1_555 1_555
C7 C6 1_555 1_555
H8 C7 1_555 1_555
C8 C3 1_555 1_555
C9 N2 1_555 1_555
H9 C9 1_555 1_555
H10 C9 1_555 1_555
H11 C9 1_555 1_555
C1 C2 1_555 1_555
C5 C6 1_555 1_555
C7 C8 1_555 1_555

#END
