
#######################################################################
#
#                 Cambridge Crystallographic Data Centre
#                                CCDC 
#
#######################################################################
#
# If this CIF has been generated from an entry in the Cambridge 
# Structural Database, then it will include bibliographic, chemical, 
# crystal, experimental, refinement or atomic coordinate data resulting 
# from the CCDC's data processing and validation procedures.
#
#######################################################################

data_ZAPBAV
_chemical_formula_moiety         'C6 H9 Cl1 N4'
_chemical_name_systematic        
6-Chloro-N^4^,N^4^-dimethylpyrimidine-2,4-diamine
_symmetry_cell_setting           triclinic
_symmetry_space_group_name_H-M   'P -1'
_symmetry_Int_Tables_number      2
_space_group_name_Hall           '-P 1'
loop_
_symmetry_equiv_pos_site_id
_symmetry_equiv_pos_as_xyz
1 x,y,z
2 -x,-y,-z
_cell_length_a                   7.9438(19)
_cell_length_b                   14.225(3)
_cell_length_c                   14.895(3)
_cell_angle_alpha                100.114(3)
_cell_angle_beta                 94.421(4)
_cell_angle_gamma                100.524(4)
_cell_volume                     1618.72
_exptl_crystal_colour            colorless
_exptl_crystal_description       block
_cell_formula_units_Z            8
loop_
_atom_site_label
_atom_site_type_symbol
_atom_site_fract_x
_atom_site_fract_y
_atom_site_fract_z
N1 N 0.3407(3) 0.34115(18) 0.54662(16)
N2 N 0.4648(3) 0.47960(18) 0.66542(16)
N3 N 0.5150(4) 0.32771(19) 0.67110(18)
N4 N 0.1803(4) 0.3573(2) 0.41724(17)
C1 C 0.2689(4) 0.3996(2) 0.4992(2)
C2 C 0.2883(4) 0.4998(2) 0.5353(2)
H1 H 0.2382 0.5412 0.5047
C3 C 0.3852(4) 0.5320(2) 0.6179(2)
C4 C 0.4379(4) 0.3849(2) 0.6250(2)
C5 C 0.1705(5) 0.2558(3) 0.3791(2)
H2 H 0.2531 0.2309 0.4139
H3 H 0.1951 0.2490 0.3164
H4 H 0.0568 0.2198 0.3815
C6 C 0.1034(5) 0.4146(3) 0.3586(2)
H5 H 0.0397 0.4559 0.3942
H6 H 0.0272 0.3715 0.3092
H7 H 0.1929 0.4541 0.3340
Cl1 Cl 0.41068(13) 0.65460(6) 0.66924(6)
H32 H 0.4991 0.2653 0.6522
H35 H 0.5805 0.3546 0.7235
N5 N 0.3131(3) 0.56029(17) 0.00737(15)
N6 N 0.2031(3) 0.57494(17) 0.15383(16)
N7 N 0.4281(4) 0.49791(19) 0.12364(16)
N8 N -0.0361(4) 0.64285(19) 0.18002(18)
C7 C 0.0773(4) 0.6171(2) 0.1222(2)
C8 C -0.1760(5) 0.6879(3) 0.1505(3)
H8 H -0.1297 0.7441 0.1262
H9 H -0.2361 0.7072 0.2020
H10 H -0.2544 0.6420 0.1039
C9 C -0.0343(5) 0.6179(3) 0.2706(2)
H11 H -0.1284 0.5649 0.2705
H12 H -0.0458 0.6735 0.3150
H13 H 0.0725 0.5990 0.2861
C10 C 0.0687(4) 0.6347(2) 0.0317(2)
H14 H -0.0150 0.6648 0.0084
C11 C 0.1901(4) 0.6050(2) -0.01859(19)
C12 C 0.3096(4) 0.5455(2) 0.09442(19)
Cl4 Cl 0.19291(13) 0.62621(7) -0.13080(5)
H29 H 0.4312 0.4882 0.1794
H33 H 0.5017 0.4822 0.0852
N9 N 0.4193(3) 0.08990(18) 0.62696(16)
N10 N 0.1931(3) -0.03793(18) 0.54295(16)
N11 N 0.1596(4) 0.12009(19) 0.5723(2)
N12 N 0.6743(4) 0.0572(2) 0.68555(18)
C13 C 0.7969(5) -0.0067(3) 0.6925(2)
H15 H 0.7474 -0.0597 0.7204
H16 H 0.9006 0.0295 0.7293
H17 H 0.8232 -0.0321 0.6322
C14 C 0.7279(5) 0.1570(2) 0.7337(3)
H18 H 0.7736 0.1970 0.6921
H19 H 0.8149 0.1607 0.7833
H20 H 0.6306 0.1797 0.7577
C15 C 0.5186(4) 0.0239(2) 0.63617(19)
C16 C 0.4614(4) -0.0744(2) 0.5956(2)
H21 H 0.5303 -0.1203 0.5987
C17 C 0.2997(4) -0.0987(2) 0.55161(19)
C18 C 0.2619(4) 0.0556(2) 0.5810(2)
Cl3 Cl 0.21621(13) -0.21962(6) 0.49962(6)
H30 H 0.2061 0.1818 0.5803
H36 H 0.0579 0.1009 0.5408
N13 N 0.3235(4) 0.9764(2) 0.83692(19)
N14 N 0.5994(4) 1.03959(18) 0.90517(17)
N15 N 0.8008(3) 0.93718(19) 0.93227(17)
N16 N 0.8765(4) 1.10315(19) 0.9711(2)
C19 C 0.1863(5) 0.8969(3) 0.7904(3)
H22 H 0.2290 0.8584 0.7410
H23 H 0.0928 0.9228 0.7663
H24 H 0.1462 0.8569 0.8330
C20 C 0.2873(5) 1.0738(3) 0.8461(2)
H25 H 0.3797 1.1194 0.8848
H26 H 0.1816 1.0755 0.8730
H27 H 0.2765 1.0909 0.7867
C21 C 0.4788(4) 0.9608(2) 0.8677(2)
C22 C 0.5135(4) 0.8663(2) 0.8614(2)
H28 H 0.4315 0.8106 0.8359
C23 C 0.6750(5) 0.8624(2) 0.8952(2)
C24 C 0.7528(4) 1.0241(2) 0.9355(2)
Cl2 Cl 0.72990(15) 0.74846(7) 0.89197(7)
H31 H 0.8516 1.1614 0.9822
H34 H 0.9661 1.0935 1.0027
loop_
_geom_bond_atom_site_label_1
_geom_bond_atom_site_label_2
_geom_bond_site_symmetry_1
_geom_bond_site_symmetry_2
N1 C1 1_555 1_555
N2 C3 1_555 1_555
N3 C4 1_555 1_555
N4 C1 1_555 1_555
N5 C11 1_555 1_555
N6 C7 1_555 1_555
N7 C12 1_555 1_555
N8 C7 1_555 1_555
N9 C15 1_555 1_555
N10 C17 1_555 1_555
N11 C18 1_555 1_555
N12 C13 1_555 1_555
N13 C19 1_555 1_555
N14 C21 1_555 1_555
N15 C23 1_555 1_555
N16 C24 1_555 1_555
C1 C2 1_555 1_555
C2 H1 1_555 1_555
C3 C2 1_555 1_555
C4 N1 1_555 1_555
C5 N4 1_555 1_555
H2 C5 1_555 1_555
H3 C5 1_555 1_555
H4 C5 1_555 1_555
C6 N4 1_555 1_555
H5 C6 1_555 1_555
H6 C6 1_555 1_555
H7 C6 1_555 1_555
C7 C10 1_555 1_555
C8 N8 1_555 1_555
H8 C8 1_555 1_555
H9 C8 1_555 1_555
H10 C8 1_555 1_555
C9 N8 1_555 1_555
H11 C9 1_555 1_555
H12 C9 1_555 1_555
H13 C9 1_555 1_555
C10 H14 1_555 1_555
C11 C10 1_555 1_555
C12 N5 1_555 1_555
C13 H15 1_555 1_555
H16 C13 1_555 1_555
H17 C13 1_555 1_555
C14 N12 1_555 1_555
H18 C14 1_555 1_555
H19 C14 1_555 1_555
H20 C14 1_555 1_555
C15 N12 1_555 1_555
C16 C15 1_555 1_555
H21 C16 1_555 1_555
C17 C16 1_555 1_555
C18 N9 1_555 1_555
C19 H22 1_555 1_555
H23 C19 1_555 1_555
H24 C19 1_555 1_555
C20 N13 1_555 1_555
H25 C20 1_555 1_555
H26 C20 1_555 1_555
H27 C20 1_555 1_555
C21 N13 1_555 1_555
C22 C21 1_555 1_555
H28 C22 1_555 1_555
C23 C22 1_555 1_555
C24 N14 1_555 1_555
Cl1 C3 1_555 1_555
Cl2 C23 1_555 1_555
Cl3 C17 1_555 1_555
Cl4 C11 1_555 1_555
H29 N7 1_555 1_555
H30 N11 1_555 1_555
H31 N16 1_555 1_555
H32 N3 1_555 1_555
H33 N7 1_555 1_555
H34 N16 1_555 1_555
H35 N3 1_555 1_555
H36 N11 1_555 1_555
N2 C4 1_555 1_555
N6 C12 1_555 1_555
N10 C18 1_555 1_555
N15 C24 1_555 1_555

#END
