
#######################################################################
#
#                 Cambridge Crystallographic Data Centre
#                                CCDC 
#
#######################################################################
#
# If this CIF has been generated from an entry in the Cambridge 
# Structural Database, then it will include bibliographic, chemical, 
# crystal, experimental, refinement or atomic coordinate data resulting 
# from the CCDC's data processing and validation procedures.
#
#######################################################################

data_ZAPFIH
_chemical_name_common            
'Diethyl 4-methoxyoxalyl-3,5-diphenylpyrrolidine-2,2-dicarboxylate'
_chemical_formula_moiety         'C25 H27 N1 O7'
_chemical_name_systematic        
'Diethyl 4-(methoxy(oxo)acetyl)-3,5-diphenylpyrrolidine-2,2-dicarboxylate'
_symmetry_cell_setting           monoclinic
_symmetry_space_group_name_H-M   'P 21/c'
_symmetry_Int_Tables_number      14
_space_group_name_Hall           '-P 2ybc'
loop_
_symmetry_equiv_pos_site_id
_symmetry_equiv_pos_as_xyz
1 x,y,z
2 -x,1/2+y,1/2-z
3 -x,-y,-z
4 x,1/2-y,1/2+z
_cell_length_a                   8.8779(3)
_cell_length_b                   20.3438(6)
_cell_length_c                   13.5740(5)
_cell_angle_alpha                90
_cell_angle_beta                 102.213(3)
_cell_angle_gamma                90
_cell_volume                     2396.12
_exptl_crystal_colour            colorless
_exptl_crystal_description       block
_cell_formula_units_Z            4
loop_
_atom_site_label
_atom_site_type_symbol
_atom_site_fract_x
_atom_site_fract_y
_atom_site_fract_z
N1 N 0.9482(2) 0.04749(8) 0.86894(15)
O1 O 0.75874(18) 0.01366(7) 1.00477(12)
O2 O 0.68505(17) 0.11814(7) 1.01209(11)
O3 O 0.90888(18) 0.20277(8) 0.85551(13)
O4 O 0.99367(18) 0.16006(7) 1.00924(12)
O5 O 0.6663(2) 0.05129(8) 0.58463(13)
O6 O 0.5961(2) -0.10174(9) 0.66768(15)
O7 O 0.6680(2) -0.07505(8) 0.52526(13)
C1 C 0.8329(2) 0.09267(9) 0.89093(15)
C2 C 0.7135(2) 0.09231(9) 0.78941(15)
H1 H 0.7590 0.1168 0.7408
C3 C 0.7112(2) 0.01965(9) 0.75916(16)
H2 H 0.6324 -0.0027 0.7877
C4 C 0.8726(2) -0.00897(10) 0.81100(16)
H3 H 0.8575 -0.0436 0.8582
C5 C 0.7574(2) 0.06980(10) 0.97687(16)
C6 C 0.5949(3) 0.10022(14) 1.0861(2)
H4 H 0.5254 0.0644 1.0608
H5 H 0.6625 0.0862 1.1483
C7 C 0.5078(5) 0.15783(19) 1.1041(3)
H6 H 0.4510 0.1746 1.0409
H7 H 0.5773 0.1910 1.1372
H8 H 0.4374 0.1460 1.1460
C8 C 0.9123(2) 0.15908(11) 0.91495(18)
C9 C 1.0665(3) 0.22220(14) 1.0448(2)
H9 H 1.1018 0.2439 0.9902
H10 H 1.1555 0.2140 1.0986
C10 C 0.9557(4) 0.26554(15) 1.0823(3)
H11 H 0.8684 0.2741 1.0287
H12 H 1.0053 0.3063 1.1056
H13 H 0.9219 0.2442 1.1369
C11 C 0.5595(2) 0.12441(10) 0.79130(15)
C12 C 0.4339(2) 0.09043(12) 0.81017(19)
H14 H 0.4396 0.0450 0.8180
C13 C 0.3000(3) 0.12289(14) 0.8176(2)
H15 H 0.2169 0.0991 0.8307
C14 C 0.2887(3) 0.18935(14) 0.8060(2)
H16 H 0.1988 0.2110 0.8118
C15 C 0.4104(3) 0.22371(13) 0.7859(2)
H17 H 0.4033 0.2691 0.7776
C16 C 0.5440(3) 0.19164(10) 0.77789(18)
H18 H 0.6255 0.2157 0.7631
C17 C 0.6739(2) 0.00889(10) 0.64679(17)
C18 C 0.6410(3) -0.06290(12) 0.61527(19)
C19 C 0.6394(4) -0.14192(14) 0.4894(2)
H19 H 0.6611 -0.1457 0.4232
H20 H 0.5335 -0.1530 0.4866
H21 H 0.7048 -0.1714 0.5345
C20 C 0.9705(2) -0.03601(10) 0.74167(17)
C21 C 0.9944(3) -0.10277(12) 0.7365(2)
H22 H 0.9494 -0.1311 0.7757
C22 C 1.0847(4) -0.12831(15) 0.6737(2)
H23 H 1.0998 -0.1734 0.6709
C23 C 1.1512(4) -0.08695(18) 0.6163(2)
H24 H 1.2127 -0.1040 0.5748
C24 C 1.1283(3) -0.02117(16) 0.6190(2)
H25 H 1.1730 0.0067 0.5790
C25 C 1.0380(3) 0.00470(12) 0.68185(19)
H26 H 1.0228 0.0499 0.6836
H27 H 1.016(2) 0.0357(10) 0.9232(14)
loop_
_geom_bond_atom_site_label_1
_geom_bond_atom_site_label_2
_geom_bond_site_symmetry_1
_geom_bond_site_symmetry_2
N1 C1 1_555 1_555
O1 C5 1_555 1_555
O2 C5 1_555 1_555
O3 C8 1_555 1_555
O4 C8 1_555 1_555
O5 C17 1_555 1_555
O6 C18 1_555 1_555
O7 C18 1_555 1_555
C1 C2 1_555 1_555
C2 H1 1_555 1_555
C3 C2 1_555 1_555
H2 C3 1_555 1_555
C4 N1 1_555 1_555
H3 C4 1_555 1_555
C5 C1 1_555 1_555
C6 O2 1_555 1_555
H4 C6 1_555 1_555
H5 C6 1_555 1_555
C7 C6 1_555 1_555
H6 C7 1_555 1_555
H7 C7 1_555 1_555
H8 C7 1_555 1_555
C8 C1 1_555 1_555
C9 O4 1_555 1_555
H9 C9 1_555 1_555
H10 C9 1_555 1_555
C10 C9 1_555 1_555
H11 C10 1_555 1_555
H12 C10 1_555 1_555
H13 C10 1_555 1_555
C11 C2 1_555 1_555
C12 C11 1_555 1_555
H14 C12 1_555 1_555
C13 C12 1_555 1_555
H15 C13 1_555 1_555
C14 C13 1_555 1_555
H16 C14 1_555 1_555
C15 C14 1_555 1_555
H17 C15 1_555 1_555
C16 C11 1_555 1_555
H18 C16 1_555 1_555
C17 C3 1_555 1_555
C18 C17 1_555 1_555
C19 O7 1_555 1_555
H19 C19 1_555 1_555
H20 C19 1_555 1_555
H21 C19 1_555 1_555
C20 C4 1_555 1_555
C21 C20 1_555 1_555
H22 C21 1_555 1_555
C22 C21 1_555 1_555
H23 C22 1_555 1_555
C23 C22 1_555 1_555
H24 C23 1_555 1_555
C24 C23 1_555 1_555
H25 C24 1_555 1_555
C25 C20 1_555 1_555
H26 C25 1_555 1_555
H27 N1 1_555 1_555
C3 C4 1_555 1_555
C15 C16 1_555 1_555
C24 C25 1_555 1_555

#END
