
#######################################################################
#
#                 Cambridge Crystallographic Data Centre
#                                CCDC 
#
#######################################################################
#
# If this CIF has been generated from an entry in the Cambridge 
# Structural Database, then it will include bibliographic, chemical, 
# crystal, experimental, refinement or atomic coordinate data resulting 
# from the CCDC's data processing and validation procedures.
#
#######################################################################

data_ZAPFAZ
_chemical_formula_moiety         'C12 H10 N1 O2 1+,N1 O3 1-'
_chemical_name_systematic        '4-(3-Carboxyphenyl)pyridinium nitrate'
_symmetry_cell_setting           triclinic
_symmetry_space_group_name_H-M   'P -1'
_symmetry_Int_Tables_number      2
_space_group_name_Hall           '-P 1'
loop_
_symmetry_equiv_pos_site_id
_symmetry_equiv_pos_as_xyz
1 x,y,z
2 -x,-y,-z
_cell_length_a                   5.2545(11)
_cell_length_b                   7.0617(14)
_cell_length_c                   16.469(3)
_cell_angle_alpha                97.39(3)
_cell_angle_beta                 92.96(5)
_cell_angle_gamma                106.05(3)
_cell_volume                     579.953
_exptl_crystal_colour            colorless
_exptl_crystal_description       block
_cell_formula_units_Z            2
loop_
_atom_site_label
_atom_site_type_symbol
_atom_site_fract_x
_atom_site_fract_y
_atom_site_fract_z
N1 N 0.5337(3) 0.8423(2) 0.07114(11)
H1 H 0.6254 0.8387 0.0295
O1 O 0.1639(3) 1.3909(2) 0.43108(10)
O2 O -0.2183(3) 1.2586(2) 0.48279(11)
H2 H -0.1765 1.3685 0.5113
C1 C 0.0785(4) 0.8582(3) 0.27490(12)
C2 C 0.2414(4) 0.8503(3) 0.20449(13)
C3 C 0.1417(4) 0.7172(3) 0.13261(13)
H3 H -0.0275 0.6284 0.1292
C4 C 0.6380(4) 0.9746(3) 0.13859(13)
H4 H 0.8073 1.0623 0.1400
C5 C 0.4953(4) 0.9804(3) 0.20526(13)
H5 H 0.5685 1.0726 0.2519
C6 C 0.1074(4) 1.0373(3) 0.32576(12)
H6 H 0.2408 1.1501 0.3185
C7 C -0.0351(4) 1.2460(3) 0.43713(14)
C8 C -0.1169(4) 0.6893(3) 0.28921(14)
H7 H -0.1356 0.5674 0.2568
C9 C 0.2897(4) 0.7157(3) 0.06729(14)
H8 H 0.2208 0.6260 0.0196
C10 C -0.2581(4) 0.8815(3) 0.39976(14)
H9 H -0.3726 0.8898 0.4404
C11 C -0.0603(4) 1.0497(3) 0.38714(13)
C12 C -0.2820(5) 0.7011(3) 0.35072(14)
H10 H -0.4108 0.5872 0.3595
O3 O 0.2280(3) 0.3289(2) 0.18749(10)
O4 O 0.5525(3) 0.3893(2) 0.10947(10)
N2 N 0.3185(4) 0.3064(2) 0.12032(11)
O5 O 0.1696(3) 0.1940(2) 0.05948(10)
loop_
_geom_bond_atom_site_label_1
_geom_bond_atom_site_label_2
_geom_bond_site_symmetry_1
_geom_bond_site_symmetry_2
N1 H1 1_555 1_555
O1 C7 1_555 1_555
O2 H2 1_555 1_555
C1 C2 1_555 1_555
C2 C3 1_555 1_555
C3 H3 1_555 1_555
C4 N1 1_555 1_555
H4 C4 1_555 1_555
C5 C2 1_555 1_555
H5 C5 1_555 1_555
C6 C1 1_555 1_555
H6 C6 1_555 1_555
C7 O2 1_555 1_555
C8 C1 1_555 1_555
H7 C8 1_555 1_555
C9 N1 1_555 1_555
H8 C9 1_555 1_555
C10 H9 1_555 1_555
C11 C6 1_555 1_555
C12 C8 1_555 1_555
H10 C12 1_555 1_555
O3 N2 1_555 1_555
O4 N2 1_555 1_555
N2 O5 1_555 1_555
C3 C9 1_555 1_555
C4 C5 1_555 1_555
C7 C11 1_555 1_555
C10 C11 1_555 1_555
C10 C12 1_555 1_555

#END
