
#######################################################################
#
#                 Cambridge Crystallographic Data Centre
#                                CCDC 
#
#######################################################################
#
# If this CIF has been generated from an entry in the Cambridge 
# Structural Database, then it will include bibliographic, chemical, 
# crystal, experimental, refinement or atomic coordinate data resulting 
# from the CCDC's data processing and validation procedures.
#
#######################################################################

data_ZAPJEH
_chemical_name_common            1-(4-Chlorophenyl)-1H-tetrazole
_chemical_formula_moiety         'C7 H5 Cl1 N4'
_chemical_name_systematic        1-(4-Chlorophenyl)-1H-1,2,3,4-tetrazole
_symmetry_cell_setting           monoclinic
_symmetry_space_group_name_H-M   'P 21/c'
_symmetry_Int_Tables_number      14
_space_group_name_Hall           '-P 2ybc'
loop_
_symmetry_equiv_pos_site_id
_symmetry_equiv_pos_as_xyz
1 x,y,z
2 -x,1/2+y,1/2-z
3 -x,-y,-z
4 x,1/2-y,1/2+z
_cell_length_a                   3.8626(2)
_cell_length_b                   27.9946(10)
_cell_length_c                   14.4943(5)
_cell_angle_alpha                90
_cell_angle_beta                 95.640(3)
_cell_angle_gamma                90
_cell_volume                     1559.71
_exptl_crystal_colour            white
_exptl_crystal_description       block
_cell_formula_units_Z            8
loop_
_atom_site_label
_atom_site_type_symbol
_atom_site_fract_x
_atom_site_fract_y
_atom_site_fract_z
C1 C 0.6813(6) 0.49499(9) 0.21942(16)
H1 H 0.7806 0.4769 0.1750
C2 C 0.8047(5) 0.44145(7) 0.35903(15)
C3 C 0.8223(6) 0.44243(8) 0.45455(15)
H2 H 0.7443 0.4691 0.4848
C4 C 0.9559(6) 0.40373(8) 0.50482(16)
H3 H 0.9670 0.4040 0.5692
C5 C 1.0728(5) 0.36472(8) 0.45945(15)
C6 C 1.0536(6) 0.36342(8) 0.36386(16)
H4 H 1.1318 0.3368 0.3338
C7 C 0.9169(6) 0.40214(8) 0.31318(15)
H5 H 0.9010 0.4016 0.2487
N1 N 0.5321(6) 0.53656(7) 0.20473(15)
N2 N 0.4223(6) 0.54976(7) 0.28770(15)
N3 N 0.5037(6) 0.51752(7) 0.34968(14)
N4 N 0.6693(4) 0.48236(6) 0.30800(12)
Cl1 Cl 1.24583(17) 0.31657(2) 0.52393(4)
C8 C 0.9963(7) 0.92383(9) 0.51988(17)
H6 H 1.1251 0.9410 0.5663
C9 C 1.0545(6) 0.84159(8) 0.58921(15)
C10 C 1.1628(6) 0.79776(9) 0.56058(17)
H7 H 1.1582 0.7909 0.4977
C11 C 1.2783(6) 0.76411(9) 0.62583(18)
H8 H 1.3517 0.7343 0.6073
C12 C 1.2846(6) 0.77494(8) 0.71897(16)
C13 C 1.1770(6) 0.81872(8) 0.74729(16)
H9 H 1.1841 0.8257 0.8102
C14 C 1.0581(6) 0.85244(8) 0.68223(16)
H10 H 0.9814 0.8821 0.7008
N5 N 0.8456(6) 0.94204(9) 0.44305(16)
N6 N 0.6892(6) 0.90440(10) 0.39623(15)
N7 N 0.7429(6) 0.86506(9) 0.44239(15)
N8 N 0.9373(5) 0.87688(7) 0.52159(12)
Cl2 Cl 1.43462(19) 0.73209(2) 0.80028(5)
loop_
_geom_bond_atom_site_label_1
_geom_bond_atom_site_label_2
_geom_bond_site_symmetry_1
_geom_bond_site_symmetry_2
C1 H1 1_555 1_555
C2 C3 1_555 1_555
C3 H2 1_555 1_555
C4 C3 1_555 1_555
H3 C4 1_555 1_555
C5 C4 1_555 1_555
C6 C5 1_555 1_555
H4 C6 1_555 1_555
C7 C2 1_555 1_555
H5 C7 1_555 1_555
N1 C1 1_555 1_555
N2 N1 1_555 1_555
N3 N2 1_555 1_555
N4 C1 1_555 1_555
Cl1 C5 1_555 1_555
C8 H6 1_555 1_555
C9 C10 1_555 1_555
C10 H7 1_555 1_555
C11 C10 1_555 1_555
H8 C11 1_555 1_555
C12 C11 1_555 1_555
C13 C12 1_555 1_555
H9 C13 1_555 1_555
C14 C9 1_555 1_555
H10 C14 1_555 1_555
N5 C8 1_555 1_555
N6 N5 1_555 1_555
N7 N6 1_555 1_555
N8 C8 1_555 1_555
Cl2 C12 1_555 1_555
C2 N4 1_555 1_555
C6 C7 1_555 1_555
N3 N4 1_555 1_555
C9 N8 1_555 1_555
C13 C14 1_555 1_555
N7 N8 1_555 1_555

#END
