
#######################################################################
#
#                 Cambridge Crystallographic Data Centre
#                                CCDC 
#
#######################################################################
#
# If this CIF has been generated from an entry in the Cambridge 
# Structural Database, then it will include bibliographic, chemical, 
# crystal, experimental, refinement or atomic coordinate data resulting 
# from the CCDC's data processing and validation procedures.
#
#######################################################################

data_ZAPKIM
_chemical_name_common            '3-(quinolin-8-yloxy)phthalic acid'
_chemical_formula_moiety         'C17 H11 N1 O5'
_chemical_name_systematic        2-Carboxy-6-(quinolin-1-ium-8-yloxy)benzoate
_symmetry_cell_setting           monoclinic
_symmetry_space_group_name_H-M   'P 21/c'
_symmetry_Int_Tables_number      14
_space_group_name_Hall           '-P 2ybc'
loop_
_symmetry_equiv_pos_site_id
_symmetry_equiv_pos_as_xyz
1 x,y,z
2 -x,1/2+y,1/2-z
3 -x,-y,-z
4 x,1/2-y,1/2+z
_cell_length_a                   7.7337(15)
_cell_length_b                   11.580(2)
_cell_length_c                   15.260(3)
_cell_angle_alpha                90
_cell_angle_beta                 98.43(3)
_cell_angle_gamma                90
_cell_volume                     1351.86
_exptl_crystal_colour            colorless
_exptl_crystal_description       plate
_cell_formula_units_Z            4
loop_
_atom_site_label
_atom_site_type_symbol
_atom_site_fract_x
_atom_site_fract_y
_atom_site_fract_z
O1 O 0.50110(19) 0.69917(13) 0.20095(9)
O2 O 0.25866(17) 0.79156(12) -0.00275(9)
O3 O 0.2260(2) 0.76160(13) 0.18306(9)
N1 N -0.0436(2) 0.81385(14) 0.07072(11)
O4 O 0.3439(2) 0.47845(13) 0.24357(10)
O5 O 0.4250(2) 0.33268(13) 0.16305(10)
C1 C -0.3499(3) 0.89691(17) -0.02677(15)
H1 H -0.4540 0.9225 -0.0593
C2 C -0.3460(3) 0.86376(18) 0.05908(15)
H2 H -0.4464 0.8680 0.0859
C3 C -0.1888(3) 0.82314(17) 0.10662(14)
H3 H -0.1864 0.8019 0.1656
C4 C -0.1965(3) 0.89267(17) -0.06673(14)
C5 C -0.0436(2) 0.84770(16) -0.01521(12)
C6 C -0.1882(3) 0.93173(18) -0.15387(14)
H4 H -0.2878 0.9605 -0.1886
C7 C -0.0340(3) 0.92718(19) -0.18686(14)
H5 H -0.0286 0.9559 -0.2433
C8 C 0.1181(3) 0.87963(18) -0.13695(13)
H6 H 0.2218 0.8761 -0.1609
C9 C 0.1119(2) 0.83900(16) -0.05353(13)
C10 C 0.2595(2) 0.67061(16) -0.00022(13)
C11 C 0.2268(3) 0.60626(19) -0.07763(13)
H7 H 0.1961 0.6424 -0.1321
C12 C 0.2408(3) 0.4877(2) -0.07202(14)
H8 H 0.2187 0.4433 -0.1232
C13 C 0.2875(3) 0.43417(18) 0.00914(14)
H9 H 0.2971 0.3542 0.0120
C14 C 0.3200(3) 0.49906(17) 0.08628(13)
C15 C 0.3055(2) 0.61968(17) 0.08224(12)
C16 C 0.3644(3) 0.43696(17) 0.17291(13)
C17 C 0.3492(3) 0.69741(16) 0.16191(12)
H10 H 0.447(5) 0.295(4) 0.218(3)
H11 H 0.052(4) 0.794(4) 0.110(2)
loop_
_geom_bond_atom_site_label_1
_geom_bond_atom_site_label_2
_geom_bond_site_symmetry_1
_geom_bond_site_symmetry_2
O1 C17 1_555 1_555
O2 C9 1_555 1_555
O3 C17 1_555 1_555
N1 C3 1_555 1_555
O4 C16 1_555 1_555
O5 C16 1_555 1_555
C1 H1 1_555 1_555
C2 C1 1_555 1_555
H2 C2 1_555 1_555
C3 C2 1_555 1_555
H3 C3 1_555 1_555
C4 C1 1_555 1_555
C5 N1 1_555 1_555
C6 C4 1_555 1_555
H4 C6 1_555 1_555
C7 C6 1_555 1_555
H5 C7 1_555 1_555
C8 C7 1_555 1_555
H6 C8 1_555 1_555
C9 C5 1_555 1_555
C10 O2 1_555 1_555
C11 C10 1_555 1_555
H7 C11 1_555 1_555
C12 C11 1_555 1_555
H8 C12 1_555 1_555
C13 C12 1_555 1_555
H9 C13 1_555 1_555
C14 C13 1_555 1_555
C15 C10 1_555 1_555
C16 C14 1_555 1_555
C17 C15 1_555 1_555
H10 O5 1_555 1_555
H11 N1 1_555 1_555
C4 C5 1_555 1_555
C8 C9 1_555 1_555
C14 C15 1_555 1_555

#END
