
#######################################################################
#
#                 Cambridge Crystallographic Data Centre
#                                CCDC 
#
#######################################################################
#
# If this CIF has been generated from an entry in the Cambridge 
# Structural Database, then it will include bibliographic, chemical, 
# crystal, experimental, refinement or atomic coordinate data resulting 
# from the CCDC's data processing and validation procedures.
#
#######################################################################

data_ZAPKOQ
_chemical_formula_moiety         'C33 H57 N11 6+,F6 Si1 1-,5(B1 F4 1-),7(H2 O1)'
_chemical_name_systematic        
'1,4,8,11,14,18,23,27-Octa-aza-6,16,25(2,6)-tripyridinabicyclo(9.9.9)nonacosaphane hexafluorosilicate tetrafluoroborate heptahydrate'
_symmetry_cell_setting           monoclinic
_symmetry_space_group_name_H-M   'P 21/c'
_symmetry_Int_Tables_number      14
_space_group_name_Hall           '-P 2ybc'
loop_
_symmetry_equiv_pos_site_id
_symmetry_equiv_pos_as_xyz
1 x,y,z
2 -x,1/2+y,1/2-z
3 -x,-y,-z
4 x,1/2-y,1/2+z
_cell_length_a                   16.446(2)
_cell_length_b                   13.829(2)
_cell_length_c                   25.616(2)
_cell_angle_alpha                90
_cell_angle_beta                 91.487(8)
_cell_angle_gamma                90
_cell_volume                     5823.93
_cell_formula_units_Z            4
loop_
_atom_site_label
_atom_site_type_symbol
_atom_site_fract_x
_atom_site_fract_y
_atom_site_fract_z
N1 N 0.8449(4) 0.8567(5) 0.4816(2)
C1 C 0.9326(5) 0.8711(6) 0.4646(3)
C2 C 0.9745(5) 0.7782(6) 0.4486(3)
N2 N 0.9641(4) 0.7589(5) 0.3911(2)
C3 C 1.0286(5) 0.6976(7) 0.3698(3)
C4 C 1.0165(5) 0.6853(7) 0.3112(3)
C5 C 1.0794(6) 0.6900(7) 0.2774(3)
C6 C 1.0628(6) 0.6787(8) 0.2245(4)
C7 C 0.9831(6) 0.6689(8) 0.2064(3)
C8 C 0.9228(5) 0.6676(7) 0.2438(3)
N3 N 0.9389(4) 0.6766(5) 0.2951(2)
C9 C 0.8338(5) 0.6548(7) 0.2294(3)
N4 N 0.8000(4) 0.5751(5) 0.2620(2)
C10 C 0.7185(5) 0.5445(6) 0.2436(3)
C11 C 0.6856(5) 0.4598(6) 0.2740(3)
N5 N 0.6358(4) 0.4867(5) 0.3214(2)
C12 C 0.8458(5) 0.8205(6) 0.5371(3)
C13 C 0.7621(6) 0.7860(6) 0.5541(4)
N6 N 0.7584(6) 0.6805(7) 0.5566(3)
C14 C 0.7771(14) 0.6340(15) 0.5980(9)
C15 C 0.7695(14) 0.5249(14) 0.5894(7)
C16 C 0.7403(10) 0.4576(8) 0.6282(4)
N7 N 0.7740(16) 0.4991(12) 0.5397(6)
C20 C 0.7526(6) 0.3624(7) 0.6197(4)
C21 C 0.7658(5) 0.3300(7) 0.5710(3)
C22 C 0.7659(6) 0.3933(8) 0.5291(4)
C23 C 0.7745(6) 0.3634(8) 0.4736(3)
N10 N 0.6991(4) 0.3937(5) 0.4433(2)
C24 C 0.7031(5) 0.3717(6) 0.3853(3)
C25 C 0.6252(5) 0.3997(6) 0.3561(3)
C26 C 0.8018(5) 0.9530(6) 0.4784(3)
C27 C 0.7727(5) 0.9806(6) 0.4239(3)
N11 N 0.6881(4) 0.9488(5) 0.4118(3)
C28 C 0.6475(5) 0.9945(7) 0.3656(3)
C29 C 0.5594(5) 0.9678(7) 0.3643(3)
C30 C 0.4979(6) 1.0344(7) 0.3628(4)
C31 C 0.4191(7) 1.0036(7) 0.3667(3)
C32 C 0.4032(5) 0.9034(8) 0.3703(3)
C33 C 0.4684(5) 0.8412(7) 0.3702(3)
N12 N 0.5461(4) 0.8718(6) 0.3672(3)
C34 C 0.4597(5) 0.7349(7) 0.3772(3)
N13 N 0.5080(4) 0.6828(5) 0.3382(2)
C35 C 0.5065(5) 0.5758(6) 0.3447(3)
C36 C 0.5529(5) 0.5225(6) 0.3025(3)
H1 H 0.9328(5) 0.9158(6) 0.4353(3)
H2 H 0.9636(5) 0.9003(6) 0.4933(3)
H3 H 1.0321(5) 0.7827(6) 0.4576(3)
H4 H 0.9522(5) 0.7246(6) 0.4681(3)
H5 H 0.9157(4) 0.7299(5) 0.3851(2)
H6 H 0.9632(4) 0.8156(5) 0.3738(2)
H7 H 1.0278(5) 0.6347(7) 0.3867(3)
H8 H 1.0812(5) 0.7270(7) 0.3773(3)
H9 H 1.1323(6) 0.7007(7) 0.2898(3)
H10 H 1.1051(6) 0.6776(8) 0.2010(4)
H11 H 0.9703(6) 0.6634(8) 0.1708(3)
H12 H 0.8046(5) 0.7144(7) 0.2357(3)
H13 H 0.8275(5) 0.6388(7) 0.1925(3)
H14 H 0.8339(4) 0.5240(5) 0.2613(2)
H15 H 0.7974(4) 0.5952(5) 0.2955(2)
H16 H 0.7207(5) 0.5269(6) 0.2068(3)
H17 H 0.6813(5) 0.5986(6) 0.2464(3)
H18 H 0.7309(5) 0.4199(6) 0.2858(3)
H19 H 0.6518(5) 0.4209(6) 0.2504(3)
H20 H 0.8644(5) 0.8719(6) 0.5604(3)
H21 H 0.8841(5) 0.7674(6) 0.5405(3)
H22 H 0.7507(6) 0.8128(6) 0.5883(4)
H23 H 0.7208(6) 0.8094(6) 0.5294(4)
H24 H 0.7071(6) 0.6635(7) 0.5475(3)
H26 H 0.7417(14) 0.6535(15) 0.6259(9)
H34 H 0.7519(6) 0.3192(7) 0.6476(4)
H35 H 0.7751(5) 0.2645(7) 0.5655(3)
H36 H 0.7813(6) 0.2938(8) 0.4716(3)
H37 H 0.8220(6) 0.3939(8) 0.4591(3)
H38 H 0.6917(4) 0.4577(5) 0.4475(2)
H39 H 0.6559(4) 0.3631(5) 0.4564(2)
H40 H 0.7129(5) 0.3032(6) 0.3806(3)
H41 H 0.7483(5) 0.4067(6) 0.3706(3)
H42 H 0.6067(5) 0.3455(6) 0.3349(3)
H43 H 0.5836(5) 0.4135(6) 0.3813(3)
H44 H 0.7554(5) 0.9511(6) 0.5011(3)
H45 H 0.8385(5) 1.0027(6) 0.4917(3)
H46 H 0.7759(5) 1.0503(6) 0.4202(3)
H47 H 0.8086(5) 0.9519(6) 0.3986(3)
H48 H 0.6884(4) 0.8844(5) 0.4068(3)
H49 H 0.6579(4) 0.9607(5) 0.4400(3)
H50 H 0.6726(5) 0.9724(7) 0.3337(3)
H51 H 0.6532(5) 1.0642(7) 0.3676(3)
H52 H 0.5094(6) 1.0999(7) 0.3592(4)
H53 H 0.3767(7) 1.0480(7) 0.3669(3)
H54 H 0.3504(5) 0.8804(8) 0.3728(3)
H55 H 0.4782(5) 0.7169(7) 0.4123(3)
H56 H 0.4029(5) 0.7169(7) 0.3732(3)
H57 H 0.5599(4) 0.7033(5) 0.3407(2)
H58 H 0.4887(4) 0.6976(5) 0.3059(2)
H59 H 0.4505(5) 0.5539(6) 0.3439(3)
H60 H 0.5301(5) 0.5594(6) 0.3788(3)
H61 H 0.5207(5) 0.4677(6) 0.2904(3)
H62 H 0.5598(5) 0.5655(6) 0.2729(3)
Si1 Si 0.7394(1) 0.6739(2) 0.4003(1)
F1 F 0.7972(3) 0.5942(4) 0.3693(2)
F2 F 0.6825(3) 0.5824(4) 0.4199(2)
F3 F 0.6816(3) 0.7520(4) 0.4320(2)
F4 F 0.7945(3) 0.7684(4) 0.3791(2)
F5 F 0.8023(3) 0.6665(3) 0.4531(2)
F6 F 0.6798(3) 0.6817(3) 0.3452(2)
B1 B 0.3400(6) 0.6708(8) 0.2418(4)
F7 F 0.3581(5) 0.7447(4) 0.2749(2)
F8 F 0.3980(4) 0.5996(5) 0.2488(2)
F9 F 0.2670(3) 0.6275(5) 0.2533(2)
F10 F 0.3367(4) 0.7012(4) 0.1907(2)
B2 B 0.9142(7) 0.1717(9) 0.4240(4)
F11 F 0.9428(4) 0.0845(4) 0.4066(3)
F12 F 0.9772(4) 0.2374(4) 0.4246(2)
F13 F 0.8537(3) 0.2037(4) 0.3904(2)
F14 F 0.8843(3) 0.1616(4) 0.4732(2)
B3 B 1.1557(7) 0.9432(10) 0.3757(5)
F15 F 1.1117(6) 0.9807(8) 0.3329(4)
F16 F 1.1896(5) 0.8628(5) 0.3564(4)
F17 F 1.1010(4) 0.9299(6) 0.4131(2)
F18 F 1.2121(5) 1.0100(5) 0.3867(3)
B4 B 0.6047(9) 1.1786(10) 0.4781(5)
F19 F 0.6753(6) 1.1305(6) 0.4762(6)
F20 F 0.5884(7) 1.2202(6) 0.4306(3)
F21 F 0.6155(5) 1.2567(5) 0.5106(3)
F22 F 0.5464(5) 1.1191(7) 0.4931(3)
B5 B 0.3930(10) 0.2877(14) 0.2970(8)
F23 F 0.3230(9) 0.3344(8) 0.2538(7)
F24 F 0.4172(6) 0.3615(6) 0.3156(3)
F25 F 0.3443(4) 0.2288(5) 0.3286(3)
F26 F 0.4321(4) 0.2317(5) 0.2638(2)
O1 O 0.6102(4) 0.9335(6) 0.5070(3)
O2 O 0.9478(6) 0.9196(6) 0.3271(3)
O3 O 0.1918(6) 0.4462(8) 0.2410(4)
O4 O 0.8917(7) 0.4189(7) 0.2716(4)
O5 O 0.9726(8) 0.4002(10) 0.3663(5)
O6 O 0.8660(8) 0.6490(10) 0.6544(4)
O7 O 0.5813(10) 0.7185(16) 0.5478(8)
N8? N 0.7584(6) 0.6805(7) 0.5566(3)
C17? C 0.6955(11) 0.6195(13) 0.5788(7)
C18? C 0.7165(13) 0.5114(13) 0.5795(7)
C19? C 0.7403(10) 0.4576(8) 0.6282(4)
N9? N 0.7325(12) 0.4710(16) 0.5321(7)
Si2? Si 0.5000 0.5000 0.5000
F27? F 0.5272(8) 0.4617(10) 0.4616(5)
F28? F 0.5314(8) 0.6050(10) 0.4781(5)
F29? F 0.5817(8) 0.4831(10) 0.5239(5)
Si3? Si -0.0226(6) 0.4508(7) 0.5232(4)
F30? F 0.0611(11) 0.5748(13) 0.4996(7)
F31? F -0.0370(10) 0.5060(12) 0.4466(6)
F32? F -0.0749(10) 0.5788(12) 0.5354(6)
H25? H 0.7905(6) 0.6580(7) 0.5313(3)
H27? H 0.8326(14) 0.6494(15) 0.6088(9)
H28? H 0.7141(10) 0.4792(8) 0.6579(4)
H29? H 0.7626(11) 0.6605(13) 0.5232(7)
H30? H 0.8050(11) 0.6625(13) 0.5732(7)
H31? H 0.6452(11) 0.6286(13) 0.5586(7)
H32? H 0.6861(11) 0.6405(13) 0.6144(7)
H33? H 0.7460(12) 0.4866(16) 0.6610(7)
loop_
_geom_bond_atom_site_label_1
_geom_bond_atom_site_label_2
_geom_bond_site_symmetry_1
_geom_bond_site_symmetry_2
N1 C1 1_555 1_555
C1 C2 1_555 1_555
C2 N2 1_555 1_555
N2 C3 1_555 1_555
C3 C4 1_555 1_555
C4 C5 1_555 1_555
C5 C6 1_555 1_555
C6 C7 1_555 1_555
C7 C8 1_555 1_555
C8 N3 1_555 1_555
N3 C4 1_555 1_555
C9 C8 1_555 1_555
N4 C9 1_555 1_555
C10 N4 1_555 1_555
C11 C10 1_555 1_555
N5 C11 1_555 1_555
C12 N1 1_555 1_555
C13 C12 1_555 1_555
N6 C13 1_555 1_555
C14 N6 1_555 1_555
C15 C14 1_555 1_555
C16 C15 1_555 1_555
N7 C15 1_555 1_555
C20 C16 1_555 1_555
C21 C20 1_555 1_555
C22 N7 1_555 1_555
C23 C22 1_555 1_555
N10 C23 1_555 1_555
C24 N10 1_555 1_555
C25 N5 1_555 1_555
C26 N1 1_555 1_555
C27 C26 1_555 1_555
N11 C27 1_555 1_555
C28 N11 1_555 1_555
C29 C28 1_555 1_555
C30 C29 1_555 1_555
C31 C30 1_555 1_555
C32 C31 1_555 1_555
C33 C32 1_555 1_555
N12 C29 1_555 1_555
C34 C33 1_555 1_555
N13 C34 1_555 1_555
C35 N13 1_555 1_555
C36 N5 1_555 1_555
Si1 F1 1_555 1_555
F2 Si1 1_555 1_555
F3 Si1 1_555 1_555
F4 Si1 1_555 1_555
F5 Si1 1_555 1_555
F6 Si1 1_555 1_555
B1 F7 1_555 1_555
F8 B1 1_555 1_555
F9 B1 1_555 1_555
F10 B1 1_555 1_555
B2 F11 1_555 1_555
F12 B2 1_555 1_555
F13 B2 1_555 1_555
F14 B2 1_555 1_555
B3 F15 1_555 1_555
F16 B3 1_555 1_555
F17 B3 1_555 1_555
F18 B3 1_555 1_555
B4 F19 1_555 1_555
F20 B4 1_555 1_555
F21 B4 1_555 1_555
F22 B4 1_555 1_555
B5 F23 1_555 1_555
F24 B5 1_555 1_555
F25 B5 1_555 1_555
F26 B5 1_555 1_555
H1 C1 1_555 1_555
H2 C1 1_555 1_555
H3 C2 1_555 1_555
H4 C2 1_555 1_555
H5 N2 1_555 1_555
H6 N2 1_555 1_555
H7 C3 1_555 1_555
H8 C3 1_555 1_555
H9 C5 1_555 1_555
H10 C6 1_555 1_555
H11 C7 1_555 1_555
H12 C9 1_555 1_555
H13 C9 1_555 1_555
H14 N4 1_555 1_555
H15 N4 1_555 1_555
H16 C10 1_555 1_555
H17 C10 1_555 1_555
H18 C11 1_555 1_555
H19 C11 1_555 1_555
H20 C12 1_555 1_555
H21 C12 1_555 1_555
H22 C13 1_555 1_555
H23 C13 1_555 1_555
H24 N6 1_555 1_555
H26 C14 1_555 1_555
H34 C20 1_555 1_555
H35 C21 1_555 1_555
H36 C23 1_555 1_555
H37 C23 1_555 1_555
H38 N10 1_555 1_555
H39 N10 1_555 1_555
H40 C24 1_555 1_555
H41 C24 1_555 1_555
H42 C25 1_555 1_555
H43 C25 1_555 1_555
H44 C26 1_555 1_555
H45 C26 1_555 1_555
H46 C27 1_555 1_555
H47 C27 1_555 1_555
H48 N11 1_555 1_555
H49 N11 1_555 1_555
H50 C28 1_555 1_555
H51 C28 1_555 1_555
H52 C30 1_555 1_555
H53 C31 1_555 1_555
H54 C32 1_555 1_555
H55 C34 1_555 1_555
H56 C34 1_555 1_555
H57 N13 1_555 1_555
H58 N13 1_555 1_555
H59 C35 1_555 1_555
H60 C35 1_555 1_555
H61 C36 1_555 1_555
H62 C36 1_555 1_555
C21 C22 1_555 1_555
C24 C25 1_555 1_555
C33 N12 1_555 1_555
C35 C36 1_555 1_555

#END
