
#######################################################################
#
#                 Cambridge Crystallographic Data Centre
#                                CCDC 
#
#######################################################################
#
# If this CIF has been generated from an entry in the Cambridge 
# Structural Database, then it will include bibliographic, chemical, 
# crystal, experimental, refinement or atomic coordinate data resulting 
# from the CCDC's data processing and validation procedures.
#
#######################################################################

data_ZAPLIN
_chemical_formula_moiety         'C35 H24 N4 O2'
_chemical_name_systematic        
4,4'-((4-(2,2':6',2''-Terpyridin-4'-yl)phenyl)imino)dibenzaldehyde
_symmetry_cell_setting           orthorhombic
_symmetry_space_group_name_H-M   'P b c a'
_symmetry_Int_Tables_number      61
_space_group_name_Hall           '-P 2ac 2ab'
loop_
_symmetry_equiv_pos_site_id
_symmetry_equiv_pos_as_xyz
1 x,y,z
2 1/2-x,-y,1/2+z
3 -x,1/2+y,1/2-z
4 1/2+x,1/2-y,-z
5 -x,-y,-z
6 1/2+x,y,1/2-z
7 x,1/2-y,1/2+z
8 1/2-x,1/2+y,z
_cell_length_a                   11.2518(14)
_cell_length_b                   18.380(2)
_cell_length_c                   25.860(3)
_cell_angle_alpha                90
_cell_angle_beta                 90
_cell_angle_gamma                90
_cell_volume                     5348.06
_exptl_crystal_colour            yellow
_exptl_crystal_description       block
_cell_formula_units_Z            8
loop_
_atom_site_label
_atom_site_type_symbol
_atom_site_fract_x
_atom_site_fract_y
_atom_site_fract_z
C1 C 0.34362(17) 1.12523(9) 0.52197(7)
C2 C 0.40956(19) 1.17424(10) 0.49311(8)
H1 H 0.4919 1.1706 0.4917
C3 C 0.3512(2) 1.22853(11) 0.46644(9)
H2 H 0.3937 1.2616 0.4465
C4 C 0.2298(2) 1.23319(12) 0.46969(10)
H3 H 0.1882 1.2694 0.4522
C5 C 0.1719(2) 1.18318(13) 0.49930(11)
H4 H 0.0896 1.1867 0.5016
C6 C 0.40117(15) 1.06344(9) 0.54985(6)
C7 C 0.33297(15) 1.00924(9) 0.57239(7)
H5 H 0.2505 1.0116 0.5707
C8 C 0.38747(15) 0.95134(9) 0.59748(7)
C9 C 0.51034(15) 0.95181(9) 0.59970(6)
H6 H 0.5504 0.9149 0.6171
C10 C 0.57403(15) 1.00742(9) 0.57600(6)
C11 C 0.70587(15) 1.00773(9) 0.57624(7)
C12 C 0.76956(17) 1.05690(11) 0.54670(8)
H7 H 0.7300 1.0910 0.5264
C13 C 0.89120(19) 1.05502(13) 0.54752(9)
H8 H 0.9352 1.0875 0.5277
C14 C 0.94687(18) 1.00474(13) 0.57796(9)
H9 H 1.0294 1.0023 0.5793
C15 C 0.87852(19) 0.95816(14) 0.60630(10)
H10 H 0.9169 0.9240 0.6269
C16 C 0.31729(15) 0.88945(9) 0.61836(7)
C17 C 0.34900(15) 0.85442(10) 0.66384(7)
H11 H 0.4140 0.8711 0.6826
C18 C 0.28553(15) 0.79505(10) 0.68166(7)
H12 H 0.3082 0.7723 0.7122
C19 C 0.18861(15) 0.76917(9) 0.65435(7)
C20 C 0.15636(16) 0.80334(11) 0.60891(7)
H13 H 0.0920 0.7861 0.5899
C21 C 0.21940(16) 0.86300(10) 0.59159(7)
H14 H 0.1957 0.8860 0.5613
C22 C -0.00413(15) 0.71474(9) 0.67351(6)
C23 C -0.07646(16) 0.65568(10) 0.66192(7)
H15 H -0.0426 0.6107 0.6546
C24 C -0.19783(17) 0.66359(12) 0.66123(8)
H16 H -0.2454 0.6235 0.6541
C25 C -0.25059(18) 0.73015(12) 0.67098(8)
C26 C -0.17818(18) 0.78851(11) 0.68230(8)
H17 H -0.2124 0.8337 0.6887
C27 C -0.05665(17) 0.78156(10) 0.68434(7)
H18 H -0.0097 0.8214 0.6929
C28 C -0.3793(2) 0.74042(18) 0.66989(12)
H19 H -0.4093 0.7851 0.6806
C29 C 0.17967(15) 0.64554(9) 0.69077(7)
C30 C 0.28969(15) 0.62576(10) 0.67059(8)
H20 H 0.3239 0.6534 0.6444
C31 C 0.34788(17) 0.56553(10) 0.68920(8)
H21 H 0.4217 0.5531 0.6757
C32 C 0.29803(17) 0.52300(10) 0.72789(9)
C33 C 0.18863(18) 0.54246(11) 0.74709(9)
H22 H 0.1538 0.5139 0.7726
C34 C 0.12955(16) 0.60295(10) 0.72950(8)
H23 H 0.0561 0.6154 0.7435
C35 C 0.3592(2) 0.45935(13) 0.74879(12)
H24 H 0.3214 0.4347 0.7756
N1 N 0.22517(15) 1.12938(9) 0.52524(7)
N2 N 0.52047(13) 1.06278(7) 0.55086(5)
N3 N 0.75941(15) 0.95862(10) 0.60629(7)
N4 N 0.12091(12) 0.70849(8) 0.67281(6)
O1 O 0.45218(17) 0.43587(9) 0.73507(9)
O2 O -0.44856(17) 0.69503(14) 0.65606(10)
loop_
_geom_bond_atom_site_label_1
_geom_bond_atom_site_label_2
_geom_bond_site_symmetry_1
_geom_bond_site_symmetry_2
C1 C2 1_555 1_555
C2 H1 1_555 1_555
C3 C2 1_555 1_555
H2 C3 1_555 1_555
C4 C3 1_555 1_555
H3 C4 1_555 1_555
C5 C4 1_555 1_555
H4 C5 1_555 1_555
C6 C1 1_555 1_555
C7 C6 1_555 1_555
H5 C7 1_555 1_555
C8 C7 1_555 1_555
C9 C8 1_555 1_555
H6 C9 1_555 1_555
C10 C9 1_555 1_555
C11 C10 1_555 1_555
C12 C11 1_555 1_555
H7 C12 1_555 1_555
C13 C12 1_555 1_555
H8 C13 1_555 1_555
C14 C13 1_555 1_555
H9 C14 1_555 1_555
C15 C14 1_555 1_555
H10 C15 1_555 1_555
C16 C8 1_555 1_555
C17 C16 1_555 1_555
H11 C17 1_555 1_555
C18 C17 1_555 1_555
H12 C18 1_555 1_555
C19 C18 1_555 1_555
C20 C19 1_555 1_555
H13 C20 1_555 1_555
C21 C16 1_555 1_555
H14 C21 1_555 1_555
C22 C23 1_555 1_555
C23 H15 1_555 1_555
C24 C23 1_555 1_555
H16 C24 1_555 1_555
C25 C24 1_555 1_555
C26 C25 1_555 1_555
H17 C26 1_555 1_555
C27 C22 1_555 1_555
H18 C27 1_555 1_555
C28 C25 1_555 1_555
H19 C28 1_555 1_555
C29 C30 1_555 1_555
C30 H20 1_555 1_555
C31 C30 1_555 1_555
H21 C31 1_555 1_555
C32 C31 1_555 1_555
C33 C32 1_555 1_555
H22 C33 1_555 1_555
C34 C29 1_555 1_555
H23 C34 1_555 1_555
C35 C32 1_555 1_555
H24 C35 1_555 1_555
N1 C1 1_555 1_555
N2 C6 1_555 1_555
N3 C11 1_555 1_555
N4 C19 1_555 1_555
O1 C35 1_555 1_555
O2 C28 1_555 1_555
C5 N1 1_555 1_555
C10 N2 1_555 1_555
C15 N3 1_555 1_555
C20 C21 1_555 1_555
C22 N4 1_555 1_555
C26 C27 1_555 1_555
C29 N4 1_555 1_555
C33 C34 1_555 1_555

#END
