
#######################################################################
#
#                 Cambridge Crystallographic Data Centre
#                                CCDC 
#
#######################################################################
#
# If this CIF has been generated from an entry in the Cambridge 
# Structural Database, then it will include bibliographic, chemical, 
# crystal, experimental, refinement or atomic coordinate data resulting 
# from the CCDC's data processing and validation procedures.
#
#######################################################################

data_ZAPNUB
_chemical_formula_moiety         'C24 H19 N3 O1'
_chemical_name_systematic        
1-[3-(Anthracen-9-yl)-5-(pyridin-2-yl)-4,5-dihydro-1H-pyrazol-1-yl]ethanone
_symmetry_cell_setting           monoclinic
_symmetry_space_group_name_H-M   'P 21/c'
_symmetry_Int_Tables_number      14
_space_group_name_Hall           '-P 2ybc'
loop_
_symmetry_equiv_pos_site_id
_symmetry_equiv_pos_as_xyz
1 x,y,z
2 -x,1/2+y,1/2-z
3 -x,-y,-z
4 x,1/2-y,1/2+z
_cell_length_a                   10.1768(8)
_cell_length_b                   23.6035(18)
_cell_length_c                   7.9994(7)
_cell_angle_alpha                90
_cell_angle_beta                 109.134(3)
_cell_angle_gamma                90
_cell_volume                     1815.37
_exptl_crystal_colour            colorless
_exptl_crystal_description       prism
_cell_formula_units_Z            4
_exptl_crystal_recrystallization_method 'ethyl acetate/petroleum ether'
loop_
_atom_site_label
_atom_site_type_symbol
_atom_site_fract_x
_atom_site_fract_y
_atom_site_fract_z
O1 O 0.56753(10) 1.02852(4) 0.79960(12)
N1 N 0.71048(10) 0.91596(4) 0.62713(13)
N2 N 0.67267(10) 0.97037(4) 0.66237(13)
N3 N 0.96041(11) 1.02330(5) 0.76512(14)
C1 C 0.96119(13) 0.85347(5) 0.51788(16)
C2 C 1.05711(13) 0.88660(5) 0.65379(17)
H1 H 1.0268 0.9196 0.6931
C3 C 1.19243(14) 0.87026(6) 0.72619(18)
H2 H 1.2528 0.8918 0.8163
C4 C 1.24244(14) 0.82064(6) 0.66544(19)
H3 H 1.3355 0.8104 0.7139
C5 C 1.15428(14) 0.78817(6) 0.53671(18)
H4 H 1.1883 0.7561 0.4971
C6 C 1.01021(13) 0.80235(5) 0.46098(16)
C7 C 0.91593(14) 0.76766(5) 0.33701(17)
H5 H 0.9479 0.7345 0.3007
C8 C 0.77543(14) 0.78134(5) 0.26632(16)
C9 C 0.67714(15) 0.74428(6) 0.14834(18)
H6 H 0.7073 0.7099 0.1173
C10 C 0.54048(15) 0.75826(6) 0.08056(18)
H7 H 0.4782 0.7336 0.0035
C11 C 0.49232(14) 0.81050(6) 0.12697(17)
H8 H 0.3987 0.8200 0.0787
C12 C 0.58172(13) 0.84699(5) 0.24163(16)
H9 H 0.5483 0.8809 0.2711
C13 C 0.72615(13) 0.83364(5) 0.31691(16)
C14 C 0.82019(13) 0.86851(5) 0.44328(15)
C15 C 0.76793(12) 0.92032(5) 0.50670(15)
C16 C 0.77237(12) 0.97959(5) 0.43933(16)
H10 H 0.7102 0.9837 0.3187
H11 H 0.8659 0.9900 0.4446
C17 C 0.72303(12) 1.01539(5) 0.56842(16)
H12 H 0.6460 1.0402 0.5030
C18 C 0.83723(12) 1.04959(5) 0.69927(15)
C19 C 0.81301(14) 1.10378(5) 0.74894(17)
H13 H 0.7262 1.1206 0.7005
C20 C 0.92081(15) 1.13239(6) 0.87233(18)
H14 H 0.9077 1.1690 0.9069
C21 C 1.04791(14) 1.10572(6) 0.94313(17)
H15 H 1.1217 1.1237 1.0271
C22 C 1.06228(14) 1.05162(6) 0.88576(17)
H16 H 1.1479 1.0337 0.9337
C23 C 0.59907(12) 0.97977(5) 0.77386(16)
C24 C 0.55832(13) 0.92892(6) 0.85831(17)
H17 H 0.5094 0.9410 0.9363
H18 H 0.6403 0.9084 0.9245
H19 H 0.4992 0.9048 0.7681
loop_
_geom_bond_atom_site_label_1
_geom_bond_atom_site_label_2
_geom_bond_site_symmetry_1
_geom_bond_site_symmetry_2
O1 C23 1_555 1_555
N1 N2 1_555 1_555
N2 C17 1_555 1_555
N3 C18 1_555 1_555
C1 C2 1_555 1_555
C2 H1 1_555 1_555
C3 C2 1_555 1_555
H2 C3 1_555 1_555
C4 C3 1_555 1_555
H3 C4 1_555 1_555
C5 C4 1_555 1_555
H4 C5 1_555 1_555
C6 C1 1_555 1_555
C7 C6 1_555 1_555
H5 C7 1_555 1_555
C8 C7 1_555 1_555
C9 C8 1_555 1_555
H6 C9 1_555 1_555
C10 C9 1_555 1_555
H7 C10 1_555 1_555
C11 C10 1_555 1_555
H8 C11 1_555 1_555
C12 C11 1_555 1_555
H9 C12 1_555 1_555
C13 C8 1_555 1_555
C14 C1 1_555 1_555
C15 N1 1_555 1_555
C16 C15 1_555 1_555
H10 C16 1_555 1_555
H11 C16 1_555 1_555
C17 C16 1_555 1_555
H12 C17 1_555 1_555
C18 C17 1_555 1_555
C19 C18 1_555 1_555
H13 C19 1_555 1_555
C20 C19 1_555 1_555
H14 C20 1_555 1_555
C21 C20 1_555 1_555
H15 C21 1_555 1_555
C22 N3 1_555 1_555
H16 C22 1_555 1_555
C23 N2 1_555 1_555
C24 C23 1_555 1_555
H17 C24 1_555 1_555
H18 C24 1_555 1_555
H19 C24 1_555 1_555
C5 C6 1_555 1_555
C12 C13 1_555 1_555
C13 C14 1_555 1_555
C14 C15 1_555 1_555
C21 C22 1_555 1_555

#END
