
#######################################################################
#
#                 Cambridge Crystallographic Data Centre
#                                CCDC 
#
#######################################################################
#
# If this CIF has been generated from an entry in the Cambridge 
# Structural Database, then it will include bibliographic, chemical, 
# crystal, experimental, refinement or atomic coordinate data resulting 
# from the CCDC's data processing and validation procedures.
#
#######################################################################

data_ZAPNEL
_chemical_formula_moiety         'C12 H11 N1 O2'
_chemical_name_systematic        4-(Pyridin-4-ylmethoxy)phenol
_symmetry_cell_setting           orthorhombic
_symmetry_space_group_name_H-M   'P c a 21'
_symmetry_Int_Tables_number      29
_space_group_name_Hall           'P 2c -2ac'
loop_
_symmetry_equiv_pos_site_id
_symmetry_equiv_pos_as_xyz
1 x,y,z
2 -x,-y,1/2+z
3 1/2+x,-y,z
4 1/2-x,y,1/2+z
_cell_length_a                   23.398(5)
_cell_length_b                   5.8343(12)
_cell_length_c                   7.3934(15)
_cell_angle_alpha                90
_cell_angle_beta                 90
_cell_angle_gamma                90
_cell_volume                     1009.28
_exptl_crystal_colour            colorless
_exptl_crystal_description       block
_cell_formula_units_Z            4
loop_
_atom_site_label
_atom_site_type_symbol
_atom_site_fract_x
_atom_site_fract_y
_atom_site_fract_z
O1 O 0.68990(6) 0.4700(3) 0.0425(3)
H1 H 0.7109 0.3578 0.0381
O2 O 0.46554(6) 0.1873(3) -0.0201(2)
N1 N 0.26917(7) -0.1195(3) 0.0264(3)
C1 C 0.59170(9) 0.5453(4) 0.0842(3)
H2 H 0.6014 0.6865 0.1339
C2 C 0.36646(8) 0.1609(4) 0.0395(3)
C3 C 0.41925(8) 0.3104(4) 0.0562(3)
H3 H 0.4137 0.4538 -0.0078
H4 H 0.4269 0.3444 0.1824
C4 C 0.36737(9) -0.0462(4) -0.0507(3)
H5 H 0.4003 -0.0958 -0.1091
C5 C 0.53418(9) 0.4830(4) 0.0713(3)
H6 H 0.5057 0.5825 0.1107
C6 C 0.52013(8) 0.2740(4) 0.0000(3)
C7 C 0.63411(8) 0.4011(4) 0.0247(3)
C8 C 0.61922(9) 0.1936(4) -0.0516(4)
H7 H 0.6475 0.0958 -0.0948
C9 C 0.31568(9) 0.2274(4) 0.1199(3)
H8 H 0.3132 0.3668 0.1804
C10 C 0.26894(9) 0.0849(4) 0.1093(3)
H9 H 0.2351 0.1333 0.1629
C11 C 0.56238(9) 0.1309(4) -0.0638(4)
H10 H 0.5526 -0.0089 -0.1156
C12 C 0.31825(8) -0.1789(4) -0.0526(3)
H11 H 0.3196 -0.3186 -0.1131
loop_
_geom_bond_atom_site_label_1
_geom_bond_atom_site_label_2
_geom_bond_site_symmetry_1
_geom_bond_site_symmetry_2
O1 H1 1_555 1_555
O2 C3 1_555 1_555
N1 C10 1_555 1_555
C1 H2 1_555 1_555
C2 C3 1_555 1_555
C3 H3 1_555 1_555
H4 C3 1_555 1_555
C4 C2 1_555 1_555
H5 C4 1_555 1_555
C5 C1 1_555 1_555
H6 C5 1_555 1_555
C6 O2 1_555 1_555
C7 O1 1_555 1_555
C8 C7 1_555 1_555
H7 C8 1_555 1_555
C9 C2 1_555 1_555
H8 C9 1_555 1_555
C10 C9 1_555 1_555
H9 C10 1_555 1_555
C11 C6 1_555 1_555
H10 C11 1_555 1_555
C12 N1 1_555 1_555
H11 C12 1_555 1_555
C1 C7 1_555 1_555
C4 C12 1_555 1_555
C5 C6 1_555 1_555
C8 C11 1_555 1_555

#END
