
#######################################################################
#
#                 Cambridge Crystallographic Data Centre
#                                CCDC 
#
#######################################################################
#
# If this CIF has been generated from an entry in the Cambridge 
# Structural Database, then it will include bibliographic, chemical, 
# crystal, experimental, refinement or atomic coordinate data resulting 
# from the CCDC's data processing and validation procedures.
#
#######################################################################

data_ZAPQEP
_chemical_formula_moiety         'C20 H16 O2'
_chemical_name_systematic        
3-methyl-1-phenyl-9,10-dihydro-4H-benzo[4,5]cyclohepta[1,2-c]furan-4-one
_symmetry_cell_setting           monoclinic
_symmetry_space_group_name_H-M   'P 21/c'
_symmetry_Int_Tables_number      14
_space_group_name_Hall           '-P 2ybc'
loop_
_symmetry_equiv_pos_site_id
_symmetry_equiv_pos_as_xyz
1 x,y,z
2 -x,1/2+y,1/2-z
3 -x,-y,-z
4 x,1/2-y,1/2+z
_cell_length_a                   5.5202(9)
_cell_length_b                   22.281(4)
_cell_length_c                   11.6371(19)
_cell_angle_alpha                90
_cell_angle_beta                 90.287(3)
_cell_angle_gamma                90
_cell_volume                     1431.29
_exptl_crystal_colour            colorless
_exptl_crystal_description       block
_cell_formula_units_Z            4
loop_
_atom_site_label
_atom_site_type_symbol
_atom_site_fract_x
_atom_site_fract_y
_atom_site_fract_z
O1 O 0.31522(19) 0.55656(5) 0.80321(9)
O2 O 0.5933(2) 0.60260(5) 0.48462(9)
C1 C 0.2229(3) 0.53144(7) 0.60689(14)
H1 H 0.2956 0.4916 0.5980
H2 H 0.2215 0.5521 0.5325
H3 H 0.0565 0.5272 0.6347
C2 C 0.3677(3) 0.56710(7) 0.69125(13)
C3 C 0.5464(3) 0.60993(6) 0.68407(13)
C4 C 0.6562(3) 0.62795(7) 0.57413(13)
C5 C 0.8530(3) 0.67435(7) 0.56676(13)
C6 C 1.0093(3) 0.66855(7) 0.47277(13)
H4 H 0.9866 0.6361 0.4208
C7 C 1.1955(3) 0.70877(8) 0.45382(14)
H5 H 1.3019 0.7035 0.3907
C8 C 1.2249(3) 0.75685(8) 0.52784(15)
H6 H 1.3504 0.7852 0.5147
C9 C 1.0724(3) 0.76380(7) 0.62096(14)
H7 H 1.0942 0.7972 0.6706
C10 C 0.8867(3) 0.72278(7) 0.64373(13)
C11 C 0.7365(3) 0.73129(7) 0.75019(13)
H8 H 0.5638 0.7349 0.7279
H9 H 0.7852 0.7691 0.7885
C12 C 0.7658(3) 0.67888(7) 0.83545(13)
H10 H 0.9368 0.6654 0.8366
H11 H 0.7232 0.6925 0.9137
C13 C 0.6048(3) 0.62741(7) 0.80120(13)
C14 C 0.4631(3) 0.59319(7) 0.87047(13)
C15 C 0.4273(3) 0.58688(7) 0.99456(13)
C16 C 0.5991(3) 0.60707(7) 1.07512(14)
H12 H 0.7454 0.6249 1.0493
C17 C 0.5570(3) 0.60124(7) 1.19215(14)
H13 H 0.6728 0.6161 1.2457
C18 C 0.3482(3) 0.57398(7) 1.23152(14)
H14 H 0.3212 0.5696 1.3116
C19 C 0.1782(3) 0.55303(8) 1.15242(14)
H15 H 0.0352 0.5338 1.1788
C20 C 0.2158(3) 0.55995(7) 1.03519(14)
H16 H 0.0966 0.5463 0.9822
loop_
_geom_bond_atom_site_label_1
_geom_bond_atom_site_label_2
_geom_bond_site_symmetry_1
_geom_bond_site_symmetry_2
O1 C2 1_555 1_555
O2 C4 1_555 1_555
C1 H1 1_555 1_555
H2 C1 1_555 1_555
H3 C1 1_555 1_555
C2 C1 1_555 1_555
C3 C2 1_555 1_555
C4 C3 1_555 1_555
C5 C4 1_555 1_555
C6 C5 1_555 1_555
H4 C6 1_555 1_555
C7 C6 1_555 1_555
H5 C7 1_555 1_555
C8 C7 1_555 1_555
H6 C8 1_555 1_555
C9 C8 1_555 1_555
H7 C9 1_555 1_555
C10 C5 1_555 1_555
C11 C10 1_555 1_555
H8 C11 1_555 1_555
H9 C11 1_555 1_555
C12 C11 1_555 1_555
H10 C12 1_555 1_555
H11 C12 1_555 1_555
C13 C3 1_555 1_555
C14 O1 1_555 1_555
C15 C14 1_555 1_555
C16 C15 1_555 1_555
H12 C16 1_555 1_555
C17 C16 1_555 1_555
H13 C17 1_555 1_555
C18 C17 1_555 1_555
H14 C18 1_555 1_555
C19 C18 1_555 1_555
H15 C19 1_555 1_555
C20 C15 1_555 1_555
H16 C20 1_555 1_555
C9 C10 1_555 1_555
C12 C13 1_555 1_555
C13 C14 1_555 1_555
C19 C20 1_555 1_555

#END
