
#######################################################################
#
#                 Cambridge Crystallographic Data Centre
#                                CCDC 
#
#######################################################################
#
# If this CIF has been generated from an entry in the Cambridge 
# Structural Database, then it will include bibliographic, chemical, 
# crystal, experimental, refinement or atomic coordinate data resulting 
# from the CCDC's data processing and validation procedures.
#
#######################################################################

data_ZAPSAM
_chemical_formula_moiety         'C16 H19 N1 O1 S1'
_chemical_name_systematic        (R)-N-(Biphenyl-4-yl)-t-butanesulfinamide
_symmetry_cell_setting           orthorhombic
_symmetry_space_group_name_H-M   'P 21 21 21'
_symmetry_Int_Tables_number      19
_space_group_name_Hall           'P 2ac 2ab'
loop_
_symmetry_equiv_pos_site_id
_symmetry_equiv_pos_as_xyz
1 x,y,z
2 1/2-x,-y,1/2+z
3 1/2+x,1/2-y,-z
4 -x,1/2+y,1/2-z
_cell_length_a                   9.3588(5)
_cell_length_b                   11.9452(5)
_cell_length_c                   13.3136(7)
_cell_angle_alpha                90
_cell_angle_beta                 90
_cell_angle_gamma                90
_cell_volume                     1488.36
_exptl_crystal_colour            colorless
_exptl_crystal_description       block
_chemical_melting_point          '427 K'
_cell_formula_units_Z            4
loop_
_atom_site_label
_atom_site_type_symbol
_atom_site_fract_x
_atom_site_fract_y
_atom_site_fract_z
S1 S -0.15256(8) -0.31264(5) -0.40407(5)
O1 O -0.2124(3) -0.22979(16) -0.47627(16)
N1 N -0.0065(3) -0.36901(17) -0.45167(18)
H1 H 0.0702 -0.3294 -0.4536
C1 C -0.0021(3) -0.4790(2) -0.48927(19)
C2 C -0.1153(3) -0.5532(2) -0.4810(2)
H2 H -0.1987 -0.5318 -0.4482
C3 C -0.1032(3) -0.6600(2) -0.5220(2)
H3 H -0.1801 -0.7090 -0.5166
C4 C 0.0197(3) -0.6959(2) -0.57082(17)
C5 C 0.1315(3) -0.6196(2) -0.5777(2)
H4 H 0.2149 -0.6404 -0.6107
C6 C 0.1217(3) -0.5131(2) -0.5366(2)
H5 H 0.1990 -0.4644 -0.5410
C7 C 0.0310(3) -0.8089(2) -0.61585(18)
C8 C -0.0253(3) -0.9024(2) -0.5693(2)
H6 H -0.0694 -0.8944 -0.5071
C9 C -0.0181(4) -1.0075(2) -0.6126(2)
H7 H -0.0581 -1.0688 -0.5801
C10 C 0.0480(4) -1.0208(3) -0.7031(3)
H8 H 0.0535 -1.0914 -0.7324
C11 C 0.1060(3) -0.9301(3) -0.7507(2)
H9 H 0.1514 -0.9395 -0.8122
C12 C 0.0980(3) -0.8240(2) -0.7081(2)
H10 H 0.1375 -0.7630 -0.7414
C13 C -0.0712(3) -0.2310(2) -0.3024(2)
C14 C -0.1958(4) -0.1746(3) -0.2498(2)
H11 H -0.2385 -0.1207 -0.2941
H12 H -0.1622 -0.1375 -0.1903
H13 H -0.2656 -0.2299 -0.2316
C15 C -0.0002(6) -0.3136(3) -0.2314(3)
H14 H -0.0670 -0.3713 -0.2138
H15 H 0.0301 -0.2752 -0.1718
H16 H 0.0812 -0.3465 -0.2639
C16 C 0.0316(4) -0.1448(2) -0.3427(3)
H17 H 0.1088 -0.1818 -0.3767
H18 H 0.0690 -0.1013 -0.2880
H19 H -0.0173 -0.0965 -0.3889
loop_
_geom_bond_atom_site_label_1
_geom_bond_atom_site_label_2
_geom_bond_site_symmetry_1
_geom_bond_site_symmetry_2
S1 O1 1_555 1_555
N1 S1 1_555 1_555
H1 N1 1_555 1_555
C1 N1 1_555 1_555
C2 C1 1_555 1_555
H2 C2 1_555 1_555
C3 C2 1_555 1_555
H3 C3 1_555 1_555
C4 C3 1_555 1_555
C5 C4 1_555 1_555
H4 C5 1_555 1_555
C6 C1 1_555 1_555
H5 C6 1_555 1_555
C7 C4 1_555 1_555
C8 C7 1_555 1_555
H6 C8 1_555 1_555
C9 C8 1_555 1_555
H7 C9 1_555 1_555
C10 C9 1_555 1_555
H8 C10 1_555 1_555
C11 C10 1_555 1_555
H9 C11 1_555 1_555
C12 C7 1_555 1_555
H10 C12 1_555 1_555
C13 S1 1_555 1_555
C14 C13 1_555 1_555
H11 C14 1_555 1_555
H12 C14 1_555 1_555
H13 C14 1_555 1_555
C15 C13 1_555 1_555
H14 C15 1_555 1_555
H15 C15 1_555 1_555
H16 C15 1_555 1_555
C16 C13 1_555 1_555
H17 C16 1_555 1_555
H18 C16 1_555 1_555
H19 C16 1_555 1_555
C5 C6 1_555 1_555
C11 C12 1_555 1_555

#END
