
#######################################################################
#
#                 Cambridge Crystallographic Data Centre
#                                CCDC 
#
#######################################################################
#
# If this CIF has been generated from an entry in the Cambridge 
# Structural Database, then it will include bibliographic, chemical, 
# crystal, experimental, refinement or atomic coordinate data resulting 
# from the CCDC's data processing and validation procedures.
#
#######################################################################

data_ZAPXUL
_chemical_formula_moiety         'C14 H11 Cl2 N1 O1'
_chemical_name_systematic        2,6-Dichloro-N-(4-methylphenyl)benzamide
_symmetry_cell_setting           monoclinic
_symmetry_space_group_name_H-M   'P 21/c'
_symmetry_Int_Tables_number      14
_space_group_name_Hall           '-P 2ybc'
loop_
_symmetry_equiv_pos_site_id
_symmetry_equiv_pos_as_xyz
1 x,y,z
2 -x,1/2+y,1/2-z
3 -x,-y,-z
4 x,1/2-y,1/2+z
_cell_length_a                   11.260(2)
_cell_length_b                   12.786(3)
_cell_length_c                   9.6700(19)
_cell_angle_alpha                90
_cell_angle_beta                 100.65(3)
_cell_angle_gamma                90
_cell_volume                     1368.21
_exptl_crystal_colour            yellow
_exptl_crystal_description       block
_cell_formula_units_Z            4
_exptl_crystal_recrystallization_method ethanol
loop_
_atom_site_label
_atom_site_type_symbol
_atom_site_fract_x
_atom_site_fract_y
_atom_site_fract_z
N1 N 0.2641(2) 0.8121(2) 0.1158(3)
H1 H 0.2757 0.7889 0.2007
O1 O 0.2803(3) 0.76570(19) -0.1064(2)
Cl1 Cl 0.14387(9) 0.55959(8) 0.07524(10)
C1 C 0.0707(4) 1.2269(3) 0.0646(6)
H2 H 0.0283 1.2398 0.1404
H3 H 0.0162 1.2352 -0.0236
H4 H 0.1361 1.2758 0.0699
Cl2 Cl 0.56778(10) 0.75531(9) 0.07081(15)
C2 C 0.1203(3) 1.1167(3) 0.0760(5)
C3 C 0.1026(4) 1.0507(3) 0.1828(4)
H5 H 0.0596 1.0745 0.2500
C4 C 0.1474(3) 0.9499(3) 0.1924(4)
H6 H 0.1334 0.9065 0.2649
C5 C 0.2128(3) 0.9131(2) 0.0952(3)
C6 C 0.2314(3) 0.9779(3) -0.0124(4)
H7 H 0.2750 0.9544 -0.0791
C7 C 0.1848(4) 1.0781(3) -0.0206(4)
H8 H 0.1975 1.1210 -0.0941
C8 C 0.2970(3) 0.7476(3) 0.0202(3)
C9 C 0.3616(3) 0.6510(3) 0.0813(3)
C10 C 0.3010(3) 0.5611(3) 0.1098(3)
C11 C 0.3614(4) 0.4729(3) 0.1667(4)
H9 H 0.3192 0.4132 0.1837
C12 C 0.4849(4) 0.4751(4) 0.1976(5)
H10 H 0.5265 0.4165 0.2380
C13 C 0.5485(4) 0.5612(4) 0.1707(4)
H11 H 0.6324 0.5614 0.1921
C14 C 0.4868(3) 0.6472(3) 0.1116(4)
loop_
_geom_bond_atom_site_label_1
_geom_bond_atom_site_label_2
_geom_bond_site_symmetry_1
_geom_bond_site_symmetry_2
N1 H1 1_555 1_555
O1 C8 1_555 1_555
Cl1 C10 1_555 1_555
C1 H2 1_555 1_555
H3 C1 1_555 1_555
H4 C1 1_555 1_555
Cl2 C14 1_555 1_555
C2 C1 1_555 1_555
C3 C2 1_555 1_555
H5 C3 1_555 1_555
C4 C3 1_555 1_555
H6 C4 1_555 1_555
C5 N1 1_555 1_555
C6 C5 1_555 1_555
H7 C6 1_555 1_555
C7 C2 1_555 1_555
H8 C7 1_555 1_555
C8 N1 1_555 1_555
C9 C8 1_555 1_555
C10 C9 1_555 1_555
C11 C10 1_555 1_555
H9 C11 1_555 1_555
C12 C11 1_555 1_555
H10 C12 1_555 1_555
C13 C12 1_555 1_555
H11 C13 1_555 1_555
C14 C9 1_555 1_555
C4 C5 1_555 1_555
C6 C7 1_555 1_555
C13 C14 1_555 1_555

#END
