
#######################################################################
#
#                 Cambridge Crystallographic Data Centre
#                                CCDC 
#
#######################################################################
#
# If this CIF has been generated from an entry in the Cambridge 
# Structural Database, then it will include bibliographic, chemical, 
# crystal, experimental, refinement or atomic coordinate data resulting 
# from the CCDC's data processing and validation procedures.
#
#######################################################################

data_ZAPYOH
_chemical_formula_moiety         'C20 H32 B2 O4'
_chemical_name_systematic        
2,2'-(2,5-dimethyl-1,4-phenylene)bis(4,4,5,5-tetramethyl-1,3,2-dioxaborolane)
_symmetry_cell_setting           monoclinic
_symmetry_space_group_name_H-M   'P 21/n'
_symmetry_Int_Tables_number      14
_space_group_name_Hall           '-P 2yn'
loop_
_symmetry_equiv_pos_site_id
_symmetry_equiv_pos_as_xyz
1 x,y,z
2 1/2-x,1/2+y,1/2-z
3 -x,-y,-z
4 1/2+x,1/2-y,1/2+z
_cell_length_a                   6.5342(7)
_cell_length_b                   14.3432(15)
_cell_length_c                   11.1367(12)
_cell_angle_alpha                90
_cell_angle_beta                 95.3720(10)
_cell_angle_gamma                90
_cell_volume                     1039.16
_exptl_crystal_colour            colorless
_exptl_crystal_description       Block
_cell_formula_units_Z            2
loop_
_atom_site_label
_atom_site_type_symbol
_atom_site_fract_x
_atom_site_fract_y
_atom_site_fract_z
B1 B 0.1301(2) 0.38351(9) 0.71507(12)
C1 C 0.05179(18) 0.44468(8) 0.60387(10)
C2 C 0.18151(18) 0.45249(8) 0.51108(10)
H1 H 0.3053 0.4201 0.5189
C3 C 0.13540(18) 0.50605(8) 0.40788(11)
C4 C 0.2851(2) 0.50919(9) 0.31265(11)
H2 H 0.4010 0.4701 0.3367
H3 H 0.3309 0.5721 0.3033
H4 H 0.2185 0.4873 0.2374
C5 C 0.3222(2) 0.27455(9) 0.82369(12)
C6 C 0.5482(2) 0.26399(12) 0.86583(15)
H5 H 0.6134 0.2262 0.8094
H6 H 0.5625 0.2347 0.9437
H7 H 0.6119 0.3244 0.8711
C7 C 0.2271(3) 0.17991(10) 0.79182(15)
H8 H 0.0832 0.1874 0.7675
H9 H 0.2445 0.1397 0.8610
H10 H 0.2937 0.1528 0.7269
C8 C 0.1968(2) 0.33301(10) 0.90781(12)
C9 C 0.3213(3) 0.41152(13) 0.97069(14)
H11 H 0.3934 0.4448 0.9128
H12 H 0.4185 0.3859 1.0319
H13 H 0.2306 0.4534 1.0071
C10 C 0.0857(3) 0.27680(14) 0.99712(15)
H14 H 0.0093 0.3181 1.0440
H15 H 0.1842 0.2430 1.0497
H16 H -0.0067 0.2337 0.9542
O1 O 0.30273(13) 0.32984(6) 0.71265(8)
O2 O 0.04445(14) 0.37856(7) 0.82208(8)
B1B B -0.1301(2) 0.61649(9) 0.28493(12)
C1B C -0.05179(18) 0.55532(8) 0.39613(10)
C2B C -0.18151(18) 0.54751(8) 0.48892(10)
H1B H -0.3053 0.5799 0.4811
C3B C -0.13540(18) 0.49395(8) 0.59212(11)
C4B C -0.2851(2) 0.49081(9) 0.68735(11)
H2B H -0.4010 0.5299 0.6633
H3B H -0.3309 0.4279 0.6967
H4B H -0.2185 0.5127 0.7626
C5B C -0.3222(2) 0.72545(9) 0.17631(12)
C6B C -0.5482(2) 0.73601(12) 0.13417(15)
H5B H -0.6134 0.7738 0.1906
H6B H -0.5625 0.7653 0.0563
H7B H -0.6119 0.6756 0.1289
C7B C -0.2271(3) 0.82009(10) 0.20818(15)
H8B H -0.0832 0.8126 0.2325
H9B H -0.2445 0.8603 0.1390
H10B H -0.2937 0.8472 0.2731
C8B C -0.1968(2) 0.66699(10) 0.09219(12)
C9B C -0.3213(3) 0.58848(13) 0.02931(14)
H11B H -0.3934 0.5552 0.0872
H12B H -0.4185 0.6141 -0.0319
H13B H -0.2306 0.5466 -0.0071
C10B C -0.0857(3) 0.72320(14) 0.00288(15)
H14B H -0.0093 0.6819 -0.0440
H15B H -0.1842 0.7570 -0.0497
H16B H 0.0067 0.7663 0.0458
O1B O -0.30273(13) 0.67016(6) 0.28735(8)
O2B O -0.04445(14) 0.62144(7) 0.17792(8)
loop_
_geom_bond_atom_site_label_1
_geom_bond_atom_site_label_2
_geom_bond_site_symmetry_1
_geom_bond_site_symmetry_2
B1 C1 1_555 1_555
C1 C2 1_555 1_555
C2 H1 1_555 1_555
C3 C2 1_555 1_555
C4 C3 1_555 1_555
H2 C4 1_555 1_555
H3 C4 1_555 1_555
H4 C4 1_555 1_555
C5 C6 1_555 1_555
C6 H5 1_555 1_555
H6 C6 1_555 1_555
H7 C6 1_555 1_555
C7 C5 1_555 1_555
H8 C7 1_555 1_555
H9 C7 1_555 1_555
H10 C7 1_555 1_555
C8 C5 1_555 1_555
C9 C8 1_555 1_555
H11 C9 1_555 1_555
H12 C9 1_555 1_555
H13 C9 1_555 1_555
C10 C8 1_555 1_555
H14 C10 1_555 1_555
H15 C10 1_555 1_555
H16 C10 1_555 1_555
O1 B1 1_555 1_555
O2 B1 1_555 1_555
B1B C1B 1_555 1_555
C1B C3 1_555 1_555
C2B C1B 1_555 1_555
H1B C2B 1_555 1_555
C3B C1 1_555 1_555
C4B C3B 1_555 1_555
H2B C4B 1_555 1_555
H3B C4B 1_555 1_555
H4B C4B 1_555 1_555
C5B C6B 1_555 1_555
C6B H5B 1_555 1_555
H6B C6B 1_555 1_555
H7B C6B 1_555 1_555
C7B C5B 1_555 1_555
H8B C7B 1_555 1_555
H9B C7B 1_555 1_555
H10B C7B 1_555 1_555
C8B C5B 1_555 1_555
C9B C8B 1_555 1_555
H11B C9B 1_555 1_555
H12B C9B 1_555 1_555
H13B C9B 1_555 1_555
C10B C8B 1_555 1_555
H14B C10B 1_555 1_555
H15B C10B 1_555 1_555
H16B C10B 1_555 1_555
O1B B1B 1_555 1_555
O2B B1B 1_555 1_555
C5 O1 1_555 1_555
C8 O2 1_555 1_555
C2B C3B 1_555 1_555
C5B O1B 1_555 1_555
C8B O2B 1_555 1_555

#END
