
#######################################################################
#
#                 Cambridge Crystallographic Data Centre
#                                CCDC 
#
#######################################################################
#
# If this CIF has been generated from an entry in the Cambridge 
# Structural Database, then it will include bibliographic, chemical, 
# crystal, experimental, refinement or atomic coordinate data resulting 
# from the CCDC's data processing and validation procedures.
#
#######################################################################

data_ZAPYEX
_chemical_formula_moiety         'C10 H12 B2 O4'
_chemical_name_systematic        
2-(4-(1,3,2-dioxaborolan-2-yl)phenyl)-1,3,2-dioxaborolane
_symmetry_cell_setting           monoclinic
_symmetry_space_group_name_H-M   'P 21/c'
_symmetry_Int_Tables_number      14
_space_group_name_Hall           '-P 2ybc'
loop_
_symmetry_equiv_pos_site_id
_symmetry_equiv_pos_as_xyz
1 x,y,z
2 -x,1/2+y,1/2-z
3 -x,-y,-z
4 x,1/2-y,1/2+z
_cell_length_a                   12.799(4)
_cell_length_b                   7.758(3)
_cell_length_c                   10.736(4)
_cell_angle_alpha                90
_cell_angle_beta                 108.119(4)
_cell_angle_gamma                90
_cell_volume                     1013.17
_exptl_crystal_colour            colorless
_exptl_crystal_description       Block
_cell_formula_units_Z            4
_exptl_crystal_recrystallization_method hexane
loop_
_atom_site_label
_atom_site_type_symbol
_atom_site_fract_x
_atom_site_fract_y
_atom_site_fract_z
B1 B 0.86698(13) 0.4323(2) 0.38825(15)
B2 B 0.64331(13) 0.9546(2) 0.62405(16)
C1 C 0.80784(11) 0.56958(18) 0.44883(13)
C2 C 0.74001(11) 0.51850(18) 0.52277(14)
H1 H 0.7298 0.3993 0.5355
C3 C 0.68758(12) 0.63976(18) 0.57750(14)
H2 H 0.6412 0.6020 0.6260
C4 C 0.70181(11) 0.81719(18) 0.56259(14)
C5 C 0.76981(11) 0.86828(18) 0.48901(14)
H3 H 0.7811 0.9875 0.4776
C6 C 0.82090(11) 0.74689(18) 0.43252(14)
H4 H 0.8656 0.7846 0.3818
C7 C 0.91915(12) 0.17102(18) 0.33317(14)
H5 H 0.8706 0.0934 0.2668
H6 H 0.9793 0.1020 0.3924
C8 C 0.96560(12) 0.31448(17) 0.26686(14)
H7 H 1.0467 0.3066 0.2919
H8 H 0.9348 0.3064 0.1703
C9 C 0.52865(12) 1.07404(18) 0.72383(15)
H9 H 0.5485 1.0624 0.8202
H10 H 0.4492 1.1003 0.6880
C10 C 0.59738(12) 1.21537(19) 0.68685(16)
H11 H 0.5504 1.2914 0.6180
H12 H 0.6358 1.2863 0.7642
O1 O 0.85758(8) 0.25938(12) 0.40636(10)
O2 O 0.93246(8) 0.47425(12) 0.31375(10)
O3 O 0.55523(8) 0.91799(12) 0.66584(10)
O4 O 0.67551(8) 1.12322(12) 0.63895(10)
loop_
_geom_bond_atom_site_label_1
_geom_bond_atom_site_label_2
_geom_bond_site_symmetry_1
_geom_bond_site_symmetry_2
B1 C1 1_555 1_555
B2 C4 1_555 1_555
C1 C2 1_555 1_555
C2 H1 1_555 1_555
C3 C2 1_555 1_555
H2 C3 1_555 1_555
C4 C3 1_555 1_555
C5 C4 1_555 1_555
H3 C5 1_555 1_555
C6 C1 1_555 1_555
H4 C6 1_555 1_555
C7 H5 1_555 1_555
H6 C7 1_555 1_555
C8 C7 1_555 1_555
H7 C8 1_555 1_555
H8 C8 1_555 1_555
C9 H9 1_555 1_555
H10 C9 1_555 1_555
C10 C9 1_555 1_555
H11 C10 1_555 1_555
H12 C10 1_555 1_555
O1 B1 1_555 1_555
O2 B1 1_555 1_555
O3 B2 1_555 1_555
O4 B2 1_555 1_555
C5 C6 1_555 1_555
C7 O1 1_555 1_555
C8 O2 1_555 1_555
C9 O3 1_555 1_555
C10 O4 1_555 1_555

#END
