
#######################################################################
#
#                 Cambridge Crystallographic Data Centre
#                                CCDC 
#
#######################################################################
#
# If this CIF has been generated from an entry in the Cambridge 
# Structural Database, then it will include bibliographic, chemical, 
# crystal, experimental, refinement or atomic coordinate data resulting 
# from the CCDC's data processing and validation procedures.
#
#######################################################################

data_ZAPZIB
_chemical_formula_moiety         'C20 H17 N1 O5'
_chemical_name_systematic        
'Dimethyl 3-(cyclopropylcarbonyl)pyrrolo[2,1-a]isoquinoline-1,2-dicarboxylate'
_symmetry_cell_setting           monoclinic
_symmetry_space_group_name_H-M   'P 21/c'
_symmetry_Int_Tables_number      14
_space_group_name_Hall           '-P 2ybc'
loop_
_symmetry_equiv_pos_site_id
_symmetry_equiv_pos_as_xyz
1 x,y,z
2 -x,1/2+y,1/2-z
3 -x,-y,-z
4 x,1/2-y,1/2+z
_cell_length_a                   7.5910(15)
_cell_length_b                   18.436(4)
_cell_length_c                   12.162(2)
_cell_angle_alpha                90
_cell_angle_beta                 94.43(3)
_cell_angle_gamma                90
_cell_volume                     1696.96
_exptl_crystal_colour            yellow
_exptl_crystal_description       block
_chemical_melting_point          '388 K'
_cell_formula_units_Z            4
loop_
_atom_site_label
_atom_site_type_symbol
_atom_site_fract_x
_atom_site_fract_y
_atom_site_fract_z
N1 N 0.2043(3) 0.45752(11) 0.56131(17)
O1 O 0.0490(3) 0.31335(12) 0.57398(18)
C1 C 0.0128(5) 0.2518(2) 0.7977(3)
H1 H 0.0035 0.2474 0.8765
H2 H -0.0987 0.2485 0.7533
O2 O 0.3127(2) 0.44915(12) 0.92593(15)
C2 C 0.1687(5) 0.22111(19) 0.7524(4)
H3 H 0.1537 0.1991 0.6799
H4 H 0.2560 0.1979 0.8032
O3 O 0.0196(3) 0.44054(13) 0.88912(17)
C3 C 0.1495(4) 0.30195(16) 0.7597(3)
H5 H 0.2247 0.3260 0.8179
O4 O 0.4069(3) 0.64344(13) 0.76734(18)
C4 C 0.1160(4) 0.34276(15) 0.6567(2)
O5 O 0.1973(3) 0.59404(11) 0.86128(17)
C5 C 0.2880(5) 0.4387(3) 1.0410(3)
H6 H 0.4009 0.4381 1.0824
H7 H 0.2287 0.3934 1.0507
H8 H 0.2179 0.4776 1.0667
C6 C 0.1646(4) 0.45114(15) 0.8593(2)
C7 C 0.2330(5) 0.64687(18) 0.9471(3)
H9 H 0.1510 0.6407 1.0026
H10 H 0.2206 0.6947 0.9164
H11 H 0.3513 0.6405 0.9795
C8 C 0.3006(3) 0.59626(15) 0.7761(2)
C9 C 0.2639(3) 0.53321(14) 0.7048(2)
C10 C 0.2004(3) 0.46707(14) 0.7437(2)
C11 C 0.1670(3) 0.41976(14) 0.6564(2)
C12 C 0.2688(3) 0.52648(14) 0.5891(2)
C13 C 0.1793(3) 0.43333(16) 0.4534(2)
H12 H 0.1353 0.3870 0.4387
C14 C 0.2183(4) 0.47657(17) 0.3706(2)
H13 H 0.1957 0.4607 0.2983
C15 C 0.2945(4) 0.54702(17) 0.3911(2)
C16 C 0.3216(3) 0.57249(15) 0.5008(2)
C17 C 0.3413(4) 0.5916(2) 0.3040(3)
H14 H 0.3216 0.5754 0.2317
C18 C 0.4146(4) 0.6579(2) 0.3238(3)
H15 H 0.4429 0.6871 0.2654
C19 C 0.4473(4) 0.68183(18) 0.4315(3)
H16 H 0.5020 0.7264 0.4449
C20 C 0.4002(4) 0.64068(16) 0.5189(3)
H17 H 0.4206 0.6582 0.5905
loop_
_geom_bond_atom_site_label_1
_geom_bond_atom_site_label_2
_geom_bond_site_symmetry_1
_geom_bond_site_symmetry_2
N1 C11 1_555 1_555
O1 C4 1_555 1_555
C1 H1 1_555 1_555
H2 C1 1_555 1_555
O2 C5 1_555 1_555
C2 C1 1_555 1_555
H3 C2 1_555 1_555
H4 C2 1_555 1_555
O3 C6 1_555 1_555
C3 C1 1_555 1_555
H5 C3 1_555 1_555
O4 C8 1_555 1_555
C4 C3 1_555 1_555
O5 C7 1_555 1_555
C5 H6 1_555 1_555
H7 C5 1_555 1_555
H8 C5 1_555 1_555
C6 O2 1_555 1_555
C7 H9 1_555 1_555
H10 C7 1_555 1_555
H11 C7 1_555 1_555
C8 O5 1_555 1_555
C9 C8 1_555 1_555
C10 C6 1_555 1_555
C11 C4 1_555 1_555
C12 N1 1_555 1_555
C13 N1 1_555 1_555
H12 C13 1_555 1_555
C14 C13 1_555 1_555
H13 C14 1_555 1_555
C15 C14 1_555 1_555
C16 C12 1_555 1_555
C17 C15 1_555 1_555
H14 C17 1_555 1_555
C18 C17 1_555 1_555
H15 C18 1_555 1_555
C19 C18 1_555 1_555
H16 C19 1_555 1_555
C20 C16 1_555 1_555
H17 C20 1_555 1_555
C2 C3 1_555 1_555
C9 C10 1_555 1_555
C9 C12 1_555 1_555
C10 C11 1_555 1_555
C15 C16 1_555 1_555
C19 C20 1_555 1_555

#END
