
#######################################################################
#
#                 Cambridge Crystallographic Data Centre
#                                CCDC 
#
#######################################################################
#
# If this CIF has been generated from an entry in the Cambridge 
# Structural Database, then it will include bibliographic, chemical, 
# crystal, experimental, refinement or atomic coordinate data resulting 
# from the CCDC's data processing and validation procedures.
#
#######################################################################

data_ZAQBAU
_chemical_formula_moiety         'C11 H24 N1 1+,F1 1-,4(C1 H2 F2)'
_chemical_name_systematic        
'1,1,3,3,5,5-Hexamethylpiperidinium fluoride difluoromethane solvate'
_symmetry_cell_setting           monoclinic
_symmetry_space_group_name_H-M   'P 21/c'
_symmetry_Int_Tables_number      14
_space_group_name_Hall           '-P 2ybc'
loop_
_symmetry_equiv_pos_site_id
_symmetry_equiv_pos_as_xyz
1 x,y,z
2 -x,1/2+y,1/2-z
3 -x,-y,-z
4 x,1/2-y,1/2+z
_cell_length_a                   15.090(4)
_cell_length_b                   8.746(6)
_cell_length_c                   15.442(4)
_cell_angle_alpha                90
_cell_angle_beta                 93.88(2)
_cell_angle_gamma                90
_cell_volume                     2033.32
_exptl_crystal_colour            colorless
_cell_formula_units_Z            4
loop_
_atom_site_label
_atom_site_type_symbol
_atom_site_fract_x
_atom_site_fract_y
_atom_site_fract_z
F1 F 0.6595(2) 0.0884(3) 0.4732(2)
C1 C 0.8047(4) 0.1597(7) 0.6153(4)
F2 F 0.8681(2) 0.2571(4) 0.5926(2)
F3 F 0.8473(2) 0.0276(4) 0.6424(2)
H1 H 0.7652 0.1431 0.5698
H2 H 0.7735 0.2121 0.6685
C2 C 0.6029(4) 0.3708(7) 0.5766(4)
F4 F 0.6801(3) 0.4455(4) 0.6024(3)
F5 F 0.5719(3) 0.3164(5) 0.6501(2)
H3 H 0.5587 0.4606 0.5574
H4 H 0.6236 0.2786 0.5369
C3 C 0.5475(5) -0.1093(7) 0.5868(4)
F6 F 0.5482(2) -0.0833(4) 0.6752(2)
F7 F 0.5734(3) -0.2588(4) 0.5797(2)
H5 H 0.4828 -0.0880 0.5536
H6 H 0.5879 -0.0474 0.5655
C4 C 0.6221(5) 0.3373(7) 0.3340(4)
F8 F 0.5987(2) 0.4660(4) 0.3780(2)
F9 F 0.7015(2) 0.3713(4) 0.3011(2)
H7 H 0.6264 0.2459 0.3796
H8 H 0.5712 0.3174 0.2879
N1 N 0.7295(3) -0.1663(4) 0.3204(2)
C5 C 0.7552(4) -0.2495(7) 0.4052(3)
C6 C 0.8542(4) -0.2689(6) 0.4289(3)
C7 C 0.9013(4) -0.1161(6) 0.4215(3)
C8 C 0.8785(4) -0.0197(6) 0.3381(3)
C9 C 0.7789(4) -0.0148(6) 0.3210(3)
C10 C 0.6303(4) -0.1299(7) 0.3200(4)
C11 C 0.7414(4) -0.2601(7) 0.2417(4)
C12 C 0.8976(4) -0.3991(7) 0.3793(4)
C13 C 0.8604(4) -0.3168(7) 0.5255(4)
C14 C 0.9078(4) 0.1463(6) 0.3584(4)
C15 C 0.9304(4) -0.0728(8) 0.2608(4)
H9 H 0.7239 -0.1941 0.4443
H10 H 0.7167 -0.3542 0.4075
H11 H 0.9715 -0.1443 0.4243
H12 H 0.8752 -0.0504 0.4759
H13 H 0.7475 0.0525 0.3645
H14 H 0.7634 0.0321 0.2637
H15 H 0.6182 -0.0573 0.3782
H16 H 0.6002 -0.2164 0.3292
H17 H 0.6027 -0.0633 0.2621
H18 H 0.8099 -0.2944 0.2403
H19 H 0.7199 -0.2038 0.1898
H20 H 0.7144 -0.3472 0.2445
H21 H 0.9002 -0.3647 0.3251
H22 H 0.8515 -0.5015 0.3855
H23 H 0.9607 -0.4153 0.4019
H24 H 0.9301 -0.3246 0.5371
H25 H 0.8247 -0.4119 0.5243
H26 H 0.8306 -0.2375 0.5710
H27 H 0.9767 0.1550 0.3645
H28 H 0.8739 0.2053 0.4138
H29 H 0.8903 0.2094 0.3039
H30 H 0.9296 -0.2209 0.2510
H31 H 0.9841 -0.0545 0.2798
H32 H 0.9116 -0.0246 0.2035
loop_
_geom_bond_atom_site_label_1
_geom_bond_atom_site_label_2
_geom_bond_site_symmetry_1
_geom_bond_site_symmetry_2
C1 F2 1_555 1_555
F3 C1 1_555 1_555
H1 C1 1_555 1_555
H2 C1 1_555 1_555
C2 F4 1_555 1_555
F5 C2 1_555 1_555
H3 C2 1_555 1_555
H4 C2 1_555 1_555
C3 F6 1_555 1_555
F7 C3 1_555 1_555
H5 C3 1_555 1_555
H6 C3 1_555 1_555
C4 F8 1_555 1_555
F9 C4 1_555 1_555
H7 C4 1_555 1_555
H8 C4 1_555 1_555
N1 C5 1_555 1_555
C5 C6 1_555 1_555
C6 C7 1_555 1_555
C7 C8 1_555 1_555
C8 C9 1_555 1_555
C9 N1 1_555 1_555
C10 N1 1_555 1_555
C11 N1 1_555 1_555
C12 C6 1_555 1_555
C13 C6 1_555 1_555
C14 C8 1_555 1_555
C15 C8 1_555 1_555
H9 C5 1_555 1_555
H10 C5 1_555 1_555
H11 C7 1_555 1_555
H12 C7 1_555 1_555
H13 C9 1_555 1_555
H14 C9 1_555 1_555
H15 C10 1_555 1_555
H16 C10 1_555 1_555
H17 C10 1_555 1_555
H18 C11 1_555 1_555
H19 C11 1_555 1_555
H20 C11 1_555 1_555
H21 C12 1_555 1_555
H22 C12 1_555 1_555
H23 C12 1_555 1_555
H24 C13 1_555 1_555
H25 C13 1_555 1_555
H26 C13 1_555 1_555
H27 C14 1_555 1_555
H28 C14 1_555 1_555
H29 C14 1_555 1_555
H30 C15 1_555 1_555
H31 C15 1_555 1_555
H32 C15 1_555 1_555

#END
