
#######################################################################
#
#                 Cambridge Crystallographic Data Centre
#                                CCDC 
#
#######################################################################
#
# If this CIF has been generated from an entry in the Cambridge 
# Structural Database, then it will include bibliographic, chemical, 
# crystal, experimental, refinement or atomic coordinate data resulting 
# from the CCDC's data processing and validation procedures.
#
#######################################################################

data_ZAQBEY
_chemical_formula_moiety         '2(C11 H24 N1 1+),F6 Se1 2-'
_chemical_name_systematic        
'1,1,3,3,5,5-bis(Hexamethylpiperidinium) hexafluoroselenate(iv)'
_symmetry_cell_setting           triclinic
_symmetry_space_group_name_H-M   'P -1'
_symmetry_Int_Tables_number      2
_space_group_name_Hall           '-P 1'
loop_
_symmetry_equiv_pos_site_id
_symmetry_equiv_pos_as_xyz
1 x,y,z
2 -x,-y,-z
_cell_length_a                   7.913(1)
_cell_length_b                   8.274(1)
_cell_length_c                   11.780(1)
_cell_angle_alpha                83.08(1)
_cell_angle_beta                 77.51(1)
_cell_angle_gamma                60.72(1)
_cell_volume                     656.707
_exptl_crystal_colour            yellow
_cell_formula_units_Z            1
loop_
_atom_site_label
_atom_site_type_symbol
_atom_site_fract_x
_atom_site_fract_y
_atom_site_fract_z
Se1 Se 0.0000 0.0000 0.0000
F1 F 0.1948(9) 0.0803(9) -0.0729(5)
F2 F -0.2098(7) 0.1845(6) -0.0906(6)
F3 F 0.0963(7) -0.2499(4) -0.0782(5)
F1A F -0.1948(9) -0.0803(9) 0.0729(5)
F2A F 0.2098(7) -0.1845(6) 0.0906(6)
F3A F -0.0963(7) 0.2499(4) 0.0782(5)
N1 N 0.2833(2) 0.3396(2) 0.1404(1)
C1 C 0.4105(2) 0.3934(2) 0.1901(2)
C2 C 0.4220(2) 0.3466(2) 0.3190(1)
C3 C 0.4658(3) 0.1448(2) 0.3448(1)
C4 C 0.3423(2) 0.0796(2) 0.2982(1)
C5 C 0.3348(3) 0.1398(2) 0.1707(2)
C6 C 0.0674(3) 0.4722(3) 0.1739(2)
C7 C 0.3321(3) 0.3528(3) 0.0100(2)
C8 C 0.6014(3) 0.3614(3) 0.3369(2)
C9 C 0.2432(3) 0.4859(3) 0.4022(2)
C10 C 0.4538(3) -0.1333(2) 0.2956(2)
C11 C 0.1395(3) 0.1334(3) 0.3748(2)
H1 H 0.5278 0.3338 0.1525
H2 H 0.3497 0.5400 0.1737
H3 H 0.4499 0.1202 0.4336
H4 H 0.5988 0.0695 0.3129
H5 H 0.2386 0.1262 0.1450
H6 H 0.4569 0.0739 0.1302
H7 H 0.0305 0.4722 0.2513
H8 H -0.0039 0.4259 0.1433
H9 H 0.0488 0.6009 0.1438
H10 H 0.4676 0.2836 -0.0175
H11 H 0.2802 0.4971 -0.0128
H12 H 0.2599 0.3069 -0.0192
H13 H 0.6237 0.3138 0.4224
H14 H 0.5758 0.4985 0.3173
H15 H 0.7101 0.2878 0.2846
H16 H 0.1186 0.4769 0.4073
H17 H 0.2136 0.6196 0.3757
H18 H 0.2666 0.4576 0.4814
H19 H 0.4621 -0.1866 0.3766
H20 H 0.5863 -0.1764 0.2473
H21 H 0.3890 -0.1858 0.2578
H22 H 0.0586 0.2702 0.3844
H23 H 0.1591 0.0711 0.4538
H24 H 0.0730 0.0879 0.3524
F4? F -0.1915(8) -0.0483(8) 0.1002(4)
F5? F 0.1601(6) -0.1359(6) 0.1041(6)
F6? F -0.0871(7) 0.1914(4) 0.0962(4)
loop_
_geom_bond_atom_site_label_1
_geom_bond_atom_site_label_2
_geom_bond_site_symmetry_1
_geom_bond_site_symmetry_2
Se1 F1 1_555 1_555
F2 Se1 1_555 1_555
F3 Se1 1_555 1_555
N1 C1 1_555 1_555
C1 C2 1_555 1_555
C2 C3 1_555 1_555
C3 C4 1_555 1_555
C4 C5 1_555 1_555
C5 N1 1_555 1_555
C6 N1 1_555 1_555
C7 N1 1_555 1_555
C8 C2 1_555 1_555
C9 C2 1_555 1_555
C10 C4 1_555 1_555
C11 C4 1_555 1_555
H1 C1 1_555 1_555
H2 C1 1_555 1_555
H3 C3 1_555 1_555
H4 C3 1_555 1_555
H5 C5 1_555 1_555
H6 C5 1_555 1_555
H7 C6 1_555 1_555
H8 C6 1_555 1_555
H9 C6 1_555 1_555
H10 C7 1_555 1_555
H11 C7 1_555 1_555
H12 C7 1_555 1_555
H13 C8 1_555 1_555
H14 C8 1_555 1_555
H15 C8 1_555 1_555
H16 C9 1_555 1_555
H17 C9 1_555 1_555
H18 C9 1_555 1_555
H19 C10 1_555 1_555
H20 C10 1_555 1_555
H21 C10 1_555 1_555
H22 C11 1_555 1_555
H23 C11 1_555 1_555
H24 C11 1_555 1_555
F1A Se1 1_555 1_555
F2A Se1 1_555 1_555
F3A Se1 1_555 1_555

#END
