
#######################################################################
#
#                 Cambridge Crystallographic Data Centre
#                                CCDC 
#
#######################################################################
#
# If this CIF has been generated from an entry in the Cambridge 
# Structural Database, then it will include bibliographic, chemical, 
# crystal, experimental, refinement or atomic coordinate data resulting 
# from the CCDC's data processing and validation procedures.
#
#######################################################################

data_ZAQBOL
_chemical_formula_moiety         'C96 H154 N16'
_chemical_name_systematic        
2,3,9,10,16,17,23,24-octakis(di-n-butylamino)phthalocyanine
_symmetry_cell_setting           monoclinic
_symmetry_space_group_name_H-M   'C 2/c'
_symmetry_Int_Tables_number      15
_space_group_name_Hall           '-C 2yn'
loop_
_symmetry_equiv_pos_site_id
_symmetry_equiv_pos_as_xyz
1 x,y,z
2 -x,y,1/2-z
3 1/2+x,1/2+y,z
4 1/2-x,1/2+y,1/2-z
5 -x,-y,-z
6 x,-y,1/2+z
7 1/2-x,1/2-y,-z
8 1/2+x,1/2-y,1/2+z
_cell_length_a                   20.0317(10)
_cell_length_b                   27.6755(11)
_cell_length_c                   18.5820(9)
_cell_angle_alpha                90
_cell_angle_beta                 116.117(6)
_cell_angle_gamma                90
_cell_volume                     9249.8
_exptl_crystal_colour            green
_exptl_crystal_description       strip
_cell_formula_units_Z            4
loop_
_atom_site_label
_atom_site_type_symbol
_atom_site_fract_x
_atom_site_fract_y
_atom_site_fract_z
C1 C 0.45818(12) 0.18254(8) 0.09678(13)
C2 C 0.39957(12) 0.21267(8) 0.09841(13)
C3 C 0.43264(12) 0.16527(8) 0.01900(13)
C4 C 0.35929(12) 0.26686(8) 0.16843(13)
C5 C 0.19170(12) 0.17622(8) -0.21923(13)
C6 C 0.35757(12) 0.18442(8) -0.02444(13)
C7 C 0.47693(13) 0.13536(9) -0.00242(14)
H1 H 0.4595 0.1240 -0.0559
C8 C 0.37358(12) 0.29844(8) 0.23594(13)
C9 C 0.52911(13) 0.17117(9) 0.15556(14)
H2 H 0.5462 0.1835 0.2084
C10 C 0.54715(13) 0.12250(9) 0.05577(14)
C11 C 0.59973(13) 0.04227(9) 0.07950(16)
H3 H 0.5640 0.0197 0.0400
H4 H 0.5851 0.0462 0.1236
C12 C 0.57411(13) 0.14158(9) 0.13567(14)
C13 C 0.19350(13) 0.14201(9) -0.27355(14)
H5 H 0.2383 0.1252 -0.2627
C14 C 0.43811(13) 0.30704(9) 0.30560(13)
H6 H 0.4822 0.2895 0.3161
C15 C 0.43788(13) 0.34140(9) 0.35978(14)
C16 C 0.12962(13) 0.13247(9) -0.34367(14)
C17 C 0.58227(14) 0.08419(10) -0.04220(15)
H7 H 0.5298 0.0749 -0.0755
H8 H 0.6140 0.0575 -0.0449
C18 C 0.70513(14) 0.15337(10) 0.17660(17)
H9 H 0.6911 0.1524 0.1184
H10 H 0.7525 0.1355 0.2045
C19 C 0.66383(14) 0.12669(11) 0.27597(15)
H11 H 0.6551 0.1589 0.2933
H12 H 0.7169 0.1185 0.3081
C20 C 0.67705(14) 0.02010(10) 0.11314(18)
H13 H 0.7107 0.0386 0.1610
H14 H 0.6964 0.0226 0.0726
C21 C 0.20132(14) 0.08768(11) -0.39907(16)
H15 H 0.2329 0.0692 -0.3502
H16 H 0.2265 0.1188 -0.3971
C22 C 0.19419(17) 0.05930(13) -0.47252(18)
H17 H 0.2444 0.0557 -0.4699
H18 H 0.1758 0.0265 -0.4697
C23 C 0.59918(16) 0.12906(11) -0.07716(18)
H19 H 0.6497 0.1406 -0.0410
H20 H 0.5634 0.1548 -0.0811
C24 C 0.08440(14) 0.05424(10) -0.40523(15)
H21 H 0.0723 0.0384 -0.4573
H22 H 0.0370 0.0651 -0.4060
C25 C 0.61702(17) 0.09021(12) 0.29197(17)
H23 H 0.6141 0.0607 0.2606
H24 H 0.5660 0.1032 0.2725
C26 C 0.67702(17) -0.03291(11) 0.13611(19)
H25 H 0.6485 -0.0519 0.0868
H26 H 0.7288 -0.0450 0.1603
C27 C 0.6449(2) 0.07617(13) 0.37939(19)
H27 H 0.6935 0.0597 0.3976
H28 H 0.6527 0.1058 0.4120
C28 C 0.57408(14) 0.33971(11) 0.42787(18)
H29 H 0.5690 0.3449 0.3730
H30 H 0.5842 0.3049 0.4406
C29 C 0.59461(19) 0.11949(14) -0.15940(19)
H31 H 0.6316 0.0944 -0.1547
H32 H 0.5447 0.1065 -0.1945
C30 C 0.64410(18) -0.04163(13) 0.1943(2)
H33 H 0.6711 -0.0223 0.2428
H34 H 0.6484 -0.0760 0.2085
H35 H 0.5916 -0.0322 0.1693
C31 C 0.11885(18) 0.01697(11) -0.33964(18)
H36 H 0.1342 0.0328 -0.2869
H37 H 0.1640 0.0036 -0.3414
C32 C 0.50046(19) 0.34042(13) 0.50561(17)
H38 H 0.4514 0.3504 0.5012
H39 H 0.5388 0.3596 0.5493
C33 C 0.71780(17) 0.20620(12) 0.2045(2)
H40 H 0.6689 0.2218 0.1891
H41 H 0.7450 0.2069 0.2638
C34 C 0.5921(2) 0.04366(14) 0.3933(2)
H42 H 0.5457 0.0611 0.3809
H43 H 0.6144 0.0334 0.4495
H44 H 0.5816 0.0152 0.3587
C35 C 0.63962(17) 0.36893(14) 0.4864(2)
H45 H 0.6869 0.3539 0.4931
H46 H 0.6391 0.3700 0.5394
C36 C 0.14344(19) 0.08115(13) -0.55295(19)
H47 H 0.1393 0.0583 -0.5957
H48 H 0.0932 0.0850 -0.5557
C37 C 0.0658(2) -0.02385(12) -0.3479(2)
H49 H 0.0220 -0.0103 -0.3435
H50 H 0.0481 -0.0380 -0.4021
C38 C 0.7603(2) 0.23467(14) 0.1705(2)
H51 H 0.8026 0.2150 0.1730
H52 H 0.7809 0.2639 0.2036
C39 C 0.6083(2) 0.16337(16) -0.1984(2)
H53 H 0.5718 0.1884 -0.2036
H54 H 0.6035 0.1548 -0.2516
H55 H 0.6585 0.1756 -0.1654
C40 C 0.7122(3) 0.24982(18) 0.0836(3)
H56 H 0.6889 0.2212 0.0513
H57 H 0.7433 0.2658 0.0623
H58 H 0.6735 0.2722 0.0816
C41 C 0.5123(3) 0.28711(16) 0.5288(2)
H59 H 0.5649 0.2793 0.5433
H60 H 0.4815 0.2680 0.4804
C42 C 0.1684(2) 0.12900(17) -0.5694(2)
H61 H 0.1710 0.1523 -0.5286
H62 H 0.1330 0.1404 -0.6225
H63 H 0.2177 0.1256 -0.5680
C43 C 0.0979(3) -0.06325(17) -0.2876(3)
H64 H 0.1368 -0.0800 -0.2962
H65 H 0.0586 -0.0863 -0.2933
H66 H 0.1192 -0.0494 -0.2335
C44 C 0.24605(12) 0.19091(8) -0.14008(13)
C45 C 0.4950(4) 0.2690(2) 0.5980(3)
H67 H 0.4434 0.2779 0.5867
H68 H 0.4991 0.2334 0.6017
C46 C 0.5480(5) 0.2909(3) 0.6758(4)
H69 H 0.5990 0.2868 0.6825
H70 H 0.5425 0.2749 0.7200
H71 H 0.5371 0.3255 0.6758
N1 N 0.33954(10) 0.21299(7) 0.02467(11)
N2 N 0.28759(10) 0.27522(7) 0.11288(11)
H72 H 0.2673 0.2620 0.0677
N3 N 0.59415(11) 0.08973(8) 0.04042(12)
N4 N 0.64763(11) 0.12873(8) 0.19126(12)
N5 N 0.50369(11) 0.35239(8) 0.42971(13)
N6 N 0.13002(11) 0.09736(8) -0.39893(12)
N7 N 0.31403(10) 0.17324(7) -0.10127(11)
N8 N 0.40895(10) 0.23732(7) 0.16389(11)
C47 C 0.6350(6) 0.4231(3) 0.4819(6)
H73 H 0.6753 0.4379 0.5298
H74 H 0.5865 0.4345 0.4773
C48 C 0.6438(7) 0.4350(4) 0.4061(8)
H75 H 0.6886 0.4192 0.4086
H76 H 0.6483 0.4701 0.4021
H77 H 0.6002 0.4234 0.3589
C1F C 0.04182(12) 0.31746(8) -0.09678(13)
C2F C 0.10043(12) 0.28733(8) -0.09841(13)
C3F C 0.06736(12) 0.33473(8) -0.01900(13)
C4F C 0.14071(12) 0.23314(8) -0.16843(13)
C5F C 0.30830(12) 0.32378(8) 0.21923(13)
C6F C 0.14243(12) 0.31558(8) 0.02444(13)
C7F C 0.02307(13) 0.36464(9) 0.00242(14)
H1F H 0.0405 0.3760 0.0559
C8F C 0.12642(12) 0.20156(8) -0.23594(13)
C9F C -0.02911(13) 0.32883(9) -0.15556(14)
H2F H -0.0462 0.3165 -0.2084
C10F C -0.04715(13) 0.37750(9) -0.05577(14)
C11F C -0.09973(13) 0.45773(9) -0.07950(16)
H3F H -0.0640 0.4803 -0.0400
H4F H -0.0851 0.4538 -0.1236
C12F C -0.07411(13) 0.35842(9) -0.13567(14)
C13F C 0.30650(13) 0.35799(9) 0.27355(14)
H5F H 0.2617 0.3748 0.2627
C14F C 0.06189(13) 0.19296(9) -0.30560(13)
H6F H 0.0178 0.2105 -0.3161
C15F C 0.06212(13) 0.15860(9) -0.35978(14)
C16F C 0.37038(13) 0.36753(9) 0.34367(14)
C17F C -0.08227(14) 0.41581(10) 0.04220(15)
H7F H -0.0298 0.4251 0.0755
H8F H -0.1140 0.4425 0.0449
C18F C -0.20513(14) 0.34663(10) -0.17660(17)
H9F H -0.1911 0.3476 -0.1184
H10F H -0.2525 0.3645 -0.2045
C19F C -0.16383(14) 0.37331(11) -0.27597(15)
H11F H -0.1551 0.3411 -0.2933
H12F H -0.2169 0.3815 -0.3081
C20F C -0.17705(14) 0.47990(10) -0.11314(18)
H13F H -0.2107 0.4614 -0.1610
H14F H -0.1964 0.4774 -0.0726
C21F C 0.29868(14) 0.41232(11) 0.39907(16)
H15F H 0.2671 0.4308 0.3502
H16F H 0.2735 0.3812 0.3971
C22F C 0.30581(17) 0.44070(13) 0.47252(18)
H17F H 0.2556 0.4443 0.4699
H18F H 0.3242 0.4735 0.4697
C23F C -0.09918(16) 0.37094(11) 0.07716(18)
H19F H -0.1497 0.3594 0.0410
H20F H -0.0634 0.3452 0.0811
C24F C 0.41560(14) 0.44576(10) 0.40523(15)
H21F H 0.4277 0.4616 0.4573
H22F H 0.4630 0.4349 0.4060
C25F C -0.11702(17) 0.40979(12) -0.29197(17)
H23F H -0.1141 0.4393 -0.2606
H24F H -0.0660 0.3968 -0.2725
C26F C -0.17702(17) 0.53291(11) -0.13611(19)
H25F H -0.1485 0.5519 -0.0868
H26F H -0.2288 0.5450 -0.1603
C27F C -0.1449(2) 0.42383(13) -0.37939(19)
H27F H -0.1935 0.4403 -0.3976
H28F H -0.1527 0.3942 -0.4120
C28F C -0.07408(14) 0.16029(11) -0.42787(18)
H29F H -0.0690 0.1551 -0.3730
H30F H -0.0842 0.1951 -0.4406
C29F C -0.09461(19) 0.38051(14) 0.15940(19)
H31F H -0.1316 0.4056 0.1547
H32F H -0.0447 0.3935 0.1945
C30F C -0.14410(18) 0.54163(13) -0.1943(2)
H33F H -0.1711 0.5223 -0.2428
H34F H -0.1484 0.5760 -0.2085
H35F H -0.0916 0.5322 -0.1693
C31F C 0.38115(18) 0.48303(11) 0.33964(18)
H36F H 0.3658 0.4672 0.2869
H37F H 0.3360 0.4964 0.3414
C32F C -0.00046(19) 0.15958(13) -0.50561(17)
H38F H 0.0486 0.1496 -0.5012
H39F H -0.0388 0.1404 -0.5493
C33F C -0.21780(17) 0.29380(12) -0.2045(2)
H40F H -0.1689 0.2782 -0.1891
H41F H -0.2450 0.2931 -0.2638
C34F C -0.0921(2) 0.45634(14) -0.3933(2)
H42F H -0.0457 0.4389 -0.3809
H43F H -0.1144 0.4666 -0.4495
H44F H -0.0816 0.4848 -0.3587
C35F C -0.13962(17) 0.13107(14) -0.4864(2)
H45F H -0.1869 0.1461 -0.4931
H46F H -0.1391 0.1300 -0.5394
C36F C 0.35656(19) 0.41885(13) 0.55295(19)
H47F H 0.3607 0.4417 0.5957
H48F H 0.4068 0.4150 0.5557
C37F C 0.4342(2) 0.52385(12) 0.3479(2)
H49F H 0.4780 0.5103 0.3435
H50F H 0.4519 0.5380 0.4021
C38F C -0.2603(2) 0.26533(14) -0.1705(2)
H51F H -0.3026 0.2850 -0.1730
H52F H -0.2809 0.2361 -0.2036
C39F C -0.1083(2) 0.33663(16) 0.1984(2)
H53F H -0.0718 0.3116 0.2036
H54F H -0.1035 0.3452 0.2516
H55F H -0.1585 0.3244 0.1654
C40F C -0.2122(3) 0.25018(18) -0.0836(3)
H56F H -0.1889 0.2788 -0.0513
H57F H -0.2433 0.2342 -0.0623
H58F H -0.1735 0.2278 -0.0816
C41F C -0.0123(3) 0.21289(16) -0.5288(2)
H59F H -0.0649 0.2207 -0.5433
H60F H 0.0185 0.2320 -0.4804
C42F C 0.3316(2) 0.37100(17) 0.5694(2)
H61F H 0.3290 0.3477 0.5286
H62F H 0.3670 0.3596 0.6225
H63F H 0.2823 0.3744 0.5680
C43F C 0.4021(3) 0.56325(17) 0.2876(3)
H64F H 0.3632 0.5800 0.2962
H65F H 0.4414 0.5863 0.2933
H66F H 0.3808 0.5494 0.2335
C44F C 0.25395(12) 0.30909(8) 0.14008(13)
C45F C 0.0050(4) 0.2310(2) -0.5980(3)
H67F H 0.0566 0.2221 -0.5867
H68F H 0.0009 0.2666 -0.6017
C46F C -0.0480(5) 0.2091(3) -0.6758(4)
H69F H -0.0990 0.2132 -0.6825
H70F H -0.0425 0.2251 -0.7200
H71F H -0.0371 0.1745 -0.6758
N1F N 0.16046(10) 0.28701(7) -0.02467(11)
N2F N 0.21241(10) 0.22478(7) -0.11288(11)
H72F H 0.2327 0.2380 -0.0677
N3F N -0.09415(11) 0.41027(8) -0.04042(12)
N4F N -0.14763(11) 0.37127(8) -0.19126(12)
N5F N -0.00369(11) 0.14761(8) -0.42971(13)
N6F N 0.36998(11) 0.40264(8) 0.39893(12)
N7F N 0.18597(10) 0.32676(7) 0.10127(11)
N8F N 0.09105(10) 0.26268(7) -0.16389(11)
C47F C -0.1350(6) 0.0769(3) -0.4819(6)
H73F H -0.1753 0.0621 -0.5298
H74F H -0.0865 0.0655 -0.4773
C48F C -0.1438(7) 0.0650(4) -0.4061(8)
H75F H -0.1886 0.0808 -0.4086
H76F H -0.1483 0.0299 -0.4021
H77F H -0.1002 0.0766 -0.3589
C49? C 0.5264(9) 0.2958(4) 0.6173(5)
H78? H 0.5696 0.3174 0.6454
H79? H 0.4822 0.3101 0.6198
C50? C 0.5420(12) 0.2454(5) 0.6530(9)
H80? H 0.5027 0.2234 0.6182
H81? H 0.5432 0.2461 0.7063
H82? H 0.5901 0.2342 0.6575
C51? C 0.6327(8) 0.4217(3) 0.4513(7)
H83? H 0.5986 0.4394 0.4676
H84? H 0.6823 0.4368 0.4809
C52? C 0.6084(9) 0.4337(5) 0.3647(8)
H85? H 0.6068 0.4689 0.3580
H86? H 0.5588 0.4202 0.3326
H87? H 0.6436 0.4199 0.3469
loop_
_geom_bond_atom_site_label_1
_geom_bond_atom_site_label_2
_geom_bond_site_symmetry_1
_geom_bond_site_symmetry_2
C1 C2 1_555 1_555
C2 N1 1_555 1_555
C3 C1 1_555 1_555
C4 C8 1_555 1_555
C5 C13 1_555 1_555
C6 C3 1_555 1_555
C7 C3 1_555 1_555
H1 C7 1_555 1_555
C8 C14 1_555 1_555
C9 C1 1_555 1_555
H2 C9 1_555 1_555
C10 C7 1_555 1_555
C11 H3 1_555 1_555
H4 C11 1_555 1_555
C12 C9 1_555 1_555
C13 H5 1_555 1_555
C14 H6 1_555 1_555
C15 C14 1_555 1_555
C16 C13 1_555 1_555
C17 H7 1_555 1_555
H8 C17 1_555 1_555
C18 H9 1_555 1_555
H10 C18 1_555 1_555
C19 H11 1_555 1_555
H12 C19 1_555 1_555
C20 C11 1_555 1_555
H13 C20 1_555 1_555
H14 C20 1_555 1_555
C21 H15 1_555 1_555
H16 C21 1_555 1_555
C22 C21 1_555 1_555
H17 C22 1_555 1_555
H18 C22 1_555 1_555
C23 C17 1_555 1_555
H19 C23 1_555 1_555
H20 C23 1_555 1_555
C24 H21 1_555 1_555
H22 C24 1_555 1_555
C25 C19 1_555 1_555
H23 C25 1_555 1_555
H24 C25 1_555 1_555
C26 C20 1_555 1_555
H25 C26 1_555 1_555
H26 C26 1_555 1_555
C27 C25 1_555 1_555
H27 C27 1_555 1_555
H28 C27 1_555 1_555
C28 H29 1_555 1_555
H30 C28 1_555 1_555
C29 C23 1_555 1_555
H31 C29 1_555 1_555
H32 C29 1_555 1_555
C30 C26 1_555 1_555
H33 C30 1_555 1_555
H34 C30 1_555 1_555
H35 C30 1_555 1_555
C31 C24 1_555 1_555
H36 C31 1_555 1_555
H37 C31 1_555 1_555
C32 H38 1_555 1_555
H39 C32 1_555 1_555
C33 C18 1_555 1_555
H40 C33 1_555 1_555
H41 C33 1_555 1_555
C34 C27 1_555 1_555
H42 C34 1_555 1_555
H43 C34 1_555 1_555
H44 C34 1_555 1_555
C35 C28 1_555 1_555
H45 C35 1_555 1_555
H46 C35 1_555 1_555
C36 C22 1_555 1_555
H47 C36 1_555 1_555
H48 C36 1_555 1_555
C37 C31 1_555 1_555
H49 C37 1_555 1_555
H50 C37 1_555 1_555
C38 C33 1_555 1_555
H51 C38 1_555 1_555
H52 C38 1_555 1_555
C39 C29 1_555 1_555
H53 C39 1_555 1_555
H54 C39 1_555 1_555
H55 C39 1_555 1_555
C40 C38 1_555 1_555
H56 C40 1_555 1_555
H57 C40 1_555 1_555
H58 C40 1_555 1_555
C41 C32 1_555 1_555
H59 C41 1_555 1_555
H60 C41 1_555 1_555
C42 C36 1_555 1_555
H61 C42 1_555 1_555
H62 C42 1_555 1_555
H63 C42 1_555 1_555
C43 C37 1_555 1_555
H64 C43 1_555 1_555
H65 C43 1_555 1_555
H66 C43 1_555 1_555
C44 C5 1_555 1_555
C45 C41 1_555 1_555
H67 C45 1_555 1_555
H68 C45 1_555 1_555
C46 C45 1_555 1_555
H69 C46 1_555 1_555
H70 C46 1_555 1_555
H71 C46 1_555 1_555
N1 C6 1_555 1_555
N2 C4 1_555 1_555
H72 N2 1_555 1_555
N3 C10 1_555 1_555
N4 C12 1_555 1_555
N5 C15 1_555 1_555
N6 C16 1_555 1_555
N7 C6 1_555 1_555
N8 C2 1_555 1_555
C47 C35 1_555 1_555
H73 C47 1_555 1_555
H74 C47 1_555 1_555
C48 C47 1_555 1_555
H75 C48 1_555 1_555
H76 C48 1_555 1_555
H77 C48 1_555 1_555
C1F C2F 1_555 1_555
C2F N1F 1_555 1_555
C3F C1F 1_555 1_555
C4F C8F 1_555 1_555
C5F C8 1_555 1_555
C6F C3F 1_555 1_555
C7F C3F 1_555 1_555
H1F C7F 1_555 1_555
C8F C5 1_555 1_555
C9F C1F 1_555 1_555
H2F C9F 1_555 1_555
C10F C7F 1_555 1_555
C11F H3F 1_555 1_555
H4F C11F 1_555 1_555
C12F C9F 1_555 1_555
C13F C5F 1_555 1_555
H5F C13F 1_555 1_555
C14F C8F 1_555 1_555
H6F C14F 1_555 1_555
C15F C16 1_555 1_555
C16F C15 1_555 1_555
C17F H7F 1_555 1_555
H8F C17F 1_555 1_555
C18F H9F 1_555 1_555
H10F C18F 1_555 1_555
C19F H11F 1_555 1_555
H12F C19F 1_555 1_555
C20F C11F 1_555 1_555
H13F C20F 1_555 1_555
H14F C20F 1_555 1_555
C21F H15F 1_555 1_555
H16F C21F 1_555 1_555
C22F C21F 1_555 1_555
H17F C22F 1_555 1_555
H18F C22F 1_555 1_555
C23F C17F 1_555 1_555
H19F C23F 1_555 1_555
H20F C23F 1_555 1_555
C24F H21F 1_555 1_555
H22F C24F 1_555 1_555
C25F C19F 1_555 1_555
H23F C25F 1_555 1_555
H24F C25F 1_555 1_555
C26F C20F 1_555 1_555
H25F C26F 1_555 1_555
H26F C26F 1_555 1_555
C27F C25F 1_555 1_555
H27F C27F 1_555 1_555
H28F C27F 1_555 1_555
C28F H29F 1_555 1_555
H30F C28F 1_555 1_555
C29F C23F 1_555 1_555
H31F C29F 1_555 1_555
H32F C29F 1_555 1_555
C30F C26F 1_555 1_555
H33F C30F 1_555 1_555
H34F C30F 1_555 1_555
H35F C30F 1_555 1_555
C31F C24F 1_555 1_555
H36F C31F 1_555 1_555
H37F C31F 1_555 1_555
C32F H38F 1_555 1_555
H39F C32F 1_555 1_555
C33F C18F 1_555 1_555
H40F C33F 1_555 1_555
H41F C33F 1_555 1_555
C34F C27F 1_555 1_555
H42F C34F 1_555 1_555
H43F C34F 1_555 1_555
H44F C34F 1_555 1_555
C35F C28F 1_555 1_555
H45F C35F 1_555 1_555
H46F C35F 1_555 1_555
C36F C22F 1_555 1_555
H47F C36F 1_555 1_555
H48F C36F 1_555 1_555
C37F C31F 1_555 1_555
H49F C37F 1_555 1_555
H50F C37F 1_555 1_555
C38F C33F 1_555 1_555
H51F C38F 1_555 1_555
H52F C38F 1_555 1_555
C39F C29F 1_555 1_555
H53F C39F 1_555 1_555
H54F C39F 1_555 1_555
H55F C39F 1_555 1_555
C40F C38F 1_555 1_555
H56F C40F 1_555 1_555
H57F C40F 1_555 1_555
H58F C40F 1_555 1_555
C41F C32F 1_555 1_555
H59F C41F 1_555 1_555
H60F C41F 1_555 1_555
C42F C36F 1_555 1_555
H61F C42F 1_555 1_555
H62F C42F 1_555 1_555
H63F C42F 1_555 1_555
C43F C37F 1_555 1_555
H64F C43F 1_555 1_555
H65F C43F 1_555 1_555
H66F C43F 1_555 1_555
C44F N2 1_555 1_555
C45F C41F 1_555 1_555
H67F C45F 1_555 1_555
H68F C45F 1_555 1_555
C46F C45F 1_555 1_555
H69F C46F 1_555 1_555
H70F C46F 1_555 1_555
H71F C46F 1_555 1_555
N1F C6F 1_555 1_555
N2F C44 1_555 1_555
H72F N2F 1_555 1_555
N3F C10F 1_555 1_555
N4F C12F 1_555 1_555
N5F C15F 1_555 1_555
N6F C16F 1_555 1_555
N7F C6F 1_555 1_555
N8F C2F 1_555 1_555
C47F C35F 1_555 1_555
H73F C47F 1_555 1_555
H74F C47F 1_555 1_555
C48F C47F 1_555 1_555
H75F C48F 1_555 1_555
H76F C48F 1_555 1_555
H77F C48F 1_555 1_555
C4 N8 1_555 1_555
C10 C12 1_555 1_555
C11 N3 1_555 1_555
C17 N3 1_555 1_555
C18 N4 1_555 1_555
C19 N4 1_555 1_555
C21 N6 1_555 1_555
C24 N6 1_555 1_555
C28 N5 1_555 1_555
C32 N5 1_555 1_555
C44 N7 1_555 1_555
C4F N2F 1_555 1_555
C4F N8F 1_555 1_555
C5F C44F 1_555 1_555
C10F C12F 1_555 1_555
C11F N3F 1_555 1_555
C13F C16F 1_555 1_555
C14F C15F 1_555 1_555
C17F N3F 1_555 1_555
C18F N4F 1_555 1_555
C19F N4F 1_555 1_555
C21F N6F 1_555 1_555
C24F N6F 1_555 1_555
C28F N5F 1_555 1_555
C32F N5F 1_555 1_555
C44F N7F 1_555 1_555

#END
