
#######################################################################
#
#                 Cambridge Crystallographic Data Centre
#                                CCDC 
#
#######################################################################
#
# If this CIF has been generated from an entry in the Cambridge 
# Structural Database, then it will include bibliographic, chemical, 
# crystal, experimental, refinement or atomic coordinate data resulting 
# from the CCDC's data processing and validation procedures.
#
#######################################################################

data_ZAQBIC
_chemical_name_common            'Teaching Subset: Fundamental Chemistry'
_chemical_formula_moiety         'C11 H24 N1 1+,Br1 F6 1-'
_chemical_name_systematic        
'1,1,3,3,5,5-Hexamethylpiperidinium hexafluorobromate(v)'
_symmetry_cell_setting           triclinic
_symmetry_space_group_name_H-M   'P -1'
_symmetry_Int_Tables_number      2
_space_group_name_Hall           '-P 1'
loop_
_symmetry_equiv_pos_site_id
_symmetry_equiv_pos_as_xyz
1 x,y,z
2 -x,-y,-z
_cell_length_a                   7.477(1)
_cell_length_b                   8.358(2)
_cell_length_c                   12.692(2)
_cell_angle_alpha                86.50(1)
_cell_angle_beta                 73.55(1)
_cell_angle_gamma                80.29(1)
_cell_volume                     749.72
_exptl_crystal_colour            colorless
_cell_formula_units_Z            2
loop_
_atom_site_label
_atom_site_type_symbol
_atom_site_fract_x
_atom_site_fract_y
_atom_site_fract_z
Br1 Br 0.3149 0.7110 0.6701
F1 F 0.2622(3) 0.9141(2) 0.7372(2)
F2 F 0.3609(3) 0.5109(2) 0.6085(2)
F3 F 0.2599(5) 0.8091(3) 0.5466(2)
F4 F 0.5543(3) 0.7296(3) 0.6137(2)
F5 F 0.3703(4) 0.6159(3) 0.7916(2)
F6 F 0.0766(4) 0.6831(3) 0.7292(3)
N1 N 1.0618(3) 0.7390(3) 0.3304(2)
C1 C 0.9846(4) 0.7167(3) 0.2360(2)
C2 C 1.1149(4) 0.7164(3) 0.1204(2)
C3 C 1.2104(4) 0.8660(4) 0.1054(2)
C4 C 1.2955(4) 0.9000(4) 0.1956(3)
C5 C 1.1567(4) 0.8879(4) 0.3082(2)
C6 C 0.9032(5) 0.7711(4) 0.4312(2)
C7 C 1.1820(5) 0.5883(4) 0.3541(3)
C8 C 0.9892(5) 0.7358(5) 0.0446(3)
C9 C 1.2450(5) 0.5557(4) 0.0894(3)
C10 C 1.4825(5) 0.7980(5) 0.1866(4)
C11 C 1.3247(5) 1.0789(4) 0.1835(4)
H1 H 0.9370 0.6194 0.2510
H2 H 0.8842 0.8105 0.2372
H3 H 1.3101 0.8670 0.0289
H4 H 1.1291 0.9585 0.1024
H5 H 1.0485 0.9850 0.3156
H6 H 1.2039 0.8914 0.3671
H7 H 0.8219 0.8713 0.4274
H8 H 0.9470 0.7805 0.4969
H9 H 0.8238 0.6769 0.4487
H10 H 1.2838 0.5555 0.2958
H11 H 1.1120 0.4961 0.3696
H12 H 1.2230 0.5981 0.4243
H13 H 1.0634 0.7480 -0.0272
H14 H 0.8941 0.8368 0.0601
H15 H 0.9289 0.6539 0.0532
H16 H 1.3361 0.5378 0.1189
H17 H 1.2956 0.5596 0.0112
H18 H 1.1738 0.4651 0.1054
H19 H 1.4888 0.6837 0.1844
H20 H 1.5265 0.8238 0.2422
H21 H 1.5707 0.8202 0.1136
H22 H 1.4145 1.0938 0.1133
H23 H 1.3710 1.1160 0.2380
H24 H 1.2106 1.1569 0.1918
loop_
_geom_bond_atom_site_label_1
_geom_bond_atom_site_label_2
_geom_bond_site_symmetry_1
_geom_bond_site_symmetry_2
Br1 F1 1_555 1_555
F2 Br1 1_555 1_555
F3 Br1 1_555 1_555
F4 Br1 1_555 1_555
F5 Br1 1_555 1_555
F6 Br1 1_555 1_555
N1 C1 1_555 1_555
C1 C2 1_555 1_555
C2 C3 1_555 1_555
C3 C4 1_555 1_555
C4 C5 1_555 1_555
C5 N1 1_555 1_555
C6 N1 1_555 1_555
C7 N1 1_555 1_555
C8 C2 1_555 1_555
C9 C2 1_555 1_555
C10 C4 1_555 1_555
C11 C4 1_555 1_555
H1 C1 1_555 1_555
H2 C1 1_555 1_555
H3 C3 1_555 1_555
H4 C3 1_555 1_555
H5 C5 1_555 1_555
H6 C5 1_555 1_555
H7 C6 1_555 1_555
H8 C6 1_555 1_555
H9 C6 1_555 1_555
H10 C7 1_555 1_555
H11 C7 1_555 1_555
H12 C7 1_555 1_555
H13 C8 1_555 1_555
H14 C8 1_555 1_555
H15 C8 1_555 1_555
H16 C9 1_555 1_555
H17 C9 1_555 1_555
H18 C9 1_555 1_555
H19 C10 1_555 1_555
H20 C10 1_555 1_555
H21 C10 1_555 1_555
H22 C11 1_555 1_555
H23 C11 1_555 1_555
H24 C11 1_555 1_555

#END
