
#######################################################################
#
#                 Cambridge Crystallographic Data Centre
#                                CCDC 
#
#######################################################################
#
# If this CIF has been generated from an entry in the Cambridge 
# Structural Database, then it will include bibliographic, chemical, 
# crystal, experimental, refinement or atomic coordinate data resulting 
# from the CCDC's data processing and validation procedures.
#
#######################################################################

data_ZAQBID
_chemical_formula_moiety         'C11 H24 N1 1+,F1 1-,2(C1 H2 F2)'
_chemical_name_systematic        
'1,1,3,3,5,5-Hexamethylpiperidinium fluoride difluoromethane solvate'
_symmetry_cell_setting           monoclinic
_symmetry_space_group_name_H-M   'P 21/c'
_symmetry_Int_Tables_number      14
_space_group_name_Hall           '-P 2ybc'
loop_
_symmetry_equiv_pos_site_id
_symmetry_equiv_pos_as_xyz
1 x,y,z
2 -x,1/2+y,1/2-z
3 -x,-y,-z
4 x,1/2-y,1/2+z
_cell_length_a                   11.912(4)
_cell_length_b                   8.616(6)
_cell_length_c                   15.650(4)
_cell_angle_alpha                90
_cell_angle_beta                 95.19(2)
_cell_angle_gamma                90
_cell_volume                     1599.63
_exptl_crystal_colour            colorless
_cell_formula_units_Z            4
loop_
_atom_site_label
_atom_site_type_symbol
_atom_site_fract_x
_atom_site_fract_y
_atom_site_fract_z
F1 F 0.4210(6) 0.0697(8) 0.3519(5)
F2 F 0.6487(7) 0.8137(10) 0.4294(5)
F3 F 0.5049(7) 0.6783(9) 0.4539(5)
C1 C 0.5479(13) 0.8272(18) 0.4596(10)
H1 H 0.5577 0.8688 0.5249
H2 H 0.4952 0.9066 0.4205
F4 F 0.2290(10) 0.4167(11) 0.3226(7)
F5 F 0.1515(9) 0.2667(13) 0.4019(7)
C2 C 0.2583(17) 0.3237(22) 0.3850(12)
H3 H 0.3163 0.2330 0.3706
H4 H 0.2972 0.3968 0.4353
N1 N 0.6549(9) 0.3406(13) 0.3177(7)
C3 C 0.8508(11) 0.4719(14) 0.3372(9)
C4 C 0.8094(13) 0.2174(16) 0.4252(9)
C5 C 0.7233(12) 0.4882(15) 0.3214(9)
C6 C 0.8769(12) 0.3743(14) 0.4231(8)
C7 C 0.6841(11) 0.2465(14) 0.4009(9)
C8 C 0.6681(12) 0.2474(14) 0.2386(7)
C9 C 0.5311(12) 0.3858(14) 0.3129(10)
C10 C 0.9112(12) 0.4137(15) 0.2619(8)
C11 C 0.8933(12) 0.6329(13) 0.3609(9)
C12 C 0.8595(13) 0.0838(15) 0.3768(9)
C13 C 0.8117(13) 0.1721(16) 0.5204(8)
H5 H 0.7087 0.5357 0.2575
H6 H 0.6925 0.5682 0.3670
H7 H 0.8584 0.4453 0.4770
H8 H 0.9659 0.3481 0.4278
H9 H 0.6490 0.1323 0.3886
H10 H 0.6429 0.3012 0.4517
H11 H 0.7520 0.2031 0.2334
H12 H 0.6430 0.3191 0.1836
H13 H 0.6100 0.1516 0.2410
H14 H 0.5143 0.4555 0.3677
H15 H 0.4814 0.2809 0.3120
H16 H 0.5092 0.4508 0.2547
H17 H 0.8859 0.2997 0.2388
H18 H 0.9997 0.4125 0.2840
H19 H 0.8965 0.4970 0.2105
H20 H 0.9844 0.6326 0.3678
H21 H 0.8622 0.6757 0.4192
H22 H 0.8638 0.7072 0.3079
H23 H 0.8620 0.1021 0.3087
H24 H 0.8046 -0.0128 0.3873
H25 H 0.9434 0.0590 0.4056
H26 H 0.8966 0.1421 0.5450
H27 H 0.7581 0.0713 0.5227
H28 H 0.7805 0.2636 0.5591
loop_
_geom_bond_atom_site_label_1
_geom_bond_atom_site_label_2
_geom_bond_site_symmetry_1
_geom_bond_site_symmetry_2
F2 C1 1_555 1_555
F3 C1 1_555 1_555
C1 H1 1_555 1_555
H2 C1 1_555 1_555
F4 C2 1_555 1_555
F5 C2 1_555 1_555
C2 H3 1_555 1_555
H4 C2 1_555 1_555
N1 C5 1_555 1_555
C3 C5 1_555 1_555
C4 C6 1_555 1_555
C5 H5 1_555 1_555
C6 C3 1_555 1_555
C7 N1 1_555 1_555
C8 N1 1_555 1_555
C9 N1 1_555 1_555
C10 C3 1_555 1_555
C11 C3 1_555 1_555
C12 C4 1_555 1_555
C13 C4 1_555 1_555
H6 C5 1_555 1_555
H7 C6 1_555 1_555
H8 C6 1_555 1_555
H9 C7 1_555 1_555
H10 C7 1_555 1_555
H11 C8 1_555 1_555
H12 C8 1_555 1_555
H13 C8 1_555 1_555
H14 C9 1_555 1_555
H15 C9 1_555 1_555
H16 C9 1_555 1_555
H17 C10 1_555 1_555
H18 C10 1_555 1_555
H19 C10 1_555 1_555
H20 C11 1_555 1_555
H21 C11 1_555 1_555
H22 C11 1_555 1_555
H23 C12 1_555 1_555
H24 C12 1_555 1_555
H25 C12 1_555 1_555
H26 C13 1_555 1_555
H27 C13 1_555 1_555
H28 C13 1_555 1_555
C4 C7 1_555 1_555

#END
