
#######################################################################
#
#                 Cambridge Crystallographic Data Centre
#                                CCDC 
#
#######################################################################
#
# If this CIF has been generated from an entry in the Cambridge 
# Structural Database, then it will include bibliographic, chemical, 
# crystal, experimental, refinement or atomic coordinate data resulting 
# from the CCDC's data processing and validation procedures.
#
#######################################################################

data_ZAQCAX
_chemical_formula_moiety         'C13 H12 N3 O3 1+,Br1 1-'
_chemical_name_systematic        
'3-Carbamoyl-1-(2-nitrobenzyl)pyridinium bromide'
_symmetry_cell_setting           monoclinic
_symmetry_space_group_name_H-M   'P 21/c'
_symmetry_Int_Tables_number      14
_space_group_name_Hall           '-P 2ybc'
loop_
_symmetry_equiv_pos_site_id
_symmetry_equiv_pos_as_xyz
1 x,y,z
2 -x,1/2+y,1/2-z
3 -x,-y,-z
4 x,1/2-y,1/2+z
_cell_length_a                   17.576(4)
_cell_length_b                   7.9990(16)
_cell_length_c                   10.152(2)
_cell_angle_alpha                90
_cell_angle_beta                 105.88(3)
_cell_angle_gamma                90
_cell_volume                     1372.8
_exptl_crystal_colour            colorless
_exptl_crystal_description       block
_cell_formula_units_Z            4
loop_
_atom_site_label
_atom_site_type_symbol
_atom_site_fract_x
_atom_site_fract_y
_atom_site_fract_z
Br1 Br 0.299001(18) 0.53711(4) 0.36253(3)
N1 N 0.51901(17) 0.2174(4) 0.9902(3)
H1 H 0.5634(10) 0.181(4) 1.041(3)
H2 H 0.506(2) 0.193(5) 0.9045(10)
N2 N 0.09788(14) 0.6339(3) 1.1536(2)
N3 N 0.27770(14) 0.5158(3) 0.9346(2)
O1 O 0.48818(12) 0.3289(3) 1.1724(2)
O2 O 0.11894(12) 0.7569(3) 1.1007(2)
O3 O 0.06762(15) 0.6449(3) 1.2487(3)
C1 C 0.47318(17) 0.3051(4) 1.0485(3)
C2 C 0.40031(16) 0.3825(3) 0.9549(3)
C3 C 0.38718(18) 0.3982(4) 0.8142(3)
H3 H 0.4249 0.3592 0.7728
C4 C 0.31891(19) 0.4710(4) 0.7355(3)
H4 H 0.3101 0.4811 0.6412
C5 C 0.26429(18) 0.5282(4) 0.7981(3)
H5 H 0.2175 0.5760 0.7459
C6 C 0.34414(16) 0.4456(3) 1.0136(3)
H6 H 0.3523 0.4396 1.1080
C7 C 0.21733(16) 0.5811(3) 0.9988(3)
H7 H 0.1859 0.6657 0.9398
H8 H 0.2436 0.6335 1.0854
C8 C 0.16318(15) 0.4428(3) 1.0230(3)
C9 C 0.16802(17) 0.2812(4) 0.9765(3)
H9 H 0.2030 0.2585 0.9246
C10 C 0.12235(18) 0.1532(4) 1.0052(3)
H10 H 0.1267 0.0464 0.9717
C11 C 0.07044(18) 0.1813(4) 1.0828(3)
H11 H 0.0404 0.0941 1.1028
C12 C 0.06342(17) 0.3402(4) 1.1305(3)
H12 H 0.0284 0.3615 1.1825
C13 C 0.10931(15) 0.4683(3) 1.1001(3)
loop_
_geom_bond_atom_site_label_1
_geom_bond_atom_site_label_2
_geom_bond_site_symmetry_1
_geom_bond_site_symmetry_2
N1 H1 1_555 1_555
H2 N1 1_555 1_555
N2 O2 1_555 1_555
N3 C5 1_555 1_555
O1 C1 1_555 1_555
O3 N2 1_555 1_555
C1 N1 1_555 1_555
C2 C1 1_555 1_555
C3 C2 1_555 1_555
H3 C3 1_555 1_555
C4 C3 1_555 1_555
H4 C4 1_555 1_555
C5 C4 1_555 1_555
H5 C5 1_555 1_555
C6 N3 1_555 1_555
H6 C6 1_555 1_555
C7 N3 1_555 1_555
H7 C7 1_555 1_555
H8 C7 1_555 1_555
C8 C7 1_555 1_555
C9 C8 1_555 1_555
H9 C9 1_555 1_555
C10 C9 1_555 1_555
H10 C10 1_555 1_555
C11 C10 1_555 1_555
H11 C11 1_555 1_555
C12 C11 1_555 1_555
H12 C12 1_555 1_555
C13 N2 1_555 1_555
C2 C6 1_555 1_555
C8 C13 1_555 1_555
C12 C13 1_555 1_555

#END
