
#######################################################################
#
#                 Cambridge Crystallographic Data Centre
#                                CCDC 
#
#######################################################################
#
# If this CIF has been generated from an entry in the Cambridge 
# Structural Database, then it will include bibliographic, chemical, 
# crystal, experimental, refinement or atomic coordinate data resulting 
# from the CCDC's data processing and validation procedures.
#
#######################################################################

data_ZAQDIH
_chemical_formula_moiety         'C21 H13 F1 N4 O1'
_chemical_name_systematic        
6-(2-cyanophenyl)-7-(4-fluorophenyl)-5-oxo-2,3,5,6-tetrahydroimidazo[1,2-a]pyridine-6-carbonitrile
_symmetry_cell_setting           triclinic
_symmetry_space_group_name_H-M   'P -1'
_symmetry_Int_Tables_number      2
_space_group_name_Hall           '-P 1'
loop_
_symmetry_equiv_pos_site_id
_symmetry_equiv_pos_as_xyz
1 x,y,z
2 -x,-y,-z
_cell_length_a                   8.1557(9)
_cell_length_b                   8.6242(8)
_cell_length_c                   13.0701(13)
_cell_angle_alpha                109.147(9)
_cell_angle_beta                 95.496(8)
_cell_angle_gamma                100.594(8)
_cell_volume                     841.5
_exptl_crystal_colour            yellow
_exptl_crystal_description       needle
_chemical_melting_point          '170-172 deg.C'
_cell_formula_units_Z            2
_exptl_crystal_recrystallization_method chloroform/methanol
loop_
_atom_site_label
_atom_site_type_symbol
_atom_site_fract_x
_atom_site_fract_y
_atom_site_fract_z
O1 O 0.63499(17) 0.24207(17) 0.05758(10)
N1 N 0.55120(18) 0.23442(17) 0.21507(11)
C1 C 0.8146(2) 0.4355(2) 0.22464(13)
C2 C 0.8397(2) 0.5719(2) 0.17182(12)
C3 C 0.9568(2) 0.6545(2) 0.41846(13)
C4 C 0.5532(2) 0.3079(2) 0.32836(13)
N2 N 0.4339(2) 0.2352(2) 0.36445(12)
F1 F 1.34339(16) 1.04514(16) 0.62189(10)
C5 C 0.6884(2) 0.4502(2) 0.39194(14)
H1 H 0.6873 0.5007 0.4665
C6 C 0.8150(2) 0.5131(2) 0.34935(13)
C7 C 1.1197(2) 0.6761(2) 0.39348(14)
H2 H 1.1415 0.6005 0.3297
C8 C 0.6549(2) 0.2954(2) 0.15754(14)
C9 C 0.9481(2) 0.3390(2) 0.20644(14)
C10 C 0.9878(2) 0.6165(2) 0.13483(13)
H3 H 1.0746 0.5619 0.1407
C11 C 0.3943(2) 0.1048(2) 0.16776(15)
H4 H 0.4151 -0.0002 0.1204
H5 H 0.3134 0.1415 0.1269
C12 C 0.7101(2) 0.6531(2) 0.15969(14)
C13 C 1.0594(3) 0.8995(2) 0.58367(16)
H6 H 1.0404 0.9747 0.6485
C14 C 1.2157(2) 0.9150(2) 0.55472(15)
C15 C 0.5487(3) 0.6104(3) 0.19200(17)
C16 C 1.2498(2) 0.8070(2) 0.46105(15)
H7 H 1.3578 0.8211 0.4431
C17 C 1.0094(3) 0.7414(2) 0.08902(15)
H8 H 1.1106 0.7708 0.0653
C18 C 0.7326(3) 0.7776(3) 0.11291(16)
H9 H 0.6457 0.8312 0.1049
C19 C 0.9297(2) 0.7700(2) 0.51504(14)
H10 H 0.8220 0.7594 0.5335
N3 N 1.0432(2) 0.2563(2) 0.19023(15)
C20 C 0.3348(2) 0.0881(3) 0.27137(15)
H11 H 0.2150 0.0860 0.2677
H12 H 0.3534 -0.0154 0.2797
C21 C 0.8818(3) 0.8214(3) 0.07880(16)
H13 H 0.8967 0.9057 0.0485
N4 N 0.4194(2) 0.5800(3) 0.21568(18)
loop_
_geom_bond_atom_site_label_1
_geom_bond_atom_site_label_2
_geom_bond_site_symmetry_1
_geom_bond_site_symmetry_2
O1 C8 1_555 1_555
N1 C4 1_555 1_555
C1 C2 1_555 1_555
C2 C10 1_555 1_555
C3 C6 1_555 1_555
C4 N2 1_555 1_555
N2 C20 1_555 1_555
F1 C14 1_555 1_555
C5 C4 1_555 1_555
H1 C5 1_555 1_555
C6 C1 1_555 1_555
C7 C3 1_555 1_555
H2 C7 1_555 1_555
C8 N1 1_555 1_555
C9 C1 1_555 1_555
C10 H3 1_555 1_555
C11 N1 1_555 1_555
H4 C11 1_555 1_555
H5 C11 1_555 1_555
C12 C2 1_555 1_555
C13 H6 1_555 1_555
C14 C13 1_555 1_555
C15 C12 1_555 1_555
C16 C7 1_555 1_555
H7 C16 1_555 1_555
C17 C10 1_555 1_555
H8 C17 1_555 1_555
C18 C12 1_555 1_555
H9 C18 1_555 1_555
C19 C3 1_555 1_555
H10 C19 1_555 1_555
N3 C9 1_555 1_555
C20 C11 1_555 1_555
H11 C20 1_555 1_555
H12 C20 1_555 1_555
C21 C17 1_555 1_555
H13 C21 1_555 1_555
N4 C15 1_555 1_555
C1 C8 1_555 1_555
C5 C6 1_555 1_555
C13 C19 1_555 1_555
C14 C16 1_555 1_555
C18 C21 1_555 1_555

#END
