
#######################################################################
#
#                 Cambridge Crystallographic Data Centre
#                                CCDC 
#
#######################################################################
#
# If this CIF has been generated from an entry in the Cambridge 
# Structural Database, then it will include bibliographic, chemical, 
# crystal, experimental, refinement or atomic coordinate data resulting 
# from the CCDC's data processing and validation procedures.
#
#######################################################################

data_ZAQFUV
_chemical_formula_moiety         'C20 H22 N2 O4'
_chemical_name_systematic        
'ethyl 5-cyano-6-((ethoxymethylene)amino)-2-methyl-4-(4-methylphenyl)-4H-pyran-3-carboxylate'
_symmetry_cell_setting           triclinic
_symmetry_space_group_name_H-M   'P -1'
_symmetry_Int_Tables_number      2
_space_group_name_Hall           '-P 1'
loop_
_symmetry_equiv_pos_site_id
_symmetry_equiv_pos_as_xyz
1 x,y,z
2 -x,-y,-z
_cell_length_a                   10.005(5)
_cell_length_b                   10.325(6)
_cell_length_c                   10.450(6)
_cell_angle_alpha                85.352(5)
_cell_angle_beta                 62.751(4)
_cell_angle_gamma                83.765(4)
_cell_volume                     953.429
_exptl_crystal_colour            colorless
_exptl_crystal_description       BLOCK
_cell_formula_units_Z            2
_exptl_crystal_recrystallization_method 'Vapour Deposition'
loop_
_atom_site_label
_atom_site_type_symbol
_atom_site_fract_x
_atom_site_fract_y
_atom_site_fract_z
C1 C 1.12608(19) 0.71542(17) 0.5005(2)
C2 C 0.89571(19) 0.89595(16) 0.6633(2)
C3 C 0.88461(19) 0.82865(17) 0.5656(2)
C4 C 1.0244(2) 0.81523(18) 0.9470(2)
H1 H 1.0908 0.8795 0.9249
C5 C 0.7866(2) 1.00588(18) 0.7400(2)
C6 C 1.02225(19) 0.86538(17) 0.70602(19)
H2 H 1.0598 0.9475 0.7116
C7 C 0.8311(2) 0.62395(19) 1.0160(2)
H3 H 0.7662 0.5585 1.0376
C8 C 1.14927(19) 0.78509(17) 0.5897(2)
C9 C 0.97027(18) 0.79255(16) 0.85088(19)
C10 C 0.9808(2) 0.7432(2) 1.0758(2)
H4 H 1.0186 0.7603 1.1386
C11 C 0.8831(2) 0.64715(18) 1.1128(2)
C12 C 0.8728(2) 0.69522(18) 0.8880(2)
H5 H 0.8348 0.6776 0.8256
C13 C 1.4478(2) 0.4519(2) 0.2364(2)
H6 H 1.4326 0.4223 0.3323
H7 H 1.5041 0.5288 0.2089
C14 C 0.5334(2) 1.0996(2) 0.8205(3)
H8 H 0.5631 1.1807 0.7653
H9 H 0.5165 1.1114 0.9181
C15 C 0.7727(2) 0.8437(2) 0.5074(2)
H10 H 0.8243 0.8359 0.4047
H11 H 0.7180 0.9278 0.5303
H12 H 0.7036 0.7770 0.5496
C16 C 1.2096(3) 0.5688(2) 0.3246(3)
H13 H 1.1165 0.5873 0.3246
C17 C 0.8304(3) 0.5699(2) 1.2541(2)
H14 H 0.8961 0.5795 1.2962
H15 H 0.8322 0.4795 1.2375
H16 H 0.7294 0.6016 1.3184
C18 C 1.5322(3) 0.3471(2) 0.1318(3)
H17 H 1.4749 0.2720 0.1594
H18 H 1.6278 0.3238 0.1316
H19 H 1.5481 0.3780 0.0371
C19 C 0.3952(3) 1.0610(3) 0.8208(4)
H20 H 0.4143 1.0479 0.7238
H21 H 0.3153 1.1285 0.8617
H22 H 0.3662 0.9815 0.8771
C20 C 1.2953(2) 0.7755(2) 0.5833(2)
N1 N 1.23492(16) 0.62768(14) 0.40908(16)
N2 N 1.4106(2) 0.7727(2) 0.5801(2)
O1 O 0.99026(13) 0.72601(12) 0.49691(14)
O2 O 0.64924(15) 0.99472(13) 0.75503(16)
O3 O 1.30633(17) 0.48165(17) 0.23468(19)
O4 O 0.81868(17) 1.09378(14) 0.78588(19)
loop_
_geom_bond_atom_site_label_1
_geom_bond_atom_site_label_2
_geom_bond_site_symmetry_1
_geom_bond_site_symmetry_2
C1 C8 1_555 1_555
C2 C3 1_555 1_555
C3 C15 1_555 1_555
C4 H1 1_555 1_555
C5 C2 1_555 1_555
C6 C2 1_555 1_555
H2 C6 1_555 1_555
C7 H3 1_555 1_555
C8 C6 1_555 1_555
C9 C4 1_555 1_555
C10 C4 1_555 1_555
H4 C10 1_555 1_555
C11 C7 1_555 1_555
C12 C7 1_555 1_555
H5 C12 1_555 1_555
C13 H6 1_555 1_555
H7 C13 1_555 1_555
C14 H8 1_555 1_555
H9 C14 1_555 1_555
C15 H10 1_555 1_555
H11 C15 1_555 1_555
H12 C15 1_555 1_555
C16 H13 1_555 1_555
C17 C11 1_555 1_555
H14 C17 1_555 1_555
H15 C17 1_555 1_555
H16 C17 1_555 1_555
C18 C13 1_555 1_555
H17 C18 1_555 1_555
H18 C18 1_555 1_555
H19 C18 1_555 1_555
C19 C14 1_555 1_555
H20 C19 1_555 1_555
H21 C19 1_555 1_555
H22 C19 1_555 1_555
C20 C8 1_555 1_555
N1 C1 1_555 1_555
N2 C20 1_555 1_555
O1 C1 1_555 1_555
O2 C5 1_555 1_555
O3 C13 1_555 1_555
O4 C5 1_555 1_555
C3 O1 1_555 1_555
C6 C9 1_555 1_555
C9 C12 1_555 1_555
C10 C11 1_555 1_555
C14 O2 1_555 1_555
C16 N1 1_555 1_555
C16 O3 1_555 1_555

#END
