
#######################################################################
#
#                 Cambridge Crystallographic Data Centre
#                                CCDC 
#
#######################################################################
#
# If this CIF has been generated from an entry in the Cambridge 
# Structural Database, then it will include bibliographic, chemical, 
# crystal, experimental, refinement or atomic coordinate data resulting 
# from the CCDC's data processing and validation procedures.
#
#######################################################################

data_ZAQFEE
_chemical_formula_moiety         'C17 H11 Cl2 N3 O1'
_chemical_name_systematic        
(Z)-1,3-bis(4-chlorophenyl)-2-(1H-1,2,4-triazol-1-yl)prop-2-en-1-one
_symmetry_cell_setting           triclinic
_symmetry_space_group_name_H-M   'P -1'
_symmetry_Int_Tables_number      2
_space_group_name_Hall           '-P 1'
loop_
_symmetry_equiv_pos_site_id
_symmetry_equiv_pos_as_xyz
1 x,y,z
2 -x,-y,-z
_cell_length_a                   5.588(3)
_cell_length_b                   11.850(7)
_cell_length_c                   12.653(8)
_cell_angle_alpha                74.787(10)
_cell_angle_beta                 88.884(9)
_cell_angle_gamma                86.461(9)
_cell_volume                     806.946
_exptl_crystal_colour            yellow
_exptl_crystal_description       block
_cell_formula_units_Z            2
loop_
_atom_site_label
_atom_site_type_symbol
_atom_site_fract_x
_atom_site_fract_y
_atom_site_fract_z
Cl1 Cl 1.58438(14) 0.60011(6) -0.17465(5)
Cl2 Cl 0.14916(9) 0.80981(5) 0.64259(4)
C1 C 1.4458(4) 0.6784(2) -0.08893(15)
C2 C 1.5551(4) 0.7730(2) -0.07247(16)
H1 H 1.6975 0.7964 -0.1085
C3 C 1.4505(4) 0.83280(18) -0.00168(16)
H2 H 1.5235 0.8969 0.0100
C4 C 1.2364(3) 0.79806(16) 0.05257(14)
C5 C 1.1286(4) 0.70284(18) 0.03344(15)
H3 H 0.9861 0.6788 0.0691
C6 C 1.2320(4) 0.6435(2) -0.03847(17)
H4 H 1.1579 0.5808 -0.0525
C7 C 1.1296(3) 0.87101(16) 0.12331(15)
C8 C 0.9716(3) 0.81969(14) 0.21872(14)
C9 C 1.1937(3) 0.63087(16) 0.31196(15)
H5 H 1.3439 0.6594 0.3154
C10 C 0.9086(4) 0.52367(17) 0.32519(19)
H6 H 0.8222 0.4566 0.3425
C11 C 0.8102(3) 0.88957(15) 0.25517(14)
H7 H 0.7981 0.9669 0.2131
C12 C 0.6506(3) 0.86366(14) 0.35025(13)
C13 C 0.6915(3) 0.77059(16) 0.44322(14)
H8 H 0.8248 0.7190 0.4452
C14 C 0.5387(3) 0.75364(16) 0.53190(15)
H9 H 0.5684 0.6911 0.5931
C15 C 0.3405(3) 0.83027(15) 0.52953(14)
C16 C 0.2943(3) 0.92271(17) 0.43910(16)
H10 H 0.1595 0.9733 0.4373
C17 C 0.4495(3) 0.93960(15) 0.35136(15)
H11 H 0.4198 1.0033 0.2911
N1 N 0.9986(2) 0.69650(11) 0.26747(11)
N2 N 0.8100(3) 0.62670(13) 0.27539(14)
N3 N 1.1434(3) 0.52092(14) 0.34991(15)
O1 O 1.1701(3) 0.97469(12) 0.10500(12)
loop_
_geom_bond_atom_site_label_1
_geom_bond_atom_site_label_2
_geom_bond_site_symmetry_1
_geom_bond_site_symmetry_2
Cl1 C1 1_555 1_555
Cl2 C15 1_555 1_555
C1 C2 1_555 1_555
C2 H1 1_555 1_555
C3 C2 1_555 1_555
H2 C3 1_555 1_555
C4 C3 1_555 1_555
C5 C4 1_555 1_555
H3 C5 1_555 1_555
C6 C1 1_555 1_555
H4 C6 1_555 1_555
C7 C4 1_555 1_555
C8 C7 1_555 1_555
C9 H5 1_555 1_555
C10 H6 1_555 1_555
C11 C8 1_555 1_555
H7 C11 1_555 1_555
C12 C11 1_555 1_555
C13 C12 1_555 1_555
H8 C13 1_555 1_555
C14 C13 1_555 1_555
H9 C14 1_555 1_555
C15 C14 1_555 1_555
C16 C15 1_555 1_555
H10 C16 1_555 1_555
C17 C12 1_555 1_555
H11 C17 1_555 1_555
N1 C8 1_555 1_555
N2 C10 1_555 1_555
N3 C9 1_555 1_555
O1 C7 1_555 1_555
C5 C6 1_555 1_555
C9 N1 1_555 1_555
C10 N3 1_555 1_555
C16 C17 1_555 1_555
N1 N2 1_555 1_555

#END
