
#######################################################################
#
#                 Cambridge Crystallographic Data Centre
#                                CCDC 
#
#######################################################################
#
# If this CIF has been generated from an entry in the Cambridge 
# Structural Database, then it will include bibliographic, chemical, 
# crystal, experimental, refinement or atomic coordinate data resulting 
# from the CCDC's data processing and validation procedures.
#
#######################################################################

data_ZAQFEC
_chemical_formula_moiety         'C8 H20 N1 1+,C13 H10 P1 S2 1-'
_chemical_name_systematic        
'Tetraethylammonium diphenylphosphinodithioformate'
_symmetry_cell_setting           monoclinic
_symmetry_space_group_name_H-M   'P 21'
_symmetry_Int_Tables_number      4
_space_group_name_Hall           'P 2yb'
loop_
_symmetry_equiv_pos_site_id
_symmetry_equiv_pos_as_xyz
1 x,y,z
2 -x,1/2+y,-z
_cell_length_a                   10.244(4)
_cell_length_b                   9.877(4)
_cell_length_c                   11.124(3)
_cell_angle_alpha                90
_cell_angle_beta                 102.020(23)
_cell_angle_gamma                90
_cell_volume                     1100.85
_exptl_crystal_colour            red
_cell_formula_units_Z            2
loop_
_atom_site_label
_atom_site_type_symbol
_atom_site_fract_x
_atom_site_fract_y
_atom_site_fract_z
S1 S 0.3733(4) 0.94413 0.7754(4)
S2 S 0.2032(5) 1.0553(7) 0.9404(4)
P1 P 0.2122(4) 1.2063(6) 0.7180(4)
C1 C 0.2679(13) 1.0543(16) 0.8154(12)
C2 C 0.0416(12) 1.1583(15) 0.6441(12)
C3 C -0.0094(14) 1.0273(14) 0.6434(14)
C4 C -0.1373(15) 1.0012(17) 0.5819(15)
C5 C -0.2175(16) 1.0989(20) 0.5189(15)
C6 C -0.1662(15) 1.2312(19) 0.5173(15)
C7 C -0.0393(15) 1.2586(16) 0.5821(15)
C8 C 0.2928(12) 1.1970(16) 0.5867(13)
C9 C 0.2506(16) 1.1168(16) 0.4830(15)
C10 C 0.3134(18) 1.1217(20) 0.3857(15)
C11 C 0.4176(18) 1.209(3) 0.3883(18)
C12 C 0.4607(15) 1.2897(22) 0.4897(21)
C13 C 0.4003(14) 1.2819(17) 0.5874(16)
H1 H 0.043 0.949 0.696
H2 H -0.175 0.900 0.574
H3 H -0.316 1.077 0.471
H4 H -0.225 1.311 0.472
H5 H 0.0000 1.352 0.575
H6 H 0.181 1.043 0.484
H7 H 0.282 1.063 0.303
H8 H 0.464 1.226 0.321
H9 H 0.541 1.358 0.490
H10 H 0.434 1.345 0.666
N1? N 0.2406(12) 0.5796(15) -0.0086(12)
C14? C 0.272(4) 0.439(5) 0.064(4)
C15? C 0.152(5) 0.475(6) 0.035(5)
C16? C 0.189(3) 0.381(4) 0.125(3)
C17? C 0.369(3) 0.630(4) -0.032(3)
C18? C 0.354(4) 0.503(5) -0.062(4)
C19? C 0.4259(21) 0.562(3) -0.1281(19)
C20? C 0.123(5) 0.553(6) -0.129(5)
C21? C 0.149(4) 0.667(5) -0.101(4)
C22? C 0.088(3) 0.630(4) -0.212(3)
C23? C 0.178(4) 0.690(5) 0.073(4)
C24? C 0.328(4) 0.674(5) 0.093(4)
C25? C 0.2602(23) 0.740(3) 0.1733(22)
loop_
_geom_bond_atom_site_label_1
_geom_bond_atom_site_label_2
_geom_bond_site_symmetry_1
_geom_bond_site_symmetry_2
S1 C1 1_555 1_555
S2 C1 1_555 1_555
P1 C1 1_555 1_555
C2 P1 1_555 1_555
C3 C2 1_555 1_555
C4 C3 1_555 1_555
C5 C4 1_555 1_555
C6 C5 1_555 1_555
C7 C2 1_555 1_555
C8 P1 1_555 1_555
C9 C8 1_555 1_555
C10 C9 1_555 1_555
C11 C10 1_555 1_555
C12 C11 1_555 1_555
C13 C8 1_555 1_555
H1 C3 1_555 1_555
H2 C4 1_555 1_555
H3 C5 1_555 1_555
H4 C6 1_555 1_555
H5 C7 1_555 1_555
H6 C9 1_555 1_555
H7 C10 1_555 1_555
H8 C11 1_555 1_555
H9 C12 1_555 1_555
H10 C13 1_555 1_555
C6 C7 1_555 1_555
C12 C13 1_555 1_555

#END
