
#######################################################################
#
#                 Cambridge Crystallographic Data Centre
#                                CCDC 
#
#######################################################################
#
# If this CIF has been generated from an entry in the Cambridge 
# Structural Database, then it will include bibliographic, chemical, 
# crystal, experimental, refinement or atomic coordinate data resulting 
# from the CCDC's data processing and validation procedures.
#
#######################################################################

data_ZAQJOS
_chemical_name_common            1-Methyl-1,3-diazinan-2-one
_chemical_formula_moiety         'C5 H10 N2 O1'
_chemical_name_systematic        1-Methyltetrahydropyrimidin-2(1H)-one
_symmetry_cell_setting           orthorhombic
_symmetry_space_group_name_H-M   'P b c a'
_symmetry_Int_Tables_number      61
_space_group_name_Hall           '-P 2ac 2ab'
loop_
_symmetry_equiv_pos_site_id
_symmetry_equiv_pos_as_xyz
1 x,y,z
2 1/2-x,-y,1/2+z
3 1/2+x,1/2-y,-z
4 -x,1/2+y,1/2-z
5 -x,-y,-z
6 1/2+x,y,1/2-z
7 1/2-x,1/2+y,z
8 x,1/2-y,1/2+z
_cell_length_a                   5.8479(2)
_cell_length_b                   13.3438(6)
_cell_length_c                   15.0883(8)
_cell_angle_alpha                90
_cell_angle_beta                 90
_cell_angle_gamma                90
_cell_volume                     1177.39
_exptl_crystal_colour            colorless
_exptl_crystal_description       lath
_cell_formula_units_Z            8
loop_
_atom_site_label
_atom_site_type_symbol
_atom_site_fract_x
_atom_site_fract_y
_atom_site_fract_z
O1 O 0.13599(13) 0.58154(5) 0.07922(5)
N1 N 0.21849(16) 0.41809(6) 0.05287(6)
H1 H 0.108(3) 0.4198(11) 0.0134(10)
N2 N 0.44922(16) 0.51361(6) 0.14565(6)
C1 C 0.26381(18) 0.50789(7) 0.09125(6)
C2 C 0.3761(2) 0.33384(7) 0.05379(7)
H2 H 0.4901 0.3415 0.0058
H3 H 0.2913 0.2706 0.0439
C3 C 0.4956(2) 0.33051(8) 0.14262(7)
H4 H 0.6120 0.2766 0.1427
H5 H 0.3834 0.3162 0.1901
C4 C 0.6091(2) 0.43089(8) 0.15938(8)
H6 H 0.6673 0.4330 0.2210
H7 H 0.7411 0.4387 0.1189
C5 C 0.5230(2) 0.60977(8) 0.18066(7)
H8 H 0.4106 0.6613 0.1650
H9 H 0.6719 0.6274 0.1553
H10 H 0.5362 0.6055 0.2453
loop_
_geom_bond_atom_site_label_1
_geom_bond_atom_site_label_2
_geom_bond_site_symmetry_1
_geom_bond_site_symmetry_2
O1 C1 1_555 1_555
N1 H1 1_555 1_555
N2 C1 1_555 1_555
C1 N1 1_555 1_555
C2 N1 1_555 1_555
H2 C2 1_555 1_555
H3 C2 1_555 1_555
C3 C2 1_555 1_555
H4 C3 1_555 1_555
H5 C3 1_555 1_555
C4 N2 1_555 1_555
H6 C4 1_555 1_555
H7 C4 1_555 1_555
C5 N2 1_555 1_555
H8 C5 1_555 1_555
H9 C5 1_555 1_555
H10 C5 1_555 1_555
C3 C4 1_555 1_555

#END
