
#######################################################################
#
#                 Cambridge Crystallographic Data Centre
#                                CCDC 
#
#######################################################################
#
# If this CIF has been generated from an entry in the Cambridge 
# Structural Database, then it will include bibliographic, chemical, 
# crystal, experimental, refinement or atomic coordinate data resulting 
# from the CCDC's data processing and validation procedures.
#
#######################################################################

data_ZAQKIN01
_chemical_formula_moiety         'C10 H9 N1 O3'
_chemical_name_systematic        'ethyl 2-cyano-3-(2-furyl)acrylate'
_symmetry_cell_setting           monoclinic
_symmetry_space_group_name_H-M   'P 21/c'
_symmetry_Int_Tables_number      14
_space_group_name_Hall           '-P 2ybc'
loop_
_symmetry_equiv_pos_site_id
_symmetry_equiv_pos_as_xyz
1 x,y,z
2 -x,1/2+y,1/2-z
3 -x,-y,-z
4 x,1/2-y,1/2+z
_cell_length_a                   4.6524(2)
_cell_length_b                   19.8872(8)
_cell_length_c                   21.2306(8)
_cell_angle_alpha                90
_cell_angle_beta                 100.610(3)
_cell_angle_gamma                90
_cell_volume                     1930.74
_exptl_crystal_colour            yellow
_exptl_crystal_description       Block
_cell_formula_units_Z            8
loop_
_atom_site_label
_atom_site_type_symbol
_atom_site_fract_x
_atom_site_fract_y
_atom_site_fract_z
C1 C 0.8624(5) 0.89365(11) 0.96205(10)
C2 C 0.6421(6) 0.92158(13) 0.90886(11)
C3 C 1.0537(5) 0.84235(13) 0.94759(11)
C4 C 0.8660(5) 0.91777(13) 1.02138(11)
C5 C 1.0446(5) 0.89951(12) 1.08052(11)
C6 C 1.0468(6) 0.92278(14) 1.14046(12)
H1 H 0.9267 0.9562 1.1520
C7 C 1.2628(6) 0.88728(15) 1.18195(13)
H2 H 1.3156 0.8926 1.2261
C8 C 1.3774(7) 0.84412(16) 1.14518(12)
H3 H 1.5260 0.8138 1.1605
C9 C 0.4368(7) 0.91487(16) 0.79890(12)
H4 H 0.4847 0.9598 0.7864
H5 H 0.2450 0.9161 0.8107
C10 C 0.4352(9) 0.86833(18) 0.74570(15)
H6 H 0.6290 0.8648 0.7365
H7 H 0.3046 0.8847 0.7085
H8 H 0.3709 0.8249 0.7571
H9 H 0.729(5) 0.9529(12) 1.0245(10)
N1 N 1.2072(5) 0.80141(12) 0.93470(10)
O1 O 0.4723(4) 0.96505(10) 0.91552(8)
O2 O 0.6547(4) 0.89198(9) 0.85327(7)
O3 O 1.2500(4) 0.85007(9) 1.08263(7)
C11 C 0.4981(5) 0.00745(12) 0.60772(10)
C12 C 0.4223(6) -0.04534(13) 0.56895(12)
C13 C 0.3176(6) 0.06921(13) 0.59698(12)
C14 C 0.7452(6) 0.00761(12) 0.65933(12)
C15 C 0.5515(5) -0.11000(13) 0.56841(11)
C16 C 0.4671(6) -0.16373(14) 0.53051(12)
H10 H 0.3051 -0.1660 0.4976
C17 C 0.6683(7) -0.21514(15) 0.55002(14)
H11 H 0.6664 -0.2582 0.5328
C18 C 0.8641(7) -0.19015(15) 0.59837(15)
H12 H 1.0239 -0.2139 0.6203
C19 C 0.2625(9) 0.18140(17) 0.63121(16)
H13 H 0.3821 0.2161 0.6168
H14 H 0.0866 0.1765 0.5990
C20 C 0.1870(11) 0.2011(2) 0.68801(19)
H15 H 0.0686 0.1670 0.7025
H16 H 0.0787 0.2424 0.6816
H17 H 0.3608 0.2078 0.7196
H18 H 0.251(5) -0.0391(12) 0.5365(11)
N2 N 0.9367(6) 0.00895(12) 0.70115(11)
O4 O 0.4235(4) 0.11787(9) 0.63744(9)
O5 O 0.1010(4) 0.07421(10) 0.55651(9)
O6 O 0.7996(4) -0.12553(9) 0.61131(8)
loop_
_geom_bond_atom_site_label_1
_geom_bond_atom_site_label_2
_geom_bond_site_symmetry_1
_geom_bond_site_symmetry_2
C1 C2 1_555 1_555
C2 O1 1_555 1_555
C3 C1 1_555 1_555
C4 C1 1_555 1_555
C5 C4 1_555 1_555
C6 C5 1_555 1_555
H1 C6 1_555 1_555
C7 C6 1_555 1_555
H2 C7 1_555 1_555
C8 C7 1_555 1_555
H3 C8 1_555 1_555
C9 H4 1_555 1_555
H5 C9 1_555 1_555
C10 C9 1_555 1_555
H6 C10 1_555 1_555
H7 C10 1_555 1_555
H8 C10 1_555 1_555
H9 C4 1_555 1_555
N1 C3 1_555 1_555
O2 C2 1_555 1_555
O3 C5 1_555 1_555
C11 C12 1_555 1_555
C12 C15 1_555 1_555
C13 C11 1_555 1_555
C14 C11 1_555 1_555
C15 C16 1_555 1_555
C16 H10 1_555 1_555
C17 C16 1_555 1_555
H11 C17 1_555 1_555
C18 C17 1_555 1_555
H12 C18 1_555 1_555
C19 H13 1_555 1_555
H14 C19 1_555 1_555
C20 C19 1_555 1_555
H15 C20 1_555 1_555
H16 C20 1_555 1_555
H17 C20 1_555 1_555
H18 C12 1_555 1_555
N2 C14 1_555 1_555
O4 C13 1_555 1_555
O5 C13 1_555 1_555
O6 C15 1_555 1_555
C8 O3 1_555 1_555
C9 O2 1_555 1_555
C18 O6 1_555 1_555
C19 O4 1_555 1_555

#END
