
#######################################################################
#
#                 Cambridge Crystallographic Data Centre
#                                CCDC 
#
#######################################################################
#
# If this CIF has been generated from an entry in the Cambridge 
# Structural Database, then it will include bibliographic, chemical, 
# crystal, experimental, refinement or atomic coordinate data resulting 
# from the CCDC's data processing and validation procedures.
#
#######################################################################

data_ZAQMEM
_chemical_formula_moiety         'C23 H19 N1 O7 S1'
_chemical_name_systematic        
'dimethyl 2-(4-((pyridin-2-ylsulfonyl)oxy)biphenyl-3-yl)but-2-enedioate'
_symmetry_cell_setting           triclinic
_symmetry_space_group_name_H-M   'P -1'
_symmetry_Int_Tables_number      2
_space_group_name_Hall           '-P 1'
loop_
_symmetry_equiv_pos_site_id
_symmetry_equiv_pos_as_xyz
1 x,y,z
2 -x,-y,-z
_cell_length_a                   8.2705(19)
_cell_length_b                   10.561(3)
_cell_length_c                   13.406(3)
_cell_angle_alpha                73.507(4)
_cell_angle_beta                 75.213(4)
_cell_angle_gamma                83.162(4)
_cell_volume                     1084.21
_exptl_crystal_colour            colorless
_exptl_crystal_description       block
_cell_formula_units_Z            2
loop_
_atom_site_label
_atom_site_type_symbol
_atom_site_fract_x
_atom_site_fract_y
_atom_site_fract_z
S1 S 0.34094(12) 0.82559(11) 0.28681(8)
N1 N 0.4238(4) 0.8611(4) 0.4527(3)
O1 O 0.2820(4) 0.7178(4) 0.2637(3)
O2 O 0.2517(4) 0.9504(3) 0.2716(3)
O3 O 0.5226(3) 0.8588(3) 0.2129(2)
O4 O 0.8238(6) 0.6666(4) 0.4544(3)
O5 O 0.8821(6) 0.8622(5) 0.4653(4)
O6 O 0.8186(4) 1.0098(3) 0.0843(2)
O7 O 0.6901(6) 1.1608(5) 0.1694(4)
C1 C 0.3722(5) 0.7693(4) 0.4182(3)
C2 C 0.3366(6) 0.6433(5) 0.4770(4)
H1 H 0.2992 0.5844 0.4487
C3 C 0.3584(8) 0.6068(5) 0.5804(4)
H2 H 0.3379 0.5214 0.6233
C4 C 0.4107(7) 0.6985(6) 0.6187(4)
H3 H 0.4248 0.6761 0.6883
C5 C 0.4420(6) 0.8236(6) 0.5532(4)
H4 H 0.4775 0.8847 0.5801
C6 C 0.6486(5) 0.7561(4) 0.2016(3)
C7 C 0.6367(5) 0.6672(5) 0.1472(3)
H5 H 0.5412 0.6694 0.1220
C8 C 0.7637(5) 0.5753(4) 0.1295(3)
H6 H 0.7543 0.5157 0.0919
C9 C 0.9085(5) 0.5698(4) 0.1674(3)
C10 C 0.9175(5) 0.6613(4) 0.2219(3)
H7 H 1.0116 0.6583 0.2486
C11 C 0.7893(5) 0.7584(4) 0.2382(3)
C12 C 1.0455(5) 0.4672(4) 0.1529(3)
C13 C 1.0116(6) 0.3406(4) 0.1547(4)
H8 H 0.9018 0.3213 0.1617
C14 C 1.1355(6) 0.2441(5) 0.1465(4)
H9 H 1.1088 0.1601 0.1489
C15 C 1.2998(6) 0.2696(5) 0.1349(4)
H10 H 1.3840 0.2037 0.1286
C16 C 1.3374(6) 0.3934(5) 0.1326(4)
H11 H 1.4476 0.4114 0.1259
C17 C 1.2107(5) 0.4926(5) 0.1403(4)
H12 H 1.2379 0.5769 0.1370
C18 C 0.8130(6) 0.8537(6) 0.3002(5)
C19 C 0.8448(6) 0.7800(6) 0.4185(4)
C20 C 0.9020(11) 0.8090(11) 0.5716(6)
H13 H 0.7984 0.8209 0.6211
H14 H 0.9878 0.8538 0.5826
H15 H 0.9332 0.7164 0.5831
C21 C 0.8030(7) 0.9768(7) 0.2721(5)
H16 H 0.8206 1.0222 0.3183
C22 C 0.7652(5) 1.0542(6) 0.1705(4)
C23 C 0.7768(10) 1.0938(8) -0.0120(5)
H17 H 0.6573 1.1042 -0.0018
H18 H 0.8231 1.0544 -0.0701
H19 H 0.8223 1.1788 -0.0282
loop_
_geom_bond_atom_site_label_1
_geom_bond_atom_site_label_2
_geom_bond_site_symmetry_1
_geom_bond_site_symmetry_2
S1 O1 1_555 1_555
N1 C1 1_555 1_555
O2 S1 1_555 1_555
O3 S1 1_555 1_555
O4 C19 1_555 1_555
O5 C19 1_555 1_555
O6 C22 1_555 1_555
O7 C22 1_555 1_555
C1 S1 1_555 1_555
C2 C1 1_555 1_555
H1 C2 1_555 1_555
C3 C2 1_555 1_555
H2 C3 1_555 1_555
C4 C3 1_555 1_555
H3 C4 1_555 1_555
C5 N1 1_555 1_555
H4 C5 1_555 1_555
C6 O3 1_555 1_555
C7 C6 1_555 1_555
H5 C7 1_555 1_555
C8 C7 1_555 1_555
H6 C8 1_555 1_555
C9 C8 1_555 1_555
C10 C9 1_555 1_555
H7 C10 1_555 1_555
C11 C6 1_555 1_555
C12 C9 1_555 1_555
C13 C12 1_555 1_555
H8 C13 1_555 1_555
C14 C13 1_555 1_555
H9 C14 1_555 1_555
C15 C14 1_555 1_555
H10 C15 1_555 1_555
C16 C15 1_555 1_555
H11 C16 1_555 1_555
C17 C12 1_555 1_555
H12 C17 1_555 1_555
C18 C11 1_555 1_555
C19 C18 1_555 1_555
C20 O5 1_555 1_555
H13 C20 1_555 1_555
H14 C20 1_555 1_555
H15 C20 1_555 1_555
C21 C18 1_555 1_555
H16 C21 1_555 1_555
C22 C21 1_555 1_555
C23 O6 1_555 1_555
H17 C23 1_555 1_555
H18 C23 1_555 1_555
H19 C23 1_555 1_555
C4 C5 1_555 1_555
C10 C11 1_555 1_555
C16 C17 1_555 1_555

#END
