
#######################################################################
#
#                 Cambridge Crystallographic Data Centre
#                                CCDC 
#
#######################################################################
#
# If this CIF has been generated from an entry in the Cambridge 
# Structural Database, then it will include bibliographic, chemical, 
# crystal, experimental, refinement or atomic coordinate data resulting 
# from the CCDC's data processing and validation procedures.
#
#######################################################################

data_ZAQNUA
_chemical_formula_moiety         'C23 H25 N3 O2'
_chemical_name_systematic        
1-Adamantylidene-2,4,6-triazatricyclo(5.2.1.0^2,6^)decane-3,5-dione
_symmetry_cell_setting           triclinic
_symmetry_space_group_name_H-M   'P -1'
_symmetry_Int_Tables_number      2
_space_group_name_Hall           '-P 1'
loop_
_symmetry_equiv_pos_site_id
_symmetry_equiv_pos_as_xyz
1 x,y,z
2 -x,-y,-z
_cell_length_a                   13.460(2)
_cell_length_b                   8.300(1)
_cell_length_c                   10.075(1)
_cell_angle_alpha                92.92(1)
_cell_angle_beta                 116.80
_cell_angle_gamma                67.91(1)
_cell_volume                     921.287
_exptl_crystal_colour            colorless
_chemical_melting_point          '160-162 deg.C'
_cell_formula_units_Z            2
loop_
_atom_site_label
_atom_site_type_symbol
_atom_site_fract_x
_atom_site_fract_y
_atom_site_fract_z
O1 O 0.4829(2) 0.4797(3) 0.3294(2)
O2 O 0.1880(2) 1.0388(3) 0.1699(3)
N1 N 0.3649(2) 0.7827(3) 0.2755(3)
N2 N 0.2848(2) 0.5963(3) 0.2922(3)
N3 N 0.1907(2) 0.7747(3) 0.2407(3)
C1 C 0.5565(3) 0.8030(4) 0.4388(4)
C2 C 0.6387(3) 0.8784(4) 0.4685(4)
C3 C 0.6190(3) 1.0007(4) 0.3609(4)
C4 C 0.5164(3) 1.0464(5) 0.2227(4)
C5 C 0.4332(3) 0.9712(4) 0.1910(4)
C6 C 0.4537(3) 0.8518(4) 0.3011(4)
C7 C 0.3890(3) 0.6030(4) 0.3014(3)
C8 C 0.2415(3) 0.8836(4) 0.2213(3)
C9 C 0.0850(3) 0.7583(4) 0.1062(3)
C10 C 0.0317(3) 0.6677(4) 0.1682(3)
C11 C 0.1324(3) 0.4767(4) 0.2267(3)
C12 C 0.2280(3) 0.4848(4) 0.1871(3)
C13 C 0.1528(3) 0.6140(4) 0.0425(3)
C14 C 0.1611(3) 0.6162(4) -0.0836(3)
C15 C 0.0963(3) 0.7781(4) -0.2009(3)
C16 C 0.1964(3) 0.8343(5) -0.1928(4)
C17 C 0.2875(3) 0.6872(5) -0.2270(4)
C18 C 0.2206(3) 0.6434(5) -0.3853(4)
C19 C 0.1222(3) 0.5860(5) -0.3931(4)
C20 C 0.1802(3) 0.4228(4) -0.2781(4)
C21 C 0.2472(3) 0.4633(4) -0.1191(4)
C22 C 0.3463(3) 0.5199(5) -0.1120(4)
C23 C 0.0304(3) 0.7350(5) -0.3598(4)
H1 H 0.5674 0.7212 0.5184
H2 H 0.7160 0.8388 0.5651
H3 H 0.6760 1.0609 0.3873
H4 H 0.5036 1.1303 0.1431
H5 H 0.3590 1.0033 0.0912
H6 H 0.0229 0.8703 0.0376
H7 H -0.0468 0.6679 0.0876
H8 H 0.0188 0.7253 0.2520
H9 H 0.0998 0.3886 0.1742
H10 H 0.1668 0.4469 0.3376
H11 H 0.2851 0.3657 0.1865
H12 H 0.0350 0.8753 -0.1813
H13 H 0.2392 0.8611 -0.0893
H14 H 0.1554 0.9429 -0.2671
H15 H 0.3488 0.7269 -0.2232
H16 H 0.2808 0.5448 -0.4053
H17 H 0.1822 0.7481 -0.4628
H18 H 0.0833 0.5646 -0.4995
H19 H 0.2384 0.3221 -0.2993
H20 H 0.1141 0.3907 -0.2833
H21 H 0.2842 0.3563 -0.0445
H22 H 0.3921 0.5428 -0.0079
H23 H 0.4029 0.4223 -0.1380
H24 H -0.0152 0.8433 -0.4356
H25 H -0.0277 0.6880 -0.3589
loop_
_geom_bond_atom_site_label_1
_geom_bond_atom_site_label_2
_geom_bond_site_symmetry_1
_geom_bond_site_symmetry_2
O1 C7 1_555 1_555
O2 C8 1_555 1_555
N1 C6 1_555 1_555
N2 N3 1_555 1_555
N3 C8 1_555 1_555
C1 C2 1_555 1_555
C2 C3 1_555 1_555
C3 C4 1_555 1_555
C4 C5 1_555 1_555
C5 C6 1_555 1_555
C6 C1 1_555 1_555
C7 N1 1_555 1_555
C8 N1 1_555 1_555
C9 N3 1_555 1_555
C10 C9 1_555 1_555
C11 C10 1_555 1_555
C12 N2 1_555 1_555
C13 C9 1_555 1_555
C14 C13 1_555 1_555
C15 C14 1_555 1_555
C16 C15 1_555 1_555
C17 C16 1_555 1_555
C18 C17 1_555 1_555
C19 C18 1_555 1_555
C20 C19 1_555 1_555
C21 C14 1_555 1_555
C22 C17 1_555 1_555
C23 C15 1_555 1_555
H1 C1 1_555 1_555
H2 C2 1_555 1_555
H3 C3 1_555 1_555
H4 C4 1_555 1_555
H5 C5 1_555 1_555
H6 C9 1_555 1_555
H7 C10 1_555 1_555
H8 C10 1_555 1_555
H9 C11 1_555 1_555
H10 C11 1_555 1_555
H11 C12 1_555 1_555
H12 C15 1_555 1_555
H13 C16 1_555 1_555
H14 C16 1_555 1_555
H15 C17 1_555 1_555
H16 C18 1_555 1_555
H17 C18 1_555 1_555
H18 C19 1_555 1_555
H19 C20 1_555 1_555
H20 C20 1_555 1_555
H21 C21 1_555 1_555
H22 C22 1_555 1_555
H23 C22 1_555 1_555
H24 C23 1_555 1_555
H25 C23 1_555 1_555
N2 C7 1_555 1_555
C11 C12 1_555 1_555
C12 C13 1_555 1_555
C19 C23 1_555 1_555
C20 C21 1_555 1_555
C21 C22 1_555 1_555

#END
