
#######################################################################
#
#                 Cambridge Crystallographic Data Centre
#                                CCDC 
#
#######################################################################
#
# If this CIF has been generated from an entry in the Cambridge 
# Structural Database, then it will include bibliographic, chemical, 
# crystal, experimental, refinement or atomic coordinate data resulting 
# from the CCDC's data processing and validation procedures.
#
#######################################################################

data_ZAQNOX
_chemical_formula_moiety         'C25 H19 N1 O5 S2'
_chemical_name_systematic        
'3-(2-(phenylsulfonyl)vinyl)biphenyl-4-yl pyridine-2-sulfonate'
_symmetry_cell_setting           orthorhombic
_symmetry_space_group_name_H-M   'P n a 21'
_symmetry_Int_Tables_number      33
_space_group_name_Hall           'P 2c -2n'
loop_
_symmetry_equiv_pos_site_id
_symmetry_equiv_pos_as_xyz
1 x,y,z
2 -x,-y,1/2+z
3 1/2+x,1/2-y,z
4 1/2-x,1/2+y,1/2+z
_cell_length_a                   7.366(2)
_cell_length_b                   32.813(10)
_cell_length_c                   9.167(3)
_cell_angle_alpha                90
_cell_angle_beta                 90
_cell_angle_gamma                90
_cell_volume                     2215.67
_exptl_crystal_colour            colorless
_exptl_crystal_description       block
_cell_formula_units_Z            4
loop_
_atom_site_label
_atom_site_type_symbol
_atom_site_fract_x
_atom_site_fract_y
_atom_site_fract_z
S1 S 0.64037(10) 0.56368(2) 0.24702(10)
S2 S 0.45904(11) 0.66009(2) 0.76604(9)
N1 N 0.4529(3) 0.58517(8) 0.6678(3)
O1 O 0.4681(3) 0.54675(7) 0.2070(3)
O2 O 0.7263(3) 0.54977(6) 0.3781(2)
O3 O 0.3409(3) 0.69382(6) 0.7629(3)
O4 O 0.5338(3) 0.64580(8) 0.8987(2)
O5 O 0.6336(3) 0.66964(6) 0.6667(2)
C1 C 0.7283(5) 0.55778(10) -0.0398(4)
H1 H 0.6072 0.5640 -0.0578
C2 C 0.8462(6) 0.55067(11) -0.1538(4)
H2 H 0.8054 0.5525 -0.2496
C3 C 1.0233(5) 0.54088(11) -0.1256(4)
H3 H 1.1019 0.5358 -0.2029
C4 C 1.0867(5) 0.53847(11) 0.0153(4)
H4 H 1.2071 0.5315 0.0331
C5 C 0.9714(4) 0.54644(9) 0.1299(4)
H5 H 1.0137 0.5457 0.2255
C6 C 0.7924(5) 0.55546(8) 0.1012(3)
C7 C 0.6143(4) 0.61640(8) 0.2560(4)
H6 H 0.5814 0.6309 0.1729
C8 C 0.6411(3) 0.63605(8) 0.3805(3)
H7 H 0.6790 0.6206 0.4599
C9 C 0.6166(3) 0.67994(8) 0.4048(3)
C10 C 0.5995(4) 0.70736(8) 0.2895(3)
H8 H 0.6024 0.6974 0.1946
C11 C 0.5784(4) 0.74886(9) 0.3106(3)
C12 C 0.5774(4) 0.76294(10) 0.4541(4)
H9 H 0.5639 0.7907 0.4711
C13 C 0.5957(4) 0.73726(9) 0.5711(3)
H10 H 0.5968 0.7475 0.6657
C14 C 0.6123(4) 0.69622(8) 0.5460(3)
C15 C 0.5540(4) 0.77765(10) 0.1875(4)
C16 C 0.4622(5) 0.76606(11) 0.0616(4)
H11 H 0.4223 0.7393 0.0507
C17 C 0.4303(6) 0.79416(14) -0.0470(4)
H12 H 0.3670 0.7861 -0.1299
C18 C 0.4881(7) 0.83310(16) -0.0368(6)
H13 H 0.4629 0.8517 -0.1106
C19 C 0.5856(7) 0.84484(12) 0.0854(6)
H14 H 0.6296 0.8713 0.0923
C20 C 0.6178(5) 0.81754(10) 0.1967(4)
H15 H 0.6826 0.8258 0.2785
C21 C 0.3582(4) 0.61929(9) 0.6697(3)
C22 C 0.1947(5) 0.62455(11) 0.6003(4)
H16 H 0.1304 0.6489 0.6059
C23 C 0.1304(6) 0.59131(14) 0.5210(5)
H17 H 0.0208 0.5931 0.4711
C24 C 0.2280(6) 0.55647(12) 0.5168(4)
H18 H 0.1872 0.5343 0.4625
C25 C 0.3861(5) 0.55409(10) 0.5925(4)
H19 H 0.4501 0.5297 0.5916
loop_
_geom_bond_atom_site_label_1
_geom_bond_atom_site_label_2
_geom_bond_site_symmetry_1
_geom_bond_site_symmetry_2
S1 O1 1_555 1_555
S2 O3 1_555 1_555
N1 C21 1_555 1_555
O2 S1 1_555 1_555
O4 S2 1_555 1_555
O5 S2 1_555 1_555
C1 H1 1_555 1_555
C2 C1 1_555 1_555
H2 C2 1_555 1_555
C3 C2 1_555 1_555
H3 C3 1_555 1_555
C4 C3 1_555 1_555
H4 C4 1_555 1_555
C5 C4 1_555 1_555
H5 C5 1_555 1_555
C6 S1 1_555 1_555
C7 S1 1_555 1_555
H6 C7 1_555 1_555
C8 C7 1_555 1_555
H7 C8 1_555 1_555
C9 C8 1_555 1_555
C10 C9 1_555 1_555
H8 C10 1_555 1_555
C11 C10 1_555 1_555
C12 C11 1_555 1_555
H9 C12 1_555 1_555
C13 C12 1_555 1_555
H10 C13 1_555 1_555
C14 O5 1_555 1_555
C15 C11 1_555 1_555
C16 C15 1_555 1_555
H11 C16 1_555 1_555
C17 C16 1_555 1_555
H12 C17 1_555 1_555
C18 C17 1_555 1_555
H13 C18 1_555 1_555
C19 C18 1_555 1_555
H14 C19 1_555 1_555
C20 C15 1_555 1_555
H15 C20 1_555 1_555
C21 S2 1_555 1_555
C22 C21 1_555 1_555
H16 C22 1_555 1_555
C23 C22 1_555 1_555
H17 C23 1_555 1_555
C24 C23 1_555 1_555
H18 C24 1_555 1_555
C25 N1 1_555 1_555
H19 C25 1_555 1_555
C1 C6 1_555 1_555
C5 C6 1_555 1_555
C9 C14 1_555 1_555
C13 C14 1_555 1_555
C19 C20 1_555 1_555
C24 C25 1_555 1_555

#END
