
#######################################################################
#
#                 Cambridge Crystallographic Data Centre
#                                CCDC 
#
#######################################################################
#
# If this CIF has been generated from an entry in the Cambridge 
# Structural Database, then it will include bibliographic, chemical, 
# crystal, experimental, refinement or atomic coordinate data resulting 
# from the CCDC's data processing and validation procedures.
#
#######################################################################

data_ZAQNOU
_chemical_formula_moiety         'C46 H46 N6 O4,C1 H2 Cl2,H2 O1'
_chemical_name_systematic        
'bis(N-Phenyl-1,2,4-triazoline-3,5-dione-adamantyl)urazole dichloromethane solvate monohydrate'
_symmetry_cell_setting           monoclinic
_symmetry_space_group_name_H-M   'P 21/n'
_symmetry_Int_Tables_number      14
_space_group_name_Hall           '-P 2yn'
loop_
_symmetry_equiv_pos_site_id
_symmetry_equiv_pos_as_xyz
1 x,y,z
2 1/2-x,1/2+y,1/2-z
3 -x,-y,-z
4 1/2+x,1/2-y,1/2+z
_cell_length_a                   10.576(2)
_cell_length_b                   21.957(3)
_cell_length_c                   17.352(3)
_cell_angle_alpha                90
_cell_angle_beta                 99.26(1)
_cell_angle_gamma                90
_cell_volume                     3976.92
_exptl_crystal_colour            colorless
_chemical_melting_point          '224-225 deg.C'
_cell_formula_units_Z            4
loop_
_atom_site_label
_atom_site_type_symbol
_atom_site_fract_x
_atom_site_fract_y
_atom_site_fract_z
O1 O -0.1300(7) 0.0712(4) -0.5206(4)
O2 O 0.2227(7) 0.1552(3) -0.3661(4)
O3 O 0.2043(7) -0.0016(3) 0.0663(4)
O4 O 0.4523(7) 0.0802(3) -0.1019(4)
N1 N 0.0598(8) 0.1181(4) -0.4628(5)
N2 N -0.0552(8) 0.0676(4) -0.3858(5)
N3 N 0.0597(8) 0.0918(4) -0.3430(5)
N4 N 0.3525(7) -0.0123(4) -0.0971(4)
N5 N 0.2769(8) -0.0408(4) -0.0444(5)
N6 N 0.3469(7) 0.0501(4) 0.0007(4)
C1 C -0.0531(10) 0.0845(5) -0.4622(6)
C2 C 0.1253(11) 0.1256(5) -0.3876(6)
C3 C 0.0575(10) 0.0917(5) -0.2603(6)
C4 C -0.0624(10) 0.0552(5) -0.2580(5)
C5 C -0.1570(10) 0.0666(5) -0.3326(6)
C6 C -0.2253(11) 0.1290(5) -0.3312(6)
C7 C -0.3104(11) 0.1406(5) -0.4108(7)
C8 C -0.4103(10) 0.0898(5) -0.4277(6)
C9 C -0.4948(10) 0.0888(5) -0.3650(6)
C10 C -0.4122(11) 0.0764(6) -0.2864(6)
C11 C -0.3431(10) 0.0151(6) -0.2890(6)
C12 C -0.2554(10) 0.0154(5) -0.3535(6)
C13 C -0.3431(10) 0.0286(5) -0.4321(6)
C14 C -0.3107(12) 0.1261(6) -0.2677(6)
C15 C -0.0460(10) 0.0135(5) -0.2027(5)
C16 C 0.0896(9) 0.0129(5) -0.1593(5)
C17 C 0.1626(9) 0.0586(4) -0.2039(6)
C18 C 0.2523(10) 0.0167(5) -0.2430(6)
C19 C 0.1713(10) -0.0297(5) -0.2958(6)
C20 C 0.1179(10) -0.0687(5) -0.2514(6)
C21 C 0.1610(9) -0.0508(4) -0.1679(5)
C22 C 0.2957(10) -0.0285(5) -0.1769(6)
C23 C 0.1824(9) -0.0859(5) -0.0895(6)
C24 C 0.2552(10) -0.1474(5) -0.0925(6)
C25 C 0.2876(11) -0.1750(5) -0.0109(6)
C26 C 0.1619(11) -0.1887(5) 0.0212(6)
C27 C 0.0766(11) -0.2329(5) -0.0347(6)
C28 C 0.0460(11) -0.2032(5) -0.1158(6)
C29 C -0.0230(10) -0.1411(5) -0.1087(6)
C30 C 0.0626(10) -0.0970(5) -0.0525(6)
C31 C 0.0909(10) -0.1289(5) 0.0282(6)
C32 C 0.1717(11) -0.1913(5) -0.1458(7)
C33 C 0.2641(10) 0.0017(4) 0.0141(6)
C34 C 0.3903(10) 0.0434(5) -0.0698(6)
H1 H 0.0664 0.1349 -0.2421
H2 H -0.1592 0.1618 -0.3209
H3 H -0.2580 0.1437 -0.4538
H4 H -0.3576 0.1797 -0.4070
H5 H -0.4613 0.0982 -0.4803
H6 H -0.5600 0.0557 -0.3775
H7 H -0.5392 0.1288 -0.3629
H8 H -0.4706 0.0763 -0.2465
H9 H -0.4078 -0.0184 -0.2998
H10 H -0.2876 0.0076 -0.2375
H11 H -0.2087 -0.0236 -0.3589
H12 H -0.2917 0.0279 -0.4757
H13 H -0.4105 -0.0037 -0.4409
H14 H -0.3522 0.1666 -0.2630
H15 H -0.2559 0.1155 -0.2170
H16 H -0.1151 -0.0146 -0.1915
H17 H 0.0872 0.0224 -0.1032
H18 H 0.2183 0.0907 -0.1750
H19 H 0.3141 0.0410 -0.2685
H20 H 0.1609 -0.0301 -0.3541
H21 H 0.0593 -0.1032 -0.2703
H22 H 0.3668 -0.0530 -0.1930
H23 H 0.3389 -0.1388 -0.1102
H24 H 0.3404 -0.1456 0.0247
H25 H 0.3371 -0.2135 -0.0141
H26 H 0.1785 -0.2091 0.0734
H27 H -0.0043 -0.2414 -0.0137
H28 H 0.1250 -0.2717 -0.0376
H29 H -0.0104 -0.2313 -0.1514
H30 H -0.1051 -0.1487 -0.0887
H31 H -0.0417 -0.1217 -0.1615
H32 H 0.0190 -0.0578 -0.0437
H33 H 0.1500 -0.1019 0.0637
H34 H 0.0109 -0.1360 0.0508
H35 H 0.2191 -0.2304 -0.1486
H36 H 0.1524 -0.1728 -0.1991
C36 C 0.2689 0.1510 -0.6096
C37 C 0.1895 0.1881 -0.6620
C38 C 0.0661 0.2020 -0.6486
C39 C 0.0221 0.1788 -0.5829
C40 C 0.1015 0.1417 -0.5305
C41 C 0.2248 0.1278 -0.5439
H37 H 0.2788 0.1026 -0.5083
H38 H 0.3569 0.1397 -0.6161
H39 H 0.2155 0.2058 -0.7093
H40 H 0.0121 0.2272 -0.6842
H41 H -0.0659 0.1901 -0.5764
C42 C 0.3524 0.1601 0.0169
C43 C 0.3650 0.2109 0.0656
C44 C 0.3886 0.2034 0.1466
C45 C 0.3994 0.1450 0.1786
C46 C 0.3868 0.0942 0.1299
C47 C 0.3633 0.1017 0.0489
H42 H 0.3364 0.1652 -0.0382
H43 H 0.3564 0.2511 0.0397
H44 H 0.3983 0.2377 0.1839
H45 H 0.4155 0.1399 0.2337
H46 H 0.3954 0.0540 0.1558
O5 O -0.6387(8) 0.1825(4) -0.2102(5)
C35 C 0.1523(15) 0.2802(7) 0.8158(10)
Cl1 Cl 0.0241(5) 0.2379(2) 0.8389(2)
Cl2 Cl 0.1583(5) 0.3500(2) 0.8660(3)
loop_
_geom_bond_atom_site_label_1
_geom_bond_atom_site_label_2
_geom_bond_site_symmetry_1
_geom_bond_site_symmetry_2
O1 C1 1_555 1_555
O2 C2 1_555 1_555
O3 C33 1_555 1_555
O4 C34 1_555 1_555
N1 C1 1_555 1_555
N2 N3 1_555 1_555
N3 C2 1_555 1_555
N4 N5 1_555 1_555
N5 C23 1_555 1_555
N6 C33 1_555 1_555
C1 N2 1_555 1_555
C2 N1 1_555 1_555
C3 N3 1_555 1_555
C4 C3 1_555 1_555
C5 N2 1_555 1_555
C6 C5 1_555 1_555
C7 C6 1_555 1_555
C8 C7 1_555 1_555
C9 C8 1_555 1_555
C10 C9 1_555 1_555
C11 C10 1_555 1_555
C12 C5 1_555 1_555
C13 C8 1_555 1_555
C14 C6 1_555 1_555
C15 C4 1_555 1_555
C16 C15 1_555 1_555
C17 C3 1_555 1_555
C18 C17 1_555 1_555
C19 C18 1_555 1_555
C20 C19 1_555 1_555
C21 C16 1_555 1_555
C22 N4 1_555 1_555
C23 C21 1_555 1_555
C24 C23 1_555 1_555
C25 C24 1_555 1_555
C26 C25 1_555 1_555
C27 C26 1_555 1_555
C28 C27 1_555 1_555
C29 C28 1_555 1_555
C30 C23 1_555 1_555
C31 C26 1_555 1_555
C32 C24 1_555 1_555
C33 N5 1_555 1_555
C34 N4 1_555 1_555
C35 Cl1 1_555 1_555
Cl2 C35 1_555 1_555
H1 C3 1_555 1_555
H2 C6 1_555 1_555
H3 C7 1_555 1_555
H4 C7 1_555 1_555
H5 C8 1_555 1_555
H6 C9 1_555 1_555
H7 C9 1_555 1_555
H8 C10 1_555 1_555
H9 C11 1_555 1_555
H10 C11 1_555 1_555
H11 C12 1_555 1_555
H12 C13 1_555 1_555
H13 C13 1_555 1_555
H14 C14 1_555 1_555
H15 C14 1_555 1_555
H16 C15 1_555 1_555
H17 C16 1_555 1_555
H18 C17 1_555 1_555
H19 C18 1_555 1_555
H20 C19 1_555 1_555
H21 C20 1_555 1_555
H22 C22 1_555 1_555
H23 C24 1_555 1_555
H24 C25 1_555 1_555
H25 C25 1_555 1_555
H26 C26 1_555 1_555
H27 C27 1_555 1_555
H28 C27 1_555 1_555
H29 C28 1_555 1_555
H30 C29 1_555 1_555
H31 C29 1_555 1_555
H32 C30 1_555 1_555
H33 C31 1_555 1_555
H34 C31 1_555 1_555
H35 C32 1_555 1_555
H36 C32 1_555 1_555
C36 C37 1_555 1_555
C37 C38 1_555 1_555
C38 C39 1_555 1_555
C39 C40 1_555 1_555
C40 N1 1_555 1_555
C41 C36 1_555 1_555
H37 C41 1_555 1_555
H38 C36 1_555 1_555
H39 C37 1_555 1_555
H40 C38 1_555 1_555
H41 C39 1_555 1_555
C42 C43 1_555 1_555
C43 C44 1_555 1_555
C44 C45 1_555 1_555
C45 C46 1_555 1_555
C46 C47 1_555 1_555
C47 N6 1_555 1_555
H42 C42 1_555 1_555
H43 C43 1_555 1_555
H44 C44 1_555 1_555
H45 C45 1_555 1_555
H46 C46 1_555 1_555
N6 C34 1_555 1_555
C4 C5 1_555 1_555
C10 C14 1_555 1_555
C11 C12 1_555 1_555
C12 C13 1_555 1_555
C16 C17 1_555 1_555
C18 C22 1_555 1_555
C20 C21 1_555 1_555
C21 C22 1_555 1_555
C28 C32 1_555 1_555
C29 C30 1_555 1_555
C30 C31 1_555 1_555
C40 C41 1_555 1_555
C42 C47 1_555 1_555

#END
