
#######################################################################
#
#                 Cambridge Crystallographic Data Centre
#                                CCDC 
#
#######################################################################
#
# If this CIF has been generated from an entry in the Cambridge 
# Structural Database, then it will include bibliographic, chemical, 
# crystal, experimental, refinement or atomic coordinate data resulting 
# from the CCDC's data processing and validation procedures.
#
#######################################################################

data_ZAQPAK
_chemical_name_common            '[2-(1H-Indol-4-yl)ethyl]dipropylamine'
_chemical_formula_moiety         'C16 H24 N2'
_chemical_name_systematic        
N-(2-(1H-Indol-4-yl)ethyl)-N-propylpropan-1-amine
_symmetry_cell_setting           orthorhombic
_symmetry_space_group_name_H-M   'P b c a'
_symmetry_Int_Tables_number      61
_space_group_name_Hall           '-P 2ac 2ab'
loop_
_symmetry_equiv_pos_site_id
_symmetry_equiv_pos_as_xyz
1 x,y,z
2 1/2-x,-y,1/2+z
3 1/2+x,1/2-y,-z
4 -x,1/2+y,1/2-z
5 -x,-y,-z
6 1/2+x,y,1/2-z
7 1/2-x,1/2+y,z
8 x,1/2-y,1/2+z
_cell_length_a                   12.1100(9)
_cell_length_b                   15.5996(12)
_cell_length_c                   16.0253(12)
_cell_angle_alpha                90
_cell_angle_beta                 90
_cell_angle_gamma                90
_cell_volume                     3027.36
_exptl_crystal_colour            white
_exptl_crystal_description       block
_cell_formula_units_Z            8
loop_
_atom_site_label
_atom_site_type_symbol
_atom_site_fract_x
_atom_site_fract_y
_atom_site_fract_z
C1 C 0.69898(17) 0.17493(14) 0.51171(13)
N1 N 0.80610(17) 0.26448(12) 0.58576(12)
H1 H 0.8600 0.2852 0.6144
N2 N 0.46143(14) 0.14524(11) 0.30351(11)
C2 C 0.64447(19) 0.25584(16) 0.51942(15)
H2 H 0.5756 0.2705 0.4981
C3 C 0.7130(2) 0.30703(15) 0.56402(16)
H3 H 0.6980 0.3638 0.5778
C4 C 0.79988(18) 0.18272(15) 0.55438(14)
C5 C 0.87487(19) 0.11580(17) 0.55988(17)
H4 H 0.9418 0.1220 0.5877
C6 C 0.8458(2) 0.04041(16) 0.52256(17)
H5 H 0.8942 -0.0058 0.5252
C7 C 0.7459(2) 0.03062(15) 0.48071(16)
H6 H 0.7294 -0.0219 0.4563
C8 C 0.67057(17) 0.09681(14) 0.47445(13)
C9 C 0.56340(17) 0.08773(14) 0.42753(14)
H7 H 0.5043 0.1133 0.4599
H8 H 0.5467 0.0274 0.4204
C10 C 0.56870(18) 0.13063(14) 0.34234(13)
H9 H 0.6061 0.1853 0.3482
H10 H 0.6128 0.0952 0.3054
C11 C 0.3925(2) 0.06598(15) 0.29295(17)
H11 H 0.3830 0.0401 0.3475
H12 H 0.3200 0.0835 0.2737
C12 C 0.4330(2) 0.00010(17) 0.2365(2)
H13 H 0.5053 -0.0195 0.2543
H14 H 0.4396 0.0231 0.1804
C13 C 0.3492(3) -0.07629(16) 0.2374(2)
H15 H 0.3739 -0.1201 0.1996
H16 H 0.2777 -0.0562 0.2203
H17 H 0.3445 -0.0994 0.2928
C14 C 0.4724(2) 0.19861(16) 0.22911(15)
H18 H 0.5079 0.1647 0.1860
H19 H 0.5215 0.2459 0.2423
C15 C 0.3695(2) 0.2346(2) 0.1942(2)
H20 H 0.3244 0.2555 0.2398
H21 H 0.3289 0.1888 0.1670
C16 C 0.3850(2) 0.30558(17) 0.13303(18)
H22 H 0.3141 0.3258 0.1146
H23 H 0.4262 0.2850 0.0860
H24 H 0.4245 0.3517 0.1591
loop_
_geom_bond_atom_site_label_1
_geom_bond_atom_site_label_2
_geom_bond_site_symmetry_1
_geom_bond_site_symmetry_2
C1 C2 1_555 1_555
N1 H1 1_555 1_555
N2 C10 1_555 1_555
C2 H2 1_555 1_555
C3 N1 1_555 1_555
H3 C3 1_555 1_555
C4 C1 1_555 1_555
C5 C4 1_555 1_555
H4 C5 1_555 1_555
C6 C5 1_555 1_555
H5 C6 1_555 1_555
C7 C6 1_555 1_555
H6 C7 1_555 1_555
C8 C1 1_555 1_555
C9 C8 1_555 1_555
H7 C9 1_555 1_555
H8 C9 1_555 1_555
C10 C9 1_555 1_555
H9 C10 1_555 1_555
H10 C10 1_555 1_555
C11 N2 1_555 1_555
H11 C11 1_555 1_555
H12 C11 1_555 1_555
C12 C11 1_555 1_555
H13 C12 1_555 1_555
H14 C12 1_555 1_555
C13 C12 1_555 1_555
H15 C13 1_555 1_555
H16 C13 1_555 1_555
H17 C13 1_555 1_555
C14 N2 1_555 1_555
H18 C14 1_555 1_555
H19 C14 1_555 1_555
C15 C14 1_555 1_555
H20 C15 1_555 1_555
H21 C15 1_555 1_555
C16 C15 1_555 1_555
H22 C16 1_555 1_555
H23 C16 1_555 1_555
H24 C16 1_555 1_555
N1 C4 1_555 1_555
C2 C3 1_555 1_555
C7 C8 1_555 1_555

#END
