
#######################################################################
#
#                 Cambridge Crystallographic Data Centre
#                                CCDC 
#
#######################################################################
#
# If this CIF has been generated from an entry in the Cambridge 
# Structural Database, then it will include bibliographic, chemical, 
# crystal, experimental, refinement or atomic coordinate data resulting 
# from the CCDC's data processing and validation procedures.
#
#######################################################################

data_ZAQPIT
_chemical_formula_moiety         'C17 H14 O1'
_chemical_name_systematic        6,6a-dihydro-5H-benzo[a]xanthene
_symmetry_cell_setting           monoclinic
_symmetry_space_group_name_H-M   'P 21/n'
_symmetry_Int_Tables_number      14
_space_group_name_Hall           '-P 2yn'
loop_
_symmetry_equiv_pos_site_id
_symmetry_equiv_pos_as_xyz
1 x,y,z
2 1/2-x,1/2+y,1/2-z
3 -x,-y,-z
4 1/2+x,1/2-y,1/2+z
_cell_length_a                   12.0468(11)
_cell_length_b                   6.2442(4)
_cell_length_c                   16.9384(13)
_cell_angle_alpha                90
_cell_angle_beta                 109.936(10)
_cell_angle_gamma                90
_cell_volume                     1197.8
_exptl_crystal_colour            colorless
_exptl_crystal_description       parallelepiped
_cell_formula_units_Z            4
loop_
_atom_site_label
_atom_site_type_symbol
_atom_site_fract_x
_atom_site_fract_y
_atom_site_fract_z
O1 O 0.64624(16) 0.7898(3) 0.05966(12)
C1 C 0.71380(19) 0.6328(4) 0.04061(14)
C2 C 0.7610(2) 0.6714(4) -0.02177(16)
H1 H 0.7417 0.7990 -0.0542
C3 C 0.8364(2) 0.5226(4) -0.03658(15)
H2 H 0.8683 0.5478 -0.0799
C4 C 0.8660(2) 0.3376(4) 0.01071(15)
H3 H 0.9191 0.2373 0.0008
C5 C 0.8174(2) 0.2993(4) 0.07300(15)
H4 H 0.8371 0.1716 0.1052
C6 C 0.74000(18) 0.4455(4) 0.08896(13)
C7 C 0.68678(18) 0.4158(3) 0.15334(13)
H5 H 0.7137 0.3026 0.1927
C8 C 0.60071(18) 0.5446(3) 0.15823(13)
C9 C 0.53549(17) 0.5192(3) 0.21798(13)
C10 C 0.5596(2) 0.3482(4) 0.27518(14)
H6 H 0.6208 0.2502 0.2772
C11 C 0.4965(2) 0.3195(4) 0.32834(15)
H7 H 0.5141 0.2026 0.3665
C12 C 0.4071(2) 0.4615(4) 0.32620(15)
H8 H 0.3626 0.4407 0.3623
C13 C 0.3828(2) 0.6323(4) 0.27190(15)
H9 H 0.3222 0.7301 0.2715
C14 C 0.44612(19) 0.6648(4) 0.21694(14)
C15 C 0.4159(2) 0.8541(4) 0.15776(16)
H10 H 0.3444 0.8201 0.1092
H11 H 0.3975 0.9791 0.1871
C16 C 0.5144(2) 0.9114(4) 0.12670(18)
H12 H 0.4860 1.0199 0.0816
H13 H 0.5797 0.9761 0.1732
C17 C 0.5597(2) 0.7240(4) 0.09395(15)
H14 H 0.4920 0.6659 0.0463
loop_
_geom_bond_atom_site_label_1
_geom_bond_atom_site_label_2
_geom_bond_site_symmetry_1
_geom_bond_site_symmetry_2
O1 C1 1_555 1_555
C1 C2 1_555 1_555
C2 H1 1_555 1_555
C3 C2 1_555 1_555
H2 C3 1_555 1_555
C4 C3 1_555 1_555
H3 C4 1_555 1_555
C5 C4 1_555 1_555
H4 C5 1_555 1_555
C6 C1 1_555 1_555
C7 C6 1_555 1_555
H5 C7 1_555 1_555
C8 C7 1_555 1_555
C9 C8 1_555 1_555
C10 C9 1_555 1_555
H6 C10 1_555 1_555
C11 C10 1_555 1_555
H7 C11 1_555 1_555
C12 C11 1_555 1_555
H8 C12 1_555 1_555
C13 C12 1_555 1_555
H9 C13 1_555 1_555
C14 C9 1_555 1_555
C15 C14 1_555 1_555
H10 C15 1_555 1_555
H11 C15 1_555 1_555
C16 C15 1_555 1_555
H12 C16 1_555 1_555
H13 C16 1_555 1_555
C17 O1 1_555 1_555
H14 C17 1_555 1_555
C5 C6 1_555 1_555
C8 C17 1_555 1_555
C13 C14 1_555 1_555
C16 C17 1_555 1_555

#END
