
#######################################################################
#
#                 Cambridge Crystallographic Data Centre
#                                CCDC 
#
#######################################################################
#
# If this CIF has been generated from an entry in the Cambridge 
# Structural Database, then it will include bibliographic, chemical, 
# crystal, experimental, refinement or atomic coordinate data resulting 
# from the CCDC's data processing and validation procedures.
#
#######################################################################

data_ZAQRAM
_chemical_formula_moiety         'C20 H11 Cl2 F4 N3'
_chemical_name_systematic        
3-(2,4-Dichlorophenyl)-5-(4-fluorophenyl)-2-methyl-7-(trifluoromethyl)pyrazolo[1,5-a]pyrimidine
_symmetry_cell_setting           orthorhombic
_symmetry_space_group_name_H-M   'P b c a'
_symmetry_Int_Tables_number      61
_space_group_name_Hall           '-P 2ac 2ab'
loop_
_symmetry_equiv_pos_site_id
_symmetry_equiv_pos_as_xyz
1 x,y,z
2 1/2-x,-y,1/2+z
3 -x,1/2+y,1/2-z
4 1/2+x,1/2-y,-z
5 -x,-y,-z
6 1/2+x,y,1/2-z
7 x,1/2-y,1/2+z
8 1/2-x,1/2+y,z
_cell_length_a                   9.5361(19)
_cell_length_b                   15.941(3)
_cell_length_c                   24.853(5)
_cell_angle_alpha                90
_cell_angle_beta                 90
_cell_angle_gamma                90
_cell_volume                     3778.03
_exptl_crystal_colour            yellow
_exptl_crystal_description       block
_cell_formula_units_Z            8
loop_
_atom_site_label
_atom_site_type_symbol
_atom_site_fract_x
_atom_site_fract_y
_atom_site_fract_z
Cl1 Cl 0.65368(10) -0.11103(5) 0.54765(3)
Cl2 Cl 0.61073(8) 0.22387(4) 0.56049(3)
F1 F 0.25116(18) 0.44152(9) 0.75453(7)
F2 F 0.06282(16) 0.37077(10) 0.75226(7)
F3 F 0.1688(2) 0.39016(11) 0.82698(6)
F4 F 0.6356(2) -0.01913(11) 0.96188(6)
N1 N 0.44109(19) 0.15634(11) 0.74870(6)
N2 N 0.30004(19) 0.27037(11) 0.71649(6)
N3 N 0.2542(2) 0.30511(11) 0.66969(7)
C1 C 0.4349(2) 0.03787(14) 0.64421(9)
H1 H 0.3749 0.0312 0.6734
C2 C 0.4924(3) -0.03226(14) 0.62119(10)
H2 H 0.4712 -0.0854 0.6343
C3 C 0.5822(3) -0.02252(15) 0.57820(9)
C4 C 0.6166(3) 0.05579(15) 0.55899(9)
H3 H 0.6785 0.0617 0.5303
C5 C 0.5576(2) 0.12577(13) 0.58318(8)
C6 C 0.4625(2) 0.11903(13) 0.62578(8)
C7 C 0.3930(2) 0.19044(13) 0.65241(8)
C8 C 0.3106(2) 0.25618(13) 0.63129(8)
C9 C 0.2755(3) 0.27527(16) 0.57386(8)
H4 H 0.1841 0.3003 0.5720
H5 H 0.2763 0.2243 0.5533
H6 H 0.3437 0.3135 0.5595
C10 C 0.3844(2) 0.20017(13) 0.70785(8)
C11 C 0.4124(2) 0.18080(13) 0.79856(8)
C12 C 0.4725(2) 0.12953(13) 0.84255(8)
C13 C 0.4680(3) 0.15520(15) 0.89601(9)
H7 H 0.4272 0.2064 0.9048
C14 C 0.5237(3) 0.10527(17) 0.93628(9)
H8 H 0.5217 0.1227 0.9720
C15 C 0.5813(3) 0.03045(15) 0.92273(9)
C16 C 0.5893(3) 0.00274(14) 0.87055(10)
H9 H 0.6305 -0.0486 0.8624
C17 C 0.5345(3) 0.05311(14) 0.83055(9)
H10 H 0.5392 0.0355 0.7949
C18 C 0.3272(2) 0.25229(13) 0.80901(8)
H11 H 0.3090 0.2685 0.8443
C19 C 0.2727(2) 0.29661(13) 0.76758(8)
C20 C 0.1884(3) 0.37488(14) 0.77517(9)
loop_
_geom_bond_atom_site_label_1
_geom_bond_atom_site_label_2
_geom_bond_site_symmetry_1
_geom_bond_site_symmetry_2
Cl1 C3 1_555 1_555
Cl2 C5 1_555 1_555
F1 C20 1_555 1_555
F2 C20 1_555 1_555
F3 C20 1_555 1_555
F4 C15 1_555 1_555
N1 C10 1_555 1_555
N2 N3 1_555 1_555
N3 C8 1_555 1_555
C1 H1 1_555 1_555
C2 C1 1_555 1_555
H2 C2 1_555 1_555
C3 C2 1_555 1_555
C4 C3 1_555 1_555
H3 C4 1_555 1_555
C5 C4 1_555 1_555
C6 C1 1_555 1_555
C7 C6 1_555 1_555
C8 C7 1_555 1_555
C9 C8 1_555 1_555
H4 C9 1_555 1_555
H5 C9 1_555 1_555
H6 C9 1_555 1_555
C10 N2 1_555 1_555
C11 N1 1_555 1_555
C12 C11 1_555 1_555
C13 C12 1_555 1_555
H7 C13 1_555 1_555
C14 C13 1_555 1_555
H8 C14 1_555 1_555
C15 C14 1_555 1_555
C16 C15 1_555 1_555
H9 C16 1_555 1_555
C17 C12 1_555 1_555
H10 C17 1_555 1_555
C18 C11 1_555 1_555
H11 C18 1_555 1_555
C19 N2 1_555 1_555
C20 C19 1_555 1_555
C5 C6 1_555 1_555
C7 C10 1_555 1_555
C16 C17 1_555 1_555
C18 C19 1_555 1_555

#END
