
#######################################################################
#
#                 Cambridge Crystallographic Data Centre
#                                CCDC 
#
#######################################################################
#
# If this CIF has been generated from an entry in the Cambridge 
# Structural Database, then it will include bibliographic, chemical, 
# crystal, experimental, refinement or atomic coordinate data resulting 
# from the CCDC's data processing and validation procedures.
#
#######################################################################

data_ZAQSES
_chemical_formula_moiety         'C14 H10 F1 N3 O1 S1'
_chemical_name_systematic        
4-(5-((2-fluorobenzyl)sulfanyl)-1,3,4-oxadiazol-2-yl)pyridine
_symmetry_cell_setting           monoclinic
_symmetry_space_group_name_H-M   'P 21/n'
_symmetry_Int_Tables_number      14
_space_group_name_Hall           '-P 2yn'
loop_
_symmetry_equiv_pos_site_id
_symmetry_equiv_pos_as_xyz
1 x,y,z
2 1/2-x,1/2+y,1/2-z
3 -x,-y,-z
4 1/2+x,1/2-y,1/2+z
_cell_length_a                   11.541(16)
_cell_length_b                   8.226(12)
_cell_length_c                   13.683(19)
_cell_angle_alpha                90
_cell_angle_beta                 94.872(17)
_cell_angle_gamma                90
_cell_volume                     1294.32
_exptl_crystal_colour            'light colorless'
_exptl_crystal_description       block
_cell_formula_units_Z            4
loop_
_atom_site_label
_atom_site_type_symbol
_atom_site_fract_x
_atom_site_fract_y
_atom_site_fract_z
S1 S 0.19454(6) 0.08109(8) 0.30879(5)
F1 F 0.26599(13) 0.07730(19) 0.07585(13)
O1 O 0.16256(14) -0.09922(19) 0.46447(13)
N1 N 0.13068(19) -0.4557(3) 0.76571(17)
N2 N -0.01818(17) -0.1911(3) 0.43912(16)
N3 N 0.00535(18) -0.0941(2) 0.35808(16)
C1 C 0.2084(2) -0.3476(4) 0.7394(2)
H1 H 0.2772 -0.3326 0.7817
C2 C 0.1955(2) -0.2559(3) 0.6545(2)
H2 H 0.2532 -0.1795 0.6396
C3 C 0.0954(2) -0.2787(3) 0.59123(18)
C4 C 0.0133(2) -0.3897(3) 0.6175(2)
H3 H -0.0560 -0.4077 0.5764
C5 C 0.0343(2) -0.4743(3) 0.7052(2)
H4 H -0.0229 -0.5492 0.7231
C6 C 0.0750(2) -0.1909(3) 0.49892(19)
C7 C 0.1119(2) -0.0442(3) 0.37698(19)
C8 C 0.0908(2) 0.1056(3) 0.2007(2)
H5 H 0.0114 0.1137 0.2224
H6 H 0.1078 0.2088 0.1675
C9 C 0.0939(2) -0.0315(3) 0.12800(18)
C10 C 0.1826(2) -0.0402(3) 0.06624(19)
C11 C 0.1906(2) -0.1582(3) -0.0036(2)
H7 H 0.2523 -0.1581 -0.0454
C12 C 0.1052(2) -0.2781(3) -0.0113(2)
H8 H 0.1091 -0.3629 -0.0581
C13 C 0.0154(2) -0.2742(3) 0.0485(2)
H9 H -0.0432 -0.3555 0.0423
C14 C 0.0097(2) -0.1521(3) 0.1179(2)
H10 H -0.0526 -0.1511 0.1590
loop_
_geom_bond_atom_site_label_1
_geom_bond_atom_site_label_2
_geom_bond_site_symmetry_1
_geom_bond_site_symmetry_2
S1 C7 1_555 1_555
F1 C10 1_555 1_555
O1 C6 1_555 1_555
N1 C1 1_555 1_555
N2 N3 1_555 1_555
N3 C7 1_555 1_555
C1 H1 1_555 1_555
C2 C1 1_555 1_555
H2 C2 1_555 1_555
C3 C2 1_555 1_555
C4 C3 1_555 1_555
H3 C4 1_555 1_555
C5 N1 1_555 1_555
H4 C5 1_555 1_555
C6 N2 1_555 1_555
C7 O1 1_555 1_555
C8 S1 1_555 1_555
H5 C8 1_555 1_555
H6 C8 1_555 1_555
C9 C8 1_555 1_555
C10 C9 1_555 1_555
C11 C10 1_555 1_555
H7 C11 1_555 1_555
C12 C11 1_555 1_555
H8 C12 1_555 1_555
C13 C12 1_555 1_555
H9 C13 1_555 1_555
C14 C9 1_555 1_555
H10 C14 1_555 1_555
C3 C6 1_555 1_555
C4 C5 1_555 1_555
C13 C14 1_555 1_555

#END
