
#######################################################################
#
#                 Cambridge Crystallographic Data Centre
#                                CCDC 
#
#######################################################################
#
# If this CIF has been generated from an entry in the Cambridge 
# Structural Database, then it will include bibliographic, chemical, 
# crystal, experimental, refinement or atomic coordinate data resulting 
# from the CCDC's data processing and validation procedures.
#
#######################################################################

data_ZAQTAO
_chemical_name_common            
'3-(2,4-Dichlorophenyl)-2-oxo-1-oxaspiro[4.5]dec-3-en-4-yl methacrylate'
_chemical_formula_moiety         'C19 H18 Cl2 O4'
_chemical_name_systematic        
'3-(2,4-Dichlorophenyl)-2-oxo-1-oxaspiro[4.5]dec-3-en-4-yl 2-methylprop-2-enoate'
_symmetry_cell_setting           monoclinic
_symmetry_space_group_name_H-M   'P 21/n'
_symmetry_Int_Tables_number      14
_space_group_name_Hall           '-P 2yn'
loop_
_symmetry_equiv_pos_site_id
_symmetry_equiv_pos_as_xyz
1 x,y,z
2 1/2-x,1/2+y,1/2-z
3 -x,-y,-z
4 1/2+x,1/2-y,1/2+z
_cell_length_a                   10.7590(10)
_cell_length_b                   11.8778(11)
_cell_length_c                   15.0130(15)
_cell_angle_alpha                90
_cell_angle_beta                 107.047(4)
_cell_angle_gamma                90
_cell_volume                     1834.27
_exptl_crystal_colour            colorless
_exptl_crystal_description       prism
_cell_formula_units_Z            4
_exptl_crystal_recrystallization_method methanol
loop_
_atom_site_label
_atom_site_type_symbol
_atom_site_fract_x
_atom_site_fract_y
_atom_site_fract_z
Cl1 Cl 0.51046(3) 0.62323(3) 1.13695(2)
Cl2 Cl 0.37184(4) 0.19570(3) 1.04198(3)
O1 O 0.00843(9) 0.29580(7) 1.08091(6)
O2 O -0.07870(8) 0.18353(7) 0.95872(6)
O3 O 0.10997(9) 0.21926(8) 0.80025(7)
O4 O 0.10974(10) 0.40685(8) 0.77325(7)
C1 C 0.00933(12) 0.26065(10) 1.00566(9)
C2 C 0.09833(12) 0.28979(10) 0.95101(9)
C3 C 0.05816(13) 0.23083(10) 0.87256(9)
C4 C -0.06139(12) 0.16271(10) 0.86751(8)
C5 C -0.18169(13) 0.20806(10) 0.79466(9)
H1 H -0.1945 0.2881 0.8082
H2 H -0.1682 0.2040 0.7323
C6 C -0.30301(13) 0.14107(11) 0.79411(10)
H3 H -0.3215 0.1509 0.8545
H4 H -0.3785 0.1700 0.7443
C7 C -0.28405(14) 0.01632(11) 0.77779(10)
H5 H -0.3627 -0.0260 0.7794
H6 H -0.2720 0.0060 0.7154
C8 C -0.16622(14) -0.02997(11) 0.85182(10)
H7 H -0.1534 -0.1099 0.8379
H8 H -0.1826 -0.0268 0.9133
C9 C -0.04271(13) 0.03628(10) 0.85624(9)
H9 H -0.0183 0.0230 0.7984
H10 H 0.0293 0.0089 0.9094
C10 C 0.20514(12) 0.37111(10) 0.98884(9)
C11 C 0.17792(13) 0.48609(11) 0.98462(9)
H11 H 0.0932 0.5114 0.9514
C12 C 0.27197(13) 0.56429(11) 1.02792(9)
H12 H 0.2523 0.6424 1.0241
C13 C 0.39456(13) 0.52694(11) 1.07668(9)
C14 C 0.42685(13) 0.41434(11) 1.08054(10)
H13 H 0.5123 0.3898 1.1127
C15 C 0.33101(13) 0.33740(11) 1.03600(9)
C16 C 0.14479(13) 0.31519(11) 0.75941(9)
C17 C 0.22568(13) 0.28559(12) 0.69809(9)
C18 C 0.28787(15) 0.18689(13) 0.70703(12)
H14 H 0.2806 0.1346 0.7531
H15 H 0.3394 0.1690 0.6673
C19 C 0.23706(16) 0.37669(14) 0.63240(11)
H16 H 0.2959 0.3523 0.5972
H17 H 0.2716 0.4449 0.6677
H18 H 0.1511 0.3926 0.5892
loop_
_geom_bond_atom_site_label_1
_geom_bond_atom_site_label_2
_geom_bond_site_symmetry_1
_geom_bond_site_symmetry_2
Cl1 C13 1_555 1_555
Cl2 C15 1_555 1_555
O1 C1 1_555 1_555
O2 C1 1_555 1_555
O3 C3 1_555 1_555
O4 C16 1_555 1_555
C1 C2 1_555 1_555
C2 C3 1_555 1_555
C3 C4 1_555 1_555
C4 O2 1_555 1_555
C5 C4 1_555 1_555
H1 C5 1_555 1_555
H2 C5 1_555 1_555
C6 C5 1_555 1_555
H3 C6 1_555 1_555
H4 C6 1_555 1_555
C7 C6 1_555 1_555
H5 C7 1_555 1_555
H6 C7 1_555 1_555
C8 C7 1_555 1_555
H7 C8 1_555 1_555
H8 C8 1_555 1_555
C9 C4 1_555 1_555
H9 C9 1_555 1_555
H10 C9 1_555 1_555
C10 C2 1_555 1_555
C11 C10 1_555 1_555
H11 C11 1_555 1_555
C12 C11 1_555 1_555
H12 C12 1_555 1_555
C13 C12 1_555 1_555
C14 C13 1_555 1_555
H13 C14 1_555 1_555
C15 C10 1_555 1_555
C16 O3 1_555 1_555
C17 C16 1_555 1_555
C18 C17 1_555 1_555
H14 C18 1_555 1_555
H15 C18 1_555 1_555
C19 C17 1_555 1_555
H16 C19 1_555 1_555
H17 C19 1_555 1_555
H18 C19 1_555 1_555
C8 C9 1_555 1_555
C14 C15 1_555 1_555

#END
