
#######################################################################
#
#                 Cambridge Crystallographic Data Centre
#                                CCDC 
#
#######################################################################
#
# If this CIF has been generated from an entry in the Cambridge 
# Structural Database, then it will include bibliographic, chemical, 
# crystal, experimental, refinement or atomic coordinate data resulting 
# from the CCDC's data processing and validation procedures.
#
#######################################################################

data_ZAQXIA
_chemical_formula_moiety         'C20 H20 N3 O4 1+,Br1 1-'
_chemical_name_systematic        
'1,4-bis(4-(methoxycarbonyl)benzyl)-4H-1,2,4-triazol-1-ium bromide'
_symmetry_cell_setting           orthorhombic
_symmetry_space_group_name_H-M   'P c a 21'
_symmetry_Int_Tables_number      29
_space_group_name_Hall           'P 2c -2ac'
loop_
_symmetry_equiv_pos_site_id
_symmetry_equiv_pos_as_xyz
1 x,y,z
2 -x,-y,1/2+z
3 1/2-x,y,1/2+z
4 1/2+x,-y,z
_cell_length_a                   33.6880(15)
_cell_length_b                   4.7962(3)
_cell_length_c                   12.3337(6)
_cell_angle_alpha                90
_cell_angle_beta                 90
_cell_angle_gamma                90
_cell_volume                     1992.81
_exptl_crystal_colour            colorless
_exptl_crystal_description       block
_cell_formula_units_Z            4
loop_
_atom_site_label
_atom_site_type_symbol
_atom_site_fract_x
_atom_site_fract_y
_atom_site_fract_z
C1 C 0.47864(8) 0.6564(6) 0.2417(3)
H1 H 0.4887 0.7596 0.1819
C2 C 0.47240(9) 0.3718(7) 0.3756(3)
H2 H 0.4788 0.2350 0.4285
C3 C 0.40894(9) 0.8422(7) 0.2458(3)
H3 H 0.4184 0.9793 0.1917
H4 H 0.3980 0.9465 0.3083
C4 C 0.37667(8) 0.6644(6) 0.1961(3)
C5 C 0.34867(10) 0.5364(9) 0.2611(3)
H5 H 0.3490 0.5665 0.3373
C6 C 0.32036(11) 0.3655(9) 0.2160(3)
H6 H 0.3017 0.2741 0.2616
C7 C 0.31867(9) 0.3249(7) 0.1051(3)
C8 C 0.34607(8) 0.4583(7) 0.0390(4)
H7 H 0.3449 0.4351 -0.0374
C9 C 0.37509(10) 0.6255(8) 0.0851(3)
H8 H 0.3941 0.7143 0.0399
C10 C 0.28761(9) 0.1331(7) 0.0608(4)
C11 C 0.26013(14) -0.0757(11) -0.0946(4)
H9 H 0.2335 -0.0263 -0.0690
H10 H 0.2662 -0.2681 -0.0735
H11 H 0.2612 -0.0592 -0.1737
C12 C 0.53934(10) 0.3639(7) 0.2875(3)
H12 H 0.5389 0.2054 0.2361
H13 H 0.5492 0.2936 0.3580
C13 C 0.56784(9) 0.5850(7) 0.2453(3)
C14 C 0.59021(9) 0.7440(7) 0.3159(3)
H14 H 0.5868 0.7241 0.3919
C15 C 0.61770(9) 0.9330(7) 0.2758(3)
H15 H 0.6334 1.0398 0.3246
C16 C 0.62246(8) 0.9668(7) 0.1643(3)
C17 C 0.59997(10) 0.8069(8) 0.0951(3)
H16 H 0.6030 0.8288 0.0190
C18 C 0.57294(9) 0.6139(8) 0.1348(3)
H17 H 0.5580 0.5021 0.0861
C19 C 0.65221(11) 1.1610(8) 0.1181(4)
C20 C 0.70101(11) 1.5049(8) 0.1569(5)
H18 H 0.7055 1.6461 0.2130
H19 H 0.6921 1.5960 0.0901
H20 H 0.7258 1.4045 0.1429
N1 N 0.44256(8) 0.6675(5) 0.2823(2)
N2 N 0.43770(8) 0.4859(7) 0.3659(2)
N3 N 0.49824(8) 0.4702(6) 0.3018(2)
O1 O 0.26382(8) 0.0139(6) 0.1165(3)
O2 O 0.28892(9) 0.1106(6) -0.0466(3)
O3 O 0.65877(9) 1.1836(7) 0.0219(3)
O4 O 0.67098(7) 1.3101(5) 0.1933(3)
Br1 Br 0.479859(9) 1.16298(6) 0.04187(3)
loop_
_geom_bond_atom_site_label_1
_geom_bond_atom_site_label_2
_geom_bond_site_symmetry_1
_geom_bond_site_symmetry_2
C1 H1 1_555 1_555
C2 H2 1_555 1_555
C3 H3 1_555 1_555
H4 C3 1_555 1_555
C4 C3 1_555 1_555
C5 C4 1_555 1_555
H5 C5 1_555 1_555
C6 C5 1_555 1_555
H6 C6 1_555 1_555
C7 C6 1_555 1_555
C8 C7 1_555 1_555
H7 C8 1_555 1_555
C9 C4 1_555 1_555
H8 C9 1_555 1_555
C10 C7 1_555 1_555
C11 H9 1_555 1_555
H10 C11 1_555 1_555
H11 C11 1_555 1_555
C12 H12 1_555 1_555
H13 C12 1_555 1_555
C13 C12 1_555 1_555
C14 C13 1_555 1_555
H14 C14 1_555 1_555
C15 C14 1_555 1_555
H15 C15 1_555 1_555
C16 C15 1_555 1_555
C17 C16 1_555 1_555
H16 C17 1_555 1_555
C18 C13 1_555 1_555
H17 C18 1_555 1_555
C19 C16 1_555 1_555
C20 H18 1_555 1_555
H19 C20 1_555 1_555
H20 C20 1_555 1_555
N1 C1 1_555 1_555
N2 C2 1_555 1_555
N3 C1 1_555 1_555
O1 C10 1_555 1_555
O2 C10 1_555 1_555
O3 C19 1_555 1_555
O4 C19 1_555 1_555
C2 N3 1_555 1_555
C3 N1 1_555 1_555
C8 C9 1_555 1_555
C11 O2 1_555 1_555
C12 N3 1_555 1_555
C17 C18 1_555 1_555
C20 O4 1_555 1_555
N1 N2 1_555 1_555

#END
