
#######################################################################
#
#                 Cambridge Crystallographic Data Centre
#                                CCDC 
#
#######################################################################
#
# If this CIF has been generated from an entry in the Cambridge 
# Structural Database, then it will include bibliographic, chemical, 
# crystal, experimental, refinement or atomic coordinate data resulting 
# from the CCDC's data processing and validation procedures.
#
#######################################################################

data_ZAQYUN
_chemical_formula_moiety         'C13 H12 N2 O2'
_chemical_name_systematic        
4-(2,3-Dimethoxyphenyl)-1H-pyrrole-3-carbonitrile
_symmetry_cell_setting           monoclinic
_symmetry_space_group_name_H-M   'P 21/c'
_symmetry_Int_Tables_number      14
_space_group_name_Hall           '-P 2ybc'
loop_
_symmetry_equiv_pos_site_id
_symmetry_equiv_pos_as_xyz
1 x,y,z
2 -x,1/2+y,1/2-z
3 -x,-y,-z
4 x,1/2-y,1/2+z
_cell_length_a                   17.527(4)
_cell_length_b                   9.6576(19)
_cell_length_c                   14.237(3)
_cell_angle_alpha                90
_cell_angle_beta                 106.92(3)
_cell_angle_gamma                90
_cell_volume                     2305.56
_exptl_crystal_colour            yellow
_exptl_crystal_description       block
_cell_formula_units_Z            8
loop_
_atom_site_label
_atom_site_type_symbol
_atom_site_fract_x
_atom_site_fract_y
_atom_site_fract_z
C1 C 0.39205(11) 1.20321(18) 0.36418(13)
H1 H 0.3681 1.1873 0.4135
C2 C 0.38722(9) 1.11726(16) 0.28632(11)
C3 C 0.43351(10) 1.18515(16) 0.23130(12)
C4 C 0.46329(11) 1.30598(18) 0.27889(13)
H2 H 0.4956 1.3695 0.2594
C5 C 0.45012(12) 1.13911(17) 0.14436(13)
C6 C 0.34673(9) 0.98238(16) 0.26304(11)
C7 C 0.31916(11) 0.9373(2) 0.16570(12)
H3 H 0.3235 0.9955 0.1155
C8 C 0.28560(12) 0.8080(2) 0.14306(13)
H4 H 0.2685 0.7792 0.0779
C9 C 0.27712(11) 0.72099(19) 0.21594(13)
H5 H 0.2545 0.6338 0.1999
C10 C 0.30215(10) 0.76306(17) 0.31290(12)
C11 C 0.33585(9) 0.89520(17) 0.33612(11)
C12 C 0.41738(13) 0.8724(2) 0.50009(15)
H6 H 0.4005 0.7807 0.5108
H7 H 0.4319 0.9224 0.5610
H8 H 0.4626 0.8669 0.4750
C13 C 0.26965(15) 0.54613(19) 0.37083(17)
H9 H 0.2168 0.5441 0.3259
H10 H 0.2696 0.5015 0.4310
H11 H 0.3056 0.4985 0.3424
N1 N 0.43741(10) 1.31580(15) 0.35841(11)
H23 H 0.4537(12) 1.3808(17) 0.4048(12)
N2 N 0.46384(13) 1.10171(18) 0.07500(13)
O1 O 0.35427(8) 0.94207(13) 0.43141(8)
O2 O 0.29473(8) 0.68584(13) 0.39028(9)
C14 C 0.14006(10) 0.23868(16) 0.28910(11)
H12 H 0.1442 0.3042 0.3382
C15 C 0.12366(8) 0.26671(14) 0.19105(10)
C16 C 0.12262(9) 0.13441(14) 0.14436(11)
C17 C 0.13847(10) 0.03501(16) 0.21709(12)
H13 H 0.1411 -0.0600 0.2078
C18 C 0.10455(10) 0.10123(13) 0.04287(12)
C19 C 0.10576(8) 0.40571(13) 0.14708(9)
C20 C 0.06180(9) 0.49956(15) 0.18607(10)
H14 H 0.0452 0.4741 0.2400
C21 C 0.04304(9) 0.62910(15) 0.14515(11)
H15 H 0.0139 0.6897 0.1720
C22 C 0.06663(9) 0.67063(14) 0.06522(11)
H16 H 0.0530 0.7579 0.0379
C23 C 0.11099(8) 0.58046(13) 0.02615(9)
C24 C 0.13089(8) 0.44940(12) 0.06761(9)
C25 C 0.25651(11) 0.3560(2) 0.07426(16)
H17 H 0.2804 0.4447 0.0713
H18 H 0.2812 0.2877 0.0436
H19 H 0.2640 0.3310 0.1416
C26 C 0.11184(11) 0.73558(14) -0.10410(12)
H20 H 0.0546 0.7355 -0.1274
H21 H 0.1331 0.7424 -0.1589
H22 H 0.1296 0.8132 -0.0611
N3 N 0.14938(9) 0.09944(14) 0.30346(10)
H24 H 0.1571(12) 0.0577(18) 0.3613(9)
N4 N 0.08913(12) 0.06891(14) -0.03785(11)
O3 O 0.17371(6) 0.36250(9) 0.02440(7)
O4 O 0.13875(7) 0.61031(9) -0.05192(7)
loop_
_geom_bond_atom_site_label_1
_geom_bond_atom_site_label_2
_geom_bond_site_symmetry_1
_geom_bond_site_symmetry_2
C1 H1 1_555 1_555
C2 C1 1_555 1_555
C3 C2 1_555 1_555
C4 C3 1_555 1_555
H2 C4 1_555 1_555
C5 C3 1_555 1_555
C6 C2 1_555 1_555
C7 C6 1_555 1_555
H3 C7 1_555 1_555
C8 C7 1_555 1_555
H4 C8 1_555 1_555
C9 C8 1_555 1_555
H5 C9 1_555 1_555
C10 C9 1_555 1_555
C11 C6 1_555 1_555
C12 H6 1_555 1_555
H7 C12 1_555 1_555
H8 C12 1_555 1_555
C13 H9 1_555 1_555
H10 C13 1_555 1_555
H11 C13 1_555 1_555
C14 H12 1_555 1_555
C15 C14 1_555 1_555
C16 C15 1_555 1_555
C17 C16 1_555 1_555
H13 C17 1_555 1_555
C18 C16 1_555 1_555
C19 C15 1_555 1_555
C20 C19 1_555 1_555
H14 C20 1_555 1_555
C21 C20 1_555 1_555
H15 C21 1_555 1_555
C22 C21 1_555 1_555
H16 C22 1_555 1_555
C23 C22 1_555 1_555
C24 C19 1_555 1_555
C25 H17 1_555 1_555
H18 C25 1_555 1_555
H19 C25 1_555 1_555
C26 H20 1_555 1_555
H21 C26 1_555 1_555
H22 C26 1_555 1_555
N1 C1 1_555 1_555
H23 N1 1_555 1_555
N2 C5 1_555 1_555
N3 C14 1_555 1_555
H24 N3 1_555 1_555
N4 C18 1_555 1_555
O1 C11 1_555 1_555
O2 C10 1_555 1_555
O3 C24 1_555 1_555
O4 C23 1_555 1_555
C4 N1 1_555 1_555
C10 C11 1_555 1_555
C12 O1 1_555 1_555
C13 O2 1_555 1_555
C17 N3 1_555 1_555
C23 C24 1_555 1_555
C25 O3 1_555 1_555
C26 O4 1_555 1_555

#END
