
#######################################################################
#
#                 Cambridge Crystallographic Data Centre
#                                CCDC 
#
#######################################################################
#
# If this CIF has been generated from an entry in the Cambridge 
# Structural Database, then it will include bibliographic, chemical, 
# crystal, experimental, refinement or atomic coordinate data resulting 
# from the CCDC's data processing and validation procedures.
#
#######################################################################

data_ZARCOM
_chemical_formula_moiety         'C11 H13 N5'
_chemical_name_systematic        
N-(4-(Dimethylamino)benzylidene)-4H-1,2,4-triazol-4-amine
_symmetry_cell_setting           monoclinic
_symmetry_space_group_name_H-M   'P 21/c'
_symmetry_Int_Tables_number      14
_space_group_name_Hall           '-P 2ybc'
loop_
_symmetry_equiv_pos_site_id
_symmetry_equiv_pos_as_xyz
1 x,y,z
2 -x,1/2+y,1/2-z
3 -x,-y,-z
4 x,1/2-y,1/2+z
_cell_length_a                   10.3665(16)
_cell_length_b                   11.1585(19)
_cell_length_c                   9.5248(12)
_cell_angle_alpha                90
_cell_angle_beta                 90.2570(10)
_cell_angle_gamma                90
_cell_volume                     1101.77
_exptl_crystal_colour            colorless
_exptl_crystal_description       cuboid
_cell_formula_units_Z            4
loop_
_atom_site_label
_atom_site_type_symbol
_atom_site_fract_x
_atom_site_fract_y
_atom_site_fract_z
N1 N 0.20167(17) 0.23656(19) 0.4358(2)
N2 N 0.24339(17) 0.13578(17) 0.36475(19)
N3 N 0.34969(14) 0.14765(14) 0.56204(17)
N4 N 0.43764(14) 0.11434(15) 0.66817(17)
N5 N 0.87803(15) 0.16192(15) 1.14369(18)
C1 C 0.33047(19) 0.08539(19) 0.4428(2)
H1 H 0.3740 0.0154 0.4195
C2 C 0.26690(19) 0.2406(2) 0.5530(2)
H2 H 0.2576 0.2996 0.6212
C3 C 0.49452(17) 0.20274(18) 0.7270(2)
H3 H 0.4751 0.2797 0.6959
C4 C 0.58726(17) 0.18934(17) 0.8392(2)
C5 C 0.61841(19) 0.07978(19) 0.8997(2)
H4 H 0.5744 0.0114 0.8707
C6 C 0.7122(2) 0.06956(19) 1.0008(2)
H5 H 0.7301 -0.0051 1.0396
C7 C 0.78200(17) 0.17091(18) 1.0468(2)
C8 C 0.74731(17) 0.28123(18) 0.9884(2)
H6 H 0.7890 0.3504 1.0186
C9 C 0.65320(18) 0.28964(18) 0.8876(2)
H7 H 0.6329 0.3644 0.8505
C10 C 0.9193(3) 0.0473(2) 1.1988(3)
H8 H 0.8525 0.0144 1.2566
H9 H 0.9963 0.0579 1.2539
H10 H 0.9366 -0.0064 1.1224
C11 C 0.9429(2) 0.2687(2) 1.1945(2)
H11 H 0.9861 0.3074 1.1180
H12 H 1.0049 0.2468 1.2652
H13 H 0.8806 0.3225 1.2340
loop_
_geom_bond_atom_site_label_1
_geom_bond_atom_site_label_2
_geom_bond_site_symmetry_1
_geom_bond_site_symmetry_2
N1 N2 1_555 1_555
N2 C1 1_555 1_555
N3 N4 1_555 1_555
N4 C3 1_555 1_555
N5 C7 1_555 1_555
C1 N3 1_555 1_555
H1 C1 1_555 1_555
C2 N1 1_555 1_555
H2 C2 1_555 1_555
C3 H3 1_555 1_555
C4 C3 1_555 1_555
C5 C4 1_555 1_555
H4 C5 1_555 1_555
C6 C5 1_555 1_555
H5 C6 1_555 1_555
C7 C6 1_555 1_555
C8 C7 1_555 1_555
H6 C8 1_555 1_555
C9 C4 1_555 1_555
H7 C9 1_555 1_555
C10 N5 1_555 1_555
H8 C10 1_555 1_555
H9 C10 1_555 1_555
H10 C10 1_555 1_555
C11 N5 1_555 1_555
H11 C11 1_555 1_555
H12 C11 1_555 1_555
H13 C11 1_555 1_555
N3 C2 1_555 1_555
C8 C9 1_555 1_555

#END
