
#######################################################################
#
#                 Cambridge Crystallographic Data Centre
#                                CCDC 
#
#######################################################################
#
# If this CIF has been generated from an entry in the Cambridge 
# Structural Database, then it will include bibliographic, chemical, 
# crystal, experimental, refinement or atomic coordinate data resulting 
# from the CCDC's data processing and validation procedures.
#
#######################################################################

data_ZARDEB
_chemical_formula_moiety         'C42 H30 S6,2(C1 Cl3 N1 O2)'
_chemical_name_systematic        
'hexakis(Phenylthio)benzene bis(trichloronitro-methane) clathrate'
_symmetry_cell_setting           rhombohedral
_symmetry_space_group_name_H-M   'R -3'
_symmetry_Int_Tables_number      148
_space_group_name_Hall           '-R 3'
loop_
_symmetry_equiv_pos_site_id
_symmetry_equiv_pos_as_xyz
1 x,y,z
2 -y,x-y,z
3 -x+y,-x,z
4 1/3+x,2/3+y,2/3+z
5 1/3-y,2/3+x-y,2/3+z
6 1/3-x+y,2/3-x,2/3+z
7 2/3+x,1/3+y,1/3+z
8 2/3-y,1/3+x-y,1/3+z
9 2/3-x+y,1/3-x,1/3+z
10 -x,-y,-z
11 y,-x+y,-z
12 x-y,x,-z
13 2/3-x,1/3-y,1/3-z
14 2/3+y,1/3-x+y,1/3-z
15 2/3+x-y,1/3+x,1/3-z
16 1/3-x,2/3-y,2/3-z
17 1/3+y,2/3-x+y,2/3-z
18 1/3+x-y,2/3+x,2/3-z
_cell_length_a                   14.207(5)
_cell_length_b                   14.207(5)
_cell_length_c                   20.606(8)
_cell_angle_alpha                90
_cell_angle_beta                 90
_cell_angle_gamma                120
_cell_volume                     3601.88
_chemical_melting_point          180deg.C
_cell_formula_units_Z            3
loop_
_atom_site_label
_atom_site_type_symbol
_atom_site_fract_x
_atom_site_fract_y
_atom_site_fract_z
S1 S -0.25745(3) -0.14507(4) 0.00401(2)
C1 C -0.1138(2) -0.0652(2) 0.0007(1)
C2 C -0.2811(2) -0.2272(2) 0.0734(1)
C3 C -0.2117(2) -0.1977(2) 0.1262(1)
C4 C -0.2417(3) -0.2658(3) 0.1800(2)
C5 C -0.3413(3) -0.3598(3) 0.1821(2)
C6 C -0.4098(3) -0.3882(3) 0.1305(2)
C7 C -0.3798(2) -0.3238(2) 0.0750(2)
H1 H -0.143(3) -0.135(2) 0.125(2)
H2 H -0.192(3) -0.251(3) 0.215(2)
H3 H -0.376(4) -0.412(4) 0.224(3)
H4 H -0.474(4) -0.458(3) 0.136(2)
H5 H -0.428(2) -0.350(2) 0.038(1)
C1J C -0.0652(2) 0.0486(3) -0.0007(1)
S1J S -0.14507(4) 0.11238(5) -0.00401(2)
C2J C -0.2272(2) 0.0539(3) -0.0734(1)
C3J C -0.1977(2) 0.0140(3) -0.1262(1)
C4J C -0.2658(3) -0.0241(4) -0.1800(2)
C5J C -0.3598(3) -0.0185(4) -0.1821(2)
C6J C -0.3882(3) 0.0216(4) -0.1305(2)
C7J C -0.3238(2) 0.0560(3) -0.0750(2)
H5J H -0.350(2) 0.078(3) -0.038(1)
H4J H -0.458(3) 0.016(5) -0.136(2)
H3J H -0.412(4) -0.036(6) -0.224(3)
H2J H -0.251(3) -0.059(4) -0.215(2)
H1J H -0.135(2) 0.008(4) -0.125(2)
C1B C 0.0486(3) 0.1138(2) 0.0007(1)
S1B S 0.11238(5) 0.25745(3) 0.00401(2)
C2B C 0.0539(3) 0.2811(2) 0.0734(1)
C3B C 0.0140(3) 0.2117(2) 0.1262(1)
C4B C -0.0241(4) 0.2417(3) 0.1800(2)
C5B C -0.0185(4) 0.3413(3) 0.1821(2)
C6B C 0.0216(4) 0.4098(3) 0.1305(2)
C7B C 0.0560(3) 0.3798(2) 0.0750(2)
H5B H 0.078(3) 0.428(2) 0.038(1)
H4B H 0.016(5) 0.474(4) 0.136(2)
H3B H -0.036(6) 0.376(4) 0.224(3)
H2B H -0.059(4) 0.192(3) 0.215(2)
H1B H 0.008(4) 0.143(3) 0.125(2)
C1I C 0.1138(2) 0.0652(2) -0.0007(1)
S1I S 0.25745(3) 0.14507(4) -0.00401(2)
C2I C 0.2811(2) 0.2272(2) -0.0734(1)
C3I C 0.2117(2) 0.1977(2) -0.1262(1)
C4I C 0.2417(3) 0.2658(3) -0.1800(2)
C5I C 0.3413(3) 0.3598(3) -0.1821(2)
C6I C 0.4098(3) 0.3882(3) -0.1305(2)
C7I C 0.3798(2) 0.3238(2) -0.0750(2)
H5I H 0.428(2) 0.350(2) -0.038(1)
H4I H 0.474(4) 0.458(3) -0.136(2)
H3I H 0.376(4) 0.412(4) -0.224(3)
H2I H 0.192(3) 0.251(3) -0.215(2)
H1I H 0.143(3) 0.135(2) -0.125(2)
C1A C 0.0652(2) -0.0486(3) 0.0007(1)
S1A S 0.14507(4) -0.11238(5) 0.00401(2)
C2A C 0.2272(2) -0.0539(3) 0.0734(1)
C3A C 0.1977(2) -0.0140(3) 0.1262(1)
C4A C 0.2658(3) 0.0241(4) 0.1800(2)
C5A C 0.3598(3) 0.0185(4) 0.1821(2)
C6A C 0.3882(3) -0.0216(4) 0.1305(2)
C7A C 0.3238(2) -0.0560(3) 0.0750(2)
H5A H 0.350(2) -0.078(3) 0.038(1)
H4A H 0.458(3) -0.016(5) 0.136(2)
H3A H 0.412(4) 0.036(6) 0.224(3)
H2A H 0.251(3) 0.059(4) 0.215(2)
H1A H 0.135(2) -0.008(4) 0.125(2)
C1K C -0.0486(3) -0.1138(2) -0.0007(1)
S1K S -0.11238(5) -0.25745(3) -0.00401(2)
C2K C -0.0539(3) -0.2811(2) -0.0734(1)
C3K C -0.0140(3) -0.2117(2) -0.1262(1)
C4K C 0.0241(4) -0.2417(3) -0.1800(2)
C5K C 0.0185(4) -0.3413(3) -0.1821(2)
C6K C -0.0216(4) -0.4098(3) -0.1305(2)
C7K C -0.0560(3) -0.3798(2) -0.0750(2)
H5K H -0.078(3) -0.428(2) -0.038(1)
H4K H -0.016(5) -0.474(4) -0.136(2)
H3K H 0.036(6) -0.376(4) -0.224(3)
H2K H 0.059(4) -0.192(3) -0.215(2)
H1K H -0.008(4) -0.143(3) -0.125(2)
C8? C 0.0039(9) -0.0006(9) 0.3270(4)
N1? N 0.0170(12) -0.0102(10) 0.3964(4)
O1? O -0.0163(22) -0.0994(12) 0.4207(8)
O2? O 0.0595(20) 0.0713(14) 0.4299(6)
Cl1? Cl -0.1256(7) -0.0115(9) 0.3161(7)
Cl2? Cl 0.0102(8) -0.1060(6) 0.2845(5)
Cl3? Cl 0.1095(6) 0.1291(6) 0.3000(6)
C9? C 0.0004(10) 0.0016(8) 0.3389(5)
N2? N 0.0034(13) -0.0874(10) 0.3056(6)
O3? O 0.0317(33) -0.1432(23) 0.3357(10)
O4? O 0.0033(18) -0.0888(16) 0.2463(6)
Cl4? Cl -0.0147(9) -0.0257(6) 0.4233(3)
Cl5? Cl 0.1272(7) 0.1215(7) 0.3269(6)
Cl6? Cl -0.1098(8) 0.0131(9) 0.3082(7)
C10? C -0.0095(12) 0.0030(15) 0.3519(18)
N3? N -0.0399(14) 0.0069(31) 0.2849(8)
O5? O -0.1358(16) -0.0411(29) 0.2697(12)
O6? O 0.0300(20) -0.0436(39) 0.2429(9)
Cl7? Cl -0.1093(10) 0.0047(11) 0.4034(9)
Cl8? Cl 0.1214(10) 0.1179(12) 0.3663(12)
Cl9? Cl -0.0065(17) -0.1201(13) 0.3626(20)
loop_
_geom_bond_atom_site_label_1
_geom_bond_atom_site_label_2
_geom_bond_site_symmetry_1
_geom_bond_site_symmetry_2
S1 C1 1_555 1_555
C1 C1J 1_555 1_555
C2 S1 1_555 1_555
C3 C2 1_555 1_555
C4 C3 1_555 1_555
C5 C4 1_555 1_555
C6 C5 1_555 1_555
C7 C2 1_555 1_555
H1 C3 1_555 1_555
H2 C4 1_555 1_555
H3 C5 1_555 1_555
H4 C6 1_555 1_555
H5 C7 1_555 1_555
C1J S1J 1_555 1_555
S1J C2J 1_555 1_555
C2J C3J 1_555 1_555
C3J C4J 1_555 1_555
C4J C5J 1_555 1_555
C5J C6J 1_555 1_555
C6J C7J 1_555 1_555
C7J C2J 1_555 1_555
H5J C7J 1_555 1_555
H4J C6J 1_555 1_555
H3J C5J 1_555 1_555
H2J C4J 1_555 1_555
H1J C3J 1_555 1_555
C1B C1J 1_555 1_555
S1B C1B 1_555 1_555
C2B S1B 1_555 1_555
C3B C2B 1_555 1_555
C4B C3B 1_555 1_555
C5B C4B 1_555 1_555
C6B C5B 1_555 1_555
C7B C2B 1_555 1_555
H5B C7B 1_555 1_555
H4B C6B 1_555 1_555
H3B C5B 1_555 1_555
H2B C4B 1_555 1_555
H1B C3B 1_555 1_555
C1I C1B 1_555 1_555
S1I C1I 1_555 1_555
C2I S1I 1_555 1_555
C3I C2I 1_555 1_555
C4I C3I 1_555 1_555
C5I C4I 1_555 1_555
C6I C5I 1_555 1_555
C7I C2I 1_555 1_555
H5I C7I 1_555 1_555
H4I C6I 1_555 1_555
H3I C5I 1_555 1_555
H2I C4I 1_555 1_555
H1I C3I 1_555 1_555
C1A C1I 1_555 1_555
S1A C1A 1_555 1_555
C2A S1A 1_555 1_555
C3A C2A 1_555 1_555
C4A C3A 1_555 1_555
C5A C4A 1_555 1_555
C6A C5A 1_555 1_555
C7A C2A 1_555 1_555
H5A C7A 1_555 1_555
H4A C6A 1_555 1_555
H3A C5A 1_555 1_555
H2A C4A 1_555 1_555
H1A C3A 1_555 1_555
C1K C1 1_555 1_555
S1K C1K 1_555 1_555
C2K S1K 1_555 1_555
C3K C2K 1_555 1_555
C4K C3K 1_555 1_555
C5K C4K 1_555 1_555
C6K C5K 1_555 1_555
C7K C2K 1_555 1_555
H5K C7K 1_555 1_555
H4K C6K 1_555 1_555
H3K C5K 1_555 1_555
H2K C4K 1_555 1_555
H1K C3K 1_555 1_555
C6 C7 1_555 1_555
C6B C7B 1_555 1_555
C6I C7I 1_555 1_555
C1A C1K 1_555 1_555
C6A C7A 1_555 1_555
C6K C7K 1_555 1_555

#END
