
#######################################################################
#
#                 Cambridge Crystallographic Data Centre
#                                CCDC 
#
#######################################################################
#
# If this CIF has been generated from an entry in the Cambridge 
# Structural Database, then it will include bibliographic, chemical, 
# crystal, experimental, refinement or atomic coordinate data resulting 
# from the CCDC's data processing and validation procedures.
#
#######################################################################

data_ZARDIH
_chemical_name_common            
4b,7,9b-Trihydroxy-4b,9b-dihydro-10H-benzo[b]indeno[2,1-d]furan-10-one
_chemical_formula_moiety         'C15 H10 O5'
_chemical_name_systematic        
1,5,9-trihydroxy-8-oxatetracyclo[7.7.0.0^2,7^.0^10,15^]hexadeca-2,4,6,10(15),11,13-hexaen-16-one
_symmetry_cell_setting           monoclinic
_symmetry_space_group_name_H-M   'P 21/c'
_symmetry_Int_Tables_number      14
_space_group_name_Hall           '-P 2ybc'
loop_
_symmetry_equiv_pos_site_id
_symmetry_equiv_pos_as_xyz
1 x,y,z
2 -x,1/2+y,1/2-z
3 -x,-y,-z
4 x,1/2-y,1/2+z
_cell_length_a                   9.1117(5)
_cell_length_b                   12.2995(7)
_cell_length_c                   10.1177(5)
_cell_angle_alpha                90
_cell_angle_beta                 91.8370(10)
_cell_angle_gamma                90
_cell_volume                     1133.3
_exptl_crystal_colour            colorless
_exptl_crystal_description       block
_cell_formula_units_Z            4
loop_
_atom_site_label
_atom_site_type_symbol
_atom_site_fract_x
_atom_site_fract_y
_atom_site_fract_z
O1 O 0.55633(10) 0.40497(9) 0.32526(9)
O2 O 0.38544(11) 0.59167(7) 0.40684(9)
H1 H 0.394(2) 0.5760(16) 0.490(2)
O3 O 0.22262(11) 0.65338(7) 0.19634(9)
H2 H 0.219(2) 0.689(2) 0.272(2)
O4 O -0.12067(11) 0.24783(9) 0.55006(10)
H3 H -0.175(2) 0.2263(19) 0.479(2)
O5 O 0.07320(9) 0.50826(7) 0.24520(8)
C1 C 0.21080(14) 0.48007(11) -0.02647(12)
H4 H 0.1252(19) 0.5225(14) -0.0506(16)
C2 C 0.27738(16) 0.41740(12) -0.12105(13)
H5 H 0.2341(19) 0.4179(14) -0.2090(18)
C3 C 0.40256(16) 0.35623(11) -0.09057(14)
H6 H 0.4472(19) 0.3140(14) -0.1582(17)
C4 C 0.46396(14) 0.35571(10) 0.03612(13)
H7 H 0.5509(18) 0.3132(14) 0.0606(15)
C5 C 0.39742(12) 0.41873(10) 0.13132(11)
C6 C 0.27356(12) 0.48078(9) 0.10008(11)
C7 C 0.44307(12) 0.43593(10) 0.27024(11)
C8 C 0.32381(12) 0.50301(9) 0.33703(11)
C9 C 0.22170(12) 0.54241(9) 0.21795(11)
C10 C 0.22056(12) 0.43138(9) 0.41014(11)
C11 C 0.24218(13) 0.36685(10) 0.52153(11)
H8 H 0.3393(17) 0.3619(12) 0.5676(15)
C12 C 0.12568(14) 0.30692(10) 0.56731(12)
H9 H 0.1362(17) 0.2601(13) 0.6454(16)
C13 C -0.01040(13) 0.31088(10) 0.50070(12)
C14 C -0.03552(13) 0.37657(10) 0.39052(12)
H10 H -0.1314(18) 0.3805(13) 0.3462(15)
C15 C 0.08212(12) 0.43688(10) 0.34892(11)
loop_
_geom_bond_atom_site_label_1
_geom_bond_atom_site_label_2
_geom_bond_site_symmetry_1
_geom_bond_site_symmetry_2
O1 C7 1_555 1_555
O2 H1 1_555 1_555
O3 H2 1_555 1_555
O4 H3 1_555 1_555
O5 C9 1_555 1_555
C1 H4 1_555 1_555
C2 C1 1_555 1_555
H5 C2 1_555 1_555
C3 C2 1_555 1_555
H6 C3 1_555 1_555
C4 C3 1_555 1_555
H7 C4 1_555 1_555
C5 C4 1_555 1_555
C6 C1 1_555 1_555
C7 C5 1_555 1_555
C8 O2 1_555 1_555
C9 O3 1_555 1_555
C10 C8 1_555 1_555
C11 C10 1_555 1_555
H8 C11 1_555 1_555
C12 C11 1_555 1_555
H9 C12 1_555 1_555
C13 O4 1_555 1_555
C14 C13 1_555 1_555
H10 C14 1_555 1_555
C15 O5 1_555 1_555
C5 C6 1_555 1_555
C6 C9 1_555 1_555
C7 C8 1_555 1_555
C8 C9 1_555 1_555
C10 C15 1_555 1_555
C12 C13 1_555 1_555
C14 C15 1_555 1_555

#END
