
#######################################################################
#
#                 Cambridge Crystallographic Data Centre
#                                CCDC 
#
#######################################################################
#
# If this CIF has been generated from an entry in the Cambridge 
# Structural Database, then it will include bibliographic, chemical, 
# crystal, experimental, refinement or atomic coordinate data resulting 
# from the CCDC's data processing and validation procedures.
#
#######################################################################

data_ZARDAZ
_chemical_formula_moiety         'C20 H21 N1 O5'
_chemical_name_systematic        
'(E)-Methyl 2-((2-ethoxy-6-[(E)-(hydroxyimino)methyl]phenoxy)methyl)-3-phenylacrylate'
_symmetry_cell_setting           monoclinic
_symmetry_space_group_name_H-M   'P 21/n'
_symmetry_Int_Tables_number      14
_space_group_name_Hall           '-P 2yn'
loop_
_symmetry_equiv_pos_site_id
_symmetry_equiv_pos_as_xyz
1 x,y,z
2 1/2-x,1/2+y,1/2-z
3 -x,-y,-z
4 1/2+x,1/2-y,1/2+z
_cell_length_a                   7.4009(3)
_cell_length_b                   22.1125(10)
_cell_length_c                   11.3681(5)
_cell_angle_alpha                90
_cell_angle_beta                 103.5610(10)
_cell_angle_gamma                90
_cell_volume                     1808.55
_exptl_crystal_colour            white
_exptl_crystal_description       block
_cell_formula_units_Z            4
loop_
_atom_site_label
_atom_site_type_symbol
_atom_site_fract_x
_atom_site_fract_y
_atom_site_fract_z
C1 C 0.66305(18) 0.04722(6) 0.86324(12)
H1 H 0.6348 0.0414 0.7799
C2 C 0.52766(17) 0.07679(6) 0.91943(11)
C3 C 0.5530(2) 0.08059(6) 1.04563(12)
H2 H 0.6589 0.0641 1.0960
C4 C 0.4225(2) 0.10847(7) 1.09493(12)
H3 H 0.4392 0.1097 1.1786
C5 C 0.2661(2) 0.13482(7) 1.02182(13)
H4 H 0.1791 0.1539 1.0563
C6 C 0.23961(18) 0.13273(6) 0.89702(11)
C7 C 0.36826(16) 0.10210(5) 0.84560(10)
C8 C -0.0070(3) 0.20593(10) 0.86177(17)
H5 H 0.0740 0.2293 0.9250
H6 H -0.1026 0.1872 0.8951
C9 C -0.0933(3) 0.24597(10) 0.7579(2)
H7 H 0.0013 0.2608 0.7202
H8 H -0.1532 0.2795 0.7867
H9 H -0.1834 0.2234 0.7000
C10 C 0.17647(18) 0.06976(7) 0.65716(11)
H10 H 0.0762 0.0989 0.6349
H11 H 0.1401 0.0393 0.7085
C11 C 0.21243(17) 0.04080(6) 0.54594(11)
C12 C 0.28726(19) -0.02179(7) 0.56460(13)
C13 C 0.3504(3) -0.11301(8) 0.4760(2)
H12 H 0.4669 -0.1161 0.5346
H13 H 0.3642 -0.1283 0.3996
H14 H 0.2580 -0.1362 0.5028
C14 C 0.17680(17) 0.06620(6) 0.43559(11)
H15 H 0.2015 0.0421 0.3742
C15 C 0.10419(17) 0.12684(6) 0.39869(11)
C16 C 0.1278(2) 0.17773(7) 0.47358(14)
H16 H 0.1968 0.1747 0.5531
C17 C 0.0490(2) 0.23275(7) 0.43013(16)
H17 H 0.0651 0.2663 0.4808
C18 C -0.0529(2) 0.23794(8) 0.31254(17)
H18 H -0.1072 0.2747 0.2844
C19 C -0.0744(2) 0.18858(8) 0.23667(15)
H19 H -0.1420 0.1921 0.1570
C20 C 0.0045(2) 0.13382(7) 0.27890(13)
H20 H -0.0091 0.1009 0.2266
N1 N 0.81897(15) 0.02940(6) 0.92689(10)
O1 O 0.92841(16) 0.00226(6) 0.85611(10)
H21 H 1.0254 -0.0101 0.9001
O2 O 0.09792(15) 0.16043(5) 0.81645(9)
O3 O 0.34510(11) 0.09991(4) 0.72187(7)
O4 O 0.3345(2) -0.04452(6) 0.66304(12)
O5 O 0.29384(17) -0.05077(5) 0.46293(10)
loop_
_geom_bond_atom_site_label_1
_geom_bond_atom_site_label_2
_geom_bond_site_symmetry_1
_geom_bond_site_symmetry_2
C1 H1 1_555 1_555
C2 C1 1_555 1_555
C3 C2 1_555 1_555
H2 C3 1_555 1_555
C4 C3 1_555 1_555
H3 C4 1_555 1_555
C5 C4 1_555 1_555
H4 C5 1_555 1_555
C6 C5 1_555 1_555
C7 C2 1_555 1_555
C8 H5 1_555 1_555
H6 C8 1_555 1_555
C9 C8 1_555 1_555
H7 C9 1_555 1_555
H8 C9 1_555 1_555
H9 C9 1_555 1_555
C10 H10 1_555 1_555
H11 C10 1_555 1_555
C11 C10 1_555 1_555
C12 C11 1_555 1_555
C13 H12 1_555 1_555
H13 C13 1_555 1_555
H14 C13 1_555 1_555
C14 C11 1_555 1_555
H15 C14 1_555 1_555
C15 C14 1_555 1_555
C16 C15 1_555 1_555
H16 C16 1_555 1_555
C17 C16 1_555 1_555
H17 C17 1_555 1_555
C18 C17 1_555 1_555
H18 C18 1_555 1_555
C19 C18 1_555 1_555
H19 C19 1_555 1_555
C20 C15 1_555 1_555
H20 C20 1_555 1_555
N1 C1 1_555 1_555
O1 N1 1_555 1_555
H21 O1 1_555 1_555
O2 C6 1_555 1_555
O3 C7 1_555 1_555
O4 C12 1_555 1_555
O5 C12 1_555 1_555
C6 C7 1_555 1_555
C8 O2 1_555 1_555
C10 O3 1_555 1_555
C13 O5 1_555 1_555
C19 C20 1_555 1_555

#END
