
#######################################################################
#
#                 Cambridge Crystallographic Data Centre
#                                CCDC 
#
#######################################################################
#
# If this CIF has been generated from an entry in the Cambridge 
# Structural Database, then it will include bibliographic, chemical, 
# crystal, experimental, refinement or atomic coordinate data resulting 
# from the CCDC's data processing and validation procedures.
#
#######################################################################

data_ZARDAA
_chemical_formula_moiety         'C23 H20 N4 O1 S1'
_chemical_name_systematic        
(E)-2-({[3-(benzylsulfanyl)-5-(4-methylphenyl)-4H-1,2,4-triazol-4-yl]imino}methyl)phenol
_symmetry_cell_setting           monoclinic
_symmetry_space_group_name_H-M   'P 21/c'
_symmetry_Int_Tables_number      14
_space_group_name_Hall           '-P 2ybc'
loop_
_symmetry_equiv_pos_site_id
_symmetry_equiv_pos_as_xyz
1 x,y,z
2 -x,1/2+y,1/2-z
3 -x,-y,-z
4 x,1/2-y,1/2+z
_cell_length_a                   11.8003(12)
_cell_length_b                   17.9297(16)
_cell_length_c                   9.8723(8)
_cell_angle_alpha                90
_cell_angle_beta                 110.279(5)
_cell_angle_gamma                90
_cell_volume                     1959.27
_exptl_crystal_colour            colorless
_exptl_crystal_description       prism
_cell_formula_units_Z            4
loop_
_atom_site_label
_atom_site_type_symbol
_atom_site_fract_x
_atom_site_fract_y
_atom_site_fract_z
S1 S -0.05368(3) 0.073331(19) 0.84276(4)
O1 O 0.04559(9) -0.07904(5) 0.64668(11)
H1 H 0.0323(17) -0.1309(12) 0.657(2)
N1 N -0.05660(10) 0.22483(6) 0.83583(13)
N2 N 0.00556(10) 0.28249(6) 0.79821(13)
N3 N 0.07357(10) 0.17775(6) 0.74342(12)
N4 N 0.15716(10) 0.12969(6) 0.71510(12)
C1 C -0.32364(13) 0.12819(8) 0.76880(16)
H2 H -0.2946 0.1052 0.7005
C2 C -0.44007(13) 0.15724(8) 0.72435(17)
H3 H -0.4902 0.1540 0.6257
C3 C -0.48351(13) 0.19083(9) 0.82265(18)
H4 H -0.5635 0.2100 0.7921
C4 C -0.40971(14) 0.19621(9) 0.96563(18)
H5 H -0.4388 0.2194 1.0337
C5 C -0.29371(13) 0.16795(8) 1.00994(16)
H6 H -0.2431 0.1726 1.1082
C6 C -0.25002(12) 0.13271(7) 0.91230(15)
C7 C -0.12538(12) 0.09818(8) 0.97144(15)
H7 H -0.1309 0.0526 1.0254
H8 H -0.0717 0.1335 1.0418
C8 C -0.01388(12) 0.16245(7) 0.80360(15)
C9 C 0.08464(12) 0.25386(7) 0.74565(15)
C10 C 0.16945(12) 0.29819(7) 0.70022(15)
C11 C 0.21798(12) 0.27415(8) 0.59754(15)
H9 H 0.2010 0.2252 0.5589
C12 C 0.29062(12) 0.32083(8) 0.55128(16)
H10 H 0.3224 0.3033 0.4809
C13 C 0.31820(12) 0.39299(8) 0.60553(16)
C14 C 0.27198(13) 0.41596(8) 0.71107(17)
H11 H 0.2913 0.4643 0.7518
C15 C 0.19875(13) 0.37003(8) 0.75794(16)
H12 H 0.1682 0.3873 0.8296
C16 C 0.39281(14) 0.44438(8) 0.54910(18)
H13 H 0.4761 0.4259 0.5793
H14 H 0.3922 0.4946 0.5879
H15 H 0.3586 0.4460 0.4434
C17 C 0.11524(12) 0.06527(7) 0.66711(15)
H16 H 0.0323 0.0547 0.6487
C18 C 0.19257(12) 0.00785(7) 0.64025(14)
C19 C 0.30414(12) 0.02410(8) 0.62744(16)
H17 H 0.3310 0.0743 0.6337
C20 C 0.37576(13) -0.03235(8) 0.60577(16)
H18 H 0.4515 -0.0211 0.5968
C21 C 0.33616(14) -0.10567(8) 0.59720(16)
H19 H 0.3859 -0.1444 0.5834
C22 C 0.22584(13) -0.12335(8) 0.60829(15)
H20 H 0.1994 -0.1737 0.6006
C23 C 0.15335(12) -0.06653(7) 0.63100(15)
loop_
_geom_bond_atom_site_label_1
_geom_bond_atom_site_label_2
_geom_bond_site_symmetry_1
_geom_bond_site_symmetry_2
S1 C7 1_555 1_555
O1 H1 1_555 1_555
N1 N2 1_555 1_555
N2 C9 1_555 1_555
N3 N4 1_555 1_555
N4 C17 1_555 1_555
C1 H2 1_555 1_555
C2 C1 1_555 1_555
H3 C2 1_555 1_555
C3 C2 1_555 1_555
H4 C3 1_555 1_555
C4 C3 1_555 1_555
H5 C4 1_555 1_555
C5 C4 1_555 1_555
H6 C5 1_555 1_555
C6 C1 1_555 1_555
C7 C6 1_555 1_555
H7 C7 1_555 1_555
H8 C7 1_555 1_555
C8 S1 1_555 1_555
C9 N3 1_555 1_555
C10 C9 1_555 1_555
C11 C10 1_555 1_555
H9 C11 1_555 1_555
C12 C11 1_555 1_555
H10 C12 1_555 1_555
C13 C12 1_555 1_555
C14 C13 1_555 1_555
H11 C14 1_555 1_555
C15 C10 1_555 1_555
H12 C15 1_555 1_555
C16 C13 1_555 1_555
H13 C16 1_555 1_555
H14 C16 1_555 1_555
H15 C16 1_555 1_555
C17 H16 1_555 1_555
C18 C17 1_555 1_555
C19 C18 1_555 1_555
H17 C19 1_555 1_555
C20 C19 1_555 1_555
H18 C20 1_555 1_555
C21 C20 1_555 1_555
H19 C21 1_555 1_555
C22 C21 1_555 1_555
H20 C22 1_555 1_555
C23 O1 1_555 1_555
N1 C8 1_555 1_555
N3 C8 1_555 1_555
C5 C6 1_555 1_555
C14 C15 1_555 1_555
C18 C23 1_555 1_555
C22 C23 1_555 1_555

#END
