
#######################################################################
#
#                 Cambridge Crystallographic Data Centre
#                                CCDC 
#
#######################################################################
#
# If this CIF has been generated from an entry in the Cambridge 
# Structural Database, then it will include bibliographic, chemical, 
# crystal, experimental, refinement or atomic coordinate data resulting 
# from the CCDC's data processing and validation procedures.
#
#######################################################################

data_ZARGOO
_chemical_formula_moiety         'C23 H30 O3'
_chemical_name_systematic        
1,5,6,8a-Tetramethyl-5-(2'-benzyloxy)ethyl-octahydronaphthalen-3,8-dione
_symmetry_cell_setting           orthorhombic
_symmetry_space_group_name_H-M   'P b c a'
_symmetry_Int_Tables_number      61
_space_group_name_Hall           '-P 2ac 2ab'
loop_
_symmetry_equiv_pos_site_id
_symmetry_equiv_pos_as_xyz
1 x,y,z
2 1/2-x,-y,1/2+z
3 1/2+x,1/2-y,-z
4 -x,1/2+y,1/2-z
5 -x,-y,-z
6 1/2+x,y,1/2-z
7 1/2-x,1/2+y,z
8 x,1/2-y,1/2+z
_cell_length_a                   11.0837(8)
_cell_length_b                   8.1077(7)
_cell_length_c                   44.428(4)
_cell_angle_alpha                90
_cell_angle_beta                 90
_cell_angle_gamma                90
_cell_volume                     3992.45
_chemical_melting_point          102-103deg.C
_cell_formula_units_Z            8
loop_
_atom_site_label
_atom_site_type_symbol
_atom_site_fract_x
_atom_site_fract_y
_atom_site_fract_z
C1 C 0.0456(4) 0.8707(6) 0.07820(10)
C2 C 0.0106(4) 0.9878(6) 0.05268(10)
C3 C -0.0869(4) 0.9294(6) 0.03230(10)
C4 C -0.1048(4) 0.7514(6) 0.02934(10)
C5 C -0.0395(4) 0.6411(6) 0.04433(10)
C6 C 0.0650(4) 0.6939(6) 0.06459(10)
C7 C 0.0777(4) 0.5675(6) 0.08968(10)
C8 C -0.0092(5) 0.5779(6) 0.11521(10)
C9 C -0.0004(4) 0.7477(6) 0.12960(10)
C10 C -0.0362(4) 0.8833(6) 0.10690(10)
C11 C -0.0159(5) 1.0559(6) 0.12084(10)
C12 C -0.0817(6) 1.0847(8) 0.15030(12)
O1 O -0.0418(5) 1.2410(5) 0.16259(8)
C13 C -0.0997(9) 1.2922(15) 0.18431(23)
C15 C -0.0119(8) 1.4283(8) 0.19994(12)
C16 C -0.0892(9) 1.5518(11) 0.20747(19)
C17 C -0.0465(10) 1.6861(11) 0.22226(20)
C18 C 0.0657(10) 1.6991(10) 0.22814(15)
C19 C 0.1455(8) 1.5789(11) 0.22151(16)
C20 C 0.1045(8) 1.4467(9) 0.20741(15)
O2 O -0.1458(3) 1.0265(4) 0.01709(7)
C21 C -0.0582(5) 0.4588(7) 0.03937(11)
C22 C 0.1797(4) 0.6917(6) 0.04514(10)
O3 O 0.1560(3) 0.4623(5) 0.08941(8)
C23 C 0.1252(5) 0.7701(8) 0.14353(12)
C24 C -0.1717(4) 0.8674(7) 0.09927(11)
H1 H 0.128 0.904 0.085
H2 H 0.085 1.005 0.040
H3 H -0.014 1.096 0.062
H4 H -0.169 0.711 0.015
H5 H -0.096 0.564 0.109
H6 H 0.010 0.491 0.130
H7 H -0.056 0.754 0.147
H8 H -0.040 1.144 0.106
H9 H 0.071 1.073 0.126
H10 H -0.069 0.997 0.166
H11 H -0.170 1.095 0.147
H12 H -0.186 1.328 0.184
H13 H -0.094 1.201 0.199
H16 H -0.174 1.522 0.202
H17 H -0.110 1.773 0.224
H18 H 0.079 1.798 0.241
H19 H 0.230 1.600 0.228
H20 H 0.158 1.360 0.198
H21 H -0.086 0.423 0.060
H22 H -0.118 0.450 0.023
H23 H 0.020 0.416 0.031
H24 H 0.176 0.774 0.028
H25 H 0.253 0.720 0.057
H26 H 0.192 0.583 0.035
H27 H 0.191 0.772 0.128
H28 H 0.131 0.877 0.155
H29 H 0.145 0.683 0.159
H30 H -0.193 0.958 0.085
H31 H -0.185 0.760 0.089
H32 H -0.221 0.875 0.118
C14? C -0.0166(18) 1.246(3) 0.1921(4)
H14? H -0.082 1.197 0.205
H15? H 0.053 1.180 0.200
loop_
_geom_bond_atom_site_label_1
_geom_bond_atom_site_label_2
_geom_bond_site_symmetry_1
_geom_bond_site_symmetry_2
C1 C2 1_555 1_555
C2 C3 1_555 1_555
C3 C4 1_555 1_555
C4 C5 1_555 1_555
C5 C6 1_555 1_555
C6 C1 1_555 1_555
C7 C6 1_555 1_555
C8 C7 1_555 1_555
C9 C8 1_555 1_555
C10 C1 1_555 1_555
C11 C10 1_555 1_555
C12 C11 1_555 1_555
O1 C12 1_555 1_555
C13 O1 1_555 1_555
C15 C13 1_555 1_555
C16 C15 1_555 1_555
C17 C16 1_555 1_555
C18 C17 1_555 1_555
C19 C18 1_555 1_555
C20 C15 1_555 1_555
O2 C3 1_555 1_555
C21 C5 1_555 1_555
C22 C6 1_555 1_555
O3 C7 1_555 1_555
C23 C9 1_555 1_555
C24 C10 1_555 1_555
H1 C1 1_555 1_555
H2 C2 1_555 1_555
H3 C2 1_555 1_555
H4 C4 1_555 1_555
H5 C8 1_555 1_555
H6 C8 1_555 1_555
H7 C9 1_555 1_555
H8 C11 1_555 1_555
H9 C11 1_555 1_555
H10 C12 1_555 1_555
H11 C12 1_555 1_555
H12 C13 1_555 1_555
H13 C13 1_555 1_555
H16 C16 1_555 1_555
H17 C17 1_555 1_555
H18 C18 1_555 1_555
H19 C19 1_555 1_555
H20 C20 1_555 1_555
H21 C21 1_555 1_555
H22 C21 1_555 1_555
H23 C21 1_555 1_555
H24 C22 1_555 1_555
H25 C22 1_555 1_555
H26 C22 1_555 1_555
H27 C23 1_555 1_555
H28 C23 1_555 1_555
H29 C23 1_555 1_555
H30 C24 1_555 1_555
H31 C24 1_555 1_555
H32 C24 1_555 1_555
C9 C10 1_555 1_555
C19 C20 1_555 1_555

#END
