
#######################################################################
#
#                 Cambridge Crystallographic Data Centre
#                                CCDC 
#
#######################################################################
#
# If this CIF has been generated from an entry in the Cambridge 
# Structural Database, then it will include bibliographic, chemical, 
# crystal, experimental, refinement or atomic coordinate data resulting 
# from the CCDC's data processing and validation procedures.
#
#######################################################################

data_ZARKEI
_chemical_name_common            
"6,10;12,16:18,22:24,4-O,O'-tetrakis(N,N-diethylaminothiophosphorylidene)-C-methylcalix(4)resorcinarene methanol clathrate chloroform solvate"
_chemical_formula_moiety         'C48 H64 N4 O8 P4 S4,C1 H4 O1,4(C1 H1 Cl3)'
_chemical_name_systematic        
'6,10;12,16:18,22:24,4-tetrakis(N,N-diethylthiophosphoramido)-2,8,14,20-tetramethylcalix(4)arene methanol clathrate chloroform solvate'
_symmetry_cell_setting           tetragonal
_symmetry_space_group_name_H-M   'P 4/n'
_symmetry_Int_Tables_number      85
_space_group_name_Hall           '-P 4a'
loop_
_symmetry_equiv_pos_site_id
_symmetry_equiv_pos_as_xyz
1 x,y,z
2 1/2-y,x,z
3 1/2-x,1/2-y,z
4 y,1/2-x,z
5 -x,-y,-z
6 1/2+y,-x,-z
7 1/2+x,1/2+y,-z
8 -y,1/2+x,-z
_cell_length_a                   18.883(5)
_cell_length_b                   18.883(5)
_cell_length_c                   10.233(3)
_cell_angle_alpha                90
_cell_angle_beta                 90
_cell_angle_gamma                90
_cell_volume                     3648.76
_exptl_crystal_colour            white
_chemical_melting_point          'above 300deg.C'
_cell_formula_units_Z            2
loop_
_atom_site_label
_atom_site_type_symbol
_atom_site_fract_x
_atom_site_fract_y
_atom_site_fract_z
S1 S 0.0960(1) 0.1943(1) 1.2385(2)
P1 P 0.0228(1) 0.1681(1) 1.1200(1)
O1 O -0.0035(2) 0.2297(2) 1.0225(4)
O2 O 0.0428(2) 0.1049(2) 1.0218(3)
N1 N -0.0534(2) 0.1437(2) 1.1831(4)
C1 C 0.0450(3) 0.2768(3) 0.9634(5)
C2 C 0.0543(3) 0.3418(3) 1.0228(5)
C3 C 0.0786(3) 0.2581(3) 0.8472(5)
C4 C 0.1236(3) 0.3087(3) 0.7912(5)
C5 C 0.0702(3) 0.1848(3) 0.7875(5)
C6 C 0.1344(3) 0.3754(3) 0.8463(5)
C7 C 0.1102(3) 0.0992(3) 0.9636(5)
C8 C 0.0701(4) 0.1843(3) 0.6377(6)
C9 C -0.1136(3) 0.1291(4) 1.0951(7)
C10 C -0.1813(4) 0.1591(9) 1.1444(12)
C11 C -0.0517(4) 0.1018(3) 1.3051(6)
C12 C -0.0347(5) 0.0238(4) 1.2851(9)
H1 H 0.0327(26) 0.3544(25) 1.1061(52)
H2 H 0.1514(24) 0.2989(24) 0.7095(49)
H3 H 0.0270(25) 0.1696(24) 0.8075(44)
H4 H 0.0638(34) 0.1381(38) 0.5962(61)
H5 H 0.0369(29) 0.2119(28) 0.5936(51)
H6 H 0.1055(38) 0.1957(37) 0.5859(71)
H7 H -0.1220(33) 0.0724(36) 1.0777(58)
H8 H -0.1101(31) 0.1517(32) 1.0028(64)
H9 H -0.188(11) 0.216(12) 1.087(21)
H10 H -0.2177(52) 0.1468(48) 1.0599(94)
H11 H -0.1977(41) 0.1387(41) 1.1916(76)
H12 H -0.0188(31) 0.1239(30) 1.3682(58)
H13 H -0.0949(31) 0.1122(28) 1.3484(55)
H14 H -0.0290(42) 0.0044(46) 1.3817(98)
H15 H 0.0053(44) 0.0159(42) 1.2417(85)
H16 H -0.0730(43) -0.0031(41) 1.2145(79)
C7C C 0.0992(3) 0.3898(3) 0.9636(5)
O2C O 0.1049(2) 0.4572(2) 1.0218(3)
P1C P 0.1681(1) 0.4772(1) 1.1200(1)
S1C S 0.1943(1) 0.4040(1) 1.2385(2)
O1C O 0.2297(2) 0.5035(2) 1.0225(4)
C1C C 0.2768(3) 0.4550(3) 0.9634(5)
C2C C 0.3418(3) 0.4457(3) 1.0228(5)
C7B C 0.3898(3) 0.4008(3) 0.9636(5)
O2B O 0.4572(2) 0.3951(2) 1.0218(3)
P1B P 0.4772(1) 0.3319(1) 1.1200(1)
S1B S 0.4040(1) 0.3057(1) 1.2385(2)
O1B O 0.5035(2) 0.2703(2) 1.0225(4)
C1B C 0.4550(3) 0.2232(3) 0.9634(5)
C2B C 0.4457(3) 0.1582(3) 1.0228(5)
C7A C 0.4008(3) 0.1102(3) 0.9636(5)
O2A O 0.3951(2) 0.0428(2) 1.0218(3)
P1A P 0.3319(1) 0.0228(1) 1.1200(1)
S1A S 0.3057(1) 0.0960(1) 1.2385(2)
O1A O 0.2703(2) -0.0035(2) 1.0225(4)
C1A C 0.2232(3) 0.0450(3) 0.9634(5)
C2A C 0.1582(3) 0.0543(3) 1.0228(5)
C6A C 0.1246(3) 0.1344(3) 0.8463(5)
C4A C 0.1913(3) 0.1236(3) 0.7912(5)
C3A C 0.2419(3) 0.0786(3) 0.8472(5)
C5A C 0.3152(3) 0.0702(3) 0.7875(5)
C6B C 0.3656(3) 0.1246(3) 0.8463(5)
C4B C 0.3764(3) 0.1913(3) 0.7912(5)
C3B C 0.4214(3) 0.2419(3) 0.8472(5)
C5B C 0.4298(3) 0.3152(3) 0.7875(5)
C6C C 0.3754(3) 0.3656(3) 0.8463(5)
C4C C 0.3087(3) 0.3764(3) 0.7912(5)
C3C C 0.2581(3) 0.4214(3) 0.8472(5)
C5C C 0.1848(3) 0.4298(3) 0.7875(5)
C8C C 0.1843(3) 0.4299(4) 0.6377(6)
H4C H 0.1381(38) 0.4362(34) 0.5962(61)
H5C H 0.2119(28) 0.4631(29) 0.5936(51)
H6C H 0.1957(37) 0.3945(38) 0.5859(71)
H3C H 0.1696(24) 0.4730(25) 0.8075(44)
H2C H 0.2989(24) 0.3486(24) 0.7095(49)
C8B C 0.4299(4) 0.3157(3) 0.6377(6)
H4B H 0.4362(34) 0.3619(38) 0.5962(61)
H5B H 0.4631(29) 0.2881(28) 0.5936(51)
H6B H 0.3945(38) 0.3043(37) 0.5859(71)
H3B H 0.4730(25) 0.3304(24) 0.8075(44)
H2B H 0.3486(24) 0.2011(24) 0.7095(49)
C8A C 0.3157(3) 0.0701(4) 0.6377(6)
H4A H 0.3619(38) 0.0638(34) 0.5962(61)
H5A H 0.2881(28) 0.0369(29) 0.5936(51)
H6A H 0.3043(37) 0.1055(38) 0.5859(71)
H3A H 0.3304(24) 0.0270(25) 0.8075(44)
H2A H 0.2011(24) 0.1514(24) 0.7095(49)
H1A H 0.1456(25) 0.0327(26) 1.1061(52)
N1A N 0.3563(2) -0.0534(2) 1.1831(4)
C9A C 0.3709(4) -0.1136(3) 1.0951(7)
C10A C 0.3409(9) -0.1813(4) 1.1444(12)
H9A H 0.284(12) -0.188(11) 1.087(21)
H10A H 0.3532(48) -0.2177(52) 1.0599(94)
H11A H 0.3613(41) -0.1977(41) 1.1916(76)
H7A H 0.4276(36) -0.1220(33) 1.0777(58)
H8A H 0.3483(32) -0.1101(31) 1.0028(64)
C11A C 0.3982(3) -0.0517(4) 1.3051(6)
C12A C 0.4762(4) -0.0347(5) 1.2851(9)
H14A H 0.4956(46) -0.0290(42) 1.3817(98)
H15A H 0.4841(42) 0.0053(44) 1.2417(85)
H16A H 0.5031(41) -0.0730(43) 1.2145(79)
H12A H 0.3761(30) -0.0188(31) 1.3682(58)
H13A H 0.3878(28) -0.0949(31) 1.3484(55)
H1B H 0.4673(26) 0.1456(25) 1.1061(52)
N1B N 0.5534(2) 0.3563(2) 1.1831(4)
C9B C 0.6136(3) 0.3709(4) 1.0951(7)
C10B C 0.6813(4) 0.3409(9) 1.1444(12)
H9B H 0.688(11) 0.284(12) 1.087(21)
H10B H 0.7177(52) 0.3532(48) 1.0599(94)
H11B H 0.6977(41) 0.3613(41) 1.1916(76)
H7B H 0.6220(33) 0.4276(36) 1.0777(58)
H8B H 0.6101(31) 0.3483(32) 1.0028(64)
C11B C 0.5517(4) 0.3982(3) 1.3051(6)
C12B C 0.5347(5) 0.4762(4) 1.2851(9)
H14B H 0.5290(42) 0.4956(46) 1.3817(98)
H15B H 0.4947(44) 0.4841(42) 1.2417(85)
H16B H 0.5730(43) 0.5031(41) 1.2145(79)
H12B H 0.5188(31) 0.3761(30) 1.3682(58)
H13B H 0.5949(31) 0.3878(28) 1.3484(55)
H1C H 0.3544(25) 0.4673(26) 1.1061(52)
N1C N 0.1437(2) 0.5534(2) 1.1831(4)
C9C C 0.1291(4) 0.6136(3) 1.0951(7)
C10C C 0.1591(9) 0.6813(4) 1.1444(12)
H9C H 0.216(12) 0.688(11) 1.087(21)
H10C H 0.1468(48) 0.7177(52) 1.0599(94)
H11C H 0.1387(41) 0.6977(41) 1.1916(76)
H7C H 0.0724(36) 0.6220(33) 1.0777(58)
H8C H 0.1517(32) 0.6101(31) 1.0028(64)
C11C C 0.1018(3) 0.5517(4) 1.3051(6)
C12C C 0.0238(4) 0.5347(5) 1.2851(9)
H14C H 0.0044(46) 0.5290(42) 1.3817(98)
H15C H 0.0159(42) 0.4947(44) 1.2417(85)
H16C H -0.0031(41) 0.5730(43) 1.2145(79)
H12C H 0.1239(30) 0.5188(31) 1.3682(58)
H13C H 0.1122(28) 0.5949(31) 1.3484(55)
C13 C 0.0613(4) 0.6932(3) 0.6400(7)
Cl1 Cl 0.1129(1) 0.6321(1) 0.7277(2)
Cl2 Cl -0.0106(1) 0.6500(1) 0.5673(3)
Cl3 Cl 0.1116(1) 0.7374(1) 0.5221(2)
H17 H 0.0432(41) 0.7336(40) 0.7118(76)
O3 O 0.2500 0.2500 1.3155(1)
C14 C 0.2500 0.2500 1.4572(1)
loop_
_geom_bond_atom_site_label_1
_geom_bond_atom_site_label_2
_geom_bond_site_symmetry_1
_geom_bond_site_symmetry_2
S1 P1 1_555 1_555
P1 O1 1_555 1_555
O1 C1 1_555 1_555
O2 P1 1_555 1_555
N1 P1 1_555 1_555
C1 C2 1_555 1_555
C2 H1 1_555 1_555
C3 C1 1_555 1_555
C4 C3 1_555 1_555
C5 C3 1_555 1_555
C6 C4 1_555 1_555
C7 O2 1_555 1_555
C8 C5 1_555 1_555
C9 N1 1_555 1_555
C10 C9 1_555 1_555
C11 N1 1_555 1_555
C12 C11 1_555 1_555
C13 Cl1 1_555 1_555
Cl2 C13 1_555 1_555
Cl3 C13 1_555 1_555
O3 C14 1_555 1_555
H2 C4 1_555 1_555
H3 C5 1_555 1_555
H4 C8 1_555 1_555
H5 C8 1_555 1_555
H6 C8 1_555 1_555
H7 C9 1_555 1_555
H8 C9 1_555 1_555
H9 C10 1_555 1_555
H10 C10 1_555 1_555
H11 C10 1_555 1_555
H12 C11 1_555 1_555
H13 C11 1_555 1_555
H14 C12 1_555 1_555
H15 C12 1_555 1_555
H16 C12 1_555 1_555
H17 C13 1_555 1_555
C7C C2 1_555 1_555
O2C C7C 1_555 1_555
P1C O2C 1_555 1_555
S1C P1C 1_555 1_555
O1C P1C 1_555 1_555
C1C O1C 1_555 1_555
C2C C1C 1_555 1_555
C7B C2C 1_555 1_555
O2B C7B 1_555 1_555
P1B O2B 1_555 1_555
S1B P1B 1_555 1_555
O1B P1B 1_555 1_555
C1B O1B 1_555 1_555
C2B C1B 1_555 1_555
C7A C2B 1_555 1_555
O2A C7A 1_555 1_555
P1A O2A 1_555 1_555
S1A P1A 1_555 1_555
O1A P1A 1_555 1_555
C1A O1A 1_555 1_555
C2A C7 1_555 1_555
C6A C5 1_555 1_555
C4A C6A 1_555 1_555
C3A C1A 1_555 1_555
C5A C3A 1_555 1_555
C6B C7A 1_555 1_555
C4B C6B 1_555 1_555
C3B C1B 1_555 1_555
C5B C3B 1_555 1_555
C6C C7B 1_555 1_555
C4C C6C 1_555 1_555
C3C C1C 1_555 1_555
C5C C6 1_555 1_555
C8C C5C 1_555 1_555
H4C C8C 1_555 1_555
H5C C8C 1_555 1_555
H6C C8C 1_555 1_555
H3C C5C 1_555 1_555
H2C C4C 1_555 1_555
C8B C5B 1_555 1_555
H4B C8B 1_555 1_555
H5B C8B 1_555 1_555
H6B C8B 1_555 1_555
H3B C5B 1_555 1_555
H2B C4B 1_555 1_555
C8A C5A 1_555 1_555
H4A C8A 1_555 1_555
H5A C8A 1_555 1_555
H6A C8A 1_555 1_555
H3A C5A 1_555 1_555
H2A C4A 1_555 1_555
H1A C2A 1_555 1_555
N1A P1A 1_555 1_555
C9A N1A 1_555 1_555
C10A C9A 1_555 1_555
H9A C10A 1_555 1_555
H10A C10A 1_555 1_555
H11A C10A 1_555 1_555
H7A C9A 1_555 1_555
H8A C9A 1_555 1_555
C11A N1A 1_555 1_555
C12A C11A 1_555 1_555
H14A C12A 1_555 1_555
H15A C12A 1_555 1_555
H16A C12A 1_555 1_555
H12A C11A 1_555 1_555
H13A C11A 1_555 1_555
H1B C2B 1_555 1_555
N1B P1B 1_555 1_555
C9B N1B 1_555 1_555
C10B C9B 1_555 1_555
H9B C10B 1_555 1_555
H10B C10B 1_555 1_555
H11B C10B 1_555 1_555
H7B C9B 1_555 1_555
H8B C9B 1_555 1_555
C11B N1B 1_555 1_555
C12B C11B 1_555 1_555
H14B C12B 1_555 1_555
H15B C12B 1_555 1_555
H16B C12B 1_555 1_555
H12B C11B 1_555 1_555
H13B C11B 1_555 1_555
H1C C2C 1_555 1_555
N1C P1C 1_555 1_555
C9C N1C 1_555 1_555
C10C C9C 1_555 1_555
H9C C10C 1_555 1_555
H10C C10C 1_555 1_555
H11C C10C 1_555 1_555
H7C C9C 1_555 1_555
H8C C9C 1_555 1_555
C11C N1C 1_555 1_555
C12C C11C 1_555 1_555
H14C C12C 1_555 1_555
H15C C12C 1_555 1_555
H16C C12C 1_555 1_555
H12C C11C 1_555 1_555
H13C C11C 1_555 1_555
C6 C7C 1_555 1_555
C7 C6A 1_555 1_555
C1A C2A 1_555 1_555
C4A C3A 1_555 1_555
C5A C6B 1_555 1_555
C4B C3B 1_555 1_555
C5B C6C 1_555 1_555
C4C C3C 1_555 1_555
C3C C5C 1_555 1_555

#END
