
#######################################################################
#
#                 Cambridge Crystallographic Data Centre
#                                CCDC 
#
#######################################################################
#
# If this CIF has been generated from an entry in the Cambridge 
# Structural Database, then it will include bibliographic, chemical, 
# crystal, experimental, refinement or atomic coordinate data resulting 
# from the CCDC's data processing and validation procedures.
#
#######################################################################

data_ZARLEM
_chemical_formula_moiety         'C3 H12 N2 2+,2(C4 H3 O4 1-),0.333(H2 O1)'
_chemical_name_systematic        
'propane-1,3-diammonium bis(hydrogen maleate) hydrate'
_symmetry_cell_setting           monoclinic
_symmetry_space_group_name_H-M   'P 21/c'
_symmetry_Int_Tables_number      14
_space_group_name_Hall           '-P 2ybc'
loop_
_symmetry_equiv_pos_site_id
_symmetry_equiv_pos_as_xyz
1 x,y,z
2 -x,1/2+y,1/2-z
3 -x,-y,-z
4 x,1/2-y,1/2+z
_cell_length_a                   14.7571(8)
_cell_length_b                   35.9464(16)
_cell_length_c                   8.2126(5)
_cell_angle_alpha                90
_cell_angle_beta                 97.036(6)
_cell_angle_gamma                90
_cell_volume                     4323.69
_exptl_crystal_colour            colorless
_exptl_crystal_description       block
_cell_formula_units_Z            12
loop_
_atom_site_label
_atom_site_type_symbol
_atom_site_fract_x
_atom_site_fract_y
_atom_site_fract_z
C1 C 0.10229(15) 0.54938(5) 0.1310(3)
C2 C 0.16260(16) 0.52582(6) 0.0436(3)
C3 C 0.16605(16) 0.48900(6) 0.0274(3)
C4 C 0.10774(14) 0.45922(5) 0.0851(3)
O1 O 0.04522(11) 0.53408(4) 0.21720(19)
O2 O 0.10981(11) 0.58365(4) 0.1208(2)
O3 O 0.04920(11) 0.46691(4) 0.1815(2)
O4 O 0.11933(10) 0.42719(4) 0.0346(2)
H1 H 0.048(3) 0.5006(10) 0.207(5)
H2 H 0.2044(17) 0.5413(6) -0.009(3)
H3 H 0.2127(18) 0.4793(7) -0.027(3)
C5 C 0.17945(16) 0.28440(6) 0.2464(3)
C6 C 0.11183(17) 0.25959(6) 0.3107(3)
C7 C 0.10691(17) 0.22280(6) 0.3160(3)
C8 C 0.16773(17) 0.19377(6) 0.2613(3)
O5 O 0.25543(12) 0.27116(5) 0.2101(3)
O6 O 0.16172(12) 0.31728(4) 0.2298(3)
O7 O 0.24434(13) 0.20314(5) 0.2211(3)
O8 O 0.14031(13) 0.16122(4) 0.2606(3)
H4 H 0.253(2) 0.2423(8) 0.206(4)
H5 H 0.0659(19) 0.2731(7) 0.348(3)
H6 H 0.0555(19) 0.2132(7) 0.359(3)
C9 C 0.51381(17) 0.28691(6) 0.0714(3)
C10 C 0.45623(17) 0.25638(6) -0.0072(3)
C11 C 0.47340(17) 0.22010(6) -0.0192(3)
C12 C 0.55521(16) 0.19811(6) 0.0442(3)
O9 O 0.59069(13) 0.27954(5) 0.1519(3)
O10 O 0.48549(13) 0.31886(4) 0.0550(2)
O11 O 0.61730(14) 0.21320(6) 0.1428(3)
O12 O 0.56131(12) 0.16552(4) 0.0034(2)
H7 H 0.605(2) 0.2459(10) 0.146(4)
H8 H 0.3983(16) 0.2652(6) -0.062(3)
H9 H 0.4283(17) 0.2053(6) -0.081(3)
C13 C 0.87161(14) 0.29533(5) 0.9541(3)
C14 C 0.79553(17) 0.27095(6) 0.8848(3)
C15 C 0.78494(17) 0.23427(6) 0.8945(3)
C16 C 0.84575(15) 0.20528(5) 0.9763(3)
O13 O 0.93681(11) 0.28196(4) 1.0515(2)
O14 O 0.86833(11) 0.32864(4) 0.9135(2)
O15 O 0.92173(11) 0.21454(4) 1.0571(2)
O16 O 0.82082(11) 0.17241(4) 0.9617(2)
H10 H 0.928(2) 0.2473(9) 1.065(4)
H11 H 0.7446(19) 0.2862(7) 0.822(3)
H12 H 0.7295(19) 0.2225(7) 0.843(3)
C17 C 0.43008(15) 0.03835(6) 0.3157(3)
C18 C 0.49997(16) 0.01563(6) 0.2457(3)
C19 C 0.50187(16) -0.02056(6) 0.2124(3)
C20 C 0.43576(15) -0.05048(6) 0.2386(3)
O17 O 0.36476(11) 0.02198(5) 0.3783(2)
O18 O 0.43640(11) 0.07232(4) 0.3113(2)
O19 O 0.37139(11) -0.04425(4) 0.3240(2)
O20 O 0.44787(11) -0.08143(4) 0.1768(2)
H13 H 0.366(2) -0.0094(9) 0.362(4)
H14 H 0.549(2) 0.0312(7) 0.217(3)
H15 H 0.5540(18) -0.0294(7) 0.158(3)
C21 C 0.23896(14) 0.03788(5) 0.0317(3)
C22 C 0.17328(15) 0.01210(6) 0.0974(3)
C23 C 0.16670(16) -0.02484(6) 0.0917(3)
C24 C 0.22063(15) -0.05263(6) 0.0100(3)
O21 O 0.29613(12) 0.02522(4) -0.0604(2)
O22 O 0.23783(11) 0.07089(4) 0.0708(2)
O23 O 0.28069(12) -0.04148(4) -0.0799(2)
O24 O 0.20419(12) -0.08603(4) 0.0274(2)
H16 H 0.297(2) -0.0068(8) -0.077(4)
H17 H 0.1317(16) 0.0261(6) 0.153(3)
H18 H 0.1219(17) -0.0376(6) 0.150(3)
C25 C -0.02332(16) 0.37573(7) 0.2658(3)
C26 C 0.05297(16) 0.38363(7) 0.4031(3)
C27 C 0.01969(16) 0.40042(6) 0.5534(3)
N1 N 0.01542(14) 0.36492(5) 0.1142(2)
N2 N -0.03074(14) 0.37327(5) 0.6451(3)
H19 H 0.0439(17) 0.3864(7) 0.074(3)
H20 H -0.0297(17) 0.3553(6) 0.030(3)
H21 H 0.0562(15) 0.3464(6) 0.138(3)
H22 H -0.0577(17) 0.4001(7) 0.240(3)
H23 H -0.0540(17) 0.3548(7) 0.290(3)
H24 H 0.0913(17) 0.4027(7) 0.367(3)
H25 H 0.0842(17) 0.3597(7) 0.431(3)
H26 H -0.0261(15) 0.4208(6) 0.524(3)
H27 H 0.0736(15) 0.4093(6) 0.632(3)
H28 H -0.057(2) 0.3889(8) 0.726(4)
H29 H 0.0101(17) 0.3548(7) 0.693(3)
H30 H -0.077(2) 0.3608(8) 0.572(4)
C28 C 0.29229(19) 0.12828(6) 0.5414(3)
C29 C 0.33125(18) 0.10510(6) 0.6849(3)
C30 C 0.35843(18) 0.12980(6) 0.8311(3)
N3 N 0.26659(15) 0.10570(5) 0.3929(2)
N4 N 0.39995(15) 0.10806(5) 0.9752(2)
H31 H 0.238(2) 0.1226(8) 0.306(4)
H32 H 0.2234(18) 0.0881(7) 0.414(3)
H33 H 0.3112(18) 0.0940(7) 0.367(3)
H34 H 0.2398(17) 0.1421(7) 0.568(3)
H35 H 0.335(2) 0.1473(8) 0.517(3)
H36 H 0.2848(18) 0.0878(7) 0.705(3)
H37 H 0.3844(18) 0.0921(7) 0.656(3)
H38 H 0.4031(18) 0.1481(7) 0.806(3)
H39 H 0.307(2) 0.1439(7) 0.873(3)
H40 H 0.458(2) 0.0954(7) 0.951(3)
H41 H 0.4143(17) 0.1252(7) 1.067(3)
H42 H 0.363(2) 0.0913(8) 0.999(3)
C31 C 0.66019(18) 0.10533(7) 0.2993(3)
C32 C 0.62764(17) 0.12444(7) 0.4440(3)
C33 C 0.70188(17) 0.12859(7) 0.5894(3)
N5 N 0.71750(15) 0.12987(5) 0.2067(3)
N6 N 0.66029(15) 0.14111(6) 0.7359(3)
H43 H 0.684(2) 0.1493(8) 0.153(3)
H44 H 0.746(2) 0.1104(9) 0.113(5)
H45 H 0.7691(17) 0.1413(6) 0.277(3)
H46 H 0.7025(17) 0.0836(7) 0.339(3)
H47 H 0.6051(14) 0.1011(5) 0.202(3)
H48 H 0.5773(19) 0.1065(7) 0.482(3)
H49 H 0.6063(16) 0.1501(7) 0.405(3)
H50 H 0.7466(16) 0.1459(6) 0.566(3)
H51 H 0.7306(16) 0.1027(6) 0.619(3)
H52 H 0.7026(18) 0.1493(7) 0.828(3)
H53 H 0.630(2) 0.1192(8) 0.778(4)
H54 H 0.6217(18) 0.1609(7) 0.707(3)
O25 O 0.39731(15) 0.15995(5) 0.2285(3)
H55 H 0.342(2) 0.1741(9) 0.212(4)
H56 H 0.432(3) 0.1665(11) 0.323(6)
loop_
_geom_bond_atom_site_label_1
_geom_bond_atom_site_label_2
_geom_bond_site_symmetry_1
_geom_bond_site_symmetry_2
C1 C2 1_555 1_555
C2 C3 1_555 1_555
C3 C4 1_555 1_555
C4 O3 1_555 1_555
O1 C1 1_555 1_555
O2 C1 1_555 1_555
O4 C4 1_555 1_555
H1 O1 1_555 1_555
H2 C2 1_555 1_555
H3 C3 1_555 1_555
C5 C6 1_555 1_555
C6 C7 1_555 1_555
C7 C8 1_555 1_555
C8 O7 1_555 1_555
O5 C5 1_555 1_555
O6 C5 1_555 1_555
O8 C8 1_555 1_555
H4 O5 1_555 1_555
H5 C6 1_555 1_555
H6 C7 1_555 1_555
C9 C10 1_555 1_555
C10 C11 1_555 1_555
C11 C12 1_555 1_555
C12 O11 1_555 1_555
O9 C9 1_555 1_555
O10 C9 1_555 1_555
O11 H7 1_555 1_555
O12 C12 1_555 1_555
H8 C10 1_555 1_555
H9 C11 1_555 1_555
C13 C14 1_555 1_555
C14 C15 1_555 1_555
C15 C16 1_555 1_555
C16 O15 1_555 1_555
O13 C13 1_555 1_555
O14 C13 1_555 1_555
O15 H10 1_555 1_555
O16 C16 1_555 1_555
H11 C14 1_555 1_555
H12 C15 1_555 1_555
C17 C18 1_555 1_555
C18 C19 1_555 1_555
C19 C20 1_555 1_555
C20 O19 1_555 1_555
O17 C17 1_555 1_555
O18 C17 1_555 1_555
O20 C20 1_555 1_555
H13 O17 1_555 1_555
H14 C18 1_555 1_555
H15 C19 1_555 1_555
C21 C22 1_555 1_555
C22 C23 1_555 1_555
C23 C24 1_555 1_555
C24 O23 1_555 1_555
O21 C21 1_555 1_555
O22 C21 1_555 1_555
O24 C24 1_555 1_555
H16 O21 1_555 1_555
H17 C22 1_555 1_555
H18 C23 1_555 1_555
C25 C26 1_555 1_555
C26 C27 1_555 1_555
C27 N2 1_555 1_555
N1 C25 1_555 1_555
N2 H28 1_555 1_555
H19 N1 1_555 1_555
H20 N1 1_555 1_555
H21 N1 1_555 1_555
H22 C25 1_555 1_555
H23 C25 1_555 1_555
H24 C26 1_555 1_555
H25 C26 1_555 1_555
H26 C27 1_555 1_555
H27 C27 1_555 1_555
H29 N2 1_555 1_555
H30 N2 1_555 1_555
C28 C29 1_555 1_555
C29 C30 1_555 1_555
C30 N4 1_555 1_555
N3 C28 1_555 1_555
N4 H40 1_555 1_555
H31 N3 1_555 1_555
H32 N3 1_555 1_555
H33 N3 1_555 1_555
H34 C28 1_555 1_555
H35 C28 1_555 1_555
H36 C29 1_555 1_555
H37 C29 1_555 1_555
H38 C30 1_555 1_555
H39 C30 1_555 1_555
H41 N4 1_555 1_555
H42 N4 1_555 1_555
C31 C32 1_555 1_555
C32 C33 1_555 1_555
C33 N6 1_555 1_555
N5 C31 1_555 1_555
N6 H52 1_555 1_555
H43 N5 1_555 1_555
H44 N5 1_555 1_555
H45 N5 1_555 1_555
H46 C31 1_555 1_555
H47 C31 1_555 1_555
H48 C32 1_555 1_555
H49 C32 1_555 1_555
H50 C33 1_555 1_555
H51 C33 1_555 1_555
H53 N6 1_555 1_555
H54 N6 1_555 1_555
O25 H55 1_555 1_555
H56 O25 1_555 1_555

#END
