
#######################################################################
#
#                 Cambridge Crystallographic Data Centre
#                                CCDC 
#
#######################################################################
#
# If this CIF has been generated from an entry in the Cambridge 
# Structural Database, then it will include bibliographic, chemical, 
# crystal, experimental, refinement or atomic coordinate data resulting 
# from the CCDC's data processing and validation procedures.
#
#######################################################################

data_ZARQAN
_chemical_formula_moiety         'C21 H21 F2 N3 O4 S1'
_chemical_name_systematic        
'((3S,5R)-5-(2,4-Difluorophenyl)-5-[(1H-1,2,4-triazol-1-yl)methyl]tetrahydrofuran-3-yl)methyl 4-methylbenzenesulfonate'
_symmetry_cell_setting           monoclinic
_symmetry_space_group_name_H-M   'P 21'
_symmetry_Int_Tables_number      4
_space_group_name_Hall           'P 2yb'
loop_
_symmetry_equiv_pos_site_id
_symmetry_equiv_pos_as_xyz
1 x,y,z
2 -x,1/2+y,-z
_cell_length_a                   5.93718(11)
_cell_length_b                   16.9484(3)
_cell_length_c                   10.8841(2)
_cell_angle_alpha                90
_cell_angle_beta                 103.7973(19)
_cell_angle_gamma                90
_cell_volume                     1063.62
_exptl_crystal_colour            colorless
_cell_formula_units_Z            2
loop_
_atom_site_label
_atom_site_type_symbol
_atom_site_fract_x
_atom_site_fract_y
_atom_site_fract_z
S1 S 0.56836(9) 0.48540(3) 0.07225(5)
O1 O 0.7081(2) 0.48578(12) 0.21565(13)
O2 O 0.6463(4) 0.54834(10) 0.00697(17)
F1 F 0.8681(3) 0.51345(9) 0.72967(13)
O3 O 1.4023(2) 0.51967(10) 0.52970(13)
O4 O 0.3339(3) 0.48282(15) 0.08029(18)
N1 N 1.3532(3) 0.36806(11) 0.65236(18)
C1 C 1.1446(4) 0.58104(14) 0.64476(18)
F2 F 0.9096(5) 0.78712(12) 0.7749(2)
C2 C 0.6451(4) 0.39536(13) 0.01338(19)
C3 C 0.8229(4) 0.39399(13) -0.0472(2)
H1 H 0.9019 0.4400 -0.0572
N2 N 1.1927(5) 0.31089(14) 0.6471(3)
C4 C 0.9697(4) 0.58272(15) 0.7095(2)
C5 C 0.8825(4) 0.32311(15) -0.0929(2)
H2 H 1.0031 0.3216 -0.1339
C6 C 0.9917(6) 0.71952(18) 0.7334(3)
C7 C 1.0182(3) 0.47417(13) 0.48126(17)
H3 H 1.0341 0.4181 0.4673
H4 H 0.8675 0.4842 0.4982
C8 C 1.0532(4) 0.52271(13) 0.36911(18)
H5 H 0.9879 0.5756 0.3721
C9 C 0.9601(3) 0.48732(16) 0.23982(17)
H6 H 1.0079 0.5188 0.1761
H7 H 1.0196 0.4342 0.2369
C10 C 1.2160(3) 0.50486(12) 0.58950(18)
C11 C 0.7658(5) 0.25394(15) -0.0789(3)
C12 C 0.8899(5) 0.64998(19) 0.7559(3)
H8 H 0.7736 0.6484 0.7999
N3 N 1.4914(6) 0.26643(17) 0.5730(3)
C13 C 1.1656(6) 0.72282(16) 0.6729(3)
H9 H 1.2329 0.7709 0.6612
C14 C 1.2428(5) 0.65347(16) 0.6283(2)
H10 H 1.3624 0.6556 0.5867
C15 C 1.3139(4) 0.44595(14) 0.6970(2)
H11 H 1.4593 0.4663 0.7476
H12 H 1.2065 0.4420 0.7513
C16 C 0.5868(6) 0.25747(16) -0.0185(3)
H13 H 0.5060 0.2117 -0.0095
C17 C 1.5278(5) 0.33992(18) 0.6096(3)
H14 H 1.6595 0.3686 0.6060
C18 C 0.5253(5) 0.32757(17) 0.0289(3)
H15 H 0.4056 0.3292 0.0705
C19 C 1.3187(4) 0.5280(2) 0.3973(2)
H16 H 1.3800 0.4864 0.3534
H17 H 1.3657 0.5785 0.3696
C20 C 1.2873(7) 0.25194(18) 0.5978(3)
H18 H 1.2149 0.2031 0.5813
C21 C 0.8364(7) 0.1771(2) -0.1289(4)
H19 H 0.9298 0.1877 -0.1879
H20 H 0.7003 0.1484 -0.1706
H21 H 0.9242 0.1463 -0.0599
loop_
_geom_bond_atom_site_label_1
_geom_bond_atom_site_label_2
_geom_bond_site_symmetry_1
_geom_bond_site_symmetry_2
S1 O1 1_555 1_555
O1 C9 1_555 1_555
O2 S1 1_555 1_555
F1 C4 1_555 1_555
O3 C10 1_555 1_555
O4 S1 1_555 1_555
N1 N2 1_555 1_555
C1 C4 1_555 1_555
F2 C6 1_555 1_555
C2 S1 1_555 1_555
C3 C2 1_555 1_555
H1 C3 1_555 1_555
N2 C20 1_555 1_555
C4 C12 1_555 1_555
C5 C3 1_555 1_555
H2 C5 1_555 1_555
C6 C12 1_555 1_555
C7 H3 1_555 1_555
H4 C7 1_555 1_555
C8 C7 1_555 1_555
H5 C8 1_555 1_555
C9 C8 1_555 1_555
H6 C9 1_555 1_555
H7 C9 1_555 1_555
C10 C1 1_555 1_555
C11 C5 1_555 1_555
C12 H8 1_555 1_555
N3 C17 1_555 1_555
C13 C6 1_555 1_555
H9 C13 1_555 1_555
C14 C1 1_555 1_555
H10 C14 1_555 1_555
C15 N1 1_555 1_555
H11 C15 1_555 1_555
H12 C15 1_555 1_555
C16 C11 1_555 1_555
H13 C16 1_555 1_555
C17 N1 1_555 1_555
H14 C17 1_555 1_555
C18 C2 1_555 1_555
H15 C18 1_555 1_555
C19 O3 1_555 1_555
H16 C19 1_555 1_555
H17 C19 1_555 1_555
C20 N3 1_555 1_555
H18 C20 1_555 1_555
C21 C11 1_555 1_555
H19 C21 1_555 1_555
H20 C21 1_555 1_555
H21 C21 1_555 1_555
C7 C10 1_555 1_555
C8 C19 1_555 1_555
C10 C15 1_555 1_555
C13 C14 1_555 1_555
C16 C18 1_555 1_555

#END
