
#######################################################################
#
#                 Cambridge Crystallographic Data Centre
#                                CCDC 
#
#######################################################################
#
# If this CIF has been generated from an entry in the Cambridge 
# Structural Database, then it will include bibliographic, chemical, 
# crystal, experimental, refinement or atomic coordinate data resulting 
# from the CCDC's data processing and validation procedures.
#
#######################################################################

data_ZARSOD
_chemical_formula_moiety         'C27 H28 N2 O4 S1'
_chemical_name_systematic        
't-butyl 11-methyl-8,8-dioxo-6a,8,13,14-tetrahydro-7,14-methano-8-benzo[c]indolo[4,3-ij][2,1]benzothiazonine-4(6H)-carboxylate'
_symmetry_cell_setting           triclinic
_symmetry_space_group_name_H-M   'P -1'
_symmetry_Int_Tables_number      2
_space_group_name_Hall           '-P 1'
loop_
_symmetry_equiv_pos_site_id
_symmetry_equiv_pos_as_xyz
1 x,y,z
2 -x,-y,-z
_cell_length_a                   9.7966(6)
_cell_length_b                   10.1428(7)
_cell_length_c                   13.7518(10)
_cell_angle_alpha                106.645(6)
_cell_angle_beta                 99.595(6)
_cell_angle_gamma                109.141(6)
_cell_volume                     1184.44
_cell_formula_units_Z            2
loop_
_atom_site_label
_atom_site_type_symbol
_atom_site_fract_x
_atom_site_fract_y
_atom_site_fract_z
H1 H 0.2988 0.2226 0.7585
H2 H -0.0131 0.1403 0.6559
H3 H 0.1004 0.3016 0.7424
H4 H 0.0917 0.4345 0.5801
H5 H 0.3569 0.2193 0.3417
H6 H 0.4028 0.0118 0.3581
H7 H 0.3391 -0.0829 0.4860
H8 H 0.2544 -0.1664 0.6075
H9 H 0.1075 -0.2601 0.7137
H10 H -0.0228 -0.1095 0.7250
H11 H 0.0488 -0.0911 0.8441
H12 H 0.2690 -0.1323 0.8957
H13 H 0.3436 -0.2019 0.8111
H14 H 0.5888 -0.0649 0.8375
H15 H 0.7928 0.3828 0.9845
H16 H 0.5617 0.3938 0.9944
H17 H 0.9411 0.2522 0.9293
H18 H 0.8539 0.1084 0.8222
H19 H 0.8849 0.0876 0.9337
H20 H 0.5220 0.5013 0.2859
H21 H 0.4468 0.4989 0.1725
H22 H 0.3944 0.3491 0.1985
H23 H 0.2783 0.6925 0.3409
H24 H 0.3915 0.7137 0.2697
H25 H 0.4467 0.7065 0.3836
H26 H 0.1275 0.3184 0.1566
H27 H 0.1676 0.4666 0.1285
H28 H 0.0815 0.4504 0.2164
C1 C 0.1950(3) 0.1416(4) 0.7250(3)
C2 C 0.0933(4) 0.2134(4) 0.6839(3)
C3 C 0.1444(4) 0.2606(4) 0.5979(3)
C4 C 0.1368(4) 0.3659(4) 0.5570(3)
C5 C 0.2588(4) 0.2416(4) 0.4636(3)
C6 C 0.3291(4) 0.1801(4) 0.3938(3)
C7 C 0.3563(4) 0.0577(4) 0.4048(3)
C8 C 0.3179(4) 0.0004(4) 0.4815(3)
C9 C 0.2498(4) 0.0618(4) 0.5512(3)
C10 C 0.2191(3) 0.1825(4) 0.5392(3)
C11 C 0.2072(5) 0.0171(4) 0.6386(3)
C12 C 0.2176(4) -0.1066(4) 0.6538(3)
C13 C 0.1713(4) -0.1500(4) 0.7435(3)
C14 C 0.0731(4) -0.0701(4) 0.7816(3)
C15 C 0.3069(4) -0.1215(4) 0.8348(3)
C16 C 0.4413(4) 0.0279(4) 0.8748(3)
C17 C 0.5822(4) 0.0284(4) 0.8693(3)
C18 C 0.7137(4) 0.1582(5) 0.9080(3)
C19 C 0.7039(4) 0.2930(4) 0.9557(3)
C20 C 0.5670(4) 0.2999(4) 0.9624(3)
C21 C 0.4370(3) 0.1685(4) 0.9219(2)
C22 C 0.8612(4) 0.1510(5) 0.8974(3)
C23 C 0.2119(4) 0.4492(4) 0.4157(3)
C24 C 0.3077(4) 0.4989(4) 0.2700(3)
C25 C 0.4285(5) 0.4585(5) 0.2280(3)
C26 C 0.3608(4) 0.6679(4) 0.3205(3)
C27 C 0.1579(4) 0.4273(5) 0.1855(3)
N1 N 0.1476(3) 0.0919(3) 0.8100(2)
N2 N 0.2065(3) 0.3575(3) 0.4747(2)
O1 O 0.2052(2) 0.1175(3) 0.99792(19)
O2 O 0.2913(3) 0.3413(3) 0.95058(19)
O3 O 0.1470(3) 0.5327(3) 0.4256(2)
O4 O 0.2938(3) 0.4277(3) 0.35043(19)
S1 S 0.26511(9) 0.18721(9) 0.92862(6)
H29? H 0.0966 -0.0330 0.6013
loop_
_geom_bond_atom_site_label_1
_geom_bond_atom_site_label_2
_geom_bond_site_symmetry_1
_geom_bond_site_symmetry_2
H1 C1 1_555 1_555
H2 C2 1_555 1_555
H3 C2 1_555 1_555
H4 C4 1_555 1_555
H5 C6 1_555 1_555
H6 C7 1_555 1_555
H7 C8 1_555 1_555
H8 C12 1_555 1_555
H9 C13 1_555 1_555
H10 C14 1_555 1_555
H11 C14 1_555 1_555
H12 C15 1_555 1_555
H13 C15 1_555 1_555
H14 C17 1_555 1_555
H15 C19 1_555 1_555
H16 C20 1_555 1_555
H17 C22 1_555 1_555
H18 C22 1_555 1_555
H19 C22 1_555 1_555
H20 C25 1_555 1_555
H21 C25 1_555 1_555
H22 C25 1_555 1_555
H23 C26 1_555 1_555
H24 C26 1_555 1_555
H25 C26 1_555 1_555
H26 C27 1_555 1_555
H27 C27 1_555 1_555
H28 C27 1_555 1_555
C1 C2 1_555 1_555
C2 C3 1_555 1_555
C3 C4 1_555 1_555
C4 N2 1_555 1_555
C5 C6 1_555 1_555
C6 C7 1_555 1_555
C7 C8 1_555 1_555
C8 C9 1_555 1_555
C9 C10 1_555 1_555
C10 C3 1_555 1_555
C11 C1 1_555 1_555
C12 C11 1_555 1_555
C13 C12 1_555 1_555
C14 C13 1_555 1_555
C15 C13 1_555 1_555
C16 C15 1_555 1_555
C17 C16 1_555 1_555
C18 C17 1_555 1_555
C19 C18 1_555 1_555
C20 C19 1_555 1_555
C21 C16 1_555 1_555
C22 C18 1_555 1_555
C23 N2 1_555 1_555
C24 C25 1_555 1_555
C26 C24 1_555 1_555
C27 C24 1_555 1_555
N1 C1 1_555 1_555
N2 C5 1_555 1_555
O1 S1 1_555 1_555
O2 S1 1_555 1_555
O3 C23 1_555 1_555
O4 C23 1_555 1_555
S1 C21 1_555 1_555
C5 C10 1_555 1_555
C9 C11 1_555 1_555
C14 N1 1_555 1_555
C20 C21 1_555 1_555
C24 O4 1_555 1_555
N1 S1 1_555 1_555

#END
