
#######################################################################
#
#                 Cambridge Crystallographic Data Centre
#                                CCDC 
#
#######################################################################
#
# If this CIF has been generated from an entry in the Cambridge 
# Structural Database, then it will include bibliographic, chemical, 
# crystal, experimental, refinement or atomic coordinate data resulting 
# from the CCDC's data processing and validation procedures.
#
#######################################################################

data_ZARVOG01
_chemical_formula_moiety         'C15 H26 N4 2+,C1 H4 O1,H2 O1,2(Cl1 1-)'
_chemical_name_systematic        
"1,1'-methylenebis(2,3,4,5-tetramethyl-1H-imidazol-3-ium) dichloride methanol solvate monohydrate"
_symmetry_cell_setting           triclinic
_symmetry_space_group_name_H-M   'P -1'
_symmetry_Int_Tables_number      2
_space_group_name_Hall           '-P 1'
loop_
_symmetry_equiv_pos_site_id
_symmetry_equiv_pos_as_xyz
1 x,y,z
2 -x,-y,-z
_cell_length_a                   8.5800(17)
_cell_length_b                   9.3570(19)
_cell_length_c                   12.804(3)
_cell_angle_alpha                85.12(3)
_cell_angle_beta                 84.40(3)
_cell_angle_gamma                89.87(3)
_cell_volume                     1019.31
_cell_formula_units_Z            2
loop_
_atom_site_label
_atom_site_type_symbol
_atom_site_fract_x
_atom_site_fract_y
_atom_site_fract_z
N1 N -0.0316(7) 0.6788(7) 0.1957(5)
N2 N -0.1893(7) 0.8425(7) 0.2483(5)
N3 N 0.1086(7) 0.4574(6) 0.2275(5)
N4 N 0.2893(7) 0.3336(7) 0.2996(5)
C1 C -0.1838(8) 0.7172(8) 0.2089(5)
C2 C -0.0380(9) 0.8882(8) 0.2615(6)
C3 C 0.0608(8) 0.7865(8) 0.2270(5)
C4 C -0.3216(9) 0.6368(9) 0.1819(6)
H1 H -0.3972 0.6212 0.2444
H2 H -0.2875 0.5440 0.1580
H3 H -0.3709 0.6922 0.1257
C5 C -0.3316(9) 0.9267(8) 0.2728(6)
H4 H -0.3457 0.9972 0.2134
H5 H -0.3209 0.9765 0.3360
H6 H -0.4227 0.8623 0.2852
C6 C -0.0065(10) 1.0283(9) 0.3023(6)
H7 H 0.1015 1.0304 0.3210
H8 H -0.0789 1.0408 0.3649
H9 H -0.0212 1.1061 0.2479
C7 C 0.2340(9) 0.7804(9) 0.2199(6)
H10 H 0.2749 0.8668 0.2461
H11 H 0.2756 0.7749 0.1463
H12 H 0.2663 0.6955 0.2625
C8 C 0.2582(8) 0.4137(8) 0.2128(5)
C9 C 0.1593(9) 0.3296(8) 0.3718(6)
C10 C 0.0405(9) 0.4011(8) 0.3269(5)
C11 C 0.3643(9) 0.4470(9) 0.1139(6)
H13 H 0.4646 0.3984 0.1204
H14 H 0.3820 0.5508 0.1024
H15 H 0.3159 0.4135 0.0541
C12 C 0.4408(9) 0.2670(9) 0.3209(6)
H16 H 0.5093 0.2676 0.2550
H17 H 0.4229 0.1679 0.3510
H18 H 0.4906 0.3215 0.3708
C13 C 0.1590(10) 0.2514(9) 0.4791(6)
H19 H 0.0553 0.2586 0.5176
H20 H 0.2375 0.2943 0.5178
H21 H 0.1841 0.1503 0.4720
C14 C -0.1238(9) 0.4163(8) 0.3649(6)
H22 H -0.1466 0.3571 0.4316
H23 H -0.1898 0.3851 0.3127
H24 H -0.1455 0.5171 0.3761
C15 C 0.0268(9) 0.5474(8) 0.1516(5)
H25 H -0.0621 0.4929 0.1307
H26 H 0.0992 0.5729 0.0877
Cl1 Cl 0.7579(2) 0.26923(19) 0.08703(13)
Cl2 Cl 0.6641(4) 0.0892(3) 0.5265(2)
O2 O 0.4416(4) 0.6087(3) 0.4206(3)
O4 O 0.1137(8) 0.2450(8) 0.0346(6)
H31 H 0.0156 0.2500 0.0372
C17 C 0.161(3) 0.098(2) 0.0264(17)
H32 H 0.2467 0.0758 0.0708
H33 H 0.1978 0.0841 -0.0470
H34 H 0.0724 0.0337 0.0499
O4A O 0.8863(8) -0.2450(8) -0.0346(6)
H31A H 0.9844 -0.2500 -0.0372
C17A C 0.839(3) -0.098(2) -0.0264(17)
H32A H 0.7533 -0.0758 -0.0708
H33A H 0.8022 -0.0841 0.0470
H34A H 0.9276 -0.0337 -0.0499
O1? O 0.6641(4) 0.0892(3) 0.5265(2)
Cl3? Cl 0.4416(4) 0.6087(3) 0.4206(3)
O3? O 0.287(3) 0.021(2) -0.0041(17)
H27? H 0.2652 -0.0485 -0.0374
C16? C 0.442(4) 0.021(4) 0.009(3)
H28? H 0.4747 0.1169 0.0227
H29? H 0.5013 -0.0075 -0.0554
H30? H 0.4614 -0.0477 0.0683
loop_
_geom_bond_atom_site_label_1
_geom_bond_atom_site_label_2
_geom_bond_site_symmetry_1
_geom_bond_site_symmetry_2
N1 C1 1_555 1_555
N2 C1 1_555 1_555
N3 C8 1_555 1_555
N4 C8 1_555 1_555
C1 C4 1_555 1_555
C2 N2 1_555 1_555
C3 N1 1_555 1_555
C4 H1 1_555 1_555
H2 C4 1_555 1_555
H3 C4 1_555 1_555
C5 N2 1_555 1_555
H4 C5 1_555 1_555
H5 C5 1_555 1_555
H6 C5 1_555 1_555
C6 C2 1_555 1_555
H7 C6 1_555 1_555
H8 C6 1_555 1_555
H9 C6 1_555 1_555
C7 C3 1_555 1_555
H10 C7 1_555 1_555
H11 C7 1_555 1_555
H12 C7 1_555 1_555
C8 C11 1_555 1_555
C9 N4 1_555 1_555
C10 N3 1_555 1_555
C11 H13 1_555 1_555
H14 C11 1_555 1_555
H15 C11 1_555 1_555
C12 N4 1_555 1_555
H16 C12 1_555 1_555
H17 C12 1_555 1_555
H18 C12 1_555 1_555
C13 C9 1_555 1_555
H19 C13 1_555 1_555
H20 C13 1_555 1_555
H21 C13 1_555 1_555
C14 C10 1_555 1_555
H22 C14 1_555 1_555
H23 C14 1_555 1_555
H24 C14 1_555 1_555
C15 N1 1_555 1_555
H25 C15 1_555 1_555
H26 C15 1_555 1_555
O4 H31 1_555 1_555
C17 O4 1_555 1_555
H32 C17 1_555 1_555
H33 C17 1_555 1_555
H34 C17 1_555 1_555
O4A H31A 1_555 1_555
C17A O4A 1_555 1_555
H32A C17A 1_555 1_555
H33A C17A 1_555 1_555
H34A C17A 1_555 1_555
N3 C15 1_555 1_555
C2 C3 1_555 1_555
C9 C10 1_555 1_555

#END
