
#######################################################################
#
#                 Cambridge Crystallographic Data Centre
#                                CCDC 
#
#######################################################################
#
# If this CIF has been generated from an entry in the Cambridge 
# Structural Database, then it will include bibliographic, chemical, 
# crystal, experimental, refinement or atomic coordinate data resulting 
# from the CCDC's data processing and validation procedures.
#
#######################################################################

data_ZARWEW
_chemical_formula_moiety         'C28 H31 N1 O8'
_chemical_name_systematic        
'2,2-Diethyl 4-methyl 1-acetyl-5-benzyl-3-(4-methoxyphenyl)-1,3-dihydro-2H-pyrrole-2,2,4-tricarboxylate'
_symmetry_cell_setting           triclinic
_symmetry_space_group_name_H-M   'P -1'
_symmetry_Int_Tables_number      2
_space_group_name_Hall           '-P 1'
loop_
_symmetry_equiv_pos_site_id
_symmetry_equiv_pos_as_xyz
1 x,y,z
2 -x,-y,-z
_cell_length_a                   9.0165(7)
_cell_length_b                   9.2153(7)
_cell_length_c                   16.4934(12)
_cell_angle_alpha                87.978(2)
_cell_angle_beta                 83.172(2)
_cell_angle_gamma                72.281(2)
_cell_volume                     1296.16
_exptl_crystal_colour            colorless
_exptl_crystal_description       block
_cell_formula_units_Z            2
loop_
_atom_site_label
_atom_site_type_symbol
_atom_site_fract_x
_atom_site_fract_y
_atom_site_fract_z
N1 N 0.5746(2) 1.0190(2) 0.26109(12)
C1 C 0.8202(3) 0.4647(3) 0.45310(17)
C2 C 0.9268(3) 0.4441(3) 0.38443(18)
H1 H 1.0210 0.3658 0.3829
C3 C 0.8958(3) 0.5380(3) 0.31786(17)
H2 H 0.9696 0.5223 0.2720
C4 C 0.7565(3) 0.6558(2) 0.31784(15)
C5 C 0.6510(3) 0.6742(3) 0.38675(17)
H3 H 0.5561 0.7513 0.3879
C6 C 0.6814(3) 0.5818(3) 0.45452(17)
H4 H 0.6086 0.5986 0.5008
C7 C 0.2655(3) 1.1273(3) 0.16495(17)
C8 C 0.3617(4) 1.1223(4) 0.0945(2)
H5 H 0.4594 1.0489 0.0881
C9 C 0.3165(5) 1.2252(5) 0.0316(2)
H6 H 0.3841 1.2204 -0.0162
C10 C 0.1746(6) 1.3322(4) 0.0397(3)
H7 H 0.1439 1.4006 -0.0024
C11 C 0.0780(5) 1.3388(4) 0.1093(3)
H8 H -0.0195 1.4125 0.1154
C12 C 0.1229(4) 1.2373(4) 0.1715(2)
H9 H 0.0547 1.2435 0.2191
C13 C 0.7383(3) 0.9213(3) 0.24675(15)
C14 C 0.4742(3) 0.9382(3) 0.24028(14)
C15 C 0.5551(3) 0.7921(3) 0.22564(15)
C16 C 0.7229(3) 0.7558(3) 0.24317(15)
H10 H 0.7916 0.7026 0.1958
C17 C 0.5079(3) 0.6661(3) 0.19656(17)
C18 C 0.3013(5) 0.5664(4) 0.1789(3)
H11 H 0.1891 0.5944 0.1891
H12 H 0.3464 0.4740 0.2077
H13 H 0.3328 0.5508 0.1214
C19 C 0.3029(3) 1.0138(3) 0.23334(17)
H14 H 0.2549 1.0655 0.2845
H15 H 0.2544 0.9352 0.2264
C20 C 0.8220(3) 0.9499(3) 0.16337(17)
C21 C 0.8252(5) 1.1154(4) 0.0517(2)
H16 H 0.9314 1.1158 0.0561
H17 H 0.8292 1.0382 0.0124
C22 C 0.7320(7) 1.2641(6) 0.0255(3)
H18 H 0.7780 1.2883 -0.0267
H19 H 0.7293 1.3397 0.0647
H20 H 0.6273 1.2625 0.0213
C23 C 0.8390(3) 0.9295(3) 0.31368(16)
C24 C 0.8385(4) 0.9642(4) 0.4542(2)
H21 H 0.9146 0.8658 0.4614
H22 H 0.8939 1.0395 0.4444
C25 C 0.7271(5) 1.0039(6) 0.5263(2)
H23 H 0.7812 1.0085 0.5725
H24 H 0.6736 0.9283 0.5359
H25 H 0.6523 1.1015 0.5186
C26 C 0.5266(3) 1.1673(3) 0.29106(16)
C27 C 0.6457(4) 1.2504(3) 0.2938(2)
H26 H 0.5947 1.3507 0.3159
H27 H 0.6948 1.2583 0.2396
H28 H 0.7236 1.1955 0.3278
C28 C 0.7621(4) 0.3931(4) 0.59107(19)
H29 H 0.8043 0.3155 0.6297
H30 H 0.6591 0.3917 0.5825
H31 H 0.7561 0.4910 0.6119
O1 O 0.6017(3) 0.5530(2) 0.16750(16)
O2 O 0.3545(2) 0.6863(2) 0.20674(15)
O3 O 0.9772(2) 0.9069(3) 0.30198(14)
O4 O 0.7535(2) 0.9589(2) 0.38532(11)
O5 O 0.9368(3) 0.8601(3) 0.13096(14)
O6 O 0.7511(2) 1.0822(2) 0.13187(13)
O7 O 0.3899(3) 1.2308(2) 0.31284(15)
O8 O 0.8606(2) 0.3655(2) 0.51595(12)
loop_
_geom_bond_atom_site_label_1
_geom_bond_atom_site_label_2
_geom_bond_site_symmetry_1
_geom_bond_site_symmetry_2
N1 C13 1_555 1_555
C1 C2 1_555 1_555
C2 H1 1_555 1_555
C3 C2 1_555 1_555
H2 C3 1_555 1_555
C4 C3 1_555 1_555
C5 C4 1_555 1_555
H3 C5 1_555 1_555
C6 C1 1_555 1_555
H4 C6 1_555 1_555
C7 C8 1_555 1_555
C8 H5 1_555 1_555
C9 C8 1_555 1_555
H6 C9 1_555 1_555
C10 C9 1_555 1_555
H7 C10 1_555 1_555
C11 C10 1_555 1_555
H8 C11 1_555 1_555
C12 C7 1_555 1_555
H9 C12 1_555 1_555
C13 C16 1_555 1_555
C14 N1 1_555 1_555
C15 C14 1_555 1_555
C16 C4 1_555 1_555
H10 C16 1_555 1_555
C17 C15 1_555 1_555
C18 H11 1_555 1_555
H12 C18 1_555 1_555
H13 C18 1_555 1_555
C19 C7 1_555 1_555
H14 C19 1_555 1_555
H15 C19 1_555 1_555
C20 C13 1_555 1_555
C21 H16 1_555 1_555
H17 C21 1_555 1_555
C22 C21 1_555 1_555
H18 C22 1_555 1_555
H19 C22 1_555 1_555
H20 C22 1_555 1_555
C23 C13 1_555 1_555
C24 H21 1_555 1_555
H22 C24 1_555 1_555
C25 C24 1_555 1_555
H23 C25 1_555 1_555
H24 C25 1_555 1_555
H25 C25 1_555 1_555
C26 N1 1_555 1_555
C27 C26 1_555 1_555
H26 C27 1_555 1_555
H27 C27 1_555 1_555
H28 C27 1_555 1_555
C28 H29 1_555 1_555
H30 C28 1_555 1_555
H31 C28 1_555 1_555
O1 C17 1_555 1_555
O2 C17 1_555 1_555
O3 C23 1_555 1_555
O4 C23 1_555 1_555
O5 C20 1_555 1_555
O6 C20 1_555 1_555
O7 C26 1_555 1_555
O8 C1 1_555 1_555
C5 C6 1_555 1_555
C11 C12 1_555 1_555
C14 C19 1_555 1_555
C15 C16 1_555 1_555
C18 O2 1_555 1_555
C21 O6 1_555 1_555
C24 O4 1_555 1_555
C28 O8 1_555 1_555

#END
