
#######################################################################
#
#                 Cambridge Crystallographic Data Centre
#                                CCDC 
#
#######################################################################
#
# If this CIF has been generated from an entry in the Cambridge 
# Structural Database, then it will include bibliographic, chemical, 
# crystal, experimental, refinement or atomic coordinate data resulting 
# from the CCDC's data processing and validation procedures.
#
#######################################################################

data_ZASDOP
_chemical_formula_moiety         'C15 H26 N4 2+,C3 H7 N1 O1,2(H2 O4 P1 1-)'
_chemical_name_systematic        
"1,1'-methylenebis(2,3,4,5-tetramethyl-1H-imidazol-3-ium) dihydrogen phosphate N,N-dimethylformamide solvate"
_symmetry_cell_setting           monoclinic
_symmetry_space_group_name_H-M   'P 21/c'
_symmetry_Int_Tables_number      14
_space_group_name_Hall           '-P 2ybc'
loop_
_symmetry_equiv_pos_site_id
_symmetry_equiv_pos_as_xyz
1 x,y,z
2 -x,1/2+y,1/2-z
3 -x,-y,-z
4 x,1/2-y,1/2+z
_cell_length_a                   17.533(4)
_cell_length_b                   33.001(7)
_cell_length_c                   8.5190(17)
_cell_angle_alpha                90
_cell_angle_beta                 92.77(3)
_cell_angle_gamma                90
_cell_volume                     4923.39
_exptl_crystal_colour            colorless
_exptl_crystal_description       needle
_cell_formula_units_Z            8
loop_
_atom_site_label
_atom_site_type_symbol
_atom_site_fract_x
_atom_site_fract_y
_atom_site_fract_z
N1 N -0.0552(2) 0.40912(12) 0.3627(5)
N2 N -0.1272(2) 0.38998(13) 0.5455(5)
N3 N 0.0585(2) 0.40258(12) 0.2227(5)
N4 N 0.1368(2) 0.37586(13) 0.0667(5)
C1 C -0.0739(3) 0.41681(16) 0.5108(7)
C2 C -0.1447(3) 0.36559(16) 0.4154(7)
C3 C -0.1011(3) 0.37787(16) 0.2994(6)
C4 C -0.0452(3) 0.45043(16) 0.6094(7)
H1 H 0.0108 0.4499 0.6156
H2 H -0.0642 0.4477 0.7152
H3 H -0.0629 0.4762 0.5634
C5 C -0.1637(3) 0.38691(17) 0.6961(7)
H4 H -0.1248 0.3892 0.7822
H5 H -0.1895 0.3607 0.7026
H6 H -0.2011 0.4088 0.7042
C6 C -0.2037(3) 0.33282(17) 0.4168(8)
H7 H -0.2100 0.3208 0.3118
H8 H -0.2525 0.3443 0.4467
H9 H -0.1873 0.3119 0.4927
C7 C -0.0993(3) 0.36492(18) 0.1325(7)
H10 H -0.1389 0.3445 0.1105
H11 H -0.0491 0.3533 0.1132
H12 H -0.1086 0.3884 0.0638
C8 C 0.0817(3) 0.40349(16) 0.0769(6)
C9 C 0.1500(3) 0.35713(16) 0.2116(7)
C10 C 0.1009(3) 0.37374(16) 0.3108(7)
C11 C 0.0534(3) 0.42910(18) -0.0545(7)
H13 H 0.0137 0.4473 -0.0185
H14 H 0.0320 0.4119 -0.1395
H15 H 0.0957 0.4451 -0.0930
C12 C 0.1799(3) 0.36923(18) -0.0748(7)
H16 H 0.1442 0.3645 -0.1650
H17 H 0.2132 0.3456 -0.0591
H18 H 0.2110 0.3932 -0.0946
C13 C 0.2080(3) 0.32467(17) 0.2368(7)
H19 H 0.2069 0.3147 0.3450
H20 H 0.2588 0.3356 0.2185
H21 H 0.1967 0.3023 0.1636
C14 C 0.0942(3) 0.36733(17) 0.4821(6)
H22 H 0.1338 0.3484 0.5209
H23 H 0.0437 0.3561 0.5014
H24 H 0.1005 0.3933 0.5372
C15 C 0.0029(3) 0.43093(16) 0.2824(6)
H25 H 0.0291 0.4502 0.3559
H26 H -0.0211 0.4466 0.1940
N5 N 0.5456(2) 0.65347(12) 0.6176(5)
N6 N 0.6245(2) 0.62829(13) 0.4572(6)
N7 N 0.4355(2) 0.65738(12) 0.7705(5)
N8 N 0.3672(2) 0.64080(14) 0.9625(5)
C16 C 0.5675(3) 0.65433(16) 0.4670(6)
C17 C 0.6419(3) 0.61087(16) 0.6039(7)
C18 C 0.5938(3) 0.62684(15) 0.7048(7)
C19 C 0.5338(3) 0.67873(16) 0.3367(7)
H27 H 0.5290 0.6621 0.2414
H28 H 0.5667 0.7021 0.3181
H29 H 0.4832 0.6883 0.3638
C20 C 0.6651(3) 0.62232(17) 0.3128(7)
H30 H 0.6916 0.6474 0.2866
H31 H 0.6284 0.6152 0.2268
H32 H 0.7023 0.6004 0.3284
C21 C 0.7026(3) 0.57993(16) 0.6260(7)
H33 H 0.7096 0.5733 0.7378
H34 H 0.7506 0.5906 0.5880
H35 H 0.6880 0.5555 0.5667
C22 C 0.5907(3) 0.62091(17) 0.8773(7)
H36 H 0.6300 0.6014 0.9129
H37 H 0.5402 0.6105 0.9018
H38 H 0.5997 0.6469 0.9309
C23 C 0.4173(3) 0.66799(16) 0.9164(6)
C24 C 0.3512(3) 0.61296(16) 0.8439(7)
C25 C 0.3931(3) 0.62318(16) 0.7211(7)
C26 C 0.4470(3) 0.70435(15) 1.0015(7)
H39 H 0.4261 0.7053 1.1061
H40 H 0.4316 0.7288 0.9426
H41 H 0.5028 0.7030 1.0121
C27 C 0.3304(3) 0.64102(19) 1.1136(7)
H42 H 0.2774 0.6502 1.0976
H43 H 0.3580 0.6594 1.1864
H44 H 0.3312 0.6136 1.1577
C28 C 0.2968(3) 0.57909(18) 0.8612(8)
H45 H 0.2877 0.5656 0.7596
H46 H 0.2484 0.5897 0.8973
H47 H 0.3182 0.5596 0.9382
C29 C 0.3965(3) 0.60511(18) 0.5610(7)
H48 H 0.3578 0.5838 0.5477
H49 H 0.4473 0.5934 0.5486
H50 H 0.3868 0.6262 0.4816
C30 C 0.4881(3) 0.68024(16) 0.6794(7)
H51 H 0.5134 0.7013 0.7464
H52 H 0.4597 0.6940 0.5913
O1 O 1.0016(3) 0.66263(15) 0.1937(6)
N9 N 0.9977(3) 0.73134(18) 0.1861(8)
C31 C 1.0325(4) 0.6958(2) 0.2036(9)
H53 H 1.0861 0.6962 0.2256
C32 C 1.0391(5) 0.7694(2) 0.2080(15)
H54 H 1.0838 0.7651 0.2796
H55 H 1.0056 0.7897 0.2528
H56 H 1.0558 0.7790 0.1064
C33 C 0.9152(4) 0.7330(3) 0.1497(15)
H57 H 0.8956 0.7055 0.1309
H58 H 0.9050 0.7496 0.0555
H59 H 0.8898 0.7451 0.2384
O2 O 0.4863(3) 0.58727(15) 0.2002(6)
N10 N 0.4925(3) 0.51936(18) 0.2317(8)
C34 C 0.4549(4) 0.5543(2) 0.2139(8)
H60 H 0.4007 0.5537 0.2117
C35 C 0.4495(5) 0.4814(3) 0.2450(16)
H61 H 0.4459 0.4744 0.3562
H62 H 0.4759 0.4596 0.1912
H63 H 0.3981 0.4849 0.1965
C36 C 0.5739(4) 0.5173(3) 0.2323(14)
H64 H 0.5893 0.5035 0.1370
H65 H 0.5933 0.5023 0.3250
H66 H 0.5951 0.5448 0.2353
P1 P 0.31965(9) 0.25900(5) 0.97622(18)
O3 O 0.3657(2) 0.28214(11) 1.1010(4)
O4 O 0.2772(2) 0.28401(11) 0.8553(5)
O5 O 0.2602(3) 0.23188(14) 1.0589(5)
H67 H 0.273(4) 0.219(2) 1.168(9)
O6 O 0.3743(2) 0.22988(13) 0.8934(5)
H68 H 0.366(4) 0.227(2) 0.780(9)
P2 P 0.28464(8) 0.74676(5) 0.30225(18)
O7 O 0.3399(2) 0.76959(11) 0.2013(4)
O8 O 0.2408(2) 0.77603(13) 0.4025(5)
O9 O 0.2282(2) 0.72238(12) 0.1939(5)
H69 H 0.238(3) 0.7751(17) 0.525(8)
O10 O 0.3307(2) 0.71677(11) 0.4086(4)
H70 H 0.331(3) 0.7256(16) 0.510(3)
P3 P 0.79142(8) 0.49585(5) 0.86514(18)
O11 O 0.7474(2) 0.47238(11) 0.7397(4)
O12 O 0.7385(2) 0.52096(12) 0.9651(5)
O13 O 0.8422(2) 0.46825(12) 0.9721(5)
H71 H 0.851(3) 0.4737(18) 1.075(3)
O14 O 0.8467(2) 0.52593(12) 0.7855(5)
H72 H 0.846(4) 0.528(2) 0.694(8)
O15 O 0.14531(19) 0.46648(10) 0.5115(4)
O16 O 0.1352(2) 0.51514(11) 0.7372(5)
O17 O 0.2379(2) 0.46289(13) 0.7456(5)
H73 H 0.245(4) 0.4724(19) 0.845(4)
O18 O 0.2428(3) 0.52049(16) 0.5575(5)
H74 H 0.251(5) 0.521(2) 0.455(3)
P4 P 0.18868(9) 0.49026(5) 0.63737(18)
loop_
_geom_bond_atom_site_label_1
_geom_bond_atom_site_label_2
_geom_bond_site_symmetry_1
_geom_bond_site_symmetry_2
N1 C1 1_555 1_555
N2 C1 1_555 1_555
N3 C8 1_555 1_555
N4 C8 1_555 1_555
C1 C4 1_555 1_555
C2 N2 1_555 1_555
C3 N1 1_555 1_555
C4 H1 1_555 1_555
H2 C4 1_555 1_555
H3 C4 1_555 1_555
C5 N2 1_555 1_555
H4 C5 1_555 1_555
H5 C5 1_555 1_555
H6 C5 1_555 1_555
C6 C2 1_555 1_555
H7 C6 1_555 1_555
H8 C6 1_555 1_555
H9 C6 1_555 1_555
C7 C3 1_555 1_555
H10 C7 1_555 1_555
H11 C7 1_555 1_555
H12 C7 1_555 1_555
C8 C11 1_555 1_555
C9 N4 1_555 1_555
C10 N3 1_555 1_555
C11 H13 1_555 1_555
H14 C11 1_555 1_555
H15 C11 1_555 1_555
C12 N4 1_555 1_555
H16 C12 1_555 1_555
H17 C12 1_555 1_555
H18 C12 1_555 1_555
C13 C9 1_555 1_555
H19 C13 1_555 1_555
H20 C13 1_555 1_555
H21 C13 1_555 1_555
C14 C10 1_555 1_555
H22 C14 1_555 1_555
H23 C14 1_555 1_555
H24 C14 1_555 1_555
C15 N1 1_555 1_555
H25 C15 1_555 1_555
H26 C15 1_555 1_555
N5 C16 1_555 1_555
N6 C16 1_555 1_555
N7 C23 1_555 1_555
N8 C23 1_555 1_555
C16 C19 1_555 1_555
C17 N6 1_555 1_555
C18 N5 1_555 1_555
C19 H27 1_555 1_555
H28 C19 1_555 1_555
H29 C19 1_555 1_555
C20 N6 1_555 1_555
H30 C20 1_555 1_555
H31 C20 1_555 1_555
H32 C20 1_555 1_555
C21 C17 1_555 1_555
H33 C21 1_555 1_555
H34 C21 1_555 1_555
H35 C21 1_555 1_555
C22 C18 1_555 1_555
H36 C22 1_555 1_555
H37 C22 1_555 1_555
H38 C22 1_555 1_555
C23 C26 1_555 1_555
C24 N8 1_555 1_555
C25 N7 1_555 1_555
C26 H39 1_555 1_555
H40 C26 1_555 1_555
H41 C26 1_555 1_555
C27 N8 1_555 1_555
H42 C27 1_555 1_555
H43 C27 1_555 1_555
H44 C27 1_555 1_555
C28 C24 1_555 1_555
H45 C28 1_555 1_555
H46 C28 1_555 1_555
H47 C28 1_555 1_555
C29 C25 1_555 1_555
H48 C29 1_555 1_555
H49 C29 1_555 1_555
H50 C29 1_555 1_555
C30 N5 1_555 1_555
H51 C30 1_555 1_555
H52 C30 1_555 1_555
O1 C31 1_555 1_555
N9 C31 1_555 1_555
C31 H53 1_555 1_555
C32 N9 1_555 1_555
H54 C32 1_555 1_555
H55 C32 1_555 1_555
H56 C32 1_555 1_555
C33 N9 1_555 1_555
H57 C33 1_555 1_555
H58 C33 1_555 1_555
H59 C33 1_555 1_555
O2 C34 1_555 1_555
N10 C34 1_555 1_555
C34 H60 1_555 1_555
C35 N10 1_555 1_555
H61 C35 1_555 1_555
H62 C35 1_555 1_555
H63 C35 1_555 1_555
C36 N10 1_555 1_555
H64 C36 1_555 1_555
H65 C36 1_555 1_555
H66 C36 1_555 1_555
P1 O3 1_555 1_555
O4 P1 1_555 1_555
O5 P1 1_555 1_555
H67 O5 1_555 1_555
O6 P1 1_555 1_555
H68 O6 1_555 1_555
P2 O7 1_555 1_555
O8 P2 1_555 1_555
O9 P2 1_555 1_555
H69 O8 1_555 1_555
O10 P2 1_555 1_555
H70 O10 1_555 1_555
P3 O11 1_555 1_555
O12 P3 1_555 1_555
O13 P3 1_555 1_555
H71 O13 1_555 1_555
O14 P3 1_555 1_555
H72 O14 1_555 1_555
O15 P4 1_555 1_555
O16 P4 1_555 1_555
O17 H73 1_555 1_555
O18 H74 1_555 1_555
P4 O17 1_555 1_555
N3 C15 1_555 1_555
C2 C3 1_555 1_555
C9 C10 1_555 1_555
N7 C30 1_555 1_555
C17 C18 1_555 1_555
C24 C25 1_555 1_555
O18 P4 1_555 1_555

#END
