
#######################################################################
#
#                 Cambridge Crystallographic Data Centre
#                                CCDC 
#
#######################################################################
#
# If this CIF has been generated from an entry in the Cambridge 
# Structural Database, then it will include bibliographic, chemical, 
# crystal, experimental, refinement or atomic coordinate data resulting 
# from the CCDC's data processing and validation procedures.
#
#######################################################################

data_ZASFUX
_chemical_formula_moiety         'C32 H40 Cl3 Li3 N4 O2'
_chemical_name_systematic        
(\m-N,N',N''-[nitrilotri(ethane-2,1-diyl)]tris(2-chlorobenzen-1-aminido))-bis(tetrahydrofuran)-tri-lithium
_symmetry_cell_setting           monoclinic
_symmetry_space_group_name_H-M   'P 21/c'
_symmetry_Int_Tables_number      14
_space_group_name_Hall           '-P 2ybc'
loop_
_symmetry_equiv_pos_site_id
_symmetry_equiv_pos_as_xyz
1 x,y,z
2 -x,1/2+y,1/2-z
3 -x,-y,-z
4 x,1/2-y,1/2+z
_cell_length_a                   11.6346(6)
_cell_length_b                   15.5374(10)
_cell_length_c                   18.9156(12)
_cell_angle_alpha                90
_cell_angle_beta                 107.724(2)
_cell_angle_gamma                90
_cell_volume                     3257.1
_exptl_crystal_colour            colorless
_exptl_crystal_description       block
_cell_formula_units_Z            4
loop_
_atom_site_label
_atom_site_type_symbol
_atom_site_fract_x
_atom_site_fract_y
_atom_site_fract_z
Cl1 Cl 0.34834(5) 0.49298(4) 0.27911(3)
Cl2 Cl 0.05659(5) 0.42600(4) 0.17428(3)
Cl3 Cl 0.10949(5) 0.42143(4) 0.35506(3)
O1 O 0.59544(14) 0.34461(12) 0.34255(9)
O2 O 0.04195(16) 0.21355(13) 0.38893(10)
N1 N 0.29105(16) 0.28329(12) 0.35966(10)
N2 N 0.36206(16) 0.33014(12) 0.19929(10)
N3 N 0.04986(16) 0.24018(12) 0.20476(10)
N4 N 0.27891(17) 0.17002(12) 0.23965(10)
C1 C 0.3242(2) 0.33970(14) 0.41913(12)
C2 C 0.36261(18) 0.40230(14) 0.15813(12)
C3 C 0.2499(2) 0.41051(15) 0.42346(12)
C4 C 0.4309(2) 0.33399(15) 0.48034(12)
H1 H 0.4850 0.2876 0.4822
C5 C 0.3816(2) 0.24997(15) 0.16379(12)
H2 H 0.4577 0.2539 0.1508
H3 H 0.3146 0.2408 0.1175
C6 C 0.35376(19) 0.48586(15) 0.18716(12)
C7 C -0.0622(2) 0.27532(15) 0.17492(12)
C8 C 0.2771(2) 0.47031(16) 0.47995(13)
H4 H 0.2234 0.5167 0.4791
C9 C 0.37349(19) 0.40398(16) 0.08507(12)
H5 H 0.3827 0.3511 0.0621
C10 C 0.3624(2) 0.20325(15) 0.37335(12)
H6 H 0.3687 0.1811 0.4234
H7 H 0.4450 0.2153 0.3714
C11 C -0.0749(2) 0.36447(16) 0.15924(12)
C12 C 0.3508(2) 0.56144(15) 0.14870(14)
H8 H 0.3435 0.6150 0.1713
C13 C 0.3031(2) 0.13587(15) 0.31536(13)
H9 H 0.3567 0.0851 0.3216
H10 H 0.2264 0.1170 0.3228
C14 C 0.3883(2) 0.17475(15) 0.21611(13)
H11 H 0.3975 0.1205 0.1909
H12 H 0.4600 0.1814 0.2603
C15 C -0.1741(2) 0.22986(18) 0.15619(13)
H13 H -0.1737 0.1695 0.1643
C16 C 0.0572(2) 0.14685(15) 0.19552(14)
H14 H -0.0087 0.1277 0.1515
H15 H 0.0482 0.1169 0.2397
C17 C 0.3711(2) 0.48001(17) 0.04638(13)
H16 H 0.3782 0.4777 -0.0023
C18 C 0.4591(2) 0.39392(16) 0.53760(13)
H17 H 0.5319 0.3877 0.5772
C19 C 0.8039(2) 0.36763(17) 0.39741(13)
H18 H 0.8787 0.3368 0.4248
H19 H 0.8106 0.4286 0.4133
C20 C 0.3837(2) 0.46233(16) 0.53830(13)
H20 H 0.4041 0.5030 0.5777
C21 C 0.1796(2) 0.12463(15) 0.18555(14)
H21 H 0.1931 0.0618 0.1915
H22 H 0.1788 0.1404 0.1347
C22 C 0.7794(2) 0.35995(18) 0.31379(14)
H23 H 0.8249 0.4036 0.2951
H24 H 0.7997 0.3019 0.2997
C23 C 0.6932(2) 0.32523(16) 0.40883(13)
H25 H 0.7049 0.2623 0.4151
H26 H 0.6765 0.3490 0.4533
C24 C 0.3585(2) 0.55937(17) 0.07670(14)
H27 H 0.3553 0.6109 0.0491
C25 C -0.1845(2) 0.40608(19) 0.12974(13)
H28 H -0.1867 0.4663 0.1208
C26 C -0.2837(2) 0.2719(2) 0.12636(14)
H29 H -0.3562 0.2393 0.1145
C27 C -0.2907(2) 0.3593(2) 0.11339(14)
H30 H -0.3666 0.3869 0.0937
C28 C -0.0480(3) 0.14837(19) 0.38392(17)
H31 H -0.0467 0.1049 0.3459
H32 H -0.1296 0.1741 0.3712
C29 C 0.6454(2) 0.3764(2) 0.28557(15)
H33 H 0.6291 0.4387 0.2772
H34 H 0.6090 0.3456 0.2382
C30 C 0.1055(3) 0.2313(3) 0.46643(16)
H35 H 0.1028 0.2935 0.4768
H36 H 0.1909 0.2133 0.4787
C31 C 0.0439(3) 0.1818(3) 0.51049(18)
H37 H -0.0179 0.2172 0.5230
H38 H 0.1021 0.1603 0.5569
C32 C -0.0133(5) 0.1085(3) 0.4600(2)
H39 H -0.0852 0.0865 0.4718
H40 H 0.0446 0.0608 0.4640
Li1 Li 0.2126(3) 0.2959(2) 0.2286(2)
Li2 Li 0.4196(3) 0.3426(3) 0.3105(2)
Li3 Li 0.1057(4) 0.2644(3) 0.3184(2)
loop_
_geom_bond_atom_site_label_1
_geom_bond_atom_site_label_2
_geom_bond_site_symmetry_1
_geom_bond_site_symmetry_2
Cl1 C6 1_555 1_555
Cl2 C11 1_555 1_555
Cl3 C3 1_555 1_555
O1 C23 1_555 1_555
O2 C28 1_555 1_555
N1 C1 1_555 1_555
N2 C2 1_555 1_555
N3 C7 1_555 1_555
N4 C13 1_555 1_555
C1 C3 1_555 1_555
C2 C6 1_555 1_555
C3 C8 1_555 1_555
C4 C1 1_555 1_555
H1 C4 1_555 1_555
C5 N2 1_555 1_555
H2 C5 1_555 1_555
H3 C5 1_555 1_555
C6 C12 1_555 1_555
C7 C11 1_555 1_555
C8 H4 1_555 1_555
C9 C2 1_555 1_555
H5 C9 1_555 1_555
C10 N1 1_555 1_555
H6 C10 1_555 1_555
H7 C10 1_555 1_555
C11 C25 1_555 1_555
C12 H8 1_555 1_555
C13 C10 1_555 1_555
H9 C13 1_555 1_555
H10 C13 1_555 1_555
C14 N4 1_555 1_555
H11 C14 1_555 1_555
H12 C14 1_555 1_555
C15 C7 1_555 1_555
H13 C15 1_555 1_555
C16 N3 1_555 1_555
H14 C16 1_555 1_555
H15 C16 1_555 1_555
C17 C9 1_555 1_555
H16 C17 1_555 1_555
C18 C4 1_555 1_555
H17 C18 1_555 1_555
C19 H18 1_555 1_555
H19 C19 1_555 1_555
C20 C8 1_555 1_555
H20 C20 1_555 1_555
C21 N4 1_555 1_555
H21 C21 1_555 1_555
H22 C21 1_555 1_555
C22 C19 1_555 1_555
H23 C22 1_555 1_555
H24 C22 1_555 1_555
C23 C19 1_555 1_555
H25 C23 1_555 1_555
H26 C23 1_555 1_555
C24 C12 1_555 1_555
H27 C24 1_555 1_555
C25 H28 1_555 1_555
C26 C15 1_555 1_555
H29 C26 1_555 1_555
C27 C25 1_555 1_555
H30 C27 1_555 1_555
C28 H31 1_555 1_555
H32 C28 1_555 1_555
C29 O1 1_555 1_555
H33 C29 1_555 1_555
H34 C29 1_555 1_555
C30 O2 1_555 1_555
H35 C30 1_555 1_555
H36 C30 1_555 1_555
C31 C30 1_555 1_555
H37 C31 1_555 1_555
H38 C31 1_555 1_555
C32 C28 1_555 1_555
H39 C32 1_555 1_555
H40 C32 1_555 1_555
Li1 Cl2 1_555 1_555
Li2 Cl1 1_555 1_555
Li3 Cl3 1_555 1_555
O1 Li2 1_555 1_555
O2 Li3 1_555 1_555
N1 Li1 1_555 1_555
N1 Li2 1_555 1_555
N1 Li3 1_555 1_555
N2 Li1 1_555 1_555
N2 Li2 1_555 1_555
N3 Li1 1_555 1_555
N3 Li3 1_555 1_555
N4 Li1 1_555 1_555
C5 C14 1_555 1_555
C16 C21 1_555 1_555
C17 C24 1_555 1_555
C18 C20 1_555 1_555
C22 C29 1_555 1_555
C26 C27 1_555 1_555
C31 C32 1_555 1_555

#END
