
#######################################################################
#
#                 Cambridge Crystallographic Data Centre
#                                CCDC 
#
#######################################################################
#
# If this CIF has been generated from an entry in the Cambridge 
# Structural Database, then it will include bibliographic, chemical, 
# crystal, experimental, refinement or atomic coordinate data resulting 
# from the CCDC's data processing and validation procedures.
#
#######################################################################

data_ZASHIN
_chemical_formula_moiety         'C26 H49 B11 N1 O9 1-,C8 H20 N1 1+'
_chemical_name_systematic        
'tetraethylammonium 1-(pyrrolidine-1-carbonyl)-2-(2-(ethoxycarbonyl)ethenyl)-3,4,5-tris(2-(ethoxycarbonyl)ethyl)-1-carba-closo-dodecaborate(7)'
_symmetry_cell_setting           monoclinic
_symmetry_space_group_name_H-M   'P 21/n'
_symmetry_Int_Tables_number      14
_space_group_name_Hall           '-P 2yn'
loop_
_symmetry_equiv_pos_site_id
_symmetry_equiv_pos_as_xyz
1 x,y,z
2 1/2-x,1/2+y,1/2-z
3 -x,-y,-z
4 1/2+x,1/2-y,1/2+z
_cell_length_a                   15.7074(16)
_cell_length_b                   17.9799(16)
_cell_length_c                   16.5251(16)
_cell_angle_alpha                90
_cell_angle_beta                 98.384(9)
_cell_angle_gamma                90
_cell_volume                     4617.1
_exptl_crystal_colour            colorless
_exptl_crystal_description       needle
_cell_formula_units_Z            4
loop_
_atom_site_label
_atom_site_type_symbol
_atom_site_fract_x
_atom_site_fract_y
_atom_site_fract_z
O1 O -0.0906(2) 0.10025(19) -0.3048(2)
O2 O -0.3607(5) 0.2595(4) -0.0488(5)
O3 O -0.3060(5) 0.1619(4) -0.0592(5)
O4 O 0.0909(3) -0.0022(2) -0.0733(3)
O5 O 0.1435(2) 0.05767(17) 0.0376(2)
O6 O 0.1659(3) 0.0723(3) -0.4175(4)
O7 O 0.2813(2) 0.13748(19) -0.3927(2)
O8 O -0.1471(3) 0.3062(3) -0.5994(3)
O9 O -0.1782(4) 0.4200(3) -0.5825(2)
N1 N -0.2104(2) 0.1589(2) -0.3476(2)
C1 C -0.0819(2) 0.2271(2) -0.2705(2)
C2 C -0.1295(3) 0.1589(3) -0.3089(2)
C3 C -0.2772(4) 0.2162(4) -0.3589(4)
H1 H -0.2709 0.2487 -0.4046
H2 H -0.2775 0.2458 -0.3099
C4 C -0.3622(8) 0.1642(10) -0.3777(13)
H3 H -0.3792 0.1447 -0.3277
H4 H -0.4102 0.1911 -0.4081
C5 C -0.3335(5) 0.1088(6) -0.4241(6)
H5 H -0.3325 0.1260 -0.4796
H6 H -0.3712 0.0658 -0.4260
C6 C -0.2447(3) 0.0887(3) -0.3845(3)
H7 H -0.2463 0.0507 -0.3430
H8 H -0.2101 0.0709 -0.4246
C7 C -0.1732(3) 0.2199(3) -0.1329(3)
H9 H -0.1721 0.1685 -0.1267
C8 C -0.2351(6) 0.2572(5) -0.1065(7)
H10 H -0.2335 0.3088 -0.1109
C9 C -0.3055(7) 0.2255(6) -0.0712(6)
C10 C -0.3765(9) 0.1265(8) -0.0193(9)
H11 H -0.3515 0.0940 0.0247
H12 H -0.4093 0.1648 0.0037
C11 C -0.4252(7) 0.0897(7) -0.0718(10)
H13 H -0.4629 0.1230 -0.1054
H14 H -0.4587 0.0558 -0.0446
H15 H -0.3912 0.0624 -0.1053
C12 C -0.0809(3) 0.2937(3) -0.4273(3)
H16 H -0.0301 0.2842 -0.4527
H17 H -0.1190 0.2514 -0.4390
C13 C -0.1232(4) 0.3574(3) -0.4658(3)
H18 H -0.0853 0.3998 -0.4534
H19 H -0.1742 0.3666 -0.4405
C14 C -0.1499(3) 0.3555(4) -0.5558(3)
C15 C -0.2108(7) 0.4283(5) -0.6700(4)
H20 H -0.2123 0.3802 -0.6969
H21 H -0.2689 0.4482 -0.6770
C16 C -0.1613(9) 0.4725(7) -0.7019(6)
H22 H -0.1065 0.4490 -0.7028
H23 H -0.1534 0.5173 -0.6702
H24 H -0.1867 0.4843 -0.7568
C17 C 0.0682(3) 0.1729(3) -0.3370(3)
H25 H 0.0648 0.1243 -0.3120
H26 H 0.0342 0.1708 -0.3909
C18 C 0.1592(3) 0.1868(2) -0.3471(3)
H27 H 0.1619 0.2332 -0.3765
H28 H 0.1924 0.1932 -0.2933
C19 C 0.2005(3) 0.1281(3) -0.3906(3)
C20 C 0.3264(4) 0.0829(4) -0.4366(4)
H29 H 0.3153 0.0332 -0.4180
H30 H 0.3057 0.0858 -0.4948
C21 C 0.4169(4) 0.0978(4) -0.4220(5)
H31 H 0.4454 0.0683 -0.4585
H32 H 0.4392 0.0854 -0.3665
H33 H 0.4267 0.1495 -0.4314
C22 C 0.0146(3) 0.1266(2) -0.1488(3)
H34 H -0.0396 0.1021 -0.1447
H35 H 0.0441 0.0976 -0.1857
C23 C 0.0679(4) 0.1276(2) -0.0666(3)
H36 H 0.1170 0.1599 -0.0687
H37 H 0.0340 0.1489 -0.0277
C24 C 0.0994(4) 0.0535(3) -0.0366(4)
C25 C 0.1818(4) -0.0096(3) 0.0720(4)
H38 H 0.1379 -0.0478 0.0705
H39 H 0.2246 -0.0266 0.0396
C26 C 0.2213(5) 0.0017(3) 0.1547(4)
H40 H 0.2655 0.0387 0.1561
H41 H 0.2463 -0.0442 0.1765
H42 H 0.1788 0.0180 0.1870
B1 B -0.0997(3) 0.2584(3) -0.1753(3)
B2 B -0.1278(3) 0.3141(3) -0.2643(3)
H43 H -0.1953 0.3274 -0.2877
B3 B -0.0523(3) 0.2973(3) -0.3317(3)
B4 B 0.0259(3) 0.2320(3) -0.2839(3)
B5 B -0.0046(3) 0.2082(3) -0.1869(3)
B6 B 0.0009(4) 0.2901(3) -0.1268(3)
H44 H 0.0183 0.2880 -0.0600
B7 B -0.0750(4) 0.3537(3) -0.1746(3)
H45 H -0.1080 0.3932 -0.1389
B8 B -0.0449(4) 0.3770(3) -0.2696(4)
H46 H -0.0574 0.4325 -0.2967
B9 B 0.0481(3) 0.3275(3) -0.2817(3)
H47 H 0.0968 0.3499 -0.3166
B10 B 0.0772(3) 0.2739(3) -0.1928(3)
H48 H 0.1447 0.2614 -0.1689
B11 B 0.0340(4) 0.3648(3) -0.1848(3)
H49 H 0.0726 0.4115 -0.1564
N2 N 0.0454(3) -0.1222(2) -0.3018(3)
C30 C 0.0424(8) -0.1468(6) -0.3910(7)
H58 H 0.0870 -0.1836 -0.3942
H59 H -0.0127 -0.1701 -0.4095
C31 C 0.0552(13) -0.0820(8) -0.4478(8)
H60 H 0.0529 -0.1000 -0.5027
H61 H 0.0106 -0.0459 -0.4458
H62 H 0.1102 -0.0594 -0.4304
C32 C 0.1320(6) -0.0850(6) -0.2769(8)
H63 H 0.1442 -0.0501 -0.3184
H64 H 0.1332 -0.0587 -0.2255
C33 C 0.1961(8) -0.1478(8) -0.2681(17)
H65 H 0.2529 -0.1283 -0.2522
H66 H 0.1826 -0.1819 -0.2270
H67 H 0.1936 -0.1734 -0.3194
C34 C 0.0317(17) -0.1900(5) -0.2584(9)
H68 H 0.0826 -0.2212 -0.2535
H69 H -0.0165 -0.2176 -0.2872
C35 C 0.013(2) -0.1663(9) -0.1721(9)
H70 H 0.0031 -0.2098 -0.1410
H71 H 0.0608 -0.1390 -0.1444
H72 H -0.0378 -0.1355 -0.1779
C36 C -0.0137(8) -0.0592(7) -0.2971(12)
H73 H 0.0057 -0.0163 -0.3250
H74 H -0.0153 -0.0460 -0.2405
C37 C -0.1113(8) -0.0853(9) -0.3419(11)
H75 H -0.1511 -0.0451 -0.3397
H76 H -0.1090 -0.0981 -0.3979
H77 H -0.1299 -0.1277 -0.3138
H50? H -0.2531 0.2657 -0.3619
H51? H -0.3135 0.2148 -0.3163
H52? H -0.3756 0.0997 -0.3877
H53? H -0.3497 0.0812 -0.4745
H54? H -0.2136 0.1913 -0.1660
C27? C -0.2453(16) 0.1912(14) -0.0103(15)
C28? C -0.1816(18) 0.2253(12) -0.0546(11)
H55? H -0.1410 0.2550 -0.0233
O10? O -0.2341(12) 0.1749(10) 0.0617(9)
C29? C -0.3247(14) 0.1911(15) -0.4406(19)
H56? H -0.2914 0.2000 -0.4847
H57? H -0.3803 0.2151 -0.4532
C38? C 0.0125(16) -0.0852(13) -0.2213(14)
C39? C 0.049(2) -0.0590(19) -0.3505(18)
C40? C 0.095(3) -0.180(3) -0.297(3)
C41? C -0.057(2) -0.1618(19) -0.3469(19)
loop_
_geom_bond_atom_site_label_1
_geom_bond_atom_site_label_2
_geom_bond_site_symmetry_1
_geom_bond_site_symmetry_2
O1 C2 1_555 1_555
O2 C9 1_555 1_555
O3 C9 1_555 1_555
O4 C24 1_555 1_555
O5 C24 1_555 1_555
O6 C19 1_555 1_555
O7 C19 1_555 1_555
O8 C14 1_555 1_555
O9 C14 1_555 1_555
N1 C2 1_555 1_555
C1 C2 1_555 1_555
C3 N1 1_555 1_555
H1 C3 1_555 1_555
H2 C3 1_555 1_555
C4 C3 1_555 1_555
H3 C4 1_555 1_555
H4 C4 1_555 1_555
C5 C4 1_555 1_555
H5 C5 1_555 1_555
H6 C5 1_555 1_555
C6 N1 1_555 1_555
H7 C6 1_555 1_555
H8 C6 1_555 1_555
C7 H9 1_555 1_555
C8 C7 1_555 1_555
H10 C8 1_555 1_555
C9 C8 1_555 1_555
C10 O3 1_555 1_555
H11 C10 1_555 1_555
H12 C10 1_555 1_555
C11 C10 1_555 1_555
H13 C11 1_555 1_555
H14 C11 1_555 1_555
H15 C11 1_555 1_555
C12 H16 1_555 1_555
H17 C12 1_555 1_555
C13 C12 1_555 1_555
H18 C13 1_555 1_555
H19 C13 1_555 1_555
C14 C13 1_555 1_555
C15 O9 1_555 1_555
H20 C15 1_555 1_555
H21 C15 1_555 1_555
C16 C15 1_555 1_555
H22 C16 1_555 1_555
H23 C16 1_555 1_555
H24 C16 1_555 1_555
C17 H25 1_555 1_555
H26 C17 1_555 1_555
C18 C17 1_555 1_555
H27 C18 1_555 1_555
H28 C18 1_555 1_555
C19 C18 1_555 1_555
C20 O7 1_555 1_555
H29 C20 1_555 1_555
H30 C20 1_555 1_555
C21 C20 1_555 1_555
H31 C21 1_555 1_555
H32 C21 1_555 1_555
H33 C21 1_555 1_555
C22 H34 1_555 1_555
H35 C22 1_555 1_555
C23 C22 1_555 1_555
H36 C23 1_555 1_555
H37 C23 1_555 1_555
C24 C23 1_555 1_555
C25 O5 1_555 1_555
H38 C25 1_555 1_555
H39 C25 1_555 1_555
C26 C25 1_555 1_555
H40 C26 1_555 1_555
H41 C26 1_555 1_555
H42 C26 1_555 1_555
B1 C1 1_555 1_555
B2 C1 1_555 1_555
H43 B2 1_555 1_555
B3 C1 1_555 1_555
B4 C1 1_555 1_555
B5 C1 1_555 1_555
B6 B1 1_555 1_555
H44 B6 1_555 1_555
B7 B1 1_555 1_555
H45 B7 1_555 1_555
B8 B2 1_555 1_555
H46 B8 1_555 1_555
B9 B3 1_555 1_555
H47 B9 1_555 1_555
B10 B4 1_555 1_555
H48 B10 1_555 1_555
B11 B6 1_555 1_555
H49 B11 1_555 1_555
N2 C30 1_555 1_555
C30 H58 1_555 1_555
H59 C30 1_555 1_555
C31 C30 1_555 1_555
H60 C31 1_555 1_555
H61 C31 1_555 1_555
H62 C31 1_555 1_555
C32 N2 1_555 1_555
H63 C32 1_555 1_555
H64 C32 1_555 1_555
C33 C32 1_555 1_555
H65 C33 1_555 1_555
H66 C33 1_555 1_555
H67 C33 1_555 1_555
C34 N2 1_555 1_555
H68 C34 1_555 1_555
H69 C34 1_555 1_555
C35 C34 1_555 1_555
H70 C35 1_555 1_555
H71 C35 1_555 1_555
H72 C35 1_555 1_555
C36 N2 1_555 1_555
H73 C36 1_555 1_555
H74 C36 1_555 1_555
C37 C36 1_555 1_555
H75 C37 1_555 1_555
H76 C37 1_555 1_555
H77 C37 1_555 1_555
C5 C6 1_555 1_555
C7 B1 1_555 1_555
C12 B3 1_555 1_555
C17 B4 1_555 1_555
C22 B5 1_555 1_555
B1 B2 1_555 1_555
B1 B5 1_555 1_555
B2 B3 1_555 1_555
B2 B7 1_555 1_555
B3 B4 1_555 1_555
B3 B8 1_555 1_555
B4 B5 1_555 1_555
B4 B9 1_555 1_555
B5 B6 1_555 1_555
B5 B10 1_555 1_555
B6 B7 1_555 1_555
B6 B10 1_555 1_555
B7 B8 1_555 1_555
B7 B11 1_555 1_555
B8 B9 1_555 1_555
B8 B11 1_555 1_555
B9 B10 1_555 1_555
B9 B11 1_555 1_555
B10 B11 1_555 1_555

#END
