
#######################################################################
#
#                 Cambridge Crystallographic Data Centre
#                                CCDC 
#
#######################################################################
#
# If this CIF has been generated from an entry in the Cambridge 
# Structural Database, then it will include bibliographic, chemical, 
# crystal, experimental, refinement or atomic coordinate data resulting 
# from the CCDC's data processing and validation procedures.
#
#######################################################################

data_ZASJOV
_chemical_formula_moiety         'C21 H27 N3 O9'
_chemical_name_systematic        
"4,4',4''-[benzene-1,3,5-triyltris(carbonylazanediyl)]tributanoic acid"
_symmetry_cell_setting           triclinic
_symmetry_space_group_name_H-M   'P -1'
_symmetry_Int_Tables_number      2
_space_group_name_Hall           '-P 1'
loop_
_symmetry_equiv_pos_site_id
_symmetry_equiv_pos_as_xyz
1 x,y,z
2 -x,-y,-z
_cell_length_a                   4.9042(2)
_cell_length_b                   16.9098(6)
_cell_length_c                   17.0515(7)
_cell_angle_alpha                77.472(3)
_cell_angle_beta                 87.209(4)
_cell_angle_gamma                83.111(3)
_cell_volume                     1370.05
_exptl_crystal_colour            colorless
_exptl_crystal_description       needle
_cell_formula_units_Z            2
loop_
_atom_site_label
_atom_site_type_symbol
_atom_site_fract_x
_atom_site_fract_y
_atom_site_fract_z
O1 O 0.2456(4) 0.76067(10) 0.52051(12)
O2 O -0.3681(4) 0.63324(11) 0.26057(12)
O3 O 0.7002(4) 0.45508(10) 0.78770(12)
O4 O -0.1865(4) 0.53592(10) 0.36038(12)
O5 O 1.4117(4) 1.17211(11) 0.59118(14)
O6 O 1.2728(4) 1.09555(11) 0.51252(13)
O7 O 1.6668(4) 0.37546(11) 1.09573(12)
O8 O 1.0457(4) 0.81089(11) 0.77552(12)
N1 N 0.1776(4) 0.62880(12) 0.55365(14)
N2 N 1.0080(5) 0.50262(13) 0.85257(14)
O9 O 1.5839(5) 0.24579(12) 1.11754(15)
N3 N 0.9887(5) 0.86747(13) 0.64420(15)
C1 C 0.4977(5) 0.67886(15) 0.63115(16)
C2 C 0.2969(5) 0.69157(15) 0.56451(16)
C3 C 0.6232(5) 0.74588(15) 0.63932(16)
H1 H 0.5771 0.7971 0.6041
C4 C 0.8190(5) 0.51338(15) 0.79647(16)
C5 C 0.8150(5) 0.73894(15) 0.69822(17)
C6 C -0.1976(5) 0.60473(15) 0.32075(16)
C7 C -0.0045(5) 0.63703(15) 0.48569(17)
H2 H -0.1345 0.6872 0.4821
H3 H -0.1130 0.5900 0.4952
C8 C 0.5664(5) 0.60390(15) 0.68297(16)
H4 H 0.4818 0.5578 0.6775
C9 C 0.7582(5) 0.59590(15) 0.74286(16)
C10 C 0.8784(5) 0.66379(15) 0.75079(16)
H5 H 1.0051 0.6592 0.7924
C11 C -0.0244(5) 0.66805(15) 0.33391(17)
H6 H -0.1470 0.7174 0.3401
H7 H 0.0935 0.6834 0.2855
C12 C 0.9586(5) 0.80937(15) 0.70895(18)
C13 C 1.2584(6) 1.11782(15) 0.57539(18)
C14 C 1.0699(6) 0.42211(16) 0.90517(17)
H8 H 1.1368 0.3822 0.8719
H9 H 0.8989 0.4048 0.9335
C15 C 1.2829(6) 0.42115(16) 0.96643(17)
H10 H 1.2142 0.4584 1.0022
H11 H 1.4536 0.4397 0.9390
C16 C 0.1570(5) 0.64107(16) 0.40652(17)
H12 H 0.2962 0.6796 0.4031
H13 H 0.2554 0.5866 0.4057
C17 C 1.1301(6) 0.93910(15) 0.64427(19)
H14 H 1.2640 0.9466 0.5986
H15 H 1.2326 0.9302 0.6946
C18 C 0.9254(6) 1.01596(15) 0.63732(19)
H16 H 0.8345 1.0275 0.5848
H17 H 0.7820 1.0067 0.6802
C19 C 1.5480(6) 0.32260(16) 1.07986(17)
C20 C 1.3411(7) 0.33480(17) 1.01521(19)
H18 H 1.1662 0.3170 1.0404
H19 H 1.4059 0.2987 0.9779
C21 C 1.0681(6) 1.08910(16) 0.64465(19)
H20 H 0.9263 1.1347 0.6497
H21 H 1.1743 1.0747 0.6947
H22 H 1.096(5) 0.5446(11) 0.8583(16)
H23 H 0.221(5) 0.5793(8) 0.5835(14)
H24 H 0.927(6) 0.8644(16) 0.5970(9)
H25 H -0.448(7) 0.5962(17) 0.249(2)
H26 H 1.514(6) 1.187(2) 0.5513(14)
H27 H 1.711(6) 0.237(2) 1.1511(19)
loop_
_geom_bond_atom_site_label_1
_geom_bond_atom_site_label_2
_geom_bond_site_symmetry_1
_geom_bond_site_symmetry_2
O1 C2 1_555 1_555
O2 C6 1_555 1_555
O3 C4 1_555 1_555
O4 C6 1_555 1_555
O5 C13 1_555 1_555
O6 C13 1_555 1_555
O7 C19 1_555 1_555
O8 C12 1_555 1_555
N1 C2 1_555 1_555
N2 C4 1_555 1_555
O9 C19 1_555 1_555
N3 C12 1_555 1_555
C1 C2 1_555 1_555
C3 C1 1_555 1_555
H1 C3 1_555 1_555
C4 C9 1_555 1_555
C5 C3 1_555 1_555
C6 C11 1_555 1_555
C7 N1 1_555 1_555
H2 C7 1_555 1_555
H3 C7 1_555 1_555
C8 C1 1_555 1_555
H4 C8 1_555 1_555
C9 C8 1_555 1_555
C10 C5 1_555 1_555
H5 C10 1_555 1_555
C11 H6 1_555 1_555
H7 C11 1_555 1_555
C12 C5 1_555 1_555
C13 C21 1_555 1_555
C14 N2 1_555 1_555
H8 C14 1_555 1_555
H9 C14 1_555 1_555
C15 C14 1_555 1_555
H10 C15 1_555 1_555
H11 C15 1_555 1_555
C16 C7 1_555 1_555
H12 C16 1_555 1_555
H13 C16 1_555 1_555
C17 N3 1_555 1_555
H14 C17 1_555 1_555
H15 C17 1_555 1_555
C18 C17 1_555 1_555
H16 C18 1_555 1_555
H17 C18 1_555 1_555
C19 C20 1_555 1_555
C20 C15 1_555 1_555
H18 C20 1_555 1_555
H19 C20 1_555 1_555
C21 C18 1_555 1_555
H20 C21 1_555 1_555
H21 C21 1_555 1_555
H22 N2 1_555 1_555
H23 N1 1_555 1_555
H24 N3 1_555 1_555
H25 O2 1_555 1_555
H26 O5 1_555 1_555
H27 O9 1_555 1_555
C9 C10 1_555 1_555
C11 C16 1_555 1_555

#END
