
#######################################################################
#
#                 Cambridge Crystallographic Data Centre
#                                CCDC 
#
#######################################################################
#
# If this CIF has been generated from an entry in the Cambridge 
# Structural Database, then it will include bibliographic, chemical, 
# crystal, experimental, refinement or atomic coordinate data resulting 
# from the CCDC's data processing and validation procedures.
#
#######################################################################

data_ZASKEM
_chemical_formula_moiety         'C30 H45 N3 O9'
_chemical_name_systematic        
"trimethyl 6,6',6''-[benzene-1,3,5-triyltris(carbonylazanediyl)]trihexanoate"
_symmetry_cell_setting           monoclinic
_symmetry_space_group_name_H-M   'P 21/c'
_symmetry_Int_Tables_number      14
_space_group_name_Hall           '-P 2ybc'
loop_
_symmetry_equiv_pos_site_id
_symmetry_equiv_pos_as_xyz
1 x,y,z
2 -x,1/2+y,1/2-z
3 -x,-y,-z
4 x,1/2-y,1/2+z
_cell_length_a                   19.627(2)
_cell_length_b                   7.3150(10)
_cell_length_c                   23.510(3)
_cell_angle_alpha                90
_cell_angle_beta                 114.567(8)
_cell_angle_gamma                90
_cell_volume                     3069.81
_exptl_crystal_colour            colorless
_exptl_crystal_description       plate
_cell_formula_units_Z            4
loop_
_atom_site_label
_atom_site_type_symbol
_atom_site_fract_x
_atom_site_fract_y
_atom_site_fract_z
O1 O 0.4930(2) -0.1787(5) 0.37622(17)
O2 O 0.3842(2) 0.3192(5) 0.21737(17)
O3 O 0.7203(3) -0.9343(6) 0.56052(18)
O4 O 0.8308(3) -0.8348(6) 0.6297(2)
N1 N 0.4079(3) 0.5942(6) 0.2640(2)
O5 O 0.7371(3) 0.4384(7) 0.4784(2)
N2 N 0.5832(3) -0.1084(7) 0.4709(2)
N3 N 0.6995(3) 0.6585(7) 0.4050(2)
O6 O 0.1793(3) 1.4525(7) 0.2488(2)
O7 O 0.0678(3) 1.3466(7) 0.2380(3)
C1 C 0.4254(3) 0.4220(8) 0.2594(2)
C2 C 0.4933(3) 0.1768(8) 0.3336(2)
H1 H 0.4508 0.1016 0.3122
C3 C 0.6201(3) 0.3906(7) 0.3927(2)
C4 C 0.4960(3) 0.3520(7) 0.3116(2)
C5 C 0.5406(3) -0.0710(8) 0.4104(2)
C6 C 0.5599(3) 0.4597(8) 0.3407(2)
H2 H 0.5623 0.5785 0.3254
C7 C 0.6151(3) 0.2187(7) 0.4151(2)
H3 H 0.6558 0.1732 0.4511
C8 C 0.5518(3) 0.1118(7) 0.3861(2)
C9 C 0.7564(4) -0.8186(9) 0.5968(3)
C10 C 0.6146(4) -0.4564(8) 0.6003(2)
H4 H 0.5605 -0.4714 0.5893
H5 H 0.6402 -0.4396 0.6462
C11 C 0.5733(3) -0.2763(8) 0.4995(3)
H6 H 0.5833 -0.3823 0.4779
H7 H 0.5208 -0.2848 0.4945
C12 C 0.1323(4) 1.3311(9) 0.2372(3)
C13 C 0.3333(3) 0.6639(8) 0.2246(3)
H8 H 0.2951 0.5763 0.2252
H9 H 0.3279 0.6746 0.1810
C14 C 0.6904(4) 0.4980(9) 0.4286(3)
C15 C 0.6255(4) -0.2839(8) 0.5687(3)
H10 H 0.6166 -0.1756 0.5899
H11 H 0.6781 -0.2787 0.5735
C16 C 0.6438(3) -0.6316(8) 0.5829(3)
H12 H 0.6250 -0.7379 0.5983
H13 H 0.6235 -0.6406 0.5368
C17 C 0.3200(3) 0.8465(8) 0.2467(3)
H14 H 0.3515 0.9384 0.2382
H15 H 0.3362 0.8413 0.2926
C18 C 0.7278(4) -0.6409(8) 0.6094(3)
H16 H 0.7463 -0.5406 0.5913
H17 H 0.7483 -0.6214 0.6552
C19 C 0.2398(4) 0.9091(9) 0.2169(3)
H18 H 0.2077 0.8151 0.2237
H19 H 0.2242 0.9210 0.1712
C20 C 0.2277(4) 1.0896(8) 0.2424(3)
H20 H 0.2566 1.1856 0.2326
H21 H 0.2470 1.0807 0.2885
C21 C 0.9959(4) 1.3379(11) 0.4179(3)
O8 O 1.0006(5) 1.2776(10) 0.3711(4)
C22 C 0.8052(4) 0.8538(10) 0.4121(3)
H22 H 0.7733 0.8927 0.3687
H23 H 0.8351 0.7480 0.4091
C23 C 0.1462(4) 1.1447(9) 0.2160(3)
H24 H 0.1181 1.0522 0.2283
H25 H 0.1261 1.1442 0.1698
C24 C 0.8635(4) -1.0012(10) 0.6196(3)
H26 H 0.9177 -0.9997 0.6452
H27 H 0.8539 -1.0107 0.5753
H28 H 0.8413 -1.1063 0.6314
C25 C 0.8573(4) 1.0025(11) 0.4423(3)
H29 H 0.8276 1.1011 0.4500
H30 H 0.8922 0.9567 0.4838
C26 C 0.7561(5) 0.7895(11) 0.4396(3)
H31 H 0.7876 0.7350 0.4808
H32 H 0.7307 0.8971 0.4475
C27 C 0.9031(4) 1.0890(11) 0.4145(3)
H33 H 0.9357 0.9929 0.4096
H34 H 0.8688 1.1282 0.3719
O9 O 1.0319(6) 1.4748(15) 0.4464(4)
C28 C 0.9502(5) 1.2424(12) 0.4441(3)
H35 H 0.9849 1.2011 0.4863
H36 H 0.9173 1.3358 0.4502
C29 C 0.0518(5) 1.5220(12) 0.2564(4)
H37 H 0.0411 1.6091 0.2221
H38 H 0.0952 1.5644 0.2933
H39 H 0.0083 1.5126 0.2665
C30 C 1.0783(11) 1.569(3) 0.4190(9)
H40 H 1.0454 1.6320 0.3804
H41 H 1.1091 1.4795 0.4095
H42 H 1.1108 1.6590 0.4489
H43 H 0.435(3) 0.676(6) 0.2931(19)
H44 H 0.661(2) 0.686(9) 0.3699(17)
H45 H 0.609(3) -0.015(6) 0.493(3)
O10? O 0.9557(17) 1.472(3) 0.3964(14)
O11? O 1.0613(14) 1.348(4) 0.4331(13)
C31? C 1.094(3) 1.532(5) 0.432(3)
H46? H 1.0737 1.5780 0.3891
H47? H 1.1486 1.5217 0.4482
H48? H 1.0810 1.6165 0.4584
O12? O 0.137(2) 1.340(5) 0.2971(15)
O13? O 0.099(2) 1.502(3) 0.2136(15)
C32? C 0.048(3) 1.632(7) 0.232(2)
H49? H 0.0788 1.6934 0.2713
H50? H 0.0089 1.5603 0.2367
H51? H 0.0255 1.7233 0.1988
loop_
_geom_bond_atom_site_label_1
_geom_bond_atom_site_label_2
_geom_bond_site_symmetry_1
_geom_bond_site_symmetry_2
O1 C5 1_555 1_555
O2 C1 1_555 1_555
O3 C9 1_555 1_555
O4 C9 1_555 1_555
N1 C1 1_555 1_555
O5 C14 1_555 1_555
N2 C5 1_555 1_555
N3 C14 1_555 1_555
O6 C12 1_555 1_555
O7 C12 1_555 1_555
C1 C4 1_555 1_555
C2 H1 1_555 1_555
C3 C6 1_555 1_555
C4 C2 1_555 1_555
C5 C8 1_555 1_555
C6 C4 1_555 1_555
H2 C6 1_555 1_555
C7 C3 1_555 1_555
H3 C7 1_555 1_555
C8 C2 1_555 1_555
C9 C18 1_555 1_555
C10 H4 1_555 1_555
H5 C10 1_555 1_555
C11 N2 1_555 1_555
H6 C11 1_555 1_555
H7 C11 1_555 1_555
C12 C23 1_555 1_555
C13 N1 1_555 1_555
H8 C13 1_555 1_555
H9 C13 1_555 1_555
C14 C3 1_555 1_555
C15 C10 1_555 1_555
H10 C15 1_555 1_555
H11 C15 1_555 1_555
C16 C10 1_555 1_555
H12 C16 1_555 1_555
H13 C16 1_555 1_555
C17 C13 1_555 1_555
H14 C17 1_555 1_555
H15 C17 1_555 1_555
C18 C16 1_555 1_555
H16 C18 1_555 1_555
H17 C18 1_555 1_555
C19 C17 1_555 1_555
H18 C19 1_555 1_555
H19 C19 1_555 1_555
C20 C19 1_555 1_555
H20 C20 1_555 1_555
H21 C20 1_555 1_555
C21 O8 1_555 1_555
C22 H22 1_555 1_555
H23 C22 1_555 1_555
C23 C20 1_555 1_555
H24 C23 1_555 1_555
H25 C23 1_555 1_555
C24 O4 1_555 1_555
H26 C24 1_555 1_555
H27 C24 1_555 1_555
H28 C24 1_555 1_555
C25 C22 1_555 1_555
H29 C25 1_555 1_555
H30 C25 1_555 1_555
C26 N3 1_555 1_555
H31 C26 1_555 1_555
H32 C26 1_555 1_555
C27 C25 1_555 1_555
H33 C27 1_555 1_555
H34 C27 1_555 1_555
O9 C21 1_555 1_555
C28 C21 1_555 1_555
H35 C28 1_555 1_555
H36 C28 1_555 1_555
C29 O7 1_555 1_555
H37 C29 1_555 1_555
H38 C29 1_555 1_555
H39 C29 1_555 1_555
C30 O9 1_555 1_555
H40 C30 1_555 1_555
H41 C30 1_555 1_555
H42 C30 1_555 1_555
H43 N1 1_555 1_555
H44 N3 1_555 1_555
H45 N2 1_555 1_555
C7 C8 1_555 1_555
C11 C15 1_555 1_555
C22 C26 1_555 1_555
C27 C28 1_555 1_555

#END
