
#######################################################################
#
#                 Cambridge Crystallographic Data Centre
#                                CCDC 
#
#######################################################################
#
# If this CIF has been generated from an entry in the Cambridge 
# Structural Database, then it will include bibliographic, chemical, 
# crystal, experimental, refinement or atomic coordinate data resulting 
# from the CCDC's data processing and validation procedures.
#
#######################################################################

data_ZASQOC
_chemical_formula_moiety         'C24 H27 Cl3 N4'
_chemical_name_systematic        
N'-(2-chlorophenyl)-N,N-bis(2-((2-chlorophenyl)amino)ethyl)ethane-1,2-diamine
_symmetry_cell_setting           monoclinic
_symmetry_space_group_name_H-M   'P 21/c'
_symmetry_Int_Tables_number      14
_space_group_name_Hall           '-P 2ybc'
loop_
_symmetry_equiv_pos_site_id
_symmetry_equiv_pos_as_xyz
1 x,y,z
2 -x,1/2+y,1/2-z
3 -x,-y,-z
4 x,1/2-y,1/2+z
_cell_length_a                   8.3273(7)
_cell_length_b                   12.4365(13)
_cell_length_c                   22.608(2)
_cell_angle_alpha                90
_cell_angle_beta                 90.443(3)
_cell_angle_gamma                90
_cell_volume                     2341.27
_exptl_crystal_colour            colorless
_exptl_crystal_description       block
_cell_formula_units_Z            4
loop_
_atom_site_label
_atom_site_type_symbol
_atom_site_fract_x
_atom_site_fract_y
_atom_site_fract_z
Cl1 Cl 0.24154(7) 0.92329(5) 0.55040(3)
Cl2 Cl 0.23857(8) 0.60192(5) 0.51644(3)
Cl3 Cl 0.24411(8) 0.70638(5) 0.69389(3)
N1 N 0.5259(2) 0.82366(17) 0.49603(9)
N2 N 0.5265(2) 0.57608(18) 0.59221(10)
N3 N 0.5290(3) 0.84313(17) 0.67101(9)
N4 N 0.7498(2) 0.75199(15) 0.58358(9)
C1 C 0.2533(3) 0.87885(18) 0.47717(10)
C2 C 0.1231(3) 0.89165(19) 0.43992(11)
H1 H 0.0288 0.9261 0.4538
C3 C 0.1293(3) 0.8544(2) 0.38226(11)
H2 H 0.0401 0.8632 0.3563
C4 C 0.2676(3) 0.8044(2) 0.36321(11)
H3 H 0.2725 0.7775 0.3240
C5 C 0.3994(3) 0.7930(2) 0.40052(11)
H4 H 0.4933 0.7586 0.3863
C6 C 0.3969(3) 0.83097(18) 0.45855(10)
C7 C 0.6804(3) 0.7812(2) 0.47859(10)
H5 H 0.7164 0.8165 0.4418
H6 H 0.6721 0.7030 0.4712
C8 C 0.7996(3) 0.8027(2) 0.52814(10)
H7 H 0.9063 0.7747 0.5168
H8 H 0.8097 0.8813 0.5342
C9 C 0.2549(3) 0.51506(18) 0.57661(11)
C10 C 0.1259(3) 0.45101(19) 0.59160(12)
H9 H 0.0305 0.4527 0.5683
C11 C 0.1352(3) 0.3846(2) 0.64048(12)
H10 H 0.0469 0.3402 0.6509
C12 C 0.2746(3) 0.3833(2) 0.67406(12)
H11 H 0.2811 0.3387 0.7081
C13 C 0.4055(3) 0.44661(19) 0.65863(11)
H12 H 0.5005 0.4443 0.6821
C14 C 0.3991(3) 0.51368(18) 0.60895(11)
C15 C 0.6817(3) 0.5714(2) 0.62108(11)
H13 H 0.7196 0.4960 0.6227
H14 H 0.6731 0.5985 0.6621
C16 C 0.8005(3) 0.63950(19) 0.58702(12)
H15 H 0.9071 0.6355 0.6067
H16 H 0.8114 0.6103 0.5465
C17 C 0.2539(3) 0.8451(2) 0.70493(10)
C18 C 0.1228(3) 0.8977(2) 0.72804(10)
H17 H 0.0299 0.8581 0.7387
C19 C 0.1263(3) 1.0077(2) 0.73562(11)
H18 H 0.0369 1.0445 0.7519
C20 C 0.2624(4) 1.0633(2) 0.71916(12)
H19 H 0.2647 1.1393 0.7233
C21 C 0.3948(3) 1.0113(2) 0.69683(11)
H20 H 0.4866 1.0519 0.6860
C22 C 0.3958(3) 0.8994(2) 0.68992(10)
C23 C 0.6744(3) 0.8982(2) 0.65208(11)
H21 H 0.7159 0.9443 0.6844
H22 H 0.6504 0.9444 0.6175
C24 C 0.7993(3) 0.8145(2) 0.63576(11)
H23 H 0.9026 0.8508 0.6276
H24 H 0.8162 0.7652 0.6696
H25 H 0.516(3) 0.835(2) 0.5334(5)
H26 H 0.511(3) 0.6252(16) 0.5657(9)
H27 H 0.511(3) 0.7814(11) 0.6543(10)
loop_
_geom_bond_atom_site_label_1
_geom_bond_atom_site_label_2
_geom_bond_site_symmetry_1
_geom_bond_site_symmetry_2
Cl1 C1 1_555 1_555
Cl2 C9 1_555 1_555
Cl3 C17 1_555 1_555
N1 C6 1_555 1_555
N2 C14 1_555 1_555
N3 C22 1_555 1_555
N4 C8 1_555 1_555
C1 C2 1_555 1_555
C2 H1 1_555 1_555
C3 C2 1_555 1_555
H2 C3 1_555 1_555
C4 C3 1_555 1_555
H3 C4 1_555 1_555
C5 C4 1_555 1_555
H4 C5 1_555 1_555
C6 C1 1_555 1_555
C7 N1 1_555 1_555
H5 C7 1_555 1_555
H6 C7 1_555 1_555
C8 C7 1_555 1_555
H7 C8 1_555 1_555
H8 C8 1_555 1_555
C9 C10 1_555 1_555
C10 H9 1_555 1_555
C11 C10 1_555 1_555
H10 C11 1_555 1_555
C12 C11 1_555 1_555
H11 C12 1_555 1_555
C13 C12 1_555 1_555
H12 C13 1_555 1_555
C14 C9 1_555 1_555
C15 N2 1_555 1_555
H13 C15 1_555 1_555
H14 C15 1_555 1_555
C16 N4 1_555 1_555
H15 C16 1_555 1_555
H16 C16 1_555 1_555
C17 C18 1_555 1_555
C18 H17 1_555 1_555
C19 C18 1_555 1_555
H18 C19 1_555 1_555
C20 C19 1_555 1_555
H19 C20 1_555 1_555
C21 C20 1_555 1_555
H20 C21 1_555 1_555
C22 C17 1_555 1_555
C23 N3 1_555 1_555
H21 C23 1_555 1_555
H22 C23 1_555 1_555
C24 N4 1_555 1_555
H23 C24 1_555 1_555
H24 C24 1_555 1_555
H25 N1 1_555 1_555
H26 N2 1_555 1_555
H27 N3 1_555 1_555
C5 C6 1_555 1_555
C13 C14 1_555 1_555
C15 C16 1_555 1_555
C21 C22 1_555 1_555
C23 C24 1_555 1_555

#END
