
#######################################################################
#
#                 Cambridge Crystallographic Data Centre
#                                CCDC 
#
#######################################################################
#
# If this CIF has been generated from an entry in the Cambridge 
# Structural Database, then it will include bibliographic, chemical, 
# crystal, experimental, refinement or atomic coordinate data resulting 
# from the CCDC's data processing and validation procedures.
#
#######################################################################

data_ZASTIZ
_chemical_formula_moiety         'C59 H46 N4,0.5(C2 H3 N1)'
_chemical_name_systematic        
"2,2'-((17,17-dipentyl-17H-cyclopenta[1,2-l:3,4-l']diphenanthrene-3,14-diyl)bis[(4,1-phenylene)methylylidene])dipropanedinitrile acetonitrile solvate"
_symmetry_cell_setting           triclinic
_symmetry_space_group_name_H-M   'P -1'
_symmetry_Int_Tables_number      2
_space_group_name_Hall           '-P 1'
loop_
_symmetry_equiv_pos_site_id
_symmetry_equiv_pos_as_xyz
1 x,y,z
2 -x,-y,-z
_cell_length_a                   13.8813(6)
_cell_length_b                   14.4392(7)
_cell_length_c                   23.5317(11)
_cell_angle_alpha                95.8618(12)
_cell_angle_beta                 105.3647(12)
_cell_angle_gamma                91.4814(11)
_cell_volume                     4517.33
_exptl_crystal_colour            yellow
_exptl_crystal_description       platelet
_cell_formula_units_Z            4
loop_
_atom_site_label
_atom_site_type_symbol
_atom_site_fract_x
_atom_site_fract_y
_atom_site_fract_z
C1 C 0.1648(2) 0.3924(2) 0.31703(14)
C2 C 0.0752(2) 0.4867(2) 0.17335(13)
C3 C -0.0753(2) 0.5980(2) 0.11236(14)
C4 C 0.2396(2) 0.3292(2) 0.31040(14)
C5 C 0.2629(2) 0.2935(2) 0.41208(15)
C6 C -0.2366(2) 0.6702(2) 0.10366(15)
C7 C 0.1368(2) 0.4256(2) 0.21366(14)
C8 C 0.0223(2) 0.4955(2) 0.26251(14)
C9 C -0.1572(2) 0.6450(2) 0.08102(15)
H1 H -0.1580 0.6601 0.0425
C10 C -0.0754(2) 0.5734(2) 0.16891(14)
C11 C 0.1142(2) 0.4375(2) 0.26785(14)
C12 C 0.3072(3) 0.2372(2) 0.46007(15)
C13 C 0.2595(2) 0.3108(2) 0.25253(15)
C14 C 0.2049(2) 0.3542(2) 0.20360(14)
C15 C 0.0859(2) 0.5205(2) 0.11971(14)
C16 C 0.0030(2) 0.5200(2) 0.19939(14)
C17 C 0.1914(2) 0.3593(2) 0.41894(15)
H2 H 0.1762 0.3707 0.4560
C18 C 0.2858(2) 0.2817(2) 0.35823(14)
H3 H 0.3352 0.2394 0.3536
C19 C -0.3215(2) 0.7205(2) 0.07106(15)
C20 C 0.1730(2) 0.5109(2) 0.09965(14)
H4 H 0.2259 0.4770 0.1208
C21 C 0.1448(3) 0.4058(2) 0.37335(14)
H5 H 0.0970 0.4491 0.3792
C22 C 0.0102(2) 0.5766(2) 0.08911(14)
C23 C -0.1563(3) 0.6009(3) 0.19201(16)
H6 H -0.1565 0.5869 0.2306
C24 C 0.4466(3) 0.0816(3) 0.60177(17)
H7 H 0.473(2) 0.127(2) 0.6394(15)
C25 C -0.2336(3) 0.6469(3) 0.16040(16)
H8 H -0.2867 0.6634 0.1773
C26 C 0.2769(3) 0.2528(2) 0.13873(16)
H9 H 0.2804 0.2306 0.1000
C27 C 0.3784(3) 0.2233(2) 0.56419(16)
H10 H 0.3967 0.2517 0.6041
C28 C 0.3237(3) 0.1426(2) 0.44821(16)
H11 H 0.3051 0.1146 0.4083
C29 C 0.2108(3) 0.3192(2) 0.14623(15)
H12 H 0.1684 0.3419 0.1124
C30 C 0.3384(3) 0.2181(2) 0.18758(16)
H13 H 0.3874 0.1757 0.1825
C31 C 0.3659(2) 0.0891(2) 0.49253(15)
H14 H 0.3743 0.0248 0.4831
C32 C 0.1829(3) 0.5492(2) 0.05052(16)
H15 H 0.2419 0.5414 0.0378
C33 C 0.0228(3) 0.6138(2) 0.03851(15)
H16 H -0.0280 0.6496 0.0171
C34 C -0.4823(3) 0.8209(3) 0.01089(16)
C35 C 0.3345(3) 0.2749(2) 0.51932(15)
H17 H 0.3223 0.3382 0.5290
C36 C 0.3285(3) 0.2448(2) 0.24298(16)
H18 H 0.3689 0.2184 0.2759
C37 C -0.0635(2) 0.4335(2) 0.27181(16)
H19 H -0.0423 0.4138 0.3121
H20 H -0.1223 0.4716 0.2699
C38 C -0.5671(3) 0.8723(3) -0.01683(18)
H21 H -0.624(2) 0.868(2) 0.0003(14)
C39 C 0.0438(3) 0.5868(2) 0.30603(15)
H22 H -0.0180 0.6215 0.2997
H23 H 0.0605 0.5701 0.3472
C40 C 0.3966(2) 0.1296(2) 0.55184(15)
C41 C 0.4341(3) -0.0832(3) 0.5575(2)
N1 N 0.4106(3) -0.1445(2) 0.52056(17)
C42 C -0.4858(3) 0.7806(3) 0.06075(19)
H24 H -0.5433 0.7865 0.0753
C43 C -0.4076(3) 0.7320(3) 0.09002(18)
H25 H -0.4125 0.7052 0.1244
N2 N -0.7435(3) 1.0118(3) -0.09625(19)
C44 C 0.1068(3) 0.5995(2) 0.01934(17)
H26 H 0.1128 0.6243 -0.0155
C45 C -0.3211(3) 0.7595(3) 0.01994(18)
H27 H -0.2645 0.7523 0.0047
C46 C 0.5159(3) -0.0378(3) 0.6610(2)
C47 C -0.3982(3) 0.8078(3) -0.00978(19)
H28 H -0.3943 0.8327 -0.0450
C48 C -0.5795(3) 0.9269(3) -0.06082(18)
C49 C -0.5065(3) 0.9475(3) -0.09118(19)
C50 C 0.1554(3) 0.7356(3) 0.34365(19)
H29 H 0.1767 0.7159 0.3840
H30 H 0.0951 0.7716 0.3414
N3 N -0.4494(3) 0.9676(3) -0.11593(18)
C51 C 0.4639(3) -0.0093(3) 0.60497(17)
C52 C 0.1271(3) 0.6499(3) 0.29968(18)
H31 H 0.1078 0.6697 0.2593
H32 H 0.1872 0.6132 0.3027
N4 N 0.5553(3) -0.0614(2) 0.70570(18)
C53 C -0.6716(3) 0.9726(3) -0.0807(2)
C54 C -0.0950(3) 0.3474(3) 0.2275(2)
H33 H -0.1176 0.3668 0.1872
H34 H -0.0363 0.3094 0.2290
C55 C 0.2626(5) 0.8878(4) 0.3695(3)
H35 H 0.2010 0.9186 0.3709
H36 H 0.3027 0.9264 0.3514
H37 H 0.3010 0.8795 0.4099
C56 C 0.2382(4) 0.8002(3) 0.3356(3)
H38 H 0.3000 0.7655 0.3429
H39 H 0.2205 0.8113 0.2934
C57 C -0.1767(4) 0.2888(4) 0.2384(2)
H40 H -0.1562 0.2752 0.2802
H41 H -0.2369 0.3257 0.2336
C58 C -0.2045(8) 0.2008(7) 0.2006(4)
H42 H -0.1645 0.1498 0.2180
H43 H -0.1966 0.2057 0.1604
C59 C -0.3337(16) 0.1838(13) 0.1992(8)
H44 H -0.3742 0.2233 0.1717
H45 H -0.3416 0.2006 0.2391
H46 H -0.3558 0.1183 0.1861
N5 N -0.0903(10) 0.1180(13) 0.2385(7)
C60 C 0.002(3) 0.077(2) 0.2613(9)
C61 C 0.1412(14) 0.0808(13) 0.2832(11)
C62 C 0.5368(2) 0.2131(2) 0.77160(14)
C63 C 0.3245(2) 0.3987(2) 0.68289(14)
C64 C 0.2465(2) 0.5620(2) 0.63353(14)
C65 C 0.3442(2) 0.5645(2) 0.67261(14)
C66 C 0.3843(2) 0.3271(2) 0.71540(14)
C67 C 0.2666(2) 0.7273(2) 0.62254(15)
C68 C 0.3612(2) 0.7305(2) 0.66339(16)
H47 H 0.3997 0.7880 0.6746
C69 C 0.5601(2) 0.3075(2) 0.76671(14)
C70 C 0.3821(2) 0.4812(2) 0.69511(13)
C71 C 0.3992(2) 0.6524(2) 0.68741(15)
H48 H 0.4637 0.6568 0.7146
C72 C 0.7140(2) 0.1903(2) 0.81681(15)
C73 C 0.1887(2) 0.4724(2) 0.61556(14)
C74 C 0.3552(2) 0.2371(2) 0.72961(14)
C75 C 0.2107(2) 0.6436(2) 0.60987(14)
H49 H 0.1451 0.6412 0.5840
C76 C 0.1851(2) 0.7977(2) 0.53098(16)
H50 H 0.1764 0.7369 0.5100
C77 C 0.2552(2) 0.2081(2) 0.72503(14)
H51 H 0.2033 0.2481 0.7104
C78 C 0.2280(2) 0.3905(2) 0.63818(14)
C79 C 0.4808(2) 0.3635(2) 0.73797(14)
C80 C 0.4892(2) 0.4666(2) 0.72972(14)
C81 C 0.5616(2) 0.4878(2) 0.69191(14)
H52 H 0.5565 0.5537 0.6838
H53 H 0.6310 0.4804 0.7154
C82 C 0.4043(3) 0.0918(2) 0.77013(15)
H54 H 0.4548 0.0509 0.7855
C83 C 0.4324(2) 0.1787(2) 0.75568(14)
C84 C 0.1762(2) 0.3044(2) 0.61234(15)
H55 H 0.2051 0.2480 0.6240
C85 C 0.5222(2) 0.5262(2) 0.79139(14)
H56 H 0.5885 0.5068 0.8131
H57 H 0.5304 0.5923 0.7850
C86 C 0.6609(2) 0.3409(2) 0.78854(15)
H58 H 0.6779 0.4042 0.7858
C87 C 0.0430(3) 0.3807(2) 0.55246(16)
H59 H -0.0215 0.3776 0.5251
C88 C 0.2304(2) 0.8090(2) 0.59225(15)
C89 C 0.1532(2) 0.8718(2) 0.50079(16)
H60 H 0.1226 0.8619 0.4593
C90 C 0.8948(3) 0.1524(3) 0.84504(18)
H61 H 0.9109 0.2075 0.8299
C91 C 0.1310(3) 1.0449(2) 0.50122(17)
H62 H 0.155(2) 1.106(2) 0.5276(14)
C92 C 0.0859(2) 0.3002(2) 0.57118(15)
H63 H 0.0523 0.2414 0.5552
C93 C 0.6153(2) 0.1565(2) 0.79555(15)
H64 H 0.5999 0.0925 0.7972
C94 C 0.0941(2) 0.4658(2) 0.57361(15)
H65 H 0.0651 0.5210 0.5597
C95 C 0.7350(2) 0.2850(2) 0.81354(16)
H66 H 0.8016 0.3107 0.8289
C96 C 0.2118(2) 0.9742(2) 0.59094(16)
H67 H 0.2225 1.0351 0.6118
C97 C 0.0693(3) 1.0516(2) 0.44756(17)
C98 C 0.7950(2) 0.1301(2) 0.84214(17)
C99 C 0.1650(2) 0.9625(2) 0.53022(15)
C100 C 0.2430(2) 0.8985(2) 0.62134(16)
H68 H 0.2735 0.9082 0.6628
C101 C 0.9700(3) 0.0969(3) 0.8691(2)
H69 H 1.0370 0.1140 0.8700
C102 C 0.2310(3) 0.1239(2) 0.74110(16)
H70 H 0.1631 0.1063 0.7375
C103 C 0.5420(3) 0.4261(2) 0.63310(16)
H71 H 0.4707 0.4284 0.6111
H72 H 0.5542 0.3608 0.6411
C104 C 0.3056(3) 0.0644(2) 0.76257(16)
H73 H 0.2885 0.0048 0.7721
C105 C 0.6074(3) 0.4552(3) 0.59430(16)
H74 H 0.6786 0.4520 0.6160
H75 H 0.5958 0.5207 0.5867
C106 C 0.0211(3) 0.9748(3) 0.40612(19)
N6 N 0.8993(3) -0.1842(3) 0.98506(17)
C107 C 0.4515(3) 0.5197(3) 0.83036(15)
H76 H 0.4402 0.4534 0.8355
H77 H 0.3863 0.5431 0.8103
N7 N 0.0168(2) 1.2125(2) 0.41413(18)
C108 C 0.0418(3) 1.1417(3) 0.42887(18)
C109 C 0.9500(3) 0.0161(3) 0.8922(2)
C110 C 1.0343(3) -0.0370(3) 0.9184(3)
H78 H 1.092(3) -0.016(3) 0.9090(19)
C111 C 0.5861(3) 0.3935(3) 0.53494(17)
H79 H 0.5979 0.3280 0.5426
H80 H 0.5147 0.3964 0.5134
N8 N 1.2081(3) -0.1841(3) 0.9897(3)
N9 N -0.0196(3) 0.9133(3) 0.37239(18)
C112 C 0.7758(3) 0.0484(3) 0.8646(2)
H81 H 0.7087 0.0303 0.8628
C113 C 0.9611(3) -0.1498(3) 0.9691(2)
C114 C 0.4916(3) 0.5750(3) 0.89091(17)
H82 H 0.4989 0.6417 0.8856
H83 H 0.5590 0.5543 0.9096
C115 C 0.8510(3) -0.0070(3) 0.8893(3)
H84 H 0.8351 -0.0619 0.9047
C116 C 1.0406(3) -0.1084(3) 0.9510(2)
C117 C 1.1347(3) -0.1496(3) 0.9724(3)
C118 C 0.4255(5) 0.5652(4) 0.9330(2)
H85 H 0.4133 0.4981 0.9357
H86 H 0.4619 0.5946 0.9731
C119 C 0.6507(4) 0.4223(3) 0.4960(2)
H87 H 0.6385 0.4868 0.4877
H88 H 0.6337 0.3810 0.4586
H89 H 0.7214 0.4178 0.5165
C120 C 0.3280(5) 0.6081(5) 0.9142(3)
H90 H 0.3391 0.6728 0.9073
H91 H 0.2931 0.6068 0.9453
H92 H 0.2871 0.5731 0.8775
loop_
_geom_bond_atom_site_label_1
_geom_bond_atom_site_label_2
_geom_bond_site_symmetry_1
_geom_bond_site_symmetry_2
C1 C4 1_555 1_555
C2 C7 1_555 1_555
C3 C9 1_555 1_555
C4 C13 1_555 1_555
C5 C12 1_555 1_555
C6 C9 1_555 1_555
C7 C11 1_555 1_555
C8 C11 1_555 1_555
C9 H1 1_555 1_555
C10 C3 1_555 1_555
C11 C1 1_555 1_555
C12 C28 1_555 1_555
C13 C14 1_555 1_555
C14 C7 1_555 1_555
C15 C2 1_555 1_555
C16 C2 1_555 1_555
C17 C5 1_555 1_555
H2 C17 1_555 1_555
C18 C4 1_555 1_555
H3 C18 1_555 1_555
C19 C6 1_555 1_555
C20 C15 1_555 1_555
H4 C20 1_555 1_555
C21 C1 1_555 1_555
H5 C21 1_555 1_555
C22 C3 1_555 1_555
C23 C10 1_555 1_555
H6 C23 1_555 1_555
C24 H7 1_555 1_555
C25 C6 1_555 1_555
H8 C25 1_555 1_555
C26 H9 1_555 1_555
C27 H10 1_555 1_555
C28 H11 1_555 1_555
C29 C14 1_555 1_555
H12 C29 1_555 1_555
C30 C26 1_555 1_555
H13 C30 1_555 1_555
C31 C28 1_555 1_555
H14 C31 1_555 1_555
C32 C20 1_555 1_555
H15 C32 1_555 1_555
C33 C22 1_555 1_555
H16 C33 1_555 1_555
C34 C38 1_555 1_555
C35 C12 1_555 1_555
H17 C35 1_555 1_555
C36 C13 1_555 1_555
H18 C36 1_555 1_555
C37 C8 1_555 1_555
H19 C37 1_555 1_555
H20 C37 1_555 1_555
C38 H21 1_555 1_555
C39 C8 1_555 1_555
H22 C39 1_555 1_555
H23 C39 1_555 1_555
C40 C24 1_555 1_555
C41 N1 1_555 1_555
C42 C34 1_555 1_555
H24 C42 1_555 1_555
C43 C19 1_555 1_555
H25 C43 1_555 1_555
N2 C53 1_555 1_555
C44 C32 1_555 1_555
H26 C44 1_555 1_555
C45 C19 1_555 1_555
H27 C45 1_555 1_555
C46 C51 1_555 1_555
C47 C34 1_555 1_555
H28 C47 1_555 1_555
C48 C38 1_555 1_555
C49 C48 1_555 1_555
C50 H29 1_555 1_555
H30 C50 1_555 1_555
N3 C49 1_555 1_555
C51 C24 1_555 1_555
C52 C39 1_555 1_555
H31 C52 1_555 1_555
H32 C52 1_555 1_555
N4 C46 1_555 1_555
C53 C48 1_555 1_555
C54 C37 1_555 1_555
H33 C54 1_555 1_555
H34 C54 1_555 1_555
C55 H35 1_555 1_555
H36 C55 1_555 1_555
H37 C55 1_555 1_555
C56 C50 1_555 1_555
H38 C56 1_555 1_555
H39 C56 1_555 1_555
C57 C54 1_555 1_555
H40 C57 1_555 1_555
H41 C57 1_555 1_555
C58 C57 1_555 1_555
H42 C58 1_555 1_555
H43 C58 1_555 1_555
C59 C58 1_555 1_555
H44 C59 1_555 1_555
H45 C59 1_555 1_555
H46 C59 1_555 1_555
N5 C60 1_555 1_555
C60 C61 1_555 1_555
C62 C69 1_555 1_555
C63 C66 1_555 1_555
C64 C65 1_555 1_555
C65 C70 1_555 1_555
C66 C74 1_555 1_555
C67 C68 1_555 1_555
C68 H47 1_555 1_555
C69 C79 1_555 1_555
C70 C63 1_555 1_555
C71 C65 1_555 1_555
H48 C71 1_555 1_555
C72 C93 1_555 1_555
C73 C64 1_555 1_555
C74 C77 1_555 1_555
C75 C64 1_555 1_555
H49 C75 1_555 1_555
C76 H50 1_555 1_555
C77 H51 1_555 1_555
C78 C63 1_555 1_555
C79 C66 1_555 1_555
C80 C70 1_555 1_555
C81 C80 1_555 1_555
H52 C81 1_555 1_555
H53 C81 1_555 1_555
C82 H54 1_555 1_555
C83 C62 1_555 1_555
C84 C78 1_555 1_555
H55 C84 1_555 1_555
C85 C80 1_555 1_555
H56 C85 1_555 1_555
H57 C85 1_555 1_555
C86 C69 1_555 1_555
H58 C86 1_555 1_555
C87 H59 1_555 1_555
C88 C67 1_555 1_555
C89 C76 1_555 1_555
H60 C89 1_555 1_555
C90 H61 1_555 1_555
C91 H62 1_555 1_555
C92 C84 1_555 1_555
H63 C92 1_555 1_555
C93 C62 1_555 1_555
H64 C93 1_555 1_555
C94 C73 1_555 1_555
H65 C94 1_555 1_555
C95 C72 1_555 1_555
H66 C95 1_555 1_555
C96 H67 1_555 1_555
C97 C91 1_555 1_555
C98 C72 1_555 1_555
C99 C89 1_555 1_555
C100 C88 1_555 1_555
H68 C100 1_555 1_555
C101 C90 1_555 1_555
H69 C101 1_555 1_555
C102 C77 1_555 1_555
H70 C102 1_555 1_555
C103 C81 1_555 1_555
H71 C103 1_555 1_555
H72 C103 1_555 1_555
C104 C82 1_555 1_555
H73 C104 1_555 1_555
C105 C103 1_555 1_555
H74 C105 1_555 1_555
H75 C105 1_555 1_555
C106 C97 1_555 1_555
N6 C113 1_555 1_555
C107 C85 1_555 1_555
H76 C107 1_555 1_555
H77 C107 1_555 1_555
N7 C108 1_555 1_555
C108 C97 1_555 1_555
C109 C101 1_555 1_555
C110 C109 1_555 1_555
H78 C110 1_555 1_555
C111 C105 1_555 1_555
H79 C111 1_555 1_555
H80 C111 1_555 1_555
N8 C117 1_555 1_555
N9 C106 1_555 1_555
C112 C98 1_555 1_555
H81 C112 1_555 1_555
C113 C116 1_555 1_555
C114 C107 1_555 1_555
H82 C114 1_555 1_555
H83 C114 1_555 1_555
C115 C109 1_555 1_555
H84 C115 1_555 1_555
C116 C110 1_555 1_555
C117 C116 1_555 1_555
C118 C114 1_555 1_555
H85 C118 1_555 1_555
H86 C118 1_555 1_555
C119 C111 1_555 1_555
H87 C119 1_555 1_555
H88 C119 1_555 1_555
H89 C119 1_555 1_555
C120 C118 1_555 1_555
H90 C120 1_555 1_555
H91 C120 1_555 1_555
H92 C120 1_555 1_555
C5 C18 1_555 1_555
C8 C16 1_555 1_555
C10 C16 1_555 1_555
C15 C22 1_555 1_555
C17 C21 1_555 1_555
C23 C25 1_555 1_555
C26 C29 1_555 1_555
C27 C35 1_555 1_555
C27 C40 1_555 1_555
C30 C36 1_555 1_555
C31 C40 1_555 1_555
C33 C44 1_555 1_555
C41 C51 1_555 1_555
C42 C43 1_555 1_555
C45 C47 1_555 1_555
C50 C52 1_555 1_555
C55 C56 1_555 1_555
C67 C75 1_555 1_555
C68 C71 1_555 1_555
C73 C78 1_555 1_555
C74 C83 1_555 1_555
C76 C88 1_555 1_555
C79 C80 1_555 1_555
C82 C83 1_555 1_555
C86 C95 1_555 1_555
C87 C92 1_555 1_555
C87 C94 1_555 1_555
C90 C98 1_555 1_555
C91 C99 1_555 1_555
C96 C99 1_555 1_555
C96 C100 1_555 1_555
C102 C104 1_555 1_555
C112 C115 1_555 1_555

#END
