
#######################################################################
#
#                 Cambridge Crystallographic Data Centre
#                                CCDC 
#
#######################################################################
#
# If this CIF has been generated from an entry in the Cambridge 
# Structural Database, then it will include bibliographic, chemical, 
# crystal, experimental, refinement or atomic coordinate data resulting 
# from the CCDC's data processing and validation procedures.
#
#######################################################################

data_ZATBUT
_chemical_formula_moiety         'C27 H22 N8 O7,Cl1 1-,C16 H36 N1 1+'
_chemical_name_systematic        
'Tetra-n-butylammonium chloride 3-(4-nitrophenyl)-3-(2-(((2-(((4-nitrophenyl)carbamoyl)amino)phenyl)carbamoyl)amino)phenyl)urea unknown solvate'
_symmetry_cell_setting           triclinic
_symmetry_space_group_name_H-M   'P -1'
_symmetry_Int_Tables_number      2
_space_group_name_Hall           '-P 1'
loop_
_symmetry_equiv_pos_site_id
_symmetry_equiv_pos_as_xyz
1 x,y,z
2 -x,-y,-z
_cell_length_a                   13.673(4)
_cell_length_b                   13.729(4)
_cell_length_c                   14.697(5)
_cell_angle_alpha                75.330(3)
_cell_angle_beta                 69.249(3)
_cell_angle_gamma                78.752(4)
_cell_volume                     2478.82
_exptl_crystal_colour            yellow
_exptl_crystal_description       block
_cell_formula_units_Z            2
loop_
_atom_site_label
_atom_site_type_symbol
_atom_site_fract_x
_atom_site_fract_y
_atom_site_fract_z
Cl1 Cl 0.58934(8) 0.58226(9) 0.55183(9)
O1 O 0.5950(7) 1.0352(7) 0.0920(6)
O2 O 0.4387(5) 1.0553(4) 0.0863(4)
O3 O 0.2505(3) 0.6648(3) 0.4862(2)
O4 O 0.4188(3) 0.3332(3) 0.8618(2)
O5 O 0.8820(3) 0.5317(2) 0.6721(2)
O6 O 1.1250(4) 0.9141(3) 0.3031(3)
O7 O 1.0079(4) 0.9558(3) 0.2303(3)
N1 N 0.5036(6) 1.0120(5) 0.1241(5)
N2 N 0.4115(3) 0.7080(3) 0.4664(3)
H1 H 0.4631 0.6913 0.4922
N3 N 0.3310(3) 0.5988(3) 0.6057(3)
H2 H 0.3801 0.6094 0.6267
N4 N 0.4188(3) 0.4274(3) 0.7098(3)
H3 H 0.4603 0.4547 0.6514
N5 N 0.5706(3) 0.3925(3) 0.7492(3)
H4 H 0.5934 0.4360 0.6931
N6 N 0.7720(3) 0.4361(3) 0.6551(3)
H5 H 0.7441 0.4264 0.6130
N7 N 0.8327(3) 0.5690(3) 0.5312(3)
H6 H 0.7933 0.5505 0.5039
N8 N 1.0447(4) 0.9009(3) 0.2927(3)
C1 C 0.4797(5) 0.9302(4) 0.2103(4)
C2 C 0.3812(5) 0.9013(4) 0.2483(4)
H7 H 0.3304 0.9315 0.2160
C3 C 0.3552(4) 0.8286(4) 0.3334(4)
H8 H 0.2859 0.8095 0.3608
C4 C 0.4303(4) 0.7826(4) 0.3795(4)
C5 C 0.5319(5) 0.8121(4) 0.3378(4)
H9 H 0.5844 0.7794 0.3674
C6 C 0.5561(5) 0.8858(5) 0.2570(5)
H10 H 0.6241 0.9079 0.2313
C7 C 0.3248(4) 0.6565(4) 0.5180(4)
C8 C 0.2661(4) 0.5229(4) 0.6668(3)
C9 C 0.1594(4) 0.5325(4) 0.6774(3)
H11 H 0.1290 0.5906 0.6413
C10 C 0.0983(4) 0.4592(4) 0.7390(4)
H12 H 0.0257 0.4671 0.7455
C11 C 0.1402(4) 0.3740(5) 0.7918(4)
H13 H 0.0970 0.3234 0.8346
C12 C 0.2474(4) 0.3628(4) 0.7818(3)
H14 H 0.2771 0.3035 0.8172
C13 C 0.3107(4) 0.4367(4) 0.7210(3)
C14 C 0.4660(4) 0.3796(3) 0.7811(3)
C15 C 0.6454(4) 0.3437(4) 0.7963(3)
C16 C 0.6250(4) 0.2731(4) 0.8846(3)
H15 H 0.5560 0.2534 0.9164
C17 C 0.7030(4) 0.2302(4) 0.9281(4)
H16 H 0.6869 0.1825 0.9892
C18 C 0.8039(4) 0.2571(4) 0.8820(4)
H17 H 0.8573 0.2281 0.9115
C19 C 0.8272(4) 0.3261(4) 0.7932(3)
H18 H 0.8970 0.3437 0.7620
C20 C 0.7496(4) 0.3713(3) 0.7477(3)
C21 C 0.8330(4) 0.5129(4) 0.6237(3)
C22 C 0.8875(4) 0.6514(4) 0.4765(3)
C23 C 0.9810(4) 0.6680(4) 0.4840(3)
H19 H 1.0097 0.6222 0.5310
C24 C 1.0323(4) 0.7485(4) 0.4251(3)
H20 H 1.0964 0.7592 0.4307
C25 C 0.9892(4) 0.8153(4) 0.3565(4)
C26 C 0.8977(4) 0.7992(4) 0.3469(4)
H21 H 0.8711 0.8433 0.2976
C27 C 0.8450(4) 0.7205(4) 0.4076(4)
H22 H 0.7794 0.7121 0.4035
N9 N 0.2205(5) 0.2966(4) 0.1348(4)
C28 C 0.3467(6) 0.3118(5) 0.1208(5)
C29 C 0.3640(6) 0.3675(6) 0.1842(6)
C30 C 0.4811(7) 0.3705(6) 0.1589(6)
C31 C 0.5145(13) 0.4485(11) 0.0572(11)
C32 C 0.1726(11) 0.2517(10) 0.2416(9)
C33 C 0.2193(12) 0.1398(11) 0.2767(10)
C34 C 0.1463(13) 0.1099(11) 0.3898(11)
C35 C 0.0183(13) 0.1160(12) 0.4011(11)
C37 C 0.0441(8) 0.1160(8) -0.0073(7)
C38 C 0.1662(7) 0.3996(7) 0.1131(7)
C39 C 0.2073(8) 0.4671(7) 0.0127(7)
C44 C 0.1392(12) 0.1353(11) -0.0079(10)
C45 C 0.2326(6) 0.2231(5) 0.0697(5)
C46 C 0.1289(6) 0.2099(6) 0.0650(5)
C47 C 0.1348(6) 0.5613(6) -0.0064(6)
C48 C 0.1768(8) 0.6353(7) -0.0989(6)
C36? C 0.1555(15) 0.1420(14) 0.0265(12)
C40? C 0.0730(13) 0.2863(12) 0.2020(11)
C41? C 0.0426(13) 0.2055(12) 0.2771(11)
C42? C -0.0732(13) 0.1942(12) 0.3299(12)
C43? C -0.1110(15) 0.1179(13) 0.4134(13)
C49? C 0.5243(16) 0.2887(15) 0.2092(13)
C50? C 0.2349(18) 0.0652(19) -0.003(2)
C51? C 0.179(3) 0.388(2) 0.032(2)
C52? C 0.143(3) 0.494(3) 0.061(2)
loop_
_geom_bond_atom_site_label_1
_geom_bond_atom_site_label_2
_geom_bond_site_symmetry_1
_geom_bond_site_symmetry_2
O1 N1 1_555 1_555
O2 N1 1_555 1_555
O3 C7 1_555 1_555
O4 C14 1_555 1_555
O5 C21 1_555 1_555
O6 N8 1_555 1_555
O7 N8 1_555 1_555
N1 C1 1_555 1_555
N2 H1 1_555 1_555
N3 H2 1_555 1_555
N4 H3 1_555 1_555
N5 H4 1_555 1_555
N6 H5 1_555 1_555
N7 H6 1_555 1_555
N8 C25 1_555 1_555
N9 C28 1_555 1_555
C1 C2 1_555 1_555
C2 H7 1_555 1_555
C3 C2 1_555 1_555
H8 C3 1_555 1_555
C4 N2 1_555 1_555
C5 C4 1_555 1_555
H9 C5 1_555 1_555
C6 C1 1_555 1_555
H10 C6 1_555 1_555
C7 N2 1_555 1_555
C8 N3 1_555 1_555
C9 C8 1_555 1_555
H11 C9 1_555 1_555
C10 C9 1_555 1_555
H12 C10 1_555 1_555
C11 C10 1_555 1_555
H13 C11 1_555 1_555
C12 C11 1_555 1_555
H14 C12 1_555 1_555
C13 N4 1_555 1_555
C14 N4 1_555 1_555
C15 N5 1_555 1_555
C16 C15 1_555 1_555
H15 C16 1_555 1_555
C17 C16 1_555 1_555
H16 C17 1_555 1_555
C18 C17 1_555 1_555
H17 C18 1_555 1_555
C19 C18 1_555 1_555
H18 C19 1_555 1_555
C20 N6 1_555 1_555
C21 N6 1_555 1_555
C22 N7 1_555 1_555
C23 C22 1_555 1_555
H19 C23 1_555 1_555
C24 C23 1_555 1_555
H20 C24 1_555 1_555
C25 C24 1_555 1_555
C26 C25 1_555 1_555
H21 C26 1_555 1_555
C27 C22 1_555 1_555
H22 C27 1_555 1_555
C28 C29 1_555 1_555
C29 C30 1_555 1_555
C30 C31 1_555 1_555
C32 N9 1_555 1_555
C33 C32 1_555 1_555
C34 C33 1_555 1_555
C35 C34 1_555 1_555
C37 C44 1_555 1_555
C38 N9 1_555 1_555
C39 C38 1_555 1_555
C44 C46 1_555 1_555
C45 N9 1_555 1_555
C46 C45 1_555 1_555
C47 C39 1_555 1_555
C48 C47 1_555 1_555
N3 C7 1_555 1_555
N5 C14 1_555 1_555
N7 C21 1_555 1_555
C3 C4 1_555 1_555
C5 C6 1_555 1_555
C8 C13 1_555 1_555
C12 C13 1_555 1_555
C15 C20 1_555 1_555
C19 C20 1_555 1_555
C26 C27 1_555 1_555

#END
