
#######################################################################
#
#                 Cambridge Crystallographic Data Centre
#                                CCDC 
#
#######################################################################
#
# If this CIF has been generated from an entry in the Cambridge 
# Structural Database, then it will include bibliographic, chemical, 
# crystal, experimental, refinement or atomic coordinate data resulting 
# from the CCDC's data processing and validation procedures.
#
#######################################################################

data_ZATBON
_chemical_formula_moiety         'C27 H22 N8 O7,Cl1 1-,C16 H36 N1 1+'
_chemical_name_systematic        
'tetra-n-butylammonium chloride 3-(4-nitrophenyl)-3-(2-(((2-(((4-nitrophenyl)carbamoyl)amino)phenyl)carbamoyl)amino)phenyl)urea'
_symmetry_cell_setting           monoclinic
_symmetry_space_group_name_H-M   'P 21/c'
_symmetry_Int_Tables_number      14
_space_group_name_Hall           '-P 2ybc'
loop_
_symmetry_equiv_pos_site_id
_symmetry_equiv_pos_as_xyz
1 x,y,z
2 -x,1/2+y,1/2-z
3 -x,-y,-z
4 x,1/2-y,1/2+z
_cell_length_a                   13.4563(17)
_cell_length_b                   16.559(2)
_cell_length_c                   20.379(3)
_cell_angle_alpha                90
_cell_angle_beta                 96.937(2)
_cell_angle_gamma                90
_cell_volume                     4507.67
_exptl_crystal_colour            yellow
_exptl_crystal_description       block
_cell_formula_units_Z            4
loop_
_atom_site_label
_atom_site_type_symbol
_atom_site_fract_x
_atom_site_fract_y
_atom_site_fract_z
Cl1 Cl 0.66383(8) 0.56383(8) 0.22478(5)
O1 O 0.2919(3) 0.8637(2) 0.36426(19)
O2 O 0.1841(3) 0.8891(2) 0.27969(18)
O3 O 0.4273(2) 0.6958(2) 0.04418(15)
O4 O 0.8608(2) 0.6049(2) 0.03901(16)
O5 O 0.9862(2) 0.5244(2) 0.37162(16)
O6 O 0.7376(4) 0.3680(3) 0.6225(2)
O7 O 0.5869(4) 0.3799(3) 0.5756(2)
N1 N 0.2604(3) 0.8562(2) 0.3054(2)
N2 N 0.4950(2) 0.6759(2) 0.15119(16)
H1 H 0.5428 0.6509 0.1746
N3 N 0.5706(2) 0.6219(2) 0.06796(16)
H2 H 0.6175 0.6133 0.0998
N4 N 0.7350(2) 0.52572(19) 0.06405(16)
H3 H 0.7149 0.4945 0.0935
N5 N 0.8783(2) 0.53423(19) 0.13639(15)
H4 H 0.8493 0.4987 0.1583
N6 N 0.9062(2) 0.5582(2) 0.26964(16)
H5 H 0.8477 0.5664 0.2486
N7 N 0.8152(3) 0.5197(2) 0.35075(16)
H6 H 0.7667 0.5319 0.3209
N8 N 0.6771(5) 0.3884(3) 0.5767(2)
C1 C 0.3182(3) 0.8071(2) 0.2644(2)
C2 C 0.2942(3) 0.8083(2) 0.1970(2)
H7 H 0.2397 0.8384 0.1782
C3 C 0.3505(3) 0.7651(2) 0.1573(2)
H8 H 0.3347 0.7661 0.1116
C4 C 0.4315(3) 0.7196(2) 0.1862(2)
C5 C 0.4514(3) 0.7167(2) 0.2550(2)
H9 H 0.5031 0.6842 0.2745
C6 C 0.3958(3) 0.7609(2) 0.2943(2)
H10 H 0.4103 0.7597 0.3401
C7 C 0.4917(3) 0.6672(2) 0.0837(2)
C8 C 0.5853(3) 0.5878(2) 0.00713(19)
C9 C 0.5185(3) 0.5982(3) -0.0498(2)
H11 H 0.4625 0.6310 -0.0493
C10 C 0.5366(3) 0.5591(3) -0.1072(2)
H12 H 0.4917 0.5652 -0.1453
C11 C 0.6200(4) 0.5111(3) -0.1090(2)
H13 H 0.6316 0.4853 -0.1479
C12 C 0.6855(3) 0.5019(2) -0.0525(2)
H14 H 0.7419 0.4697 -0.0532
C13 C 0.6687(3) 0.5395(2) 0.0050(2)
C14 C 0.8274(3) 0.5584(2) 0.0768(2)
C15 C 0.9720(3) 0.5614(2) 0.1649(2)
C16 C 1.0501(3) 0.5787(2) 0.1283(2)
H15 H 1.0404 0.5725 0.0826
C17 C 1.1418(3) 0.6048(2) 0.1583(2)
H16 H 1.1928 0.6168 0.1329
C18 C 1.1578(3) 0.6132(2) 0.2257(2)
H17 H 1.2199 0.6304 0.2460
C19 C 1.0815(3) 0.5961(2) 0.2637(2)
H18 H 1.0929 0.6013 0.3095
C20 C 0.9886(3) 0.5715(2) 0.2339(2)
C21 C 0.9094(3) 0.5336(2) 0.3342(2)
C22 C 0.7871(3) 0.4886(2) 0.4094(2)
C23 C 0.8509(3) 0.4749(3) 0.4665(2)
H19 H 0.9186 0.4873 0.4680
C24 C 0.8152(4) 0.4429(3) 0.5213(2)
H20 H 0.8586 0.4333 0.5596
C25 C 0.7156(4) 0.4254(3) 0.5193(2)
C26 C 0.6493(4) 0.4401(3) 0.4640(2)
H21 H 0.5815 0.4286 0.4634
C27 C 0.6855(3) 0.4724(3) 0.4093(2)
H22 H 0.6413 0.4835 0.3716
N9 N 0.1545(3) 0.3134(2) 0.1865(2)
C28 C 0.1066(4) 0.2779(3) 0.2442(2)
H23 H 0.0587 0.2370 0.2272
H24 H 0.1583 0.2513 0.2739
C29 C 0.0540(5) 0.3382(3) 0.2834(3)
H25 H -0.0035 0.3599 0.2557
H26 H 0.0991 0.3825 0.2966
C30 C 0.0191(6) 0.3000(4) 0.3450(4)
H27 H -0.0440 0.3249 0.3520
H28 H 0.0057 0.2433 0.3356
C31 C 0.0782(10) 0.3043(6) 0.4001(4)
H29 H 0.1201 0.2573 0.4049
H30 H 0.0391 0.3073 0.4364
H31 H 0.1193 0.3517 0.3998
C32 C 0.0767(4) 0.3503(3) 0.1355(3)
H32 H 0.0438 0.3937 0.1565
H33 H 0.1110 0.3743 0.1011
C33 C -0.0029(4) 0.2939(3) 0.1033(3)
H34 H -0.0411 0.2723 0.1367
H35 H 0.0288 0.2490 0.0833
C34 C -0.0729(4) 0.3366(4) 0.0508(3)
H36 H -0.1038 0.3814 0.0714
H37 H -0.0335 0.3590 0.0184
C35 C -0.1545(5) 0.2850(4) 0.0153(3)
H38 H -0.1254 0.2451 -0.0107
H39 H -0.1994 0.3184 -0.0132
H40 H -0.1908 0.2588 0.0470
C36 C 0.2089(4) 0.2443(3) 0.1566(3)
H41 H 0.2577 0.2222 0.1908
H42 H 0.1606 0.2020 0.1436
C37 C 0.2624(4) 0.2649(3) 0.0974(3)
H43 H 0.2162 0.2911 0.0638
H44 H 0.3169 0.3021 0.1107
C38 C 0.3030(5) 0.1889(4) 0.0695(4)
H45 H 0.3510 0.1652 0.1035
H46 H 0.2482 0.1509 0.0605
C39 C 0.3504(6) 0.1973(4) 0.0109(4)
H47 H 0.3092 0.2297 -0.0206
H48 H 0.3595 0.1449 -0.0077
H49 H 0.4144 0.2228 0.0214
C40 C 0.2256(4) 0.3798(3) 0.2092(3)
H50 H 0.1882 0.4235 0.2262
H51 H 0.2550 0.4003 0.1713
C41 C 0.3087(5) 0.3556(4) 0.2615(4)
H52 H 0.3594 0.3253 0.2421
H53 H 0.2829 0.3223 0.2947
C42 C 0.3542(7) 0.4360(6) 0.2933(4)
H54 H 0.3796 0.4682 0.2592
H55 H 0.3014 0.4667 0.3102
C43 C 0.4252(8) 0.4245(7) 0.3404(6)
H56 H 0.3981 0.4023 0.3780
H57 H 0.4574 0.4750 0.3524
H58 H 0.4731 0.3875 0.3260
loop_
_geom_bond_atom_site_label_1
_geom_bond_atom_site_label_2
_geom_bond_site_symmetry_1
_geom_bond_site_symmetry_2
O1 N1 1_555 1_555
O2 N1 1_555 1_555
O3 C7 1_555 1_555
O4 C14 1_555 1_555
O5 C21 1_555 1_555
O6 N8 1_555 1_555
O7 N8 1_555 1_555
N1 C1 1_555 1_555
N2 H1 1_555 1_555
N3 H2 1_555 1_555
N4 H3 1_555 1_555
N5 H4 1_555 1_555
N6 H5 1_555 1_555
N7 H6 1_555 1_555
N8 C25 1_555 1_555
N9 C28 1_555 1_555
C1 C2 1_555 1_555
C2 H7 1_555 1_555
C3 C2 1_555 1_555
H8 C3 1_555 1_555
C4 N2 1_555 1_555
C5 C4 1_555 1_555
H9 C5 1_555 1_555
C6 C1 1_555 1_555
H10 C6 1_555 1_555
C7 N2 1_555 1_555
C8 N3 1_555 1_555
C9 C8 1_555 1_555
H11 C9 1_555 1_555
C10 C9 1_555 1_555
H12 C10 1_555 1_555
C11 C10 1_555 1_555
H13 C11 1_555 1_555
C12 C11 1_555 1_555
H14 C12 1_555 1_555
C13 N4 1_555 1_555
C14 N4 1_555 1_555
C15 N5 1_555 1_555
C16 C15 1_555 1_555
H15 C16 1_555 1_555
C17 C16 1_555 1_555
H16 C17 1_555 1_555
C18 C17 1_555 1_555
H17 C18 1_555 1_555
C19 C18 1_555 1_555
H18 C19 1_555 1_555
C20 N6 1_555 1_555
C21 N6 1_555 1_555
C22 N7 1_555 1_555
C23 C22 1_555 1_555
H19 C23 1_555 1_555
C24 C23 1_555 1_555
H20 C24 1_555 1_555
C25 C24 1_555 1_555
C26 C25 1_555 1_555
H21 C26 1_555 1_555
C27 C22 1_555 1_555
H22 C27 1_555 1_555
C28 H23 1_555 1_555
H24 C28 1_555 1_555
C29 C28 1_555 1_555
H25 C29 1_555 1_555
H26 C29 1_555 1_555
C30 C29 1_555 1_555
H27 C30 1_555 1_555
H28 C30 1_555 1_555
C31 C30 1_555 1_555
H29 C31 1_555 1_555
H30 C31 1_555 1_555
H31 C31 1_555 1_555
C32 N9 1_555 1_555
H32 C32 1_555 1_555
H33 C32 1_555 1_555
C33 C32 1_555 1_555
H34 C33 1_555 1_555
H35 C33 1_555 1_555
C34 C33 1_555 1_555
H36 C34 1_555 1_555
H37 C34 1_555 1_555
C35 C34 1_555 1_555
H38 C35 1_555 1_555
H39 C35 1_555 1_555
H40 C35 1_555 1_555
C36 N9 1_555 1_555
H41 C36 1_555 1_555
H42 C36 1_555 1_555
C37 C36 1_555 1_555
H43 C37 1_555 1_555
H44 C37 1_555 1_555
C38 C37 1_555 1_555
H45 C38 1_555 1_555
H46 C38 1_555 1_555
C39 C38 1_555 1_555
H47 C39 1_555 1_555
H48 C39 1_555 1_555
H49 C39 1_555 1_555
C40 N9 1_555 1_555
H50 C40 1_555 1_555
H51 C40 1_555 1_555
C41 C40 1_555 1_555
H52 C41 1_555 1_555
H53 C41 1_555 1_555
C42 C41 1_555 1_555
H54 C42 1_555 1_555
H55 C42 1_555 1_555
C43 C42 1_555 1_555
H56 C43 1_555 1_555
H57 C43 1_555 1_555
H58 C43 1_555 1_555
N3 C7 1_555 1_555
N5 C14 1_555 1_555
N7 C21 1_555 1_555
C3 C4 1_555 1_555
C5 C6 1_555 1_555
C8 C13 1_555 1_555
C12 C13 1_555 1_555
C15 C20 1_555 1_555
C19 C20 1_555 1_555
C26 C27 1_555 1_555

#END
