
#######################################################################
#
#                 Cambridge Crystallographic Data Centre
#                                CCDC 
#
#######################################################################
#
# If this CIF has been generated from an entry in the Cambridge 
# Structural Database, then it will include bibliographic, chemical, 
# crystal, experimental, refinement or atomic coordinate data resulting 
# from the CCDC's data processing and validation procedures.
#
#######################################################################

data_ZATCEE
_chemical_formula_moiety         
'C41 H34 N12 O9,2(C8 H20 N1 1+),C3 H6 O1,2(Cl1 1-)'
_chemical_name_systematic        
"bis(tetraethylammonium) dichloride N',N''-(carbonylbis(azanediyl-2,1-phenylenecarbamoylazanediyl-2,1-phenylene))bis(N'-(4-nitrophenyl)urea) acetone solvate"
_symmetry_cell_setting           monoclinic
_symmetry_space_group_name_H-M   'P 21/n'
_symmetry_Int_Tables_number      14
_space_group_name_Hall           '-P 2yn'
loop_
_symmetry_equiv_pos_site_id
_symmetry_equiv_pos_as_xyz
1 x,y,z
2 1/2-x,1/2+y,1/2-z
3 -x,-y,-z
4 1/2+x,1/2-y,1/2+z
_cell_length_a                   21.418(3)
_cell_length_b                   13.542(2)
_cell_length_c                   23.871(4)
_cell_angle_alpha                90
_cell_angle_beta                 112.779(2)
_cell_angle_gamma                90
_cell_volume                     6383.6
_exptl_crystal_colour            yellow
_exptl_crystal_description       block
_cell_formula_units_Z            4
loop_
_atom_site_label
_atom_site_type_symbol
_atom_site_fract_x
_atom_site_fract_y
_atom_site_fract_z
Cl1 Cl 0.24158(6) 0.51154(9) 0.38164(6)
Cl2 Cl 0.11041(6) 0.48870(8) 0.45335(5)
O1 O 0.5035(2) 0.9117(3) 0.6029(2)
O2 O 0.5903(2) 0.8244(3) 0.6510(2)
O3 O 0.44149(19) 0.3688(3) 0.55466(17)
O4 O 0.15775(15) 0.1781(2) 0.33360(12)
O5 O -0.00087(15) 0.6199(2) 0.25479(15)
O6 O 0.25064(17) 0.8073(3) 0.48666(16)
O7 O 0.3004(2) 0.3589(3) 0.63565(16)
O8 O 0.1741(3) -0.1171(4) 0.5917(3)
O9 O 0.0782(4) -0.0853(4) 0.5188(4)
N1 N 0.5328(2) 0.8322(3) 0.61453(19)
N2 N 0.38682(18) 0.4994(3) 0.49520(16)
H1 H 0.3533 0.5138 0.4620
N3 N 0.34430(19) 0.3449(3) 0.46997(17)
H2 H 0.3166 0.3745 0.4382
N4 N 0.21283(17) 0.2730(2) 0.41662(14)
H3 H 0.2138 0.3308 0.4319
N5 N 0.10878(16) 0.3203(2) 0.34826(14)
H4 H 0.1108 0.3651 0.3744
N6 N 0.07679(16) 0.4949(2) 0.28632(15)
H5 H 0.1192 0.4835 0.3060
N7 N 0.10871(17) 0.6509(2) 0.31676(16)
H6 H 0.1474 0.6236 0.3360
N8 N 0.15229(18) 0.7289(3) 0.43138(15)
H7 H 0.1272 0.6788 0.4303
N9 N 0.21954(17) 0.6682(3) 0.52360(15)
H8 H 0.1869 0.6272 0.5173
N10 N 0.26747(19) 0.4794(3) 0.56284(16)
H9 H 0.2459 0.4874 0.5244
N11 N 0.2095(2) 0.3339(3) 0.54621(17)
H10 H 0.1826 0.3649 0.5147
N12 N 0.1340(4) -0.0613(4) 0.5539(3)
C1 C 0.4963(2) 0.7439(3) 0.58414(19)
C2 C 0.5279(2) 0.6539(3) 0.5953(2)
H11 H 0.5730 0.6491 0.6220
C3 C 0.4929(2) 0.5699(3) 0.5670(2)
H12 H 0.5143 0.5087 0.5748
C4 C 0.4257(2) 0.5778(3) 0.52692(18)
C5 C 0.3950(2) 0.6706(3) 0.51678(19)
H13 H 0.3500 0.6764 0.4900
C6 C 0.4295(2) 0.7534(3) 0.54539(19)
H14 H 0.4083 0.8147 0.5387
C7 C 0.3955(2) 0.4009(3) 0.5106(2)
C8 C 0.3331(2) 0.2435(3) 0.47575(18)
C9 C 0.3848(3) 0.1780(3) 0.5075(2)
H15 H 0.4290 0.2011 0.5260
C10 C 0.3713(3) 0.0796(3) 0.5118(2)
H16 H 0.4065 0.0368 0.5331
C11 C 0.3062(2) 0.0440(3) 0.4849(2)
H17 H 0.2973 -0.0225 0.4882
C12 C 0.2546(2) 0.1076(3) 0.45308(19)
H18 H 0.2106 0.0836 0.4346
C13 C 0.2671(2) 0.2073(3) 0.44814(17)
C14 C 0.1597(2) 0.2510(3) 0.36416(17)
C15 C 0.05362(19) 0.3222(3) 0.29171(17)
C16 C 0.0171(2) 0.2381(3) 0.2659(2)
H19 H 0.0287 0.1779 0.2862
C17 C -0.0373(2) 0.2432(4) 0.2094(2)
H20 H -0.0613 0.1864 0.1918
C18 C -0.0548(2) 0.3320(4) 0.1805(2)
H21 H -0.0913 0.3354 0.1432
C19 C -0.0192(2) 0.4167(3) 0.20544(19)
H22 H -0.0318 0.4766 0.1852
C20 C 0.03561(19) 0.4124(3) 0.26108(17)
C21 C 0.0567(2) 0.5910(3) 0.28299(18)
C22 C 0.1045(2) 0.7534(3) 0.32282(19)
C23 C 0.0780(2) 0.8161(3) 0.2726(2)
H23 H 0.0593 0.7896 0.2336
C24 C 0.0795(2) 0.9160(3) 0.2804(2)
H24 H 0.0617 0.9572 0.2468
C25 C 0.1072(2) 0.9562(3) 0.3380(2)
H25 H 0.1096 1.0244 0.3429
C26 C 0.1315(2) 0.8954(3) 0.3884(2)
H26 H 0.1489 0.9229 0.4271
C27 C 0.1301(2) 0.7942(3) 0.38144(19)
C28 C 0.2111(2) 0.7400(3) 0.48146(19)
C29 C 0.2792(2) 0.6564(3) 0.57768(18)
C30 C 0.3124(2) 0.7373(4) 0.6113(2)
H27 H 0.2946 0.8002 0.5998
C31 C 0.3716(3) 0.7258(4) 0.6617(2)
H28 H 0.3940 0.7804 0.6842
C32 C 0.3970(3) 0.6329(5) 0.6783(2)
H29 H 0.4376 0.6248 0.7116
C33 C 0.3637(2) 0.5515(4) 0.6469(2)
H30 H 0.3813 0.4889 0.6597
C34 C 0.3035(2) 0.5614(4) 0.59569(19)
C35 C 0.2632(2) 0.3886(4) 0.5857(2)
C36 C 0.1934(3) 0.2356(4) 0.5507(2)
C37 C 0.2377(3) 0.1683(4) 0.5903(2)
H31 H 0.2806 0.1885 0.6165
C38 C 0.2180(3) 0.0718(4) 0.5906(3)
H32 H 0.2475 0.0266 0.6172
C39 C 0.1553(3) 0.0422(4) 0.5519(3)
C40 C 0.1111(3) 0.1063(4) 0.5127(3)
H33 H 0.0683 0.0852 0.4868
C41 C 0.1307(3) 0.2034(4) 0.5118(2)
H34 H 0.1011 0.2475 0.4844
O10 O 0.1643(4) 0.0739(9) 0.7039(4)
C42 C 0.0741(6) -0.0278(8) 0.6786(6)
H35 H 0.1079 -0.0766 0.6987
H36 H 0.0493 -0.0475 0.6372
H37 H 0.0435 -0.0219 0.6990
C43 C 0.1048(5) 0.0614(7) 0.6797(4)
C44 C 0.0584(5) 0.1406(7) 0.6458(5)
H38 H 0.0808 0.1822 0.6268
H39 H 0.0454 0.1792 0.6733
H40 H 0.0188 0.1121 0.6153
N13 N 0.37423(19) 0.0550(3) 0.83880(18)
C45 C 0.3764(5) 0.1290(8) 0.7912(4)
C46 C 0.3163(4) 0.2059(6) 0.7725(4)
C47 C 0.3792(5) 0.1135(8) 0.8962(5)
C48 C 0.4420(4) 0.1736(6) 0.9224(4)
C49 C 0.4363(5) -0.0106(8) 0.8538(5)
C50 C 0.4415(4) -0.0919(6) 0.9010(4)
C51 C 0.3088(5) -0.0049(9) 0.8172(5)
C52 C 0.3002(4) -0.0728(6) 0.7599(4)
N14 N 0.17904(17) 0.3341(3) 0.17873(15)
C53 C 0.2275(3) 0.4012(4) 0.1634(2)
H41 H 0.2725 0.3724 0.1800
H42 H 0.2133 0.4039 0.1196
C54 C 0.2311(3) 0.5052(4) 0.1874(3)
H43 H 0.2431 0.5032 0.2305
H44 H 0.1879 0.5366 0.1682
H45 H 0.2647 0.5418 0.1787
C55 C 0.1091(2) 0.3746(4) 0.1551(2)
H46 H 0.1100 0.4390 0.1733
H47 H 0.0808 0.3318 0.1679
C56 C 0.0764(3) 0.3854(5) 0.0853(3)
H48 H 0.1054 0.4243 0.0718
H49 H 0.0333 0.4174 0.0739
H50 H 0.0703 0.3212 0.0669
C57 C 0.1830(3) 0.2347(4) 0.1536(3)
H51 H 0.2288 0.2097 0.1737
H52 H 0.1741 0.2414 0.1107
C58 C 0.1327(3) 0.1581(4) 0.1611(3)
H53 H 0.1431 0.1476 0.2036
H54 H 0.1367 0.0968 0.1426
H55 H 0.0873 0.1826 0.1419
C59 C 0.2013(3) 0.3297(4) 0.2475(2)
H56 H 0.1703 0.2871 0.2570
H57 H 0.1974 0.3954 0.2621
C60 C 0.2733(3) 0.2925(5) 0.2820(3)
H58 H 0.2818 0.2371 0.2610
H59 H 0.2785 0.2728 0.3222
H60 H 0.3049 0.3443 0.2846
C61? C 0.3055(7) 0.1088(11) 0.8203(7)
C62? C 0.3163(4) 0.2059(6) 0.7725(4)
C63? C 0.4360(8) 0.1092(13) 0.8575(7)
C64? C 0.4420(4) 0.1736(6) 0.9224(4)
C65? C 0.3749(8) -0.0256(13) 0.8866(7)
C66? C 0.4415(4) -0.0919(6) 0.9010(4)
C67? C 0.3695(8) -0.0053(13) 0.7792(7)
C68? C 0.3002(4) -0.0728(6) 0.7599(4)
loop_
_geom_bond_atom_site_label_1
_geom_bond_atom_site_label_2
_geom_bond_site_symmetry_1
_geom_bond_site_symmetry_2
O1 N1 1_555 1_555
O2 N1 1_555 1_555
O3 C7 1_555 1_555
O4 C14 1_555 1_555
O5 C21 1_555 1_555
O6 C28 1_555 1_555
O7 C35 1_555 1_555
O8 N12 1_555 1_555
O9 N12 1_555 1_555
N1 C1 1_555 1_555
N2 H1 1_555 1_555
N3 H2 1_555 1_555
N4 H3 1_555 1_555
N5 H4 1_555 1_555
N6 H5 1_555 1_555
N7 H6 1_555 1_555
N8 H7 1_555 1_555
N9 H8 1_555 1_555
N10 H9 1_555 1_555
N11 H10 1_555 1_555
N12 C39 1_555 1_555
C1 C2 1_555 1_555
C2 H11 1_555 1_555
C3 C2 1_555 1_555
H12 C3 1_555 1_555
C4 N2 1_555 1_555
C5 C4 1_555 1_555
H13 C5 1_555 1_555
C6 C1 1_555 1_555
H14 C6 1_555 1_555
C7 N2 1_555 1_555
C8 N3 1_555 1_555
C9 C8 1_555 1_555
H15 C9 1_555 1_555
C10 C9 1_555 1_555
H16 C10 1_555 1_555
C11 C10 1_555 1_555
H17 C11 1_555 1_555
C12 C11 1_555 1_555
H18 C12 1_555 1_555
C13 N4 1_555 1_555
C14 N4 1_555 1_555
C15 N5 1_555 1_555
C16 C15 1_555 1_555
H19 C16 1_555 1_555
C17 C16 1_555 1_555
H20 C17 1_555 1_555
C18 C17 1_555 1_555
H21 C18 1_555 1_555
C19 C18 1_555 1_555
H22 C19 1_555 1_555
C20 N6 1_555 1_555
C21 N6 1_555 1_555
C22 N7 1_555 1_555
C23 C22 1_555 1_555
H23 C23 1_555 1_555
C24 C23 1_555 1_555
H24 C24 1_555 1_555
C25 C24 1_555 1_555
H25 C25 1_555 1_555
C26 C25 1_555 1_555
H26 C26 1_555 1_555
C27 N8 1_555 1_555
C28 N8 1_555 1_555
C29 N9 1_555 1_555
C30 C29 1_555 1_555
H27 C30 1_555 1_555
C31 C30 1_555 1_555
H28 C31 1_555 1_555
C32 C31 1_555 1_555
H29 C32 1_555 1_555
C33 C32 1_555 1_555
H30 C33 1_555 1_555
C34 N10 1_555 1_555
C35 N10 1_555 1_555
C36 N11 1_555 1_555
C37 C36 1_555 1_555
H31 C37 1_555 1_555
C38 C37 1_555 1_555
H32 C38 1_555 1_555
C39 C38 1_555 1_555
C40 C39 1_555 1_555
H33 C40 1_555 1_555
C41 C36 1_555 1_555
H34 C41 1_555 1_555
O10 C43 1_555 1_555
C42 H35 1_555 1_555
H36 C42 1_555 1_555
H37 C42 1_555 1_555
C43 C42 1_555 1_555
C44 C43 1_555 1_555
H38 C44 1_555 1_555
H39 C44 1_555 1_555
H40 C44 1_555 1_555
N13 C45 1_555 1_555
C45 C46 1_555 1_555
C47 N13 1_555 1_555
C48 C47 1_555 1_555
C49 N13 1_555 1_555
C50 C49 1_555 1_555
C51 N13 1_555 1_555
C52 C51 1_555 1_555
N14 C53 1_555 1_555
C53 H41 1_555 1_555
H42 C53 1_555 1_555
C54 C53 1_555 1_555
H43 C54 1_555 1_555
H44 C54 1_555 1_555
H45 C54 1_555 1_555
C55 N14 1_555 1_555
H46 C55 1_555 1_555
H47 C55 1_555 1_555
C56 C55 1_555 1_555
H48 C56 1_555 1_555
H49 C56 1_555 1_555
H50 C56 1_555 1_555
C57 N14 1_555 1_555
H51 C57 1_555 1_555
H52 C57 1_555 1_555
C58 C57 1_555 1_555
H53 C58 1_555 1_555
H54 C58 1_555 1_555
H55 C58 1_555 1_555
C59 N14 1_555 1_555
H56 C59 1_555 1_555
H57 C59 1_555 1_555
C60 C59 1_555 1_555
H58 C60 1_555 1_555
H59 C60 1_555 1_555
H60 C60 1_555 1_555
N3 C7 1_555 1_555
N5 C14 1_555 1_555
N7 C21 1_555 1_555
N9 C28 1_555 1_555
N11 C35 1_555 1_555
C3 C4 1_555 1_555
C5 C6 1_555 1_555
C8 C13 1_555 1_555
C12 C13 1_555 1_555
C15 C20 1_555 1_555
C19 C20 1_555 1_555
C22 C27 1_555 1_555
C26 C27 1_555 1_555
C29 C34 1_555 1_555
C33 C34 1_555 1_555
C40 C41 1_555 1_555

#END
