
#######################################################################
#
#                 Cambridge Crystallographic Data Centre
#                                CCDC 
#
#######################################################################
#
# If this CIF has been generated from an entry in the Cambridge 
# Structural Database, then it will include bibliographic, chemical, 
# crystal, experimental, refinement or atomic coordinate data resulting 
# from the CCDC's data processing and validation procedures.
#
#######################################################################

data_ZATCUU
_chemical_formula_moiety         'C13 H28 B1 N1 O4 S1'
_chemical_name_systematic        
(N,N-Dimethylmethanamine)(dihydrido)((2-hydroxy-7,7-dimethylbicyclo[2.2.1]hept-1-yl)methanesulfonato)boron
_symmetry_cell_setting           orthorhombic
_symmetry_space_group_name_H-M   'P 21 21 21'
_symmetry_Int_Tables_number      19
_space_group_name_Hall           'P 2ac 2ab'
loop_
_symmetry_equiv_pos_site_id
_symmetry_equiv_pos_as_xyz
1 x,y,z
2 1/2-x,-y,1/2+z
3 -x,1/2+y,1/2-z
4 1/2+x,1/2-y,-z
_cell_length_a                   6.8265(5)
_cell_length_b                   9.4699(8)
_cell_length_c                   24.772(2)
_cell_angle_alpha                90
_cell_angle_beta                 90
_cell_angle_gamma                90
_cell_volume                     1601.42
_exptl_crystal_colour            colorless
_exptl_crystal_description       needle
_cell_formula_units_Z            4
loop_
_atom_site_label
_atom_site_type_symbol
_atom_site_fract_x
_atom_site_fract_y
_atom_site_fract_z
B1 B 0.3664(3) 0.6617(2) 0.85457(8)
H1 H 0.3910 0.6440 0.8934
H2 H 0.4428 0.7456 0.8434
N1 N 0.42937(19) 0.52626(13) 0.81929(5)
S1 S 0.05024(5) 0.79845(4) 0.810206(13)
O1 O 0.15103(17) 0.68601(12) 0.84483(5)
O2 O -0.0633(2) 0.72584(15) 0.76969(5)
O3 O 0.18453(18) 0.90444(13) 0.79177(5)
O4 O -0.07085(18) 1.17470(12) 0.83631(5)
H3 H -0.019(4) 1.160(3) 0.8054(11)
C1 C 0.2985(3) 0.4063(2) 0.83105(14)
H4 H 0.1648 0.4297 0.8197
H5 H 0.2998 0.3869 0.8699
H6 H 0.3437 0.3227 0.8114
C2 C 0.6321(3) 0.48569(19) 0.83453(7)
H7 H 0.6381 0.4679 0.8735
H8 H 0.7223 0.5625 0.8252
H9 H 0.6698 0.3999 0.8150
C3 C 0.4276(3) 0.5583(3) 0.76092(7)
H10 H 0.4731 0.4756 0.7407
H11 H 0.5145 0.6385 0.7537
H12 H 0.2940 0.5821 0.7497
C4 C -0.1217(2) 0.87326(15) 0.85550(6)
H13 H -0.2189 0.9269 0.8340
H14 H -0.1927 0.7950 0.8734
C5 C -0.0429(2) 0.97038(13) 0.89904(5)
C6 C 0.1174(2) 0.90810(16) 0.93613(6)
H15 H 0.2479 0.9142 0.9189
H16 H 0.0892 0.8082 0.9450
C7 C 0.1072(2) 1.00249(18) 0.98746(6)
H17 H 0.0728 0.9462 1.0198
H18 H 0.2332 1.0514 0.9939
C8 C -0.0559(2) 1.10796(16) 0.97333(6)
H19 H -0.1142 1.1572 1.0052
C9 C 0.0260(2) 1.20767(17) 0.92993(6)
H20 H 0.1567 1.2439 0.9404
H21 H -0.0631 1.2886 0.9239
C10 C 0.0396(2) 1.11341(15) 0.87872(6)
H22 H 0.1795 1.1022 0.8675
C11 C -0.2028(2) 1.01651(16) 0.94102(6)
C12 C -0.3744(2) 1.10003(17) 0.91716(7)
H23 H -0.4491 1.0392 0.8927
H24 H -0.3240 1.1816 0.8972
H25 H -0.4599 1.1327 0.9464
C13 C -0.2899(2) 0.89504(17) 0.97368(6)
H26 H -0.3650 0.9332 1.0041
H27 H -0.1840 0.8350 0.9874
H28 H -0.3765 0.8390 0.9505
loop_
_geom_bond_atom_site_label_1
_geom_bond_atom_site_label_2
_geom_bond_site_symmetry_1
_geom_bond_site_symmetry_2
B1 H1 1_555 1_555
H2 B1 1_555 1_555
N1 B1 1_555 1_555
S1 O1 1_555 1_555
O1 B1 1_555 1_555
O2 S1 1_555 1_555
O3 S1 1_555 1_555
O4 H3 1_555 1_555
C1 N1 1_555 1_555
H4 C1 1_555 1_555
H5 C1 1_555 1_555
H6 C1 1_555 1_555
C2 N1 1_555 1_555
H7 C2 1_555 1_555
H8 C2 1_555 1_555
H9 C2 1_555 1_555
C3 N1 1_555 1_555
H10 C3 1_555 1_555
H11 C3 1_555 1_555
H12 C3 1_555 1_555
C4 S1 1_555 1_555
H13 C4 1_555 1_555
H14 C4 1_555 1_555
C5 C4 1_555 1_555
C6 C5 1_555 1_555
H15 C6 1_555 1_555
H16 C6 1_555 1_555
C7 C6 1_555 1_555
H17 C7 1_555 1_555
H18 C7 1_555 1_555
C8 C7 1_555 1_555
H19 C8 1_555 1_555
C9 C8 1_555 1_555
H20 C9 1_555 1_555
H21 C9 1_555 1_555
C10 O4 1_555 1_555
H22 C10 1_555 1_555
C11 C5 1_555 1_555
C12 C11 1_555 1_555
H23 C12 1_555 1_555
H24 C12 1_555 1_555
H25 C12 1_555 1_555
C13 C11 1_555 1_555
H26 C13 1_555 1_555
H27 C13 1_555 1_555
H28 C13 1_555 1_555
C5 C10 1_555 1_555
C8 C11 1_555 1_555
C9 C10 1_555 1_555

#END
