
#######################################################################
#
#                 Cambridge Crystallographic Data Centre
#                                CCDC 
#
#######################################################################
#
# If this CIF has been generated from an entry in the Cambridge 
# Structural Database, then it will include bibliographic, chemical, 
# crystal, experimental, refinement or atomic coordinate data resulting 
# from the CCDC's data processing and validation procedures.
#
#######################################################################

data_ZATCAA
_chemical_formula_moiety         'C34 H28 N10 O8,2(Cl1 1-),2(C16 H36 N1 1+)'
_chemical_name_systematic        
"bis(n-butylammonium) dichloride 1,1'-(1,2-phenylenebis(carbamoylimino-2,1-phenylene))bis(3-(4-nitrophenyl)urea)"
_symmetry_cell_setting           monoclinic
_symmetry_space_group_name_H-M   'C c'
_symmetry_Int_Tables_number      9
_space_group_name_Hall           'C -2yc'
loop_
_symmetry_equiv_pos_site_id
_symmetry_equiv_pos_as_xyz
1 x,y,z
2 x,-y,1/2+z
3 1/2+x,1/2+y,z
4 1/2+x,1/2-y,1/2+z
_cell_length_a                   19.8924(18)
_cell_length_b                   18.5940(18)
_cell_length_c                   18.4455(18)
_cell_angle_alpha                90
_cell_angle_beta                 90.145(2)
_cell_angle_gamma                90
_cell_volume                     6822.59
_exptl_crystal_colour            yellow
_exptl_crystal_description       block
_cell_formula_units_Z            4
loop_
_atom_site_label
_atom_site_type_symbol
_atom_site_fract_x
_atom_site_fract_y
_atom_site_fract_z
Cl1 Cl 0.17177(6) 0.35548(6) 0.71127(6)
Cl2 Cl 0.14239(6) 0.16768(7) 0.67170(7)
O1 O 0.3784(3) 0.3741(3) 0.2977(4)
O2 O 0.4340(3) 0.4141(3) 0.3914(4)
O3 O 0.06907(19) 0.3345(2) 0.4587(2)
O4 O -0.05388(17) 0.2940(2) 0.80007(19)
O5 O 0.25864(19) 0.1793(2) 0.9058(2)
O6 O 0.36886(19) 0.2189(3) 0.5571(2)
O7 O 0.1279(2) 0.1934(3) 0.2444(2)
O8 O 0.2314(2) 0.2130(4) 0.2160(3)
N1 N 0.3824(3) 0.3891(3) 0.3631(4)
N2 N 0.1567(2) 0.3471(2) 0.5392(2)
H1 H 0.1657 0.3488 0.5859
N3 N 0.0533(2) 0.3179(3) 0.5804(2)
H2 H 0.0752 0.3144 0.6218
N4 N -0.0007(2) 0.2494(2) 0.6991(2)
H3 H 0.0340 0.2240 0.6845
N5 N 0.0444(2) 0.2310(2) 0.8118(2)
H4 H 0.0742 0.2064 0.7868
N6 N 0.1726(2) 0.2451(2) 0.8565(2)
H5 H 0.1610 0.2701 0.8180
N7 N 0.2710(2) 0.2367(2) 0.7966(2)
H6 H 0.2479 0.2568 0.7613
N8 N 0.3121(2) 0.1989(3) 0.6631(2)
H7 H 0.2723 0.1875 0.6806
N9 N 0.2582(2) 0.1839(3) 0.5544(3)
H8 H 0.2247 0.1712 0.5828
N10 N 0.1880(3) 0.1987(3) 0.2614(3)
C1 C 0.3230(3) 0.3785(3) 0.4083(4)
C2 C 0.2613(3) 0.3680(3) 0.3746(3)
H9 H 0.2580 0.3672 0.3232
C3 C 0.2052(3) 0.3587(3) 0.4169(3)
H10 H 0.1626 0.3521 0.3945
C4 C 0.2101(3) 0.3587(3) 0.4924(3)
C5 C 0.2745(3) 0.3687(3) 0.5249(4)
H11 H 0.2790 0.3677 0.5762
C6 C 0.3300(3) 0.3796(3) 0.4825(4)
H12 H 0.3727 0.3880 0.5040
C7 C 0.0905(2) 0.3331(3) 0.5199(3)
C8 C -0.0178(2) 0.3070(3) 0.5822(3)
C9 C -0.0600(3) 0.3295(3) 0.5282(3)
H13 H -0.0420 0.3509 0.4857
C10 C -0.1291(3) 0.3211(4) 0.5353(3)
H14 H -0.1581 0.3367 0.4974
C11 C -0.1560(3) 0.2903(4) 0.5970(3)
H15 H -0.2034 0.2851 0.6016
C12 C -0.1140(3) 0.2671(3) 0.6522(3)
H16 H -0.1326 0.2458 0.6945
C13 C -0.0448(2) 0.2748(3) 0.6461(3)
C14 C -0.0072(2) 0.2611(3) 0.7734(3)
C15 C 0.0551(2) 0.2350(3) 0.8871(3)
C16 C 0.0053(3) 0.2356(3) 0.9377(3)
H17 H -0.0403 0.2366 0.9222
C17 C 0.0197(3) 0.2349(3) 1.0116(3)
H18 H -0.0157 0.2355 1.0460
C18 C 0.0867(3) 0.2334(3) 1.0346(3)
H19 H 0.0970 0.2311 1.0849
C19 C 0.1375(3) 0.2354(3) 0.9843(3)
H20 H 0.1830 0.2355 1.0003
C20 C 0.1238(2) 0.2372(3) 0.9110(3)
C21 C 0.2368(2) 0.2174(3) 0.8576(3)
C22 C 0.3406(3) 0.2269(3) 0.7859(3)
C23 C 0.3879(3) 0.2341(3) 0.8401(3)
H21 H 0.3733 0.2409 0.8886
C24 C 0.4558(3) 0.2318(3) 0.8257(4)
H22 H 0.4874 0.2361 0.8642
C25 C 0.4781(3) 0.2231(3) 0.7540(3)
H23 H 0.5247 0.2249 0.7432
C26 C 0.4314(3) 0.2118(3) 0.6991(3)
H24 H 0.4466 0.2038 0.6510
C27 C 0.3634(3) 0.2121(3) 0.7135(3)
C28 C 0.3181(3) 0.2020(3) 0.5879(3)
C29 C 0.2456(3) 0.1838(3) 0.4802(3)
C30 C 0.2939(3) 0.1871(3) 0.4271(3)
H25 H 0.3400 0.1864 0.4406
C31 C 0.2770(3) 0.1912(3) 0.3547(3)
H26 H 0.3105 0.1948 0.3183
C32 C 0.2068(3) 0.1899(3) 0.3364(3)
C33 C 0.1593(3) 0.1836(3) 0.3889(3)
H27 H 0.1133 0.1813 0.3753
C34 C 0.1760(3) 0.1803(3) 0.4601(3)
H28 H 0.1421 0.1758 0.4960
N11 N 0.0145(3) 0.5037(2) 0.2831(3)
C35 C 0.0576(3) 0.4398(3) 0.2608(4)
H29 H 0.0643 0.4088 0.3038
H30 H 0.0323 0.4114 0.2245
C36 C 0.1258(4) 0.4570(4) 0.2295(4)
H31 H 0.1547 0.4780 0.2678
H32 H 0.1207 0.4931 0.1904
C37 C 0.1588(4) 0.3899(4) 0.1993(5)
H33 H 0.1627 0.3537 0.2385
H34 H 0.1295 0.3694 0.1610
C38 C 0.2279(5) 0.4036(5) 0.1679(7)
H35 H 0.2245 0.4394 0.1291
H36 H 0.2460 0.3586 0.1482
H37 H 0.2578 0.4215 0.2060
C39 C 0.0515(3) 0.5533(3) 0.3343(3)
H38 H 0.0207 0.5925 0.3487
H39 H 0.0894 0.5754 0.3077
C40 C 0.0794(5) 0.5178(4) 0.4035(5)
H40 H 0.0419 0.4974 0.4321
H41 H 0.1100 0.4780 0.3903
C41 C 0.1170(4) 0.5729(5) 0.4489(6)
C42 C -0.0489(3) 0.4730(3) 0.3176(3)
H42 H -0.0696 0.4389 0.2828
H43 H -0.0356 0.4451 0.3610
C43 C -0.1019(3) 0.5274(3) 0.3400(3)
H44 H -0.0859 0.5546 0.3828
H45 H -0.1096 0.5619 0.3000
C44 C -0.1673(4) 0.4894(3) 0.3581(4)
H46 H -0.1952 0.5216 0.3884
H47 H -0.1572 0.4458 0.3870
C45 C -0.2075(4) 0.4676(4) 0.2907(5)
H48 H -0.2201 0.5108 0.2634
H49 H -0.2481 0.4418 0.3055
H50 H -0.1799 0.4363 0.2601
C46 C -0.0043(4) 0.5502(3) 0.2175(3)
H51 H -0.0278 0.5936 0.2355
H52 H 0.0379 0.5665 0.1943
C47 C -0.0480(4) 0.5156(4) 0.1596(4)
H53 H -0.0761 0.4784 0.1830
H54 H -0.0788 0.5528 0.1401
C48 C -0.0122(5) 0.4817(5) 0.0972(5)
H55 H 0.0148 0.4405 0.1148
H56 H 0.0189 0.5171 0.0753
C49 C -0.0629(6) 0.4558(5) 0.0398(4)
H57 H -0.0945 0.4220 0.0620
H58 H -0.0388 0.4317 0.0004
H59 H -0.0876 0.4971 0.0204
C62 C 0.1657(10) 0.5507(8) 0.4981(8)
N12 N 0.5142(3) 0.4875(2) 0.6731(3)
C50 C 0.5379(4) 0.5287(4) 0.7388(4)
H60 H 0.5681 0.5675 0.7218
H61 H 0.4982 0.5521 0.7609
C51 C 0.5734(4) 0.4887(4) 0.7966(4)
H62 H 0.6111 0.4606 0.7759
H63 H 0.5423 0.4551 0.8211
C52 C 0.6008(5) 0.5459(5) 0.8519(5)
H64 H 0.6305 0.5801 0.8262
H65 H 0.5626 0.5734 0.8722
C53 C 0.6384(6) 0.5122(6) 0.9112(5)
H66 H 0.6105 0.4752 0.9340
H67 H 0.6503 0.5488 0.9473
H68 H 0.6794 0.4903 0.8921
C54 C 0.5702(4) 0.4443(3) 0.6395(3)
H69 H 0.5528 0.4210 0.5950
H70 H 0.5831 0.4056 0.6737
C55 C 0.6338(4) 0.4869(3) 0.6196(4)
H71 H 0.6233 0.5198 0.5790
H72 H 0.6476 0.5166 0.6617
C56 C 0.6914(4) 0.4387(4) 0.5982(5)
H73 H 0.6769 0.4072 0.5579
H74 H 0.7036 0.4076 0.6398
C57 C 0.7532(5) 0.4812(5) 0.5747(6)
H75 H 0.7420 0.5104 0.5322
H76 H 0.7895 0.4478 0.5624
H77 H 0.7678 0.5126 0.6144
C58 C 0.4887(5) 0.5453(4) 0.6197(5)
C59 C 0.4584(4) 0.4342(4) 0.6921(5)
C60 C 0.4426(11) 0.5180(10) 0.5666(11)
C61 C 0.4213(16) 0.5821(13) 0.5170(15)
C63 C 0.4007(7) 0.4653(6) 0.7478(9)
C65 C 0.4721(15) 0.6272(13) 0.4882(13)
C67 C 0.3507(9) 0.4127(9) 0.7924(16)
C68 C 0.3019(8) 0.4350(9) 0.8235(9)
C64? C 0.3470(10) 0.4151(9) 0.7399(16)
C66? C 0.3876(7) 0.4707(8) 0.6917(11)
C69? C 0.1860(9) 0.5747(9) 0.4303(10)
C70? C 0.4761(9) 0.5147(9) 0.5352(9)
C71? C 0.4560(13) 0.5763(15) 0.4836(12)
C72? C 0.3833(14) 0.6077(12) 0.5114(12)
loop_
_geom_bond_atom_site_label_1
_geom_bond_atom_site_label_2
_geom_bond_site_symmetry_1
_geom_bond_site_symmetry_2
O1 N1 1_555 1_555
O2 N1 1_555 1_555
O3 C7 1_555 1_555
O4 C14 1_555 1_555
O5 C21 1_555 1_555
O6 C28 1_555 1_555
O7 N10 1_555 1_555
O8 N10 1_555 1_555
N1 C1 1_555 1_555
N2 H1 1_555 1_555
N3 H2 1_555 1_555
N4 H3 1_555 1_555
N5 H4 1_555 1_555
N6 H5 1_555 1_555
N7 H6 1_555 1_555
N8 H7 1_555 1_555
N9 H8 1_555 1_555
N10 C32 1_555 1_555
N11 C35 1_555 1_555
N12 C50 1_555 1_555
C1 C2 1_555 1_555
C2 H9 1_555 1_555
C3 C2 1_555 1_555
H10 C3 1_555 1_555
C4 N2 1_555 1_555
C5 C4 1_555 1_555
H11 C5 1_555 1_555
C6 C1 1_555 1_555
H12 C6 1_555 1_555
C7 N2 1_555 1_555
C8 N3 1_555 1_555
C9 C8 1_555 1_555
H13 C9 1_555 1_555
C10 C9 1_555 1_555
H14 C10 1_555 1_555
C11 C10 1_555 1_555
H15 C11 1_555 1_555
C12 C11 1_555 1_555
H16 C12 1_555 1_555
C13 N4 1_555 1_555
C14 N4 1_555 1_555
C15 N5 1_555 1_555
C16 C15 1_555 1_555
H17 C16 1_555 1_555
C17 C16 1_555 1_555
H18 C17 1_555 1_555
C18 C17 1_555 1_555
H19 C18 1_555 1_555
C19 C18 1_555 1_555
H20 C19 1_555 1_555
C20 N6 1_555 1_555
C21 N6 1_555 1_555
C22 N7 1_555 1_555
C23 C22 1_555 1_555
H21 C23 1_555 1_555
C24 C23 1_555 1_555
H22 C24 1_555 1_555
C25 C24 1_555 1_555
H23 C25 1_555 1_555
C26 C25 1_555 1_555
H24 C26 1_555 1_555
C27 N8 1_555 1_555
C28 N8 1_555 1_555
C29 N9 1_555 1_555
C30 C29 1_555 1_555
H25 C30 1_555 1_555
C31 C30 1_555 1_555
H26 C31 1_555 1_555
C32 C31 1_555 1_555
C33 C32 1_555 1_555
H27 C33 1_555 1_555
C34 C29 1_555 1_555
H28 C34 1_555 1_555
C35 H29 1_555 1_555
H30 C35 1_555 1_555
C36 C35 1_555 1_555
H31 C36 1_555 1_555
H32 C36 1_555 1_555
C37 C36 1_555 1_555
H33 C37 1_555 1_555
H34 C37 1_555 1_555
C38 C37 1_555 1_555
H35 C38 1_555 1_555
H36 C38 1_555 1_555
H37 C38 1_555 1_555
C39 N11 1_555 1_555
H38 C39 1_555 1_555
H39 C39 1_555 1_555
C40 C39 1_555 1_555
H40 C40 1_555 1_555
H41 C40 1_555 1_555
C41 C40 1_555 1_555
C42 N11 1_555 1_555
H42 C42 1_555 1_555
H43 C42 1_555 1_555
C43 C42 1_555 1_555
H44 C43 1_555 1_555
H45 C43 1_555 1_555
C44 C43 1_555 1_555
H46 C44 1_555 1_555
H47 C44 1_555 1_555
C45 C44 1_555 1_555
H48 C45 1_555 1_555
H49 C45 1_555 1_555
H50 C45 1_555 1_555
C46 N11 1_555 1_555
H51 C46 1_555 1_555
H52 C46 1_555 1_555
C47 C46 1_555 1_555
H53 C47 1_555 1_555
H54 C47 1_555 1_555
C48 C47 1_555 1_555
H55 C48 1_555 1_555
H56 C48 1_555 1_555
C49 C48 1_555 1_555
H57 C49 1_555 1_555
H58 C49 1_555 1_555
H59 C49 1_555 1_555
C50 H60 1_555 1_555
H61 C50 1_555 1_555
C51 C50 1_555 1_555
H62 C51 1_555 1_555
H63 C51 1_555 1_555
C52 C51 1_555 1_555
H64 C52 1_555 1_555
H65 C52 1_555 1_555
C53 C52 1_555 1_555
H66 C53 1_555 1_555
H67 C53 1_555 1_555
H68 C53 1_555 1_555
C54 N12 1_555 1_555
H69 C54 1_555 1_555
H70 C54 1_555 1_555
C55 C54 1_555 1_555
H71 C55 1_555 1_555
H72 C55 1_555 1_555
C56 C55 1_555 1_555
H73 C56 1_555 1_555
H74 C56 1_555 1_555
C57 C56 1_555 1_555
H75 C57 1_555 1_555
H76 C57 1_555 1_555
H77 C57 1_555 1_555
C58 N12 1_555 1_555
C59 N12 1_555 1_555
C60 C58 1_555 1_555
C61 C60 1_555 1_555
C62 C41 1_555 1_555
C63 C59 1_555 1_555
C65 C61 1_555 1_555
C67 C63 1_555 1_555
C68 C67 1_555 1_555
N3 C7 1_555 1_555
N5 C14 1_555 1_555
N7 C21 1_555 1_555
N9 C28 1_555 1_555
C3 C4 1_555 1_555
C5 C6 1_555 1_555
C8 C13 1_555 1_555
C12 C13 1_555 1_555
C15 C20 1_555 1_555
C19 C20 1_555 1_555
C22 C27 1_555 1_555
C26 C27 1_555 1_555
C33 C34 1_555 1_555

#END
