
#######################################################################
#
#                 Cambridge Crystallographic Data Centre
#                                CCDC 
#
#######################################################################
#
# If this CIF has been generated from an entry in the Cambridge 
# Structural Database, then it will include bibliographic, chemical, 
# crystal, experimental, refinement or atomic coordinate data resulting 
# from the CCDC's data processing and validation procedures.
#
#######################################################################

data_ZATCOO
_chemical_formula_moiety         'C48 H40 N14 O10,2(C12 H28 N1 1+),2(Cl1 1-)'
_chemical_name_systematic        
"bis(tetraethylammonium) dichloride 1,1'-(1,2-phenylenebis(carbamoylimino-2,1-phenylenecarbamoylimino-2,1-phenylene))bis(3-(4-nitrophenyl)urea)"
_symmetry_cell_setting           monoclinic
_symmetry_space_group_name_H-M   'P 21/n'
_symmetry_Int_Tables_number      14
_space_group_name_Hall           '-P 2yn'
loop_
_symmetry_equiv_pos_site_id
_symmetry_equiv_pos_as_xyz
1 x,y,z
2 1/2-x,1/2+y,1/2-z
3 -x,-y,-z
4 1/2+x,1/2-y,1/2+z
_cell_length_a                   20.360(3)
_cell_length_b                   14.2083(18)
_cell_length_c                   26.254(3)
_cell_angle_alpha                90
_cell_angle_beta                 93.840(2)
_cell_angle_gamma                90
_cell_volume                     7577.73
_exptl_crystal_colour            yellow
_exptl_crystal_description       block
_cell_formula_units_Z            4
loop_
_atom_site_label
_atom_site_type_symbol
_atom_site_fract_x
_atom_site_fract_y
_atom_site_fract_z
Cl1 Cl 0.26147(5) 0.26880(7) 0.03958(4)
Cl2 Cl 0.28352(5) 0.40141(7) 0.17512(3)
O1 O 0.6224(2) 0.1746(3) 0.16935(19)
O2 O 0.6575(3) 0.2204(3) 0.1000(2)
O3 O 0.39910(13) 0.51885(18) 0.02423(10)
O4 O 0.08791(16) 0.5186(2) 0.07545(13)
O5 O 0.16295(12) 0.08758(18) 0.16386(10)
O6 O 0.47301(12) 0.09359(18) 0.08820(10)
O7 O 0.33169(14) 0.29968(19) -0.10542(11)
O8 O 0.07450(16) 0.3201(3) -0.09389(12)
O9 O -0.12811(18) 0.0762(3) 0.05971(14)
O10 O -0.05508(17) 0.0065(3) 0.10732(15)
N1 N 0.6172(3) 0.2227(3) 0.1314(2)
N2 N 0.39611(16) 0.4525(2) 0.10366(12)
H1 H 0.3741 0.4544 0.1305
N3 N 0.30834(16) 0.5338(2) 0.07013(11)
H2 H 0.2922 0.5195 0.0985
N4 N 0.18455(18) 0.4726(2) 0.04499(14)
H3 H 0.2101 0.4250 0.0418
N5 N 0.12464(17) 0.3678(2) 0.08645(13)
H4 H 0.1546 0.3295 0.0776
N6 N 0.16679(15) 0.2477(2) 0.16158(12)
H5 H 0.1927 0.2954 0.1649
N7 N 0.26205(13) 0.16367(19) 0.16372(10)
H6 H 0.2802 0.2167 0.1575
N8 N 0.36666(13) 0.1298(2) 0.10292(10)
H7 H 0.3346 0.1668 0.0937
N9 N 0.41415(14) 0.1919(2) 0.03373(11)
H8 H 0.3783 0.2238 0.0303
N10 N 0.39539(15) 0.3400(2) -0.03424(11)
H9 H 0.3958 0.3729 -0.0067
N11 N 0.30693(15) 0.4308(2) -0.06160(11)
H10 H 0.3129 0.4602 -0.0330
N12 N 0.18322(17) 0.3479(2) -0.07233(12)
H11 H 0.2163 0.3256 -0.0541
N13 N 0.12746(16) 0.2402(3) -0.02812(13)
H12 H 0.1664 0.2258 -0.0159
N14 N -0.0704(2) 0.0596(3) 0.07206(15)
C1 C 0.5608(2) 0.2846(3) 0.12278(19)
C2 C 0.5579(2) 0.3472(3) 0.08308(18)
H13 H 0.5920 0.3501 0.0612
C3 C 0.5043(2) 0.4059(3) 0.07579(15)
H14 H 0.5026 0.4502 0.0497
C4 C 0.45292(19) 0.3984(3) 0.10768(14)
C5 C 0.4571(2) 0.3336(3) 0.14761(15)
H15 H 0.4226 0.3290 0.1690
C6 C 0.5111(2) 0.2764(3) 0.15584(17)
H16 H 0.5141 0.2336 0.1827
C7 C 0.3702(2) 0.5034(3) 0.06268(15)
C8 C 0.2685(2) 0.5874(3) 0.03470(14)
C9 C 0.2912(3) 0.6687(3) 0.01243(17)
H17 H 0.3345 0.6884 0.0190
C10 C 0.2476(4) 0.7205(3) -0.0200(2)
H18 H 0.2620 0.7749 -0.0355
C11 C 0.1842(4) 0.6915(4) -0.0288(2)
H19 H 0.1555 0.7270 -0.0500
C12 C 0.1620(3) 0.6122(3) -0.00729(17)
H20 H 0.1184 0.5937 -0.0139
C13 C 0.2040(2) 0.5585(3) 0.02449(15)
C14 C 0.1290(2) 0.4584(3) 0.06926(17)
C15 C 0.07685(19) 0.3300(3) 0.11686(17)
C16 C 0.0111(2) 0.3524(4) 0.1093(2)
H21 H -0.0031 0.3974 0.0853
C17 C -0.0334(2) 0.3065(4) 0.1382(2)
H22 H -0.0780 0.3196 0.1327
C18 C -0.0129(2) 0.2424(4) 0.1744(2)
H23 H -0.0436 0.2120 0.1933
C19 C 0.0533(2) 0.2224(3) 0.18311(18)
H24 H 0.0673 0.1799 0.2085
C20 C 0.09829(19) 0.2651(3) 0.15459(16)
C21 C 0.19438(18) 0.1603(3) 0.16345(13)
C22 C 0.30349(16) 0.0845(2) 0.17371(12)
C23 C 0.29131(17) 0.0237(2) 0.21316(13)
H25 H 0.2550 0.0339 0.2322
C24 C 0.33209(18) -0.0517(3) 0.22461(14)
H26 H 0.3236 -0.0924 0.2511
C25 C 0.38535(19) -0.0659(3) 0.19645(15)
H27 H 0.4133 -0.1163 0.2043
C26 C 0.39840(17) -0.0070(2) 0.15670(14)
H28 H 0.4347 -0.0183 0.1379
C27 C 0.35750(16) 0.0691(2) 0.14457(12)
C28 C 0.42204(18) 0.1350(2) 0.07595(14)
C29 C 0.45870(17) 0.2034(2) -0.00461(13)
C30 C 0.51211(19) 0.1438(3) -0.00991(15)
H29 H 0.5201 0.0946 0.0131
C31 C 0.5530(2) 0.1571(3) -0.04871(17)
H30 H 0.5886 0.1169 -0.0517
C32 C 0.5421(2) 0.2285(4) -0.08315(17)
H31 H 0.5700 0.2367 -0.1094
C33 C 0.4899(2) 0.2879(3) -0.07864(15)
H32 H 0.4826 0.3369 -0.1018
C34 C 0.44802(18) 0.2756(2) -0.03978(13)
C35 C 0.34427(18) 0.3528(3) -0.06994(14)
C36 C 0.2585(2) 0.4650(3) -0.09886(13)
C37 C 0.2726(2) 0.5428(3) -0.12724(16)
H33 H 0.3143 0.5696 -0.1232
C38 C 0.2264(3) 0.5817(4) -0.16149(18)
H34 H 0.2360 0.6351 -0.1801
C39 C 0.1657(3) 0.5399(4) -0.16763(18)
H35 H 0.1345 0.5646 -0.1914
C40 C 0.1500(2) 0.4628(4) -0.13966(17)
H36 H 0.1083 0.4363 -0.1444
C41 C 0.1964(2) 0.4236(3) -0.10389(15)
C42 C 0.1243(2) 0.3049(4) -0.06688(16)
C43 C 0.0758(2) 0.1947(3) -0.00593(15)
C44 C 0.0095(2) 0.2065(4) -0.02152(16)
H37 H -0.0026 0.2444 -0.0495
C45 C -0.0374(2) 0.1625(4) 0.00427(17)
H38 H -0.0817 0.1714 -0.0057
C46 C -0.01986(19) 0.1052(3) 0.04478(15)
C47 C 0.0448(2) 0.0926(3) 0.06105(17)
H39 H 0.0563 0.0541 0.0889
C48 C 0.0920(2) 0.1375(3) 0.03582(17)
H40 H 0.1360 0.1297 0.0468
N15 N 0.14692(15) 0.7728(2) 0.16897(11)
C49 C 0.21176(18) 0.7413(3) 0.19551(14)
H41 H 0.2401 0.7960 0.2001
H42 H 0.2031 0.7183 0.2292
C50 C 0.2491(2) 0.6659(3) 0.16873(16)
H43 H 0.2498 0.6807 0.1327
H44 H 0.2275 0.6055 0.1720
C51 C 0.3194(2) 0.6610(3) 0.19292(16)
H45 H 0.3415 0.7194 0.1874
H46 H 0.3426 0.6106 0.1777
H47 H 0.3183 0.6500 0.2289
C52 C 0.0983(2) 0.6913(3) 0.16302(15)
H48 H 0.0601 0.7124 0.1420
H49 H 0.1186 0.6409 0.1447
C53 C 0.0752(2) 0.6519(3) 0.21147(17)
H50 H 0.0535 0.7009 0.2298
H51 H 0.1128 0.6299 0.2329
C54 C 0.0279(3) 0.5712(4) 0.2004(2)
H52 H -0.0073 0.5915 0.1768
H53 H 0.0102 0.5511 0.2316
H54 H 0.0508 0.5198 0.1859
C55 C 0.12177(19) 0.8507(3) 0.20191(14)
H55 H 0.1548 0.9000 0.2049
H56 H 0.1170 0.8257 0.2359
C56 C 0.0567(2) 0.8944(3) 0.18275(18)
H57 H 0.0620 0.9271 0.1508
H58 H 0.0240 0.8454 0.1764
C57 C 0.0337(3) 0.9625(4) 0.2216(2)
H59 H 0.0241 0.9289 0.2519
H60 H -0.0054 0.9939 0.2079
H61 H 0.0675 1.0081 0.2297
C58 C 0.1573(2) 0.8090(3) 0.11540(14)
H62 H 0.1680 0.7561 0.0941
H63 H 0.1162 0.8357 0.1011
C59 C 0.2113(3) 0.8829(3) 0.11303(18)
H64 H 0.2057 0.9300 0.1392
H65 H 0.2537 0.8532 0.1203
C60 C 0.2106(3) 0.9289(4) 0.0636(2)
H66 H 0.2177 0.8829 0.0378
H67 H 0.2448 0.9754 0.0641
H68 H 0.1687 0.9587 0.0563
N16 N 0.75848(17) 0.4448(2) 0.33523(14)
C61 C 0.8162(2) 0.3875(3) 0.32050(17)
H69 H 0.8177 0.3314 0.3416
H70 H 0.8066 0.3669 0.2856
C62 C 0.8804(3) 0.4261(5) 0.3234(2)
H71 H 0.8925 0.4411 0.3588
H72 H 0.8790 0.4848 0.3045
C63 C 0.9331(2) 0.3667(4) 0.3040(2)
H73 H 0.9380 0.3105 0.3242
H74 H 0.9738 0.4010 0.3061
H75 H 0.9217 0.3500 0.2691
C64 C 0.7736(3) 0.4910(4) 0.3862(2)
H76 H 0.8093 0.5352 0.3823
H77 H 0.7353 0.5278 0.3938
C65 C 0.7914(3) 0.4340(5) 0.4304(2)
H78 H 0.8221 0.3857 0.4211
H79 H 0.7523 0.4029 0.4413
C66 C 0.8219(4) 0.4895(4) 0.4736(2)
H80 H 0.8626 0.5160 0.4641
H81 H 0.8301 0.4493 0.5027
H82 H 0.7925 0.5393 0.4820
C67 C 0.7008(3) 0.3800(4) 0.3357(3)
H83 H 0.7147 0.3287 0.3583
H84 H 0.6674 0.4142 0.3528
C68 C 0.6686(3) 0.3388(5) 0.2944(3)
H85 H 0.7027 0.3101 0.2755
H86 H 0.6512 0.3905 0.2734
C69 C 0.6183(3) 0.2728(5) 0.2936(3)
H87 H 0.6362 0.2110 0.2896
H88 H 0.5868 0.2859 0.2656
H89 H 0.5969 0.2758 0.3251
C70 C 0.7426(3) 0.5225(3) 0.2961(2)
H90 H 0.7808 0.5633 0.2968
H91 H 0.7394 0.4924 0.2629
C71 C 0.6881(3) 0.5806(5) 0.2978(3)
H92 H 0.6916 0.6150 0.3298
H93 H 0.6490 0.5416 0.2978
C72 C 0.6794(4) 0.6494(5) 0.2552(3)
H94 H 0.7212 0.6767 0.2488
H95 H 0.6496 0.6981 0.2642
H96 H 0.6617 0.6177 0.2250
loop_
_geom_bond_atom_site_label_1
_geom_bond_atom_site_label_2
_geom_bond_site_symmetry_1
_geom_bond_site_symmetry_2
O1 N1 1_555 1_555
O2 N1 1_555 1_555
O3 C7 1_555 1_555
O4 C14 1_555 1_555
O5 C21 1_555 1_555
O6 C28 1_555 1_555
O7 C35 1_555 1_555
O8 C42 1_555 1_555
O9 N14 1_555 1_555
O10 N14 1_555 1_555
N1 C1 1_555 1_555
N2 H1 1_555 1_555
N3 H2 1_555 1_555
N4 H3 1_555 1_555
N5 H4 1_555 1_555
N6 H5 1_555 1_555
N7 H6 1_555 1_555
N8 H7 1_555 1_555
N9 H8 1_555 1_555
N10 H9 1_555 1_555
N11 H10 1_555 1_555
N12 H11 1_555 1_555
N13 H12 1_555 1_555
N14 C46 1_555 1_555
N15 C49 1_555 1_555
N16 C61 1_555 1_555
C1 C2 1_555 1_555
C2 H13 1_555 1_555
C3 C2 1_555 1_555
H14 C3 1_555 1_555
C4 N2 1_555 1_555
C5 C4 1_555 1_555
H15 C5 1_555 1_555
C6 C1 1_555 1_555
H16 C6 1_555 1_555
C7 N2 1_555 1_555
C8 N3 1_555 1_555
C9 C8 1_555 1_555
H17 C9 1_555 1_555
C10 C9 1_555 1_555
H18 C10 1_555 1_555
C11 C10 1_555 1_555
H19 C11 1_555 1_555
C12 C11 1_555 1_555
H20 C12 1_555 1_555
C13 N4 1_555 1_555
C14 N4 1_555 1_555
C15 N5 1_555 1_555
C16 C15 1_555 1_555
H21 C16 1_555 1_555
C17 C16 1_555 1_555
H22 C17 1_555 1_555
C18 C17 1_555 1_555
H23 C18 1_555 1_555
C19 C18 1_555 1_555
H24 C19 1_555 1_555
C20 N6 1_555 1_555
C21 N6 1_555 1_555
C22 N7 1_555 1_555
C23 C22 1_555 1_555
H25 C23 1_555 1_555
C24 C23 1_555 1_555
H26 C24 1_555 1_555
C25 C24 1_555 1_555
H27 C25 1_555 1_555
C26 C25 1_555 1_555
H28 C26 1_555 1_555
C27 N8 1_555 1_555
C28 N8 1_555 1_555
C29 N9 1_555 1_555
C30 C29 1_555 1_555
H29 C30 1_555 1_555
C31 C30 1_555 1_555
H30 C31 1_555 1_555
C32 C31 1_555 1_555
H31 C32 1_555 1_555
C33 C32 1_555 1_555
H32 C33 1_555 1_555
C34 N10 1_555 1_555
C35 N10 1_555 1_555
C36 N11 1_555 1_555
C37 C36 1_555 1_555
H33 C37 1_555 1_555
C38 C37 1_555 1_555
H34 C38 1_555 1_555
C39 C38 1_555 1_555
H35 C39 1_555 1_555
C40 C39 1_555 1_555
H36 C40 1_555 1_555
C41 N12 1_555 1_555
C42 N12 1_555 1_555
C43 N13 1_555 1_555
C44 C43 1_555 1_555
H37 C44 1_555 1_555
C45 C44 1_555 1_555
H38 C45 1_555 1_555
C46 C45 1_555 1_555
C47 C46 1_555 1_555
H39 C47 1_555 1_555
C48 C43 1_555 1_555
H40 C48 1_555 1_555
C49 H41 1_555 1_555
H42 C49 1_555 1_555
C50 C49 1_555 1_555
H43 C50 1_555 1_555
H44 C50 1_555 1_555
C51 C50 1_555 1_555
H45 C51 1_555 1_555
H46 C51 1_555 1_555
H47 C51 1_555 1_555
C52 N15 1_555 1_555
H48 C52 1_555 1_555
H49 C52 1_555 1_555
C53 C52 1_555 1_555
H50 C53 1_555 1_555
H51 C53 1_555 1_555
C54 C53 1_555 1_555
H52 C54 1_555 1_555
H53 C54 1_555 1_555
H54 C54 1_555 1_555
C55 N15 1_555 1_555
H55 C55 1_555 1_555
H56 C55 1_555 1_555
C56 C55 1_555 1_555
H57 C56 1_555 1_555
H58 C56 1_555 1_555
C57 C56 1_555 1_555
H59 C57 1_555 1_555
H60 C57 1_555 1_555
H61 C57 1_555 1_555
C58 N15 1_555 1_555
H62 C58 1_555 1_555
H63 C58 1_555 1_555
C59 C58 1_555 1_555
H64 C59 1_555 1_555
H65 C59 1_555 1_555
C60 C59 1_555 1_555
H66 C60 1_555 1_555
H67 C60 1_555 1_555
H68 C60 1_555 1_555
C61 H69 1_555 1_555
H70 C61 1_555 1_555
C62 C61 1_555 1_555
H71 C62 1_555 1_555
H72 C62 1_555 1_555
C63 C62 1_555 1_555
H73 C63 1_555 1_555
H74 C63 1_555 1_555
H75 C63 1_555 1_555
C64 N16 1_555 1_555
H76 C64 1_555 1_555
H77 C64 1_555 1_555
C65 C64 1_555 1_555
H78 C65 1_555 1_555
H79 C65 1_555 1_555
C66 C65 1_555 1_555
H80 C66 1_555 1_555
H81 C66 1_555 1_555
H82 C66 1_555 1_555
C67 N16 1_555 1_555
H83 C67 1_555 1_555
H84 C67 1_555 1_555
C68 C67 1_555 1_555
H85 C68 1_555 1_555
H86 C68 1_555 1_555
C69 C68 1_555 1_555
H87 C69 1_555 1_555
H88 C69 1_555 1_555
H89 C69 1_555 1_555
C70 N16 1_555 1_555
H90 C70 1_555 1_555
H91 C70 1_555 1_555
C71 C70 1_555 1_555
H92 C71 1_555 1_555
H93 C71 1_555 1_555
C72 C71 1_555 1_555
H94 C72 1_555 1_555
H95 C72 1_555 1_555
H96 C72 1_555 1_555
N3 C7 1_555 1_555
N5 C14 1_555 1_555
N7 C21 1_555 1_555
N9 C28 1_555 1_555
N11 C35 1_555 1_555
N13 C42 1_555 1_555
C3 C4 1_555 1_555
C5 C6 1_555 1_555
C8 C13 1_555 1_555
C12 C13 1_555 1_555
C15 C20 1_555 1_555
C19 C20 1_555 1_555
C22 C27 1_555 1_555
C26 C27 1_555 1_555
C29 C34 1_555 1_555
C33 C34 1_555 1_555
C36 C41 1_555 1_555
C40 C41 1_555 1_555
C47 C48 1_555 1_555

#END
