
#######################################################################
#
#                 Cambridge Crystallographic Data Centre
#                                CCDC 
#
#######################################################################
#
# If this CIF has been generated from an entry in the Cambridge 
# Structural Database, then it will include bibliographic, chemical, 
# crystal, experimental, refinement or atomic coordinate data resulting 
# from the CCDC's data processing and validation procedures.
#
#######################################################################

data_ZATFEH
_chemical_formula_moiety         'C15 H15 N1 O2'
_chemical_name_systematic        
5-Methoxy-10-azatetracyclo[10.2.1.0^2,11^.0^3,8^]pentadeca-3,5,7,13-tetraen-9-one
_symmetry_cell_setting           monoclinic
_symmetry_space_group_name_H-M   'P 21/c'
_symmetry_Int_Tables_number      14
_space_group_name_Hall           '-P 2ybc'
loop_
_symmetry_equiv_pos_site_id
_symmetry_equiv_pos_as_xyz
1 x,y,z
2 -x,1/2+y,1/2-z
3 -x,-y,-z
4 x,1/2-y,1/2+z
_cell_length_a                   10.299(3)
_cell_length_b                   8.974(3)
_cell_length_c                   12.702(4)
_cell_angle_alpha                90
_cell_angle_beta                 95.653(5)
_cell_angle_gamma                90
_cell_volume                     1168.25
_exptl_crystal_colour            colorless
_exptl_crystal_description       prism
_cell_formula_units_Z            4
loop_
_atom_site_label
_atom_site_type_symbol
_atom_site_fract_x
_atom_site_fract_y
_atom_site_fract_z
O1 O 0.73005(9) 0.20830(9) 1.07108(7)
O2 O 1.00906(9) 0.84304(9) 1.09920(7)
N1 N 0.88936(10) 0.86200(11) 0.94144(8)
C1 C 0.77760(14) 0.11407(14) 1.15664(10)
H1 H 0.8706 0.0944 1.1528
H2 H 0.7294 0.0198 1.1521
H3 H 0.7655 0.1633 1.2239
C2 C 0.78388(12) 0.34723(13) 1.06674(9)
C3 C 0.88078(12) 0.40357(14) 1.14045(9)
H4 H 0.9145 0.3454 1.1994
C4 C 0.92676(12) 0.54629(14) 1.12570(9)
H5 H 0.9936 0.5852 1.1750
C5 C 0.87783(12) 0.63432(13) 1.04086(9)
C6 C 0.93031(12) 0.78701(13) 1.02931(9)
C7 C 0.79900(12) 0.81330(13) 0.85220(9)
H6 H 0.8453 0.8074 0.7867
C8 C 0.68397(13) 0.92545(14) 0.83561(10)
H7 H 0.7081 1.0333 0.8414
C9 C 0.60496(13) 0.87924(14) 0.73425(10)
H8 H 0.6004 0.9305 0.6685
C10 C 0.54299(13) 0.75378(14) 0.75387(10)
H9 H 0.4846 0.7002 0.7051
C11 C 0.58247(13) 0.71173(14) 0.86820(10)
H10 H 0.5232 0.6412 0.9013
C12 C 0.72949(12) 0.66292(13) 0.87027(9)
H11 H 0.7379 0.5984 0.8071
C13 C 0.78101(12) 0.57686(13) 0.96687(9)
C14 C 0.73477(12) 0.43345(13) 0.98099(9)
H12 H 0.6687 0.3938 0.9314
C15 C 0.59737(13) 0.86733(15) 0.91799(11)
H13 H 0.5135 0.9215 0.9169
H14 H 0.6424 0.8658 0.9905
H15 H 0.9206(14) 0.9551(11) 0.9323(11)
loop_
_geom_bond_atom_site_label_1
_geom_bond_atom_site_label_2
_geom_bond_site_symmetry_1
_geom_bond_site_symmetry_2
O1 C1 1_555 1_555
O2 C6 1_555 1_555
N1 C6 1_555 1_555
C1 H1 1_555 1_555
H2 C1 1_555 1_555
H3 C1 1_555 1_555
C2 O1 1_555 1_555
C3 C2 1_555 1_555
H4 C3 1_555 1_555
C4 C3 1_555 1_555
H5 C4 1_555 1_555
C5 C4 1_555 1_555
C6 C5 1_555 1_555
C7 N1 1_555 1_555
H6 C7 1_555 1_555
C8 C7 1_555 1_555
H7 C8 1_555 1_555
C9 C8 1_555 1_555
H8 C9 1_555 1_555
C10 C9 1_555 1_555
H9 C10 1_555 1_555
C11 C10 1_555 1_555
H10 C11 1_555 1_555
C12 C7 1_555 1_555
H11 C12 1_555 1_555
C13 C5 1_555 1_555
C14 C2 1_555 1_555
H12 C14 1_555 1_555
C15 C8 1_555 1_555
H13 C15 1_555 1_555
H14 C15 1_555 1_555
H15 N1 1_555 1_555
C11 C12 1_555 1_555
C11 C15 1_555 1_555
C12 C13 1_555 1_555
C13 C14 1_555 1_555

#END
