
#######################################################################
#
#                 Cambridge Crystallographic Data Centre
#                                CCDC 
#
#######################################################################
#
# If this CIF has been generated from an entry in the Cambridge 
# Structural Database, then it will include bibliographic, chemical, 
# crystal, experimental, refinement or atomic coordinate data resulting 
# from the CCDC's data processing and validation procedures.
#
#######################################################################

data_ZATHUZ
_chemical_formula_moiety         'C22 H18'
_chemical_name_systematic        2-(1-Phenylbuta-1,3-dien-1-yl)biphenyl
_symmetry_cell_setting           monoclinic
_symmetry_space_group_name_H-M   'P 21/c'
_symmetry_Int_Tables_number      14
_space_group_name_Hall           '-P 2ybc'
loop_
_symmetry_equiv_pos_site_id
_symmetry_equiv_pos_as_xyz
1 x,y,z
2 -x,1/2+y,1/2-z
3 -x,-y,-z
4 x,1/2-y,1/2+z
_cell_length_a                   8.9698(18)
_cell_length_b                   18.143(4)
_cell_length_c                   9.6888(19)
_cell_angle_alpha                90
_cell_angle_beta                 91.91(3)
_cell_angle_gamma                90
_cell_volume                     1575.87
_exptl_crystal_colour            colorless
_exptl_crystal_description       block
_cell_formula_units_Z            4
loop_
_atom_site_label
_atom_site_type_symbol
_atom_site_fract_x
_atom_site_fract_y
_atom_site_fract_z
C1 C 0.4352(2) 0.53707(11) 0.8378(2)
H1 H 0.5258 0.5103 0.8495
C2 C 0.4393(3) 0.61237(12) 0.8151(2)
H2 H 0.5325 0.6371 0.8124
C3 C 0.3082(3) 0.65181(12) 0.7965(2)
H3 H 0.3114 0.7035 0.7812
C4 C 0.1729(3) 0.61594(13) 0.8002(2)
H4 H 0.0828 0.6428 0.7858
C5 C 0.1681(3) 0.54069(12) 0.8250(2)
H5 H 0.0744 0.5166 0.8296
C6 C 0.2991(2) 0.50006(11) 0.84338(19)
C7 C 0.2918(2) 0.41964(11) 0.8737(2)
C8 C 0.2074(2) 0.39608(13) 0.9838(2)
H6 H 0.1548 0.4315 1.0355
C9 C 0.1982(2) 0.32230(13) 1.0195(3)
H7 H 0.1401 0.3075 1.0949
C10 C 0.2741(2) 0.27045(13) 0.9449(3)
H8 H 0.2685 0.2197 0.9686
C11 C 0.3582(2) 0.29259(12) 0.8356(2)
H9 H 0.4106 0.2566 0.7850
C12 C 0.3683(2) 0.36683(11) 0.7976(2)
C13 C 0.4603(2) 0.38533(10) 0.6763(2)
C14 C 0.6210(2) 0.36578(10) 0.6884(2)
C15 C 0.6951(2) 0.36327(12) 0.8174(2)
H10 H 0.6417 0.3738 0.8982
C16 C 0.8451(2) 0.34571(13) 0.8292(2)
H11 H 0.8937 0.3445 0.9178
C17 C 0.9250(2) 0.32983(12) 0.7132(2)
H12 H 1.0281 0.3180 0.7216
C18 C 0.8531(3) 0.33140(13) 0.5853(2)
H13 H 0.9072 0.3206 0.5051
C19 C 0.7030(3) 0.34862(13) 0.5725(2)
H14 H 0.6549 0.3488 0.4836
C20 C 0.4008(2) 0.41592(11) 0.5599(2)
H15 H 0.4679 0.4282 0.4896
C21 C 0.2445(2) 0.43179(11) 0.5322(2)
H16 H 0.1756 0.4204 0.6015
C22 C 0.1926(3) 0.46138(14) 0.4150(3)
H17 H 0.2592 0.4732 0.3440
H18 H 0.0889 0.4707 0.4019
loop_
_geom_bond_atom_site_label_1
_geom_bond_atom_site_label_2
_geom_bond_site_symmetry_1
_geom_bond_site_symmetry_2
C1 H1 1_555 1_555
C2 C1 1_555 1_555
H2 C2 1_555 1_555
C3 C2 1_555 1_555
H3 C3 1_555 1_555
C4 C3 1_555 1_555
H4 C4 1_555 1_555
C5 C4 1_555 1_555
H5 C5 1_555 1_555
C6 C1 1_555 1_555
C7 C6 1_555 1_555
C8 C7 1_555 1_555
H6 C8 1_555 1_555
C9 C8 1_555 1_555
H7 C9 1_555 1_555
C10 C9 1_555 1_555
H8 C10 1_555 1_555
C11 C10 1_555 1_555
H9 C11 1_555 1_555
C12 C7 1_555 1_555
C13 C12 1_555 1_555
C14 C13 1_555 1_555
C15 C14 1_555 1_555
H10 C15 1_555 1_555
C16 C15 1_555 1_555
H11 C16 1_555 1_555
C17 C16 1_555 1_555
H12 C17 1_555 1_555
C18 C17 1_555 1_555
H13 C18 1_555 1_555
C19 C14 1_555 1_555
H14 C19 1_555 1_555
C20 C13 1_555 1_555
H15 C20 1_555 1_555
C21 C20 1_555 1_555
H16 C21 1_555 1_555
C22 C21 1_555 1_555
H17 C22 1_555 1_555
H18 C22 1_555 1_555
C5 C6 1_555 1_555
C11 C12 1_555 1_555
C18 C19 1_555 1_555

#END
