
#######################################################################
#
#                 Cambridge Crystallographic Data Centre
#                                CCDC 
#
#######################################################################
#
# If this CIF has been generated from an entry in the Cambridge 
# Structural Database, then it will include bibliographic, chemical, 
# crystal, experimental, refinement or atomic coordinate data resulting 
# from the CCDC's data processing and validation procedures.
#
#######################################################################

data_ZATJIQ
_chemical_formula_moiety         'C18 H14 Br1 N3 O2'
_chemical_name_systematic        
2-(1-benzyl-6-bromo-2-oxo-1,2-dihydro-3H-indol-3-ylidene)-5-oxopyrazolidin-2-ium-1-ide
_symmetry_cell_setting           triclinic
_symmetry_space_group_name_H-M   'P -1'
_symmetry_Int_Tables_number      2
_space_group_name_Hall           '-P 1'
loop_
_symmetry_equiv_pos_site_id
_symmetry_equiv_pos_as_xyz
1 x,y,z
2 -x,-y,-z
_cell_length_a                   8.2891(11)
_cell_length_b                   10.3190(14)
_cell_length_c                   10.7253(15)
_cell_angle_alpha                62.243(2)
_cell_angle_beta                 79.445(2)
_cell_angle_gamma                71.467(2)
_cell_volume                     769.051
_exptl_crystal_colour            brown
_exptl_crystal_description       block
_cell_formula_units_Z            2
loop_
_atom_site_label
_atom_site_type_symbol
_atom_site_fract_x
_atom_site_fract_y
_atom_site_fract_z
Br1 Br 0.69480(2) 0.903007(18) -0.345645(18)
O1 O 1.29638(16) -0.09746(15) -0.00522(14)
O2 O 0.73226(18) 0.18357(16) 0.33460(14)
N1 N 1.10434(18) 0.10671(16) 0.01870(15)
N2 N 0.99296(17) 0.12214(16) 0.12230(15)
N3 N 0.66475(18) 0.42606(17) 0.15193(15)
C1 C 1.1904(2) -0.04501(19) 0.06761(18)
C2 C 0.8875(2) 0.25457(19) 0.10488(18)
C3 C 0.7565(2) 0.2758(2) 0.21459(18)
C4 C 0.5325(2) 0.4973(2) 0.22909(19)
H1 H 0.4771 0.4205 0.3028
H2 H 0.4446 0.5784 0.1633
C5 C 0.60629(19) 0.5649(2) 0.29732(17)
C6 C 0.5896(2) 0.7202(2) 0.23649(18)
H3 H 0.5318 0.7848 0.1510
C7 C 0.6569(2) 0.7821(2) 0.29972(19)
H4 H 0.6424 0.8887 0.2588
C8 C 0.7450(2) 0.6873(2) 0.42261(19)
H5 H 0.7917 0.7289 0.4657
C9 C 0.73096(19) 0.50211(19) 0.01585(17)
C10 C 0.6749(2) 0.65285(19) -0.07819(18)
H6 H 0.5807 0.7213 -0.0561
C11 C 0.7656(2) 0.69875(18) -0.20830(18)
C12 C 0.9054(2) 0.60097(19) -0.24257(17)
H7 H 0.9646 0.6382 -0.3313
C13 C 0.95855(19) 0.44856(18) -0.14657(17)
H8 H 1.0528 0.3805 -0.1691
C14 C 0.86994(19) 0.39861(18) -0.01667(17)
C15 C 0.7649(2) 0.5315(2) 0.48272(18)
H9 H 0.8268 0.4665 0.5661
C16 C 0.6946(2) 0.4704(2) 0.42121(18)
H10 H 0.7067 0.3641 0.4636
C17 C 0.9913(2) -0.02315(19) 0.25238(18)
H11 H 0.8820 -0.0488 0.2663
H12 H 1.0122 -0.0174 0.3374
C18 C 1.1370(2) -0.1367(2) 0.21893(19)
H13 H 1.0990 -0.2225 0.2278
H14 H 1.2319 -0.1771 0.2825
loop_
_geom_bond_atom_site_label_1
_geom_bond_atom_site_label_2
_geom_bond_site_symmetry_1
_geom_bond_site_symmetry_2
Br1 C11 1_555 1_555
O1 C1 1_555 1_555
O2 C3 1_555 1_555
N1 N2 1_555 1_555
N2 C2 1_555 1_555
N3 C3 1_555 1_555
C1 N1 1_555 1_555
C2 C3 1_555 1_555
C4 N3 1_555 1_555
H1 C4 1_555 1_555
H2 C4 1_555 1_555
C5 C4 1_555 1_555
C6 C5 1_555 1_555
H3 C6 1_555 1_555
C7 C6 1_555 1_555
H4 C7 1_555 1_555
C8 C7 1_555 1_555
H5 C8 1_555 1_555
C9 N3 1_555 1_555
C10 C9 1_555 1_555
H6 C10 1_555 1_555
C11 C10 1_555 1_555
C12 C11 1_555 1_555
H7 C12 1_555 1_555
C13 C12 1_555 1_555
H8 C13 1_555 1_555
C14 C2 1_555 1_555
C15 C8 1_555 1_555
H9 C15 1_555 1_555
C16 C5 1_555 1_555
H10 C16 1_555 1_555
C17 N2 1_555 1_555
H11 C17 1_555 1_555
H12 C17 1_555 1_555
C18 C1 1_555 1_555
H13 C18 1_555 1_555
H14 C18 1_555 1_555
C9 C14 1_555 1_555
C13 C14 1_555 1_555
C15 C16 1_555 1_555
C17 C18 1_555 1_555

#END
