
#######################################################################
#
#                 Cambridge Crystallographic Data Centre
#                                CCDC 
#
#######################################################################
#
# If this CIF has been generated from an entry in the Cambridge 
# Structural Database, then it will include bibliographic, chemical, 
# crystal, experimental, refinement or atomic coordinate data resulting 
# from the CCDC's data processing and validation procedures.
#
#######################################################################

data_ZATJAI
_chemical_formula_moiety         'C22 H18 O4'
_chemical_name_systematic        
4,4'-bi(pentacyclo[5.4.0.0^2,6^.0^3,10^.0^5,9^]undecane)-8,8',11,11'-tetrone
_symmetry_cell_setting           monoclinic
_symmetry_space_group_name_H-M   'P 21/n'
_symmetry_Int_Tables_number      14
_space_group_name_Hall           '-P 2yn'
loop_
_symmetry_equiv_pos_site_id
_symmetry_equiv_pos_as_xyz
1 x,y,z
2 1/2-x,1/2+y,1/2-z
3 -x,-y,-z
4 1/2+x,1/2-y,1/2+z
_cell_length_a                   6.145(4)
_cell_length_b                   13.372(9)
_cell_length_c                   9.499(6)
_cell_angle_alpha                90
_cell_angle_beta                 91.340(10)
_cell_angle_gamma                90
_cell_volume                     780.328
_exptl_crystal_colour            colorless
_exptl_crystal_description       plate
_cell_formula_units_Z            2
loop_
_atom_site_label
_atom_site_type_symbol
_atom_site_fract_x
_atom_site_fract_y
_atom_site_fract_z
O1 O -0.0416(2) 0.84916(9) 0.71369(15)
O2 O -0.1469(3) 0.63395(11) 0.47245(13)
C1 C 0.0057(3) 0.76606(12) 0.75524(17)
C2 C 0.2171(3) 0.71005(12) 0.73701(16)
H1 H 0.3474 0.7503 0.7210
C3 C 0.2283(2) 0.63457(11) 0.86204(16)
H2 H 0.3638 0.6326 0.9185
C4 C 0.0125(3) 0.64341(12) 0.94299(16)
H3 H 0.0234 0.6793 1.0328
C5 C -0.1398(3) 0.69192(12) 0.82967(17)
H4 H -0.2717 0.7218 0.8676
C6 C -0.0671(3) 0.62027(13) 0.58898(17)
C7 C 0.1715(3) 0.61937(13) 0.63160(17)
H5 H 0.2761 0.6091 0.5566
C8 C 0.1842(3) 0.54566(12) 0.75940(15)
H6 H 0.2940 0.4926 0.7568
C9 C -0.0689(3) 0.53473(12) 0.95255(16)
H7 H -0.2213 0.5334 0.9807
C10 C -0.0534(3) 0.51436(12) 0.79365(16)
H8 H -0.0955 0.4469 0.7635
C11 C -0.1859(3) 0.60055(13) 0.72421(18)
H9 H -0.3408 0.5853 0.7098
O1B O 0.0416(2) 0.15084(9) 1.28631(15)
O2B O 0.1469(3) 0.36605(11) 1.52755(13)
C1B C -0.0057(3) 0.23394(12) 1.24476(17)
C2B C -0.2171(3) 0.28995(12) 1.26299(16)
H1B H -0.3474 0.2497 1.2790
C3B C -0.2283(2) 0.36543(11) 1.13796(16)
H2B H -0.3638 0.3674 1.0815
C4B C -0.0125(3) 0.35659(12) 1.05701(16)
H3B H -0.0234 0.3207 0.9672
C5B C 0.1398(3) 0.30808(12) 1.17033(17)
H4B H 0.2717 0.2782 1.1324
C6B C 0.0671(3) 0.37973(13) 1.41102(17)
C7B C -0.1715(3) 0.38063(13) 1.36840(17)
H5B H -0.2761 0.3909 1.4434
C8B C -0.1842(3) 0.45434(12) 1.24060(15)
H6B H -0.2940 0.5074 1.2432
C9B C 0.0689(3) 0.46527(12) 1.04745(16)
H7B H 0.2213 0.4666 1.0193
C10B C 0.0534(3) 0.48564(12) 1.20635(16)
H8B H 0.0955 0.5531 1.2365
C11B C 0.1859(3) 0.39945(13) 1.27579(18)
H9B H 0.3408 0.4147 1.2902
loop_
_geom_bond_atom_site_label_1
_geom_bond_atom_site_label_2
_geom_bond_site_symmetry_1
_geom_bond_site_symmetry_2
O1 C1 1_555 1_555
O2 C6 1_555 1_555
C1 C2 1_555 1_555
C2 H1 1_555 1_555
C3 C2 1_555 1_555
H2 C3 1_555 1_555
C4 C3 1_555 1_555
H3 C4 1_555 1_555
C5 C1 1_555 1_555
H4 C5 1_555 1_555
C6 C7 1_555 1_555
C7 C2 1_555 1_555
H5 C7 1_555 1_555
C8 C3 1_555 1_555
H6 C8 1_555 1_555
C9 C4 1_555 1_555
H7 C9 1_555 1_555
C10 C8 1_555 1_555
H8 C10 1_555 1_555
C11 C5 1_555 1_555
H9 C11 1_555 1_555
O1B C1B 1_555 1_555
O2B C6B 1_555 1_555
C1B C2B 1_555 1_555
C2B H1B 1_555 1_555
C3B C2B 1_555 1_555
H2B C3B 1_555 1_555
C4B C3B 1_555 1_555
H3B C4B 1_555 1_555
C5B C1B 1_555 1_555
H4B C5B 1_555 1_555
C6B C7B 1_555 1_555
C7B C2B 1_555 1_555
H5B C7B 1_555 1_555
C8B C3B 1_555 1_555
H6B C8B 1_555 1_555
C9B C9 1_555 1_555
H7B C9B 1_555 1_555
C10B C8B 1_555 1_555
H8B C10B 1_555 1_555
C11B C5B 1_555 1_555
H9B C11B 1_555 1_555
C4 C5 1_555 1_555
C6 C11 1_555 1_555
C7 C8 1_555 1_555
C9 C10 1_555 1_555
C10 C11 1_555 1_555
C4B C5B 1_555 1_555
C4B C9B 1_555 1_555
C6B C11B 1_555 1_555
C7B C8B 1_555 1_555
C9B C10B 1_555 1_555
C10B C11B 1_555 1_555

#END
