
#######################################################################
#
#                 Cambridge Crystallographic Data Centre
#                                CCDC 
#
#######################################################################
#
# If this CIF has been generated from an entry in the Cambridge 
# Structural Database, then it will include bibliographic, chemical, 
# crystal, experimental, refinement or atomic coordinate data resulting 
# from the CCDC's data processing and validation procedures.
#
#######################################################################

data_ZATKEM
_chemical_formula_moiety         'C36 H27 F8 N2 O3 P1 S1'
_chemical_name_systematic        
N,2-Diphenyl-N'-((1,1,2,2-tetrafluoro-2-(1,1,2,2-tetrafluoroethoxy)ethyl)sulfonyl)-2-(triphenylphosphoranylidene)ethanimidamide
_symmetry_cell_setting           triclinic
_symmetry_space_group_name_H-M   'P -1'
_symmetry_Int_Tables_number      2
_space_group_name_Hall           '-P 1'
loop_
_symmetry_equiv_pos_site_id
_symmetry_equiv_pos_as_xyz
1 x,y,z
2 -x,-y,-z
_cell_length_a                   12.151(5)
_cell_length_b                   12.499(5)
_cell_length_c                   12.885(5)
_cell_angle_alpha                106.257(3)
_cell_angle_beta                 103.951(4)
_cell_angle_gamma                100.855(4)
_cell_volume                     1753.18
_cell_formula_units_Z            2
loop_
_atom_site_label
_atom_site_type_symbol
_atom_site_fract_x
_atom_site_fract_y
_atom_site_fract_z
S1 S 1.02408(6) 0.33688(7) 0.32053(7)
P1 P 0.69973(7) 0.29098(7) 0.06638(6)
C1 C 0.5523(3) 0.2595(3) -0.0293(3)
C2 C 0.5032(3) 0.1580(3) -0.1228(3)
H1 H 0.5430 0.1011 -0.1337
C3 C 0.3948(4) 0.1419(4) -0.1996(3)
H2 H 0.3621 0.0741 -0.2624
C4 C 0.3353(4) 0.2246(4) -0.1841(4)
H3 H 0.2627 0.2130 -0.2365
C5 C 0.3823(3) 0.3244(4) -0.0918(4)
H4 H 0.3411 0.3802 -0.0807
C6 C 0.4908(3) 0.3422(3) -0.0151(3)
H5 H 0.5230 0.4107 0.0470
C7 C 0.7791(3) 0.4119(3) 0.0383(3)
C8 C 0.7602(4) 0.4091(4) -0.0729(3)
H6 H 0.7094 0.3437 -0.1321
C9 C 0.8151(4) 0.5009(4) -0.0970(4)
H7 H 0.8022 0.4971 -0.1722
C10 C 0.8883(4) 0.5975(4) -0.0117(4)
H8 H 0.9248 0.6602 -0.0284
C11 C 0.9081(4) 0.6025(3) 0.0985(4)
H9 H 0.9585 0.6686 0.1570
C12 C 0.8535(3) 0.5097(3) 0.1242(3)
H10 H 0.8674 0.5139 0.1996
C13 C 0.7525(3) 0.1661(3) 0.0197(2)
C14 C 0.8321(3) 0.1645(3) -0.0411(3)
H11 H 0.8604 0.2294 -0.0589
C15 C 0.8697(4) 0.0663(4) -0.0754(3)
H12 H 0.9235 0.0656 -0.1159
C16 C 0.8285(4) -0.0291(3) -0.0504(3)
H13 H 0.8543 -0.0947 -0.0739
C17 C 0.7487(4) -0.0295(3) 0.0095(3)
H14 H 0.7205 -0.0951 0.0262
C18 C 0.7106(3) 0.0685(3) 0.0448(3)
H15 H 0.6568 0.0686 0.0853
C19 C 0.6977(2) 0.3204(2) 0.2072(2)
C20 C 0.5986(3) 0.3560(3) 0.2433(3)
C21 C 0.6198(3) 0.4671(3) 0.3191(3)
H16 H 0.6941 0.5192 0.3437
C22 C 0.5305(4) 0.5004(4) 0.3583(4)
H17 H 0.5458 0.5743 0.4103
C23 C 0.4201(4) 0.4255(4) 0.3210(4)
H18 H 0.3603 0.4486 0.3469
C24 C 0.3982(3) 0.3172(4) 0.2457(4)
H19 H 0.3229 0.2666 0.2200
C25 C 0.4863(3) 0.2814(3) 0.2070(3)
H20 H 0.4702 0.2067 0.1563
C26 C 0.8023(2) 0.3305(2) 0.2855(2)
C27 C 0.7264(3) 0.2909(3) 0.4383(2)
C28 C 0.7270(3) 0.3448(3) 0.5476(3)
H21 H 0.7815 0.4157 0.5923
C29 C 0.6459(3) 0.2927(4) 0.5907(3)
H22 H 0.6468 0.3291 0.6647
C30 C 0.5656(4) 0.1899(4) 0.5270(4)
H23 H 0.5109 0.1564 0.5563
C31 C 0.5657(3) 0.1355(3) 0.4184(3)
H24 H 0.5113 0.0643 0.3746
C32 C 0.6451(3) 0.1850(3) 0.3737(3)
H25 H 0.6442 0.1472 0.3001
C33 C 1.0172(3) 0.1874(3) 0.3198(3)
C34 C 1.1238(3) 0.1723(3) 0.3992(3)
C35 C 1.1740(4) 0.0122(4) 0.4493(4)
C36 C 1.1550(6) -0.1147(5) 0.3949(5)
H26 H 1.2030 -0.1449 0.4465
F1 F 1.0024(2) 0.12003(19) 0.21349(16)
F2 F 0.92188(17) 0.14701(17) 0.3472(2)
F3 F 1.2208(2) 0.2171(3) 0.3801(3)
F4 F 1.1355(3) 0.2262(2) 0.5063(2)
F5 F 1.2833(2) 0.0707(3) 0.4901(4)
F6 F 1.1405(3) 0.0263(3) 0.5450(2)
F7 F 1.1757(6) -0.1387(4) 0.3011(3)
F8 F 1.0400(4) -0.1671(3) 0.3687(4)
N1 N 0.8118(2) 0.3424(2) 0.3967(2)
H27 H 0.8773 0.3863 0.4467
N2 N 0.8996(2) 0.3322(2) 0.2487(2)
O1 O 1.1061(2) 0.3571(2) 0.2607(2)
O2 O 1.05839(19) 0.40436(19) 0.4394(2)
O3 O 1.1073(2) 0.0544(2) 0.3776(2)
loop_
_geom_bond_atom_site_label_1
_geom_bond_atom_site_label_2
_geom_bond_site_symmetry_1
_geom_bond_site_symmetry_2
S1 C33 1_555 1_555
P1 C1 1_555 1_555
C1 C2 1_555 1_555
C2 H1 1_555 1_555
C3 C2 1_555 1_555
H2 C3 1_555 1_555
C4 C3 1_555 1_555
H3 C4 1_555 1_555
C5 C4 1_555 1_555
H4 C5 1_555 1_555
C6 C1 1_555 1_555
H5 C6 1_555 1_555
C7 P1 1_555 1_555
C8 C7 1_555 1_555
H6 C8 1_555 1_555
C9 C8 1_555 1_555
H7 C9 1_555 1_555
C10 C9 1_555 1_555
H8 C10 1_555 1_555
C11 C10 1_555 1_555
H9 C11 1_555 1_555
C12 C7 1_555 1_555
H10 C12 1_555 1_555
C13 P1 1_555 1_555
C14 C13 1_555 1_555
H11 C14 1_555 1_555
C15 C14 1_555 1_555
H12 C15 1_555 1_555
C16 C15 1_555 1_555
H13 C16 1_555 1_555
C17 C16 1_555 1_555
H14 C17 1_555 1_555
C18 C13 1_555 1_555
H15 C18 1_555 1_555
C19 P1 1_555 1_555
C20 C19 1_555 1_555
C21 C20 1_555 1_555
H16 C21 1_555 1_555
C22 C21 1_555 1_555
H17 C22 1_555 1_555
C23 C22 1_555 1_555
H18 C23 1_555 1_555
C24 C23 1_555 1_555
H19 C24 1_555 1_555
C25 C20 1_555 1_555
H20 C25 1_555 1_555
C26 C19 1_555 1_555
C27 C28 1_555 1_555
C28 H21 1_555 1_555
C29 C28 1_555 1_555
H22 C29 1_555 1_555
C30 C29 1_555 1_555
H23 C30 1_555 1_555
C31 C30 1_555 1_555
H24 C31 1_555 1_555
C32 C27 1_555 1_555
H25 C32 1_555 1_555
C33 C34 1_555 1_555
C34 F3 1_555 1_555
C35 C36 1_555 1_555
C36 H26 1_555 1_555
F1 C33 1_555 1_555
F2 C33 1_555 1_555
F4 C34 1_555 1_555
F5 C35 1_555 1_555
F6 C35 1_555 1_555
F7 C36 1_555 1_555
F8 C36 1_555 1_555
N1 C26 1_555 1_555
H27 N1 1_555 1_555
N2 S1 1_555 1_555
O1 S1 1_555 1_555
O2 S1 1_555 1_555
O3 C34 1_555 1_555
C5 C6 1_555 1_555
C11 C12 1_555 1_555
C17 C18 1_555 1_555
C24 C25 1_555 1_555
C26 N2 1_555 1_555
C27 N1 1_555 1_555
C31 C32 1_555 1_555
C35 O3 1_555 1_555

#END
