
#######################################################################
#
#                 Cambridge Crystallographic Data Centre
#                                CCDC 
#
#######################################################################
#
# If this CIF has been generated from an entry in the Cambridge 
# Structural Database, then it will include bibliographic, chemical, 
# crystal, experimental, refinement or atomic coordinate data resulting 
# from the CCDC's data processing and validation procedures.
#
#######################################################################

data_ZATNIT
_chemical_formula_moiety         'C18 H20 N2 O1'
_chemical_name_systematic        
1-(6-(N-Mesitylethanimidoyl)pyridin-2-yl)ethanone
_symmetry_cell_setting           triclinic
_symmetry_space_group_name_H-M   'P -1'
_symmetry_Int_Tables_number      2
_space_group_name_Hall           '-P 1'
loop_
_symmetry_equiv_pos_site_id
_symmetry_equiv_pos_as_xyz
1 x,y,z
2 -x,-y,-z
_cell_length_a                   6.1903(8)
_cell_length_b                   8.1529(10)
_cell_length_c                   16.974(2)
_cell_angle_alpha                90.273(3)
_cell_angle_beta                 97.233(3)
_cell_angle_gamma                108.954(2)
_cell_volume                     802.811
_cell_formula_units_Z            2
loop_
_atom_site_label
_atom_site_type_symbol
_atom_site_fract_x
_atom_site_fract_y
_atom_site_fract_z
N1 N 0.9198(6) 1.0952(4) 0.3874(2)
C1 C 1.0798(7) 1.2339(5) 0.4265(3)
C2 C 0.7863(7) 0.8831(5) 0.2773(3)
N2 N 0.8293(6) 0.8237(5) 0.2136(2)
C3 C 0.9642(7) 1.0396(5) 0.3178(3)
C4 C 0.6641(8) 0.6728(5) 0.1719(3)
C5 C 1.1766(6) 1.4025(5) 0.5457(2)
H1 H 1.2887 1.3556 0.5719
H2 H 1.1067 1.4458 0.5849
H3 H 1.2508 1.4956 0.5138
C6 C 1.0343(8) 1.2933(6) 0.5051(3)
C7 C 1.1680(8) 1.1217(6) 0.2874(3)
H4 H 1.1961 1.0810 0.2398
C8 C 0.7014(8) 0.5147(6) 0.1787(3)
C9 C 1.2845(8) 1.3190(6) 0.3989(3)
H5 H 1.3927 1.4136 0.4280
C10 C 0.5436(8) 0.3717(6) 0.1372(3)
H6 H 0.5677 0.2652 0.1423
C11 C 0.5715(7) 0.8072(6) 0.3158(3)
H7 H 0.4850 0.6947 0.2914
H8 H 0.4793 0.8820 0.3090
H9 H 0.6133 0.7966 0.3715
C12 C 0.3520(9) 0.3784(6) 0.0886(3)
C13 C 1.3277(8) 1.2637(7) 0.3286(4)
H10 H 1.4641 1.3216 0.3087
C14 C 0.4773(9) 0.6889(6) 0.1206(3)
O1 O 0.7896(8) 1.2061(6) 0.5276(3)
C15 C 0.3252(9) 0.5396(7) 0.0805(3)
H11 H 0.1994 0.5482 0.0466
C16 C 0.1771(9) 0.2179(6) 0.0446(3)
H12 H 0.2559 0.1445 0.0261
H13 H 0.0924 0.2522 0.0001
H14 H 0.0726 0.1557 0.0799
C17 C 0.9049(8) 0.4989(6) 0.2336(3)
H15 H 0.9023 0.3805 0.2320
H16 H 0.8962 0.5336 0.2869
H17 H 1.0453 0.5724 0.2168
C18 C 0.4388(10) 0.8592(7) 0.1091(4)
H18 H 0.3434 0.8541 0.0593
H19 H 0.5843 0.9492 0.1088
H20 H 0.3638 0.8838 0.1517
loop_
_geom_bond_atom_site_label_1
_geom_bond_atom_site_label_2
_geom_bond_site_symmetry_1
_geom_bond_site_symmetry_2
N1 C1 1_555 1_555
C1 C6 1_555 1_555
C2 N2 1_555 1_555
N2 C4 1_555 1_555
C3 N1 1_555 1_555
C4 C8 1_555 1_555
C5 H1 1_555 1_555
H2 C5 1_555 1_555
H3 C5 1_555 1_555
C6 C5 1_555 1_555
C7 C3 1_555 1_555
H4 C7 1_555 1_555
C8 C10 1_555 1_555
C9 C1 1_555 1_555
H5 C9 1_555 1_555
C10 H6 1_555 1_555
C11 C2 1_555 1_555
H7 C11 1_555 1_555
H8 C11 1_555 1_555
H9 C11 1_555 1_555
C12 C10 1_555 1_555
C13 C7 1_555 1_555
H10 C13 1_555 1_555
C14 C4 1_555 1_555
O1 C6 1_555 1_555
C15 C12 1_555 1_555
H11 C15 1_555 1_555
C16 C12 1_555 1_555
H12 C16 1_555 1_555
H13 C16 1_555 1_555
H14 C16 1_555 1_555
C17 C8 1_555 1_555
H15 C17 1_555 1_555
H16 C17 1_555 1_555
H17 C17 1_555 1_555
C18 C14 1_555 1_555
H18 C18 1_555 1_555
H19 C18 1_555 1_555
H20 C18 1_555 1_555
C2 C3 1_555 1_555
C9 C13 1_555 1_555
C14 C15 1_555 1_555

#END
