
#######################################################################
#
#                 Cambridge Crystallographic Data Centre
#                                CCDC 
#
#######################################################################
#
# If this CIF has been generated from an entry in the Cambridge 
# Structural Database, then it will include bibliographic, chemical, 
# crystal, experimental, refinement or atomic coordinate data resulting 
# from the CCDC's data processing and validation procedures.
#
#######################################################################

data_ZATQAO
_chemical_formula_moiety         'C36 H26'
_chemical_name_systematic        4,4'-bis(2-(2-naphthyl)vinyl)biphenyl
_symmetry_cell_setting           orthorhombic
_symmetry_space_group_name_H-M   'P 21 21 21'
_symmetry_Int_Tables_number      19
_space_group_name_Hall           'P 2ac 2ab'
loop_
_symmetry_equiv_pos_site_id
_symmetry_equiv_pos_as_xyz
1 x,y,z
2 1/2-x,-y,1/2+z
3 1/2+x,1/2-y,-z
4 -x,1/2+y,1/2-z
_cell_length_a                   5.9681(7)
_cell_length_b                   7.5122(9)
_cell_length_c                   53.418(6)
_cell_angle_alpha                90
_cell_angle_beta                 90
_cell_angle_gamma                90
_cell_volume                     2394.92
_exptl_crystal_colour            yellow
_exptl_crystal_description       plate
_cell_formula_units_Z            4
loop_
_atom_site_label
_atom_site_type_symbol
_atom_site_fract_x
_atom_site_fract_y
_atom_site_fract_z
C1 C 0.0400(5) 0.9039(3) 0.07679(5)
C2 C 0.2536(5) 0.8191(3) 0.07670(5)
C3 C 1.4565(5) 0.8194(4) 0.42396(5)
C4 C 0.8101(5) 0.8553(3) 0.26246(5)
C5 C 0.6932(5) 0.8594(4) 0.23790(5)
C6 C 1.2446(5) 0.9051(3) 0.42368(5)
C7 C 0.2687(5) 0.8350(4) 0.12209(5)
C8 C 0.3614(5) 0.7841(4) 0.09970(5)
H1 H 0.4984 0.7252 0.0997
C9 C 1.2342(5) 0.8843(4) 0.37814(5)
C10 C 1.1399(5) 0.9374(4) 0.40039(5)
H2 H 1.0029 0.9964 0.4001
C11 C 1.1256(5) 0.7672(4) 0.28815(5)
H3 H 1.2635 0.7102 0.2893
C12 C 0.4700(5) 0.8708(4) 0.19087(5)
C13 C 0.7176(5) 0.9332(4) 0.28392(5)
H4 H 0.5796 0.9900 0.2828
C14 C 1.5576(5) 0.7733(4) 0.40088(5)
H5 H 1.6989 0.7211 0.4008
C15 C -0.0565(5) 0.9481(4) 0.10003(5)
H6 H -0.1979 1.0000 0.1004
C16 C 0.3524(6) 0.7744(4) 0.05336(5)
H7 H 0.4900 0.7163 0.0530
C17 C 1.4498(5) 0.8048(4) 0.37887(6)
H8 H 1.5192 0.7733 0.3639
C18 C 0.3781(5) 0.9459(4) 0.21220(5)
H9 H 0.2394 1.0017 0.2110
C19 C 0.7857(6) 0.7813(4) 0.21642(5)
H10 H 0.9231 0.7235 0.2176
C20 C 1.0185(5) 0.7733(4) 0.26533(5)
H11 H 1.0867 0.7214 0.2515
C21 C 1.0329(5) 0.8442(4) 0.30948(5)
C22 C 0.4847(5) 0.9411(4) 0.23509(5)
H12 H 0.4165 0.9933 0.2489
C23 C 0.8259(6) 0.9280(4) 0.30676(5)
H13 H 0.7595 0.9815 0.3206
C24 C 1.1069(5) 0.9065(4) 0.35479(5)
H14 H 0.9800 0.9783 0.3554
C25 C 0.3452(6) 0.8832(4) 0.16735(5)
H15 H 0.2131 0.9488 0.1679
C26 C 1.5578(6) 0.7815(4) 0.44740(6)
H16 H 1.6968 0.7257 0.4479
C27 C 1.1425(6) 0.9506(4) 0.44669(6)
H17 H 1.0041 1.0074 0.4467
C28 C 0.3962(5) 0.8131(4) 0.14534(5)
H18 H 0.5248 0.7435 0.1446
C29 C 0.0523(5) 0.9166(4) 0.12185(5)
H19 H -0.0149 0.9485 0.1369
C30 C -0.0630(6) 0.9430(4) 0.05368(6)
H20 H -0.2022 0.9987 0.0535
C31 C 0.6783(6) 0.7879(4) 0.19356(5)
H21 H 0.7458 0.7361 0.1797
C32 C 1.1578(6) 0.8327(4) 0.33302(5)
H22 H 1.2886 0.7655 0.3326
C33 C 1.4540(7) 0.8260(5) 0.46912(6)
H23 H 1.5219 0.7993 0.4843
C34 C 1.2451(7) 0.9119(4) 0.46887(6)
H24 H 1.1763 0.9425 0.4839
C35 C 0.2468(7) 0.8161(5) 0.03151(6)
H25 H 0.3142 0.7880 0.0163
C36 C 0.0378(7) 0.9008(4) 0.03170(6)
H26 H -0.0325 0.9283 0.0167
loop_
_geom_bond_atom_site_label_1
_geom_bond_atom_site_label_2
_geom_bond_site_symmetry_1
_geom_bond_site_symmetry_2
C1 C2 1_555 1_555
C2 C8 1_555 1_555
C3 C6 1_555 1_555
C4 C5 1_555 1_555
C5 C19 1_555 1_555
C6 C10 1_555 1_555
C7 C8 1_555 1_555
C8 H1 1_555 1_555
C9 C10 1_555 1_555
C10 H2 1_555 1_555
C11 H3 1_555 1_555
C12 C18 1_555 1_555
C13 C4 1_555 1_555
H4 C13 1_555 1_555
C14 C3 1_555 1_555
H5 C14 1_555 1_555
C15 C1 1_555 1_555
H6 C15 1_555 1_555
C16 C2 1_555 1_555
H7 C16 1_555 1_555
C17 C9 1_555 1_555
H8 C17 1_555 1_555
C18 H9 1_555 1_555
C19 H10 1_555 1_555
C20 C4 1_555 1_555
H11 C20 1_555 1_555
C21 C11 1_555 1_555
C22 C5 1_555 1_555
H12 C22 1_555 1_555
C23 C13 1_555 1_555
H13 C23 1_555 1_555
C24 C9 1_555 1_555
H14 C24 1_555 1_555
C25 C12 1_555 1_555
H15 C25 1_555 1_555
C26 C3 1_555 1_555
H16 C26 1_555 1_555
C27 C6 1_555 1_555
H17 C27 1_555 1_555
C28 C7 1_555 1_555
H18 C28 1_555 1_555
C29 C7 1_555 1_555
H19 C29 1_555 1_555
C30 C1 1_555 1_555
H20 C30 1_555 1_555
C31 C12 1_555 1_555
H21 C31 1_555 1_555
C32 C21 1_555 1_555
H22 C32 1_555 1_555
C33 C26 1_555 1_555
H23 C33 1_555 1_555
C34 C27 1_555 1_555
H24 C34 1_555 1_555
C35 C16 1_555 1_555
H25 C35 1_555 1_555
C36 C30 1_555 1_555
H26 C36 1_555 1_555
C11 C20 1_555 1_555
C14 C17 1_555 1_555
C15 C29 1_555 1_555
C18 C22 1_555 1_555
C19 C31 1_555 1_555
C21 C23 1_555 1_555
C24 C32 1_555 1_555
C25 C28 1_555 1_555
C33 C34 1_555 1_555
C35 C36 1_555 1_555

#END
