
#######################################################################
#
#                 Cambridge Crystallographic Data Centre
#                                CCDC 
#
#######################################################################
#
# If this CIF has been generated from an entry in the Cambridge 
# Structural Database, then it will include bibliographic, chemical, 
# crystal, experimental, refinement or atomic coordinate data resulting 
# from the CCDC's data processing and validation procedures.
#
#######################################################################

data_ZATRAQ
_chemical_formula_moiety         'C36 H54 O1'
_chemical_name_systematic        3-[2-(4-methoxyphenyl)ethenyl]cholest-5-ene
_symmetry_cell_setting           triclinic
_symmetry_space_group_name_H-M   'P 1'
_symmetry_Int_Tables_number      1
_space_group_name_Hall           'P 1'
loop_
_symmetry_equiv_pos_site_id
_symmetry_equiv_pos_as_xyz
1 x,y,z
_cell_length_a                   7.73350(10)
_cell_length_b                   14.1534(2)
_cell_length_c                   14.5834(2)
_cell_angle_alpha                77.0050(10)
_cell_angle_beta                 87.5840(10)
_cell_angle_gamma                89.6900(10)
_cell_volume                     1553.95
_exptl_crystal_description       block
_cell_formula_units_Z            2
loop_
_atom_site_label
_atom_site_type_symbol
_atom_site_fract_x
_atom_site_fract_y
_atom_site_fract_z
O1 O 0.7214(4) 0.68145(19) 0.47319(17)
C1 C 0.7751(3) -0.0918(2) 0.8088(2)
C2 C 0.9480(3) -0.2328(2) 0.90462(19)
H1 H 0.9636 -0.2604 0.8489
C3 C 0.9397(3) -0.3155(2) 0.99202(19)
H2 H 0.9217 -0.2850 1.0457
C4 C 0.7445(4) 0.4058(2) 0.6480(2)
C5 C 0.9413(4) -0.0315(2) 0.8007(2)
C6 C 0.7965(4) 0.4252(3) 0.5527(2)
H3 H 0.8390 0.3750 0.5266
C7 C 0.7874(3) -0.3868(2) 0.9979(2)
C8 C 0.7218(4) 0.5931(3) 0.5341(2)
C9 C 0.7776(3) -0.1758(2) 0.8976(2)
H4 H 0.7712 -0.1453 0.9517
C10 C 0.7861(4) 0.5173(3) 0.4967(2)
H5 H 0.8224 0.5288 0.4335
C11 C 0.9396(4) 0.0683(3) 0.7368(3)
H6 H 0.9417 0.0619 0.6719
H7 H 1.0440 0.1026 0.7453
C12 C 1.0250(4) -0.4685(3) 1.0883(2)
H8 H 1.0711 -0.4687 1.1492
H9 H 1.0577 -0.5285 1.0708
C13 C 1.1001(3) -0.1653(2) 0.9069(2)
H10 H 1.1123 -0.1591 0.9713
H11 H 1.2052 -0.1945 0.8876
C14 C 0.6178(4) -0.0266(3) 0.8188(3)
H12 H 0.5132 -0.0613 0.8115
H13 H 0.6129 -0.0153 0.8821
C15 C 0.8240(4) -0.4588(2) 1.0929(2)
H14 H 0.7947 -0.4250 1.1432
C16 C 0.6219(3) -0.3264(2) 0.9955(2)
H15 H 0.5223 -0.3679 0.9957
H16 H 0.6120 -0.3006 1.0517
C17 C 0.6190(5) 0.0709(3) 0.7490(3)
H17 H 0.5187 0.1079 0.7621
H18 H 0.6111 0.0607 0.6857
C18 C 1.0965(4) -0.3813(3) 1.0140(2)
H19 H 1.1878 -0.3489 1.0389
H20 H 1.1412 -0.4012 0.9581
C19 C 0.7647(4) -0.1300(3) 0.7181(2)
H21 H 0.7699 -0.0764 0.6643
H22 H 0.6578 -0.1645 0.7196
H23 H 0.8600 -0.1728 0.7140
C20 C 0.7833(5) 0.1287(3) 0.7543(3)
H24 H 0.7878 0.1394 0.8182
C21 C 0.6208(3) -0.2432(2) 0.9090(2)
H25 H 0.5168 -0.2053 0.9125
H26 H 0.6158 -0.2698 0.8535
C22 C 0.7331(4) -0.5582(3) 1.1200(2)
H27 H 0.7706 -0.5951 1.0735
C23 C 0.6807(5) 0.4822(3) 0.6829(2)
H28 H 0.6449 0.4711 0.7461
C24 C 0.7955(4) -0.4399(3) 0.9169(2)
H29 H 0.7945 -0.3933 0.8578
H30 H 0.6972 -0.4823 0.9226
H31 H 0.8999 -0.4773 0.9196
C25 C 1.0819(4) -0.0664(2) 0.8451(2)
H32 H 1.1779 -0.0256 0.8371
C26 C 0.7541(4) 0.3083(3) 0.7104(2)
H33 H 0.7393 0.3056 0.7746
C27 C 0.6679(5) 0.5748(3) 0.6277(2)
H34 H 0.6231 0.6246 0.6536
C28 C 0.7808(5) 0.2253(3) 0.6871(3)
H35 H 0.7998 0.2265 0.6235
C29 C 0.5364(5) -0.5496(3) 1.1182(4)
H36 H 0.4972 -0.5072 1.1576
H37 H 0.4850 -0.6126 1.1410
H38 H 0.5033 -0.5237 1.0548
C30 C 0.7881(6) -0.6149(3) 1.2168(3)
H39 H 0.9122 -0.6078 1.2201
H40 H 0.7331 -0.5860 1.2648
C31 C 0.6486(7) 0.7602(3) 0.5051(3)
H41 H 0.6546 0.8172 0.4549
H42 H 0.7117 0.7711 0.5571
H43 H 0.5299 0.7460 0.5250
C32 C 0.7444(6) -0.7219(3) 1.2393(3)
H44 H 0.6197 -0.7292 1.2394
H45 H 0.7943 -0.7503 1.1896
C33 C 0.8069(8) -0.7775(3) 1.3318(3)
H46 H 0.7424 -0.7557 1.3817
H47 H 0.9274 -0.7606 1.3356
C34 C 0.7929(8) -0.8878(4) 1.3515(4)
H48 H 0.8645 -0.9065 1.3015
C35 C 0.6248(11) -0.9250(6) 1.3432(6)
H49 H 0.5495 -0.9138 1.3937
H50 H 0.6320 -0.9933 1.3463
H51 H 0.5796 -0.8928 1.2840
C36 C 0.8719(13) -0.9365(6) 1.4398(6)
H52 H 0.9893 -0.9148 1.4394
H53 H 0.8702 -1.0054 1.4454
H54 H 0.8076 -0.9212 1.4923
O2 O 0.1764(4) 1.8555(2) -0.43887(19)
C37 C 0.1954(4) 1.7672(2) -0.3793(2)
C38 C 0.2231(4) 1.1483(3) 0.0390(2)
C39 C 0.0736(3) 0.8905(2) 0.1731(2)
H55 H 0.0704 0.8649 0.1161
C40 C 0.2403(3) 0.8501(2) 0.22055(19)
C41 C 0.0448(4) 1.1861(2) 0.0078(2)
C42 C -0.0968(4) 1.1317(3) 0.0306(2)
H56 H -0.2012 1.1592 0.0091
C43 C 0.3108(4) 0.6703(2) 0.3153(2)
H57 H 0.3026 0.6892 0.3760
C44 C 0.2200(4) 1.5799(3) -0.2651(2)
C45 C 0.1276(5) 1.5976(3) -0.3469(3)
H58 H 0.0722 1.5463 -0.3638
C46 C 0.2863(4) 1.7512(3) -0.2977(2)
H59 H 0.3397 1.8025 -0.2798
C47 C 0.0647(3) 0.9998(2) 0.1391(2)
H60 H 0.0682 1.0296 0.1935
C48 C -0.1020(4) 1.0306(3) 0.0877(3)
H61 H -0.1234 0.9870 0.0467
H62 H -0.1980 1.0241 0.1337
C49 C 0.2971(4) 1.6584(3) -0.2432(2)
H63 H 0.3598 1.6486 -0.1888
C50 C 0.1636(4) 1.3100(3) -0.1342(3)
H64 H 0.1358 1.2645 -0.1731
C51 C 0.2211(3) 1.0367(2) 0.0712(2)
H65 H 0.2036 1.0123 0.0145
C52 C 0.1980(4) 0.7402(2) 0.2461(2)
H66 H 0.2038 0.7183 0.1869
C53 C 0.1160(5) 1.6890(3) -0.4035(3)
H67 H 0.0546 1.6985 -0.4583
C54 C 0.2401(5) 1.4823(3) -0.2012(3)
H68 H 0.3338 1.4740 -0.1623
C55 C 0.3236(5) 0.4940(3) 0.4108(3)
H69 H 0.3007 0.5154 0.4688
H70 H 0.4481 0.4939 0.3994
C56 C 0.5002(4) 0.6747(3) 0.2822(3)
H71 H 0.5092 0.6703 0.2175
H72 H 0.5613 0.6218 0.3201
H73 H 0.5497 0.7350 0.2882
C57 C 0.3887(4) 0.8827(3) 0.1461(2)
H74 H 0.4984 0.8617 0.1735
H75 H 0.3743 0.8522 0.0936
C58 C 0.2705(6) 0.8874(3) 0.3095(3)
H76 H 0.2692 0.9570 0.2944
H77 H 0.3807 0.8652 0.3336
H78 H 0.1806 0.8635 0.3562
C59 C 0.3516(4) 1.1765(3) -0.0480(3)
H79 H 0.4684 1.1620 -0.0274
H80 H 0.3273 1.1366 -0.0920
C60 C 0.2443(5) 0.5656(3) 0.3308(3)
H81 H 0.1199 0.5655 0.3427
H82 H 0.2661 0.5434 0.2732
C61 C -0.0707(4) 0.8376(3) 0.2387(3)
H83 H -0.1736 0.8325 0.2043
H84 H -0.1000 0.8710 0.2885
C62 C 0.3436(5) 1.2828(3) -0.0991(4)
H85 H 0.3748 1.3232 -0.0567
H86 H 0.4268 1.2948 -0.1522
C63 C 0.0046(4) 0.7374(3) 0.2789(3)
H87 H -0.0565 0.6881 0.2561
H88 H -0.0066 0.7222 0.3472
C64 C 0.1403(5) 1.4091(3) -0.1949(3)
H89 H 0.0437 1.4185 -0.2318
C65 C 0.2646(7) 1.9352(3) -0.4205(4)
H90 H 0.2420 1.9919 -0.4686
H91 H 0.3867 1.9225 -0.4201
H92 H 0.2254 1.9457 -0.3603
C66 C 0.3372(5) 0.3168(3) 0.5025(4)
H93 H 0.4630 0.3185 0.4906
C67 C 0.3914(4) 0.9924(3) 0.1104(3)
H94 H 0.4819 1.0092 0.0613
H95 H 0.4216 1.0217 0.1616
C68 C 0.0338(5) 1.2882(3) -0.0492(3)
H96 H 0.0550 1.3326 -0.0090
H97 H -0.0825 1.2998 -0.0715
C69 C 0.2769(7) 1.1970(3) 0.1176(4)
H98 H 0.2830 1.2659 0.0939
H99 H 0.3882 1.1732 0.1388
H100 H 0.1930 1.1821 0.1693
C70 C 0.2560(5) 0.3909(3) 0.4236(3)
H101 H 0.2763 0.3704 0.3649
H102 H 0.1319 0.3910 0.4363
C71 C 0.2995(7) 0.3366(4) 0.5978(4)
H103 H 0.3462 0.3988 0.5998
H104 H 0.3516 0.2873 0.6447
H105 H 0.1766 0.3364 0.6102
C72 C 0.2705(11) 0.2134(4) 0.5004(6)
H106 H 0.1515 0.2067 0.5225
H107 H 0.3386 0.1655 0.5405
H108 H 0.2805 0.2043 0.4371
loop_
_geom_bond_atom_site_label_1
_geom_bond_atom_site_label_2
_geom_bond_site_symmetry_1
_geom_bond_site_symmetry_2
O1 C8 1_555 1_555
C1 C5 1_555 1_555
C2 H1 1_555 1_555
C3 C2 1_555 1_555
H2 C3 1_555 1_555
C4 C6 1_555 1_555
C5 C11 1_555 1_555
C6 H3 1_555 1_555
C7 C3 1_555 1_555
C8 C10 1_555 1_555
C9 C1 1_555 1_555
H4 C9 1_555 1_555
C10 C6 1_555 1_555
H5 C10 1_555 1_555
C11 H6 1_555 1_555
H7 C11 1_555 1_555
C12 H8 1_555 1_555
H9 C12 1_555 1_555
C13 C2 1_555 1_555
H10 C13 1_555 1_555
H11 C13 1_555 1_555
C14 C1 1_555 1_555
H12 C14 1_555 1_555
H13 C14 1_555 1_555
C15 C7 1_555 1_555
H14 C15 1_555 1_555
C16 C7 1_555 1_555
H15 C16 1_555 1_555
H16 C16 1_555 1_555
C17 C14 1_555 1_555
H17 C17 1_555 1_555
H18 C17 1_555 1_555
C18 C3 1_555 1_555
H19 C18 1_555 1_555
H20 C18 1_555 1_555
C19 C1 1_555 1_555
H21 C19 1_555 1_555
H22 C19 1_555 1_555
H23 C19 1_555 1_555
C20 C11 1_555 1_555
H24 C20 1_555 1_555
C21 C9 1_555 1_555
H25 C21 1_555 1_555
H26 C21 1_555 1_555
C22 C15 1_555 1_555
H27 C22 1_555 1_555
C23 C4 1_555 1_555
H28 C23 1_555 1_555
C24 C7 1_555 1_555
H29 C24 1_555 1_555
H30 C24 1_555 1_555
H31 C24 1_555 1_555
C25 C5 1_555 1_555
H32 C25 1_555 1_555
C26 C4 1_555 1_555
H33 C26 1_555 1_555
C27 C8 1_555 1_555
H34 C27 1_555 1_555
C28 C20 1_555 1_555
H35 C28 1_555 1_555
C29 C22 1_555 1_555
H36 C29 1_555 1_555
H37 C29 1_555 1_555
H38 C29 1_555 1_555
C30 C22 1_555 1_555
H39 C30 1_555 1_555
H40 C30 1_555 1_555
C31 O1 1_555 1_555
H41 C31 1_555 1_555
H42 C31 1_555 1_555
H43 C31 1_555 1_555
C32 C30 1_555 1_555
H44 C32 1_555 1_555
H45 C32 1_555 1_555
C33 C32 1_555 1_555
H46 C33 1_555 1_555
H47 C33 1_555 1_555
C34 C33 1_555 1_555
H48 C34 1_555 1_555
C35 C34 1_555 1_555
H49 C35 1_555 1_555
H50 C35 1_555 1_555
H51 C35 1_555 1_555
C36 C34 1_555 1_555
H52 C36 1_555 1_555
H53 C36 1_555 1_555
H54 C36 1_555 1_555
O2 C37 1_555 1_555
C37 C46 1_555 1_555
C38 C41 1_555 1_555
C39 H55 1_555 1_555
C40 C39 1_555 1_555
C41 C42 1_555 1_555
C42 H56 1_555 1_555
C43 H57 1_555 1_555
C44 C45 1_555 1_555
C45 H58 1_555 1_555
C46 H59 1_555 1_555
C47 C39 1_555 1_555
H60 C47 1_555 1_555
C48 C42 1_555 1_555
H61 C48 1_555 1_555
H62 C48 1_555 1_555
C49 C44 1_555 1_555
H63 C49 1_555 1_555
C50 H64 1_555 1_555
C51 C38 1_555 1_555
H65 C51 1_555 1_555
C52 C40 1_555 1_555
H66 C52 1_555 1_555
C53 C37 1_555 1_555
H67 C53 1_555 1_555
C54 C44 1_555 1_555
H68 C54 1_555 1_555
C55 H69 1_555 1_555
H70 C55 1_555 1_555
C56 C43 1_555 1_555
H71 C56 1_555 1_555
H72 C56 1_555 1_555
H73 C56 1_555 1_555
C57 C40 1_555 1_555
H74 C57 1_555 1_555
H75 C57 1_555 1_555
C58 C40 1_555 1_555
H76 C58 1_555 1_555
H77 C58 1_555 1_555
H78 C58 1_555 1_555
C59 C38 1_555 1_555
H79 C59 1_555 1_555
H80 C59 1_555 1_555
C60 C43 1_555 1_555
H81 C60 1_555 1_555
H82 C60 1_555 1_555
C61 C39 1_555 1_555
H83 C61 1_555 1_555
H84 C61 1_555 1_555
C62 C50 1_555 1_555
H85 C62 1_555 1_555
H86 C62 1_555 1_555
C63 C52 1_555 1_555
H87 C63 1_555 1_555
H88 C63 1_555 1_555
C64 C50 1_555 1_555
H89 C64 1_555 1_555
C65 O2 1_555 1_555
H90 C65 1_555 1_555
H91 C65 1_555 1_555
H92 C65 1_555 1_555
C66 H93 1_555 1_555
C67 C51 1_555 1_555
H94 C67 1_555 1_555
H95 C67 1_555 1_555
C68 C41 1_555 1_555
H96 C68 1_555 1_555
H97 C68 1_555 1_555
C69 C38 1_555 1_555
H98 C69 1_555 1_555
H99 C69 1_555 1_555
H100 C69 1_555 1_555
C70 C55 1_555 1_555
H101 C70 1_555 1_555
H102 C70 1_555 1_555
C71 C66 1_555 1_555
H103 C71 1_555 1_555
H104 C71 1_555 1_555
H105 C71 1_555 1_555
C72 C66 1_555 1_555
H106 C72 1_555 1_555
H107 C72 1_555 1_555
H108 C72 1_555 1_555
C2 C9 1_555 1_555
C12 C15 1_555 1_555
C12 C18 1_555 1_555
C13 C25 1_555 1_555
C16 C21 1_555 1_555
C17 C20 1_555 1_555
C23 C27 1_555 1_555
C26 C28 1_555 1_555
C43 C52 1_555 1_555
C45 C53 1_555 1_555
C46 C49 1_555 1_555
C47 C48 1_555 1_555
C47 C51 1_555 1_555
C50 C68 1_555 1_555
C54 C64 1_555 1_555
C55 C60 1_555 1_555
C57 C67 1_555 1_555
C59 C62 1_555 1_555
C61 C63 1_555 1_555
C66 C70 1_555 1_555

#END
