
#######################################################################
#
#                 Cambridge Crystallographic Data Centre
#                                CCDC 
#
#######################################################################
#
# If this CIF has been generated from an entry in the Cambridge 
# Structural Database, then it will include bibliographic, chemical, 
# crystal, experimental, refinement or atomic coordinate data resulting 
# from the CCDC's data processing and validation procedures.
#
#######################################################################

data_ZATTEV
_chemical_formula_moiety         'C23 H24 N6 O1,0.5(H2 O1)'
_chemical_name_systematic        
'(ae2)-(2,4,9-tris(pyridin-3-yl)-1,3,5-triazatricyclo[3.3.1.1^3,7^]dec-7-yl)methanol hemihydrate'
_symmetry_cell_setting           triclinic
_symmetry_space_group_name_H-M   'P -1'
_symmetry_Int_Tables_number      2
_space_group_name_Hall           '-P 1'
loop_
_symmetry_equiv_pos_site_id
_symmetry_equiv_pos_as_xyz
1 x,y,z
2 -x,-y,-z
_cell_length_a                   9.9607(14)
_cell_length_b                   10.8190(13)
_cell_length_c                   18.360(2)
_cell_angle_alpha                82.815(7)
_cell_angle_beta                 83.582(7)
_cell_angle_gamma                83.467(6)
_cell_volume                     1940.7
_exptl_crystal_colour            colorless
_exptl_crystal_description       platelet
_cell_formula_units_Z            4
loop_
_atom_site_label
_atom_site_type_symbol
_atom_site_fract_x
_atom_site_fract_y
_atom_site_fract_z
O1 O 0.82641(18) -0.15883(15) 0.28030(9)
H1 H 0.9173 -0.1589 0.2925
N1 N 0.6260(2) 0.19323(19) 0.11529(10)
N2 N 0.8080(2) 0.04649(18) 0.06075(10)
N3 N 0.5798(2) -0.02125(18) 0.10041(10)
N4 N 0.6198(2) 0.4217(2) -0.08765(11)
N5 N 0.9274(2) -0.3008(2) -0.02581(12)
N6 N 0.1874(2) 0.0508(2) 0.20295(11)
C1 C 0.7506(3) 0.1788(2) 0.06294(13)
H2 H 0.8191 0.2212 0.0818
C2 C 0.6995(3) -0.0267(2) 0.04495(13)
H3 H 0.6676 0.0137 -0.0017
C3 C 0.5268(2) 0.1124(2) 0.09693(13)
H4 H 0.5117 0.1391 0.0452
C4 C 0.6670(3) 0.1496(2) 0.19021(13)
H5 H 0.5883 0.1574 0.2262
H6 H 0.7329 0.2018 0.2018
C5 C 0.8509(3) 0.0007(2) 0.13530(13)
H7 H 0.9212 0.0492 0.1457
H8 H 0.8885 -0.0862 0.1364
C6 C 0.6235(3) -0.0664(2) 0.17522(12)
H9 H 0.6614 -0.1532 0.1763
H10 H 0.5450 -0.0622 0.2116
C7 C 0.7292(3) 0.0122(2) 0.19508(13)
C8 C 0.7709(3) -0.0304(2) 0.27236(13)
H11 H 0.8378 0.0216 0.2829
H12 H 0.6922 -0.0194 0.3081
C9 C 0.7297(3) 0.2456(2) -0.01344(13)
C10 C 0.6350(3) 0.3504(2) -0.02290(14)
H13 H 0.5786 0.3725 0.0183
C11 C 0.7016(3) 0.3865(2) -0.14588(14)
H14 H 0.6931 0.4339 -0.1913
C12 C 0.7979(3) 0.2842(3) -0.14289(14)
H15 H 0.8522 0.2638 -0.1851
C13 C 0.8120(3) 0.2124(2) -0.07546(14)
H16 H 0.8760 0.1428 -0.0719
C14 C 0.7526(3) -0.1602(2) 0.03164(13)
C15 C 0.8786(3) -0.1868(2) -0.00677(14)
H17 H 0.9329 -0.1216 -0.0203
C16 C 0.8479(3) -0.3935(3) -0.00509(14)
H18 H 0.8795 -0.4732 -0.0174
C17 C 0.7210(3) -0.3765(2) 0.03374(14)
H19 H 0.6693 -0.4435 0.0475
C18 C 0.6728(3) -0.2586(2) 0.05168(13)
H20 H 0.5873 -0.2449 0.0771
C19 C 0.3902(3) 0.1342(2) 0.14086(13)
C20 C 0.3118(3) 0.0359(2) 0.16600(13)
H21 H 0.3473 -0.0446 0.1568
C21 C 0.1360(3) 0.1682(2) 0.21355(14)
H22 H 0.0499 0.1805 0.2386
C22 C 0.2054(3) 0.2717(2) 0.18881(14)
H23 H 0.1659 0.3517 0.1964
C23 C 0.3347(3) 0.2543(2) 0.15267(13)
H24 H 0.3838 0.3225 0.1365
O2 O 0.09226(17) 0.85433(16) 0.29683(9)
H25 H 0.1161 0.9132 0.2579
N7 N 0.4770(2) 0.79398(18) 0.39804(10)
N8 N 0.3410(2) 0.80879(19) 0.51943(11)
N9 N 0.3425(2) 0.62184(19) 0.45406(10)
N10 N 0.8388(2) 0.7715(2) 0.49852(12)
N11 N 0.0986(2) 0.6345(2) 0.70075(11)
N12 N 0.4784(2) 0.42100(19) 0.27353(11)
C24 C 0.4640(3) 0.8427(2) 0.47076(13)
H26 H 0.4533 0.9342 0.4604
C25 C 0.3406(3) 0.6700(2) 0.52621(13)
H27 H 0.4263 0.6351 0.5457
C26 C 0.4700(3) 0.6563(2) 0.41132(13)
H28 H 0.5425 0.6235 0.4426
C27 C 0.3586(2) 0.8536(2) 0.35941(13)
H29 H 0.3625 0.8228 0.3118
H30 H 0.3628 0.9435 0.3511
C28 C 0.2224(3) 0.8691(2) 0.48167(13)
H31 H 0.2234 0.9593 0.4766
H32 H 0.1394 0.8484 0.5113
C29 C 0.2235(3) 0.6829(2) 0.41644(13)
H33 H 0.1406 0.6616 0.4460
H34 H 0.2250 0.6515 0.3691
C30 C 0.2242(3) 0.8255(2) 0.40466(13)
C31 C 0.1006(3) 0.8914(2) 0.36873(13)
H35 H 0.0190 0.8725 0.4003
H36 H 0.1047 0.9812 0.3642
C32 C 0.5931(3) 0.8101(2) 0.50916(13)
C33 C 0.7199(3) 0.7948(2) 0.46885(14)
H37 H 0.7223 0.8012 0.4177
C34 C 0.8319(3) 0.7633(2) 0.57270(15)
H38 H 0.9126 0.7466 0.5948
C35 C 0.7122(3) 0.7782(2) 0.61768(14)
H39 H 0.7129 0.7723 0.6686
C36 C 0.5904(3) 0.8022(2) 0.58579(14)
H40 H 0.5084 0.8127 0.6150
C37 C 0.2292(3) 0.6224(2) 0.58195(13)
C38 C 0.1876(3) 0.6790(3) 0.64596(13)
H41 H 0.2238 0.7527 0.6511
C39 C 0.0488(3) 0.5276(3) 0.69234(14)
H42 H -0.0117 0.4943 0.7300
C40 C 0.0822(3) 0.4642(3) 0.63113(14)
H43 H 0.0444 0.3907 0.6276
C41 C 0.1735(3) 0.5126(2) 0.57489(14)
H44 H 0.1972 0.4719 0.5329
C42 C 0.5034(3) 0.5941(2) 0.34146(13)
C43 C 0.4435(3) 0.4890(2) 0.33085(13)
H45 H 0.3742 0.4634 0.3658
C44 C 0.5784(3) 0.4610(2) 0.22371(14)
H46 H 0.6037 0.4172 0.1831
C45 C 0.6457(3) 0.5644(2) 0.22971(13)
H47 H 0.7153 0.5880 0.1943
C46 C 0.6074(3) 0.6314(2) 0.28922(13)
H48 H 0.6509 0.7011 0.2943
O3 O 1.1204(3) -0.4000(3) -0.13901(18)
H49 H 1.0601 -0.3593 -0.1049
H50 H 1.1061 -0.3765 -0.1905
loop_
_geom_bond_atom_site_label_1
_geom_bond_atom_site_label_2
_geom_bond_site_symmetry_1
_geom_bond_site_symmetry_2
O1 H1 1_555 1_555
N1 C1 1_555 1_555
N2 C1 1_555 1_555
N3 C2 1_555 1_555
N4 C10 1_555 1_555
N5 C15 1_555 1_555
N6 C20 1_555 1_555
C1 H2 1_555 1_555
C2 N2 1_555 1_555
H3 C2 1_555 1_555
C3 N1 1_555 1_555
H4 C3 1_555 1_555
C4 N1 1_555 1_555
H5 C4 1_555 1_555
H6 C4 1_555 1_555
C5 N2 1_555 1_555
H7 C5 1_555 1_555
H8 C5 1_555 1_555
C6 N3 1_555 1_555
H9 C6 1_555 1_555
H10 C6 1_555 1_555
C7 C4 1_555 1_555
C8 O1 1_555 1_555
H11 C8 1_555 1_555
H12 C8 1_555 1_555
C9 C1 1_555 1_555
C10 C9 1_555 1_555
H13 C10 1_555 1_555
C11 N4 1_555 1_555
H14 C11 1_555 1_555
C12 C11 1_555 1_555
H15 C12 1_555 1_555
C13 C9 1_555 1_555
H16 C13 1_555 1_555
C14 C2 1_555 1_555
C15 C14 1_555 1_555
H17 C15 1_555 1_555
C16 N5 1_555 1_555
H18 C16 1_555 1_555
C17 C16 1_555 1_555
H19 C17 1_555 1_555
C18 C14 1_555 1_555
H20 C18 1_555 1_555
C19 C3 1_555 1_555
C20 C19 1_555 1_555
H21 C20 1_555 1_555
C21 N6 1_555 1_555
H22 C21 1_555 1_555
C22 C21 1_555 1_555
H23 C22 1_555 1_555
C23 C19 1_555 1_555
H24 C23 1_555 1_555
O2 H25 1_555 1_555
N7 C24 1_555 1_555
N8 C24 1_555 1_555
N9 C25 1_555 1_555
N10 C33 1_555 1_555
N11 C38 1_555 1_555
N12 C43 1_555 1_555
C24 H26 1_555 1_555
C25 N8 1_555 1_555
H27 C25 1_555 1_555
C26 N7 1_555 1_555
H28 C26 1_555 1_555
C27 N7 1_555 1_555
H29 C27 1_555 1_555
H30 C27 1_555 1_555
C28 N8 1_555 1_555
H31 C28 1_555 1_555
H32 C28 1_555 1_555
C29 N9 1_555 1_555
H33 C29 1_555 1_555
H34 C29 1_555 1_555
C30 C27 1_555 1_555
C31 O2 1_555 1_555
H35 C31 1_555 1_555
H36 C31 1_555 1_555
C32 C24 1_555 1_555
C33 C32 1_555 1_555
H37 C33 1_555 1_555
C34 N10 1_555 1_555
H38 C34 1_555 1_555
C35 C34 1_555 1_555
H39 C35 1_555 1_555
C36 C32 1_555 1_555
H40 C36 1_555 1_555
C37 C25 1_555 1_555
C38 C37 1_555 1_555
H41 C38 1_555 1_555
C39 N11 1_555 1_555
H42 C39 1_555 1_555
C40 C39 1_555 1_555
H43 C40 1_555 1_555
C41 C37 1_555 1_555
H44 C41 1_555 1_555
C42 C26 1_555 1_555
C43 C42 1_555 1_555
H45 C43 1_555 1_555
C44 N12 1_555 1_555
H46 C44 1_555 1_555
C45 C44 1_555 1_555
H47 C45 1_555 1_555
C46 C42 1_555 1_555
H48 C46 1_555 1_555
O3 H49 1_555 1_555
H50 O3 1_555 1_555
N3 C3 1_555 1_555
C5 C7 1_555 1_555
C6 C7 1_555 1_555
C7 C8 1_555 1_555
C12 C13 1_555 1_555
C17 C18 1_555 1_555
C22 C23 1_555 1_555
N9 C26 1_555 1_555
C28 C30 1_555 1_555
C29 C30 1_555 1_555
C30 C31 1_555 1_555
C35 C36 1_555 1_555
C40 C41 1_555 1_555
C45 C46 1_555 1_555

#END
