
#######################################################################
#
#                 Cambridge Crystallographic Data Centre
#                                CCDC 
#
#######################################################################
#
# If this CIF has been generated from an entry in the Cambridge 
# Structural Database, then it will include bibliographic, chemical, 
# crystal, experimental, refinement or atomic coordinate data resulting 
# from the CCDC's data processing and validation procedures.
#
#######################################################################

data_ZATZEC
_chemical_formula_moiety         'C26 H22 N2 O6'
_chemical_name_systematic        
"cis-dimethyl 1,1''-dimethyl-2,2''-dioxo-1,1'',2,2''-tetrahydrodispiro[indole-3,1'-cyclohexa[3,5]diene-2',3''-indole]-3',6'-dicarboxylate"
_symmetry_cell_setting           monoclinic
_symmetry_space_group_name_H-M   'P 21/n'
_symmetry_Int_Tables_number      14
_space_group_name_Hall           '-P 2yn'
loop_
_symmetry_equiv_pos_site_id
_symmetry_equiv_pos_as_xyz
1 x,y,z
2 1/2-x,1/2+y,1/2-z
3 -x,-y,-z
4 1/2+x,1/2-y,1/2+z
_cell_length_a                   9.4364(5)
_cell_length_b                   17.3521(9)
_cell_length_c                   13.8711(7)
_cell_angle_alpha                90
_cell_angle_beta                 97.965(4)
_cell_angle_gamma                90
_cell_volume                     2249.36
_exptl_crystal_colour            yellow
_exptl_crystal_description       block
_cell_formula_units_Z            4
loop_
_atom_site_label
_atom_site_type_symbol
_atom_site_fract_x
_atom_site_fract_y
_atom_site_fract_z
C1 C 0.2960(2) 0.10720(12) 0.69693(14)
C2 C 0.3702(2) 0.21339(12) 0.79975(15)
C3 C 0.5027(2) -0.02089(12) 0.85921(15)
H1 H 0.5249 -0.0727 0.8695
C4 C 0.3842(2) 0.01184(12) 0.90155(15)
H2 H 0.3437 -0.0159 0.9482
C5 C 0.3896(2) 0.12473(11) 0.79281(14)
C6 C 0.6490(2) 0.15101(11) 0.87328(15)
C7 C 0.5809(2) 0.02123(11) 0.80597(14)
C8 C 0.6052(2) 0.14004(12) 0.70040(15)
C9 C 0.2391(2) 0.17588(12) 0.65700(15)
C10 C 0.3322(2) 0.08126(11) 0.87458(14)
C11 C 0.2625(2) 0.03852(13) 0.64963(16)
H3 H 0.2986 -0.0078 0.6764
C12 C 0.2033(2) 0.11262(13) 0.90950(16)
C13 C 0.5525(2) 0.10681(11) 0.79029(14)
C14 C 0.1732(3) 0.03998(14) 0.56060(17)
H4 H 0.1520 -0.0056 0.5264
C15 C 0.7792(3) 0.23488(14) 0.6641(2)
H5 H 0.8456 0.2732 0.6844
C16 C 0.7063(2) 0.19687(12) 0.72930(16)
C17 C 0.5772(2) 0.12011(14) 0.60320(16)
H6 H 0.5102 0.0821 0.5826
C18 C 0.1470(2) 0.17751(14) 0.57061(16)
H7 H 0.1070 0.2235 0.5453
C19 C 0.1164(3) 0.10846(15) 0.52320(17)
H8 H 0.0557 0.1082 0.4643
C20 C 0.7064(3) -0.01388(13) 0.76925(17)
C21 C 0.6507(3) 0.15772(17) 0.53637(19)
H9 H 0.6329 0.1449 0.4707
C22 C 0.7498(3) 0.21396(17) 0.5676(2)
H10 H 0.7981 0.2385 0.5222
C23 C 0.9372(3) 0.01345(17) 0.7290(2)
H11 H 0.9863 -0.0302 0.7604
H12 H 1.0018 0.0564 0.7312
H13 H 0.9031 0.0009 0.6625
C24 C 0.0397(3) 0.10251(17) 1.0228(2)
H14 H 0.0520 0.1546 1.0456
H15 H 0.0199 0.0699 1.0752
H16 H -0.0387 0.1001 0.9708
N1 N 0.72690(18) 0.20364(9) 0.83094(13)
O1 O 0.81759(16) 0.03344(9) 0.77866(11)
O2 O 0.13315(17) 0.16457(10) 0.87000(11)
O3 O 0.16915(17) 0.07667(10) 0.98779(12)
O4 O 0.7086(2) -0.07740(11) 0.73707(17)
O5 O 0.42213(16) 0.25469(8) 0.86629(11)
O6 O 0.65542(15) 0.13860(8) 0.96014(10)
C25 C 0.8276(2) 0.25697(13) 0.88465(18)
H17 H 0.8303 0.2483 0.9532
H18 H 0.7978 0.3090 0.8693
H19 H 0.9212 0.2488 0.8668
N2 N 0.28905(19) 0.23803(9) 0.71649(12)
C26 C 0.2426(3) 0.31728(13) 0.70237(19)
H20 H 0.1464 0.3222 0.7168
H21 H 0.2459 0.3320 0.6360
H22 H 0.3047 0.3501 0.7450
loop_
_geom_bond_atom_site_label_1
_geom_bond_atom_site_label_2
_geom_bond_site_symmetry_1
_geom_bond_site_symmetry_2
C1 C5 1_555 1_555
C2 C5 1_555 1_555
C3 H1 1_555 1_555
C4 C3 1_555 1_555
H2 C4 1_555 1_555
C5 C10 1_555 1_555
C6 C13 1_555 1_555
C7 C3 1_555 1_555
C8 C13 1_555 1_555
C9 C1 1_555 1_555
C10 C4 1_555 1_555
C11 C1 1_555 1_555
H3 C11 1_555 1_555
C12 C10 1_555 1_555
C13 C5 1_555 1_555
C14 C11 1_555 1_555
H4 C14 1_555 1_555
C15 H5 1_555 1_555
C16 C8 1_555 1_555
C17 C8 1_555 1_555
H6 C17 1_555 1_555
C18 C9 1_555 1_555
H7 C18 1_555 1_555
C19 C14 1_555 1_555
H8 C19 1_555 1_555
C20 C7 1_555 1_555
C21 C17 1_555 1_555
H9 C21 1_555 1_555
C22 C15 1_555 1_555
H10 C22 1_555 1_555
C23 H11 1_555 1_555
H12 C23 1_555 1_555
H13 C23 1_555 1_555
C24 H14 1_555 1_555
H15 C24 1_555 1_555
H16 C24 1_555 1_555
N1 C6 1_555 1_555
O1 C20 1_555 1_555
O2 C12 1_555 1_555
O3 C12 1_555 1_555
O4 C20 1_555 1_555
O5 C2 1_555 1_555
O6 C6 1_555 1_555
C25 N1 1_555 1_555
H17 C25 1_555 1_555
H18 C25 1_555 1_555
H19 C25 1_555 1_555
N2 C2 1_555 1_555
C26 N2 1_555 1_555
H20 C26 1_555 1_555
H21 C26 1_555 1_555
H22 C26 1_555 1_555
C7 C13 1_555 1_555
C9 N2 1_555 1_555
C15 C16 1_555 1_555
C16 N1 1_555 1_555
C18 C19 1_555 1_555
C21 C22 1_555 1_555
C23 O1 1_555 1_555
C24 O3 1_555 1_555

#END
