
#######################################################################
#
#                 Cambridge Crystallographic Data Centre
#                                CCDC 
#
#######################################################################
#
# If this CIF has been generated from an entry in the Cambridge 
# Structural Database, then it will include bibliographic, chemical, 
# crystal, experimental, refinement or atomic coordinate data resulting 
# from the CCDC's data processing and validation procedures.
#
#######################################################################

data_ZAVBAC
_chemical_compound_source        'Daldinia childiae'
_chemical_name_common            'Childinasterone A'
_chemical_formula_moiety         'C28 H40 O3'
_chemical_name_systematic        
1-{2-[2-(5,6-dimethylhept-3-en-2-yl)-1-methyl-5-oxocyclopentyl]ethyl}-8a-methyl-1,7,8,8a-tetrahydronaphthalene-2,6-dione
_chemical_properties_biological  
'significant anti-NO activity and weak activity against SMMC-7721, MCF-7 and SW480 cancer cell lines'
_symmetry_cell_setting           orthorhombic
_symmetry_space_group_name_H-M   'P 21 21 21'
_symmetry_Int_Tables_number      19
_space_group_name_Hall           'P 2ac 2ab'
loop_
_symmetry_equiv_pos_site_id
_symmetry_equiv_pos_as_xyz
1 x,y,z
2 1/2+x,1/2-y,-z
3 -x,1/2+y,1/2-z
4 1/2-x,-y,1/2+z
_cell_length_a                   7.4765(2)
_cell_length_b                   10.6607(2)
_cell_length_c                   30.1431(6)
_cell_angle_alpha                90
_cell_angle_beta                 90
_cell_angle_gamma                90
_cell_volume                     2402.55
_exptl_crystal_colour            colorless
_exptl_crystal_description       plate
_chemical_melting_point          '171-174 deg.C'
_cell_formula_units_Z            4
loop_
_atom_site_label
_atom_site_type_symbol
_atom_site_fract_x
_atom_site_fract_y
_atom_site_fract_z
O1 O 0.8521(4) 1.5216(3) 0.10263(12)
O2 O -0.0611(4) 1.2619(3) 0.04441(9)
O3 O 0.4322(5) 0.8458(3) 0.05205(11)
C1 C 0.7163(6) 1.4594(3) 0.09778(14)
C2 C 0.6825(6) 1.3440(4) 0.12471(15)
H1 H 0.6389 1.3690 0.1544
H2 H 0.7965 1.2983 0.1287
C3 C 0.5455(5) 1.2561(4) 0.10333(13)
H3 H 0.5170 1.1877 0.1244
H4 H 0.5991 1.2177 0.0765
C4 C 0.3716(5) 1.3232(3) 0.09022(12)
C5 C 0.2504(5) 1.2329(3) 0.06259(12)
H5 H 0.3228 1.2057 0.0364
C6 C 0.1962(5) 1.1134(3) 0.08717(12)
H6 H 0.3016 1.0810 0.1034
H7 H 0.1037 1.1350 0.1094
C7 C 0.1241(6) 1.0098(3) 0.05744(13)
H8 H 0.1956 1.0081 0.0298
H9 H -0.0005 1.0307 0.0492
C8 C 0.1264(6) 0.8776(3) 0.07808(13)
C9 C 0.0616(5) 0.8626(3) 0.12727(13)
H10 H 0.1065 0.9369 0.1442
C10 C -0.1402(6) 0.8537(4) 0.13556(14)
H11 H -0.1878 0.7811 0.1182
C11 C -0.1748(5) 0.8296(4) 0.18394(15)
H12 H -0.1729 0.9005 0.2030
C12 C -0.2075(6) 0.7203(4) 0.20263(17)
H13 H -0.2249 0.6499 0.1838
C13 C -0.2192(7) 0.6998(6) 0.25243(19)
H14 H -0.2508 0.7822 0.2662
C14 C -0.3595(10) 0.6056(8) 0.2671(4)
H15 H -0.3637 0.6088 0.3003
C15 C -0.3244(15) 0.4821(8) 0.2555(3)
H16 H -0.3556 0.4689 0.2243
H17 H -0.3958 0.4258 0.2741
H18 H -0.1970 0.4643 0.2599
C16 C 0.4184(5) 1.4378(3) 0.06198(13)
C17 C 0.2827(6) 1.4869(3) 0.03261(13)
H19 H 0.3042 1.5647 0.0182
C18 C 0.1278(6) 1.4277(4) 0.02474(13)
H20 H 0.0410 1.4662 0.0062
C19 C 0.0897(5) 1.3040(3) 0.04429(12)
C20 C 0.3203(6) 0.8298(4) 0.08019(15)
C21 C 0.3491(6) 0.7585(4) 0.12284(15)
H21 H 0.4319 0.8046 0.1426
H22 H 0.3998 0.6745 0.1168
C22 C 0.1655(5) 0.7473(4) 0.14393(14)
H23 H 0.1747 0.7480 0.1767
H24 H 0.1058 0.6688 0.1345
C23 C -0.0342(8) 0.6632(7) 0.26964(19)
H25 H -0.0417 0.6438 0.3014
H26 H 0.0490 0.7331 0.2651
H27 H 0.0088 0.5893 0.2535
C24 C -0.2405(6) 0.9724(4) 0.12085(18)
H28 H -0.3664 0.9659 0.1295
H29 H -0.2322 0.9810 0.0885
H30 H -0.1868 1.0460 0.1351
C25 C 0.0279(7) 0.7857(4) 0.04700(15)
H31 H 0.0857 0.7859 0.0178
H32 H -0.0972 0.8118 0.0439
H33 H 0.0325 0.7010 0.0596
C26 C 0.5778(5) 1.4975(3) 0.06612(13)
H34 H 0.6008 1.5676 0.0475
C27 C 0.2687(5) 1.3695(4) 0.13141(13)
H35 H 0.3415 1.4311 0.1474
H36 H 0.2429 1.2983 0.1509
H37 H 0.1562 1.4086 0.1221
C28 C -0.5407(11) 0.6424(13) 0.2508(5)
H38 H -0.5572 0.6117 0.2205
H39 H -0.5515 0.7340 0.2512
H40 H -0.6322 0.6057 0.2702
loop_
_geom_bond_atom_site_label_1
_geom_bond_atom_site_label_2
_geom_bond_site_symmetry_1
_geom_bond_site_symmetry_2
O1 C1 1_555 1_555
O2 C19 1_555 1_555
O3 C20 1_555 1_555
C1 C2 1_555 1_555
C2 H1 1_555 1_555
H2 C2 1_555 1_555
C3 C2 1_555 1_555
H3 C3 1_555 1_555
H4 C3 1_555 1_555
C4 C3 1_555 1_555
C5 C4 1_555 1_555
H5 C5 1_555 1_555
C6 C5 1_555 1_555
H6 C6 1_555 1_555
H7 C6 1_555 1_555
C7 C6 1_555 1_555
H8 C7 1_555 1_555
H9 C7 1_555 1_555
C8 C7 1_555 1_555
C9 C8 1_555 1_555
H10 C9 1_555 1_555
C10 C9 1_555 1_555
H11 C10 1_555 1_555
C11 C10 1_555 1_555
H12 C11 1_555 1_555
C12 C11 1_555 1_555
H13 C12 1_555 1_555
C13 C12 1_555 1_555
H14 C13 1_555 1_555
C14 C13 1_555 1_555
H15 C14 1_555 1_555
C15 C14 1_555 1_555
H16 C15 1_555 1_555
H17 C15 1_555 1_555
H18 C15 1_555 1_555
C16 C4 1_555 1_555
C17 C16 1_555 1_555
H19 C17 1_555 1_555
C18 C17 1_555 1_555
H20 C18 1_555 1_555
C19 C5 1_555 1_555
C20 C8 1_555 1_555
C21 C20 1_555 1_555
H21 C21 1_555 1_555
H22 C21 1_555 1_555
C22 C9 1_555 1_555
H23 C22 1_555 1_555
H24 C22 1_555 1_555
C23 C13 1_555 1_555
H25 C23 1_555 1_555
H26 C23 1_555 1_555
H27 C23 1_555 1_555
C24 C10 1_555 1_555
H28 C24 1_555 1_555
H29 C24 1_555 1_555
H30 C24 1_555 1_555
C25 C8 1_555 1_555
H31 C25 1_555 1_555
H32 C25 1_555 1_555
H33 C25 1_555 1_555
C26 C1 1_555 1_555
H34 C26 1_555 1_555
C27 C4 1_555 1_555
H35 C27 1_555 1_555
H36 C27 1_555 1_555
H37 C27 1_555 1_555
C28 C14 1_555 1_555
H38 C28 1_555 1_555
H39 C28 1_555 1_555
H40 C28 1_555 1_555
C16 C26 1_555 1_555
C18 C19 1_555 1_555
C21 C22 1_555 1_555

#END
