
#######################################################################
#
#                 Cambridge Crystallographic Data Centre
#                                CCDC 
#
#######################################################################
#
# If this CIF has been generated from an entry in the Cambridge 
# Structural Database, then it will include bibliographic, chemical, 
# crystal, experimental, refinement or atomic coordinate data resulting 
# from the CCDC's data processing and validation procedures.
#
#######################################################################

data_ZAVCIK
_chemical_formula_moiety         'C24 H9 F19 Si1'
_chemical_name_systematic        
tris(2,5-bis(trifluoromethyl)phenyl)(fluoro)silane
_symmetry_cell_setting           monoclinic
_symmetry_space_group_name_H-M   'P 21/n'
_symmetry_Int_Tables_number      14
_space_group_name_Hall           '-P 2yn'
loop_
_symmetry_equiv_pos_site_id
_symmetry_equiv_pos_as_xyz
1 x,y,z
2 1/2-x,1/2+y,1/2-z
3 -x,-y,-z
4 1/2+x,1/2-y,1/2+z
_cell_length_a                   9.6178(4)
_cell_length_b                   9.6651(4)
_cell_length_c                   26.763(1)
_cell_angle_alpha                90
_cell_angle_beta                 92.44(1)
_cell_angle_gamma                90
_cell_volume                     2485.55
_exptl_crystal_colour            colorless
_exptl_crystal_description       plate
_cell_formula_units_Z            4
loop_
_atom_site_label
_atom_site_type_symbol
_atom_site_fract_x
_atom_site_fract_y
_atom_site_fract_z
Si1 Si 0.75213(8) 0.37937(8) 0.14302(3)
F1 F 0.63523(17) 0.30438(16) 0.17363(6)
F2 F 0.8236(5) 0.4299(5) 0.01203(16)
F3 F 0.8606(5) 0.6487(5) 0.00711(17)
F4 F 0.9243(6) 0.5214(6) 0.0723(2)
F5 F 0.2281(6) 0.5492(5) 0.1410(3)
F6 F 0.1919(6) 0.7083(8) 0.0825(2)
F7 F 0.2928(6) 0.7604(7) 0.1538(2)
F8 F 0.56142(17) 0.22706(18) 0.07620(7)
F9 F 0.58349(18) 0.03973(19) 0.11928(7)
F10 F 0.58948(19) 0.0328(2) 0.03935(7)
F11 F 1.2893(5) 0.0693(5) 0.06149(18)
F12 F 1.2711(4) 0.2894(4) 0.08500(16)
F13 F 1.2780(4) 0.1240(5) 0.13881(15)
F14 F 0.8632(2) 0.18876(17) 0.21375(7)
F15 F 1.0849(2) 0.20637(19) 0.22672(8)
F16 F 0.9480(2) 0.23339(19) 0.28707(6)
F17 F 0.9826(5) 0.8866(5) 0.16311(16)
F18 F 1.0646(5) 0.9100(5) 0.24009(17)
F19 F 0.8404(4) 0.9020(4) 0.22193(17)
C1 C 0.6475(3) 0.5097(3) 0.10453(10)
C2 C 0.6851(3) 0.5810(3) 0.06127(11)
C3 C 0.5941(3) 0.6728(3) 0.03676(12)
H1 H 0.6216 0.7182 0.0073
C4 C 0.4643(3) 0.6987(3) 0.05480(12)
H2 H 0.4027 0.7619 0.0381
C5 C 0.4253(3) 0.6313(3) 0.09763(11)
C6 C 0.5151(3) 0.5379(3) 0.12171(11)
H3 H 0.4857 0.4916 0.1507
C7 C 0.8241(3) 0.5590(3) 0.03962(11)
C8 C 0.2867(3) 0.6609(3) 0.11878(13)
C9 C 0.8454(3) 0.2418(3) 0.10770(10)
C10 C 0.7856(3) 0.1267(3) 0.08309(10)
C11 C 0.8656(3) 0.0235(3) 0.06238(10)
H4 H 0.8215 -0.0531 0.0461
C12 C 1.0088(3) 0.0320(3) 0.06540(10)
H5 H 1.0638 -0.0391 0.0517
C13 C 1.0711(3) 0.1448(3) 0.08857(10)
C14 C 0.9919(3) 0.2477(3) 0.10927(10)
H6 H 1.0375 0.3244 0.1250
C15 C 0.6303(3) 0.1064(3) 0.07967(11)
C16 C 1.2267(3) 0.1520(3) 0.09415(11)
C17 C 0.8735(3) 0.4724(3) 0.18872(10)
C18 C 0.9571(3) 0.4133(3) 0.22801(10)
C19 C 1.0414(3) 0.4941(3) 0.25958(11)
H7 H 1.0970 0.4512 0.2853
C20 C 1.0458(3) 0.6354(3) 0.25413(11)
H8 H 1.1042 0.6901 0.2757
C21 C 0.9635(3) 0.6964(3) 0.21658(10)
C22 C 0.8800(3) 0.6165(3) 0.18477(10)
H9 H 0.8248 0.6612 0.1593
C23 C 0.9628(3) 0.2608(3) 0.23855(11)
C24 C 0.9612(3) 0.8502(3) 0.21004(11)
F20? F 1.2881(5) 0.1025(5) 0.05396(16)
F21? F 1.2765(5) 0.2732(5) 0.10315(18)
F22? F 1.2718(4) 0.0694(5) 0.13436(16)
F23? F 1.0259(5) 0.8895(5) 0.16891(17)
F24? F 1.0194(5) 0.9213(4) 0.24745(16)
F25? F 0.8267(5) 0.9003(5) 0.2046(2)
F26? F 0.8260(5) 0.4719(5) 0.00513(16)
F27? F 0.8724(4) 0.6854(4) 0.01975(14)
F28? F 0.9252(6) 0.5452(6) 0.0769(2)
F29? F 0.2592(9) 0.5805(9) 0.1581(3)
F30? F 0.2118(8) 0.5477(8) 0.1213(3)
F31? F 0.1835(9) 0.6603(9) 0.0897(3)
F32? F 0.2075(10) 0.7468(10) 0.0857(4)
F33? F 0.2981(9) 0.7953(8) 0.1404(3)
F34? F 0.2898(9) 0.7181(9) 0.1625(3)
loop_
_geom_bond_atom_site_label_1
_geom_bond_atom_site_label_2
_geom_bond_site_symmetry_1
_geom_bond_site_symmetry_2
Si1 F1 1_555 1_555
F2 C7 1_555 1_555
F3 C7 1_555 1_555
F4 C7 1_555 1_555
F5 C8 1_555 1_555
F6 C8 1_555 1_555
F7 C8 1_555 1_555
F8 C15 1_555 1_555
F9 C15 1_555 1_555
F10 C15 1_555 1_555
F11 C16 1_555 1_555
F12 C16 1_555 1_555
F13 C16 1_555 1_555
F14 C23 1_555 1_555
F15 C23 1_555 1_555
F16 C23 1_555 1_555
F17 C24 1_555 1_555
F18 C24 1_555 1_555
F19 C24 1_555 1_555
C1 Si1 1_555 1_555
C2 C1 1_555 1_555
C3 C2 1_555 1_555
H1 C3 1_555 1_555
C4 C3 1_555 1_555
H2 C4 1_555 1_555
C5 C4 1_555 1_555
C6 C1 1_555 1_555
H3 C6 1_555 1_555
C7 C2 1_555 1_555
C8 C5 1_555 1_555
C9 Si1 1_555 1_555
C10 C9 1_555 1_555
C11 C10 1_555 1_555
H4 C11 1_555 1_555
C12 C11 1_555 1_555
H5 C12 1_555 1_555
C13 C12 1_555 1_555
C14 C9 1_555 1_555
H6 C14 1_555 1_555
C15 C10 1_555 1_555
C16 C13 1_555 1_555
C17 Si1 1_555 1_555
C18 C17 1_555 1_555
C19 C18 1_555 1_555
H7 C19 1_555 1_555
C20 C19 1_555 1_555
H8 C20 1_555 1_555
C21 C20 1_555 1_555
C22 C17 1_555 1_555
H9 C22 1_555 1_555
C23 C18 1_555 1_555
C24 C21 1_555 1_555
C5 C6 1_555 1_555
C13 C14 1_555 1_555
C21 C22 1_555 1_555

#END
