
#######################################################################
#
#                 Cambridge Crystallographic Data Centre
#                                CCDC 
#
#######################################################################
#
# If this CIF has been generated from an entry in the Cambridge 
# Structural Database, then it will include bibliographic, chemical, 
# crystal, experimental, refinement or atomic coordinate data resulting 
# from the CCDC's data processing and validation procedures.
#
#######################################################################

data_ZAVLOA
_chemical_formula_moiety         'C52 H52 B2 F4 N6 O2 S2,C1 H2 Cl2'
_chemical_name_systematic        
"10,10,21,21-tetrafluoro-3,14-bis(octyloxy)-7,18-diphenyl-10H,21H-10\l^5^,21\l^5^-[1,3]benzothiazolo[3'''',2'''':3''',4'''][1,3,5,2]triazaborinino[1''',6''':1'',5'']pyrrolo[2'',3'':5',6']indolo[1',2':3,4][1,3,5,2]triazaborinino[6,1-b][1,3]benzothiazole dichloromethane solvate"
_symmetry_cell_setting           triclinic
_symmetry_space_group_name_H-M   'P -1'
_symmetry_Int_Tables_number      2
_space_group_name_Hall           '-P 1'
loop_
_symmetry_equiv_pos_site_id
_symmetry_equiv_pos_as_xyz
1 x,y,z
2 -x,-y,-z
_cell_length_a                   11.8648(13)
_cell_length_b                   14.7252(16)
_cell_length_c                   16.688(3)
_cell_angle_alpha                114.476(2)
_cell_angle_beta                 101.438(2)
_cell_angle_gamma                100.3600(10)
_cell_volume                     2486.18
_exptl_crystal_colour            black
_exptl_crystal_description       prism
_cell_formula_units_Z            2
_exptl_crystal_recrystallization_method 'dichloromethane/ methanol'
loop_
_atom_site_label
_atom_site_type_symbol
_atom_site_fract_x
_atom_site_fract_y
_atom_site_fract_z
N1 N 0.0211(2) 0.69289(18) 0.37663(17)
C1 C 0.0010(2) 0.5918(2) 0.3078(2)
C2 C 0.1136(3) 0.5824(2) 0.2885(2)
C3 C 0.2006(3) 0.6772(2) 0.3461(2)
C4 C 0.1387(2) 0.7466(2) 0.4015(2)
N2 N 0.1903(2) 0.84364(18) 0.46749(17)
N3 N 0.0025(2) 0.84544(18) 0.50068(16)
C5 C 0.1194(3) 0.8884(2) 0.51545(19)
S1 S 0.17654(6) 1.01344(5) 0.60759(5)
C6 C 0.0369(3) 1.0076(2) 0.6266(2)
C7 C 0.0040(3) 1.0847(2) 0.6935(2)
H1 H 0.0601 1.1507 0.7364
C8 C -0.1143(3) 1.0599(3) 0.6941(2)
C9 C -0.1975(3) 0.9615(3) 0.6303(2)
H2 H -0.2779 0.9468 0.6325
C10 C -0.1641(3) 0.8873(3) 0.5658(2)
H3 H -0.2201 0.8209 0.5234
C11 C -0.0460(3) 0.9109(2) 0.56335(19)
B1 B -0.0725(3) 0.7360(3) 0.4191(2)
F1 F -0.12882(16) 0.67372(13) 0.45170(12)
F2 F -0.15837(14) 0.74696(13) 0.35677(11)
C12 C -0.1037(2) 0.5134(2) 0.26530(19)
H4 H -0.1751 0.5227 0.2809
C13 C 0.1160(3) 0.4846(2) 0.2195(2)
H5 H 0.1876 0.4755 0.2042
N4 N -0.0103(2) 0.30343(18) 0.10898(16)
C14 C 0.0110(3) 0.4053(2) 0.1767(2)
C15 C -0.1018(2) 0.4159(2) 0.1956(2)
C16 C -0.1897(3) 0.3218(2) 0.1381(2)
C17 C -0.1284(2) 0.2517(2) 0.08440(19)
N5 N -0.1816(2) 0.15420(18) 0.01988(17)
N6 N 0.0072(2) 0.14434(18) -0.01017(16)
C18 C -0.1111(3) 0.1057(2) -0.02569(19)
S2 S -0.17295(6) -0.01989(5) -0.11580(5)
C19 C -0.0337(3) -0.0204(2) -0.13390(19)
C20 C -0.0056(3) -0.1019(2) -0.2007(2)
H6 H -0.0652 -0.1662 -0.2431
C21 C 0.1120(3) -0.0848(2) -0.2024(2)
C22 C 0.1995(3) 0.0115(3) -0.1403(2)
H7 H 0.2796 0.0217 -0.1433
C23 C 0.1711(3) 0.0908(2) -0.0757(2)
H8 H 0.2305 0.1556 -0.0344
C24 C 0.0531(3) 0.0741(2) -0.07173(19)
B2 B 0.0840(3) 0.2543(3) 0.0719(2)
F3 F 0.14984(16) 0.31142(13) 0.03979(13)
F4 F 0.16188(14) 0.24300(13) 0.13862(11)
C25 C 0.3293(3) 0.7072(2) 0.3558(2)
C26 C 0.3926(3) 0.6331(2) 0.3417(2)
H9 H 0.3531 0.5644 0.3292
C27 C 0.5127(3) 0.6596(3) 0.3459(2)
H10 H 0.5551 0.6089 0.3358
C28 C 0.5706(3) 0.7594(3) 0.3646(2)
H11 H 0.6525 0.7771 0.3664
C29 C 0.5102(3) 0.8337(3) 0.3807(2)
H12 H 0.5510 0.9027 0.3946
C30 C 0.3904(3) 0.8085(2) 0.3768(2)
H13 H 0.3496 0.8603 0.3884
C31 C -0.3179(3) 0.2939(2) 0.1299(2)
C32 C -0.3795(3) 0.3698(2) 0.1464(2)
H14 H -0.3391 0.4382 0.1587
C33 C -0.4981(3) 0.3458(3) 0.1450(2)
H15 H -0.5382 0.3982 0.1574
C34 C -0.5592(3) 0.2463(3) 0.1258(2)
H16 H -0.6401 0.2309 0.1266
C35 C -0.5017(3) 0.1691(3) 0.1053(2)
H17 H -0.5443 0.0999 0.0895
C36 C -0.3816(3) 0.1928(2) 0.1079(2)
H18 H -0.3424 0.1398 0.0947
O1 O -0.1630(2) 1.12339(19) 0.75272(16)
C37 C -0.0946(3) 1.2266(3) 0.8186(2)
H19 H -0.0612 1.2662 0.7888
H20 H -0.0279 1.2276 0.8656
C38 C -0.1883(3) 1.2708(3) 0.8617(3)
H21 H -0.2558 1.2637 0.8117
H22 H -0.2209 1.2276 0.8888
C39 C -0.1434(3) 1.3820(3) 0.9343(3)
H23 H -0.0987 1.4250 0.9118
H24 H -0.0876 1.3883 0.9903
C40 C -0.2487(3) 1.4216(3) 0.9585(3)
H25 H -0.2995 1.4210 0.9034
H26 H -0.2984 1.3726 0.9732
C41 C -0.2131(3) 1.5302(3) 1.0387(2)
H27 H -0.1516 1.5771 1.0298
H28 H -0.1763 1.5282 1.0964
C42 C -0.3179(3) 1.5747(3) 1.0494(2)
H29 H -0.3791 1.5277 1.0586
H30 H -0.3551 1.5759 0.9914
C43 C -0.2840(3) 1.6837(3) 1.1290(3)
H31 H -0.2511 1.6817 1.1874
H32 H -0.2194 1.7298 1.1218
C44 C -0.3872(4) 1.7303(3) 1.1364(3)
H33 H -0.4526 1.6844 1.1421
H34 H -0.4164 1.7378 1.0810
H35 H -0.3598 1.7990 1.1911
O2 O 0.1535(2) -0.15715(19) -0.26173(16)
C45 C 0.0696(3) -0.2590(3) -0.3244(3)
H36 H 0.0170 -0.2557 -0.3765
H37 H 0.0182 -0.2809 -0.2918
C46 C 0.2846(5) -0.3800(4) -0.4499(4)
H38 H 0.3407 -0.3474 -0.4737
H39 H 0.3326 -0.3765 -0.3924
C47 C 0.2276(4) -0.4895(3) -0.5179(3)
H40 H 0.1770 -0.4939 -0.5750
H41 H 0.1747 -0.5239 -0.4933
C48 C 0.3247(4) -0.5480(3) -0.5415(3)
H42 H 0.3837 -0.5078 -0.5581
H43 H 0.3685 -0.5505 -0.4858
C49 C 0.2726(4) -0.6553(3) -0.6181(3)
H44 H 0.2278 -0.6524 -0.6733
H45 H 0.2140 -0.6951 -0.6010
C50 C 0.3620(4) -0.7135(3) -0.6435(3)
H46 H 0.4038 -0.7207 -0.5906
H47 H 0.4207 -0.6750 -0.6607
H48 H 0.3201 -0.7829 -0.6959
C51 C 0.1365(5) -0.3387(4) -0.3614(4)
H49 H 0.1995 -0.3343 -0.3100
H50 H 0.0802 -0.4102 -0.3950
C52 C 0.1919(6) -0.3131(5) -0.4251(4)
H51 H 0.2348 -0.2376 -0.3950
H52 H 0.1287 -0.3306 -0.4822
C55 C 0.5368(6) 0.0880(5) 0.2680(4)
H61 H 0.4904 0.1327 0.2554
H62 H 0.6201 0.1134 0.2683
Cl1 Cl 0.5385(2) 0.09683(19) 0.37809(15)
Cl2 Cl 0.4711(3) -0.0420(2) 0.1807(2)
H53? H -0.0093 -0.2540 -0.3524
H54? H 0.0581 -0.3028 -0.2933
C53? C 0.1381(11) -0.3028(9) -0.3997(9)
H55? H 0.0789 -0.3548 -0.4600
H56? H 0.1818 -0.2448 -0.4078
C54? C 0.2247(12) -0.3521(11) -0.3685(9)
H57? H 0.1832 -0.4153 -0.3663
H58? H 0.2842 -0.3026 -0.3075
H59? H 0.2737 -0.3349 -0.4795
H60? H 0.3719 -0.3677 -0.4246
Cl3? Cl 0.4649(6) -0.0710(9) 0.1378(7)
Cl4? Cl 0.5333(7) 0.0648(8) 0.3345(9)
C56? C 0.4589(18) -0.0541(18) 0.2422(10)
H63? H 0.3732 -0.0698 0.2397
H64? H 0.4905 -0.1067 0.2539
loop_
_geom_bond_atom_site_label_1
_geom_bond_atom_site_label_2
_geom_bond_site_symmetry_1
_geom_bond_site_symmetry_2
N1 C1 1_555 1_555
C1 C2 1_555 1_555
C2 C3 1_555 1_555
C3 C4 1_555 1_555
C4 N1 1_555 1_555
N2 C4 1_555 1_555
N3 C5 1_555 1_555
C5 N2 1_555 1_555
S1 C5 1_555 1_555
C6 S1 1_555 1_555
C7 C6 1_555 1_555
H1 C7 1_555 1_555
C8 C7 1_555 1_555
C9 C8 1_555 1_555
H2 C9 1_555 1_555
C10 C9 1_555 1_555
H3 C10 1_555 1_555
C11 N3 1_555 1_555
B1 N1 1_555 1_555
F1 B1 1_555 1_555
F2 B1 1_555 1_555
C12 C1 1_555 1_555
H4 C12 1_555 1_555
C13 C2 1_555 1_555
H5 C13 1_555 1_555
N4 C14 1_555 1_555
C14 C13 1_555 1_555
C15 C12 1_555 1_555
C16 C15 1_555 1_555
C17 N4 1_555 1_555
N5 C17 1_555 1_555
N6 C18 1_555 1_555
C18 N5 1_555 1_555
S2 C18 1_555 1_555
C19 S2 1_555 1_555
C20 C19 1_555 1_555
H6 C20 1_555 1_555
C21 C20 1_555 1_555
C22 C21 1_555 1_555
H7 C22 1_555 1_555
C23 C22 1_555 1_555
H8 C23 1_555 1_555
C24 N6 1_555 1_555
B2 N4 1_555 1_555
F3 B2 1_555 1_555
F4 B2 1_555 1_555
C25 C3 1_555 1_555
C26 C25 1_555 1_555
H9 C26 1_555 1_555
C27 C26 1_555 1_555
H10 C27 1_555 1_555
C28 C27 1_555 1_555
H11 C28 1_555 1_555
C29 C28 1_555 1_555
H12 C29 1_555 1_555
C30 C25 1_555 1_555
H13 C30 1_555 1_555
C31 C16 1_555 1_555
C32 C31 1_555 1_555
H14 C32 1_555 1_555
C33 C32 1_555 1_555
H15 C33 1_555 1_555
C34 C33 1_555 1_555
H16 C34 1_555 1_555
C35 C34 1_555 1_555
H17 C35 1_555 1_555
C36 C31 1_555 1_555
H18 C36 1_555 1_555
O1 C8 1_555 1_555
C37 O1 1_555 1_555
H19 C37 1_555 1_555
H20 C37 1_555 1_555
C38 C37 1_555 1_555
H21 C38 1_555 1_555
H22 C38 1_555 1_555
C39 C38 1_555 1_555
H23 C39 1_555 1_555
H24 C39 1_555 1_555
C40 C39 1_555 1_555
H25 C40 1_555 1_555
H26 C40 1_555 1_555
C41 C40 1_555 1_555
H27 C41 1_555 1_555
H28 C41 1_555 1_555
C42 C41 1_555 1_555
H29 C42 1_555 1_555
H30 C42 1_555 1_555
C43 C42 1_555 1_555
H31 C43 1_555 1_555
H32 C43 1_555 1_555
C44 C43 1_555 1_555
H33 C44 1_555 1_555
H34 C44 1_555 1_555
H35 C44 1_555 1_555
O2 C21 1_555 1_555
C45 O2 1_555 1_555
H36 C45 1_555 1_555
H37 C45 1_555 1_555
C46 H38 1_555 1_555
H39 C46 1_555 1_555
C47 C46 1_555 1_555
H40 C47 1_555 1_555
H41 C47 1_555 1_555
C48 C47 1_555 1_555
H42 C48 1_555 1_555
H43 C48 1_555 1_555
C49 C48 1_555 1_555
H44 C49 1_555 1_555
H45 C49 1_555 1_555
C50 C49 1_555 1_555
H46 C50 1_555 1_555
H47 C50 1_555 1_555
H48 C50 1_555 1_555
C51 C45 1_555 1_555
H49 C51 1_555 1_555
H50 C51 1_555 1_555
C52 C46 1_555 1_555
H51 C52 1_555 1_555
H52 C52 1_555 1_555
C55 H61 1_555 1_555
H62 C55 1_555 1_555
Cl1 C55 1_555 1_555
Cl2 C55 1_555 1_555
N3 B1 1_555 1_555
C6 C11 1_555 1_555
C10 C11 1_555 1_555
C14 C15 1_555 1_555
C16 C17 1_555 1_555
N6 B2 1_555 1_555
C19 C24 1_555 1_555
C23 C24 1_555 1_555
C29 C30 1_555 1_555
C35 C36 1_555 1_555
C51 C52 1_555 1_555

#END
