
#######################################################################
#
#                 Cambridge Crystallographic Data Centre
#                                CCDC 
#
#######################################################################
#
# If this CIF has been generated from an entry in the Cambridge 
# Structural Database, then it will include bibliographic, chemical, 
# crystal, experimental, refinement or atomic coordinate data resulting 
# from the CCDC's data processing and validation procedures.
#
#######################################################################

data_ZAVLIU
_chemical_formula_moiety         'C30 H16 B2 F4 N6 S2,0.5(C2 H4 Cl2)'
_chemical_name_systematic        
"13,13,13',13'-tetrafluoro-13H,13'H-7,7'-bi-13\l^5^-indolo[1',2':3,4][1,3,5,2]triazaborinino[6,1-b][1,3]benzothiazole 1,2-dichloroethane solvate"
_symmetry_cell_setting           monoclinic
_symmetry_space_group_name_H-M   'P 21/n'
_symmetry_Int_Tables_number      14
_space_group_name_Hall           '-P 2yn'
loop_
_symmetry_equiv_pos_site_id
_symmetry_equiv_pos_as_xyz
1 x,y,z
2 1/2-x,1/2+y,1/2-z
3 -x,-y,-z
4 1/2+x,1/2-y,1/2+z
_cell_length_a                   12.0653(14)
_cell_length_b                   11.2774(13)
_cell_length_c                   20.507(2)
_cell_angle_alpha                90
_cell_angle_beta                 92.464(2)
_cell_angle_gamma                90
_cell_volume                     2787.71
_exptl_crystal_colour            green
_exptl_crystal_description       prism
_cell_formula_units_Z            4
_exptl_crystal_recrystallization_method '1,2-dichloroethane/ heptane'
loop_
_atom_site_label
_atom_site_type_symbol
_atom_site_fract_x
_atom_site_fract_y
_atom_site_fract_z
S1 S 0.63009(4) 0.37700(4) 0.83245(2)
S2 S 0.81395(4) 0.38435(4) 0.36199(2)
F1 F 1.11480(8) 0.21677(9) 0.49182(5)
F2 F 1.11238(9) 0.40439(9) 0.53092(5)
F3 F 0.33594(8) 0.20470(9) 0.69868(5)
F4 F 0.34923(9) 0.38639(10) 0.65332(5)
N1 N 0.65344(12) 0.28827(13) 0.71381(7)
N2 N 0.95827(12) 0.27675(13) 0.55458(7)
N3 N 0.47136(12) 0.33999(13) 0.74660(7)
N4 N 0.80098(12) 0.29381(13) 0.48126(7)
N5 N 0.50054(12) 0.24993(13) 0.64017(7)
N6 N 0.97893(12) 0.35192(13) 0.44392(7)
C1 C 0.60979(14) 0.25192(15) 0.65683(9)
C2 C 0.87511(14) 0.22305(15) 0.64928(9)
C3 C 0.78826(14) 0.23161(15) 0.59753(8)
C4 C 0.84904(14) 0.26607(15) 0.53826(9)
C5 C 0.59003(14) 0.19787(15) 0.54754(9)
C6 C 0.42077(14) 0.39017(15) 0.80012(8)
C7 C 0.67453(14) 0.22227(15) 0.59909(8)
C8 C 0.97621(14) 0.24996(15) 0.62133(8)
C9 C 0.87656(15) 0.18375(16) 0.71399(9)
H1 H 0.8097 0.1621 0.7337
C10 C 0.48603(15) 0.21476(16) 0.57457(9)
C11 C 0.58157(14) 0.32952(15) 0.75616(8)
C12 C 1.07731(14) 0.24544(16) 0.65591(9)
H2 H 1.1444 0.2666 0.6363
C13 C 0.49540(14) 0.41495(15) 0.85225(9)
C14 C 0.97778(15) 0.17707(16) 0.74884(9)
H3 H 0.9797 0.1505 0.7928
C15 C 0.45991(16) 0.46416(16) 0.90995(9)
H4 H 0.5109 0.4806 0.9454
C16 C 1.02461(15) 0.40307(15) 0.38895(9)
C17 C 0.86877(14) 0.33778(15) 0.43689(8)
C18 C 0.94534(15) 0.42507(15) 0.33849(9)
C19 C 0.38664(15) 0.19815(17) 0.53945(9)
H5 H 0.3173 0.2126 0.5583
C20 C 0.30830(15) 0.41543(16) 0.80412(9)
H6 H 0.2573 0.3993 0.7687
C21 C 1.13602(15) 0.43215(16) 0.38242(9)
H7 H 1.1897 0.4190 0.4169
C22 C 0.97608(16) 0.47440(16) 0.27941(9)
H8 H 0.9226 0.4885 0.2449
C23 C 1.07641(15) 0.20856(16) 0.72051(9)
H9 H 1.1442 0.2048 0.7458
C24 C 0.59307(15) 0.15542(16) 0.48334(9)
H10 H 0.6620 0.1394 0.4644
C25 C 1.08609(16) 0.50185(16) 0.27269(9)
H11 H 1.1089 0.5354 0.2330
C26 C 0.34843(16) 0.48836(16) 0.91413(9)
H12 H 0.3221 0.5214 0.9532
C27 C 1.16503(16) 0.48110(16) 0.32346(9)
H13 H 1.2404 0.5010 0.3174
C28 C 0.27327(15) 0.46495(15) 0.86158(9)
H14 H 0.1970 0.4834 0.8654
C29 C 0.49403(16) 0.13709(18) 0.44790(9)
H15 H 0.4956 0.1089 0.4043
C30 C 0.39301(16) 0.15917(18) 0.47500(9)
H16 H 0.3265 0.1476 0.4492
B1 B 1.04747(16) 0.31261(18) 0.50666(10)
B2 B 0.40828(16) 0.29526(18) 0.68337(10)
Cl1 Cl 0.58041(5) 0.52832(5) 0.59392(2)
C31 C 0.47368(17) 0.52028(18) 0.53074(9)
H17 H 0.4156 0.4635 0.5430
H18 H 0.4390 0.5991 0.5239
Cl1B Cl 0.41959(5) 0.47168(5) 0.40608(2)
C31B C 0.52632(17) 0.47972(18) 0.46926(9)
H17B H 0.5844 0.5365 0.4570
H18B H 0.5610 0.4009 0.4761
loop_
_geom_bond_atom_site_label_1
_geom_bond_atom_site_label_2
_geom_bond_site_symmetry_1
_geom_bond_site_symmetry_2
S1 C11 1_555 1_555
S2 C17 1_555 1_555
F1 B1 1_555 1_555
F2 B1 1_555 1_555
F3 B2 1_555 1_555
F4 B2 1_555 1_555
N1 C1 1_555 1_555
N2 C4 1_555 1_555
N3 C6 1_555 1_555
N4 C4 1_555 1_555
N5 C1 1_555 1_555
N6 C16 1_555 1_555
C1 C7 1_555 1_555
C2 C3 1_555 1_555
C3 C4 1_555 1_555
C5 C7 1_555 1_555
C6 C13 1_555 1_555
C7 C3 1_555 1_555
C8 N2 1_555 1_555
C9 C2 1_555 1_555
H1 C9 1_555 1_555
C10 N5 1_555 1_555
C11 N1 1_555 1_555
C12 C8 1_555 1_555
H2 C12 1_555 1_555
C13 S1 1_555 1_555
C14 C9 1_555 1_555
H3 C14 1_555 1_555
C15 C13 1_555 1_555
H4 C15 1_555 1_555
C16 C18 1_555 1_555
C17 N4 1_555 1_555
C18 S2 1_555 1_555
C19 C10 1_555 1_555
H5 C19 1_555 1_555
C20 C6 1_555 1_555
H6 C20 1_555 1_555
C21 C16 1_555 1_555
H7 C21 1_555 1_555
C22 C18 1_555 1_555
H8 C22 1_555 1_555
C23 C12 1_555 1_555
H9 C23 1_555 1_555
C24 C5 1_555 1_555
H10 C24 1_555 1_555
C25 C22 1_555 1_555
H11 C25 1_555 1_555
C26 C15 1_555 1_555
H12 C26 1_555 1_555
C27 C21 1_555 1_555
H13 C27 1_555 1_555
C28 C20 1_555 1_555
H14 C28 1_555 1_555
C29 C24 1_555 1_555
H15 C29 1_555 1_555
C30 C19 1_555 1_555
H16 C30 1_555 1_555
B1 N2 1_555 1_555
B2 N3 1_555 1_555
Cl1 C31 1_555 1_555
C31 H17 1_555 1_555
H18 C31 1_555 1_555
Cl1B C31B 1_555 1_555
C31B C31 1_555 1_555
H17B C31B 1_555 1_555
H18B C31B 1_555 1_555
N3 C11 1_555 1_555
N5 B2 1_555 1_555
N6 C17 1_555 1_555
N6 B1 1_555 1_555
C2 C8 1_555 1_555
C5 C10 1_555 1_555
C14 C23 1_555 1_555
C25 C27 1_555 1_555
C26 C28 1_555 1_555
C29 C30 1_555 1_555

#END
