
#######################################################################
#
#                 Cambridge Crystallographic Data Centre
#                                CCDC 
#
#######################################################################
#
# If this CIF has been generated from an entry in the Cambridge 
# Structural Database, then it will include bibliographic, chemical, 
# crystal, experimental, refinement or atomic coordinate data resulting 
# from the CCDC's data processing and validation procedures.
#
#######################################################################

data_ZAVXIG
_chemical_formula_moiety         'C9 H10 N2 S1'
_chemical_name_systematic        
1,3-dimethyl-1,3-dihydro-2H-benzimidazole-2-thione
_symmetry_cell_setting           monoclinic
_symmetry_space_group_name_H-M   'P 21/c'
_symmetry_Int_Tables_number      14
_space_group_name_Hall           '-P 2ybc'
loop_
_symmetry_equiv_pos_site_id
_symmetry_equiv_pos_as_xyz
1 x,y,z
2 -x,1/2+y,1/2-z
3 -x,-y,-z
4 x,1/2-y,1/2+z
_cell_length_a                   7.377(2)
_cell_length_b                   16.322(4)
_cell_length_c                   15.325(4)
_cell_angle_alpha                90
_cell_angle_beta                 90.582(9)
_cell_angle_gamma                90
_cell_volume                     1845.15
_exptl_crystal_colour            white
_exptl_crystal_description       rod
_cell_formula_units_Z            8
loop_
_atom_site_label
_atom_site_type_symbol
_atom_site_fract_x
_atom_site_fract_y
_atom_site_fract_z
S1 S 0.1641(4) 0.5503(2) 0.8717(2)
N1 N 0.1056(7) 0.3990(4) 0.8042(4)
N2 N 0.1440(7) 0.4936(3) 0.7073(4)
C1 C 0.0927(8) 0.3611(4) 0.7246(4)
C2 C 0.0634(10) 0.2796(4) 0.6980(7)
H1 H 0.0453 0.2377 0.7381
C3 C 0.1174(10) 0.4214(4) 0.6631(4)
C4 C 0.1368(8) 0.4799(5) 0.7946(5)
C5 C 0.0629(15) 0.2653(6) 0.6097(8)
H2 H 0.0426 0.2121 0.5902
C6 C 0.0893(12) 0.3573(7) 0.8887(5)
H3 H 0.1778 0.3144 0.8928
H4 H -0.0300 0.3344 0.8936
H5 H 0.1093 0.3961 0.9349
C7 C 0.1133(16) 0.4026(5) 0.5759(5)
H6 H 0.1264 0.4439 0.5346
C8 C 0.0902(19) 0.3243(6) 0.5498(7)
H7 H 0.0931 0.3111 0.4908
C9 C 0.1686(15) 0.5732(4) 0.6656(7)
H8 H 0.0600 0.5879 0.6343
H9 H 0.2680 0.5702 0.6258
H10 H 0.1941 0.6138 0.7094
S2 S 0.6653(6) 0.5522(2) 0.6302(2)
N3 N 0.6432(6) 0.4942(3) 0.7928(4)
C10 C 0.6166(7) 0.4213(3) 0.8353(4)
C11 C 0.5930(8) 0.3616(4) 0.7734(5)
N4 N 0.6070(9) 0.4004(5) 0.6955(4)
C12 C 0.5634(10) 0.2788(5) 0.7997(8)
H11 H 0.5461 0.2365 0.7599
C13 C 0.5622(12) 0.2661(6) 0.8894(9)
H12 H 0.5441 0.2129 0.9093
C14 C 0.6100(10) 0.4028(5) 0.9234(5)
H13 H 0.6228 0.4440 0.9649
C15 C 0.5849(13) 0.3244(5) 0.9484(7)
H14 H 0.5836 0.3113 1.0074
C16 C 0.6380(10) 0.4816(6) 0.7058(5)
C17 C 0.6676(11) 0.5734(4) 0.8360(6)
H15 H 0.7120 0.6126 0.7947
H16 H 0.7532 0.5677 0.8832
H17 H 0.5535 0.5917 0.8583
C18 C 0.5931(17) 0.3603(8) 0.6094(6)
H18 H 0.6323 0.3977 0.5651
H19 H 0.4695 0.3448 0.5982
H20 H 0.6685 0.3124 0.6089
loop_
_geom_bond_atom_site_label_1
_geom_bond_atom_site_label_2
_geom_bond_site_symmetry_1
_geom_bond_site_symmetry_2
S1 C4 1_555 1_555
N1 C1 1_555 1_555
N2 C3 1_555 1_555
C1 C2 1_555 1_555
C2 H1 1_555 1_555
C3 C1 1_555 1_555
C4 N1 1_555 1_555
C5 C2 1_555 1_555
H2 C5 1_555 1_555
C6 N1 1_555 1_555
H3 C6 1_555 1_555
H4 C6 1_555 1_555
H5 C6 1_555 1_555
C7 C3 1_555 1_555
H6 C7 1_555 1_555
C8 C5 1_555 1_555
H7 C8 1_555 1_555
C9 N2 1_555 1_555
H8 C9 1_555 1_555
H9 C9 1_555 1_555
H10 C9 1_555 1_555
S2 C16 1_555 1_555
N3 C10 1_555 1_555
C10 C11 1_555 1_555
C11 N4 1_555 1_555
N4 C16 1_555 1_555
C12 C11 1_555 1_555
H11 C12 1_555 1_555
C13 C12 1_555 1_555
H12 C13 1_555 1_555
C14 C10 1_555 1_555
H13 C14 1_555 1_555
C15 C13 1_555 1_555
H14 C15 1_555 1_555
C16 N3 1_555 1_555
C17 N3 1_555 1_555
H15 C17 1_555 1_555
H16 C17 1_555 1_555
H17 C17 1_555 1_555
C18 N4 1_555 1_555
H18 C18 1_555 1_555
H19 C18 1_555 1_555
H20 C18 1_555 1_555
N2 C4 1_555 1_555
C7 C8 1_555 1_555
C14 C15 1_555 1_555

#END
