
#######################################################################
#
#                 Cambridge Crystallographic Data Centre
#                                CCDC 
#
#######################################################################
#
# If this CIF has been generated from an entry in the Cambridge 
# Structural Database, then it will include bibliographic, chemical, 
# crystal, experimental, refinement or atomic coordinate data resulting 
# from the CCDC's data processing and validation procedures.
#
#######################################################################

data_ZAVXOM
_chemical_formula_moiety         'C11 H14 N2 O1 S1'
_chemical_name_systematic        
1-(2-methoxyethyl)-3-methyl-1,3-dihydro-2H-benzimidazole-2-thione
_symmetry_cell_setting           orthorhombic
_symmetry_space_group_name_H-M   'P n a 21'
_symmetry_Int_Tables_number      33
_space_group_name_Hall           'P 2c -2n'
loop_
_symmetry_equiv_pos_site_id
_symmetry_equiv_pos_as_xyz
1 x,y,z
2 -x,-y,1/2+z
3 1/2+x,1/2-y,z
4 1/2-x,1/2+y,1/2+z
_cell_length_a                   7.2516(18)
_cell_length_b                   15.035(4)
_cell_length_c                   10.510(3)
_cell_angle_alpha                90
_cell_angle_beta                 90
_cell_angle_gamma                90
_cell_volume                     1145.88
_exptl_crystal_colour            white
_exptl_crystal_description       Needle
_cell_formula_units_Z            4
loop_
_atom_site_label
_atom_site_type_symbol
_atom_site_fract_x
_atom_site_fract_y
_atom_site_fract_z
S1 S 0.1825(3) 0.53484(13) 0.5844(3)
O1 O 0.3139(7) 0.2992(3) 0.2725(4)
N1 N 0.1579(7) 0.3596(4) 0.5231(5)
N2 N 0.2486(9) 0.3834(4) 0.7182(5)
C1 C 0.1842(9) 0.2769(4) 0.5795(7)
C2 C 0.2426(10) 0.2918(5) 0.7014(7)
C3 C 0.1591(10) 0.1918(5) 0.5323(7)
H1 H 0.1188 0.1819 0.4495
C4 C 0.1977(10) 0.4245(5) 0.6084(7)
C5 C 0.0882(10) 0.3760(5) 0.3949(6)
H2 H 0.0173 0.4307 0.3956
H3 H 0.0052 0.3281 0.3718
C6 C 0.1970(11) 0.1227(5) 0.6140(8)
H4 H 0.1801 0.0645 0.5862
C7 C 0.2978(12) 0.4284(6) 0.8358(7)
H5 H 0.3024 0.4914 0.8213
H6 H 0.4164 0.4080 0.8640
H7 H 0.2071 0.4156 0.8998
C8 C 0.2353(10) 0.3833(5) 0.2951(7)
H8 H 0.1823 0.4063 0.2169
H9 H 0.3300 0.4244 0.3232
C9 C 0.2808(9) 0.2231(5) 0.7839(7)
H10 H 0.3188 0.2338 0.8670
C10 C 0.2605(12) 0.1379(6) 0.7382(8)
H11 H 0.2891 0.0898 0.7903
C11 C 0.4173(14) 0.2965(6) 0.1604(7)
H12 H 0.3414 0.3145 0.0901
H13 H 0.4609 0.2371 0.1463
H14 H 0.5206 0.3362 0.1676
loop_
_geom_bond_atom_site_label_1
_geom_bond_atom_site_label_2
_geom_bond_site_symmetry_1
_geom_bond_site_symmetry_2
S1 C4 1_555 1_555
O1 C8 1_555 1_555
N1 C1 1_555 1_555
N2 C2 1_555 1_555
C1 C2 1_555 1_555
C2 C9 1_555 1_555
C3 C1 1_555 1_555
H1 C3 1_555 1_555
C4 N1 1_555 1_555
C5 N1 1_555 1_555
H2 C5 1_555 1_555
H3 C5 1_555 1_555
C6 C3 1_555 1_555
H4 C6 1_555 1_555
C7 N2 1_555 1_555
H5 C7 1_555 1_555
H6 C7 1_555 1_555
H7 C7 1_555 1_555
C8 C5 1_555 1_555
H8 C8 1_555 1_555
H9 C8 1_555 1_555
C9 H10 1_555 1_555
C10 C6 1_555 1_555
H11 C10 1_555 1_555
C11 O1 1_555 1_555
H12 C11 1_555 1_555
H13 C11 1_555 1_555
H14 C11 1_555 1_555
N2 C4 1_555 1_555
C9 C10 1_555 1_555

#END
