
#######################################################################
#
#                 Cambridge Crystallographic Data Centre
#                                CCDC 
#
#######################################################################
#
# If this CIF has been generated from an entry in the Cambridge 
# Structural Database, then it will include bibliographic, chemical, 
# crystal, experimental, refinement or atomic coordinate data resulting 
# from the CCDC's data processing and validation procedures.
#
#######################################################################

data_ZAWDAE
_chemical_formula_moiety         'C8 H10 N3 O2 1+,Br1 1-'
_chemical_name_systematic        
'1-(2-Amino-2-oxoethyl)-3-carbamoylpyridinium bromide'
_symmetry_cell_setting           monoclinic
_symmetry_space_group_name_H-M   'P 21/n'
_symmetry_Int_Tables_number      14
_space_group_name_Hall           '-P 2yn'
loop_
_symmetry_equiv_pos_site_id
_symmetry_equiv_pos_as_xyz
1 x,y,z
2 1/2-x,1/2+y,1/2-z
3 -x,-y,-z
4 1/2+x,1/2-y,1/2+z
_cell_length_a                   10.3283(8)
_cell_length_b                   8.1976(7)
_cell_length_c                   12.3290(9)
_cell_angle_alpha                90
_cell_angle_beta                 114.243(3)
_cell_angle_gamma                90
_cell_volume                     951.807
_exptl_crystal_colour            colorless
_exptl_crystal_description       columnar
_cell_formula_units_Z            4
loop_
_atom_site_label
_atom_site_type_symbol
_atom_site_fract_x
_atom_site_fract_y
_atom_site_fract_z
Br1 Br 0.756031(16) 0.892408(19) 0.905524(13)
O1 O 0.10833(12) 0.64526(14) 0.68310(10)
O2 O 0.57406(12) 0.43667(14) 1.15911(10)
N1 N 0.13794(15) 0.40814(17) 0.60015(12)
H1 H 0.1354 0.4561 0.5354
H2 H 0.1493 0.3018 0.6084
N2 N 0.16935(13) 0.48606(16) 0.89904(11)
N3 N 0.49898(14) 0.50962(17) 1.30113(11)
H3 H 0.5794 0.4809 1.3598
H4 H 0.4295 0.5500 1.3167
C1 C 0.12461(16) 0.4965(2) 0.68564(13)
C2 C 0.12527(17) 0.39147(19) 0.78845(13)
H5 H 0.0289 0.3469 0.7676
H6 H 0.1910 0.2985 0.8009
C3 C 0.29648(16) 0.45556(19) 0.98757(13)
H7 H 0.3571 0.3759 0.9771
C4 C 0.33980(16) 0.53962(19) 1.09421(13)
C5 C 0.48243(16) 0.49199(19) 1.18869(13)
C6 C 0.25125(17) 0.6577(2) 1.10741(14)
H8 H 0.2797 0.7173 1.1796
C7 C 0.11992(17) 0.6884(2) 1.01368(14)
H9 H 0.0585 0.7694 1.0214
C8 C 0.08044(17) 0.60013(19) 0.91012(14)
H10 H -0.0092 0.6191 0.8463
loop_
_geom_bond_atom_site_label_1
_geom_bond_atom_site_label_2
_geom_bond_site_symmetry_1
_geom_bond_site_symmetry_2
O1 C1 1_555 1_555
O2 C5 1_555 1_555
N1 H1 1_555 1_555
H2 N1 1_555 1_555
N2 C2 1_555 1_555
N3 H3 1_555 1_555
H4 N3 1_555 1_555
C1 N1 1_555 1_555
C2 C1 1_555 1_555
H5 C2 1_555 1_555
H6 C2 1_555 1_555
C3 N2 1_555 1_555
H7 C3 1_555 1_555
C4 C3 1_555 1_555
C5 N3 1_555 1_555
C6 C4 1_555 1_555
H8 C6 1_555 1_555
C7 C6 1_555 1_555
H9 C7 1_555 1_555
C8 N2 1_555 1_555
H10 C8 1_555 1_555
C4 C5 1_555 1_555
C7 C8 1_555 1_555

#END
