
#######################################################################
#
#                 Cambridge Crystallographic Data Centre
#                                CCDC 
#
#######################################################################
#
# If this CIF has been generated from an entry in the Cambridge 
# Structural Database, then it will include bibliographic, chemical, 
# crystal, experimental, refinement or atomic coordinate data resulting 
# from the CCDC's data processing and validation procedures.
#
#######################################################################

data_ZAWDOS
_chemical_formula_moiety         'C8 H10 N3 O2 1+,C1 F3 O3 S1 1-'
_chemical_name_systematic        
'1-(2-Amino-2-oxoethyl)-3-carbamoylpyridinium trifluoromethanesulfonate'
_symmetry_cell_setting           triclinic
_symmetry_space_group_name_H-M   'P -1'
_symmetry_Int_Tables_number      2
_space_group_name_Hall           '-P 1'
loop_
_symmetry_equiv_pos_site_id
_symmetry_equiv_pos_as_xyz
1 x,y,z
2 -x,-y,-z
_cell_length_a                   8.4003(2)
_cell_length_b                   8.9153(2)
_cell_length_c                   10.3151(3)
_cell_angle_alpha                101.5700(10)
_cell_angle_beta                 103.4520(10)
_cell_angle_gamma                111.6400(10)
_cell_volume                     662.402
_exptl_crystal_colour            colorless
_cell_formula_units_Z            2
loop_
_atom_site_label
_atom_site_type_symbol
_atom_site_fract_x
_atom_site_fract_y
_atom_site_fract_z
O1 O 0.48077(15) 0.67299(13) 0.43378(11)
O2 O 0.75696(15) 0.85638(14) -0.04335(11)
N1 N 0.35768(18) 0.39214(16) 0.31293(13)
H1 H 0.3890 0.3640 0.3887
H2 H 0.2989 0.3130 0.2303
N2 N 0.43252(16) 0.76097(15) 0.19395(12)
N3 N 0.86449(18) 1.14152(17) 0.04044(15)
H3 H 0.9318 1.1590 -0.0138
H4 H 0.8641 1.2284 0.0984
C1 C 0.39904(19) 0.55323(19) 0.32330(15)
C2 C 0.32836(19) 0.58299(18) 0.18482(15)
H5 H 0.3397 0.5059 0.1075
H6 H 0.1981 0.5569 0.1637
C3 C 0.54245(19) 0.79625(18) 0.11708(14)
H7 H 0.5477 0.7058 0.0542
C4 C 0.64789(19) 0.96234(18) 0.12832(14)
C5 C 0.76351(19) 0.98408(19) 0.03486(15)
C6 C 0.6399(2) 1.09345(19) 0.22235(15)
H8 H 0.7131 1.2088 0.2335
C7 C 0.5238(2) 1.05358(19) 0.29958(15)
H9 H 0.5162 1.1418 0.3632
C8 C 0.4202(2) 0.88658(19) 0.28368(15)
H10 H 0.3397 0.8590 0.3356
S1 S 0.12703(5) 0.40586(4) 0.78232(4)
F1 F -0.1019(2) 0.2030(3) 0.53320(17)
F2 F 0.1374(2) 0.1616(2) 0.6038(2)
F3 F 0.1578(3) 0.3780(3) 0.53281(19)
O3 O 0.0160(6) 0.2862(5) 0.8376(3)
O4 O 0.0623(3) 0.5350(3) 0.7607(2)
O5 O 0.3218(11) 0.4735(8) 0.8472(7)
C9 C 0.0770(5) 0.2810(5) 0.6025(4)
C10? C 0.0774(13) 0.3493(12) 0.5958(10)
F4? F -0.1003(6) 0.3045(8) 0.5348(5)
F5? F 0.1087(7) 0.2153(7) 0.5461(7)
F6? F 0.1698(8) 0.4775(10) 0.5615(5)
O6? O 0.0155(19) 0.2552(17) 0.8024(11)
O7? O 0.0883(10) 0.5413(9) 0.8177(6)
O8? O 0.317(3) 0.445(3) 0.829(2)
loop_
_geom_bond_atom_site_label_1
_geom_bond_atom_site_label_2
_geom_bond_site_symmetry_1
_geom_bond_site_symmetry_2
O1 C1 1_555 1_555
O2 C5 1_555 1_555
N1 H1 1_555 1_555
H2 N1 1_555 1_555
N2 C2 1_555 1_555
N3 H3 1_555 1_555
H4 N3 1_555 1_555
C1 N1 1_555 1_555
C2 C1 1_555 1_555
H5 C2 1_555 1_555
H6 C2 1_555 1_555
C3 N2 1_555 1_555
H7 C3 1_555 1_555
C4 C3 1_555 1_555
C5 N3 1_555 1_555
C6 C4 1_555 1_555
H8 C6 1_555 1_555
C7 C6 1_555 1_555
H9 C7 1_555 1_555
C8 N2 1_555 1_555
H10 C8 1_555 1_555
S1 O3 1_555 1_555
F1 C9 1_555 1_555
F2 C9 1_555 1_555
F3 C9 1_555 1_555
O4 S1 1_555 1_555
O5 S1 1_555 1_555
C9 S1 1_555 1_555
C4 C5 1_555 1_555
C7 C8 1_555 1_555

#END
