
#######################################################################
#
#                 Cambridge Crystallographic Data Centre
#                                CCDC 
#
#######################################################################
#
# If this CIF has been generated from an entry in the Cambridge 
# Structural Database, then it will include bibliographic, chemical, 
# crystal, experimental, refinement or atomic coordinate data resulting 
# from the CCDC's data processing and validation procedures.
#
#######################################################################

data_ZAWDUY
_chemical_formula_moiety         'C8 H10 N3 O2 1+,F6 P1 1-'
_chemical_name_systematic        
'1-(2-Amino-2-oxoethyl)-3-carbamoylpyridinium hexafluorophosphate'
_symmetry_cell_setting           orthorhombic
_symmetry_space_group_name_H-M   'P b c a'
_symmetry_Int_Tables_number      61
_space_group_name_Hall           '-P 2ac 2ab'
loop_
_symmetry_equiv_pos_site_id
_symmetry_equiv_pos_as_xyz
1 x,y,z
2 1/2+x,1/2-y,-z
3 -x,1/2+y,1/2-z
4 1/2-x,-y,1/2+z
5 -x,-y,-z
6 1/2-x,1/2+y,z
7 x,1/2-y,1/2+z
8 1/2+x,y,1/2-z
_cell_length_a                   13.2470(10)
_cell_length_b                   11.2054(10)
_cell_length_c                   15.5055(14)
_cell_angle_alpha                90
_cell_angle_beta                 90
_cell_angle_gamma                90
_cell_volume                     2301.6
_exptl_crystal_colour            colorless
_cell_formula_units_Z            8
loop_
_atom_site_label
_atom_site_type_symbol
_atom_site_fract_x
_atom_site_fract_y
_atom_site_fract_z
P1 P 0.31229(3) 0.88143(4) 0.14978(3)
F1 F 0.40171(8) 0.87232(11) 0.08077(7)
F2 F 0.31771(8) 1.02426(9) 0.14447(6)
F3 F 0.23122(7) 0.88174(9) 0.07278(6)
F4 F 0.30633(9) 0.74050(10) 0.15554(8)
F5 F 0.22276(7) 0.89339(10) 0.21848(7)
F6 F 0.39318(7) 0.88316(9) 0.22667(6)
O1 O 0.04332(8) 0.61779(10) 0.46532(7)
O2 O 0.43309(8) 0.56605(11) 0.32433(7)
N1 N -0.04494(10) 0.52156(13) 0.36123(9)
H1 H -0.0780 0.4769 0.3984
H2 H -0.0564 0.5139 0.3056
N2 N 0.16386(10) 0.72999(12) 0.35505(8)
N3 N 0.51956(10) 0.69691(13) 0.40613(9)
H3 H 0.5772 0.6599 0.3973
H4 H 0.5177 0.7612 0.4386
C1 C 0.02176(11) 0.60008(14) 0.38891(10)
C2 C 0.07383(11) 0.67280(15) 0.31820(10)
H5 H 0.0935 0.6199 0.2699
H6 H 0.0271 0.7343 0.2957
C3 C 0.25390(12) 0.67608(14) 0.34684(9)
H7 H 0.2593 0.6049 0.3139
C4 C 0.33883(11) 0.72330(14) 0.38589(10)
C5 C 0.43536(12) 0.65566(15) 0.37045(10)
C6 C 0.32907(12) 0.82737(15) 0.43378(10)
H8 H 0.3862 0.8611 0.4616
C7 C 0.23557(12) 0.88171(14) 0.44076(10)
H9 H 0.2283 0.9534 0.4729
C8 C 0.15323(12) 0.83122(14) 0.40092(10)
H10 H 0.0888 0.8678 0.4058
loop_
_geom_bond_atom_site_label_1
_geom_bond_atom_site_label_2
_geom_bond_site_symmetry_1
_geom_bond_site_symmetry_2
P1 F1 1_555 1_555
F2 P1 1_555 1_555
F3 P1 1_555 1_555
F4 P1 1_555 1_555
F5 P1 1_555 1_555
F6 P1 1_555 1_555
O1 C1 1_555 1_555
O2 C5 1_555 1_555
N1 H1 1_555 1_555
H2 N1 1_555 1_555
N2 C2 1_555 1_555
N3 H3 1_555 1_555
H4 N3 1_555 1_555
C1 N1 1_555 1_555
C2 C1 1_555 1_555
H5 C2 1_555 1_555
H6 C2 1_555 1_555
C3 N2 1_555 1_555
H7 C3 1_555 1_555
C4 C3 1_555 1_555
C5 N3 1_555 1_555
C6 C4 1_555 1_555
H8 C6 1_555 1_555
C7 C6 1_555 1_555
H9 C7 1_555 1_555
C8 N2 1_555 1_555
H10 C8 1_555 1_555
C4 C5 1_555 1_555
C7 C8 1_555 1_555

#END
