
#######################################################################
#
#                 Cambridge Crystallographic Data Centre
#                                CCDC 
#
#######################################################################
#
# If this CIF has been generated from an entry in the Cambridge 
# Structural Database, then it will include bibliographic, chemical, 
# crystal, experimental, refinement or atomic coordinate data resulting 
# from the CCDC's data processing and validation procedures.
#
#######################################################################

data_ZAWDEI
_chemical_formula_moiety         'C8 H10 N3 O2 1+,B1 F4 1-'
_chemical_name_systematic        
'1-(2-Amino-2-oxoethyl)-3-carbamoylpyridinium tetrafluoroborate'
_symmetry_cell_setting           monoclinic
_symmetry_space_group_name_H-M   'P 21/c'
_symmetry_Int_Tables_number      14
_space_group_name_Hall           '-P 2ybc'
loop_
_symmetry_equiv_pos_site_id
_symmetry_equiv_pos_as_xyz
1 x,y,z
2 -x,1/2+y,1/2-z
3 -x,-y,-z
4 x,1/2-y,1/2+z
_cell_length_a                   11.5624(4)
_cell_length_b                   8.3426(4)
_cell_length_c                   12.2163(5)
_cell_angle_alpha                90
_cell_angle_beta                 116.412(2)
_cell_angle_gamma                90
_cell_volume                     1055.39
_exptl_crystal_colour            colorless
_cell_formula_units_Z            4
loop_
_atom_site_label
_atom_site_type_symbol
_atom_site_fract_x
_atom_site_fract_y
_atom_site_fract_z
B1 B 0.36922(14) 0.87439(18) 0.11630(13)
F1 F 0.24697(7) 0.90456(11) 0.02148(7)
F2 F 0.42881(8) 0.75123(11) 0.08392(8)
F3 F 0.35751(8) 0.83108(13) 0.21982(7)
F4 F 0.44564(8) 1.01056(10) 0.13855(10)
O1 O 0.91193(9) -0.08080(11) 0.82727(8)
O2 O 0.91719(8) 0.00953(11) 0.32361(8)
N1 N 1.01055(11) 0.15758(14) 0.90381(10)
H1 H 1.0560 0.1194 0.9779
H2 H 1.0183 0.2589 0.8881
N2 N 0.79024(10) 0.04353(12) 0.58968(9)
N3 N 0.71389(10) -0.04490(13) 0.18135(9)
H3 H 0.7339 -0.0332 0.1202
H4 H 0.6344 -0.0697 0.1668
C1 C 0.92973(12) 0.06170(15) 0.81504(11)
C2 C 0.85526(12) 0.15193(15) 0.69472(11)
H5 H 0.7899 0.2216 0.7022
H6 H 0.9159 0.2216 0.6795
C3 C 0.82387(11) 0.04940(14) 0.49765(11)
H7 H 0.8919 0.1183 0.5036
C4 C 0.76055(12) -0.04381(14) 0.39438(11)
C5 C 0.80392(12) -0.02514(14) 0.29589(11)
C6 C 0.66207(12) -0.14530(15) 0.38728(11)
H8 H 0.6181 -0.2113 0.3176
C7 C 0.62882(12) -0.14892(15) 0.48357(11)
H9 H 0.5617 -0.2176 0.4800
C8 C 0.69359(12) -0.05266(15) 0.58397(11)
H10 H 0.6704 -0.0538 0.6494
loop_
_geom_bond_atom_site_label_1
_geom_bond_atom_site_label_2
_geom_bond_site_symmetry_1
_geom_bond_site_symmetry_2
B1 F1 1_555 1_555
F2 B1 1_555 1_555
F3 B1 1_555 1_555
F4 B1 1_555 1_555
O1 C1 1_555 1_555
O2 C5 1_555 1_555
N1 H1 1_555 1_555
H2 N1 1_555 1_555
N2 C2 1_555 1_555
N3 H3 1_555 1_555
H4 N3 1_555 1_555
C1 N1 1_555 1_555
C2 C1 1_555 1_555
H5 C2 1_555 1_555
H6 C2 1_555 1_555
C3 N2 1_555 1_555
H7 C3 1_555 1_555
C4 C3 1_555 1_555
C5 N3 1_555 1_555
C6 C4 1_555 1_555
H8 C6 1_555 1_555
C7 C6 1_555 1_555
H9 C7 1_555 1_555
C8 N2 1_555 1_555
H10 C8 1_555 1_555
C4 C5 1_555 1_555
C7 C8 1_555 1_555

#END
