
#######################################################################
#
#                 Cambridge Crystallographic Data Centre
#                                CCDC 
#
#######################################################################
#
# If this CIF has been generated from an entry in the Cambridge 
# Structural Database, then it will include bibliographic, chemical, 
# crystal, experimental, refinement or atomic coordinate data resulting 
# from the CCDC's data processing and validation procedures.
#
#######################################################################

data_ZAWMER
_chemical_formula_moiety         'C18 H13 N5,C1 H1 Cl3'
_chemical_name_systematic        
"4'-(1H-Imidazol-4-yl)-4,2':6',4''-terpyridine chloroform solvate"
_symmetry_cell_setting           monoclinic
_symmetry_space_group_name_H-M   'P 21/c'
_symmetry_Int_Tables_number      14
_space_group_name_Hall           '-P 2ybc'
loop_
_symmetry_equiv_pos_site_id
_symmetry_equiv_pos_as_xyz
1 x,y,z
2 -x,1/2+y,1/2-z
3 -x,-y,-z
4 x,1/2-y,1/2+z
_cell_length_a                   7.0576(8)
_cell_length_b                   21.727(3)
_cell_length_c                   12.0929(12)
_cell_angle_alpha                90
_cell_angle_beta                 103.978(8)
_cell_angle_gamma                90
_cell_volume                     1799.42
_exptl_crystal_colour            colorless
_exptl_crystal_description       block
_cell_formula_units_Z            4
loop_
_atom_site_label
_atom_site_type_symbol
_atom_site_fract_x
_atom_site_fract_y
_atom_site_fract_z
N1 N -0.0807(2) 0.22123(6) 0.71750(13)
N2 N 0.05533(19) 0.44339(6) 0.81478(11)
N3 N 0.4148(2) 0.57327(6) 1.13924(11)
C1 C -0.1320(3) 0.25384(8) 0.62224(16)
H1 H -0.1730 0.2320 0.5525
C2 C -0.1301(3) 0.31750(7) 0.61737(15)
H2 H -0.1697 0.3382 0.5463
C3 C -0.0696(2) 0.35053(7) 0.71768(13)
C4 C -0.0175(3) 0.31698(7) 0.81796(14)
H3 H 0.0235 0.3375 0.8891
C5 C -0.0258(3) 0.25340(7) 0.81358(15)
H4 H 0.0097 0.2314 0.8834
C6 C -0.0544(2) 0.41878(7) 0.71902(13)
C7 C -0.1489(2) 0.45418(7) 0.62665(12)
H5 H -0.2280 0.4351 0.5608
C8 C -0.1270(2) 0.51797(7) 0.63132(12)
C9 C -0.0114(2) 0.54337(6) 0.73075(12)
H6 H 0.0081 0.5866 0.7374
C10 C 0.0749(2) 0.50449(7) 0.82019(12)
C11 C 0.3683(2) 0.51396(7) 1.12298(13)
H7 H 0.4115 0.4865 1.1851
C12 C 0.2613(2) 0.49000(7) 1.02161(13)
H8 H 0.2339 0.4472 1.0146
C13 C 0.1940(2) 0.52922(7) 0.92967(12)
C14 C 0.2422(3) 0.59082(7) 0.94544(13)
H9 H 0.2002 0.6195 0.8851
C15 C 0.3523(3) 0.61011(8) 1.05017(14)
H10 H 0.3855 0.6525 1.0591
C16 C -0.2200(2) 0.55677(7) 0.53528(12)
C17 C -0.3220(2) 0.53959(7) 0.42910(13)
H11 H -0.3497 0.4987 0.4021
C18 C -0.3067(3) 0.63889(8) 0.43998(14)
H12 H -0.3245 0.6810 0.4191
N4 N -0.2109(2) 0.62000(6) 0.54127(12)
N5 N -0.3764(2) 0.59223(6) 0.36941(11)
H13 H -0.4441 0.5951 0.2982
C19 C 0.6046(3) 0.67595(7) 0.73463(15)
H14 H 0.7197 0.6630 0.7057
Cl1 Cl 0.41177(8) 0.62372(2) 0.68538(4)
Cl2 Cl 0.53402(8) 0.74998(2) 0.68461(5)
Cl3 Cl 0.67049(9) 0.67624(2) 0.88429(4)
loop_
_geom_bond_atom_site_label_1
_geom_bond_atom_site_label_2
_geom_bond_site_symmetry_1
_geom_bond_site_symmetry_2
N1 C1 1_555 1_555
N2 C6 1_555 1_555
N3 C11 1_555 1_555
C1 H1 1_555 1_555
C2 C1 1_555 1_555
H2 C2 1_555 1_555
C3 C2 1_555 1_555
C4 C3 1_555 1_555
H3 C4 1_555 1_555
C5 N1 1_555 1_555
H4 C5 1_555 1_555
C6 C3 1_555 1_555
C7 C6 1_555 1_555
H5 C7 1_555 1_555
C8 C7 1_555 1_555
C9 C8 1_555 1_555
H6 C9 1_555 1_555
C10 N2 1_555 1_555
C11 H7 1_555 1_555
C12 C11 1_555 1_555
H8 C12 1_555 1_555
C13 C10 1_555 1_555
C14 C13 1_555 1_555
H9 C14 1_555 1_555
C15 N3 1_555 1_555
H10 C15 1_555 1_555
C16 C8 1_555 1_555
C17 C16 1_555 1_555
H11 C17 1_555 1_555
C18 H12 1_555 1_555
N4 C16 1_555 1_555
N5 C17 1_555 1_555
H13 N5 1_555 1_555
C19 H14 1_555 1_555
Cl1 C19 1_555 1_555
Cl2 C19 1_555 1_555
Cl3 C19 1_555 1_555
C4 C5 1_555 1_555
C9 C10 1_555 1_555
C12 C13 1_555 1_555
C14 C15 1_555 1_555
C18 N4 1_555 1_555
C18 N5 1_555 1_555

#END
