
#######################################################################
#
#                 Cambridge Crystallographic Data Centre
#                                CCDC 
#
#######################################################################
#
# If this CIF has been generated from an entry in the Cambridge 
# Structural Database, then it will include bibliographic, chemical, 
# crystal, experimental, refinement or atomic coordinate data resulting 
# from the CCDC's data processing and validation procedures.
#
#######################################################################

data_ZAWMUI
_chemical_formula_moiety         'C50 H40 F10 N6,C6 H15 N1 O1,0.5(C6 H14)'
_chemical_name_systematic        
'3,4,7,8,12,13,16,17,20,21,25,26-dodecamethyl-10,23-bis(pentafluorophenyl)-27,28,29,30,31,32-hexaazaheptacyclo[22.2.1.1^2,5^.1^6,9^.1^11,14^.1^15,18^.1^19,22^]dotriaconta-1(27),2,4,6(31),7,9,11,13,15,17,19,21,23,25-tetradecaene triethylamine-N-oxide n-hexane solvate'
_symmetry_cell_setting           orthorhombic
_symmetry_space_group_name_H-M   'P c a 21'
_symmetry_Int_Tables_number      29
_space_group_name_Hall           'P 2c -2ac'
loop_
_symmetry_equiv_pos_site_id
_symmetry_equiv_pos_as_xyz
1 x,y,z
2 -x,-y,1/2+z
3 1/2-x,y,1/2+z
4 1/2+x,-y,z
_cell_length_a                   14.3701(4)
_cell_length_b                   16.8830(5)
_cell_length_c                   50.7390(15)
_cell_angle_alpha                90
_cell_angle_beta                 90
_cell_angle_gamma                90
_cell_volume                     12309.8
_exptl_crystal_colour            'dark red'
_exptl_crystal_description       prisms
_cell_formula_units_Z            8
loop_
_atom_site_label
_atom_site_type_symbol
_atom_site_fract_x
_atom_site_fract_y
_atom_site_fract_z
C1 C 0.2885(3) -0.1630(3) 1.07078(9)
C2 C 0.2793(3) -0.1564(3) 1.09933(9)
C3 C 0.2788(3) -0.0783(3) 1.10507(9)
C4 C 0.2904(3) -0.0364(3) 1.08099(9)
C5 C 0.3000(3) 0.0486(3) 1.07707(8)
C6 C 0.3529(3) 0.1045(3) 1.09134(9)
C7 C 0.3404(3) 0.1778(3) 1.07862(8)
C8 C 0.2804(3) 0.1673(3) 1.05779(9)
C9 C 0.2436(3) 0.2249(3) 1.03946(9)
C10 C 0.2119(3) 0.3022(3) 1.04486(9)
C11 C 0.1853(4) 0.3363(3) 1.02112(9)
C12 C 0.1990(3) 0.2781(3) 1.00100(9)
C13 C 0.1772(3) 0.2787(3) 0.97380(9)
C14 C 0.1848(3) 0.2138(3) 0.95721(9)
C15 C 0.1565(3) 0.2034(3) 0.92995(9)
C16 C 0.1768(3) 0.1267(3) 0.92344(9)
C17 C 0.2179(3) 0.0900(3) 0.94635(9)
C18 C 0.2532(3) 0.0107(3) 0.94916(9)
C19 C 0.3131(3) -0.0313(3) 0.93255(9)
C20 C 0.3305(3) -0.1043(3) 0.94439(9)
C21 C 0.2808(3) -0.1067(2) 0.96781(8)
C22 C 0.2763(3) -0.1695(3) 0.98738(9)
C23 C 0.2722(3) -0.2535(3) 0.98283(9)
C24 C 0.2785(3) -0.2893(3) 1.00725(10)
C25 C 0.2837(3) -0.2260(3) 1.02673(9)
C26 C 0.2889(3) -0.2287(3) 1.05424(9)
C27 C 0.2689(4) -0.2231(3) 1.11942(10)
H1 H 0.270229 -0.200870 1.137260
H2 H 0.320250 -0.260743 1.117330
H3 H 0.209585 -0.250381 1.116562
C28 C 0.2599(4) -0.0423(3) 1.13177(10)
H4 H 0.200091 -0.061701 1.138434
H5 H 0.257807 0.015489 1.130193
H6 H 0.309584 -0.057430 1.144016
C29 C 0.4149(4) 0.0885(3) 1.11409(10)
H7 H 0.385353 0.107493 1.130307
H8 H 0.474255 0.116037 1.111525
H9 H 0.426096 0.031391 1.115460
C30 C 0.3924(4) 0.2525(3) 1.08627(10)
H10 H 0.384359 0.292599 1.072490
H11 H 0.458738 0.240432 1.088294
H12 H 0.367783 0.272765 1.102973
C31 C 0.2001(4) 0.3387(3) 1.07141(10)
H13 H 0.243113 0.383427 1.073269
H14 H 0.213515 0.299163 1.085033
H15 H 0.135986 0.357527 1.073391
C32 C 0.1485(5) 0.4198(3) 1.01889(11)
H16 H 0.080398 0.418576 1.018183
H17 H 0.172780 0.444360 1.002800
H18 H 0.168541 0.450594 1.034249
C33 C 0.1104(4) 0.2624(3) 0.91235(10)
H19 H 0.157340 0.298273 0.905020
H20 H 0.064892 0.293017 0.922519
H21 H 0.078597 0.234689 0.897961
C34 C 0.1516(4) 0.0851(3) 0.89830(9)
H22 H 0.089270 0.101587 0.892718
H23 H 0.152365 0.027727 0.901174
H24 H 0.196821 0.098911 0.884583
C35 C 0.3570(4) -0.0021(3) 0.90721(10)
H25 H 0.325566 -0.026619 0.892133
H26 H 0.423083 -0.016445 0.906985
H27 H 0.350763 0.055591 0.906119
C36 C 0.4005(4) -0.1637(3) 0.93483(10)
H28 H 0.423880 -0.194440 0.949816
H29 H 0.452314 -0.136027 0.926318
H30 H 0.370882 -0.199449 0.922126
C37 C 0.2550(4) -0.2936(3) 0.95724(10)
H31 H 0.310863 -0.322897 0.951947
H32 H 0.240027 -0.253985 0.943789
H33 H 0.202770 -0.330556 0.959097
C38 C 0.2764(5) -0.3773(3) 1.01155(11)
H34 H 0.272742 -0.404338 0.994488
H35 H 0.222022 -0.391262 1.022228
H36 H 0.333224 -0.393771 1.020737
C39 C 0.1441(4) 0.3549(3) 0.96251(9)
C40 C 0.2030(4) 0.4063(3) 0.94968(10)
C41 C 0.1739(5) 0.4777(3) 0.93952(10)
C42 C 0.0825(5) 0.4982(3) 0.94177(10)
C43 C 0.0204(4) 0.4484(3) 0.95411(12)
C44 C 0.0515(4) 0.3782(3) 0.96432(10)
C45 C 0.2977(3) -0.3092(3) 1.06704(9)
C46 C 0.3845(4) -0.3414(3) 1.07093(10)
C47 C 0.3966(4) -0.4133(3) 1.08321(11)
C48 C 0.3203(4) -0.4551(3) 1.09121(10)
C49 C 0.2331(4) -0.4266(3) 1.08684(10)
C50 C 0.2235(3) -0.3532(3) 1.07504(10)
N1 N 0.2934(2) -0.0864(2) 1.06083(7)
H37 H 0.297699 -0.073375 1.044081
N2 N 0.2588(3) 0.0870(2) 1.05639(8)
N3 N 0.2340(3) 0.2110(2) 1.01343(7)
H38 H 0.247853 0.166122 1.005493
N4 N 0.2215(3) 0.1418(2) 0.96636(7)
N5 N 0.2352(3) -0.0359(2) 0.97055(7)
N6 N 0.2815(2) -0.1553(2) 1.01344(7)
F1 F 0.2921(2) 0.38687(17) 0.94692(6)
F2 F 0.2323(3) 0.52515(18) 0.92711(6)
F3 F 0.0517(3) 0.56791(18) 0.93215(6)
F4 F -0.0702(3) 0.4693(2) 0.95650(8)
F5 F -0.0103(2) 0.33052(19) 0.97694(7)
F6 F 0.4608(2) -0.30232(18) 1.06311(6)
F7 F 0.4827(2) -0.44246(19) 1.08752(8)
F8 F 0.3316(3) -0.52581(17) 1.10364(6)
F9 F 0.1584(2) -0.46813(17) 1.09429(6)
F10 F 0.1363(2) -0.32564(18) 1.07109(7)
H39 H 0.222(3) 0.066(2) 1.0436(9)
H40 H 0.207(3) -0.017(2) 0.9842(9)
C51 C 0.4028(3) 0.2858(2) 0.82126(9)
C52 C 0.3787(3) 0.2940(3) 0.84893(9)
C53 C 0.4007(3) 0.3706(3) 0.85555(9)
C54 C 0.4379(3) 0.4075(3) 0.83268(9)
C55 C 0.4756(3) 0.4869(3) 0.83000(8)
C56 C 0.5368(3) 0.5287(3) 0.84578(9)
C57 C 0.5558(4) 0.6018(3) 0.83321(9)
C58 C 0.5037(3) 0.6033(3) 0.81039(9)
C59 C 0.4963(3) 0.6672(3) 0.79132(9)
C60 C 0.4921(3) 0.7490(3) 0.79566(10)
C61 C 0.4963(4) 0.7869(3) 0.77102(10)
C62 C 0.4997(3) 0.7270(3) 0.75170(9)
C63 C 0.5034(3) 0.7296(3) 0.72390(9)
C64 C 0.5053(3) 0.6645(3) 0.70728(9)
C65 C 0.4947(3) 0.6601(3) 0.67889(9)
C66 C 0.4927(4) 0.5812(3) 0.67287(9)
C67 C 0.5060(3) 0.5379(3) 0.69725(9)
C68 C 0.5142(3) 0.4529(3) 0.70074(9)
C69 C 0.5636(3) 0.3982(3) 0.68637(9)
C70 C 0.5535(3) 0.3242(3) 0.69859(9)
C71 C 0.4957(3) 0.3362(3) 0.72090(8)
C72 C 0.4576(3) 0.2783(3) 0.73868(9)
C73 C 0.4236(3) 0.2015(3) 0.73296(9)
C74 C 0.3966(4) 0.1665(3) 0.75640(10)
C75 C 0.4122(3) 0.2240(3) 0.77680(9)
C76 C 0.3926(3) 0.2214(3) 0.80390(9)
C77 C 0.3345(4) 0.2356(3) 0.86711(9)
H41 H 0.375804 0.189937 0.869352
H42 H 0.275084 0.217969 0.859652
H43 H 0.323475 0.260594 0.884265
C78 C 0.3801(4) 0.4107(3) 0.88156(10)
H44 H 0.315574 0.400015 0.886667
H45 H 0.389227 0.467995 0.879737
H46 H 0.422235 0.390167 0.895125
C79 C 0.5826(4) 0.5006(4) 0.87069(9)
H47 H 0.564966 0.445450 0.874066
H48 H 0.562478 0.533805 0.885467
H49 H 0.650368 0.504186 0.868791
C80 C 0.6290(4) 0.6595(3) 0.84218(10)
H50 H 0.636086 0.701396 0.828967
H51 H 0.688322 0.631682 0.844389
H52 H 0.610205 0.682962 0.859024
C81 C 0.4780(5) 0.7899(3) 0.82190(10)
H53 H 0.465451 0.750156 0.835529
H54 H 0.425186 0.826371 0.820642
H55 H 0.534312 0.819549 0.826512
C82 C 0.4946(5) 0.8753(3) 0.76784(11)
H56 H 0.501076 0.900468 0.785140
H57 H 0.435463 0.891318 0.759838
H58 H 0.546183 0.891737 0.756449
C83 C 0.4821(4) 0.7251(3) 0.65933(10)
H59 H 0.480382 0.702721 0.641516
H60 H 0.534130 0.762413 0.660714
H61 H 0.423597 0.752898 0.662903
C84 C 0.4708(5) 0.5449(3) 0.64677(10)
H62 H 0.415458 0.570390 0.639316
H63 H 0.458847 0.488140 0.649051
H64 H 0.523614 0.552292 0.634815
C85 C 0.6257(4) 0.4116(3) 0.66273(10)
H65 H 0.596163 0.389387 0.646980
H66 H 0.685837 0.385659 0.665641
H67 H 0.635432 0.468617 0.660250
C86 C 0.6038(4) 0.2502(3) 0.69115(10)
H68 H 0.578241 0.229460 0.674623
H69 H 0.596206 0.210612 0.705112
H70 H 0.670113 0.261883 0.688814
C87 C 0.4101(4) 0.1663(3) 0.70570(10)
H71 H 0.462731 0.131587 0.701501
H72 H 0.406510 0.208975 0.692659
H73 H 0.352281 0.135456 0.705327
C88 C 0.3550(5) 0.0858(3) 0.75832(12)
H74 H 0.289473 0.090217 0.763452
H75 H 0.388752 0.054901 0.771583
H76 H 0.359484 0.059288 0.741187
C89 C 0.5112(3) 0.8092(3) 0.71185(10)
C90 C 0.4351(4) 0.8546(3) 0.70402(10)
C91 C 0.4456(4) 0.9264(3) 0.69191(10)
C92 C 0.5335(4) 0.9576(3) 0.68779(10)
C93 C 0.6092(4) 0.9147(3) 0.69542(11)
C94 C 0.5982(3) 0.8438(3) 0.70736(10)
C95 C 0.3584(3) 0.1453(3) 0.81484(9)
C96 C 0.2669(3) 0.1232(3) 0.81442(10)
C97 C 0.2357(4) 0.0529(3) 0.82522(11)
C98 C 0.2993(4) 0.0009(3) 0.83563(10)
C99 C 0.3902(4) 0.0207(3) 0.83652(10)
C100 C 0.4198(3) 0.0921(3) 0.82639(9)
N7 N 0.4376(3) 0.3574(2) 0.81250(7)
H77 H 0.456232 0.368021 0.796361
N8 N 0.4575(3) 0.5330(2) 0.80775(7)
N9 N 0.4986(3) 0.6542(2) 0.76493(7)
N10 N 0.5120(3) 0.5887(2) 0.71754(7)
N11 N 0.4750(3) 0.4146(2) 0.72206(7)
N12 N 0.4504(3) 0.2916(2) 0.76518(7)
F11 F 0.3500(2) 0.82557(19) 0.70714(7)
F12 F 0.3701(2) 0.96895(19) 0.68472(7)
F13 F 0.5432(3) 1.02746(17) 0.67569(7)
F14 F 0.6940(2) 0.94560(19) 0.69164(8)
F15 F 0.6741(2) 0.80445(17) 0.71542(7)
F16 F 0.2036(2) 0.17191(17) 0.80356(7)
F17 F 0.1448(2) 0.0350(2) 0.82438(8)
F18 F 0.2700(3) -0.06856(17) 0.84569(7)
F19 F 0.4526(3) -0.03009(17) 0.84743(6)
F20 F 0.5113(2) 0.10898(18) 0.82759(6)
H78 H 0.419(4) 0.525(3) 0.7921(12)
H79 H 0.427(5) 0.445(4) 0.7338(15)
H80 H 0.498(4) 0.607(3) 0.7570(10)
C101 C 0.0434(4) -0.0368(3) 1.04924(10)
H81 H 0.082260 -0.011999 1.063061
H82 H -0.022404 -0.032138 1.054818
C102 C 0.0675(4) -0.1215(3) 1.04753(12)
H83 H 0.127975 -0.127339 1.038791
H84 H 0.019801 -0.149444 1.037342
H85 H 0.070915 -0.143983 1.065305
C103 C 0.0177(4) 0.0923(3) 1.02843(11)
H86 H -0.046094 0.087828 1.035661
H87 H 0.056701 0.119265 1.041776
C104 C 0.0150(4) 0.1415(4) 1.00404(13)
H88 H -0.037899 0.125252 0.993114
H89 H 0.072908 0.134224 0.994139
H90 H 0.008181 0.197460 1.008837
C105 C 0.0125(3) -0.0334(3) 1.00078(10)
H91 H 0.043192 -0.085489 0.998595
H92 H 0.023253 -0.002490 0.984476
C106 C -0.0936(4) -0.0463(4) 1.00439(13)
H93 H -0.123602 0.004511 1.008250
H94 H -0.104315 -0.083041 1.019034
H95 H -0.119847 -0.068534 0.988177
N13 N 0.0564(3) 0.0092(2) 1.02353(7)
O1 O 0.15180(19) 0.01381(18) 1.01796(6)
O2 O 0.36778(19) 0.48806(18) 0.76171(6)
N14 N 0.2708(3) 0.4980(2) 0.75972(9)
C107 C 0.2254(5) 0.4253(4) 0.77312(16)
H96 H 0.257896 0.414064 0.789912
H97 H 0.159577 0.437415 0.777231
C108 C 0.2299(7) 0.3524(5) 0.7554(2)
H98 H 0.190747 0.360730 0.739870
H99 H 0.207575 0.306034 0.765185
H100 H 0.294410 0.343497 0.749868
C109 C 0.2388(9) 0.5162(7) 0.73342(19)
H101 H 0.169980 0.514543 0.733042
H102 H 0.262250 0.475459 0.721058
C110 C 0.2725(11) 0.5997(7) 0.7241(2)
H103 H 0.236269 0.640775 0.733062
H104 H 0.263808 0.604392 0.705001
H105 H 0.338586 0.606111 0.728367
C111 C 0.2509(7) 0.5678(5) 0.7789(2)
H106 H 0.274451 0.552820 0.796528
H107 H 0.287483 0.614109 0.772903
C112 C 0.1510(5) 0.5932(6) 0.7818(3)
H108 H 0.123822 0.601662 0.764270
H109 H 0.148146 0.642605 0.791870
H110 H 0.115964 0.551895 0.791021
C119 C 0.4462(5) 0.1151(5) 0.60549(16)
H126 H 0.440567 0.073320 0.618794
H127 H 0.504102 0.107797 0.595569
H128 H 0.393135 0.112469 0.593404
C120 C 0.4476(5) 0.1946(4) 0.61886(14)
H129 H 0.458098 0.236397 0.605493
H130 H 0.499974 0.196353 0.631519
C121 C 0.3560(5) 0.2117(4) 0.63359(12)
H131 H 0.303166 0.205113 0.621248
H132 H 0.348333 0.172538 0.647957
C122 C 0.3530(5) 0.2937(4) 0.64507(12)
H133 H 0.361751 0.332473 0.630649
H134 H 0.405775 0.299767 0.657438
C123 C 0.2642(5) 0.3132(4) 0.65941(14)
H135 H 0.212306 0.312705 0.646589
H136 H 0.251973 0.271167 0.672550
C124 C 0.2647(5) 0.3890(5) 0.67279(16)
H137 H 0.323084 0.395146 0.682547
H138 H 0.212156 0.391579 0.685077
H139 H 0.259085 0.431697 0.659780
C113? C 0.2332(7) 0.4149(5) 0.7528(2)
H111? H 0.169459 0.420191 0.745634
H112? H 0.272790 0.391398 0.738898
C114? C 0.2309(10) 0.3600(7) 0.7760(3)
H113? H 0.293272 0.356087 0.783641
H114? H 0.210391 0.307395 0.770175
H115? H 0.187448 0.380450 0.789193
C115? C 0.2594(11) 0.5411(7) 0.7321(2)
H116? H 0.296563 0.512005 0.718809
H117? H 0.193340 0.537935 0.726686
C116? C 0.2886(16) 0.6258(8) 0.7319(3)
H118? H 0.240977 0.658014 0.740590
H119? H 0.296062 0.643601 0.713601
H120? H 0.347837 0.631393 0.741228
C117? C 0.2284(8) 0.5406(8) 0.7801(2)
H121? H 0.261865 0.591507 0.782116
H122? H 0.236704 0.510543 0.796668
C118? C 0.1237(7) 0.5588(9) 0.7768(4)
H123? H 0.090801 0.510326 0.771640
H124? H 0.115466 0.599088 0.763056
H125? H 0.098479 0.578456 0.793462
loop_
_geom_bond_atom_site_label_1
_geom_bond_atom_site_label_2
_geom_bond_site_symmetry_1
_geom_bond_site_symmetry_2
C1 C2 1_555 1_555
C2 C3 1_555 1_555
C3 C4 1_555 1_555
C4 C5 1_555 1_555
C5 C6 1_555 1_555
C6 C7 1_555 1_555
C7 C8 1_555 1_555
C8 C9 1_555 1_555
C9 C10 1_555 1_555
C10 C11 1_555 1_555
C11 C12 1_555 1_555
C12 C13 1_555 1_555
C13 C14 1_555 1_555
C14 C15 1_555 1_555
C15 C16 1_555 1_555
C16 C17 1_555 1_555
C17 C18 1_555 1_555
C18 C19 1_555 1_555
C19 C20 1_555 1_555
C20 C21 1_555 1_555
C21 C22 1_555 1_555
C22 C23 1_555 1_555
C23 C24 1_555 1_555
C24 C25 1_555 1_555
C25 C26 1_555 1_555
C26 C1 1_555 1_555
C27 C2 1_555 1_555
H1 C27 1_555 1_555
H2 C27 1_555 1_555
H3 C27 1_555 1_555
C28 C3 1_555 1_555
H4 C28 1_555 1_555
H5 C28 1_555 1_555
H6 C28 1_555 1_555
C29 C6 1_555 1_555
H7 C29 1_555 1_555
H8 C29 1_555 1_555
H9 C29 1_555 1_555
C30 C7 1_555 1_555
H10 C30 1_555 1_555
H11 C30 1_555 1_555
H12 C30 1_555 1_555
C31 C10 1_555 1_555
H13 C31 1_555 1_555
H14 C31 1_555 1_555
H15 C31 1_555 1_555
C32 C11 1_555 1_555
H16 C32 1_555 1_555
H17 C32 1_555 1_555
H18 C32 1_555 1_555
C33 C15 1_555 1_555
H19 C33 1_555 1_555
H20 C33 1_555 1_555
H21 C33 1_555 1_555
C34 C16 1_555 1_555
H22 C34 1_555 1_555
H23 C34 1_555 1_555
H24 C34 1_555 1_555
C35 C19 1_555 1_555
H25 C35 1_555 1_555
H26 C35 1_555 1_555
H27 C35 1_555 1_555
C36 C20 1_555 1_555
H28 C36 1_555 1_555
H29 C36 1_555 1_555
H30 C36 1_555 1_555
C37 C23 1_555 1_555
H31 C37 1_555 1_555
H32 C37 1_555 1_555
H33 C37 1_555 1_555
C38 C24 1_555 1_555
H34 C38 1_555 1_555
H35 C38 1_555 1_555
H36 C38 1_555 1_555
C39 C13 1_555 1_555
C40 C39 1_555 1_555
C41 C40 1_555 1_555
C42 C41 1_555 1_555
C43 C42 1_555 1_555
C44 C39 1_555 1_555
C45 C26 1_555 1_555
C46 C45 1_555 1_555
C47 C46 1_555 1_555
C48 C47 1_555 1_555
C49 C48 1_555 1_555
C50 C45 1_555 1_555
N1 C1 1_555 1_555
H37 N1 1_555 1_555
N2 C5 1_555 1_555
N3 C9 1_555 1_555
H38 N3 1_555 1_555
N4 C14 1_555 1_555
N5 C18 1_555 1_555
N6 C22 1_555 1_555
F1 C40 1_555 1_555
F2 C41 1_555 1_555
F3 C42 1_555 1_555
F4 C43 1_555 1_555
F5 C44 1_555 1_555
F6 C46 1_555 1_555
F7 C47 1_555 1_555
F8 C48 1_555 1_555
F9 C49 1_555 1_555
F10 C50 1_555 1_555
H39 N2 1_555 1_555
H40 N5 1_555 1_555
C51 C52 1_555 1_555
C52 C53 1_555 1_555
C53 C54 1_555 1_555
C54 C55 1_555 1_555
C55 C56 1_555 1_555
C56 C57 1_555 1_555
C57 C58 1_555 1_555
C58 C59 1_555 1_555
C59 C60 1_555 1_555
C60 C61 1_555 1_555
C61 C62 1_555 1_555
C62 C63 1_555 1_555
C63 C64 1_555 1_555
C64 C65 1_555 1_555
C65 C66 1_555 1_555
C66 C67 1_555 1_555
C67 C68 1_555 1_555
C68 C69 1_555 1_555
C69 C70 1_555 1_555
C70 C71 1_555 1_555
C71 C72 1_555 1_555
C72 C73 1_555 1_555
C73 C74 1_555 1_555
C74 C75 1_555 1_555
C75 C76 1_555 1_555
C76 C51 1_555 1_555
C77 C52 1_555 1_555
H41 C77 1_555 1_555
H42 C77 1_555 1_555
H43 C77 1_555 1_555
C78 C53 1_555 1_555
H44 C78 1_555 1_555
H45 C78 1_555 1_555
H46 C78 1_555 1_555
C79 C56 1_555 1_555
H47 C79 1_555 1_555
H48 C79 1_555 1_555
H49 C79 1_555 1_555
C80 C57 1_555 1_555
H50 C80 1_555 1_555
H51 C80 1_555 1_555
H52 C80 1_555 1_555
C81 C60 1_555 1_555
H53 C81 1_555 1_555
H54 C81 1_555 1_555
H55 C81 1_555 1_555
C82 C61 1_555 1_555
H56 C82 1_555 1_555
H57 C82 1_555 1_555
H58 C82 1_555 1_555
C83 C65 1_555 1_555
H59 C83 1_555 1_555
H60 C83 1_555 1_555
H61 C83 1_555 1_555
C84 C66 1_555 1_555
H62 C84 1_555 1_555
H63 C84 1_555 1_555
H64 C84 1_555 1_555
C85 C69 1_555 1_555
H65 C85 1_555 1_555
H66 C85 1_555 1_555
H67 C85 1_555 1_555
C86 C70 1_555 1_555
H68 C86 1_555 1_555
H69 C86 1_555 1_555
H70 C86 1_555 1_555
C87 C73 1_555 1_555
H71 C87 1_555 1_555
H72 C87 1_555 1_555
H73 C87 1_555 1_555
C88 C74 1_555 1_555
H74 C88 1_555 1_555
H75 C88 1_555 1_555
H76 C88 1_555 1_555
C89 C63 1_555 1_555
C90 C89 1_555 1_555
C91 C90 1_555 1_555
C92 C91 1_555 1_555
C93 C92 1_555 1_555
C94 C89 1_555 1_555
C95 C76 1_555 1_555
C96 C95 1_555 1_555
C97 C96 1_555 1_555
C98 C97 1_555 1_555
C99 C98 1_555 1_555
C100 C95 1_555 1_555
N7 C51 1_555 1_555
H77 N7 1_555 1_555
N8 C55 1_555 1_555
N9 C59 1_555 1_555
N10 C64 1_555 1_555
N11 C68 1_555 1_555
N12 C72 1_555 1_555
F11 C90 1_555 1_555
F12 C91 1_555 1_555
F13 C92 1_555 1_555
F14 C93 1_555 1_555
F15 C94 1_555 1_555
F16 C96 1_555 1_555
F17 C97 1_555 1_555
F18 C98 1_555 1_555
F19 C99 1_555 1_555
F20 C100 1_555 1_555
H78 N8 1_555 1_555
H79 N11 1_555 1_555
H80 N9 1_555 1_555
C101 H81 1_555 1_555
H82 C101 1_555 1_555
C102 C101 1_555 1_555
H83 C102 1_555 1_555
H84 C102 1_555 1_555
H85 C102 1_555 1_555
C103 H86 1_555 1_555
H87 C103 1_555 1_555
C104 C103 1_555 1_555
H88 C104 1_555 1_555
H89 C104 1_555 1_555
H90 C104 1_555 1_555
C105 H91 1_555 1_555
H92 C105 1_555 1_555
C106 C105 1_555 1_555
H93 C106 1_555 1_555
H94 C106 1_555 1_555
H95 C106 1_555 1_555
N13 C101 1_555 1_555
O1 N13 1_555 1_555
O2 N14 1_555 1_555
N14 C107 1_555 1_555
C107 H96 1_555 1_555
H97 C107 1_555 1_555
C108 C107 1_555 1_555
H98 C108 1_555 1_555
H99 C108 1_555 1_555
H100 C108 1_555 1_555
C109 N14 1_555 1_555
H101 C109 1_555 1_555
H102 C109 1_555 1_555
C110 C109 1_555 1_555
H103 C110 1_555 1_555
H104 C110 1_555 1_555
H105 C110 1_555 1_555
C111 N14 1_555 1_555
H106 C111 1_555 1_555
H107 C111 1_555 1_555
C112 C111 1_555 1_555
H108 C112 1_555 1_555
H109 C112 1_555 1_555
H110 C112 1_555 1_555
C119 H126 1_555 1_555
H127 C119 1_555 1_555
H128 C119 1_555 1_555
C120 C119 1_555 1_555
H129 C120 1_555 1_555
H130 C120 1_555 1_555
C121 C120 1_555 1_555
H131 C121 1_555 1_555
H132 C121 1_555 1_555
C122 C121 1_555 1_555
H133 C122 1_555 1_555
H134 C122 1_555 1_555
C123 C122 1_555 1_555
H135 C123 1_555 1_555
H136 C123 1_555 1_555
C124 C123 1_555 1_555
H137 C124 1_555 1_555
H138 C124 1_555 1_555
H139 C124 1_555 1_555
C4 N1 1_555 1_555
C8 N2 1_555 1_555
C12 N3 1_555 1_555
C17 N4 1_555 1_555
C21 N5 1_555 1_555
C25 N6 1_555 1_555
C43 C44 1_555 1_555
C49 C50 1_555 1_555
C54 N7 1_555 1_555
C58 N8 1_555 1_555
C62 N9 1_555 1_555
C67 N10 1_555 1_555
C71 N11 1_555 1_555
C75 N12 1_555 1_555
C93 C94 1_555 1_555
C99 C100 1_555 1_555
C103 N13 1_555 1_555
C105 N13 1_555 1_555

#END
