
#######################################################################
#
#                 Cambridge Crystallographic Data Centre
#                                CCDC 
#
#######################################################################
#
# If this CIF has been generated from an entry in the Cambridge 
# Structural Database, then it will include bibliographic, chemical, 
# crystal, experimental, refinement or atomic coordinate data resulting 
# from the CCDC's data processing and validation procedures.
#
#######################################################################

data_ZAWSIC
_chemical_formula_moiety         'C36 H37 N1 P2,0.5(C4 H8 O2)'
_chemical_name_systematic        
'1-((2,6-diisopropylphenyl)imino)-1,1,2,2-tetraphenyldiphosphane hemikis(1,2-dioxane)'
_symmetry_cell_setting           monoclinic
_symmetry_space_group_name_H-M   'C 2/c'
_symmetry_Int_Tables_number      15
_space_group_name_Hall           '-C 2yn'
loop_
_symmetry_equiv_pos_site_id
_symmetry_equiv_pos_as_xyz
1 x,y,z
2 -x,y,1/2-z
3 1/2+x,1/2+y,z
4 1/2-x,1/2+y,1/2-z
5 -x,-y,-z
6 x,-y,1/2+z
7 1/2-x,1/2-y,-z
8 1/2+x,1/2-y,1/2+z
_cell_length_a                   33.5861(13)
_cell_length_b                   9.8113(8)
_cell_length_c                   19.5554(13)
_cell_angle_alpha                90
_cell_angle_beta                 96.437(4)
_cell_angle_gamma                90
_cell_volume                     6403.34
_exptl_crystal_colour            colorless
_exptl_crystal_description       block
_cell_formula_units_Z            8
loop_
_atom_site_label
_atom_site_type_symbol
_atom_site_fract_x
_atom_site_fract_y
_atom_site_fract_z
P1 P 0.380561(13) 0.84124(5) 0.48127(2)
P2 P 0.324193(14) 0.90867(5) 0.52222(2)
N1 N 0.37526(5) 0.81420(16) 0.40241(8)
C1 C 0.36319(6) 0.70096(19) 0.36101(9)
C2 C 0.32272(6) 0.6849(2) 0.33244(9)
C3 C 0.31292(6) 0.5810(2) 0.28538(11)
H1 H 0.2864 0.5708 0.2668
C4 C 0.34130(7) 0.4924(2) 0.26531(11)
H2 H 0.3341 0.4243 0.2332
C5 C 0.38074(6) 0.5067(2) 0.29390(11)
H3 H 0.3999 0.4465 0.2811
C6 C 0.39238(6) 0.6095(2) 0.34150(10)
C7 C 0.43622(6) 0.6213(2) 0.36982(11)
H4 H 0.4390 0.7013 0.4000
C8 C 0.46277(7) 0.6437(3) 0.31232(13)
H5 H 0.4614 0.5651 0.2829
H6 H 0.4900 0.6576 0.3320
H7 H 0.4536 0.7224 0.2859
C9 C 0.45001(7) 0.4968(2) 0.41315(12)
H8 H 0.4330 0.4851 0.4491
H9 H 0.4772 0.5100 0.4332
H10 H 0.4485 0.4172 0.3844
C10 C 0.29007(6) 0.7784(2) 0.35233(10)
H11 H 0.3030 0.8510 0.3812
C11 C 0.26206(7) 0.7013(3) 0.39529(13)
H12 H 0.2479 0.6324 0.3675
H13 H 0.2432 0.7638 0.4114
H14 H 0.2775 0.6592 0.4339
C12 C 0.26593(7) 0.8453(3) 0.29109(13)
H15 H 0.2837 0.8934 0.2643
H16 H 0.2471 0.9082 0.3071
H17 H 0.2517 0.7767 0.2631
C13 C 0.39312(6) 0.6940(2) 0.53588(9)
C14 C 0.36456(7) 0.5899(2) 0.53391(11)
H18 H 0.3403 0.5989 0.5062
C15 C 0.37224(8) 0.4735(2) 0.57309(13)
H19 H 0.3532 0.4046 0.5715
C16 C 0.40822(8) 0.4590(2) 0.61473(12)
H20 H 0.4131 0.3813 0.6416
C17 C 0.43683(7) 0.5604(2) 0.61610(12)
H21 H 0.4611 0.5502 0.6436
C18 C 0.42954(6) 0.6775(2) 0.57668(10)
H22 H 0.4490 0.7449 0.5775
C19 C 0.41970(5) 0.9672(2) 0.49920(10)
C20 C 0.43132(6) 1.0148(2) 0.56595(10)
H23 H 0.4205 0.9759 0.6031
C21 C 0.45891(6) 1.1200(2) 0.57668(11)
H24 H 0.4665 1.1518 0.6210
C22 C 0.47529(6) 1.1780(2) 0.52132(12)
H25 H 0.4937 1.2489 0.5287
C23 C 0.46429(6) 1.1305(2) 0.45529(11)
H26 H 0.4754 1.1690 0.4184
C24 C 0.43655(6) 1.0250(2) 0.44390(10)
H27 H 0.4293 0.9932 0.3995
C25 C 0.34132(6) 0.9636(2) 0.61021(10)
C26 C 0.34696(7) 0.8612(2) 0.66041(10)
H28 H 0.3424 0.7705 0.6480
C27 C 0.35924(8) 0.8944(2) 0.72848(11)
H29 H 0.3632 0.8258 0.7613
C28 C 0.36571(8) 1.0290(3) 0.74785(11)
H30 H 0.3740 1.0508 0.7935
C29 C 0.35980(7) 1.1311(2) 0.69885(11)
H31 H 0.3640 1.2217 0.7117
C30 C 0.34751(6) 1.0985(2) 0.63041(11)
H32 H 0.3434 1.1677 0.5979
C31 C 0.31105(6) 1.0657(2) 0.47383(10)
C32 C 0.27065(7) 1.0793(3) 0.44976(13)
H33 H 0.2526 1.0121 0.4597
C33 C 0.25690(8) 1.1923(3) 0.41106(15)
H34 H 0.2298 1.2003 0.3955
C34 C 0.28313(9) 1.2917(3) 0.39581(13)
H35 H 0.2739 1.3666 0.3696
C35 C 0.32333(8) 1.2805(2) 0.41939(12)
H36 H 0.3411 1.3483 0.4091
C36 C 0.33732(7) 1.1685(2) 0.45840(11)
H37 H 0.3644 1.1620 0.4744
O1 O 0.49137(15) 0.2571(4) 0.2805(2)
C37 C 0.46287(16) 0.1846(4) 0.2591(2)
H38 H 0.4447 0.2127 0.2181
C38 C 0.47916(10) 0.0437(3) 0.26327(15)
H39 H 0.4612 -0.0172 0.2355
H40 H 0.4815 0.0120 0.3105
O1A O 0.50863(15) 0.2571(4) 0.2195(2)
C37A C 0.53713(16) 0.1846(4) 0.2409(2)
H38A H 0.5553 0.2127 0.2819
C38A C 0.52084(10) 0.0437(3) 0.23673(15)
H39A H 0.5388 -0.0172 0.2645
H40A H 0.5185 0.0120 0.1895
loop_
_geom_bond_atom_site_label_1
_geom_bond_atom_site_label_2
_geom_bond_site_symmetry_1
_geom_bond_site_symmetry_2
P1 P2 1_555 1_555
P2 C25 1_555 1_555
N1 P1 1_555 1_555
C1 N1 1_555 1_555
C2 C1 1_555 1_555
C3 C2 1_555 1_555
H1 C3 1_555 1_555
C4 C3 1_555 1_555
H2 C4 1_555 1_555
C5 C4 1_555 1_555
H3 C5 1_555 1_555
C6 C1 1_555 1_555
C7 C6 1_555 1_555
H4 C7 1_555 1_555
C8 C7 1_555 1_555
H5 C8 1_555 1_555
H6 C8 1_555 1_555
H7 C8 1_555 1_555
C9 C7 1_555 1_555
H8 C9 1_555 1_555
H9 C9 1_555 1_555
H10 C9 1_555 1_555
C10 C2 1_555 1_555
H11 C10 1_555 1_555
C11 C10 1_555 1_555
H12 C11 1_555 1_555
H13 C11 1_555 1_555
H14 C11 1_555 1_555
C12 C10 1_555 1_555
H15 C12 1_555 1_555
H16 C12 1_555 1_555
H17 C12 1_555 1_555
C13 P1 1_555 1_555
C14 C13 1_555 1_555
H18 C14 1_555 1_555
C15 C14 1_555 1_555
H19 C15 1_555 1_555
C16 C15 1_555 1_555
H20 C16 1_555 1_555
C17 C16 1_555 1_555
H21 C17 1_555 1_555
C18 C13 1_555 1_555
H22 C18 1_555 1_555
C19 P1 1_555 1_555
C20 C19 1_555 1_555
H23 C20 1_555 1_555
C21 C20 1_555 1_555
H24 C21 1_555 1_555
C22 C21 1_555 1_555
H25 C22 1_555 1_555
C23 C22 1_555 1_555
H26 C23 1_555 1_555
C24 C19 1_555 1_555
H27 C24 1_555 1_555
C25 C26 1_555 1_555
C26 H28 1_555 1_555
C27 C26 1_555 1_555
H29 C27 1_555 1_555
C28 C27 1_555 1_555
H30 C28 1_555 1_555
C29 C28 1_555 1_555
H31 C29 1_555 1_555
C30 C25 1_555 1_555
H32 C30 1_555 1_555
C31 P2 1_555 1_555
C32 C31 1_555 1_555
H33 C32 1_555 1_555
C33 C32 1_555 1_555
H34 C33 1_555 1_555
C34 C33 1_555 1_555
H35 C34 1_555 1_555
C35 C34 1_555 1_555
H36 C35 1_555 1_555
C36 C31 1_555 1_555
H37 C36 1_555 1_555
O1 C37 1_555 1_555
C37 H38 1_555 1_555
C38 C37 1_555 1_555
H39 C38 1_555 1_555
H40 C38 1_555 1_555
O1A O1 1_555 1_555
C37A O1A 1_555 1_555
H38A C37A 1_555 1_555
C38A C38 1_555 1_555
H39A C38A 1_555 1_555
H40A C38A 1_555 1_555
C5 C6 1_555 1_555
C17 C18 1_555 1_555
C23 C24 1_555 1_555
C29 C30 1_555 1_555
C35 C36 1_555 1_555
C37A C38A 1_555 1_555

#END
