
#######################################################################
#
#                 Cambridge Crystallographic Data Centre
#                                CCDC 
#
#######################################################################
#
# If this CIF has been generated from an entry in the Cambridge 
# Structural Database, then it will include bibliographic, chemical, 
# crystal, experimental, refinement or atomic coordinate data resulting 
# from the CCDC's data processing and validation procedures.
#
#######################################################################

data_ZAWTAV
_chemical_formula_moiety         'C68 H70 Si2'
_chemical_name_systematic        
'(dodecacyclo[14.10.10.10^3,14^.0^1,14^.0^4,13^.0^6,11^.0^17,26^.0^19,24^.0^27,36^.0^29,34^.0^37,46^.0^39,44^]hexatetraconta-4,6,8,10,12,17,19,21,23,25,27,29,31,33,35,37,39,41,43,45-icosaene-3,16-diyldiethyne-2,1-diyl)bis(tri-isopropylsilane) unknown solvate'
_symmetry_cell_setting           triclinic
_symmetry_space_group_name_H-M   'P -1'
_symmetry_Int_Tables_number      2
_space_group_name_Hall           '-P 1'
loop_
_symmetry_equiv_pos_site_id
_symmetry_equiv_pos_as_xyz
1 x,y,z
2 -x,-y,-z
_cell_length_a                   10.4059(5)
_cell_length_b                   12.1965(6)
_cell_length_c                   15.0327(5)
_cell_angle_alpha                109.389(3)
_cell_angle_beta                 99.508(3)
_cell_angle_gamma                92.541(2)
_cell_volume                     1764.84
_exptl_crystal_description       plate
_cell_formula_units_Z            1
loop_
_atom_site_label
_atom_site_type_symbol
_atom_site_fract_x
_atom_site_fract_y
_atom_site_fract_z
Si1 Si 2.06236(8) 1.22725(7) -0.15478(6)
C1 C 1.8043(3) 1.1416(3) -0.2959(2)
C2 C 1.9076(3) 1.1743(3) -0.2421(2)
C3 C 2.0188(3) 1.3251(3) -0.0401(2)
H1 H 1.9842 1.3940 -0.0542
C4 C 2.1368(4) 1.3737(4) 0.0418(2)
H2 H 2.2060 1.4089 0.0197
H3 H 2.1107 1.4332 0.0959
H4 H 2.1696 1.3102 0.0624
C5 C 1.9079(4) 1.2688(4) -0.0065(3)
H5 H 1.8328 1.2380 -0.0597
H6 H 1.9399 1.2050 0.0140
H7 H 1.8810 1.3280 0.0474
C6 C 2.1441(3) 1.0975(3) -0.1452(2)
H8 H 2.1424 1.0444 -0.2125
C7 C 2.2889(3) 1.1295(3) -0.0964(3)
H9 H 2.3327 1.1752 -0.1277
H10 H 2.2954 1.1759 -0.0284
H11 H 2.3311 1.0579 -0.1020
C8 C 2.0755(4) 1.0267(3) -0.0972(3)
H12 H 1.9831 1.0065 -0.1286
H13 H 2.1175 0.9550 -0.1028
H14 H 2.0817 1.0730 -0.0291
C9 C 2.1674(3) 1.3131(3) -0.2029(2)
H15 H 2.2505 1.3429 -0.1543
C10 C 2.1068(4) 1.4191(4) -0.2156(3)
H16 H 2.0827 1.4664 -0.1552
H17 H 2.1702 1.4660 -0.2334
H18 H 2.0283 1.3934 -0.2663
C11 C 2.2052(4) 1.2391(4) -0.2959(3)
H19 H 2.2443 1.1709 -0.2871
H20 H 2.1270 1.2129 -0.3469
H21 H 2.2689 1.2856 -0.3139
C12 C 1.6765(3) 1.1011(2) -0.36025(19)
C13 C 1.6912(3) 1.0157(3) -0.46000(19)
H22 H 1.7473 1.0562 -0.4892
H23 H 1.7352 0.9485 -0.4516
C14 C 1.6042(3) 1.1999(3) -0.37742(19)
C15 C 1.6504(3) 1.3148(3) -0.3404(2)
H24 H 1.7352 1.3388 -0.3012
C16 C 1.5715(3) 1.3995(3) -0.3605(2)
C17 C 1.6151(4) 1.5205(3) -0.3188(2)
H25 H 1.6986 1.5465 -0.2781
C18 C 1.5355(4) 1.5995(3) -0.3379(3)
H26 H 1.5640 1.6808 -0.3098
C19 C 1.4119(4) 1.5618(3) -0.3986(3)
H27 H 1.3572 1.6174 -0.4111
C20 C 1.3714(3) 1.4473(3) -0.4389(2)
H28 H 1.2881 1.4230 -0.4802
C21 C 1.4491(3) 1.3620(3) -0.4216(2)
C22 C 1.4059(3) 1.2412(3) -0.4612(2)
H29 H 1.3240 1.2158 -0.5043
C23 C 1.4783(3) 1.1600(3) -0.43917(18)
C24 C 1.4429(3) 1.0296(2) -0.47163(19)
C25 C 1.4607(3) 0.9957(2) -0.38210(18)
C26 C 1.3719(3) 0.9307(2) -0.35745(19)
H30 H 1.2879 0.9042 -0.3976
C27 C 1.4030(3) 0.9020(2) -0.27254(19)
C28 C 1.3126(3) 0.8347(3) -0.2462(2)
H31 H 1.2284 0.8079 -0.2858
C29 C 1.3436(3) 0.8078(3) -0.1658(2)
H32 H 1.2817 0.7619 -0.1494
C30 C 1.4684(3) 0.8478(3) -0.1060(2)
H33 H 1.4899 0.8290 -0.0492
C31 C 1.5569(3) 0.9126(3) -0.1293(2)
H34 H 1.6403 0.9393 -0.0884
C32 C 1.5279(3) 0.9414(3) -0.21331(19)
C33 C 1.6181(3) 1.0080(2) -0.24019(19)
H35 H 1.7023 1.0355 -0.2008
C34 C 1.5856(3) 1.0333(2) -0.32208(18)
Si1A Si 0.93764(8) 0.77275(7) -0.84522(6)
C1A C 1.1957(3) 0.8584(3) -0.7041(2)
C2A C 1.0924(3) 0.8257(3) -0.7579(2)
C3A C 0.9812(3) 0.6749(3) -0.9599(2)
H1A H 1.0158 0.6060 -0.9458
C4A C 0.8632(4) 0.6263(4) -1.0418(2)
H2A H 0.7940 0.5911 -1.0197
H3A H 0.8893 0.5668 -1.0959
H4A H 0.8304 0.6898 -1.0624
C5A C 1.0921(4) 0.7312(4) -0.9935(3)
H5A H 1.1672 0.7620 -0.9403
H6A H 1.0601 0.7950 -1.0140
H7A H 1.1190 0.6720 -1.0474
C6A C 0.8559(3) 0.9025(3) -0.8548(2)
H8A H 0.8576 0.9556 -0.7875
C7A C 0.7111(3) 0.8705(3) -0.9036(3)
H9A H 0.6673 0.8248 -0.8723
H10A H 0.7046 0.8241 -0.9716
H11A H 0.6689 0.9421 -0.8980
C8A C 0.9245(4) 0.9733(3) -0.9028(3)
H12A H 1.0169 0.9935 -0.8714
H13A H 0.8825 1.0450 -0.8972
H14A H 0.9183 0.9270 -0.9709
C9A C 0.8326(3) 0.6869(3) -0.7971(2)
H15A H 0.7495 0.6571 -0.8457
C10A C 0.8932(4) 0.5809(4) -0.7844(3)
H16A H 0.9173 0.5336 -0.8448
H17A H 0.8298 0.5340 -0.7666
H18A H 0.9717 0.6066 -0.7337
C11A C 0.7948(4) 0.7609(4) -0.7041(3)
H19A H 0.7557 0.8291 -0.7129
H20A H 0.8730 0.7871 -0.6531
H21A H 0.7311 0.7144 -0.6861
C12A C 1.3235(3) 0.8989(2) -0.63975(19)
C13A C 1.3088(3) 0.9843(3) -0.54000(19)
H22A H 1.2527 0.9438 -0.5108
H23A H 1.2648 1.0515 -0.5484
C14A C 1.3958(3) 0.8001(3) -0.62258(19)
C15A C 1.3496(3) 0.6852(3) -0.6596(2)
H24A H 1.2648 0.6612 -0.6988
C16A C 1.4285(3) 0.6005(3) -0.6395(2)
C17A C 1.3849(4) 0.4795(3) -0.6812(2)
H25A H 1.3014 0.4535 -0.7219
C18A C 1.4645(4) 0.4005(3) -0.6621(3)
H26A H 1.4360 0.3192 -0.6902
C19A C 1.5881(4) 0.4382(3) -0.6014(3)
H27A H 1.6428 0.3826 -0.5889
C20A C 1.6286(3) 0.5527(3) -0.5611(2)
H28A H 1.7119 0.5770 -0.5198
C21A C 1.5509(3) 0.6380(3) -0.5784(2)
C22A C 1.5941(3) 0.7588(3) -0.5388(2)
H29A H 1.6760 0.7842 -0.4957
C23A C 1.5217(3) 0.8400(3) -0.56083(18)
C24A C 1.5571(3) 0.9704(2) -0.52837(19)
C25A C 1.5393(3) 1.0043(2) -0.61790(18)
C26A C 1.6281(3) 1.0693(2) -0.64255(19)
H30A H 1.7121 1.0958 -0.6024
C27A C 1.5970(3) 1.0980(2) -0.72746(19)
C28A C 1.6874(3) 1.1653(3) -0.7538(2)
H31A H 1.7716 1.1921 -0.7142
C29A C 1.6564(3) 1.1922(3) -0.8342(2)
H32A H 1.7183 1.2381 -0.8506
C30A C 1.5316(3) 1.1522(3) -0.8940(2)
H33A H 1.5101 1.1710 -0.9508
C31A C 1.4431(3) 1.0874(3) -0.8707(2)
H34A H 1.3597 1.0607 -0.9116
C32A C 1.4721(3) 1.0586(3) -0.78669(19)
C33A C 1.3819(3) 0.9920(2) -0.75981(19)
H35A H 1.2977 0.9645 -0.7992
C34A C 1.4144(3) 0.9667(2) -0.67792(18)
loop_
_geom_bond_atom_site_label_1
_geom_bond_atom_site_label_2
_geom_bond_site_symmetry_1
_geom_bond_site_symmetry_2
Si1 C2 1_555 1_555
C1 C2 1_555 1_555
C3 Si1 1_555 1_555
H1 C3 1_555 1_555
C4 C3 1_555 1_555
H2 C4 1_555 1_555
H3 C4 1_555 1_555
H4 C4 1_555 1_555
C5 C3 1_555 1_555
H5 C5 1_555 1_555
H6 C5 1_555 1_555
H7 C5 1_555 1_555
C6 Si1 1_555 1_555
H8 C6 1_555 1_555
C7 C6 1_555 1_555
H9 C7 1_555 1_555
H10 C7 1_555 1_555
H11 C7 1_555 1_555
C8 C6 1_555 1_555
H12 C8 1_555 1_555
H13 C8 1_555 1_555
H14 C8 1_555 1_555
C9 Si1 1_555 1_555
H15 C9 1_555 1_555
C10 C9 1_555 1_555
H16 C10 1_555 1_555
H17 C10 1_555 1_555
H18 C10 1_555 1_555
C11 C9 1_555 1_555
H19 C11 1_555 1_555
H20 C11 1_555 1_555
H21 C11 1_555 1_555
C12 C1 1_555 1_555
C13 C12 1_555 1_555
H22 C13 1_555 1_555
H23 C13 1_555 1_555
C14 C12 1_555 1_555
C15 C14 1_555 1_555
H24 C15 1_555 1_555
C16 C15 1_555 1_555
C17 C16 1_555 1_555
H25 C17 1_555 1_555
C18 C17 1_555 1_555
H26 C18 1_555 1_555
C19 C18 1_555 1_555
H27 C19 1_555 1_555
C20 C19 1_555 1_555
H28 C20 1_555 1_555
C21 C16 1_555 1_555
C22 C21 1_555 1_555
H29 C22 1_555 1_555
C23 C14 1_555 1_555
C24 C23 1_555 1_555
C25 C24 1_555 1_555
C26 C25 1_555 1_555
H30 C26 1_555 1_555
C27 C26 1_555 1_555
C28 C27 1_555 1_555
H31 C28 1_555 1_555
C29 C28 1_555 1_555
H32 C29 1_555 1_555
C30 C29 1_555 1_555
H33 C30 1_555 1_555
C31 C30 1_555 1_555
H34 C31 1_555 1_555
C32 C27 1_555 1_555
C33 C32 1_555 1_555
H35 C33 1_555 1_555
C34 C12 1_555 1_555
Si1A C2A 1_555 1_555
C1A C2A 1_555 1_555
C3A Si1A 1_555 1_555
H1A C3A 1_555 1_555
C4A C3A 1_555 1_555
H2A C4A 1_555 1_555
H3A C4A 1_555 1_555
H4A C4A 1_555 1_555
C5A C3A 1_555 1_555
H5A C5A 1_555 1_555
H6A C5A 1_555 1_555
H7A C5A 1_555 1_555
C6A Si1A 1_555 1_555
H8A C6A 1_555 1_555
C7A C6A 1_555 1_555
H9A C7A 1_555 1_555
H10A C7A 1_555 1_555
H11A C7A 1_555 1_555
C8A C6A 1_555 1_555
H12A C8A 1_555 1_555
H13A C8A 1_555 1_555
H14A C8A 1_555 1_555
C9A Si1A 1_555 1_555
H15A C9A 1_555 1_555
C10A C9A 1_555 1_555
H16A C10A 1_555 1_555
H17A C10A 1_555 1_555
H18A C10A 1_555 1_555
C11A C9A 1_555 1_555
H19A C11A 1_555 1_555
H20A C11A 1_555 1_555
H21A C11A 1_555 1_555
C12A C1A 1_555 1_555
C13A C24 1_555 1_555
H22A C13A 1_555 1_555
H23A C13A 1_555 1_555
C14A C12A 1_555 1_555
C15A C14A 1_555 1_555
H24A C15A 1_555 1_555
C16A C15A 1_555 1_555
C17A C16A 1_555 1_555
H25A C17A 1_555 1_555
C18A C17A 1_555 1_555
H26A C18A 1_555 1_555
C19A C18A 1_555 1_555
H27A C19A 1_555 1_555
C20A C19A 1_555 1_555
H28A C20A 1_555 1_555
C21A C16A 1_555 1_555
C22A C21A 1_555 1_555
H29A C22A 1_555 1_555
C23A C14A 1_555 1_555
C24A C13 1_555 1_555
C25A C24A 1_555 1_555
C26A C25A 1_555 1_555
H30A C26A 1_555 1_555
C27A C26A 1_555 1_555
C28A C27A 1_555 1_555
H31A C28A 1_555 1_555
C29A C28A 1_555 1_555
H32A C29A 1_555 1_555
C30A C29A 1_555 1_555
H33A C30A 1_555 1_555
C31A C30A 1_555 1_555
H34A C31A 1_555 1_555
C32A C27A 1_555 1_555
C33A C32A 1_555 1_555
H35A C33A 1_555 1_555
C34A C12A 1_555 1_555
C20 C21 1_555 1_555
C22 C23 1_555 1_555
C24 C24A 1_555 1_555
C25 C34 1_555 1_555
C31 C32 1_555 1_555
C33 C34 1_555 1_555
C12A C13A 1_555 1_555
C20A C21A 1_555 1_555
C22A C23A 1_555 1_555
C23A C24A 1_555 1_555
C25A C34A 1_555 1_555
C31A C32A 1_555 1_555
C33A C34A 1_555 1_555

#END
