
#######################################################################
#
#                 Cambridge Crystallographic Data Centre
#                                CCDC 
#
#######################################################################
#
# If this CIF has been generated from an entry in the Cambridge 
# Structural Database, then it will include bibliographic, chemical, 
# crystal, experimental, refinement or atomic coordinate data resulting 
# from the CCDC's data processing and validation procedures.
#
#######################################################################

data_ZAXDEK
_chemical_formula_moiety         'C18 H23 B2 N2 P1'
_chemical_name_systematic        
1-(\l^5^-boranyl)-2-(((\l^5^-boranyl(diphenyl)phosphoranylidene)-\l^5^-azanyl)methyl)-1\l^5^-pyridine
_symmetry_cell_setting           monoclinic
_symmetry_space_group_name_H-M   'P 21/c'
_symmetry_Int_Tables_number      14
_space_group_name_Hall           '-P 2ybc'
loop_
_symmetry_equiv_pos_site_id
_symmetry_equiv_pos_as_xyz
1 x,y,z
2 -x,1/2+y,1/2-z
3 -x,-y,-z
4 x,1/2-y,1/2+z
_cell_length_a                   13.6661(14)
_cell_length_b                   13.7280(17)
_cell_length_c                   9.9298(12)
_cell_angle_alpha                90
_cell_angle_beta                 106.115(12)
_cell_angle_gamma                90
_cell_volume                     1789.71
_exptl_crystal_colour            colorless
_exptl_crystal_description       plate
_cell_formula_units_Z            4
loop_
_atom_site_label
_atom_site_type_symbol
_atom_site_fract_x
_atom_site_fract_y
_atom_site_fract_z
P1 P 0.26854(3) 0.95523(3) 0.20703(4)
N1 N -0.02934(10) 0.88117(10) 0.37154(13)
N2 N 0.15010(10) 0.91197(10) 0.15281(14)
H1 H 0.1158 0.9177 0.0664
C1 C 0.01922(11) 0.92206(12) 0.28322(16)
C2 C 0.28382(12) 1.02124(12) 0.05640(17)
C3 C -0.13606(13) 1.02154(13) 0.34906(18)
H2 H -0.1886 1.0542 0.3728
C4 C -0.08765(13) 1.06322(13) 0.25786(19)
H3 H -0.1075 1.1241 0.2188
C5 C -0.10508(12) 0.93095(13) 0.40393(18)
H4 H -0.1374 0.9030 0.4654
C6 C 0.36746(14) 1.05261(14) -0.12403(19)
H5 H 0.4138 1.0344 -0.1726
C7 C 0.35286(12) 0.99335(13) -0.01692(18)
H6 H 0.3891 0.9354 0.0055
C8 C -0.00941(12) 1.01305(12) 0.22567(17)
H7 H 0.0241 1.0405 0.1652
C9 C 0.35672(12) 0.85365(12) 0.23604(17)
C10 C 0.10475(12) 0.86420(11) 0.25269(17)
H8 H 0.1574 0.8535 0.3398
H9 H 0.0788 0.8010 0.2157
C11 C 0.49296(15) 0.69842(15) 0.2895(2)
H10 H 0.5386 0.6466 0.3077
C12 C 0.22885(13) 1.10781(12) 0.02056(18)
H11 H 0.1827 1.1267 0.0690
C13 C 0.24288(14) 1.16565(13) -0.08696(19)
H12 H 0.2053 1.2226 -0.1116
B1 B -0.00295(16) 0.77429(14) 0.4348(2)
H13 H -0.0390 0.7622 0.5035
H14 H 0.0690 0.7693 0.4780
H15 H -0.0230 0.7271 0.3608
C14 C 0.44852(13) 0.86046(14) 0.34091(18)
H16 H 0.4646 0.9172 0.3935
C15 C 0.31307(14) 1.13851(14) -0.15800(19)
H17 H 0.3236 1.1782 -0.2286
C16 C 0.51566(15) 0.78291(15) 0.3668(2)
H18 H 0.5768 0.7878 0.4370
C17 C 0.40219(16) 0.69075(14) 0.1848(2)
H19 H 0.3869 0.6340 0.1321
C18 C 0.33417(15) 0.76786(13) 0.1587(2)
H20 H 0.2729 0.7623 0.0890
B2 B 0.28808(16) 1.03631(14) 0.3685(2)
H21 H 0.2369 1.0862 0.3503
H22 H 0.3543 1.0658 0.3896
H23 H 0.2829 0.9977 0.4468
loop_
_geom_bond_atom_site_label_1
_geom_bond_atom_site_label_2
_geom_bond_site_symmetry_1
_geom_bond_site_symmetry_2
P1 N2 1_555 1_555
N1 C1 1_555 1_555
N2 H1 1_555 1_555
C1 C8 1_555 1_555
C2 P1 1_555 1_555
C3 H2 1_555 1_555
C4 C3 1_555 1_555
H3 C4 1_555 1_555
C5 N1 1_555 1_555
H4 C5 1_555 1_555
C6 H5 1_555 1_555
C7 C2 1_555 1_555
H6 C7 1_555 1_555
C8 C4 1_555 1_555
H7 C8 1_555 1_555
C9 P1 1_555 1_555
C10 N2 1_555 1_555
H8 C10 1_555 1_555
H9 C10 1_555 1_555
C11 H10 1_555 1_555
C12 C2 1_555 1_555
H11 C12 1_555 1_555
C13 C12 1_555 1_555
H12 C13 1_555 1_555
B1 N1 1_555 1_555
H13 B1 1_555 1_555
H14 B1 1_555 1_555
H15 B1 1_555 1_555
C14 C9 1_555 1_555
H16 C14 1_555 1_555
C15 C6 1_555 1_555
H17 C15 1_555 1_555
C16 C11 1_555 1_555
H18 C16 1_555 1_555
C17 C11 1_555 1_555
H19 C17 1_555 1_555
C18 C9 1_555 1_555
H20 C18 1_555 1_555
B2 P1 1_555 1_555
H21 B2 1_555 1_555
H22 B2 1_555 1_555
H23 B2 1_555 1_555
C1 C10 1_555 1_555
C3 C5 1_555 1_555
C6 C7 1_555 1_555
C13 C15 1_555 1_555
C14 C16 1_555 1_555
C17 C18 1_555 1_555

#END
