
#######################################################################
#
#                 Cambridge Crystallographic Data Centre
#                                CCDC 
#
#######################################################################
#
# If this CIF has been generated from an entry in the Cambridge 
# Structural Database, then it will include bibliographic, chemical, 
# crystal, experimental, refinement or atomic coordinate data resulting 
# from the CCDC's data processing and validation procedures.
#
#######################################################################

data_ZAXDIO
_chemical_formula_moiety         'C18 H20 B1 N2 P1 Se1'
_chemical_name_systematic        
'N-((1-(\l^5^-boranyl)-1\l^5^-pyridin-2-yl)methyl)-P,P-diphenylphosphinoselenoic amide'
_symmetry_cell_setting           monoclinic
_symmetry_space_group_name_H-M   'P 21/c'
_symmetry_Int_Tables_number      14
_space_group_name_Hall           '-P 2ybc'
loop_
_symmetry_equiv_pos_site_id
_symmetry_equiv_pos_as_xyz
1 x,y,z
2 -x,1/2+y,1/2-z
3 -x,-y,-z
4 x,1/2-y,1/2+z
_cell_length_a                   13.9339(6)
_cell_length_b                   13.9605(5)
_cell_length_c                   9.6554(4)
_cell_angle_alpha                90
_cell_angle_beta                 106.272(4)
_cell_angle_gamma                90
_cell_volume                     1802.97
_exptl_crystal_colour            colorless
_exptl_crystal_description       needle
_cell_formula_units_Z            4
loop_
_atom_site_label
_atom_site_type_symbol
_atom_site_fract_x
_atom_site_fract_y
_atom_site_fract_z
Se1 Se 0.69878(4) 0.54407(4) 0.09689(6)
P1 P 0.72791(8) 0.46354(8) 0.28873(12)
N1 N 0.8458(2) 0.4280(2) 0.3479(4)
H1 H 0.8794 0.4413 0.4350
N2 N 1.0283(2) 0.3830(2) 0.1395(3)
B1 B 1.0043(4) 0.2755(4) 0.0856(6)
H2 H 1.0389 0.2606 0.0151
H3 H 0.9336 0.2684 0.0431
H4 H 1.0259 0.2326 0.1661
C1 C 0.8942(3) 0.3747(3) 0.2557(5)
H5 H 0.8446 0.3590 0.1660
H6 H 0.9203 0.3151 0.3031
C2 C 0.9786(3) 0.4296(3) 0.2221(4)
C3 C 1.0047(3) 0.5203(3) 0.2702(5)
H7 H 0.9696 0.5511 0.3262
C4 C 1.0826(3) 0.5669(3) 0.2366(5)
H8 H 1.1010 0.6286 0.2699
C5 C 1.1324(3) 0.5190(3) 0.1520(5)
H9 H 1.1853 0.5482 0.1274
C6 C 1.1034(3) 0.4292(3) 0.1054(5)
H10 H 1.1368 0.3981 0.0474
C7 C 0.7116(3) 0.5314(3) 0.4395(5)
C8 C 0.6463(3) 0.5036(4) 0.5177(5)
H11 H 0.6117 0.4460 0.4968
C9 C 0.6328(4) 0.5621(4) 0.6270(6)
H12 H 0.5884 0.5440 0.6784
C10 C 0.6846(4) 0.6464(4) 0.6596(6)
H13 H 0.6750 0.6853 0.7328
C11 C 0.7510(4) 0.6741(3) 0.5846(5)
H14 H 0.7868 0.7309 0.6082
C12 C 0.7638(3) 0.6172(3) 0.4747(5)
H15 H 0.8079 0.6363 0.4233
C13 C 0.6495(3) 0.3582(3) 0.2677(5)
C14 C 0.6811(4) 0.2784(4) 0.3548(5)
H16 H 0.7428 0.2790 0.4241
C15 C 0.6206(4) 0.1980(4) 0.3382(6)
H17 H 0.6414 0.1447 0.3967
C16 C 0.5298(4) 0.1974(4) 0.2350(7)
H18 H 0.4895 0.1432 0.2230
C17 C 0.4985(4) 0.2757(4) 0.1499(6)
H19 H 0.4366 0.2748 0.0810
C18 C 0.5579(3) 0.3559(3) 0.1653(5)
H20 H 0.5361 0.4089 0.1065
loop_
_geom_bond_atom_site_label_1
_geom_bond_atom_site_label_2
_geom_bond_site_symmetry_1
_geom_bond_site_symmetry_2
Se1 P1 1_555 1_555
P1 N1 1_555 1_555
N1 H1 1_555 1_555
N2 B1 1_555 1_555
B1 H2 1_555 1_555
H3 B1 1_555 1_555
H4 B1 1_555 1_555
C1 N1 1_555 1_555
H5 C1 1_555 1_555
H6 C1 1_555 1_555
C2 N2 1_555 1_555
C3 C2 1_555 1_555
H7 C3 1_555 1_555
C4 C3 1_555 1_555
H8 C4 1_555 1_555
C5 C4 1_555 1_555
H9 C5 1_555 1_555
C6 N2 1_555 1_555
H10 C6 1_555 1_555
C7 P1 1_555 1_555
C8 C7 1_555 1_555
H11 C8 1_555 1_555
C9 C8 1_555 1_555
H12 C9 1_555 1_555
C10 C9 1_555 1_555
H13 C10 1_555 1_555
C11 C10 1_555 1_555
H14 C11 1_555 1_555
C12 C7 1_555 1_555
H15 C12 1_555 1_555
C13 P1 1_555 1_555
C14 C13 1_555 1_555
H16 C14 1_555 1_555
C15 C14 1_555 1_555
H17 C15 1_555 1_555
C16 C15 1_555 1_555
H18 C16 1_555 1_555
C17 C16 1_555 1_555
H19 C17 1_555 1_555
C18 C13 1_555 1_555
H20 C18 1_555 1_555
C1 C2 1_555 1_555
C5 C6 1_555 1_555
C11 C12 1_555 1_555
C17 C18 1_555 1_555

#END
