
#######################################################################
#
#                 Cambridge Crystallographic Data Centre
#                                CCDC 
#
#######################################################################
#
# If this CIF has been generated from an entry in the Cambridge 
# Structural Database, then it will include bibliographic, chemical, 
# crystal, experimental, refinement or atomic coordinate data resulting 
# from the CCDC's data processing and validation procedures.
#
#######################################################################

data_ZAXJOA
_chemical_formula_moiety         'C66 H80 B2 K2 N2 O4 P2'
_chemical_name_systematic        
bis(\m-[N-(diphenylmethyl)-P,P-diphenylphosphorimidoyl](trihydrido)borato)-tetrakis(tetrahydrofuran)-di-potassium
_symmetry_cell_setting           triclinic
_symmetry_space_group_name_H-M   'P -1'
_symmetry_Int_Tables_number      2
_space_group_name_Hall           '-P 1'
loop_
_symmetry_equiv_pos_site_id
_symmetry_equiv_pos_as_xyz
1 x,y,z
2 -x,-y,-z
_cell_length_a                   10.1635(10)
_cell_length_b                   12.5894(13)
_cell_length_c                   13.2261(12)
_cell_angle_alpha                76.773(8)
_cell_angle_beta                 75.288(8)
_cell_angle_gamma                85.431(8)
_cell_volume                     1592.99
_exptl_crystal_colour            colorless
_exptl_crystal_description       plates
_cell_formula_units_Z            1
loop_
_atom_site_label
_atom_site_type_symbol
_atom_site_fract_x
_atom_site_fract_y
_atom_site_fract_z
K1 K 0.40933(6) 0.50669(5) 0.85709(5)
P1 P 0.52597(7) 0.77040(5) 0.82619(5)
C1 C 0.5920(3) 0.7829(2) 0.5513(2)
C2 C 0.6966(3) 0.9365(2) 0.6858(2)
H1 H 0.6201 0.9634 0.6610
C3 C 0.3564(3) 0.7131(2) 0.6129(2)
O1 O 0.1472(3) 0.4512(2) 0.8881(2)
O2 O 0.5570(3) 0.3925(2) 0.7209(2)
C4 C 0.4337(3) 0.9681(2) 0.8943(2)
H2 H 0.5235 0.9786 0.8934
C5 C 0.2334(3) 0.7654(3) 0.5997(2)
H3 H 0.2159 0.8364 0.6099
C6 C 0.4626(3) 0.7701(2) 0.6434(2)
H4 H 0.4271 0.8431 0.6516
C7 C 0.3802(3) 0.6068(2) 0.5965(2)
H5 H 0.4691 0.6021 0.5467
C8 C 0.8014(3) 0.8051(3) 0.8036(3)
H6 H 0.7963 0.7434 0.8586
C9 C 0.5960(3) 0.8659(3) 0.4615(2)
H7 H 0.5219 0.9140 0.4592
C10 C 0.2843(3) 0.5556(3) 0.5672(3)
H8 H 0.3013 0.4850 0.5560
C11 C 0.2654(3) 0.8649(3) 0.8621(2)
H9 H 0.2421 0.8056 0.8398
C12 C 0.1367(3) 0.7133(3) 0.5717(3)
H10 H 0.0547 0.7489 0.5647
C13 C 0.7034(3) 0.7119(3) 0.5549(3)
H11 H 0.7027 0.6565 0.6152
C14 C 0.3332(4) 1.0420(3) 0.9289(3)
H12 H 0.3559 1.1010 0.9520
C15 C 0.1653(3) 0.9399(3) 0.8965(3)
H13 H 0.0751 0.9302 0.8975
C16 C 0.8198(3) 0.9884(3) 0.6389(3)
H14 H 0.8254 1.0500 0.5837
C17 C 0.1620(3) 0.6097(3) 0.5545(3)
H15 H 0.0981 0.5754 0.5344
C18 C 0.9257(3) 0.8566(3) 0.7564(3)
H16 H 1.0028 0.8292 0.7803
C19 C 0.8167(3) 0.7244(3) 0.4672(3)
H17 H 0.8908 0.6762 0.4689
C20 C 0.9344(3) 0.9475(3) 0.6750(3)
H18 H 1.0173 0.9818 0.6439
C21 C 0.4910(4) 0.3038(3) 0.7035(3)
H19 H 0.4615 0.3255 0.6373
H20 H 0.4120 0.2819 0.7620
C22 C 0.1992(4) 1.0283(3) 0.9292(3)
H21 H 0.1323 1.0786 0.9514
C23 C 0.8192(4) 0.8080(3) 0.3780(3)
H22 H 0.8953 0.8162 0.3205
C24 C 0.5929(4) 0.2121(3) 0.6975(3)
H23 H 0.6445 0.2149 0.6244
H24 H 0.5494 0.1420 0.7260
C25 C 0.6847(4) 0.3549(4) 0.7439(3)
H25 H 0.6957 0.3794 0.8056
H26 H 0.7591 0.3823 0.6832
C26 C 0.7097(4) 0.8787(3) 0.3743(3)
H27 H 0.7110 0.9346 0.3144
C27 C 0.6827(4) 0.2320(4) 0.7664(4)
H28 H 0.6440 0.2017 0.8416
H29 H 0.7734 0.2011 0.7455
C28 C 0.0552(4) 0.5330(4) 0.8486(3)
H30 H 0.1030 0.5816 0.7839
H31 H 0.0153 0.5758 0.9017
C29 C -0.0526(5) 0.4752(5) 0.8258(5)
H32 H -0.0379 0.4809 0.7494
H33 H -0.1417 0.5063 0.8523
C30 C 0.1017(5) 0.3465(4) 0.8923(5)
H34 H 0.1080 0.2977 0.9594
H35 H 0.1584 0.3165 0.8341
C31 C -0.0424(13) 0.3565(8) 0.8834(15)
H36 H -0.1053 0.3421 0.9534
H37 H -0.0598 0.3072 0.8419
N1 N 0.4826(2) 0.70917(18) 0.74617(18)
C32 C 0.4015(3) 0.8789(2) 0.8610(2)
C33 C 0.6856(3) 0.8455(2) 0.7690(2)
B1 B 0.5375(4) 0.6697(3) 0.9569(3)
H38 H 0.577(4) 0.711(3) 1.005(3)
H39 H 0.430(3) 0.637(2) 1.000(2)
H40 H 0.610(4) 0.604(3) 0.940(3)
K1A K 0.59067(6) 0.49331(5) 1.14291(5)
P1A P 0.47403(7) 0.22960(5) 1.17381(5)
C1A C 0.4080(3) 0.2171(2) 1.4487(2)
C2A C 0.3034(3) 0.0635(2) 1.3142(2)
H1A H 0.3799 0.0366 1.3390
C3A C 0.6436(3) 0.2869(2) 1.3871(2)
O1A O 0.8528(3) 0.5488(2) 1.1119(2)
O2A O 0.4430(3) 0.6075(2) 1.2791(2)
C4A C 0.5663(3) 0.0319(2) 1.1057(2)
H2A H 0.4765 0.0214 1.1066
C5A C 0.7666(3) 0.2346(3) 1.4003(2)
H3A H 0.7841 0.1636 1.3901
C6A C 0.5374(3) 0.2299(2) 1.3566(2)
H4A H 0.5729 0.1569 1.3484
C7A C 0.6198(3) 0.3932(2) 1.4035(2)
H5A H 0.5309 0.3979 1.4533
C8A C 0.1986(3) 0.1949(3) 1.1964(3)
H6A H 0.2037 0.2566 1.1414
C9A C 0.4040(3) 0.1341(3) 1.5385(2)
H7A H 0.4781 0.0860 1.5408
C10A C 0.7157(3) 0.4444(3) 1.4328(3)
H8A H 0.6987 0.5150 1.4440
C11A C 0.7346(3) 0.1351(3) 1.1379(2)
H9A H 0.7579 0.1944 1.1602
C12A C 0.8633(3) 0.2867(3) 1.4283(3)
H10A H 0.9453 0.2511 1.4353
C13A C 0.2966(3) 0.2881(3) 1.4451(3)
H11A H 0.2973 0.3435 1.3848
C14A C 0.6668(4) -0.0420(3) 1.0711(3)
H12A H 0.6441 -0.1010 1.0480
C15A C 0.8347(3) 0.0601(3) 1.1035(3)
H13A H 0.9249 0.0698 1.1025
C16A C 0.1802(3) 0.0116(3) 1.3611(3)
H14A H 0.1746 -0.0500 1.4163
C17A C 0.8380(3) 0.3903(3) 1.4455(3)
H15A H 0.9019 0.4246 1.4656
C18A C 0.0743(3) 0.1434(3) 1.2436(3)
H16A H -0.0028 0.1708 1.2197
C19A C 0.1833(3) 0.2756(3) 1.5328(3)
H17A H 0.1092 0.3238 1.5311
C20A C 0.0656(3) 0.0525(3) 1.3250(3)
H18A H -0.0173 0.0182 1.3561
C21A C 0.5090(4) 0.6962(3) 1.2965(3)
H19A H 0.5385 0.6745 1.3627
H20A H 0.5880 0.7181 1.2380
C22A C 0.8008(4) -0.0283(3) 1.0708(3)
H21A H 0.8677 -0.0786 1.0486
C23A C 0.1808(4) 0.1920(3) 1.6220(3)
H22A H 0.1047 0.1838 1.6795
C24A C 0.4071(4) 0.7879(3) 1.3025(3)
H23A H 0.3555 0.7851 1.3756
H24A H 0.4506 0.8580 1.2740
C25A C 0.3153(4) 0.6451(4) 1.2561(3)
H25A H 0.3043 0.6206 1.1944
H26A H 0.2409 0.6177 1.3168
C26A C 0.2903(4) 0.1213(3) 1.6257(3)
H27A H 0.2890 0.0654 1.6856
C27A C 0.3173(4) 0.7680(4) 1.2336(4)
H28A H 0.3560 0.7983 1.1584
H29A H 0.2266 0.7989 1.2545
C28A C 0.9448(4) 0.4670(4) 1.1514(3)
H30A H 0.8970 0.4184 1.2161
H31A H 0.9847 0.4242 1.0983
C29A C 1.0526(5) 0.5248(5) 1.1742(5)
H32A H 1.0379 0.5191 1.2506
H33A H 1.1417 0.4937 1.1477
C30A C 0.8983(5) 0.6535(4) 1.1077(5)
H34A H 0.8920 0.7023 1.0406
H35A H 0.8416 0.6835 1.1659
C31A C 1.0424(13) 0.6435(8) 1.1166(15)
H36A H 1.1053 0.6579 1.0466
H37A H 1.0598 0.6928 1.1581
N1A N 0.5174(2) 0.29083(18) 1.25383(18)
C32A C 0.5985(3) 0.1211(2) 1.1390(2)
C33A C 0.3144(3) 0.1545(2) 1.2310(2)
B1A B 0.4625(4) 0.3303(3) 1.0431(3)
H38A H 0.423(4) 0.289(3) 0.995(3)
H39A H 0.570(3) 0.363(2) 1.000(2)
H40A H 0.390(4) 0.396(3) 1.060(3)
C34? C 0.0070(19) 0.3744(15) 0.819(2)
H41? H 0.0573 0.3754 0.7455
H42? H -0.0625 0.3198 0.8387
loop_
_geom_bond_atom_site_label_1
_geom_bond_atom_site_label_2
_geom_bond_site_symmetry_1
_geom_bond_site_symmetry_2
K1 O1 1_555 1_555
P1 N1 1_555 1_555
C1 C6 1_555 1_555
C2 H1 1_555 1_555
C3 C5 1_555 1_555
O1 C28 1_555 1_555
O2 K1 1_555 1_555
C4 H2 1_555 1_555
C5 H3 1_555 1_555
C6 C3 1_555 1_555
H4 C6 1_555 1_555
C7 C3 1_555 1_555
H5 C7 1_555 1_555
C8 H6 1_555 1_555
C9 C1 1_555 1_555
H7 C9 1_555 1_555
C10 C7 1_555 1_555
H8 C10 1_555 1_555
C11 H9 1_555 1_555
C12 C5 1_555 1_555
H10 C12 1_555 1_555
C13 C1 1_555 1_555
H11 C13 1_555 1_555
C14 C4 1_555 1_555
H12 C14 1_555 1_555
C15 C11 1_555 1_555
H13 C15 1_555 1_555
C16 C2 1_555 1_555
H14 C16 1_555 1_555
C17 C10 1_555 1_555
H15 C17 1_555 1_555
C18 C8 1_555 1_555
H16 C18 1_555 1_555
C19 C13 1_555 1_555
H17 C19 1_555 1_555
C20 C16 1_555 1_555
H18 C20 1_555 1_555
C21 O2 1_555 1_555
H19 C21 1_555 1_555
H20 C21 1_555 1_555
C22 C14 1_555 1_555
H21 C22 1_555 1_555
C23 C19 1_555 1_555
H22 C23 1_555 1_555
C24 C21 1_555 1_555
H23 C24 1_555 1_555
H24 C24 1_555 1_555
C25 O2 1_555 1_555
H25 C25 1_555 1_555
H26 C25 1_555 1_555
C26 C9 1_555 1_555
H27 C26 1_555 1_555
C27 C24 1_555 1_555
H28 C27 1_555 1_555
H29 C27 1_555 1_555
C28 H30 1_555 1_555
H31 C28 1_555 1_555
C29 C28 1_555 1_555
H32 C29 1_555 1_555
H33 C29 1_555 1_555
C30 O1 1_555 1_555
H34 C30 1_555 1_555
H35 C30 1_555 1_555
C31 C29 1_555 1_555
H36 C31 1_555 1_555
H37 C31 1_555 1_555
N1 K1 1_555 1_555
C32 P1 1_555 1_555
C33 P1 1_555 1_555
B1 P1 1_555 1_555
H38 B1 1_555 1_555
H39 K1 1_555 1_555
H40 K1 1_555 1_555
K1A H38 1_555 1_555
P1A N1A 1_555 1_555
C1A C6A 1_555 1_555
C2A H1A 1_555 1_555
C3A C5A 1_555 1_555
O1A K1A 1_555 1_555
O2A K1A 1_555 1_555
C4A H2A 1_555 1_555
C5A H3A 1_555 1_555
C6A C3A 1_555 1_555
H4A C6A 1_555 1_555
C7A C3A 1_555 1_555
H5A C7A 1_555 1_555
C8A H6A 1_555 1_555
C9A C1A 1_555 1_555
H7A C9A 1_555 1_555
C10A C7A 1_555 1_555
H8A C10A 1_555 1_555
C11A H9A 1_555 1_555
C12A C5A 1_555 1_555
H10A C12A 1_555 1_555
C13A C1A 1_555 1_555
H11A C13A 1_555 1_555
C14A C4A 1_555 1_555
H12A C14A 1_555 1_555
C15A C11A 1_555 1_555
H13A C15A 1_555 1_555
C16A C2A 1_555 1_555
H14A C16A 1_555 1_555
C17A C10A 1_555 1_555
H15A C17A 1_555 1_555
C18A C8A 1_555 1_555
H16A C18A 1_555 1_555
C19A C13A 1_555 1_555
H17A C19A 1_555 1_555
C20A C16A 1_555 1_555
H18A C20A 1_555 1_555
C21A O2A 1_555 1_555
H19A C21A 1_555 1_555
H20A C21A 1_555 1_555
C22A C14A 1_555 1_555
H21A C22A 1_555 1_555
C23A C19A 1_555 1_555
H22A C23A 1_555 1_555
C24A C21A 1_555 1_555
H23A C24A 1_555 1_555
H24A C24A 1_555 1_555
C25A O2A 1_555 1_555
H25A C25A 1_555 1_555
H26A C25A 1_555 1_555
C26A C9A 1_555 1_555
H27A C26A 1_555 1_555
C27A C24A 1_555 1_555
H28A C27A 1_555 1_555
H29A C27A 1_555 1_555
C28A O1A 1_555 1_555
H30A C28A 1_555 1_555
H31A C28A 1_555 1_555
C29A C28A 1_555 1_555
H32A C29A 1_555 1_555
H33A C29A 1_555 1_555
C30A O1A 1_555 1_555
H34A C30A 1_555 1_555
H35A C30A 1_555 1_555
C31A C29A 1_555 1_555
H36A C31A 1_555 1_555
H37A C31A 1_555 1_555
N1A K1A 1_555 1_555
C32A P1A 1_555 1_555
C33A P1A 1_555 1_555
B1A P1A 1_555 1_555
H38A K1 1_555 1_555
H39A K1 1_555 1_555
H40A K1 1_555 1_555
C2 C33 1_555 1_555
C4 C32 1_555 1_555
C6 N1 1_555 1_555
C8 C33 1_555 1_555
C11 C32 1_555 1_555
C12 C17 1_555 1_555
C15 C22 1_555 1_555
C18 C20 1_555 1_555
C23 C26 1_555 1_555
C25 C27 1_555 1_555
C30 C31 1_555 1_555
B1 H39 1_555 1_555
B1 H40 1_555 1_555
H39 K1A 1_555 1_555
H40 K1A 1_555 1_555
K1A H39A 1_555 1_555
K1A H40A 1_555 1_555
C2A C33A 1_555 1_555
C4A C32A 1_555 1_555
C6A N1A 1_555 1_555
C8A C33A 1_555 1_555
C11A C32A 1_555 1_555
C12A C17A 1_555 1_555
C15A C22A 1_555 1_555
C18A C20A 1_555 1_555
C23A C26A 1_555 1_555
C25A C27A 1_555 1_555
C30A C31A 1_555 1_555
B1A H38A 1_555 1_555
B1A H39A 1_555 1_555
B1A H40A 1_555 1_555

#END
