
#######################################################################
#
#                 Cambridge Crystallographic Data Centre
#                                CCDC 
#
#######################################################################
#
# If this CIF has been generated from an entry in the Cambridge 
# Structural Database, then it will include bibliographic, chemical, 
# crystal, experimental, refinement or atomic coordinate data resulting 
# from the CCDC's data processing and validation procedures.
#
#######################################################################

data_ZAXJIU
_chemical_formula_moiety         'C16 H14 N1 P1 S1'
_chemical_name_systematic        1-(diphenylphosphorothioyl)-1H-pyrrole
_symmetry_cell_setting           triclinic
_symmetry_space_group_name_H-M   'P -1'
_symmetry_Int_Tables_number      2
_space_group_name_Hall           '-P 1'
loop_
_symmetry_equiv_pos_site_id
_symmetry_equiv_pos_as_xyz
1 x,y,z
2 -x,-y,-z
_cell_length_a                   8.6642(3)
_cell_length_b                   9.3170(4)
_cell_length_c                   18.5787(8)
_cell_angle_alpha                76.866(4)
_cell_angle_beta                 86.699(3)
_cell_angle_gamma                78.693(4)
_cell_volume                     1432.04
_exptl_crystal_colour            colorless
_exptl_crystal_description       block
_cell_formula_units_Z            4
loop_
_atom_site_label
_atom_site_type_symbol
_atom_site_fract_x
_atom_site_fract_y
_atom_site_fract_z
S1 S 0.15773(6) 0.76385(5) 0.19975(3)
P1 P 0.10093(5) 0.66193(5) 0.12810(3)
N1 N 0.18545(18) 0.71502(17) 0.04324(9)
C1 C 0.1857(2) 0.8634(2) 0.00803(11)
H1 H 0.1524 0.9459 0.0292
C2 C 0.2421(3) 0.8692(2) -0.06205(12)
H2 H 0.2556 0.9548 -0.0970
C3 C 0.2769(3) 0.7181(3) -0.07173(13)
H3 H 0.3169 0.6877 -0.1145
C4 C 0.2407(2) 0.6259(2) -0.00669(11)
H4 H 0.2514 0.5221 0.0023
C5 C -0.1070(2) 0.6998(2) 0.11054(11)
C6 C -0.1644(2) 0.7374(2) 0.03872(11)
H5 H -0.0948 0.7406 -0.0014
C7 C -0.3253(2) 0.7700(2) 0.02718(13)
H6 H -0.3636 0.7974 -0.0207
C8 C -0.4289(3) 0.7620(3) 0.08664(14)
H7 H -0.5367 0.7824 0.0786
C9 C -0.3732(3) 0.7239(3) 0.15792(14)
H8 H -0.4439 0.7182 0.1977
C10 C -0.2133(2) 0.6940(3) 0.17066(12)
H9 H -0.1763 0.6702 0.2187
C11 C 0.1657(2) 0.4614(2) 0.15034(10)
C12 C 0.0629(2) 0.3639(2) 0.14952(12)
H10 H -0.0416 0.4017 0.1365
C13 C 0.1174(3) 0.2101(2) 0.16827(13)
H11 H 0.0489 0.1450 0.1678
C14 C 0.2720(3) 0.1529(2) 0.18756(12)
H12 H 0.3070 0.0496 0.2003
C15 C 0.3754(3) 0.2482(2) 0.18808(12)
H13 H 0.4799 0.2093 0.2008
C16 C 0.3226(2) 0.4020(2) 0.16951(11)
H14 H 0.3921 0.4663 0.1698
S2 S 0.65359(6) 0.48818(5) 0.34748(3)
P2 P 0.58723(5) 0.30487(5) 0.39953(2)
N2 N 0.62599(18) 0.16779(17) 0.34945(9)
C17 C 0.7578(2) 0.1469(2) 0.30339(11)
H15 H 0.8281 0.2121 0.2891
C18 C 0.7649(3) 0.0130(3) 0.28299(13)
H16 H 0.8405 -0.0286 0.2522
C19 C 0.6327(3) -0.0518(2) 0.31837(11)
H17 H 0.6077 -0.1423 0.3145
C20 C 0.5521(2) 0.0458(2) 0.35840(11)
H18 H 0.4623 0.0325 0.3870
C21 C 0.6839(2) 0.22118(19) 0.48617(10)
C22 C 0.7725(2) 0.0762(2) 0.50110(11)
H19 H 0.7818 0.0182 0.4659
C23 C 0.8467(2) 0.0183(2) 0.56843(12)
H20 H 0.9077 -0.0778 0.5775
C24 C 0.8316(2) 0.1000(2) 0.62166(12)
H21 H 0.8804 0.0595 0.6670
C25 C 0.7439(3) 0.2422(2) 0.60756(12)
H22 H 0.7329 0.2979 0.6439
C26 C 0.6718(2) 0.3043(2) 0.54051(11)
H23 H 0.6148 0.4021 0.5315
C27 C 0.3785(2) 0.32512(19) 0.41810(10)
C28 C 0.3167(2) 0.2821(2) 0.48895(11)
H24 H 0.3837 0.2359 0.5283
C29 C 0.1544(2) 0.3086(2) 0.50066(12)
H25 H 0.1131 0.2813 0.5480
C30 C 0.0548(2) 0.3751(2) 0.44229(13)
H26 H -0.0536 0.3921 0.4503
C31 C 0.1154(2) 0.4168(2) 0.37169(13)
H27 H 0.0477 0.4601 0.3323
C32 C 0.2762(2) 0.3941(2) 0.35970(11)
H28 H 0.3166 0.4251 0.3125
loop_
_geom_bond_atom_site_label_1
_geom_bond_atom_site_label_2
_geom_bond_site_symmetry_1
_geom_bond_site_symmetry_2
S1 P1 1_555 1_555
P1 N1 1_555 1_555
N1 C1 1_555 1_555
C1 H1 1_555 1_555
C2 C1 1_555 1_555
H2 C2 1_555 1_555
C3 C2 1_555 1_555
H3 C3 1_555 1_555
C4 N1 1_555 1_555
H4 C4 1_555 1_555
C5 P1 1_555 1_555
C6 C5 1_555 1_555
H5 C6 1_555 1_555
C7 C6 1_555 1_555
H6 C7 1_555 1_555
C8 C7 1_555 1_555
H7 C8 1_555 1_555
C9 C8 1_555 1_555
H8 C9 1_555 1_555
C10 C5 1_555 1_555
H9 C10 1_555 1_555
C11 P1 1_555 1_555
C12 C11 1_555 1_555
H10 C12 1_555 1_555
C13 C12 1_555 1_555
H11 C13 1_555 1_555
C14 C13 1_555 1_555
H12 C14 1_555 1_555
C15 C14 1_555 1_555
H13 C15 1_555 1_555
C16 C11 1_555 1_555
H14 C16 1_555 1_555
S2 P2 1_555 1_555
P2 N2 1_555 1_555
N2 C17 1_555 1_555
C17 H15 1_555 1_555
C18 C17 1_555 1_555
H16 C18 1_555 1_555
C19 C18 1_555 1_555
H17 C19 1_555 1_555
C20 N2 1_555 1_555
H18 C20 1_555 1_555
C21 P2 1_555 1_555
C22 C21 1_555 1_555
H19 C22 1_555 1_555
C23 C22 1_555 1_555
H20 C23 1_555 1_555
C24 C23 1_555 1_555
H21 C24 1_555 1_555
C25 C24 1_555 1_555
H22 C25 1_555 1_555
C26 C21 1_555 1_555
H23 C26 1_555 1_555
C27 P2 1_555 1_555
C28 C27 1_555 1_555
H24 C28 1_555 1_555
C29 C28 1_555 1_555
H25 C29 1_555 1_555
C30 C29 1_555 1_555
H26 C30 1_555 1_555
C31 C30 1_555 1_555
H27 C31 1_555 1_555
C32 C27 1_555 1_555
H28 C32 1_555 1_555
C3 C4 1_555 1_555
C9 C10 1_555 1_555
C15 C16 1_555 1_555
C19 C20 1_555 1_555
C25 C26 1_555 1_555
C31 C32 1_555 1_555

#END
