
#######################################################################
#
#                 Cambridge Crystallographic Data Centre
#                                CCDC 
#
#######################################################################
#
# If this CIF has been generated from an entry in the Cambridge 
# Structural Database, then it will include bibliographic, chemical, 
# crystal, experimental, refinement or atomic coordinate data resulting 
# from the CCDC's data processing and validation procedures.
#
#######################################################################

data_ZAXKIV
_chemical_formula_moiety         'C33 H40 B1 N1 Na1 O2 P1'
_chemical_name_systematic        
([N-(diphenylmethyl)-P,P-diphenylphosphorimidoyl](trihydrido)borato)-bis(tetrahydrofuran)-sodium
_symmetry_cell_setting           triclinic
_symmetry_space_group_name_H-M   'P -1'
_symmetry_Int_Tables_number      2
_space_group_name_Hall           '-P 1'
loop_
_symmetry_equiv_pos_site_id
_symmetry_equiv_pos_as_xyz
1 x,y,z
2 -x,-y,-z
_cell_length_a                   10.1516(10)
_cell_length_b                   12.2992(12)
_cell_length_c                   13.0193(13)
_cell_angle_alpha                76.553(9)
_cell_angle_beta                 77.197(9)
_cell_angle_gamma                86.976(8)
_cell_volume                     1541.67
_exptl_crystal_colour            colorless
_exptl_crystal_description       plates
_cell_formula_units_Z            2
loop_
_atom_site_label
_atom_site_type_symbol
_atom_site_fract_x
_atom_site_fract_y
_atom_site_fract_z
P1 P 0.47842(6) 0.73471(4) 0.66663(4)
O1 O 0.43895(19) 1.09094(14) 0.76057(14)
O2 O 0.7980(2) 1.03606(16) 0.62315(17)
C1 C 0.6485(2) 0.79013(19) 0.88820(17)
C2 C 0.3020(2) 0.7876(2) 0.93905(19)
H1 H 0.3008 0.8437 0.8775
C3 C 0.6279(2) 0.89803(19) 0.90488(18)
H2 H 0.5478 0.9354 0.8957
C4 C 0.3091(3) 0.55993(19) 0.80493(19)
H3 H 0.3864 0.5279 0.8267
C5 C 0.2022(3) 0.7042(2) 0.6942(2)
H4 H 0.2068 0.7697 0.6406
C6 C 0.4115(3) 0.6351(2) 1.03724(19)
H5 H 0.4860 0.5883 1.0417
C7 C 0.8460(3) 0.8947(2) 0.9493(2)
H6 H 0.9117 0.9301 0.9695
C8 C 0.6684(3) 0.4570(2) 0.5713(2)
H7 H 0.6452 0.3948 0.5499
C9 C 0.8675(3) 0.7876(2) 0.9336(2)
H8 H 0.9475 0.7503 0.9431
C10 C 0.3011(3) 0.6203(2) 1.1235(2)
H9 H 0.3015 0.5636 1.1847
C11 C 0.1850(3) 0.5098(2) 0.8534(2)
H10 H 0.1796 0.4443 0.9069
C12 C 0.8354(3) 0.5674(2) 0.6020(2)
H11 H 0.9251 0.5796 0.6019
C13 C 0.1913(3) 0.7731(2) 1.0261(2)
H12 H 0.1168 0.8201 1.0225
C14 C 0.3883(3) 1.2701(2) 0.7961(2)
H13 H 0.4250 1.3449 0.7665
H14 H 0.3431 1.2636 0.8712
C15 C 0.8014(3) 0.4753(2) 0.5704(2)
H15 H 0.8680 0.4256 0.5484
C16 C 0.0783(3) 0.6540(2) 0.7434(2)
H16 H 0.0004 0.6862 0.7228
C17 C 0.7259(3) 0.9499(2) 0.9350(2)
H17 H 0.7116 1.0222 0.9457
C18 C 0.1911(3) 0.6894(2) 1.1182(2)
H18 H 0.1169 0.6802 1.1760
C19 C 0.0692(3) 0.5567(2) 0.8226(2)
H19 H -0.0142 0.5229 0.8549
C20 C 1.0176(3) 1.0090(3) 0.6593(3)
H20 H 1.0498 0.9728 0.7237
H21 H 1.0896 1.0097 0.5962
C21 C 0.3034(3) 1.1172(3) 0.7506(3)
C22 C 0.2931(4) 1.2429(3) 0.7307(3)
H22 H 0.2016 1.2666 0.7566
H23 H 0.3225 1.2777 0.6545
C23 C 0.9686(4) 1.1243(3) 0.6644(3)
H24 H 0.9363 1.1303 0.7387
H25 H 1.0400 1.1786 0.6295
Na1 Na 0.56843(10) 0.98642(7) 0.64575(7)
N1 N 0.5224(2) 0.79925(15) 0.74768(14)
C24 C 0.6014(2) 0.62512(19) 0.63575(17)
C25 C 0.5411(2) 0.73407(18) 0.85336(17)
H26 H 0.5744 0.6598 0.8447
C26 C 0.3199(2) 0.65771(18) 0.72393(17)
C27 C 0.5684(3) 0.53133(19) 0.60423(18)
H27 H 0.4787 0.5181 0.6051
C28 C 0.4134(2) 0.71871(18) 0.94400(17)
C29 C 0.7685(2) 0.7359(2) 0.90349(19)
H28 H 0.7829 0.6634 0.8933
C30 C 0.7363(3) 0.6422(2) 0.6342(2)
H29 H 0.7604 0.7045 0.6551
C31 C 0.4958(3) 1.1839(2) 0.7852(2)
H30 H 0.5719 1.2144 0.7278
H31 H 0.5272 1.1600 0.8521
C32 C 0.8940(3) 0.9513(2) 0.6520(2)
H32 H 0.9172 0.9071 0.5978
H33 H 0.8563 0.9019 0.7210
C33 C 0.8573(3) 1.1420(3) 0.6060(3)
H34 H 0.7914 1.1939 0.6338
H35 H 0.8918 1.1721 0.5294
B1 B 0.4683(3) 0.8372(2) 0.5325(2)
H36 H 0.576(3) 0.872(2) 0.503(2)
H37 H 0.398(3) 0.902(2) 0.550(2)
H38 H 0.436(3) 0.790(2) 0.480(2)
H39 H 0.245(3) 1.079(3) 0.816(3)
H40 H 0.287(3) 1.087(3) 0.691(3)
P1A P 0.52158(6) 1.26529(4) 0.33337(4)
O1A O 0.56105(19) 0.90906(14) 0.23943(14)
O2A O 0.2020(2) 0.96394(16) 0.37685(17)
C1A C 0.3515(2) 1.20987(19) 0.11180(17)
C2A C 0.6980(2) 1.2124(2) 0.06095(19)
H1A H 0.6992 1.1563 0.1225
C3A C 0.3721(2) 1.10197(19) 0.09512(18)
H2A H 0.4522 1.0646 0.1043
C4A C 0.6909(3) 1.44007(19) 0.19507(19)
H3A H 0.6136 1.4721 0.1733
C5A C 0.7978(3) 1.2958(2) 0.3058(2)
H4A H 0.7932 1.2303 0.3594
C6A C 0.5885(3) 1.3649(2) -0.03724(19)
H5A H 0.5140 1.4117 -0.0417
C7A C 0.1540(3) 1.1053(2) 0.0507(2)
H6A H 0.0883 1.0699 0.0305
C8A C 0.3316(3) 1.5430(2) 0.4287(2)
H7A H 0.3548 1.6052 0.4501
C9A C 0.1325(3) 1.2124(2) 0.0664(2)
H8A H 0.0525 1.2497 0.0569
C10A C 0.6989(3) 1.3797(2) -0.1235(2)
H9A H 0.6985 1.4364 -0.1847
C11A C 0.8150(3) 1.4902(2) 0.1466(2)
H10A H 0.8204 1.5557 0.0931
C12A C 0.1646(3) 1.4326(2) 0.3980(2)
H11A H 0.0749 1.4204 0.3981
C13A C 0.8087(3) 1.2269(2) -0.0261(2)
H12A H 0.8832 1.1799 -0.0225
C14A C 0.6117(3) 0.7299(2) 0.2039(2)
H13A H 0.5750 0.6551 0.2335
H14A H 0.6569 0.7364 0.1288
C15A C 0.1986(3) 1.5247(2) 0.4296(2)
H15A H 0.1320 1.5744 0.4516
C16A C 0.9217(3) 1.3460(2) 0.2566(2)
H16A H 0.9996 1.3138 0.2772
C17A C 0.2741(3) 1.0501(2) 0.0650(2)
H17A H 0.2884 0.9778 0.0543
C18A C 0.8089(3) 1.3106(2) -0.1182(2)
H18A H 0.8831 1.3198 -0.1760
C19A C 0.9308(3) 1.4433(2) 0.1774(2)
H19A H 1.0142 1.4771 0.1451
C20A C -0.0176(3) 0.9910(3) 0.3407(3)
H20A H -0.0498 1.0272 0.2763
H21A H -0.0896 0.9903 0.4038
C21A C 0.6966(3) 0.8828(3) 0.2494(3)
C22A C 0.7069(4) 0.7571(3) 0.2693(3)
H22A H 0.7984 0.7334 0.2434
H23A H 0.6775 0.7223 0.3455
C23A C 0.0314(4) 0.8757(3) 0.3356(3)
H24A H 0.0637 0.8697 0.2613
H25A H -0.0400 0.8214 0.3705
Na1A Na 0.43157(10) 1.01358(7) 0.35425(7)
N1A N 0.4776(2) 1.20075(15) 0.25232(14)
C24A C 0.3986(2) 1.37488(19) 0.36425(17)
C25A C 0.4589(2) 1.26593(18) 0.14664(17)
H26A H 0.4256 1.3402 0.1553
C26A C 0.6801(2) 1.34229(18) 0.27607(17)
C27A C 0.4316(3) 1.46867(19) 0.39577(18)
H27A H 0.5213 1.4819 0.3949
C28A C 0.5866(2) 1.28129(18) 0.05600(17)
C29A C 0.2315(2) 1.2641(2) 0.09651(19)
H28A H 0.2171 1.3366 0.1067
C30A C 0.2637(3) 1.3578(2) 0.3658(2)
H29A H 0.2396 1.2955 0.3449
C31A C 0.5042(3) 0.8161(2) 0.2148(2)
H30A H 0.4281 0.7856 0.2722
H31A H 0.4728 0.8400 0.1479
C32A C 0.1060(3) 1.0487(2) 0.3480(2)
H32A H 0.0828 1.0929 0.4022
H33A H 0.1437 1.0981 0.2790
C33A C 0.1427(3) 0.8580(3) 0.3940(3)
H34A H 0.2086 0.8061 0.3662
H35A H 0.1082 0.8279 0.4706
B1A B 0.5317(3) 1.1628(2) 0.4675(2)
H36A H 0.424(3) 1.128(2) 0.497(2)
H37A H 0.602(3) 1.098(2) 0.450(2)
H38A H 0.564(3) 1.210(2) 0.520(2)
H39A H 0.755(3) 0.921(3) 0.184(3)
H40A H 0.713(3) 0.913(3) 0.309(3)
loop_
_geom_bond_atom_site_label_1
_geom_bond_atom_site_label_2
_geom_bond_site_symmetry_1
_geom_bond_site_symmetry_2
P1 N1 1_555 1_555
O1 C21 1_555 1_555
O2 Na1 1_555 1_555
C1 C3 1_555 1_555
C2 H1 1_555 1_555
C3 H2 1_555 1_555
C4 H3 1_555 1_555
C5 H4 1_555 1_555
C6 H5 1_555 1_555
C7 H6 1_555 1_555
C8 H7 1_555 1_555
C9 C7 1_555 1_555
H8 C9 1_555 1_555
C10 C6 1_555 1_555
H9 C10 1_555 1_555
C11 C4 1_555 1_555
H10 C11 1_555 1_555
C12 H11 1_555 1_555
C13 C2 1_555 1_555
H12 C13 1_555 1_555
C14 H13 1_555 1_555
H14 C14 1_555 1_555
C15 C8 1_555 1_555
H15 C15 1_555 1_555
C16 C5 1_555 1_555
H16 C16 1_555 1_555
C17 C3 1_555 1_555
H17 C17 1_555 1_555
C18 C10 1_555 1_555
H18 C18 1_555 1_555
C19 C11 1_555 1_555
H19 C19 1_555 1_555
C20 H20 1_555 1_555
H21 C20 1_555 1_555
C21 C22 1_555 1_555
C22 C14 1_555 1_555
H22 C22 1_555 1_555
H23 C22 1_555 1_555
C23 C20 1_555 1_555
H24 C23 1_555 1_555
H25 C23 1_555 1_555
Na1 O1 1_555 1_555
N1 Na1 1_555 1_555
C24 P1 1_555 1_555
C25 C1 1_555 1_555
H26 C25 1_555 1_555
C26 P1 1_555 1_555
C27 C8 1_555 1_555
H27 C27 1_555 1_555
C28 C2 1_555 1_555
C29 C1 1_555 1_555
H28 C29 1_555 1_555
C30 C12 1_555 1_555
H29 C30 1_555 1_555
C31 O1 1_555 1_555
H30 C31 1_555 1_555
H31 C31 1_555 1_555
C32 O2 1_555 1_555
H32 C32 1_555 1_555
H33 C32 1_555 1_555
C33 O2 1_555 1_555
H34 C33 1_555 1_555
H35 C33 1_555 1_555
B1 P1 1_555 1_555
H36 B1 1_555 1_555
H37 B1 1_555 1_555
H38 B1 1_555 1_555
H39 C21 1_555 1_555
H40 C21 1_555 1_555
P1A N1A 1_555 1_555
O1A C21A 1_555 1_555
O2A Na1A 1_555 1_555
C1A C3A 1_555 1_555
C2A H1A 1_555 1_555
C3A H2A 1_555 1_555
C4A H3A 1_555 1_555
C5A H4A 1_555 1_555
C6A H5A 1_555 1_555
C7A H6A 1_555 1_555
C8A H7A 1_555 1_555
C9A C7A 1_555 1_555
H8A C9A 1_555 1_555
C10A C6A 1_555 1_555
H9A C10A 1_555 1_555
C11A C4A 1_555 1_555
H10A C11A 1_555 1_555
C12A H11A 1_555 1_555
C13A C2A 1_555 1_555
H12A C13A 1_555 1_555
C14A H13A 1_555 1_555
H14A C14A 1_555 1_555
C15A C8A 1_555 1_555
H15A C15A 1_555 1_555
C16A C5A 1_555 1_555
H16A C16A 1_555 1_555
C17A C3A 1_555 1_555
H17A C17A 1_555 1_555
C18A C10A 1_555 1_555
H18A C18A 1_555 1_555
C19A C11A 1_555 1_555
H19A C19A 1_555 1_555
C20A H20A 1_555 1_555
H21A C20A 1_555 1_555
C21A C22A 1_555 1_555
C22A C14A 1_555 1_555
H22A C22A 1_555 1_555
H23A C22A 1_555 1_555
C23A C20A 1_555 1_555
H24A C23A 1_555 1_555
H25A C23A 1_555 1_555
Na1A O1A 1_555 1_555
N1A Na1A 1_555 1_555
C24A P1A 1_555 1_555
C25A C1A 1_555 1_555
H26A C25A 1_555 1_555
C26A P1A 1_555 1_555
C27A C8A 1_555 1_555
H27A C27A 1_555 1_555
C28A C2A 1_555 1_555
C29A C1A 1_555 1_555
H28A C29A 1_555 1_555
C30A C12A 1_555 1_555
H29A C30A 1_555 1_555
C31A O1A 1_555 1_555
H30A C31A 1_555 1_555
H31A C31A 1_555 1_555
C32A O2A 1_555 1_555
H32A C32A 1_555 1_555
H33A C32A 1_555 1_555
C33A O2A 1_555 1_555
H34A C33A 1_555 1_555
H35A C33A 1_555 1_555
B1A P1A 1_555 1_555
H36A B1A 1_555 1_555
H37A B1A 1_555 1_555
H38A B1A 1_555 1_555
H39A C21A 1_555 1_555
H40A C21A 1_555 1_555
C4 C26 1_555 1_555
C5 C26 1_555 1_555
C6 C28 1_555 1_555
C7 C17 1_555 1_555
C9 C29 1_555 1_555
C12 C15 1_555 1_555
C13 C18 1_555 1_555
C14 C31 1_555 1_555
C16 C19 1_555 1_555
C20 C32 1_555 1_555
C23 C33 1_555 1_555
N1 C25 1_555 1_555
C24 C27 1_555 1_555
C24 C30 1_555 1_555
C25 C28 1_555 1_555
C4A C26A 1_555 1_555
C5A C26A 1_555 1_555
C6A C28A 1_555 1_555
C7A C17A 1_555 1_555
C9A C29A 1_555 1_555
C12A C15A 1_555 1_555
C13A C18A 1_555 1_555
C14A C31A 1_555 1_555
C16A C19A 1_555 1_555
C20A C32A 1_555 1_555
C23A C33A 1_555 1_555
N1A C25A 1_555 1_555
C24A C27A 1_555 1_555
C24A C30A 1_555 1_555
C25A C28A 1_555 1_555

#END
