
#######################################################################
#
#                 Cambridge Crystallographic Data Centre
#                                CCDC 
#
#######################################################################
#
# If this CIF has been generated from an entry in the Cambridge 
# Structural Database, then it will include bibliographic, chemical, 
# crystal, experimental, refinement or atomic coordinate data resulting 
# from the CCDC's data processing and validation procedures.
#
#######################################################################

data_ZAXKER
_chemical_formula_moiety         'C58 H64 B2 N2 O2 P2 Sr1,2(C4 H8 O1)'
_chemical_name_systematic        
'bis([N-(diphenylmethyl)-P,P-diphenylphosphorimidoyl](trihydrido)borato)-bis(tetrahydrofuran)-strontium tetrahydrofuran solvate'
_symmetry_cell_setting           triclinic
_symmetry_space_group_name_H-M   'P -1'
_symmetry_Int_Tables_number      2
_space_group_name_Hall           '-P 1'
loop_
_symmetry_equiv_pos_site_id
_symmetry_equiv_pos_as_xyz
1 x,y,z
2 -x,-y,-z
_cell_length_a                   10.2490(5)
_cell_length_b                   10.6953(5)
_cell_length_c                   14.7358(9)
_cell_angle_alpha                98.806(4)
_cell_angle_beta                 102.559(5)
_cell_angle_gamma                102.225(4)
_cell_volume                     1506.93
_exptl_crystal_colour            colorless
_exptl_crystal_description       block
_cell_formula_units_Z            1
loop_
_atom_site_label
_atom_site_type_symbol
_atom_site_fract_x
_atom_site_fract_y
_atom_site_fract_z
Sr1 Sr 0.5000 0.5000 0.0000
P1 P 0.48875(14) 0.56952(13) 0.22969(9)
O1 O 0.6951(4) 0.3840(4) 0.0578(3)
N1 N 0.5641(4) 0.6553(4) 0.1650(3)
B1 B 0.3667(7) 0.4119(6) 0.1490(5)
C1 C 0.6572(5) 0.7836(5) 0.2143(4)
H1 H 0.6999 0.7770 0.2791
C2 C 0.5861(6) 0.8957(5) 0.2212(4)
C3 C 0.4614(7) 0.8886(6) 0.1600(5)
H2 H 0.4161 0.8125 0.1144
C4 C 0.4027(8) 0.9942(7) 0.1657(6)
H3 H 0.3192 0.9884 0.1228
C5 C 0.4647(9) 1.1068(7) 0.2332(6)
H4 H 0.4244 1.1770 0.2363
C6 C 0.5881(9) 1.1137(7) 0.2964(6)
H5 H 0.6311 1.1886 0.3434
C7 C 0.6483(7) 1.0088(6) 0.2900(5)
H6 H 0.7320 1.0149 0.3328
C8 C 0.7727(6) 0.8154(6) 0.1639(4)
C9 C 0.9090(6) 0.8306(7) 0.2102(5)
H7 H 0.9314 0.8228 0.2733
C10 C 1.0130(7) 0.8573(9) 0.1647(6)
H8 H 1.1045 0.8674 0.1970
C11 C 0.9798(7) 0.8687(7) 0.0707(5)
H9 H 1.0490 0.8851 0.0392
C12 C 0.8448(7) 0.8559(6) 0.0238(5)
H10 H 0.8226 0.8644 -0.0392
C13 C 0.7421(6) 0.8303(6) 0.0702(4)
H11 H 0.6510 0.8228 0.0383
C14 C 0.3969(6) 0.6551(6) 0.3011(4)
C15 C 0.2536(6) 0.6232(7) 0.2738(5)
H12 H 0.2058 0.5557 0.2219
C16 C 0.1808(8) 0.6924(7) 0.3242(6)
H13 H 0.0847 0.6699 0.3055
C17 C 0.2487(9) 0.7919(7) 0.4000(6)
H14 H 0.1992 0.8375 0.4325
C18 C 0.3904(9) 0.8248(6) 0.4283(6)
H15 H 0.4371 0.8925 0.4804
C19 C 0.4656(7) 0.7558(6) 0.3785(5)
H16 H 0.5617 0.7783 0.3979
C20 C 0.6177(5) 0.5281(5) 0.3192(4)
C21 C 0.5866(6) 0.4862(6) 0.3991(4)
H17 H 0.5002 0.4847 0.4099
C22 C 0.6833(6) 0.4469(6) 0.4624(4)
H18 H 0.6620 0.4201 0.5157
C23 C 0.8102(6) 0.4478(6) 0.4463(4)
H19 H 0.8752 0.4218 0.4890
C24 C 0.8417(6) 0.4869(6) 0.3672(4)
H20 H 0.9273 0.4858 0.3560
C25 C 0.7465(6) 0.5281(6) 0.3041(4)
H21 H 0.7692 0.5558 0.2514
C26 C 0.8336(7) 0.4197(8) 0.0497(6)
H22 H 0.8689 0.5141 0.0653
H23 H 0.8376 0.3877 -0.0146
C27 C 0.9169(7) 0.3581(8) 0.1186(5)
H24 H 0.9463 0.4119 0.1823
H25 H 0.9972 0.3421 0.0988
C28 C 0.8125(8) 0.2311(8) 0.1128(7)
H26 H 0.8089 0.1654 0.0584
H27 H 0.8345 0.1974 0.1701
C29 C 0.6798(7) 0.2702(7) 0.1020(5)
H28 H 0.6038 0.1993 0.0623
H29 H 0.6616 0.2924 0.1636
H30 H 0.296(6) 0.423(6) 0.084(4)
H31 H 0.440(7) 0.362(6) 0.123(5)
H32 H 0.308(7) 0.350(7) 0.191(5)
P1A P 0.51125(14) 0.43048(13) -0.22969(9)
O1A O 0.3049(4) 0.6160(4) -0.0578(3)
N1A N 0.4359(4) 0.3447(4) -0.1650(3)
B1A B 0.6333(7) 0.5881(6) -0.1490(5)
C1A C 0.3428(5) 0.2164(5) -0.2143(4)
H1A H 0.3001 0.2230 -0.2791
C2A C 0.4139(6) 0.1043(5) -0.2212(4)
C3A C 0.5386(7) 0.1114(6) -0.1600(5)
H2A H 0.5839 0.1875 -0.1144
C4A C 0.5973(8) 0.0058(7) -0.1657(6)
H3A H 0.6808 0.0116 -0.1228
C5A C 0.5353(9) -0.1068(7) -0.2332(6)
H4A H 0.5756 -0.1770 -0.2363
C6A C 0.4119(9) -0.1137(7) -0.2964(6)
H5A H 0.3689 -0.1886 -0.3434
C7A C 0.3517(7) -0.0088(6) -0.2900(5)
H6A H 0.2680 -0.0149 -0.3328
C8A C 0.2273(6) 0.1846(6) -0.1639(4)
C9A C 0.0910(6) 0.1694(7) -0.2102(5)
H7A H 0.0686 0.1772 -0.2733
C10A C -0.0130(7) 0.1427(9) -0.1647(6)
H8A H -0.1045 0.1326 -0.1970
C11A C 0.0202(7) 0.1313(7) -0.0707(5)
H9A H -0.0490 0.1149 -0.0392
C12A C 0.1552(7) 0.1441(6) -0.0238(5)
H10A H 0.1774 0.1356 0.0392
C13A C 0.2579(6) 0.1697(6) -0.0702(4)
H11A H 0.3490 0.1772 -0.0383
C14A C 0.6031(6) 0.3449(6) -0.3011(4)
C15A C 0.7464(6) 0.3768(7) -0.2738(5)
H12A H 0.7942 0.4443 -0.2219
C16A C 0.8192(8) 0.3076(7) -0.3242(6)
H13A H 0.9153 0.3301 -0.3055
C17A C 0.7513(9) 0.2081(7) -0.4000(6)
H14A H 0.8008 0.1625 -0.4325
C18A C 0.6096(9) 0.1752(6) -0.4283(6)
H15A H 0.5629 0.1075 -0.4804
C19A C 0.5344(7) 0.2442(6) -0.3785(5)
H16A H 0.4383 0.2217 -0.3979
C20A C 0.3823(5) 0.4719(5) -0.3192(4)
C21A C 0.4134(6) 0.5138(6) -0.3991(4)
H17A H 0.4998 0.5153 -0.4099
C22A C 0.3167(6) 0.5531(6) -0.4624(4)
H18A H 0.3380 0.5799 -0.5157
C23A C 0.1898(6) 0.5522(6) -0.4463(4)
H19A H 0.1248 0.5782 -0.4890
C24A C 0.1583(6) 0.5131(6) -0.3672(4)
H20A H 0.0727 0.5142 -0.3560
C25A C 0.2535(6) 0.4719(6) -0.3041(4)
H21A H 0.2308 0.4442 -0.2514
C26A C 0.1664(7) 0.5803(8) -0.0497(6)
H22A H 0.1311 0.4859 -0.0653
H23A H 0.1624 0.6123 0.0146
C27A C 0.0831(7) 0.6419(8) -0.1186(5)
H24A H 0.0537 0.5881 -0.1823
H25A H 0.0028 0.6579 -0.0988
C28A C 0.1875(8) 0.7689(8) -0.1128(7)
H26A H 0.1911 0.8346 -0.0584
H27A H 0.1655 0.8026 -0.1701
C29A C 0.3202(7) 0.7298(7) -0.1020(5)
H28A H 0.3962 0.8007 -0.0623
H29A H 0.3384 0.7076 -0.1636
H30A H 0.704(6) 0.577(6) -0.084(4)
H31A H 0.560(7) 0.638(6) -0.123(5)
H32A H 0.692(7) 0.650(7) -0.191(5)
O2 O 0.1868(8) 0.0978(7) 0.4662(5)
C30 C 0.2466(10) 0.1423(11) 0.3950(7)
H33 H 0.2634 0.0696 0.3550
H34 H 0.3341 0.2065 0.4240
C31 C 0.1481(13) 0.2019(13) 0.3371(9)
H35 H 0.1945 0.2887 0.3323
H36 H 0.1090 0.1485 0.2735
C32 C 0.0428(11) 0.2085(14) 0.3852(8)
H37 H -0.0445 0.1499 0.3475
H38 H 0.0312 0.2968 0.3962
C33 C 0.0868(12) 0.1694(10) 0.4762(8)
H39 H 0.1268 0.2461 0.5272
H40 H 0.0084 0.1154 0.4907
loop_
_geom_bond_atom_site_label_1
_geom_bond_atom_site_label_2
_geom_bond_site_symmetry_1
_geom_bond_site_symmetry_2
Sr1 O1 1_555 1_555
P1 N1 1_555 1_555
O1 C26 1_555 1_555
N1 Sr1 1_555 1_555
B1 P1 1_555 1_555
C1 N1 1_555 1_555
H1 C1 1_555 1_555
C2 C1 1_555 1_555
C3 C2 1_555 1_555
H2 C3 1_555 1_555
C4 C3 1_555 1_555
H3 C4 1_555 1_555
C5 C4 1_555 1_555
H4 C5 1_555 1_555
C6 C5 1_555 1_555
H5 C6 1_555 1_555
C7 C2 1_555 1_555
H6 C7 1_555 1_555
C8 C1 1_555 1_555
C9 C8 1_555 1_555
H7 C9 1_555 1_555
C10 C9 1_555 1_555
H8 C10 1_555 1_555
C11 C10 1_555 1_555
H9 C11 1_555 1_555
C12 C11 1_555 1_555
H10 C12 1_555 1_555
C13 C8 1_555 1_555
H11 C13 1_555 1_555
C14 P1 1_555 1_555
C15 C14 1_555 1_555
H12 C15 1_555 1_555
C16 C15 1_555 1_555
H13 C16 1_555 1_555
C17 C16 1_555 1_555
H14 C17 1_555 1_555
C18 C17 1_555 1_555
H15 C18 1_555 1_555
C19 C14 1_555 1_555
H16 C19 1_555 1_555
C20 P1 1_555 1_555
C21 C20 1_555 1_555
H17 C21 1_555 1_555
C22 C21 1_555 1_555
H18 C22 1_555 1_555
C23 C22 1_555 1_555
H19 C23 1_555 1_555
C24 C23 1_555 1_555
H20 C24 1_555 1_555
C25 C20 1_555 1_555
H21 C25 1_555 1_555
C26 H22 1_555 1_555
H23 C26 1_555 1_555
C27 C26 1_555 1_555
H24 C27 1_555 1_555
H25 C27 1_555 1_555
C28 C27 1_555 1_555
H26 C28 1_555 1_555
H27 C28 1_555 1_555
C29 O1 1_555 1_555
H28 C29 1_555 1_555
H29 C29 1_555 1_555
H30 B1 1_555 1_555
H31 Sr1 1_555 1_555
H32 B1 1_555 1_555
O2 C30 1_555 1_555
C30 H33 1_555 1_555
H34 C30 1_555 1_555
C31 C30 1_555 1_555
H35 C31 1_555 1_555
H36 C31 1_555 1_555
C32 C31 1_555 1_555
H37 C32 1_555 1_555
H38 C32 1_555 1_555
C33 O2 1_555 1_555
H39 C33 1_555 1_555
H40 C33 1_555 1_555
P1A N1A 1_555 1_555
O1A Sr1 1_555 1_555
N1A Sr1 1_555 1_555
B1A P1A 1_555 1_555
C1A N1A 1_555 1_555
H1A C1A 1_555 1_555
C2A C1A 1_555 1_555
C3A C2A 1_555 1_555
H2A C3A 1_555 1_555
C4A C3A 1_555 1_555
H3A C4A 1_555 1_555
C5A C4A 1_555 1_555
H4A C5A 1_555 1_555
C6A C5A 1_555 1_555
H5A C6A 1_555 1_555
C7A C2A 1_555 1_555
H6A C7A 1_555 1_555
C8A C1A 1_555 1_555
C9A C8A 1_555 1_555
H7A C9A 1_555 1_555
C10A C9A 1_555 1_555
H8A C10A 1_555 1_555
C11A C10A 1_555 1_555
H9A C11A 1_555 1_555
C12A C11A 1_555 1_555
H10A C12A 1_555 1_555
C13A C8A 1_555 1_555
H11A C13A 1_555 1_555
C14A P1A 1_555 1_555
C15A C14A 1_555 1_555
H12A C15A 1_555 1_555
C16A C15A 1_555 1_555
H13A C16A 1_555 1_555
C17A C16A 1_555 1_555
H14A C17A 1_555 1_555
C18A C17A 1_555 1_555
H15A C18A 1_555 1_555
C19A C14A 1_555 1_555
H16A C19A 1_555 1_555
C20A P1A 1_555 1_555
C21A C20A 1_555 1_555
H17A C21A 1_555 1_555
C22A C21A 1_555 1_555
H18A C22A 1_555 1_555
C23A C22A 1_555 1_555
H19A C23A 1_555 1_555
C24A C23A 1_555 1_555
H20A C24A 1_555 1_555
C25A C20A 1_555 1_555
H21A C25A 1_555 1_555
C26A O1A 1_555 1_555
H22A C26A 1_555 1_555
H23A C26A 1_555 1_555
C27A C26A 1_555 1_555
H24A C27A 1_555 1_555
H25A C27A 1_555 1_555
C28A C27A 1_555 1_555
H26A C28A 1_555 1_555
H27A C28A 1_555 1_555
C29A O1A 1_555 1_555
H28A C29A 1_555 1_555
H29A C29A 1_555 1_555
H30A B1A 1_555 1_555
H31A Sr1 1_555 1_555
H32A B1A 1_555 1_555
B1 H31 1_555 1_555
C6 C7 1_555 1_555
C12 C13 1_555 1_555
C18 C19 1_555 1_555
C24 C25 1_555 1_555
C28 C29 1_555 1_555
C32 C33 1_555 1_555
B1A H31A 1_555 1_555
C6A C7A 1_555 1_555
C12A C13A 1_555 1_555
C18A C19A 1_555 1_555
C24A C25A 1_555 1_555
C28A C29A 1_555 1_555

#END
