
#######################################################################
#
#                 Cambridge Crystallographic Data Centre
#                                CCDC 
#
#######################################################################
#
# If this CIF has been generated from an entry in the Cambridge 
# Structural Database, then it will include bibliographic, chemical, 
# crystal, experimental, refinement or atomic coordinate data resulting 
# from the CCDC's data processing and validation procedures.
#
#######################################################################

data_ZAXKAN
_chemical_formula_moiety         'C33 H40 B1 Li1 N1 O2 P1'
_chemical_name_systematic        
([N-(diphenylmethyl)-P,P-diphenylphosphorimidoyl](trihydrido)borato)-bis(tetrahydrofuran)-lithium
_symmetry_cell_setting           monoclinic
_symmetry_space_group_name_H-M   'P 21/c'
_symmetry_Int_Tables_number      14
_space_group_name_Hall           '-P 2ybc'
loop_
_symmetry_equiv_pos_site_id
_symmetry_equiv_pos_as_xyz
1 x,y,z
2 -x,1/2+y,1/2-z
3 -x,-y,-z
4 x,1/2-y,1/2+z
_cell_length_a                   15.4438(5)
_cell_length_b                   13.1276(8)
_cell_length_c                   19.1155(11)
_cell_angle_alpha                90
_cell_angle_beta                 127.859(3)
_cell_angle_gamma                90
_cell_volume                     3059.78
_exptl_crystal_colour            colorless
_exptl_crystal_description       plates
_cell_formula_units_Z            4
loop_
_atom_site_label
_atom_site_type_symbol
_atom_site_fract_x
_atom_site_fract_y
_atom_site_fract_z
Li1 Li 0.3006(3) 0.9783(2) 0.74165(19)
P1 P 0.35541(3) 0.77224(3) 0.81541(2)
O1 O 0.27435(11) 1.03407(9) 0.63587(8)
O2 O 0.31984(11) 1.09289(9) 0.81319(8)
N1 N 0.24987(10) 0.84338(9) 0.74815(8)
B1 B 0.48162(15) 0.83784(14) 0.83826(12)
C1 C 0.13929(12) 0.80858(11) 0.71136(10)
H1 H 0.1445 0.7663 0.7561
C2 C 0.06989(12) 0.90172(12) 0.69432(11)
C3 C 0.04853(14) 0.97404(12) 0.63234(12)
H2 H 0.0750 0.9641 0.6004
C4 C -0.01171(16) 1.06077(14) 0.61764(15)
H3 H -0.0252 1.1087 0.5762
C5 C -0.05194(17) 1.07614(16) 0.66474(16)
H4 H -0.0925 1.1343 0.6549
C6 C -0.03164(16) 1.00496(17) 0.72617(15)
H5 H -0.0584 1.0151 0.7579
C7 C 0.02893(14) 0.91795(15) 0.74076(12)
H6 H 0.0421 0.8701 0.7822
C8 C 0.08364(13) 0.74560(11) 0.62648(10)
C9 C -0.01146(14) 0.69145(13) 0.59485(12)
H7 H -0.0400 0.6940 0.6258
C10 C -0.06430(16) 0.63389(15) 0.51809(13)
H8 H -0.1276 0.5980 0.4980
C11 C -0.02289(17) 0.62989(15) 0.47138(13)
H9 H -0.0582 0.5914 0.4198
C12 C 0.07116(16) 0.68343(15) 0.50176(12)
H10 H 0.0991 0.6810 0.4704
C13 C 0.12450(14) 0.74113(13) 0.57907(11)
H11 H 0.1879 0.7769 0.5990
C14 C 0.37700(13) 0.75095(11) 0.91988(10)
C15 C 0.45384(13) 0.67961(12) 0.98085(10)
H12 H 0.4877 0.6370 0.9654
C16 C 0.48018(16) 0.67161(14) 1.06421(11)
H13 H 0.5312 0.6235 1.1043
C17 C 0.43055(18) 0.73506(15) 1.08785(12)
H14 H 0.4493 0.7306 1.1442
C18 C 0.35334(16) 0.80487(14) 1.02805(12)
H15 H 0.3194 0.8469 1.0439
C19 C 0.32581(14) 0.81278(12) 0.94375(11)
H16 H 0.2730 0.8596 0.9034
C20 C 0.34036(12) 0.64104(11) 0.77673(9)
C21 C 0.38708(14) 0.61283(13) 0.73642(10)
H17 H 0.4293 0.6596 0.7326
C22 C 0.37141(16) 0.51573(14) 0.70176(11)
H18 H 0.4028 0.4979 0.6747
C23 C 0.30940(16) 0.44555(13) 0.70740(11)
H19 H 0.2990 0.3804 0.6843
C24 C 0.26277(14) 0.47246(13) 0.74762(12)
H20 H 0.2208 0.4253 0.7514
C25 C 0.27829(13) 0.56957(12) 0.78237(10)
H21 H 0.2470 0.5870 0.8096
C26 C 0.30809(18) 0.97551(15) 0.59275(13)
H22 H 0.2516 0.9270 0.5518
H23 H 0.3752 0.9386 0.6360
C27 C 0.32634(16) 1.05178(16) 0.54375(12)
H24 H 0.4003 1.0789 0.5816
H25 H 0.3129 1.0216 0.4916
C28 C 0.24273(16) 1.13323(14) 0.51879(12)
H26 H 0.1707 1.1149 0.4656
H27 H 0.2641 1.1985 0.5099
C29 C 0.2449(2) 1.13528(14) 0.59905(15)
H28 H 0.2984 1.1844 0.6421
H29 H 0.1734 1.1538 0.5819
C30 C 0.36261(15) 1.07716(14) 0.90389(12)
H30 H 0.4295 1.1158 0.9441
H31 H 0.3776 1.0056 0.9197
C31 C 0.27225(16) 1.11493(15) 0.90629(13)
H32 H 0.2997 1.1309 0.9662
H33 H 0.2134 1.0655 0.8809
C32 C 0.23507(18) 1.21020(15) 0.84949(14)
H34 H 0.2770 1.2691 0.8851
H35 H 0.1578 1.2232 0.8192
C33 C 0.25674(16) 1.18574(13) 0.78338(12)
H36 H 0.1881 1.1767 0.7245
H37 H 0.2973 1.2407 0.7816
H38 H 0.4831(17) 0.9132(16) 0.8611(13)
H39 H 0.4678(17) 0.8383(16) 0.7747(14)
H40 H 0.5552(17) 0.7948(15) 0.8874(13)
loop_
_geom_bond_atom_site_label_1
_geom_bond_atom_site_label_2
_geom_bond_site_symmetry_1
_geom_bond_site_symmetry_2
Li1 O1 1_555 1_555
P1 N1 1_555 1_555
O1 C26 1_555 1_555
O2 Li1 1_555 1_555
N1 Li1 1_555 1_555
B1 P1 1_555 1_555
C1 N1 1_555 1_555
H1 C1 1_555 1_555
C2 C1 1_555 1_555
C3 C2 1_555 1_555
H2 C3 1_555 1_555
C4 C3 1_555 1_555
H3 C4 1_555 1_555
C5 C4 1_555 1_555
H4 C5 1_555 1_555
C6 C5 1_555 1_555
H5 C6 1_555 1_555
C7 C2 1_555 1_555
H6 C7 1_555 1_555
C8 C1 1_555 1_555
C9 C8 1_555 1_555
H7 C9 1_555 1_555
C10 C9 1_555 1_555
H8 C10 1_555 1_555
C11 C10 1_555 1_555
H9 C11 1_555 1_555
C12 C11 1_555 1_555
H10 C12 1_555 1_555
C13 C8 1_555 1_555
H11 C13 1_555 1_555
C14 P1 1_555 1_555
C15 C14 1_555 1_555
H12 C15 1_555 1_555
C16 C15 1_555 1_555
H13 C16 1_555 1_555
C17 C16 1_555 1_555
H14 C17 1_555 1_555
C18 C17 1_555 1_555
H15 C18 1_555 1_555
C19 C14 1_555 1_555
H16 C19 1_555 1_555
C20 P1 1_555 1_555
C21 C20 1_555 1_555
H17 C21 1_555 1_555
C22 C21 1_555 1_555
H18 C22 1_555 1_555
C23 C22 1_555 1_555
H19 C23 1_555 1_555
C24 C23 1_555 1_555
H20 C24 1_555 1_555
C25 C20 1_555 1_555
H21 C25 1_555 1_555
C26 H22 1_555 1_555
H23 C26 1_555 1_555
C27 C26 1_555 1_555
H24 C27 1_555 1_555
H25 C27 1_555 1_555
C28 C27 1_555 1_555
H26 C28 1_555 1_555
H27 C28 1_555 1_555
C29 O1 1_555 1_555
H28 C29 1_555 1_555
H29 C29 1_555 1_555
C30 O2 1_555 1_555
H30 C30 1_555 1_555
H31 C30 1_555 1_555
C31 C30 1_555 1_555
H32 C31 1_555 1_555
H33 C31 1_555 1_555
C32 C31 1_555 1_555
H34 C32 1_555 1_555
H35 C32 1_555 1_555
C33 O2 1_555 1_555
H36 C33 1_555 1_555
H37 C33 1_555 1_555
H38 B1 1_555 1_555
H39 B1 1_555 1_555
H40 B1 1_555 1_555
C6 C7 1_555 1_555
C12 C13 1_555 1_555
C18 C19 1_555 1_555
C24 C25 1_555 1_555
C28 C29 1_555 1_555
C32 C33 1_555 1_555

#END
