
#######################################################################
#
#                 Cambridge Crystallographic Data Centre
#                                CCDC 
#
#######################################################################
#
# If this CIF has been generated from an entry in the Cambridge 
# Structural Database, then it will include bibliographic, chemical, 
# crystal, experimental, refinement or atomic coordinate data resulting 
# from the CCDC's data processing and validation procedures.
#
#######################################################################

data_ZAXNOD
_chemical_formula_moiety         'C24 H34 N2 O6'
_chemical_name_systematic        
'Methyl N,N-bis(t-butoxycarbonyl)-\b,1-dimethyltryptophanate'
_symmetry_cell_setting           monoclinic
_symmetry_space_group_name_H-M   'P 21'
_symmetry_Int_Tables_number      4
_space_group_name_Hall           'P 2yb'
loop_
_symmetry_equiv_pos_site_id
_symmetry_equiv_pos_as_xyz
1 x,y,z
2 -x,1/2+y,-z
_cell_length_a                   11.258(3)
_cell_length_b                   10.126(2)
_cell_length_c                   12.135(3)
_cell_angle_alpha                90
_cell_angle_beta                 111.97(2)
_cell_angle_gamma                90
_cell_volume                     1282.91
_exptl_crystal_colour            colorless
_exptl_crystal_description       prism
_cell_formula_units_Z            2
loop_
_atom_site_label
_atom_site_type_symbol
_atom_site_fract_x
_atom_site_fract_y
_atom_site_fract_z
O1 O 1.0797(3) 0.5332(4) 0.9724(3)
O2 O 1.1561(3) 0.4386(5) 0.8450(3)
O3 O 0.6625(3) 0.6137(4) 0.8316(4)
O4 O 0.7228(3) 0.4008(4) 0.8570(3)
O5 O 0.9640(3) 0.6792(3) 0.7403(3)
O6 O 0.8188(4) 0.7799(4) 0.8000(4)
N1 N 0.5573(4) 0.3733(6) 0.4894(4)
N2 N 0.8423(3) 0.5510(4) 0.8043(3)
C1 C 0.6649(5) 0.3370(6) 0.5832(5)
H1 H 0.6674 0.2727 0.6388
C2 C 0.7685(4) 0.4082(5) 0.5838(4)
C3 C 0.7219(4) 0.4935(5) 0.4828(4)
C4 C 0.5891(5) 0.4691(6) 0.4262(4)
C5 C 0.5129(6) 0.5352(8) 0.3238(5)
H2 H 0.4256 0.5181 0.2887
C6 C 0.5693(7) 0.6255(7) 0.2763(5)
H3 H 0.5197 0.6706 0.2078
C7 C 0.7010(6) 0.6519(7) 0.3286(5)
H4 H 0.7378 0.7137 0.2943
C8 C 0.7764(5) 0.5865(5) 0.4311(4)
H5 H 0.8636 0.6046 0.4656
C9 C 0.4289(5) 0.3191(10) 0.4615(6)
H6 H 0.3903 0.3011 0.3779
H7 H 0.3775 0.3819 0.4832
H8 H 0.4347 0.2388 0.5052
C10 C 0.9048(4) 0.3937(5) 0.6698(4)
H9 H 0.9595 0.4465 0.6401
C11 C 0.9494(6) 0.2488(6) 0.6780(5)
H10 H 0.9391 0.2176 0.6002
H11 H 0.8988 0.1955 0.7094
H12 H 1.0379 0.2430 0.7294
C12 C 0.9260(4) 0.4424(5) 0.7975(4)
H13 H 0.9034 0.3673 0.8367
C13 C 1.0678(5) 0.4719(6) 0.8719(4)
C14 C 1.2119(5) 0.5568(8) 1.0547(5)
H14 H 1.2597 0.5969 1.0126
H15 H 1.2509 0.4743 1.0881
H16 H 1.2115 0.6145 1.1173
C15 C 0.7376(4) 0.5135(5) 0.8339(4)
C16 C 0.5458(5) 0.5956(6) 0.8587(6)
C17 C 0.5770(7) 0.5319(13) 0.9766(7)
H17 H 0.6021 0.4420 0.9728
H18 H 0.5030 0.5339 0.9978
H19 H 0.6460 0.5788 1.0353
C18 C 0.4528(6) 0.5183(9) 0.7603(8)
H20 H 0.4874 0.4323 0.7576
H21 H 0.4367 0.5630 0.6863
H22 H 0.3741 0.5096 0.7732
C19 C 0.5005(7) 0.7357(8) 0.8570(9)
H23 H 0.4248 0.7368 0.8757
H24 H 0.4813 0.7728 0.7794
H25 H 0.5664 0.7870 0.9147
C20 C 0.8703(4) 0.6826(5) 0.7839(4)
C21 C 1.0262(5) 0.8031(5) 0.7221(5)
C22 C 1.0847(6) 0.8767(7) 0.8391(5)
H26 H 1.1427 0.8194 0.8977
H27 H 1.0180 0.9047 0.8651
H28 H 1.1305 0.9525 0.8284
C23 C 1.1314(5) 0.7484(7) 0.6837(6)
H29 H 1.0931 0.6992 0.6113
H30 H 1.1865 0.6914 0.7446
H31 H 1.1805 0.8201 0.6709
C24 C 0.9298(6) 0.8854(6) 0.6248(5)
H32 H 0.8664 0.9195 0.6525
H33 H 0.8890 0.8312 0.5560
H34 H 0.9732 0.9574 0.6043
loop_
_geom_bond_atom_site_label_1
_geom_bond_atom_site_label_2
_geom_bond_site_symmetry_1
_geom_bond_site_symmetry_2
O1 C13 1_555 1_555
O2 C13 1_555 1_555
O3 C15 1_555 1_555
O4 C15 1_555 1_555
O5 C20 1_555 1_555
O6 C20 1_555 1_555
N1 C1 1_555 1_555
N2 C12 1_555 1_555
C1 H1 1_555 1_555
C2 C1 1_555 1_555
C3 C2 1_555 1_555
C4 N1 1_555 1_555
C5 C4 1_555 1_555
H2 C5 1_555 1_555
C6 C5 1_555 1_555
H3 C6 1_555 1_555
C7 C6 1_555 1_555
H4 C7 1_555 1_555
C8 C3 1_555 1_555
H5 C8 1_555 1_555
C9 N1 1_555 1_555
H6 C9 1_555 1_555
H7 C9 1_555 1_555
H8 C9 1_555 1_555
C10 C2 1_555 1_555
H9 C10 1_555 1_555
C11 C10 1_555 1_555
H10 C11 1_555 1_555
H11 C11 1_555 1_555
H12 C11 1_555 1_555
C12 C10 1_555 1_555
H13 C12 1_555 1_555
C13 C12 1_555 1_555
C14 O1 1_555 1_555
H14 C14 1_555 1_555
H15 C14 1_555 1_555
H16 C14 1_555 1_555
C15 N2 1_555 1_555
C16 O3 1_555 1_555
C17 C16 1_555 1_555
H17 C17 1_555 1_555
H18 C17 1_555 1_555
H19 C17 1_555 1_555
C18 C16 1_555 1_555
H20 C18 1_555 1_555
H21 C18 1_555 1_555
H22 C18 1_555 1_555
C19 C16 1_555 1_555
H23 C19 1_555 1_555
H24 C19 1_555 1_555
H25 C19 1_555 1_555
C20 N2 1_555 1_555
C21 O5 1_555 1_555
C22 C21 1_555 1_555
H26 C22 1_555 1_555
H27 C22 1_555 1_555
H28 C22 1_555 1_555
C23 C21 1_555 1_555
H29 C23 1_555 1_555
H30 C23 1_555 1_555
H31 C23 1_555 1_555
C24 C21 1_555 1_555
H32 C24 1_555 1_555
H33 C24 1_555 1_555
H34 C24 1_555 1_555
C3 C4 1_555 1_555
C7 C8 1_555 1_555

#END
