
#######################################################################
#
#                 Cambridge Crystallographic Data Centre
#                                CCDC 
#
#######################################################################
#
# If this CIF has been generated from an entry in the Cambridge 
# Structural Database, then it will include bibliographic, chemical, 
# crystal, experimental, refinement or atomic coordinate data resulting 
# from the CCDC's data processing and validation procedures.
#
#######################################################################

data_ZAXPOG
_chemical_name_common            
1-(2,3,5,6,8,9,11,12,14,15-decahydro-1,4,7,10,13,16-benzohexaoxacyclooctadecin-18-yl)-N-hydroxymethanimine
_chemical_formula_moiety         'C17 H25 N1 O7'
_chemical_name_systematic        
'2,3,5,6,8,9,11,12,14,15-decahydro-1,4,7,10,13,16-benzohexaoxacyclooctadecine-18-carbaldehyde oxime'
_symmetry_cell_setting           orthorhombic
_symmetry_space_group_name_H-M   'F d d 2'
_symmetry_Int_Tables_number      43
_space_group_name_Hall           'F 2 -2d'
loop_
_symmetry_equiv_pos_site_id
_symmetry_equiv_pos_as_xyz
1 x,y,z
2 -x,-y,z
3 1/4+x,1/4-y,1/4+z
4 1/4-x,1/4+y,1/4+z
5 x,1/2+y,1/2+z
6 -x,1/2-y,1/2+z
7 1/4+x,3/4-y,3/4+z
8 1/4-x,3/4+y,3/4+z
9 1/2+x,y,1/2+z
10 1/2-x,-y,1/2+z
11 3/4+x,1/4-y,3/4+z
12 3/4-x,1/4+y,3/4+z
13 1/2+x,1/2+y,z
14 1/2-x,1/2-y,z
15 3/4+x,3/4-y,1/4+z
16 3/4-x,3/4+y,1/4+z
_cell_length_a                   24.325(2)
_cell_length_b                   60.576(4)
_cell_length_c                   4.6662(4)
_cell_angle_alpha                90
_cell_angle_beta                 90
_cell_angle_gamma                90
_cell_volume                     6875.7
_exptl_crystal_colour            colorless
_exptl_crystal_description       plate
_cell_formula_units_Z            16
_exptl_crystal_recrystallization_method dichloromethane/hexane
loop_
_atom_site_label
_atom_site_type_symbol
_atom_site_fract_x
_atom_site_fract_y
_atom_site_fract_z
O1 O 0.19603(11) 0.03532(5) 0.0780(7)
O2 O 0.29161(12) 0.06661(5) 0.0576(8)
O3 O 0.25070(13) 0.11287(5) -0.0520(7)
O4 O 0.13951(12) 0.10598(5) 0.1299(7)
O5 O 0.06111(11) 0.07035(5) 0.6051(7)
O6 O 0.11771(11) 0.03014(5) 0.4424(6)
O7 O 0.03523(14) -0.07332(5) 0.3005(8)
N1 N 0.05292(14) -0.05109(6) 0.3179(9)
C1 C 0.12858(16) 0.01207(7) 0.2769(9)
C2 C 0.10156(16) -0.00787(7) 0.2946(10)
C3 C 0.11663(16) -0.02542(7) 0.1155(10)
C4 C 0.15899(17) -0.02255(7) -0.0799(10)
C5 C 0.18673(17) -0.00249(7) -0.0970(9)
C6 C 0.17209(15) 0.01480(6) 0.0795(9)
C7 C 0.23299(17) 0.03948(7) -0.1556(10)
C8 C 0.24962(17) 0.06332(8) -0.1518(10)
C9 C 0.32164(19) 0.08641(7) 0.0195(12)
C10 C 0.29453(19) 0.10664(8) 0.1356(12)
C11 C 0.21604(19) 0.12971(7) 0.0661(12)
C12 C 0.17480(19) 0.12068(8) 0.2770(11)
C13 C 0.09449(18) 0.09793(8) 0.2952(11)
C14 C 0.11146(18) 0.07986(8) 0.4981(10)
C15 C 0.06820(19) 0.05131(8) 0.7843(10)
C16 C 0.06915(17) 0.02995(7) 0.6174(10)
C17 C 0.09047(17) -0.04714(7) 0.1350(10)
H1 H -0.001(3) -0.0726(11) 0.419(17)
H2 H 0.0725(17) -0.0099(6) 0.412(10)
H3 H 0.1736(19) -0.0362(8) -0.170(13)
H4 H 0.2192(17) -0.0017(7) -0.241(11)
H5 H 0.2145(15) 0.0359(6) -0.342(10)
H6 H 0.2665(17) 0.0293(7) -0.137(11)
H7 H 0.262(2) 0.0670(9) -0.362(14)
H8 H 0.216(2) 0.0735(7) -0.105(12)
H9 H 0.3293(18) 0.0886(7) -0.181(13)
H10 H 0.3563(19) 0.0838(7) 0.116(13)
H11 H 0.276(2) 0.1031(8) 0.329(15)
H12 H 0.324(2) 0.1185(9) 0.146(14)
H13 H 0.197(2) 0.1360(9) -0.100(14)
H14 H 0.242(2) 0.1413(9) 0.155(14)
H15 H 0.193(2) 0.1116(8) 0.444(13)
H16 H 0.153(2) 0.1324(9) 0.364(16)
H17 H 0.066(2) 0.0908(8) 0.136(14)
H18 H 0.0759(16) 0.1121(7) 0.415(10)
H19 H 0.137(2) 0.0679(7) 0.389(14)
H20 H 0.132(2) 0.0851(8) 0.654(14)
H21 H 0.0374(17) 0.0512(6) 0.909(10)
H22 H 0.104(2) 0.0528(7) 0.903(13)
H23 H 0.0681(16) 0.0152(6) 0.761(10)
H24 H 0.0366(19) 0.0287(7) 0.501(11)
H25 H 0.104(2) -0.0576(9) -0.020(15)
loop_
_geom_bond_atom_site_label_1
_geom_bond_atom_site_label_2
_geom_bond_site_symmetry_1
_geom_bond_site_symmetry_2
O1 C6 1_555 1_555
O2 C8 1_555 1_555
O3 C10 1_555 1_555
O4 C12 1_555 1_555
O5 C14 1_555 1_555
O6 C1 1_555 1_555
O7 N1 1_555 1_555
N1 C17 1_555 1_555
C1 C2 1_555 1_555
C2 C3 1_555 1_555
C3 C4 1_555 1_555
C4 C5 1_555 1_555
C5 C6 1_555 1_555
C6 C1 1_555 1_555
C7 O1 1_555 1_555
C8 C7 1_555 1_555
C9 O2 1_555 1_555
C10 C9 1_555 1_555
C11 O3 1_555 1_555
C12 C11 1_555 1_555
C13 O4 1_555 1_555
C14 C13 1_555 1_555
C15 O5 1_555 1_555
C16 O6 1_555 1_555
C17 C3 1_555 1_555
H1 O7 1_555 1_555
H2 C2 1_555 1_555
H3 C4 1_555 1_555
H4 C5 1_555 1_555
H5 C7 1_555 1_555
H6 C7 1_555 1_555
H7 C8 1_555 1_555
H8 C8 1_555 1_555
H9 C9 1_555 1_555
H10 C9 1_555 1_555
H11 C10 1_555 1_555
H12 C10 1_555 1_555
H13 C11 1_555 1_555
H14 C11 1_555 1_555
H15 C12 1_555 1_555
H16 C12 1_555 1_555
H17 C13 1_555 1_555
H18 C13 1_555 1_555
H19 C14 1_555 1_555
H20 C14 1_555 1_555
H21 C15 1_555 1_555
H22 C15 1_555 1_555
H23 C16 1_555 1_555
H24 C16 1_555 1_555
H25 C17 1_555 1_555
C15 C16 1_555 1_555

#END
