
#######################################################################
#
#                 Cambridge Crystallographic Data Centre
#                                CCDC 
#
#######################################################################
#
# If this CIF has been generated from an entry in the Cambridge 
# Structural Database, then it will include bibliographic, chemical, 
# crystal, experimental, refinement or atomic coordinate data resulting 
# from the CCDC's data processing and validation procedures.
#
#######################################################################

data_ZAXPUJ
_chemical_formula_moiety         'C16 H12 S8 Se1'
_chemical_name_systematic        
5,10-bis(4,5-Dimethyl-1,3-dithiol-2-ylidene)-2-selena-1,4,9,11-tetrathiatricyclo(6.3.0.0^3,7^)undeca-1(8),3(7)-diene
_symmetry_cell_setting           triclinic
_symmetry_space_group_name_H-M   'P -1'
_symmetry_Int_Tables_number      2
_space_group_name_Hall           '-P 1'
loop_
_symmetry_equiv_pos_site_id
_symmetry_equiv_pos_as_xyz
1 x,y,z
2 -x,-y,-z
_cell_length_a                   7.190(2)
_cell_length_b                   9.815(2)
_cell_length_c                   14.939(3)
_cell_angle_alpha                74.97(3)
_cell_angle_beta                 79.91(3)
_cell_angle_gamma                84.30(3)
_cell_volume                     1000.82
_exptl_crystal_colour            red
_chemical_melting_point          259.3deg.C
_cell_formula_units_Z            2
loop_
_atom_site_label
_atom_site_type_symbol
_atom_site_fract_x
_atom_site_fract_y
_atom_site_fract_z
Se1 Se 0.4126(1) 0.5106(1) 0.2123(1)
S1 S 0.3126(2) 0.3585(2) 0.0598(1)
S2 S -0.0966(2) 0.3754(2) 0.1452(1)
S3 S -0.1943(2) 0.2195(2) -0.0100(1)
S4 S 0.2081(2) 0.2096(2) -0.0891(1)
S5 S -0.1810(2) 0.5457(2) 0.3379(1)
S6 S -0.4270(2) 0.7110(2) 0.4881(1)
S7 S -0.0751(2) 0.7956(2) 0.5263(1)
S8 S 0.1723(2) 0.6385(2) 0.3796(1)
C1 C 0.2530(9) 0.4283(6) 0.1561(4)
C2 C 0.0674(9) 0.4419(5) 0.1951(4)
C3 C 0.0771(8) 0.3212(5) 0.0600(4)
C4 C 0.0353(8) 0.2562(5) -0.0029(4)
C5 C -0.1262(11) 0.1301(6) -0.1005(4)
C6 C 0.0579(10) 0.1251(6) -0.1349(4)
C7 C -0.2835(9) 0.0713(6) -0.1307(4)
C8 C 0.1521(9) 0.0570(6) -0.2121(4)
C9 C 0.0346(9) 0.5131(5) 0.2695(4)
C10 C 0.1909(9) 0.5545(6) 0.2885(4)
C11 C -0.0786(8) 0.6408(6) 0.4010(4)
C12 C -0.1801(8) 0.7060(5) 0.4624(4)
C13 C -0.4453(10) 0.8116(6) 0.5713(4)
C14 C -0.2851(10) 0.8480(6) 0.5881(4)
C15 C -0.6450(9) 0.8453(6) 0.6157(4)
C16 C -0.2652(9) 0.9298(6) 0.6599(4)
H1 H -0.2324 0.0252 -0.1797
H2 H -0.3469 0.0044 -0.0780
H3 H -0.3720 0.1469 -0.1533
H4 H 0.0608 0.0131 -0.2336
H5 H 0.2114 0.1281 -0.2633
H6 H 0.2462 -0.0130 -0.1884
H7 H -0.6402 0.9005 0.6596
H8 H -0.7153 0.8982 0.5677
H9 H -0.7058 0.7594 0.6479
H10 H -0.3880 0.9547 0.6905
H11 H -0.1936 0.8718 0.7057
H12 H -0.2004 1.0141 0.6284
loop_
_geom_bond_atom_site_label_1
_geom_bond_atom_site_label_2
_geom_bond_site_symmetry_1
_geom_bond_site_symmetry_2
Se1 C1 1_555 1_555
S1 C1 1_555 1_555
S2 C2 1_555 1_555
S3 C4 1_555 1_555
S4 C4 1_555 1_555
S5 C9 1_555 1_555
S6 C12 1_555 1_555
S7 C12 1_555 1_555
S8 C10 1_555 1_555
C1 C2 1_555 1_555
C2 C9 1_555 1_555
C3 S1 1_555 1_555
C4 C3 1_555 1_555
C5 S3 1_555 1_555
C6 S4 1_555 1_555
C7 C5 1_555 1_555
C8 C6 1_555 1_555
C9 C10 1_555 1_555
C10 Se1 1_555 1_555
C11 S5 1_555 1_555
C12 C11 1_555 1_555
C13 S6 1_555 1_555
C14 S7 1_555 1_555
C15 C13 1_555 1_555
C16 C14 1_555 1_555
H1 C7 1_555 1_555
H2 C7 1_555 1_555
H3 C7 1_555 1_555
H4 C8 1_555 1_555
H5 C8 1_555 1_555
H6 C8 1_555 1_555
H7 C15 1_555 1_555
H8 C15 1_555 1_555
H9 C15 1_555 1_555
H10 C16 1_555 1_555
H11 C16 1_555 1_555
H12 C16 1_555 1_555
S2 C3 1_555 1_555
S8 C11 1_555 1_555
C5 C6 1_555 1_555
C13 C14 1_555 1_555

#END
