
#######################################################################
#
#                 Cambridge Crystallographic Data Centre
#                                CCDC 
#
#######################################################################
#
# If this CIF has been generated from an entry in the Cambridge 
# Structural Database, then it will include bibliographic, chemical, 
# crystal, experimental, refinement or atomic coordinate data resulting 
# from the CCDC's data processing and validation procedures.
#
#######################################################################

data_ZAXQUK
_chemical_formula_moiety         'C16 H22 O3 S2'
_chemical_name_systematic        
'3,6-Dicyclohexylidene-2-oxa-5,7-dithiabicyclo(2.2.1)heptane 5,5-dioxide'
_symmetry_cell_setting           monoclinic
_symmetry_space_group_name_H-M   'P 2/n'
_symmetry_Int_Tables_number      13
_space_group_name_Hall           '-P 2yac'
loop_
_symmetry_equiv_pos_site_id
_symmetry_equiv_pos_as_xyz
1 x,y,z
2 1/2-x,y,1/2-z
3 -x,-y,-z
4 1/2+x,-y,1/2+z
_cell_length_a                   21.333(3)
_cell_length_b                   6.436(3)
_cell_length_c                   11.939(9)
_cell_angle_alpha                90
_cell_angle_beta                 103.81(9)
_cell_angle_gamma                90
_cell_volume                     1591.83
_chemical_melting_point          166deg.C
_cell_formula_units_Z            4
loop_
_atom_site_label
_atom_site_type_symbol
_atom_site_fract_x
_atom_site_fract_y
_atom_site_fract_z
S1 S 0.46273(7) 0.1981(3) 0.7207(1)
S2 S 0.47657(8) 0.5818(3) 0.8374(1)
O1 O 0.4263(2) 0.0078(7) 0.7001(4)
O2 O 0.5280(2) 0.1893(8) 0.7111(4)
O3 O 0.3569(2) 0.4616(7) 0.7799(3)
C1 C 0.4197(3) 0.4080(9) 0.6396(5)
C2 C 0.4017(3) 0.5520(9) 0.7245(5)
C3 C 0.3893(3) 0.314(1) 0.8613(5)
C4 C 0.4569(3) 0.312(1) 0.8532(5)
C5 C 0.4116(3) 0.427(1) 0.5266(5)
C6 C 0.4326(3) 0.266(1) 0.4530(5)
C7 C 0.3765(3) 0.199(1) 0.3529(6)
C8 C 0.3474(3) 0.391(1) 0.2842(6)
C9 C 0.3253(3) 0.548(1) 0.3579(6)
C10 C 0.3797(3) 0.613(1) 0.4607(5)
C11 C 0.3579(3) 0.220(1) 0.9295(5)
C12 C 0.2889(3) 0.253(1) 0.9294(6)
C13 C 0.2509(3) 0.055(1) 0.9216(6)
C14 C 0.2844(4) -0.097(1) 1.0134(7)
C15 C 0.3516(4) -0.140(1) 1.0056(7)
C16 C 0.3907(3) 0.057(1) 1.0167(6)
H1 H 0.381(2) 0.678(9) 0.688(4)
H2 H 0.481(2) 0.240(9) 0.895(4)
H3 H 0.455(2) 0.150(9) 0.500(4)
H4 H 0.468(2) 0.357(9) 0.423(4)
H5 H 0.347(2) 0.130(9) 0.391(4)
H6 H 0.400(2) 0.096(9) 0.306(4)
H7 H 0.381(2) 0.427(9) 0.248(4)
H8 H 0.315(2) 0.331(9) 0.211(4)
H9 H 0.292(2) 0.483(9) 0.392(4)
H10 H 0.312(2) 0.665(9) 0.312(4)
H11 H 0.414(2) 0.684(9) 0.419(4)
H12 H 0.361(2) 0.700(9) 0.507(4)
H13 H 0.284(2) 0.307(9) 1.017(4)
H14 H 0.276(2) 0.340(9) 0.879(5)
H15 H 0.208(2) 0.103(9) 0.945(4)
H16 H 0.251(3) -0.001(9) 0.859(5)
H17 H 0.286(2) -0.036(9) 1.079(4)
H18 H 0.269(2) -0.199(9) 0.996(4)
H19 H 0.376(2) -0.243(9) 1.055(4)
H20 H 0.349(2) -0.200(9) 0.932(4)
H21 H 0.394(2) 0.114(9) 1.103(4)
H22 H 0.434(2) 0.039(9) 1.003(4)
loop_
_geom_bond_atom_site_label_1
_geom_bond_atom_site_label_2
_geom_bond_site_symmetry_1
_geom_bond_site_symmetry_2
S1 O1 1_555 1_555
S2 C2 1_555 1_555
O2 S1 1_555 1_555
O3 C2 1_555 1_555
C1 S1 1_555 1_555
C2 C1 1_555 1_555
C3 O3 1_555 1_555
C4 S1 1_555 1_555
C5 C1 1_555 1_555
C6 C5 1_555 1_555
C7 C6 1_555 1_555
C8 C7 1_555 1_555
C9 C8 1_555 1_555
C10 C5 1_555 1_555
C11 C3 1_555 1_555
C12 C11 1_555 1_555
C13 C12 1_555 1_555
C14 C13 1_555 1_555
C15 C14 1_555 1_555
C16 C11 1_555 1_555
H1 C2 1_555 1_555
H2 C4 1_555 1_555
H3 C6 1_555 1_555
H4 C6 1_555 1_555
H5 C7 1_555 1_555
H6 C7 1_555 1_555
H7 C8 1_555 1_555
H8 C8 1_555 1_555
H9 C9 1_555 1_555
H10 C9 1_555 1_555
H11 C10 1_555 1_555
H12 C10 1_555 1_555
H13 C12 1_555 1_555
H14 C12 1_555 1_555
H15 C13 1_555 1_555
H16 C13 1_555 1_555
H17 C14 1_555 1_555
H18 C14 1_555 1_555
H19 C15 1_555 1_555
H20 C15 1_555 1_555
H21 C16 1_555 1_555
H22 C16 1_555 1_555
S2 C4 1_555 1_555
C3 C4 1_555 1_555
C9 C10 1_555 1_555
C15 C16 1_555 1_555

#END
