
#######################################################################
#
#                 Cambridge Crystallographic Data Centre
#                                CCDC 
#
#######################################################################
#
# If this CIF has been generated from an entry in the Cambridge 
# Structural Database, then it will include bibliographic, chemical, 
# crystal, experimental, refinement or atomic coordinate data resulting 
# from the CCDC's data processing and validation procedures.
#
#######################################################################

data_ZAXYAB
_chemical_formula_moiety         'C20 H24 N2 O5'
_chemical_name_systematic        
'dimethyl 8-methyl-13-oxo-8,14-diazatetracyclo[10.4.1.0^1,9^.0^2,7^]heptadeca-2,4,6-triene-10,12-dicarboxylate'
_symmetry_cell_setting           monoclinic
_symmetry_space_group_name_H-M   'P 21/c'
_symmetry_Int_Tables_number      14
_space_group_name_Hall           '-P 2ybc'
loop_
_symmetry_equiv_pos_site_id
_symmetry_equiv_pos_as_xyz
1 x,y,z
2 -x,1/2+y,1/2-z
3 -x,-y,-z
4 x,1/2-y,1/2+z
_cell_length_a                   18.071(4)
_cell_length_b                   6.7600(13)
_cell_length_c                   16.076(3)
_cell_angle_alpha                90
_cell_angle_beta                 107.572(4)
_cell_angle_gamma                90
_cell_volume                     1872.21
_exptl_crystal_colour            colorless
_exptl_crystal_description       prismatic
_cell_formula_units_Z            4
loop_
_atom_site_label
_atom_site_type_symbol
_atom_site_fract_x
_atom_site_fract_y
_atom_site_fract_z
N1 N 0.13049(10) 0.9719(3) 0.13846(13)
N2 N 0.42404(13) 0.7104(3) 0.24727(13)
O1 O 0.49329(9) 0.8227(3) 0.16323(11)
O2 O 0.11291(13) 0.7506(3) -0.06842(13)
O3 O 0.16364(10) 0.5186(3) 0.02879(11)
O4 O 0.37918(11) 0.9913(3) -0.01825(10)
O5 O 0.42418(9) 1.2011(2) 0.09156(10)
C1 C 0.14594(14) 1.1204(4) 0.20090(15)
C2 C 0.09351(16) 1.2533(4) 0.21749(19)
H1 H 0.0410 1.2480 0.1865
C3 C 0.12193(19) 1.3938(4) 0.2816(2)
H2 H 0.0878 1.4845 0.2936
C4 C 0.19942(18) 1.4028(4) 0.32811(18)
H3 H 0.2172 1.4983 0.3712
C5 C 0.25099(15) 1.2694(4) 0.31061(15)
H4 H 0.3034 1.2746 0.3420
C6 C 0.22411(13) 1.1294(3) 0.24660(14)
C7 C 0.26845(12) 0.9702(3) 0.21607(12)
C8 C 0.20161(12) 0.8569(3) 0.14778(13)
H5 H 0.1958 0.7253 0.1706
C9 C 0.21646(12) 0.8350(3) 0.05918(13)
H6 H 0.2111 0.9663 0.0322
C10 C 0.29919(12) 0.7643(3) 0.07083(13)
H7 H 0.3059 0.7409 0.0140
H8 H 0.3078 0.6402 0.1026
C11 C 0.35965(11) 0.9184(3) 0.12099(12)
C12 C 0.32412(12) 1.0644(3) 0.17218(12)
H9 H 0.3660 1.1280 0.2166
H10 H 0.2964 1.1665 0.1325
C13 C 0.31280(13) 0.8405(3) 0.29306(13)
H11 H 0.3496 0.9243 0.3346
H12 H 0.2760 0.7929 0.3216
C14 C 0.35639(14) 0.6646(4) 0.27468(15)
H13 H 0.3729 0.5841 0.3270
H14 H 0.3210 0.5856 0.2295
C15 C 0.43134(13) 0.8124(3) 0.17917(13)
C16 C 0.05753(15) 0.8665(5) 0.1191(2)
H15 H 0.0548 0.7978 0.1704
H16 H 0.0540 0.7730 0.0731
H17 H 0.0154 0.9589 0.1010
C17 C 0.15856(13) 0.7014(4) -0.00161(15)
C18 C 0.10793(19) 0.3796(5) -0.0233(2)
H18 H 0.0564 0.4226 -0.0272
H19 H 0.1169 0.2513 0.0035
H20 H 0.1135 0.3725 -0.0808
C19 C 0.38837(12) 1.0371(3) 0.05553(13)
C20 C 0.45598(17) 1.3234(4) 0.03753(19)
H21 H 0.4889 1.2449 0.0136
H22 H 0.4858 1.4286 0.0720
H23 H 0.4145 1.3784 -0.0091
H24 H 0.4633(16) 0.655(4) 0.2768(18)
loop_
_geom_bond_atom_site_label_1
_geom_bond_atom_site_label_2
_geom_bond_site_symmetry_1
_geom_bond_site_symmetry_2
N1 C1 1_555 1_555
N2 C14 1_555 1_555
O1 C15 1_555 1_555
O2 C17 1_555 1_555
O3 C17 1_555 1_555
O4 C19 1_555 1_555
O5 C19 1_555 1_555
C1 C2 1_555 1_555
C2 H1 1_555 1_555
C3 C2 1_555 1_555
H2 C3 1_555 1_555
C4 C3 1_555 1_555
H3 C4 1_555 1_555
C5 C4 1_555 1_555
H4 C5 1_555 1_555
C6 C1 1_555 1_555
C7 C6 1_555 1_555
C8 N1 1_555 1_555
H5 C8 1_555 1_555
C9 C8 1_555 1_555
H6 C9 1_555 1_555
C10 C9 1_555 1_555
H7 C10 1_555 1_555
H8 C10 1_555 1_555
C11 C10 1_555 1_555
C12 C7 1_555 1_555
H9 C12 1_555 1_555
H10 C12 1_555 1_555
C13 C7 1_555 1_555
H11 C13 1_555 1_555
H12 C13 1_555 1_555
C14 C13 1_555 1_555
H13 C14 1_555 1_555
H14 C14 1_555 1_555
C15 N2 1_555 1_555
C16 N1 1_555 1_555
H15 C16 1_555 1_555
H16 C16 1_555 1_555
H17 C16 1_555 1_555
C17 C9 1_555 1_555
C18 O3 1_555 1_555
H18 C18 1_555 1_555
H19 C18 1_555 1_555
H20 C18 1_555 1_555
C19 C11 1_555 1_555
C20 O5 1_555 1_555
H21 C20 1_555 1_555
H22 C20 1_555 1_555
H23 C20 1_555 1_555
H24 N2 1_555 1_555
C5 C6 1_555 1_555
C7 C8 1_555 1_555
C11 C12 1_555 1_555
C11 C15 1_555 1_555

#END
