
#######################################################################
#
#                 Cambridge Crystallographic Data Centre
#                                CCDC 
#
#######################################################################
#
# If this CIF has been generated from an entry in the Cambridge 
# Structural Database, then it will include bibliographic, chemical, 
# crystal, experimental, refinement or atomic coordinate data resulting 
# from the CCDC's data processing and validation procedures.
#
#######################################################################

data_ZAYHUF
_chemical_formula_moiety         'C36 H42 N8,C1 H4 O1,H2 O1'
_chemical_name_systematic        
'4,7-dimethyl-2,9-bis(5,5,8,8-tetramethyl-5,6,7,8-tetrahydro-1,2,4-benzotriazin-3-yl)-1,10-phenanthroline methanol solvate  monohydrate'
_symmetry_cell_setting           monoclinic
_symmetry_space_group_name_H-M   'P 21/n'
_symmetry_Int_Tables_number      14
_space_group_name_Hall           '-P 2yn'
loop_
_symmetry_equiv_pos_site_id
_symmetry_equiv_pos_as_xyz
1 x,y,z
2 1/2-x,1/2+y,1/2-z
3 -x,-y,-z
4 1/2+x,1/2-y,1/2+z
_cell_length_a                   16.9253(9)
_cell_length_b                   8.6647(5)
_cell_length_c                   23.1992(12)
_cell_angle_alpha                90
_cell_angle_beta                 98.832(4)
_cell_angle_gamma                90
_cell_volume                     3361.88
_exptl_crystal_colour            yellow
_exptl_crystal_description       block
_cell_formula_units_Z            4
loop_
_atom_site_label
_atom_site_type_symbol
_atom_site_fract_x
_atom_site_fract_y
_atom_site_fract_z
C1 C 0.00476(10) 0.22752(18) -0.01122(8)
C2 C 0.05454(10) 0.08752(19) -0.08087(8)
C3 C -0.02073(10) 0.0206(2) -0.10060(8)
H1 H -0.0265 -0.0513 -0.1319
C4 C -0.08554(10) 0.05931(19) -0.07470(8)
C5 C -0.07371(10) 0.16976(19) -0.02905(8)
C6 C -0.13803(10) 0.2224(2) -0.00047(8)
H2 H -0.1906 0.1853 -0.0133
C7 C -0.12567(10) 0.3233(2) 0.04413(8)
H3 H -0.1698 0.3569 0.0618
C8 C -0.04721(10) 0.38119(19) 0.06555(8)
C9 C -0.03284(10) 0.4864(2) 0.11282(8)
C10 C 0.04422(10) 0.5351(2) 0.13018(8)
H4 H 0.0558 0.6092 0.1605
C11 C 0.10587(10) 0.47475(19) 0.10289(8)
C12 C 0.01837(10) 0.33307(19) 0.03841(8)
C13 C 0.12411(10) 0.03411(19) -0.10857(8)
C14 C 0.24045(10) -0.0961(2) -0.15448(8)
C15 C 0.30419(11) -0.1846(2) -0.18011(8)
C16 C 0.38223(11) -0.0915(2) -0.16859(9)
H5 H 0.4259 -0.1522 -0.1815
H6 H 0.3759 0.0049 -0.1918
C17 C 0.40473(11) -0.0516(2) -0.10444(9)
H7 H 0.4575 0.0003 -0.0985
H8 H 0.4100 -0.1482 -0.0814
C18 C 0.34321(10) 0.0540(2) -0.08141(8)
C19 C 0.25845(10) 0.00815(19) -0.10717(8)
C20 C 0.31371(12) -0.3444(2) -0.15077(10)
H9 H 0.3236 -0.3316 -0.1083
H10 H 0.3589 -0.3987 -0.1634
H11 H 0.2647 -0.4044 -0.1620
C21 C 0.27986(12) -0.2079(3) -0.24619(9)
H12 H 0.2288 -0.2631 -0.2536
H13 H 0.3211 -0.2682 -0.2615
H14 H 0.2742 -0.1071 -0.2656
C22 C 0.35426(12) 0.0386(3) -0.01435(9)
H15 H 0.3184 0.1108 0.0013
H16 H 0.4098 0.0625 0.0020
H17 H 0.3417 -0.0671 -0.0039
C23 C 0.35573(12) 0.2226(2) -0.09916(10)
H18 H 0.3510 0.2294 -0.1417
H19 H 0.4091 0.2572 -0.0814
H20 H 0.3151 0.2883 -0.0857
C24 C -0.16505(10) -0.01908(19) -0.09187(8)
H21 H -0.1597 -0.1008 -0.1202
H22 H -0.2046 0.0567 -0.1094
H23 H -0.1826 -0.0641 -0.0572
C25 C -0.09920(11) 0.5418(2) 0.14410(9)
H24 H -0.0782 0.6192 0.1733
H25 H -0.1208 0.4544 0.1635
H26 H -0.1417 0.5879 0.1159
C26 C 0.19013(10) 0.5164(2) 0.12696(7)
C27 C 0.33426(10) 0.6008(2) 0.17336(7)
C28 C 0.41599(10) 0.6603(2) 0.20029(8)
C29 C 0.47772(11) 0.5285(2) 0.20405(9)
H27 H 0.4921 0.5101 0.1648
H28 H 0.5268 0.5602 0.2302
C30 C 0.44652(11) 0.3795(2) 0.22662(9)
H29 H 0.4307 0.3987 0.2654
H30 H 0.4899 0.3019 0.2316
C31 C 0.37424(10) 0.3141(2) 0.18529(8)
C32 C 0.31500(10) 0.4429(2) 0.16545(7)
C33 C 0.44193(12) 0.7923(2) 0.16321(11)
H31 H 0.4465 0.7535 0.1242
H32 H 0.4938 0.8324 0.1817
H33 H 0.4020 0.8750 0.1601
C34 C 0.40831(12) 0.7234(2) 0.26124(9)
H34 H 0.3699 0.8088 0.2574
H35 H 0.4605 0.7605 0.2803
H36 H 0.3896 0.6411 0.2848
C35 C 0.33276(12) 0.1913(2) 0.21777(9)
H37 H 0.3113 0.2396 0.2503
H38 H 0.3715 0.1115 0.2329
H39 H 0.2890 0.1444 0.1909
C36 C 0.39865(12) 0.2408(2) 0.13036(9)
H40 H 0.3506 0.2100 0.1037
H41 H 0.4319 0.1497 0.1414
H42 H 0.4290 0.3158 0.1110
N1 N 0.06827(8) 0.18651(16) -0.03700(6)
N2 N 0.09459(8) 0.37846(16) 0.05809(6)
N3 N 0.10556(9) -0.05533(19) -0.15544(7)
N4 N 0.16501(10) -0.12119(19) -0.17845(7)
N5 N 0.19899(9) 0.07455(17) -0.08478(6)
N6 N 0.20430(9) 0.66637(17) 0.13631(7)
N7 N 0.27862(9) 0.70839(17) 0.15868(7)
N8 N 0.24259(9) 0.40129(16) 0.14040(7)
C37 C 0.40221(15) 0.5690(3) 0.00876(12)
H43 H 0.4357 0.6615 0.0156
H44 H 0.4125 0.5180 -0.0271
H45 H 0.4150 0.4981 0.0418
O1 O 0.32189(11) 0.6109(2) 0.00300(10)
H46 H 0.2937 0.5314 0.0037
O2 O 0.22855(8) 0.34876(17) 0.99746(7)
H47 H 0.1850(19) 0.357(3) 1.0133(13)
H48 H 0.217(2) 0.282(4) 0.9721(16)
loop_
_geom_bond_atom_site_label_1
_geom_bond_atom_site_label_2
_geom_bond_site_symmetry_1
_geom_bond_site_symmetry_2
C1 C5 1_555 1_555
C2 C3 1_555 1_555
C3 H1 1_555 1_555
C4 C3 1_555 1_555
C5 C4 1_555 1_555
C6 C5 1_555 1_555
H2 C6 1_555 1_555
C7 C6 1_555 1_555
H3 C7 1_555 1_555
C8 C7 1_555 1_555
C9 C8 1_555 1_555
C10 C9 1_555 1_555
H4 C10 1_555 1_555
C11 C10 1_555 1_555
C12 C1 1_555 1_555
C13 C2 1_555 1_555
C14 C15 1_555 1_555
C15 C16 1_555 1_555
C16 H5 1_555 1_555
H6 C16 1_555 1_555
C17 C16 1_555 1_555
H7 C17 1_555 1_555
H8 C17 1_555 1_555
C18 C17 1_555 1_555
C19 C14 1_555 1_555
C20 C15 1_555 1_555
H9 C20 1_555 1_555
H10 C20 1_555 1_555
H11 C20 1_555 1_555
C21 C15 1_555 1_555
H12 C21 1_555 1_555
H13 C21 1_555 1_555
H14 C21 1_555 1_555
C22 C18 1_555 1_555
H15 C22 1_555 1_555
H16 C22 1_555 1_555
H17 C22 1_555 1_555
C23 C18 1_555 1_555
H18 C23 1_555 1_555
H19 C23 1_555 1_555
H20 C23 1_555 1_555
C24 C4 1_555 1_555
H21 C24 1_555 1_555
H22 C24 1_555 1_555
H23 C24 1_555 1_555
C25 C9 1_555 1_555
H24 C25 1_555 1_555
H25 C25 1_555 1_555
H26 C25 1_555 1_555
C26 C11 1_555 1_555
C27 C28 1_555 1_555
C28 C29 1_555 1_555
C29 H27 1_555 1_555
H28 C29 1_555 1_555
C30 C29 1_555 1_555
H29 C30 1_555 1_555
H30 C30 1_555 1_555
C31 C30 1_555 1_555
C32 C27 1_555 1_555
C33 C28 1_555 1_555
H31 C33 1_555 1_555
H32 C33 1_555 1_555
H33 C33 1_555 1_555
C34 C28 1_555 1_555
H34 C34 1_555 1_555
H35 C34 1_555 1_555
H36 C34 1_555 1_555
C35 C31 1_555 1_555
H37 C35 1_555 1_555
H38 C35 1_555 1_555
H39 C35 1_555 1_555
C36 C31 1_555 1_555
H40 C36 1_555 1_555
H41 C36 1_555 1_555
H42 C36 1_555 1_555
N1 C1 1_555 1_555
N2 C11 1_555 1_555
N3 C13 1_555 1_555
N4 C14 1_555 1_555
N5 C13 1_555 1_555
N6 C26 1_555 1_555
N7 C27 1_555 1_555
N8 C26 1_555 1_555
C37 H43 1_555 1_555
H44 C37 1_555 1_555
H45 C37 1_555 1_555
O1 C37 1_555 1_555
H46 O1 1_555 1_555
O2 H47 1_555 1_555
H48 O2 1_555 1_555
C2 N1 1_555 1_555
C8 C12 1_555 1_555
C12 N2 1_555 1_555
C18 C19 1_555 1_555
C19 N5 1_555 1_555
C31 C32 1_555 1_555
C32 N8 1_555 1_555
N3 N4 1_555 1_555
N6 N7 1_555 1_555

#END
