
#######################################################################
#
#                 Cambridge Crystallographic Data Centre
#                                CCDC 
#
#######################################################################
#
# If this CIF has been generated from an entry in the Cambridge 
# Structural Database, then it will include bibliographic, chemical, 
# crystal, experimental, refinement or atomic coordinate data resulting 
# from the CCDC's data processing and validation procedures.
#
#######################################################################

data_ZAYPUK
_chemical_formula_moiety         'C19 H20 O7'
_chemical_name_systematic        
cis-1-Methoxy-3-(3',4',5'-trimethoxyphenyl)-5,6-methylenedioxy-1,3-dihydroisobenzofuran
_symmetry_cell_setting           monoclinic
_symmetry_space_group_name_H-M   'P 21/c'
_symmetry_Int_Tables_number      14
_space_group_name_Hall           '-P 2ybc'
loop_
_symmetry_equiv_pos_site_id
_symmetry_equiv_pos_as_xyz
1 x,y,z
2 -x,1/2+y,1/2-z
3 -x,-y,-z
4 x,1/2-y,1/2+z
_cell_length_a                   15.307(3)
_cell_length_b                   7.018(1)
_cell_length_c                   17.014(6)
_cell_angle_alpha                90
_cell_angle_beta                 107.61(2)
_cell_angle_gamma                90
_cell_volume                     1742.07
_exptl_crystal_colour            colorless
_chemical_melting_point          402-404K
_cell_formula_units_Z            4
loop_
_atom_site_label
_atom_site_type_symbol
_atom_site_fract_x
_atom_site_fract_y
_atom_site_fract_z
O1 O 0.78664(13) 0.5963(2) 0.33497(10)
O2 O 0.92870(11) 0.3733(2) 0.40429(9)
O3 O 0.95451(11) 0.0448(2) 0.33399(10)
O4 O 0.76339(11) -0.2492(2) 0.07333(10)
O5 O 0.72578(11) 0.0713(2) 0.04259(9)
O6 O 0.43117(12) -0.3958(2) 0.10777(11)
O7 O 0.41813(12) -0.1178(2) 0.17478(11)
C1 C 0.7179(2) 0.7292(3) 0.2955(2)
H1 H 0.7230(8) 0.8400(11) 0.3297(5)
H2 H 0.6586(2) 0.6724(9) 0.2865(10)
H3 H 0.7253(7) 0.7654(19) 0.2435(5)
C2 C 0.9234(2) 0.2739(4) 0.4755(2)
H4 H 0.8640(5) 0.2931(23) 0.4823(7)
H5 H 0.9697(9) 0.3211(20) 0.5232(2)
H6 H 0.9330(14) 0.1403(6) 0.4691(5)
C3 C 0.9749(2) -0.1211(4) 0.2949(2)
H7 H 1.0311(7) -0.1761(16) 0.3286(6)
H8 H 0.9811(13) -0.0874(6) 0.2421(5)
H9 H 0.9261(6) -0.2119(12) 0.2874(11)
C4 C 0.8385(2) -0.2684(6) 0.0409(2)
H10 H 0.8771(11) -0.3713(28) 0.0684(13)
H11 H 0.8732(12) -0.1522(15) 0.0496(17)
H12 H 0.8158(2) -0.2949(43) -0.0171(4)
C5 C 0.7948(2) 0.4360(3) 0.29250(13)
C6 C 0.8670(2) 0.3165(3) 0.33146(13)
C7 C 0.8800(2) 0.1502(3) 0.29188(14)
C8 C 0.82132(15) 0.1022(3) 0.21569(13)
H13 H 0.82996(15) -0.0103(3) 0.19011(13)
C9 C 0.74940(15) 0.2224(3) 0.17747(12)
C10 C 0.7363(2) 0.3888(3) 0.21507(13)
H14 H 0.6883(2) 0.4698(3) 0.18868(13)
C11 C 0.6822(2) 0.1682(3) 0.09534(12)
H15 H 0.6526(2) 0.2840(3) 0.06749(12)
C12 C 0.6960(2) -0.1214(3) 0.02941(13)
H16 H 0.6767(2) -0.1519(3) -0.02956(13)
C13 C 0.61755(15) -0.1349(3) 0.06285(12)
C14 C 0.5603(2) -0.2909(3) 0.06026(13)
H17 H 0.5659(2) -0.4039(3) 0.03365(13)
C15 C 0.4956(2) -0.2662(3) 0.09938(13)
C16 C 0.3713(2) -0.2886(4) 0.1406(2)
H18 H 0.3557(2) -0.3614(4) 0.1830(2)
H19 H 0.3152(2) -0.2584(4) 0.0974(2)
C17 C 0.4874(2) -0.1002(3) 0.13952(13)
C18 C 0.5429(2) 0.0539(3) 0.14271(13)
H20 H 0.5369(2) 0.1659(3) 0.16983(13)
C19 C 0.60919(14) 0.0310(3) 0.10225(12)
loop_
_geom_bond_atom_site_label_1
_geom_bond_atom_site_label_2
_geom_bond_site_symmetry_1
_geom_bond_site_symmetry_2
O1 C1 1_555 1_555
O2 C2 1_555 1_555
O3 C3 1_555 1_555
O4 C4 1_555 1_555
O5 C11 1_555 1_555
O6 C15 1_555 1_555
O7 C16 1_555 1_555
C1 H1 1_555 1_555
H2 C1 1_555 1_555
H3 C1 1_555 1_555
C2 H4 1_555 1_555
H5 C2 1_555 1_555
H6 C2 1_555 1_555
C3 H7 1_555 1_555
H8 C3 1_555 1_555
H9 C3 1_555 1_555
C4 H10 1_555 1_555
H11 C4 1_555 1_555
H12 C4 1_555 1_555
C5 O1 1_555 1_555
C6 O2 1_555 1_555
C7 O3 1_555 1_555
C8 C7 1_555 1_555
H13 C8 1_555 1_555
C9 C8 1_555 1_555
C10 C5 1_555 1_555
H14 C10 1_555 1_555
C11 C9 1_555 1_555
H15 C11 1_555 1_555
C12 O4 1_555 1_555
H16 C12 1_555 1_555
C13 C12 1_555 1_555
C14 C13 1_555 1_555
H17 C14 1_555 1_555
C15 C14 1_555 1_555
C16 O6 1_555 1_555
H18 C16 1_555 1_555
H19 C16 1_555 1_555
C17 O7 1_555 1_555
C18 C17 1_555 1_555
H20 C18 1_555 1_555
C19 C11 1_555 1_555
O5 C12 1_555 1_555
C5 C6 1_555 1_555
C6 C7 1_555 1_555
C9 C10 1_555 1_555
C13 C19 1_555 1_555
C15 C17 1_555 1_555
C18 C19 1_555 1_555

#END
