
#######################################################################
#
#                 Cambridge Crystallographic Data Centre
#                                CCDC 
#
#######################################################################
#
# If this CIF has been generated from an entry in the Cambridge 
# Structural Database, then it will include bibliographic, chemical, 
# crystal, experimental, refinement or atomic coordinate data resulting 
# from the CCDC's data processing and validation procedures.
#
#######################################################################

data_ZAYQEY
_chemical_formula_moiety         'C22 H21 Cl1 N2 O2'
_chemical_name_systematic        
't-butyl 1-(5-chloro-1H-indol-3-yl)isoquinoline-2(1H)-carboxylate'
_symmetry_cell_setting           orthorhombic
_symmetry_space_group_name_H-M   'P 21 21 21'
_symmetry_Int_Tables_number      19
_space_group_name_Hall           'P 2ac 2ab'
loop_
_symmetry_equiv_pos_site_id
_symmetry_equiv_pos_as_xyz
1 x,y,z
2 1/2-x,-y,1/2+z
3 1/2+x,1/2-y,-z
4 -x,1/2+y,1/2-z
_cell_length_a                   9.5413(5)
_cell_length_b                   12.5331(12)
_cell_length_c                   16.6646(14)
_cell_angle_alpha                90
_cell_angle_beta                 90
_cell_angle_gamma                90
_cell_volume                     1992.79
_exptl_crystal_colour            colorless
_exptl_crystal_description       block
_cell_formula_units_Z            4
loop_
_atom_site_label
_atom_site_type_symbol
_atom_site_fract_x
_atom_site_fract_y
_atom_site_fract_z
Cl1 Cl 0.6923(3) 0.4076(3) 0.1954(2)
O1 O -0.0084(5) 0.3948(4) 0.0085(3)
O2 O -0.0266(4) 0.5746(4) 0.0225(3)
N1 N 0.0734(5) 0.4734(4) 0.1194(3)
C1 C 0.1039(6) 0.5701(5) 0.1667(4)
H1 H 0.0239 0.6180 0.1589
C2 C 0.1094(6) 0.5459(6) 0.2562(4)
C3 C 0.1010(7) 0.6307(7) 0.3105(5)
H2 H 0.0926 0.7002 0.2917
C4 C 0.1051(9) 0.6112(10) 0.3920(6)
H3 H 0.0997 0.6681 0.4277
C5 C 0.1169(9) 0.5111(12) 0.4208(6)
H4 H 0.1178 0.4993 0.4759
C6 C 0.1276(7) 0.4254(9) 0.3681(6)
H5 H 0.1364 0.3564 0.3880
C7 C 0.1253(6) 0.4433(7) 0.2842(5)
C8 C 0.1359(8) 0.3577(7) 0.2269(6)
H6 H 0.1622 0.2901 0.2444
C9 C 0.1089(7) 0.3731(6) 0.1497(5)
H7 H 0.1137 0.3154 0.1148
C10 C 0.2304(6) 0.6288(6) 0.1354(4)
C11 C 0.2242(8) 0.7262(6) 0.1003(5)
H8 H 0.1417 0.7642 0.0924
N2 N 0.3522(9) 0.7613(7) 0.0782(4)
H9 H 0.3706 0.8202 0.0540
C12 C 0.4483(9) 0.6850(9) 0.1016(5)
C13 C 0.5944(12) 0.6838(13) 0.0957(7)
H10 H 0.6419 0.7399 0.0714
C14 C 0.6642(9) 0.6011(13) 0.1254(8)
H11 H 0.7616 0.6015 0.1243
C15 C 0.5931(8) 0.5125(10) 0.1586(5)
C16 C 0.4498(6) 0.5114(7) 0.1665(4)
H12 H 0.4039 0.4539 0.1900
C17 C 0.3755(6) 0.5989(6) 0.1382(4)
C18 C 0.0085(6) 0.4874(6) 0.0463(4)
C19 C -0.0755(8) 0.3883(7) -0.0705(5)
C20 C -0.0603(13) 0.2701(8) -0.0920(6)
H13 H 0.0351 0.2482 -0.0840
H14 H -0.0858 0.2595 -0.1471
H15 H -0.1207 0.2283 -0.0583
C21 C -0.2270(7) 0.4227(9) -0.0633(6)
H16 H -0.2722 0.3816 -0.0221
H17 H -0.2739 0.4113 -0.1135
H18 H -0.2310 0.4970 -0.0496
C22 C 0.0030(9) 0.4560(9) -0.1305(5)
H19 H -0.0164 0.5300 -0.1206
H20 H -0.0265 0.4377 -0.1838
H21 H 0.1018 0.4433 -0.1252
loop_
_geom_bond_atom_site_label_1
_geom_bond_atom_site_label_2
_geom_bond_site_symmetry_1
_geom_bond_site_symmetry_2
Cl1 C15 1_555 1_555
O1 C18 1_555 1_555
O2 C18 1_555 1_555
N1 C1 1_555 1_555
C1 H1 1_555 1_555
C2 C1 1_555 1_555
C3 C2 1_555 1_555
H2 C3 1_555 1_555
C4 C3 1_555 1_555
H3 C4 1_555 1_555
C5 C4 1_555 1_555
H4 C5 1_555 1_555
C6 C5 1_555 1_555
H5 C6 1_555 1_555
C7 C2 1_555 1_555
C8 C7 1_555 1_555
H6 C8 1_555 1_555
C9 N1 1_555 1_555
H7 C9 1_555 1_555
C10 C1 1_555 1_555
C11 C10 1_555 1_555
H8 C11 1_555 1_555
N2 C11 1_555 1_555
H9 N2 1_555 1_555
C12 N2 1_555 1_555
C13 C12 1_555 1_555
H10 C13 1_555 1_555
C14 C13 1_555 1_555
H11 C14 1_555 1_555
C15 C14 1_555 1_555
C16 C15 1_555 1_555
H12 C16 1_555 1_555
C17 C10 1_555 1_555
C18 N1 1_555 1_555
C19 O1 1_555 1_555
C20 C19 1_555 1_555
H13 C20 1_555 1_555
H14 C20 1_555 1_555
H15 C20 1_555 1_555
C21 C19 1_555 1_555
H16 C21 1_555 1_555
H17 C21 1_555 1_555
H18 C21 1_555 1_555
C22 C19 1_555 1_555
H19 C22 1_555 1_555
H20 C22 1_555 1_555
H21 C22 1_555 1_555
C6 C7 1_555 1_555
C8 C9 1_555 1_555
C12 C17 1_555 1_555
C16 C17 1_555 1_555

#END
