
#######################################################################
#
#                 Cambridge Crystallographic Data Centre
#                                CCDC 
#
#######################################################################
#
# If this CIF has been generated from an entry in the Cambridge 
# Structural Database, then it will include bibliographic, chemical, 
# crystal, experimental, refinement or atomic coordinate data resulting 
# from the CCDC's data processing and validation procedures.
#
#######################################################################

data_ZAYWII
_chemical_formula_moiety         'C24 H25 N3 O2'
_chemical_name_systematic        
'ethyl 3-butyl-4-phenyl-10H-[1,2,3]triazolo[1,5-b][2]benzazepine-5-carboxylate'
_symmetry_cell_setting           orthorhombic
_symmetry_space_group_name_H-M   'P 21 21 21'
_symmetry_Int_Tables_number      19
_space_group_name_Hall           'P 2ac 2ab'
loop_
_symmetry_equiv_pos_site_id
_symmetry_equiv_pos_as_xyz
1 x,y,z
2 1/2+x,1/2-y,-z
3 -x,1/2+y,1/2-z
4 1/2-x,-y,1/2+z
_cell_length_a                   5.1839(2)
_cell_length_b                   17.3160(5)
_cell_length_c                   23.0197(7)
_cell_angle_alpha                90
_cell_angle_beta                 90
_cell_angle_gamma                90
_cell_volume                     2066.35
_exptl_crystal_colour            colorless
_exptl_crystal_description       needle
_cell_formula_units_Z            4
loop_
_atom_site_label
_atom_site_type_symbol
_atom_site_fract_x
_atom_site_fract_y
_atom_site_fract_z
O1 O 0.1046(3) 0.59988(9) 0.48336(7)
O2 O 0.4794(4) 0.61294(8) 0.43603(6)
N1 N 0.5002(3) 0.34932(8) 0.37495(6)
N2 N 0.4974(4) 0.28073(9) 0.34779(7)
N3 N 0.3149(4) 0.28433(9) 0.30812(7)
C1 C 0.6756(4) 0.36730(11) 0.42275(8)
H1 H 0.7712 0.4154 0.4141
H2 H 0.8023 0.3250 0.4275
C2 C 0.5226(4) 0.37704(10) 0.47773(7)
C3 C 0.5715(5) 0.32912(12) 0.52512(8)
H3 H 0.7045 0.2915 0.5228
C4 C 0.4280(5) 0.33602(13) 0.57531(9)
H4 H 0.4653 0.3044 0.6080
C5 C 0.2307(6) 0.38895(15) 0.57773(9)
H5 H 0.1257 0.3917 0.6115
C6 C 0.1827(5) 0.43859(13) 0.53150(8)
H6 H 0.0481 0.4757 0.5342
C7 C 0.3328(4) 0.43390(10) 0.48091(8)
C8 C 0.2929(4) 0.49127(10) 0.43328(8)
C9 C 0.2824(3) 0.47594(10) 0.37576(7)
C10 C 0.3191(4) 0.39790(10) 0.35305(7)
C11 C 0.2019(4) 0.35543(10) 0.30970(8)
C12 C -0.0136(4) 0.37697(11) 0.26982(8)
H7 H -0.0880 0.4267 0.2829
H8 H -0.1506 0.3373 0.2728
C13 C 0.0663(4) 0.38471(12) 0.20630(8)
H9 H 0.2036 0.4242 0.2031
H10 H 0.1383 0.3349 0.1927
C14 C -0.1586(6) 0.40737(16) 0.16744(10)
H11 H -0.2974 0.3685 0.1717
H12 H -0.2277 0.4577 0.1807
C15 C -0.0881(7) 0.4136(2) 0.10453(12)
H13 H -0.2427 0.4254 0.0817
H14 H -0.0145 0.3645 0.0913
H15 H 0.0391 0.4549 0.0994
C16 C 0.2339(4) 0.53738(10) 0.33156(7)
C17 C 0.4043(4) 0.54500(11) 0.28507(8)
H16 H 0.5442 0.5099 0.2811
C18 C 0.3714(4) 0.60330(12) 0.24454(8)
H17 H 0.4918 0.6092 0.2138
C19 C 0.1638(5) 0.65282(11) 0.24883(9)
H18 H 0.1404 0.6925 0.2208
C20 C -0.0099(5) 0.64469(11) 0.29390(9)
H19 H -0.1545 0.6783 0.2964
C21 C 0.0257(4) 0.58758(10) 0.33562(8)
H20 H -0.0925 0.5829 0.3669
C22 C 0.2745(4) 0.57374(11) 0.45368(8)
C23 C 0.4438(18) 0.6983(3) 0.4486(2)
H21 H 0.2594 0.7125 0.4453
H22 H 0.5024 0.7102 0.4886
C24 C 0.5937(16) 0.7407(2) 0.4072(2)
H23 H 0.7741 0.7240 0.4093
H24 H 0.5829 0.7960 0.4160
H25 H 0.5267 0.7312 0.3681
C25? C 0.440(2) 0.7430(4) 0.4102(3)
H26? H 0.5169 0.7316 0.3723
H27? H 0.4778 0.7966 0.4210
H28? H 0.2524 0.7358 0.4080
C26? C 0.5549(18) 0.6869(4) 0.4573(3)
H29? H 0.7450 0.6916 0.4595
H30? H 0.4803 0.6971 0.4961
loop_
_geom_bond_atom_site_label_1
_geom_bond_atom_site_label_2
_geom_bond_site_symmetry_1
_geom_bond_site_symmetry_2
O1 C22 1_555 1_555
O2 C22 1_555 1_555
N1 N2 1_555 1_555
N2 N3 1_555 1_555
N3 C11 1_555 1_555
C1 N1 1_555 1_555
H1 C1 1_555 1_555
H2 C1 1_555 1_555
C2 C1 1_555 1_555
C3 C2 1_555 1_555
H3 C3 1_555 1_555
C4 C3 1_555 1_555
H4 C4 1_555 1_555
C5 C4 1_555 1_555
H5 C5 1_555 1_555
C6 C5 1_555 1_555
H6 C6 1_555 1_555
C7 C2 1_555 1_555
C8 C7 1_555 1_555
C9 C8 1_555 1_555
C10 N1 1_555 1_555
C11 C10 1_555 1_555
C12 C11 1_555 1_555
H7 C12 1_555 1_555
H8 C12 1_555 1_555
C13 C12 1_555 1_555
H9 C13 1_555 1_555
H10 C13 1_555 1_555
C14 C13 1_555 1_555
H11 C14 1_555 1_555
H12 C14 1_555 1_555
C15 C14 1_555 1_555
H13 C15 1_555 1_555
H14 C15 1_555 1_555
H15 C15 1_555 1_555
C16 C9 1_555 1_555
C17 C16 1_555 1_555
H16 C17 1_555 1_555
C18 C17 1_555 1_555
H17 C18 1_555 1_555
C19 C18 1_555 1_555
H18 C19 1_555 1_555
C20 C19 1_555 1_555
H19 C20 1_555 1_555
C21 C16 1_555 1_555
H20 C21 1_555 1_555
C22 C8 1_555 1_555
C23 O2 1_555 1_555
H21 C23 1_555 1_555
H22 C23 1_555 1_555
C24 C23 1_555 1_555
H23 C24 1_555 1_555
H24 C24 1_555 1_555
H25 C24 1_555 1_555
C6 C7 1_555 1_555
C9 C10 1_555 1_555
C20 C21 1_555 1_555

#END
