
#######################################################################
#
#                 Cambridge Crystallographic Data Centre
#                                CCDC 
#
#######################################################################
#
# If this CIF has been generated from an entry in the Cambridge 
# Structural Database, then it will include bibliographic, chemical, 
# crystal, experimental, refinement or atomic coordinate data resulting 
# from the CCDC's data processing and validation procedures.
#
#######################################################################

data_ZAZBAF
_chemical_compound_source        'fungus Aspergillus sp'
_chemical_name_common            'Waikialoid A methanol solvate monohydrate'
_chemical_formula_moiety         'C52 H54 N6 O7,C1 H4 O1,H2 O1'
_chemical_name_systematic        
'39-Hydroxy-13,13,20,20,34,34,41,41-octamethyl-21,33-dioxa-3,6,15,39\l^5^,48,50-hexaazapentadecacyclo-[42.5.2.1^3,10^.0^1,42^.0^2,28^.0^4,12^.0^4,27^.0^6,10^.0^14,26^.-0^16,25^.0^17,22^.0^28,40^.0^29,38^.0^32,37^.0^44,48^]dopentaconta-14(26),16,18,22,24,29,31,35,37,39-decaene-5,49,51,52-tetrone methanol solvate monohydrate'
_chemical_properties_biological  
'tested for cytotoxic acitivty against Candida albicans'
_symmetry_cell_setting           monoclinic
_symmetry_space_group_name_H-M   'P 21'
_symmetry_Int_Tables_number      4
_space_group_name_Hall           'P 2yb'
loop_
_symmetry_equiv_pos_site_id
_symmetry_equiv_pos_as_xyz
1 x,y,z
2 -x,1/2+y,-z
_cell_length_a                   10.6276(4)
_cell_length_b                   17.6706(6)
_cell_length_c                   12.8917(4)
_cell_angle_alpha                90
_cell_angle_beta                 104.187(2)
_cell_angle_gamma                90
_cell_volume                     2347.17
_exptl_crystal_colour            colorless
_exptl_crystal_description       prism
_cell_formula_units_Z            2
loop_
_atom_site_label
_atom_site_type_symbol
_atom_site_fract_x
_atom_site_fract_y
_atom_site_fract_z
C1 C 0.0875(2) 0.18709(10) 0.34114(15)
H1 H 0.0939 0.1700 0.4154
H2 H 0.1598 0.1650 0.3152
C2 C -0.0432(2) 0.16719(17) 0.2679(3)
H3 H -0.0352 0.1605 0.1935
H4 H -0.0767 0.1196 0.2916
C3 C -0.13219(19) 0.23141(11) 0.27405(16)
H5 H -0.1746 0.2238 0.3336
H6 H -0.2002 0.2362 0.2064
C4 C -0.04635(17) 0.30156(11) 0.29325(15)
C5 C -0.07414(16) 0.36028(11) 0.37305(14)
H7 H -0.0938 0.3343 0.4352
H8 H -0.1501 0.3915 0.3383
C6 C 0.04696(15) 0.41123(10) 0.41064(13)
H9 H 0.0170 0.4650 0.4025
C7 C 0.11895(15) 0.39882(10) 0.53143(13)
C8 C 0.25472(15) 0.42958(9) 0.54572(13)
N1 N 0.34951(13) 0.41725(8) 0.63102(11)
C9 C 0.47079(16) 0.44483(9) 0.61502(12)
C10 C 0.59125(16) 0.44232(10) 0.68800(12)
C11 C 0.62152(17) 0.40534(10) 0.79238(13)
H10 H 0.5592 0.3737 0.8125
C12 C 0.73749(17) 0.41634(11) 0.85922(14)
H11 H 0.7607 0.3888 0.9245
C13 C 0.83189(17) 0.47182(11) 0.83232(13)
O1 O 0.81680(11) 0.47491(8) 0.71615(9)
C14 C 0.69374(15) 0.47454(10) 0.65195(13)
C15 C 0.67682(16) 0.50080(10) 0.54785(13)
H12 H 0.7495 0.5185 0.5243
C16 C 0.55368(16) 0.50142(10) 0.47759(13)
H13 H 0.5422 0.5193 0.4064
C17 C 0.44865(15) 0.47558(9) 0.51303(12)
C18 C 0.30249(15) 0.47825(9) 0.46703(12)
C19 C 0.25020(15) 0.45477(9) 0.34763(12)
H14 H 0.3222 0.4311 0.3215
C20 C 0.13644(15) 0.39815(9) 0.33281(13)
C21 C 0.18740(16) 0.31688(10) 0.35074(13)
O2 O 0.30282(11) 0.29971(7) 0.37732(9)
N2 N 0.08644(15) 0.26969(9) 0.33373(12)
N3 N 0.05495(14) 0.40058(9) 0.22254(11)
H15 H 0.093(2) 0.4221(13) 0.1727(17)
C22 C -0.03993(17) 0.34720(10) 0.19447(14)
O3 O -0.10991(13) 0.33894(8) 0.10490(10)
C23 C 0.12852(16) 0.31533(10) 0.56956(14)
H16 H 0.1560 0.3138 0.6479
H17 H 0.1922 0.2885 0.5396
H18 H 0.0436 0.2909 0.5454
C24 C 0.04314(17) 0.44203(11) 0.60020(14)
H19 H 0.0342 0.4952 0.5779
H20 H 0.0902 0.4390 0.6756
H21 H -0.0432 0.4195 0.5909
C25 C 0.97196(18) 0.44769(14) 0.87675(14)
H22 H 0.9864 0.3985 0.8465
H23 H 0.9898 0.4436 0.9548
H24 H 1.0300 0.4854 0.8576
C26 C 0.8056(2) 0.55066(12) 0.87069(16)
H25 H 0.7180 0.5668 0.8333
H26 H 0.8693 0.5864 0.8555
H27 H 0.8126 0.5494 0.9479
C27 C -0.0304(2) 0.68779(12) 0.14177(16)
H28 H -0.0582 0.7334 0.1748
H29 H -0.1054 0.6533 0.1182
C28 C 0.0291(2) 0.70875(13) 0.04863(17)
H30 H -0.0387 0.7122 -0.0193
H31 H 0.0754 0.7577 0.0621
C29 C 0.12272(19) 0.64473(12) 0.04444(14)
H32 H 0.1921 0.6616 0.0106
H33 H 0.0769 0.6011 0.0039
C30 C 0.17857(17) 0.62403(11) 0.16206(14)
C31 C 0.30568(17) 0.66373(10) 0.21832(13)
H34 H 0.2956 0.7193 0.2104
H35 H 0.3767 0.6477 0.1859
C32 C 0.33802(15) 0.64184(9) 0.33791(12)
H36 H 0.4140 0.6068 0.3491
C33 C 0.38138(17) 0.70799(10) 0.41695(13)
C34 C 0.39738(16) 0.67395(10) 0.52629(13)
N4 N 0.47293(15) 0.70756(9) 0.61688(12)
H37 H 0.532(2) 0.7365(14) 0.6163(17)
C35 C 0.45792(16) 0.66910(10) 0.70493(13)
C36 C 0.51485(17) 0.68435(11) 0.81286(14)
C37 C 0.61646(18) 0.73997(12) 0.85242(15)
H38 H 0.6638 0.7610 0.8057
C38 C 0.64220(19) 0.76097(12) 0.95436(15)
H39 H 0.7128 0.7940 0.9827
C39 C 0.55845(18) 0.73202(11) 1.02484(14)
O4 O 0.52086(12) 0.65332(8) 0.99533(9)
C40 C 0.47118(16) 0.64082(10) 0.88754(13)
C41 C 0.38074(17) 0.58228(10) 0.85652(14)
H40 H 0.3540 0.5534 0.9094
C42 C 0.33002(17) 0.56629(10) 0.74889(14)
H41 H 0.2704 0.5257 0.7284
C43 C 0.36687(15) 0.61009(10) 0.67035(13)
C44 C 0.33200(16) 0.61366(10) 0.55458(13)
C45 C 0.24720(15) 0.56266(9) 0.47381(12)
H42 H 0.1612 0.5585 0.4920
C46 C 0.22416(16) 0.59411(9) 0.36021(13)
C47 C 0.09429(16) 0.63569(10) 0.31979(14)
O5 O 0.01754(12) 0.65165(8) 0.37398(11)
N5 N 0.07800(14) 0.64994(9) 0.21522(12)
N6 N 0.21334(13) 0.52647(8) 0.29103(11)
C48 C 0.19957(16) 0.53925(11) 0.18477(13)
O6 O 0.20328(12) 0.49096(8) 0.11753(10)
C49 C 0.50999(18) 0.73896(11) 0.40039(14)
H43 H 0.5746 0.6983 0.4115
H44 H 0.5411 0.7798 0.4516
H45 H 0.4964 0.7586 0.3274
C50 C 0.28264(19) 0.77324(11) 0.40467(15)
H46 H 0.3166 0.8125 0.4579
H47 H 0.2004 0.7539 0.4157
H48 H 0.2681 0.7948 0.3327
C51 C 0.63016(19) 0.72901(13) 1.14185(15)
H49 H 0.7050 0.6951 1.1507
H50 H 0.5718 0.7101 1.1842
H51 H 0.6601 0.7799 1.1664
C52 C 0.43580(19) 0.78022(12) 1.00740(15)
H52 H 0.4598 0.8330 1.0256
H53 H 0.3812 0.7616 1.0531
H54 H 0.3877 0.7770 0.9322
O7 O 0.34179(11) 0.38635(7) 0.71999(9)
O8 O -0.2059(2) 0.55273(14) 0.34281(19)
H55 H -0.152(3) 0.5984(16) 0.350(3)
H56 H -0.264(3) 0.550(2) 0.271(2)
O9 O -0.4380(2) 0.54538(12) 0.17216(16)
H57 H -0.4507 0.5787 0.1178
C53 C -0.4507(4) 0.46861(19) 0.1378(3)
H58 H -0.3871 0.4569 0.0964
H59 H -0.5385 0.4603 0.0931
H60 H -0.4359 0.4356 0.2007
C54? C -0.0502(3) 0.1706(2) 0.3390(4)
H61? H 0.1144 0.1636 0.2803
H62? H 0.1462 0.1697 0.4090
H63? H -0.0625 0.1702 0.4127
H64? H -0.0752 0.1204 0.3063
H65? H -0.1579 0.2183 0.1971
H66? H -0.2113 0.2389 0.3004
loop_
_geom_bond_atom_site_label_1
_geom_bond_atom_site_label_2
_geom_bond_site_symmetry_1
_geom_bond_site_symmetry_2
C1 H1 1_555 1_555
H2 C1 1_555 1_555
C2 C1 1_555 1_555
H3 C2 1_555 1_555
H4 C2 1_555 1_555
C3 C2 1_555 1_555
H5 C3 1_555 1_555
H6 C3 1_555 1_555
C4 C3 1_555 1_555
C5 C4 1_555 1_555
H7 C5 1_555 1_555
H8 C5 1_555 1_555
C6 C5 1_555 1_555
H9 C6 1_555 1_555
C7 C6 1_555 1_555
C8 C7 1_555 1_555
N1 C8 1_555 1_555
C9 N1 1_555 1_555
C10 C9 1_555 1_555
C11 C10 1_555 1_555
H10 C11 1_555 1_555
C12 C11 1_555 1_555
H11 C12 1_555 1_555
C13 C12 1_555 1_555
O1 C13 1_555 1_555
C14 C10 1_555 1_555
C15 C14 1_555 1_555
H12 C15 1_555 1_555
C16 C15 1_555 1_555
H13 C16 1_555 1_555
C17 C9 1_555 1_555
C18 C8 1_555 1_555
C19 C18 1_555 1_555
H14 C19 1_555 1_555
C20 C6 1_555 1_555
C21 C20 1_555 1_555
O2 C21 1_555 1_555
N2 C1 1_555 1_555
N3 C20 1_555 1_555
H15 N3 1_555 1_555
C22 C4 1_555 1_555
O3 C22 1_555 1_555
C23 C7 1_555 1_555
H16 C23 1_555 1_555
H17 C23 1_555 1_555
H18 C23 1_555 1_555
C24 C7 1_555 1_555
H19 C24 1_555 1_555
H20 C24 1_555 1_555
H21 C24 1_555 1_555
C25 C13 1_555 1_555
H22 C25 1_555 1_555
H23 C25 1_555 1_555
H24 C25 1_555 1_555
C26 C13 1_555 1_555
H25 C26 1_555 1_555
H26 C26 1_555 1_555
H27 C26 1_555 1_555
C27 H28 1_555 1_555
H29 C27 1_555 1_555
C28 C27 1_555 1_555
H30 C28 1_555 1_555
H31 C28 1_555 1_555
C29 C28 1_555 1_555
H32 C29 1_555 1_555
H33 C29 1_555 1_555
C30 C29 1_555 1_555
C31 C30 1_555 1_555
H34 C31 1_555 1_555
H35 C31 1_555 1_555
C32 C31 1_555 1_555
H36 C32 1_555 1_555
C33 C32 1_555 1_555
C34 C33 1_555 1_555
N4 C34 1_555 1_555
H37 N4 1_555 1_555
C35 N4 1_555 1_555
C36 C35 1_555 1_555
C37 C36 1_555 1_555
H38 C37 1_555 1_555
C38 C37 1_555 1_555
H39 C38 1_555 1_555
C39 C38 1_555 1_555
O4 C39 1_555 1_555
C40 C36 1_555 1_555
C41 C40 1_555 1_555
H40 C41 1_555 1_555
C42 C41 1_555 1_555
H41 C42 1_555 1_555
C43 C35 1_555 1_555
C44 C34 1_555 1_555
C45 C18 1_555 1_555
H42 C45 1_555 1_555
C46 C32 1_555 1_555
C47 C46 1_555 1_555
O5 C47 1_555 1_555
N5 C27 1_555 1_555
N6 C19 1_555 1_555
C48 C30 1_555 1_555
O6 C48 1_555 1_555
C49 C33 1_555 1_555
H43 C49 1_555 1_555
H44 C49 1_555 1_555
H45 C49 1_555 1_555
C50 C33 1_555 1_555
H46 C50 1_555 1_555
H47 C50 1_555 1_555
H48 C50 1_555 1_555
C51 C39 1_555 1_555
H49 C51 1_555 1_555
H50 C51 1_555 1_555
H51 C51 1_555 1_555
C52 C39 1_555 1_555
H52 C52 1_555 1_555
H53 C52 1_555 1_555
H54 C52 1_555 1_555
O7 N1 1_555 1_555
O8 H55 1_555 1_555
H56 O8 1_555 1_555
O9 H57 1_555 1_555
C53 O9 1_555 1_555
H58 C53 1_555 1_555
H59 C53 1_555 1_555
H60 C53 1_555 1_555
C4 N2 1_555 1_555
O1 C14 1_555 1_555
C16 C17 1_555 1_555
C17 C18 1_555 1_555
C19 C20 1_555 1_555
C21 N2 1_555 1_555
N3 C22 1_555 1_555
C30 N5 1_555 1_555
O4 C40 1_555 1_555
C42 C43 1_555 1_555
C43 C44 1_555 1_555
C44 C45 1_555 1_555
C45 C46 1_555 1_555
C46 N6 1_555 1_555
C47 N5 1_555 1_555
N6 C48 1_555 1_555

#END
