
#######################################################################
#
#                 Cambridge Crystallographic Data Centre
#                                CCDC 
#
#######################################################################
#
# If this CIF has been generated from an entry in the Cambridge 
# Structural Database, then it will include bibliographic, chemical, 
# crystal, experimental, refinement or atomic coordinate data resulting 
# from the CCDC's data processing and validation procedures.
#
#######################################################################

data_ZAZFUE
_chemical_formula_moiety         'C16 H14 N2 O1'
_chemical_name_systematic        
1'-methyl-1,3-dihydro-2,3'-spirobi[indol]-2'(1'H)-one
_symmetry_cell_setting           monoclinic
_symmetry_space_group_name_H-M   'P 21/c'
_symmetry_Int_Tables_number      14
_space_group_name_Hall           '-P 2ybc'
loop_
_symmetry_equiv_pos_site_id
_symmetry_equiv_pos_as_xyz
1 x,y,z
2 -x,1/2+y,1/2-z
3 -x,-y,-z
4 x,1/2-y,1/2+z
_cell_length_a                   5.57110(10)
_cell_length_b                   14.4715(4)
_cell_length_c                   15.8198(5)
_cell_angle_alpha                90
_cell_angle_beta                 94.691(2)
_cell_angle_gamma                90
_cell_volume                     1271.15
_exptl_crystal_colour            colorless
_exptl_crystal_description       block
_cell_formula_units_Z            4
loop_
_atom_site_label
_atom_site_type_symbol
_atom_site_fract_x
_atom_site_fract_y
_atom_site_fract_z
O1 O -0.22000(17) 0.31226(7) 0.23513(7)
N1 N 0.26162(19) 0.27542(8) 0.16405(7)
H1 H 0.3913 0.2879 0.1952
N2 N -0.05871(19) 0.45805(8) 0.24070(7)
C1 C 0.2291(2) 0.44797(9) 0.14585(7)
C2 C 0.1033(2) 0.35559(9) 0.14447(8)
C3 C 0.2994(2) 0.23094(9) 0.08733(8)
C4 C 0.1310(2) 0.25907(9) 0.02259(8)
C5 C 0.1210(2) 0.50670(9) 0.20113(8)
C6 C 0.4189(2) 0.47949(10) 0.10292(8)
H2 H 0.4958 0.4404 0.0671
C7 C -0.0304(2) 0.33028(9) 0.05701(8)
H3 H -0.1889 0.3050 0.0640
H4 H -0.0469 0.3838 0.0201
C8 C -0.0783(2) 0.36986(9) 0.21214(8)
C9 C 0.1314(3) 0.22074(11) -0.05749(9)
H5 H 0.0176 0.2387 -0.1007
C10 C 0.4731(2) 0.16532(10) 0.07318(9)
H6 H 0.5853 0.1466 0.1165
C11 C 0.1876(3) 0.59811(10) 0.21176(9)
H7 H 0.1099 0.6372 0.2474
C12 C 0.4931(3) 0.57097(11) 0.11431(9)
H8 H 0.6222 0.5930 0.0864
C13 C -0.1964(3) 0.49572(13) 0.30663(10)
H9 H -0.0902 0.5090 0.3560
H10 H -0.3151 0.4515 0.3209
H11 H -0.2749 0.5516 0.2867
C14 C 0.3761(3) 0.62914(10) 0.16682(9)
H12 H 0.4247 0.6905 0.1722
C15 C 0.4739(3) 0.12833(11) -0.00799(11)
H13 H 0.5904 0.0850 -0.0192
C16 C 0.3049(3) 0.15485(12) -0.07235(11)
H14 H 0.3073 0.1285 -0.1259
loop_
_geom_bond_atom_site_label_1
_geom_bond_atom_site_label_2
_geom_bond_site_symmetry_1
_geom_bond_site_symmetry_2
O1 C8 1_555 1_555
N1 H1 1_555 1_555
N2 C5 1_555 1_555
C1 C2 1_555 1_555
C2 N1 1_555 1_555
C3 N1 1_555 1_555
C4 C3 1_555 1_555
C5 C1 1_555 1_555
C6 C1 1_555 1_555
H2 C6 1_555 1_555
C7 C2 1_555 1_555
H3 C7 1_555 1_555
H4 C7 1_555 1_555
C8 N2 1_555 1_555
C9 C4 1_555 1_555
H5 C9 1_555 1_555
C10 C3 1_555 1_555
H6 C10 1_555 1_555
C11 C5 1_555 1_555
H7 C11 1_555 1_555
C12 C6 1_555 1_555
H8 C12 1_555 1_555
C13 N2 1_555 1_555
H9 C13 1_555 1_555
H10 C13 1_555 1_555
H11 C13 1_555 1_555
C14 C11 1_555 1_555
H12 C14 1_555 1_555
C15 C10 1_555 1_555
H13 C15 1_555 1_555
C16 C9 1_555 1_555
H14 C16 1_555 1_555
C2 C8 1_555 1_555
C4 C7 1_555 1_555
C12 C14 1_555 1_555
C15 C16 1_555 1_555

#END
