
#######################################################################
#
#                 Cambridge Crystallographic Data Centre
#                                CCDC 
#
#######################################################################
#
# If this CIF has been generated from an entry in the Cambridge 
# Structural Database, then it will include bibliographic, chemical, 
# crystal, experimental, refinement or atomic coordinate data resulting 
# from the CCDC's data processing and validation procedures.
#
#######################################################################

data_ZAZGIS
_chemical_formula_moiety         'C23 H17 N1 O6'
_chemical_name_systematic        
'Ethyl 4-((1-amino-4-hydroxy-9,10-dioxo-9,10-dihydroanthracen-2-yl)oxy)benzoate'
_symmetry_cell_setting           monoclinic
_symmetry_space_group_name_H-M   'C 2/c'
_symmetry_Int_Tables_number      15
_space_group_name_Hall           '-C 2yn'
loop_
_symmetry_equiv_pos_site_id
_symmetry_equiv_pos_as_xyz
1 x,y,z
2 -x,y,1/2-z
3 1/2+x,1/2+y,z
4 1/2-x,1/2+y,1/2-z
5 -x,-y,-z
6 x,-y,1/2+z
7 1/2-x,1/2-y,-z
8 1/2+x,1/2-y,1/2+z
_cell_length_a                   35.2826(11)
_cell_length_b                   5.5408(3)
_cell_length_c                   19.5927(8)
_cell_angle_alpha                90
_cell_angle_beta                 104.436(3)
_cell_angle_gamma                90
_cell_volume                     3709.32
_exptl_crystal_colour            red
_exptl_crystal_description       needle
_cell_formula_units_Z            8
loop_
_atom_site_label
_atom_site_type_symbol
_atom_site_fract_x
_atom_site_fract_y
_atom_site_fract_z
O1 O 0.20006(4) 0.2846(3) 0.11058(9)
O2 O 0.20276(5) -0.3861(4) -0.03974(10)
O3 O 0.13950(5) -0.5957(4) -0.09348(10)
O4 O 0.38023(4) 0.4454(4) 0.23905(9)
C1 C 0.18244(7) 0.0993(5) 0.06717(13)
C2 C 0.20205(7) -0.0524(6) 0.03416(14)
C3 C 0.14148(6) -0.2589(5) -0.01968(12)
N1 N 0.12397(7) 0.2518(5) 0.09105(13)
C4 C 0.12082(6) -0.0943(5) 0.01427(12)
O5 O 0.05916(5) 0.0133(4) 0.03333(9)
C5 C 0.07883(7) -0.4749(5) -0.07513(13)
C6 C 0.05808(7) -0.3116(5) -0.04460(12)
O6 O 0.37275(5) 0.1212(4) 0.30120(11)
C7 C 0.14096(6) 0.0880(5) 0.05788(13)
C8 C 0.18186(7) -0.2357(5) -0.00917(12)
C9 C 0.24024(7) 0.2684(5) 0.14285(13)
C10 C 0.12165(7) -0.4508(5) -0.06383(13)
C11 C 0.25419(8) 0.0850(6) 0.18958(14)
C12 C 0.31788(7) 0.2704(5) 0.21537(12)
C13 C 0.07844(7) -0.1182(5) 0.00342(13)
C14 C 0.35929(7) 0.2674(6) 0.25642(14)
C15 C 0.30321(7) 0.4507(6) 0.16701(14)
C16 C 0.26418(8) 0.4489(6) 0.13092(15)
C17 C -0.00132(9) -0.5165(7) -0.10058(16)
C18 C 0.42115(8) 0.4582(7) 0.27699(18)
C19 C 0.01758(7) -0.3329(6) -0.05872(15)
C20 C 0.29330(8) 0.0874(6) 0.22552(15)
C21 C 0.05939(8) -0.6610(6) -0.11692(15)
C22 C 0.01941(9) -0.6802(7) -0.12992(17)
C23 C 0.43771(11) 0.6745(8) 0.2497(3)
H1 H 0.2531(6) 0.571(4) 0.0973(11)
H2 H 0.4209(6) 0.464(5) 0.3265(14)
H3 H 0.3033(7) -0.039(5) 0.2567(13)
H4 H 0.3210(7) 0.579(5) 0.1575(13)
H5 H 0.2294(7) -0.046(5) 0.0414(12)
H6 H 0.0050(6) -0.213(5) -0.0370(12)
H7 H 0.2377(7) -0.042(5) 0.1981(13)
H8 H 0.0738(7) -0.772(5) -0.1386(13)
H9 H 0.0970(7) 0.236(5) 0.0829(12)
H10 H 0.4242(9) 0.806(7) 0.2579(18)
H11 H 0.0061(7) -0.819(5) -0.1569(13)
H12 H 0.4657(8) 0.697(5) 0.2753(14)
H13 H -0.0299(8) -0.532(5) -0.1099(13)
H14 H 0.1381(7) 0.361(5) 0.1212(14)
H15 H 0.4376(11) 0.659(8) 0.202(2)
H16 H 0.4328(8) 0.295(6) 0.2680(14)
H17 H 0.1810(9) -0.497(6) -0.0646(17)
loop_
_geom_bond_atom_site_label_1
_geom_bond_atom_site_label_2
_geom_bond_site_symmetry_1
_geom_bond_site_symmetry_2
O1 C1 1_555 1_555
O2 C8 1_555 1_555
O3 C10 1_555 1_555
O4 C14 1_555 1_555
C1 C2 1_555 1_555
C2 C8 1_555 1_555
C3 C4 1_555 1_555
N1 C7 1_555 1_555
C4 C7 1_555 1_555
O5 C13 1_555 1_555
C5 C6 1_555 1_555
C6 C13 1_555 1_555
O6 C14 1_555 1_555
C7 C1 1_555 1_555
C8 C3 1_555 1_555
C9 O1 1_555 1_555
C10 C3 1_555 1_555
C11 C9 1_555 1_555
C12 C14 1_555 1_555
C13 C4 1_555 1_555
C15 C12 1_555 1_555
C16 C9 1_555 1_555
C17 C19 1_555 1_555
C18 O4 1_555 1_555
C19 C6 1_555 1_555
C20 C11 1_555 1_555
C21 C5 1_555 1_555
C22 C17 1_555 1_555
C23 C18 1_555 1_555
H1 C16 1_555 1_555
H2 C18 1_555 1_555
H3 C20 1_555 1_555
H4 C15 1_555 1_555
H5 C2 1_555 1_555
H6 C19 1_555 1_555
H7 C11 1_555 1_555
H8 C21 1_555 1_555
H9 N1 1_555 1_555
H10 C23 1_555 1_555
H11 C22 1_555 1_555
H12 C23 1_555 1_555
H13 C17 1_555 1_555
H14 N1 1_555 1_555
H15 C23 1_555 1_555
H16 C18 1_555 1_555
H17 O2 1_555 1_555
C5 C10 1_555 1_555
C12 C20 1_555 1_555
C15 C16 1_555 1_555
C21 C22 1_555 1_555

#END
