
#######################################################################
#
#                 Cambridge Crystallographic Data Centre
#                                CCDC 
#
#######################################################################
#
# If this CIF has been generated from an entry in the Cambridge 
# Structural Database, then it will include bibliographic, chemical, 
# crystal, experimental, refinement or atomic coordinate data resulting 
# from the CCDC's data processing and validation procedures.
#
#######################################################################

data_ZAZJAO
_chemical_formula_moiety         'C13 H12 F3 N3 O1'
_chemical_name_systematic        
4-[2,2,2-trifluoro-N-(morpholin-4-yl)ethanimidoyl]benzonitrile
_symmetry_cell_setting           monoclinic
_symmetry_space_group_name_H-M   'P 21/n'
_symmetry_Int_Tables_number      14
_space_group_name_Hall           '-P 2yn'
loop_
_symmetry_equiv_pos_site_id
_symmetry_equiv_pos_as_xyz
1 x,y,z
2 1/2-x,1/2+y,1/2-z
3 -x,-y,-z
4 1/2+x,1/2-y,1/2+z
_cell_length_a                   8.2713(11)
_cell_length_b                   15.4059(17)
_cell_length_c                   10.6562(14)
_cell_angle_alpha                90
_cell_angle_beta                 100.751(4)
_cell_angle_gamma                90
_cell_volume                     1334.05
_exptl_crystal_description       sheet
_cell_formula_units_Z            4
loop_
_atom_site_label
_atom_site_type_symbol
_atom_site_fract_x
_atom_site_fract_y
_atom_site_fract_z
C1 C 0.8311(3) 0.27309(15) 0.9619(2)
C2 C 0.6796(3) 0.24077(15) 0.9004(2)
H1 H 0.6749 0.2023 0.8302
C3 C 0.5364(3) 0.26412(16) 0.9405(2)
H2 H 0.4334 0.2422 0.8978
C4 C 0.5444(3) 0.32002(15) 1.0441(2)
C5 C 0.6955(3) 0.35197(16) 1.1076(2)
H3 H 0.7003 0.3900 1.1784
C6 C 0.8378(3) 0.32780(16) 1.0667(2)
H4 H 0.9411 0.3487 1.1105
C7 C 0.9868(3) 0.24429(14) 0.9207(2)
C8 C 1.1547(3) 0.45064(16) 0.6367(3)
H5 H 1.2576 0.4730 0.6138
H6 H 1.0878 0.4243 0.5593
C9 C 1.1955(3) 0.38259(16) 0.7391(3)
H7 H 1.2537 0.3337 0.7068
H8 H 1.2695 0.4077 0.8141
C10 C 0.9397(3) 0.42049(15) 0.8113(2)
H9 H 0.9922 0.4475 0.8931
H10 H 0.8321 0.3964 0.8218
C11 C 0.9147(3) 0.48809(15) 0.7059(2)
H11 H 0.8507 0.4620 0.6272
H12 H 0.8497 0.5369 0.7311
C12 C 1.0501(3) 0.15818(17) 0.9761(3)
C13 C 0.3953(4) 0.34495(19) 1.0864(2)
F1 F 1.1945(2) 0.13566(10) 0.94963(16)
F2 F 1.0660(2) 0.15715(11) 1.10325(15)
F3 F 0.9463(2) 0.09316(10) 0.93532(18)
N1 N 1.0758(2) 0.27676(12) 0.84648(18)
N2 N 1.0453(2) 0.35058(12) 0.77763(19)
N3 N 0.2763(3) 0.36568(18) 1.1187(2)
O1 O 1.0655(2) 0.52081(10) 0.67942(16)
loop_
_geom_bond_atom_site_label_1
_geom_bond_atom_site_label_2
_geom_bond_site_symmetry_1
_geom_bond_site_symmetry_2
C1 C2 1_555 1_555
C2 H1 1_555 1_555
C3 C2 1_555 1_555
H2 C3 1_555 1_555
C4 C3 1_555 1_555
C5 C4 1_555 1_555
H3 C5 1_555 1_555
C6 C1 1_555 1_555
H4 C6 1_555 1_555
C7 C1 1_555 1_555
C8 H5 1_555 1_555
H6 C8 1_555 1_555
C9 C8 1_555 1_555
H7 C9 1_555 1_555
H8 C9 1_555 1_555
C10 H9 1_555 1_555
H10 C10 1_555 1_555
C11 C10 1_555 1_555
H11 C11 1_555 1_555
H12 C11 1_555 1_555
C12 C7 1_555 1_555
C13 C4 1_555 1_555
F1 C12 1_555 1_555
F2 C12 1_555 1_555
F3 C12 1_555 1_555
N1 C7 1_555 1_555
N2 C9 1_555 1_555
N3 C13 1_555 1_555
O1 C8 1_555 1_555
C5 C6 1_555 1_555
C10 N2 1_555 1_555
C11 O1 1_555 1_555
N1 N2 1_555 1_555

#END
