
#######################################################################
#
#                 Cambridge Crystallographic Data Centre
#                                CCDC 
#
#######################################################################
#
# If this CIF has been generated from an entry in the Cambridge 
# Structural Database, then it will include bibliographic, chemical, 
# crystal, experimental, refinement or atomic coordinate data resulting 
# from the CCDC's data processing and validation procedures.
#
#######################################################################

data_ZAZQOJ
_chemical_formula_moiety         'C37 H42 N2 O6 2+,2(Cl1 O4 1-)'
_chemical_name_systematic        
"4,4'-[2-(2,3,5,6,8,9,11,12,14,15-decahydro-1,4,7,10,13,16-benzohexaoxacyclooctadecin-18-yl)propane-1,3-diyl]diquinolinium diperchlorate"
_symmetry_cell_setting           monoclinic
_symmetry_space_group_name_H-M   'P 21/c'
_symmetry_Int_Tables_number      14
_space_group_name_Hall           '-P 2ybc'
loop_
_symmetry_equiv_pos_site_id
_symmetry_equiv_pos_as_xyz
1 x,y,z
2 -x,1/2+y,1/2-z
3 -x,-y,-z
4 x,1/2-y,1/2+z
_cell_length_a                   9.6958(10)
_cell_length_b                   12.5729(11)
_cell_length_c                   30.040(3)
_cell_angle_alpha                90
_cell_angle_beta                 90.970(6)
_cell_angle_gamma                90
_cell_volume                     3661.48
_exptl_crystal_colour            yellow
_exptl_crystal_description       plate
_cell_formula_units_Z            4
_exptl_crystal_recrystallization_method 'acetonitrile / benzene'
loop_
_atom_site_label
_atom_site_type_symbol
_atom_site_fract_x
_atom_site_fract_y
_atom_site_fract_z
Cl1 Cl 1.0874(2) 0.35812(16) 0.35665(6)
O1 O 0.9415(5) 0.3352(4) 0.35495(18)
O2 O 1.1387(6) 0.3305(5) 0.40014(18)
O3 O 1.1066(6) 0.4699(4) 0.35040(19)
O4 O 1.1557(6) 0.2994(5) 0.32297(19)
Cl2 Cl 0.80903(19) 0.23411(15) 0.49777(6)
O5 O 0.8152(5) 0.3415(4) 0.51344(18)
O6 O 0.9059(5) 0.1696(4) 0.52232(18)
O7 O 0.8397(6) 0.2315(4) 0.45150(17)
O8 O 0.6713(5) 0.1947(4) 0.50435(18)
O9 O 0.5716(5) 0.8821(4) 0.29777(16)
O10 O 0.5557(6) 1.0545(4) 0.23440(17)
O11 O 0.2730(6) 1.1286(4) 0.21571(18)
O12 O 0.0854(6) 1.0304(4) 0.27301(18)
O13 O 0.1001(5) 0.8443(4) 0.32827(17)
O14 O 0.3879(5) 0.8332(4) 0.35447(16)
N1 N 0.8306(7) 0.9243(5) 0.6405(2)
H1 H 0.867(7) 0.935(5) 0.674(2)
N2 N 0.8287(7) 0.4603(6) 0.4245(3)
H2 H 0.861(8) 0.416(6) 0.405(2)
C1 C 0.9171(9) 0.9345(6) 0.6078(3)
H3 H 1.0127 0.9437 0.6142
C2 C 0.8707(9) 0.9320(6) 0.5637(3)
H4 H 0.9339 0.9386 0.5401
C3 C 0.7302(8) 0.9197(5) 0.5548(3)
C4 C 0.6383(8) 0.9048(6) 0.5897(3)
C5 C 0.4947(9) 0.8874(6) 0.5849(3)
H5 H 0.4547 0.8851 0.5558
C6 C 0.4122(9) 0.8738(6) 0.6204(3)
H6 H 0.3161 0.8623 0.6160
C7 C 0.4689(9) 0.8768(6) 0.6641(3)
H7 H 0.4113 0.8670 0.6890
C8 C 0.6078(9) 0.8941(6) 0.6702(3)
H8 H 0.6463 0.8965 0.6995
C9 C 0.6915(9) 0.9080(6) 0.6341(3)
C10 C 0.6837(8) 0.9216(6) 0.5060(2)
H9 H 0.7202 0.9868 0.4919
H10 H 0.5818 0.9255 0.5045
C11 C 0.7309(8) 0.8249(5) 0.4793(2)
H11 H 0.8338 0.8228 0.4817
C12 C 0.6938(8) 0.8381(6) 0.4301(2)
C13 C 0.7924(8) 0.8567(6) 0.3987(3)
H12 H 0.8867 0.8596 0.4077
C14 C 0.7575(8) 0.8711(6) 0.3542(3)
H13 H 0.8274 0.8842 0.3331
C15 C 0.6195(8) 0.8664(5) 0.3404(2)
C16 C 0.5202(8) 0.8439(6) 0.3714(3)
C17 C 0.5559(8) 0.8322(5) 0.4161(2)
H14 H 0.4860 0.8201 0.4373
C18 C 0.6713(8) 0.9040(7) 0.2639(3)
H15 H 0.7208 0.8380 0.2559
H16 H 0.7395 0.9567 0.2749
C19 C 0.5939(9) 0.9470(7) 0.2241(3)
H17 H 0.6529 0.9454 0.1975
H18 H 0.5106 0.9036 0.2179
C20 C 0.5106(9) 1.1148(7) 0.1965(3)
H19 H 0.5713 1.0981 0.1712
H20 H 0.5215 1.1914 0.2033
C21 C 0.3660(9) 1.0950(7) 0.1825(3)
H21 H 0.3458 1.1338 0.1545
H22 H 0.3530 1.0181 0.1767
C22 C 0.1322(9) 1.1163(7) 0.2022(3)
H23 H 0.1212 1.0503 0.1845
H24 H 0.1036 1.1771 0.1833
C23 C 0.0430(9) 1.1111(7) 0.2423(3)
H25 H 0.0453 1.1808 0.2576
H26 H -0.0534 1.0972 0.2326
C24 C 0.0824(9) 0.9241(6) 0.2567(3)
H27 H 0.1191 0.9222 0.2262
H28 H -0.0140 0.8981 0.2555
C25 C 0.1671(9) 0.8539(7) 0.2864(3)
H29 H 0.1771 0.7828 0.2726
H30 H 0.2603 0.8847 0.2909
C26 C 0.1592(8) 0.7647(6) 0.3562(3)
H31 H 0.1886 0.7044 0.3374
H32 H 0.0874 0.7380 0.3764
C27 C 0.2812(7) 0.8021(6) 0.3838(2)
H33 H 0.2542 0.8630 0.4026
H34 H 0.3142 0.7440 0.4036
C28 C 0.9150(9) 0.5233(6) 0.4459(3)
H35 H 1.0115 0.5110 0.4445
C29 C 0.8651(8) 0.6080(6) 0.4707(3)
H36 H 0.9283 0.6532 0.4860
C30 C 0.7259(8) 0.6273(6) 0.4733(2)
C31 C 0.6332(8) 0.5568(6) 0.4506(2)
C32 C 0.4881(8) 0.5659(6) 0.4505(3)
H37 H 0.4458 0.6218 0.4666
C33 C 0.4071(8) 0.4939(7) 0.4271(3)
H38 H 0.3097 0.5020 0.4268
C34 C 0.4659(9) 0.4090(6) 0.4037(3)
H39 H 0.4079 0.3599 0.3884
C35 C 0.6035(9) 0.3967(6) 0.4028(3)
H40 H 0.6430 0.3392 0.3870
C36 C 0.6896(8) 0.4711(6) 0.4260(3)
C37 C 0.6786(8) 0.7220(5) 0.4994(2)
H41 H 0.7126 0.7160 0.5305
H42 H 0.5765 0.7232 0.4997
loop_
_geom_bond_atom_site_label_1
_geom_bond_atom_site_label_2
_geom_bond_site_symmetry_1
_geom_bond_site_symmetry_2
Cl1 O1 1_555 1_555
O2 Cl1 1_555 1_555
O3 Cl1 1_555 1_555
O4 Cl1 1_555 1_555
Cl2 O5 1_555 1_555
O6 Cl2 1_555 1_555
O7 Cl2 1_555 1_555
O8 Cl2 1_555 1_555
O9 C15 1_555 1_555
O10 C19 1_555 1_555
O11 C21 1_555 1_555
O12 C23 1_555 1_555
O13 C25 1_555 1_555
O14 C16 1_555 1_555
N1 H1 1_555 1_555
N2 H2 1_555 1_555
C1 N1 1_555 1_555
H3 C1 1_555 1_555
C2 C1 1_555 1_555
H4 C2 1_555 1_555
C3 C2 1_555 1_555
C4 C3 1_555 1_555
C5 C4 1_555 1_555
H5 C5 1_555 1_555
C6 C5 1_555 1_555
H6 C6 1_555 1_555
C7 C6 1_555 1_555
H7 C7 1_555 1_555
C8 C7 1_555 1_555
H8 C8 1_555 1_555
C9 N1 1_555 1_555
C10 C3 1_555 1_555
H9 C10 1_555 1_555
H10 C10 1_555 1_555
C11 C10 1_555 1_555
H11 C11 1_555 1_555
C12 C11 1_555 1_555
C13 C12 1_555 1_555
H12 C13 1_555 1_555
C14 C13 1_555 1_555
H13 C14 1_555 1_555
C15 C14 1_555 1_555
C16 C15 1_555 1_555
C17 C12 1_555 1_555
H14 C17 1_555 1_555
C18 O9 1_555 1_555
H15 C18 1_555 1_555
H16 C18 1_555 1_555
C19 C18 1_555 1_555
H17 C19 1_555 1_555
H18 C19 1_555 1_555
C20 O10 1_555 1_555
H19 C20 1_555 1_555
H20 C20 1_555 1_555
C21 C20 1_555 1_555
H21 C21 1_555 1_555
H22 C21 1_555 1_555
C22 O11 1_555 1_555
H23 C22 1_555 1_555
H24 C22 1_555 1_555
C23 C22 1_555 1_555
H25 C23 1_555 1_555
H26 C23 1_555 1_555
C24 O12 1_555 1_555
H27 C24 1_555 1_555
H28 C24 1_555 1_555
C25 C24 1_555 1_555
H29 C25 1_555 1_555
H30 C25 1_555 1_555
C26 O13 1_555 1_555
H31 C26 1_555 1_555
H32 C26 1_555 1_555
C27 O14 1_555 1_555
H33 C27 1_555 1_555
H34 C27 1_555 1_555
C28 N2 1_555 1_555
H35 C28 1_555 1_555
C29 C28 1_555 1_555
H36 C29 1_555 1_555
C30 C29 1_555 1_555
C31 C30 1_555 1_555
C32 C31 1_555 1_555
H37 C32 1_555 1_555
C33 C32 1_555 1_555
H38 C33 1_555 1_555
C34 C33 1_555 1_555
H39 C34 1_555 1_555
C35 C34 1_555 1_555
H40 C35 1_555 1_555
C36 N2 1_555 1_555
C37 C11 1_555 1_555
H41 C37 1_555 1_555
H42 C37 1_555 1_555
C4 C9 1_555 1_555
C8 C9 1_555 1_555
C16 C17 1_555 1_555
C26 C27 1_555 1_555
C30 C37 1_555 1_555
C31 C36 1_555 1_555
C35 C36 1_555 1_555

#END
