
#######################################################################
#
#                 Cambridge Crystallographic Data Centre
#                                CCDC 
#
#######################################################################
#
# If this CIF has been generated from an entry in the Cambridge 
# Structural Database, then it will include bibliographic, chemical, 
# crystal, experimental, refinement or atomic coordinate data resulting 
# from the CCDC's data processing and validation procedures.
#
#######################################################################

data_ZAZYIK
_chemical_formula_moiety         'C9 H10 N4 S1'
_chemical_name_systematic        N-(2-Phenylethyl)-1,2,3,4-thiatriazol-5-amine
_symmetry_cell_setting           monoclinic
_symmetry_space_group_name_H-M   'P 21/c'
_symmetry_Int_Tables_number      14
_space_group_name_Hall           '-P 2ybc'
loop_
_symmetry_equiv_pos_site_id
_symmetry_equiv_pos_as_xyz
1 x,y,z
2 -x,1/2+y,1/2-z
3 -x,-y,-z
4 x,1/2-y,1/2+z
_cell_length_a                   5.4021(4)
_cell_length_b                   9.1859(5)
_cell_length_c                   20.8138(11)
_cell_angle_alpha                90
_cell_angle_beta                 96.878(4)
_cell_angle_gamma                90
_cell_volume                     1025.41
_exptl_crystal_colour            colorless
_exptl_crystal_description       block
_cell_formula_units_Z            4
loop_
_atom_site_label
_atom_site_type_symbol
_atom_site_fract_x
_atom_site_fract_y
_atom_site_fract_z
S1 S 0.47416(13) 0.69839(7) 0.03137(3)
N1 N 0.3043(5) 0.6211(2) -0.03338(10)
N2 N 0.1225(5) 0.7012(2) -0.05498(10)
N3 N 0.0989(4) 0.8286(2) -0.02396(9)
N4 N 0.2944(4) 0.9564(2) 0.06466(10)
C1 C 0.2773(4) 0.8432(2) 0.02527(11)
C2 C 0.4800(6) 0.9667(3) 0.12081(14)
C3 C 0.4390(7) 1.0989(4) 0.16018(17)
C4 C 0.6196(5) 1.1103(3) 0.22047(12)
C5 C 0.5941(7) 1.0256(3) 0.27370(16)
C6 C 0.7605(8) 1.0318(4) 0.32834(16)
C7 C 0.9560(7) 1.1233(4) 0.33130(17)
C8 C 0.9864(6) 1.2082(5) 0.27963(19)
C9 C 0.8198(5) 1.2022(3) 0.22403(15)
H1 H 0.200(5) 1.025(3) 0.0564(11)
H2 H 0.465(4) 0.880(3) 0.1458(12)
H3 H 0.638(5) 0.974(2) 0.1067(10)
H4 H 0.429(6) 1.185(3) 0.1309(15)
H5 H 0.278(5) 1.100(3) 0.1702(13)
H6 H 0.463(5) 0.975(3) 0.2718(12)
H7 H 0.739(5) 0.973(3) 0.3633(14)
H8 H 1.070(6) 1.128(3) 0.3691(16)
H9 H 1.107(6) 1.268(3) 0.2797(15)
H10 H 0.837(5) 1.259(3) 0.1892(13)
loop_
_geom_bond_atom_site_label_1
_geom_bond_atom_site_label_2
_geom_bond_site_symmetry_1
_geom_bond_site_symmetry_2
S1 N1 1_555 1_555
N1 N2 1_555 1_555
N2 N3 1_555 1_555
N3 C1 1_555 1_555
N4 C1 1_555 1_555
C1 S1 1_555 1_555
C2 N4 1_555 1_555
C3 C2 1_555 1_555
C4 C3 1_555 1_555
C5 C4 1_555 1_555
C6 C5 1_555 1_555
C7 C6 1_555 1_555
C8 C7 1_555 1_555
C9 C4 1_555 1_555
H1 N4 1_555 1_555
H2 C2 1_555 1_555
H3 C2 1_555 1_555
H4 C3 1_555 1_555
H5 C3 1_555 1_555
H6 C5 1_555 1_555
H7 C6 1_555 1_555
H8 C7 1_555 1_555
H9 C8 1_555 1_555
H10 C9 1_555 1_555
C8 C9 1_555 1_555

#END
