
#######################################################################
#
#                 Cambridge Crystallographic Data Centre
#                                CCDC 
#
#######################################################################
#
# If this CIF has been generated from an entry in the Cambridge 
# Structural Database, then it will include bibliographic, chemical, 
# crystal, experimental, refinement or atomic coordinate data resulting 
# from the CCDC's data processing and validation procedures.
#
#######################################################################

data_ZEARLN01
_chemical_compound_source        'fungus Giberella zeare'
_chemical_name_common            Zearalenone
_chemical_formula_moiety         'C18 H22 O5'
_chemical_name_systematic        
3,4,5,6,9,10-Hexahydro-14,16-dihydroxy-3-methyl-1H-2-benzoxacyclotetradecin-1,7(8H)-dione
_chemical_properties_biological  
'related to compounds having potent activity against P388 leukemia, responsible for estrogenic syndrome which attacks genital system of laboratory animals'
_symmetry_cell_setting           monoclinic
_symmetry_space_group_name_H-M   'P 21'
_symmetry_Int_Tables_number      4
_space_group_name_Hall           'P 2yb'
loop_
_symmetry_equiv_pos_site_id
_symmetry_equiv_pos_as_xyz
1 x,y,z
2 -x,1/2+y,-z
_cell_length_a                   5.202(1)
_cell_length_b                   16.329(5)
_cell_length_c                   9.745(7)
_cell_angle_alpha                90
_cell_angle_beta                 98.33(4)
_cell_angle_gamma                90
_cell_volume                     819.041
_exptl_crystal_colour            'pale yellow'
_chemical_melting_point          437-438K
_cell_formula_units_Z            2
loop_
_atom_site_label
_atom_site_type_symbol
_atom_site_fract_x
_atom_site_fract_y
_atom_site_fract_z
C1 C 0.1243(11) 0.0816(3) 0.5484(5)
H1 H 0.0213 0.1239 0.5739
C2 C 0.0796(12) 0.0075(4) 0.5961(5)
H2 H 0.1862 -0.0349 0.5743
C3 C -0.1241(11) -0.0134(3) 0.6806(5)
H3 H -0.2654 -0.0405 0.6219
H4 H -0.1922 0.0369 0.7144
C4 C -0.0303(14) -0.0690(4) 0.8050(6)
H5 H -0.1741 -0.0787 0.8561
H6 H 0.0205 -0.1215 0.7706
C5 C 0.1969(14) -0.0345(4) 0.9039(6)
H7 H 0.2394 -0.0721 0.9809
H8 H 0.3472 -0.0307 0.8558
C6 C 0.1432(13) 0.0480(4) 0.9597(6)
C7 C 0.2865(13) 0.1191(4) 0.9184(6)
H9 H 0.2769 0.1186 0.8183
H10 H 0.4679 0.1129 0.9574
C8 C 0.1946(13) 0.2019(4) 0.9612(6)
H11 H 0.2187 0.2047 1.0617
H12 H 0.0100 0.2068 0.9288
C9 C 0.3337(14) 0.2745(4) 0.9063(6)
H13 H 0.5174 0.2615 0.9159
H14 H 0.3151 0.3211 0.9656
C10 C 0.2457(14) 0.3010(4) 0.7555(6)
H15 H 0.3495 0.3486 0.7363
O1 O 0.3054(8) 0.2328(2) 0.6636(4)
C11 C 0.3578(11) 0.2533(4) 0.5397(5)
O2 O 0.3794(10) 0.3253(2) 0.5062(4)
C12 C -0.0296(14) 0.3226(5) 0.7197(7)
H16 H -0.0640 0.3382 0.6238
H17 H -0.0698 0.3675 0.7765
H18 H -0.1351 0.2763 0.7354
O3 O -0.0294(10) 0.0565(3) 1.0312(4)
C13 C 0.4138(11) 0.1843(3) 0.4497(5)
C14 C 0.5791(12) 0.2016(3) 0.3501(5)
C15 C 0.6627(12) 0.1403(4) 0.2706(6)
H19 H 0.7777 0.1518 0.2085
C16 C 0.5738(12) 0.0617(4) 0.2842(6)
C17 C 0.4012(12) 0.0442(4) 0.3716(5)
H20 H 0.3359 -0.0087 0.3732
C18 C 0.3172(11) 0.1038(3) 0.4602(5)
O4 O 0.6612(10) 0.2783(2) 0.3261(5)
H21 H 0.6022 0.3106 0.3779
O5 O 0.6461(9) -0.0020(2) 0.2051(4)
H22 H 0.7504 0.0146 0.1559
loop_
_geom_bond_atom_site_label_1
_geom_bond_atom_site_label_2
_geom_bond_site_symmetry_1
_geom_bond_site_symmetry_2
C1 H1 1_555 1_555
C2 C1 1_555 1_555
H2 C2 1_555 1_555
C3 C2 1_555 1_555
H3 C3 1_555 1_555
H4 C3 1_555 1_555
C4 C3 1_555 1_555
H5 C4 1_555 1_555
H6 C4 1_555 1_555
C5 C4 1_555 1_555
H7 C5 1_555 1_555
H8 C5 1_555 1_555
C6 C5 1_555 1_555
C7 C6 1_555 1_555
H9 C7 1_555 1_555
H10 C7 1_555 1_555
C8 C7 1_555 1_555
H11 C8 1_555 1_555
H12 C8 1_555 1_555
C9 C8 1_555 1_555
H13 C9 1_555 1_555
H14 C9 1_555 1_555
C10 C9 1_555 1_555
H15 C10 1_555 1_555
O1 C10 1_555 1_555
C11 O1 1_555 1_555
O2 C11 1_555 1_555
C12 C10 1_555 1_555
H16 C12 1_555 1_555
H17 C12 1_555 1_555
H18 C12 1_555 1_555
O3 C6 1_555 1_555
C13 C11 1_555 1_555
C14 C13 1_555 1_555
C15 C14 1_555 1_555
H19 C15 1_555 1_555
C16 C15 1_555 1_555
C17 C16 1_555 1_555
H20 C17 1_555 1_555
C18 C1 1_555 1_555
O4 C14 1_555 1_555
H21 O4 1_555 1_555
O5 C16 1_555 1_555
H22 O5 1_555 1_555
C13 C18 1_555 1_555
C17 C18 1_555 1_555

#END
