
#######################################################################
#
#                 Cambridge Crystallographic Data Centre
#                                CCDC 
#
#######################################################################
#
# If this CIF has been generated from an entry in the Cambridge 
# Structural Database, then it will include bibliographic, chemical, 
# crystal, experimental, refinement or atomic coordinate data resulting 
# from the CCDC's data processing and validation procedures.
#
#######################################################################

data_ZEBJOH02
_chemical_formula_moiety         '2(C6 H6 N12 O12),C4 H8 N8 O8'
_chemical_name_systematic        
'bis(1,3,4,7,8,10-hexanitrooctahydro-1H-5,2,6-(epiminomethanetriylimino)imidazo[4,5-b]pyrazine) 1,3,5,7-tetranitro-1,3,5,7-tetrazocane'
_symmetry_cell_setting           monoclinic
_symmetry_space_group_name_H-M   'P 21/c'
_symmetry_Int_Tables_number      14
_space_group_name_Hall           '-P 2ybc'
loop_
_symmetry_equiv_pos_site_id
_symmetry_equiv_pos_as_xyz
1 x,y,z
2 -x,1/2+y,1/2-z
3 -x,-y,-z
4 x,1/2-y,1/2+z
_cell_length_a                   16.403(2)
_cell_length_b                   9.9664(13)
_cell_length_c                   12.1775(16)
_cell_angle_alpha                90
_cell_angle_beta                 99.639(2)
_cell_angle_gamma                90
_cell_volume                     1962.66
_exptl_crystal_colour            colorless
_exptl_crystal_description       BLOCK
_cell_formula_units_Z            2
_chemical_properties_physical    Heat-sensitive
_exptl_crystal_recrystallization_method Acetone/Xylene
_exptl_crystal_preparation       Explosive
loop_
_atom_site_label
_atom_site_type_symbol
_atom_site_fract_x
_atom_site_fract_y
_atom_site_fract_z
O1 O 0.45403(14) 1.2804(3) 0.2134(2)
O2 O 0.49512(14) 1.1063(3) 0.3167(2)
O3 O 0.29548(15) 0.8069(3) 0.3536(2)
O4 O 0.17887(14) 0.9139(2) 0.30304(19)
O5 O 0.34763(15) 1.3227(3) -0.0331(2)
O6 O 0.30755(16) 1.1870(3) -0.1707(2)
O7 O 0.07773(13) 1.0870(2) 0.1465(2)
O8 O 0.06814(13) 0.9063(2) 0.04490(19)
O9 O 0.18224(13) 0.6485(2) 0.03576(19)
O10 O 0.30617(15) 0.5928(2) 0.1120(2)
O11 O 0.4053(3) 0.9013(6) -0.1525(4)
O12 O 0.4656(3) 0.7722(6) -0.0190(5)
N1 N 0.39249(15) 1.0822(3) 0.1716(2)
N2 N 0.45087(16) 1.1635(3) 0.2410(2)
N3 N 0.29387(15) 0.9914(3) 0.25284(19)
N4 N 0.25288(17) 0.8976(3) 0.3060(2)
N5 N 0.18939(14) 1.0108(3) 0.0853(2)
N6 N 0.10597(15) 0.9995(3) 0.0942(2)
N7 N 0.27164(14) 0.8100(3) 0.0999(2)
N8 N 0.25264(16) 0.6731(3) 0.0793(2)
N9 N 0.36748(15) 0.9074(3) 0.0137(2)
N10 N 0.4156(4) 0.8572(8) -0.0586(6)
N11 N 0.32056(16) 1.2174(3) -0.0723(2)
N12 N 0.29840(15) 1.1210(3) 0.0005(2)
C1 C 0.31539(17) 1.1489(3) 0.1178(2)
H1 H 0.3177 1.2477 0.1322
C2 C 0.24519(18) 1.0809(3) 0.1715(2)
H2 H 0.2148 1.1490 0.2095
C3 C 0.22606(18) 0.9105(3) 0.0234(2)
H3 H 0.1835 0.8667 -0.0337
C4 C 0.29360(17) 0.9822(3) -0.0322(2)
H4 H 0.2813 0.9733 -0.1151
C5 C 0.37179(18) 0.9555(3) 0.2165(2)
H5 H 0.4146 0.9263 0.2804
C6 C 0.35875(17) 0.8474(3) 0.1196(2)
H6 H 0.3957 0.7678 0.1375
O15 O 0.83137(14) 0.6438(2) 0.8922(2)
O16 O 0.84260(15) 0.6585(3) 1.0727(2)
O17 O 0.90352(16) 0.5818(3) 0.6867(2)
O18 O 0.89880(15) 0.3656(3) 0.71252(19)
N14 N 0.87054(16) 0.6435(3) 0.9870(2)
N15 N 0.95470(14) 0.6188(3) 0.9967(2)
N16 N 0.97836(16) 0.4888(3) 0.8373(2)
N17 N 0.92268(17) 0.4798(3) 0.7410(2)
C7 C 0.98951(19) 0.6170(3) 0.8940(3)
H7 H 0.9628 0.6880 0.8436
H8 H 1.0493 0.6375 0.9117
C8 C 0.99522(19) 0.3594(3) 0.8963(2)
H9 H 0.9424 0.3167 0.9059
H10 H 1.0243 0.2984 0.8516
O15B O 1.16863(14) 0.3562(2) 1.1078(2)
O16B O 1.15740(15) 0.3415(3) 0.9273(2)
O17B O 1.09648(16) 0.4182(3) 1.3133(2)
O18B O 1.10120(15) 0.6344(3) 1.28748(19)
N14B N 1.12946(16) 0.3565(3) 1.0130(2)
N15B N 1.04530(14) 0.3812(3) 1.0033(2)
N16B N 1.02164(16) 0.5112(3) 1.1627(2)
N17B N 1.07732(17) 0.5202(3) 1.2590(2)
C7B C 1.01049(19) 0.3830(3) 1.1060(3)
H7B H 1.0372 0.3120 1.1564
H8B H 0.9507 0.3625 1.0883
C8B C 1.00478(19) 0.6406(3) 1.1037(2)
H9B H 1.0576 0.6833 1.0941
H10B H 0.9757 0.7016 1.1484
O13? O 0.4400(3) 0.9837(6) -0.1015(5)
O14? O 0.4996(3) 0.8634(6) 0.0386(5)
N13? N 0.4404(4) 0.9161(8) -0.0179(6)
loop_
_geom_bond_atom_site_label_1
_geom_bond_atom_site_label_2
_geom_bond_site_symmetry_1
_geom_bond_site_symmetry_2
O1 N2 1_555 1_555
O2 N2 1_555 1_555
O3 N4 1_555 1_555
O4 N4 1_555 1_555
O5 N11 1_555 1_555
O6 N11 1_555 1_555
O7 N6 1_555 1_555
O8 N6 1_555 1_555
O9 N8 1_555 1_555
O10 N8 1_555 1_555
O11 N10 1_555 1_555
O12 N10 1_555 1_555
N1 N2 1_555 1_555
N3 N4 1_555 1_555
N5 N6 1_555 1_555
N7 N8 1_555 1_555
N9 N10 1_555 1_555
N11 N12 1_555 1_555
N12 C1 1_555 1_555
C1 N1 1_555 1_555
H1 C1 1_555 1_555
C2 N3 1_555 1_555
H2 C2 1_555 1_555
C3 N5 1_555 1_555
H3 C3 1_555 1_555
C4 N9 1_555 1_555
H4 C4 1_555 1_555
C5 N1 1_555 1_555
H5 C5 1_555 1_555
C6 N7 1_555 1_555
H6 C6 1_555 1_555
O15 N14 1_555 1_555
O16 N14 1_555 1_555
O17 N17 1_555 1_555
O18 N17 1_555 1_555
N14 N15 1_555 1_555
N15 C7 1_555 1_555
N16 N17 1_555 1_555
C7 N16 1_555 1_555
H7 C7 1_555 1_555
H8 C7 1_555 1_555
C8 N16 1_555 1_555
H9 C8 1_555 1_555
H10 C8 1_555 1_555
O15B N14B 1_555 1_555
O16B N14B 1_555 1_555
O17B N17B 1_555 1_555
O18B N17B 1_555 1_555
N14B N15B 1_555 1_555
N15B C8 1_555 1_555
N16B N17B 1_555 1_555
C7B N15B 1_555 1_555
H7B C7B 1_555 1_555
H8B C7B 1_555 1_555
C8B N15 1_555 1_555
H9B C8B 1_555 1_555
H10B C8B 1_555 1_555
N3 C5 1_555 1_555
N5 C2 1_555 1_555
N7 C3 1_555 1_555
N9 C6 1_555 1_555
N12 C4 1_555 1_555
C1 C2 1_555 1_555
C3 C4 1_555 1_555
C5 C6 1_555 1_555
N16B C7B 1_555 1_555
N16B C8B 1_555 1_555

#END
