
#######################################################################
#
#                 Cambridge Crystallographic Data Centre
#                                CCDC 
#
#######################################################################
#
# If this CIF has been generated from an entry in the Cambridge 
# Structural Database, then it will include bibliographic, chemical, 
# crystal, experimental, refinement or atomic coordinate data resulting 
# from the CCDC's data processing and validation procedures.
#
#######################################################################

data_ZEBKUO
_chemical_formula_moiety         'C12 H8 O1,C6 F4 I2'
_chemical_name_systematic        
'Dibenzo[b,d]furan 1,2,4,5-tetrafluoro-3,6-diiodobenzene'
_symmetry_cell_setting           triclinic
_symmetry_space_group_name_H-M   'P -1'
_symmetry_Int_Tables_number      2
_space_group_name_Hall           '-P 1'
loop_
_symmetry_equiv_pos_site_id
_symmetry_equiv_pos_as_xyz
1 x,y,z
2 -x,-y,-z
_cell_length_a                   5.4259(11)
_cell_length_b                   5.7691(11)
_cell_length_c                   13.919(3)
_cell_angle_alpha                90.582(3)
_cell_angle_beta                 101.061(3)
_cell_angle_gamma                101.593(3)
_cell_volume                     418.345
_exptl_crystal_colour            colorless
_cell_formula_units_Z            1
loop_
_atom_site_label
_atom_site_type_symbol
_atom_site_fract_x
_atom_site_fract_y
_atom_site_fract_z
C4 C 0.5801(11) -0.1593(10) 1.0648(4)
C5 C 0.7429(16) -0.2529(14) 1.1365(5)
C6 C 0.9847(15) -0.1201(18) 1.1773(5)
C7 C 1.0637(11) 0.1063(18) 1.1464(6)
C8 C 0.9009(10) 0.1999(13) 1.0747(6)
C9 C 0.6591(9) 0.0671(9) 1.0339(4)
O1 O 0.3471(13) -0.2833(9) 1.0234(5)
C10 C 0.5837(9) -0.0683(9) 1.0432(4)
C11 C 0.6442(14) -0.2447(12) 1.1052(5)
C12 C 0.8806(16) -0.2086(16) 1.1693(5)
C13 C 1.0564(12) 0.0038(18) 1.1712(5)
C14 C 0.9959(10) 0.1802(15) 1.1091(5)
C15 C 0.7595(9) 0.1441(10) 1.0451(4)
C4A C 0.4199(11) 0.1593(10) 0.9352(4)
C5A C 0.2571(16) 0.2529(14) 0.8635(5)
C6A C 0.0153(15) 0.1201(18) 0.8227(5)
C7A C -0.0637(11) -0.1063(18) 0.8536(6)
C8A C 0.0991(10) -0.1999(13) 0.9253(6)
C9A C 0.3409(9) -0.0671(9) 0.9661(4)
O1A O 0.6529(13) 0.2833(9) 0.9766(5)
C10A C 0.4163(9) 0.0683(9) 0.9568(4)
C11A C 0.3558(14) 0.2447(12) 0.8948(5)
C12A C 0.1194(16) 0.2086(16) 0.8307(5)
C13A C -0.0564(12) -0.0038(18) 0.8288(5)
C14A C 0.0041(10) -0.1802(15) 0.8909(5)
C15A C 0.2405(9) -0.1441(10) 0.9549(4)
C1 C 0.3964(15) 0.6249(14) 0.5639(6)
C2 C 0.3482(15) 0.6558(14) 0.4640(6)
C3 C 0.5476(17) 0.4688(15) 0.5983(6)
F1 F 0.1990(10) 0.8032(9) 0.4259(4)
F2 F 0.6010(11) 0.4334(10) 0.6943(4)
I1 I 0.24076(10) 0.81015(10) 0.65831(4)
C1A C 0.6036(15) 0.3751(14) 0.4361(6)
C2A C 0.6518(15) 0.3442(14) 0.5360(6)
C3A C 0.4524(17) 0.5312(15) 0.4017(6)
F1A F 0.8010(10) 0.1968(9) 0.5741(4)
F2A F 0.3990(11) 0.5666(10) 0.3057(4)
I1A I 0.75924(10) 0.18985(10) 0.34169(4)
H1? H 0.6888 -0.4076 1.1577
H2? H 1.0959 -0.1840 1.2263
H3? H 1.2290 0.1971 1.1742
H4? H 0.9549 0.3546 1.0535
H5? H 0.4760 0.3899 0.8961
H6? H 0.0781 0.3291 0.7883
H7? H -0.2179 -0.0285 0.7851
H8? H -0.1160 -0.3253 0.8895
loop_
_geom_bond_atom_site_label_1
_geom_bond_atom_site_label_2
_geom_bond_site_symmetry_1
_geom_bond_site_symmetry_2
C1 C2 1_555 1_555
C2 F1 1_555 1_555
C3 C1 1_555 1_555
C4 C5 1_555 1_555
C5 C6 1_555 1_555
C6 C7 1_555 1_555
C7 C8 1_555 1_555
C8 C9 1_555 1_555
C9 C4 1_555 1_555
O1 C4 1_555 1_555
C10 C4 1_555 1_555
C11 C4 1_555 1_555
C12 C5 1_555 1_555
C13 C6 1_555 1_555
C14 C7 1_555 1_555
C15 C8 1_555 1_555
F2 C3 1_555 1_555
I1 C1 1_555 1_555
C1A C2A 1_555 1_555
C2A C3 1_555 1_555
C3A C2 1_555 1_555
C4A C5A 1_555 1_555
C5A C6A 1_555 1_555
C6A C7A 1_555 1_555
C7A C8A 1_555 1_555
C8A C9A 1_555 1_555
C9A O1 1_555 1_555
O1A C9 1_555 1_555
C10A C9 1_555 1_555
C11A C4A 1_555 1_555
C12A C5A 1_555 1_555
C13A C6A 1_555 1_555
C14A C7A 1_555 1_555
C15A O1 1_555 1_555
F1A C2A 1_555 1_555
F2A C3A 1_555 1_555
I1A C1A 1_555 1_555
C5 C11 1_555 1_555
C6 C12 1_555 1_555
C7 C13 1_555 1_555
C8 C14 1_555 1_555
C9 C10 1_555 1_555
C9 C15 1_555 1_555
O1 C10 1_555 1_555
C10 C11 1_555 1_555
C10 C15 1_555 1_555
C10 C9A 1_555 1_555
C11 C12 1_555 1_555
C12 C13 1_555 1_555
C13 C14 1_555 1_555
C14 C15 1_555 1_555
C15 O1A 1_555 1_555
C1A C3A 1_555 1_555
C4A C9A 1_555 1_555
C4A O1A 1_555 1_555
C4A C10A 1_555 1_555
C5A C11A 1_555 1_555
C6A C12A 1_555 1_555
C7A C13A 1_555 1_555
C8A C14A 1_555 1_555
C8A C15A 1_555 1_555
C9A C10A 1_555 1_555
C9A C15A 1_555 1_555
O1A C10A 1_555 1_555
C10A C11A 1_555 1_555
C10A C15A 1_555 1_555
C11A C12A 1_555 1_555
C12A C13A 1_555 1_555
C13A C14A 1_555 1_555
C14A C15A 1_555 1_555

#END
