
#######################################################################
#
#                 Cambridge Crystallographic Data Centre
#                                CCDC 
#
#######################################################################
#
# If this CIF has been generated from an entry in the Cambridge 
# Structural Database, then it will include bibliographic, chemical, 
# crystal, experimental, refinement or atomic coordinate data resulting 
# from the CCDC's data processing and validation procedures.
#
#######################################################################

data_ZEBSUX
_chemical_formula_moiety         '2(H4 N1 1+),C3 N6 O7 2-'
_chemical_name_systematic        
'Diammonium 3-(dinitromethanidyl)-4-(nitroazanidyl)-1,2,5-oxadiazole'
_symmetry_cell_setting           triclinic
_symmetry_space_group_name_H-M   'P -1'
_symmetry_Int_Tables_number      2
_space_group_name_Hall           '-P 1'
loop_
_symmetry_equiv_pos_site_id
_symmetry_equiv_pos_as_xyz
1 x,y,z
2 -x,-y,-z
_cell_length_a                   7.588(2)
_cell_length_b                   7.666(2)
_cell_length_c                   10.104(3)
_cell_angle_alpha                105.941(6)
_cell_angle_beta                 91.695(6)
_cell_angle_gamma                114.650(5)
_cell_volume                     506.61
_exptl_crystal_colour            yellow
_exptl_crystal_description       prismatic
_cell_formula_units_Z            2
loop_
_atom_site_label
_atom_site_type_symbol
_atom_site_fract_x
_atom_site_fract_y
_atom_site_fract_z
N1 N 0.5557(3) 0.3029(3) -0.0093(2)
N2 N 0.4289(3) 0.2212(3) 0.1813(2)
N3 N 0.8423(3) 0.6182(3) 0.1271(2)
N4 N 0.9053(3) 0.6583(3) 0.0142(2)
N5 N 0.7044(3) 0.7044(3) 0.4214(2)
N6 N 0.7231(3) 0.4126(3) 0.4579(2)
O1 O 0.4043(3) 0.1625(2) 0.03737(18)
O2 O 0.8217(3) 0.5551(3) -0.10667(18)
O3 O 1.0649(2) 0.8208(3) 0.03752(18)
O4 O 0.6356(3) 0.7643(3) 0.3392(2)
O5 O 0.7947(4) 0.8186(3) 0.5391(2)
O6 O 0.8026(3) 0.5032(3) 0.58232(19)
O7 O 0.6815(3) 0.2262(2) 0.40646(18)
C1 C 0.6688(3) 0.4435(3) 0.1061(2)
C2 C 0.5891(3) 0.3910(3) 0.2247(2)
C3 C 0.6735(3) 0.5021(3) 0.3723(2)
N7 N 0.9324(5) 0.0968(4) 0.2238(3)
H1 H 1.035(7) 0.185(7) 0.284(5)
H2 H 0.917(5) 0.136(5) 0.143(4)
H3 H 0.918(8) -0.022(8) 0.211(5)
H4 H 0.831(8) 0.093(7) 0.266(5)
N8 N 0.2922(5) 0.8392(4) 0.2915(3)
H5 H 0.182(9) 0.814(8) 0.247(6)
H6 H 0.276(7) 0.779(7) 0.354(5)
H7 H 0.364(8) 0.807(8) 0.246(6)
H8 H 0.354(7) 0.973(7) 0.338(5)
loop_
_geom_bond_atom_site_label_1
_geom_bond_atom_site_label_2
_geom_bond_site_symmetry_1
_geom_bond_site_symmetry_2
N1 O1 1_555 1_555
N2 O1 1_555 1_555
N3 N4 1_555 1_555
N4 O2 1_555 1_555
N5 O4 1_555 1_555
N6 O6 1_555 1_555
O3 N4 1_555 1_555
O5 N5 1_555 1_555
O7 N6 1_555 1_555
C1 N1 1_555 1_555
C2 N2 1_555 1_555
C3 N5 1_555 1_555
N7 H1 1_555 1_555
H2 N7 1_555 1_555
H3 N7 1_555 1_555
H4 N7 1_555 1_555
N8 H5 1_555 1_555
H6 N8 1_555 1_555
H7 N8 1_555 1_555
H8 N8 1_555 1_555
N3 C1 1_555 1_555
N6 C3 1_555 1_555
C1 C2 1_555 1_555
C2 C3 1_555 1_555

#END
