
#######################################################################
#
#                 Cambridge Crystallographic Data Centre
#                                CCDC 
#
#######################################################################
#
# If this CIF has been generated from an entry in the Cambridge 
# Structural Database, then it will include bibliographic, chemical, 
# crystal, experimental, refinement or atomic coordinate data resulting 
# from the CCDC's data processing and validation procedures.
#
#######################################################################

data_ZEBTIM
_chemical_formula_moiety         'C3 N6 O7 2-,2(H4 N1 O1 1+)'
_chemical_name_systematic        
'bis(hydroxyammonium) 3-(dinitromethanidyl)-4-(nitroazanidyl)-1,2,5-oxadiazole'
_symmetry_cell_setting           monoclinic
_symmetry_space_group_name_H-M   'C 2/c'
_symmetry_Int_Tables_number      15
_space_group_name_Hall           '-C 2yn'
loop_
_symmetry_equiv_pos_site_id
_symmetry_equiv_pos_as_xyz
1 x,y,z
2 -x,y,1/2-z
3 1/2+x,1/2+y,z
4 1/2-x,1/2+y,1/2-z
5 -x,-y,-z
6 x,-y,1/2+z
7 1/2-x,1/2-y,-z
8 1/2+x,1/2-y,1/2+z
_cell_length_a                   12.6849(19)
_cell_length_b                   8.1184(12)
_cell_length_c                   20.797(3)
_cell_angle_alpha                90
_cell_angle_beta                 105.296(3)
_cell_angle_gamma                90
_cell_volume                     2065.83
_exptl_crystal_colour            green
_exptl_crystal_description       prismatic
_cell_formula_units_Z            8
loop_
_atom_site_label
_atom_site_type_symbol
_atom_site_fract_x
_atom_site_fract_y
_atom_site_fract_z
O1 O 0.37399(10) 1.10712(14) 0.27375(5)
O2 O 0.38247(10) 0.44287(14) 0.26261(6)
O3 O 0.37873(9) 0.65609(15) 0.19853(5)
O4 O 0.55571(9) 0.76050(15) 0.41365(6)
O5 O 0.51766(10) 0.72712(17) 0.50765(6)
O6 O 0.35570(11) 0.89541(16) 0.52404(5)
O7 O 0.27154(9) 1.05180(14) 0.44235(6)
N1 N 0.36387(11) 0.94781(17) 0.24785(6)
N2 N 0.39191(12) 1.10571(16) 0.34192(6)
N3 N 0.36850(11) 0.68421(16) 0.30444(6)
N4 N 0.37607(10) 0.59779(16) 0.25285(6)
N5 N 0.49705(10) 0.78858(16) 0.45182(6)
N6 N 0.34419(10) 0.94670(16) 0.46591(6)
C1 C 0.37407(12) 0.85231(19) 0.29975(7)
C2 C 0.39191(12) 0.95231(19) 0.35856(7)
C3 C 0.40916(12) 0.89478(18) 0.42713(7)
O8 O 0.84483(10) 0.99911(17) 0.40500(7)
N7 N 0.75225(13) 0.9020(2) 0.39815(8)
H1 H 0.7137(18) 0.944(3) 0.4217(11)
H2 H 0.712(2) 0.892(3) 0.3583(13)
H3 H 0.776(2) 0.808(3) 0.4125(12)
H4 H 0.839(2) 1.057(3) 0.3682(14)
O9 O 0.37062(11) 0.71901(16) 0.64818(6)
N8 N 0.43243(13) 0.6239(2) 0.61538(8)
H5 H 0.499(2) 0.609(3) 0.6412(12)
H6 H 0.4336(17) 0.676(3) 0.5788(12)
H7 H 0.401(2) 0.525(3) 0.6024(12)
H8 H 0.3806(17) 0.670(3) 0.6869(11)
loop_
_geom_bond_atom_site_label_1
_geom_bond_atom_site_label_2
_geom_bond_site_symmetry_1
_geom_bond_site_symmetry_2
O1 N1 1_555 1_555
O2 N4 1_555 1_555
O3 N4 1_555 1_555
O4 N5 1_555 1_555
O5 N5 1_555 1_555
O6 N6 1_555 1_555
O7 N6 1_555 1_555
N1 C1 1_555 1_555
N2 O1 1_555 1_555
N3 N4 1_555 1_555
N5 C3 1_555 1_555
N6 C3 1_555 1_555
C1 N3 1_555 1_555
C2 N2 1_555 1_555
C3 C2 1_555 1_555
O8 N7 1_555 1_555
N7 H1 1_555 1_555
H2 N7 1_555 1_555
H3 N7 1_555 1_555
H4 O8 1_555 1_555
O9 N8 1_555 1_555
N8 H5 1_555 1_555
H6 N8 1_555 1_555
H7 N8 1_555 1_555
H8 O9 1_555 1_555
C1 C2 1_555 1_555

#END
