
#######################################################################
#
#                 Cambridge Crystallographic Data Centre
#                                CCDC 
#
#######################################################################
#
# If this CIF has been generated from an entry in the Cambridge 
# Structural Database, then it will include bibliographic, chemical, 
# crystal, experimental, refinement or atomic coordinate data resulting 
# from the CCDC's data processing and validation procedures.
#
#######################################################################

data_ZEBTOP01
_chemical_formula_moiety         'C22 H21 N3 O2'
_chemical_name_systematic        
(1RS,3SR,3aRS,6aSR)-4-(5-Benzyl-2,3-dimethyl-4,6-dioxoperhydropyrrolo(3,4-c)pyrrol-1-yl)benzonitrile
_chemical_properties_biological  'potential thrombin inhibitory activity'
_symmetry_cell_setting           triclinic
_symmetry_space_group_name_H-M   'P -1'
_symmetry_Int_Tables_number      2
_space_group_name_Hall           '-P 1'
loop_
_symmetry_equiv_pos_site_id
_symmetry_equiv_pos_as_xyz
1 x,y,z
2 -x,-y,-z
_cell_length_a                   9.352(8)
_cell_length_b                   10.004(7)
_cell_length_c                   10.882(9)
_cell_angle_alpha                95.55(6)
_cell_angle_beta                 94.39(7)
_cell_angle_gamma                110.73(7)
_cell_volume                     940.981
_exptl_crystal_colour            colorless
_exptl_crystal_description       plate
_chemical_melting_point          188-190deg.C
_cell_formula_units_Z            2
_exptl_crystal_recrystallization_method 'ethyl acetate'
loop_
_atom_site_label
_atom_site_type_symbol
_atom_site_fract_x
_atom_site_fract_y
_atom_site_fract_z
N1 N -0.0345(5) -0.3928(4) -0.3449(3)
O1 O -0.1485(4) -0.5451(4) -0.2055(3)
C1 C 0.3354(5) -0.2779(4) -0.2267(4)
H1 H 0.4309(8) -0.2938(8) -0.2195(7)
O2 O 0.1230(4) -0.2777(4) -0.4838(3)
C2 C 0.3673(5) -0.1249(5) -0.2553(4)
C3 C 0.4917(5) -0.0555(6) -0.3165(4)
H2 H 0.5593(8) -0.1050(8) -0.3380(7)
N2 N 0.2654(4) -0.3046(4) -0.1115(3)
C4 C 0.2974(5) 0.0837(5) -0.2548(4)
H3 H 0.2302(8) 0.1333(8) -0.2325(8)
C5 C 0.4216(6) 0.1512(5) -0.3164(4)
C6 C -0.0376(6) -0.4890(5) -0.2590(5)
C7 C -0.1238(5) -0.0889(6) -0.3724(5)
H4 H -0.1125(8) -0.0974(8) -0.4595(7)
C8 C 0.1929(5) -0.4611(5) -0.1117(4)
H5 H 0.1147(8) -0.4805(8) -0.0563(8)
C9 C 0.2141(5) -0.3974(5) -0.3264(4)
H6 H 0.2643(8) -0.4401(8) -0.3833(8)
C10 C -0.1546(5) -0.2095(5) -0.3140(5)
C11 C 0.1143(5) -0.5069(5) -0.2491(4)
H7 H 0.1036(8) -0.6040(8) -0.2785(8)
C12 C 0.2703(5) -0.0533(5) -0.2231(4)
H8 H 0.1842(8) -0.0997(9) -0.1798(8)
C13 C -0.1660(5) -0.3517(5) -0.3812(4)
H9 H -0.2592(8) -0.4250(8) -0.3648(8)
H10 H -0.1720(8) -0.3459(9) -0.4689(7)
C14 C 0.4441(5) 0.2928(6) -0.3481(5)
C15 C 0.1027(6) -0.3464(5) -0.3965(5)
C16 C 0.5193(5) 0.0813(6) -0.3465(5)
H11 H 0.6067(8) 0.1287(8) -0.3884(7)
N3 N 0.4580(5) 0.4046(5) -0.3709(4)
C17 C 0.3706(5) -0.2298(5) 0.0002(4)
H12 H 0.4136(8) -0.1285(8) -0.0073(8)
H13 H 0.3156(8) -0.2447(8) 0.0717(7)
H14 H 0.4520(8) -0.2670(8) 0.0084(8)
C18 C -0.1733(5) -0.1963(6) -0.1888(5)
H15 H -0.1958(8) -0.2792(8) -0.1455(7)
C19 C 0.2994(6) -0.5388(5) -0.0806(4)
H16 H 0.3451(8) -0.5077(9) 0.0042(7)
H17 H 0.2423(8) -0.6408(9) -0.0916(7)
H18 H 0.3789(8) -0.5177(9) -0.1346(7)
C20 C -0.1094(5) 0.0418(6) -0.3102(7)
H19 H -0.0875(8) 0.1246(8) -0.3537(6)
C21 C -0.1253(6) 0.0542(7) -0.1861(7)
H20 H -0.1137(8) 0.1457(9) -0.1414(8)
C22 C -0.1575(6) -0.0649(8) -0.1270(5)
H21 H -0.1709(8) -0.0561(9) -0.0401(7)
loop_
_geom_bond_atom_site_label_1
_geom_bond_atom_site_label_2
_geom_bond_site_symmetry_1
_geom_bond_site_symmetry_2
N1 C6 1_555 1_555
O1 C6 1_555 1_555
C1 H1 1_555 1_555
O2 C15 1_555 1_555
C2 C1 1_555 1_555
C3 C2 1_555 1_555
H2 C3 1_555 1_555
N2 C1 1_555 1_555
C4 H3 1_555 1_555
C5 C4 1_555 1_555
C6 C11 1_555 1_555
C7 H4 1_555 1_555
C8 N2 1_555 1_555
H5 C8 1_555 1_555
C9 C1 1_555 1_555
H6 C9 1_555 1_555
C10 C7 1_555 1_555
C11 C8 1_555 1_555
H7 C11 1_555 1_555
C12 C2 1_555 1_555
H8 C12 1_555 1_555
C13 N1 1_555 1_555
H9 C13 1_555 1_555
H10 C13 1_555 1_555
C14 C5 1_555 1_555
C15 N1 1_555 1_555
C16 C3 1_555 1_555
H11 C16 1_555 1_555
N3 C14 1_555 1_555
C17 N2 1_555 1_555
H12 C17 1_555 1_555
H13 C17 1_555 1_555
H14 C17 1_555 1_555
C18 C10 1_555 1_555
H15 C18 1_555 1_555
C19 C8 1_555 1_555
H16 C19 1_555 1_555
H17 C19 1_555 1_555
H18 C19 1_555 1_555
C20 C7 1_555 1_555
H19 C20 1_555 1_555
C21 C20 1_555 1_555
H20 C21 1_555 1_555
C22 C18 1_555 1_555
H21 C22 1_555 1_555
C4 C12 1_555 1_555
C5 C16 1_555 1_555
C9 C11 1_555 1_555
C9 C15 1_555 1_555
C10 C13 1_555 1_555
C21 C22 1_555 1_555

#END
