
#######################################################################
#
#                 Cambridge Crystallographic Data Centre
#                                CCDC 
#
#######################################################################
#
# If this CIF has been generated from an entry in the Cambridge 
# Structural Database, then it will include bibliographic, chemical, 
# crystal, experimental, refinement or atomic coordinate data resulting 
# from the CCDC's data processing and validation procedures.
#
#######################################################################

data_ZEBTIJ
_chemical_formula_moiety         'C34 H24 Br2 O4'
_chemical_name_systematic        
7,7'-Dibenzyloxy-3,3'-dibromo-1,1'-binaphthyl-2,2'-diol
_symmetry_cell_setting           orthorhombic
_symmetry_space_group_name_H-M   'P c c n'
_symmetry_Int_Tables_number      56
_space_group_name_Hall           '-P 2ab 2ac'
loop_
_symmetry_equiv_pos_site_id
_symmetry_equiv_pos_as_xyz
1 x,y,z
2 1/2-x,1/2-y,z
3 1/2+x,-y,1/2-z
4 -x,1/2+y,1/2-z
5 -x,-y,-z
6 1/2+x,1/2+y,-z
7 1/2-x,y,1/2+z
8 x,1/2-y,1/2+z
_cell_length_a                   10.928(6)
_cell_length_b                   15.873(11)
_cell_length_c                   16.415(11)
_cell_angle_alpha                90
_cell_angle_beta                 90
_cell_angle_gamma                90
_cell_volume                     2847.35
_exptl_crystal_colour            colorless
_cell_formula_units_Z            4
loop_
_atom_site_label
_atom_site_type_symbol
_atom_site_fract_x
_atom_site_fract_y
_atom_site_fract_z
Br1 Br 0.3982(1) 0.3226(1) 0.0808(1)
O1 O 0.6686(5) 0.3328(4) 0.1160(3)
C1 C 0.4883(7) 0.2619(6) 0.1603(5)
C2 C 0.4321(7) 0.2081(5) 0.2114(5)
C3 C 0.4966(7) 0.1676(5) 0.2748(4)
C4 C 0.4390(7) 0.1133(5) 0.3310(5)
C5 C 0.5004(7) 0.0759(5) 0.3910(5)
C6 C 0.6295(7) 0.0929(6) 0.3998(5)
C7 C 0.6891(7) 0.1453(5) 0.3485(5)
C8 C 0.6245(7) 0.1857(5) 0.2836(4)
C9 C 0.6820(6) 0.2409(5) 0.2294(5)
C10 C 0.6131(7) 0.2798(5) 0.1693(5)
C11 C 0.8125(7) 0.0547(6) 0.4724(5)
C12 C 0.8495(7) -0.0049(6) 0.5392(6)
C13 C 0.8628(8) -0.0894(7) 0.5237(6)
C14 C 0.8983(9) -0.1448(6) 0.5843(8)
C15 C 0.9241(8) -0.1126(8) 0.6600(7)
C16 C 0.9111(9) -0.0305(7) 0.6761(6)
O2 O 0.6815(5) 0.0512(4) 0.4651(3)
C17 C 0.8763(8) 0.0247(6) 0.6166(6)
C9A C 0.8180(6) 0.2591(5) 0.2294(5)
C8A C 0.8755(7) 0.3143(5) 0.2836(4)
C10A C 0.8869(7) 0.2202(5) 0.1693(5)
C3A C 1.0034(7) 0.3324(5) 0.2748(4)
C7A C 0.8109(7) 0.3547(5) 0.3485(5)
O1A O 0.8314(5) 0.1672(4) 0.1160(3)
C1A C 1.0117(7) 0.2381(6) 0.1603(5)
C2A C 1.0679(7) 0.2919(5) 0.2114(5)
C4A C 1.0610(7) 0.3867(5) 0.3310(5)
C6A C 0.8705(7) 0.4071(6) 0.3998(5)
Br1A Br 1.1018(1) 0.1774(1) 0.0808(1)
C5A C 0.9996(7) 0.4241(5) 0.3910(5)
O2A O 0.8185(5) 0.4488(4) 0.4651(3)
C11A C 0.6875(7) 0.4453(6) 0.4724(5)
C12A C 0.6505(7) 0.5049(6) 0.5392(6)
C13A C 0.6372(8) 0.5894(7) 0.5237(6)
C17A C 0.6237(8) 0.4753(6) 0.6166(6)
C14A C 0.6017(9) 0.6448(6) 0.5843(8)
C16A C 0.5889(9) 0.5305(7) 0.6761(6)
C15A C 0.5759(8) 0.6126(8) 0.6600(7)
loop_
_geom_bond_atom_site_label_1
_geom_bond_atom_site_label_2
_geom_bond_site_symmetry_1
_geom_bond_site_symmetry_2
Br1 C1 1_555 1_555
O1 C10 1_555 1_555
C1 C2 1_555 1_555
C2 C3 1_555 1_555
C3 C4 1_555 1_555
C4 C5 1_555 1_555
C5 C6 1_555 1_555
C6 C7 1_555 1_555
C7 C8 1_555 1_555
C8 C3 1_555 1_555
C9 C8 1_555 1_555
C10 C1 1_555 1_555
C11 C12 1_555 1_555
C12 C13 1_555 1_555
C13 C14 1_555 1_555
C14 C15 1_555 1_555
C15 C16 1_555 1_555
C16 C17 1_555 1_555
O2 C6 1_555 1_555
C17 C12 1_555 1_555
C9A C9 1_555 1_555
C8A C9A 1_555 1_555
C10A C9A 1_555 1_555
C3A C8A 1_555 1_555
C7A C8A 1_555 1_555
O1A C10A 1_555 1_555
C1A C10A 1_555 1_555
C2A C3A 1_555 1_555
C4A C3A 1_555 1_555
C6A C7A 1_555 1_555
Br1A C1A 1_555 1_555
C5A C4A 1_555 1_555
O2A C6A 1_555 1_555
C11A O2A 1_555 1_555
C12A C11A 1_555 1_555
C13A C12A 1_555 1_555
C17A C12A 1_555 1_555
C14A C13A 1_555 1_555
C16A C17A 1_555 1_555
C15A C14A 1_555 1_555
C9 C10 1_555 1_555
C11 O2 1_555 1_555
C1A C2A 1_555 1_555
C6A C5A 1_555 1_555
C16A C15A 1_555 1_555

#END
