
#######################################################################
#
#                 Cambridge Crystallographic Data Centre
#                                CCDC 
#
#######################################################################
#
# If this CIF has been generated from an entry in the Cambridge 
# Structural Database, then it will include bibliographic, chemical, 
# crystal, experimental, refinement or atomic coordinate data resulting 
# from the CCDC's data processing and validation procedures.
#
#######################################################################

data_ZEBWEI
_chemical_compound_source        'from Artabotrys zeylanicus'
_chemical_name_common            Artabotrine
_chemical_formula_moiety         'C18 H11 N1 O5'
_chemical_name_systematic        N-Methoxynorcepharadione
_symmetry_cell_setting           monoclinic
_symmetry_space_group_name_H-M   'P 21/n'
_symmetry_Int_Tables_number      14
_space_group_name_Hall           '-P 2yn'
loop_
_symmetry_equiv_pos_site_id
_symmetry_equiv_pos_as_xyz
1 x,y,z
2 1/2-x,1/2+y,1/2-z
3 -x,-y,-z
4 1/2+x,1/2-y,1/2+z
_cell_length_a                   8.322(1)
_cell_length_b                   10.007(1)
_cell_length_c                   16.452(4)
_cell_angle_alpha                90
_cell_angle_beta                 93.567(7)
_cell_angle_gamma                90
_cell_volume                     1367.44
_exptl_crystal_colour            orange-yellow
_chemical_melting_point          287-289deg.C
_cell_formula_units_Z            4
loop_
_atom_site_label
_atom_site_type_symbol
_atom_site_fract_x
_atom_site_fract_y
_atom_site_fract_z
O1 O 0.2725(1) -0.0147(1) 1.1939(1)
O2 O 0.1141(1) 0.1729(1) 1.2081(1)
O3 O -0.0341(2) 0.3493(1) 0.9162(1)
O4 O 0.0190(1) 0.2466(1) 0.7671(1)
O5 O 0.1889(1) 0.0249(1) 0.7517(1)
C1 C 0.2244(2) 0.0340(1) 1.1189(1)
C2 C 0.1309(2) 0.1464(2) 1.1271(1)
C3 C 0.0678(2) 0.2177(2) 1.0620(1)
C4 C 0.1028(2) 0.1704(1) 0.9846(1)
C5 C 0.0416(2) 0.2457(2) 0.9134(1)
C6 C 0.0733(2) 0.1917(2) 0.8290(1)
N1 N 0.1663(1) 0.0803(1) 0.8280(1)
C7 C 0.2338(2) 0.0091(1) 0.8958(1)
C8 C 0.3296(2) -0.0981(1) 0.8853(1)
C9 C 0.3979(2) -0.1716(1) 0.9534(1)
C10 C 0.5010(2) -0.2802(1) 0.9407(1)
C11 C 0.5699(2) -0.3503(2) 1.0054(1)
C12 C 0.5346(2) -0.3160(2) 1.0846(1)
C13 C 0.4333(2) -0.2113(2) 1.0985(1)
C14 C 0.3644(2) -0.1344(1) 1.0335(1)
C15 C 0.2636(2) -0.0181(1) 1.0439(1)
C16 C 0.1976(2) 0.0559(1) 0.9753(1)
C17 C 0.1989(2) 0.0689(2) 1.2527(1)
C18 C 0.3256(2) 0.0855(2) 0.7154(1)
H1 H 0.0044(21) 0.2977(17) 1.0668(9)
H2 H 0.3573(20) -0.1239(16) 0.8306(10)
H3 H 0.5200(20) -0.3033(15) 0.8861(10)
H4 H 0.6426(20) -0.4269(16) 0.9965(9)
H5 H 0.5805(20) -0.3691(16) 1.1309(10)
H6 H 0.4138(19) -0.1899(16) 1.1534(10)
H7 H 0.1189(21) 0.0116(17) 1.2819(10)
H8 H 0.2840(21) 0.1059(16) 1.2904(10)
H9 H 0.3255(24) 0.0483(19) 0.6609(12)
H10 H 0.4261(25) 0.0609(18) 0.7463(11)
H11 H 0.3136(23) 0.1826(20) 0.7134(11)
loop_
_geom_bond_atom_site_label_1
_geom_bond_atom_site_label_2
_geom_bond_site_symmetry_1
_geom_bond_site_symmetry_2
O1 C1 1_555 1_555
O2 C2 1_555 1_555
O3 C5 1_555 1_555
O4 C6 1_555 1_555
O5 N1 1_555 1_555
C1 C2 1_555 1_555
C2 C3 1_555 1_555
C3 C4 1_555 1_555
C4 C5 1_555 1_555
C5 C6 1_555 1_555
C6 N1 1_555 1_555
N1 C7 1_555 1_555
C7 C8 1_555 1_555
C8 C9 1_555 1_555
C9 C10 1_555 1_555
C10 C11 1_555 1_555
C11 C12 1_555 1_555
C12 C13 1_555 1_555
C13 C14 1_555 1_555
C14 C9 1_555 1_555
C15 C1 1_555 1_555
C16 C4 1_555 1_555
C17 O1 1_555 1_555
C18 O5 1_555 1_555
H1 C3 1_555 1_555
H2 C8 1_555 1_555
H3 C10 1_555 1_555
H4 C11 1_555 1_555
H5 C12 1_555 1_555
H6 C13 1_555 1_555
H7 C17 1_555 1_555
H8 C17 1_555 1_555
H9 C18 1_555 1_555
H10 C18 1_555 1_555
H11 C18 1_555 1_555
O2 C17 1_555 1_555
C7 C16 1_555 1_555
C14 C15 1_555 1_555
C15 C16 1_555 1_555

#END
