
#######################################################################
#
#                 Cambridge Crystallographic Data Centre
#                                CCDC 
#
#######################################################################
#
# If this CIF has been generated from an entry in the Cambridge 
# Structural Database, then it will include bibliographic, chemical, 
# crystal, experimental, refinement or atomic coordinate data resulting 
# from the CCDC's data processing and validation procedures.
#
#######################################################################

data_ZEBXUB
_chemical_name_common            'rac-Oxiracetam 3,4-dihydroxybenzoic acid'
_chemical_formula_moiety         'C6 H10 N2 O3,C7 H6 O4'
_chemical_name_systematic        
'(RS)-2-(4-Hydroxy-2-oxopyrrolidin-1-yl)acetamide 3,4-dihydroxybenzoic acid'
_chemical_properties_biological  'Oxiracetam is a nootropic drug'
_symmetry_cell_setting           monoclinic
_symmetry_space_group_name_H-M   'P 21/c'
_symmetry_Int_Tables_number      14
_space_group_name_Hall           '-P 2ybc'
loop_
_symmetry_equiv_pos_site_id
_symmetry_equiv_pos_as_xyz
1 x,y,z
2 -x,1/2+y,1/2-z
3 -x,-y,-z
4 x,1/2-y,1/2+z
_cell_length_a                   10.7048(3)
_cell_length_b                   6.2392(2)
_cell_length_c                   21.4529(8)
_cell_angle_alpha                90
_cell_angle_beta                 107.200(3)
_cell_angle_gamma                90
_cell_volume                     1368.75
_exptl_crystal_colour            colorless
_exptl_crystal_description       plate
_cell_formula_units_Z            4
loop_
_atom_site_label
_atom_site_type_symbol
_atom_site_fract_x
_atom_site_fract_y
_atom_site_fract_z
O1 O 0.27374(12) -0.0928(2) 0.86178(6)
O2 O -0.03259(14) -0.0807(2) 0.84260(7)
O3 O -0.09469(12) 0.5384(2) 0.87854(6)
H1 H -0.0766 0.6647 0.8706
N1 N 0.24448(16) -0.1259(3) 0.75322(7)
H2 H 0.2969 -0.2464 0.7603
H3 H 0.2087 -0.0753 0.7146
N2 N 0.08467(15) 0.2222(3) 0.84325(7)
C1 C 0.22243(17) -0.0330(3) 0.80481(9)
C2 C 0.12951(18) 0.1577(3) 0.78916(9)
H4 H 0.1745 0.2801 0.7758
H5 H 0.0529 0.1202 0.7518
C3 C 0.00832(17) 0.0949(3) 0.86688(9)
C4 C -0.01624(18) 0.2018(3) 0.92511(9)
H6 H 0.0392 0.1390 0.9664
H7 H -0.1092 0.1893 0.9237
C5 C 0.02091(17) 0.4347(3) 0.91803(9)
H8 H 0.0560 0.5062 0.9614
C6 C 0.12511(18) 0.4171(3) 0.88223(9)
H9 H 0.1235 0.5435 0.8541
H10 H 0.2138 0.4013 0.9133
O4 O 0.43864(12) 0.5919(2) 0.90145(6)
H11 H 0.3841 0.6867 0.8835
O5 O 0.39042(13) 0.4769(2) 0.79836(6)
O6 O 0.65820(13) -0.2143(2) 0.82134(6)
H12 H 0.6398 -0.1673 0.7830
O7 O 0.75315(13) -0.2768(2) 0.95168(6)
H13 H 0.7723 -0.3386 0.9209
C7 C 0.44980(17) 0.4525(3) 0.85710(9)
C8 C 0.53336(17) 0.2669(3) 0.88267(9)
C9 C 0.55811(17) 0.1199(3) 0.83892(8)
H14 H 0.5238 0.1447 0.7933
C10 C 0.63181(17) -0.0613(3) 0.86085(8)
C11 C 0.68131(17) -0.0989(3) 0.92867(9)
C12 C 0.65656(18) 0.0466(4) 0.97219(9)
H15 H 0.6901 0.0210 1.0178
C13 C 0.58326(18) 0.2295(3) 0.94990(9)
H16 H 0.5669 0.3290 0.9801
loop_
_geom_bond_atom_site_label_1
_geom_bond_atom_site_label_2
_geom_bond_site_symmetry_1
_geom_bond_site_symmetry_2
O1 C1 1_555 1_555
O2 C3 1_555 1_555
O3 H1 1_555 1_555
N1 H2 1_555 1_555
H3 N1 1_555 1_555
N2 C2 1_555 1_555
C1 N1 1_555 1_555
C2 C1 1_555 1_555
H4 C2 1_555 1_555
H5 C2 1_555 1_555
C3 N2 1_555 1_555
C4 C3 1_555 1_555
H6 C4 1_555 1_555
H7 C4 1_555 1_555
C5 O3 1_555 1_555
H8 C5 1_555 1_555
C6 N2 1_555 1_555
H9 C6 1_555 1_555
H10 C6 1_555 1_555
O4 H11 1_555 1_555
O5 C7 1_555 1_555
O6 H12 1_555 1_555
O7 H13 1_555 1_555
C7 O4 1_555 1_555
C8 C7 1_555 1_555
C9 C8 1_555 1_555
H14 C9 1_555 1_555
C10 O6 1_555 1_555
C11 O7 1_555 1_555
C12 C11 1_555 1_555
H15 C12 1_555 1_555
C13 C8 1_555 1_555
H16 C13 1_555 1_555
C4 C5 1_555 1_555
C5 C6 1_555 1_555
C9 C10 1_555 1_555
C10 C11 1_555 1_555
C12 C13 1_555 1_555

#END
