
#######################################################################
#
#                 Cambridge Crystallographic Data Centre
#                                CCDC 
#
#######################################################################
#
# If this CIF has been generated from an entry in the Cambridge 
# Structural Database, then it will include bibliographic, chemical, 
# crystal, experimental, refinement or atomic coordinate data resulting 
# from the CCDC's data processing and validation procedures.
#
#######################################################################

data_ZEBXOV
_chemical_name_common            '(S)-Oxiracetam 3,4-dihydroxybenzoic acid'
_chemical_formula_moiety         'C6 H10 N2 O3,C7 H6 O4'
_chemical_name_systematic        
'(S)-2-(4-Hydroxy-2-oxopyrrolidin-1-yl)acetamide 3,4-dihydroxybenzoic acid'
_chemical_properties_biological  'Oxiracetam is a nootropic drug'
_symmetry_cell_setting           monoclinic
_symmetry_space_group_name_H-M   'C 2'
_symmetry_Int_Tables_number      5
_space_group_name_Hall           'C 2y'
loop_
_symmetry_equiv_pos_site_id
_symmetry_equiv_pos_as_xyz
1 x,y,z
2 -x,y,-z
3 1/2+x,1/2+y,z
4 1/2-x,1/2+y,-z
_cell_length_a                   22.2113(6)
_cell_length_b                   6.0673(2)
_cell_length_c                   11.2292(3)
_cell_angle_alpha                90
_cell_angle_beta                 112.595(3)
_cell_angle_gamma                90
_cell_volume                     1397.12
_exptl_crystal_colour            colorless
_exptl_crystal_description       block
_cell_formula_units_Z            4
loop_
_atom_site_label
_atom_site_type_symbol
_atom_site_fract_x
_atom_site_fract_y
_atom_site_fract_z
C1 C 0.31248(12) 0.2390(4) 0.7347(2)
C2 C 0.29625(12) 0.0412(5) 0.6440(2)
H1 H 0.2882 -0.0885 0.6894
H2 H 0.2556 0.0722 0.5687
C3 C 0.38801(12) -0.2112(4) 0.6325(2)
H3 H 0.3613 -0.3443 0.6270
H4 H 0.4223 -0.2006 0.7203
C4 C 0.41753(11) -0.2140(4) 0.5293(2)
H5 H 0.4620 -0.2820 0.5622
C5 C 0.41954(12) 0.0293(4) 0.4967(2)
H6 H 0.4616 0.0971 0.5518
H7 H 0.4130 0.0489 0.4050
C6 C 0.36393(11) 0.1276(4) 0.5238(2)
O1 O 0.33682(9) 0.3081(3) 0.48674(17)
O2 O 0.37429(8) -0.3200(3) 0.41372(15)
H11 H 0.3642 -0.4453 0.4320
O3 O 0.36939(8) 0.3046(3) 0.79150(16)
N1 N 0.34759(10) -0.0117(3) 0.59882(19)
N2 N 0.26143(10) 0.3297(4) 0.7488(2)
H15 H 0.2668 0.4430 0.8008
H16 H 0.2221 0.2766 0.7062
C7 C 0.36158(11) 0.7649(4) 0.9641(2)
C8 C 0.38472(11) 0.9588(4) 1.0486(2)
C9 C 0.33890(11) 1.0906(4) 1.0726(2)
H8 H 0.2940 1.0526 1.0362
C10 C 0.35900(11) 1.2766(4) 1.1494(2)
C11 C 0.42507(12) 1.3337(4) 1.2020(2)
C12 C 0.47035(11) 1.2049(5) 1.1764(2)
H9 H 0.5151 1.2457 1.2103
C13 C 0.45022(12) 1.0155(5) 1.1009(2)
H10 H 0.4814 0.9254 1.0853
O4 O 0.30319(8) 0.7206(3) 0.90673(17)
O5 O 0.40786(8) 0.6435(3) 0.95066(16)
H12 H 0.3910 0.5512 0.8914
O6 O 0.44618(9) 1.5142(4) 1.27800(17)
H13 H 0.4157 1.5643 1.2968
O7 O 0.31773(8) 1.4136(3) 1.17736(17)
H14 H 0.2797 1.3620 1.1460
loop_
_geom_bond_atom_site_label_1
_geom_bond_atom_site_label_2
_geom_bond_site_symmetry_1
_geom_bond_site_symmetry_2
C1 C2 1_555 1_555
C2 H1 1_555 1_555
H2 C2 1_555 1_555
C3 H3 1_555 1_555
H4 C3 1_555 1_555
C4 C3 1_555 1_555
H5 C4 1_555 1_555
C5 C4 1_555 1_555
H6 C5 1_555 1_555
H7 C5 1_555 1_555
C6 C5 1_555 1_555
C7 C8 1_555 1_555
C8 C9 1_555 1_555
C9 H8 1_555 1_555
C10 C9 1_555 1_555
C11 C10 1_555 1_555
C12 C11 1_555 1_555
H9 C12 1_555 1_555
C13 C8 1_555 1_555
H10 C13 1_555 1_555
O1 C6 1_555 1_555
O2 C4 1_555 1_555
H11 O2 1_555 1_555
O3 C1 1_555 1_555
O4 C7 1_555 1_555
O5 C7 1_555 1_555
H12 O5 1_555 1_555
O6 C11 1_555 1_555
H13 O6 1_555 1_555
O7 C10 1_555 1_555
H14 O7 1_555 1_555
N1 C2 1_555 1_555
N2 C1 1_555 1_555
H15 N2 1_555 1_555
H16 N2 1_555 1_555
C3 N1 1_555 1_555
C6 N1 1_555 1_555
C12 C13 1_555 1_555

#END
