
#######################################################################
#
#                 Cambridge Crystallographic Data Centre
#                                CCDC 
#
#######################################################################
#
# If this CIF has been generated from an entry in the Cambridge 
# Structural Database, then it will include bibliographic, chemical, 
# crystal, experimental, refinement or atomic coordinate data resulting 
# from the CCDC's data processing and validation procedures.
#
#######################################################################

data_ZECFOE
_chemical_formula_moiety         'C22 H18 N2 O2'
_chemical_name_systematic        
'Methyl 5-(1-naphthylmethyl)-3-phenyl-1H-pyrazole-4-carboxylate'
_symmetry_cell_setting           monoclinic
_symmetry_space_group_name_H-M   'P 21/c'
_symmetry_Int_Tables_number      14
_space_group_name_Hall           '-P 2ybc'
loop_
_symmetry_equiv_pos_site_id
_symmetry_equiv_pos_as_xyz
1 x,y,z
2 -x,1/2+y,1/2-z
3 -x,-y,-z
4 x,1/2-y,1/2+z
_cell_length_a                   13.109(5)
_cell_length_b                   11.943(4)
_cell_length_c                   10.934(4)
_cell_angle_alpha                90
_cell_angle_beta                 92.879(12)
_cell_angle_gamma                90
_cell_volume                     1709.68
_exptl_crystal_colour            colorless
_exptl_crystal_description       block
_cell_formula_units_Z            4
loop_
_atom_site_label
_atom_site_type_symbol
_atom_site_fract_x
_atom_site_fract_y
_atom_site_fract_z
O1 O 0.4079(2) -0.0019(2) 0.1843(2)
O2 O 0.5670(2) 0.0516(2) 0.2400(2)
N1 N 0.5382(3) 0.2480(3) -0.0722(3)
H1 H 0.5781 0.2850 -0.1174
N2 N 0.4350(3) 0.2488(3) -0.0901(3)
C1 C 0.7781(3) 0.3390(4) -0.0140(4)
C2 C 0.7320(3) 0.4069(4) 0.0750(4)
H2 H 0.6831 0.3761 0.1237
C3 C 0.7583(4) 0.5142(5) 0.0892(5)
H3 H 0.7273 0.5564 0.1485
C4 C 0.8286(4) 0.5641(5) 0.0203(5)
H4 H 0.8460 0.6388 0.0334
C5 C 0.8734(4) 0.5043(5) -0.0679(5)
H5 H 0.9206 0.5396 -0.1155
C6 C 0.8509(3) 0.3903(4) -0.0898(4)
C7 C 0.8974(3) 0.3304(5) -0.1808(4)
H6 H 0.9433 0.3651 -0.2308
C8 C 0.8740(4) 0.2169(5) -0.1956(4)
H7 H 0.9044 0.1750 -0.2555
C9 C 0.8037(3) 0.1665(4) -0.1190(4)
H8 H 0.7887 0.0908 -0.1288
C10 C 0.7573(3) 0.2258(4) -0.0308(4)
C11 C 0.6838(3) 0.1655(4) 0.0522(4)
H9 H 0.6971 0.0857 0.0482
H10 H 0.6992 0.1892 0.1360
C12 C 0.5726(3) 0.1843(3) 0.0229(4)
C13 C 0.4859(3) 0.1416(3) 0.0727(3)
C14 C 0.4024(3) 0.1832(3) -0.0025(3)
C15 C 0.2919(3) 0.1659(3) 0.0098(4)
C16 C 0.2290(3) 0.1352(3) -0.0906(4)
H11 H 0.2565 0.1242 -0.1665
C17 C 0.1256(4) 0.1213(4) -0.0775(4)
H12 H 0.0837 0.1007 -0.1450
C18 C 0.0838(4) 0.1373(4) 0.0337(5)
H13 H 0.0141 0.1274 0.0419
C19 C 0.1459(4) 0.1679(4) 0.1326(4)
H14 H 0.1181 0.1799 0.2081
C20 C 0.2493(3) 0.1809(3) 0.1208(4)
H15 H 0.2909 0.2001 0.1890
C21 C 0.4803(4) 0.0577(4) 0.1687(4)
C22 C 0.5687(4) -0.0363(4) 0.3319(4)
H16 H 0.6328 -0.0346 0.3783
H17 H 0.5603 -0.1077 0.2923
H18 H 0.5140 -0.0246 0.3857
loop_
_geom_bond_atom_site_label_1
_geom_bond_atom_site_label_2
_geom_bond_site_symmetry_1
_geom_bond_site_symmetry_2
O1 C21 1_555 1_555
O2 C21 1_555 1_555
N1 H1 1_555 1_555
N2 N1 1_555 1_555
C1 C2 1_555 1_555
C2 H2 1_555 1_555
C3 C2 1_555 1_555
H3 C3 1_555 1_555
C4 C3 1_555 1_555
H4 C4 1_555 1_555
C5 C4 1_555 1_555
H5 C5 1_555 1_555
C6 C1 1_555 1_555
C7 C6 1_555 1_555
H6 C7 1_555 1_555
C8 C7 1_555 1_555
H7 C8 1_555 1_555
C9 C8 1_555 1_555
H8 C9 1_555 1_555
C10 C1 1_555 1_555
C11 C10 1_555 1_555
H9 C11 1_555 1_555
H10 C11 1_555 1_555
C12 N1 1_555 1_555
C13 C12 1_555 1_555
C14 N2 1_555 1_555
C15 C14 1_555 1_555
C16 C15 1_555 1_555
H11 C16 1_555 1_555
C17 C16 1_555 1_555
H12 C17 1_555 1_555
C18 C17 1_555 1_555
H13 C18 1_555 1_555
C19 C18 1_555 1_555
H14 C19 1_555 1_555
C20 C15 1_555 1_555
H15 C20 1_555 1_555
C21 C13 1_555 1_555
C22 O2 1_555 1_555
H16 C22 1_555 1_555
H17 C22 1_555 1_555
H18 C22 1_555 1_555
C5 C6 1_555 1_555
C9 C10 1_555 1_555
C11 C12 1_555 1_555
C13 C14 1_555 1_555
C19 C20 1_555 1_555

#END
