
#######################################################################
#
#                 Cambridge Crystallographic Data Centre
#                                CCDC 
#
#######################################################################
#
# If this CIF has been generated from an entry in the Cambridge 
# Structural Database, then it will include bibliographic, chemical, 
# crystal, experimental, refinement or atomic coordinate data resulting 
# from the CCDC's data processing and validation procedures.
#
#######################################################################

data_ZECGUL
_chemical_formula_moiety         'C24 H21 Br1 N2 O3'
_chemical_name_systematic        
2-((2R,3S,4S)-2-(2-Bromophenyl)-3-nitro-1,2,3,4-tetrahydroquinolin-4-yl)-1-(4-methylphenyl)ethanone
_symmetry_cell_setting           orthorhombic
_symmetry_space_group_name_H-M   'P 21 21 21'
_symmetry_Int_Tables_number      19
_space_group_name_Hall           'P 2ac 2ab'
loop_
_symmetry_equiv_pos_site_id
_symmetry_equiv_pos_as_xyz
1 x,y,z
2 1/2-x,-y,1/2+z
3 -x,1/2+y,1/2-z
4 1/2+x,1/2-y,-z
_cell_length_a                   11.265(10)
_cell_length_b                   19.497(18)
_cell_length_c                   19.906(18)
_cell_angle_alpha                90
_cell_angle_beta                 90
_cell_angle_gamma                90
_cell_volume                     4372.03
_exptl_crystal_colour            yellow
_exptl_crystal_description       block
_cell_formula_units_Z            8
loop_
_atom_site_label
_atom_site_type_symbol
_atom_site_fract_x
_atom_site_fract_y
_atom_site_fract_z
Br1 Br 0.39189(4) 0.67816(2) 0.178727(18)
O4 O 0.8776(2) 0.52291(12) 0.35487(10)
O5 O 0.4587(3) 0.66191(15) 0.38351(14)
O6 O 0.3712(3) 0.56389(15) 0.38040(12)
N3 N 0.4583(3) 0.46673(15) 0.27156(13)
H2 H 0.4213 0.4388 0.2455
N4 N 0.4453(3) 0.60423(16) 0.36029(13)
C25 C 1.1280(6) 0.6851(2) 0.6033(3)
H23 H 1.1016 0.6660 0.6452
H24 H 1.1204 0.7341 0.6047
H25 H 1.2096 0.6730 0.5960
C26 C 1.0526(4) 0.6568(2) 0.54659(19)
C27 C 1.0939(5) 0.6043(2) 0.5063(2)
H26 H 1.1697 0.5868 0.5132
C28 C 1.0231(4) 0.5771(2) 0.4552(2)
H27 H 1.0528 0.5422 0.4282
C29 C 0.9090(3) 0.60146(17) 0.44413(15)
C30 C 0.8689(4) 0.65389(17) 0.48387(15)
H28 H 0.7932 0.6716 0.4770
C31 C 0.9402(4) 0.6811(2) 0.53452(19)
H29 H 0.9108 0.7167 0.5608
C32 C 0.8365(3) 0.56782(18) 0.39031(14)
C33 C 0.7091(3) 0.59159(16) 0.38100(15)
H30 H 0.7096 0.6379 0.3633
H31 H 0.6704 0.5928 0.4245
C34 C 0.6362(3) 0.54551(15) 0.33345(13)
H32 H 0.6880 0.5354 0.2952
C35 C 0.5283(3) 0.58300(15) 0.30448(14)
H33 H 0.5565 0.6246 0.2819
C36 C 0.4610(3) 0.53910(16) 0.25251(14)
H34 H 0.3790 0.5557 0.2504
C37 C 0.5111(3) 0.44008(16) 0.32847(15)
C38 C 0.6001(3) 0.47651(14) 0.36240(13)
C39 C 0.6491(4) 0.44846(17) 0.42054(15)
H35 H 0.7047 0.4735 0.4448
C40 C 0.6157(4) 0.38326(19) 0.44292(17)
H36 H 0.6502 0.3648 0.4813
C41 C 0.5321(4) 0.34680(19) 0.40801(18)
H37 H 0.5110 0.3031 0.4224
C42 C 0.4786(4) 0.37438(18) 0.35158(18)
H38 H 0.4210 0.3494 0.3288
C43 C 0.5174(3) 0.54888(16) 0.18295(15)
C44 C 0.5901(3) 0.5003(2) 0.15386(16)
H39 H 0.6080 0.4608 0.1780
C45 C 0.6377(4) 0.5080(2) 0.08994(17)
H40 H 0.6865 0.4743 0.0718
C46 C 0.6110(4) 0.5670(3) 0.05347(17)
H41 H 0.6417 0.5726 0.0104
C47 C 0.5398(4) 0.6172(2) 0.08057(16)
H42 H 0.5228 0.6566 0.0562
C48 C 0.4937(3) 0.60849(18) 0.14444(15)
Br2 Br 0.13477(4) 0.65386(2) 0.30562(2)
O1 O 0.1623(3) 0.45150(17) 0.22627(14)
O2 O 0.2690(3) 0.49539(17) 0.14772(13)
O3 O 0.1178(3) 0.66296(11) 0.06366(11)
N1 N -0.1002(3) 0.49401(14) 0.20508(13)
H1 H -0.1630 0.4930 0.2297
N2 N 0.1787(3) 0.49328(16) 0.18164(15)
C1 C 0.5636(4) 0.6772(2) -0.14391(19)
H3 H 0.6254 0.6461 -0.1308
H4 H 0.5895 0.7235 -0.1366
H5 H 0.5457 0.6709 -0.1907
C2 C 0.4536(3) 0.6635(2) -0.10251(16)
C3 C 0.4054(4) 0.71312(19) -0.06026(16)
H6 H 0.4382 0.7569 -0.0596
C4 C 0.3092(4) 0.69841(17) -0.01915(16)
H7 H 0.2779 0.7325 0.0083
C5 C 0.2590(3) 0.63307(17) -0.01857(15)
C6 C 0.3039(4) 0.58415(19) -0.06329(18)
H8 H 0.2699 0.5407 -0.0653
C7 C 0.3988(4) 0.6002(2) -0.10444(18)
H9 H 0.4266 0.5673 -0.1344
C8 C 0.1620(3) 0.61767(16) 0.02933(15)
C9 C 0.1179(3) 0.54387(15) 0.03500(14)
H10 H 0.1858 0.5137 0.0400
H11 H 0.0779 0.5315 -0.0064
C10 C 0.0325(3) 0.53186(15) 0.09405(14)
H12 H -0.0334 0.5640 0.0879
C11 C -0.0223(3) 0.46063(16) 0.09682(15)
C12 C -0.0077(4) 0.41086(17) 0.04744(17)
H13 H 0.0394 0.4202 0.0102
C13 C -0.0631(4) 0.34686(19) 0.05314(18)
H14 H -0.0540 0.3141 0.0196
C14 C -0.1312(4) 0.33301(17) 0.10873(17)
H15 H -0.1686 0.2907 0.1124
C15 C -0.1452(4) 0.38154(17) 0.16010(16)
H16 H -0.1920 0.3715 0.1973
C16 C -0.0883(3) 0.44529(16) 0.15494(15)
C17 C -0.0118(3) 0.54702(16) 0.21837(15)
H17 H 0.0261 0.5357 0.2613
C18 C 0.0850(3) 0.54673(17) 0.16492(14)
H18 H 0.1228 0.5920 0.1641
C19 C -0.0692(3) 0.61842(17) 0.22628(15)
C20 C -0.1774(3) 0.63380(18) 0.19708(17)
H19 H -0.2146 0.6013 0.1701
C21 C -0.2315(4) 0.6970(2) 0.20733(19)
H20 H -0.3034 0.7069 0.1864
C22 C -0.1792(4) 0.7449(2) 0.2481(2)
H21 H -0.2170 0.7866 0.2557
C23 C -0.0719(4) 0.7319(2) 0.2779(2)
H22 H -0.0365 0.7644 0.3056
C24 C -0.0163(3) 0.66855(19) 0.26584(16)
loop_
_geom_bond_atom_site_label_1
_geom_bond_atom_site_label_2
_geom_bond_site_symmetry_1
_geom_bond_site_symmetry_2
Br1 C48 1_555 1_555
Br2 C24 1_555 1_555
O1 N2 1_555 1_555
O2 N2 1_555 1_555
O3 C8 1_555 1_555
O4 C32 1_555 1_555
O5 N4 1_555 1_555
O6 N4 1_555 1_555
N1 H1 1_555 1_555
N2 C18 1_555 1_555
N3 H2 1_555 1_555
N4 C35 1_555 1_555
C1 H3 1_555 1_555
H4 C1 1_555 1_555
H5 C1 1_555 1_555
C2 C1 1_555 1_555
C3 C2 1_555 1_555
H6 C3 1_555 1_555
C4 C3 1_555 1_555
H7 C4 1_555 1_555
C5 C4 1_555 1_555
C6 C5 1_555 1_555
H8 C6 1_555 1_555
C7 C2 1_555 1_555
H9 C7 1_555 1_555
C8 C5 1_555 1_555
C9 C8 1_555 1_555
H10 C9 1_555 1_555
H11 C9 1_555 1_555
C10 C9 1_555 1_555
H12 C10 1_555 1_555
C11 C10 1_555 1_555
C12 C11 1_555 1_555
H13 C12 1_555 1_555
C13 C12 1_555 1_555
H14 C13 1_555 1_555
C14 C13 1_555 1_555
H15 C14 1_555 1_555
C15 C14 1_555 1_555
H16 C15 1_555 1_555
C16 N1 1_555 1_555
C17 N1 1_555 1_555
H17 C17 1_555 1_555
C18 C10 1_555 1_555
H18 C18 1_555 1_555
C19 C17 1_555 1_555
C20 C19 1_555 1_555
H19 C20 1_555 1_555
C21 C20 1_555 1_555
H20 C21 1_555 1_555
C22 C21 1_555 1_555
H21 C22 1_555 1_555
C23 C22 1_555 1_555
H22 C23 1_555 1_555
C24 C19 1_555 1_555
C25 H23 1_555 1_555
H24 C25 1_555 1_555
H25 C25 1_555 1_555
C26 C25 1_555 1_555
C27 C26 1_555 1_555
H26 C27 1_555 1_555
C28 C27 1_555 1_555
H27 C28 1_555 1_555
C29 C28 1_555 1_555
C30 C29 1_555 1_555
H28 C30 1_555 1_555
C31 C26 1_555 1_555
H29 C31 1_555 1_555
C32 C29 1_555 1_555
C33 C32 1_555 1_555
H30 C33 1_555 1_555
H31 C33 1_555 1_555
C34 C33 1_555 1_555
H32 C34 1_555 1_555
C35 C34 1_555 1_555
H33 C35 1_555 1_555
C36 N3 1_555 1_555
H34 C36 1_555 1_555
C37 N3 1_555 1_555
C38 C34 1_555 1_555
C39 C38 1_555 1_555
H35 C39 1_555 1_555
C40 C39 1_555 1_555
H36 C40 1_555 1_555
C41 C40 1_555 1_555
H37 C41 1_555 1_555
C42 C37 1_555 1_555
H38 C42 1_555 1_555
C43 C36 1_555 1_555
C44 C43 1_555 1_555
H39 C44 1_555 1_555
C45 C44 1_555 1_555
H40 C45 1_555 1_555
C46 C45 1_555 1_555
H41 C46 1_555 1_555
C47 C46 1_555 1_555
H42 C47 1_555 1_555
C48 C43 1_555 1_555
C6 C7 1_555 1_555
C11 C16 1_555 1_555
C15 C16 1_555 1_555
C17 C18 1_555 1_555
C23 C24 1_555 1_555
C30 C31 1_555 1_555
C35 C36 1_555 1_555
C37 C38 1_555 1_555
C41 C42 1_555 1_555
C47 C48 1_555 1_555

#END
