
#######################################################################
#
#                 Cambridge Crystallographic Data Centre
#                                CCDC 
#
#######################################################################
#
# If this CIF has been generated from an entry in the Cambridge 
# Structural Database, then it will include bibliographic, chemical, 
# crystal, experimental, refinement or atomic coordinate data resulting 
# from the CCDC's data processing and validation procedures.
#
#######################################################################

data_ZECLEB
_chemical_formula_moiety         'C21 H26 N2 O4'
_chemical_name_systematic        
11-(benzenecarbonyl)-12,12-dimethoxy-7-methyl-1,2,3,4,6,7,9,10-octahydro-8H-6,10-methanopyrimido[1,2-a]azocin-8-one
_symmetry_cell_setting           monoclinic
_symmetry_space_group_name_H-M   'C 2/c'
_symmetry_Int_Tables_number      15
_space_group_name_Hall           '-C 2yn'
loop_
_symmetry_equiv_pos_site_id
_symmetry_equiv_pos_as_xyz
1 x,y,z
2 -x,y,1/2-z
3 1/2+x,1/2+y,z
4 1/2-x,1/2+y,1/2-z
5 -x,-y,-z
6 x,-y,1/2+z
7 1/2-x,1/2-y,-z
8 1/2+x,1/2-y,1/2+z
_cell_length_a                   14.6978(15)
_cell_length_b                   12.2595(12)
_cell_length_c                   21.830(2)
_cell_angle_alpha                90
_cell_angle_beta                 108.6090(10)
_cell_angle_gamma                90
_cell_volume                     3727.85
_exptl_crystal_colour            colorless
_exptl_crystal_description       BLOCK
_cell_formula_units_Z            8
loop_
_atom_site_label
_atom_site_type_symbol
_atom_site_fract_x
_atom_site_fract_y
_atom_site_fract_z
N1 N 0.19584(11) 1.04251(12) 0.24252(7)
N2 N 0.13452(12) 0.88520(14) 0.27364(7)
H1 H 0.1021 0.8260 0.2624
O1 O 0.05656(11) 0.73952(11) 0.18741(6)
O2 O 0.29487(8) 0.97965(11) 0.15291(6)
O3 O 0.22851(9) 1.13198(10) 0.09103(6)
O4 O -0.04468(10) 1.15422(15) 0.14454(8)
C1 C 0.13976(15) 0.73976(16) 0.05716(9)
H2 H 0.1996 0.7696 0.0789
C2 C 0.12613(18) 0.68382(18) -0.00041(10)
H3 H 0.1766 0.6761 -0.0171
C3 C 0.0376(2) 0.63979(18) -0.03271(11)
H4 H 0.0281 0.6025 -0.0713
C4 C -0.03614(18) 0.6509(2) -0.00814(11)
H5 H -0.0959 0.6213 -0.0302
C5 C -0.02279(15) 0.70547(17) 0.04898(9)
H6 H -0.0736 0.7116 0.0655
C6 C 0.06521(13) 0.75155(14) 0.08247(8)
C7 C 0.07892(13) 0.80202(15) 0.14788(8)
C8 C 0.11670(12) 0.90774(15) 0.16170(8)
C9 C 0.12634(12) 0.98329(14) 0.10898(8)
H7 H 0.1322 0.9391 0.0730
C10 C 0.21712(12) 1.05273(14) 0.13573(8)
C11 C 0.20644(12) 1.11793(14) 0.19285(8)
H8 H 0.2655 1.1600 0.2117
C12 C 0.12174(13) 1.19943(15) 0.16995(9)
H9 H 0.1360 1.2467 0.1380
C13 C 0.03015(14) 1.13886(16) 0.13413(9)
C14 C 0.03816(13) 1.05940(16) 0.08363(9)
H10 H 0.0430 1.0996 0.0465
H11 H -0.0197 1.0155 0.0695
C15 C 0.14838(12) 0.94657(15) 0.22662(8)
C16 C 0.16983(17) 0.91087(18) 0.34196(9)
H12 H 0.1854 0.8441 0.3670
H13 H 0.1207 0.9491 0.3544
C17 C 0.25781(17) 0.98107(18) 0.35552(9)
H14 H 0.3103 0.9386 0.3499
H15 H 0.2768 1.0065 0.3999
C18 C 0.23773(16) 1.07730(17) 0.31038(9)
H16 H 0.1937 1.1265 0.3214
H17 H 0.2970 1.1165 0.3155
C19 C 0.11085(16) 1.27471(18) 0.22267(10)
H18 H 0.0660 1.3317 0.2034
H19 H 0.1720 1.3062 0.2457
H20 H 0.0877 1.2337 0.2521
C20 C 0.38747(14) 1.02583(19) 0.18442(11)
H21 H 0.3976 1.0869 0.1599
H22 H 0.4361 0.9719 0.1875
H23 H 0.3909 1.0497 0.2270
C21 C 0.23537(16) 1.08885(18) 0.03201(9)
H24 H 0.2847 1.0343 0.0413
H25 H 0.2509 1.1465 0.0073
H26 H 0.1751 1.0567 0.0077
loop_
_geom_bond_atom_site_label_1
_geom_bond_atom_site_label_2
_geom_bond_site_symmetry_1
_geom_bond_site_symmetry_2
N1 C11 1_555 1_555
N2 H1 1_555 1_555
O1 C7 1_555 1_555
O2 C10 1_555 1_555
O3 C10 1_555 1_555
O4 C13 1_555 1_555
C1 H2 1_555 1_555
C2 C1 1_555 1_555
H3 C2 1_555 1_555
C3 C2 1_555 1_555
H4 C3 1_555 1_555
C4 C3 1_555 1_555
H5 C4 1_555 1_555
C5 C4 1_555 1_555
H6 C5 1_555 1_555
C6 C1 1_555 1_555
C7 C6 1_555 1_555
C8 C7 1_555 1_555
C9 C8 1_555 1_555
H7 C9 1_555 1_555
C10 C9 1_555 1_555
C11 C10 1_555 1_555
H8 C11 1_555 1_555
C12 C11 1_555 1_555
H9 C12 1_555 1_555
C13 C12 1_555 1_555
C14 C9 1_555 1_555
H10 C14 1_555 1_555
H11 C14 1_555 1_555
C15 N1 1_555 1_555
C16 N2 1_555 1_555
H12 C16 1_555 1_555
H13 C16 1_555 1_555
C17 C16 1_555 1_555
H14 C17 1_555 1_555
H15 C17 1_555 1_555
C18 N1 1_555 1_555
H16 C18 1_555 1_555
H17 C18 1_555 1_555
C19 C12 1_555 1_555
H18 C19 1_555 1_555
H19 C19 1_555 1_555
H20 C19 1_555 1_555
C20 O2 1_555 1_555
H21 C20 1_555 1_555
H22 C20 1_555 1_555
H23 C20 1_555 1_555
C21 O3 1_555 1_555
H24 C21 1_555 1_555
H25 C21 1_555 1_555
H26 C21 1_555 1_555
N2 C15 1_555 1_555
C5 C6 1_555 1_555
C8 C15 1_555 1_555
C13 C14 1_555 1_555
C17 C18 1_555 1_555

#END
