
#######################################################################
#
#                 Cambridge Crystallographic Data Centre
#                                CCDC 
#
#######################################################################
#
# If this CIF has been generated from an entry in the Cambridge 
# Structural Database, then it will include bibliographic, chemical, 
# crystal, experimental, refinement or atomic coordinate data resulting 
# from the CCDC's data processing and validation procedures.
#
#######################################################################

data_ZECLAX
_chemical_formula_moiety         'C21 H25 Cl1 N2 O4,1.5(H2 O1)'
_chemical_name_systematic        
'11-(4-chlorobenzene-1-carbonyl)-12,12-dimethoxy-6-methyl-1,2,3,4,6,7,9,10-octahydro-8H-6,10-methanopyrimido[1,2-a]azocin-8-one sesquihydrate'
_symmetry_cell_setting           monoclinic
_symmetry_space_group_name_H-M   'C 2/c'
_symmetry_Int_Tables_number      15
_space_group_name_Hall           '-C 2yn'
loop_
_symmetry_equiv_pos_site_id
_symmetry_equiv_pos_as_xyz
1 x,y,z
2 -x,y,1/2-z
3 1/2+x,1/2+y,z
4 1/2-x,1/2+y,1/2-z
5 -x,-y,-z
6 x,-y,1/2+z
7 1/2-x,1/2-y,-z
8 1/2+x,1/2-y,1/2+z
_cell_length_a                   23.064(2)
_cell_length_b                   9.1067(9)
_cell_length_c                   19.757(2)
_cell_angle_alpha                90
_cell_angle_beta                 102.558(2)
_cell_angle_gamma                90
_cell_volume                     4050.42
_exptl_crystal_colour            brown
_exptl_crystal_description       prism
_cell_formula_units_Z            8
loop_
_atom_site_label
_atom_site_type_symbol
_atom_site_fract_x
_atom_site_fract_y
_atom_site_fract_z
Cl1 Cl 0.14206(2) 0.83196(5) 0.42372(3)
O1 O 0.43691(7) 0.14324(18) 0.55584(8)
O2 O 0.38382(6) 0.33731(14) 0.29251(7)
O3 O 0.44502(6) 0.46501(14) 0.38411(7)
O4 O 0.21489(6) 0.15526(16) 0.35978(9)
N1 N 0.39721(7) 0.07061(16) 0.37423(8)
N2 N 0.30103(7) -0.02367(17) 0.35784(8)
C1 C 0.17599(8) 0.6658(2) 0.41067(10)
C2 C 0.20915(8) 0.5921(2) 0.46777(9)
H1 H 0.2131 0.6310 0.5132
C3 C 0.23652(8) 0.4603(2) 0.45723(9)
H2 H 0.2592 0.4087 0.4959
C4 C 0.23109(7) 0.4033(2) 0.39078(9)
C5 C 0.25499(8) 0.2537(2) 0.37818(9)
C6 C 0.31589(7) 0.23100(19) 0.38645(9)
C7 C 0.36094(7) 0.35105(19) 0.40835(9)
H3 H 0.3402 0.4477 0.3987
C8 C 0.39165(8) 0.3461(2) 0.48637(9)
H4 H 0.4131 0.4397 0.4992
H5 H 0.3608 0.3377 0.5140
C9 C 0.43485(8) 0.2207(2) 0.50494(10)
C10 C 0.19739(8) 0.4805(2) 0.33458(10)
H6 H 0.1933 0.4420 0.2891
C11 C 0.16982(8) 0.6125(2) 0.34391(10)
H7 H 0.1473 0.6647 0.3054
C12 C 0.33862(8) 0.09006(19) 0.37253(9)
C13 C 0.44169(8) 0.19321(19) 0.38079(9)
C14 C 0.40792(8) 0.34071(19) 0.36400(9)
C15 C 0.34447(9) 0.4551(2) 0.26528(10)
H8 H 0.3073 0.4446 0.2812
H9 H 0.3360 0.4522 0.2145
H10 H 0.3632 0.5490 0.2815
C16 C 0.47680(8) 0.1979(2) 0.45663(9)
H11 H 0.4987 0.1046 0.4683
H12 H 0.5061 0.2790 0.4625
C17 C 0.48310(9) 0.5159(2) 0.34032(12)
H13 H 0.5235 0.4792 0.3581
H14 H 0.4835 0.6235 0.3400
H15 H 0.4683 0.4796 0.2930
C18 C 0.48347(8) 0.1630(2) 0.33184(10)
H16 H 0.5055 0.0719 0.3458
H17 H 0.5115 0.2447 0.3342
H18 H 0.4602 0.1531 0.2843
C19 C 0.41992(8) -0.0795(2) 0.36761(11)
H19 H 0.4616 -0.0864 0.3937
H20 H 0.4190 -0.1007 0.3182
C20 C 0.38231(8) -0.1920(2) 0.39547(10)
H21 H 0.3971 -0.2923 0.3899
H22 H 0.3845 -0.1746 0.4454
C21 C 0.31865(8) -0.17692(19) 0.35510(10)
H23 H 0.3156 -0.2074 0.3064
H24 H 0.2922 -0.2405 0.3757
H25 H 0.2670(13) -0.004(3) 0.3574(14)
O5 O 0.09458(8) 0.2216(3) 0.31915(15)
H26 H 0.0879(18) 0.260(5) 0.3547(14)
H27 H 0.1294(8) 0.195(5) 0.332(2)
O6 O 0.0000 0.3487(8) 0.2500
H28 H 0.0301 0.3085 0.2720
H28A H -0.0301 0.3085 0.2280
loop_
_geom_bond_atom_site_label_1
_geom_bond_atom_site_label_2
_geom_bond_site_symmetry_1
_geom_bond_site_symmetry_2
Cl1 C1 1_555 1_555
O1 C9 1_555 1_555
O2 C14 1_555 1_555
O3 C14 1_555 1_555
O4 C5 1_555 1_555
N1 C12 1_555 1_555
N2 C12 1_555 1_555
C1 C2 1_555 1_555
C2 H1 1_555 1_555
C3 C2 1_555 1_555
H2 C3 1_555 1_555
C4 C3 1_555 1_555
C5 C4 1_555 1_555
C6 C5 1_555 1_555
C7 C6 1_555 1_555
H3 C7 1_555 1_555
C8 C7 1_555 1_555
H4 C8 1_555 1_555
H5 C8 1_555 1_555
C9 C8 1_555 1_555
C10 C4 1_555 1_555
H6 C10 1_555 1_555
C11 C1 1_555 1_555
H7 C11 1_555 1_555
C12 C6 1_555 1_555
C13 N1 1_555 1_555
C14 C7 1_555 1_555
C15 O2 1_555 1_555
H8 C15 1_555 1_555
H9 C15 1_555 1_555
H10 C15 1_555 1_555
C16 C9 1_555 1_555
H11 C16 1_555 1_555
H12 C16 1_555 1_555
C17 O3 1_555 1_555
H13 C17 1_555 1_555
H14 C17 1_555 1_555
H15 C17 1_555 1_555
C18 C13 1_555 1_555
H16 C18 1_555 1_555
H17 C18 1_555 1_555
H18 C18 1_555 1_555
C19 N1 1_555 1_555
H19 C19 1_555 1_555
H20 C19 1_555 1_555
C20 C19 1_555 1_555
H21 C20 1_555 1_555
H22 C20 1_555 1_555
C21 N2 1_555 1_555
H23 C21 1_555 1_555
H24 C21 1_555 1_555
H25 N2 1_555 1_555
O5 H26 1_555 1_555
H27 O5 1_555 1_555
O6 H28 1_555 1_555
H28A O6 1_555 1_555
C10 C11 1_555 1_555
C13 C14 1_555 1_555
C13 C16 1_555 1_555
C20 C21 1_555 1_555

#END
