
#######################################################################
#
#                 Cambridge Crystallographic Data Centre
#                                CCDC 
#
#######################################################################
#
# If this CIF has been generated from an entry in the Cambridge 
# Structural Database, then it will include bibliographic, chemical, 
# crystal, experimental, refinement or atomic coordinate data resulting 
# from the CCDC's data processing and validation procedures.
#
#######################################################################

data_ZECSOS
_chemical_formula_moiety         'C24 H22 N2 O2'
_chemical_name_systematic        
1-benzyl-2'-methoxy-1'-methyl-1',2'-dihydro-3,3'-spirobi[indol]-2(1H)-one
_symmetry_cell_setting           monoclinic
_symmetry_space_group_name_H-M   'P 21/n'
_symmetry_Int_Tables_number      14
_space_group_name_Hall           '-P 2yn'
loop_
_symmetry_equiv_pos_site_id
_symmetry_equiv_pos_as_xyz
1 x,y,z
2 1/2-x,1/2+y,1/2-z
3 -x,-y,-z
4 1/2+x,1/2-y,1/2+z
_cell_length_a                   13.8659(4)
_cell_length_b                   9.3188(3)
_cell_length_c                   14.7114(5)
_cell_angle_alpha                90
_cell_angle_beta                 99.781(3)
_cell_angle_gamma                90
_cell_volume                     1873.28
_exptl_crystal_colour            colorless
_exptl_crystal_description       block
_cell_formula_units_Z            4
loop_
_atom_site_label
_atom_site_type_symbol
_atom_site_fract_x
_atom_site_fract_y
_atom_site_fract_z
O1 O 0.62396(7) 0.84297(10) 0.44524(7)
O2 O 0.50455(7) 0.42855(12) 0.37265(7)
N1 N 0.67226(8) 0.41449(12) 0.38483(8)
N2 N 0.48501(10) 0.82571(17) 0.33413(9)
C1 C 0.54409(9) 0.66867(14) 0.23820(9)
C2 C 0.71029(9) 0.64031(15) 0.34002(9)
C3 C 0.74861(10) 0.50677(14) 0.36986(9)
C4 C 0.47755(9) 0.77903(15) 0.24483(9)
C5 C 0.55357(9) 0.61178(14) 0.15386(9)
H1 H 0.599711 0.540788 0.149515
C6 C 0.58302(10) 0.48185(15) 0.36500(9)
C7 C 0.60037(9) 0.63604(14) 0.33389(9)
C8 C 0.77093(10) 0.74760(15) 0.31796(9)
H2 H 0.745746 0.836780 0.297862
C9 C 0.49248(10) 0.66263(15) 0.07454(9)
H3 H 0.497817 0.625402 0.016948
C10 C 0.73195(9) 0.26017(15) 0.52020(9)
C11 C 0.41495(10) 0.82893(16) 0.16691(10)
H4 H 0.368816 0.899865 0.171409
C12 C 0.87127(10) 0.71912(16) 0.32651(9)
H5 H 0.913292 0.789894 0.311722
C13 C 0.42400(9) 0.76877(16) 0.08228(9)
H6 H 0.383076 0.800476 0.029382
C14 C 0.70434(10) 0.35385(15) 0.58510(10)
H7 H 0.658087 0.424887 0.566465
C15 C 0.84792(10) 0.47706(15) 0.37953(10)
H8 H 0.873073 0.388147 0.400238
C16 C 0.90831(10) 0.58621(16) 0.35687(10)
H9 H 0.975153 0.569410 0.362265
C17 C 0.55541(9) 0.74658(15) 0.39694(9)
H10 H 0.522357 0.694378 0.440657
C18 C 0.68555(11) 0.26795(15) 0.41938(10)
H11 H 0.726389 0.216229 0.383084
H12 H 0.622357 0.220611 0.411164
C19 C 0.80061(10) 0.15360(16) 0.54974(10)
H13 H 0.819071 0.090189 0.506988
C20 C 0.43209(10) 0.94559(17) 0.36329(10)
H14 H 0.455226 1.033000 0.339964
H15 H 0.442269 0.949062 0.429451
H16 H 0.363533 0.934553 0.339885
C21 C 0.66970(11) 0.78331(18) 0.53117(10)
H17 H 0.705558 0.698823 0.520020
H18 H 0.620600 0.758487 0.567245
H19 H 0.713724 0.852486 0.564030
C22 C 0.81492(12) 0.23521(18) 0.70606(11)
H20 H 0.843039 0.227683 0.767934
C23 C 0.74594(12) 0.34112(17) 0.67773(11)
H21 H 0.727443 0.403841 0.720845
C24 C 0.84180(11) 0.14092(18) 0.64223(11)
H22 H 0.887382 0.069143 0.661214
loop_
_geom_bond_atom_site_label_1
_geom_bond_atom_site_label_2
_geom_bond_site_symmetry_1
_geom_bond_site_symmetry_2
O1 C17 1_555 1_555
O2 C6 1_555 1_555
N1 C3 1_555 1_555
N2 C4 1_555 1_555
C1 C4 1_555 1_555
C2 C3 1_555 1_555
C3 C15 1_555 1_555
C4 C11 1_555 1_555
C5 C1 1_555 1_555
H1 C5 1_555 1_555
C6 N1 1_555 1_555
C7 C1 1_555 1_555
C8 C2 1_555 1_555
H2 C8 1_555 1_555
C9 C5 1_555 1_555
H3 C9 1_555 1_555
C10 C14 1_555 1_555
C11 H4 1_555 1_555
C12 C8 1_555 1_555
H5 C12 1_555 1_555
C13 C9 1_555 1_555
H6 C13 1_555 1_555
C14 H7 1_555 1_555
C15 H8 1_555 1_555
C16 C12 1_555 1_555
H9 C16 1_555 1_555
C17 N2 1_555 1_555
H10 C17 1_555 1_555
C18 N1 1_555 1_555
H11 C18 1_555 1_555
H12 C18 1_555 1_555
C19 C10 1_555 1_555
H13 C19 1_555 1_555
C20 N2 1_555 1_555
H14 C20 1_555 1_555
H15 C20 1_555 1_555
H16 C20 1_555 1_555
C21 O1 1_555 1_555
H17 C21 1_555 1_555
H18 C21 1_555 1_555
H19 C21 1_555 1_555
C22 H20 1_555 1_555
C23 C14 1_555 1_555
H21 C23 1_555 1_555
C24 C19 1_555 1_555
H22 C24 1_555 1_555
C2 C7 1_555 1_555
C6 C7 1_555 1_555
C7 C17 1_555 1_555
C10 C18 1_555 1_555
C11 C13 1_555 1_555
C15 C16 1_555 1_555
C22 C23 1_555 1_555
C22 C24 1_555 1_555

#END
