
#######################################################################
#
#                 Cambridge Crystallographic Data Centre
#                                CCDC 
#
#######################################################################
#
# If this CIF has been generated from an entry in the Cambridge 
# Structural Database, then it will include bibliographic, chemical, 
# crystal, experimental, refinement or atomic coordinate data resulting 
# from the CCDC's data processing and validation procedures.
#
#######################################################################

data_ZECVEL
_chemical_formula_moiety         
'C38 H34 N10 4+,2(C17 H9 O2 1-),9(H2 O1),2(H1 O1 1-)'
_chemical_name_systematic        
'3,6,12,15,22,25,31,34,42,47-decaazanonacyclo[34.2.2.2^17,20^.1^3,6^.1^7,11^.1^12,15^.1^22,25^.1^26,30^.1^31,34^]octatetraconta-1(38),3(48),4,7(47),8,10,13,15(46),17,19,22(43),23,26(42),27,29,32,34(41),36,39,44-icosaene-3,15,22,34-tetraium dihydroxide bis(pyrene-1-carboxylate) nonahydrate unknown solvate'
_symmetry_cell_setting           monoclinic
_symmetry_space_group_name_H-M   'P 21/c'
_symmetry_Int_Tables_number      14
_space_group_name_Hall           '-P 2ybc'
loop_
_symmetry_equiv_pos_site_id
_symmetry_equiv_pos_as_xyz
1 x,y,z
2 -x,1/2+y,1/2-z
3 -x,-y,-z
4 x,1/2-y,1/2+z
_cell_length_a                   25.023(2)
_cell_length_b                   23.2803(18)
_cell_length_c                   11.5222(9)
_cell_angle_alpha                90
_cell_angle_beta                 96.596(2)
_cell_angle_gamma                90
_cell_volume                     6667.75
_exptl_crystal_colour            colorless
_exptl_crystal_description       block
_cell_formula_units_Z            4
loop_
_atom_site_label
_atom_site_type_symbol
_atom_site_fract_x
_atom_site_fract_y
_atom_site_fract_z
C39 C 0.1984(6) 0.3103(5) 1.0212(11)
C40 C 0.2181(4) 0.3535(3) 0.9384(8)
C41 C 0.2337(5) 0.3378(3) 0.8276(9)
H35 H 0.2348 0.2984 0.8067
C42 C 0.2475(4) 0.3799(4) 0.7489(7)
H36 H 0.2592 0.3685 0.6767
C43 C 0.2444(3) 0.4389(3) 0.7756(6)
C44 C 0.2582(3) 0.4829(5) 0.6962(7)
H37 H 0.2694 0.4723 0.6232
C45 C 0.2553(3) 0.5382(5) 0.7240(8)
H38 H 0.2647 0.5665 0.6705
C46 C 0.2383(3) 0.5560(4) 0.8332(6)
C47 C 0.2365(4) 0.6146(4) 0.8611(9)
H39 H 0.2461 0.6426 0.8073
C48 C 0.2209(4) 0.6311(4) 0.9661(9)
H40 H 0.2196 0.6709 0.9837
C49 C 0.2072(4) 0.5920(4) 1.0467(9)
H41 H 0.1963 0.6050 1.1186
C50 C 0.2091(3) 0.5315(4) 1.0228(7)
C51 C 0.1939(4) 0.4886(5) 1.1024(8)
H42 H 0.1818 0.4997 1.1742
C52 C 0.1969(4) 0.4335(4) 1.0757(8)
H43 H 0.1873 0.4059 1.1304
C53 C 0.2142(3) 0.4131(3) 0.9658(6)
C54 C 0.2273(3) 0.4552(3) 0.8858(6)
C55 C 0.2249(3) 0.5138(3) 0.9130(6)
O1 O 0.2242(7) 0.3016(5) 1.1148(8)
O2 O 0.1665(5) 0.2748(5) 0.9751(12)
C56 C 0.4916(4) 0.5578(6) 1.1099(8)
C57 C 0.4962(4) 0.6082(5) 1.0405(12)
H44 H 0.4943 0.6452 1.0748
C58 C 0.5034(4) 0.6032(4) 0.9220(12)
H45 H 0.5052 0.6368 0.8757
C59 C 0.5081(4) 0.5480(5) 0.8710(8)
C60 C 0.5167(5) 0.5448(5) 0.7519(9)
C61 C 0.5214(5) 0.4891(6) 0.6997(8)
H46 H 0.5271 0.4860 0.6199
C62 C 0.5173(4) 0.4386(5) 0.7689(10)
H47 H 0.5206 0.4020 0.7342
C63 C 0.5043(4) 0.4983(4) 0.9385(7)
C64 C 0.5152(9) 0.6017(7) 0.6859(18)
O3 O 0.5465(6) 0.6408(7) 0.7126(14)
O4 O 0.4825(6) 0.6054(9) 0.6007(13)
C56B C 0.5084(4) 0.4422(6) 0.8901(8)
C57B C 0.5038(4) 0.3918(5) 0.9595(12)
H44B H 0.5057 0.3548 0.9252
C58B C 0.4966(4) 0.3968(4) 1.0780(12)
H45B H 0.4948 0.3632 1.1243
C59B C 0.4919(4) 0.4520(5) 1.1290(8)
C60B C 0.4833(5) 0.4552(5) 1.2481(9)
C61B C 0.4786(5) 0.5109(6) 1.3003(8)
H46B H 0.4729 0.5140 1.3801
C62B C 0.4827(4) 0.5614(5) 1.2311(10)
H47B H 0.4794 0.5980 1.2658
C63B C 0.4957(4) 0.5017(4) 1.0615(7)
C64B C 0.4848(9) 0.3983(7) 1.3141(18)
O3B O 0.4535(6) 0.3592(7) 1.2874(14)
O4B O 0.5175(6) 0.3946(9) 1.3993(13)
C65 C 0.0692(6) 0.5288(5) 0.2337(11)
H48 H 0.0855 0.5230 0.1641
C66 C 0.0650(6) 0.5851(5) 0.2788(11)
C67 C 0.0386(5) 0.5938(4) 0.3811(10)
C68 C 0.0331(6) 0.6499(4) 0.4266(11)
H49 H 0.0471 0.6819 0.3889
C69 C 0.0071(6) 0.6583(4) 0.5267(11)
H50 H 0.0026 0.6961 0.5551
C70 C -0.0124(6) 0.6107(6) 0.5858(11)
C71 C -0.0047(4) 0.5549(4) 0.5437(9)
C72 C 0.0201(3) 0.5464(4) 0.4407(8)
C73 C 0.0247(4) 0.4896(4) 0.3955(9)
C74 C 0.0494(4) 0.4811(4) 0.2915(9)
C75 C -0.0364(6) 0.6188(6) 0.6914(10)
H51 H -0.0391 0.6567 0.7204
C76 C 0.0552(6) 0.4247(5) 0.2487(12)
H52 H 0.0718 0.4180 0.1798
C77 C 0.0975(5) 0.6322(6) 0.2273(10)
O5 O 0.0807(4) 0.6481(4) 0.1297(8)
O6 O 0.1331(4) 0.6491(4) 0.2960(9)
C65B C -0.0692(6) 0.4712(5) 0.7663(11)
H48B H -0.0855 0.4770 0.8359
C66B C -0.0650(6) 0.4149(5) 0.7212(11)
C67B C -0.0386(5) 0.4062(4) 0.6189(10)
C68B C -0.0331(6) 0.3501(4) 0.5734(11)
H49B H -0.0471 0.3181 0.6111
C69B C -0.0071(6) 0.3417(4) 0.4733(11)
H50B H -0.0026 0.3039 0.4449
C70B C 0.0124(6) 0.3893(6) 0.4142(11)
C71B C 0.0047(4) 0.4451(4) 0.4563(9)
C72B C -0.0201(3) 0.4536(4) 0.5593(8)
C73B C -0.0247(4) 0.5104(4) 0.6045(9)
C74B C -0.0494(4) 0.5189(4) 0.7085(9)
C75B C 0.0364(6) 0.3812(6) 0.3086(10)
H51B H 0.0391 0.3433 0.2796
C76B C -0.0552(6) 0.5753(5) 0.7513(12)
H52B H -0.0718 0.5820 0.8202
C77B C -0.0975(5) 0.3678(6) 0.7727(10)
O5B O -0.0807(4) 0.3519(4) 0.8703(8)
O6B O -0.1331(4) 0.3509(4) 0.7040(9)
O7 O 0.1798(2) 0.5653(2) 0.4548(5)
O8 O 0.3818(2) 0.5526(2) 0.6143(5)
C1 C 0.3747(3) 0.6157(4) 0.8564(6)
H1 H 0.3767 0.5932 0.7883
C2 C 0.3727(3) 0.6892(4) 0.9777(7)
H2 H 0.3736 0.7276 1.0056
C3 C 0.3657(3) 0.6422(4) 1.0412(7)
H3 H 0.3607 0.6410 1.1216
C4 C 0.3630(3) 0.5357(4) 0.9933(6)
C5 C 0.3513(3) 0.5181(4) 1.0995(7)
H4 H 0.3467 0.5450 1.1595
C6 C 0.3464(3) 0.4590(5) 1.1183(8)
H5 H 0.3369 0.4450 1.1906
C7 C 0.3554(3) 0.4222(4) 1.0324(8)
H6 H 0.3527 0.3819 1.0430
C8 C 0.3688(3) 0.4450(4) 0.9265(7)
C9 C 0.3873(3) 0.4287(4) 0.7241(8)
H7 H 0.3865 0.4674 0.6981
C10 C 0.3823(4) 0.3489(4) 0.8322(10)
H8 H 0.3776 0.3238 0.8950
C11 C 0.3933(4) 0.3348(5) 0.7256(12)
H9 H 0.3982 0.2967 0.6987
C12 C 0.4021(4) 0.3846(4) 0.5335(9)
H10 H 0.4210 0.3501 0.5087
H11 H 0.4224 0.4192 0.5146
C13 C 0.3412(4) 0.3869(5) 0.4707(8)
C14 C 0.3225(4) 0.4376(4) 0.4339(7)
H12 H 0.3447 0.4706 0.4336
C15 C 0.2668(4) 0.4389(4) 0.3952(6)
H13 H 0.2511 0.4740 0.3668
C16 C 0.2348(4) 0.3916(4) 0.3970(6)
C17 C 0.2593(4) 0.3382(4) 0.4304(8)
H14 H 0.2380 0.3044 0.4255
C18 C 0.3120(5) 0.3345(4) 0.4688(9)
H15 H 0.3286 0.2991 0.4932
C19 C 0.1748(4) 0.3957(4) 0.3742(7)
H16 H 0.1610 0.3622 0.3272
H17 H 0.1652 0.4307 0.3277
C20 C 0.1383(3) 0.4432(3) 0.5436(7)
H18 H 0.1449 0.4818 0.5226
C21 C 0.1331(4) 0.3497(4) 0.5434(9)
H19 H 0.1364 0.3111 0.5184
C22 C 0.1139(4) 0.3659(4) 0.6397(9)
H20 H 0.1006 0.3416 0.6961
C23 C 0.1007(3) 0.4631(4) 0.7327(7)
C24 C 0.0811(3) 0.4430(4) 0.8307(8)
H21 H 0.0769 0.4029 0.8420
C25 C 0.0675(4) 0.4812(5) 0.9120(8)
H22 H 0.0531 0.4681 0.9801
C26 C 0.0749(3) 0.5393(5) 0.8939(8)
H23 H 0.0665 0.5671 0.9495
C27 C 0.0954(3) 0.5557(4) 0.7898(7)
C28 C 0.1270(3) 0.6336(4) 0.6681(7)
H24 H 0.1395 0.6106 0.6087
C29 C 0.0924(4) 0.6617(4) 0.8333(9)
H25 H 0.0776 0.6613 0.9056
C30 C 0.1072(4) 0.7083(5) 0.7733(9)
H26 H 0.1035 0.7473 0.7954
C31 C 0.1552(3) 0.7275(4) 0.5872(7)
H27 H 0.1481 0.7119 0.5071
H28 H 0.1402 0.7669 0.5874
C32 C 0.2161(3) 0.7290(3) 0.6256(7)
C33 C 0.2359(4) 0.7615(3) 0.7186(7)
H29 H 0.2130 0.7866 0.7553
C34 C 0.2898(4) 0.7575(3) 0.7589(7)
H30 H 0.3035 0.7804 0.8238
C35 C 0.3253(3) 0.7214(3) 0.7089(7)
C36 C 0.3054(4) 0.6903(3) 0.6100(7)
H31 H 0.3285 0.6663 0.5717
C37 C 0.2505(4) 0.6949(3) 0.5674(7)
H32 H 0.2368 0.6748 0.4986
C38 C 0.3807(3) 0.7115(4) 0.7634(7)
H33 H 0.4026 0.6945 0.7058
H34 H 0.3974 0.7482 0.7912
N1 N 0.3783(2) 0.6720(3) 0.8620(5)
N2 N 0.3675(2) 0.5947(3) 0.9650(5)
N3 N 0.3720(2) 0.5007(3) 0.9043(5)
N4 N 0.3794(3) 0.4092(3) 0.8317(7)
N5 N 0.3964(3) 0.3821(4) 0.6629(7)
N6 N 0.1479(3) 0.3978(3) 0.4843(6)
N7 N 0.1166(2) 0.4257(3) 0.6427(6)
N8 N 0.1084(2) 0.5187(3) 0.7103(5)
N9 N 0.1040(3) 0.6140(3) 0.7639(6)
N10 N 0.1286(3) 0.6890(3) 0.6738(6)
loop_
_geom_bond_atom_site_label_1
_geom_bond_atom_site_label_2
_geom_bond_site_symmetry_1
_geom_bond_site_symmetry_2
C1 H1 1_555 1_555
C2 H2 1_555 1_555
C3 C2 1_555 1_555
H3 C3 1_555 1_555
C4 C5 1_555 1_555
C5 H4 1_555 1_555
C6 C5 1_555 1_555
H5 C6 1_555 1_555
C7 C6 1_555 1_555
H6 C7 1_555 1_555
C8 C7 1_555 1_555
C9 H7 1_555 1_555
C10 H8 1_555 1_555
C11 C10 1_555 1_555
H9 C11 1_555 1_555
C12 H10 1_555 1_555
H11 C12 1_555 1_555
C13 C12 1_555 1_555
C14 C13 1_555 1_555
H12 C14 1_555 1_555
C15 C14 1_555 1_555
H13 C15 1_555 1_555
C16 C15 1_555 1_555
C17 C16 1_555 1_555
H14 C17 1_555 1_555
C18 C13 1_555 1_555
H15 C18 1_555 1_555
C19 C16 1_555 1_555
H16 C19 1_555 1_555
H17 C19 1_555 1_555
C20 H18 1_555 1_555
C21 H19 1_555 1_555
C22 C21 1_555 1_555
H20 C22 1_555 1_555
C23 C24 1_555 1_555
C24 H21 1_555 1_555
C25 C24 1_555 1_555
H22 C25 1_555 1_555
C26 C25 1_555 1_555
H23 C26 1_555 1_555
C27 C26 1_555 1_555
C28 H24 1_555 1_555
C29 H25 1_555 1_555
C30 C29 1_555 1_555
H26 C30 1_555 1_555
C31 H27 1_555 1_555
H28 C31 1_555 1_555
C32 C31 1_555 1_555
C33 C32 1_555 1_555
H29 C33 1_555 1_555
C34 C33 1_555 1_555
H30 C34 1_555 1_555
C35 C34 1_555 1_555
C36 C35 1_555 1_555
H31 C36 1_555 1_555
C37 C32 1_555 1_555
H32 C37 1_555 1_555
C38 C35 1_555 1_555
H33 C38 1_555 1_555
H34 C38 1_555 1_555
N1 C1 1_555 1_555
N2 C1 1_555 1_555
N3 C4 1_555 1_555
N4 C8 1_555 1_555
N5 C9 1_555 1_555
N6 C19 1_555 1_555
N7 C20 1_555 1_555
N8 C23 1_555 1_555
N9 C27 1_555 1_555
N10 C28 1_555 1_555
C39 C40 1_555 1_555
C40 C41 1_555 1_555
C41 H35 1_555 1_555
C42 C41 1_555 1_555
H36 C42 1_555 1_555
C43 C42 1_555 1_555
C44 C43 1_555 1_555
H37 C44 1_555 1_555
C45 C44 1_555 1_555
H38 C45 1_555 1_555
C46 C45 1_555 1_555
C47 C46 1_555 1_555
H39 C47 1_555 1_555
C48 C47 1_555 1_555
H40 C48 1_555 1_555
C49 C48 1_555 1_555
H41 C49 1_555 1_555
C50 C49 1_555 1_555
C51 C50 1_555 1_555
H42 C51 1_555 1_555
C52 C51 1_555 1_555
H43 C52 1_555 1_555
C53 C40 1_555 1_555
C54 C43 1_555 1_555
C55 C46 1_555 1_555
O1 C39 1_555 1_555
O2 C39 1_555 1_555
C56 C57 1_555 1_555
C57 H44 1_555 1_555
C58 C57 1_555 1_555
H45 C58 1_555 1_555
C59 C58 1_555 1_555
C60 C59 1_555 1_555
C61 C60 1_555 1_555
H46 C61 1_555 1_555
C62 C61 1_555 1_555
H47 C62 1_555 1_555
C63 C59 1_555 1_555
C64 C60 1_555 1_555
O3 C64 1_555 1_555
O4 C64 1_555 1_555
C65 H48 1_555 1_555
C66 C65 1_555 1_555
C67 C66 1_555 1_555
C68 C67 1_555 1_555
H49 C68 1_555 1_555
C69 C68 1_555 1_555
H50 C69 1_555 1_555
C70 C69 1_555 1_555
C71 C70 1_555 1_555
C72 C67 1_555 1_555
C73 C72 1_555 1_555
C74 C65 1_555 1_555
C75 C70 1_555 1_555
H51 C75 1_555 1_555
C76 C74 1_555 1_555
H52 C76 1_555 1_555
C77 C66 1_555 1_555
O5 C77 1_555 1_555
O6 C77 1_555 1_555
C56B C62 1_555 1_555
C57B C56B 1_555 1_555
H44B C57B 1_555 1_555
C58B C57B 1_555 1_555
H45B C58B 1_555 1_555
C59B C58B 1_555 1_555
C60B C59B 1_555 1_555
C61B C60B 1_555 1_555
H46B C61B 1_555 1_555
C62B C56 1_555 1_555
H47B C62B 1_555 1_555
C63B C56 1_555 1_555
C64B C60B 1_555 1_555
O3B C64B 1_555 1_555
O4B C64B 1_555 1_555
C65B H48B 1_555 1_555
C66B C65B 1_555 1_555
C67B C66B 1_555 1_555
C68B C67B 1_555 1_555
H49B C68B 1_555 1_555
C69B C68B 1_555 1_555
H50B C69B 1_555 1_555
C70B C69B 1_555 1_555
C71B C73 1_555 1_555
C72B C67B 1_555 1_555
C73B C71 1_555 1_555
C74B C65B 1_555 1_555
C75B C76 1_555 1_555
H51B C75B 1_555 1_555
C76B C75 1_555 1_555
H52B C76B 1_555 1_555
C77B C66B 1_555 1_555
O5B C77B 1_555 1_555
O6B C77B 1_555 1_555
C2 N1 1_555 1_555
C3 N2 1_555 1_555
C4 N2 1_555 1_555
C8 N3 1_555 1_555
C9 N4 1_555 1_555
C10 N4 1_555 1_555
C11 N5 1_555 1_555
C12 N5 1_555 1_555
C17 C18 1_555 1_555
C20 N6 1_555 1_555
C21 N6 1_555 1_555
C22 N7 1_555 1_555
C23 N7 1_555 1_555
C27 N8 1_555 1_555
C28 N9 1_555 1_555
C29 N9 1_555 1_555
C30 N10 1_555 1_555
C31 N10 1_555 1_555
C36 C37 1_555 1_555
C38 N1 1_555 1_555
C50 C55 1_555 1_555
C52 C53 1_555 1_555
C53 C54 1_555 1_555
C54 C55 1_555 1_555
C63 C56B 1_555 1_555
C63 C63B 1_555 1_555
C71 C72 1_555 1_555
C73 C74 1_555 1_555
C59B C63B 1_555 1_555
C61B C62B 1_555 1_555
C70B C71B 1_555 1_555
C70B C75B 1_555 1_555
C71B C72B 1_555 1_555
C72B C73B 1_555 1_555
C73B C74B 1_555 1_555
C74B C76B 1_555 1_555

#END
