
#######################################################################
#
#                 Cambridge Crystallographic Data Centre
#                                CCDC 
#
#######################################################################
#
# If this CIF has been generated from an entry in the Cambridge 
# Structural Database, then it will include bibliographic, chemical, 
# crystal, experimental, refinement or atomic coordinate data resulting 
# from the CCDC's data processing and validation procedures.
#
#######################################################################

data_ZECWUB01
_chemical_formula_moiety         'C1 H6 N3 1+,C4 H2 N3 O1 1-'
_chemical_name_systematic        'Guanidinium carbamoyldicyanomethanide'
_symmetry_cell_setting           monoclinic
_symmetry_space_group_name_H-M   'P 21/c'
_symmetry_Int_Tables_number      14
_space_group_name_Hall           '-P 2ybc'
loop_
_symmetry_equiv_pos_site_id
_symmetry_equiv_pos_as_xyz
1 x,y,z
2 -x,1/2+y,1/2-z
3 -x,-y,-z
4 x,1/2-y,1/2+z
_cell_length_a                   8.8489(7)
_cell_length_b                   4.9807(4)
_cell_length_c                   18.7046(16)
_cell_angle_alpha                90
_cell_angle_beta                 100.158(2)
_cell_angle_gamma                90
_cell_volume                     811.459
_exptl_crystal_colour            colorless
_exptl_crystal_description       block
_cell_formula_units_Z            4
loop_
_atom_site_label
_atom_site_type_symbol
_atom_site_fract_x
_atom_site_fract_y
_atom_site_fract_z
O1 O 0.06461(18) 0.7413(3) 0.07432(8)
N1 N 0.20599(13) 0.44670(18) 0.02226(5)
N2 N 0.59109(11) 0.55064(19) 0.09894(5)
N3 N 0.31322(13) 1.15171(19) 0.19581(5)
C1 C 0.33264(15) 0.7656(2) 0.10786(6)
C2 C 0.47568(14) 0.6533(2) 0.10407(6)
C3 C 0.32225(16) 0.9783(2) 0.15552(6)
C4 C 0.19395(13) 0.6519(2) 0.06758(5)
H1 H 0.1089(3) 0.3696(5) -0.00763(13)
H8 H 0.3071(4) 0.3837(6) 0.01315(16)
N4 N -0.13393(12) 1.14888(19) 0.11551(5)
N5 N -0.08766(11) 0.80257(18) 0.19738(5)
N6 N -0.28338(11) 1.10115(18) 0.20388(5)
C5 C -0.17033(14) 1.0164(2) 0.17150(6)
H2 H -0.1267(4) 0.6869(6) 0.23421(16)
H3 H -0.3460(4) 1.2598(5) 0.18371(16)
H4 H -0.0500(4) 1.0737(6) 0.09108(15)
H5 H -0.0153(4) 0.7255(5) 0.16655(15)
H6 H -0.3131(4) 0.9883(5) 0.24377(15)
H7 H -0.1999(4) 1.3024(6) 0.09431(15)
loop_
_geom_bond_atom_site_label_1
_geom_bond_atom_site_label_2
_geom_bond_site_symmetry_1
_geom_bond_site_symmetry_2
O1 C4 1_555 1_555
N1 C4 1_555 1_555
N2 C2 1_555 1_555
N3 C3 1_555 1_555
N4 C5 1_555 1_555
N5 C5 1_555 1_555
N6 C5 1_555 1_555
C1 C2 1_555 1_555
C3 C1 1_555 1_555
C4 C1 1_555 1_555
H1 N1 1_555 1_555
H2 N5 1_555 1_555
H3 N6 1_555 1_555
H4 N4 1_555 1_555
H5 N5 1_555 1_555
H6 N6 1_555 1_555
H7 N4 1_555 1_555
H8 N1 1_555 1_555

#END
