
#######################################################################
#
#                 Cambridge Crystallographic Data Centre
#                                CCDC 
#
#######################################################################
#
# If this CIF has been generated from an entry in the Cambridge 
# Structural Database, then it will include bibliographic, chemical, 
# crystal, experimental, refinement or atomic coordinate data resulting 
# from the CCDC's data processing and validation procedures.
#
#######################################################################

data_ZECWUB
_chemical_formula_moiety         'C1 H6 N3 1+,C4 H2 N3 O1 1-'
_chemical_name_systematic        'Guanidinium carbamoyldicyanomethanide'
_symmetry_cell_setting           monoclinic
_symmetry_space_group_name_H-M   'P 21/c'
_symmetry_Int_Tables_number      14
_space_group_name_Hall           '-P 2ybc'
loop_
_symmetry_equiv_pos_site_id
_symmetry_equiv_pos_as_xyz
1 x,y,z
2 -x,1/2+y,1/2-z
3 -x,-y,-z
4 x,1/2-y,1/2+z
_cell_length_a                   8.8489(7)
_cell_length_b                   4.9807(4)
_cell_length_c                   18.7046(16)
_cell_angle_alpha                90
_cell_angle_beta                 100.158(2)
_cell_angle_gamma                90
_cell_volume                     811.459
_exptl_crystal_colour            colorless
_exptl_crystal_description       plate
_cell_formula_units_Z            4
_exptl_crystal_recrystallization_method methanol
loop_
_atom_site_label
_atom_site_type_symbol
_atom_site_fract_x
_atom_site_fract_y
_atom_site_fract_z
O1 O 0.06445(9) 0.74208(17) 0.07465(5)
N1 N 0.20580(12) 0.4468(2) 0.02283(6)
N2 N 0.59249(12) 0.5538(2) 0.09846(6)
N3 N 0.31441(13) 1.1549(2) 0.19608(6)
C1 C 0.33367(13) 0.7675(2) 0.10803(6)
C2 C 0.47741(13) 0.6553(2) 0.10392(6)
C3 C 0.32319(13) 0.9815(2) 0.15597(6)
C4 C 0.19437(13) 0.6525(2) 0.06777(6)
H1 H 0.1225(18) 0.382(3) -0.0031(8)
H2 H 0.2955(19) 0.389(3) 0.0155(8)
N4 N -0.13307(13) 1.1508(2) 0.11576(6)
N5 N -0.08734(12) 0.8040(2) 0.19776(6)
N6 N -0.28261(12) 1.1040(2) 0.20395(6)
C5 C -0.16997(12) 1.0185(2) 0.17165(6)
H3 H -0.0584(19) 1.087(3) 0.0948(9)
H4 H -0.192(2) 1.285(3) 0.0964(9)
H5 H -0.1272(19) 0.702(3) 0.2292(9)
H6 H -0.0258(19) 0.739(3) 0.1707(9)
H7 H -0.3389(19) 1.246(3) 0.1855(9)
H8 H -0.3117(19) 1.003(4) 0.2386(10)
loop_
_geom_bond_atom_site_label_1
_geom_bond_atom_site_label_2
_geom_bond_site_symmetry_1
_geom_bond_site_symmetry_2
O1 C4 1_555 1_555
N1 C4 1_555 1_555
N2 C2 1_555 1_555
N3 C3 1_555 1_555
N4 C5 1_555 1_555
N5 C5 1_555 1_555
N6 C5 1_555 1_555
C1 C2 1_555 1_555
C3 C1 1_555 1_555
C4 C1 1_555 1_555
H1 N1 1_555 1_555
H2 N1 1_555 1_555
H3 N4 1_555 1_555
H4 N4 1_555 1_555
H5 N5 1_555 1_555
H6 N5 1_555 1_555
H7 N6 1_555 1_555
H8 N6 1_555 1_555

#END
