
#######################################################################
#
#                 Cambridge Crystallographic Data Centre
#                                CCDC 
#
#######################################################################
#
# If this CIF has been generated from an entry in the Cambridge 
# Structural Database, then it will include bibliographic, chemical, 
# crystal, experimental, refinement or atomic coordinate data resulting 
# from the CCDC's data processing and validation procedures.
#
#######################################################################

data_ZECYEL
_chemical_formula_moiety         'C8 H8 N1 O1 P1 S3'
_chemical_name_systematic        
2,4-Dithioxo-4-phenoxy-1,3,4-thiazaphospholidine
_symmetry_cell_setting           monoclinic
_symmetry_space_group_name_H-M   'P 21/n'
_symmetry_Int_Tables_number      14
_space_group_name_Hall           '-P 2yn'
loop_
_symmetry_equiv_pos_site_id
_symmetry_equiv_pos_as_xyz
1 x,y,z
2 1/2-x,1/2+y,1/2-z
3 -x,-y,-z
4 1/2+x,1/2-y,1/2+z
_cell_length_a                   9.529(2)
_cell_length_b                   6.413(2)
_cell_length_c                   19.260(4)
_cell_angle_alpha                90
_cell_angle_beta                 93.67(2)
_cell_angle_gamma                90
_cell_volume                     1174.55
_exptl_crystal_colour            yellow
_chemical_melting_point          122deg.C
_cell_formula_units_Z            4
loop_
_atom_site_label
_atom_site_type_symbol
_atom_site_fract_x
_atom_site_fract_y
_atom_site_fract_z
S1 S 1.0130(1) -0.1003(2) 0.39075(5)
S2 S 0.61921(8) 0.2266(2) 0.46028(6)
S3 S 0.78011(8) 0.5628(1) 0.53235(5)
P1 P 0.86116(8) 0.0923(1) 0.38741(4)
O1 O 0.8213(2) 0.1952(4) 0.3134(1)
N1 N 0.8831(2) 0.2905(4) 0.4440(1)
C1 C 0.7751(3) 0.3643(5) 0.4781(2)
C2 C 0.6904(4) 0.0155(7) 0.4114(2)
C3 C 0.9266(3) 0.2448(5) 0.2675(2)
C4 C 0.9937(5) 0.4309(6) 0.2739(2)
C5 C 1.0981(5) 0.4679(8) 0.2267(3)
C6 C 1.1226(4) 0.3242(9) 0.1768(2)
C7 C 1.0494(4) 0.1447(7) 0.1706(2)
C8 C 0.9508(4) 0.1051(6) 0.2171(2)
H1 H 0.964(3) 0.337(5) 0.453(2)
H2 H 0.637(3) -0.019(7) 0.374(2)
H3 H 0.705(4) -0.089(6) 0.444(3)
H4 H 0.978(4) 0.519(7) 0.308(2)
H5 H 1.125(4) 0.585(5) 0.239(2)
H6 H 1.201(4) 0.368(6) 0.144(2)
H7 H 1.082(3) 0.031(6) 0.134(2)
H8 H 0.896(4) -0.015(6) 0.221(2)
loop_
_geom_bond_atom_site_label_1
_geom_bond_atom_site_label_2
_geom_bond_site_symmetry_1
_geom_bond_site_symmetry_2
S1 P1 1_555 1_555
S2 C1 1_555 1_555
S3 C1 1_555 1_555
P1 O1 1_555 1_555
O1 C3 1_555 1_555
N1 P1 1_555 1_555
C1 N1 1_555 1_555
C2 S2 1_555 1_555
C3 C4 1_555 1_555
C4 C5 1_555 1_555
C5 C6 1_555 1_555
C6 C7 1_555 1_555
C7 C8 1_555 1_555
C8 C3 1_555 1_555
H1 N1 1_555 1_555
H2 C2 1_555 1_555
H3 C2 1_555 1_555
H4 C4 1_555 1_555
H5 C5 1_555 1_555
H6 C6 1_555 1_555
H7 C7 1_555 1_555
H8 C8 1_555 1_555
P1 C2 1_555 1_555

#END
