
#######################################################################
#
#                 Cambridge Crystallographic Data Centre
#                                CCDC 
#
#######################################################################
#
# If this CIF has been generated from an entry in the Cambridge 
# Structural Database, then it will include bibliographic, chemical, 
# crystal, experimental, refinement or atomic coordinate data resulting 
# from the CCDC's data processing and validation procedures.
#
#######################################################################

data_ZEDDEU
_chemical_formula_moiety         'C17 H25 N1 O3 S1,C17 H23 N1 O3 S1'
_chemical_name_systematic        
'4,6-dimethyl-2-((4-methylphenyl)sulfonyl)-2,3,3a,4,6,8a-hexahydro-1H-oxepino[3,4-c]pyrrole 4,6-dimethyl-2-((4-methylphenyl)sulfonyl)octahydro-1H-oxepino[3,4-c]pyrrole'
_symmetry_cell_setting           monoclinic
_symmetry_space_group_name_H-M   'P 21'
_symmetry_Int_Tables_number      4
_space_group_name_Hall           'P 2yb'
loop_
_symmetry_equiv_pos_site_id
_symmetry_equiv_pos_as_xyz
1 x,y,z
2 -x,1/2+y,-z
_cell_length_a                   9.0973(2)
_cell_length_b                   8.2011(2)
_cell_length_c                   22.9008(6)
_cell_angle_alpha                90
_cell_angle_beta                 99.3570(10)
_cell_angle_gamma                90
_cell_volume                     1685.85
_exptl_crystal_colour            colorless
_exptl_crystal_description       block
_cell_formula_units_Z            2
loop_
_atom_site_label
_atom_site_type_symbol
_atom_site_fract_x
_atom_site_fract_y
_atom_site_fract_z
S1 S 1.86628(6) 0.87357(7) 0.43136(3)
O1 O 1.81444(18) 0.8276(2) 0.48472(8)
O2 O 1.81082(18) 1.0185(2) 0.40050(8)
O3 O 2.34825(18) 0.8129(2) 0.34117(7)
N1 N 2.0469(2) 0.8941(2) 0.44797(8)
C1 C 1.8293(2) 0.7089(3) 0.38128(10)
C2 C 1.8055(3) 0.7363(3) 0.32050(10)
H1 H 1.8125 0.8433 0.3054
C3 C 1.7717(3) 0.6066(3) 0.28264(11)
H2 H 1.7550 0.6253 0.2411
C4 C 1.7615(3) 0.4485(3) 0.30385(11)
C5 C 1.7889(3) 0.4233(3) 0.36502(11)
H3 H 1.7837 0.3161 0.3803
C6 C 1.8233(3) 0.5524(3) 0.40339(11)
H4 H 1.8429 0.5340 0.4449
C7 C 1.7170(3) 0.3079(4) 0.26267(13)
H5 H 1.7021 0.3467 0.2217
H6 H 1.6241 0.2602 0.2713
H7 H 1.7957 0.2251 0.2682
C8 C 2.1311(2) 0.7541(3) 0.47689(10)
H8 H 2.1030 0.6520 0.4548
H9 H 2.1126 0.7409 0.5181
C9 C 2.2953(2) 0.7969(3) 0.47581(10)
H10 H 2.3383 0.8392 0.5159
C10 C 2.2914(2) 0.9417(3) 0.43132(10)
H11 H 2.3174 1.0429 0.4551
C11 C 2.1289(2) 0.9566(3) 0.40215(11)
H12 H 2.1022 1.0715 0.3922
H13 H 2.1084 0.8899 0.3657
C12 C 2.3862(3) 0.6470(3) 0.46393(11)
H14 H 2.4639 0.6056 0.4929
C13 C 2.3456(3) 0.5673(3) 0.40316(12)
H15 H 2.2878 0.4704 0.3977
C14 C 2.4026(3) 0.6512(3) 0.35172(11)
H16 H 2.5139 0.6546 0.3603
C15 C 2.3992(3) 0.9292(3) 0.38678(10)
H17 H 2.4984 0.8929 0.4082
C16 C 2.4188(3) 1.0897(4) 0.35695(13)
H18 H 2.4885 1.0759 0.3289
H19 H 2.4584 1.1708 0.3869
H20 H 2.3223 1.1268 0.3357
C17 C 2.3553(3) 0.5591(4) 0.29448(13)
H21 H 2.3922 0.6160 0.2621
H22 H 2.2463 0.5532 0.2860
H23 H 2.3967 0.4486 0.2983
S2 S 0.87238(6) 0.65618(7) 0.09037(2)
O4 O 0.75343(17) 0.7043(2) 0.04496(7)
O5 O 0.85509(19) 0.5197(2) 0.12788(8)
O6 O 1.43927(17) 0.6680(2) 0.14303(7)
N2 N 1.0136(2) 0.6158(2) 0.05776(8)
C18 C 0.9230(2) 0.8275(3) 0.13573(10)
C19 C 1.0156(3) 0.8088(3) 0.19039(10)
H24 H 1.0418 0.7031 0.2056
C20 C 1.0682(3) 0.9453(3) 0.22177(10)
H25 H 1.1332 0.9327 0.2584
C21 C 1.0290(3) 1.1011(3) 0.20136(11)
C22 C 0.9310(3) 1.1174(3) 0.14795(11)
H26 H 0.8999 1.2228 0.1338
C23 C 0.8792(2) 0.9810(3) 0.11553(10)
H27 H 0.8131 0.9932 0.0792
C24 C 1.0905(3) 1.2509(4) 0.23485(13)
H28 H 1.1568 1.2181 0.2710
H29 H 1.0082 1.3160 0.2453
H30 H 1.1464 1.3159 0.2100
C25 C 1.1491(2) 0.5435(3) 0.09265(10)
H31 H 1.1378 0.4244 0.0973
H32 H 1.1722 0.5943 0.1323
C26 C 1.2698(2) 0.5820(3) 0.05541(10)
H33 H 1.2614 0.4997 0.0228
C27 C 1.2226(3) 0.7477(3) 0.02731(10)
H34 H 1.2630 0.7589 -0.0106
C28 C 1.0532(3) 0.7318(3) 0.01335(10)
H35 H 1.0049 0.8388 0.0168
H36 H 1.0218 0.6894 -0.0272
C29 C 1.2689(3) 0.8965(3) 0.06636(11)
H37 H 1.2254 0.8870 0.1031
H38 H 1.2271 0.9958 0.0453
C30 C 1.4385(3) 0.9167(3) 0.08293(12)
H39 H 1.4860 0.8778 0.0496
H40 H 1.4617 1.0341 0.0886
C31 C 1.5058(3) 0.8255(3) 0.13847(12)
H41 H 1.6147 0.8106 0.1381
C32 C 1.4271(2) 0.5691(3) 0.09101(11)
H42 H 1.5006 0.6078 0.0660
C33 C 1.4647(3) 0.3947(3) 0.11062(13)
H43 H 1.5658 0.3909 0.1332
H44 H 1.4589 0.3244 0.0757
H45 H 1.3937 0.3566 0.1355
C34 C 1.4863(3) 0.9169(4) 0.19425(13)
H46 H 1.5308 0.8538 0.2290
H47 H 1.3799 0.9328 0.1951
H48 H 1.5356 1.0233 0.1947
loop_
_geom_bond_atom_site_label_1
_geom_bond_atom_site_label_2
_geom_bond_site_symmetry_1
_geom_bond_site_symmetry_2
S1 O1 1_555 1_555
O2 S1 1_555 1_555
O3 C14 1_555 1_555
N1 S1 1_555 1_555
C1 S1 1_555 1_555
C2 C1 1_555 1_555
H1 C2 1_555 1_555
C3 C2 1_555 1_555
H2 C3 1_555 1_555
C4 C3 1_555 1_555
C5 C4 1_555 1_555
H3 C5 1_555 1_555
C6 C1 1_555 1_555
H4 C6 1_555 1_555
C7 C4 1_555 1_555
H5 C7 1_555 1_555
H6 C7 1_555 1_555
H7 C7 1_555 1_555
C8 N1 1_555 1_555
H8 C8 1_555 1_555
H9 C8 1_555 1_555
C9 C8 1_555 1_555
H10 C9 1_555 1_555
C10 C9 1_555 1_555
H11 C10 1_555 1_555
C11 N1 1_555 1_555
H12 C11 1_555 1_555
H13 C11 1_555 1_555
C12 C9 1_555 1_555
H14 C12 1_555 1_555
C13 C12 1_555 1_555
H15 C13 1_555 1_555
C14 C13 1_555 1_555
H16 C14 1_555 1_555
C15 O3 1_555 1_555
H17 C15 1_555 1_555
C16 C15 1_555 1_555
H18 C16 1_555 1_555
H19 C16 1_555 1_555
H20 C16 1_555 1_555
C17 C14 1_555 1_555
H21 C17 1_555 1_555
H22 C17 1_555 1_555
H23 C17 1_555 1_555
S2 O4 1_555 1_555
O5 S2 1_555 1_555
O6 C31 1_555 1_555
N2 S2 1_555 1_555
C18 S2 1_555 1_555
C19 C18 1_555 1_555
H24 C19 1_555 1_555
C20 C19 1_555 1_555
H25 C20 1_555 1_555
C21 C20 1_555 1_555
C22 C21 1_555 1_555
H26 C22 1_555 1_555
C23 C18 1_555 1_555
H27 C23 1_555 1_555
C24 C21 1_555 1_555
H28 C24 1_555 1_555
H29 C24 1_555 1_555
H30 C24 1_555 1_555
C25 N2 1_555 1_555
H31 C25 1_555 1_555
H32 C25 1_555 1_555
C26 C25 1_555 1_555
H33 C26 1_555 1_555
C27 C26 1_555 1_555
H34 C27 1_555 1_555
C28 N2 1_555 1_555
H35 C28 1_555 1_555
H36 C28 1_555 1_555
C29 C27 1_555 1_555
H37 C29 1_555 1_555
H38 C29 1_555 1_555
C30 C29 1_555 1_555
H39 C30 1_555 1_555
H40 C30 1_555 1_555
C31 C30 1_555 1_555
H41 C31 1_555 1_555
C32 O6 1_555 1_555
H42 C32 1_555 1_555
C33 C32 1_555 1_555
H43 C33 1_555 1_555
H44 C33 1_555 1_555
H45 C33 1_555 1_555
C34 C31 1_555 1_555
H46 C34 1_555 1_555
H47 C34 1_555 1_555
H48 C34 1_555 1_555
C5 C6 1_555 1_555
C10 C11 1_555 1_555
C10 C15 1_555 1_555
C22 C23 1_555 1_555
C26 C32 1_555 1_555
C27 C28 1_555 1_555

#END
