
#######################################################################
#
#                 Cambridge Crystallographic Data Centre
#                                CCDC 
#
#######################################################################
#
# If this CIF has been generated from an entry in the Cambridge 
# Structural Database, then it will include bibliographic, chemical, 
# crystal, experimental, refinement or atomic coordinate data resulting 
# from the CCDC's data processing and validation procedures.
#
#######################################################################

data_ZEDFUL
_chemical_name_common            
(5-Methyl-1-(4-chlorophenylamino)-1H-1,2,3-triazol-4-yl)methanol
_chemical_formula_moiety         'C10 H11 Cl1 N4 O1'
_chemical_name_systematic        
(1-((4-Chlorophenyl)amino)-5-methyl-1H-1,2,3-triazol-4-yl)methanol
_symmetry_cell_setting           monoclinic
_symmetry_space_group_name_H-M   'P 21/c'
_symmetry_Int_Tables_number      14
_space_group_name_Hall           '-P 2ybc'
loop_
_symmetry_equiv_pos_site_id
_symmetry_equiv_pos_as_xyz
1 x,y,z
2 -x,1/2+y,1/2-z
3 -x,-y,-z
4 x,1/2-y,1/2+z
_cell_length_a                   13.4984(8)
_cell_length_b                   6.6361(4)
_cell_length_c                   14.0835(5)
_cell_angle_alpha                90
_cell_angle_beta                 118.380(3)
_cell_angle_gamma                90
_cell_volume                     1109.93
_exptl_crystal_colour            colorless
_exptl_crystal_description       block
_chemical_melting_point          '189-190 deg.C'
_cell_formula_units_Z            4
_exptl_crystal_recrystallization_method ethanol
loop_
_atom_site_label
_atom_site_type_symbol
_atom_site_fract_x
_atom_site_fract_y
_atom_site_fract_z
Cl1 Cl 1.14784(5) 0.24514(10) 1.00428(5)
H1 H 0.458(2) 0.862(4) 0.2206(17)
N1 N 0.59589(15) 0.4869(3) 0.42524(16)
N2 N 0.62840(15) 0.3751(3) 0.51553(16)
N3 N 0.65590(14) 0.5044(3) 0.60132(15)
N4 N 0.68918(14) 0.4387(3) 0.70965(15)
H2 H 0.6418(17) 0.355(3) 0.715(2)
O1 O 0.47079(13) 0.7927(3) 0.27541(13)
C1 C 0.57142(18) 0.8463(4) 0.36755(18)
H3 H 0.5616 0.9773 0.3957
H4 H 0.6326 0.8608 0.3482
C2 C 0.60284(17) 0.6853(3) 0.45394(19)
C3 C 0.64120(17) 0.6991(3) 0.56737(19)
C4 C 0.6663(2) 0.8697(4) 0.6468(2)
H5 H 0.6177 0.8578 0.6806
H6 H 0.6520 0.9988 0.6087
H7 H 0.7453 0.8630 0.7024
C5 C 0.79868(17) 0.3821(3) 0.77371(18)
C6 C 0.87582(19) 0.4390(4) 0.7433(2)
H8 H 0.8554 0.5044 0.6765
C7 C 0.98349(19) 0.3961(4) 0.8145(2)
H9 H 1.0416 0.4329 0.7980
C8 C 1.01247(18) 0.2966(4) 0.9144(2)
C9 C 0.93546(19) 0.2384(4) 0.9445(2)
H10 H 0.9558 0.1727 1.0111
C10 C 0.82839(18) 0.2801(3) 0.87336(19)
H11 H 0.7703 0.2409 0.8895
loop_
_geom_bond_atom_site_label_1
_geom_bond_atom_site_label_2
_geom_bond_site_symmetry_1
_geom_bond_site_symmetry_2
Cl1 C8 1_555 1_555
H1 O1 1_555 1_555
N1 N2 1_555 1_555
N2 N3 1_555 1_555
N3 N4 1_555 1_555
N4 H2 1_555 1_555
O1 C1 1_555 1_555
C1 H3 1_555 1_555
H4 C1 1_555 1_555
C2 N1 1_555 1_555
C3 N3 1_555 1_555
C4 C3 1_555 1_555
H5 C4 1_555 1_555
H6 C4 1_555 1_555
H7 C4 1_555 1_555
C5 N4 1_555 1_555
C6 C5 1_555 1_555
H8 C6 1_555 1_555
C7 C6 1_555 1_555
H9 C7 1_555 1_555
C8 C7 1_555 1_555
C9 C8 1_555 1_555
H10 C9 1_555 1_555
C10 C5 1_555 1_555
H11 C10 1_555 1_555
C1 C2 1_555 1_555
C2 C3 1_555 1_555
C9 C10 1_555 1_555

#END
