
#######################################################################
#
#                 Cambridge Crystallographic Data Centre
#                                CCDC 
#
#######################################################################
#
# If this CIF has been generated from an entry in the Cambridge 
# Structural Database, then it will include bibliographic, chemical, 
# crystal, experimental, refinement or atomic coordinate data resulting 
# from the CCDC's data processing and validation procedures.
#
#######################################################################

data_ZEDFEW
_chemical_formula_moiety         
'1.5(C20 H40 K1 O8 1+),0.5(C16 H32 K1 O7 1+),C56 H60 B2 2-'
_chemical_name_systematic        
'sesqui((18-crown-6)-bis(tetrahydrofuran)-potassium) hemikis((18-crown-6)-tetrahydrofuran-potassium) ((5a,10c-dihydropyrene-1,6-diyl)(tetramesityl)diboron diradical)'
_symmetry_cell_setting           monoclinic
_symmetry_space_group_name_H-M   'P 21/n'
_symmetry_Int_Tables_number      14
_space_group_name_Hall           '-P 2yn'
loop_
_symmetry_equiv_pos_site_id
_symmetry_equiv_pos_as_xyz
1 x,y,z
2 1/2-x,1/2+y,1/2-z
3 -x,-y,-z
4 1/2+x,1/2-y,1/2+z
_cell_length_a                   15.8314(8)
_cell_length_b                   54.267(3)
_cell_length_c                   22.8736(11)
_cell_angle_alpha                90
_cell_angle_beta                 103.8470(10)
_cell_angle_gamma                90
_cell_volume                     19080.1
_exptl_crystal_description       block
_cell_formula_units_Z            8
loop_
_atom_site_label
_atom_site_type_symbol
_atom_site_fract_x
_atom_site_fract_y
_atom_site_fract_z
B1 B 0.1437(3) 0.43536(10) 0.7907(2)
B2 B 0.2395(3) 0.51113(10) 0.9067(2)
C1 C 0.2411(3) 0.54448(10) 0.6205(2)
H1 H 0.2415 0.5619 0.6164
C2 C 0.2470(3) 0.52932(11) 0.5711(2)
C3 C 0.2514(3) 0.50441(10) 0.5777(2)
H2 H 0.2573 0.4946 0.5446
C4 C 0.2475(3) 0.49264(10) 0.63220(19)
C5 C 0.2537(3) 0.46709(10) 0.64075(19)
H3 H 0.2680 0.4570 0.6106
C6 C 0.2394(3) 0.45629(9) 0.69264(19)
H4 H 0.2413 0.4388 0.6961
C7 C 0.2221(3) 0.47030(9) 0.74012(18)
C8 C 0.1933(3) 0.45907(8) 0.79074(18)
C9 C 0.2001(3) 0.47468(8) 0.84110(18)
H5 H 0.1903 0.4672 0.8765
C10 C 0.2196(3) 0.49981(9) 0.84464(18)
C11 C 0.2232(3) 0.51156(8) 0.78738(18)
C12 C 0.2203(3) 0.53688(9) 0.77914(18)
H6 H 0.2149 0.5470 0.8120
C13 C 0.2249(3) 0.54841(9) 0.7254(2)
H7 H 0.2216 0.5659 0.7222
C14 C 0.2347(3) 0.53393(10) 0.67567(19)
C15 C 0.2371(3) 0.50794(9) 0.68218(18)
C16 C 0.2279(3) 0.49651(9) 0.73669(18)
C17 C 0.2483(4) 0.54078(12) 0.5088(2)
C18 C 0.1713(4) 0.52908(12) 0.4606(2)
H8 H 0.1702 0.5361 0.4209
H9 H 0.1162 0.5326 0.4713
H10 H 0.1796 0.5112 0.4595
C19 C 0.3305(4) 0.53407(14) 0.4911(2)
H11 H 0.3277 0.5400 0.4503
H12 H 0.3374 0.5161 0.4923
H13 H 0.3802 0.5417 0.5193
C20 C 0.2281(6) 0.56824(13) 0.5059(2)
H14 H 0.2729 0.5770 0.5356
H15 H 0.1712 0.5710 0.5147
H16 H 0.2270 0.5744 0.4655
C21 C 0.1780(3) 0.41789(9) 0.90451(19)
C22 C 0.1175(3) 0.42657(8) 0.85138(18)
C23 C 0.0296(3) 0.42773(9) 0.8555(2)
C24 C 0.0036(3) 0.41989(10) 0.9062(2)
H17 H -0.0560 0.4211 0.9069
C25 C 0.0629(3) 0.41028(10) 0.9563(2)
C26 C 0.1493(3) 0.40973(9) 0.9537(2)
H18 H 0.1910 0.4034 0.9873
C27 C 0.2743(3) 0.41839(10) 0.9095(2)
H19 H 0.2949 0.4355 0.9138
H20 H 0.2866 0.4112 0.8732
H21 H 0.3041 0.4088 0.9448
C28 C -0.0389(3) 0.43841(11) 0.8042(2)
H22 H -0.0958 0.4376 0.8141
H23 H -0.0409 0.4289 0.7675
H24 H -0.0246 0.4556 0.7978
C29 C 0.0318(4) 0.40096(13) 1.0096(2)
H25 H 0.0089 0.4148 1.0288
H26 H 0.0805 0.3934 1.0387
H27 H -0.0142 0.3887 0.9961
C30 C 0.1198(3) 0.39501(9) 0.72465(19)
C31 C 0.1028(3) 0.42026(9) 0.72977(19)
C32 C 0.0459(3) 0.43152(9) 0.6802(2)
C33 C 0.0060(3) 0.41784(10) 0.6294(2)
H28 H -0.0336 0.4259 0.5972
C34 C 0.0223(3) 0.39296(10) 0.6242(2)
C35 C 0.0807(3) 0.38189(9) 0.6730(2)
H29 H 0.0940 0.3649 0.6707
C36 C 0.1837(3) 0.38126(10) 0.7740(2)
H30 H 0.1737 0.3635 0.7687
H31 H 0.1753 0.3863 0.8133
H32 H 0.2433 0.3851 0.7717
C37 C 0.0274(3) 0.45897(9) 0.6772(2)
H33 H 0.0651 0.4671 0.6549
H34 H 0.0386 0.4657 0.7180
H35 H -0.0336 0.4618 0.6566
C38 C -0.0181(4) 0.37887(11) 0.5680(2)
H36 H -0.0765 0.3853 0.5506
H37 H -0.0221 0.3614 0.5779
H38 H 0.0179 0.3807 0.5389
C39 C 0.1248(3) 0.49045(9) 0.95858(18)
C40 C 0.2123(3) 0.49537(9) 0.95869(18)
C41 C 0.2762(3) 0.48463(9) 1.00558(19)
C42 C 0.2524(4) 0.47104(9) 1.0509(2)
H39 H 0.2969 0.4642 1.0821
C43 C 0.1669(4) 0.46714(10) 1.0520(2)
C44 C 0.1027(3) 0.47693(9) 1.00455(19)
H40 H 0.0431 0.4743 1.0037
C45 C 0.0510(3) 0.49909(10) 0.9071(2)
H41 H 0.0444 0.4876 0.8732
H42 H 0.0643 0.5156 0.8942
H43 H -0.0032 0.4997 0.9206
C46 C 0.3714(3) 0.48579(10) 1.0040(2)
H44 H 0.4070 0.4783 1.0407
H45 H 0.3887 0.5030 1.0014
H46 H 0.3800 0.4767 0.9688
C47 C 0.1396(5) 0.45330(12) 1.1016(2)
H47 H 0.1592 0.4362 1.1021
H48 H 0.0760 0.4537 1.0946
H49 H 0.1657 0.4610 1.1404
C48 C 0.2631(3) 0.55541(8) 0.95690(18)
C49 C 0.2938(3) 0.53609(9) 0.92506(17)
C50 C 0.3774(3) 0.53953(9) 0.91382(18)
C51 C 0.4278(3) 0.55997(9) 0.93647(19)
H50 H 0.4844 0.5614 0.9295
C52 C 0.3983(3) 0.57828(9) 0.96869(19)
C53 C 0.3158(3) 0.57580(9) 0.97749(18)
H51 H 0.2937 0.5885 0.9984
C54 C 0.1723(3) 0.55452(9) 0.9676(2)
H52 H 0.1626 0.5692 0.9902
H53 H 0.1662 0.5397 0.9908
H54 H 0.1294 0.5541 0.9289
C55 C 0.4144(3) 0.52107(10) 0.8767(2)
H55 H 0.3818 0.5220 0.8345
H56 H 0.4095 0.5044 0.8921
H57 H 0.4758 0.5249 0.8795
C56 C 0.4560(4) 0.59997(10) 0.9946(2)
H58 H 0.4197 0.6145 0.9957
H59 H 0.4965 0.6034 0.9693
H60 H 0.4888 0.5960 1.0355
B3 B 0.1235(3) 0.28561(12) 0.5318(2)
B4 B 0.4314(3) 0.30437(9) 0.5438(2)
C57 C 0.2630(3) 0.30605(9) 0.23918(19)
H61 H 0.3084 0.3066 0.2185
C58 C 0.1766(3) 0.30738(9) 0.20592(19)
C59 C 0.1104(3) 0.30664(9) 0.23633(19)
H62 H 0.0517 0.3077 0.2138
C60 C 0.1273(3) 0.30434(9) 0.29964(19)
C61 C 0.0619(3) 0.30422(9) 0.3316(2)
H63 H 0.0031 0.3064 0.3102
C62 C 0.0807(3) 0.30108(9) 0.39306(18)
H64 H 0.0338 0.3006 0.4124
C63 C 0.1657(3) 0.29863(8) 0.42851(18)
C64 C 0.1860(3) 0.29370(9) 0.49356(18)
C65 C 0.2733(3) 0.29505(9) 0.52396(18)
H65 H 0.2858 0.2926 0.5663
C66 C 0.3457(3) 0.29970(8) 0.49921(18)
C67 C 0.3250(3) 0.30092(8) 0.43236(17)
C68 C 0.3893(3) 0.30092(8) 0.39996(18)
H66 H 0.4485 0.3001 0.4216
C69 C 0.3707(3) 0.30199(9) 0.33736(18)
H67 H 0.4170 0.3015 0.3176
C70 C 0.2849(3) 0.30386(8) 0.30302(17)
C71 C 0.2160(3) 0.30287(8) 0.33456(17)
C72 C 0.2361(3) 0.30089(8) 0.39916(18)
C73 C 0.1574(3) 0.30761(9) 0.13692(19)
C74 C 0.0620(3) 0.31361(14) 0.1077(2)
H68 H 0.0243 0.3013 0.1201
H69 H 0.0527 0.3133 0.0638
H70 H 0.0478 0.3300 0.1206
C75 C 0.2120(4) 0.32743(12) 0.1150(2)
H71 H 0.1953 0.3438 0.1266
H72 H 0.2018 0.3266 0.0710
H73 H 0.2739 0.3246 0.1333
C76 C 0.1773(5) 0.28231(12) 0.1152(2)
H74 H 0.2379 0.2780 0.1336
H75 H 0.1682 0.2825 0.0713
H76 H 0.1386 0.2701 0.1266
C77 C 0.1807(3) 0.31114(11) 0.6322(2)
C78 C 0.1547(3) 0.28794(10) 0.60353(19)
C79 C 0.1552(3) 0.26763(11) 0.6417(2)
C80 C 0.1774(3) 0.27021(13) 0.7041(2)
H77 H 0.1773 0.2560 0.7285
C81 C 0.1993(4) 0.29247(15) 0.7313(2)
C82 C 0.2030(4) 0.31283(13) 0.6958(2)
H78 H 0.2207 0.3282 0.7144
C83 C 0.1894(3) 0.33407(11) 0.5979(2)
H79 H 0.2428 0.3332 0.5834
H80 H 0.1919 0.3484 0.6243
H81 H 0.1391 0.3356 0.5635
C84 C 0.1368(4) 0.24181(12) 0.6166(3)
H82 H 0.1787 0.2376 0.5928
H83 H 0.0777 0.2411 0.5908
H84 H 0.1422 0.2301 0.6498
C85 C 0.2181(6) 0.29514(19) 0.8003(3)
H85 H 0.1647 0.2999 0.8119
H86 H 0.2627 0.3078 0.8137
H87 H 0.2390 0.2794 0.8193
C86 C -0.0457(3) 0.28345(9) 0.52042(18)
C87 C 0.0293(3) 0.27353(9) 0.50582(18)
C88 C 0.0202(3) 0.25145(10) 0.47408(19)
C89 C -0.0596(3) 0.23875(10) 0.4604(2)
H88 H -0.0638 0.2235 0.4396
C90 C -0.1325(3) 0.24815(10) 0.47677(19)
C91 C -0.1248(3) 0.27063(9) 0.50530(18)
H89 H -0.1746 0.2777 0.5150
C92 C -0.0435(3) 0.30842(9) 0.5494(2)
H90 H -0.1026 0.3132 0.5510
H91 H -0.0201 0.3206 0.5258
H92 H -0.0064 0.3077 0.5904
C93 C 0.0952(3) 0.24003(11) 0.4532(2)
H93 H 0.1082 0.2501 0.4209
H94 H 0.0793 0.2233 0.4383
H95 H 0.1465 0.2393 0.4870
C94 C -0.2171(3) 0.23370(11) 0.4643(2)
H96 H -0.2067 0.2175 0.4836
H97 H -0.2390 0.2316 0.4207
H98 H -0.2601 0.2427 0.4805
C95 C 0.4318(3) 0.27187(9) 0.63080(19)
C96 C 0.4400(3) 0.29661(9) 0.61343(18)
C97 C 0.4541(3) 0.31420(9) 0.65945(19)
C98 C 0.4604(3) 0.30686(11) 0.7203(2)
H99 H 0.4683 0.3191 0.7508
C99 C 0.4556(4) 0.28289(13) 0.7360(2)
C100 C 0.4401(3) 0.26583(11) 0.6911(2)
H100 H 0.4347 0.2490 0.7014
C101 C 0.4126(3) 0.25134(9) 0.5862(2)
H101 H 0.4165 0.2356 0.6076
H102 H 0.4549 0.2516 0.5612
H103 H 0.3538 0.2534 0.5606
C102 C 0.4597(3) 0.34114(9) 0.6467(2)
H104 H 0.5046 0.3439 0.6244
H105 H 0.4748 0.3503 0.6847
H106 H 0.4035 0.3469 0.6226
C103 C 0.4647(6) 0.27536(16) 0.8019(2)
H107 H 0.5000 0.2876 0.8284
H108 H 0.4931 0.2592 0.8090
H109 H 0.4070 0.2744 0.8103
C104 C 0.5982(3) 0.30682(8) 0.54248(18)
C105 C 0.5148(3) 0.31786(8) 0.52957(17)
C106 C 0.5106(3) 0.34237(8) 0.50798(18)
C107 C 0.5851(3) 0.35504(9) 0.50294(19)
H110 H 0.5798 0.3716 0.4890
C108 C 0.6669(3) 0.34421(9) 0.5177(2)
C109 C 0.6718(3) 0.31982(9) 0.53690(19)
H111 H 0.7268 0.3118 0.5465
C110 C 0.6092(3) 0.27998(9) 0.5605(2)
H112 H 0.6710 0.2756 0.5688
H113 H 0.5763 0.2697 0.5276
H114 H 0.5876 0.2773 0.5966
C111 C 0.4249(3) 0.35570(9) 0.4885(2)
H115 H 0.3889 0.3476 0.4529
H116 H 0.4354 0.3729 0.4789
H117 H 0.3947 0.3553 0.5213
C112 C 0.7475(3) 0.35830(11) 0.5120(3)
H118 H 0.7979 0.3525 0.5427
H119 H 0.7388 0.3759 0.5176
H120 H 0.7578 0.3555 0.4719
C113 C 0.7629(3) 0.43399(11) 0.6710(2)
H121 H 0.7909 0.4316 0.6371
H122 H 0.7857 0.4214 0.7020
C114 C 0.7831(3) 0.45916(10) 0.6972(2)
H123 H 0.8461 0.4626 0.7039
H124 H 0.7506 0.4718 0.6694
C115 C 0.7783(4) 0.48209(11) 0.7850(2)
H125 H 0.7389 0.4954 0.7652
H126 H 0.8390 0.4870 0.7864
C116 C 0.7671(3) 0.47771(10) 0.8475(2)
H127 H 0.8036 0.4637 0.8663
H128 H 0.7850 0.4925 0.8728
C117 C 0.6633(3) 0.46338(9) 0.89890(19)
H129 H 0.6915 0.4744 0.9324
H130 H 0.6887 0.4467 0.9073
C118 C 0.5673(3) 0.46245(9) 0.89382(19)
H131 H 0.5560 0.4577 0.9330
H132 H 0.5415 0.4789 0.8829
C119 C 0.4362(3) 0.44586(11) 0.8351(2)
H133 H 0.4157 0.4613 0.8134
H134 H 0.4162 0.4457 0.8730
C120 C 0.3992(3) 0.42420(11) 0.7970(2)
H135 H 0.4189 0.4087 0.8189
H136 H 0.3349 0.4247 0.7879
C121 C 0.3920(3) 0.40532(11) 0.7026(2)
H137 H 0.3277 0.4056 0.6944
H138 H 0.4129 0.3893 0.7210
C122 C 0.4210(3) 0.40888(11) 0.6446(2)
H139 H 0.3956 0.3959 0.6151
H140 H 0.4015 0.4251 0.6267
C123 C 0.5478(3) 0.40688(10) 0.6072(2)
H141 H 0.5259 0.4212 0.5811
H142 H 0.5290 0.3916 0.5840
C124 C 0.6448(3) 0.40774(10) 0.6266(2)
H143 H 0.6662 0.3951 0.6577
H144 H 0.6701 0.4044 0.5918
C125 C 0.6204(4) 0.38467(13) 0.8037(3)
H145 H 0.6232 0.3670 0.7936
H146 H 0.5600 0.3906 0.7882
C126 C 0.6507(4) 0.38875(11) 0.8721(2)
H147 H 0.6279 0.4044 0.8844
H148 H 0.6330 0.3749 0.8948
C127 C 0.7478(4) 0.38967(12) 0.8807(3)
H149 H 0.7755 0.3994 0.9168
H150 H 0.7731 0.3729 0.8845
C128 C 0.7588(4) 0.40189(12) 0.8251(2)
H151 H 0.7710 0.4196 0.8328
H152 H 0.8083 0.3945 0.8120
C129 C 0.4831(5) 0.49746(13) 0.7385(3)
H153 H 0.5138 0.4949 0.7812
H154 H 0.4244 0.4901 0.7317
C130 C 0.4764(5) 0.52503(13) 0.7235(3)
H155 H 0.4226 0.5323 0.7310
H156 H 0.5276 0.5342 0.7466
C131 C 0.4739(5) 0.52425(15) 0.6571(3)
H157 H 0.5187 0.5353 0.6478
H158 H 0.4161 0.5294 0.6329
C132 C 0.4926(5) 0.49714(16) 0.6432(3)
H159 H 0.4382 0.4885 0.6234
H160 H 0.5338 0.4962 0.6169
K1 K 0.59065(6) 0.44315(2) 0.74446(4)
O1 O 0.6700(2) 0.43139(7) 0.65003(13)
O2 O 0.7578(2) 0.45971(6) 0.75302(13)
O3 O 0.67767(19) 0.47247(6) 0.84314(13)
O4 O 0.5284(2) 0.44484(6) 0.84854(13)
O5 O 0.4279(2) 0.42497(7) 0.74227(14)
O6 O 0.5135(2) 0.40743(7) 0.65902(13)
O7 O 0.6798(2) 0.39878(7) 0.77918(15)
O8 O 0.5295(3) 0.48676(8) 0.70063(18)
C133 C 0.8499(3) 0.31372(11) 0.1950(2)
H161 H 0.7983 0.3086 0.1636
H162 H 0.8989 0.3027 0.1931
C134 C 0.8732(3) 0.34008(11) 0.1845(2)
H163 H 0.9194 0.3460 0.2190
H164 H 0.8954 0.3412 0.1477
C135 C 0.8128(3) 0.38074(11) 0.1718(2)
H165 H 0.8382 0.3833 0.1367
H166 H 0.8549 0.3868 0.2082
C136 C 0.7297(3) 0.39470(11) 0.1632(2)
H167 H 0.7392 0.4121 0.1537
H168 H 0.6857 0.3876 0.1291
C137 C 0.6197(3) 0.40646(11) 0.2121(3)
H169 H 0.5733 0.3990 0.1801
H170 H 0.6273 0.4238 0.2010
C138 C 0.5948(3) 0.40551(10) 0.2697(3)
H171 H 0.6412 0.4129 0.3018
H172 H 0.5406 0.4150 0.2670
C139 C 0.5491(4) 0.37754(11) 0.3366(2)
H173 H 0.4938 0.3867 0.3318
H174 H 0.5916 0.3842 0.3721
C140 C 0.5345(3) 0.35070(11) 0.3454(2)
H175 H 0.5082 0.3483 0.3802
H176 H 0.4943 0.3438 0.3091
C141 C 0.6110(3) 0.31356(10) 0.3745(2)
H177 H 0.5689 0.3043 0.3432
H178 H 0.5908 0.3130 0.4123
C142 C 0.6993(3) 0.30216(11) 0.3843(2)
H179 H 0.7428 0.3126 0.4116
H180 H 0.6993 0.2857 0.4030
C143 C 0.8025(3) 0.28806(10) 0.3321(2)
H181 H 0.8002 0.2710 0.3467
H182 H 0.8488 0.2970 0.3610
C144 C 0.8215(4) 0.28795(10) 0.2702(2)
H183 H 0.8753 0.2784 0.2714
H184 H 0.7730 0.2800 0.2409
C145 C 0.9214(4) 0.35490(11) 0.3751(3)
H185 H 0.9323 0.3403 0.3519
H186 H 0.9407 0.3511 0.4186
C146 C 0.9689(4) 0.37746(14) 0.3592(3)
H187 H 1.0299 0.3779 0.3830
H188 H 0.9680 0.3777 0.3158
C147 C 0.9166(4) 0.39859(12) 0.3758(3)
H189 H 0.9441 0.4052 0.4163
H190 H 0.9099 0.4121 0.3460
C148 C 0.8304(4) 0.38662(11) 0.3749(3)
H191 H 0.8173 0.3882 0.4149
H192 H 0.7836 0.3949 0.3449
K2 K 0.70229(7) 0.34552(2) 0.26632(5)
O9 O 0.8319(2) 0.31234(7) 0.25244(14)
O10 O 0.7970(2) 0.35511(7) 0.17814(14)
O11 O 0.6994(2) 0.39325(7) 0.21724(14)
O12 O 0.5818(2) 0.38029(7) 0.28383(15)
O13 O 0.6164(2) 0.33851(7) 0.35600(15)
O14 O 0.7210(2) 0.29992(7) 0.32707(14)
O15 O 0.8341(3) 0.36120(8) 0.3599(2)
O16 O 0.5720(6) 0.3334(2) 0.1664(3)
C149 C 0.5744(7) 0.3380(2) 0.1073(4)
H193 H 0.6352 0.3401 0.1041
H194 H 0.5417 0.3532 0.0926
C150 C 0.5337(8) 0.3163(2) 0.0708(5)
H195 H 0.5763 0.3029 0.0712
H196 H 0.5067 0.3210 0.0286
C151 C 0.4658(9) 0.3090(3) 0.1044(6)
H197 H 0.4105 0.3179 0.0885
H198 H 0.4544 0.2911 0.1012
C152 C 0.5057(9) 0.3163(3) 0.1687(6)
H199 H 0.4614 0.3240 0.1870
H200 H 0.5301 0.3017 0.1928
C153 C 1.1443(4) 0.39079(12) 0.2233(2)
H201 H 1.1454 0.3762 0.1976
H202 H 1.1960 0.4010 0.2233
C154 C 1.0630(4) 0.40531(12) 0.1998(2)
H203 H 1.0563 0.4091 0.1566
H204 H 1.0115 0.3958 0.2043
C155 C 0.9950(4) 0.44234(14) 0.2168(3)
H205 H 0.9440 0.4330 0.2229
H206 H 0.9846 0.4465 0.1736
C156 C 1.0049(4) 0.46490(13) 0.2523(3)
H207 H 1.0586 0.4736 0.2494
H208 H 0.9547 0.4760 0.2372
C157 C 1.0041(5) 0.47854(12) 0.3504(4)
H209 H 0.9524 0.4886 0.3318
H210 H 1.0563 0.4890 0.3540
C158 C 0.9979(4) 0.47035(12) 0.4117(4)
H211 H 0.9957 0.4849 0.4374
H212 H 0.9441 0.4607 0.4086
C159 C 1.0694(5) 0.44773(14) 0.4963(3)
H213 H 1.0134 0.4394 0.4953
H214 H 1.0750 0.4620 0.5238
C160 C 1.1440(4) 0.43005(14) 0.5184(3)
H215 H 1.1993 0.4383 0.5170
H216 H 1.1468 0.4257 0.5608
C161 C 1.2023(4) 0.39111(13) 0.5060(2)
H217 H 1.1980 0.3851 0.5460
H218 H 1.2598 0.3990 0.5105
C162 C 1.1941(4) 0.37021(12) 0.4638(2)
H219 H 1.2379 0.3575 0.4805
H220 H 1.1356 0.3627 0.4577
C163 C 1.2075(4) 0.35865(11) 0.3677(2)
H221 H 1.1526 0.3493 0.3620
H222 H 1.2563 0.3474 0.3851
C164 C 1.2173(4) 0.36811(11) 0.3085(3)
H223 H 1.2719 0.3777 0.3141
H224 H 1.2204 0.3541 0.2812
K3 K 1.11926(7) 0.42126(2) 0.36156(5)
O17 O 1.1451(2) 0.38334(7) 0.28265(15)
O18 O 1.0704(2) 0.42754(8) 0.23399(16)
O19 O 1.0094(2) 0.45820(8) 0.3127(2)
O20 O 1.0715(3) 0.45569(8) 0.4380(2)
O21 O 1.1350(2) 0.40865(8) 0.48396(15)
O22 O 1.2069(2) 0.37881(7) 0.40828(15)
O23 O 1.2786(3) 0.44104(10) 0.3924(3)
C165 C 1.3063(5) 0.46400(14) 0.4198(3)
H225 H 1.2606 0.4713 0.4374
H226 H 1.3195 0.4757 0.3899
C166 C 1.3891(6) 0.45843(19) 0.4695(4)
H227 H 1.4357 0.4705 0.4685
H228 H 1.3765 0.4588 0.5099
C167 C 1.4143(6) 0.43294(16) 0.4541(4)
H229 H 1.4758 0.4326 0.4515
H230 H 1.4069 0.4210 0.4852
C168 C 1.3569(4) 0.42685(14) 0.3960(4)
H231 H 1.3842 0.4313 0.3628
H232 H 1.3436 0.4090 0.3936
K4 K 0.86942(6) 0.31170(2) 0.82460(4)
O24 O 0.8599(2) 0.26724(7) 0.87783(15)
O25 O 0.9997(2) 0.29810(7) 0.93145(15)
O26 O 1.0269(2) 0.33856(8) 0.86097(16)
O27 O 0.8840(2) 0.35687(7) 0.76766(16)
O28 O 0.7588(2) 0.32322(7) 0.71192(15)
O29 O 0.7196(2) 0.28440(7) 0.78548(16)
C169 C 0.9097(5) 0.26430(11) 0.9379(2)
H233 H 0.9097 0.2468 0.9500
H234 H 0.8839 0.2742 0.9656
C170 C 1.0001(4) 0.27261(12) 0.9414(3)
H235 H 1.0376 0.2687 0.9816
H236 H 1.0237 0.2640 0.9107
C171 C 1.0837(4) 0.30782(13) 0.9303(3)
H237 H 1.1048 0.3000 0.8973
H238 H 1.1259 0.3042 0.9688
C172 C 1.0760(4) 0.33461(12) 0.9209(3)
H239 H 1.0462 0.3421 0.9499
H240 H 1.1344 0.3421 0.9267
C173 C 1.0064(4) 0.36421(12) 0.8481(3)
H241 H 1.0597 0.3743 0.8608
H242 H 0.9637 0.3699 0.8705
C174 C 0.9702(4) 0.36688(12) 0.7834(3)
H243 H 0.9686 0.3845 0.7722
H244 H 1.0075 0.3581 0.7611
C175 C 0.8450(4) 0.35767(13) 0.7054(3)
H245 H 0.8796 0.3478 0.6832
H246 H 0.8434 0.3749 0.6909
C176 C 0.7574(4) 0.34797(13) 0.6944(3)
H247 H 0.7233 0.3577 0.7173
H248 H 0.7288 0.3494 0.6511
C177 C 0.6734(3) 0.31252(11) 0.7063(2)
H249 H 0.6387 0.3143 0.6644
H250 H 0.6428 0.3213 0.7331
C178 C 0.6816(4) 0.28611(11) 0.7228(3)
H251 H 0.6236 0.2782 0.7131
H252 H 0.7187 0.2776 0.6998
C179 C 0.7278(4) 0.25907(12) 0.8069(3)
H253 H 0.6693 0.2517 0.8020
H254 H 0.7601 0.2492 0.7830
C180 C 0.7734(5) 0.25870(14) 0.8696(3)
H255 H 0.7422 0.2692 0.8929
H256 H 0.7741 0.2417 0.8853
O30 O 0.7945(4) 0.32665(11) 0.9162(2)
C181 C 0.7034(4) 0.32340(14) 0.9116(3)
H257 H 0.6853 0.3065 0.8974
H258 H 0.6694 0.3354 0.8827
C182 C 0.6881(5) 0.32749(17) 0.9731(3)
H259 H 0.6686 0.3446 0.9776
H260 H 0.6440 0.3159 0.9812
C183 C 0.7742(6) 0.3228(2) 1.0136(4)
H261 H 0.7828 0.3050 1.0228
H262 H 0.7814 0.3321 1.0517
C184 C 0.8368(5) 0.33192(16) 0.9777(3)
H263 H 0.8473 0.3498 0.9837
H264 H 0.8932 0.3231 0.9898
O31 O 0.9694(12) 0.2813(3) 0.7741(7)
C185 C 0.978(2) 0.2556(3) 0.7771(7)
H265 H 0.9403 0.2487 0.8020
H266 H 1.0390 0.2511 0.7962
C186 C 0.9527(13) 0.2449(2) 0.7152(6)
H267 H 0.9093 0.2316 0.7125
H268 H 1.0039 0.2385 0.7022
C187 C 0.9131(15) 0.2676(3) 0.6778(7)
H269 H 0.9237 0.2670 0.6369
H270 H 0.8497 0.2687 0.6745
C188 C 0.9599(15) 0.2887(3) 0.7130(8)
H271 H 1.0173 0.2914 0.7039
H272 H 0.9255 0.3041 0.7043
O32? O 0.5957(19) 0.3229(7) 0.1681(11)
C189? C 0.5920(19) 0.3259(9) 0.1060(12)
H273? H 0.6331 0.3145 0.0933
H274? H 0.6074 0.3430 0.0977
C190? C 0.500(2) 0.3202(8) 0.0728(14)
H275? H 0.4989 0.3116 0.0344
H276? H 0.4651 0.3355 0.0642
C191? C 0.467(3) 0.3038(11) 0.1153(18)
H277? H 0.4739 0.2862 0.1059
H278? H 0.4047 0.3071 0.1130
C192? C 0.522(3) 0.3102(10) 0.1767(15)
H279? H 0.4888 0.3207 0.1986
H280? H 0.5399 0.2950 0.2005
O33? O 0.9241(16) 0.2769(5) 0.9095(11)
O34? O 1.0217(15) 0.3208(5) 0.9057(12)
O35? O 0.9676(17) 0.3509(5) 0.8056(13)
O36? O 0.8133(17) 0.3456(5) 0.7340(12)
O37? O 0.7213(16) 0.3050(5) 0.7337(12)
O38? O 0.7465(16) 0.2785(5) 0.8391(12)
C193? C 0.995(2) 0.2836(8) 0.9558(16)
H281? H 1.0237 0.2686 0.9763
H282? H 0.9757 0.2938 0.9858
C194? C 1.0616(19) 0.2983(6) 0.929(3)
H283? H 1.1149 0.3017 0.9611
H284? H 1.0781 0.2887 0.8970
C195? C 1.0820(17) 0.3369(7) 0.888(2)
H285? H 1.1115 0.3284 0.8607
H286? H 1.1267 0.3422 0.9244
C196? C 1.032(2) 0.3596(6) 0.8570(14)
H287? H 1.0034 0.3685 0.8850
H288? H 1.0724 0.3712 0.8440
C197? C 0.9422(13) 0.3709(5) 0.7646(13)
H289? H 0.9929 0.3768 0.7501
H290? H 0.9208 0.3848 0.7852
C198? C 0.870(3) 0.3621(12) 0.7114(16)
H291? H 0.8368 0.3764 0.6911
H292? H 0.8962 0.3535 0.6818
C199? C 0.730(2) 0.3464(7) 0.695(3)
H293? H 0.7362 0.3515 0.6541
H294? H 0.6952 0.3592 0.7088
C200? C 0.682(2) 0.3227(7) 0.6889(19)
H295? H 0.6215 0.3259 0.6922
H296? H 0.6786 0.3157 0.6485
C201? C 0.653(2) 0.2883(8) 0.7414(17)
H297? H 0.6260 0.2806 0.7023
H298? H 0.6081 0.2977 0.7551
C202? C 0.689(3) 0.2687(6) 0.7867(14)
H299? H 0.6409 0.2600 0.7983
H300? H 0.7214 0.2564 0.7681
C203? C 0.780(3) 0.2590(8) 0.880(2)
H301? H 0.8040 0.2458 0.8587
H302? H 0.7330 0.2518 0.8963
C204? C 0.8520(18) 0.2689(9) 0.9318(13)
H303? H 0.8293 0.2829 0.9512
H304? H 0.8709 0.2559 0.9624
O39? O 0.7973(16) 0.3363(6) 0.9171(9)
C205? C 0.7401(17) 0.3281(6) 0.9528(11)
H305? H 0.7496 0.3104 0.9633
H306? H 0.6785 0.3306 0.9316
C206? C 0.7652(15) 0.3443(6) 1.0086(9)
H307? H 0.7356 0.3605 1.0015
H308? H 0.7499 0.3362 1.0435
C207? C 0.8628(15) 0.3472(8) 1.0191(9)
H309? H 0.8942 0.3338 1.0445
H310? H 0.8824 0.3633 1.0381
C208? C 0.8752(11) 0.3459(6) 0.9554(9)
H311? H 0.8877 0.3625 0.9416
H312? H 0.9249 0.3349 0.9542
O40? O 0.9482(15) 0.2829(3) 0.7582(8)
C209? C 0.969(2) 0.2573(4) 0.7671(8)
H313? H 0.9591 0.2510 0.8055
H314? H 1.0301 0.2538 0.7654
C210? C 0.9042(14) 0.2470(3) 0.7129(6)
H315? H 0.9162 0.2296 0.7055
H316? H 0.8437 0.2487 0.7172
C211? C 0.9213(16) 0.2635(4) 0.6644(7)
H317? H 0.9712 0.2575 0.6494
H318? H 0.8695 0.2647 0.6303
C212? C 0.9414(18) 0.2877(3) 0.6954(9)
H319? H 0.9968 0.2944 0.6892
H320? H 0.8944 0.2997 0.6797
loop_
_geom_bond_atom_site_label_1
_geom_bond_atom_site_label_2
_geom_bond_site_symmetry_1
_geom_bond_site_symmetry_2
B1 C8 1_555 1_555
B2 C10 1_555 1_555
C1 H1 1_555 1_555
C2 C1 1_555 1_555
C3 C2 1_555 1_555
H2 C3 1_555 1_555
C4 C3 1_555 1_555
C5 C4 1_555 1_555
H3 C5 1_555 1_555
C6 C5 1_555 1_555
H4 C6 1_555 1_555
C7 C6 1_555 1_555
C8 C7 1_555 1_555
C9 C8 1_555 1_555
H5 C9 1_555 1_555
C10 C9 1_555 1_555
C11 C10 1_555 1_555
C12 C11 1_555 1_555
H6 C12 1_555 1_555
C13 C12 1_555 1_555
H7 C13 1_555 1_555
C14 C1 1_555 1_555
C15 C4 1_555 1_555
C16 C7 1_555 1_555
C17 C2 1_555 1_555
C18 C17 1_555 1_555
H8 C18 1_555 1_555
H9 C18 1_555 1_555
H10 C18 1_555 1_555
C19 C17 1_555 1_555
H11 C19 1_555 1_555
H12 C19 1_555 1_555
H13 C19 1_555 1_555
C20 C17 1_555 1_555
H14 C20 1_555 1_555
H15 C20 1_555 1_555
H16 C20 1_555 1_555
C21 C22 1_555 1_555
C22 B1 1_555 1_555
C23 C22 1_555 1_555
C24 C23 1_555 1_555
H17 C24 1_555 1_555
C25 C24 1_555 1_555
C26 C21 1_555 1_555
H18 C26 1_555 1_555
C27 C21 1_555 1_555
H19 C27 1_555 1_555
H20 C27 1_555 1_555
H21 C27 1_555 1_555
C28 C23 1_555 1_555
H22 C28 1_555 1_555
H23 C28 1_555 1_555
H24 C28 1_555 1_555
C29 C25 1_555 1_555
H25 C29 1_555 1_555
H26 C29 1_555 1_555
H27 C29 1_555 1_555
C30 C31 1_555 1_555
C31 B1 1_555 1_555
C32 C31 1_555 1_555
C33 C32 1_555 1_555
H28 C33 1_555 1_555
C34 C33 1_555 1_555
C35 C30 1_555 1_555
H29 C35 1_555 1_555
C36 C30 1_555 1_555
H30 C36 1_555 1_555
H31 C36 1_555 1_555
H32 C36 1_555 1_555
C37 C32 1_555 1_555
H33 C37 1_555 1_555
H34 C37 1_555 1_555
H35 C37 1_555 1_555
C38 C34 1_555 1_555
H36 C38 1_555 1_555
H37 C38 1_555 1_555
H38 C38 1_555 1_555
C39 C40 1_555 1_555
C40 B2 1_555 1_555
C41 C40 1_555 1_555
C42 C41 1_555 1_555
H39 C42 1_555 1_555
C43 C42 1_555 1_555
C44 C39 1_555 1_555
H40 C44 1_555 1_555
C45 C39 1_555 1_555
H41 C45 1_555 1_555
H42 C45 1_555 1_555
H43 C45 1_555 1_555
C46 C41 1_555 1_555
H44 C46 1_555 1_555
H45 C46 1_555 1_555
H46 C46 1_555 1_555
C47 C43 1_555 1_555
H47 C47 1_555 1_555
H48 C47 1_555 1_555
H49 C47 1_555 1_555
C48 C49 1_555 1_555
C49 B2 1_555 1_555
C50 C49 1_555 1_555
C51 C50 1_555 1_555
H50 C51 1_555 1_555
C52 C51 1_555 1_555
C53 C48 1_555 1_555
H51 C53 1_555 1_555
C54 C48 1_555 1_555
H52 C54 1_555 1_555
H53 C54 1_555 1_555
H54 C54 1_555 1_555
C55 C50 1_555 1_555
H55 C55 1_555 1_555
H56 C55 1_555 1_555
H57 C55 1_555 1_555
C56 C52 1_555 1_555
H58 C56 1_555 1_555
H59 C56 1_555 1_555
H60 C56 1_555 1_555
B3 C64 1_555 1_555
B4 C66 1_555 1_555
C57 H61 1_555 1_555
C58 C57 1_555 1_555
C59 C58 1_555 1_555
H62 C59 1_555 1_555
C60 C59 1_555 1_555
C61 C60 1_555 1_555
H63 C61 1_555 1_555
C62 C61 1_555 1_555
H64 C62 1_555 1_555
C63 C62 1_555 1_555
C64 C63 1_555 1_555
C65 C64 1_555 1_555
H65 C65 1_555 1_555
C66 C65 1_555 1_555
C67 C66 1_555 1_555
C68 C67 1_555 1_555
H66 C68 1_555 1_555
C69 C68 1_555 1_555
H67 C69 1_555 1_555
C70 C57 1_555 1_555
C71 C60 1_555 1_555
C72 C63 1_555 1_555
C73 C58 1_555 1_555
C74 C73 1_555 1_555
H68 C74 1_555 1_555
H69 C74 1_555 1_555
H70 C74 1_555 1_555
C75 C73 1_555 1_555
H71 C75 1_555 1_555
H72 C75 1_555 1_555
H73 C75 1_555 1_555
C76 C73 1_555 1_555
H74 C76 1_555 1_555
H75 C76 1_555 1_555
H76 C76 1_555 1_555
C77 C78 1_555 1_555
C78 B3 1_555 1_555
C79 C78 1_555 1_555
C80 C79 1_555 1_555
H77 C80 1_555 1_555
C81 C80 1_555 1_555
C82 C77 1_555 1_555
H78 C82 1_555 1_555
C83 C77 1_555 1_555
H79 C83 1_555 1_555
H80 C83 1_555 1_555
H81 C83 1_555 1_555
C84 C79 1_555 1_555
H82 C84 1_555 1_555
H83 C84 1_555 1_555
H84 C84 1_555 1_555
C85 C81 1_555 1_555
H85 C85 1_555 1_555
H86 C85 1_555 1_555
H87 C85 1_555 1_555
C86 C87 1_555 1_555
C87 B3 1_555 1_555
C88 C87 1_555 1_555
C89 C88 1_555 1_555
H88 C89 1_555 1_555
C90 C89 1_555 1_555
C91 C86 1_555 1_555
H89 C91 1_555 1_555
C92 C86 1_555 1_555
H90 C92 1_555 1_555
H91 C92 1_555 1_555
H92 C92 1_555 1_555
C93 C88 1_555 1_555
H93 C93 1_555 1_555
H94 C93 1_555 1_555
H95 C93 1_555 1_555
C94 C90 1_555 1_555
H96 C94 1_555 1_555
H97 C94 1_555 1_555
H98 C94 1_555 1_555
C95 C96 1_555 1_555
C96 B4 1_555 1_555
C97 C96 1_555 1_555
C98 C97 1_555 1_555
H99 C98 1_555 1_555
C99 C98 1_555 1_555
C100 C95 1_555 1_555
H100 C100 1_555 1_555
C101 C95 1_555 1_555
H101 C101 1_555 1_555
H102 C101 1_555 1_555
H103 C101 1_555 1_555
C102 C97 1_555 1_555
H104 C102 1_555 1_555
H105 C102 1_555 1_555
H106 C102 1_555 1_555
C103 C99 1_555 1_555
H107 C103 1_555 1_555
H108 C103 1_555 1_555
H109 C103 1_555 1_555
C104 C105 1_555 1_555
C105 B4 1_555 1_555
C106 C105 1_555 1_555
C107 C106 1_555 1_555
H110 C107 1_555 1_555
C108 C107 1_555 1_555
C109 C104 1_555 1_555
H111 C109 1_555 1_555
C110 C104 1_555 1_555
H112 C110 1_555 1_555
H113 C110 1_555 1_555
H114 C110 1_555 1_555
C111 C106 1_555 1_555
H115 C111 1_555 1_555
H116 C111 1_555 1_555
H117 C111 1_555 1_555
C112 C108 1_555 1_555
H118 C112 1_555 1_555
H119 C112 1_555 1_555
H120 C112 1_555 1_555
C113 H121 1_555 1_555
H122 C113 1_555 1_555
C114 C113 1_555 1_555
H123 C114 1_555 1_555
H124 C114 1_555 1_555
C115 H125 1_555 1_555
H126 C115 1_555 1_555
C116 C115 1_555 1_555
H127 C116 1_555 1_555
H128 C116 1_555 1_555
C117 H129 1_555 1_555
H130 C117 1_555 1_555
C118 C117 1_555 1_555
H131 C118 1_555 1_555
H132 C118 1_555 1_555
C119 H133 1_555 1_555
H134 C119 1_555 1_555
C120 C119 1_555 1_555
H135 C120 1_555 1_555
H136 C120 1_555 1_555
C121 H137 1_555 1_555
H138 C121 1_555 1_555
C122 C121 1_555 1_555
H139 C122 1_555 1_555
H140 C122 1_555 1_555
C123 H141 1_555 1_555
H142 C123 1_555 1_555
C124 C123 1_555 1_555
H143 C124 1_555 1_555
H144 C124 1_555 1_555
C125 H145 1_555 1_555
H146 C125 1_555 1_555
C126 C125 1_555 1_555
H147 C126 1_555 1_555
H148 C126 1_555 1_555
C127 C126 1_555 1_555
H149 C127 1_555 1_555
H150 C127 1_555 1_555
C128 C127 1_555 1_555
H151 C128 1_555 1_555
H152 C128 1_555 1_555
C129 H153 1_555 1_555
H154 C129 1_555 1_555
C130 C129 1_555 1_555
H155 C130 1_555 1_555
H156 C130 1_555 1_555
C131 C130 1_555 1_555
H157 C131 1_555 1_555
H158 C131 1_555 1_555
C132 C131 1_555 1_555
H159 C132 1_555 1_555
H160 C132 1_555 1_555
K1 O1 1_555 1_555
O1 C113 1_555 1_555
O2 C114 1_555 1_555
O3 C116 1_555 1_555
O4 C118 1_555 1_555
O5 C120 1_555 1_555
O6 C122 1_555 1_555
O7 C125 1_555 1_555
O8 C129 1_555 1_555
C133 H161 1_555 1_555
H162 C133 1_555 1_555
C134 C133 1_555 1_555
H163 C134 1_555 1_555
H164 C134 1_555 1_555
C135 H165 1_555 1_555
H166 C135 1_555 1_555
C136 C135 1_555 1_555
H167 C136 1_555 1_555
H168 C136 1_555 1_555
C137 H169 1_555 1_555
H170 C137 1_555 1_555
C138 C137 1_555 1_555
H171 C138 1_555 1_555
H172 C138 1_555 1_555
C139 H173 1_555 1_555
H174 C139 1_555 1_555
C140 C139 1_555 1_555
H175 C140 1_555 1_555
H176 C140 1_555 1_555
C141 H177 1_555 1_555
H178 C141 1_555 1_555
C142 C141 1_555 1_555
H179 C142 1_555 1_555
H180 C142 1_555 1_555
C143 H181 1_555 1_555
H182 C143 1_555 1_555
C144 C143 1_555 1_555
H183 C144 1_555 1_555
H184 C144 1_555 1_555
C145 H185 1_555 1_555
H186 C145 1_555 1_555
C146 C145 1_555 1_555
H187 C146 1_555 1_555
H188 C146 1_555 1_555
C147 C146 1_555 1_555
H189 C147 1_555 1_555
H190 C147 1_555 1_555
C148 C147 1_555 1_555
H191 C148 1_555 1_555
H192 C148 1_555 1_555
K2 O9 1_555 1_555
O9 C133 1_555 1_555
O10 C134 1_555 1_555
O11 C136 1_555 1_555
O12 C138 1_555 1_555
O13 C140 1_555 1_555
O14 C142 1_555 1_555
O15 C145 1_555 1_555
O16 K2 1_555 1_555
C149 O16 1_555 1_555
H193 C149 1_555 1_555
H194 C149 1_555 1_555
C150 C149 1_555 1_555
H195 C150 1_555 1_555
H196 C150 1_555 1_555
C151 C150 1_555 1_555
H197 C151 1_555 1_555
H198 C151 1_555 1_555
C152 O16 1_555 1_555
H199 C152 1_555 1_555
H200 C152 1_555 1_555
C153 H201 1_555 1_555
H202 C153 1_555 1_555
C154 C153 1_555 1_555
H203 C154 1_555 1_555
H204 C154 1_555 1_555
C155 H205 1_555 1_555
H206 C155 1_555 1_555
C156 C155 1_555 1_555
H207 C156 1_555 1_555
H208 C156 1_555 1_555
C157 H209 1_555 1_555
H210 C157 1_555 1_555
C158 C157 1_555 1_555
H211 C158 1_555 1_555
H212 C158 1_555 1_555
C159 H213 1_555 1_555
H214 C159 1_555 1_555
C160 C159 1_555 1_555
H215 C160 1_555 1_555
H216 C160 1_555 1_555
C161 H217 1_555 1_555
H218 C161 1_555 1_555
C162 C161 1_555 1_555
H219 C162 1_555 1_555
H220 C162 1_555 1_555
C163 H221 1_555 1_555
H222 C163 1_555 1_555
C164 C163 1_555 1_555
H223 C164 1_555 1_555
H224 C164 1_555 1_555
K3 O17 1_555 1_555
O17 C153 1_555 1_555
O18 C154 1_555 1_555
O19 C156 1_555 1_555
O20 C158 1_555 1_555
O21 C160 1_555 1_555
O22 C162 1_555 1_555
O23 K3 1_555 1_555
C165 O23 1_555 1_555
H225 C165 1_555 1_555
H226 C165 1_555 1_555
C166 C165 1_555 1_555
H227 C166 1_555 1_555
H228 C166 1_555 1_555
C167 C166 1_555 1_555
H229 C167 1_555 1_555
H230 C167 1_555 1_555
C168 O23 1_555 1_555
H231 C168 1_555 1_555
H232 C168 1_555 1_555
K4 O24 1_555 1_555
O24 C169 1_555 1_555
O25 K4 1_555 1_555
O26 K4 1_555 1_555
O27 K4 1_555 1_555
O28 K4 1_555 1_555
O29 K4 1_555 1_555
C169 H233 1_555 1_555
H234 C169 1_555 1_555
C170 O25 1_555 1_555
H235 C170 1_555 1_555
H236 C170 1_555 1_555
C171 O25 1_555 1_555
H237 C171 1_555 1_555
H238 C171 1_555 1_555
C172 O26 1_555 1_555
H239 C172 1_555 1_555
H240 C172 1_555 1_555
C173 O26 1_555 1_555
H241 C173 1_555 1_555
H242 C173 1_555 1_555
C174 O27 1_555 1_555
H243 C174 1_555 1_555
H244 C174 1_555 1_555
C175 O27 1_555 1_555
H245 C175 1_555 1_555
H246 C175 1_555 1_555
C176 O28 1_555 1_555
H247 C176 1_555 1_555
H248 C176 1_555 1_555
C177 O28 1_555 1_555
H249 C177 1_555 1_555
H250 C177 1_555 1_555
C178 O29 1_555 1_555
H251 C178 1_555 1_555
H252 C178 1_555 1_555
C179 O29 1_555 1_555
H253 C179 1_555 1_555
H254 C179 1_555 1_555
C180 O24 1_555 1_555
H255 C180 1_555 1_555
H256 C180 1_555 1_555
O30 K4 1_555 1_555
C181 O30 1_555 1_555
H257 C181 1_555 1_555
H258 C181 1_555 1_555
C182 C181 1_555 1_555
H259 C182 1_555 1_555
H260 C182 1_555 1_555
C183 C182 1_555 1_555
H261 C183 1_555 1_555
H262 C183 1_555 1_555
C184 O30 1_555 1_555
H263 C184 1_555 1_555
H264 C184 1_555 1_555
O31 K4 1_555 1_555
C185 O31 1_555 1_555
H265 C185 1_555 1_555
H266 C185 1_555 1_555
C186 C185 1_555 1_555
H267 C186 1_555 1_555
H268 C186 1_555 1_555
C187 C186 1_555 1_555
H269 C187 1_555 1_555
H270 C187 1_555 1_555
C188 O31 1_555 1_555
H271 C188 1_555 1_555
H272 C188 1_555 1_555
C11 C16 1_555 1_555
C13 C14 1_555 1_555
C14 C15 1_555 1_555
C15 C16 1_555 1_555
C25 C26 1_555 1_555
C34 C35 1_555 1_555
C43 C44 1_555 1_555
C52 C53 1_555 1_555
C67 C72 1_555 1_555
C69 C70 1_555 1_555
C70 C71 1_555 1_555
C71 C72 1_555 1_555
C81 C82 1_555 1_555
C90 C91 1_555 1_555
C99 C100 1_555 1_555
C108 C109 1_555 1_555
C115 O2 1_555 1_555
C117 O3 1_555 1_555
C119 O4 1_555 1_555
C121 O5 1_555 1_555
C123 O6 1_555 1_555
C124 O1 1_555 1_555
C128 O7 1_555 1_555
C132 O8 1_555 1_555
K1 O2 1_555 1_555
K1 O3 1_555 1_555
K1 O4 1_555 1_555
K1 O5 1_555 1_555
K1 O6 1_555 1_555
K1 O7 1_555 1_555
K1 O8 1_555 1_555
C135 O10 1_555 1_555
C137 O11 1_555 1_555
C139 O12 1_555 1_555
C141 O13 1_555 1_555
C143 O14 1_555 1_555
C144 O9 1_555 1_555
C148 O15 1_555 1_555
K2 O10 1_555 1_555
K2 O11 1_555 1_555
K2 O12 1_555 1_555
K2 O13 1_555 1_555
K2 O14 1_555 1_555
K2 O15 1_555 1_555
C151 C152 1_555 1_555
C155 O18 1_555 1_555
C157 O19 1_555 1_555
C159 O20 1_555 1_555
C161 O21 1_555 1_555
C163 O22 1_555 1_555
C164 O17 1_555 1_555
K3 O18 1_555 1_555
K3 O19 1_555 1_555
K3 O20 1_555 1_555
K3 O21 1_555 1_555
K3 O22 1_555 1_555
C167 C168 1_555 1_555
C169 C170 1_555 1_555
C171 C172 1_555 1_555
C173 C174 1_555 1_555
C175 C176 1_555 1_555
C177 C178 1_555 1_555
C179 C180 1_555 1_555
C183 C184 1_555 1_555
C187 C188 1_555 1_555

#END
