
#######################################################################
#
#                 Cambridge Crystallographic Data Centre
#                                CCDC 
#
#######################################################################
#
# If this CIF has been generated from an entry in the Cambridge 
# Structural Database, then it will include bibliographic, chemical, 
# crystal, experimental, refinement or atomic coordinate data resulting 
# from the CCDC's data processing and validation procedures.
#
#######################################################################

data_ZEDFIZ
_chemical_name_common            
(5-Methyl-1-(phenylamino)-1H-1,2,3-triazol-4-yl)methanol
_chemical_formula_moiety         'C10 H12 N4 O1'
_chemical_name_systematic        
(1-Anilino-5-methyl-1H-1,2,3-triazol-4-yl)methanol
_symmetry_cell_setting           monoclinic
_symmetry_space_group_name_H-M   'P 21/c'
_symmetry_Int_Tables_number      14
_space_group_name_Hall           '-P 2ybc'
loop_
_symmetry_equiv_pos_site_id
_symmetry_equiv_pos_as_xyz
1 x,y,z
2 -x,1/2+y,1/2-z
3 -x,-y,-z
4 x,1/2-y,1/2+z
_cell_length_a                   6.7842(19)
_cell_length_b                   7.258(2)
_cell_length_c                   21.155(6)
_cell_angle_alpha                90
_cell_angle_beta                 96.751(8)
_cell_angle_gamma                90
_cell_volume                     1034.44
_exptl_crystal_colour            'pale yellow'
_exptl_crystal_description       prism
_chemical_melting_point          '197-198 deg.C'
_cell_formula_units_Z            4
_exptl_crystal_recrystallization_method ethanol
loop_
_atom_site_label
_atom_site_type_symbol
_atom_site_fract_x
_atom_site_fract_y
_atom_site_fract_z
O1 O 0.78303(15) 0.40823(14) 0.54326(5)
H1 H 0.707(3) 0.500(2) 0.5460(10)
N1 N 0.43738(19) 0.27380(17) 0.44557(6)
N2 N 0.33629(18) 0.13230(17) 0.41977(6)
N3 N 0.47378(17) 0.00611(16) 0.40802(5)
N4 N 0.41952(18) -0.16249(16) 0.37950(6)
H2 H 0.347(2) -0.229(2) 0.4037(7)
C1 C 0.7868(2) 0.3769(2) 0.47668(7)
H3 H 0.9208 0.3339 0.4694
H4 H 0.7614 0.4948 0.4536
C2 C 0.6363(2) 0.23763(19) 0.45014(6)
C3 C 0.6620(2) 0.06440(19) 0.42602(6)
C4 C 0.8391(2) -0.0499(2) 0.41737(8)
H5 H 0.8407 -0.1594 0.4445
H6 H 0.9599 0.0223 0.4292
H7 H 0.8333 -0.0877 0.3727
C5 C 0.3297(2) -0.15004(18) 0.31516(6)
C6 C 0.4006(2) -0.0283(2) 0.27220(7)
H8 H 0.5075 0.0525 0.2856
C7 C 0.3127(2) -0.0267(2) 0.20914(7)
H9 H 0.3597 0.0563 0.1796
C8 C 0.1571(2) -0.1453(2) 0.18921(7)
H10 H 0.0972 -0.1425 0.1463
C9 C 0.0894(2) -0.2681(2) 0.23221(7)
H11 H -0.0158 -0.3506 0.2186
C10 C 0.1754(2) -0.2704(2) 0.29521(7)
H12 H 0.1287 -0.3541 0.3246
loop_
_geom_bond_atom_site_label_1
_geom_bond_atom_site_label_2
_geom_bond_site_symmetry_1
_geom_bond_site_symmetry_2
O1 H1 1_555 1_555
N1 N2 1_555 1_555
N2 N3 1_555 1_555
N3 N4 1_555 1_555
N4 H2 1_555 1_555
C1 O1 1_555 1_555
H3 C1 1_555 1_555
H4 C1 1_555 1_555
C2 N1 1_555 1_555
C3 N3 1_555 1_555
C4 C3 1_555 1_555
H5 C4 1_555 1_555
H6 C4 1_555 1_555
H7 C4 1_555 1_555
C5 N4 1_555 1_555
C6 C5 1_555 1_555
H8 C6 1_555 1_555
C7 C6 1_555 1_555
H9 C7 1_555 1_555
C8 C7 1_555 1_555
H10 C8 1_555 1_555
C9 C8 1_555 1_555
H11 C9 1_555 1_555
C10 C5 1_555 1_555
H12 C10 1_555 1_555
C1 C2 1_555 1_555
C2 C3 1_555 1_555
C9 C10 1_555 1_555

#END
