
#######################################################################
#
#                 Cambridge Crystallographic Data Centre
#                                CCDC 
#
#######################################################################
#
# If this CIF has been generated from an entry in the Cambridge 
# Structural Database, then it will include bibliographic, chemical, 
# crystal, experimental, refinement or atomic coordinate data resulting 
# from the CCDC's data processing and validation procedures.
#
#######################################################################

data_ZEDFOF
_chemical_name_common            
(5-Methyl-1-(4-fluorophenylamino)-1H-1,2,3-triazol-4-yl)methanol
_chemical_formula_moiety         'C10 H11 F1 N4 O1'
_chemical_name_systematic        
(1-((4-Fluorophenyl)amino)-5-methyl-1H-1,2,3-triazol-4-yl)methanol
_symmetry_cell_setting           monoclinic
_symmetry_space_group_name_H-M   'P 21/n'
_symmetry_Int_Tables_number      14
_space_group_name_Hall           '-P 2yn'
loop_
_symmetry_equiv_pos_site_id
_symmetry_equiv_pos_as_xyz
1 x,y,z
2 1/2-x,1/2+y,1/2-z
3 -x,-y,-z
4 1/2+x,1/2-y,1/2+z
_cell_length_a                   13.4975(6)
_cell_length_b                   6.6420(2)
_cell_length_c                   13.5534(6)
_cell_angle_alpha                90
_cell_angle_beta                 118.641(2)
_cell_angle_gamma                90
_cell_volume                     1066.39
_exptl_crystal_colour            colorless
_exptl_crystal_description       block
_chemical_melting_point          '178-182 deg.C'
_cell_formula_units_Z            4
_exptl_crystal_recrystallization_method ethanol
loop_
_atom_site_label
_atom_site_type_symbol
_atom_site_fract_x
_atom_site_fract_y
_atom_site_fract_z
F1 F 1.00646(13) 0.2349(2) 0.36412(14)
O1 O 0.27601(11) 0.7972(2) 0.30373(11)
H1 H 0.2176(14) 0.862(3) 0.2614(17)
N1 N 0.42929(12) 0.4832(2) 0.32359(12)
N2 N 0.51891(12) 0.3734(2) 0.38505(12)
N3 N 0.60236(12) 0.5060(2) 0.44350(12)
N4 N 0.71027(12) 0.4445(2) 0.51965(12)
H2 H 0.7107(17) 0.361(3) 0.5711(13)
C1 C 0.36802(14) 0.8401(3) 0.28354(15)
H3 H 0.3992 0.9752 0.3130
H4 H 0.3427 0.8378 0.2018
C2 C 0.45549(14) 0.6824(3) 0.34223(14)
C3 C 0.56741(14) 0.7006(3) 0.42033(14)
C4 C 0.64307(16) 0.8736(3) 0.47539(17)
H5 H 0.7092 0.8647 0.4637
H6 H 0.6676 0.8714 0.5561
H7 H 0.6025 0.9994 0.4428
C5 C 0.78066(15) 0.3848(3) 0.47435(15)
C6 C 0.75570(17) 0.4285(3) 0.36475(16)
H8 H 0.6865 0.4925 0.3152
C7 C 0.8326(2) 0.3782(3) 0.32763(19)
H9 H 0.8168 0.4081 0.2529
C8 C 0.93106(19) 0.2851(3) 0.4004(2)
C9 C 0.95756(18) 0.2402(3) 0.50926(19)
H10 H 1.0268 0.1757 0.5580
C10 C 0.88172(16) 0.2904(3) 0.54668(16)
H11 H 0.8987 0.2604 0.6217
loop_
_geom_bond_atom_site_label_1
_geom_bond_atom_site_label_2
_geom_bond_site_symmetry_1
_geom_bond_site_symmetry_2
F1 C8 1_555 1_555
O1 H1 1_555 1_555
N1 N2 1_555 1_555
N2 N3 1_555 1_555
N3 N4 1_555 1_555
N4 H2 1_555 1_555
C1 O1 1_555 1_555
H3 C1 1_555 1_555
H4 C1 1_555 1_555
C2 N1 1_555 1_555
C3 N3 1_555 1_555
C4 C3 1_555 1_555
H5 C4 1_555 1_555
H6 C4 1_555 1_555
H7 C4 1_555 1_555
C5 N4 1_555 1_555
C6 C5 1_555 1_555
H8 C6 1_555 1_555
C7 C6 1_555 1_555
H9 C7 1_555 1_555
C8 C7 1_555 1_555
C9 C8 1_555 1_555
H10 C9 1_555 1_555
C10 C5 1_555 1_555
H11 C10 1_555 1_555
C1 C2 1_555 1_555
C2 C3 1_555 1_555
C9 C10 1_555 1_555

#END
