
#######################################################################
#
#                 Cambridge Crystallographic Data Centre
#                                CCDC 
#
#######################################################################
#
# If this CIF has been generated from an entry in the Cambridge 
# Structural Database, then it will include bibliographic, chemical, 
# crystal, experimental, refinement or atomic coordinate data resulting 
# from the CCDC's data processing and validation procedures.
#
#######################################################################

data_ZEDHAU
_chemical_name_common            
'(mu-tetrakis(spirocyclopentano)cucurbit[5]uril)-(mu-chloro)-diaqua-di-calcium tris(chloride) unknown solvate nonahydrate'
_chemical_formula_moiety         'C55 H74 Ca2 Cl1 N20 O12 3+,3(Cl1 1-),9(H2 O1)'
_chemical_name_systematic        
"(\m-cyclopenta(4,6-dimethylene-3,7-dioxo-2,4,6,8-tetraazaspiro[bicyclo[3.3.1]nonane-9,1'-cyclopentane]-2,8-diyl))-(\m-chloro)-diaqua-di-calcium tris(chloride) unknown solvate nonahydrate"
_symmetry_cell_setting           triclinic
_symmetry_space_group_name_H-M   'P -1'
_symmetry_Int_Tables_number      2
_space_group_name_Hall           '-P 1'
loop_
_symmetry_equiv_pos_site_id
_symmetry_equiv_pos_as_xyz
1 x,y,z
2 -x,-y,-z
_cell_length_a                   15.086(4)
_cell_length_b                   17.048(4)
_cell_length_c                   17.876(8)
_cell_angle_alpha                103.160(5)
_cell_angle_beta                 110.463(6)
_cell_angle_gamma                107.684(4)
_cell_volume                     3805.94
_exptl_crystal_colour            colorless
_exptl_crystal_description       polyhedral
_cell_formula_units_Z            2
loop_
_atom_site_label
_atom_site_type_symbol
_atom_site_fract_x
_atom_site_fract_y
_atom_site_fract_z
Ca1 Ca -0.06518(8) 0.90308(7) 0.21489(8)
Ca2 Ca 0.20864(8) 0.74119(7) 0.25280(7)
Cl1 Cl 0.07026(11) 0.82024(9) 0.23451(10)
O1 O 0.0384(3) 1.0011(2) 0.3697(3)
O2 O 0.3111(3) 0.8439(2) 0.4066(3)
O3 O 0.0709(3) 1.0296(2) 0.2241(3)
O4 O 0.3395(3) 0.8764(2) 0.2651(3)
O5 O -0.0830(3) 0.8851(2) 0.0664(3)
O6 O 0.1823(3) 0.7263(2) 0.1083(3)
O7 O -0.2111(3) 0.7569(2) 0.1131(3)
O8 O 0.0584(3) 0.5952(3) 0.1496(3)
O9 O -0.1298(3) 0.8273(2) 0.2986(3)
O10 O 0.1352(3) 0.6698(3) 0.3348(3)
O11 O -0.1731(4) 0.9755(3) 0.1993(3)
O12 O 0.3239(3) 0.6735(3) 0.2819(3)
N1 N 0.1141(3) 0.9541(3) 0.4749(3)
N2 N 0.2162(3) 1.0565(3) 0.4365(3)
N3 N 0.3379(3) 0.9878(3) 0.4555(3)
N4 N 0.2338(3) 0.8833(3) 0.4879(3)
N5 N 0.2432(4) 1.0864(3) 0.3154(3)
N6 N 0.1828(4) 1.0278(3) 0.1660(3)
N7 N 0.3046(4) 0.9588(3) 0.1843(3)
N8 N 0.3669(3) 1.0180(3) 0.3332(3)
N9 N 0.0506(4) 0.9014(3) 0.0306(3)
N10 N -0.0896(4) 0.7642(3) -0.0254(3)
N11 N 0.0292(4) 0.6935(3) -0.0052(3)
N12 N 0.1708(4) 0.8319(3) 0.0512(3)
N13 N -0.1919(4) 0.6574(3) 0.0178(3)
N14 N -0.2197(4) 0.6286(3) 0.1320(3)
N15 N -0.1016(4) 0.5545(3) 0.1471(3)
N16 N -0.0766(4) 0.5826(3) 0.0317(3)
N17 N -0.1569(4) 0.6855(3) 0.2903(3)
N18 N -0.0310(4) 0.8061(3) 0.4158(3)
N19 N 0.0884(4) 0.7368(3) 0.4319(3)
N20 N -0.0363(4) 0.6153(3) 0.3050(3)
C1 C 0.1178(4) 1.0023(3) 0.4229(4)
C2 C 0.3113(4) 1.0566(3) 0.4966(4)
H1 H 0.3700 1.1159 0.5171
C3 C 0.2936(4) 0.9014(3) 0.4470(4)
C4 C 0.2087(4) 0.9501(3) 0.5352(4)
H2 H 0.1956 0.9332 0.5817
C5 C 0.2259(4) 1.1165(4) 0.3896(4)
H3 H 0.1614 1.1262 0.3702
H4 H 0.2844 1.1746 0.4301
C6 C 0.4084(4) 1.0116(4) 0.4183(4)
H5 H 0.4383 0.9675 0.4141
H6 H 0.4667 1.0697 0.4592
C7 C 0.1608(4) 1.0463(3) 0.2346(4)
C8 C 0.2862(4) 1.0375(4) 0.1760(4)
H7 H 0.2931 1.0461 0.1245
C9 C 0.3354(4) 0.9469(4) 0.2610(4)
C10 C 0.3498(4) 1.0981(4) 0.3296(4)
H8 H 0.4009 1.1486 0.3854
C11 C 0.0996(4) 0.9983(4) 0.0794(4)
H9 H 0.1282 1.0287 0.0466
H10 H 0.0449 1.0171 0.0837
C12 C 0.2801(4) 0.8887(4) 0.1056(4)
H11 H 0.3088 0.9168 0.0714
H12 H 0.3164 0.8512 0.1220
C13 C -0.0416(4) 0.8523(4) 0.0269(4)
C14 C -0.0369(5) 0.7220(4) -0.0646(4)
H13 H -0.0913 0.6684 -0.1169
C15 C 0.1302(4) 0.7496(4) 0.0553(4)
C16 C 0.1074(4) 0.8625(4) -0.0092(4)
H14 H 0.1542 0.9088 -0.0207
C17 C -0.1927(4) 0.7098(4) -0.0357(4)
H15 H -0.2260 0.7495 -0.0225
H16 H -0.2366 0.6692 -0.0968
C18 C -0.0127(4) 0.6011(4) -0.0119(4)
H17 H -0.0547 0.5622 -0.0736
H18 H 0.0464 0.5853 0.0120
C19 C -0.2060(4) 0.6838(3) 0.0899(4)
C20 C -0.2116(4) 0.5429(3) 0.1065(4)
H19 H -0.2535 0.5012 0.1251
C21 C -0.0351(4) 0.5797(3) 0.1126(4)
C22 C -0.1864(4) 0.5717(3) -0.0113(4)
H20 H -0.2107 0.5508 -0.0749
C23 C -0.2447(4) 0.6499(4) 0.2048(4)
H21 H -0.2752 0.6935 0.2005
H22 H -0.2988 0.5952 0.1991
C24 C -0.0622(5) 0.5416(4) 0.2280(4)
H23 H 0.0011 0.5314 0.2358
H24 H -0.1152 0.4871 0.2237
C25 C -0.1073(4) 0.7763(4) 0.3316(4)
C26 C 0.0061(4) 0.7468(4) 0.4532(4)
H25 H 0.0354 0.7738 0.5172
C27 C 0.0660(5) 0.6749(4) 0.3558(4)
C28 C -0.1206(5) 0.6247(4) 0.3238(4)
H26 H -0.1805 0.5650 0.2972
C29 C 0.0127(4) 0.9002(4) 0.4685(4)
H27 H 0.0211 0.9059 0.5272
H28 H -0.0376 0.9245 0.4442
C30 C 0.1983(4) 0.7953(4) 0.4908(4)
H29 H 0.2099 0.8015 0.5502
H30 H 0.2417 0.7665 0.4771
C31 C 0.2998(4) 1.0417(4) 0.5754(4)
C32 C 0.2771(5) 1.1138(4) 0.6256(4)
H31 H 0.2714 1.1567 0.5971
H32 H 0.2111 1.0864 0.6287
C33 C 0.3675(6) 1.1592(6) 0.7140(6)
H33 H 0.3450 1.1804 0.7574
H34 H 0.4230 1.2106 0.7164
C34 C 0.4070(6) 1.0894(7) 0.7306(5)
H35 H 0.3614 1.0467 0.7453
H36 H 0.4794 1.1169 0.7771
C35 C 0.4007(4) 1.0449(4) 0.6424(4)
H37 H 0.3967 0.9843 0.6343
H38 H 0.4624 1.0801 0.6374
C36 C 0.3703(5) 1.1201(4) 0.2575(5)
C37 C 0.3572(6) 1.2047(4) 0.2481(5)
H39 H 0.2825 1.1914 0.2169
H40 H 0.3875 1.2520 0.3054
C38 C 0.4135(9) 1.2327(7) 0.1989(8)
H41 H 0.4445 1.2982 0.2176
H42 H 0.3653 1.2067 0.1365
C39 C 0.5015(7) 1.1977(7) 0.2182(7)
H43 H 0.4988 1.1640 0.1638
H44 H 0.5712 1.2480 0.2533
C40 C 0.4808(5) 1.1377(5) 0.2672(5)
H45 H 0.5326 1.1673 0.3287
H46 H 0.4847 1.0813 0.2426
C41 C 0.0303(5) 0.7851(4) -0.0926(4)
C42 C -0.0361(6) 0.8142(5) -0.1587(5)
H47 H 0.0044 0.8758 -0.1510
H48 H -0.0996 0.8110 -0.1522
C43 C -0.0653(8) 0.7479(6) -0.2482(5)
H49 H -0.1405 0.7076 -0.2777
H50 H -0.0497 0.7802 -0.2847
C44 C -0.0014(7) 0.6964(6) -0.2320(6)
H51 H 0.0319 0.6940 -0.2709
H52 H -0.0457 0.6349 -0.2422
C45 C 0.0808(5) 0.7435(5) -0.1392(5)
H53 H 0.1007 0.7009 -0.1156
H54 H 0.1438 0.7895 -0.1340
C46 C -0.2555(4) 0.5026(4) 0.0082(4)
C47 C -0.3719(5) 0.4872(4) -0.0367(5)
H55 H -0.4033 0.4845 0.0035
H56 H -0.3779 0.5355 -0.0571
C48 C -0.4259(6) 0.3980(5) -0.1129(6)
H57 H -0.5007 0.3683 -0.1282
H58 H -0.4191 0.4061 -0.1640
C49 C -0.3679(6) 0.3451(5) -0.0795(6)
H59 H -0.3953 0.3180 -0.0443
H60 H -0.3753 0.2974 -0.1279
C50 C -0.2560(5) 0.4104(4) -0.0258(5)
H61 H -0.2178 0.4111 -0.0610
H62 H -0.2220 0.3941 0.0228
C51 C -0.0826(5) 0.6590(4) 0.4210(5)
C52 C -0.1671(5) 0.6640(5) 0.4470(5)
H63 H -0.1573 0.7265 0.4680
H64 H -0.2364 0.6292 0.3965
C53 C -0.1618(15) 0.6297(13) 0.5126(13)
H65 H -0.2324 0.5869 0.4977
H66 H -0.1371 0.6788 0.5674
C54 C -0.0916(11) 0.5856(11) 0.5239(10)
H67 H -0.1300 0.5224 0.5130
H68 H -0.0343 0.6145 0.5834
C55 C -0.0483(6) 0.5934(5) 0.4595(5)
H69 H -0.0768 0.5347 0.4134
H70 H 0.0287 0.6167 0.4885
Cl2 Cl 0.1635(2) 0.84971(15) 0.68604(14)
Cl3 Cl 0.72698(19) 0.52924(13) 0.76119(15)
Cl4 Cl 0.6882(2) 0.96285(16) 0.01972(15)
O13 O 0.6454(7) 0.0920(6) 0.1378(7)
O14 O 0.5117(10) 0.5124(9) 0.2895(9)
O15 O 0.5530(11) 0.4431(10) 0.4126(9)
O16 O 0.4826(8) 0.1692(7) 0.9614(8)
O17 O 0.6848(9) 0.3626(7) 0.4548(8)
O18 O 0.7909(9) 0.3270(7) 0.3539(9)
O19 O 0.8099(7) 0.4629(6) 0.6249(6)
O20 O 0.2734(4) 0.6220(4) 0.7866(5)
O21 O 0.3413(6) 0.7860(7) 0.9205(7)
loop_
_geom_bond_atom_site_label_1
_geom_bond_atom_site_label_2
_geom_bond_site_symmetry_1
_geom_bond_site_symmetry_2
Ca1 Cl1 1_555 1_555
Ca2 Cl1 1_555 1_555
O1 Ca1 1_555 1_555
O2 Ca2 1_555 1_555
O3 Ca1 1_555 1_555
O4 Ca2 1_555 1_555
O5 Ca1 1_555 1_555
O6 Ca2 1_555 1_555
O7 Ca1 1_555 1_555
O8 Ca2 1_555 1_555
O9 Ca1 1_555 1_555
O10 Ca2 1_555 1_555
O11 Ca1 1_555 1_555
O12 Ca2 1_555 1_555
N1 C1 1_555 1_555
N2 C1 1_555 1_555
N3 C2 1_555 1_555
N4 C3 1_555 1_555
N5 C5 1_555 1_555
N6 C7 1_555 1_555
N7 C8 1_555 1_555
N8 C6 1_555 1_555
N9 C11 1_555 1_555
N10 C13 1_555 1_555
N11 C14 1_555 1_555
N12 C12 1_555 1_555
N13 C17 1_555 1_555
N14 C19 1_555 1_555
N15 C20 1_555 1_555
N16 C18 1_555 1_555
N17 C23 1_555 1_555
N18 C25 1_555 1_555
N19 C26 1_555 1_555
N20 C24 1_555 1_555
C1 O1 1_555 1_555
C2 N2 1_555 1_555
H1 C2 1_555 1_555
C3 O2 1_555 1_555
C4 N1 1_555 1_555
H2 C4 1_555 1_555
C5 N2 1_555 1_555
H3 C5 1_555 1_555
H4 C5 1_555 1_555
C6 N3 1_555 1_555
H5 C6 1_555 1_555
H6 C6 1_555 1_555
C7 O3 1_555 1_555
C8 N6 1_555 1_555
H7 C8 1_555 1_555
C9 O4 1_555 1_555
C10 N5 1_555 1_555
H8 C10 1_555 1_555
C11 N6 1_555 1_555
H9 C11 1_555 1_555
H10 C11 1_555 1_555
C12 N7 1_555 1_555
H11 C12 1_555 1_555
H12 C12 1_555 1_555
C13 O5 1_555 1_555
C14 N10 1_555 1_555
H13 C14 1_555 1_555
C15 O6 1_555 1_555
C16 N9 1_555 1_555
H14 C16 1_555 1_555
C17 N10 1_555 1_555
H15 C17 1_555 1_555
H16 C17 1_555 1_555
C18 N11 1_555 1_555
H17 C18 1_555 1_555
H18 C18 1_555 1_555
C19 O7 1_555 1_555
C20 N14 1_555 1_555
H19 C20 1_555 1_555
C21 O8 1_555 1_555
C22 N13 1_555 1_555
H20 C22 1_555 1_555
C23 N14 1_555 1_555
H21 C23 1_555 1_555
H22 C23 1_555 1_555
C24 N15 1_555 1_555
H23 C24 1_555 1_555
H24 C24 1_555 1_555
C25 O9 1_555 1_555
C26 N18 1_555 1_555
H25 C26 1_555 1_555
C27 O10 1_555 1_555
C28 N17 1_555 1_555
H26 C28 1_555 1_555
C29 N1 1_555 1_555
H27 C29 1_555 1_555
H28 C29 1_555 1_555
C30 N4 1_555 1_555
H29 C30 1_555 1_555
H30 C30 1_555 1_555
C31 C2 1_555 1_555
C32 C31 1_555 1_555
H31 C32 1_555 1_555
H32 C32 1_555 1_555
C33 C32 1_555 1_555
H33 C33 1_555 1_555
H34 C33 1_555 1_555
C34 C33 1_555 1_555
H35 C34 1_555 1_555
H36 C34 1_555 1_555
C35 C31 1_555 1_555
H37 C35 1_555 1_555
H38 C35 1_555 1_555
C36 C8 1_555 1_555
C37 C36 1_555 1_555
H39 C37 1_555 1_555
H40 C37 1_555 1_555
C38 C37 1_555 1_555
H41 C38 1_555 1_555
H42 C38 1_555 1_555
C39 C38 1_555 1_555
H43 C39 1_555 1_555
H44 C39 1_555 1_555
C40 C36 1_555 1_555
H45 C40 1_555 1_555
H46 C40 1_555 1_555
C41 C14 1_555 1_555
C42 C41 1_555 1_555
H47 C42 1_555 1_555
H48 C42 1_555 1_555
C43 C42 1_555 1_555
H49 C43 1_555 1_555
H50 C43 1_555 1_555
C44 C43 1_555 1_555
H51 C44 1_555 1_555
H52 C44 1_555 1_555
C45 C41 1_555 1_555
H53 C45 1_555 1_555
H54 C45 1_555 1_555
C46 C20 1_555 1_555
C47 C46 1_555 1_555
H55 C47 1_555 1_555
H56 C47 1_555 1_555
C48 C47 1_555 1_555
H57 C48 1_555 1_555
H58 C48 1_555 1_555
C49 C48 1_555 1_555
H59 C49 1_555 1_555
H60 C49 1_555 1_555
C50 C46 1_555 1_555
H61 C50 1_555 1_555
H62 C50 1_555 1_555
C51 C26 1_555 1_555
C52 C51 1_555 1_555
H63 C52 1_555 1_555
H64 C52 1_555 1_555
C53 C52 1_555 1_555
H65 C53 1_555 1_555
H66 C53 1_555 1_555
C54 C53 1_555 1_555
H67 C54 1_555 1_555
H68 C54 1_555 1_555
C55 C51 1_555 1_555
H69 C55 1_555 1_555
H70 C55 1_555 1_555
N3 C3 1_555 1_555
N4 C4 1_555 1_555
N5 C7 1_555 1_555
N7 C9 1_555 1_555
N8 C9 1_555 1_555
N8 C10 1_555 1_555
N9 C13 1_555 1_555
N11 C15 1_555 1_555
N12 C15 1_555 1_555
N12 C16 1_555 1_555
N13 C19 1_555 1_555
N15 C21 1_555 1_555
N16 C21 1_555 1_555
N16 C22 1_555 1_555
N17 C25 1_555 1_555
N18 C29 1_555 1_555
N19 C27 1_555 1_555
N19 C30 1_555 1_555
N20 C27 1_555 1_555
N20 C28 1_555 1_555
C4 C31 1_555 1_555
C10 C36 1_555 1_555
C16 C41 1_555 1_555
C22 C46 1_555 1_555
C28 C51 1_555 1_555
C34 C35 1_555 1_555
C39 C40 1_555 1_555
C44 C45 1_555 1_555
C49 C50 1_555 1_555
C54 C55 1_555 1_555

#END
