
#######################################################################
#
#                 Cambridge Crystallographic Data Centre
#                                CCDC 
#
#######################################################################
#
# If this CIF has been generated from an entry in the Cambridge 
# Structural Database, then it will include bibliographic, chemical, 
# crystal, experimental, refinement or atomic coordinate data resulting 
# from the CCDC's data processing and validation procedures.
#
#######################################################################

data_ZEDJOJ
_chemical_name_common            9,10-bis(3,5-Difluorostyryl)anthracene
_chemical_formula_moiety         'C30 H18 F4'
_chemical_name_systematic        
9,10-bis(2-(3,5-Difluorophenyl)vinyl)anthracene
_symmetry_cell_setting           triclinic
_symmetry_space_group_name_H-M   'P -1'
_symmetry_Int_Tables_number      2
_space_group_name_Hall           '-P 1'
loop_
_symmetry_equiv_pos_site_id
_symmetry_equiv_pos_as_xyz
1 x,y,z
2 -x,-y,-z
_cell_length_a                   4.0152(8)
_cell_length_b                   9.821(2)
_cell_length_c                   13.736(3)
_cell_angle_alpha                78.74(3)
_cell_angle_beta                 86.02(3)
_cell_angle_gamma                84.26(3)
_cell_volume                     527.875
_cell_formula_units_Z            1
loop_
_atom_site_label
_atom_site_type_symbol
_atom_site_fract_x
_atom_site_fract_y
_atom_site_fract_z
C1 C 0.2126(7) 0.1437(3) 0.41789(19)
H1 H 0.3474 0.0603 0.4317
C2 C 0.0886(7) 0.2100(3) 0.49290(19)
C3 C -0.1134(7) 0.3318(3) 0.4777(2)
H2 H -0.1970 0.3751 0.5299
C4 C -0.1855(7) 0.3865(3) 0.3814(2)
C5 C -0.0684(6) 0.3257(3) 0.30272(19)
H3 H -0.1248 0.3666 0.2384
C6 C 0.1361(6) 0.2019(3) 0.32079(18)
C7 C 0.2794(6) 0.1286(3) 0.24244(18)
H4 H 0.4444 0.0565 0.2611
C8 C 0.2028(7) 0.1524(3) 0.14910(18)
H5 H 0.0411 0.2252 0.1286
C9 C 0.3533(6) 0.0727(3) 0.07388(17)
C10 C 0.5089(6) 0.1455(3) -0.01345(17)
C11 C 0.5277(7) 0.2927(3) -0.0296(2)
H6 H 0.4317 0.3420 0.0182
C12 C 0.6815(8) 0.3622(3) -0.1126(2)
H7 H 0.6836 0.4585 -0.1224
C13 C 0.8377(8) 0.2892(3) -0.1838(2)
H8 H 0.9483 0.3370 -0.2399
C14 C 0.8286(7) 0.1503(3) -0.17152(19)
H9 H 0.9359 0.1036 -0.2193
C15 C 0.6589(6) 0.0725(3) -0.08732(17)
F1 F 0.1687(6) 0.1524(2) 0.58674(12)
F2 F -0.3838(5) 0.50763(19) 0.36349(14)
C1A C 0.7874(7) -0.1437(3) -0.41789(19)
H1A H 0.6526 -0.0603 -0.4317
C2A C 0.9114(7) -0.2100(3) -0.49290(19)
C3A C 1.1134(7) -0.3318(3) -0.4777(2)
H2A H 1.1970 -0.3751 -0.5299
C4A C 1.1855(7) -0.3865(3) -0.3814(2)
C5A C 1.0684(6) -0.3257(3) -0.30272(19)
H3A H 1.1248 -0.3666 -0.2384
C6A C 0.8639(6) -0.2019(3) -0.32079(18)
C7A C 0.7206(6) -0.1286(3) -0.24244(18)
H4A H 0.5556 -0.0565 -0.2611
C8A C 0.7972(7) -0.1524(3) -0.14910(18)
H5A H 0.9589 -0.2252 -0.1286
C9A C 0.6467(6) -0.0727(3) -0.07388(17)
C10A C 0.4911(6) -0.1455(3) 0.01345(17)
C11A C 0.4723(7) -0.2927(3) 0.0296(2)
H6A H 0.5683 -0.3420 -0.0182
C12A C 0.3185(8) -0.3622(3) 0.1126(2)
H7A H 0.3164 -0.4585 0.1224
C13A C 0.1623(8) -0.2892(3) 0.1838(2)
H8A H 0.0517 -0.3370 0.2399
C14A C 0.1714(7) -0.1503(3) 0.17152(19)
H9A H 0.0641 -0.1036 0.2193
C15A C 0.3411(6) -0.0725(3) 0.08732(17)
F1A F 0.8313(6) -0.1524(2) -0.58674(12)
F2A F 1.3838(5) -0.50763(19) -0.36349(14)
loop_
_geom_bond_atom_site_label_1
_geom_bond_atom_site_label_2
_geom_bond_site_symmetry_1
_geom_bond_site_symmetry_2
C1 H1 1_555 1_555
C2 C1 1_555 1_555
C3 C2 1_555 1_555
H2 C3 1_555 1_555
C4 C3 1_555 1_555
C5 C4 1_555 1_555
H3 C5 1_555 1_555
C6 C1 1_555 1_555
C7 C6 1_555 1_555
H4 C7 1_555 1_555
C8 C7 1_555 1_555
H5 C8 1_555 1_555
C9 C8 1_555 1_555
C10 C9 1_555 1_555
C11 C10 1_555 1_555
H6 C11 1_555 1_555
C12 C11 1_555 1_555
H7 C12 1_555 1_555
C13 C12 1_555 1_555
H8 C13 1_555 1_555
C14 C13 1_555 1_555
H9 C14 1_555 1_555
C15 C10 1_555 1_555
F1 C2 1_555 1_555
F2 C4 1_555 1_555
C1A H1A 1_555 1_555
C2A C1A 1_555 1_555
C3A C2A 1_555 1_555
H2A C3A 1_555 1_555
C4A C3A 1_555 1_555
C5A C4A 1_555 1_555
H3A C5A 1_555 1_555
C6A C1A 1_555 1_555
C7A C6A 1_555 1_555
H4A C7A 1_555 1_555
C8A C7A 1_555 1_555
H5A C8A 1_555 1_555
C9A C15 1_555 1_555
C10A C9A 1_555 1_555
C11A C10A 1_555 1_555
H6A C11A 1_555 1_555
C12A C11A 1_555 1_555
H7A C12A 1_555 1_555
C13A C12A 1_555 1_555
H8A C13A 1_555 1_555
C14A C13A 1_555 1_555
H9A C14A 1_555 1_555
C15A C9 1_555 1_555
F1A C2A 1_555 1_555
F2A C4A 1_555 1_555
C5 C6 1_555 1_555
C14 C15 1_555 1_555
C5A C6A 1_555 1_555
C8A C9A 1_555 1_555
C10A C15A 1_555 1_555
C14A C15A 1_555 1_555

#END
