
#######################################################################
#
#                 Cambridge Crystallographic Data Centre
#                                CCDC 
#
#######################################################################
#
# If this CIF has been generated from an entry in the Cambridge 
# Structural Database, then it will include bibliographic, chemical, 
# crystal, experimental, refinement or atomic coordinate data resulting 
# from the CCDC's data processing and validation procedures.
#
#######################################################################

data_ZEDPUV
_chemical_formula_moiety         'C12 H16 Mg2 O20 S4,8(H2 O1)'
_chemical_name_systematic        
'bis(\m~2~-4,6-Dihydroxybenzene-1,3-disulfonato)-tetra-aqua-di-magnesium(ii) octahydrate'
_symmetry_cell_setting           monoclinic
_symmetry_space_group_name_H-M   'C 2/m'
_symmetry_Int_Tables_number      12
_space_group_name_Hall           '-C 2y'
loop_
_symmetry_equiv_pos_site_id
_symmetry_equiv_pos_as_xyz
1 x,y,z
2 -x,y,-z
3 1/2+x,1/2+y,z
4 1/2-x,1/2+y,-z
5 -x,-y,-z
6 x,-y,z
7 1/2-x,1/2-y,-z
8 1/2+x,1/2-y,z
_cell_length_a                   13.257(3)
_cell_length_b                   18.326(4)
_cell_length_c                   7.1499(14)
_cell_angle_alpha                90
_cell_angle_beta                 115.93(3)
_cell_angle_gamma                90
_cell_volume                     1562.18
_exptl_crystal_colour            colorless
_exptl_crystal_description       prism
_cell_formula_units_Z            2
loop_
_atom_site_label
_atom_site_type_symbol
_atom_site_fract_x
_atom_site_fract_y
_atom_site_fract_z
S1 S 0.24795(7) 0.35305(5) 0.26265(14)
Mg1 Mg 0.5000 0.29505(10) 0.5000
O1 O 0.2011(3) 0.3266(2) 0.0496(5)
O2 O 0.5107(2) 0.21549(18) 0.7129(5)
H1 H 0.4588 0.1886 0.7008
H2 H 0.5673 0.2023 0.8145
O3 O 0.1644(2) 0.37127(17) 0.3336(5)
O4 O 0.3262(2) 0.29916(14) 0.4027(4)
O5 O 0.4742(2) 0.37038(14) 0.2648(4)
H3 H 0.5284 0.3521 0.2558
C1 C 0.4241(3) 0.4334(2) 0.2613(5)
C2 C 0.4733(4) 0.5000 0.2529(7)
H4 H 0.5405 0.5000 0.2414
C3 C 0.3201(3) 0.4341(2) 0.2724(5)
C4 C 0.2696(4) 0.5000 0.2755(7)
H5 H 0.2005 0.5000 0.2798
S1A S 0.75205(7) 0.35305(5) 0.73735(14)
S1E S 0.24795(7) 0.64695(5) 0.26265(14)
S1D S 0.75205(7) 0.64695(5) 0.73735(14)
Mg1D Mg 0.5000 0.70495(10) 0.5000
O1A O 0.7989(3) 0.3266(2) 0.9504(5)
O1E O 0.2011(3) 0.6734(2) 0.0496(5)
O1D O 0.7989(3) 0.6734(2) 0.9504(5)
O2A O 0.4893(2) 0.21549(18) 0.2871(5)
O2E O 0.5107(2) 0.78451(18) 0.7129(5)
O2D O 0.4893(2) 0.78451(18) 0.2871(5)
H1A H 0.5412 0.1886 0.2992
H1E H 0.4588 0.8114 0.7008
H1D H 0.5412 0.8114 0.2992
H2A H 0.4327 0.2023 0.1855
H2E H 0.5673 0.7977 0.8145
H2D H 0.4327 0.7977 0.1855
O3A O 0.8356(2) 0.37127(17) 0.6664(5)
O3E O 0.1644(2) 0.62873(17) 0.3336(5)
O3D O 0.8356(2) 0.62873(17) 0.6664(5)
O4A O 0.6738(2) 0.29916(14) 0.5973(4)
O4E O 0.3262(2) 0.70084(14) 0.4027(4)
O4D O 0.6738(2) 0.70084(14) 0.5973(4)
O5A O 0.5258(2) 0.37038(14) 0.7352(4)
O5E O 0.4742(2) 0.62962(14) 0.2648(4)
O5D O 0.5258(2) 0.62962(14) 0.7352(4)
H3D H 0.4716 0.6479 0.7442
H3E H 0.5284 0.6479 0.2558
H3A H 0.4716 0.3521 0.7442
C1A C 0.5759(3) 0.4334(2) 0.7387(5)
C1E C 0.4241(3) 0.5666(2) 0.2613(5)
C1D C 0.5759(3) 0.5666(2) 0.7387(5)
C2A C 0.5267(4) 0.5000 0.7471(7)
H4A H 0.4595 0.5000 0.7586
C3A C 0.6799(3) 0.4341(2) 0.7276(5)
C3E C 0.3201(3) 0.5659(2) 0.2724(5)
C3D C 0.6799(3) 0.5659(2) 0.7276(5)
C4A C 0.7304(4) 0.5000 0.7245(7)
H5A H 0.7995 0.5000 0.7202
O6 O -0.0260(12) 0.5000 0.206(3)
H6 H 0.0142 0.4638 0.2322
H6E H 0.0142 0.5362 0.2322
O7 O 0.6641(4) 0.3500(2) 0.1919(7)
H7 H 0.7080 0.3554 0.3147
H8 H 0.7004 0.3434 0.1256
O8 O 0.7825(6) 0.5000 0.2645(10)
H9 H 0.7427 0.4637 0.2405
H9E H 0.7427 0.5363 0.2405
loop_
_geom_bond_atom_site_label_1
_geom_bond_atom_site_label_2
_geom_bond_site_symmetry_1
_geom_bond_site_symmetry_2
S1 O1 1_555 1_555
Mg1 O2 1_555 1_555
O2 H1 1_555 1_555
H2 O2 1_555 1_555
O3 S1 1_555 1_555
O4 S1 1_555 1_555
O5 Mg1 1_555 1_555
H3 O5 1_555 1_555
C1 O5 1_555 1_555
C2 C1 1_555 1_555
H4 C2 1_555 1_555
C3 S1 1_555 1_555
C4 C3 1_555 1_555
H5 C4 1_555 1_555
O6 H6 1_555 1_555
O7 H7 1_555 1_555
H8 O7 1_555 1_555
O8 H9 1_555 1_555
S1A O1A 1_555 1_555
S1E O1E 1_555 1_555
S1D O1D 1_555 1_555
Mg1D O2E 1_555 1_555
O2A Mg1 1_555 1_555
O2E H1E 1_555 1_555
O2D Mg1D 1_555 1_555
H1A O2A 1_555 1_555
H1D O2D 1_555 1_555
H2A O2A 1_555 1_555
H2E O2E 1_555 1_555
H2D O2D 1_555 1_555
O3A S1A 1_555 1_555
O3E S1E 1_555 1_555
O3D S1D 1_555 1_555
O4A Mg1 1_555 1_555
O4E S1E 1_555 1_555
O4D S1D 1_555 1_555
O5A Mg1 1_555 1_555
O5E Mg1D 1_555 1_555
O5D Mg1D 1_555 1_555
H3D O5D 1_555 1_555
H3E O5E 1_555 1_555
H3A O5A 1_555 1_555
C1A O5A 1_555 1_555
C1E C2 1_555 1_555
C1D O5D 1_555 1_555
C2A C1A 1_555 1_555
H4A C2A 1_555 1_555
C3A S1A 1_555 1_555
C3E C4 1_555 1_555
C3D S1D 1_555 1_555
C4A C3A 1_555 1_555
H5A C4A 1_555 1_555
H6E O6 1_555 1_555
H9E O8 1_555 1_555
Mg1 O4 1_555 1_555
C1 C3 1_555 1_555
S1A O4A 1_555 1_555
S1E C3E 1_555 1_555
Mg1D O4E 1_555 1_555
Mg1D O4D 1_555 1_555
O5E C1E 1_555 1_555
C1A C3A 1_555 1_555
C1E C3E 1_555 1_555
C1D C2A 1_555 1_555
C1D C3D 1_555 1_555
C3D C4A 1_555 1_555

#END
