
#######################################################################
#
#                 Cambridge Crystallographic Data Centre
#                                CCDC 
#
#######################################################################
#
# If this CIF has been generated from an entry in the Cambridge 
# Structural Database, then it will include bibliographic, chemical, 
# crystal, experimental, refinement or atomic coordinate data resulting 
# from the CCDC's data processing and validation procedures.
#
#######################################################################

data_ZEDTUZ01
_chemical_formula_moiety         'C38 H26 N4 S4'
_chemical_name_systematic        
5,5'''-Dimethyl-2,2',2'',2'''-tetraphenyl-4,5':4',4'':5'',4'''-quater-1,3-thiazole
_symmetry_cell_setting           monoclinic
_symmetry_space_group_name_H-M   'P 21/n'
_symmetry_Int_Tables_number      14
_space_group_name_Hall           '-P 2yn'
loop_
_symmetry_equiv_pos_site_id
_symmetry_equiv_pos_as_xyz
1 x,y,z
2 1/2-x,1/2+y,1/2-z
3 -x,-y,-z
4 1/2+x,1/2-y,1/2+z
_cell_length_a                   11.9748(3)
_cell_length_b                   13.6322(3)
_cell_length_c                   19.9841(4)
_cell_angle_alpha                90
_cell_angle_beta                 96.0856(7)
_cell_angle_gamma                90
_cell_volume                     3243.88
_exptl_crystal_colour            colorless
_exptl_crystal_description       block
_cell_formula_units_Z            4
loop_
_atom_site_label
_atom_site_type_symbol
_atom_site_fract_x
_atom_site_fract_y
_atom_site_fract_z
S1 S 0.86272(3) 0.10448(2) 0.275394(15)
S2 S 0.69234(3) 0.00939(2) 0.037038(15)
S3 S 0.93079(3) 0.42185(2) 0.099682(17)
S4 S 1.12744(3) 0.08147(3) 0.099272(17)
N1 N 0.86721(9) 0.00960(8) 0.16491(5)
N2 N 0.68371(9) 0.17812(8) -0.02060(5)
N3 N 0.73430(9) 0.37008(8) 0.04747(5)
N4 N 1.04288(9) 0.21588(8) 0.16818(5)
C1 C 0.72642(12) 0.24765(10) 0.20708(7)
C2 C 0.79061(10) 0.15388(9) 0.20408(6)
C3 C 0.90474(11) 0.00619(9) 0.22861(6)
C4 C 0.98028(11) -0.07065(9) 0.25852(7)
C5 C 1.01452(12) -0.07322(11) 0.32725(7)
C6 C 1.08997(14) -0.14406(12) 0.35358(8)
C7 C 1.13091(14) -0.21281(11) 0.31185(8)
C8 C 1.09579(14) -0.21198(11) 0.24352(8)
C9 C 1.02147(12) -0.14097(10) 0.21667(7)
C10 C 0.80407(10) 0.09323(9) 0.15071(6)
C11 C 0.75420(10) 0.10722(9) 0.08133(6)
C12 C 0.65177(10) 0.08685(9) -0.03010(6)
C13 C 0.58503(10) 0.05267(10) -0.09162(6)
C14 C 0.56237(11) -0.04649(10) -0.10434(7)
C15 C 0.49623(12) -0.07420(11) -0.16251(8)
C16 C 0.45343(12) -0.00464(12) -0.20857(7)
C17 C 0.47686(13) 0.09366(12) -0.19686(8)
C18 C 0.54128(12) 0.12224(11) -0.13833(7)
C19 C 0.74384(10) 0.18978(9) 0.04170(6)
C20 C 0.79679(10) 0.28557(9) 0.05841(6)
C21 C 0.79327(11) 0.44749(9) 0.06693(6)
C22 C 0.74765(12) 0.54808(9) 0.06383(6)
C23 C 0.63442(12) 0.56125(10) 0.04056(7)
C24 C 0.58669(14) 0.65425(11) 0.03878(7)
C25 C 0.65235(15) 0.73464(11) 0.05996(9)
C26 C 0.76397(16) 0.72236(11) 0.08347(10)
C27 C 0.81228(14) 0.62938(11) 0.08532(9)
C28 C 0.90631(11) 0.29824(9) 0.08579(6)
C29 C 0.99416(10) 0.22409(9) 0.10244(6)
C30 C 1.11367(10) 0.14265(10) 0.17426(6)
C31 C 1.17576(11) 0.11109(10) 0.23830(7)
C32 C 1.16017(12) 0.16238(11) 0.29690(7)
C33 C 1.21541(13) 0.13412(13) 0.35847(8)
C34 C 1.28708(13) 0.05380(13) 0.36171(8)
C35 C 1.30367(12) 0.00263(12) 0.30374(8)
C36 C 1.24822(11) 0.03079(11) 0.24212(7)
C37 C 1.02965(10) 0.15852(10) 0.05739(7)
C38 C 0.99294(12) 0.14731(12) -0.01613(7)
H1 H 0.6725 0.2535 0.1668
H2 H 0.7786 0.3032 0.2092
H3 H 0.6860 0.2477 0.2472
H4 H 0.9861 -0.0263 0.3563
H5 H 1.1135 -0.1452 0.4005
H6 H 1.1832 -0.2608 0.3300
H7 H 1.1228 -0.2603 0.2150
H8 H 0.9985 -0.1401 0.1697
H9 H 0.5922 -0.0949 -0.0732
H10 H 0.4802 -0.1417 -0.1707
H11 H 0.4080 -0.0243 -0.2482
H12 H 0.4488 0.1415 -0.2289
H13 H 0.5557 0.1899 -0.1300
H14 H 0.5897 0.5062 0.0258
H15 H 0.5096 0.6628 0.0232
H16 H 0.6202 0.7984 0.0583
H17 H 0.8081 0.7776 0.0985
H18 H 0.8893 0.6214 0.1013
H19 H 1.1112 0.2173 0.2947
H20 H 1.2042 0.1695 0.3982
H21 H 1.3248 0.0339 0.4038
H22 H 1.3532 -0.0520 0.3061
H23 H 1.2597 -0.0047 0.2025
H24 H 1.0535 0.1171 -0.0383
H25 H 0.9753 0.2120 -0.0360
H26 H 0.9260 0.1055 -0.0223
loop_
_geom_bond_atom_site_label_1
_geom_bond_atom_site_label_2
_geom_bond_site_symmetry_1
_geom_bond_site_symmetry_2
S1 C2 1_555 1_555
S2 C11 1_555 1_555
S3 C21 1_555 1_555
S4 C30 1_555 1_555
N1 C3 1_555 1_555
N2 C12 1_555 1_555
N3 C20 1_555 1_555
N4 C29 1_555 1_555
C1 C2 1_555 1_555
C2 C10 1_555 1_555
C3 S1 1_555 1_555
C4 C3 1_555 1_555
C5 C4 1_555 1_555
C6 C5 1_555 1_555
C7 C6 1_555 1_555
C8 C7 1_555 1_555
C9 C4 1_555 1_555
C10 N1 1_555 1_555
C11 C10 1_555 1_555
C12 S2 1_555 1_555
C13 C12 1_555 1_555
C14 C13 1_555 1_555
C15 C14 1_555 1_555
C16 C15 1_555 1_555
C17 C16 1_555 1_555
C18 C13 1_555 1_555
C19 N2 1_555 1_555
C20 C19 1_555 1_555
C21 N3 1_555 1_555
C22 C21 1_555 1_555
C23 C22 1_555 1_555
C24 C23 1_555 1_555
C25 C24 1_555 1_555
C26 C25 1_555 1_555
C27 C22 1_555 1_555
C28 S3 1_555 1_555
C29 C28 1_555 1_555
C30 N4 1_555 1_555
C31 C30 1_555 1_555
C32 C31 1_555 1_555
C33 C32 1_555 1_555
C34 C33 1_555 1_555
C35 C34 1_555 1_555
C36 C31 1_555 1_555
C37 S4 1_555 1_555
C38 C37 1_555 1_555
H1 C1 1_555 1_555
H2 C1 1_555 1_555
H3 C1 1_555 1_555
H4 C5 1_555 1_555
H5 C6 1_555 1_555
H6 C7 1_555 1_555
H7 C8 1_555 1_555
H8 C9 1_555 1_555
H9 C14 1_555 1_555
H10 C15 1_555 1_555
H11 C16 1_555 1_555
H12 C17 1_555 1_555
H13 C18 1_555 1_555
H14 C23 1_555 1_555
H15 C24 1_555 1_555
H16 C25 1_555 1_555
H17 C26 1_555 1_555
H18 C27 1_555 1_555
H19 C32 1_555 1_555
H20 C33 1_555 1_555
H21 C34 1_555 1_555
H22 C35 1_555 1_555
H23 C36 1_555 1_555
H24 C38 1_555 1_555
H25 C38 1_555 1_555
H26 C38 1_555 1_555
C8 C9 1_555 1_555
C11 C19 1_555 1_555
C17 C18 1_555 1_555
C20 C28 1_555 1_555
C26 C27 1_555 1_555
C29 C37 1_555 1_555
C35 C36 1_555 1_555

#END
