
#######################################################################
#
#                 Cambridge Crystallographic Data Centre
#                                CCDC 
#
#######################################################################
#
# If this CIF has been generated from an entry in the Cambridge 
# Structural Database, then it will include bibliographic, chemical, 
# crystal, experimental, refinement or atomic coordinate data resulting 
# from the CCDC's data processing and validation procedures.
#
#######################################################################

data_ZEDWEM
_chemical_formula_moiety         'C32 H9 B1 Cl1 F15'
_chemical_name_systematic        
(2-(4-Chlorophenyl)-1-(pentafluorophenyl)-2-phenylvinyl)(bis(pentafluorophenyl))borane
_symmetry_cell_setting           monoclinic
_symmetry_space_group_name_H-M   'P 21/c'
_symmetry_Int_Tables_number      14
_space_group_name_Hall           '-P 2ybc'
loop_
_symmetry_equiv_pos_site_id
_symmetry_equiv_pos_as_xyz
1 x,y,z
2 -x,1/2+y,1/2-z
3 -x,-y,-z
4 x,1/2-y,1/2+z
_cell_length_a                   7.6340(5)
_cell_length_b                   33.9056(19)
_cell_length_c                   11.2130(7)
_cell_angle_alpha                90
_cell_angle_beta                 99.018(3)
_cell_angle_gamma                90
_cell_volume                     2866.45
_exptl_crystal_colour            yellow
_exptl_crystal_description       needle
_cell_formula_units_Z            4
loop_
_atom_site_label
_atom_site_type_symbol
_atom_site_fract_x
_atom_site_fract_y
_atom_site_fract_z
Cl1 Cl 0.4471(2) 0.78531(4) 0.13632(16)
F1 F 0.3760(3) 0.61573(8) 0.5085(2)
F2 F 0.3459(4) 0.61475(10) 0.7430(2)
F3 F 0.0276(4) 0.62830(9) 0.8141(2)
F4 F -0.2567(4) 0.64587(8) 0.6482(2)
F5 F -0.2266(3) 0.65102(8) 0.4147(2)
F6 F 0.0902(3) 0.71867(6) 0.3825(2)
F7 F -0.0434(4) 0.77788(8) 0.2409(3)
F8 F -0.2142(4) 0.76295(10) 0.0138(3)
F9 F -0.2509(4) 0.68747(11) -0.0668(2)
F10 F -0.1067(3) 0.62834(8) 0.0708(2)
F11 F -0.1277(3) 0.56951(7) 0.2804(2)
F12 F -0.1614(4) 0.49538(8) 0.3588(2)
F13 F 0.1284(5) 0.44914(7) 0.4132(3)
F14 F 0.4532(4) 0.47732(7) 0.3888(2)
F15 F 0.4892(3) 0.55156(7) 0.3157(2)
C1 C 0.1976(5) 0.60461(10) 0.2537(3)
C2 C 0.2923(5) 0.61361(10) 0.1633(3)
C3 C 0.3375(5) 0.58460(11) 0.0736(3)
C4 C 0.2109(6) 0.55753(12) 0.0216(4)
H1 H 0.0986 0.5567 0.0458
C5 C 0.2513(9) 0.53192(15) -0.0657(4)
H2 H 0.1656 0.5137 -0.1006
C6 C 0.4138(10) 0.53258(18) -0.1022(5)
H3 H 0.4393 0.5147 -0.1613
C7 C 0.5388(8) 0.55896(17) -0.0534(5)
H4 H 0.6503 0.5592 -0.0791
C8 C 0.5031(6) 0.58572(14) 0.0348(4)
H5 H 0.5892 0.6042 0.0675
C9 C 0.0750(5) 0.63378(10) 0.4515(3)
C10 C 0.2144(5) 0.62346(11) 0.5396(4)
C11 C 0.2016(6) 0.62263(12) 0.6609(4)
C12 C 0.0440(7) 0.62994(12) 0.6965(4)
C13 C -0.1018(6) 0.63930(11) 0.6134(4)
C14 C -0.0817(5) 0.64142(10) 0.4940(4)
C15 C -0.0016(5) 0.67092(11) 0.2337(3)
C16 C 0.0061(5) 0.70984(11) 0.2725(4)
C17 C -0.0624(6) 0.74079(12) 0.2005(5)
C18 C -0.1477(6) 0.73350(16) 0.0865(5)
C19 C -0.1650(5) 0.69545(16) 0.0452(4)
C20 C -0.0903(5) 0.66516(13) 0.1173(4)
C21 C 0.1808(5) 0.56296(10) 0.2929(3)
C22 C 0.0198(5) 0.54718(11) 0.3073(3)
C23 C -0.0017(6) 0.50910(13) 0.3462(4)
C24 C 0.1467(8) 0.48597(12) 0.3724(4)
C25 C 0.3080(6) 0.50018(12) 0.3615(4)
C26 C 0.3262(6) 0.53829(11) 0.3229(3)
C27 C 0.3486(5) 0.65499(11) 0.1524(3)
C28 C 0.4185(5) 0.67596(11) 0.2564(4)
H6 H 0.4416 0.6628 0.3310
C29 C 0.4537(5) 0.71565(12) 0.2506(4)
H7 H 0.5026 0.7295 0.3206
C30 C 0.4168(5) 0.73472(12) 0.1422(5)
C31 C 0.3544(6) 0.71458(13) 0.0373(4)
H8 H 0.3317 0.7281 -0.0367
C32 C 0.3258(5) 0.67467(12) 0.0417(4)
H9 H 0.2906 0.6605 -0.0301
B1 B 0.0949(5) 0.63661(12) 0.3137(4)
loop_
_geom_bond_atom_site_label_1
_geom_bond_atom_site_label_2
_geom_bond_site_symmetry_1
_geom_bond_site_symmetry_2
Cl1 C30 1_555 1_555
F1 C10 1_555 1_555
F2 C11 1_555 1_555
F3 C12 1_555 1_555
F4 C13 1_555 1_555
F5 C14 1_555 1_555
F6 C16 1_555 1_555
F7 C17 1_555 1_555
F8 C18 1_555 1_555
F9 C19 1_555 1_555
F10 C20 1_555 1_555
F11 C22 1_555 1_555
F12 C23 1_555 1_555
F13 C24 1_555 1_555
F14 C25 1_555 1_555
F15 C26 1_555 1_555
C1 C2 1_555 1_555
C2 C3 1_555 1_555
C3 C4 1_555 1_555
C4 H1 1_555 1_555
C5 C4 1_555 1_555
H2 C5 1_555 1_555
C6 C5 1_555 1_555
H3 C6 1_555 1_555
C7 C6 1_555 1_555
H4 C7 1_555 1_555
C8 C3 1_555 1_555
H5 C8 1_555 1_555
C9 C10 1_555 1_555
C10 C11 1_555 1_555
C11 C12 1_555 1_555
C12 C13 1_555 1_555
C13 C14 1_555 1_555
C14 C9 1_555 1_555
C15 C16 1_555 1_555
C16 C17 1_555 1_555
C17 C18 1_555 1_555
C18 C19 1_555 1_555
C19 C20 1_555 1_555
C20 C15 1_555 1_555
C21 C1 1_555 1_555
C22 C21 1_555 1_555
C23 C22 1_555 1_555
C24 C23 1_555 1_555
C25 C24 1_555 1_555
C26 C21 1_555 1_555
C27 C2 1_555 1_555
C28 C27 1_555 1_555
H6 C28 1_555 1_555
C29 C28 1_555 1_555
H7 C29 1_555 1_555
C30 C29 1_555 1_555
C31 C30 1_555 1_555
H8 C31 1_555 1_555
C32 C27 1_555 1_555
H9 C32 1_555 1_555
B1 C1 1_555 1_555
C7 C8 1_555 1_555
C9 B1 1_555 1_555
C15 B1 1_555 1_555
C25 C26 1_555 1_555
C31 C32 1_555 1_555

#END
