
#######################################################################
#
#                 Cambridge Crystallographic Data Centre
#                                CCDC 
#
#######################################################################
#
# If this CIF has been generated from an entry in the Cambridge 
# Structural Database, then it will include bibliographic, chemical, 
# crystal, experimental, refinement or atomic coordinate data resulting 
# from the CCDC's data processing and validation procedures.
#
#######################################################################

data_ZEFBOD
_chemical_formula_moiety         'C2 H4 N12'
_chemical_name_systematic        5,5'-Diazene-1,2-diylbis(1H-tetrazol-1-amine)
_symmetry_cell_setting           monoclinic
_symmetry_space_group_name_H-M   'P 21/n'
_symmetry_Int_Tables_number      14
_space_group_name_Hall           '-P 2yn'
loop_
_symmetry_equiv_pos_site_id
_symmetry_equiv_pos_as_xyz
1 x,y,z
2 1/2-x,1/2+y,1/2-z
3 -x,-y,-z
4 1/2+x,1/2-y,1/2+z
_cell_length_a                   6.485(4)
_cell_length_b                   5.583(3)
_cell_length_c                   10.854(6)
_cell_angle_alpha                90
_cell_angle_beta                 90.786(8)
_cell_angle_gamma                90
_cell_volume                     392.94
_exptl_crystal_colour            brown
_exptl_crystal_description       block
_cell_formula_units_Z            2
loop_
_atom_site_label
_atom_site_type_symbol
_atom_site_fract_x
_atom_site_fract_y
_atom_site_fract_z
N1 N 0.53256(14) 0.04027(17) 0.05069(8)
N2 N 0.35588(15) 0.54668(18) 0.20534(9)
N3 N 0.48033(13) 0.35859(16) 0.19093(8)
N4 N 0.63874(15) 0.29398(19) 0.27229(9)
N5 N 0.26922(15) 0.35924(18) 0.03395(9)
C1 C 0.42601(16) 0.24578(19) 0.08647(9)
N6 N 0.22956(15) 0.54525(19) 0.11008(9)
H1 H 0.582(3) 0.248(3) 0.3434(16)
H2 H 0.716(3) 0.424(3) 0.2834(16)
N1B N 0.46744(14) -0.04027(17) -0.05069(8)
N2B N 0.64412(15) -0.54668(18) -0.20534(9)
N3B N 0.51967(13) -0.35859(16) -0.19093(8)
N4B N 0.36126(15) -0.29398(19) -0.27229(9)
N5B N 0.73078(15) -0.35924(18) -0.03395(9)
C1B C 0.57399(16) -0.24578(19) -0.08647(9)
N6B N 0.77044(15) -0.54525(19) -0.11008(9)
H1B H 0.418(3) -0.248(3) -0.3434(16)
H2B H 0.284(3) -0.424(3) -0.2834(16)
loop_
_geom_bond_atom_site_label_1
_geom_bond_atom_site_label_2
_geom_bond_site_symmetry_1
_geom_bond_site_symmetry_2
N1 C1 1_555 1_555
N2 N3 1_555 1_555
N3 N4 1_555 1_555
N4 H1 1_555 1_555
N5 C1 1_555 1_555
C1 N3 1_555 1_555
N6 N2 1_555 1_555
H2 N4 1_555 1_555
N1B N1 1_555 1_555
N2B N3B 1_555 1_555
N3B N4B 1_555 1_555
N4B H1B 1_555 1_555
N5B C1B 1_555 1_555
C1B N1B 1_555 1_555
N6B N2B 1_555 1_555
H2B N4B 1_555 1_555
N5 N6 1_555 1_555
N3B C1B 1_555 1_555
N5B N6B 1_555 1_555

#END
