
#######################################################################
#
#                 Cambridge Crystallographic Data Centre
#                                CCDC 
#
#######################################################################
#
# If this CIF has been generated from an entry in the Cambridge 
# Structural Database, then it will include bibliographic, chemical, 
# crystal, experimental, refinement or atomic coordinate data resulting 
# from the CCDC's data processing and validation procedures.
#
#######################################################################

data_ZEFDUM
_chemical_formula_moiety         'C45 H50 N2'
_chemical_name_systematic        
N-(3-((2,6-diisopropylphenyl)imino)-1,2,3-triphenylprop-1-en-1-yl)-2,6-diisopropylaniline
_symmetry_cell_setting           triclinic
_symmetry_space_group_name_H-M   'P -1'
_symmetry_Int_Tables_number      2
_space_group_name_Hall           '-P 1'
loop_
_symmetry_equiv_pos_site_id
_symmetry_equiv_pos_as_xyz
1 x,y,z
2 -x,-y,-z
_cell_length_a                   11.270(3)
_cell_length_b                   12.448(3)
_cell_length_c                   14.939(3)
_cell_angle_alpha                74.719(4)
_cell_angle_beta                 79.162(4)
_cell_angle_gamma                72.866(5)
_cell_volume                     1918.05
_exptl_crystal_colour            yellow
_exptl_crystal_description       block
_cell_formula_units_Z            2
loop_
_atom_site_label
_atom_site_type_symbol
_atom_site_fract_x
_atom_site_fract_y
_atom_site_fract_z
N1 N 0.7817(3) 0.1236(3) 0.2200(2)
C1 C 0.7584(3) 0.1145(3) 0.3127(3)
C2 C 0.7757(3) 0.0074(3) 0.3764(2)
C3 C 0.8173(3) -0.1000(3) 0.3478(3)
N2 N 0.8356(3) -0.1057(3) 0.2589(2)
C4 C 0.8445(3) -0.2101(3) 0.4219(2)
C5 C 0.7103(4) 0.2239(3) 0.3477(3)
C6 C 0.7507(3) 0.0053(3) 0.4789(2)
C7 C 0.8733(4) -0.2122(3) 0.2290(2)
C8 C 0.9988(4) -0.2753(4) 0.2213(3)
C9 C 0.7723(4) 0.2323(3) 0.1538(3)
C10 C 0.8825(4) 0.2636(4) 0.1124(3)
C11 C 0.7783(4) 0.3045(4) 0.3306(3)
H1 H 0.8571 0.2911 0.2963
C12 C 0.7793(4) -0.2920(4) 0.4388(3)
H2 H 0.7167 -0.2812 0.4021
C13 C 0.9381(6) -0.4184(4) 0.1739(3)
H3 H 0.9598 -0.4895 0.1577
C14 C 0.5952(4) 0.2449(4) 0.4011(3)
H4 H 0.5482 0.1912 0.4149
C15 C 0.7800(4) -0.2511(4) 0.2050(3)
C16 C 0.6569(4) -0.0406(4) 0.5347(3)
H5 H 0.6085 -0.0704 0.5084
C17 C 0.8737(5) 0.3701(4) 0.0507(3)
H6 H 0.9462 0.3922 0.0221
C18 C 0.9350(4) -0.2258(4) 0.4783(3)
H7 H 0.9800 -0.1711 0.4685
C19 C 0.8218(4) 0.0456(4) 0.5213(3)
H8 H 0.8863 0.0759 0.4856
C20 C 0.8154(5) -0.3548(4) 0.1778(3)
H9 H 0.7555 -0.3820 0.1619
C21 C 1.0104(4) 0.1839(4) 0.1318(3)
H10 H 1.0002 0.1282 0.1909
C22 C 1.0286(4) -0.3780(4) 0.1937(3)
H11 H 1.1116 -0.4207 0.1884
C23 C 0.7319(5) 0.4041(4) 0.3631(3)
H12 H 0.7781 0.4584 0.3503
C24 C 0.6558(4) 0.3044(4) 0.1318(3)
C25 C 0.8932(6) -0.4041(5) 0.5655(4)
H13 H 0.9083 -0.4685 0.6145
C26 C 0.8044(5) -0.3899(4) 0.5088(3)
H14 H 0.7615 -0.4461 0.5175
C27 C 1.1035(4) -0.2292(4) 0.2361(3)
H15 H 1.0648 -0.1593 0.2602
C28 C 0.6456(5) -0.1813(5) 0.2075(4)
H16 H 0.6330 -0.1311 0.2509
C29 C 0.6171(5) 0.4221(5) 0.4144(4)
H17 H 0.5856 0.4898 0.4361
C30 C 0.7595(6) 0.4428(5) 0.0316(3)
H18 H 0.7552 0.5148 -0.0082
C31 C 0.5485(5) 0.3460(5) 0.4346(4)
H19 H 0.4709 0.3599 0.4704
C32 C 0.6519(5) 0.4107(4) 0.0704(3)
H20 H 0.5751 0.4605 0.0556
C33 C 0.7991(6) 0.0417(5) 0.6160(4)
H21 H 0.8478 0.0700 0.6433
C34 C 0.9585(5) -0.3242(5) 0.5499(3)
H22 H 1.0199 -0.3351 0.5876
C35 C 0.6348(5) -0.0427(5) 0.6294(4)
H23 H 0.5698 -0.0716 0.6658
C36 C 1.1893(5) -0.3136(4) 0.3057(4)
H24 H 1.2252 -0.3844 0.2851
H25 H 1.1419 -0.3286 0.3660
H26 H 1.2548 -0.2809 0.3099
C37 C 0.5352(5) 0.2669(5) 0.1681(4)
H27 H 0.5517 0.2012 0.2214
C38 C 1.1041(5) 0.2459(6) 0.1394(5)
H28 H 1.1773 0.1904 0.1624
H29 H 1.0674 0.2963 0.1817
H30 H 1.1269 0.2902 0.0789
C39 C 1.1824(6) -0.1965(6) 0.1438(4)
H31 H 1.2188 -0.2632 0.1176
H32 H 1.2476 -0.1677 0.1543
H33 H 1.1305 -0.1380 0.1012
C40 C 0.7061(6) -0.0034(5) 0.6698(3)
H34 H 0.6918 -0.0070 0.7338
C41 C 1.0614(7) 0.1190(6) 0.0556(5)
H35 H 1.0035 0.0779 0.0513
H36 H 1.1400 0.0653 0.0695
H37 H 1.0734 0.1722 -0.0028
C42 C 0.5502(5) -0.2525(6) 0.2418(5)
H38 H 0.5611 -0.3041 0.2015
H39 H 0.4673 -0.2020 0.2412
H40 H 0.5619 -0.2961 0.3043
C43 C 0.4263(6) 0.3628(6) 0.2012(5)
H41 H 0.4023 0.4245 0.1485
H42 H 0.4527 0.3916 0.2457
H43 H 0.3562 0.3318 0.2299
C44 C 0.4963(6) 0.2274(7) 0.0928(5)
H44 H 0.4792 0.2907 0.0399
H45 H 0.4224 0.2006 0.1169
H46 H 0.5626 0.1659 0.0739
C45 C 0.6212(6) -0.1042(7) 0.1125(5)
H47 H 0.6830 -0.0610 0.0909
H48 H 0.5395 -0.0520 0.1171
H49 H 0.6257 -0.1505 0.0692
H50 H 0.832(6) -0.038(3) 0.221(4)
loop_
_geom_bond_atom_site_label_1
_geom_bond_atom_site_label_2
_geom_bond_site_symmetry_1
_geom_bond_site_symmetry_2
N1 C1 1_555 1_555
C1 C2 1_555 1_555
C2 C3 1_555 1_555
C3 N2 1_555 1_555
N2 C7 1_555 1_555
C4 C3 1_555 1_555
C5 C1 1_555 1_555
C6 C2 1_555 1_555
C7 C8 1_555 1_555
C8 C22 1_555 1_555
C9 N1 1_555 1_555
C10 C9 1_555 1_555
C11 C5 1_555 1_555
H1 C11 1_555 1_555
C12 C4 1_555 1_555
H2 C12 1_555 1_555
C13 H3 1_555 1_555
C14 C5 1_555 1_555
H4 C14 1_555 1_555
C15 C7 1_555 1_555
C16 C6 1_555 1_555
H5 C16 1_555 1_555
C17 C10 1_555 1_555
H6 C17 1_555 1_555
C18 C4 1_555 1_555
H7 C18 1_555 1_555
C19 C6 1_555 1_555
H8 C19 1_555 1_555
C20 C13 1_555 1_555
H9 C20 1_555 1_555
C21 C10 1_555 1_555
H10 C21 1_555 1_555
C22 C13 1_555 1_555
H11 C22 1_555 1_555
C23 C11 1_555 1_555
H12 C23 1_555 1_555
C24 C9 1_555 1_555
C25 H13 1_555 1_555
C26 C12 1_555 1_555
H14 C26 1_555 1_555
C27 C8 1_555 1_555
H15 C27 1_555 1_555
C28 C15 1_555 1_555
H16 C28 1_555 1_555
C29 C23 1_555 1_555
H17 C29 1_555 1_555
C30 C17 1_555 1_555
H18 C30 1_555 1_555
C31 C14 1_555 1_555
H19 C31 1_555 1_555
C32 C24 1_555 1_555
H20 C32 1_555 1_555
C33 C19 1_555 1_555
H21 C33 1_555 1_555
C34 C18 1_555 1_555
H22 C34 1_555 1_555
C35 C16 1_555 1_555
H23 C35 1_555 1_555
C36 C27 1_555 1_555
H24 C36 1_555 1_555
H25 C36 1_555 1_555
H26 C36 1_555 1_555
C37 C24 1_555 1_555
H27 C37 1_555 1_555
C38 C21 1_555 1_555
H28 C38 1_555 1_555
H29 C38 1_555 1_555
H30 C38 1_555 1_555
C39 C27 1_555 1_555
H31 C39 1_555 1_555
H32 C39 1_555 1_555
H33 C39 1_555 1_555
C40 C33 1_555 1_555
H34 C40 1_555 1_555
C41 C21 1_555 1_555
H35 C41 1_555 1_555
H36 C41 1_555 1_555
H37 C41 1_555 1_555
C42 C28 1_555 1_555
H38 C42 1_555 1_555
H39 C42 1_555 1_555
H40 C42 1_555 1_555
C43 C37 1_555 1_555
H41 C43 1_555 1_555
H42 C43 1_555 1_555
H43 C43 1_555 1_555
C44 C37 1_555 1_555
H44 C44 1_555 1_555
H45 C44 1_555 1_555
H46 C44 1_555 1_555
C45 C28 1_555 1_555
H47 C45 1_555 1_555
H48 C45 1_555 1_555
H49 C45 1_555 1_555
H50 N2 1_555 1_555
C15 C20 1_555 1_555
C25 C26 1_555 1_555
C25 C34 1_555 1_555
C29 C31 1_555 1_555
C30 C32 1_555 1_555
C35 C40 1_555 1_555

#END
