
#######################################################################
#
#                 Cambridge Crystallographic Data Centre
#                                CCDC 
#
#######################################################################
#
# If this CIF has been generated from an entry in the Cambridge 
# Structural Database, then it will include bibliographic, chemical, 
# crystal, experimental, refinement or atomic coordinate data resulting 
# from the CCDC's data processing and validation procedures.
#
#######################################################################

data_ZEFFEX05
_chemical_name_common            'bis(N,N-Dimethylurea) oxalic acid'
_chemical_formula_moiety         '2(C3 H8 N2 O1),C2 H2 O4'
_chemical_name_systematic        'bis(N,N-Dimethylurea) ethanedioic acid'
_symmetry_cell_setting           monoclinic
_symmetry_space_group_name_H-M   'P 21/c'
_symmetry_Int_Tables_number      14
_space_group_name_Hall           '-P 2ybc'
loop_
_symmetry_equiv_pos_site_id
_symmetry_equiv_pos_as_xyz
1 x,y,z
2 -x,1/2+y,1/2-z
3 -x,-y,-z
4 x,1/2-y,1/2+z
_cell_length_a                   7.820(5)
_cell_length_b                   6.450(5)
_cell_length_c                   13.710(5)
_cell_angle_alpha                90
_cell_angle_beta                 111.660(10)
_cell_angle_gamma                90
_cell_volume                     642.691
_exptl_crystal_colour            colorless
_exptl_crystal_description       prism
_cell_formula_units_Z            2
loop_
_atom_site_label
_atom_site_type_symbol
_atom_site_fract_x
_atom_site_fract_y
_atom_site_fract_z
O1 O 0.5005(4) 0.2553(3) 0.3802(3)
N1 N 0.3479(2) 0.5559(2) 0.34035(16)
N2 N 0.6666(2) 0.5536(2) 0.41242(17)
C1 C 0.5074(3) 0.4527(3) 0.3784(2)
C2 C 0.3414(4) 0.7808(4) 0.3356(3)
H1 H 0.388(2) 0.8479(12) 0.4076(9)
H2 H 0.2162(13) 0.8302(14) 0.2932(12)
H3 H 0.4315(16) 0.8417(11) 0.3031(7)
C3 C 0.1733(4) 0.4430(5) 0.3047(4)
H4 H 0.1051(19) 0.461(3) 0.2340(10)
H5 H 0.0938(17) 0.490(2) 0.3414(14)
H6 H 0.1883(12) 0.3018(17) 0.3182(18)
H7 H 0.7846(7) 0.4710(7) 0.4432(6)
H8 H 0.6790(7) 0.7106(8) 0.4165(5)
O2 O 0.7603(4) 0.0161(4) 0.4379(3)
O3 O 0.9679(4) 0.2641(4) 0.5002(4)
C4 C 0.9248(3) 0.0849(3) 0.4825(2)
H9 H 0.6432(7) 0.1483(8) 0.4100(5)
O2B O 1.2397(4) -0.0161(4) 0.5621(3)
O3B O 1.0321(4) -0.2641(4) 0.4998(4)
C4B C 1.0752(3) -0.0849(3) 0.5175(2)
H9B H 1.3568(7) -0.1483(8) 0.5900(5)
loop_
_geom_bond_atom_site_label_1
_geom_bond_atom_site_label_2
_geom_bond_site_symmetry_1
_geom_bond_site_symmetry_2
O1 C1 1_555 1_555
O2 C4 1_555 1_555
O3 C4 1_555 1_555
N1 C1 1_555 1_555
N2 C1 1_555 1_555
C2 N1 1_555 1_555
H1 C2 1_555 1_555
H2 C2 1_555 1_555
H3 C2 1_555 1_555
C3 N1 1_555 1_555
H4 C3 1_555 1_555
H5 C3 1_555 1_555
H6 C3 1_555 1_555
C4 C4B 1_555 1_555
H7 N2 1_555 1_555
H8 N2 1_555 1_555
H9 O2 1_555 1_555
O2B C4B 1_555 1_555
O3B C4B 1_555 1_555
H9B O2B 1_555 1_555

#END
