
#######################################################################
#
#                 Cambridge Crystallographic Data Centre
#                                CCDC 
#
#######################################################################
#
# If this CIF has been generated from an entry in the Cambridge 
# Structural Database, then it will include bibliographic, chemical, 
# crystal, experimental, refinement or atomic coordinate data resulting 
# from the CCDC's data processing and validation procedures.
#
#######################################################################

data_ZEFFEX06
_chemical_name_common            'bis(N,N-Dimethylurea) oxalic acid'
_chemical_formula_moiety         '2(C3 H8 N2 O1),C2 H2 O4'
_chemical_name_systematic        'bis(N,N-Dimethylurea) ethanedioic acid'
_symmetry_cell_setting           monoclinic
_symmetry_space_group_name_H-M   'P 21/c'
_symmetry_Int_Tables_number      14
_space_group_name_Hall           '-P 2ybc'
loop_
_symmetry_equiv_pos_site_id
_symmetry_equiv_pos_as_xyz
1 x,y,z
2 -x,1/2+y,1/2-z
3 -x,-y,-z
4 x,1/2-y,1/2+z
_cell_length_a                   7.840(5)
_cell_length_b                   6.460(5)
_cell_length_c                   13.770(5)
_cell_angle_alpha                90
_cell_angle_beta                 111.940(10)
_cell_angle_gamma                90
_cell_volume                     646.892
_exptl_crystal_colour            colorless
_exptl_crystal_description       prism
_cell_formula_units_Z            2
loop_
_atom_site_label
_atom_site_type_symbol
_atom_site_fract_x
_atom_site_fract_y
_atom_site_fract_z
O1 O 0.5016(4) 0.2552(4) 0.3797(3)
N1 N 0.3481(2) 0.5553(3) 0.34011(17)
N2 N 0.6665(3) 0.5539(3) 0.41206(18)
C1 C 0.5073(3) 0.4521(3) 0.3778(2)
C2 C 0.3406(4) 0.7803(5) 0.3360(4)
H1 H 0.390(3) 0.8464(14) 0.4056(10)
H2 H 0.2161(17) 0.8274(15) 0.2935(15)
H3 H 0.4301(18) 0.8432(13) 0.3023(9)
C3 C 0.1744(4) 0.4423(6) 0.3038(4)
H4 H 0.110(2) 0.460(3) 0.2330(10)
H5 H 0.0966(16) 0.490(2) 0.3432(14)
H6 H 0.1899(14) 0.301(2) 0.3220(19)
H7 H 0.7851(7) 0.4710(8) 0.4437(6)
H8 H 0.6791(8) 0.7058(9) 0.4167(5)
O2 O 0.7604(5) 0.0173(4) 0.4384(4)
O3 O 0.9674(5) 0.2637(5) 0.4994(4)
C4 C 0.9247(3) 0.0849(3) 0.4821(2)
H9 H 0.6454(8) 0.1475(8) 0.4110(5)
O2B O 1.2396(5) -0.0173(4) 0.5616(4)
O3B O 1.0326(5) -0.2637(5) 0.5006(4)
C4B C 1.0753(3) -0.0849(3) 0.5179(2)
H9B H 1.3546(8) -0.1475(8) 0.5890(5)
loop_
_geom_bond_atom_site_label_1
_geom_bond_atom_site_label_2
_geom_bond_site_symmetry_1
_geom_bond_site_symmetry_2
O1 C1 1_555 1_555
O2 C4 1_555 1_555
O3 C4 1_555 1_555
N1 C1 1_555 1_555
N2 C1 1_555 1_555
C2 N1 1_555 1_555
H1 C2 1_555 1_555
H2 C2 1_555 1_555
H3 C2 1_555 1_555
C3 N1 1_555 1_555
H4 C3 1_555 1_555
H5 C3 1_555 1_555
H6 C3 1_555 1_555
C4 C4B 1_555 1_555
H7 N2 1_555 1_555
H8 N2 1_555 1_555
H9 O2 1_555 1_555
O2B C4B 1_555 1_555
O3B C4B 1_555 1_555
H9B O2B 1_555 1_555

#END
