
#######################################################################
#
#                 Cambridge Crystallographic Data Centre
#                                CCDC 
#
#######################################################################
#
# If this CIF has been generated from an entry in the Cambridge 
# Structural Database, then it will include bibliographic, chemical, 
# crystal, experimental, refinement or atomic coordinate data resulting 
# from the CCDC's data processing and validation procedures.
#
#######################################################################

data_ZEFFEX03
_chemical_name_common            'bis(N,N-Dimethylurea) oxalic acid'
_chemical_formula_moiety         '2(C3 H8 N2 O1),C2 H2 O4'
_chemical_name_systematic        'bis(N,N-Dimethylurea) ethanedioic acid'
_symmetry_cell_setting           monoclinic
_symmetry_space_group_name_H-M   'P 21/c'
_symmetry_Int_Tables_number      14
_space_group_name_Hall           '-P 2ybc'
loop_
_symmetry_equiv_pos_site_id
_symmetry_equiv_pos_as_xyz
1 x,y,z
2 -x,1/2+y,1/2-z
3 -x,-y,-z
4 x,1/2-y,1/2+z
_cell_length_a                   7.7944(3)
_cell_length_b                   6.4482(2)
_cell_length_c                   13.6550(6)
_cell_angle_alpha                90
_cell_angle_beta                 111.407(2)
_cell_angle_gamma                90
_cell_volume                     638.951
_exptl_crystal_colour            colorless
_exptl_crystal_description       prism
_cell_formula_units_Z            2
loop_
_atom_site_label
_atom_site_type_symbol
_atom_site_fract_x
_atom_site_fract_y
_atom_site_fract_z
O1 O 0.50024(15) 0.25490(16) 0.38036(10)
N1 N 0.34790(17) 0.5565(2) 0.34028(11)
N2 N 0.66655(18) 0.5534(2) 0.41207(11)
C1 C 0.50642(19) 0.4529(2) 0.37828(11)
C2 C 0.3420(2) 0.7816(3) 0.33504(15)
H1 H 0.3848 0.8376 0.4050
H2 H 0.2177 0.8263 0.2976
H3 H 0.4196 0.8297 0.2990
C3 C 0.1733(2) 0.4440(3) 0.30555(16)
H4 H 0.1334 0.4182 0.2313
H5 H 0.0822 0.5254 0.3200
H6 H 0.1895 0.3144 0.3424
H7 H 0.762(3) 0.478(3) 0.4341(15)
H8 H 0.671(3) 0.690(3) 0.4130(15)
O2 O 0.76059(14) 0.01660(17) 0.43701(10)
O3 O 0.96725(18) 0.26492(18) 0.50109(16)
C4 C 0.92448(19) 0.0853(2) 0.48278(13)
H9 H 0.642(4) 0.143(4) 0.413(2)
O2B O 1.23941(14) -0.01660(17) 0.56299(10)
O3B O 1.03275(18) -0.26492(18) 0.49891(16)
C4B C 1.07552(19) -0.0853(2) 0.51722(13)
H9B H 1.358(4) -0.143(4) 0.587(2)
loop_
_geom_bond_atom_site_label_1
_geom_bond_atom_site_label_2
_geom_bond_site_symmetry_1
_geom_bond_site_symmetry_2
O1 C1 1_555 1_555
O2 C4 1_555 1_555
O3 C4 1_555 1_555
N1 C1 1_555 1_555
N2 C1 1_555 1_555
C2 N1 1_555 1_555
H1 C2 1_555 1_555
H2 C2 1_555 1_555
H3 C2 1_555 1_555
C3 N1 1_555 1_555
H4 C3 1_555 1_555
H5 C3 1_555 1_555
H6 C3 1_555 1_555
C4 C4B 1_555 1_555
H7 N2 1_555 1_555
H8 N2 1_555 1_555
H9 O2 1_555 1_555
O2B C4B 1_555 1_555
O3B C4B 1_555 1_555
H9B O2B 1_555 1_555

#END
