
#######################################################################
#
#                 Cambridge Crystallographic Data Centre
#                                CCDC 
#
#######################################################################
#
# If this CIF has been generated from an entry in the Cambridge 
# Structural Database, then it will include bibliographic, chemical, 
# crystal, experimental, refinement or atomic coordinate data resulting 
# from the CCDC's data processing and validation procedures.
#
#######################################################################

data_ZEFGAV
_chemical_formula_moiety         'C24 H21 N1 O3'
_chemical_name_systematic        
'Ethyl trans-1-benzoyl-2-phenylindoline-3-carboxylate'
_symmetry_cell_setting           monoclinic
_symmetry_space_group_name_H-M   'P 21/c'
_symmetry_Int_Tables_number      14
_space_group_name_Hall           '-P 2ybc'
loop_
_symmetry_equiv_pos_site_id
_symmetry_equiv_pos_as_xyz
1 x,y,z
2 -x,1/2+y,1/2-z
3 -x,-y,-z
4 x,1/2-y,1/2+z
_cell_length_a                   17.0796(14)
_cell_length_b                   13.6704(8)
_cell_length_c                   18.9052(13)
_cell_angle_alpha                90
_cell_angle_beta                 116.272(9)
_cell_angle_gamma                90
_cell_volume                     3958.12
_exptl_crystal_colour            colorless
_exptl_crystal_description       block
_cell_formula_units_Z            8
_exptl_crystal_recrystallization_method dichloromethane/n-hexane
loop_
_atom_site_label
_atom_site_type_symbol
_atom_site_fract_x
_atom_site_fract_y
_atom_site_fract_z
C1 C 0.77316(11) 0.73146(12) 0.51346(9)
H1 H 0.7231 0.7441 0.5261
C2 C 0.84901(11) 0.68268(13) 0.58516(9)
H2 H 0.8536 0.6116 0.5751
C3 C 0.92906(11) 0.73806(13) 0.59196(10)
C4 C 1.01663(12) 0.71768(16) 0.63840(12)
H3 H 1.0339 0.6606 0.6704
C5 C 1.07886(13) 0.78281(18) 0.63717(13)
H4 H 1.1392 0.7692 0.6676
C6 C 1.05367(13) 0.86708(17) 0.59211(12)
H5 H 1.0971 0.9110 0.5927
C7 C 0.96546(12) 0.88888(14) 0.54561(11)
H6 H 0.9482 0.9470 0.5150
C8 C 0.90381(11) 0.82223(13) 0.54583(9)
C9 C 0.76365(11) 0.89272(12) 0.44698(10)
C10 C 0.66619(12) 0.88507(13) 0.41436(11)
C11 C 0.62491(15) 0.89568(17) 0.46275(15)
H7 H 0.6582 0.9053 0.5179
C12 C 0.53358(18) 0.8921(2) 0.4295(2)
H8 H 0.5046 0.9005 0.4619
C13 C 0.48582(17) 0.8763(2) 0.3494(2)
H9 H 0.4239 0.8736 0.3272
C14 C 0.52665(17) 0.8646(2) 0.30175(18)
H10 H 0.4932 0.8527 0.2469
C15 C 0.61638(14) 0.87000(16) 0.33356(13)
H11 H 0.6445 0.8634 0.3003
C16 C 0.74249(11) 0.67083(12) 0.43886(9)
C17 C 0.67090(13) 0.60888(14) 0.41811(12)
H12 H 0.6410 0.6062 0.4502
C18 C 0.64291(15) 0.55122(16) 0.35121(14)
H13 H 0.5950 0.5080 0.3383
C19 C 0.68452(14) 0.55637(16) 0.30302(12)
H14 H 0.6651 0.5168 0.2571
C20 C 0.75416(14) 0.61900(16) 0.32175(12)
H15 H 0.7819 0.6237 0.2880
C21 C 0.78383(12) 0.67528(14) 0.39008(11)
H16 H 0.8328 0.7171 0.4035
C22 C 0.83943(13) 0.69751(17) 0.66057(11)
C23 C 0.8804(3) 0.6346(3) 0.78945(17)
H17 H 0.8381 0.6852 0.7878
H18 H 0.8621 0.5712 0.8027
C24 C 0.9629(3) 0.6585(5) 0.8462(2)
H19 H 1.0045 0.6082 0.8477
H20 H 0.9625 0.6624 0.8979
H21 H 0.9802 0.7219 0.8334
N1 N 0.81116(9) 0.82647(10) 0.50462(8)
O1 O 0.79783(9) 0.95571(10) 0.42392(8)
O2 O 0.88076(15) 0.62779(16) 0.71213(9)
O3 O 0.80273(12) 0.76535(16) 0.67287(10)
C25 C 0.71788(11) 0.22668(12) 0.48472(10)
H22 H 0.7677 0.2385 0.4716
C26 C 0.64413(11) 0.17140(13) 0.41630(9)
H23 H 0.6440 0.1007 0.4299
C27 C 0.56225(12) 0.22180(14) 0.41003(10)
C28 C 0.47603(13) 0.19355(19) 0.36864(12)
H24 H 0.4612 0.1337 0.3401
C29 C 0.41105(14) 0.2550(2) 0.36971(14)
H25 H 0.3514 0.2366 0.3423
C30 C 0.43346(15) 0.3423(2) 0.41052(14)
H26 H 0.3884 0.3834 0.4102
C31 C 0.51990(14) 0.37217(17) 0.45214(12)
H27 H 0.5345 0.4326 0.4798
C32 C 0.58424(12) 0.30960(14) 0.45147(10)
C33 C 0.72189(13) 0.39865(13) 0.53295(10)
C34 C 0.81789(13) 0.40101(13) 0.55782(12)
C35 C 0.85089(16) 0.40057(16) 0.50238(15)
H28 H 0.8124 0.3933 0.4479
C36 C 0.93948(19) 0.4106(2) 0.52643(19)
H29 H 0.9619 0.4109 0.4885
C37 C 0.99528(19) 0.4203(3) 0.6052(2)
H30 H 1.0562 0.4269 0.6216
C38 C 0.96339(19) 0.4205(2) 0.66057(19)
H31 H 1.0025 0.4272 0.7149
C39 C 0.87452(16) 0.41106(18) 0.63741(14)
H32 H 0.8526 0.4114 0.6756
C40 C 0.74976(11) 0.17099(12) 0.56214(10)
C41 C 0.80577(14) 0.09200(15) 0.57391(12)
H33 H 0.8242 0.0761 0.5347
C42 C 0.83488(16) 0.03651(17) 0.64203(13)
H34 H 0.8721 -0.0180 0.6489
C43 C 0.80970(14) 0.06048(16) 0.70020(12)
H35 H 0.8301 0.0229 0.7473
C44 C 0.75498(13) 0.13891(15) 0.68965(11)
H36 H 0.7381 0.1557 0.7297
C45 C 0.72436(12) 0.19367(14) 0.62051(10)
H37 H 0.6858 0.2469 0.6132
C46 C 0.65141(12) 0.18246(14) 0.33929(10)
C47 C 0.60989(19) 0.1087(2) 0.21350(13)
H38 H 0.5598 0.0713 0.1743
H39 H 0.6078 0.1755 0.1926
C48 C 0.6917(2) 0.0611(2) 0.22545(17)
H40 H 0.7411 0.1034 0.2575
H41 H 0.6915 0.0494 0.1742
H42 H 0.6974 -0.0015 0.2527
N2 N 0.67656(9) 0.32134(10) 0.48776(8)
O4 O 0.68572(10) 0.46528(10) 0.55089(8)
O5 O 0.60329(10) 0.11376(12) 0.28814(8)
O6 O 0.69312(11) 0.24450(12) 0.32622(8)
loop_
_geom_bond_atom_site_label_1
_geom_bond_atom_site_label_2
_geom_bond_site_symmetry_1
_geom_bond_site_symmetry_2
C1 H1 1_555 1_555
C2 C1 1_555 1_555
H2 C2 1_555 1_555
C3 C2 1_555 1_555
C4 C3 1_555 1_555
H3 C4 1_555 1_555
C5 C4 1_555 1_555
H4 C5 1_555 1_555
C6 C5 1_555 1_555
H5 C6 1_555 1_555
C7 C6 1_555 1_555
H6 C7 1_555 1_555
C8 C3 1_555 1_555
C9 C10 1_555 1_555
C10 C11 1_555 1_555
C11 H7 1_555 1_555
C12 C11 1_555 1_555
H8 C12 1_555 1_555
C13 C12 1_555 1_555
H9 C13 1_555 1_555
C14 C13 1_555 1_555
H10 C14 1_555 1_555
C15 C10 1_555 1_555
H11 C15 1_555 1_555
C16 C1 1_555 1_555
C17 C16 1_555 1_555
H12 C17 1_555 1_555
C18 C17 1_555 1_555
H13 C18 1_555 1_555
C19 C18 1_555 1_555
H14 C19 1_555 1_555
C20 C19 1_555 1_555
H15 C20 1_555 1_555
C21 C16 1_555 1_555
H16 C21 1_555 1_555
C22 C2 1_555 1_555
C23 H17 1_555 1_555
H18 C23 1_555 1_555
C24 C23 1_555 1_555
H19 C24 1_555 1_555
H20 C24 1_555 1_555
H21 C24 1_555 1_555
N1 C1 1_555 1_555
O1 C9 1_555 1_555
O2 C22 1_555 1_555
O3 C22 1_555 1_555
C25 H22 1_555 1_555
C26 C25 1_555 1_555
H23 C26 1_555 1_555
C27 C26 1_555 1_555
C28 C27 1_555 1_555
H24 C28 1_555 1_555
C29 C28 1_555 1_555
H25 C29 1_555 1_555
C30 C29 1_555 1_555
H26 C30 1_555 1_555
C31 C30 1_555 1_555
H27 C31 1_555 1_555
C32 C27 1_555 1_555
C33 C34 1_555 1_555
C34 C35 1_555 1_555
C35 H28 1_555 1_555
C36 C35 1_555 1_555
H29 C36 1_555 1_555
C37 C36 1_555 1_555
H30 C37 1_555 1_555
C38 C37 1_555 1_555
H31 C38 1_555 1_555
C39 C34 1_555 1_555
H32 C39 1_555 1_555
C40 C25 1_555 1_555
C41 C40 1_555 1_555
H33 C41 1_555 1_555
C42 C41 1_555 1_555
H34 C42 1_555 1_555
C43 C42 1_555 1_555
H35 C43 1_555 1_555
C44 C43 1_555 1_555
H36 C44 1_555 1_555
C45 C40 1_555 1_555
H37 C45 1_555 1_555
C46 C26 1_555 1_555
C47 H38 1_555 1_555
H39 C47 1_555 1_555
C48 C47 1_555 1_555
H40 C48 1_555 1_555
H41 C48 1_555 1_555
H42 C48 1_555 1_555
N2 C25 1_555 1_555
O4 C33 1_555 1_555
O5 C46 1_555 1_555
O6 C46 1_555 1_555
C7 C8 1_555 1_555
C8 N1 1_555 1_555
C9 N1 1_555 1_555
C14 C15 1_555 1_555
C20 C21 1_555 1_555
C23 O2 1_555 1_555
C31 C32 1_555 1_555
C32 N2 1_555 1_555
C33 N2 1_555 1_555
C38 C39 1_555 1_555
C44 C45 1_555 1_555
C47 O5 1_555 1_555

#END
