
#######################################################################
#
#                 Cambridge Crystallographic Data Centre
#                                CCDC 
#
#######################################################################
#
# If this CIF has been generated from an entry in the Cambridge 
# Structural Database, then it will include bibliographic, chemical, 
# crystal, experimental, refinement or atomic coordinate data resulting 
# from the CCDC's data processing and validation procedures.
#
#######################################################################

data_ZEFMII
_chemical_formula_moiety         'C43 H51 N3 O11,0.5(H2 O1)'
_chemical_name_systematic        'Rifaximin alpha hemihydrate'
_chemical_properties_biological  
'broad spectrum locally acting antibiotic against Gram-positive and Gram-negative, aerobic and anaerobic organisms'
_symmetry_cell_setting           monoclinic
_symmetry_space_group_name_H-M   'P 21'
_symmetry_Int_Tables_number      4
_space_group_name_Hall           'P 2yb'
loop_
_symmetry_equiv_pos_site_id
_symmetry_equiv_pos_as_xyz
1 x,y,z
2 -x,1/2+y,-z
_cell_length_a                   14.401(4)
_cell_length_b                   19.662(4)
_cell_length_c                   16.153(4)
_cell_angle_alpha                90
_cell_angle_beta                 111.05(3)
_cell_angle_gamma                90
_cell_volume                     4268.54
_cell_formula_units_Z            4
loop_
_atom_site_label
_atom_site_type_symbol
_atom_site_fract_x
_atom_site_fract_y
_atom_site_fract_z
C1 C -0.7814(15) -0.3746(12) -0.1159(11)
C2 C -0.8771(12) -0.3978(10) -0.1516(10)
C3 C -0.9583(12) -0.3644(10) -0.1429(9)
C4 C -0.9287(13) -0.3072(11) -0.0888(12)
C5 C -0.8342(17) -0.2795(15) -0.0567(16)
C6 C -0.7482(11) -0.3165(10) -0.0690(10)
C7 C -0.6546(15) -0.3027(13) -0.0314(13)
C8 C -0.5771(11) -0.3344(10) -0.0326(10)
C9 C -0.5971(17) -0.4006(15) -0.0906(16)
C10 C -0.6982(13) -0.4142(11) -0.1308(12)
C11 C -1.2021(13) -0.4290(12) 0.0608(13)
H1 H -1.2318 -0.4610 0.0907
C12 C -1.0439(12) -0.4176(12) 0.1990(11)
H2 H -1.0549 -0.3686 0.2017
C13 C -1.0850(15) -0.2514(13) -0.0765(14)
H3 H -1.1250 -0.2880 -0.1040
C14 C -1.127(2) -0.1874(16) -0.0443(16)
H4 H -1.1925 -0.1787 -0.0498
C15 C -1.0582(17) -0.1536(15) -0.0124(16)
C16 C -0.9658(14) -0.1482(12) 0.0089(13)
H5 H -0.9279 -0.1124 0.0414
C17 C -0.9264(14) -0.2056(12) -0.0240(12)
C18 C -0.6013(15) -0.2428(12) 0.0353(12)
C19 C -0.4890(17) -0.2517(14) 0.0571(14)
C20 C -1.1336(12) -0.3750(11) -0.2230(10)
C21 C -1.2271(13) -0.4139(12) -0.2541(12)
C22 C -1.2527(15) -0.4395(13) -0.1915(14)
H6 H -1.3057 -0.4698 -0.2100
C23 C -1.2405(14) -0.4467(12) -0.0336(13)
H7 H -1.2946 -0.4762 -0.0508
C24 C -1.0916(14) -0.4389(13) 0.1001(13)
H8 H -1.0613 -0.4113 0.0660
C25 C -0.9315(15) -0.4291(14) 0.2384(15)
H9 H -0.9049 -0.4110 0.2990
C26 C -0.8699(14) -0.3999(13) 0.1831(14)
H10 H -0.8938 -0.4220 0.1248
C27 C -0.7562(15) -0.4163(14) 0.2287(14)
H11 H -0.7480 -0.4646 0.2445
C28 C -0.6962(14) -0.3996(13) 0.1755(13)
H12 H -0.7159 -0.3537 0.1523
C29 C -0.5851(15) -0.3968(14) 0.2290(15)
H13 H -0.5777 -0.3663 0.2789
C30 C -0.5246(15) -0.3630(14) 0.1762(15)
H14 H -0.5149 -0.3857 0.1295
C31 C -0.4880(15) -0.3018(14) 0.1998(15)
H15 H -0.4939 -0.2815 0.2497
C32 C -0.5219(15) -0.4412(13) -0.0917(14)
H16 H -0.4594 -0.4196 -0.0598
H17 H -0.5273 -0.4490 -0.1519
H18 H -0.5254 -0.4839 -0.0641
C33 C -1.115(2) -0.0821(19) 0.011(2)
H19 H -1.0663 -0.0477 0.0366
H20 H -1.1475 -0.0940 0.0515
H21 H -1.1640 -0.0652 -0.0433
C34 C -0.4345(16) -0.2037(15) 0.0347(16)
H22 H -0.4653 -0.1931 -0.0272
H23 H -0.3685 -0.2207 0.0463
H24 H -0.4311 -0.1634 0.0692
C35 C -1.2754(19) -0.4222(17) -0.3466(17)
H25 H -1.2445 -0.3934 -0.3772
H26 H -1.3443 -0.4102 -0.3633
H27 H -1.2701 -0.4688 -0.3623
C36 C -1.2362(17) -0.3594(14) 0.0741(16)
H28 H -1.3074 -0.3571 0.0476
H29 H -1.2072 -0.3264 0.0468
H30 H -1.2158 -0.3501 0.1364
C37 C -1.0934(14) -0.4531(13) 0.2600(13)
H31 H -1.0603 -0.4386 0.3203
H32 H -1.0876 -0.5015 0.2563
H33 H -1.1624 -0.4407 0.2407
C38 C -0.8895(13) -0.3197(11) 0.1680(12)
H34 H -0.9595 -0.3116 0.1392
H35 H -0.8547 -0.3026 0.1316
H36 H -0.8660 -0.2968 0.2243
C39 C -0.6941(13) -0.4045(13) 0.3935(12)
C40 C -0.6467(19) -0.3564(16) 0.4641(17)
H37 H -0.6529 -0.3114 0.4399
H38 H -0.5776 -0.3678 0.4919
H39 H -0.6784 -0.3584 0.5072
C41 C -0.7202(15) -0.4444(13) 0.0988(13)
H40 H -0.6782 -0.4337 0.0660
H41 H -0.7886 -0.4382 0.0614
H42 H -0.7097 -0.4908 0.1183
C42 C -0.4544(6) -0.4635(6) 0.3287(6)
H43 H -0.4391 -0.5092 0.3502
H44 H -0.4468 -0.4336 0.3776
H45 H -0.4100 -0.4499 0.2995
N1 N -0.9880(6) -0.2498(6) -0.0616(6)
N2 N -0.8314(6) -0.2151(6) -0.0112(6)
N3 N -1.0473(6) -0.3921(6) -0.1730(6)
H46 H -1.0464 -0.4328 -0.1533
O1 O -0.4878(9) -0.3218(8) 0.0079(9)
O2 O -0.7225(10) -0.4701(9) -0.1771(9)
O3 O -0.8998(10) -0.4529(9) -0.1997(9)
H47 H -0.8497 -0.4681 -0.2059
O4 O -0.6286(10) -0.1937(10) 0.0638(10)
O5 O -1.1385(10) -0.3119(8) -0.2627(9)
O6 O -1.0708(10) -0.5100(8) 0.0888(9)
H48 H -1.0106 -0.5166 0.1099
O7 O -0.9090(10) -0.5016(9) 0.2395(9)
H49 H -0.9609 -0.5231 0.2182
O8 O -0.7241(9) -0.3740(8) 0.3126(9)
O9 O -0.5576(10) -0.4604(9) 0.2657(9)
O10 O -0.4415(10) -0.2677(9) 0.1524(9)
O11 O -0.7096(13) -0.4647(12) 0.3938(12)
C43 C -1.2107(16) -0.4275(14) -0.0974(14)
H50 H -1.1527 -0.4017 -0.0789
C44 C -1.0369(12) -0.3458(10) -0.3977(9)
H51 H -1.0843 -0.3192 -0.3862
C45 C -0.8992(12) -0.4249(9) -0.4241(9)
H52 H -0.8512 -0.4519 -0.4341
C46 C -0.8735(13) -0.3619(9) -0.3744(9)
C47 C -0.9942(13) -0.4419(11) -0.4544(11)
C48 C -1.0662(13) -0.4066(11) -0.4519(11)
H53 H -1.1323 -0.4184 -0.4822
C49 C -0.7970(13) -0.2731(11) -0.2951(11)
C50 C -0.8953(13) -0.2698(11) -0.3153(11)
C51 C -0.9380(15) -0.2098(13) -0.2768(12)
C52 C -0.8604(14) -0.1704(12) -0.2314(12)
C53 C -0.7596(12) -0.1745(10) -0.2133(10)
C54 C -0.7258(11) -0.2301(10) -0.2491(10)
C55 C -0.6306(14) -0.2321(12) -0.2334(12)
C56 C -0.5583(16) -0.1823(14) -0.1928(14)
C57 C -0.5896(13) -0.1213(10) -0.1589(10)
C58 C -0.6912(13) -0.1175(11) -0.1714(11)
C59 C -0.5671(14) -0.2798(12) -0.2678(11)
C60 C -0.4547(15) -0.2507(13) -0.2310(13)
C61 C -1.0926(14) -0.1465(12) -0.3355(13)
C62 C -1.1984(15) -0.1531(14) -0.3566(15)
C63 C -1.2544(13) -0.1749(11) -0.4319(11)
H54 H -1.3202 -0.1848 -0.4399
C64 C -1.2229(17) -0.1850(15) -0.5044(15)
H55 H -1.1566 -0.1749 -0.4938
C65 C -1.2756(17) -0.2073(14) -0.5861(15)
H56 H -1.3434 -0.2145 -0.6005
C66 C -1.2314(16) -0.2214(14) -0.6571(15)
H57 H -1.2796 -0.2048 -0.7133
C67 C -1.1339(14) -0.1888(13) -0.6462(14)
H58 H -1.0881 -0.2022 -0.5872
C68 C -1.0816(14) -0.2075(14) -0.7112(13)
H59 H -1.0722 -0.2569 -0.7091
C69 C -0.9833(13) -0.1755(12) -0.6875(12)
H60 H -0.9546 -0.1920 -0.7303
C70 C -0.9055(14) -0.1866(12) -0.5965(13)
H61 H -0.9297 -0.1672 -0.5521
C71 C -0.8042(13) -0.1576(13) -0.5823(13)
H62 H -0.8127 -0.1103 -0.6026
C72 C -0.7228(15) -0.1599(14) -0.4921(14)
H63 H -0.7230 -0.2068 -0.4717
C73 C -0.6207(14) -0.1466(13) -0.4812(13)
H64 H -0.6065 -0.1737 -0.5261
C74 C -0.5418(14) -0.1655(12) -0.3918(13)
H65 H -0.5338 -0.1381 -0.3428
C75 C -0.4864(16) -0.2180(14) -0.3826(16)
H66 H -0.4880 -0.2386 -0.4349
C76 C -0.5199(13) -0.0671(11) -0.1186(12)
H67 H -0.4557 -0.0787 -0.1199
H68 H -0.5151 -0.0611 -0.0582
H69 H -0.5427 -0.0257 -0.1509
C77 C -1.0286(15) -0.5131(12) -0.5087(14)
H70 H -0.9708 -0.5387 -0.5059
H71 H -1.0679 -0.5034 -0.5695
H72 H -1.0674 -0.5391 -0.4825
C78 C -0.3862(11) -0.2982(10) -0.1634(11)
H73 H -0.4068 -0.3014 -0.1132
H74 H -0.3194 -0.2811 -0.1445
H75 H -0.3888 -0.3424 -0.1893
C79 C -1.2268(16) -0.1374(15) -0.2747(15)
H76 H -1.1682 -0.1244 -0.2258
H77 H -1.2554 -0.1772 -0.2590
H78 H -1.2742 -0.1010 -0.2885
C80 C -1.2238(15) -0.3018(13) -0.6669(13)
H79 H -1.2866 -0.3223 -0.6738
H80 H -1.1733 -0.3197 -0.6148
H81 H -1.2070 -0.3117 -0.7180
C81 C -1.1484(14) -0.1874(13) -0.8101(12)
H82 H -1.1144 -0.1994 -0.8493
H83 H -1.1606 -0.1393 -0.8133
H84 H -1.2106 -0.2113 -0.8272
C82 C -0.8955(15) -0.2720(12) -0.5821(14)
H85 H -0.9602 -0.2910 -0.5929
H86 H -0.8527 -0.2820 -0.5224
H87 H -0.8680 -0.2913 -0.6229
C83 C -0.7364(17) -0.1660(16) -0.7022(16)
C84 C -0.6833(18) -0.2064(16) -0.7464(18)
H88 H -0.6804 -0.2529 -0.7273
H89 H -0.6170 -0.1890 -0.7315
H90 H -0.7175 -0.2040 -0.8094
C85 C -0.7501(14) -0.1140(13) -0.4216(13)
H91 H -0.8172 -0.1234 -0.4261
H92 H -0.7441 -0.0668 -0.4338
H93 H -0.7054 -0.1245 -0.3627
C86 C -0.5317(17) -0.0547(15) -0.5202(17)
H94 H -0.5364 -0.0066 -0.5313
H95 H -0.5262 -0.0780 -0.5705
H96 H -0.4741 -0.0642 -0.4686
N4 N -0.9441(9) -0.3292(8) -0.3656(8)
N5 N -0.7840(10) -0.3386(9) -0.3364(9)
N6 N -1.0375(9) -0.2048(9) -0.2989(9)
H97 H -1.0688 -0.2396 -0.2900
O12 O -0.4650(9) -0.1900(8) -0.1949(8)
O13 O -0.7200(10) -0.0752(8) -0.1285(9)
H98 H -0.7771 -0.0843 -0.1328
O14 O -0.8905(9) -0.1195(8) -0.1822(8)
O15 O -0.6189(10) -0.0775(9) -0.5057(10)
O16 O -0.5896(9) -0.3355(8) -0.3055(8)
O17 O -1.0518(9) -0.0991(8) -0.3528(8)
O18 O -1.1448(10) -0.1149(9) -0.6429(9)
H99 H -1.0916 -0.0966 -0.6369
O19 O -0.9876(9) -0.0980(8) -0.6954(8)
H100 H -0.9309 -0.0829 -0.6813
O20 O -0.7626(9) -0.1973(9) -0.6410(9)
O21 O -0.4244(10) -0.2484(9) -0.3049(9)
O22 O -0.7544(11) -0.1011(11) -0.7184(11)
O23 O -1.0670(10) -0.5379(9) -0.1780(9)
H101? H -1.2656 -0.3726 -0.2552
H102? H -1.2098 -0.1058 -0.3767
loop_
_geom_bond_atom_site_label_1
_geom_bond_atom_site_label_2
_geom_bond_site_symmetry_1
_geom_bond_site_symmetry_2
C1 C2 1_555 1_555
C2 C3 1_555 1_555
C3 C4 1_555 1_555
C4 C5 1_555 1_555
C5 C6 1_555 1_555
C6 C1 1_555 1_555
C7 C6 1_555 1_555
C8 C7 1_555 1_555
C9 C8 1_555 1_555
C10 C1 1_555 1_555
C11 H1 1_555 1_555
C12 H2 1_555 1_555
C13 H3 1_555 1_555
C14 C13 1_555 1_555
H4 C14 1_555 1_555
C15 C14 1_555 1_555
C16 C15 1_555 1_555
H5 C16 1_555 1_555
C17 C16 1_555 1_555
C18 C7 1_555 1_555
C19 C18 1_555 1_555
C20 C21 1_555 1_555
C21 C22 1_555 1_555
C22 H6 1_555 1_555
C23 C11 1_555 1_555
H7 C23 1_555 1_555
C24 C11 1_555 1_555
H8 C24 1_555 1_555
C25 C12 1_555 1_555
H9 C25 1_555 1_555
C26 C25 1_555 1_555
H10 C26 1_555 1_555
C27 C26 1_555 1_555
H11 C27 1_555 1_555
C28 C27 1_555 1_555
H12 C28 1_555 1_555
C29 C28 1_555 1_555
H13 C29 1_555 1_555
C30 C29 1_555 1_555
H14 C30 1_555 1_555
C31 C30 1_555 1_555
H15 C31 1_555 1_555
C32 C9 1_555 1_555
H16 C32 1_555 1_555
H17 C32 1_555 1_555
H18 C32 1_555 1_555
C33 C15 1_555 1_555
H19 C33 1_555 1_555
H20 C33 1_555 1_555
H21 C33 1_555 1_555
C34 C19 1_555 1_555
H22 C34 1_555 1_555
H23 C34 1_555 1_555
H24 C34 1_555 1_555
C35 C21 1_555 1_555
H25 C35 1_555 1_555
H26 C35 1_555 1_555
H27 C35 1_555 1_555
C36 C11 1_555 1_555
H28 C36 1_555 1_555
H29 C36 1_555 1_555
H30 C36 1_555 1_555
C37 C12 1_555 1_555
H31 C37 1_555 1_555
H32 C37 1_555 1_555
H33 C37 1_555 1_555
C38 C26 1_555 1_555
H34 C38 1_555 1_555
H35 C38 1_555 1_555
H36 C38 1_555 1_555
C39 C40 1_555 1_555
C40 H37 1_555 1_555
H38 C40 1_555 1_555
H39 C40 1_555 1_555
C41 C28 1_555 1_555
H40 C41 1_555 1_555
H41 C41 1_555 1_555
H42 C41 1_555 1_555
C42 H43 1_555 1_555
H44 C42 1_555 1_555
H45 C42 1_555 1_555
N1 C4 1_555 1_555
N2 C5 1_555 1_555
N3 C3 1_555 1_555
H46 N3 1_555 1_555
O1 C8 1_555 1_555
O2 C10 1_555 1_555
O3 C2 1_555 1_555
H47 O3 1_555 1_555
O4 C18 1_555 1_555
O5 C20 1_555 1_555
O6 C24 1_555 1_555
H48 O6 1_555 1_555
O7 C25 1_555 1_555
H49 O7 1_555 1_555
O8 C27 1_555 1_555
O9 C29 1_555 1_555
O10 C19 1_555 1_555
O11 C39 1_555 1_555
C43 C22 1_555 1_555
H50 C43 1_555 1_555
C44 H51 1_555 1_555
C45 H52 1_555 1_555
C46 C45 1_555 1_555
C47 C45 1_555 1_555
C48 C44 1_555 1_555
H53 C48 1_555 1_555
C49 C50 1_555 1_555
C50 C51 1_555 1_555
C51 C52 1_555 1_555
C52 C53 1_555 1_555
C53 C54 1_555 1_555
C54 C49 1_555 1_555
C55 C54 1_555 1_555
C56 C55 1_555 1_555
C57 C56 1_555 1_555
C58 C53 1_555 1_555
C59 C55 1_555 1_555
C60 C59 1_555 1_555
C61 C62 1_555 1_555
C62 C63 1_555 1_555
C63 H54 1_555 1_555
C64 C63 1_555 1_555
H55 C64 1_555 1_555
C65 C64 1_555 1_555
H56 C65 1_555 1_555
C66 C65 1_555 1_555
H57 C66 1_555 1_555
C67 C66 1_555 1_555
H58 C67 1_555 1_555
C68 C67 1_555 1_555
H59 C68 1_555 1_555
C69 C68 1_555 1_555
H60 C69 1_555 1_555
C70 C69 1_555 1_555
H61 C70 1_555 1_555
C71 C70 1_555 1_555
H62 C71 1_555 1_555
C72 C71 1_555 1_555
H63 C72 1_555 1_555
C73 C72 1_555 1_555
H64 C73 1_555 1_555
C74 C73 1_555 1_555
H65 C74 1_555 1_555
C75 C74 1_555 1_555
H66 C75 1_555 1_555
C76 C57 1_555 1_555
H67 C76 1_555 1_555
H68 C76 1_555 1_555
H69 C76 1_555 1_555
C77 C47 1_555 1_555
H70 C77 1_555 1_555
H71 C77 1_555 1_555
H72 C77 1_555 1_555
C78 C60 1_555 1_555
H73 C78 1_555 1_555
H74 C78 1_555 1_555
H75 C78 1_555 1_555
C79 C62 1_555 1_555
H76 C79 1_555 1_555
H77 C79 1_555 1_555
H78 C79 1_555 1_555
C80 C66 1_555 1_555
H79 C80 1_555 1_555
H80 C80 1_555 1_555
H81 C80 1_555 1_555
C81 C68 1_555 1_555
H82 C81 1_555 1_555
H83 C81 1_555 1_555
H84 C81 1_555 1_555
C82 C70 1_555 1_555
H85 C82 1_555 1_555
H86 C82 1_555 1_555
H87 C82 1_555 1_555
C83 C84 1_555 1_555
C84 H88 1_555 1_555
H89 C84 1_555 1_555
H90 C84 1_555 1_555
C85 C72 1_555 1_555
H91 C85 1_555 1_555
H92 C85 1_555 1_555
H93 C85 1_555 1_555
C86 H94 1_555 1_555
H95 C86 1_555 1_555
H96 C86 1_555 1_555
N4 C44 1_555 1_555
N5 C46 1_555 1_555
N6 C51 1_555 1_555
H97 N6 1_555 1_555
O12 C56 1_555 1_555
O13 C58 1_555 1_555
H98 O13 1_555 1_555
O14 C52 1_555 1_555
O15 C73 1_555 1_555
O16 C59 1_555 1_555
O17 C61 1_555 1_555
O18 C67 1_555 1_555
H99 O18 1_555 1_555
O19 C69 1_555 1_555
H100 O19 1_555 1_555
O20 C71 1_555 1_555
O21 C60 1_555 1_555
O22 C83 1_555 1_555
C9 C10 1_555 1_555
C12 C24 1_555 1_555
C13 N1 1_555 1_555
C17 N1 1_555 1_555
C17 N2 1_555 1_555
C19 O1 1_555 1_555
C20 N3 1_555 1_555
C23 C43 1_555 1_555
C31 O10 1_555 1_555
C39 O8 1_555 1_555
C42 O9 1_555 1_555
C46 N4 1_555 1_555
C47 C48 1_555 1_555
C49 N5 1_555 1_555
C50 N4 1_555 1_555
C57 C58 1_555 1_555
C60 O12 1_555 1_555
C61 N6 1_555 1_555
C75 O21 1_555 1_555
C83 O20 1_555 1_555
C86 O15 1_555 1_555

#END
