
#######################################################################
#
#                 Cambridge Crystallographic Data Centre
#                                CCDC 
#
#######################################################################
#
# If this CIF has been generated from an entry in the Cambridge 
# Structural Database, then it will include bibliographic, chemical, 
# crystal, experimental, refinement or atomic coordinate data resulting 
# from the CCDC's data processing and validation procedures.
#
#######################################################################

data_ZEFNIJ
_chemical_formula_moiety         'C43 H53 N3 O11,4.5(H2 O1)'
_chemical_name_systematic        'Rifaximin beta hydrate'
_chemical_properties_biological  
'broad spectrum locally acting antibiotic against Gram-positive and Gram-negative, aerobic and anaerobic organisms'
_symmetry_cell_setting           monoclinic
_symmetry_space_group_name_H-M   'P 21'
_symmetry_Int_Tables_number      4
_space_group_name_Hall           'P 2yb'
loop_
_symmetry_equiv_pos_site_id
_symmetry_equiv_pos_as_xyz
1 x,y,z
2 -x,1/2+y,-z
_cell_length_a                   13.7530(8)
_cell_length_b                   19.749(4)
_cell_length_c                   16.378(6)
_cell_angle_alpha                90
_cell_angle_beta                 91.9720(10)
_cell_angle_gamma                90
_cell_volume                     4445.76
_cell_formula_units_Z            4
loop_
_atom_site_label
_atom_site_type_symbol
_atom_site_fract_x
_atom_site_fract_y
_atom_site_fract_z
N1 N 1.0374(4) 0.9349(3) 1.1269(3)
H1 H 1.0658 0.9184 1.0854
N2 N 0.8312(5) 0.7819(3) 1.2599(3)
O1 O 0.8774(3) 1.0056(2) 1.0631(3)
H2 H 0.8259 1.0249 1.0514
O2 O 0.7031(4) 1.0287(3) 1.0535(3)
O3 O 0.4885(5) 0.9054(2) 1.2158(3)
O4 O 0.6365(4) 0.7724(3) 1.2969(4)
O5 O 0.4639(4) 0.8547(3) 1.3451(3)
O6 O 0.6522(6) 1.0353(3) 1.4593(4)
O7 O 0.7878(4) 0.9151(2) 1.5816(3)
O8 O 0.7474(4) 1.0112(3) 1.6448(3)
O9 O 0.9940(4) 1.0198(2) 1.5846(3)
H3 H 1.0474 1.0375 1.5798
O10 O 1.1575(4) 1.0281(2) 1.4945(3)
H4 H 1.1042 1.0432 1.5062
O11 O 1.0412(4) 1.0118(4) 1.2288(4)
C1 C 0.8606(6) 0.9532(4) 1.1127(4)
C2 C 0.9404(6) 0.9163(4) 1.1429(4)
C3 C 0.9180(6) 0.8607(3) 1.1928(4)
C4 C 0.8250(6) 0.8407(4) 1.2113(4)
C5 C 0.7432(6) 0.8794(3) 1.1842(4)
C6 C 0.7634(6) 0.9362(3) 1.1325(4)
C7 C 0.6849(6) 0.9798(4) 1.1020(4)
C8 C 0.5888(7) 0.9710(4) 1.1298(4)
C9 C 0.5761(7) 0.9175(4) 1.1820(4)
C10 C 0.6478(6) 0.8697(4) 1.2066(4)
C11 C 0.6021(6) 0.8217(4) 1.2607(5)
C12 C 0.4951(6) 0.8437(4) 1.2653(5)
C13 C 0.4234(7) 0.7935(5) 1.2262(6)
H5 H 0.4397 0.7858 1.1705
H6 H 0.3587 0.8116 1.2279
H7 H 0.4266 0.7515 1.2557
C14 C 0.5097(6) 1.0195(4) 1.1050(5)
H8 H 0.5353 1.0536 1.0700
H9 H 0.4848 1.0406 1.1528
H10 H 0.4582 0.9956 1.0764
C15 C 1.0853(6) 0.9791(4) 1.1776(5)
C16 C 1.1921(5) 0.9831(3) 1.1668(4)
C17 C 1.2519(6) 0.9758(4) 1.2333(4)
H11 H 1.3181 0.9817 1.2258
C18 C 1.2227(6) 0.9597(4) 1.3154(4)
H12 H 1.1567 0.9531 1.3230
C19 C 1.2813(6) 0.9537(4) 1.3798(4)
H13 H 1.3461 0.9657 1.3741
C20 C 1.2512(6) 0.9284(4) 1.4636(4)
H14 H 1.2984 0.9457 1.5046
C21 C 1.1507(6) 0.9555(3) 1.4843(4)
H15 H 1.1056 0.9461 1.4381
C22 C 1.1063(6) 0.9267(4) 1.5633(4)
H16 H 1.1067 0.8772 1.5585
C23 C 1.0019(6) 0.9481(4) 1.5714(4)
H17 H 0.9783 0.9258 1.6204
C24 C 0.9332(6) 0.9272(4) 1.5000(4)
H18 H 0.9567 0.9498 1.4511
C25 C 0.8301(6) 0.9521(4) 1.5115(4)
H19 H 0.8326 1.0005 1.5249
C26 C 0.7593(7) 0.9421(4) 1.4371(4)
H20 H 0.7577 0.8935 1.4251
C27 C 0.6562(6) 0.9631(4) 1.4534(4)
H21 H 0.6380 0.9438 1.5058
C28 C 0.5854(8) 0.9366(5) 1.3867(5)
H22 H 0.5866 0.9557 1.3348
C29 C 0.5231(8) 0.8879(6) 1.4001(5)
H23 H 0.5188 0.8742 1.4542
C30 C 1.2248(6) 0.9909(4) 1.0810(4)
H24 H 1.1689 0.9932 1.0443
H25 H 1.2642 0.9528 1.0670
H26 H 1.2622 1.0317 1.0767
C31 C 1.2567(6) 0.8515(4) 1.4648(4)
H27 H 1.3212 0.8374 1.4517
H28 H 1.2107 0.8333 1.4252
H29 H 1.2419 0.8353 1.5181
C32 C 1.1682(7) 0.9448(4) 1.6398(4)
H30 H 1.2344 0.9315 1.6322
H31 H 1.1435 0.9214 1.6861
H32 H 1.1653 0.9927 1.6489
C33 C 0.9361(6) 0.8500(4) 1.4829(5)
H33 H 1.0019 0.8363 1.4744
H34 H 0.8966 0.8400 1.4349
H35 H 0.9115 0.8260 1.5288
C34 C 0.8015(7) 0.9776(4) 1.3617(4)
H36 H 0.8678 0.9639 1.3559
H37 H 0.7988 1.0258 1.3690
H38 H 0.7639 0.9653 1.3135
C35 C 0.7454(6) 0.9495(5) 1.6410(4)
C36 C 0.6956(7) 0.9051(4) 1.6989(4)
C37 C 0.5641(2) 1.05620(13) 1.49915(15)
H39 H 0.5615 1.1047 1.5015
H40 H 0.5645 1.0381 1.5536
H41 H 0.5082 1.0395 1.4687
N3 N 0.9808(2) 0.81519(13) 1.23386(15)
C38 C 1.0816(2) 0.81313(13) 1.23997(15)
H42 H 1.1178 0.8464 1.2147
C39 C 1.1287(2) 0.76205(13) 1.28331(15)
H43 H 1.1963 0.7609 1.2872
C40 C 1.0750(2) 0.71303(13) 1.32053(15)
C41 C 0.9742(2) 0.71509(13) 1.31442(15)
H44 H 0.9380 0.6818 1.3397
C42 C 0.9271(2) 0.76617(13) 1.27109(15)
C43 C 1.1275(2) 0.65672(13) 1.36206(15)
H45 H 1.1960 0.6613 1.3542
H46 H 1.1051 0.6144 1.3395
H47 H 1.1153 0.6579 1.4194
N4 N 1.0372(4) 0.7393(3) 0.9930(4)
H48 H 1.0428 0.7061 0.9595
N5 N 0.7865(5) 0.8959(3) 0.9232(3)
O12 O 0.9167(4) 0.6683(3) 1.0846(3)
H49 H 0.8717 0.6458 1.1020
O13 O 0.7520(4) 0.6380(3) 1.1270(3)
O14 O 0.4791(4) 0.7585(3) 1.0158(3)
O15 O 0.5873(4) 0.8949(3) 0.9129(3)
O16 O 0.4198(4) 0.8008(3) 0.8911(4)
O17 O 0.5734(4) 0.6264(3) 0.7522(3)
O18 O 0.7275(4) 0.7346(2) 0.6430(3)
O19 O 0.6610(5) 0.6485(3) 0.5697(3)
O20 O 0.8992(4) 0.6002(2) 0.6417(3)
H50 H 0.9256 0.5851 0.6014
O21 O 1.0949(7) 0.5959(3) 0.7298(4)
H51 H 1.1257 0.5866 0.7721
O22 O 1.1224(4) 0.8169(3) 1.0647(3)
H52 H 1.1767 0.8233 1.0855
C44 C 0.8801(6) 0.7241(4) 1.0449(4)
C45 C 0.9433(6) 0.7635(3) 1.0029(4)
C46 C 0.9004(6) 0.8216(4) 0.9655(4)
C47 C 0.8023(5) 0.8354(3) 0.9661(4)
C48 C 0.7384(5) 0.7926(4) 1.0035(4)
C49 C 0.7767(5) 0.7369(4) 1.0459(4)
C50 C 0.7144(6) 0.6898(4) 1.0862(4)
C51 C 0.6128(7) 0.6965(4) 1.0772(4)
C52 C 0.5769(6) 0.7489(4) 1.0332(5)
C53 C 0.6340(5) 0.7989(3) 0.9986(4)
C54 C 0.5706(6) 0.8447(4) 0.9554(5)
C55 C 0.4654(6) 0.8182(4) 0.9654(5)
C56 C 0.3995(6) 0.8676(4) 1.0047(5)
H53 H 0.4254 0.8789 1.0582
H54 H 0.3362 0.8478 1.0092
H55 H 0.3946 0.9079 0.9720
C57 C 0.5453(7) 0.6433(5) 1.1146(6)
H56 H 0.5838 0.6107 1.1449
H57 H 0.5086 0.6208 1.0718
H58 H 0.5016 0.6654 1.1506
C58 C 1.1206(6) 0.7616(4) 1.0298(5)
H59 H 1.1407 0.7826 0.9789
C59 C 1.2049(6) 0.7155(4) 1.0302(5)
C60 C 1.2426(6) 0.6929(4) 0.9622(6)
H60 H 1.2950 0.6634 0.9689
C61 C 1.2120(7) 0.7084(4) 0.8775(6)
H61 H 1.1714 0.7457 0.8697
C62 C 1.2355(6) 0.6758(5) 0.8128(6)
H62 H 1.2801 0.6406 0.8187
C63 C 1.1948(7) 0.6914(5) 0.7282(6)
H63 H 1.2326 0.6657 0.6891
C64 C 1.0896(6) 0.6672(4) 0.7207(4)
H64 H 1.0558 0.6850 0.7678
C65 C 1.0307(6) 0.6862(4) 0.6456(4)
H65 H 1.0358 0.7355 0.6410
C66 C 0.9197(6) 0.6704(4) 0.6492(4)
H66 H 0.8890 0.6921 0.6011
C67 C 0.8703(6) 0.6993(3) 0.7219(4)
H67 H 0.8919 0.6729 0.7698
C68 C 0.7575(6) 0.6889(4) 0.7102(4)
H68 H 0.7445 0.6420 0.6935
C69 C 0.6978(6) 0.7055(4) 0.7839(4)
H69 H 0.7090 0.7532 0.7977
C70 C 0.5903(6) 0.6969(4) 0.7627(4)
H70 H 0.5729 0.7214 0.7122
C71 C 0.5259(8) 0.7206(6) 0.8328(7)
H71 H 0.5240 0.6949 0.8803
C72 C 0.4756(8) 0.7744(6) 0.8267(7)
H72 H 0.4751 0.7979 0.7775
C73 C 1.2439(7) 0.6950(4) 1.1136(5)
H73 H 1.2130 0.7215 1.1545
H74 H 1.3129 0.7025 1.1171
H75 H 1.2307 0.6479 1.1224
C74 C 1.2039(9) 0.7653(7) 0.7077(9)
H76 H 1.1754 0.7735 0.6543
H77 H 1.2714 0.7777 0.7085
H78 H 1.1708 0.7918 0.7473
C75 C 1.0718(7) 0.6577(5) 0.5677(4)
H79 H 1.0324 0.6723 0.5215
H80 H 1.0718 0.6091 0.5702
H81 H 1.1372 0.6736 0.5622
C76 C 0.8948(6) 0.7738(4) 0.7398(6)
H82 H 0.9638 0.7786 0.7491
H83 H 0.8619 0.7882 0.7875
H84 H 0.8740 0.8012 0.6940
C77 C 0.7298(6) 0.6635(4) 0.8576(4)
H85 H 0.7988 0.6680 0.8669
H86 H 0.7139 0.6168 0.8477
H87 H 0.6968 0.6791 0.9048
C78 C 0.6817(6) 0.7075(5) 0.5772(5)
C79 C 0.6615(10) 0.7609(6) 0.5129(7)
H88 H 0.6805 0.8045 0.5340
H89 H 0.5932 0.7613 0.4985
H90 H 0.6978 0.7509 0.4653
C80 C 0.4837(7) 0.6110(5) 0.7105(5)
H91 H 0.4800 0.5631 0.7004
H92 H 0.4799 0.6349 0.6594
H93 H 0.4307 0.6245 0.7434
N6 N 0.9442(5) 0.8742(3) 0.9203(3)
C81 C 1.0382(6) 0.8864(4) 0.9027(4)
H94 H 1.0869 0.8564 0.9200
C82 C 1.0604(6) 0.9423(4) 0.8600(4)
H95 H 1.1250 0.9503 0.8479
C83 C 0.9884(8) 0.9896(4) 0.8330(4)
C84 C 0.8950(7) 0.9776(4) 0.8518(4)
H96 H 0.8466 1.0081 0.8354
C85 C 0.8704(6) 0.9185(3) 0.8966(4)
C86 C 1.0164(7) 1.0524(4) 0.7862(4)
H97 H 1.0855 1.0526 0.7794
H98 H 0.9981 1.0919 0.8161
H99 H 0.9835 1.0523 0.7336
O23 O 0.7697(4) 0.6472(3) 1.3025(3)
O24 O 1.0129(4) 1.1085(3) 1.0674(4)
O25 O 0.6732(7) 1.0267(3) 0.8866(3)
O26 O 0.6065(5) 1.0779(3) 1.7375(3)
O27 O 0.6692(5) 0.5760(3) 0.4284(3)
O28 O 0.5218(6) 0.6597(4) 1.3467(5)
O29 O 0.4771(6) 0.9685(5) 1.7882(5)
O30 O 0.2939(5) 0.9993(3) 1.8475(5)
O31 O 0.4601(10) 0.9417(7) 1.6154(8)
O32 O 0.4183(12) 1.0174(9) 1.6994(8)
O33 O 1.2608(13) 0.8657(7) 0.8303(9)
H100? H 1.0796 1.0361 1.2546
H101? H 1.0748 1.0155 1.1376
H102? H 1.1911 1.0323 1.1741
H103? H 1.2492 0.7543 1.0304
loop_
_geom_bond_atom_site_label_1
_geom_bond_atom_site_label_2
_geom_bond_site_symmetry_1
_geom_bond_site_symmetry_2
N1 H1 1_555 1_555
N2 C4 1_555 1_555
O1 H2 1_555 1_555
O2 C7 1_555 1_555
O3 C9 1_555 1_555
O4 C11 1_555 1_555
O5 C12 1_555 1_555
O6 C27 1_555 1_555
O7 C25 1_555 1_555
O8 C35 1_555 1_555
O9 H3 1_555 1_555
O10 H4 1_555 1_555
O11 C15 1_555 1_555
C1 O1 1_555 1_555
C2 N1 1_555 1_555
C3 C2 1_555 1_555
C4 C3 1_555 1_555
C5 C4 1_555 1_555
C6 C1 1_555 1_555
C7 C6 1_555 1_555
C8 C7 1_555 1_555
C9 C8 1_555 1_555
C10 C5 1_555 1_555
C11 C10 1_555 1_555
C12 O3 1_555 1_555
C13 C12 1_555 1_555
H5 C13 1_555 1_555
H6 C13 1_555 1_555
H7 C13 1_555 1_555
C14 C8 1_555 1_555
H8 C14 1_555 1_555
H9 C14 1_555 1_555
H10 C14 1_555 1_555
C15 N1 1_555 1_555
C16 C15 1_555 1_555
C17 C16 1_555 1_555
H11 C17 1_555 1_555
C18 C17 1_555 1_555
H12 C18 1_555 1_555
C19 C18 1_555 1_555
H13 C19 1_555 1_555
C20 C19 1_555 1_555
H14 C20 1_555 1_555
C21 O10 1_555 1_555
H15 C21 1_555 1_555
C22 C21 1_555 1_555
H16 C22 1_555 1_555
C23 O9 1_555 1_555
H17 C23 1_555 1_555
C24 C23 1_555 1_555
H18 C24 1_555 1_555
C25 C24 1_555 1_555
H19 C25 1_555 1_555
C26 C25 1_555 1_555
H20 C26 1_555 1_555
C27 C26 1_555 1_555
H21 C27 1_555 1_555
C28 C27 1_555 1_555
H22 C28 1_555 1_555
C29 O5 1_555 1_555
H23 C29 1_555 1_555
C30 C16 1_555 1_555
H24 C30 1_555 1_555
H25 C30 1_555 1_555
H26 C30 1_555 1_555
C31 C20 1_555 1_555
H27 C31 1_555 1_555
H28 C31 1_555 1_555
H29 C31 1_555 1_555
C32 C22 1_555 1_555
H30 C32 1_555 1_555
H31 C32 1_555 1_555
H32 C32 1_555 1_555
C33 C24 1_555 1_555
H33 C33 1_555 1_555
H34 C33 1_555 1_555
H35 C33 1_555 1_555
C34 C26 1_555 1_555
H36 C34 1_555 1_555
H37 C34 1_555 1_555
H38 C34 1_555 1_555
C35 O7 1_555 1_555
C36 C35 1_555 1_555
C37 O6 1_555 1_555
H39 C37 1_555 1_555
H40 C37 1_555 1_555
H41 C37 1_555 1_555
N3 C3 1_555 1_555
C38 N3 1_555 1_555
H42 C38 1_555 1_555
C39 C38 1_555 1_555
H43 C39 1_555 1_555
C40 C39 1_555 1_555
C41 C40 1_555 1_555
H44 C41 1_555 1_555
C42 N2 1_555 1_555
C43 C40 1_555 1_555
H45 C43 1_555 1_555
H46 C43 1_555 1_555
H47 C43 1_555 1_555
N4 H48 1_555 1_555
N5 C47 1_555 1_555
O12 H49 1_555 1_555
O13 C50 1_555 1_555
O14 C52 1_555 1_555
O15 C54 1_555 1_555
O16 C55 1_555 1_555
O17 C70 1_555 1_555
O18 C68 1_555 1_555
O19 C78 1_555 1_555
O20 H50 1_555 1_555
O21 H51 1_555 1_555
O22 H52 1_555 1_555
C44 O12 1_555 1_555
C45 N4 1_555 1_555
C46 C45 1_555 1_555
C47 C46 1_555 1_555
C48 C47 1_555 1_555
C49 C44 1_555 1_555
C50 C49 1_555 1_555
C51 C50 1_555 1_555
C52 C51 1_555 1_555
C53 C48 1_555 1_555
C54 C53 1_555 1_555
C55 O14 1_555 1_555
C56 C55 1_555 1_555
H53 C56 1_555 1_555
H54 C56 1_555 1_555
H55 C56 1_555 1_555
C57 C51 1_555 1_555
H56 C57 1_555 1_555
H57 C57 1_555 1_555
H58 C57 1_555 1_555
C58 N4 1_555 1_555
H59 C58 1_555 1_555
C59 C58 1_555 1_555
C60 C59 1_555 1_555
H60 C60 1_555 1_555
C61 C60 1_555 1_555
H61 C61 1_555 1_555
C62 C61 1_555 1_555
H62 C62 1_555 1_555
C63 C62 1_555 1_555
H63 C63 1_555 1_555
C64 O21 1_555 1_555
H64 C64 1_555 1_555
C65 C64 1_555 1_555
H65 C65 1_555 1_555
C66 O20 1_555 1_555
H66 C66 1_555 1_555
C67 C66 1_555 1_555
H67 C67 1_555 1_555
C68 C67 1_555 1_555
H68 C68 1_555 1_555
C69 C68 1_555 1_555
H69 C69 1_555 1_555
C70 C69 1_555 1_555
H70 C70 1_555 1_555
C71 C70 1_555 1_555
H71 C71 1_555 1_555
C72 O16 1_555 1_555
H72 C72 1_555 1_555
C73 C59 1_555 1_555
H73 C73 1_555 1_555
H74 C73 1_555 1_555
H75 C73 1_555 1_555
C74 C63 1_555 1_555
H76 C74 1_555 1_555
H77 C74 1_555 1_555
H78 C74 1_555 1_555
C75 C65 1_555 1_555
H79 C75 1_555 1_555
H80 C75 1_555 1_555
H81 C75 1_555 1_555
C76 C67 1_555 1_555
H82 C76 1_555 1_555
H83 C76 1_555 1_555
H84 C76 1_555 1_555
C77 C69 1_555 1_555
H85 C77 1_555 1_555
H86 C77 1_555 1_555
H87 C77 1_555 1_555
C78 O18 1_555 1_555
C79 C78 1_555 1_555
H88 C79 1_555 1_555
H89 C79 1_555 1_555
H90 C79 1_555 1_555
C80 O17 1_555 1_555
H91 C80 1_555 1_555
H92 C80 1_555 1_555
H93 C80 1_555 1_555
N6 C46 1_555 1_555
C81 N6 1_555 1_555
H94 C81 1_555 1_555
C82 C81 1_555 1_555
H95 C82 1_555 1_555
C83 C82 1_555 1_555
C84 C83 1_555 1_555
H96 C84 1_555 1_555
C85 N5 1_555 1_555
C86 C83 1_555 1_555
H97 C86 1_555 1_555
H98 C86 1_555 1_555
H99 C86 1_555 1_555
C1 C2 1_555 1_555
C5 C6 1_555 1_555
C9 C10 1_555 1_555
C11 C12 1_555 1_555
C20 C21 1_555 1_555
C22 C23 1_555 1_555
C28 C29 1_555 1_555
N3 C42 1_555 1_555
C41 C42 1_555 1_555
O22 C58 1_555 1_555
C44 C45 1_555 1_555
C48 C49 1_555 1_555
C52 C53 1_555 1_555
C54 C55 1_555 1_555
C63 C64 1_555 1_555
C65 C66 1_555 1_555
C71 C72 1_555 1_555
N6 C85 1_555 1_555
C84 C85 1_555 1_555

#END
