
#######################################################################
#
#                 Cambridge Crystallographic Data Centre
#                                CCDC 
#
#######################################################################
#
# If this CIF has been generated from an entry in the Cambridge 
# Structural Database, then it will include bibliographic, chemical, 
# crystal, experimental, refinement or atomic coordinate data resulting 
# from the CCDC's data processing and validation procedures.
#
#######################################################################

data_ZEFQAF
_chemical_formula_moiety         'C15 H20 Cl1 N1 O2 S1'
_chemical_name_systematic        
3-chloro-3-methyl-6-methylidene-1-[(4-methylphenyl)sulfonyl]azepane
_symmetry_cell_setting           monoclinic
_symmetry_space_group_name_H-M   'P 21'
_symmetry_Int_Tables_number      4
_space_group_name_Hall           'P 2yb'
loop_
_symmetry_equiv_pos_site_id
_symmetry_equiv_pos_as_xyz
1 x,y,z
2 -x,1/2+y,-z
_cell_length_a                   5.7663(6)
_cell_length_b                   16.5199(16)
_cell_length_c                   8.1322(8)
_cell_angle_alpha                90
_cell_angle_beta                 102.673(2)
_cell_angle_gamma                90
_cell_volume                     755.79
_exptl_crystal_colour            colorless
_exptl_crystal_description       block
_cell_formula_units_Z            2
loop_
_atom_site_label
_atom_site_type_symbol
_atom_site_fract_x
_atom_site_fract_y
_atom_site_fract_z
Cl1 Cl -0.17278(10) 0.04489(4) 0.95842(6)
C1 C -0.6426(3) 0.06912(9) 0.78616(17)
H1 H -0.6768 0.0140 0.8188
H2 H -0.7512 0.0833 0.6795
H3 H -0.6641 0.1072 0.8740
S1 S -0.67688(7) -0.04919(2) 0.39793(5)
O1 O -0.8862(2) -0.01041(9) 0.30296(19)
O2 O -0.6971(3) -0.10073(9) 0.53610(18)
N1 N -0.4829(3) 0.02085(9) 0.47155(18)
C2 C -0.3180(3) 0.01110(11) 0.6345(2)
H4 H -0.1529 0.0170 0.6197
H5 H -0.3352 -0.0440 0.6782
C3 C -0.3644(3) 0.07396(11) 0.7627(2)
C4 C -0.2998(4) 0.16029(12) 0.7245(2)
H6 H -0.1248 0.1640 0.7416
H7 H -0.3487 0.1970 0.8070
C5 C -0.4119(3) 0.19080(12) 0.5459(2)
H8 H -0.5850 0.1800 0.5208
H9 H -0.3889 0.2501 0.5409
C6 C -0.3037(3) 0.15034(11) 0.4152(2)
C7 C -0.4092(3) 0.07153(11) 0.3428(2)
H10 H -0.5487 0.0825 0.2504
H11 H -0.2906 0.0418 0.2947
C8 C -0.1203(4) 0.18192(13) 0.3644(3)
H12 H -0.0551 0.1547 0.2821
H13 H -0.0538 0.2318 0.4104
C9 C -0.5525(3) -0.10469(11) 0.2532(2)
C10 C -0.3301(3) -0.13974(11) 0.3074(2)
H14 H -0.2480 -0.1351 0.4218
C11 C -0.2290(4) -0.18155(12) 0.1929(3)
H15 H -0.0768 -0.2056 0.2296
C12 C -0.3475(4) -0.18883(12) 0.0245(2)
C13 C -0.5703(4) -0.15309(13) -0.0270(2)
H16 H -0.6531 -0.1576 -0.1413
C14 C -0.6735(3) -0.11081(12) 0.0865(2)
H17 H -0.8252 -0.0864 0.0502
C15 C -0.2362(4) -0.23322(16) -0.0998(3)
H18 H -0.1742 -0.2853 -0.0518
H19 H -0.1058 -0.2008 -0.1248
H20 H -0.3560 -0.2425 -0.2039
C16? C -0.17278(10) 0.04489(4) 0.95842(6)
H21? H -0.1671 0.0884 1.0410
H22? H -0.0125 0.0349 0.9408
H23? H -0.2340 -0.0045 1.0004
Cl2? Cl -0.6426(3) 0.06912(9) 0.78616(17)
loop_
_geom_bond_atom_site_label_1
_geom_bond_atom_site_label_2
_geom_bond_site_symmetry_1
_geom_bond_site_symmetry_2
Cl1 C3 1_555 1_555
C1 H1 1_555 1_555
H2 C1 1_555 1_555
H3 C1 1_555 1_555
S1 O1 1_555 1_555
O2 S1 1_555 1_555
N1 S1 1_555 1_555
C2 N1 1_555 1_555
H4 C2 1_555 1_555
H5 C2 1_555 1_555
C3 C1 1_555 1_555
C4 C3 1_555 1_555
H6 C4 1_555 1_555
H7 C4 1_555 1_555
C5 C4 1_555 1_555
H8 C5 1_555 1_555
H9 C5 1_555 1_555
C6 C5 1_555 1_555
C7 N1 1_555 1_555
H10 C7 1_555 1_555
H11 C7 1_555 1_555
C8 C6 1_555 1_555
H12 C8 1_555 1_555
H13 C8 1_555 1_555
C9 S1 1_555 1_555
C10 C9 1_555 1_555
H14 C10 1_555 1_555
C11 C10 1_555 1_555
H15 C11 1_555 1_555
C12 C11 1_555 1_555
C13 C12 1_555 1_555
H16 C13 1_555 1_555
C14 C9 1_555 1_555
H17 C14 1_555 1_555
C15 C12 1_555 1_555
H18 C15 1_555 1_555
H19 C15 1_555 1_555
H20 C15 1_555 1_555
C2 C3 1_555 1_555
C6 C7 1_555 1_555
C13 C14 1_555 1_555

#END
