
#######################################################################
#
#                 Cambridge Crystallographic Data Centre
#                                CCDC 
#
#######################################################################
#
# If this CIF has been generated from an entry in the Cambridge 
# Structural Database, then it will include bibliographic, chemical, 
# crystal, experimental, refinement or atomic coordinate data resulting 
# from the CCDC's data processing and validation procedures.
#
#######################################################################

data_ZEFTUB
_chemical_formula_moiety         'C7 H6 O3,C6 H8 N2,H2 O1'
_chemical_name_systematic        
'4-Hydroxybenzoic acid 2,3-dimethylpyrazine monohydrate'
_symmetry_cell_setting           triclinic
_symmetry_space_group_name_H-M   'P -1'
_symmetry_Int_Tables_number      2
_space_group_name_Hall           '-P 1'
loop_
_symmetry_equiv_pos_site_id
_symmetry_equiv_pos_as_xyz
1 x,y,z
2 -x,-y,-z
_cell_length_a                   7.2391(14)
_cell_length_b                   8.0130(16)
_cell_length_c                   13.094(3)
_cell_angle_alpha                106.01(3)
_cell_angle_beta                 102.96(3)
_cell_angle_gamma                94.23(3)
_cell_volume                     703.989
_exptl_crystal_colour            white
_exptl_crystal_description       block
_cell_formula_units_Z            2
loop_
_atom_site_label
_atom_site_type_symbol
_atom_site_fract_x
_atom_site_fract_y
_atom_site_fract_z
O1 O 1.1066(6) 0.2180(7) 0.1089(4)
O2 O 1.1870(6) 0.3750(7) 0.2900(4)
H1 H 1.2911 0.3986 0.2785
O3 O 0.3750(6) -0.0206(6) 0.2718(4)
H2 H 0.3054 -0.0906 0.2157
C1 C 0.8914(9) 0.1767(9) 0.2223(6)
C4 C 0.6726(10) 0.1695(10) 0.3378(6)
H3 H 0.6440 0.2080 0.4055
C5 C 0.7600(9) 0.0483(9) 0.1335(6)
H4 H 0.7871 0.0103 0.0654
C6 C 0.5877(9) -0.0212(9) 0.1499(6)
H5 H 0.5035 -0.1091 0.0931
C7 C 0.5435(9) 0.0401(9) 0.2494(6)
C8 C 0.8461(8) 0.2399(9) 0.3224(6)
H6 H 0.9297 0.3282 0.3792
C11 C 1.0708(9) 0.2600(9) 0.1988(7)
N1 N 0.8395(7) 0.6055(7) 0.1839(5)
C2 C 0.6512(10) 0.6330(9) 0.3172(6)
C3 C 0.8222(9) 0.6748(9) 0.2862(5)
N2 N 0.5061(7) 0.5161(8) 0.2438(5)
C9 C 0.9973(10) 0.8036(10) 0.3649(6)
H7 H 1.0953 0.8114 0.3270
H8 H 1.0456 0.7624 0.4266
H9 H 0.9603 0.9174 0.3902
C10 C 0.6911(9) 0.4870(9) 0.1111(6)
H10 H 0.6991 0.4349 0.0397
C12 C 0.5258(9) 0.4429(9) 0.1433(6)
H11 H 0.4272 0.3601 0.0926
C13 C 0.6285(10) 0.7101(11) 0.4326(6)
H12 H 0.5039 0.6661 0.4362
H13 H 0.6423 0.8357 0.4506
H14 H 0.7249 0.6773 0.4839
O4 O 0.1306(8) 0.7456(8) 0.0971(6)
H15 H 0.029(13) 0.689(12) 0.125(7)
H16 H 0.057(9) 0.745(9) 0.044(5)
loop_
_geom_bond_atom_site_label_1
_geom_bond_atom_site_label_2
_geom_bond_site_symmetry_1
_geom_bond_site_symmetry_2
O1 C11 1_555 1_555
O2 H1 1_555 1_555
N1 C3 1_555 1_555
O3 H2 1_555 1_555
C1 C5 1_555 1_555
C2 C3 1_555 1_555
C3 C9 1_555 1_555
N2 C2 1_555 1_555
C4 H3 1_555 1_555
C5 H4 1_555 1_555
C6 C5 1_555 1_555
H5 C6 1_555 1_555
C7 O3 1_555 1_555
C8 C1 1_555 1_555
H6 C8 1_555 1_555
C9 H7 1_555 1_555
H8 C9 1_555 1_555
H9 C9 1_555 1_555
C10 N1 1_555 1_555
H10 C10 1_555 1_555
C11 O2 1_555 1_555
C12 N2 1_555 1_555
H11 C12 1_555 1_555
C13 C2 1_555 1_555
H12 C13 1_555 1_555
H13 C13 1_555 1_555
H14 C13 1_555 1_555
O4 H15 1_555 1_555
H16 O4 1_555 1_555
C1 C11 1_555 1_555
C4 C7 1_555 1_555
C4 C8 1_555 1_555
C6 C7 1_555 1_555
C10 C12 1_555 1_555

#END
