
#######################################################################
#
#                 Cambridge Crystallographic Data Centre
#                                CCDC 
#
#######################################################################
#
# If this CIF has been generated from an entry in the Cambridge 
# Structural Database, then it will include bibliographic, chemical, 
# crystal, experimental, refinement or atomic coordinate data resulting 
# from the CCDC's data processing and validation procedures.
#
#######################################################################

data_ZEFTOV
_chemical_formula_moiety         'C7 H6 O3,0.5(C6 H8 N2)'
_chemical_name_systematic        
'2-Hydroxybenzoic acid hemikis(2,3-dimethylpyrazine)'
_symmetry_cell_setting           monoclinic
_symmetry_space_group_name_H-M   'C 2/c'
_symmetry_Int_Tables_number      15
_space_group_name_Hall           '-C 2yn'
loop_
_symmetry_equiv_pos_site_id
_symmetry_equiv_pos_as_xyz
1 x,y,z
2 -x,y,1/2-z
3 1/2+x,1/2+y,z
4 1/2-x,1/2+y,1/2-z
5 -x,-y,-z
6 x,-y,1/2+z
7 1/2-x,1/2-y,-z
8 1/2+x,1/2-y,1/2+z
_cell_length_a                   10.875(4)
_cell_length_b                   13.254(3)
_cell_length_c                   14.054(3)
_cell_angle_alpha                90
_cell_angle_beta                 109.04(4)
_cell_angle_gamma                90
_cell_volume                     1914.88
_exptl_crystal_colour            white
_exptl_crystal_description       block
_cell_formula_units_Z            8
loop_
_atom_site_label
_atom_site_type_symbol
_atom_site_fract_x
_atom_site_fract_y
_atom_site_fract_z
O1 O 0.1972(3) 0.1307(2) 0.0217(2)
O2 O 0.1894(3) -0.0353(2) 0.0510(2)
H1 H 0.1535 -0.0370 -0.0101
O3 O 0.2988(4) 0.2531(2) 0.1729(2)
H2 H 0.2728 0.2375 0.1132
C1 C 0.4015(5) 0.0978(4) 0.3935(3)
H3 H 0.4403 0.1065 0.4625
C2 C 0.3686(5) 0.0014(4) 0.3561(3)
H4 H 0.3850 -0.0538 0.3993
C3 C 0.3112(4) -0.0112(3) 0.2544(3)
H5 H 0.2879 -0.0755 0.2283
C4 C 0.2874(4) 0.0720(3) 0.1895(3)
C5 C 0.3214(4) 0.1690(3) 0.2295(3)
C6 C 0.3790(5) 0.1807(4) 0.3324(3)
H6 H 0.4022 0.2446 0.3598
C7 C 0.2209(5) 0.0596(3) 0.0799(3)
N1 N 0.0585(3) 0.0500(2) 0.3532(2)
C8 C 0.0596(5) 0.2336(3) 0.3633(3)
H7 H 0.0913 0.2173 0.4337
H8 H -0.0177 0.2739 0.3493
H9 H 0.1248 0.2707 0.3457
C9 C 0.0286(4) 0.1377(3) 0.3025(3)
C10 C 0.0301(4) -0.0353(3) 0.3016(3)
H10 H 0.0509 -0.0965 0.3355
N1A N -0.0585(3) 0.0500(2) 0.1468(2)
C8A C -0.0596(5) 0.2336(3) 0.1367(3)
H7A H -0.0913 0.2173 0.0663
H8A H 0.0177 0.2739 0.1507
H9A H -0.1248 0.2707 0.1543
C9A C -0.0286(4) 0.1377(3) 0.1975(3)
C10A C -0.0301(4) -0.0353(3) 0.1984(3)
H10A H -0.0509 -0.0965 0.1645
loop_
_geom_bond_atom_site_label_1
_geom_bond_atom_site_label_2
_geom_bond_site_symmetry_1
_geom_bond_site_symmetry_2
O1 C7 1_555 1_555
O2 H1 1_555 1_555
O3 H2 1_555 1_555
C1 H3 1_555 1_555
C2 C1 1_555 1_555
H4 C2 1_555 1_555
C3 C2 1_555 1_555
H5 C3 1_555 1_555
C4 C3 1_555 1_555
C5 O3 1_555 1_555
C6 C1 1_555 1_555
H6 C6 1_555 1_555
C7 O2 1_555 1_555
N1 C9 1_555 1_555
C8 H7 1_555 1_555
H8 C8 1_555 1_555
H9 C8 1_555 1_555
C9 C8 1_555 1_555
C10 N1 1_555 1_555
H10 C10 1_555 1_555
N1A C9A 1_555 1_555
C8A H7A 1_555 1_555
H8A C8A 1_555 1_555
H9A C8A 1_555 1_555
C9A C9 1_555 1_555
C10A C10 1_555 1_555
H10A C10A 1_555 1_555
C4 C5 1_555 1_555
C4 C7 1_555 1_555
C5 C6 1_555 1_555
N1A C10A 1_555 1_555
C8A C9A 1_555 1_555

#END
