
#######################################################################
#
#                 Cambridge Crystallographic Data Centre
#                                CCDC 
#
#######################################################################
#
# If this CIF has been generated from an entry in the Cambridge 
# Structural Database, then it will include bibliographic, chemical, 
# crystal, experimental, refinement or atomic coordinate data resulting 
# from the CCDC's data processing and validation procedures.
#
#######################################################################

data_ZEFYUH
_chemical_formula_moiety         'C9 H12 O3'
_chemical_name_systematic        
7,8-dihydroxy-1-methylbicyclo[2.2.2]oct-5-en-2-one
_symmetry_cell_setting           orthorhombic
_symmetry_space_group_name_H-M   'P 21 21 21'
_symmetry_Int_Tables_number      19
_space_group_name_Hall           'P 2ac 2ab'
loop_
_symmetry_equiv_pos_site_id
_symmetry_equiv_pos_as_xyz
1 x,y,z
2 1/2+x,1/2-y,-z
3 -x,1/2+y,1/2-z
4 1/2-x,-y,1/2+z
_cell_length_a                   6.9885(1)
_cell_length_b                   7.9474(1)
_cell_length_c                   14.4684(1)
_cell_angle_alpha                90
_cell_angle_beta                 90
_cell_angle_gamma                90
_cell_volume                     803.581
_exptl_crystal_colour            colorless
_exptl_crystal_description       block
_cell_formula_units_Z            4
loop_
_atom_site_label
_atom_site_type_symbol
_atom_site_fract_x
_atom_site_fract_y
_atom_site_fract_z
O1 O -0.04086(11) 0.40979(10) 0.54802(6)
O2 O 0.40143(12) 0.28553(9) 0.61356(5)
O3 O 0.60197(11) 0.63009(11) 0.71248(6)
C1 C 0.27140(17) 0.79205(14) 0.62730(8)
C2 C 0.28254(15) 0.72759(14) 0.54325(8)
C3 C 0.27380(15) 0.53685(13) 0.53703(7)
C4 C 0.43148(16) 0.46256(13) 0.60127(7)
C5 C 0.42552(16) 0.54529(14) 0.69785(7)
C6 C 0.25150(16) 0.66387(14) 0.70356(7)
C7 C 0.08656(16) 0.49015(12) 0.58444(7)
C8 C 0.07386(17) 0.55517(15) 0.68278(8)
C9 C 0.28672(17) 0.47307(14) 0.43811(7)
H1 H 0.421(2) 0.2332(19) 0.5644(12)
H2 H 0.599(2) 0.669(2) 0.7670(11)
H3 H 0.279(2) 0.9126(19) 0.6403(9)
H4 H 0.288(2) 0.7951(19) 0.4870(9)
H5 H 0.5592(19) 0.4829(16) 0.5749(9)
H6 H 0.408(2) 0.4572(19) 0.7443(9)
H7 H 0.245(2) 0.7183(18) 0.7659(9)
H8 H -0.039(2) 0.6197(19) 0.6912(10)
H9 H 0.073(2) 0.456(2) 0.7254(10)
H10 H 0.186(2) 0.531(2) 0.4004(11)
H11 H 0.409(2) 0.5056(19) 0.4128(11)
H12 H 0.269(2) 0.3528(19) 0.4335(10)
loop_
_geom_bond_atom_site_label_1
_geom_bond_atom_site_label_2
_geom_bond_site_symmetry_1
_geom_bond_site_symmetry_2
O1 C7 1_555 1_555
O2 C4 1_555 1_555
O3 C5 1_555 1_555
C1 C2 1_555 1_555
C2 C3 1_555 1_555
C3 C4 1_555 1_555
C4 C5 1_555 1_555
C5 C6 1_555 1_555
C6 C1 1_555 1_555
C7 C3 1_555 1_555
C8 C6 1_555 1_555
C9 C3 1_555 1_555
H1 O2 1_555 1_555
H2 O3 1_555 1_555
H3 C1 1_555 1_555
H4 C2 1_555 1_555
H5 C4 1_555 1_555
H6 C5 1_555 1_555
H7 C6 1_555 1_555
H8 C8 1_555 1_555
H9 C8 1_555 1_555
H10 C9 1_555 1_555
H11 C9 1_555 1_555
H12 C9 1_555 1_555
C7 C8 1_555 1_555

#END
