
#######################################################################
#
#                 Cambridge Crystallographic Data Centre
#                                CCDC 
#
#######################################################################
#
# If this CIF has been generated from an entry in the Cambridge 
# Structural Database, then it will include bibliographic, chemical, 
# crystal, experimental, refinement or atomic coordinate data resulting 
# from the CCDC's data processing and validation procedures.
#
#######################################################################

data_ZEFZES
_chemical_formula_moiety         'C15 H28 O3 Si1'
_chemical_name_systematic        
3-((t-butyl(dimethyl)silyl)oxy)-1-methylbicyclo[2.2.2]oct-7-ene-2,6-diol
_symmetry_cell_setting           monoclinic
_symmetry_space_group_name_H-M   'C 2'
_symmetry_Int_Tables_number      5
_space_group_name_Hall           'C 2y'
loop_
_symmetry_equiv_pos_site_id
_symmetry_equiv_pos_as_xyz
1 x,y,z
2 1/2+x,1/2+y,z
3 -x,y,-z
4 1/2-x,1/2+y,-z
_cell_length_a                   31.7863(3)
_cell_length_b                   6.3670(1)
_cell_length_c                   18.8067(2)
_cell_angle_alpha                90
_cell_angle_beta                 117.7194(12)
_cell_angle_gamma                90
_cell_volume                     3369.35
_exptl_crystal_colour            colorless
_exptl_crystal_description       plate
_cell_formula_units_Z            8
_exptl_crystal_recrystallization_method 'dichloromethane / petroleum spirits'
loop_
_atom_site_label
_atom_site_type_symbol
_atom_site_fract_x
_atom_site_fract_y
_atom_site_fract_z
Si1 Si 0.640874(12) 0.3867(3) 0.52843(2)
O1 O 0.54123(5) 0.3163(4) 0.72653(8)
O2 O 0.52757(4) 0.3720(4) 0.57952(7)
O3 O 0.63127(4) 0.5325(4) 0.59204(6)
C1 C 0.63607(6) 0.7728(4) 0.73104(10)
C2 C 0.59182(7) 0.8305(4) 0.70767(12)
C3 C 0.55539(5) 0.6555(4) 0.68003(9)
C4 C 0.56072(5) 0.5419(4) 0.61172(8)
C5 C 0.61204(4) 0.4617(4) 0.64303(8)
C6 C 0.64276(5) 0.5398(4) 0.72885(8)
C7 C 0.57067(5) 0.4996(4) 0.75092(8)
C8 C 0.62318(5) 0.4382(4) 0.78152(8)
C9 C 0.50480(7) 0.7344(5) 0.65188(15)
C10 C 0.64067(6) 0.5773(4) 0.45330(10)
C11 C 0.59313(5) 0.1858(4) 0.48072(9)
C12 C 0.70084(5) 0.2542(4) 0.58217(9)
C13 C 0.71323(6) 0.1468(4) 0.52109(11)
C14 C 0.70035(6) 0.0887(4) 0.64121(10)
C15 C 0.73947(6) 0.4164(5) 0.62917(11)
H1 H 0.5273(5) 0.293(3) 0.7488(10)
H2 H 0.5232(6) 0.318(3) 0.6135(12)
H3 H 0.6616 0.8700 0.7479
H4 H 0.5833 0.9733 0.7081
H5 H 0.5543 0.6402 0.5699
H6 H 0.6118 0.3125 0.6432
H7 H 0.6753 0.5051 0.7474
H8 H 0.5674 0.5663 0.7933
H9 H 0.6412 0.4851 0.8353
H10 H 0.6256 0.2898 0.7796
H11 H 0.4835 0.6186 0.6353
H12 H 0.5030 0.8055 0.6948
H13 H 0.4964 0.8282 0.6081
H14 H 0.6653 0.6772 0.4794
H15 H 0.6457 0.5045 0.4138
H16 H 0.6109 0.6474 0.4283
H17 H 0.5942 0.0912 0.5206
H18 H 0.5978 0.1105 0.4414
H19 H 0.5630 0.2534 0.4559
H20 H 0.7136 0.2485 0.4844
H21 H 0.7437 0.0831 0.5486
H22 H 0.6901 0.0425 0.4925
H23 H 0.6927 0.1542 0.6791
H24 H 0.7308 0.0250 0.6685
H25 H 0.6772 -0.0156 0.6125
H26 H 0.7323 0.4843 0.6672
H27 H 0.7694 0.3479 0.6563
H28 H 0.7407 0.5177 0.5931
Si2 Si 0.868883(14) 0.4995(3) 0.96604(2)
O4 O 0.98410(4) 0.6523(4) 0.78132(6)
O5 O 0.98225(4) 0.6453(4) 0.92062(6)
O6 O 0.86681(5) 0.6222(4) 0.88779(10)
C16 C 0.85069(5) 0.8548(4) 0.74685(9)
C17 C 0.88605(5) 0.9902(4) 0.77497(9)
C18 C 0.93546(4) 0.8973(4) 0.81464(8)
C19 C 0.93763(4) 0.7532(4) 0.88272(7)
C20 C 0.89592(5) 0.5963(4) 0.84987(8)
C21 C 0.86613(5) 0.6293(4) 0.75945(8)
C22 C 0.93878(5) 0.7555(4) 0.75047(8)
C23 C 0.89876(6) 0.5918(4) 0.72074(8)
C24 C 0.97448(6) 1.0627(4) 0.84624(13)
C25 C 0.89099(9) 0.6856(5) 1.05183(12)
C26 C 0.91012(7) 0.2718(5) 0.99430(12)
C27 C 0.80626(6) 0.4164(5) 0.93530(10)
C28 C 0.80274(9) 0.3231(7) 1.00764(15)
C29 C 0.79093(10) 0.2500(6) 0.86860(15)
C30 C 0.77347(8) 0.6089(8) 0.9029(2)
H31 H 1.0010(7) 0.702(3) 0.7652(10)
H32 H 0.9921(7) 0.623(2) 0.8888(12)
H33 H 0.8183 0.8962 0.7209
H34 H 0.8808 1.1376 0.7706
H35 H 0.9350 0.8389 0.9218
H36 H 0.9083 0.4575 0.8593
H37 H 0.8395 0.5374 0.7377
H38 H 0.9347 0.8409 0.7063
H39 H 0.9122 0.4554 0.7346
H40 H 0.8806 0.6023 0.6640
H41 H 1.0046 0.9956 0.8704
H42 H 0.9712 1.1475 0.8850
H43 H 0.9719 1.1483 0.8030
H44 H 0.8702 0.8029 1.0382
H45 H 0.9220 0.7319 1.0636
H46 H 0.8921 0.6171 1.0975
H47 H 0.8992 0.1751 0.9509
H48 H 0.9410 0.3193 1.0063
H49 H 0.9112 0.2045 1.0402
H50 H 0.8122 0.4255 1.0490
H51 H 0.8230 0.2041 1.0270
H52 H 0.7709 0.2818 0.9917
H53 H 0.7931 0.3073 0.8237
H54 H 0.8112 0.1312 0.8881
H55 H 0.7591 0.2088 0.8527
H56 H 0.7759 0.6654 0.8582
H57 H 0.7827 0.7122 0.9438
H58 H 0.7416 0.5678 0.8866
H29? H 0.5317(5) 0.301(3) 0.6814(11)
H30? H 0.5122(6) 0.376(3) 0.5335(11)
Si3? Si 0.8278(2) 0.5057(13) 0.9066(4)
O7? O 0.8585(9) 0.648(4) 0.872(2)
C31? C 0.8172(15) 0.232(4) 0.861(2)
C32? C 0.7711(13) 0.635(8) 0.889(4)
C33? C 0.8632(7) 0.481(3) 1.0169(9)
C34? C 0.9090(9) 0.351(5) 1.0359(18)
C35? C 0.8326(11) 0.366(5) 1.0503(18)
C36? C 0.8727(10) 0.702(4) 1.0529(16)
H59? H 0.9941(7) 0.627(2) 0.8282(11)
H60? H 0.9920(7) 0.647(2) 0.9680(10)
H61? H 0.9064 0.4552 0.8627
H62? H 0.8468 0.1717 0.8714
H63? H 0.8025 0.1475 0.8852
H64? H 0.7972 0.2409 0.8052
H65? H 0.7777 0.7715 0.9128
H66? H 0.7560 0.5535 0.9133
H67? H 0.7506 0.6469 0.8333
H68? H 0.9272 0.4226 1.0152
H69? H 0.9274 0.3352 1.0923
H70? H 0.9002 0.2166 1.0115
H71? H 0.8049 0.4469 1.0384
H72? H 0.8507 0.3505 1.1068
H73? H 0.8235 0.2320 1.0259
H74? H 0.8434 0.7708 1.0389
H75? H 0.8905 0.6929 1.1097
H76? H 0.8903 0.7799 1.0324
loop_
_geom_bond_atom_site_label_1
_geom_bond_atom_site_label_2
_geom_bond_site_symmetry_1
_geom_bond_site_symmetry_2
Si1 O3 1_555 1_555
O1 C7 1_555 1_555
O2 C4 1_555 1_555
O3 C5 1_555 1_555
C1 C2 1_555 1_555
C2 C3 1_555 1_555
C3 C4 1_555 1_555
C4 C5 1_555 1_555
C5 C6 1_555 1_555
C6 C1 1_555 1_555
C7 C3 1_555 1_555
C8 C6 1_555 1_555
C9 C3 1_555 1_555
C10 Si1 1_555 1_555
C11 Si1 1_555 1_555
C12 Si1 1_555 1_555
C13 C12 1_555 1_555
C14 C12 1_555 1_555
C15 C12 1_555 1_555
H1 O1 1_555 1_555
H2 O2 1_555 1_555
H3 C1 1_555 1_555
H4 C2 1_555 1_555
H5 C4 1_555 1_555
H6 C5 1_555 1_555
H7 C6 1_555 1_555
H8 C7 1_555 1_555
H9 C8 1_555 1_555
H10 C8 1_555 1_555
H11 C9 1_555 1_555
H12 C9 1_555 1_555
H13 C9 1_555 1_555
H14 C10 1_555 1_555
H15 C10 1_555 1_555
H16 C10 1_555 1_555
H17 C11 1_555 1_555
H18 C11 1_555 1_555
H19 C11 1_555 1_555
H20 C13 1_555 1_555
H21 C13 1_555 1_555
H22 C13 1_555 1_555
H23 C14 1_555 1_555
H24 C14 1_555 1_555
H25 C14 1_555 1_555
H26 C15 1_555 1_555
H27 C15 1_555 1_555
H28 C15 1_555 1_555
Si2 O6 1_555 1_555
O4 C22 1_555 1_555
O5 C19 1_555 1_555
O6 C20 1_555 1_555
C16 C17 1_555 1_555
C17 C18 1_555 1_555
C18 C19 1_555 1_555
C19 C20 1_555 1_555
C20 C21 1_555 1_555
C21 C16 1_555 1_555
C22 C18 1_555 1_555
C23 C21 1_555 1_555
C24 C18 1_555 1_555
C25 Si2 1_555 1_555
C26 Si2 1_555 1_555
C27 Si2 1_555 1_555
C28 C27 1_555 1_555
C29 C27 1_555 1_555
C30 C27 1_555 1_555
H31 O4 1_555 1_555
H32 O5 1_555 1_555
H33 C16 1_555 1_555
H34 C17 1_555 1_555
H35 C19 1_555 1_555
H36 C20 1_555 1_555
H37 C21 1_555 1_555
H38 C22 1_555 1_555
H39 C23 1_555 1_555
H40 C23 1_555 1_555
H41 C24 1_555 1_555
H42 C24 1_555 1_555
H43 C24 1_555 1_555
H44 C25 1_555 1_555
H45 C25 1_555 1_555
H46 C25 1_555 1_555
H47 C26 1_555 1_555
H48 C26 1_555 1_555
H49 C26 1_555 1_555
H50 C28 1_555 1_555
H51 C28 1_555 1_555
H52 C28 1_555 1_555
H53 C29 1_555 1_555
H54 C29 1_555 1_555
H55 C29 1_555 1_555
H56 C30 1_555 1_555
H57 C30 1_555 1_555
H58 C30 1_555 1_555
C7 C8 1_555 1_555
C22 C23 1_555 1_555

#END
