
#######################################################################
#
#                 Cambridge Crystallographic Data Centre
#                                CCDC 
#
#######################################################################
#
# If this CIF has been generated from an entry in the Cambridge 
# Structural Database, then it will include bibliographic, chemical, 
# crystal, experimental, refinement or atomic coordinate data resulting 
# from the CCDC's data processing and validation procedures.
#
#######################################################################

data_ZEGBEU
_chemical_formula_moiety         'C6 H16 N2 2+,2(C8 H4 N1 O6 1-)'
_chemical_name_systematic        
'1,4-Dimethylpiperazinediium bis(3-carboxy-5-nitrobenzoate)'
_symmetry_cell_setting           monoclinic
_symmetry_space_group_name_H-M   'P 21/c'
_symmetry_Int_Tables_number      14
_space_group_name_Hall           '-P 2ybc'
loop_
_symmetry_equiv_pos_site_id
_symmetry_equiv_pos_as_xyz
1 x,y,z
2 -x,1/2+y,1/2-z
3 -x,-y,-z
4 x,1/2-y,1/2+z
_cell_length_a                   7.5043(18)
_cell_length_b                   20.894(5)
_cell_length_c                   7.5043(18)
_cell_angle_alpha                90
_cell_angle_beta                 90.58
_cell_angle_gamma                90
_cell_volume                     1176.58
_exptl_crystal_colour            colorless
_exptl_crystal_description       block
_cell_formula_units_Z            2
loop_
_atom_site_label
_atom_site_type_symbol
_atom_site_fract_x
_atom_site_fract_y
_atom_site_fract_z
O1 O 0.32469(14) 0.63992(5) 0.30874(15)
C1 C 0.11096(18) 0.70542(6) 0.45158(17)
N1 N 0.22209(17) 0.87841(6) 0.41956(17)
O2 O 0.12817(16) 0.59261(5) 0.48201(18)
C2 C -0.04583(19) 0.82378(7) 0.52471(18)
H1 H -0.0963 0.8635 0.5485
C3 C -0.13793(18) 0.76750(7) 0.55999(18)
C4 C 0.20358(18) 0.76138(7) 0.41447(18)
H2 H 0.3166 0.7601 0.3650
C5 C 0.12258(19) 0.81913(6) 0.45336(18)
C6 C -0.05891(18) 0.70888(7) 0.52417(18)
H3 H -0.1203 0.6713 0.5490
O3 O 0.14507(17) 0.92962(5) 0.43714(18)
O4 O -0.41259(17) 0.72264(6) 0.6543(2)
O5 O -0.36809(15) 0.82753(6) 0.68594(17)
H4 H -0.4681 0.8265 0.7289
C7 C -0.3208(2) 0.76925(7) 0.6373(2)
O6 O 0.37788(18) 0.87411(6) 0.3780(2)
C8 C 0.19500(18) 0.64135(7) 0.41100(19)
N2 N 0.65853(16) 0.99353(6) 0.11228(18)
H5 H 0.7174 1.0297 0.0801
C9 C 0.6318(2) 0.95337(7) -0.0496(2)
H6 H 0.5748 0.9135 -0.0167
H7 H 0.7466 0.9433 -0.1008
C10 C 0.4819(2) 1.01242(7) 0.1864(2)
H8 H 0.5005 1.0402 0.2885
H9 H 0.4198 0.9744 0.2267
C11 C 0.7695(2) 0.95902(9) 0.2467(3)
H10 H 0.8819 0.9478 0.1953
H11 H 0.7089 0.9208 0.2832
H12 H 0.7892 0.9861 0.3483
N2B N 0.34147(16) 1.00647(6) -0.11228(18)
H5B H 0.2826 0.9703 -0.0801
C9B C 0.3682(2) 1.04663(7) 0.0496(2)
H6B H 0.4252 1.0865 0.0167
H7B H 0.2534 1.0567 0.1008
C10B C 0.5181(2) 0.98758(7) -0.1864(2)
H8B H 0.4995 0.9598 -0.2885
H9B H 0.5802 1.0256 -0.2267
C11B C 0.2305(2) 1.04098(9) -0.2467(3)
H10B H 0.1181 1.0522 -0.1953
H11B H 0.2911 1.0792 -0.2832
H12B H 0.2108 1.0139 -0.3483
loop_
_geom_bond_atom_site_label_1
_geom_bond_atom_site_label_2
_geom_bond_site_symmetry_1
_geom_bond_site_symmetry_2
O1 C8 1_555 1_555
C1 C4 1_555 1_555
N1 C5 1_555 1_555
O2 C8 1_555 1_555
C2 H1 1_555 1_555
C3 C2 1_555 1_555
C4 H2 1_555 1_555
C5 C2 1_555 1_555
C6 C1 1_555 1_555
H3 C6 1_555 1_555
O3 N1 1_555 1_555
O4 C7 1_555 1_555
O5 H4 1_555 1_555
C7 C3 1_555 1_555
N2 H5 1_555 1_555
O6 N1 1_555 1_555
C8 C1 1_555 1_555
C9 N2 1_555 1_555
H6 C9 1_555 1_555
H7 C9 1_555 1_555
C10 N2 1_555 1_555
H8 C10 1_555 1_555
H9 C10 1_555 1_555
C11 N2 1_555 1_555
H10 C11 1_555 1_555
H11 C11 1_555 1_555
H12 C11 1_555 1_555
N2B H5B 1_555 1_555
C9B C10 1_555 1_555
H6B C9B 1_555 1_555
H7B C9B 1_555 1_555
C10B C9 1_555 1_555
H8B C10B 1_555 1_555
H9B C10B 1_555 1_555
C11B N2B 1_555 1_555
H10B C11B 1_555 1_555
H11B C11B 1_555 1_555
H12B C11B 1_555 1_555
C3 C6 1_555 1_555
C4 C5 1_555 1_555
O5 C7 1_555 1_555
N2B C9B 1_555 1_555
N2B C10B 1_555 1_555

#END
