
#######################################################################
#
#                 Cambridge Crystallographic Data Centre
#                                CCDC 
#
#######################################################################
#
# If this CIF has been generated from an entry in the Cambridge 
# Structural Database, then it will include bibliographic, chemical, 
# crystal, experimental, refinement or atomic coordinate data resulting 
# from the CCDC's data processing and validation procedures.
#
#######################################################################

data_ZEGBUK
_chemical_formula_moiety         'C6 H16 N2 2+,2(C8 H5 O5 1-),2(H2 O1)'
_chemical_name_systematic        
'1,4-Dimethylpiperazinediium bis(3-carboxy-5-hydroxybenzoate) dihydrate'
_symmetry_cell_setting           triclinic
_symmetry_space_group_name_H-M   'P -1'
_symmetry_Int_Tables_number      2
_space_group_name_Hall           '-P 1'
loop_
_symmetry_equiv_pos_site_id
_symmetry_equiv_pos_as_xyz
1 x,y,z
2 -x,-y,-z
_cell_length_a                   8.4396(14)
_cell_length_b                   8.5941(15)
_cell_length_c                   8.9356(15)
_cell_angle_alpha                88.535(4)
_cell_angle_beta                 84.804(4)
_cell_angle_gamma                66.083(4)
_cell_volume                     589.977
_exptl_crystal_colour            colorless
_exptl_crystal_description       block
_cell_formula_units_Z            1
loop_
_atom_site_label
_atom_site_type_symbol
_atom_site_fract_x
_atom_site_fract_y
_atom_site_fract_z
O1 O 0.35244(19) 0.25542(17) 0.72405(14)
O2 O 0.17154(19) -0.22739(17) 1.18369(15)
O3 O 0.03577(19) 0.38303(17) 1.35769(14)
H1 H 0.0071 0.3274 1.4220
O5 O 0.2881(2) -0.22949(18) 0.95112(16)
H2 H 0.2947 -0.3273 0.9522
O6 O 0.3330(2) 0.47208(18) 0.86419(16)
C1 C 0.1670(2) 0.3581(2) 1.10996(19)
H3 H 0.1558 0.4699 1.1169
C2 C 0.3137(2) 0.3387(2) 0.8475(2)
C3 C 0.1235(2) 0.1187(2) 1.22129(19)
H5 H 0.0833 0.0705 1.3022
C4 C 0.2434(2) 0.2638(2) 0.97840(19)
C5 C 0.2596(2) 0.0963(2) 0.96917(19)
H6 H 0.3105 0.0328 0.8816
C6 C 0.2004(2) 0.0238(2) 1.08983(19)
C7 C 0.2173(2) -0.1555(2) 1.0814(2)
C8 C 0.1075(2) 0.2853(2) 1.23070(19)
O4 O -0.1018(2) -0.1777(2) 1.40215(15)
H14 H -0.173(3) -0.207(3) 1.351(3)
H15 H -0.012(3) -0.191(4) 1.331(3)
N1 N 0.49034(19) 0.33823(18) 0.47689(16)
H4 H 0.4460 0.3256 0.5709
C9 C 0.6596(2) 0.3507(2) 0.4898(2)
H7 H 0.7103 0.3623 0.3905
H8 H 0.7395 0.2473 0.5335
C10 C 0.3653(2) 0.4989(2) 0.4138(2)
H9 H 0.2542 0.4915 0.4084
H10 H 0.4089 0.5139 0.3127
C11 C 0.5134(3) 0.1879(3) 0.3847(2)
H11 H 0.4025 0.1833 0.3782
H12 H 0.5897 0.0860 0.4306
H13 H 0.5630 0.1972 0.2856
N1A N 0.50966(19) 0.66177(18) 0.52311(16)
H4A H 0.5540 0.6744 0.4291
C9A C 0.3404(2) 0.6493(2) 0.5102(2)
H7A H 0.2897 0.6377 0.6095
H8A H 0.2605 0.7527 0.4665
C10A C 0.6347(2) 0.5011(2) 0.5862(2)
H9A H 0.7458 0.5085 0.5916
H10A H 0.5911 0.4861 0.6873
C11A C 0.4866(3) 0.8121(3) 0.6153(2)
H11A H 0.5975 0.8167 0.6218
H12A H 0.4103 0.9140 0.5694
H13A H 0.4370 0.8028 0.7144
loop_
_geom_bond_atom_site_label_1
_geom_bond_atom_site_label_2
_geom_bond_site_symmetry_1
_geom_bond_site_symmetry_2
O1 C2 1_555 1_555
O2 C7 1_555 1_555
O3 H1 1_555 1_555
O4 H14 1_555 1_555
O5 H2 1_555 1_555
O6 C2 1_555 1_555
C1 H3 1_555 1_555
C2 C4 1_555 1_555
N1 H4 1_555 1_555
C3 H5 1_555 1_555
C4 C1 1_555 1_555
C5 C4 1_555 1_555
H6 C5 1_555 1_555
C6 C3 1_555 1_555
C7 O5 1_555 1_555
C8 O3 1_555 1_555
C9 N1 1_555 1_555
H7 C9 1_555 1_555
H8 C9 1_555 1_555
C10 N1 1_555 1_555
H9 C10 1_555 1_555
H10 C10 1_555 1_555
C11 N1 1_555 1_555
H11 C11 1_555 1_555
H12 C11 1_555 1_555
H13 C11 1_555 1_555
H15 O4 1_555 1_555
N1A H4A 1_555 1_555
C9A C10 1_555 1_555
H7A C9A 1_555 1_555
H8A C9A 1_555 1_555
C10A C9 1_555 1_555
H9A C10A 1_555 1_555
H10A C10A 1_555 1_555
C11A N1A 1_555 1_555
H11A C11A 1_555 1_555
H12A C11A 1_555 1_555
H13A C11A 1_555 1_555
C1 C8 1_555 1_555
C3 C8 1_555 1_555
C5 C6 1_555 1_555
C6 C7 1_555 1_555
N1A C9A 1_555 1_555
N1A C10A 1_555 1_555

#END
