
#######################################################################
#
#                 Cambridge Crystallographic Data Centre
#                                CCDC 
#
#######################################################################
#
# If this CIF has been generated from an entry in the Cambridge 
# Structural Database, then it will include bibliographic, chemical, 
# crystal, experimental, refinement or atomic coordinate data resulting 
# from the CCDC's data processing and validation procedures.
#
#######################################################################

data_ZEGBEV
_chemical_formula_moiety         'C18 H14 O2'
_chemical_name_systematic        
(2-hydroxyphenyl)(5-methylnaphthalen-2-yl)methanone
_symmetry_cell_setting           triclinic
_symmetry_space_group_name_H-M   'P -1'
_symmetry_Int_Tables_number      2
_space_group_name_Hall           '-P 1'
loop_
_symmetry_equiv_pos_site_id
_symmetry_equiv_pos_as_xyz
1 x,y,z
2 -x,-y,-z
_cell_length_a                   7.7485(19)
_cell_length_b                   8.638(2)
_cell_length_c                   11.316(3)
_cell_angle_alpha                78.953(4)
_cell_angle_beta                 72.382(3)
_cell_angle_gamma                65.252(3)
_cell_volume                     653.728
_exptl_crystal_colour            colorless
_exptl_crystal_description       columnar
_cell_formula_units_Z            2
loop_
_atom_site_label
_atom_site_type_symbol
_atom_site_fract_x
_atom_site_fract_y
_atom_site_fract_z
O1 O 0.4189(2) 0.25285(15) 0.99583(12)
H1 H 0.4586 0.3307 0.9789
O2 O 0.44156(19) 0.53716(17) 0.88266(12)
C1 C 0.2729(2) 0.2910(2) 0.94053(14)
C2 C 0.1741(3) 0.1814(2) 0.96855(16)
H2 H 0.2153 0.0819 1.0195
C3 C 0.0166(3) 0.2186(2) 0.92178(16)
H3 H -0.0483 0.1441 0.9418
C4 C -0.0481(3) 0.3653(2) 0.84511(15)
H4 H -0.1576 0.3915 0.8156
C5 C 0.0532(2) 0.47156(19) 0.81350(14)
H5 H 0.0118 0.5693 0.7610
C6 C 0.2165(2) 0.43695(18) 0.85797(13)
C7 C 0.3228(2) 0.5518(2) 0.82544(14)
C8 C 0.2903(2) 0.68939(19) 0.72248(14)
C9 C 0.2866(2) 0.66222(19) 0.60811(13)
H6 H 0.2924 0.5568 0.5953
C10 C 0.2740(2) 0.79115(19) 0.50887(13)
C11 C 0.2811(2) 0.7602(2) 0.38930(14)
H7 H 0.2903 0.6542 0.3748
C12 C 0.2746(3) 0.8850(2) 0.29514(15)
H8 H 0.2816 0.8633 0.2161
C13 C 0.2576(2) 1.0460(2) 0.31604(16)
H9 H 0.2542 1.1291 0.2500
C14 C 0.2457(2) 1.0851(2) 0.43063(15)
C15 C 0.2570(2) 0.95474(18) 0.53065(14)
C16 C 0.2590(2) 0.9792(2) 0.65043(14)
H10 H 0.2459 1.0856 0.6667
C17 C 0.2797(2) 0.8504(2) 0.74220(14)
H11 H 0.2869 0.8684 0.8187
C18 C 0.2239(3) 1.2603(2) 0.45101(19)
H12 H 0.2350 1.3267 0.3727
H13 H 0.3250 1.2500 0.4879
H14 H 0.0977 1.3160 0.5054
loop_
_geom_bond_atom_site_label_1
_geom_bond_atom_site_label_2
_geom_bond_site_symmetry_1
_geom_bond_site_symmetry_2
O1 H1 1_555 1_555
O2 C7 1_555 1_555
C1 O1 1_555 1_555
C2 C1 1_555 1_555
H2 C2 1_555 1_555
C3 C2 1_555 1_555
H3 C3 1_555 1_555
C4 C3 1_555 1_555
H4 C4 1_555 1_555
C5 C4 1_555 1_555
H5 C5 1_555 1_555
C6 C1 1_555 1_555
C7 C6 1_555 1_555
C8 C7 1_555 1_555
C9 C8 1_555 1_555
H6 C9 1_555 1_555
C10 C9 1_555 1_555
C11 C10 1_555 1_555
H7 C11 1_555 1_555
C12 C11 1_555 1_555
H8 C12 1_555 1_555
C13 C12 1_555 1_555
H9 C13 1_555 1_555
C14 C13 1_555 1_555
C15 C10 1_555 1_555
C16 C15 1_555 1_555
H10 C16 1_555 1_555
C17 C8 1_555 1_555
H11 C17 1_555 1_555
C18 C14 1_555 1_555
H12 C18 1_555 1_555
H13 C18 1_555 1_555
H14 C18 1_555 1_555
C5 C6 1_555 1_555
C14 C15 1_555 1_555
C16 C17 1_555 1_555

#END
