
#######################################################################
#
#                 Cambridge Crystallographic Data Centre
#                                CCDC 
#
#######################################################################
#
# If this CIF has been generated from an entry in the Cambridge 
# Structural Database, then it will include bibliographic, chemical, 
# crystal, experimental, refinement or atomic coordinate data resulting 
# from the CCDC's data processing and validation procedures.
#
#######################################################################

data_ZEGCAR
_chemical_formula_moiety         'C4 H12 N2 2+,C8 H4 O5 2-'
_chemical_name_systematic        'Piperazinediium 5-hydroxyisophthalate'
_symmetry_cell_setting           monoclinic
_symmetry_space_group_name_H-M   'P 21/c'
_symmetry_Int_Tables_number      14
_space_group_name_Hall           '-P 2ybc'
loop_
_symmetry_equiv_pos_site_id
_symmetry_equiv_pos_as_xyz
1 x,y,z
2 -x,1/2+y,1/2-z
3 -x,-y,-z
4 x,1/2-y,1/2+z
_cell_length_a                   12.0146(9)
_cell_length_b                   9.6205(7)
_cell_length_c                   11.9970(9)
_cell_angle_alpha                90
_cell_angle_beta                 114.8030(10)
_cell_angle_gamma                90
_cell_volume                     1258.78
_exptl_crystal_colour            colorless
_exptl_crystal_description       block
_cell_formula_units_Z            4
loop_
_atom_site_label
_atom_site_type_symbol
_atom_site_fract_x
_atom_site_fract_y
_atom_site_fract_z
O1 O 0.61688(17) 0.2217(2) 0.09929(18)
O2 O 0.08280(18) 0.0370(3) -0.28831(18)
O3 O 0.2983(2) 0.0739(3) 0.25502(18)
H1 H 0.3579 0.1116 0.3088
O4 O -0.02416(18) 0.0971(3) -0.18444(19)
C2 C 0.2978(2) 0.1403(3) -0.0861(2)
H4 H 0.2977 0.1515 -0.1632
O5 O 0.4975(2) 0.2975(3) -0.0854(2)
C3 C 0.1919(2) 0.0774(3) 0.0386(2)
H5 H 0.1202 0.0517 0.0451
C5 C 0.4046(2) 0.1441(3) 0.1334(2)
H8 H 0.4762 0.1593 0.2039
C6 C 0.0747(2) 0.0744(3) -0.1916(2)
C7 C 0.1917(2) 0.0957(3) -0.0762(2)
C8 C 0.2993(2) 0.0977(3) 0.1440(2)
C9 C 0.4037(2) 0.1679(3) 0.0190(2)
C10 C 0.5144(2) 0.2333(3) 0.0105(2)
C1 C 0.7410(2) 0.1013(3) 0.3219(2)
H2 H 0.6794 0.1175 0.2392
H3 H 0.8134 0.0642 0.3161
C4 C 0.8073(2) 0.1141(3) 0.5819(2)
H6 H 0.8645 0.1006 0.6669
H7 H 0.7316 0.1510 0.5806
N1 N 0.8595(3) 0.2147(3) 0.5223(3)
H9 H 0.9315 0.1822 0.5267
H10 H 0.8736 0.2964 0.5623
C11 C 0.7828(3) -0.0211(3) 0.5160(3)
H11 H 0.7492 -0.0862 0.5555
H12 H 0.8590 -0.0594 0.5198
N2 N 0.6937(3) -0.0024(3) 0.3838(3)
H13 H 0.6819 -0.0844 0.3443
H14 H 0.6210 0.0265 0.3801
C12 C 0.7726(3) 0.2362(3) 0.3901(3)
H15 H 0.6982 0.2800 0.3858
H16 H 0.8099 0.2978 0.3515
loop_
_geom_bond_atom_site_label_1
_geom_bond_atom_site_label_2
_geom_bond_site_symmetry_1
_geom_bond_site_symmetry_2
O1 C10 1_555 1_555
O2 C6 1_555 1_555
O3 H1 1_555 1_555
O4 C6 1_555 1_555
C1 H2 1_555 1_555
H3 C1 1_555 1_555
C2 H4 1_555 1_555
O5 C10 1_555 1_555
C3 H5 1_555 1_555
C4 H6 1_555 1_555
H7 C4 1_555 1_555
C5 H8 1_555 1_555
C6 C7 1_555 1_555
C7 C2 1_555 1_555
C8 O3 1_555 1_555
C9 C2 1_555 1_555
C10 C9 1_555 1_555
N1 C4 1_555 1_555
H9 N1 1_555 1_555
H10 N1 1_555 1_555
C11 C4 1_555 1_555
H11 C11 1_555 1_555
H12 C11 1_555 1_555
N2 C1 1_555 1_555
H13 N2 1_555 1_555
H14 N2 1_555 1_555
C12 C1 1_555 1_555
H15 C12 1_555 1_555
H16 C12 1_555 1_555
C3 C7 1_555 1_555
C3 C8 1_555 1_555
C5 C8 1_555 1_555
C5 C9 1_555 1_555
N1 C12 1_555 1_555
C11 N2 1_555 1_555

#END
