
#######################################################################
#
#                 Cambridge Crystallographic Data Centre
#                                CCDC 
#
#######################################################################
#
# If this CIF has been generated from an entry in the Cambridge 
# Structural Database, then it will include bibliographic, chemical, 
# crystal, experimental, refinement or atomic coordinate data resulting 
# from the CCDC's data processing and validation procedures.
#
#######################################################################

data_ZEGCEV
_chemical_formula_moiety         'C6 H16 N2 2+,2(C8 H5 O4 1-)'
_chemical_name_systematic        
'1,4-Dimethylpiperazinediium bis(2-carboxybenzoate)'
_symmetry_cell_setting           monoclinic
_symmetry_space_group_name_H-M   'P 21/c'
_symmetry_Int_Tables_number      14
_space_group_name_Hall           '-P 2ybc'
loop_
_symmetry_equiv_pos_site_id
_symmetry_equiv_pos_as_xyz
1 x,y,z
2 -x,1/2+y,1/2-z
3 -x,-y,-z
4 x,1/2-y,1/2+z
_cell_length_a                   12.941(3)
_cell_length_b                   11.979(2)
_cell_length_c                   7.0729(12)
_cell_angle_alpha                90
_cell_angle_beta                 102.278(4)
_cell_angle_gamma                90
_cell_volume                     1071.36
_exptl_crystal_colour            colorless
_exptl_crystal_description       block
_cell_formula_units_Z            2
loop_
_atom_site_label
_atom_site_type_symbol
_atom_site_fract_x
_atom_site_fract_y
_atom_site_fract_z
O1 O 0.64663(11) 0.42358(12) 0.0566(2)
H1 H 0.6484 0.3552 0.0554
O2 O 0.75588(12) 0.08533(13) 0.1100(2)
C1 C 0.83458(14) 0.26476(15) 0.1404(2)
O3 O 0.75444(13) 0.56236(13) 0.1120(3)
C2 C 0.83490(14) 0.38235(16) 0.1427(3)
C3 C 0.74019(16) 0.18671(16) 0.0963(3)
O4 O 0.64803(11) 0.22567(14) 0.0452(3)
C4 C 0.93158(16) 0.20997(16) 0.1831(3)
H2 H 0.9324 0.1323 0.1829
C5 C 0.93188(17) 0.43650(17) 0.1877(4)
H3 H 0.9328 0.5141 0.1903
C6 C 0.74131(16) 0.46199(17) 0.1026(3)
C7 C 1.02624(16) 0.26646(19) 0.2256(4)
H5 H 1.0897 0.2273 0.2522
C8 C 1.02639(18) 0.3802(2) 0.2286(4)
H6 H 1.0899 0.4193 0.2580
N1 N 0.40185(13) 0.06152(13) -0.0398(3)
H4 H 0.3569 0.0022 -0.0565
C9 C 0.46926(17) 0.05432(17) 0.1592(3)
H7 H 0.4249 0.0583 0.2536
H8 H 0.5177 0.1170 0.1810
C10 C 0.46934(17) 0.05242(17) -0.1851(3)
H9 H 0.5178 0.1151 -0.1709
H10 H 0.4252 0.0550 -0.3143
C11 C 0.3369(2) 0.16500(19) -0.0661(4)
H11 H 0.2933 0.1669 0.0280
H12 H 0.2929 0.1659 -0.1938
H13 H 0.3826 0.2290 -0.0494
N1B N 0.59815(13) -0.06152(13) 0.0398(3)
H4B H 0.6431 -0.0022 0.0565
C9B C 0.53074(17) -0.05432(17) -0.1592(3)
H7B H 0.5751 -0.0583 -0.2536
H8B H 0.4823 -0.1170 -0.1810
C10B C 0.53066(17) -0.05242(17) 0.1851(3)
H9B H 0.4822 -0.1151 0.1709
H10B H 0.5748 -0.0550 0.3143
C11B C 0.6631(2) -0.16500(19) 0.0661(4)
H11B H 0.7067 -0.1669 -0.0280
H12B H 0.7071 -0.1659 0.1938
H13B H 0.6174 -0.2290 0.0494
loop_
_geom_bond_atom_site_label_1
_geom_bond_atom_site_label_2
_geom_bond_site_symmetry_1
_geom_bond_site_symmetry_2
O1 H1 1_555 1_555
O2 C3 1_555 1_555
C1 C2 1_555 1_555
O3 C6 1_555 1_555
C2 C5 1_555 1_555
C3 C1 1_555 1_555
O4 C3 1_555 1_555
C4 C1 1_555 1_555
H2 C4 1_555 1_555
C5 H3 1_555 1_555
C6 O1 1_555 1_555
N1 H4 1_555 1_555
C7 C4 1_555 1_555
H5 C7 1_555 1_555
C8 C5 1_555 1_555
H6 C8 1_555 1_555
C9 N1 1_555 1_555
H7 C9 1_555 1_555
H8 C9 1_555 1_555
C10 N1 1_555 1_555
H9 C10 1_555 1_555
H10 C10 1_555 1_555
C11 N1 1_555 1_555
H11 C11 1_555 1_555
H12 C11 1_555 1_555
H13 C11 1_555 1_555
N1B H4B 1_555 1_555
C9B C10 1_555 1_555
H7B C9B 1_555 1_555
H8B C9B 1_555 1_555
C10B C9 1_555 1_555
H9B C10B 1_555 1_555
H10B C10B 1_555 1_555
C11B N1B 1_555 1_555
H11B C11B 1_555 1_555
H12B C11B 1_555 1_555
H13B C11B 1_555 1_555
C2 C6 1_555 1_555
C7 C8 1_555 1_555
N1B C9B 1_555 1_555
N1B C10B 1_555 1_555

#END
