
#######################################################################
#
#                 Cambridge Crystallographic Data Centre
#                                CCDC 
#
#######################################################################
#
# If this CIF has been generated from an entry in the Cambridge 
# Structural Database, then it will include bibliographic, chemical, 
# crystal, experimental, refinement or atomic coordinate data resulting 
# from the CCDC's data processing and validation procedures.
#
#######################################################################

data_ZEGKUU
_chemical_formula_moiety         'C17 H15 N1 O4'
_chemical_name_systematic        
2-methyl-4-(4-nitrophenyl)-4-oxo-2-phenylbutanal
_symmetry_cell_setting           monoclinic
_symmetry_space_group_name_H-M   'P 21/n'
_symmetry_Int_Tables_number      14
_space_group_name_Hall           '-P 2yn'
loop_
_symmetry_equiv_pos_site_id
_symmetry_equiv_pos_as_xyz
1 x,y,z
2 1/2-x,1/2+y,1/2-z
3 -x,-y,-z
4 1/2+x,1/2-y,1/2+z
_cell_length_a                   6.3645(5)
_cell_length_b                   14.4689(12)
_cell_length_c                   15.7267(12)
_cell_angle_alpha                90
_cell_angle_beta                 99.228(3)
_cell_angle_gamma                90
_cell_volume                     1429.49
_exptl_crystal_colour            colorless
_exptl_crystal_description       prism
_cell_formula_units_Z            4
loop_
_atom_site_label
_atom_site_type_symbol
_atom_site_fract_x
_atom_site_fract_y
_atom_site_fract_z
C1 C 0.6684(4) 1.09700(17) 0.63338(16)
C2 C 0.7529(4) 1.01094(19) 0.65659(18)
H1 H 0.8978 1.0042 0.682
C3 C 0.6204(4) 0.93500(18) 0.64171(18)
H2 H 0.6744 0.8751 0.6572
C4 C 0.4090(4) 0.94559(17) 0.60431(17)
C5 C 0.3292(4) 1.03328(17) 0.58168(17)
H3 H 0.1845 1.0405 0.5561
C6 C 0.4599(4) 1.11014(18) 0.59632(17)
H4 H 0.4068 1.1703 0.5812
C7 C 0.2593(4) 0.86591(18) 0.58522(19)
C8 C 0.3288(7) 0.7686(2) 0.6102(4)
H5 H 0.4285 0.7702 0.6654
H6 H 0.4062 0.7428 0.5658
C9 C 0.1414(6) 0.7049(3) 0.6199(3)
C10 C 0.2103(5) 0.60174(16) 0.6271(2)
C11 C 0.4063(4) 0.57164(18) 0.6096(2)
H7 H 0.5055 0.6149 0.5939
C12 C 0.4572(4) 0.4782(2) 0.6151(2)
H8 H 0.5911 0.4576 0.6031
C13 C 0.3120(5) 0.41480(15) 0.6381(2)
H9 H 0.3468 0.3509 0.6418
C14 C 0.1160(5) 0.44490(18) 0.6556(2)
H10 H 0.0168 0.4016 0.6713
C15 C 0.0651(4) 0.5384(2) 0.6501(2)
H11 H -0.0688 0.5589 0.6621
C16 C -0.0276(8) 0.7092(3) 0.5395(3)
H12 H 0.0199 0.7085 0.4852
C17 C 0.0458(7) 0.7351(4) 0.6988(3)
H13 H 0.0152 0.8015 0.6952
H14 H 0.1472 0.7222 0.7512
H15 H -0.0864 0.7009 0.7006
O1 O -0.2167(3) 0.71358(15) 0.53950(14)
N1 N 0.8072(4) 1.17858(16) 0.64875(15)
O2 O 0.9955(4) 1.16665(15) 0.67762(16)
O3 O 0.7297(4) 1.25505(14) 0.63103(16)
O4 O 0.0812(3) 0.87959(14) 0.54506(16)
C18? C 0.322(6) 0.7653(13) 0.594(4)
H16? H 0.4381 0.759 0.6443
H17? H 0.3808 0.7464 0.5424
C19? C 0.142(5) 0.6981(18) 0.607(2)
C20? C 0.226(4) 0.5984(14) 0.6250(17)
C21? C 0.390(4) 0.5719(17) 0.5817(17)
H18? H 0.4555 0.6162 0.5497
C22? C 0.459(4) 0.4806(19) 0.5852(18)
H19? H 0.5714 0.4625 0.5556
C23? C 0.364(5) 0.4158(15) 0.6319(19)
H20? H 0.4108 0.3534 0.6343
C24? C 0.199(4) 0.4423(16) 0.6752(18)
H21? H 0.1342 0.398 0.7072
C25? C 0.131(4) 0.5335(17) 0.6717(17)
H22? H 0.0182 0.5516 0.7013
C26? C 0.033(4) 0.724(3) 0.682(2)
H23? H 0.1161 0.7475 0.7324
C27? C -0.012(7) 0.695(3) 0.521(2)
H24? H -0.132 0.6542 0.527
H25? H 0.0623 0.6714 0.4757
H26? H -0.0655 0.7574 0.506
O5? O -0.156(3) 0.7145(14) 0.6789(12)
loop_
_geom_bond_atom_site_label_1
_geom_bond_atom_site_label_2
_geom_bond_site_symmetry_1
_geom_bond_site_symmetry_2
C1 C2 1_555 1_555
C2 H1 1_555 1_555
C3 C2 1_555 1_555
H2 C3 1_555 1_555
C4 C3 1_555 1_555
C5 C4 1_555 1_555
H3 C5 1_555 1_555
C6 C1 1_555 1_555
H4 C6 1_555 1_555
C7 C4 1_555 1_555
C8 C7 1_555 1_555
H5 C8 1_555 1_555
H6 C8 1_555 1_555
C9 C8 1_555 1_555
C10 C9 1_555 1_555
C11 C10 1_555 1_555
H7 C11 1_555 1_555
C12 C11 1_555 1_555
H8 C12 1_555 1_555
C13 C12 1_555 1_555
H9 C13 1_555 1_555
C14 C13 1_555 1_555
H10 C14 1_555 1_555
C15 C10 1_555 1_555
H11 C15 1_555 1_555
C16 C9 1_555 1_555
H12 C16 1_555 1_555
C17 C9 1_555 1_555
H13 C17 1_555 1_555
H14 C17 1_555 1_555
H15 C17 1_555 1_555
O1 C16 1_555 1_555
N1 C1 1_555 1_555
O2 N1 1_555 1_555
O3 N1 1_555 1_555
O4 C7 1_555 1_555
C5 C6 1_555 1_555
C14 C15 1_555 1_555

#END
