
#######################################################################
#
#                 Cambridge Crystallographic Data Centre
#                                CCDC 
#
#######################################################################
#
# If this CIF has been generated from an entry in the Cambridge 
# Structural Database, then it will include bibliographic, chemical, 
# crystal, experimental, refinement or atomic coordinate data resulting 
# from the CCDC's data processing and validation procedures.
#
#######################################################################

data_ZEGPAF
_chemical_formula_moiety         'C28 H26 O2 S2'
_chemical_name_systematic        
2,8-bis(butylsulfanyl)indeno[1,2-b]fluorene-6,12-dione
_symmetry_cell_setting           triclinic
_symmetry_space_group_name_H-M   'P -1'
_symmetry_Int_Tables_number      2
_space_group_name_Hall           '-P 1'
loop_
_symmetry_equiv_pos_site_id
_symmetry_equiv_pos_as_xyz
1 x,y,z
2 -x,-y,-z
_cell_length_a                   5.2328(15)
_cell_length_b                   5.5914(12)
_cell_length_c                   20.128(4)
_cell_angle_alpha                91.160(17)
_cell_angle_beta                 93.764(20)
_cell_angle_gamma                94.79(2)
_cell_volume                     585.4
_exptl_crystal_colour            'dark brown'
_exptl_crystal_description       plate
_cell_formula_units_Z            1
loop_
_atom_site_label
_atom_site_type_symbol
_atom_site_fract_x
_atom_site_fract_y
_atom_site_fract_z
S1 S 0.94730(18) 0.05633(17) 0.20359(4)
O1 O 1.7499(4) 0.0573(4) 0.41528(10)
C1 C 1.2716(6) -0.6557(5) 0.48168(13)
H1 H 1.1247 -0.7573 0.4703
C2 C 1.3422(5) -0.4570(5) 0.44441(12)
C3 C 1.5641(6) -0.3081(5) 0.46286(13)
C4 C 1.5861(6) -0.1078(5) 0.41455(14)
C5 C 1.3593(5) -0.1549(5) 0.36597(13)
C6 C 1.2154(6) -0.3623(5) 0.38309(13)
C7 C 0.9952(6) -0.4423(5) 0.34489(13)
H2 H 0.8976 -0.5811 0.3556
C8 C 0.9220(6) -0.3097(6) 0.28955(14)
H3 H 0.7748 -0.3626 0.2631
C9 C 1.0652(6) -0.0998(5) 0.27323(13)
C10 C 1.2880(6) -0.0217(5) 0.31172(13)
H4 H 1.3866 0.1168 0.3012
C11 C 1.2129(6) 0.2706(6) 0.18823(15)
H5 H 1.2505 0.3786 0.2266
H6 H 1.3646 0.1868 0.1815
C12 C 1.1481(7) 0.4137(6) 0.12714(16)
H7 H 1.1119 0.3052 0.0888
H8 H 0.9948 0.4952 0.1337
C13 C 1.3674(8) 0.5971(8) 0.1136(2)
H9 H 1.4040 0.7038 0.1523
H10 H 1.5199 0.5145 0.1071
C14 C 1.3097(11) 0.7451(9) 0.0532(2)
H11 H 1.2877 0.6422 0.0141
H12 H 1.4499 0.8644 0.0486
H13 H 1.1550 0.8224 0.0585
S1A S 2.05270(18) -1.05633(17) 0.79641(4)
O1A O 1.2501(4) -1.0573(4) 0.58472(10)
C1A C 1.7284(6) -0.3443(5) 0.51832(13)
H1A H 1.8753 -0.2427 0.5297
C2A C 1.6578(5) -0.5430(5) 0.55559(12)
C3A C 1.4359(6) -0.6919(5) 0.53714(13)
C4A C 1.4139(6) -0.8922(5) 0.58545(14)
C5A C 1.6407(5) -0.8451(5) 0.63403(13)
C6A C 1.7846(6) -0.6377(5) 0.61691(13)
C7A C 2.0048(6) -0.5577(5) 0.65511(13)
H2A H 2.1024 -0.4189 0.6444
C8A C 2.0780(6) -0.6903(6) 0.71045(14)
H3A H 2.2252 -0.6374 0.7369
C9A C 1.9348(6) -0.9002(5) 0.72677(13)
C10A C 1.7120(6) -0.9783(5) 0.68828(13)
H4A H 1.6134 -1.1168 0.6988
C11A C 1.7871(6) -1.2706(6) 0.81177(15)
H5A H 1.7495 -1.3786 0.7734
H6A H 1.6354 -1.1868 0.8185
C12A C 1.8519(7) -1.4137(6) 0.87286(16)
H7A H 1.8881 -1.3052 0.9112
H8A H 2.0052 -1.4952 0.8663
C13A C 1.6326(8) -1.5971(8) 0.8864(2)
H9A H 1.5960 -1.7038 0.8477
H10A H 1.4801 -1.5145 0.8929
C14A C 1.6903(11) -1.7451(9) 0.9468(2)
H11A H 1.7123 -1.6422 0.9859
H12A H 1.5501 -1.8644 0.9514
H13A H 1.8450 -1.8224 0.9415
loop_
_geom_bond_atom_site_label_1
_geom_bond_atom_site_label_2
_geom_bond_site_symmetry_1
_geom_bond_site_symmetry_2
S1 C9 1_555 1_555
O1 C4 1_555 1_555
C1 H1 1_555 1_555
C2 C1 1_555 1_555
C3 C2 1_555 1_555
C4 C3 1_555 1_555
C5 C4 1_555 1_555
C6 C2 1_555 1_555
C7 C6 1_555 1_555
H2 C7 1_555 1_555
C8 C7 1_555 1_555
H3 C8 1_555 1_555
C9 C8 1_555 1_555
C10 C5 1_555 1_555
H4 C10 1_555 1_555
C11 S1 1_555 1_555
H5 C11 1_555 1_555
H6 C11 1_555 1_555
C12 C11 1_555 1_555
H7 C12 1_555 1_555
H8 C12 1_555 1_555
C13 C12 1_555 1_555
H9 C13 1_555 1_555
H10 C13 1_555 1_555
C14 C13 1_555 1_555
H11 C14 1_555 1_555
H12 C14 1_555 1_555
H13 C14 1_555 1_555
S1A C9A 1_555 1_555
O1A C4A 1_555 1_555
C1A C3 1_555 1_555
H1A C1A 1_555 1_555
C2A C1A 1_555 1_555
C3A C1 1_555 1_555
C4A C3A 1_555 1_555
C5A C4A 1_555 1_555
C6A C2A 1_555 1_555
C7A C6A 1_555 1_555
H2A C7A 1_555 1_555
C8A C7A 1_555 1_555
H3A C8A 1_555 1_555
C9A C8A 1_555 1_555
C10A C5A 1_555 1_555
H4A C10A 1_555 1_555
C11A S1A 1_555 1_555
H5A C11A 1_555 1_555
H6A C11A 1_555 1_555
C12A C11A 1_555 1_555
H7A C12A 1_555 1_555
H8A C12A 1_555 1_555
C13A C12A 1_555 1_555
H9A C13A 1_555 1_555
H10A C13A 1_555 1_555
C14A C13A 1_555 1_555
H11A C14A 1_555 1_555
H12A C14A 1_555 1_555
H13A C14A 1_555 1_555
C5 C6 1_555 1_555
C9 C10 1_555 1_555
C2A C3A 1_555 1_555
C5A C6A 1_555 1_555
C9A C10A 1_555 1_555

#END
