
#######################################################################
#
#                 Cambridge Crystallographic Data Centre
#                                CCDC 
#
#######################################################################
#
# If this CIF has been generated from an entry in the Cambridge 
# Structural Database, then it will include bibliographic, chemical, 
# crystal, experimental, refinement or atomic coordinate data resulting 
# from the CCDC's data processing and validation procedures.
#
#######################################################################

data_ZEGZOD
_chemical_formula_moiety         'C20 H24 N4 2+,C10 H4 O8 2-,2(H2 O1)'
_chemical_name_systematic        
"1,1'-(butane-1,4-diyl)bis(2-methyl-1H-benzimidazol-3-ium) 2,5-dicarboxyterephthalate dihydrate"
_symmetry_cell_setting           monoclinic
_symmetry_space_group_name_H-M   'P 21/c'
_symmetry_Int_Tables_number      14
_space_group_name_Hall           '-P 2ybc'
loop_
_symmetry_equiv_pos_site_id
_symmetry_equiv_pos_as_xyz
1 x,y,z
2 -x,1/2+y,1/2-z
3 -x,-y,-z
4 x,1/2-y,1/2+z
_cell_length_a                   8.8221(3)
_cell_length_b                   9.7048(3)
_cell_length_c                   16.4991(5)
_cell_angle_alpha                90
_cell_angle_beta                 99.964(3)
_cell_angle_gamma                90
_cell_volume                     1391.29
_exptl_crystal_colour            colorless
_exptl_crystal_description       block
_cell_formula_units_Z            2
loop_
_atom_site_label
_atom_site_type_symbol
_atom_site_fract_x
_atom_site_fract_y
_atom_site_fract_z
O1 O 0.54506(18) 0.24419(15) 0.16738(9)
O2 O 0.58451(18) 0.37172(16) -0.19622(9)
H1 H 0.5685 0.3265 -0.2388
O3 O 0.39434(19) 0.24231(16) -0.16322(9)
O4 O 0.68340(19) 0.43371(16) 0.20935(10)
C1 C 0.5305(2) 0.3597(2) 0.00339(13)
H2 H 0.5502 0.2655 0.0058
C2 C 0.4849(2) 0.3378(2) -0.15001(13)
C3 C 0.4932(2) 0.4240(2) -0.07275(13)
C4 C 0.5927(2) 0.3652(2) 0.15830(12)
C5 C 0.5386(2) 0.4347(2) 0.07648(13)
O1B O 0.45494(18) 0.75581(15) -0.16738(9)
O2B O 0.41549(18) 0.62828(16) 0.19622(9)
H1B H 0.4315 0.6735 0.2388
O3B O 0.60566(19) 0.75769(16) 0.16322(9)
O4B O 0.31660(19) 0.56629(16) -0.20935(10)
C1B C 0.4695(2) 0.6403(2) -0.00339(13)
H2B H 0.4498 0.7345 -0.0058
C2B C 0.5151(2) 0.6622(2) 0.15001(13)
C3B C 0.5068(2) 0.5760(2) 0.07275(13)
C4B C 0.4073(2) 0.6348(2) -0.15830(12)
C5B C 0.4614(2) 0.5653(2) -0.07648(13)
N1 N 0.0011(2) 0.75362(18) 0.05478(11)
N2 N 0.1679(2) 0.86119(19) 0.14593(11)
H3 H 0.2179 0.8884 0.1926
C6 C 0.1946(2) 0.9046(2) 0.06985(13)
C7 C 0.0883(2) 0.8360(2) 0.01113(13)
C8 C -0.1236(3) 0.6594(2) 0.01882(14)
H4 H -0.1612 0.6860 -0.0378
H5 H -0.2082 0.6675 0.0491
C9 C 0.3000(3) 0.9983(2) 0.04742(14)
H6 H 0.3705 1.0447 0.0864
C10 C 0.0812(3) 0.8567(2) -0.07297(13)
H7 H 0.0099 0.8111 -0.1119
C11 C 0.0530(2) 0.7708(2) 0.13574(13)
C12 C -0.0057(3) 0.6994(3) 0.20330(14)
H8 H 0.0413 0.6101 0.2117
H9 H -0.1153 0.6892 0.1891
H10 H 0.0190 0.7525 0.2529
C13 C 0.2936(3) 1.0180(2) -0.03597(15)
H11 H 0.3625 1.0789 -0.0536
C14 C 0.1860(3) 0.9487(2) -0.09523(15)
H12 H 0.1856 0.9655 -0.1508
C15 C -0.0695(3) 0.5105(2) 0.02112(14)
H13 H -0.1533 0.4528 -0.0056
H14 H -0.0432 0.4810 0.0780
N1B N -0.0011(2) 0.24638(18) -0.05478(11)
N2B N -0.1679(2) 0.13881(19) -0.14593(11)
H3B H -0.2179 0.1116 -0.1926
C6B C -0.1946(2) 0.0954(2) -0.06985(13)
C7B C -0.0883(2) 0.1640(2) -0.01113(13)
C8B C 0.1236(3) 0.3406(2) -0.01882(14)
H4B H 0.1612 0.3140 0.0378
H5B H 0.2082 0.3325 -0.0491
C9B C -0.3000(3) 0.0017(2) -0.04742(14)
H6B H -0.3705 -0.0447 -0.0864
C10B C -0.0812(3) 0.1433(2) 0.07297(13)
H7B H -0.0099 0.1889 0.1119
C11B C -0.0530(2) 0.2292(2) -0.13574(13)
C12B C 0.0057(3) 0.3006(3) -0.20330(14)
H8B H -0.0413 0.3899 -0.2117
H9B H 0.1153 0.3108 -0.1891
H10B H -0.0190 0.2475 -0.2529
C13B C -0.2936(3) -0.0180(2) 0.03597(15)
H11B H -0.3625 -0.0789 0.0536
C14B C -0.1860(3) 0.0513(2) 0.09523(15)
H12B H -0.1856 0.0345 0.1508
C15B C 0.0695(3) 0.4895(2) -0.02112(14)
H13B H 0.1533 0.5472 0.0056
H14B H 0.0432 0.5190 -0.0780
O5 O 0.78757(19) 0.60310(18) 0.80513(11)
H15 H 0.734(3) 0.652(3) 0.7670(15)
H16 H 0.732(3) 0.533(2) 0.811(2)
loop_
_geom_bond_atom_site_label_1
_geom_bond_atom_site_label_2
_geom_bond_site_symmetry_1
_geom_bond_site_symmetry_2
O1 C4 1_555 1_555
O2 H1 1_555 1_555
O3 C2 1_555 1_555
O4 C4 1_555 1_555
C1 H2 1_555 1_555
C2 O2 1_555 1_555
C3 C1 1_555 1_555
C4 C5 1_555 1_555
C5 C1 1_555 1_555
N1 C7 1_555 1_555
N2 H3 1_555 1_555
C6 N2 1_555 1_555
C7 C6 1_555 1_555
C8 N1 1_555 1_555
H4 C8 1_555 1_555
H5 C8 1_555 1_555
C9 C6 1_555 1_555
H6 C9 1_555 1_555
C10 C7 1_555 1_555
H7 C10 1_555 1_555
C11 N1 1_555 1_555
C12 C11 1_555 1_555
H8 C12 1_555 1_555
H9 C12 1_555 1_555
H10 C12 1_555 1_555
C13 C9 1_555 1_555
H11 C13 1_555 1_555
C14 C10 1_555 1_555
H12 C14 1_555 1_555
C15 C8 1_555 1_555
H13 C15 1_555 1_555
H14 C15 1_555 1_555
O5 H15 1_555 1_555
H16 O5 1_555 1_555
O1B C4B 1_555 1_555
O2B H1B 1_555 1_555
O3B C2B 1_555 1_555
O4B C4B 1_555 1_555
C1B H2B 1_555 1_555
C2B O2B 1_555 1_555
C3B C5 1_555 1_555
C4B C5B 1_555 1_555
C5B C3 1_555 1_555
N1B C7B 1_555 1_555
N2B H3B 1_555 1_555
C6B N2B 1_555 1_555
C7B C6B 1_555 1_555
C8B N1B 1_555 1_555
H4B C8B 1_555 1_555
H5B C8B 1_555 1_555
C9B C6B 1_555 1_555
H6B C9B 1_555 1_555
C10B C7B 1_555 1_555
H7B C10B 1_555 1_555
C11B N1B 1_555 1_555
C12B C11B 1_555 1_555
H8B C12B 1_555 1_555
H9B C12B 1_555 1_555
H10B C12B 1_555 1_555
C13B C9B 1_555 1_555
H11B C13B 1_555 1_555
C14B C10B 1_555 1_555
H12B C14B 1_555 1_555
C15B C15 1_555 1_555
H13B C15B 1_555 1_555
H14B C15B 1_555 1_555
C2 C3 1_555 1_555
N2 C11 1_555 1_555
C13 C14 1_555 1_555
C1B C3B 1_555 1_555
C1B C5B 1_555 1_555
C2B C3B 1_555 1_555
N2B C11B 1_555 1_555
C8B C15B 1_555 1_555
C13B C14B 1_555 1_555

#END
