
#######################################################################
#
#                 Cambridge Crystallographic Data Centre
#                                CCDC 
#
#######################################################################
#
# If this CIF has been generated from an entry in the Cambridge 
# Structural Database, then it will include bibliographic, chemical, 
# crystal, experimental, refinement or atomic coordinate data resulting 
# from the CCDC's data processing and validation procedures.
#
#######################################################################

data_ZEHBAR
_chemical_formula_moiety         'C31 H31 N5 2+,2(H2 O1),2(Cl1 1-)'
_chemical_name_systematic        
'2-(((4-(4-(((pyridinium-2-yl)methyl)amino)benzyl)phenyl)(pyridin-2-ylmethyl)amino)methyl)pyridinium dichloride dihydrate'
_symmetry_cell_setting           monoclinic
_symmetry_space_group_name_H-M   'P 21/n'
_symmetry_Int_Tables_number      14
_space_group_name_Hall           '-P 2yn'
loop_
_symmetry_equiv_pos_site_id
_symmetry_equiv_pos_as_xyz
1 x,y,z
2 1/2-x,1/2+y,1/2-z
3 -x,-y,-z
4 1/2+x,1/2-y,1/2+z
_cell_length_a                   14.573(10)
_cell_length_b                   11.493(8)
_cell_length_c                   17.074(13)
_cell_angle_alpha                90
_cell_angle_beta                 97.932(14)
_cell_angle_gamma                90
_cell_volume                     2832.32
_exptl_crystal_colour            yellow
_exptl_crystal_description       prism
_cell_formula_units_Z            4
loop_
_atom_site_label
_atom_site_type_symbol
_atom_site_fract_x
_atom_site_fract_y
_atom_site_fract_z
Cl1 Cl 0.08663(8) 0.95117(11) 0.23735(7)
Cl2 Cl 0.67886(9) 0.91726(11) 0.48564(7)
O1 O 0.7687(3) 0.4328(3) 0.8301(2)
H32 H 0.719(4) 0.463(5) 0.812(4)
H33 H 0.770(4) 0.435(5) 0.884(4)
O2 O 0.7283(3) 0.1965(4) 0.7809(3)
H34 H 0.740(5) 0.276(8) 0.798(5)
H35 H 0.778(5) 0.160(7) 0.782(4)
N1 N 0.5085(3) -0.2446(3) -0.0148(2)
H1 H 0.5047 -0.1896 -0.0510
N2 N 0.4989(2) -0.0647(3) -0.1199(2)
N3 N 0.6706(2) -0.1839(3) -0.0833(2)
N4 N 0.5336(3) 0.2156(3) 0.3175(2)
H2 H 0.4955 0.2708 0.2976
N5 N 0.5906(3) 0.1472(3) 0.5189(2)
H3 H 0.6094 0.0774 0.5071
C1 C 0.4419(3) -0.2570(4) 0.0321(3)
H4 H 0.3900 -0.2063 0.0246
C2 C 0.4465(3) -0.3409(4) 0.0908(3)
H5 H 0.3991 -0.3466 0.1236
C3 C 0.5214(3) -0.4166(4) 0.1009(3)
H6 H 0.5258 -0.4753 0.1405
C4 C 0.5898(3) -0.4051(4) 0.0524(3)
H7 H 0.6417 -0.4559 0.0584
C5 C 0.5817(3) -0.3188(4) -0.0049(3)
C6 C 0.6523(3) -0.3040(4) -0.0620(3)
H8 H 0.7114 -0.3398 -0.0381
H9 H 0.6303 -0.3476 -0.1110
C7 C 0.4265(3) 0.0100(4) -0.1232(3)
H10 H 0.3828 0.0007 -0.0871
C8 C 0.4149(3) 0.0989(4) -0.1774(3)
H11 H 0.3638 0.1505 -0.1793
C9 C 0.4797(3) 0.1117(4) -0.2296(3)
H12 H 0.4731 0.1722 -0.2679
C10 C 0.5541(3) 0.0353(4) -0.2254(3)
H13 H 0.5991 0.0444 -0.2602
C11 C 0.5626(3) -0.0536(4) -0.1707(3)
C12 C 0.6402(3) -0.1434(4) -0.1632(3)
H14 H 0.6192 -0.2113 -0.1965
H15 H 0.6941 -0.1092 -0.1844
C13 C 0.7201(3) -0.1077(4) -0.0284(3)
C14 C 0.7359(3) 0.0093(4) -0.0477(3)
H16 H 0.7168 0.0363 -0.1000
C15 C 0.7792(3) 0.0857(4) 0.0091(3)
H17 H 0.7886 0.1642 -0.0053
C16 C 0.8091(3) 0.0503(4) 0.0863(3)
C17 C 0.7981(3) -0.0673(4) 0.1037(3)
H18 H 0.8214 -0.0949 0.1551
C18 C 0.7543(3) -0.1452(4) 0.0485(2)
H19 H 0.7475 -0.2244 0.0627
C19 C 0.8442(3) 0.1371(4) 0.1510(3)
H20 H 0.8640 0.2095 0.1268
H21 H 0.8985 0.1041 0.1851
C20 C 0.7680(3) 0.1650(4) 0.2012(3)
C21 C 0.7557(3) 0.0984(4) 0.2670(3)
H22 H 0.7999 0.0400 0.2844
C22 C 0.6802(3) 0.1147(4) 0.3082(3)
H23 H 0.6743 0.0683 0.3533
C23 C 0.6137(3) 0.1985(4) 0.2835(3)
C24 C 0.6263(3) 0.2690(4) 0.2172(3)
H24 H 0.5825 0.3281 0.2002
C25 C 0.7019(3) 0.2522(4) 0.1771(3)
H25 H 0.7093 0.2999 0.1330
C26 C 0.5079(3) 0.1495(4) 0.3833(3)
H26 H 0.5368 0.0716 0.3835
H27 H 0.4398 0.1385 0.3753
C27 C 0.5361(3) 0.2059(4) 0.4629(3)
C28 C 0.5062(3) 0.3167(4) 0.4817(3)
H28 H 0.4674 0.3606 0.4433
C29 C 0.5333(3) 0.3627(4) 0.5566(3)
H29 H 0.5131 0.4381 0.5693
C30 C 0.5902(3) 0.2980(4) 0.6131(3)
H30 H 0.6087 0.3287 0.6645
C31 C 0.6189(3) 0.1891(4) 0.5934(3)
H31 H 0.6577 0.1437 0.6309
loop_
_geom_bond_atom_site_label_1
_geom_bond_atom_site_label_2
_geom_bond_site_symmetry_1
_geom_bond_site_symmetry_2
O1 H32 1_555 1_555
O2 H34 1_555 1_555
N1 H1 1_555 1_555
N2 C7 1_555 1_555
N3 C6 1_555 1_555
N4 H2 1_555 1_555
N5 H3 1_555 1_555
C1 N1 1_555 1_555
H4 C1 1_555 1_555
C2 C1 1_555 1_555
H5 C2 1_555 1_555
C3 C2 1_555 1_555
H6 C3 1_555 1_555
C4 C3 1_555 1_555
H7 C4 1_555 1_555
C5 N1 1_555 1_555
C6 C5 1_555 1_555
H8 C6 1_555 1_555
H9 C6 1_555 1_555
C7 H10 1_555 1_555
C8 C7 1_555 1_555
H11 C8 1_555 1_555
C9 C8 1_555 1_555
H12 C9 1_555 1_555
C10 C9 1_555 1_555
H13 C10 1_555 1_555
C11 N2 1_555 1_555
C12 N3 1_555 1_555
H14 C12 1_555 1_555
H15 C12 1_555 1_555
C13 N3 1_555 1_555
C14 C13 1_555 1_555
H16 C14 1_555 1_555
C15 C14 1_555 1_555
H17 C15 1_555 1_555
C16 C15 1_555 1_555
C17 C16 1_555 1_555
H18 C17 1_555 1_555
C18 C13 1_555 1_555
H19 C18 1_555 1_555
C19 C16 1_555 1_555
H20 C19 1_555 1_555
H21 C19 1_555 1_555
C20 C19 1_555 1_555
C21 C20 1_555 1_555
H22 C21 1_555 1_555
C22 C21 1_555 1_555
H23 C22 1_555 1_555
C23 N4 1_555 1_555
C24 C23 1_555 1_555
H24 C24 1_555 1_555
C25 C20 1_555 1_555
H25 C25 1_555 1_555
C26 N4 1_555 1_555
H26 C26 1_555 1_555
H27 C26 1_555 1_555
C27 N5 1_555 1_555
C28 C27 1_555 1_555
H28 C28 1_555 1_555
C29 C28 1_555 1_555
H29 C29 1_555 1_555
C30 C29 1_555 1_555
H30 C30 1_555 1_555
C31 N5 1_555 1_555
H31 C31 1_555 1_555
H33 O1 1_555 1_555
H35 O2 1_555 1_555
C4 C5 1_555 1_555
C10 C11 1_555 1_555
C11 C12 1_555 1_555
C17 C18 1_555 1_555
C22 C23 1_555 1_555
C24 C25 1_555 1_555
C26 C27 1_555 1_555
C30 C31 1_555 1_555

#END
