
#######################################################################
#
#                 Cambridge Crystallographic Data Centre
#                                CCDC 
#
#######################################################################
#
# If this CIF has been generated from an entry in the Cambridge 
# Structural Database, then it will include bibliographic, chemical, 
# crystal, experimental, refinement or atomic coordinate data resulting 
# from the CCDC's data processing and validation procedures.
#
#######################################################################

data_ZEHFEZ
_chemical_formula_moiety         'C11 H15 N1 O6 S1'
_chemical_name_systematic        
"7,7-Dimethyl-3a,4,5a,5b,8a,9a-hexahydro-3H-[1,3]dioxolo[4',5']furo[2',3':5,6]thiopyrano[4,3-c][1,2]oxazole 5,5-dioxide"
_symmetry_cell_setting           triclinic
_symmetry_space_group_name_H-M   'P 1'
_symmetry_Int_Tables_number      1
_space_group_name_Hall           'P 1'
loop_
_symmetry_equiv_pos_site_id
_symmetry_equiv_pos_as_xyz
1 x,y,z
_cell_length_a                   6.8767(5)
_cell_length_b                   8.3370(7)
_cell_length_c                   11.2958(9)
_cell_angle_alpha                89.913(4)
_cell_angle_beta                 75.058(3)
_cell_angle_gamma                89.886(4)
_cell_volume                     625.701
_exptl_crystal_colour            white
_exptl_crystal_description       needle
_cell_formula_units_Z            2
loop_
_atom_site_label
_atom_site_type_symbol
_atom_site_fract_x
_atom_site_fract_y
_atom_site_fract_z
S1 S 1.24667(12) 0.58771(10) 0.10328(8)
N2 N 0.7912(5) 0.5296(4) -0.0917(3)
O7 O 0.7443(4) 0.6154(3) 0.3663(2)
O8 O 0.6941(5) 0.3461(3) 0.3705(3)
O9 O 0.8350(4) 0.3691(3) 0.1598(2)
O10 O 0.8965(4) 0.5110(3) -0.2154(2)
O11 O 1.3556(5) 0.7162(4) 0.1424(3)
O12 O 1.2966(5) 0.4283(4) 0.1302(3)
C12 C 0.6543(10) 0.4790(7) 0.5618(4)
H16 H 0.5772 0.3912 0.6050
H17 H 0.6107 0.5771 0.6050
H18 H 0.7944 0.4619 0.5565
C13 C 0.4101(8) 0.5170(7) 0.4333(5)
H19 H 0.4017 0.5253 0.3500
H20 H 0.3620 0.6145 0.4761
H21 H 0.3291 0.4288 0.4726
C14 C 0.6239(7) 0.4896(5) 0.4353(3)
C15 C 0.8696(6) 0.3742(4) 0.2776(3)
H22 H 0.9761 0.2987 0.2836
C16 C 0.9285(6) 0.5450(5) 0.2995(3)
H23 H 1.0365 0.5518 0.3413
C17 C 0.9816(5) 0.6208(4) 0.1726(3)
H24 H 0.9491 0.7355 0.1770
C18 C 0.8429(5) 0.5271(4) 0.1105(3)
H25 H 0.7079 0.5746 0.1336
C19 C 0.9117(5) 0.5153(4) -0.0248(3)
C20 C 1.1258(6) 0.4841(4) -0.0925(3)
H26 H 1.1638 0.3740 -0.0775
C21 C 1.1106(7) 0.5012(5) -0.2231(3)
H27 H 1.1791 0.5975 -0.2603
H28 H 1.1704 0.4093 -0.2716
C22 C 1.2694(6) 0.6041(5) -0.0554(4)
H29 H 1.2362 0.7124 -0.0750
H30 H 1.4069 0.5817 -0.1005
S2 S 0.55281(12) 0.08790(10) 0.84522(8)
N1 N 1.0080(5) 0.0297(4) 1.0401(3)
O1 O 1.0556(4) 0.1155(3) 0.5825(2)
O2 O 1.1059(5) -0.1543(3) 0.5780(3)
O3 O 0.9645(4) -0.1304(3) 0.7886(2)
O4 O 0.9025(4) 0.0105(3) 1.1638(2)
O5 O 0.5032(4) -0.0723(3) 0.8182(3)
O6 O 0.4440(5) 0.2151(4) 0.8065(3)
C1 C 1.3895(8) 0.0161(7) 0.5155(5)
H1 H 1.3991 0.0163 0.5988
H2 H 1.4353 0.1172 0.4779
H3 H 1.4716 -0.0687 0.4712
C2 C 1.1458(10) -0.0207(7) 0.3873(4)
H4 H 1.2204 -0.1104 0.3453
H5 H 1.1926 0.0762 0.3431
H6 H 1.0054 -0.0348 0.3924
C3 C 1.1754(7) -0.0098(5) 0.5133(3)
C4 C 0.9299(6) -0.1252(4) 0.6711(3)
H7 H 0.8234 -0.2004 0.6654
C5 C 0.8705(6) 0.0462(4) 0.6494(3)
H8 H 0.7626 0.0536 0.6075
C6 C 0.8174(5) 0.1206(4) 0.7761(3)
H9 H 0.8492 0.2354 0.7718
C7 C 0.9573(5) 0.0271(4) 0.8382(3)
H10 H 1.0921 0.0745 0.8151
C8 C 0.8876(5) 0.0150(4) 0.9736(3)
C9 C 0.6730(6) -0.0152(4) 1.0410(3)
H11 H 0.6348 -0.1250 1.0259
C10 C 0.6889(7) 0.0006(5) 1.1718(3)
H12 H 0.6199 0.0964 1.2096
H13 H 0.6300 -0.0919 1.2200
C11 C 0.5319(6) 0.1038(5) 1.0040(4)
H14 H 0.5657 0.2119 1.0232
H15 H 0.3944 0.0822 1.0495
loop_
_geom_bond_atom_site_label_1
_geom_bond_atom_site_label_2
_geom_bond_site_symmetry_1
_geom_bond_site_symmetry_2
S1 O11 1_555 1_555
S2 O5 1_555 1_555
N1 O4 1_555 1_555
N2 O10 1_555 1_555
O1 C3 1_555 1_555
O2 C3 1_555 1_555
O3 C4 1_555 1_555
O4 C10 1_555 1_555
O6 S2 1_555 1_555
O7 C14 1_555 1_555
O8 C14 1_555 1_555
O9 C15 1_555 1_555
O10 C21 1_555 1_555
O12 S1 1_555 1_555
C1 H1 1_555 1_555
H2 C1 1_555 1_555
H3 C1 1_555 1_555
C2 H4 1_555 1_555
H5 C2 1_555 1_555
H6 C2 1_555 1_555
C3 C1 1_555 1_555
C4 O2 1_555 1_555
H7 C4 1_555 1_555
C5 O1 1_555 1_555
H8 C5 1_555 1_555
C6 S2 1_555 1_555
H9 C6 1_555 1_555
C7 O3 1_555 1_555
H10 C7 1_555 1_555
C8 N1 1_555 1_555
C9 C8 1_555 1_555
H11 C9 1_555 1_555
C10 C9 1_555 1_555
H12 C10 1_555 1_555
H13 C10 1_555 1_555
C11 S2 1_555 1_555
H14 C11 1_555 1_555
H15 C11 1_555 1_555
C12 H16 1_555 1_555
H17 C12 1_555 1_555
H18 C12 1_555 1_555
C13 H19 1_555 1_555
H20 C13 1_555 1_555
H21 C13 1_555 1_555
C14 C12 1_555 1_555
C15 O8 1_555 1_555
H22 C15 1_555 1_555
C16 O7 1_555 1_555
H23 C16 1_555 1_555
C17 S1 1_555 1_555
H24 C17 1_555 1_555
C18 O9 1_555 1_555
H25 C18 1_555 1_555
C19 N2 1_555 1_555
C20 C19 1_555 1_555
H26 C20 1_555 1_555
C21 C20 1_555 1_555
H27 C21 1_555 1_555
H28 C21 1_555 1_555
C22 S1 1_555 1_555
H29 C22 1_555 1_555
H30 C22 1_555 1_555
C2 C3 1_555 1_555
C4 C5 1_555 1_555
C5 C6 1_555 1_555
C6 C7 1_555 1_555
C7 C8 1_555 1_555
C9 C11 1_555 1_555
C13 C14 1_555 1_555
C15 C16 1_555 1_555
C16 C17 1_555 1_555
C17 C18 1_555 1_555
C18 C19 1_555 1_555
C20 C22 1_555 1_555

#END
