
#######################################################################
#
#                 Cambridge Crystallographic Data Centre
#                                CCDC 
#
#######################################################################
#
# If this CIF has been generated from an entry in the Cambridge 
# Structural Database, then it will include bibliographic, chemical, 
# crystal, experimental, refinement or atomic coordinate data resulting 
# from the CCDC's data processing and validation procedures.
#
#######################################################################

data_ZEHGOK
_chemical_formula_moiety         'C18 H12 N4 O1,C2 H4 O2'
_chemical_name_systematic        
'Pyridin-2-yl(3-(pyridin-2-yl)imidazo[1,5-a]pyridin-1-yl)methanone acetic acid solvate'
_symmetry_cell_setting           triclinic
_symmetry_space_group_name_H-M   'P -1'
_symmetry_Int_Tables_number      2
_space_group_name_Hall           '-P 1'
loop_
_symmetry_equiv_pos_site_id
_symmetry_equiv_pos_as_xyz
1 x,y,z
2 -x,-y,-z
_cell_length_a                   7.1185(3)
_cell_length_b                   11.4181(4)
_cell_length_c                   11.6674(4)
_cell_angle_alpha                94.823(3)
_cell_angle_beta                 106.643(2)
_cell_angle_gamma                100.403(3)
_cell_volume                     884.333
_exptl_crystal_colour            'light green'
_exptl_crystal_description       block
_cell_formula_units_Z            2
loop_
_atom_site_label
_atom_site_type_symbol
_atom_site_fract_x
_atom_site_fract_y
_atom_site_fract_z
O1 O 0.4127(4) 0.78190(18) 0.85350(18)
C1 C 0.0829(5) 0.9188(3) 0.3168(3)
H1 H 0.0653 0.8383 0.3279
C2 C 0.0014(5) 0.9503(3) 0.2054(3)
H2 H -0.0722 0.8914 0.1401
N1 N 0.2594(3) 0.86503(18) 0.55654(19)
C3 C 0.0291(5) 1.0686(4) 0.1912(3)
H4 H -0.0252 1.0922 0.1165
C4 C 0.4285(4) 0.9895(2) 0.7305(2)
C5 C 0.1387(5) 1.1514(3) 0.2895(3)
H5 H 0.1586 1.2322 0.2794
N2 N 0.2188(4) 1.1242(2) 0.3989(2)
C6 C 0.3257(4) 0.6080(3) 0.5713(3)
H6 H 0.3929 0.6641 0.5354
C7 C 0.1916(4) 1.0078(2) 0.4123(2)
C8 C 0.2778(4) 0.9758(2) 0.5316(2)
N3 N 0.3836(3) 1.05681(18) 0.6368(2)
C9 C 0.4411(5) 1.1808(2) 0.6564(3)
H7 H 0.4129 1.2250 0.5924
C10 C 0.5386(5) 1.2365(3) 0.7695(3)
H8 H 0.5768 1.3200 0.7836
C11 C 0.5837(5) 1.1715(3) 0.8664(3)
H9 H 0.6504 1.2121 0.9440
C12 C 0.5314(4) 1.0499(3) 0.8483(3)
H10 H 0.5631 1.0068 0.9128
C13 C 0.3512(4) 0.8702(2) 0.6777(2)
C14 C 0.3544(4) 0.7686(2) 0.7430(3)
C15 C 0.2843(4) 0.6430(2) 0.6762(2)
N4 N 0.1849(4) 0.5642(2) 0.72866(19)
C16 C 0.1259(5) 0.4503(3) 0.6766(3)
H11 H 0.0549 0.3957 0.7121
C17 C 0.1634(5) 0.4082(3) 0.5735(3)
H12 H 0.1204 0.3273 0.5406
C18 C 0.2656(4) 0.4885(3) 0.5207(3)
H13 H 0.2946 0.4629 0.4512
O2 O 1.0362(4) 0.6296(2) 0.91094(19)
H3 H 1.0799 0.6070 0.8571
C19 C 0.8438(7) 0.5825(4) 0.8816(4)
O3 O 0.7525(4) 0.5263(3) 0.7847(3)
C20 C 0.7502(6) 0.6088(3) 0.9757(3)
H14 H 0.6721 0.6683 0.9536
H15 H 0.8529 0.6386 1.0515
H16 H 0.6646 0.5365 0.9833
loop_
_geom_bond_atom_site_label_1
_geom_bond_atom_site_label_2
_geom_bond_site_symmetry_1
_geom_bond_site_symmetry_2
O1 C14 1_555 1_555
C1 H1 1_555 1_555
C2 C1 1_555 1_555
H2 C2 1_555 1_555
N1 C8 1_555 1_555
O2 H3 1_555 1_555
C3 C2 1_555 1_555
H4 C3 1_555 1_555
C4 N3 1_555 1_555
C5 C3 1_555 1_555
H5 C5 1_555 1_555
N2 C5 1_555 1_555
C6 H6 1_555 1_555
C7 C1 1_555 1_555
C8 C7 1_555 1_555
N3 C8 1_555 1_555
C9 N3 1_555 1_555
H7 C9 1_555 1_555
C10 C9 1_555 1_555
H8 C10 1_555 1_555
C11 C10 1_555 1_555
H9 C11 1_555 1_555
C12 C4 1_555 1_555
H10 C12 1_555 1_555
C13 N1 1_555 1_555
C14 C13 1_555 1_555
C15 C6 1_555 1_555
N4 C15 1_555 1_555
C16 N4 1_555 1_555
H11 C16 1_555 1_555
C17 C16 1_555 1_555
H12 C17 1_555 1_555
C18 C6 1_555 1_555
H13 C18 1_555 1_555
C19 O2 1_555 1_555
O3 C19 1_555 1_555
C20 C19 1_555 1_555
H14 C20 1_555 1_555
H15 C20 1_555 1_555
H16 C20 1_555 1_555
C4 C13 1_555 1_555
N2 C7 1_555 1_555
C11 C12 1_555 1_555
C14 C15 1_555 1_555
C17 C18 1_555 1_555

#END
