
#######################################################################
#
#                 Cambridge Crystallographic Data Centre
#                                CCDC 
#
#######################################################################
#
# If this CIF has been generated from an entry in the Cambridge 
# Structural Database, then it will include bibliographic, chemical, 
# crystal, experimental, refinement or atomic coordinate data resulting 
# from the CCDC's data processing and validation procedures.
#
#######################################################################

data_ZEHKEC
_chemical_name_common            3-Neopentyl-5-phenylrhodanine
_chemical_formula_moiety         'C14 H17 N1 O1 S2'
_chemical_name_systematic        
3-Neopentyl-5-phenyl-thiazolidin-4-one-2-thione
_symmetry_cell_setting           monoclinic
_symmetry_space_group_name_H-M   'P 21/c'
_symmetry_Int_Tables_number      14
_space_group_name_Hall           '-P 2ybc'
loop_
_symmetry_equiv_pos_site_id
_symmetry_equiv_pos_as_xyz
1 x,y,z
2 -x,1/2+y,1/2-z
3 -x,-y,-z
4 x,1/2-y,1/2+z
_cell_length_a                   12.316(3)
_cell_length_b                   5.781(1)
_cell_length_c                   20.120(6)
_cell_angle_alpha                90
_cell_angle_beta                 91.18(2)
_cell_angle_gamma                90
_cell_volume                     1432.22
_exptl_crystal_colour            yellow
_chemical_melting_point          135-136deg.C
_cell_formula_units_Z            4
loop_
_atom_site_label
_atom_site_type_symbol
_atom_site_fract_x
_atom_site_fract_y
_atom_site_fract_z
S1 S 0.5992(1) 0.1923(2) 0.7398(1)
S2 S 0.5002(1) 0.0411(2) 0.6124(1)
O1 O 0.7476(2) 0.7026(5) 0.6602(1)
N1 N 0.6446(2) 0.3887(5) 0.6283(1)
C1 C 0.7885(2) 0.4224(6) 0.7836(1)
C2 C 0.8204(3) 0.5931(7) 0.8282(2)
C3 C 0.9191(3) 0.5794(8) 0.8619(2)
C4 C 0.9865(3) 0.3950(8) 0.8510(2)
C5 C 0.9557(3) 0.2266(9) 0.8068(2)
C6 C 0.8569(3) 0.2388(7) 0.7731(2)
C7 C 0.6818(2) 0.4498(6) 0.7456(2)
C8 C 0.5828(2) 0.2128(6) 0.6536(1)
C9 C 0.6970(2) 0.5326(7) 0.6749(1)
C10 C 0.6443(3) 0.4501(8) 0.5572(1)
C11 C 0.7368(3) 0.3508(6) 0.5163(1)
C12 C 0.8476(3) 0.4408(11) 0.5402(2)
C13 C 0.7157(4) 0.4318(10) 0.4447(2)
C14 C 0.7384(4) 0.0875(7) 0.5179(2)
H1 H 0.7789(22) 0.7153(52) 0.8326(13)
H2 H 0.9394(29) 0.7001(64) 0.8924(18)
H3 H 1.0552(29) 0.3936(63) 0.8732(17)
H4 H 0.9955(24) 0.1223(56) 0.7977(14)
H5 H 0.8352(24) 0.1195(57) 0.7433(15)
H6 H 0.6443(21) 0.5561(47) 0.7641(12)
H7 H 0.5721(25) 0.3928(52) 0.5406(14)
H8 H 0.6431(22) 0.6170(58) 0.5526(13)
H9 H 0.9060(28) 0.3755(67) 0.5083(17)
H10 H 0.8497(35) 0.6035(84) 0.5393(21)
H11 H 0.8622(27) 0.3834(60) 0.5875(18)
H12 H 0.7181(30) 0.6039(79) 0.4417(19)
H13 H 0.7729(28) 0.3708(60) 0.4146(18)
H14 H 0.6427(28) 0.3762(60) 0.4274(16)
H15 H 0.7972(30) 0.0209(63) 0.4893(19)
H16 H 0.7523(28) 0.0337(59) 0.5648(18)
H17 H 0.6696(34) 0.0160(65) 0.4988(19)
loop_
_geom_bond_atom_site_label_1
_geom_bond_atom_site_label_2
_geom_bond_site_symmetry_1
_geom_bond_site_symmetry_2
S1 C7 1_555 1_555
S2 C8 1_555 1_555
O1 C9 1_555 1_555
N1 C8 1_555 1_555
C1 C2 1_555 1_555
C2 C3 1_555 1_555
C3 C4 1_555 1_555
C4 C5 1_555 1_555
C5 C6 1_555 1_555
C6 C1 1_555 1_555
C7 C1 1_555 1_555
C8 S1 1_555 1_555
C9 N1 1_555 1_555
C10 N1 1_555 1_555
C11 C10 1_555 1_555
C12 C11 1_555 1_555
C13 C11 1_555 1_555
C14 C11 1_555 1_555
H1 C2 1_555 1_555
H2 C3 1_555 1_555
H3 C4 1_555 1_555
H4 C5 1_555 1_555
H5 C6 1_555 1_555
H6 C7 1_555 1_555
H7 C10 1_555 1_555
H8 C10 1_555 1_555
H9 C12 1_555 1_555
H10 C12 1_555 1_555
H11 C12 1_555 1_555
H12 C13 1_555 1_555
H13 C13 1_555 1_555
H14 C13 1_555 1_555
H15 C14 1_555 1_555
H16 C14 1_555 1_555
H17 C14 1_555 1_555
C7 C9 1_555 1_555

#END
