
#######################################################################
#
#                 Cambridge Crystallographic Data Centre
#                                CCDC 
#
#######################################################################
#
# If this CIF has been generated from an entry in the Cambridge 
# Structural Database, then it will include bibliographic, chemical, 
# crystal, experimental, refinement or atomic coordinate data resulting 
# from the CCDC's data processing and validation procedures.
#
#######################################################################

data_ZEJNAD
_chemical_formula_moiety         'C21 H23 N2 O2 1+,C13 H15 O4 1-,C1 H1 Cl3'
_chemical_name_systematic        
'(-)-Strychninium (+)-neopentyl phthalate chloroform solvate'
_symmetry_cell_setting           monoclinic
_symmetry_space_group_name_H-M   'P 21'
_symmetry_Int_Tables_number      4
_space_group_name_Hall           'P 2yb'
loop_
_symmetry_equiv_pos_site_id
_symmetry_equiv_pos_as_xyz
1 x,y,z
2 -x,1/2+y,-z
_cell_length_a                   18.559(29)
_cell_length_b                   7.871(8)
_cell_length_c                   23.913(23)
_cell_angle_alpha                90
_cell_angle_beta                 95.67(10)
_cell_angle_gamma                90
_cell_volume                     3476.07
_cell_formula_units_Z            4
loop_
_atom_site_label
_atom_site_type_symbol
_atom_site_fract_x
_atom_site_fract_y
_atom_site_fract_z
C1 C 0.2616(5) -0.6889 -0.3686(4)
C2 C 0.3115(5) -0.6686(9) -0.4059(4)
C3 C 0.3866(5) -0.6570(10) -0.3902(5)
C4 C 0.4056(5) -0.6683(10) -0.3336(5)
C5 C 0.3578(5) -0.6891(9) -0.2909(4)
C6 C 0.2864(5) -0.7003(9) -0.3116(3)
C7 C 0.1578(5) -0.7014(8) -0.3179(3)
C8 C 0.1826(4) -0.7173(9) -0.3785(4)
C9 C 0.1388(5) -0.5963(9) -0.4218(3)
C10 C 0.1172(5) -0.4298(9) -0.3969(4)
C11 C 0.0707(5) -0.4620(9) -0.3499(4)
C12 C 0.1241(5) -0.5346(9) -0.3016(3)
C13 C 0.0947(5) -0.5644(9) -0.2455(4)
C14 C 0.1530(5) -0.6419(9) -0.2035(4)
C15 C 0.2268(5) -0.6841(9) -0.2254(4)
C16 C -0.0312(5) -0.6173(10) -0.2760(4)
C17 C -0.0362(5) -0.6455(9) -0.3364(4)
C18 C 0.0087(5) -0.5824(9) -0.3699(3)
C19 C 0.0036(5) -0.6240(9) -0.4299(4)
C20 C 0.0856(5) -0.8767(9) -0.4251(4)
C21 C 0.1652(5) -0.8906(9) -0.4052(4)
N1 N 0.2265(4) -0.7179(8) -0.2809(3)
N2 N 0.0750(4) -0.6975(8) -0.4456(3)
O1 O 0.2819(4) -0.6871(8) -0.1921(3)
O2 O 0.0357(3) -0.6815(8) -0.2458(3)
C22 C -0.7668(5) -0.1610(9) -0.1257(4)
C23 C -0.8086(5) -0.1107(10) -0.0853(4)
C24 C -0.8857(6) -0.0605(10) -0.1051(5)
C25 C -0.9068(6) -0.0725(10) -0.1618(5)
C26 C -0.8610(6) -0.1267(9) -0.2008(4)
C27 C -0.7889(5) -0.1677(9) -0.1819(4)
C28 C -0.6674(5) -0.2318(9) -0.1751(4)
C29 C -0.6889(5) -0.2283(9) -0.1161(3)
C30 C -0.6425(5) -0.1274(10) -0.0716(4)
C31 C -0.6052(5) 0.0309(9) -0.0949(4)
C32 C -0.5630(5) -0.0280(9) -0.1422(5)
C33 C -0.6176(5) -0.0811(9) -0.1924(4)
C34 C -0.5908(6) -0.1250(9) -0.2490(4)
C35 C -0.6561(6) -0.1951(10) -0.2904(4)
C36 C -0.7277(6) -0.1831(9) -0.2708(4)
C37 C -0.4693(6) -0.2105(10) -0.2175(5)
C38 C -0.4683(6) -0.2525(10) -0.1559(5)
C39 C -0.5079(5) -0.1645(9) -0.1224(4)
C40 C -0.5084(5) -0.2146(10) -0.0625(4)
C41 C -0.6069(6) -0.4278(9) -0.0702(4)
C42 C -0.6873(5) -0.4047(9) -0.0879(4)
N3 N -0.7321(4) -0.2193(8) -0.2137(3)
N4 N -0.5836(4) -0.2558(9) -0.0473(3)
O3 O -0.7821(4) -0.1603(8) -0.3022(3)
O4 O -0.5376(4) -0.2549(8) -0.2474(3)
C43 C -0.1933(5) -0.1499(9) -0.3601(3)
C44 C -0.2141(6) -0.1627(10) -0.3067(5)
C45 C -0.1632(7) -0.1498(10) -0.2598(5)
C46 C -0.0910(7) -0.1110(10) -0.2707(5)
C47 C -0.0721(5) -0.0978(10) -0.3217(4)
C48 C -0.1214(5) -0.1168(9) -0.3659(4)
C49 C -0.2495(5) -0.1644(9) -0.4046(4)
O5 O -0.2400(3) -0.1412(7) -0.4548(3)
O6 O -0.3151(4) -0.1920(8) -0.3911(3)
C50 C -0.3752(5) -0.1985(10) -0.4370(4)
C51 C -0.4419(5) -0.2098(10) -0.4067(5)
C52 C -0.4525(6) -0.0489(10) -0.3735(5)
C53 C -0.4463(7) -0.3679(10) -0.3717(6)
C54 C -0.5051(6) -0.2306(11) -0.4565(5)
C55 C -0.0965(4) -0.0952(9) -0.4265(3)
O7 O -0.0735(3) -0.2334(8) -0.4458(3)
O8 O -0.0984(3) 0.0466(7) -0.4480(3)
C56 C -0.7041(6) -0.1522(9) -0.8540(4)
C57 C -0.7203(6) -0.1271(10) -0.8005(4)
C58 C -0.6740(7) -0.1393(10) -0.7552(4)
C59 C -0.6019(6) -0.1713(10) -0.7614(4)
C60 C -0.5814(6) -0.1833(10) -0.8131(4)
C61 C -0.6290(6) -0.1805(9) -0.8617(4)
C62 C -0.7528(5) -0.1391(9) -0.9078(5)
O9 O -0.7410(4) -0.1682(8) -0.9546(3)
O10 O -0.8201(4) -0.0908(9) -0.8936(3)
C63 C -0.8743(5) -0.0711(9) -0.9390(5)
C64 C -0.9433(6) -0.0624(10) -0.9130(4)
C65 C -0.9449(6) 0.0872(10) -0.8721(5)
C66 C -0.9616(6) -0.2220(10) -0.8821(5)
C67 C -1.0074(6) -0.0261(11) -0.9601(5)
C68 C -0.5977(5) -0.2057(10) -0.9165(4)
O11 O -0.6014(5) -0.3516(9) -0.9378(3)
O12 O -0.5708(4) -0.0848(9) -0.9409(3)
C69 C -0.7637(4) -0.2235(8) -0.5429(3)
Cl1 Cl -0.7026(3) -0.2357(6) -0.5932(2)
Cl2 Cl -0.8158(2) -0.0396(4) -0.5515(1)
Cl3 Cl -0.7180(2) -0.2296(6) -0.4758(2)
C70 C -0.2678(5) -0.0945(9) -0.0652(3)
Cl4 Cl -0.3077(2) -0.2618(5) -0.0336(2)
Cl5 Cl -0.1808(2) -0.0622(6) -0.0349(3)
Cl6 Cl -0.2667(3) -0.1368(8) -0.1358(2)
loop_
_geom_bond_atom_site_label_1
_geom_bond_atom_site_label_2
_geom_bond_site_symmetry_1
_geom_bond_site_symmetry_2
C1 C2 1_555 1_555
C2 C3 1_555 1_555
C3 C4 1_555 1_555
C4 C5 1_555 1_555
C5 C6 1_555 1_555
C6 C1 1_555 1_555
C7 C8 1_555 1_555
C8 C1 1_555 1_555
C9 C8 1_555 1_555
C10 C9 1_555 1_555
C11 C10 1_555 1_555
C12 C7 1_555 1_555
C13 C12 1_555 1_555
C14 C13 1_555 1_555
C15 C14 1_555 1_555
C16 C17 1_555 1_555
C17 C18 1_555 1_555
C18 C11 1_555 1_555
C19 C18 1_555 1_555
C20 C21 1_555 1_555
C21 C8 1_555 1_555
N1 C6 1_555 1_555
N2 C9 1_555 1_555
O1 C15 1_555 1_555
O2 C13 1_555 1_555
C22 C23 1_555 1_555
C23 C24 1_555 1_555
C24 C25 1_555 1_555
C25 C26 1_555 1_555
C26 C27 1_555 1_555
C27 C22 1_555 1_555
C28 C29 1_555 1_555
C29 C22 1_555 1_555
C30 C29 1_555 1_555
C31 C30 1_555 1_555
C32 C31 1_555 1_555
C33 C28 1_555 1_555
C34 C33 1_555 1_555
C35 C34 1_555 1_555
C36 C35 1_555 1_555
C37 C38 1_555 1_555
C38 C39 1_555 1_555
C39 C32 1_555 1_555
C40 C39 1_555 1_555
C41 C42 1_555 1_555
C42 C29 1_555 1_555
N3 C27 1_555 1_555
N4 C30 1_555 1_555
O3 C36 1_555 1_555
O4 C34 1_555 1_555
C43 C44 1_555 1_555
C44 C45 1_555 1_555
C45 C46 1_555 1_555
C46 C47 1_555 1_555
C47 C48 1_555 1_555
C48 C43 1_555 1_555
C49 C43 1_555 1_555
O5 C49 1_555 1_555
O6 C49 1_555 1_555
C50 O6 1_555 1_555
C51 C50 1_555 1_555
C52 C51 1_555 1_555
C53 C51 1_555 1_555
C54 C51 1_555 1_555
C55 C48 1_555 1_555
O7 C55 1_555 1_555
O8 C55 1_555 1_555
C56 C57 1_555 1_555
C57 C58 1_555 1_555
C58 C59 1_555 1_555
C59 C60 1_555 1_555
C60 C61 1_555 1_555
C61 C56 1_555 1_555
C62 C56 1_555 1_555
O9 C62 1_555 1_555
O10 C62 1_555 1_555
C63 O10 1_555 1_555
C64 C63 1_555 1_555
C65 C64 1_555 1_555
C66 C64 1_555 1_555
C67 C64 1_555 1_555
C68 C61 1_555 1_555
O11 C68 1_555 1_555
O12 C68 1_555 1_555
C69 Cl1 1_555 1_555
Cl2 C69 1_555 1_555
Cl3 C69 1_555 1_555
C70 Cl4 1_555 1_555
Cl5 C70 1_555 1_555
Cl6 C70 1_555 1_555
C7 N1 1_555 1_555
C11 C12 1_555 1_555
C15 N1 1_555 1_555
C16 O2 1_555 1_555
C19 N2 1_555 1_555
C20 N2 1_555 1_555
C28 N3 1_555 1_555
C32 C33 1_555 1_555
C36 N3 1_555 1_555
C37 O4 1_555 1_555
C40 N4 1_555 1_555
C41 N4 1_555 1_555

#END
