
#######################################################################
#
#                 Cambridge Crystallographic Data Centre
#                                CCDC 
#
#######################################################################
#
# If this CIF has been generated from an entry in the Cambridge 
# Structural Database, then it will include bibliographic, chemical, 
# crystal, experimental, refinement or atomic coordinate data resulting 
# from the CCDC's data processing and validation procedures.
#
#######################################################################

data_ZEJWUJ
_chemical_formula_moiety         'C13 H12 N2 O5'
_chemical_name_systematic        
'ethyl (1-methyl-2-oxo-1,2-dihydro-3H-indol-3-ylidene)(nitro)acetate'
_symmetry_cell_setting           triclinic
_symmetry_space_group_name_H-M   'P -1'
_symmetry_Int_Tables_number      2
_space_group_name_Hall           '-P 1'
loop_
_symmetry_equiv_pos_site_id
_symmetry_equiv_pos_as_xyz
1 x,y,z
2 -x,-y,-z
_cell_length_a                   8.4937(9)
_cell_length_b                   8.6840(10)
_cell_length_c                   10.0187(9)
_cell_angle_alpha                70.661(10)
_cell_angle_beta                 81.940(8)
_cell_angle_gamma                64.185(11)
_cell_volume                     627.684
_exptl_crystal_colour            'metallic dark red'
_exptl_crystal_description       block
_cell_formula_units_Z            2
loop_
_atom_site_label
_atom_site_type_symbol
_atom_site_fract_x
_atom_site_fract_y
_atom_site_fract_z
O1 O 0.81954(13) 0.83912(15) 0.28901(13)
O2 O 0.71557(16) 0.75931(17) 0.06578(13)
O3 O 0.67162(15) 0.58658(13) 0.26535(13)
O4 O 0.17375(15) 0.97213(19) 0.20449(14)
O5 O 0.34526(14) 0.79015(14) 0.07831(12)
N1 N 0.65669(15) 1.09310(16) 0.35469(12)
N2 N 0.63670(16) 0.73190(16) 0.17541(13)
C1 C 0.47937(18) 1.21040(18) 0.35333(14)
C2 C 0.4077(2) 1.3600(2) 0.39897(16)
H1 H 0.4771 1.3934 0.4373
C3 C 0.2275(2) 1.4593(2) 0.38566(18)
H2 H 0.1752 1.5606 0.4163
C4 C 0.1256(2) 1.4103(2) 0.32796(18)
H3 H 0.0055 1.4793 0.3196
C5 C 0.19934(19) 1.2591(2) 0.28189(16)
H4 H 0.1294 1.2276 0.2423
C6 C 0.37843(18) 1.15569(17) 0.29559(14)
C7 C 0.49947(17) 0.99463(17) 0.25895(14)
C8 C 0.68180(18) 0.95976(18) 0.30082(15)
C9 C 0.7988(2) 1.1090(2) 0.40637(18)
H5 H 0.7948 1.2267 0.3597
H6 H 0.9086 1.0205 0.3870
H7 H 0.7870 1.0904 0.5065
C10 C 0.47977(18) 0.88459(18) 0.20153(14)
C11 C 0.31411(19) 0.88983(19) 0.16223(15)
C12 C 0.1914(2) 0.7836(2) 0.03308(17)
H8 H 0.1294 0.8923 -0.0419
H9 H 0.1122 0.7729 0.1118
C13 C 0.2559(2) 0.6234(2) -0.01892(19)
H10 H 0.3354 0.6347 -0.0959
H11 H 0.1585 0.6162 -0.0508
H12 H 0.3152 0.5165 0.0566
loop_
_geom_bond_atom_site_label_1
_geom_bond_atom_site_label_2
_geom_bond_site_symmetry_1
_geom_bond_site_symmetry_2
O1 C8 1_555 1_555
O2 N2 1_555 1_555
O3 N2 1_555 1_555
O4 C11 1_555 1_555
O5 C11 1_555 1_555
N1 C1 1_555 1_555
N2 C10 1_555 1_555
C1 C2 1_555 1_555
C2 H1 1_555 1_555
C3 C2 1_555 1_555
H2 C3 1_555 1_555
C4 C3 1_555 1_555
H3 C4 1_555 1_555
C5 C4 1_555 1_555
H4 C5 1_555 1_555
C6 C1 1_555 1_555
C7 C6 1_555 1_555
C8 N1 1_555 1_555
C9 N1 1_555 1_555
H5 C9 1_555 1_555
H6 C9 1_555 1_555
H7 C9 1_555 1_555
C10 C7 1_555 1_555
C11 C10 1_555 1_555
C12 O5 1_555 1_555
H8 C12 1_555 1_555
H9 C12 1_555 1_555
C13 C12 1_555 1_555
H10 C13 1_555 1_555
H11 C13 1_555 1_555
H12 C13 1_555 1_555
C5 C6 1_555 1_555
C7 C8 1_555 1_555

#END
