
#######################################################################
#
#                 Cambridge Crystallographic Data Centre
#                                CCDC 
#
#######################################################################
#
# If this CIF has been generated from an entry in the Cambridge 
# Structural Database, then it will include bibliographic, chemical, 
# crystal, experimental, refinement or atomic coordinate data resulting 
# from the CCDC's data processing and validation procedures.
#
#######################################################################

data_ZEKFON
_chemical_name_common            '1,6-di-epi-koninginin A'
_chemical_formula_moiety         'C16 H28 O4'
_chemical_name_systematic        
2-hexyloctahydro-2H-3,9a-epoxy-1-benzoxepine-6,9-diol
_symmetry_cell_setting           monoclinic
_symmetry_space_group_name_H-M   'P 21'
_symmetry_Int_Tables_number      4
_space_group_name_Hall           'P 2yb'
loop_
_symmetry_equiv_pos_site_id
_symmetry_equiv_pos_as_xyz
1 x,y,z
2 -x,1/2+y,-z
_cell_length_a                   11.7535(11)
_cell_length_b                   5.4477(5)
_cell_length_c                   12.7020(12)
_cell_angle_alpha                90
_cell_angle_beta                 105.281(4)
_cell_angle_gamma                90
_cell_volume                     784.549
_cell_formula_units_Z            2
loop_
_atom_site_label
_atom_site_type_symbol
_atom_site_fract_x
_atom_site_fract_y
_atom_site_fract_z
O1 O 0.6063(4) 0.8762(8) 0.3256(3)
O2 O 0.6659(5) 0.4899(7) 0.3071(4)
O3 O 0.4683(4) 0.2875(7) 0.3530(4)
H1 H 0.5299 0.2149 0.3545
O4 O 0.3746(5) 1.0120(7) 0.1469(4)
H2 H 0.3939 1.0615 0.2101
C1 C 0.5609(8) 0.6320(13) 0.2911(7)
C2 C 0.4911(7) 0.5446(11) 0.3665(6)
H3 H 0.5349 0.5781 0.4422
C3 C 0.3728(7) 0.6719(13) 0.3419(6)
H4 H 0.3847 0.8448 0.3596
H5 H 0.3264 0.6027 0.3874
C4 C 0.3053(6) 0.6450(13) 0.2222(6)
H6 H 0.2885 0.4727 0.2062
H7 H 0.2306 0.7307 0.2099
C5 C 0.3717(7) 0.7442(13) 0.1463(6)
H8 H 0.3298 0.6923 0.0724
C6 C 0.4957(7) 0.6360(13) 0.1711(6)
H9 H 0.4842 0.4630 0.1499
C7 C 0.5742(7) 0.7387(12) 0.1036(6)
H10 H 0.5411 0.6946 0.0277
H11 H 0.5747 0.9164 0.1085
C8 C 0.6987(7) 0.6466(14) 0.1398(6)
H12 H 0.7495 0.7527 0.1108
H13 H 0.7028 0.4828 0.1111
C9 C 0.7420(7) 0.6410(14) 0.2640(6)
H14 H 0.8239 0.5842 0.2881
C10 C 0.7270(7) 0.8888(13) 0.3143(6)
H15 H 0.7314 1.0187 0.2621
C11 C 0.8121(6) 0.9472(11) 0.4225(6)
H16 H 0.8899 0.9681 0.4110
H17 H 0.7894 1.1035 0.4476
C12 C 0.8212(6) 0.7620(12) 0.5122(6)
H18 H 0.8432 0.6045 0.4878
H19 H 0.7444 0.7435 0.5261
C13 C 0.9106(7) 0.8319(13) 0.6180(7)
H20 H 0.9876 0.8445 0.6041
H21 H 0.8903 0.9931 0.6400
C14 C 0.9191(7) 0.6584(15) 0.7107(7)
H22 H 0.9352 0.4959 0.6869
H23 H 0.8427 0.6519 0.7263
C15 C 1.0098(7) 0.7149(15) 0.8147(7)
H24 H 1.0869 0.7140 0.8003
H25 H 0.9958 0.8797 0.8374
C16 C 1.0125(8) 0.5432(14) 0.9069(7)
H26 H 0.9422 0.5641 0.9309
H27 H 1.0803 0.5778 0.9661
H28 H 1.0166 0.3772 0.8828
loop_
_geom_bond_atom_site_label_1
_geom_bond_atom_site_label_2
_geom_bond_site_symmetry_1
_geom_bond_site_symmetry_2
O1 C1 1_555 1_555
O2 C1 1_555 1_555
O3 H1 1_555 1_555
O4 H2 1_555 1_555
C1 C2 1_555 1_555
C2 O3 1_555 1_555
H3 C2 1_555 1_555
C3 C2 1_555 1_555
H4 C3 1_555 1_555
H5 C3 1_555 1_555
C4 C3 1_555 1_555
H6 C4 1_555 1_555
H7 C4 1_555 1_555
C5 O4 1_555 1_555
H8 C5 1_555 1_555
C6 C1 1_555 1_555
H9 C6 1_555 1_555
C7 C6 1_555 1_555
H10 C7 1_555 1_555
H11 C7 1_555 1_555
C8 C7 1_555 1_555
H12 C8 1_555 1_555
H13 C8 1_555 1_555
C9 O2 1_555 1_555
H14 C9 1_555 1_555
C10 O1 1_555 1_555
H15 C10 1_555 1_555
C11 C10 1_555 1_555
H16 C11 1_555 1_555
H17 C11 1_555 1_555
C12 C11 1_555 1_555
H18 C12 1_555 1_555
H19 C12 1_555 1_555
C13 C12 1_555 1_555
H20 C13 1_555 1_555
H21 C13 1_555 1_555
C14 C13 1_555 1_555
H22 C14 1_555 1_555
H23 C14 1_555 1_555
C15 C14 1_555 1_555
H24 C15 1_555 1_555
H25 C15 1_555 1_555
C16 C15 1_555 1_555
H26 C16 1_555 1_555
H27 C16 1_555 1_555
H28 C16 1_555 1_555
C4 C5 1_555 1_555
C5 C6 1_555 1_555
C8 C9 1_555 1_555
C9 C10 1_555 1_555

#END
