
#######################################################################
#
#                 Cambridge Crystallographic Data Centre
#                                CCDC 
#
#######################################################################
#
# If this CIF has been generated from an entry in the Cambridge 
# Structural Database, then it will include bibliographic, chemical, 
# crystal, experimental, refinement or atomic coordinate data resulting 
# from the CCDC's data processing and validation procedures.
#
#######################################################################

data_ZEKGAA
_chemical_formula_moiety         'C16 H26 O4'
_chemical_name_systematic        
5-hydroxy-2-(2-hydroxyoctyl)-3,5,6,7-tetrahydro-1-benzofuran-4(2H)-one
_symmetry_cell_setting           monoclinic
_symmetry_space_group_name_H-M   'P 21'
_symmetry_Int_Tables_number      4
_space_group_name_Hall           'P 2yb'
loop_
_symmetry_equiv_pos_site_id
_symmetry_equiv_pos_as_xyz
1 x,y,z
2 -x,1/2+y,-z
_cell_length_a                   5.7605(5)
_cell_length_b                   9.1002(8)
_cell_length_c                   31.056(3)
_cell_angle_alpha                90
_cell_angle_beta                 91.3470(10)
_cell_angle_gamma                90
_cell_volume                     1627.56
_cell_formula_units_Z            4
loop_
_atom_site_label
_atom_site_type_symbol
_atom_site_fract_x
_atom_site_fract_y
_atom_site_fract_z
O1 O 0.2997(11) 0.6086(7) 0.8531(2)
O2 O -0.3118(10) 0.7463(8) 0.7620(2)
O3 O -0.4141(11) 0.9841(8) 0.8106(2)
H1 H -0.4902 0.9489 0.7905
O4 O 0.4521(11) 0.2066(8) 0.8664(2)
H2 H 0.4691 0.1298 0.8530
C1 C 0.2581(16) 0.4752(11) 0.8248(3)
H3 H 0.1649 0.4050 0.8410
C2 C 0.1023(17) 0.5392(11) 0.7884(3)
H4 H 0.1931 0.5651 0.7636
H5 H -0.0174 0.4698 0.7795
C3 C 0.0000(17) 0.6715(11) 0.8081(3)
C4 C -0.1907(16) 0.7647(11) 0.7959(3)
C5 C -0.2589(15) 0.8773(11) 0.8273(3)
H6 H -0.3428 0.8250 0.8497
C6 C -0.0535(15) 0.9494(11) 0.8498(3)
H7 H 0.0336 1.0045 0.8289
H8 H -0.1091 1.0181 0.8711
C7 C 0.1039(17) 0.8400(11) 0.8715(3)
H9 H 0.0400 0.8107 0.8988
H10 H 0.2549 0.8840 0.8771
C8 C 0.1293(15) 0.7062(11) 0.8426(3)
C9 C 0.4658(17) 0.4060(12) 0.8145(3)
H11 H 0.5701 0.4811 0.8041
H12 H 0.4326 0.3402 0.7905
C10 C 0.6020(17) 0.3154(11) 0.8500(3)
H13 H 0.7406 0.2702 0.8380
C11 C 0.6692(16) 0.4155(12) 0.8891(3)
H14 H 0.7438 0.5041 0.8789
H15 H 0.5301 0.4440 0.9040
C12 C 0.8305(19) 0.3360(14) 0.9195(3)
H16 H 0.9442 0.2833 0.9029
H17 H 0.7420 0.2638 0.9352
C13 C 0.9565(19) 0.4333(14) 0.9514(3)
H18 H 1.0406 0.5073 0.9356
H19 H 0.8423 0.4839 0.9684
C14 C 1.123(2) 0.3573(15) 0.9812(4)
H20 H 1.0385 0.2854 0.9978
H21 H 1.2352 0.3046 0.9643
C15 C 1.249(2) 0.4570(18) 1.0115(4)
H22 H 1.1381 0.5019 1.0304
H23 H 1.3202 0.5350 0.9950
C16 C 1.440(2) 0.3795(19) 1.0393(4)
H24 H 1.5611 0.3455 1.0210
H25 H 1.3737 0.2974 1.0540
H26 H 1.5035 0.4477 1.0600
O5 O 0.6252(12) 0.1091(8) 0.6589(2)
O6 O 1.2554(12) -0.0098(9) 0.7449(2)
O7 O 1.3641(11) -0.2459(8) 0.6952(2)
H27 H 1.4171 -0.2286 0.7194
O8 O 0.2758(12) 0.4635(9) 0.6739(2)
H28 H 0.2891 0.5490 0.6820
C17 C 0.6391(17) 0.2292(11) 0.6921(3)
H29 H 0.4975 0.2304 0.7090
C18 C 0.8514(17) 0.1958(12) 0.7216(3)
H30 H 0.8083 0.1827 0.7513
H31 H 0.9692 0.2716 0.7198
C19 C 0.9302(18) 0.0506(11) 0.7010(3)
C20 C 1.1267(17) -0.0368(11) 0.7149(3)
C21 C 1.1416(17) -0.1828(11) 0.6906(3)
H32 H 1.0276 -0.2510 0.7023
C22 C 1.0908(17) -0.1630(12) 0.6451(3)
H33 H 1.1101 -0.2561 0.6304
H34 H 1.2011 -0.0940 0.6334
C23 C 0.8444(17) -0.1061(12) 0.6362(3)
H35 H 0.8272 -0.0738 0.6065
H36 H 0.7319 -0.1832 0.6412
C24 C 0.8066(17) 0.0212(11) 0.6665(3)
C25 C 0.6629(17) 0.3770(11) 0.6666(3)
H37 H 0.7122 0.4526 0.6868
H38 H 0.7861 0.3651 0.6461
C26 C 0.4585(16) 0.4299(12) 0.6434(3)
H39 H 0.4994 0.5207 0.6284
C27 C 0.3461(17) 0.3270(12) 0.6114(3)
H40 H 0.2715 0.2484 0.6270
H41 H 0.4664 0.2830 0.5942
C28 C 0.1603(18) 0.4000(14) 0.5800(3)
H42 H 0.0493 0.4527 0.5972
H43 H 0.2386 0.4717 0.5623
C29 C 0.035(2) 0.3007(16) 0.5520(4)
H44 H -0.0547 0.2338 0.5694
H45 H 0.1449 0.2427 0.5361
C30 C -0.128(2) 0.3781(17) 0.5203(4)
H46 H -0.2362 0.4379 0.5362
H47 H -0.0384 0.4434 0.5025
C31 C -0.266(2) 0.274(2) 0.4913(4)
H48 H -0.1595 0.2213 0.4731
H49 H -0.3446 0.2025 0.5089
C32 C -0.441(3) 0.354(2) 0.4636(5)
H50 H -0.3649 0.4296 0.4476
H51 H -0.5562 0.3976 0.4814
H52 H -0.5147 0.2861 0.4439
loop_
_geom_bond_atom_site_label_1
_geom_bond_atom_site_label_2
_geom_bond_site_symmetry_1
_geom_bond_site_symmetry_2
O1 C1 1_555 1_555
O2 C4 1_555 1_555
O3 H1 1_555 1_555
O4 H2 1_555 1_555
C1 H3 1_555 1_555
C2 C1 1_555 1_555
H4 C2 1_555 1_555
H5 C2 1_555 1_555
C3 C2 1_555 1_555
C4 C3 1_555 1_555
C5 O3 1_555 1_555
H6 C5 1_555 1_555
C6 C5 1_555 1_555
H7 C6 1_555 1_555
H8 C6 1_555 1_555
C7 C6 1_555 1_555
H9 C7 1_555 1_555
H10 C7 1_555 1_555
C8 O1 1_555 1_555
C9 C1 1_555 1_555
H11 C9 1_555 1_555
H12 C9 1_555 1_555
C10 O4 1_555 1_555
H13 C10 1_555 1_555
C11 C10 1_555 1_555
H14 C11 1_555 1_555
H15 C11 1_555 1_555
C12 C11 1_555 1_555
H16 C12 1_555 1_555
H17 C12 1_555 1_555
C13 C12 1_555 1_555
H18 C13 1_555 1_555
H19 C13 1_555 1_555
C14 C13 1_555 1_555
H20 C14 1_555 1_555
H21 C14 1_555 1_555
C15 C14 1_555 1_555
H22 C15 1_555 1_555
H23 C15 1_555 1_555
C16 C15 1_555 1_555
H24 C16 1_555 1_555
H25 C16 1_555 1_555
H26 C16 1_555 1_555
O5 C17 1_555 1_555
O6 C20 1_555 1_555
O7 H27 1_555 1_555
O8 H28 1_555 1_555
C17 H29 1_555 1_555
C18 C17 1_555 1_555
H30 C18 1_555 1_555
H31 C18 1_555 1_555
C19 C18 1_555 1_555
C20 C19 1_555 1_555
C21 O7 1_555 1_555
H32 C21 1_555 1_555
C22 C21 1_555 1_555
H33 C22 1_555 1_555
H34 C22 1_555 1_555
C23 C22 1_555 1_555
H35 C23 1_555 1_555
H36 C23 1_555 1_555
C24 O5 1_555 1_555
C25 C17 1_555 1_555
H37 C25 1_555 1_555
H38 C25 1_555 1_555
C26 O8 1_555 1_555
H39 C26 1_555 1_555
C27 C26 1_555 1_555
H40 C27 1_555 1_555
H41 C27 1_555 1_555
C28 C27 1_555 1_555
H42 C28 1_555 1_555
H43 C28 1_555 1_555
C29 C28 1_555 1_555
H44 C29 1_555 1_555
H45 C29 1_555 1_555
C30 C29 1_555 1_555
H46 C30 1_555 1_555
H47 C30 1_555 1_555
C31 C30 1_555 1_555
H48 C31 1_555 1_555
H49 C31 1_555 1_555
C32 C31 1_555 1_555
H50 C32 1_555 1_555
H51 C32 1_555 1_555
H52 C32 1_555 1_555
C3 C8 1_555 1_555
C4 C5 1_555 1_555
C7 C8 1_555 1_555
C9 C10 1_555 1_555
C19 C24 1_555 1_555
C20 C21 1_555 1_555
C23 C24 1_555 1_555
C25 C26 1_555 1_555

#END
