
#######################################################################
#
#                 Cambridge Crystallographic Data Centre
#                                CCDC 
#
#######################################################################
#
# If this CIF has been generated from an entry in the Cambridge 
# Structural Database, then it will include bibliographic, chemical, 
# crystal, experimental, refinement or atomic coordinate data resulting 
# from the CCDC's data processing and validation procedures.
#
#######################################################################

data_ZEKJOQ
_chemical_formula_moiety         'C18 H34 Ca1 O4'
_chemical_name_systematic        
(1,2-bis(2-(methoxy)ethoxy)cyclohexane)-bis(\h^3^-allyl)-calcium
_symmetry_cell_setting           orthorhombic
_symmetry_space_group_name_H-M   'C 2 2 21'
_symmetry_Int_Tables_number      20
_space_group_name_Hall           'C 2n 2'
loop_
_symmetry_equiv_pos_site_id
_symmetry_equiv_pos_as_xyz
1 x,y,z
2 -x,-y,1/2+z
3 x,-y,-z
4 -x,y,1/2-z
5 1/2+x,1/2+y,z
6 1/2-x,1/2-y,1/2+z
7 1/2+x,1/2-y,-z
8 1/2-x,1/2+y,1/2-z
_cell_length_a                   11.0925(10)
_cell_length_b                   13.1506(12)
_cell_length_c                   13.4576(12)
_cell_angle_alpha                90
_cell_angle_beta                 90
_cell_angle_gamma                90
_cell_volume                     1963.1
_exptl_crystal_colour            colorless
_exptl_crystal_description       block
_cell_formula_units_Z            4
loop_
_atom_site_label
_atom_site_type_symbol
_atom_site_fract_x
_atom_site_fract_y
_atom_site_fract_z
Ca1 Ca 0.77196(8) 0.0000 0.5000
O1 O 0.7373(3) -0.1477(2) 0.3941(2)
O2 O 0.9626(2) -0.08132(17) 0.43829(19)
C1 C 0.8225(4) 0.1296(4) 0.3444(3)
H1 H 0.8266 0.2029 0.3607
H2 H 0.8864 0.1073 0.2979
C2 C 0.7109(4) 0.0911(3) 0.3281(3)
H3 H 0.7041 0.0446 0.2696
C3 C 0.6081(5) 0.0976(4) 0.3870(4)
H4 H 0.5382 0.0567 0.3650
H5 H 0.5854 0.1668 0.4093
C4 C 0.6297(7) -0.1669(6) 0.3401(6)
H6 H 0.6390 -0.1424 0.2717
H7 H 0.5623 -0.1315 0.3719
H8 H 0.6137 -0.2402 0.3393
C5 C 0.8306(8) -0.1883(7) 0.3455(7)
H9 H 0.8434 -0.1516 0.2821
H10 H 0.8135 -0.2604 0.3299
C6 C 0.9363(6) -0.1814(5) 0.4054(5)
H11 H 0.9263 -0.2258 0.4642
H12 H 1.0059 -0.2072 0.3669
C7 C 1.0622(5) -0.0572(4) 0.4871(5)
H13 H 1.0621 -0.0959 0.5511
C8 C 1.1769(11) -0.0897(10) 0.4275(9)
H14 H 1.1770 -0.1644 0.4179
H15 H 1.1764 -0.0570 0.3612
C9 C 1.2893(7) -0.0575(6) 0.4849(7)
H16 H 1.3613 -0.0714 0.4437
H17 H 1.2957 -0.0994 0.5458
O1B O 0.7373(3) 0.1477(2) 0.6059(2)
O2B O 0.9626(2) 0.08132(17) 0.56171(19)
C1B C 0.8225(4) -0.1296(4) 0.6556(3)
H1B H 0.8266 -0.2029 0.6393
H2B H 0.8864 -0.1073 0.7021
C2B C 0.7109(4) -0.0911(3) 0.6719(3)
H3B H 0.7041 -0.0446 0.7304
C3B C 0.6081(5) -0.0976(4) 0.6130(4)
H4B H 0.5382 -0.0567 0.6350
H5B H 0.5854 -0.1668 0.5907
C4B C 0.6297(7) 0.1669(6) 0.6599(6)
H6B H 0.6390 0.1424 0.7283
H7B H 0.5623 0.1315 0.6281
H8B H 0.6137 0.2402 0.6607
C5B C 0.8306(8) 0.1883(7) 0.6545(7)
H9B H 0.8434 0.1516 0.7179
H10B H 0.8135 0.2604 0.6701
C6B C 0.9363(6) 0.1814(5) 0.5946(5)
H11B H 0.9263 0.2258 0.5358
H12B H 1.0059 0.2072 0.6331
C7B C 1.0622(5) 0.0572(4) 0.5129(5)
H13B H 1.0621 0.0959 0.4489
C8B C 1.1769(11) 0.0897(10) 0.5725(9)
H14B H 1.1770 0.1644 0.5821
H15B H 1.1764 0.0570 0.6388
C9B C 1.2893(7) 0.0575(6) 0.5151(7)
H16B H 1.3613 0.0714 0.5563
H17B H 1.2957 0.0994 0.4542
C10? C 0.6135(9) -0.1889(9) 0.3663(8)
C11? C 0.8466(12) -0.2036(10) 0.3623(11)
C12? C 0.9601(7) -0.1399(6) 0.3539(6)
C13? C 1.0831(7) -0.0284(6) 0.4506(7)
C14? C 1.1924(10) -0.0889(9) 0.4458(9)
C15? C 1.3116(9) -0.0272(8) 0.4518(8)
H18? H 0.5902 -0.1627 0.3009
H19? H 0.5542 -0.1671 0.4160
H20? H 0.6163 -0.2633 0.3642
H21? H 0.8304 -0.2352 0.2969
H22? H 0.8617 -0.2592 0.4103
H23? H 1.0324 -0.1839 0.3503
H24? H 0.9573 -0.0965 0.2938
H25? H 1.0887 0.0240 0.3970
H26? H 1.1921 -0.1278 0.3828
H27? H 1.1913 -0.1387 0.5010
H28? H 1.3819 -0.0734 0.4475
H29? H 1.3162 0.0220 0.3962
loop_
_geom_bond_atom_site_label_1
_geom_bond_atom_site_label_2
_geom_bond_site_symmetry_1
_geom_bond_site_symmetry_2
Ca1 O1 1_555 1_555
O1 C4 1_555 1_555
O2 Ca1 1_555 1_555
C1 Ca1 1_555 1_555
H1 C1 1_555 1_555
H2 C1 1_555 1_555
C2 Ca1 1_555 1_555
H3 C2 1_555 1_555
C3 Ca1 1_555 1_555
H4 C3 1_555 1_555
H5 C3 1_555 1_555
C4 H6 1_555 1_555
H7 C4 1_555 1_555
H8 C4 1_555 1_555
C5 O1 1_555 1_555
H9 C5 1_555 1_555
H10 C5 1_555 1_555
C6 O2 1_555 1_555
H11 C6 1_555 1_555
H12 C6 1_555 1_555
C7 O2 1_555 1_555
H13 C7 1_555 1_555
C8 C7 1_555 1_555
H14 C8 1_555 1_555
H15 C8 1_555 1_555
C9 C8 1_555 1_555
H16 C9 1_555 1_555
H17 C9 1_555 1_555
O1B Ca1 1_555 1_555
O2B Ca1 1_555 1_555
C1B Ca1 1_555 1_555
H1B C1B 1_555 1_555
H2B C1B 1_555 1_555
C2B Ca1 1_555 1_555
H3B C2B 1_555 1_555
C3B Ca1 1_555 1_555
H4B C3B 1_555 1_555
H5B C3B 1_555 1_555
C4B O1B 1_555 1_555
H6B C4B 1_555 1_555
H7B C4B 1_555 1_555
H8B C4B 1_555 1_555
C5B O1B 1_555 1_555
H9B C5B 1_555 1_555
H10B C5B 1_555 1_555
C6B O2B 1_555 1_555
H11B C6B 1_555 1_555
H12B C6B 1_555 1_555
C7B C7 1_555 1_555
H13B C7B 1_555 1_555
C8B C7B 1_555 1_555
H14B C8B 1_555 1_555
H15B C8B 1_555 1_555
C9B C9 1_555 1_555
H16B C9B 1_555 1_555
H17B C9B 1_555 1_555
C1 C2 1_555 1_555
C2 C3 1_555 1_555
C5 C6 1_555 1_555
O2B C7B 1_555 1_555
C1B C2B 1_555 1_555
C2B C3B 1_555 1_555
C5B C6B 1_555 1_555
C8B C9B 1_555 1_555

#END
