
#######################################################################
#
#                 Cambridge Crystallographic Data Centre
#                                CCDC 
#
#######################################################################
#
# If this CIF has been generated from an entry in the Cambridge 
# Structural Database, then it will include bibliographic, chemical, 
# crystal, experimental, refinement or atomic coordinate data resulting 
# from the CCDC's data processing and validation procedures.
#
#######################################################################

data_ZEKKAD
_chemical_formula_moiety         'C20 H52 Ca1 N2 O4 Si4'
_chemical_name_systematic        
(1,2-bis(2-(methoxy)ethoxy)cyclohexane)-bis(bis(dimethylsilyl)amido)-calcium
_symmetry_cell_setting           orthorhombic
_symmetry_space_group_name_H-M   'P 21 21 21'
_symmetry_Int_Tables_number      19
_space_group_name_Hall           'P 2ac 2ab'
loop_
_symmetry_equiv_pos_site_id
_symmetry_equiv_pos_as_xyz
1 x,y,z
2 1/2-x,-y,1/2+z
3 1/2+x,1/2-y,-z
4 -x,1/2+y,1/2-z
_cell_length_a                   9.321(2)
_cell_length_b                   16.216(4)
_cell_length_c                   21.088(5)
_cell_angle_alpha                90
_cell_angle_beta                 90
_cell_angle_gamma                90
_cell_volume                     3187.44
_exptl_crystal_description       plate
_cell_formula_units_Z            4
loop_
_atom_site_label
_atom_site_type_symbol
_atom_site_fract_x
_atom_site_fract_y
_atom_site_fract_z
Ca1 Ca 0.83016(13) 0.97666(6) 0.34331(5)
Si1 Si 0.8327(2) 0.93946(11) 0.17391(9)
H1 H 0.815(7) 0.998(4) 0.120(3)
Si2 Si 0.56610(18) 0.99386(10) 0.23645(8)
H2 H 0.511(7) 0.992(4) 0.301(3)
Si3 Si 1.1104(2) 0.95060(11) 0.45804(9)
H3 H 1.265(7) 0.971(4) 0.432(3)
Si4 Si 1.0496(2) 0.82199(11) 0.36037(9)
H4 H 0.953(8) 0.812(4) 0.305(3)
O1 O 1.0050(5) 1.0783(3) 0.3094(2)
O2 O 0.7437(5) 1.1222(2) 0.35685(18)
O3 O 0.6861(6) 1.0032(2) 0.4395(2)
O4 O 0.6787(6) 0.8601(2) 0.3702(2)
N1 N 1.0154(5) 0.9114(3) 0.3972(2)
N2 N 0.7401(5) 0.9695(3) 0.2391(3)
C1 C 1.1543(8) 1.0822(5) 0.3079(4)
H5 H 1.1875 1.1260 0.3363
H6 H 1.1861 1.0940 0.2646
H7 H 1.1942 1.0293 0.3217
C2 C 0.9284(8) 1.1475(4) 0.2829(3)
H8 H 0.8646 1.1288 0.2482
H9 H 0.9968 1.1883 0.2654
C3 C 0.8429(7) 1.1851(3) 0.3343(3)
H10 H 0.9064 1.2034 0.3692
H11 H 0.7894 1.2335 0.3182
C4 C 0.6681(7) 1.1438(3) 0.4134(3)
H12 H 0.7391 1.1574 0.4474
C5 C 0.5815(7) 1.0691(3) 0.4336(3)
H13 H 0.5111 1.0549 0.3995
C6 C 0.5016(8) 1.0847(4) 0.4953(3)
H14 H 0.5712 1.0944 0.5300
H15 H 0.4435 1.0356 0.5064
C7 C 0.4038(8) 1.1597(4) 0.4881(3)
H16 H 0.3579 1.1723 0.5293
H17 H 0.3270 1.1472 0.4571
C8 C 0.4892(9) 1.2352(4) 0.4654(3)
H18 H 0.4229 1.2822 0.4590
H19 H 0.5596 1.2510 0.4984
C9 C 0.5671(8) 1.2172(4) 0.4042(3)
H20 H 0.6228 1.2663 0.3910
H21 H 0.4967 1.2046 0.3704
C10 C 0.6583(13) 0.9290(5) 0.4735(5)
H22 H 0.5961 0.9400 0.5106
H23 H 0.7490 0.9039 0.4885
C11 C 0.5824(12) 0.8717(5) 0.4261(4)
H24 H 0.5620 0.8179 0.4463
H25 H 0.4904 0.8965 0.4125
C12 C 0.6346(9) 0.7948(4) 0.3305(4)
H26 H 0.5486 0.7689 0.3483
H27 H 0.7117 0.7539 0.3275
H28 H 0.6130 0.8163 0.2882
C13 C 0.8074(8) 0.8281(4) 0.1535(4)
H29 H 0.7069 0.8183 0.1421
H30 H 0.8330 0.7940 0.1901
H31 H 0.8691 0.8138 0.1175
C14 C 1.0292(10) 0.9587(6) 0.1733(4)
H32 H 1.0685 0.9482 0.2157
H33 H 1.0475 1.0162 0.1615
H34 H 1.0752 0.9219 0.1426
C15 C 0.4502(7) 0.9248(5) 0.1874(3)
H35 H 0.4658 0.8673 0.2000
H36 H 0.4748 0.9315 0.1425
H37 H 0.3492 0.9393 0.1939
C16 C 0.5268(8) 1.1017(4) 0.2092(4)
H38 H 0.5583 1.1083 0.1652
H39 H 0.5781 1.1410 0.2362
H40 H 0.4234 1.1121 0.2120
C17 C 1.1474(16) 0.8806(7) 0.5249(5)
H41 H 1.0577 0.8548 0.5388
H42 H 1.1891 0.9119 0.5600
H43 H 1.2149 0.8378 0.5113
C18 C 1.0340(9) 1.0489(4) 0.4865(3)
H44 H 0.9487 1.0378 0.5123
H45 H 1.0074 1.0832 0.4501
H46 H 1.1055 1.0780 0.5123
C19 C 0.9961(13) 0.7273(4) 0.4050(5)
H47 H 0.8989 0.7344 0.4219
H48 H 1.0632 0.7183 0.4401
H49 H 0.9982 0.6796 0.3765
C20 C 1.2356(10) 0.8072(6) 0.3325(5)
H50 H 1.3005 0.8054 0.3690
H51 H 1.2626 0.8531 0.3047
H52 H 1.2423 0.7553 0.3089
C21? C 0.582(2) 0.9222(11) 0.4486(10)
C22? C 0.666(3) 0.8531(12) 0.4263(9)
C23? C 1.070(3) 0.8831(13) 0.5365(11)
H53? H 0.5553 0.9149 0.4937
H54? H 0.4928 0.9281 0.4233
H55? H 0.7619 0.8534 0.4468
H56? H 0.6178 0.8005 0.4367
H57? H 0.9672 0.8829 0.5451
H58? H 1.1214 0.9071 0.5727
H59? H 1.1035 0.8264 0.5299
loop_
_geom_bond_atom_site_label_1
_geom_bond_atom_site_label_2
_geom_bond_site_symmetry_1
_geom_bond_site_symmetry_2
Ca1 O1 1_555 1_555
Si1 H1 1_555 1_555
Si2 H2 1_555 1_555
Si3 H3 1_555 1_555
Si4 H4 1_555 1_555
O1 C1 1_555 1_555
O2 Ca1 1_555 1_555
O3 Ca1 1_555 1_555
O4 Ca1 1_555 1_555
N1 Ca1 1_555 1_555
N2 Ca1 1_555 1_555
C1 H5 1_555 1_555
H6 C1 1_555 1_555
H7 C1 1_555 1_555
C2 O1 1_555 1_555
H8 C2 1_555 1_555
H9 C2 1_555 1_555
C3 O2 1_555 1_555
H10 C3 1_555 1_555
H11 C3 1_555 1_555
C4 O2 1_555 1_555
H12 C4 1_555 1_555
C5 O3 1_555 1_555
H13 C5 1_555 1_555
C6 C5 1_555 1_555
H14 C6 1_555 1_555
H15 C6 1_555 1_555
C7 C6 1_555 1_555
H16 C7 1_555 1_555
H17 C7 1_555 1_555
C8 C7 1_555 1_555
H18 C8 1_555 1_555
H19 C8 1_555 1_555
C9 C4 1_555 1_555
H20 C9 1_555 1_555
H21 C9 1_555 1_555
C10 O3 1_555 1_555
H22 C10 1_555 1_555
H23 C10 1_555 1_555
C11 O4 1_555 1_555
H24 C11 1_555 1_555
H25 C11 1_555 1_555
C12 O4 1_555 1_555
H26 C12 1_555 1_555
H27 C12 1_555 1_555
H28 C12 1_555 1_555
C13 Si1 1_555 1_555
H29 C13 1_555 1_555
H30 C13 1_555 1_555
H31 C13 1_555 1_555
C14 Si1 1_555 1_555
H32 C14 1_555 1_555
H33 C14 1_555 1_555
H34 C14 1_555 1_555
C15 Si2 1_555 1_555
H35 C15 1_555 1_555
H36 C15 1_555 1_555
H37 C15 1_555 1_555
C16 Si2 1_555 1_555
H38 C16 1_555 1_555
H39 C16 1_555 1_555
H40 C16 1_555 1_555
C17 Si3 1_555 1_555
H41 C17 1_555 1_555
H42 C17 1_555 1_555
H43 C17 1_555 1_555
C18 Si3 1_555 1_555
H44 C18 1_555 1_555
H45 C18 1_555 1_555
H46 C18 1_555 1_555
C19 Si4 1_555 1_555
H47 C19 1_555 1_555
H48 C19 1_555 1_555
H49 C19 1_555 1_555
C20 Si4 1_555 1_555
H50 C20 1_555 1_555
H51 C20 1_555 1_555
H52 C20 1_555 1_555
Si1 N2 1_555 1_555
Si2 N2 1_555 1_555
Si3 N1 1_555 1_555
Si4 N1 1_555 1_555
C2 C3 1_555 1_555
C4 C5 1_555 1_555
C8 C9 1_555 1_555
C10 C11 1_555 1_555

#END
