
#######################################################################
#
#                 Cambridge Crystallographic Data Centre
#                                CCDC 
#
#######################################################################
#
# If this CIF has been generated from an entry in the Cambridge 
# Structural Database, then it will include bibliographic, chemical, 
# crystal, experimental, refinement or atomic coordinate data resulting 
# from the CCDC's data processing and validation procedures.
#
#######################################################################

data_ZEKMEJ
_chemical_formula_moiety         'C26 H21 Cl1 N2 O5'
_chemical_name_systematic        
1-Benzyl-5-chloro-5'-methyl-3'-nitro-4'-phenyl-4',5'-dihydrospiro[indole-3,2'-pyran]-2,6'(1H,3'H)-dione
_symmetry_cell_setting           orthorhombic
_symmetry_space_group_name_H-M   'P 21 21 21'
_symmetry_Int_Tables_number      19
_space_group_name_Hall           'P 2ac 2ab'
loop_
_symmetry_equiv_pos_site_id
_symmetry_equiv_pos_as_xyz
1 x,y,z
2 1/2-x,-y,1/2+z
3 1/2+x,1/2-y,-z
4 -x,1/2+y,1/2-z
_cell_length_a                   8.7125(6)
_cell_length_b                   11.9908(6)
_cell_length_c                   22.8948(13)
_cell_angle_alpha                90
_cell_angle_beta                 90
_cell_angle_gamma                90
_cell_volume                     2391.82
_exptl_crystal_colour            colorless
_exptl_crystal_description       block
_cell_formula_units_Z            4
loop_
_atom_site_label
_atom_site_type_symbol
_atom_site_fract_x
_atom_site_fract_y
_atom_site_fract_z
Cl1 Cl -0.47471(17) -0.06189(10) -0.22812(6)
O1 O -0.1809(3) -0.3171(2) -0.05768(11)
O2 O -0.0464(4) -0.3043(3) 0.02191(13)
O3 O -0.0599(4) -0.5341(2) -0.08695(14)
O4 O -0.4179(4) -0.6035(2) -0.12319(14)
O5 O -0.6125(4) -0.4941(3) -0.12147(18)
N1 N -0.1255(4) -0.4690(3) -0.17820(15)
N2 N -0.4821(4) -0.5181(3) -0.10824(15)
C1 C -0.3824(5) -0.1898(4) -0.21759(18)
C2 C -0.3773(5) -0.2324(3) -0.16202(18)
H1 H -0.4285 -0.1980 -0.1313
C3 C -0.2929(5) -0.3287(3) -0.15363(16)
C4 C -0.2144(5) -0.3788(3) -0.19966(17)
C5 C -0.2267(6) -0.3382(4) -0.25550(18)
H2 H -0.1806 -0.3745 -0.2868
C6 C -0.3106(6) -0.2410(4) -0.2635(2)
H3 H -0.3182 -0.2101 -0.3007
C7 C -0.2569(5) -0.3909(3) -0.09837(17)
C8 C -0.1356(5) -0.4759(3) -0.11910(18)
C9 C -0.3981(4) -0.4409(3) -0.06763(15)
H4 H -0.4673 -0.3799 -0.0567
C10 C -0.3548(5) -0.5049(3) -0.01252(15)
H5 H -0.2908 -0.5686 -0.0237
C11 C -0.2601(5) -0.4283(3) 0.02756(17)
H6 H -0.3345 -0.3804 0.0476
C12 C -0.1504(5) -0.3512(3) -0.00240(16)
C13 C -0.4955(5) -0.5485(3) 0.01905(17)
C14 C -0.6142(5) -0.4805(4) 0.0346(2)
H7 H -0.6109 -0.4055 0.0243
C15 C -0.7391(6) -0.5201(4) 0.0653(2)
H8 H -0.8184 -0.4719 0.0754
C16 C -0.7470(7) -0.6294(5) 0.0810(3)
H9 H -0.8300 -0.6561 0.1023
C17 C -0.6305(7) -0.6989(4) 0.0649(3)
H10 H -0.6351 -0.7740 0.0750
C18 C -0.5070(6) -0.6599(3) 0.0341(2)
H11 H -0.4297 -0.7091 0.0232
C19 C -0.1811(6) -0.4949(5) 0.0751(2)
H12 H -0.2553 -0.5406 0.0949
H13 H -0.1345 -0.4448 0.1026
H14 H -0.1036 -0.5415 0.0580
C20 C -0.0100(5) -0.5287(4) -0.2121(2)
H15 H 0.0619 -0.5634 -0.1853
H16 H 0.0467 -0.4753 -0.2354
C21 C -0.0742(5) -0.6173(4) -0.25195(19)
C22 C -0.0209(7) -0.6224(5) -0.3085(2)
H17 H 0.0493 -0.5702 -0.3223
C23 C -0.0738(10) -0.7064(7) -0.3444(3)
H18 H -0.0366 -0.7116 -0.3824
C24 C -0.1774(9) -0.7804(6) -0.3258(4)
H19 H -0.2124 -0.8355 -0.3510
C25 C -0.2325(7) -0.7758(5) -0.2699(4)
H20 H -0.3052 -0.8270 -0.2571
C26 C -0.1772(6) -0.6924(4) -0.2324(3)
H21 H -0.2116 -0.6890 -0.1939
loop_
_geom_bond_atom_site_label_1
_geom_bond_atom_site_label_2
_geom_bond_site_symmetry_1
_geom_bond_site_symmetry_2
Cl1 C1 1_555 1_555
O1 C7 1_555 1_555
O2 C12 1_555 1_555
O3 C8 1_555 1_555
O4 N2 1_555 1_555
O5 N2 1_555 1_555
N1 C4 1_555 1_555
N2 C9 1_555 1_555
C1 C2 1_555 1_555
C2 H1 1_555 1_555
C3 C2 1_555 1_555
C4 C3 1_555 1_555
C5 C4 1_555 1_555
H2 C5 1_555 1_555
C6 C1 1_555 1_555
H3 C6 1_555 1_555
C7 C3 1_555 1_555
C8 N1 1_555 1_555
C9 C7 1_555 1_555
H4 C9 1_555 1_555
C10 C9 1_555 1_555
H5 C10 1_555 1_555
C11 C10 1_555 1_555
H6 C11 1_555 1_555
C12 O1 1_555 1_555
C13 C10 1_555 1_555
C14 C13 1_555 1_555
H7 C14 1_555 1_555
C15 C14 1_555 1_555
H8 C15 1_555 1_555
C16 C15 1_555 1_555
H9 C16 1_555 1_555
C17 C16 1_555 1_555
H10 C17 1_555 1_555
C18 C13 1_555 1_555
H11 C18 1_555 1_555
C19 C11 1_555 1_555
H12 C19 1_555 1_555
H13 C19 1_555 1_555
H14 C19 1_555 1_555
C20 N1 1_555 1_555
H15 C20 1_555 1_555
H16 C20 1_555 1_555
C21 C20 1_555 1_555
C22 C21 1_555 1_555
H17 C22 1_555 1_555
C23 C22 1_555 1_555
H18 C23 1_555 1_555
C24 C23 1_555 1_555
H19 C24 1_555 1_555
C25 C24 1_555 1_555
H20 C25 1_555 1_555
C26 C21 1_555 1_555
H21 C26 1_555 1_555
C5 C6 1_555 1_555
C7 C8 1_555 1_555
C11 C12 1_555 1_555
C17 C18 1_555 1_555
C25 C26 1_555 1_555

#END
