
#######################################################################
#
#                 Cambridge Crystallographic Data Centre
#                                CCDC 
#
#######################################################################
#
# If this CIF has been generated from an entry in the Cambridge 
# Structural Database, then it will include bibliographic, chemical, 
# crystal, experimental, refinement or atomic coordinate data resulting 
# from the CCDC's data processing and validation procedures.
#
#######################################################################

data_ZEKVIW
_chemical_formula_moiety         'C12 H9 I1 O2'
_chemical_name_systematic        4-Iodo-3-(prop-1-en-2-yl)-1H-isochromen-1-one
_symmetry_cell_setting           monoclinic
_symmetry_space_group_name_H-M   'P 21/a'
_symmetry_Int_Tables_number      14
_space_group_name_Hall           '-P 2yab'
loop_
_symmetry_equiv_pos_site_id
_symmetry_equiv_pos_as_xyz
1 x,y,z
2 1/2-x,1/2+y,-z
3 -x,-y,-z
4 1/2+x,1/2-y,z
_cell_length_a                   7.714(4)
_cell_length_b                   18.219(10)
_cell_length_c                   8.198(5)
_cell_angle_alpha                90
_cell_angle_beta                 97.004(5)
_cell_angle_gamma                90
_cell_volume                     1143.56
_cell_formula_units_Z            4
loop_
_atom_site_label
_atom_site_type_symbol
_atom_site_fract_x
_atom_site_fract_y
_atom_site_fract_z
C1 C 0.3621(6) 0.6436(2) 0.3803(6)
C2 C 0.4980(6) 0.6103(2) 0.4923(5)
C3 C 0.5059(8) 0.6098(3) 0.6642(6)
H1 H 0.4179 0.6322 0.7143
C4 C 0.6427(9) 0.5767(3) 0.7585(7)
H2 H 0.6459 0.5769 0.8723
C5 C 0.7749(8) 0.5432(3) 0.6889(7)
H3 H 0.8666 0.5210 0.7551
C6 C 0.7712(7) 0.5426(3) 0.5219(6)
H4 H 0.8601 0.5197 0.4737
C7 C 0.6348(6) 0.5760(2) 0.4251(5)
C8 C 0.6374(7) 0.5741(3) 0.2470(6)
C9 C 0.3671(6) 0.6425(2) 0.2187(6)
C10 C 0.2427(7) 0.6735(3) 0.0837(6)
C11 C 0.2468(9) 0.7447(4) 0.0546(9)
H5 H 0.1713 0.7650 -0.0305
H6 H 0.3254 0.7746 0.1192
C12 C 0.1239(8) 0.6205(4) -0.0105(7)
H7 H 0.1909 0.5808 -0.0477
H8 H 0.0611 0.6448 -0.1035
H9 H 0.0426 0.6016 0.0588
I1 I 0.15074(6) 0.69411(3) 0.47077(6)
O1 O 0.5006(4) 0.60724(18) 0.1520(4)
O2 O 0.7488(5) 0.5471(2) 0.1756(5)
loop_
_geom_bond_atom_site_label_1
_geom_bond_atom_site_label_2
_geom_bond_site_symmetry_1
_geom_bond_site_symmetry_2
C1 C2 1_555 1_555
C2 C3 1_555 1_555
C3 H1 1_555 1_555
C4 C3 1_555 1_555
H2 C4 1_555 1_555
C5 C4 1_555 1_555
H3 C5 1_555 1_555
C6 C5 1_555 1_555
H4 C6 1_555 1_555
C7 C2 1_555 1_555
C8 C7 1_555 1_555
C9 C1 1_555 1_555
C10 C9 1_555 1_555
C11 C10 1_555 1_555
H5 C11 1_555 1_555
H6 C11 1_555 1_555
C12 C10 1_555 1_555
H7 C12 1_555 1_555
H8 C12 1_555 1_555
H9 C12 1_555 1_555
I1 C1 1_555 1_555
O1 C8 1_555 1_555
O2 C8 1_555 1_555
C6 C7 1_555 1_555
C9 O1 1_555 1_555

#END
