
#######################################################################
#
#                 Cambridge Crystallographic Data Centre
#                                CCDC 
#
#######################################################################
#
# If this CIF has been generated from an entry in the Cambridge 
# Structural Database, then it will include bibliographic, chemical, 
# crystal, experimental, refinement or atomic coordinate data resulting 
# from the CCDC's data processing and validation procedures.
#
#######################################################################

data_ZEKVES
_chemical_formula_moiety         'C22 H13 I1 O2'
_chemical_name_systematic        
2'-Iodo-3'-phenyl-3H-spiro[2-benzofuran-1,1'-inden]-3-one
_symmetry_cell_setting           triclinic
_symmetry_space_group_name_H-M   'P -1'
_symmetry_Int_Tables_number      2
_space_group_name_Hall           '-P 1'
loop_
_symmetry_equiv_pos_site_id
_symmetry_equiv_pos_as_xyz
1 x,y,z
2 -x,-y,-z
_cell_length_a                   9.369(2)
_cell_length_b                   9.971(2)
_cell_length_c                   10.815(4)
_cell_angle_alpha                98.526(3)
_cell_angle_beta                 93.088(3)
_cell_angle_gamma                117.892(2)
_cell_volume                     874.263
_exptl_crystal_colour            yellow
_exptl_crystal_description       block
_cell_formula_units_Z            2
loop_
_atom_site_label
_atom_site_type_symbol
_atom_site_fract_x
_atom_site_fract_y
_atom_site_fract_z
C1 C 0.1958(4) 0.0158(4) 0.0343(3)
C2 C 0.2373(4) 0.1730(4) 0.0201(3)
C3 C 0.2196(4) 0.2267(4) -0.0878(3)
H1 H 0.1816 0.1612 -0.1666
C4 C 0.2598(5) 0.3792(5) -0.0741(3)
H2 H 0.2490 0.4185 -0.1448
C5 C 0.3163(4) 0.4756(4) 0.0431(3)
H3 H 0.3428 0.5789 0.0499
C6 C 0.3346(4) 0.4227(4) 0.1507(3)
H4 H 0.3732 0.4885 0.2294
C7 C 0.2934(4) 0.2688(4) 0.1370(3)
C8 C 0.2931(4) 0.1755(3) 0.2341(3)
C9 C 0.1992(4) 0.1818(3) 0.3427(3)
C10 C 0.0437(4) 0.1603(4) 0.3405(3)
H5 H -0.0215 0.1374 0.2643
C11 C -0.0146(4) 0.1732(4) 0.4545(3)
H6 H -0.1209 0.1564 0.4551
C12 C 0.0847(4) 0.2110(4) 0.5671(3)
H7 H 0.0440 0.2191 0.6428
C13 C 0.2433(4) 0.2369(4) 0.5696(3)
H8 H 0.3102 0.2646 0.6460
C14 C 0.3003(4) 0.2208(3) 0.4561(3)
C15 C 0.4623(4) 0.2419(3) 0.4294(3)
C16 C 0.4583(4) 0.2172(3) 0.3038(3)
C17 C 0.5956(4) 0.2791(3) 0.5300(3)
C18 C 0.5677(4) 0.1876(4) 0.6205(3)
H9 H 0.4658 0.1019 0.6165
C19 C 0.6900(5) 0.2230(5) 0.7160(3)
H10 H 0.6710 0.1602 0.7755
C20 C 0.8392(5) 0.3500(5) 0.7240(3)
H11 H 0.9208 0.3745 0.7897
C21 C 0.8691(4) 0.4413(5) 0.6356(3)
H12 H 0.9712 0.5272 0.6408
C22 C 0.7476(4) 0.4061(4) 0.5386(3)
H13 H 0.7685 0.4683 0.4786
I1 I 0.63468(3) 0.20511(3) 0.20211(2)
O1 O 0.1464(3) -0.1017(3) -0.0421(2)
O2 O 0.2213(3) 0.0178(2) 0.16056(18)
loop_
_geom_bond_atom_site_label_1
_geom_bond_atom_site_label_2
_geom_bond_site_symmetry_1
_geom_bond_site_symmetry_2
C1 C2 1_555 1_555
C2 C3 1_555 1_555
C3 H1 1_555 1_555
C4 C3 1_555 1_555
H2 C4 1_555 1_555
C5 C4 1_555 1_555
H3 C5 1_555 1_555
C6 C5 1_555 1_555
H4 C6 1_555 1_555
C7 C2 1_555 1_555
C8 C7 1_555 1_555
C9 C8 1_555 1_555
C10 C9 1_555 1_555
H5 C10 1_555 1_555
C11 C10 1_555 1_555
H6 C11 1_555 1_555
C12 C11 1_555 1_555
H7 C12 1_555 1_555
C13 C12 1_555 1_555
H8 C13 1_555 1_555
C14 C9 1_555 1_555
C15 C14 1_555 1_555
C16 C8 1_555 1_555
C17 C15 1_555 1_555
C18 C17 1_555 1_555
H9 C18 1_555 1_555
C19 C18 1_555 1_555
H10 C19 1_555 1_555
C20 C19 1_555 1_555
H11 C20 1_555 1_555
C21 C20 1_555 1_555
H12 C21 1_555 1_555
C22 C17 1_555 1_555
H13 C22 1_555 1_555
I1 C16 1_555 1_555
O1 C1 1_555 1_555
O2 C1 1_555 1_555
C6 C7 1_555 1_555
C8 O2 1_555 1_555
C13 C14 1_555 1_555
C15 C16 1_555 1_555
C21 C22 1_555 1_555

#END
