
#######################################################################
#
#                 Cambridge Crystallographic Data Centre
#                                CCDC 
#
#######################################################################
#
# If this CIF has been generated from an entry in the Cambridge 
# Structural Database, then it will include bibliographic, chemical, 
# crystal, experimental, refinement or atomic coordinate data resulting 
# from the CCDC's data processing and validation procedures.
#
#######################################################################

data_ZEKYAS
_chemical_compound_source        
'isolated from the roots and rhizomes of Rubia podantha'
_chemical_name_common            'rubipodanone A'
_chemical_formula_moiety         'C27 H22 O6'
_chemical_name_systematic        
"methyl 4-hydroxy-2-(3-methylbut-2-en-1-yl)-1,1',4'-trioxo-1,1',2,4'-tetrahydro-2,2'-binaphthalene-3-carboxylate"
_chemical_properties_biological  
'cytotoxicity against human tumor cell lines and activating effect on NF- B signaling pathway'
_symmetry_cell_setting           orthorhombic
_symmetry_space_group_name_H-M   'P 21 21 21'
_symmetry_Int_Tables_number      19
_space_group_name_Hall           'P 2ac 2ab'
loop_
_symmetry_equiv_pos_site_id
_symmetry_equiv_pos_as_xyz
1 x,y,z
2 1/2+x,1/2-y,-z
3 -x,1/2+y,1/2-z
4 1/2-x,-y,1/2+z
_cell_length_a                   10.3671(3)
_cell_length_b                   11.1200(3)
_cell_length_c                   19.0414(5)
_cell_angle_alpha                90
_cell_angle_beta                 90
_cell_angle_gamma                90
_cell_volume                     2195.13
_exptl_crystal_colour            yellow
_exptl_crystal_description       prism
_cell_formula_units_Z            4
_chemical_properties_physical    Light-sensitive
loop_
_atom_site_label
_atom_site_type_symbol
_atom_site_fract_x
_atom_site_fract_y
_atom_site_fract_z
O1 O 0.7492(3) 0.8182(3) 0.28149(19)
H1 H 0.7977 0.8761 0.2712
O2 O 0.0615(3) 1.0154(4) 0.13654(18)
O3 O 0.3325(3) 0.7317(3) 0.30813(18)
O4 O 0.2962(3) 0.9494(3) 0.40169(16)
O5 O 0.6812(3) 0.9032(3) 0.16578(18)
O6 O 0.4952(3) 1.0034(3) 0.15778(15)
C1 C 0.7079(5) 0.7859(5) 0.4959(3)
H2 H 0.7751 0.7505 0.5228
C2 C 0.7210(5) 0.7946(4) 0.4226(3)
H3 H 0.7973 0.7667 0.4003
C3 C 0.6225(5) 0.8438(4) 0.3831(3)
C4 C 0.6374(4) 0.8603(4) 0.3070(2)
C5 C 0.5475(4) 0.9168(4) 0.2663(2)
C6 C 0.4226(4) 0.9661(4) 0.2982(3)
C7 C 0.3040(4) 0.9240(4) 0.2584(3)
C8 C 0.2695(4) 0.7946(4) 0.2675(2)
C9 C 0.1580(4) 0.7439(5) 0.2278(2)
C10 C 0.1304(5) 0.6227(5) 0.2309(3)
H4 H 0.1795 0.5717 0.2607
C11 C 0.0317(5) 0.5750(5) 0.1908(3)
H5 H 0.0138 0.4913 0.1931
C12 C -0.0414(5) 0.6480(5) 0.1473(2)
H6 H -0.1087 0.6142 0.1198
C13 C 0.5994(5) 0.8279(5) 0.5293(3)
H7 H 0.5933 0.8249 0.5790
C14 C 0.4976(5) 0.8753(4) 0.4894(2)
H8 H 0.4215 0.9032 0.5119
C15 C 0.5091(5) 0.8812(4) 0.4160(3)
C16 C 0.2318(4) 0.9932(4) 0.2162(3)
H9 H 0.2530 1.0761 0.2121
C17 C 0.1225(5) 0.9473(5) 0.1762(2)
C18 C 0.0862(4) 0.8196(4) 0.1832(2)
C19 C -0.0164(5) 0.7709(5) 0.1440(2)
H10 H -0.0683 0.8216 0.1154
C20 C 0.4305(4) 1.1084(4) 0.3020(2)
H11 H 0.4423 1.1417 0.2543
H12 H 0.3490 1.1408 0.3214
C21 C 0.5404(4) 1.1449(4) 0.3474(3)
H13 H 0.6236 1.1390 0.3268
C22 C 0.5368(4) 1.1853(4) 0.4143(2)
C23 C 0.6607(5) 1.2095(6) 0.4537(3)
H14 H 0.6689 1.1522 0.4926
H15 H 0.6593 1.2916 0.4723
H16 H 0.7341 1.2002 0.4218
C24 C 0.4161(4) 1.2023(5) 0.4557(3)
H17 H 0.3424 1.2074 0.4236
H18 H 0.4223 1.2767 0.4830
H19 H 0.4044 1.1340 0.4876
C25 C 0.3995(4) 0.9306(4) 0.3759(2)
C26 C 0.5821(5) 0.9385(4) 0.1927(3)
C27 C 0.5300(6) 1.0376(5) 0.0869(2)
H20 H 0.6191 1.0671 0.0863
H21 H 0.4720 1.1013 0.0705
H22 H 0.5225 0.9676 0.0558
loop_
_geom_bond_atom_site_label_1
_geom_bond_atom_site_label_2
_geom_bond_site_symmetry_1
_geom_bond_site_symmetry_2
O1 H1 1_555 1_555
O2 C17 1_555 1_555
O3 C8 1_555 1_555
O4 C25 1_555 1_555
O5 C26 1_555 1_555
O6 C26 1_555 1_555
C1 H2 1_555 1_555
C2 C1 1_555 1_555
H3 C2 1_555 1_555
C3 C2 1_555 1_555
C4 O1 1_555 1_555
C5 C4 1_555 1_555
C6 C5 1_555 1_555
C7 C6 1_555 1_555
C8 C7 1_555 1_555
C9 C8 1_555 1_555
C10 C9 1_555 1_555
H4 C10 1_555 1_555
C11 C10 1_555 1_555
H5 C11 1_555 1_555
C12 C11 1_555 1_555
H6 C12 1_555 1_555
C13 C1 1_555 1_555
H7 C13 1_555 1_555
C14 C13 1_555 1_555
H8 C14 1_555 1_555
C15 C3 1_555 1_555
C16 C7 1_555 1_555
H9 C16 1_555 1_555
C17 C16 1_555 1_555
C18 C9 1_555 1_555
C19 C12 1_555 1_555
H10 C19 1_555 1_555
C20 C6 1_555 1_555
H11 C20 1_555 1_555
H12 C20 1_555 1_555
C21 C20 1_555 1_555
H13 C21 1_555 1_555
C22 C21 1_555 1_555
C23 C22 1_555 1_555
H14 C23 1_555 1_555
H15 C23 1_555 1_555
H16 C23 1_555 1_555
C24 C22 1_555 1_555
H17 C24 1_555 1_555
H18 C24 1_555 1_555
H19 C24 1_555 1_555
C25 C6 1_555 1_555
C26 C5 1_555 1_555
C27 O6 1_555 1_555
H20 C27 1_555 1_555
H21 C27 1_555 1_555
H22 C27 1_555 1_555
C3 C4 1_555 1_555
C14 C15 1_555 1_555
C15 C25 1_555 1_555
C17 C18 1_555 1_555
C18 C19 1_555 1_555

#END
