
#######################################################################
#
#                 Cambridge Crystallographic Data Centre
#                                CCDC 
#
#######################################################################
#
# If this CIF has been generated from an entry in the Cambridge 
# Structural Database, then it will include bibliographic, chemical, 
# crystal, experimental, refinement or atomic coordinate data resulting 
# from the CCDC's data processing and validation procedures.
#
#######################################################################

data_ZELCIF01
_chemical_formula_moiety         'C38 H43 N1 O5 Si1'
_chemical_name_systematic        
'dimethyl 4-[{[t-butyl(diphenyl)silyl]oxy}(4-methylphenyl)methyl]-5-phenylpyrrolidine-2,4-dicarboxylate'
_symmetry_cell_setting           orthorhombic
_symmetry_space_group_name_H-M   'P 21 21 21'
_symmetry_Int_Tables_number      19
_space_group_name_Hall           'P 2ac 2ab'
loop_
_symmetry_equiv_pos_site_id
_symmetry_equiv_pos_as_xyz
1 x,y,z
2 1/2-x,-y,1/2+z
3 -x,1/2+y,1/2-z
4 1/2+x,1/2-y,-z
_cell_length_a                   8.8607(11)
_cell_length_b                   19.266(2)
_cell_length_c                   20.514(3)
_cell_angle_alpha                90
_cell_angle_beta                 90
_cell_angle_gamma                90
_cell_volume                     3501.95
_exptl_crystal_colour            colorless
_exptl_crystal_description       block
_cell_formula_units_Z            4
loop_
_atom_site_label
_atom_site_type_symbol
_atom_site_fract_x
_atom_site_fract_y
_atom_site_fract_z
N1 N 0.2159(4) 0.11865(17) 0.57251(13)
O1 O 0.5252(4) 0.22850(16) 0.62016(16)
O2 O 0.3736(5) 0.23471(16) 0.53538(15)
O3 O -0.1039(3) 0.11123(12) 0.72942(11)
O4 O -0.0093(4) 0.20608(13) 0.68390(15)
O5 O 0.2033(3) 0.08085(10) 0.79774(9)
Si1 Si 0.13613(11) 0.06811(4) 0.87129(4)
C1 C 0.3442(4) 0.14212(17) 0.61132(15)
H1 H 0.4207 0.1054 0.6120
C2 C 0.2829(4) 0.15205(17) 0.68051(15)
H2 H 0.2529 0.1999 0.6874
H3 H 0.3589 0.1398 0.7126
C3 C 0.1460(4) 0.10356(14) 0.68592(13)
C4 C 0.1295(4) 0.07274(16) 0.61458(13)
H4 H 0.1816 0.0279 0.6145
C5 C 0.4124(5) 0.20630(19) 0.58272(19)
C6 C 0.6033(7) 0.2905(3) 0.5989(3)
H5 H 0.6596 0.2804 0.5600
H6 H 0.6711 0.3056 0.6325
H7 H 0.5312 0.3264 0.5900
C7 C 0.0056(4) 0.14678(17) 0.69988(15)
C8 C -0.2432(5) 0.1478(2) 0.7402(2)
H8 H -0.2228 0.1906 0.7626
H9 H -0.3094 0.1197 0.7662
H10 H -0.2902 0.1576 0.6991
C9 C -0.0278(4) 0.05974(19) 0.58982(14)
C10 C -0.0927(5) -0.0045(2) 0.59849(18)
H11 H -0.0400 -0.0394 0.6200
C11 C -0.2376(7) -0.0171(4) 0.5750(2)
H12 H -0.2819 -0.0603 0.5809
C12 C -0.3148(7) 0.0343(5) 0.5431(3)
H13 H -0.4109 0.0254 0.5269
C13 C -0.2526(7) 0.0977(4) 0.5351(2)
H14 H -0.3068 0.1326 0.5143
C14 C -0.1095(5) 0.1106(2) 0.55759(19)
H15 H -0.0666 0.1541 0.5511
C15 C 0.1635(4) 0.04613(14) 0.73843(13)
H16 H 0.0646 0.0244 0.7447
C16 C 0.2769(5) -0.01082(17) 0.72544(15)
C17 C 0.4296(5) 0.0003(2) 0.7207(2)
H17 H 0.4673 0.0452 0.7238
C18 C 0.5289(7) -0.0550(3) 0.7113(2)
H18 H 0.6317 -0.0463 0.7071
C19 C 0.4767(10) -0.1221(3) 0.7080(3)
C20 C 0.3253(10) -0.1317(3) 0.7137(3)
H19 H 0.2876 -0.1767 0.7116
C21 C 0.2258(6) -0.07828(19) 0.7223(2)
H20 H 0.1231 -0.0875 0.7261
C22 C 0.3050(4) 0.06969(19) 0.92724(16)
C23 C 0.3826(6) 0.1399(2) 0.9191(2)
H21 H 0.4695 0.1420 0.9470
H22 H 0.3136 0.1763 0.9306
H23 H 0.4136 0.1455 0.8746
C24 C 0.4208(6) 0.0134(3) 0.9116(3)
H24 H 0.4391 0.0125 0.8655
H25 H 0.3827 -0.0309 0.9254
H26 H 0.5134 0.0232 0.9341
C25 C 0.2512(6) 0.0623(2) 0.99847(16)
H27 H 0.2065 0.0173 1.0045
H28 H 0.1779 0.0975 1.0079
H29 H 0.3358 0.0673 1.0273
C26 C 0.0211(4) -0.01310(15) 0.87378(16)
C27 C 0.0782(5) -0.07711(18) 0.8926(2)
H30 H 0.1759 -0.0796 0.9090
C28 C -0.0056(6) -0.1370(2) 0.8878(3)
H31 H 0.0365 -0.1792 0.9001
C29 C -0.1490(6) -0.1347(2) 0.8651(2)
H32 H -0.2045 -0.1754 0.8606
C30 C -0.2110(6) -0.0729(2) 0.8491(2)
H33 H -0.3106 -0.0708 0.8349
C31 C -0.1264(5) -0.01271(18) 0.85385(18)
H34 H -0.1712 0.0294 0.8431
C32 C 0.0134(5) 0.14421(17) 0.89086(16)
C33 C 0.0419(6) 0.20762(17) 0.8610(2)
H35 H 0.1187 0.2108 0.8302
C34 C -0.0409(9) 0.2656(2) 0.8758(4)
H36 H -0.0196 0.3077 0.8556
C35 C -0.1547(10) 0.2615(3) 0.9205(4)
H37 H -0.2111 0.3009 0.9302
C36 C -0.1872(7) 0.1999(4) 0.9512(3)
H38 H -0.2648 0.1974 0.9817
C37 C -0.1023(6) 0.1417(2) 0.9362(2)
H39 H -0.1236 0.1000 0.9570
C38 C 0.5888(12) -0.1819(4) 0.6995(4)
H40 H 0.6893 -0.1637 0.6965
H41 H 0.5821 -0.2126 0.7363
H42 H 0.5652 -0.2071 0.6604
H43 H 0.154(9) 0.158(3) 0.559(3)
loop_
_geom_bond_atom_site_label_1
_geom_bond_atom_site_label_2
_geom_bond_site_symmetry_1
_geom_bond_site_symmetry_2
N1 C1 1_555 1_555
O1 C5 1_555 1_555
O2 C5 1_555 1_555
O3 C7 1_555 1_555
O4 C7 1_555 1_555
O5 Si1 1_555 1_555
Si1 C22 1_555 1_555
C1 H1 1_555 1_555
C2 C1 1_555 1_555
H2 C2 1_555 1_555
H3 C2 1_555 1_555
C3 C2 1_555 1_555
C4 N1 1_555 1_555
H4 C4 1_555 1_555
C5 C1 1_555 1_555
C6 O1 1_555 1_555
H5 C6 1_555 1_555
H6 C6 1_555 1_555
H7 C6 1_555 1_555
C7 C3 1_555 1_555
C8 O3 1_555 1_555
H8 C8 1_555 1_555
H9 C8 1_555 1_555
H10 C8 1_555 1_555
C9 C4 1_555 1_555
C10 C9 1_555 1_555
H11 C10 1_555 1_555
C11 C10 1_555 1_555
H12 C11 1_555 1_555
C12 C11 1_555 1_555
H13 C12 1_555 1_555
C13 C12 1_555 1_555
H14 C13 1_555 1_555
C14 C9 1_555 1_555
H15 C14 1_555 1_555
C15 O5 1_555 1_555
H16 C15 1_555 1_555
C16 C15 1_555 1_555
C17 C16 1_555 1_555
H17 C17 1_555 1_555
C18 C17 1_555 1_555
H18 C18 1_555 1_555
C19 C18 1_555 1_555
C20 C19 1_555 1_555
H19 C20 1_555 1_555
C21 C16 1_555 1_555
H20 C21 1_555 1_555
C22 C23 1_555 1_555
C23 H21 1_555 1_555
H22 C23 1_555 1_555
H23 C23 1_555 1_555
C24 C22 1_555 1_555
H24 C24 1_555 1_555
H25 C24 1_555 1_555
H26 C24 1_555 1_555
C25 C22 1_555 1_555
H27 C25 1_555 1_555
H28 C25 1_555 1_555
H29 C25 1_555 1_555
C26 Si1 1_555 1_555
C27 C26 1_555 1_555
H30 C27 1_555 1_555
C28 C27 1_555 1_555
H31 C28 1_555 1_555
C29 C28 1_555 1_555
H32 C29 1_555 1_555
C30 C29 1_555 1_555
H33 C30 1_555 1_555
C31 C26 1_555 1_555
H34 C31 1_555 1_555
C32 Si1 1_555 1_555
C33 C32 1_555 1_555
H35 C33 1_555 1_555
C34 C33 1_555 1_555
H36 C34 1_555 1_555
C35 C34 1_555 1_555
H37 C35 1_555 1_555
C36 C35 1_555 1_555
H38 C36 1_555 1_555
C37 C32 1_555 1_555
H39 C37 1_555 1_555
C38 C19 1_555 1_555
H40 C38 1_555 1_555
H41 C38 1_555 1_555
H42 C38 1_555 1_555
H43 N1 1_555 1_555
C3 C4 1_555 1_555
C3 C15 1_555 1_555
C13 C14 1_555 1_555
C20 C21 1_555 1_555
C30 C31 1_555 1_555
C36 C37 1_555 1_555

#END
