
#######################################################################
#
#                 Cambridge Crystallographic Data Centre
#                                CCDC 
#
#######################################################################
#
# If this CIF has been generated from an entry in the Cambridge 
# Structural Database, then it will include bibliographic, chemical, 
# crystal, experimental, refinement or atomic coordinate data resulting 
# from the CCDC's data processing and validation procedures.
#
#######################################################################

data_ZELCIF
_chemical_formula_moiety         'C38 H43 N1 O5 Si1'
_chemical_name_systematic        
'dimethyl 4-[{[t-butyl(diphenyl)silyl]oxy}(4-methylphenyl)methyl]-5-phenylpyrrolidine-2,4-dicarboxylate'
_symmetry_cell_setting           orthorhombic
_symmetry_space_group_name_H-M   'P 21 21 21'
_symmetry_Int_Tables_number      19
_space_group_name_Hall           'P 2ac 2ab'
loop_
_symmetry_equiv_pos_site_id
_symmetry_equiv_pos_as_xyz
1 x,y,z
2 1/2-x,-y,1/2+z
3 1/2+x,1/2-y,-z
4 -x,1/2+y,1/2-z
_cell_length_a                   8.8607(11)
_cell_length_b                   19.266(2)
_cell_length_c                   20.514(3)
_cell_angle_alpha                90
_cell_angle_beta                 90
_cell_angle_gamma                90
_cell_volume                     3501.95
_cell_formula_units_Z            4
loop_
_atom_site_label
_atom_site_type_symbol
_atom_site_fract_x
_atom_site_fract_y
_atom_site_fract_z
Si1 Si 0.86385(8) 0.06811(3) 0.12873(3)
O1 O 0.7968(2) 0.08081(7) 0.20227(7)
O2 O 1.0093(3) 0.20611(10) 0.31604(11)
O3 O 1.1038(2) 0.11123(9) 0.27054(8)
O4 O 0.6261(4) 0.23458(12) 0.46453(11)
O5 O 0.4750(3) 0.22854(12) 0.37976(12)
C1 C 0.9865(3) 0.14429(13) 0.10914(12)
C2 C 0.9582(4) 0.20760(13) 0.13909(16)
H1 H 0.8814 0.2107 0.1699
C3 C 1.0409(7) 0.26568(18) 0.1244(3)
H2 H 1.0196 0.3077 0.1447
C4 C 1.1547(8) 0.2615(3) 0.0797(3)
H3 H 1.2111 0.3009 0.0700
C5 C 1.1870(6) 0.1999(3) 0.0488(2)
H4 H 1.2645 0.1975 0.0183
C6 C 1.1024(4) 0.14153(18) 0.06378(16)
H5 H 1.1237 0.0998 0.0430
C7 C 0.9789(3) -0.01312(11) 0.12621(12)
C8 C 1.1264(4) -0.01273(14) 0.14615(14)
H6 H 1.1713 0.0294 0.1568
C9 C 1.2110(4) -0.07284(17) 0.15094(17)
H7 H 1.3106 -0.0708 0.1651
C10 C 1.1489(5) -0.13463(15) 0.13500(19)
H8 H 1.2043 -0.1753 0.1396
C11 C 1.0052(5) -0.13695(16) 0.1123(2)
H9 H 0.9631 -0.1792 0.1001
C12 C 0.9219(4) -0.07715(13) 0.10737(18)
H10 H 0.8243 -0.0796 0.0909
C13 C 0.6950(3) 0.06971(14) 0.07276(12)
C14 C 0.7491(4) 0.06230(18) 0.00162(12)
H11 H 0.7928 0.0172 -0.0045
H12 H 0.8232 0.0973 -0.0076
H13 H 0.6648 0.0678 -0.0273
C15 C 0.5794(4) 0.0134(2) 0.08846(19)
H14 H 0.5620 0.0122 0.1346
H15 H 0.6171 -0.0308 0.0743
H16 H 0.4865 0.0234 0.0663
C16 C 0.6170(4) 0.13991(18) 0.08105(17)
H17 H 0.5310 0.1423 0.0527
H18 H 0.6864 0.1764 0.0702
H19 H 0.5847 0.1451 0.1254
C17 C 0.8363(3) 0.04611(10) 0.26162(10)
H20 H 0.9352 0.0244 0.2553
C18 C 0.7170(3) 0.15197(13) 0.31935(11)
H21 H 0.6409 0.1396 0.2874
H22 H 0.7467 0.1998 0.3123
C19 C 0.7743(5) -0.07825(14) 0.27771(17)
H23 H 0.8769 -0.0875 0.2740
C20 C 0.6741(8) -0.1317(2) 0.2863(3)
H24 H 0.7116 -0.1768 0.2883
C21 C 0.5231(7) -0.1221(3) 0.2920(2)
C22 C 0.4712(5) -0.0549(3) 0.28865(18)
H25 H 0.3684 -0.0462 0.2926
C23 C 0.5703(4) 0.00019(18) 0.27941(16)
H26 H 0.5326 0.0451 0.2764
C24 C 0.4108(9) -0.1817(3) 0.3007(3)
H27 H 0.4291 -0.2166 0.2683
H28 H 0.3098 -0.1644 0.2962
H29 H 0.4230 -0.2016 0.3433
C25 C 0.8539(3) 0.10356(10) 0.31407(9)
C26 C 0.9944(3) 0.14677(13) 0.30011(11)
C27 C 1.2433(4) 0.14764(18) 0.25970(18)
H30 H 1.2235 0.1900 0.2366
H31 H 1.3101 0.1191 0.2344
H32 H 1.2895 0.1581 0.3009
C28 C 0.8703(3) 0.07280(12) 0.38535(10)
H33 H 0.8180 0.0280 0.3855
C29 C 0.6558(3) 0.14209(13) 0.38880(11)
H34 H 0.5795 0.1052 0.3883
C30 C 0.5875(3) 0.20618(15) 0.41734(14)
C31 C 0.3969(5) 0.2905(2) 0.4014(2)
H35 H 0.3397 0.2802 0.4399
H36 H 0.3299 0.3061 0.3676
H37 H 0.4691 0.3262 0.4108
C32 C 1.0278(3) 0.05963(14) 0.41019(10)
C33 C 1.0926(4) -0.00448(17) 0.40145(13)
H38 H 1.0399 -0.0393 0.3799
C34 C 1.2375(5) -0.0172(3) 0.42499(18)
H39 H 1.2814 -0.0606 0.4191
C35 C 1.3148(5) 0.0337(4) 0.4566(2)
H40 H 1.4109 0.0246 0.4727
C36 C 1.2533(5) 0.0973(3) 0.46467(17)
H41 H 1.3081 0.1321 0.4853
C37 C 1.1092(4) 0.11068(18) 0.44230(14)
H42 H 1.0665 0.1542 0.4488
C38 C 0.7231(3) -0.01083(13) 0.27463(11)
N1 N 0.7842(3) 0.11894(12) 0.42698(10)
H43 H 0.8050 0.1303 0.4665
loop_
_geom_bond_atom_site_label_1
_geom_bond_atom_site_label_2
_geom_bond_site_symmetry_1
_geom_bond_site_symmetry_2
Si1 O1 1_555 1_555
O1 C17 1_555 1_555
O2 C26 1_555 1_555
O3 C26 1_555 1_555
O4 C30 1_555 1_555
O5 C30 1_555 1_555
C1 Si1 1_555 1_555
C2 C1 1_555 1_555
H1 C2 1_555 1_555
C3 C2 1_555 1_555
H2 C3 1_555 1_555
C4 C3 1_555 1_555
H3 C4 1_555 1_555
C5 C4 1_555 1_555
H4 C5 1_555 1_555
C6 C1 1_555 1_555
H5 C6 1_555 1_555
C7 Si1 1_555 1_555
C8 C7 1_555 1_555
H6 C8 1_555 1_555
C9 C8 1_555 1_555
H7 C9 1_555 1_555
C10 C9 1_555 1_555
H8 C10 1_555 1_555
C11 C10 1_555 1_555
H9 C11 1_555 1_555
C12 C7 1_555 1_555
H10 C12 1_555 1_555
C13 Si1 1_555 1_555
C14 C13 1_555 1_555
H11 C14 1_555 1_555
H12 C14 1_555 1_555
H13 C14 1_555 1_555
C15 C13 1_555 1_555
H14 C15 1_555 1_555
H15 C15 1_555 1_555
H16 C15 1_555 1_555
C16 C13 1_555 1_555
H17 C16 1_555 1_555
H18 C16 1_555 1_555
H19 C16 1_555 1_555
C17 H20 1_555 1_555
C18 H21 1_555 1_555
H22 C18 1_555 1_555
C19 H23 1_555 1_555
C20 C19 1_555 1_555
H24 C20 1_555 1_555
C21 C20 1_555 1_555
C22 C21 1_555 1_555
H25 C22 1_555 1_555
C23 C22 1_555 1_555
H26 C23 1_555 1_555
C24 C21 1_555 1_555
H27 C24 1_555 1_555
H28 C24 1_555 1_555
H29 C24 1_555 1_555
C25 C17 1_555 1_555
C26 C25 1_555 1_555
C27 O3 1_555 1_555
H30 C27 1_555 1_555
H31 C27 1_555 1_555
H32 C27 1_555 1_555
C28 C25 1_555 1_555
H33 C28 1_555 1_555
C29 C18 1_555 1_555
H34 C29 1_555 1_555
C30 C29 1_555 1_555
C31 O5 1_555 1_555
H35 C31 1_555 1_555
H36 C31 1_555 1_555
H37 C31 1_555 1_555
C32 C28 1_555 1_555
C33 C32 1_555 1_555
H38 C33 1_555 1_555
C34 C33 1_555 1_555
H39 C34 1_555 1_555
C35 C34 1_555 1_555
H40 C35 1_555 1_555
C36 C35 1_555 1_555
H41 C36 1_555 1_555
C37 C32 1_555 1_555
H42 C37 1_555 1_555
C38 C17 1_555 1_555
N1 C28 1_555 1_555
H43 N1 1_555 1_555
C5 C6 1_555 1_555
C11 C12 1_555 1_555
C18 C25 1_555 1_555
C19 C38 1_555 1_555
C23 C38 1_555 1_555
C29 N1 1_555 1_555
C36 C37 1_555 1_555

#END
