
#######################################################################
#
#                 Cambridge Crystallographic Data Centre
#                                CCDC 
#
#######################################################################
#
# If this CIF has been generated from an entry in the Cambridge 
# Structural Database, then it will include bibliographic, chemical, 
# crystal, experimental, refinement or atomic coordinate data resulting 
# from the CCDC's data processing and validation procedures.
#
#######################################################################

data_ZELDID
_chemical_name_common            
"5,5':11,11':17,17':23,23'-tetrakis(3-oxapenta-1,5-dioxy)-bis(6,10:12,16:18,22:24,4-O,O'-tetrakis(methylene)-C-phenylethylcalix[4]resorcinarene) bis(dichloromethane) dihydrate clathrate dichloromethane solvate"
_chemical_formula_moiety         'C144 H136 O28,10(C1 H2 Cl2),2(H2 O1)'
_chemical_name_systematic        
'tetrakis(Diethylene glycol)hemicarcerand bis(dichloromethane) dihydrate clathrate dichloromethane solvate'
_symmetry_cell_setting           triclinic
_symmetry_space_group_name_H-M   'P -1'
_symmetry_Int_Tables_number      2
_space_group_name_Hall           '-P 1'
loop_
_symmetry_equiv_pos_site_id
_symmetry_equiv_pos_as_xyz
1 x,y,z
2 -x,-y,-z
_cell_length_a                   14.921(2)
_cell_length_b                   15.154(3)
_cell_length_c                   17.194(3)
_cell_angle_alpha                99.702(4)
_cell_angle_beta                 96.327(4)
_cell_angle_gamma                95.039(4)
_cell_volume                     3786.31
_exptl_crystal_colour            colorless
_cell_formula_units_Z            1
loop_
_atom_site_label
_atom_site_type_symbol
_atom_site_fract_x
_atom_site_fract_y
_atom_site_fract_z
Cl1 Cl 0.1310(11) 0.0789(11) 0.5118(9)
Cl2 Cl 0.3106(11) 0.0299(15) 0.5029(10)
C73 C 0.2287(16) 0.0529(31) 0.5676(11)
H69 H 0.213 -0.005 0.595
H70 H 0.255 0.110 0.613
Cl3 Cl 0.2140(9) 0.4551(7) 0.7574(6)
Cl4 Cl 0.2709(14) 0.3138(10) 0.6457(9)
C74 C 0.3088(12) 0.4123(23) 0.7165(25)
H71 H 0.356 0.396 0.763
H72 H 0.342 0.462 0.688
Cl5 Cl -0.1379(10) 1.1602(11) 1.0934(8)
Cl6 Cl -0.1400(17) 0.9752(15) 1.0221(27)
C75 C -0.0697(14) 1.0756(18) 1.0620(35)
H73 H -0.037 1.096 1.014
H74 H -0.019 1.068 1.110
Cl7 Cl 0.5960(13) 0.1025(15) 0.6416(10)
Cl8 Cl 0.4443(13) 0.1807(15) 0.6998(12)
C76 C 0.4972(43) 0.0802(27) 0.6869(65)
Cl9 Cl 0.4300(14) 0.2200(14) 0.4316(12)
Cl10 Cl 0.6165(15) 0.1873(17) 0.4429(15)
C78 C 0.5057(22) 0.1429(43) 0.3974(55)
O1 O -0.3851(13) 1.0873(13) 0.8867(10)
C1 C -0.3543(21) 1.0015(20) 0.8978(17)
H1 H -0.290 1.014 0.935
H2 H -0.403 0.966 0.927
C2 C -0.3424(23) 0.9445(22) 0.8183(18)
H3 H -0.401 0.942 0.775
H4 H -0.330 0.877 0.825
O2 O -0.2647(17) 0.9922(15) 0.7972(14)
C3 C -0.2470(29) 0.9574(28) 0.7142(25)
H5 H -0.199 1.004 0.694
H6 H -0.311 0.949 0.676
C4 C -0.2143(21) 0.8725(20) 0.7112(18)
H7 H -0.265 0.826 0.728
H8 H -0.203 0.849 0.651
O3 O -0.1323(14) 0.8740(12) 0.7607(11)
C5 C 0.0153(12) 0.6516(11) 0.7411(12)
C6 C 0.0298(12) 0.7175(11) 0.6945(12)
C7 C -0.0220(12) 0.7901(11) 0.6991(12)
C8 C -0.0883(12) 0.7967(11) 0.7504(12)
C9 C -0.1028(12) 0.7308(11) 0.7969(12)
C10 C -0.0510(12) 0.6583(11) 0.7923(12)
H9 H 0.055 0.595 0.737
O4 O -0.0142(14) 0.8568(13) 0.6537(11)
C11 C 0.0590(22) 0.9269(20) 0.6722(17)
H10 H 0.071 0.946 0.736
H11 H 0.038 0.983 0.646
O5 O 0.1400(14) 0.9060(12) 0.6458(11)
C12 C 0.2530(14) 0.7362(9) 0.7366(11)
C13 C 0.3242(14) 0.7901(9) 0.7867(11)
C14 C 0.3333(14) 0.8831(9) 0.7897(11)
C15 C 0.2713(14) 0.9223(9) 0.7428(11)
C16 C 0.2001(14) 0.8684(9) 0.6927(11)
C17 C 0.1910(14) 0.7753(9) 0.6896(11)
H12 H 0.246 0.664 0.734
O6 O 0.2770(13) 1.0114(13) 0.7372(11)
C18 C 0.2792(22) 1.0767(20) 0.8140(18)
H13 H 0.246 1.044 0.856
H14 H 0.349 1.100 0.838
C19 C 0.2295(24) 1.1545(22) 0.7945(19)
H15 H 0.248 1.174 0.740
H16 H 0.246 1.211 0.842
O7 O 0.1383(17) 1.1262(14) 0.7867(11)
C20 C 0.0790(24) 1.1878(22) 0.7605(19)
H17 H 0.104 1.215 0.712
H18 H 0.012 1.153 0.741
C21 C 0.0748(23) 1.2649(22) 0.8328(19)
H19 H 0.034 1.315 0.814
H20 H 0.143 1.296 0.855
O8 O 0.0351(14) 1.2264(13) 0.8947(12)
O9 O 0.4071(13) 0.9391(12) 0.8341(12)
C22 C 0.3982(19) 0.9671(17) 0.9154(15)
H21 H 0.431 1.035 0.936
H22 H 0.327 0.965 0.923
O10 O 0.4415(12) 0.9058(12) 0.9601(10)
C23 C 0.3094(13) 0.6828(10) 0.9398(11)
C24 C 0.3637(13) 0.7545(10) 0.9215(11)
C25 C 0.3890(13) 0.8324(10) 0.9782(11)
C26 C -0.3600(13) 1.1612(10) 0.9468(11)
C27 C -0.3057(13) 1.2329(10) 0.9285(11)
C28 C 0.2804(13) 0.6891(10) 1.0148(11)
H23 H 0.290 0.622 0.896
O11 O -0.2840(14) 1.2284(12) 0.8513(10)
C29 C -0.1945(20) 1.2057(18) 0.8444(15)
H24 H -0.175 1.168 0.890
H25 H -0.193 1.165 0.787
O12 O -0.1321(14) 1.2841(13) 0.8536(10)
C30 C -0.0744(13) 1.4088(10) 1.0571(10)
C31 C 0.0128(13) 1.3858(10) 1.0767(10)
C32 C 0.0512(13) 1.3265(10) 1.0222(10)
C33 C 0.0025(13) 1.2903(10) 0.9480(10)
C34 C -0.0847(13) 1.3132(10) 0.9284(10)
C35 C -0.1231(13) 1.3725(10) 0.9829(10)
H26 H -0.104 1.455 1.099
O13 O 0.1374(13) 1.3037(13) 1.0302(11)
C36 C 0.1522(20) 1.2300(18) 1.0727(16)
H27 H 0.090 1.185 1.063
H28 H 0.206 1.195 1.049
O14 O -0.1772(13) 0.7395(12) 0.8432(12)
C37 C 0.3993(18) 0.7532(17) 0.8393(14)
H29 H 0.462 0.795 0.842
C38 C 0.4239(20) 0.6572(18) 0.8072(16)
H30 H 0.363 0.612 0.788
H31 H 0.466 0.632 0.852
C39 C 0.4741(23) 0.6671(21) 0.7368(19)
H32 H 0.432 0.692 0.692
H33 H 0.536 0.712 0.756
C40 C 0.5567(17) 0.5241(21) 0.7477(12)
C41 C 0.5758(17) 0.4381(21) 0.7157(12)
C42 C 0.5351(17) 0.3968(21) 0.6399(12)
C43 C 0.4753(17) 0.4414(21) 0.5960(12)
C44 C 0.4561(17) 0.5274(21) 0.6280(12)
C45 C 0.4968(17) 0.5688(21) 0.7039(12)
H34 H 0.588 0.556 0.806
H35 H 0.622 0.404 0.750
H36 H 0.550 0.330 0.615
H37 H 0.444 0.409 0.537
H38 H 0.410 0.562 0.594
C46 C 0.2214(19) 0.6130(18) 1.0350(17)
H39 H 0.239 0.616 1.098
C47 C 0.2398(20) 0.5138(19) 1.0007(17)
H40 H 0.236 0.505 0.937
H41 H 0.190 0.466 1.017
C48 C 0.3344(20) 0.4979(19) 1.0355(17)
H42 H 0.334 0.501 1.099
H43 H 0.381 0.552 1.026
C49 C 0.3634(14) 0.3332(19) 1.0369(11)
C50 C 0.3978(14) 0.2562(19) 1.0008(11)
C51 C 0.4387(14) 0.2576(19) 0.9318(11)
C52 C 0.4453(14) 0.3359(19) 0.8989(11)
C53 C 0.4110(14) 0.4128(19) 0.9351(11)
C54 C 0.3700(14) 0.4115(19) 1.0041(11)
H44 H 0.332 0.332 1.090
H45 H 0.393 0.196 1.026
H46 H 0.465 0.198 0.904
H47 H 0.477 0.337 0.845
H48 H 0.416 0.473 0.910
C55 C 0.1037(18) 0.7174(17) 0.6420(15)
H49 H 0.086 0.750 0.592
C56 C 0.1151(19) 0.6224(17) 0.6025(15)
H50 H 0.137 0.585 0.648
H51 H 0.051 0.591 0.570
C57 C 0.1865(20) 0.6242(18) 0.5442(16)
H52 H 0.251 0.653 0.578
H53 H 0.166 0.666 0.502
C58 C 0.1398(14) 0.4551(22) 0.4959(12)
C59 C 0.1590(14) 0.3726(22) 0.4556(12)
C60 C 0.2377(14) 0.3675(22) 0.4189(12)
C61 C 0.2971(14) 0.4449(22) 0.4225(12)
C62 C 0.2779(14) 0.5274(22) 0.4628(12)
C63 C 0.1993(14) 0.5325(22) 0.4995(12)
H54 H 0.079 0.459 0.524
H55 H 0.113 0.313 0.453
H56 H 0.253 0.304 0.388
H57 H 0.358 0.441 0.394
H58 H 0.324 0.587 0.466
C64 C -0.0758(20) 0.5857(18) 0.8457(15)
H59 H -0.146 0.581 0.856
C65 C -0.0506(19) 0.4914(18) 0.8007(16)
H60 H -0.052 0.442 0.840
H61 H 0.016 0.499 0.782
C66 C -0.1263(22) 0.4594(19) 0.7256(18)
H62 H -0.128 0.512 0.690
H63 H -0.192 0.448 0.746
C67 C -0.1703(12) 0.2972(18) 0.6628(12)
C68 C -0.1546(12) 0.2170(18) 0.6161(12)
C69 C -0.0749(12) 0.2122(18) 0.5809(12)
C70 C -0.0109(12) 0.2876(18) 0.5925(12)
C71 C -0.0266(12) 0.3678(18) 0.6393(12)
C72 C -0.1063(12) 0.3726(18) 0.6744(12)
H64 H -0.232 0.301 0.690
H65 H -0.204 0.159 0.607
H66 H -0.063 0.150 0.545
H67 H 0.051 0.284 0.565
H68 H 0.023 0.426 0.648
C26A C 0.3600(13) 0.8388(10) 1.0532(11)
C25A C -0.3890(13) 1.1676(10) 1.0218(11)
C28A C -0.2804(13) 1.3109(10) 0.9852(11)
C27A C 0.3057(13) 0.7671(10) 1.0715(11)
C64A C 0.0758(20) 1.4143(18) 1.1543(15)
C46A C -0.2214(19) 1.3870(18) 0.9650(17)
O14A O 0.1772(13) 1.2605(12) 1.1568(12)
C36A C -0.1522(20) 0.7700(18) 0.9273(16)
C35A C 0.1231(13) 0.6275(10) 1.0171(10)
C31A C -0.0128(13) 0.6142(10) 0.9233(10)
O1A O 0.3851(13) 0.9127(13) 1.1133(10)
O10A O -0.4415(12) 1.0942(12) 1.0399(10)
C24A C -0.3637(13) 1.2455(10) 1.0785(11)
C23A C -0.3094(13) 1.3172(10) 1.0602(11)
O11A O 0.2840(14) 0.7716(12) 1.1487(10)
C10A C 0.0510(12) 1.3417(11) 1.2077(12)
H59A H 0.146 1.419 1.144
C65A C 0.0506(19) 1.5086(18) 1.1993(16)
H39A H -0.239 1.384 0.902
C47A C -0.2398(20) 1.4862(19) 0.9993(17)
C9A C 0.1028(12) 1.2692(11) 1.2031(12)
O13A O -0.1374(13) 0.6963(13) 0.9698(11)
H27A H -0.090 0.815 0.937
H28A H -0.206 0.805 0.951
C30A C 0.0744(13) 0.5912(10) 0.9429(10)
C34A C 0.0847(13) 0.6868(10) 1.0716(10)
C32A C -0.0512(13) 0.6735(10) 0.9778(10)
C1A C 0.3543(21) 0.9985(20) 1.1022(17)
C22A C -0.3982(19) 1.0329(17) 1.0846(15)
C37A C -0.3993(18) 1.2468(17) 1.1607(14)
H23A H -0.290 1.378 1.104
C29A C 0.1945(20) 0.7943(18) 1.1556(15)
C5A C -0.0153(12) 1.3484(11) 1.2589(12)
H60A H 0.052 1.558 1.160
H61A H -0.016 1.501 1.218
C66A C 0.1263(22) 1.5406(19) 1.2744(18)
H40A H -0.236 1.495 1.063
H41A H -0.190 1.534 0.983
C48A C -0.3344(20) 1.5021(19) 0.9645(17)
C8A C 0.0883(12) 1.2033(11) 1.2496(12)
H26A H 0.104 0.545 0.901
O12A O 0.1321(14) 0.7159(13) 1.1464(10)
C33A C -0.0025(13) 0.7097(10) 1.0520(10)
H1A H 0.290 0.986 1.065
H2A H 0.403 1.034 1.073
C2A C 0.3424(23) 1.0555(22) 1.1817(18)
O9A O -0.4071(13) 1.0609(12) 1.1659(12)
H21A H -0.431 0.965 1.064
H22A H -0.327 1.035 1.077
C13A C -0.3242(14) 1.2099(9) 1.2133(11)
H29A H -0.462 1.205 1.158
C38A C -0.4239(20) 1.3428(18) 1.1928(16)
H24A H 0.175 0.832 1.110
H25A H 0.193 0.835 1.213
C6A C -0.0298(12) 1.2825(11) 1.3055(12)
H9A H -0.055 1.405 1.263
H62A H 0.128 1.488 1.310
H63A H 0.192 1.552 1.254
C72A C 0.1063(12) 1.6274(18) 1.3256(12)
H42A H -0.334 1.499 0.901
H43A H -0.381 1.448 0.974
C54A C -0.3700(14) 1.5885(19) 0.9959(11)
O3A O 0.1323(14) 1.1260(12) 1.2393(11)
C7A C 0.0220(12) 1.2099(11) 1.3009(12)
O8A O -0.0351(14) 0.7736(13) 1.1053(12)
H3A H 0.401 1.058 1.225
H4A H 0.330 1.123 1.175
O2A O 0.2647(17) 1.0078(15) 1.2028(14)
C14A C -0.3333(14) 1.1169(9) 1.2103(11)
C12A C -0.2530(14) 1.2638(9) 1.2634(11)
H30A H -0.363 1.388 1.212
H31A H -0.466 1.368 1.148
C39A C -0.4741(23) 1.3329(21) 1.2632(19)
C55A C -0.1037(18) 1.2826(17) 1.3580(15)
C67A C 0.1703(12) 1.7028(18) 1.3372(12)
C71A C 0.0266(12) 1.6322(18) 1.3607(12)
C49A C -0.3634(14) 1.6668(19) 0.9631(11)
C53A C -0.4110(14) 1.5872(19) 1.0649(11)
C4A C 0.2143(21) 1.1275(20) 1.2888(18)
O4A O 0.0142(14) 1.1432(13) 1.3463(11)
C21A C -0.0748(23) 0.7351(22) 1.1672(19)
C3A C 0.2470(29) 1.0426(28) 1.2858(25)
C15A C -0.2713(14) 1.0777(9) 1.2572(11)
C17A C -0.1910(14) 1.2247(9) 1.3104(11)
H12A H -0.246 1.336 1.266
H32A H -0.432 1.308 1.308
H33A H -0.536 1.288 1.244
C45A C -0.4968(17) 1.4312(21) 1.2961(12)
H49A H -0.086 1.250 1.408
C56A C -0.1151(19) 1.3776(17) 1.3975(15)
C68A C 0.1546(12) 1.7830(18) 1.3839(12)
H64A H 0.232 1.699 1.310
C70A C 0.0109(12) 1.7124(18) 1.4075(12)
H68A H -0.023 1.574 1.352
C50A C -0.3978(14) 1.7438(19) 0.9992(11)
H44A H -0.332 1.668 0.910
C52A C -0.4453(14) 1.6641(19) 1.1011(11)
H48A H -0.416 1.527 1.090
H7A H 0.265 1.174 1.272
H8A H 0.203 1.151 1.349
C11A C -0.0590(22) 1.0731(20) 1.3278(17)
C20A C -0.0790(24) 0.8122(22) 1.2395(19)
H19A H -0.034 0.685 1.186
H20A H -0.143 0.704 1.145
H5A H 0.199 0.996 1.306
H6A H 0.311 1.051 1.324
C16A C -0.2001(14) 1.1316(9) 1.3073(11)
O6A O -0.2770(13) 0.9886(13) 1.2628(11)
C40A C -0.5567(17) 1.4759(21) 1.2523(12)
C44A C -0.4561(17) 1.4726(21) 1.3720(12)
H50A H -0.137 1.415 1.352
H51A H -0.051 1.409 1.430
C57A C -0.1865(20) 1.3758(18) 1.4558(16)
C69A C 0.0749(12) 1.7878(18) 1.4191(12)
H65A H 0.204 1.841 1.393
H67A H -0.051 1.716 1.435
C51A C -0.4387(14) 1.7424(19) 1.0682(11)
H45A H -0.393 1.804 0.974
H47A H -0.477 1.663 1.155
H10A H -0.071 1.054 1.264
H11A H -0.038 1.017 1.354
O5A O -0.1400(14) 1.0940(12) 1.3542(11)
O7A O -0.1383(17) 0.8738(14) 1.2133(11)
H17A H -0.104 0.785 1.288
H18A H -0.012 0.847 1.259
C18A C -0.2792(22) 0.9233(20) 1.1860(18)
C41A C -0.5758(17) 1.5619(21) 1.2843(12)
H34A H -0.588 1.444 1.194
C43A C -0.4753(17) 1.5586(21) 1.4040(12)
H38A H -0.410 1.438 1.406
H52A H -0.251 1.347 1.422
H53A H -0.166 1.334 1.498
C63A C -0.1993(14) 1.4675(22) 1.5005(12)
H66A H 0.063 1.850 1.455
H46A H -0.465 1.802 1.096
C19A C -0.2295(24) 0.8455(22) 1.2055(19)
H13A H -0.246 0.956 1.144
H14A H -0.349 0.900 1.162
C42A C -0.5351(17) 1.6032(21) 1.3601(12)
H35A H -0.622 1.596 1.250
H37A H -0.444 1.591 1.463
C58A C -0.1398(14) 1.5449(22) 1.5041(12)
C62A C -0.2779(14) 1.4726(22) 1.5372(12)
H15A H -0.248 0.826 1.260
H16A H -0.246 0.789 1.158
H36A H -0.550 1.670 1.385
C59A C -0.1590(14) 1.6274(22) 1.5444(12)
H54A H -0.079 1.541 1.476
C61A C -0.2971(14) 1.5551(22) 1.5775(12)
H58A H -0.324 1.413 1.534
C60A C -0.2377(14) 1.6325(22) 1.5811(12)
H55A H -0.113 1.687 1.547
H57A H -0.358 1.559 1.606
H56A H -0.253 1.696 1.612
O15 O -0.0371(37) 1.0290(33) 0.8887(29)
C77? C 0.5340(40) 0.1172(57) 0.7239(25)
C79? C 0.5160(30) 0.1749(88) 0.4876(50)
loop_
_geom_bond_atom_site_label_1
_geom_bond_atom_site_label_2
_geom_bond_site_symmetry_1
_geom_bond_site_symmetry_2
Cl1 C73 1_555 1_555
Cl2 C73 1_555 1_555
Cl3 C74 1_555 1_555
Cl4 C74 1_555 1_555
Cl5 C75 1_555 1_555
Cl6 C75 1_555 1_555
Cl7 C76 1_555 1_555
Cl8 C76 1_555 1_555
Cl9 C78 1_555 1_555
Cl10 C78 1_555 1_555
O1 C1 1_555 1_555
C1 H1 1_555 1_555
H2 C1 1_555 1_555
C2 C1 1_555 1_555
H3 C2 1_555 1_555
H4 C2 1_555 1_555
O2 C2 1_555 1_555
C3 O2 1_555 1_555
H5 C3 1_555 1_555
H6 C3 1_555 1_555
C4 C3 1_555 1_555
H7 C4 1_555 1_555
H8 C4 1_555 1_555
O3 C4 1_555 1_555
C5 C6 1_555 1_555
C6 C7 1_555 1_555
C7 C8 1_555 1_555
C8 O3 1_555 1_555
C9 C8 1_555 1_555
C10 C5 1_555 1_555
H9 C5 1_555 1_555
O4 C7 1_555 1_555
C11 O4 1_555 1_555
H10 C11 1_555 1_555
H11 C11 1_555 1_555
O5 C11 1_555 1_555
C12 C13 1_555 1_555
C13 C14 1_555 1_555
C14 C15 1_555 1_555
C15 C16 1_555 1_555
C16 O5 1_555 1_555
C17 C12 1_555 1_555
H12 C12 1_555 1_555
O6 C15 1_555 1_555
C18 O6 1_555 1_555
H13 C18 1_555 1_555
H14 C18 1_555 1_555
C19 C18 1_555 1_555
H15 C19 1_555 1_555
H16 C19 1_555 1_555
O7 C19 1_555 1_555
C20 O7 1_555 1_555
H17 C20 1_555 1_555
H18 C20 1_555 1_555
C21 C20 1_555 1_555
H19 C21 1_555 1_555
H20 C21 1_555 1_555
O8 C21 1_555 1_555
O9 C14 1_555 1_555
C22 O9 1_555 1_555
H21 C22 1_555 1_555
H22 C22 1_555 1_555
O10 C22 1_555 1_555
C23 C24 1_555 1_555
C24 C25 1_555 1_555
C25 O10 1_555 1_555
C26 O1 1_555 1_555
C27 C26 1_555 1_555
C28 C23 1_555 1_555
H23 C23 1_555 1_555
O11 C27 1_555 1_555
C29 O11 1_555 1_555
H24 C29 1_555 1_555
H25 C29 1_555 1_555
O12 C29 1_555 1_555
C30 C31 1_555 1_555
C31 C32 1_555 1_555
C32 C33 1_555 1_555
C33 O8 1_555 1_555
C34 O12 1_555 1_555
C35 C30 1_555 1_555
H26 C30 1_555 1_555
O13 C32 1_555 1_555
C36 O13 1_555 1_555
H27 C36 1_555 1_555
H28 C36 1_555 1_555
O14 C9 1_555 1_555
C37 C13 1_555 1_555
H29 C37 1_555 1_555
C38 C37 1_555 1_555
H30 C38 1_555 1_555
H31 C38 1_555 1_555
C39 C38 1_555 1_555
H32 C39 1_555 1_555
H33 C39 1_555 1_555
C40 C41 1_555 1_555
C41 C42 1_555 1_555
C42 C43 1_555 1_555
C43 C44 1_555 1_555
C44 C45 1_555 1_555
C45 C39 1_555 1_555
H34 C40 1_555 1_555
H35 C41 1_555 1_555
H36 C42 1_555 1_555
H37 C43 1_555 1_555
H38 C44 1_555 1_555
C46 C28 1_555 1_555
H39 C46 1_555 1_555
C47 C46 1_555 1_555
H40 C47 1_555 1_555
H41 C47 1_555 1_555
C48 C47 1_555 1_555
H42 C48 1_555 1_555
H43 C48 1_555 1_555
C49 C50 1_555 1_555
C50 C51 1_555 1_555
C51 C52 1_555 1_555
C52 C53 1_555 1_555
C53 C54 1_555 1_555
C54 C48 1_555 1_555
H44 C49 1_555 1_555
H45 C50 1_555 1_555
H46 C51 1_555 1_555
H47 C52 1_555 1_555
H48 C53 1_555 1_555
C55 C6 1_555 1_555
H49 C55 1_555 1_555
C56 C55 1_555 1_555
H50 C56 1_555 1_555
H51 C56 1_555 1_555
C57 C56 1_555 1_555
H52 C57 1_555 1_555
H53 C57 1_555 1_555
C58 C59 1_555 1_555
C59 C60 1_555 1_555
C60 C61 1_555 1_555
C61 C62 1_555 1_555
C62 C63 1_555 1_555
C63 C57 1_555 1_555
H54 C58 1_555 1_555
H55 C59 1_555 1_555
H56 C60 1_555 1_555
H57 C61 1_555 1_555
H58 C62 1_555 1_555
C64 C10 1_555 1_555
H59 C64 1_555 1_555
C65 C64 1_555 1_555
H60 C65 1_555 1_555
H61 C65 1_555 1_555
C66 C65 1_555 1_555
H62 C66 1_555 1_555
H63 C66 1_555 1_555
C67 C68 1_555 1_555
C68 C69 1_555 1_555
C69 C70 1_555 1_555
C70 C71 1_555 1_555
C71 C72 1_555 1_555
C72 C66 1_555 1_555
H64 C67 1_555 1_555
H65 C68 1_555 1_555
H66 C69 1_555 1_555
H67 C70 1_555 1_555
H68 C71 1_555 1_555
C73 H69 1_555 1_555
H70 C73 1_555 1_555
C74 H71 1_555 1_555
H72 C74 1_555 1_555
C75 H73 1_555 1_555
H74 C75 1_555 1_555
C26A C25 1_555 1_555
C25A C26 1_555 1_555
C28A C27 1_555 1_555
C27A C28 1_555 1_555
C64A C31 1_555 1_555
C46A C35 1_555 1_555
O14A C36 1_555 1_555
C36A O14 1_555 1_555
C35A C46 1_555 1_555
C31A C64 1_555 1_555
O1A C26A 1_555 1_555
O10A C25A 1_555 1_555
C24A C25A 1_555 1_555
C23A C28A 1_555 1_555
O11A C27A 1_555 1_555
C10A C64A 1_555 1_555
H59A C64A 1_555 1_555
C65A C64A 1_555 1_555
H39A C46A 1_555 1_555
C47A C46A 1_555 1_555
C9A O14A 1_555 1_555
O13A C36A 1_555 1_555
H27A C36A 1_555 1_555
H28A C36A 1_555 1_555
C30A C35A 1_555 1_555
C34A C35A 1_555 1_555
C32A C31A 1_555 1_555
C1A O1A 1_555 1_555
C22A O10A 1_555 1_555
C37A C24A 1_555 1_555
H23A C23A 1_555 1_555
C29A O11A 1_555 1_555
C5A C10A 1_555 1_555
H60A C65A 1_555 1_555
H61A C65A 1_555 1_555
C66A C65A 1_555 1_555
H40A C47A 1_555 1_555
H41A C47A 1_555 1_555
C48A C47A 1_555 1_555
C8A C9A 1_555 1_555
H26A C30A 1_555 1_555
O12A C34A 1_555 1_555
C33A C34A 1_555 1_555
H1A C1A 1_555 1_555
H2A C1A 1_555 1_555
C2A C1A 1_555 1_555
O9A C22A 1_555 1_555
H21A C22A 1_555 1_555
H22A C22A 1_555 1_555
C13A C37A 1_555 1_555
H29A C37A 1_555 1_555
C38A C37A 1_555 1_555
H24A C29A 1_555 1_555
H25A C29A 1_555 1_555
C6A C5A 1_555 1_555
H9A C5A 1_555 1_555
H62A C66A 1_555 1_555
H63A C66A 1_555 1_555
C72A C66A 1_555 1_555
H42A C48A 1_555 1_555
H43A C48A 1_555 1_555
C54A C48A 1_555 1_555
O3A C8A 1_555 1_555
C7A C8A 1_555 1_555
O8A C33A 1_555 1_555
H3A C2A 1_555 1_555
H4A C2A 1_555 1_555
O2A C2A 1_555 1_555
C14A O9A 1_555 1_555
C12A C13A 1_555 1_555
H30A C38A 1_555 1_555
H31A C38A 1_555 1_555
C39A C38A 1_555 1_555
C55A C6A 1_555 1_555
C67A C72A 1_555 1_555
C71A C72A 1_555 1_555
C49A C54A 1_555 1_555
C53A C54A 1_555 1_555
C4A O3A 1_555 1_555
O4A C7A 1_555 1_555
C21A O8A 1_555 1_555
C3A O2A 1_555 1_555
C15A C14A 1_555 1_555
C17A C12A 1_555 1_555
H12A C12A 1_555 1_555
H32A C39A 1_555 1_555
H33A C39A 1_555 1_555
C45A C39A 1_555 1_555
H49A C55A 1_555 1_555
C56A C55A 1_555 1_555
C68A C67A 1_555 1_555
H64A C67A 1_555 1_555
C70A C71A 1_555 1_555
H68A C71A 1_555 1_555
C50A C49A 1_555 1_555
H44A C49A 1_555 1_555
C52A C53A 1_555 1_555
H48A C53A 1_555 1_555
H7A C4A 1_555 1_555
H8A C4A 1_555 1_555
C11A O4A 1_555 1_555
C20A C21A 1_555 1_555
H19A C21A 1_555 1_555
H20A C21A 1_555 1_555
H5A C3A 1_555 1_555
H6A C3A 1_555 1_555
C16A C15A 1_555 1_555
O6A C15A 1_555 1_555
C40A C45A 1_555 1_555
C44A C45A 1_555 1_555
H50A C56A 1_555 1_555
H51A C56A 1_555 1_555
C57A C56A 1_555 1_555
C69A C68A 1_555 1_555
H65A C68A 1_555 1_555
H67A C70A 1_555 1_555
C51A C50A 1_555 1_555
H45A C50A 1_555 1_555
H47A C52A 1_555 1_555
H10A C11A 1_555 1_555
H11A C11A 1_555 1_555
O5A C11A 1_555 1_555
O7A C20A 1_555 1_555
H17A C20A 1_555 1_555
H18A C20A 1_555 1_555
C18A O6A 1_555 1_555
C41A C40A 1_555 1_555
H34A C40A 1_555 1_555
C43A C44A 1_555 1_555
H38A C44A 1_555 1_555
H52A C57A 1_555 1_555
H53A C57A 1_555 1_555
C63A C57A 1_555 1_555
H66A C69A 1_555 1_555
H46A C51A 1_555 1_555
C19A O7A 1_555 1_555
H13A C18A 1_555 1_555
H14A C18A 1_555 1_555
C42A C41A 1_555 1_555
H35A C41A 1_555 1_555
H37A C43A 1_555 1_555
C58A C63A 1_555 1_555
C62A C63A 1_555 1_555
H15A C19A 1_555 1_555
H16A C19A 1_555 1_555
H36A C42A 1_555 1_555
C59A C58A 1_555 1_555
H54A C58A 1_555 1_555
C61A C62A 1_555 1_555
H58A C62A 1_555 1_555
C60A C59A 1_555 1_555
H55A C59A 1_555 1_555
H57A C61A 1_555 1_555
H56A C60A 1_555 1_555
C9 C10 1_555 1_555
C16 C17 1_555 1_555
C17 C55 1_555 1_555
C24 C37 1_555 1_555
C33 C34 1_555 1_555
C34 C35 1_555 1_555
C40 C45 1_555 1_555
C49 C54 1_555 1_555
C58 C63 1_555 1_555
C67 C72 1_555 1_555
C26A C27A 1_555 1_555
C28A C46A 1_555 1_555
C31A C30A 1_555 1_555
C24A C23A 1_555 1_555
C10A C9A 1_555 1_555
O13A C32A 1_555 1_555
C32A C33A 1_555 1_555
C29A O12A 1_555 1_555
C13A C14A 1_555 1_555
C6A C7A 1_555 1_555
C55A C17A 1_555 1_555
C4A C3A 1_555 1_555
C17A C16A 1_555 1_555
C70A C69A 1_555 1_555
C52A C51A 1_555 1_555
C16A O5A 1_555 1_555
C18A C19A 1_555 1_555
C43A C42A 1_555 1_555
C61A C60A 1_555 1_555

#END
