
#######################################################################
#
#                 Cambridge Crystallographic Data Centre
#                                CCDC 
#
#######################################################################
#
# If this CIF has been generated from an entry in the Cambridge 
# Structural Database, then it will include bibliographic, chemical, 
# crystal, experimental, refinement or atomic coordinate data resulting 
# from the CCDC's data processing and validation procedures.
#
#######################################################################

data_ZELTOC
_chemical_formula_moiety         'C17 H23 N1 O2'
_chemical_name_systematic        
2-(1-ethyl-2,6-dimethylpyridin-4(1H)-ylidene)-5,5-dimethylcyclohexane-1,3-dione
_symmetry_cell_setting           orthorhombic
_symmetry_space_group_name_H-M   'P n a 21'
_symmetry_Int_Tables_number      33
_space_group_name_Hall           'P 2c -2n'
loop_
_symmetry_equiv_pos_site_id
_symmetry_equiv_pos_as_xyz
1 x,y,z
2 -x,-y,1/2+z
3 1/2+x,1/2-y,z
4 1/2-x,1/2+y,1/2+z
_cell_length_a                   8.1907(5)
_cell_length_b                   24.8299(16)
_cell_length_c                   7.3077(5)
_cell_angle_alpha                90
_cell_angle_beta                 90
_cell_angle_gamma                90
_cell_volume                     1486.2
_exptl_crystal_colour            colorless
_exptl_crystal_description       Plate
_cell_formula_units_Z            4
loop_
_atom_site_label
_atom_site_type_symbol
_atom_site_fract_x
_atom_site_fract_y
_atom_site_fract_z
N1 N 0.2247(5) 0.78192(15) 0.6575(6)
C1 C 0.1269(7) 0.7368(2) 0.9394(8)
H1 H 0.182044 0.763956 1.009454
H2 H 0.141346 0.702370 0.997133
H3 H 0.012638 0.745102 0.932880
C2 C 0.1968(6) 0.7350(2) 0.7502(8)
C3 C 0.2334(6) 0.6864(2) 0.6699(8)
H4 H 0.214558 0.655038 0.735984
C4 C 0.2983(6) 0.68211(19) 0.4917(7)
C5 C 0.3380(7) 0.7324(2) 0.4120(8)
H5 H 0.392189 0.732726 0.300129
C6 C 0.2999(7) 0.7806(2) 0.4930(8)
C7 C 0.3386(9) 0.8325(2) 0.3956(10)
H6 H 0.240139 0.847443 0.345625
H7 H 0.414705 0.825590 0.298462
H8 H 0.385731 0.857568 0.480562
C8 C 0.1673(7) 0.83472(19) 0.7368(9)
H9 H 0.135788 0.858528 0.637610
H10 H 0.071310 0.828279 0.811432
C9 C 0.2954(8) 0.8622(2) 0.8517(9)
H11 H 0.393401 0.866515 0.781106
H12 H 0.318235 0.840665 0.957763
H13 H 0.256246 0.896906 0.889389
C10 C 0.3190(7) 0.63060(19) 0.3972(8)
C11 C 0.3971(6) 0.6281(2) 0.2227(9)
C12 C 0.3960(7) 0.5754(2) 0.1140(9)
H14 H 0.392832 0.584035 -0.015379
H15 H 0.497387 0.556474 0.137431
C13 C 0.2551(7) 0.53800(19) 0.1572(8)
C14 C 0.2568(7) 0.5301(2) 0.3626(8)
H16 H 0.354766 0.510389 0.395444
H17 H 0.163842 0.508066 0.396398
C15 C 0.2515(8) 0.5819(2) 0.4739(8)
C16 C 0.2765(9) 0.4843(2) 0.0574(11)
H18 H 0.278067 0.490398 -0.072245
H19 H 0.187411 0.460774 0.087644
H20 H 0.377483 0.467918 0.094398
C17 C 0.0937(8) 0.5628(3) 0.0961(10)
H21 H 0.080789 0.597555 0.152088
H22 H 0.005160 0.539846 0.132410
H23 H 0.093418 0.566730 -0.034595
O1 O 0.4962(18) 0.6634(10) 0.171(3)
O2 O 0.1493(14) 0.5810(5) 0.6100(15)
O3? O 0.4453(19) 0.6675(9) 0.129(3)
O4? O 0.2358(18) 0.5750(6) 0.6429(18)
loop_
_geom_bond_atom_site_label_1
_geom_bond_atom_site_label_2
_geom_bond_site_symmetry_1
_geom_bond_site_symmetry_2
N1 C2 1_555 1_555
C1 H1 1_555 1_555
H2 C1 1_555 1_555
H3 C1 1_555 1_555
C2 C1 1_555 1_555
C3 C2 1_555 1_555
H4 C3 1_555 1_555
C4 C3 1_555 1_555
C5 C4 1_555 1_555
H5 C5 1_555 1_555
C6 N1 1_555 1_555
C7 C6 1_555 1_555
H6 C7 1_555 1_555
H7 C7 1_555 1_555
H8 C7 1_555 1_555
C8 N1 1_555 1_555
H9 C8 1_555 1_555
H10 C8 1_555 1_555
C9 C8 1_555 1_555
H11 C9 1_555 1_555
H12 C9 1_555 1_555
H13 C9 1_555 1_555
C10 C4 1_555 1_555
C11 C10 1_555 1_555
C12 C11 1_555 1_555
H14 C12 1_555 1_555
H15 C12 1_555 1_555
C13 C12 1_555 1_555
C14 C13 1_555 1_555
H16 C14 1_555 1_555
H17 C14 1_555 1_555
C15 C10 1_555 1_555
C16 C13 1_555 1_555
H18 C16 1_555 1_555
H19 C16 1_555 1_555
H20 C16 1_555 1_555
C17 C13 1_555 1_555
H21 C17 1_555 1_555
H22 C17 1_555 1_555
H23 C17 1_555 1_555
O1 C11 1_555 1_555
O2 C15 1_555 1_555
C5 C6 1_555 1_555
C14 C15 1_555 1_555

#END
