
#######################################################################
#
#                 Cambridge Crystallographic Data Centre
#                                CCDC 
#
#######################################################################
#
# If this CIF has been generated from an entry in the Cambridge 
# Structural Database, then it will include bibliographic, chemical, 
# crystal, experimental, refinement or atomic coordinate data resulting 
# from the CCDC's data processing and validation procedures.
#
#######################################################################

data_ZELVAQ
_chemical_formula_moiety         'C22 H25 N1 O2'
_chemical_name_systematic        
2-(1-benzyl-2,6-dimethylpyridin-4(1H)-ylidene)-5,5-dimethylcyclohexane-1,3-dione
_symmetry_cell_setting           triclinic
_symmetry_space_group_name_H-M   'P -1'
_symmetry_Int_Tables_number      2
_space_group_name_Hall           '-P 1'
loop_
_symmetry_equiv_pos_site_id
_symmetry_equiv_pos_as_xyz
1 x,y,z
2 -x,-y,-z
_cell_length_a                   8.6562(3)
_cell_length_b                   9.3060(3)
_cell_length_c                   12.0490(4)
_cell_angle_alpha                83.1427(10)
_cell_angle_beta                 77.2334(10)
_cell_angle_gamma                75.0473(11)
_cell_volume                     912.548
_exptl_crystal_colour            colorless
_exptl_crystal_description       prismatic
_cell_formula_units_Z            2
loop_
_atom_site_label
_atom_site_type_symbol
_atom_site_fract_x
_atom_site_fract_y
_atom_site_fract_z
N1 N 0.3254(2) 0.6579(2) 0.47077(18)
O1 O 0.7647(3) 0.7874(5) 0.6238(2)
O2 O 0.3187(3) 0.6901(4) 0.8962(2)
C1 C 0.6780(4) 0.7862(4) 0.7194(2)
C2 C 0.7398(6) 0.8308(4) 0.8145(3)
H1 H 0.6835 0.9328 0.8306
H2 H 0.8551 0.8273 0.7894
C3 C 0.7158(4) 0.7311(3) 0.9237(2)
C4 C 0.5399(5) 0.7269(5) 0.9561(3)
H3 H 0.4803 0.8172 0.9936
H4 H 0.5308 0.6438 1.0119
C5 C 0.4557(4) 0.7130(4) 0.8626(3)
C6 C 0.5276(3) 0.7383(3) 0.7435(2)
C7 C 0.4557(3) 0.7147(2) 0.6528(2)
C8 C 0.3305(3) 0.6368(3) 0.6685(2)
H5 H 0.2880 0.6043 0.7422
C9 C 0.2696(3) 0.6075(3) 0.5808(2)
C10 C 0.1422(3) 0.5189(4) 0.6029(3)
H6 H 0.1177 0.4903 0.6829
H7 H 0.1824 0.4312 0.5606
H8 H 0.0451 0.5785 0.5795
C11 C 0.5039(3) 0.7663(3) 0.5382(2)
H9 H 0.5830 0.8212 0.5217
C12 C 0.4411(3) 0.7402(3) 0.4509(2)
C13 C 0.4980(4) 0.7975(4) 0.3318(2)
H10 H 0.5789 0.8516 0.3310
H11 H 0.4072 0.8626 0.3037
H12 H 0.5444 0.7153 0.2841
C14 C 0.2648(3) 0.6239(3) 0.3735(2)
H13 H 0.2151 0.5400 0.3969
H14 H 0.3570 0.5940 0.3118
C15 C 0.1420(3) 0.7522(3) 0.3292(2)
C16 C 0.1496(4) 0.7769(3) 0.2125(2)
H15 H 0.2332 0.7180 0.1628
C17 C 0.0343(4) 0.8880(4) 0.1696(3)
H16 H 0.0404 0.9034 0.0912
C18 C -0.0891(4) 0.9759(4) 0.2416(3)
H17 H -0.1672 1.0504 0.2126
C19 C -0.0964(4) 0.9532(3) 0.3561(3)
H18 H -0.1799 1.0134 0.4050
C20 C 0.0177(3) 0.8428(3) 0.4011(3)
H19 H 0.0109 0.8293 0.4796
C21 C 0.8227(5) 0.5761(5) 0.8976(4)
H20 H 0.8045 0.5080 0.9628
H21 H 0.9354 0.5799 0.8800
H22 H 0.7955 0.5429 0.8335
C22 C 0.7739(7) 0.7851(6) 1.0178(4)
H23 H 0.7085 0.8827 1.0362
H24 H 0.8860 0.7892 0.9924
H25 H 0.7640 0.7175 1.0843
loop_
_geom_bond_atom_site_label_1
_geom_bond_atom_site_label_2
_geom_bond_site_symmetry_1
_geom_bond_site_symmetry_2
N1 C9 1_555 1_555
O1 C1 1_555 1_555
O2 C5 1_555 1_555
C1 C2 1_555 1_555
C2 H1 1_555 1_555
H2 C2 1_555 1_555
C3 C2 1_555 1_555
C4 C3 1_555 1_555
H3 C4 1_555 1_555
H4 C4 1_555 1_555
C5 C4 1_555 1_555
C6 C1 1_555 1_555
C7 C6 1_555 1_555
C8 C7 1_555 1_555
H5 C8 1_555 1_555
C9 C8 1_555 1_555
C10 C9 1_555 1_555
H6 C10 1_555 1_555
H7 C10 1_555 1_555
H8 C10 1_555 1_555
C11 C7 1_555 1_555
H9 C11 1_555 1_555
C12 N1 1_555 1_555
C13 C12 1_555 1_555
H10 C13 1_555 1_555
H11 C13 1_555 1_555
H12 C13 1_555 1_555
C14 N1 1_555 1_555
H13 C14 1_555 1_555
H14 C14 1_555 1_555
C15 C14 1_555 1_555
C16 C15 1_555 1_555
H15 C16 1_555 1_555
C17 C16 1_555 1_555
H16 C17 1_555 1_555
C18 C17 1_555 1_555
H17 C18 1_555 1_555
C19 C18 1_555 1_555
H18 C19 1_555 1_555
C20 C15 1_555 1_555
H19 C20 1_555 1_555
C21 C3 1_555 1_555
H20 C21 1_555 1_555
H21 C21 1_555 1_555
H22 C21 1_555 1_555
C22 C3 1_555 1_555
H23 C22 1_555 1_555
H24 C22 1_555 1_555
H25 C22 1_555 1_555
C5 C6 1_555 1_555
C11 C12 1_555 1_555
C19 C20 1_555 1_555

#END
