
#######################################################################
#
#                 Cambridge Crystallographic Data Centre
#                                CCDC 
#
#######################################################################
#
# If this CIF has been generated from an entry in the Cambridge 
# Structural Database, then it will include bibliographic, chemical, 
# crystal, experimental, refinement or atomic coordinate data resulting 
# from the CCDC's data processing and validation procedures.
#
#######################################################################

data_ZELWAR
_chemical_formula_moiety         'C44 H43 N1 O4'
_chemical_name_systematic        
5-[9,9-dibutyl-7-(2-butyl-1,3-dioxo-2,3-dihydro-1H-benzo[de]isoquinolin-6-yl)-9H-fluoren-2-yl]-2-hydroxybenzaldehyde
_symmetry_cell_setting           triclinic
_symmetry_space_group_name_H-M   'P -1'
_symmetry_Int_Tables_number      2
_space_group_name_Hall           '-P 1'
loop_
_symmetry_equiv_pos_site_id
_symmetry_equiv_pos_as_xyz
1 x,y,z
2 -x,-y,-z
_cell_length_a                   11.742(5)
_cell_length_b                   12.270(5)
_cell_length_c                   13.311(5)
_cell_angle_alpha                67.566(10)
_cell_angle_beta                 84.865(11)
_cell_angle_gamma                77.303(12)
_cell_volume                     1729.25
_exptl_crystal_description       BLOCK
_cell_formula_units_Z            2
loop_
_atom_site_label
_atom_site_type_symbol
_atom_site_fract_x
_atom_site_fract_y
_atom_site_fract_z
C1 C -0.121(3) 1.437(3) 0.1258(19)
H1 H -0.2053 1.4466 0.1228
H2 H -0.0886 1.3667 0.1087
C2 C -0.098(2) 1.3960(17) 0.2442(15)
H3 H -0.1508 1.4563 0.2657
H4 H -0.0208 1.4114 0.2456
C3 C -0.0982(13) 1.2807(12) 0.3427(11)
H5 H -0.1316 1.3051 0.4021
H6 H -0.1532 1.2408 0.3272
C4 C 0.0841(13) 1.2072(14) 0.4526(11)
C5 C 0.1792(13) 1.1182(13) 0.4964(10)
C6 C 0.2593(14) 1.1305(14) 0.5633(11)
H7 H 0.2451 1.1999 0.5791
C7 C 0.3514(14) 1.0487(13) 0.6031(11)
H8 H 0.3983 1.0607 0.6492
C8 C 0.3839(13) 0.9453(14) 0.5813(11)
H9 H 0.4524 0.8900 0.6089
C9 C 0.3056(13) 0.9262(13) 0.5124(10)
C10 C 0.2149(13) 1.0072(13) 0.4746(10)
C11 C 0.1284(14) 1.0016(13) 0.3982(10)
C12 C 0.0346(15) 1.0829(14) 0.3580(12)
C13 C 0.1710(14) 0.8930(13) 0.3747(11)
H10 H 0.1264 0.8815 0.3267
C14 C 0.2598(14) 0.8137(13) 0.4109(11)
H11 H 0.2744 0.7484 0.3890
C15 C 0.3422(13) 0.8162(13) 0.4851(10)
C16 C 0.4365(13) 0.7297(13) 0.5239(11)
C17 C 0.4772(13) 0.6636(13) 0.6372(11)
H12 H 0.4284 0.6805 0.6906
C18 C 0.5689(13) 0.5881(13) 0.6695(11)
C19 C 0.6579(13) 0.5553(13) 0.5929(11)
C20 C 0.6166(14) 0.6145(13) 0.4825(11)
H13 H 0.6633 0.5923 0.4304
C21 C 0.5245(14) 0.6929(13) 0.4480(11)
H14 H 0.5109 0.7286 0.3736
C22 C 0.7508(13) 0.4767(13) 0.6449(11)
C23 C 0.8650(12) 0.4218(12) 0.6136(11)
H15 H 0.8832 0.4467 0.5399
C24 C 0.9392(13) 0.3452(13) 0.6770(12)
H16 H 1.0060 0.3140 0.6459
C25 C 0.9335(13) 0.2964(13) 0.7999(12)
C26 C 0.8179(11) 0.3608(12) 0.8285(11)
H17 H 0.7995 0.3386 0.9021
C27 C 0.7435(12) 0.4416(13) 0.7635(11)
C28 C 0.6244(12) 0.5112(14) 0.7837(12)
C29 C 0.6418(12) 0.6007(13) 0.8386(11)
H18 H 0.5660 0.6467 0.8483
H19 H 0.6755 0.5540 0.9100
C30 C 0.7213(13) 0.6891(14) 0.7718(12)
H20 H 0.6931 0.7290 0.6977
H21 H 0.7998 0.6439 0.7698
C31 C 0.7251(14) 0.7849(14) 0.8189(12)
H22 H 0.7337 0.7451 0.8971
H23 H 0.7943 0.8180 0.7908
C32 C 0.6299(15) 0.8794(15) 0.7980(13)
H24 H 0.6247 0.9250 0.7212
H25 H 0.6389 0.9304 0.8351
H26 H 0.5600 0.8483 0.8231
C33 C 0.5442(12) 0.4302(13) 0.8605(11)
H27 H 0.5829 0.3852 0.9300
H28 H 0.4731 0.4811 0.8730
C34 C 0.5117(13) 0.3415(13) 0.8182(11)
H29 H 0.4664 0.3861 0.7523
H30 H 0.5825 0.2946 0.8000
C35 C 0.4419(14) 0.2572(15) 0.9008(13)
H31 H 0.3727 0.3046 0.9208
H32 H 0.4884 0.2110 0.9657
C36 C 0.4041(16) 0.1688(16) 0.8581(15)
H33 H 0.4696 0.1341 0.8238
H34 H 0.3424 0.2117 0.8063
H35 H 0.3770 0.1060 0.9178
C37 C 1.0078(12) 0.2102(13) 0.8665(10)
C38 C 1.0812(12) 0.1137(13) 0.8405(12)
H36 H 1.0771 0.1168 0.7700
C39 C 1.1530(12) 0.0222(14) 0.9066(11)
C40 C 1.1707(14) 0.0108(15) 1.0154(12)
C41 C 1.0967(12) 0.1079(13) 1.0399(12)
H37 H 1.0998 0.1051 1.1105
C42 C 1.0287(13) 0.1957(14) 0.9762(10)
H38 H 0.9893 0.2551 1.0011
C43 C 1.2180(14) -0.0717(14) 0.8760(15)
H39 H 1.2054 -0.0630 0.8051
N1 N 0.0052(11) 1.1890(11) 0.3855(9)
O1 O -0.0417(13) 1.0792(14) 0.2969(9)
O2 O 0.0535(10) 1.3030(14) 0.4679(10)
O3 O 1.2913(11) -0.1667(13) 0.9289(9)
O4 O 1.2412(12) -0.0763(14) 1.0844(10)
H40 H 1.2758 -0.1224 1.0554
C44 C -0.094(4) 1.541(3) 0.0249(17)
H41 H -0.1481 1.5578 -0.0315
H42 H -0.0159 1.5193 0.0006
H43 H -0.1007 1.6114 0.0422
loop_
_geom_bond_atom_site_label_1
_geom_bond_atom_site_label_2
_geom_bond_site_symmetry_1
_geom_bond_site_symmetry_2
C1 H1 1_555 1_555
H2 C1 1_555 1_555
C2 C1 1_555 1_555
H3 C2 1_555 1_555
H4 C2 1_555 1_555
C3 C2 1_555 1_555
H5 C3 1_555 1_555
H6 C3 1_555 1_555
C4 C5 1_555 1_555
C5 C6 1_555 1_555
C6 H7 1_555 1_555
C7 C6 1_555 1_555
H8 C7 1_555 1_555
C8 C7 1_555 1_555
H9 C8 1_555 1_555
C9 C8 1_555 1_555
C10 C5 1_555 1_555
C11 C10 1_555 1_555
C12 C11 1_555 1_555
C13 C11 1_555 1_555
H10 C13 1_555 1_555
C14 C13 1_555 1_555
H11 C14 1_555 1_555
C15 C9 1_555 1_555
C16 C15 1_555 1_555
C17 C16 1_555 1_555
H12 C17 1_555 1_555
C18 C17 1_555 1_555
C19 C18 1_555 1_555
C20 C19 1_555 1_555
H13 C20 1_555 1_555
C21 C16 1_555 1_555
H14 C21 1_555 1_555
C22 C19 1_555 1_555
C23 C22 1_555 1_555
H15 C23 1_555 1_555
C24 C23 1_555 1_555
H16 C24 1_555 1_555
C25 C24 1_555 1_555
C26 C25 1_555 1_555
H17 C26 1_555 1_555
C27 C22 1_555 1_555
C28 C18 1_555 1_555
C29 C28 1_555 1_555
H18 C29 1_555 1_555
H19 C29 1_555 1_555
C30 C29 1_555 1_555
H20 C30 1_555 1_555
H21 C30 1_555 1_555
C31 C30 1_555 1_555
H22 C31 1_555 1_555
H23 C31 1_555 1_555
C32 C31 1_555 1_555
H24 C32 1_555 1_555
H25 C32 1_555 1_555
H26 C32 1_555 1_555
C33 C28 1_555 1_555
H27 C33 1_555 1_555
H28 C33 1_555 1_555
C34 C33 1_555 1_555
H29 C34 1_555 1_555
H30 C34 1_555 1_555
C35 C34 1_555 1_555
H31 C35 1_555 1_555
H32 C35 1_555 1_555
C36 C35 1_555 1_555
H33 C36 1_555 1_555
H34 C36 1_555 1_555
H35 C36 1_555 1_555
C37 C25 1_555 1_555
C38 C37 1_555 1_555
H36 C38 1_555 1_555
C39 C38 1_555 1_555
C40 C39 1_555 1_555
C41 C40 1_555 1_555
H37 C41 1_555 1_555
C42 C37 1_555 1_555
H38 C42 1_555 1_555
C43 C39 1_555 1_555
H39 C43 1_555 1_555
N1 C3 1_555 1_555
O1 C12 1_555 1_555
O2 C4 1_555 1_555
O3 C43 1_555 1_555
O4 C40 1_555 1_555
H40 O4 1_555 1_555
C44 C1 1_555 1_555
H41 C44 1_555 1_555
H42 C44 1_555 1_555
H43 C44 1_555 1_555
C4 N1 1_555 1_555
C9 C10 1_555 1_555
C12 N1 1_555 1_555
C14 C15 1_555 1_555
C20 C21 1_555 1_555
C26 C27 1_555 1_555
C27 C28 1_555 1_555
C41 C42 1_555 1_555

#END
