
#######################################################################
#
#                 Cambridge Crystallographic Data Centre
#                                CCDC 
#
#######################################################################
#
# If this CIF has been generated from an entry in the Cambridge 
# Structural Database, then it will include bibliographic, chemical, 
# crystal, experimental, refinement or atomic coordinate data resulting 
# from the CCDC's data processing and validation procedures.
#
#######################################################################

data_ZEMPEP
_chemical_formula_moiety         'C26 H20 O2'
_chemical_name_systematic        5-methoxy-2,9-diphenyl-3H-naphtho[2,1-b]pyran
_symmetry_cell_setting           monoclinic
_symmetry_space_group_name_H-M   'P 21'
_symmetry_Int_Tables_number      4
_space_group_name_Hall           'P 2yb'
loop_
_symmetry_equiv_pos_site_id
_symmetry_equiv_pos_as_xyz
1 x,y,z
2 -x,1/2+y,-z
_cell_length_a                   11.1511(15)
_cell_length_b                   6.2381(8)
_cell_length_c                   13.3264(18)
_cell_angle_alpha                90
_cell_angle_beta                 96.890(3)
_cell_angle_gamma                90
_cell_volume                     920.312
_exptl_crystal_colour            colorless
_cell_formula_units_Z            2
loop_
_atom_site_label
_atom_site_type_symbol
_atom_site_fract_x
_atom_site_fract_y
_atom_site_fract_z
O1 O -0.16316(18) 0.2829(4) 0.83549(15)
O2 O -0.01645(18) 0.6067(4) 0.86304(15)
C1 C 0.4039(3) 1.3319(6) 0.9243(2)
H1 H 0.4568 1.4480 0.9436
C2 C 0.3882(3) 1.2594(6) 0.8250(2)
H2 H 0.4299 1.3270 0.7756
C3 C 0.3117(3) 1.0888(5) 0.7981(2)
H3 H 0.3018 1.0414 0.7299
C4 C 0.2486(3) 0.9841(5) 0.8683(2)
C5 C 0.1712(3) 0.7973(5) 0.8393(2)
C6 C 0.1741(3) 0.6858(5) 0.7537(2)
H4 H 0.2264 0.7313 0.7066
C7 C 0.0991(3) 0.4964(5) 0.7311(2)
C8 C 0.1158(3) 0.3450(5) 0.6529(2)
C9 C 0.2047(2) 0.3685(5) 0.5850(2)
H5 H 0.2533 0.4939 0.5891
C10 C 0.2223(3) 0.2151(5) 0.5135(2)
C11 C 0.3124(3) 0.2388(5) 0.4404(2)
C12 C 0.4170(3) 0.3611(6) 0.4610(2)
H6 H 0.4317 0.4366 0.5232
C13 C 0.5002(3) 0.3738(6) 0.3913(2)
H7 H 0.5703 0.4602 0.4058
C14 C 0.4819(3) 0.2613(6) 0.3006(2)
H8 H 0.5399 0.2678 0.2540
C15 C 0.3788(3) 0.1404(6) 0.2794(2)
H9 H 0.3652 0.0635 0.2176
C16 C 0.2945(3) 0.1300(6) 0.3480(2)
H10 H 0.2232 0.0473 0.3318
C17 C 0.1507(3) 0.0269(5) 0.5099(2)
H11 H 0.1647 -0.0841 0.4639
C18 C 0.0618(3) 0.0018(6) 0.5713(2)
H12 H 0.0134 -0.1240 0.5657
C19 C 0.0410(3) 0.1602(5) 0.6430(2)
C20 C -0.0536(3) 0.1357(6) 0.7042(2)
H13 H -0.1044 0.0132 0.6959
C21 C -0.0722(3) 0.2860(5) 0.7747(2)
C22 C -0.2485(3) 0.1108(6) 0.8170(2)
H14 H -0.2866 0.1176 0.7469
H15 H -0.3106 0.1240 0.8629
H16 H -0.2067 -0.0267 0.8287
C23 C 0.0077(3) 0.4638(5) 0.7904(2)
C24 C 0.0886(3) 0.7162(6) 0.9129(2)
H17 H 0.1342 0.6168 0.9612
H18 H 0.0618 0.8388 0.9518
C25 C 0.2643(3) 1.0623(5) 0.9680(2)
H19 H 0.2214 0.9979 1.0176
C26 C 0.3413(3) 1.2319(6) 0.9944(2)
H20 H 0.3515 1.2807 1.0624
loop_
_geom_bond_atom_site_label_1
_geom_bond_atom_site_label_2
_geom_bond_site_symmetry_1
_geom_bond_site_symmetry_2
O1 C21 1_555 1_555
O2 C23 1_555 1_555
C1 H1 1_555 1_555
C2 C1 1_555 1_555
H2 C2 1_555 1_555
C3 C2 1_555 1_555
H3 C3 1_555 1_555
C4 C3 1_555 1_555
C5 C4 1_555 1_555
C6 C5 1_555 1_555
H4 C6 1_555 1_555
C7 C6 1_555 1_555
C8 C7 1_555 1_555
C9 C8 1_555 1_555
H5 C9 1_555 1_555
C10 C9 1_555 1_555
C11 C10 1_555 1_555
C12 C11 1_555 1_555
H6 C12 1_555 1_555
C13 C12 1_555 1_555
H7 C13 1_555 1_555
C14 C13 1_555 1_555
H8 C14 1_555 1_555
C15 C14 1_555 1_555
H9 C15 1_555 1_555
C16 C11 1_555 1_555
H10 C16 1_555 1_555
C17 C10 1_555 1_555
H11 C17 1_555 1_555
C18 C17 1_555 1_555
H12 C18 1_555 1_555
C19 C8 1_555 1_555
C20 C19 1_555 1_555
H13 C20 1_555 1_555
C21 C20 1_555 1_555
C22 O1 1_555 1_555
H14 C22 1_555 1_555
H15 C22 1_555 1_555
H16 C22 1_555 1_555
C23 C7 1_555 1_555
C24 O2 1_555 1_555
H17 C24 1_555 1_555
H18 C24 1_555 1_555
C25 C4 1_555 1_555
H19 C25 1_555 1_555
C26 C1 1_555 1_555
H20 C26 1_555 1_555
C5 C24 1_555 1_555
C15 C16 1_555 1_555
C18 C19 1_555 1_555
C21 C23 1_555 1_555
C25 C26 1_555 1_555

#END
