
#######################################################################
#
#                 Cambridge Crystallographic Data Centre
#                                CCDC 
#
#######################################################################
#
# If this CIF has been generated from an entry in the Cambridge 
# Structural Database, then it will include bibliographic, chemical, 
# crystal, experimental, refinement or atomic coordinate data resulting 
# from the CCDC's data processing and validation procedures.
#
#######################################################################

data_ZENGUX
_chemical_formula_moiety         'C27 H25 N1 O1'
_chemical_name_systematic        
7-benzyl-5,7-dimethyl-5,7,8,9-tetrahydro-6H-benzo[b]naphtho[1,2-d]azepin-6-one
_symmetry_cell_setting           monoclinic
_symmetry_space_group_name_H-M   'P 21/n'
_symmetry_Int_Tables_number      14
_space_group_name_Hall           '-P 2yn'
loop_
_symmetry_equiv_pos_site_id
_symmetry_equiv_pos_as_xyz
1 x,y,z
2 1/2-x,1/2+y,1/2-z
3 -x,-y,-z
4 1/2+x,1/2-y,1/2+z
_cell_length_a                   13.379(5)
_cell_length_b                   9.939(3)
_cell_length_c                   15.142(5)
_cell_angle_alpha                90
_cell_angle_beta                 91.100(8)
_cell_angle_gamma                90
_cell_volume                     2013.12
_exptl_crystal_colour            colorless
_exptl_crystal_description       prismatic
_cell_formula_units_Z            4
loop_
_atom_site_label
_atom_site_type_symbol
_atom_site_fract_x
_atom_site_fract_y
_atom_site_fract_z
N1 N 0.09239(14) 0.42734(18) 0.16255(11)
O1 O 0.04789(15) 0.63066(17) 0.11469(11)
C1 C 0.04574(18) 0.5482(2) 0.17354(14)
C2 C -0.00836(17) 0.57995(18) 0.25994(13)
C3 C 0.07190(17) 0.58217(18) 0.33363(13)
C4 C 0.12840(16) 0.47490(18) 0.35438(12)
C5 C 0.11419(15) 0.34081(18) 0.31338(13)
C6 C 0.09771(16) 0.31995(19) 0.22329(13)
C7 C 0.08847(19) 0.1890(2) 0.19141(16)
H1 H 0.0775 0.1749 0.1313
C8 C 0.0952(2) 0.0809(2) 0.24697(18)
H2 H 0.0912 -0.0059 0.2242
C9 C 0.10772(18) 0.1000(2) 0.33601(17)
H3 H 0.1100 0.0267 0.3742
C10 C 0.11693(17) 0.22811(19) 0.36810(14)
H4 H 0.1253 0.2405 0.4287
C11 C 0.1371(2) 0.4078(3) 0.07557(15)
H5 H 0.0861 0.3811 0.0336
H6 H 0.1873 0.3389 0.0796
H7 H 0.1670 0.4904 0.0566
C12 C 0.0891(2) 0.7104(2) 0.38544(16)
H8 H 0.1420 0.7621 0.3585
H9 H 0.0287 0.7644 0.3836
C13 C 0.1174(2) 0.6802(2) 0.47980(16)
H10 H 0.1330 0.7635 0.5105
H11 H 0.0612 0.6385 0.5088
C14 C 0.20515(18) 0.5889(2) 0.48514(13)
C15 C 0.21037(16) 0.48715(18) 0.42196(12)
C16 C 0.29303(17) 0.4032(2) 0.42368(14)
H12 H 0.2976 0.3351 0.3818
C17 C 0.36866(19) 0.4182(2) 0.48595(16)
H13 H 0.4240 0.3615 0.4854
C18 C 0.3620(2) 0.5174(3) 0.54890(16)
H14 H 0.4119 0.5268 0.5920
C19 C 0.2811(2) 0.6024(2) 0.54774(15)
H15 H 0.2773 0.6702 0.5898
C20 C -0.09246(16) 0.47942(19) 0.28330(13)
H16 H -0.0633 0.3905 0.2895
H17 H -0.1191 0.5044 0.3401
C21 C -0.17739(16) 0.47191(19) 0.21732(12)
C22 C -0.17424(18) 0.3880(2) 0.14519(14)
H18 H -0.1183 0.3340 0.1374
C23 C -0.2516(2) 0.3821(3) 0.08449(16)
H19 H -0.2479 0.3239 0.0365
C24 C -0.3338(2) 0.4608(3) 0.09418(16)
H20 H -0.3857 0.4577 0.0525
C25 C -0.33969(19) 0.5449(2) 0.16552(17)
H21 H -0.3958 0.5986 0.1727
C26 C -0.26207(18) 0.5495(2) 0.22682(15)
H22 H -0.2669 0.6060 0.2755
C27 C -0.0574(2) 0.7181(2) 0.24580(17)
H23 H -0.0937 0.7425 0.2975
H24 H -0.1025 0.7141 0.1958
H25 H -0.0066 0.7842 0.2353
loop_
_geom_bond_atom_site_label_1
_geom_bond_atom_site_label_2
_geom_bond_site_symmetry_1
_geom_bond_site_symmetry_2
N1 C1 1_555 1_555
O1 C1 1_555 1_555
C1 C2 1_555 1_555
C2 C3 1_555 1_555
C3 C4 1_555 1_555
C4 C5 1_555 1_555
C5 C6 1_555 1_555
C6 N1 1_555 1_555
C7 C6 1_555 1_555
H1 C7 1_555 1_555
C8 C7 1_555 1_555
H2 C8 1_555 1_555
C9 C8 1_555 1_555
H3 C9 1_555 1_555
C10 C5 1_555 1_555
H4 C10 1_555 1_555
C11 N1 1_555 1_555
H5 C11 1_555 1_555
H6 C11 1_555 1_555
H7 C11 1_555 1_555
C12 C3 1_555 1_555
H8 C12 1_555 1_555
H9 C12 1_555 1_555
C13 C12 1_555 1_555
H10 C13 1_555 1_555
H11 C13 1_555 1_555
C14 C13 1_555 1_555
C15 C4 1_555 1_555
C16 C15 1_555 1_555
H12 C16 1_555 1_555
C17 C16 1_555 1_555
H13 C17 1_555 1_555
C18 C17 1_555 1_555
H14 C18 1_555 1_555
C19 C14 1_555 1_555
H15 C19 1_555 1_555
C20 C2 1_555 1_555
H16 C20 1_555 1_555
H17 C20 1_555 1_555
C21 C20 1_555 1_555
C22 C21 1_555 1_555
H18 C22 1_555 1_555
C23 C22 1_555 1_555
H19 C23 1_555 1_555
C24 C23 1_555 1_555
H20 C24 1_555 1_555
C25 C24 1_555 1_555
H21 C25 1_555 1_555
C26 C21 1_555 1_555
H22 C26 1_555 1_555
C27 C2 1_555 1_555
H23 C27 1_555 1_555
H24 C27 1_555 1_555
H25 C27 1_555 1_555
C9 C10 1_555 1_555
C14 C15 1_555 1_555
C18 C19 1_555 1_555
C25 C26 1_555 1_555

#END
