
#######################################################################
#
#                 Cambridge Crystallographic Data Centre
#                                CCDC 
#
#######################################################################
#
# If this CIF has been generated from an entry in the Cambridge 
# Structural Database, then it will include bibliographic, chemical, 
# crystal, experimental, refinement or atomic coordinate data resulting 
# from the CCDC's data processing and validation procedures.
#
#######################################################################

data_ZENTUK
_chemical_formula_moiety         'C26 H36 O7'
_chemical_name_systematic        
11-isopropyl-2,10-dimethoxy-2,5,7a,14-tetramethyl-2a,6,7,7a,11a,12,14a,14b-octahydro-2H-1,4,8-trioxabenzo[7,8]cycloundeca[1,2,3-cd]pentalene-3,9-dione
_symmetry_cell_setting           monoclinic
_symmetry_space_group_name_H-M   'P 21'
_symmetry_Int_Tables_number      4
_space_group_name_Hall           'P 2yb'
loop_
_symmetry_equiv_pos_site_id
_symmetry_equiv_pos_as_xyz
1 x,y,z
2 -x,1/2+y,-z
_cell_length_a                   11.98321(10)
_cell_length_b                   7.94273(9)
_cell_length_c                   13.78803(12)
_cell_angle_alpha                90
_cell_angle_beta                 104.5908(9)
_cell_angle_gamma                90
_cell_volume                     1270.01
_exptl_crystal_colour            colorless
_exptl_crystal_description       block
_cell_formula_units_Z            2
loop_
_atom_site_label
_atom_site_type_symbol
_atom_site_fract_x
_atom_site_fract_y
_atom_site_fract_z
C1 C 0.50344(13) 0.5031(2) 0.35067(12)
C2 C 0.37576(14) 0.5205(2) 0.29332(13)
H1 H 0.3413 0.6135 0.3237
H2 H 0.3723 0.5529 0.2233
C3 C 0.30225(13) 0.3633(2) 0.29169(12)
H3 H 0.3388 0.2676 0.2655
H4 H 0.2997 0.3355 0.3611
C4 C 0.18086(13) 0.3850(2) 0.22819(11)
C5 C 0.14600(12) 0.3072(2) 0.14145(12)
C6 C 0.20483(13) 0.1867(2) 0.08498(12)
H5 H 0.2100 0.0716 0.1152
C7 C 0.32463(13) 0.2423(3) 0.06947(12)
H6 H 0.3470 0.3540 0.1021
C8 C 0.42004(15) 0.1169(3) 0.10673(13)
C9 C 0.51908(14) 0.1559(3) 0.17200(12)
H7 H 0.5719 0.0656 0.1919
C10 C 0.55810(13) 0.3235(3) 0.21811(12)
H8 H 0.5073 0.4121 0.1801
H9 H 0.6373 0.3454 0.2118
C11 C 0.55725(12) 0.3367(2) 0.33075(11)
H10 H 0.5053 0.2453 0.3435
C12 C 0.67371(13) 0.3103(3) 0.40525(12)
C13 C 0.68760(14) 0.3747(3) 0.49685(13)
C14 C 0.59175(15) 0.4592(3) 0.52830(12)
C15 C 0.57101(18) 0.6570(3) 0.33147(18)
H11 H 0.5322 0.7595 0.3453
H12 H 0.5750 0.6574 0.2614
H13 H 0.6492 0.6530 0.3754
C16 C 0.10298(15) 0.4998(3) 0.26681(13)
H14 H 0.0253 0.4957 0.2219
H15 H 0.1326 0.6152 0.2697
H16 H 0.1000 0.4637 0.3341
C17 C 0.3981(2) -0.0586(4) 0.06529(18)
H17 H 0.4679 -0.1267 0.0888
H18 H 0.3774 -0.0542 -0.0081
H19 H 0.3347 -0.1092 0.0882
C18 C 0.76308(15) 0.1977(3) 0.37773(14)
H20 H 0.7320 0.1666 0.3057
C19 C 0.7796(3) 0.0341(4) 0.4366(2)
H21 H 0.8160 0.0577 0.5073
H22 H 0.8291 -0.0417 0.4098
H23 H 0.7045 -0.0194 0.4308
C20 C 0.8765(2) 0.2889(5) 0.3848(3)
H24 H 0.8616 0.3942 0.3467
H25 H 0.9275 0.2173 0.3572
H26 H 0.9133 0.3141 0.4552
C21 C 0.12462(14) 0.1861(3) -0.02076(12)
H27 H 0.1111 0.0699 -0.0491
C22 C 0.18935(14) 0.2973(3) -0.07998(12)
C23 C 0.16420(17) 0.2637(4) -0.19163(13)
H28 H 0.0836 0.2918 -0.2233
H29 H 0.1777 0.1445 -0.2030
H30 H 0.2150 0.3332 -0.2209
C24 C 0.01449(14) 0.2679(3) -0.01008(13)
C25 C 0.8416(2) 0.4815(4) 0.6269(2)
H31 H 0.8657 0.5592 0.5809
H32 H 0.9095 0.4427 0.6777
H33 H 0.7889 0.5396 0.6598
C26 C 0.2282(2) 0.5953(4) -0.0834(2)
H34 H 0.3105 0.5748 -0.0541
H35 H 0.2060 0.7025 -0.0584
H36 H 0.2134 0.6002 -0.1566
O1 O 0.49914(10) 0.50666(19) 0.45635(9)
O2 O 0.03127(9) 0.33103(18) 0.08440(8)
O3 O 0.30631(10) 0.2580(2) -0.03784(8)
O4 O 0.78421(12) 0.3407(2) 0.57228(10)
O5 O 0.59226(12) 0.4819(2) 0.61483(10)
O6 O 0.16276(11) 0.46300(19) -0.05610(9)
O7 O -0.07576(10) 0.2829(2) -0.07041(10)
loop_
_geom_bond_atom_site_label_1
_geom_bond_atom_site_label_2
_geom_bond_site_symmetry_1
_geom_bond_site_symmetry_2
C1 C2 1_555 1_555
C2 H1 1_555 1_555
H2 C2 1_555 1_555
C3 C2 1_555 1_555
H3 C3 1_555 1_555
H4 C3 1_555 1_555
C4 C3 1_555 1_555
C5 C4 1_555 1_555
C6 C5 1_555 1_555
H5 C6 1_555 1_555
C7 C6 1_555 1_555
H6 C7 1_555 1_555
C8 C7 1_555 1_555
C9 C8 1_555 1_555
H7 C9 1_555 1_555
C10 C9 1_555 1_555
H8 C10 1_555 1_555
H9 C10 1_555 1_555
C11 C1 1_555 1_555
H10 C11 1_555 1_555
C12 C11 1_555 1_555
C13 C12 1_555 1_555
C14 C13 1_555 1_555
C15 C1 1_555 1_555
H11 C15 1_555 1_555
H12 C15 1_555 1_555
H13 C15 1_555 1_555
C16 C4 1_555 1_555
H14 C16 1_555 1_555
H15 C16 1_555 1_555
H16 C16 1_555 1_555
C17 C8 1_555 1_555
H17 C17 1_555 1_555
H18 C17 1_555 1_555
H19 C17 1_555 1_555
C18 C12 1_555 1_555
H20 C18 1_555 1_555
C19 C18 1_555 1_555
H21 C19 1_555 1_555
H22 C19 1_555 1_555
H23 C19 1_555 1_555
C20 C18 1_555 1_555
H24 C20 1_555 1_555
H25 C20 1_555 1_555
H26 C20 1_555 1_555
C21 C6 1_555 1_555
H27 C21 1_555 1_555
C22 C21 1_555 1_555
C23 C22 1_555 1_555
H28 C23 1_555 1_555
H29 C23 1_555 1_555
H30 C23 1_555 1_555
C24 C21 1_555 1_555
C25 H31 1_555 1_555
H32 C25 1_555 1_555
H33 C25 1_555 1_555
C26 H34 1_555 1_555
H35 C26 1_555 1_555
H36 C26 1_555 1_555
O1 C1 1_555 1_555
O2 C5 1_555 1_555
O3 C7 1_555 1_555
O4 C13 1_555 1_555
O5 C14 1_555 1_555
O6 C22 1_555 1_555
O7 C24 1_555 1_555
C10 C11 1_555 1_555
C14 O1 1_555 1_555
C22 O3 1_555 1_555
C24 O2 1_555 1_555
C25 O4 1_555 1_555
C26 O6 1_555 1_555

#END
