
#######################################################################
#
#                 Cambridge Crystallographic Data Centre
#                                CCDC 
#
#######################################################################
#
# If this CIF has been generated from an entry in the Cambridge 
# Structural Database, then it will include bibliographic, chemical, 
# crystal, experimental, refinement or atomic coordinate data resulting 
# from the CCDC's data processing and validation procedures.
#
#######################################################################

data_ZEPFOS
_chemical_formula_moiety         'C20 H20 N2 O1'
_chemical_name_systematic        N-(5-t-butylquinolin-8-yl)benzamide
_symmetry_cell_setting           monoclinic
_symmetry_space_group_name_H-M   'P 21/n'
_symmetry_Int_Tables_number      14
_space_group_name_Hall           '-P 2yn'
loop_
_symmetry_equiv_pos_site_id
_symmetry_equiv_pos_as_xyz
1 x,y,z
2 1/2-x,1/2+y,1/2-z
3 -x,-y,-z
4 1/2+x,1/2-y,1/2+z
_cell_length_a                   9.5682(3)
_cell_length_b                   18.4465(7)
_cell_length_c                   9.7648(4)
_cell_angle_alpha                90
_cell_angle_beta                 104.8076(17)
_cell_angle_gamma                90
_cell_volume                     1666.25
_exptl_crystal_colour            colorless
_exptl_crystal_description       Rectangular
_cell_formula_units_Z            4
loop_
_atom_site_label
_atom_site_type_symbol
_atom_site_fract_x
_atom_site_fract_y
_atom_site_fract_z
C1 C -0.15746(18) 0.43365(9) 0.87942(19)
H1 H -0.0998 0.4543 0.9614
C2 C -0.3030(2) 0.44837(11) 0.8398(2)
H2 H -0.3439 0.4777 0.8967
C3 C -0.3879(2) 0.42018(12) 0.7172(2)
H3 H -0.4861 0.4310 0.6900
C4 C -0.3284(2) 0.37598(13) 0.6343(2)
H4 H -0.3862 0.3570 0.5506
C5 C -0.18314(18) 0.35956(10) 0.67479(19)
H5 H -0.1434 0.3290 0.6189
C6 C -0.09624(16) 0.38829(8) 0.79804(16)
C7 C 0.06146(16) 0.37235(8) 0.84588(16)
C8 C 0.23399(15) 0.27126(8) 0.84619(16)
C9 C 0.23288(15) 0.19685(8) 0.80579(15)
C10 C 0.09296(19) 0.09826(9) 0.7191(2)
H6 H 0.0023 0.0771 0.6868
C11 C 0.2135(2) 0.05603(9) 0.7243(2)
H7 H 0.2032 0.0078 0.6957
C12 C 0.34693(19) 0.08566(9) 0.77164(19)
H8 H 0.4282 0.0575 0.7740
C13 C 0.36445(16) 0.15873(8) 0.81747(16)
C14 C 0.50022(15) 0.19539(9) 0.87286(16)
C15 C 0.49261(16) 0.26592(9) 0.91306(18)
H9 H 0.5790 0.2902 0.9511
C16 C 0.36282(16) 0.30418(9) 0.90072(18)
H10 H 0.3654 0.3522 0.9301
C17 C 0.64736(17) 0.15904(10) 0.88449(19)
C18 C 0.6608(2) 0.13937(13) 0.7352(2)
H11 H 0.5868 0.1051 0.6927
H12 H 0.7540 0.1184 0.7417
H13 H 0.6498 0.1823 0.6780
C19 C 0.6678(2) 0.09177(12) 0.9817(2)
H14 H 0.6648 0.1062 1.0753
H15 H 0.7596 0.0697 0.9852
H16 H 0.5918 0.0576 0.9449
C20 C 0.77297(18) 0.21070(13) 0.9487(2)
H17 H 0.7643 0.2537 0.8917
H18 H 0.8631 0.1871 0.9513
H19 H 0.7700 0.2236 1.0432
N1 N 0.09751(14) 0.30325(7) 0.82292(15)
N2 N 0.09963(13) 0.16667(7) 0.75735(15)
O1 O 0.14977(12) 0.41808(6) 0.90229(13)
H20 H 0.0282(18) 0.2738(9) 0.7864(17)
loop_
_geom_bond_atom_site_label_1
_geom_bond_atom_site_label_2
_geom_bond_site_symmetry_1
_geom_bond_site_symmetry_2
C1 H1 1_555 1_555
C2 C1 1_555 1_555
H2 C2 1_555 1_555
C3 C2 1_555 1_555
H3 C3 1_555 1_555
C4 C3 1_555 1_555
H4 C4 1_555 1_555
C5 C4 1_555 1_555
H5 C5 1_555 1_555
C6 C1 1_555 1_555
C7 C6 1_555 1_555
C8 C9 1_555 1_555
C9 C13 1_555 1_555
C10 H6 1_555 1_555
C11 C10 1_555 1_555
H7 C11 1_555 1_555
C12 C11 1_555 1_555
H8 C12 1_555 1_555
C13 C12 1_555 1_555
C14 C13 1_555 1_555
C15 C14 1_555 1_555
H9 C15 1_555 1_555
C16 C8 1_555 1_555
H10 C16 1_555 1_555
C17 C14 1_555 1_555
C18 C17 1_555 1_555
H11 C18 1_555 1_555
H12 C18 1_555 1_555
H13 C18 1_555 1_555
C19 C17 1_555 1_555
H14 C19 1_555 1_555
H15 C19 1_555 1_555
H16 C19 1_555 1_555
C20 C17 1_555 1_555
H17 C20 1_555 1_555
H18 C20 1_555 1_555
H19 C20 1_555 1_555
N1 C7 1_555 1_555
N2 C9 1_555 1_555
O1 C7 1_555 1_555
H20 N1 1_555 1_555
C5 C6 1_555 1_555
C8 N1 1_555 1_555
C10 N2 1_555 1_555
C15 C16 1_555 1_555

#END
