
#######################################################################
#
#                 Cambridge Crystallographic Data Centre
#                                CCDC 
#
#######################################################################
#
# If this CIF has been generated from an entry in the Cambridge 
# Structural Database, then it will include bibliographic, chemical, 
# crystal, experimental, refinement or atomic coordinate data resulting 
# from the CCDC's data processing and validation procedures.
#
#######################################################################

data_ZEPGIN
_chemical_formula_moiety         'C15 H15 N1 O1'
_chemical_name_systematic        3,3-diphenylpropanamide
_symmetry_cell_setting           monoclinic
_symmetry_space_group_name_H-M   'P 21/c'
_symmetry_Int_Tables_number      14
_space_group_name_Hall           '-P 2ybc'
loop_
_symmetry_equiv_pos_site_id
_symmetry_equiv_pos_as_xyz
1 x,y,z
2 -x,1/2+y,1/2-z
3 -x,-y,-z
4 x,1/2-y,1/2+z
_cell_length_a                   12.295(5)
_cell_length_b                   5.569(2)
_cell_length_c                   18.014(7)
_cell_angle_alpha                90
_cell_angle_beta                 101.033(6)
_cell_angle_gamma                90
_cell_volume                     1210.64
_exptl_crystal_colour            colorless
_exptl_crystal_description       block
_cell_formula_units_Z            4
loop_
_atom_site_label
_atom_site_type_symbol
_atom_site_fract_x
_atom_site_fract_y
_atom_site_fract_z
C1 C 0.29005(13) 0.1084(3) 0.19213(9)
C2 C 0.35105(15) -0.1015(4) 0.20750(11)
H1 H 0.3495 -0.2153 0.1696
C3 C 0.41450(16) -0.1437(4) 0.27893(12)
H2 H 0.4555 -0.2845 0.2882
C4 C 0.41689(16) 0.0219(4) 0.33602(11)
H3 H 0.4587 -0.0072 0.3839
C5 C 0.35644(17) 0.2320(4) 0.32152(11)
H4 H 0.3574 0.3444 0.3598
C6 C 0.29485(15) 0.2748(4) 0.25047(10)
H5 H 0.2556 0.4179 0.2412
C7 C 0.21519(14) 0.1662(4) 0.11607(10)
H6 H 0.2358 0.3267 0.1013
C8 C 0.09372(14) 0.1795(3) 0.12500(9)
C9 C 0.04781(16) 0.0015(4) 0.16288(11)
H7 H 0.0908 -0.1300 0.1821
C10 C -0.06141(17) 0.0155(4) 0.17279(12)
H8 H -0.0908 -0.1068 0.1981
C11 C -0.12601(16) 0.2087(4) 0.14544(12)
H9 H -0.1988 0.2191 0.1526
C12 C -0.08223(17) 0.3862(4) 0.10741(12)
H10 H -0.1257 0.5172 0.0884
C13 C 0.02736(16) 0.3720(4) 0.09696(11)
H11 H 0.0560 0.4933 0.0709
C14 C 0.22725(15) -0.0046(4) 0.05145(10)
H12 H 0.2150 -0.1679 0.0667
H13 H 0.1704 0.0328 0.0078
C15 C 0.34032(16) 0.0093(4) 0.02866(10)
N1 N 0.38337(14) -0.1955(4) 0.00993(10)
H14 H 0.4458 -0.1951 -0.0049
H15 H 0.3488 -0.3285 0.0127
O1 O 0.38698(12) 0.2051(3) 0.02561(8)
loop_
_geom_bond_atom_site_label_1
_geom_bond_atom_site_label_2
_geom_bond_site_symmetry_1
_geom_bond_site_symmetry_2
C1 C2 1_555 1_555
C2 H1 1_555 1_555
C3 C2 1_555 1_555
H2 C3 1_555 1_555
C4 C3 1_555 1_555
H3 C4 1_555 1_555
C5 C4 1_555 1_555
H4 C5 1_555 1_555
C6 C1 1_555 1_555
H5 C6 1_555 1_555
C7 C1 1_555 1_555
H6 C7 1_555 1_555
C8 C7 1_555 1_555
C9 C8 1_555 1_555
H7 C9 1_555 1_555
C10 C9 1_555 1_555
H8 C10 1_555 1_555
C11 C10 1_555 1_555
H9 C11 1_555 1_555
C12 C11 1_555 1_555
H10 C12 1_555 1_555
C13 C8 1_555 1_555
H11 C13 1_555 1_555
C14 C7 1_555 1_555
H12 C14 1_555 1_555
H13 C14 1_555 1_555
C15 C14 1_555 1_555
N1 C15 1_555 1_555
H14 N1 1_555 1_555
H15 N1 1_555 1_555
O1 C15 1_555 1_555
C5 C6 1_555 1_555
C12 C13 1_555 1_555

#END
