
#######################################################################
#
#                 Cambridge Crystallographic Data Centre
#                                CCDC 
#
#######################################################################
#
# If this CIF has been generated from an entry in the Cambridge 
# Structural Database, then it will include bibliographic, chemical, 
# crystal, experimental, refinement or atomic coordinate data resulting 
# from the CCDC's data processing and validation procedures.
#
#######################################################################

data_ZEQPUI
_chemical_formula_moiety         'C23 H24 Cl1 N3 O3,0.5(C2 H6 O1)'
_chemical_name_systematic        
'Methyl N-((4-chlorophenyl)(3-methyl-5-oxo-1-phenyl-1,5-dihydro-4H-pyrazol-4-ylidene)methyl)valinate ethanol solvate'
_chemical_properties_biological  active
_symmetry_cell_setting           monoclinic
_symmetry_space_group_name_H-M   'P 21'
_symmetry_Int_Tables_number      4
_space_group_name_Hall           'P 2yb'
loop_
_symmetry_equiv_pos_site_id
_symmetry_equiv_pos_as_xyz
1 x,y,z
2 -x,1/2+y,-z
_cell_length_a                   9.8917(8)
_cell_length_b                   12.8165(11)
_cell_length_c                   18.8348(15)
_cell_angle_alpha                90
_cell_angle_beta                 94.773(1)
_cell_angle_gamma                90
_cell_volume                     2379.54
_exptl_crystal_colour            yellow
_exptl_crystal_description       block
_cell_formula_units_Z            4
_exptl_crystal_recrystallization_method 'petroleum ether/ethyl acetate'
_exptl_crystal_preparation       'antibacterial activity study'
loop_
_atom_site_label
_atom_site_type_symbol
_atom_site_fract_x
_atom_site_fract_y
_atom_site_fract_z
Cl1 Cl 1.26719(10) 0.55809(8) 0.20333(6)
O1 O 0.5699(4) 0.1788(3) 0.22200(19)
O2 O 0.5583(3) 0.3513(2) 0.23211(15)
O3 O 0.7710(2) -0.0041(2) 0.08913(15)
N1 N 1.1140(3) -0.0479(2) 0.13735(16)
N2 N 0.9852(3) -0.0791(2) 0.10981(13)
N3 N 0.7783(3) 0.1949(2) 0.13943(18)
H1 H 0.7341 0.1391 0.1271
C1 C 1.0726(4) 0.3172(3) 0.11163(16)
H3 H 1.0674 0.2842 0.0675
C2 C 1.1548(3) 0.4024(3) 0.12337(19)
H4 H 1.2047 0.4280 0.0874
C3 C 1.1623(3) 0.4495(3) 0.18910(18)
C4 C 1.0890(3) 0.4136(3) 0.24236(17)
H5 H 1.0955 0.4466 0.2865
C5 C 1.0054(3) 0.3284(3) 0.23060(15)
H6 H 0.9550 0.3039 0.2666
C6 C 0.9969(3) 0.2796(3) 0.16483(15)
C7 C 0.9119(3) 0.1852(3) 0.14905(16)
C8 C 0.9690(3) 0.0880(3) 0.13913(16)
C9 C 0.8929(3) -0.0001(3) 0.11035(16)
C10 C 1.1043(3) 0.0504(3) 0.15512(17)
C11 C 1.2243(4) 0.1048(4) 0.1905(3)
H7 H 1.2965 0.0556 0.2005
H8 H 1.2005 0.1356 0.2342
H9 H 1.2535 0.1584 0.1596
C12 C 0.9674(3) -0.1831(3) 0.08473(15)
C13 C 0.8382(4) -0.2251(3) 0.07217(19)
H10 H 0.7622 -0.1850 0.0793
C14 C 0.8237(5) -0.3269(3) 0.0490(2)
H11 H 0.7372 -0.3552 0.0409
C15 C 0.9346(5) -0.3874(3) 0.03765(19)
H12 H 0.9235 -0.4558 0.0219
C16 C 1.0607(5) -0.3454(3) 0.04982(18)
H13 H 1.1362 -0.3860 0.0424
C17 C 1.0789(4) -0.2433(3) 0.07314(17)
H14 H 1.1658 -0.2156 0.0809
C41 C 0.6974(3) 0.2874(3) 0.1471(2)
H38 H 0.7580 0.3446 0.1634
C42 C 0.6238(5) 0.3186(4) 0.0749(3)
H39 H 0.6939 0.3204 0.0411
C43 C 0.5642(9) 0.4252(7) 0.0742(5)
H40 H 0.4960 0.4285 0.1076
H41 H 0.5239 0.4408 0.0273
H42 H 0.6341 0.4752 0.0873
C44 C 0.6019(4) 0.2656(3) 0.2043(2)
C45 C 0.4657(5) 0.3411(4) 0.2873(2)
H43 H 0.4113 0.2795 0.2788
H44 H 0.4078 0.4012 0.2868
H45 H 0.5164 0.3356 0.3329
C46 C 0.5237(7) 0.2374(6) 0.0473(3)
H46 H 0.4619 0.2229 0.0827
H47 H 0.5711 0.1747 0.0367
H48 H 0.4740 0.2626 0.0048
Cl2 Cl -0.24402(9) 0.53595(8) 0.26508(6)
O4 O 0.2556(2) 1.07163(19) 0.44108(12)
O5 O 0.3933(3) 0.8151(2) 0.53853(14)
O6 O 0.3370(3) 0.64742(19) 0.52279(12)
N4 N -0.0562(3) 1.1288(2) 0.34661(13)
N5 N 0.0646(2) 1.1571(2) 0.38744(12)
N6 N 0.2330(3) 0.8606(2) 0.41515(14)
H2 H 0.2775 0.9121 0.4349
C18 C 0.2069(4) 1.3012(3) 0.43123(16)
H15 H 0.2842 1.2609 0.4278
C19 C 0.2175(4) 1.4039(3) 0.45588(19)
H16 H 0.3025 1.4320 0.4691
C20 C 0.1037(4) 1.4634(3) 0.46068(19)
H17 H 0.1116 1.5319 0.4766
C21 C -0.0210(4) 1.4221(3) 0.44214(17)
H18 H -0.0981 1.4625 0.4460
C22 C -0.0341(3) 1.3210(3) 0.41773(15)
H19 H -0.1198 1.2936 0.4051
C23 C 0.0796(3) 1.2603(2) 0.41201(14)
C24 C -0.0513(3) 1.0292(2) 0.33712(14)
C25 C -0.1647(3) 0.9764(3) 0.29419(18)
H20 H -0.2094 0.9288 0.3240
H21 H -0.1294 0.9385 0.2558
H22 H -0.2285 1.0277 0.2751
C26 C 0.1451(3) 1.0712(2) 0.40437(15)
C27 C 0.0722(3) 0.9849(2) 0.37095(15)
C28 C 0.1158(3) 0.8830(2) 0.37817(14)
C29 C 0.0296(3) 0.7941(2) 0.34910(14)
C30 C -0.0621(3) 0.7503(3) 0.39132(15)
H23 H -0.0676 0.7748 0.4375
C31 C -0.1458(3) 0.6704(3) 0.36587(18)
H24 H -0.2071 0.6403 0.3946
C32 C -0.1371(3) 0.6358(3) 0.29692(17)
C33 C -0.0464(3) 0.6773(3) 0.25441(17)
H25 H -0.0413 0.6524 0.2083
C34 C 0.0387(3) 0.7575(3) 0.28048(15)
H26 H 0.1013 0.7864 0.2520
C35 C 0.2926(3) 0.7577(3) 0.42529(17)
H27 H 0.2209 0.7058 0.4149
C36 C 0.3457(3) 0.7456(3) 0.50165(17)
C37 C 0.3948(5) 0.6217(4) 0.5931(2)
H28 H 0.4905 0.6356 0.5965
H29 H 0.3799 0.5491 0.6023
H30 H 0.3527 0.6632 0.6275
C38 C 0.4044(3) 0.7382(3) 0.37469(18)
H31 H 0.3628 0.7478 0.3261
C39 C 0.5195(5) 0.8156(4) 0.3849(3)
H32 H 0.5639 0.8080 0.4319
H33 H 0.4844 0.8852 0.3790
H34 H 0.5835 0.8028 0.3503
C40 C 0.4574(5) 0.6270(4) 0.3795(2)
H35 H 0.5144 0.6145 0.3416
H36 H 0.3824 0.5793 0.3755
H37 H 0.5088 0.6170 0.4245
O7 O 0.3416(6) 0.8318(6) 0.2023(4)
H49 H 0.2804 0.8431 0.1712
C47 C 0.4683(9) 0.8605(12) 0.1770(6)
H50 H 0.4560 0.8788 0.1270
H51 H 0.5061 0.9202 0.2034
C48 C 0.5501(13) 0.7797(13) 0.1863(5)
H52 H 0.5339 0.7451 0.2300
H53 H 0.6425 0.8030 0.1885
H54 H 0.5333 0.7320 0.1473
loop_
_geom_bond_atom_site_label_1
_geom_bond_atom_site_label_2
_geom_bond_site_symmetry_1
_geom_bond_site_symmetry_2
Cl1 C3 1_555 1_555
Cl2 C32 1_555 1_555
O1 C44 1_555 1_555
O2 C44 1_555 1_555
O3 C9 1_555 1_555
O4 C26 1_555 1_555
O5 C36 1_555 1_555
O6 C36 1_555 1_555
N1 N2 1_555 1_555
N2 C9 1_555 1_555
N3 H1 1_555 1_555
N4 N5 1_555 1_555
N5 C23 1_555 1_555
N6 H2 1_555 1_555
C1 H3 1_555 1_555
C2 C1 1_555 1_555
H4 C2 1_555 1_555
C3 C2 1_555 1_555
C4 C3 1_555 1_555
H5 C4 1_555 1_555
C5 C4 1_555 1_555
H6 C5 1_555 1_555
C6 C1 1_555 1_555
C7 N3 1_555 1_555
C8 C7 1_555 1_555
C9 C8 1_555 1_555
C10 N1 1_555 1_555
C11 C10 1_555 1_555
H7 C11 1_555 1_555
H8 C11 1_555 1_555
H9 C11 1_555 1_555
C12 N2 1_555 1_555
C13 C12 1_555 1_555
H10 C13 1_555 1_555
C14 C13 1_555 1_555
H11 C14 1_555 1_555
C15 C14 1_555 1_555
H12 C15 1_555 1_555
C16 C15 1_555 1_555
H13 C16 1_555 1_555
C17 C12 1_555 1_555
H14 C17 1_555 1_555
C18 H15 1_555 1_555
C19 C18 1_555 1_555
H16 C19 1_555 1_555
C20 C19 1_555 1_555
H17 C20 1_555 1_555
C21 C20 1_555 1_555
H18 C21 1_555 1_555
C22 C21 1_555 1_555
H19 C22 1_555 1_555
C23 C18 1_555 1_555
C24 N4 1_555 1_555
C25 C24 1_555 1_555
H20 C25 1_555 1_555
H21 C25 1_555 1_555
H22 C25 1_555 1_555
C26 N5 1_555 1_555
C27 C24 1_555 1_555
C28 N6 1_555 1_555
C29 C28 1_555 1_555
C30 C29 1_555 1_555
H23 C30 1_555 1_555
C31 C30 1_555 1_555
H24 C31 1_555 1_555
C32 C31 1_555 1_555
C33 C32 1_555 1_555
H25 C33 1_555 1_555
C34 C29 1_555 1_555
H26 C34 1_555 1_555
C35 N6 1_555 1_555
H27 C35 1_555 1_555
C36 C35 1_555 1_555
C37 O6 1_555 1_555
H28 C37 1_555 1_555
H29 C37 1_555 1_555
H30 C37 1_555 1_555
C38 C35 1_555 1_555
H31 C38 1_555 1_555
C39 C38 1_555 1_555
H32 C39 1_555 1_555
H33 C39 1_555 1_555
H34 C39 1_555 1_555
C40 C38 1_555 1_555
H35 C40 1_555 1_555
H36 C40 1_555 1_555
H37 C40 1_555 1_555
C41 N3 1_555 1_555
H38 C41 1_555 1_555
C42 C41 1_555 1_555
H39 C42 1_555 1_555
C43 C42 1_555 1_555
H40 C43 1_555 1_555
H41 C43 1_555 1_555
H42 C43 1_555 1_555
C44 C41 1_555 1_555
C45 O2 1_555 1_555
H43 C45 1_555 1_555
H44 C45 1_555 1_555
H45 C45 1_555 1_555
C46 C42 1_555 1_555
H46 C46 1_555 1_555
H47 C46 1_555 1_555
H48 C46 1_555 1_555
O7 H49 1_555 1_555
C47 O7 1_555 1_555
H50 C47 1_555 1_555
H51 C47 1_555 1_555
C48 C47 1_555 1_555
H52 C48 1_555 1_555
H53 C48 1_555 1_555
H54 C48 1_555 1_555
C5 C6 1_555 1_555
C6 C7 1_555 1_555
C8 C10 1_555 1_555
C16 C17 1_555 1_555
C22 C23 1_555 1_555
C26 C27 1_555 1_555
C27 C28 1_555 1_555
C33 C34 1_555 1_555

#END
