
#######################################################################
#
#                 Cambridge Crystallographic Data Centre
#                                CCDC 
#
#######################################################################
#
# If this CIF has been generated from an entry in the Cambridge 
# Structural Database, then it will include bibliographic, chemical, 
# crystal, experimental, refinement or atomic coordinate data resulting 
# from the CCDC's data processing and validation procedures.
#
#######################################################################

data_ZEQQIY
_chemical_formula_moiety         'C28 H22 Cl1 O1 P1'
_chemical_name_systematic        
'(E)-(3-(4-Chlorophenyl)-2-phenylbuta-1,3-dien-1-yl)diphenylphosphine oxide'
_symmetry_cell_setting           triclinic
_symmetry_space_group_name_H-M   'P -1'
_symmetry_Int_Tables_number      2
_space_group_name_Hall           '-P 1'
loop_
_symmetry_equiv_pos_site_id
_symmetry_equiv_pos_as_xyz
1 x,y,z
2 -x,-y,-z
_cell_length_a                   6.1862(6)
_cell_length_b                   11.5362(8)
_cell_length_c                   16.4441(13)
_cell_angle_alpha                99.614(6)
_cell_angle_beta                 96.521(7)
_cell_angle_gamma                99.699(7)
_cell_volume                     1128.33
_exptl_crystal_colour            colorless
_exptl_crystal_description       needle
_cell_formula_units_Z            2
loop_
_atom_site_label
_atom_site_type_symbol
_atom_site_fract_x
_atom_site_fract_y
_atom_site_fract_z
Cl1 Cl 0.75226(18) 0.91657(7) 0.55079(6)
P1 P 0.32112(9) 0.15033(5) 0.22180(4)
O1 O 0.0863(2) 0.15708(15) 0.22598(11)
C1 C 0.9652(4) 0.6544(2) 0.41427(16)
H1 H 1.0957 0.6432 0.3937
C2 C 0.9562(5) 0.7640(2) 0.46009(18)
H2 H 1.0787 0.8262 0.4703
C3 C 0.7649(5) 0.7807(2) 0.49056(17)
C4 C 0.5825(4) 0.6908(2) 0.47429(16)
H3 H 0.4526 0.7030 0.4949
C5 C 0.5927(4) 0.5822(2) 0.42719(15)
H4 H 0.4668 0.5220 0.4147
C6 C 0.7863(4) 0.5603(2) 0.39783(14)
C7 C 0.7977(4) 0.4398(2) 0.35347(14)
C8 C 0.6072(3) 0.3735(2) 0.29030(14)
C9 C 0.5212(4) 0.2603(2) 0.29423(14)
H5 H 0.5740 0.2350 0.3422
C10 C 0.3810(4) 0.0105(2) 0.24504(14)
C11 C 0.5910(4) -0.0078(2) 0.26973(16)
H6 H 0.7131 0.0536 0.2748
C12 C 0.6192(5) -0.1185(3) 0.28693(18)
H7 H 0.7601 -0.1306 0.3052
C13 C 0.4403(6) -0.2100(3) 0.27701(18)
H8 H 0.4604 -0.2843 0.2880
C14 C 0.2347(5) -0.1928(2) 0.25140(19)
H9 H 0.1143 -0.2558 0.2442
C15 C 0.2015(4) -0.0826(2) 0.23574(16)
H10 H 0.0592 -0.0711 0.2190
C16 C 0.3909(4) 0.15598(19) 0.11935(14)
C17 C 0.6050(4) 0.1810(2) 0.10226(16)
H11 H 0.7238 0.1967 0.1451
C18 C 0.6420(5) 0.1826(3) 0.02137(18)
H12 H 0.7864 0.2011 0.0100
C19 C 0.4697(6) 0.1575(3) -0.04215(18)
H13 H 0.4967 0.1585 -0.0965
C20 C 0.2594(6) 0.1312(3) -0.02617(18)
H14 H 0.1416 0.1133 -0.0696
C21 C 0.2199(5) 0.1308(3) 0.05461(17)
H15 H 0.0747 0.1132 0.0653
C22 C 0.9716(4) 0.3906(2) 0.36981(17)
H16 H 1.0897 0.4320 0.4099
H17 H 0.9760 0.3146 0.3412
C23 C 0.5301(4) 0.4368(2) 0.22431(14)
C24 C 0.6861(4) 0.5120(2) 0.19263(17)
H18 H 0.8350 0.5251 0.2151
C25 C 0.6219(6) 0.5668(3) 0.12834(18)
H19 H 0.7278 0.6160 0.1072
C26 C 0.4041(6) 0.5497(3) 0.09539(18)
H20 H 0.3619 0.5861 0.0514
C27 C 0.2478(5) 0.4787(3) 0.12714(18)
H21 H 0.0989 0.4677 0.1051
C28 C 0.3102(4) 0.4231(2) 0.19200(16)
H22 H 0.2026 0.3761 0.2139
loop_
_geom_bond_atom_site_label_1
_geom_bond_atom_site_label_2
_geom_bond_site_symmetry_1
_geom_bond_site_symmetry_2
Cl1 C3 1_555 1_555
P1 O1 1_555 1_555
C1 H1 1_555 1_555
C2 C1 1_555 1_555
H2 C2 1_555 1_555
C3 C2 1_555 1_555
C4 C3 1_555 1_555
H3 C4 1_555 1_555
C5 C4 1_555 1_555
H4 C5 1_555 1_555
C6 C1 1_555 1_555
C7 C6 1_555 1_555
C8 C7 1_555 1_555
C9 P1 1_555 1_555
H5 C9 1_555 1_555
C10 P1 1_555 1_555
C11 C10 1_555 1_555
H6 C11 1_555 1_555
C12 C11 1_555 1_555
H7 C12 1_555 1_555
C13 C12 1_555 1_555
H8 C13 1_555 1_555
C14 C13 1_555 1_555
H9 C14 1_555 1_555
C15 C10 1_555 1_555
H10 C15 1_555 1_555
C16 P1 1_555 1_555
C17 C16 1_555 1_555
H11 C17 1_555 1_555
C18 C17 1_555 1_555
H12 C18 1_555 1_555
C19 C18 1_555 1_555
H13 C19 1_555 1_555
C20 C19 1_555 1_555
H14 C20 1_555 1_555
C21 C16 1_555 1_555
H15 C21 1_555 1_555
C22 C7 1_555 1_555
H16 C22 1_555 1_555
H17 C22 1_555 1_555
C23 C8 1_555 1_555
C24 C23 1_555 1_555
H18 C24 1_555 1_555
C25 C24 1_555 1_555
H19 C25 1_555 1_555
C26 C25 1_555 1_555
H20 C26 1_555 1_555
C27 C26 1_555 1_555
H21 C27 1_555 1_555
C28 C23 1_555 1_555
H22 C28 1_555 1_555
C5 C6 1_555 1_555
C8 C9 1_555 1_555
C14 C15 1_555 1_555
C20 C21 1_555 1_555
C27 C28 1_555 1_555

#END
