
#######################################################################
#
#                 Cambridge Crystallographic Data Centre
#                                CCDC 
#
#######################################################################
#
# If this CIF has been generated from an entry in the Cambridge 
# Structural Database, then it will include bibliographic, chemical, 
# crystal, experimental, refinement or atomic coordinate data resulting 
# from the CCDC's data processing and validation procedures.
#
#######################################################################

data_ZEQSIA
_chemical_formula_moiety         'C16 H15 F3 O2'
_chemical_name_systematic        
1,1'-(2-phenyl-4-(trifluoromethyl)cyclopent-3-ene-1,1-diyl)diethanone
_symmetry_cell_setting           monoclinic
_symmetry_space_group_name_H-M   'P 21/c'
_symmetry_Int_Tables_number      14
_space_group_name_Hall           '-P 2ybc'
loop_
_symmetry_equiv_pos_site_id
_symmetry_equiv_pos_as_xyz
1 x,y,z
2 -x,1/2+y,1/2-z
3 -x,-y,-z
4 x,1/2-y,1/2+z
_cell_length_a                   13.510(6)
_cell_length_b                   5.916(3)
_cell_length_c                   19.025(9)
_cell_angle_alpha                90
_cell_angle_beta                 102.677(14)
_cell_angle_gamma                90
_cell_volume                     1483.51
_exptl_crystal_colour            colorless
_exptl_crystal_description       block
_chemical_melting_point          '58.9-60.1 deg.C'
_cell_formula_units_Z            4
_exptl_crystal_recrystallization_method dichloromethane/hexane
loop_
_atom_site_label
_atom_site_type_symbol
_atom_site_fract_x
_atom_site_fract_y
_atom_site_fract_z
F1 F 0.1420(4) 0.6374(8) 0.5208(2)
F2 F 0.1696(3) 0.9625(6) 0.49462(14)
F3 F 0.2796(2) 0.7835(7) 0.56341(12)
O1 O 0.46117(18) 0.3491(4) 0.41627(13)
O2 O 0.36055(16) 0.9688(3) 0.28102(12)
C1 C 0.1715(2) 0.3468(5) 0.21935(17)
H1 H 0.2089 0.2135 0.2259
C2 C 0.0997(3) 0.3805(6) 0.15630(17)
H2 H 0.0897 0.2706 0.1205
C3 C 0.0432(2) 0.5747(6) 0.14623(18)
H3 H -0.0051 0.5967 0.1037
C4 C 0.0583(2) 0.7371(6) 0.19932(19)
H4 H 0.0201 0.8693 0.1928
C5 C 0.1302(2) 0.7035(5) 0.26219(17)
H5 H 0.1395 0.8134 0.2980
C6 C 0.18840(19) 0.5098(4) 0.27294(15)
C7 C 0.2682(2) 0.4731(4) 0.34228(14)
H6 H 0.2972 0.3212 0.3422
C8 C 0.2215(2) 0.4993(6) 0.40635(16)
H7 H 0.1765 0.3954 0.4187
C9 C 0.2507(2) 0.6844(6) 0.44321(15)
C10 C 0.3269(2) 0.8161(5) 0.41438(16)
H8 H 0.3855 0.8525 0.4522
H9 H 0.2977 0.9550 0.3917
C11 C 0.3556(2) 0.6524(4) 0.35829(14)
C12 C 0.4568(2) 0.5411(5) 0.39562(15)
C13 C 0.5501(2) 0.6872(7) 0.4061(2)
H10 H 0.6081 0.6019 0.4302
H11 H 0.5417 0.8166 0.4346
H12 H 0.5600 0.7363 0.3600
C14 C 0.37075(19) 0.7680(5) 0.28979(14)
C15 C 0.4011(2) 0.6196(6) 0.23449(16)
H13 H 0.4079 0.7093 0.1938
H14 H 0.3501 0.5061 0.2193
H15 H 0.4647 0.5482 0.2549
C16 C 0.2119(3) 0.7647(8) 0.50548(19)
loop_
_geom_bond_atom_site_label_1
_geom_bond_atom_site_label_2
_geom_bond_site_symmetry_1
_geom_bond_site_symmetry_2
F1 C16 1_555 1_555
F2 C16 1_555 1_555
F3 C16 1_555 1_555
O1 C12 1_555 1_555
O2 C14 1_555 1_555
C1 H1 1_555 1_555
C2 C1 1_555 1_555
H2 C2 1_555 1_555
C3 C2 1_555 1_555
H3 C3 1_555 1_555
C4 C3 1_555 1_555
H4 C4 1_555 1_555
C5 C4 1_555 1_555
H5 C5 1_555 1_555
C6 C1 1_555 1_555
C7 C6 1_555 1_555
H6 C7 1_555 1_555
C8 C7 1_555 1_555
H7 C8 1_555 1_555
C9 C8 1_555 1_555
C10 C9 1_555 1_555
H8 C10 1_555 1_555
H9 C10 1_555 1_555
C11 C7 1_555 1_555
C12 C11 1_555 1_555
C13 C12 1_555 1_555
H10 C13 1_555 1_555
H11 C13 1_555 1_555
H12 C13 1_555 1_555
C14 C11 1_555 1_555
C15 C14 1_555 1_555
H13 C15 1_555 1_555
H14 C15 1_555 1_555
H15 C15 1_555 1_555
C16 C9 1_555 1_555
C5 C6 1_555 1_555
C10 C11 1_555 1_555

#END
