
#######################################################################
#
#                 Cambridge Crystallographic Data Centre
#                                CCDC 
#
#######################################################################
#
# If this CIF has been generated from an entry in the Cambridge 
# Structural Database, then it will include bibliographic, chemical, 
# crystal, experimental, refinement or atomic coordinate data resulting 
# from the CCDC's data processing and validation procedures.
#
#######################################################################

data_ZERLOZ01
_chemical_compound_source        'plant Illicium henryi var. multistanminum'
_chemical_name_common            
'(3alpha,4alpha,5beta)-3,4-Oxoisopropylideneshikimic acid'
_chemical_formula_moiety         'C10 H14 O5'
_chemical_name_systematic        
'7-hydroxy-2,2-dimethyl-3a,6,7,7a-tetrahydro-1,3-benzodioxole-5-carboxylic acid'
_symmetry_cell_setting           orthorhombic
_symmetry_space_group_name_H-M   'P 21 21 21'
_symmetry_Int_Tables_number      19
_space_group_name_Hall           'P 2ac 2ab'
loop_
_symmetry_equiv_pos_site_id
_symmetry_equiv_pos_as_xyz
1 x,y,z
2 1/2-x,-y,1/2+z
3 -x,1/2+y,1/2-z
4 1/2+x,1/2-y,-z
_cell_length_a                   5.713(1)
_cell_length_b                   5.997(1)
_cell_length_c                   31.294(3)
_cell_angle_alpha                90
_cell_angle_beta                 90
_cell_angle_gamma                90
_cell_volume                     1072.16
_chemical_melting_point          '174-176 deg.C'
_cell_formula_units_Z            4
loop_
_atom_site_label
_atom_site_type_symbol
_atom_site_fract_x
_atom_site_fract_y
_atom_site_fract_z
C1 C 0.1850(11) 0.9163(10) 0.1742(1)
C2 C 0.1433(11) 0.8612(10) 0.1338(1)
C3 C 0.2410(11) 0.6524(10) 0.1145(1)
C4 C 0.4466(12) 0.5418(10) 0.1390(1)
C5 C 0.5503(10) 0.6944(10) 0.1735(1)
C6 C 0.3596(11) 0.7882(11) 0.2021(1)
O1 O 0.3407(8) 0.7021(7) 0.0731(1)
C7 C 0.5202(13) 0.5424(12) 0.0655(1)
O2 O 0.6223(8) 0.5055(9) 0.1069(1)
C8 C 0.0748(11) 1.1207(10) 0.1927(1)
O3 O 0.1265(8) 1.2038(7) 0.2264(1)
O4 O -0.0931(9) 1.2009(8) 0.1680(1)
C9 C 0.7045(13) 0.6432(14) 0.0370(1)
C10 C 0.4162(17) 0.3249(14) 0.0481(2)
O5 O 0.7067(8) 0.5548(7) 0.1974(1)
H1 H 0.038 0.971 0.114
H2 H 0.098 0.530 0.111
H3 H 0.388 0.385 0.154
H4 H 0.644 0.832 0.158
H5 H 0.270 0.650 0.219
H6 H 0.433 0.896 0.226
H7 H 0.781 0.792 0.052
H8 H 0.634 0.694 0.007
H9 H 0.840 0.518 0.033
H10 H 0.263 0.274 0.067
H11 H 0.541 0.186 0.049
H12 H 0.364 0.359 0.016
H13 H -0.164 1.346 0.178
H14 H 0.725 0.593 0.225
loop_
_geom_bond_atom_site_label_1
_geom_bond_atom_site_label_2
_geom_bond_site_symmetry_1
_geom_bond_site_symmetry_2
C1 C2 1_555 1_555
C2 C3 1_555 1_555
C3 C4 1_555 1_555
C4 C5 1_555 1_555
C5 C6 1_555 1_555
C6 C1 1_555 1_555
O1 C3 1_555 1_555
C7 O1 1_555 1_555
O2 C4 1_555 1_555
C8 C1 1_555 1_555
O3 C8 1_555 1_555
O4 C8 1_555 1_555
C9 C7 1_555 1_555
C10 C7 1_555 1_555
O5 C5 1_555 1_555
H1 C2 1_555 1_555
H2 C3 1_555 1_555
H3 C4 1_555 1_555
H4 C5 1_555 1_555
H5 C6 1_555 1_555
H6 C6 1_555 1_555
H7 C9 1_555 1_555
H8 C9 1_555 1_555
H9 C9 1_555 1_555
H10 C10 1_555 1_555
H11 C10 1_555 1_555
H12 C10 1_555 1_555
H13 O4 1_555 1_555
H14 O5 1_555 1_555
C7 O2 1_555 1_555

#END
