
#######################################################################
#
#                 Cambridge Crystallographic Data Centre
#                                CCDC 
#
#######################################################################
#
# If this CIF has been generated from an entry in the Cambridge 
# Structural Database, then it will include bibliographic, chemical, 
# crystal, experimental, refinement or atomic coordinate data resulting 
# from the CCDC's data processing and validation procedures.
#
#######################################################################

data_ZERQIZ
_chemical_formula_moiety         'C168 H144 N8 O6,3.333(C1 H2 Cl2),18(H2 O1)'
_chemical_name_systematic        
'(P,P,P)-6^5^,12^5^,22^5^,28^5^,37^5^,43^5^-hexa-t-butyl-6^6^,12^4^,22^6^,28^4^,37^6^,43^4^-hexahydroxy-6,12,22,28,37,43(1,3)-hexabenzena-9,25,40(4,13)-trihexahelicena-1,4,14,17,20,30,35,45-octa-azabicyclo[15.15.15]heptatetracontaphane-4,13,20,29,35,44-hexaene-7,10,23,26,38,41-hexayne dichloromethane solvate octadecahydrate'
_symmetry_cell_setting           monoclinic
_symmetry_space_group_name_H-M   'C 2'
_symmetry_Int_Tables_number      5
_space_group_name_Hall           'C 2y'
loop_
_symmetry_equiv_pos_site_id
_symmetry_equiv_pos_as_xyz
1 x,y,z
2 -x,y,-z
3 1/2+x,1/2+y,z
4 1/2-x,1/2+y,-z
_cell_length_a                   47.641(3)
_cell_length_b                   21.1704(10)
_cell_length_c                   27.0403(12)
_cell_angle_alpha                90
_cell_angle_beta                 94.904(3)
_cell_angle_gamma                90
_cell_volume                     27172.4
_exptl_crystal_colour            colorless
_exptl_crystal_description       block
_cell_formula_units_Z            6
loop_
_atom_site_label
_atom_site_type_symbol
_atom_site_fract_x
_atom_site_fract_y
_atom_site_fract_z
O1 O 0.06973(16) 0.5586(4) 0.4255(3)
O2 O 0.3717(2) 0.9112(7) -0.0106(4)
O3 O 0.03365(18) 0.4793(5) 0.1852(3)
O4 O 0.40015(16) 1.0296(6) 0.2121(4)
O5 O 0.00397(19) 0.7631(7) 0.2667(5)
O6 O 0.43090(19) 0.7258(5) 0.1745(4)
C1 C -0.0151(2) 0.4997(6) 0.3580(4)
H1 H -0.0314 0.4706 0.3578
H2 H -0.0120 0.5185 0.3916
C2 C 0.0107(2) 0.4630(6) 0.3469(5)
H3 H 0.0116 0.4229 0.3658
H4 H 0.0098 0.4529 0.3111
C3 C 0.05258(19) 0.5163(4) 0.3284(4)
H5 H 0.0480 0.5041 0.2949
C4 C 0.07833(19) 0.5510(4) 0.3407(3)
C5 C 0.0865(2) 0.5713(4) 0.3888(4)
C6 C 0.1124(2) 0.6020(4) 0.4008(3)
C7 C 0.1296(2) 0.6089(4) 0.3613(4)
H6 H 0.1476 0.6277 0.3680
C8 C 0.1219(2) 0.5902(4) 0.3145(4)
C9 C 0.09589(19) 0.5617(4) 0.3026(3)
H7 H 0.0902 0.5496 0.2694
C10 C 0.1215(3) 0.6266(7) 0.4529(4)
C11 C 0.1259(3) 0.5695(7) 0.4881(4)
H8 H 0.1083 0.5455 0.4880
H9 H 0.1407 0.5424 0.4769
H10 H 0.1314 0.5845 0.5218
C12 C 0.0989(4) 0.6700(7) 0.4706(5)
H11 H 0.0809 0.6473 0.4694
H12 H 0.1044 0.6833 0.5048
H13 H 0.0969 0.7072 0.4491
C13 C 0.1490(3) 0.6613(7) 0.4548(5)
H14 H 0.1636 0.6334 0.4434
H15 H 0.1470 0.6985 0.4332
H16 H 0.1545 0.6747 0.4890
C14 C 0.14112(19) 0.5933(4) 0.2752(3)
C15 C 0.1566(2) 0.5902(5) 0.2431(4)
C16 C 0.17600(19) 0.5784(5) 0.2064(4)
C17 C 0.1811(2) 0.6213(5) 0.1711(4)
H17 H 0.1723 0.6616 0.1713
C18 C 0.1991(2) 0.6066(5) 0.1342(3)
H18 H 0.2008 0.6348 0.1072
C19 C 0.21451(19) 0.5507(5) 0.1373(3)
H19 H 0.2274 0.5423 0.1131
C20 C 0.2116(2) 0.5067(5) 0.1748(3)
C21 C 0.19052(19) 0.5182(4) 0.2081(3)
C22 C 0.1831(2) 0.4695(5) 0.2408(4)
H20 H 0.1703 0.4784 0.2651
C23 C 0.1938(2) 0.4112(5) 0.2377(4)
H21 H 0.1864 0.3776 0.2560
C24 C 0.2161(2) 0.3993(5) 0.2071(4)
C25 C 0.2277(2) 0.4480(5) 0.1795(4)
C26 C 0.2530(2) 0.4370(5) 0.1550(4)
C27 C 0.2588(3) 0.3719(6) 0.1461(5)
C28 C 0.2454(3) 0.3229(6) 0.1690(5)
H22 H 0.2494 0.2803 0.1611
C29 C 0.2267(3) 0.3359(6) 0.2026(6)
H23 H 0.2206 0.3033 0.2233
C30 C 0.2795(3) 0.3577(7) 0.1109(6)
H24 H 0.2842 0.3150 0.1045
C31 C 0.2920(3) 0.4045(8) 0.0875(5)
H25 H 0.3026 0.3951 0.0603
C32 C 0.2717(2) 0.4849(6) 0.1400(3)
C33 C 0.2893(2) 0.4677(6) 0.1032(4)
C34 C 0.3044(2) 0.5170(7) 0.0796(4)
H26 H 0.3156 0.5064 0.0534
C35 C 0.3028(2) 0.5780(7) 0.0942(4)
H27 H 0.3117 0.6097 0.0762
C36 C 0.2882(2) 0.5960(6) 0.1362(3)
C37 C 0.27444(19) 0.5469(5) 0.1615(4)
C38 C 0.2649(2) 0.5636(5) 0.2080(3)
H28 H 0.2578 0.5314 0.2280
C39 C 0.2655(2) 0.6241(5) 0.2250(4)
H29 H 0.2586 0.6333 0.2561
C40 C 0.2760(2) 0.6723(6) 0.1974(4)
H30 H 0.2750 0.7148 0.2083
C41 C 0.2882(2) 0.6584(6) 0.1538(4)
C42 C 0.3008(2) 0.7073(6) 0.1271(4)
C43 C 0.3124(2) 0.7476(6) 0.1039(4)
C44 C 0.3277(2) 0.7915(7) 0.0753(4)
C45 C 0.3136(2) 0.8351(7) 0.0441(4)
H31 H 0.2936 0.8363 0.0424
C46 C 0.3272(3) 0.8767(7) 0.0154(5)
C47 C 0.3565(3) 0.8726(7) 0.0171(4)
C48 C 0.3719(2) 0.8282(7) 0.0491(4)
C49 C 0.3564(2) 0.7871(6) 0.0789(4)
H32 H 0.3660 0.7574 0.1006
C50 C 0.3110(3) 0.9234(10) -0.0213(6)
C51 C 0.3161(3) 0.8986(13) -0.0753(7)
H33 H 0.3363 0.8996 -0.0796
H34 H 0.3092 0.8552 -0.0793
H35 H 0.3061 0.9258 -0.1003
C52 C 0.3202(4) 0.9912(8) -0.0101(8)
H36 H 0.3405 0.9950 -0.0129
H37 H 0.3100 1.0198 -0.0338
H38 H 0.3160 1.0023 0.0237
C53 C 0.2794(4) 0.9212(10) -0.0161(8)
H39 H 0.2724 0.8783 -0.0230
H40 H 0.2758 0.9332 0.0177
H41 H 0.2698 0.9507 -0.0398
C54 C 0.4018(3) 0.8223(8) 0.0518(4)
H42 H 0.4110 0.7937 0.0749
C55 C 0.4469(3) 0.8482(13) 0.0269(6)
H43 H 0.4526 0.8326 -0.0052
H44 H 0.4530 0.8169 0.0528
C56 C 0.4607(3) 0.9094(11) 0.0388(5)
H45 H 0.4808 0.9066 0.0322
H46 H 0.4518 0.9425 0.0170
C57 C -0.0360(2) 0.5273(8) 0.2768(4)
H47 H -0.0564 0.5258 0.2810
H48 H -0.0297 0.4838 0.2701
C58 C -0.0309(2) 0.5699(9) 0.2321(5)
H49 H -0.0457 0.5622 0.2047
H50 H -0.0317 0.6149 0.2418
C59 C 0.0147(2) 0.5992(7) 0.2142(4)
H51 H 0.0100 0.6402 0.2252
C60 C 0.0420(2) 0.5888(6) 0.1963(4)
C61 C 0.0508(2) 0.5280(6) 0.1820(4)
C62 C 0.0782(2) 0.5204(6) 0.1644(3)
C63 C 0.0945(2) 0.5724(7) 0.1612(4)
H52 H 0.1124 0.5674 0.1488
C64 C 0.0865(2) 0.6335(6) 0.1751(4)
C65 C 0.0601(2) 0.6405(6) 0.1929(4)
H53 H 0.0543 0.6811 0.2030
C66 C 0.0875(3) 0.4526(7) 0.1489(5)
C67 C 0.0876(5) 0.4103(9) 0.1900(7)
H54 H 0.1000 0.4270 0.2178
H55 H 0.0685 0.4059 0.2001
H56 H 0.0946 0.3689 0.1804
C68 C 0.1182(3) 0.4556(9) 0.1344(8)
H57 H 0.1192 0.4843 0.1062
H58 H 0.1305 0.4712 0.1627
H59 H 0.1243 0.4133 0.1253
C69 C 0.0687(3) 0.4311(10) 0.1026(7)
H60 H 0.0697 0.4623 0.0760
H61 H 0.0753 0.3901 0.0913
H62 H 0.0492 0.4272 0.1110
C70 C 0.1033(2) 0.6872(7) 0.1674(4)
C71 C 0.1166(2) 0.7346(7) 0.1605(5)
C72 C 0.1311(2) 0.7911(6) 0.1525(4)
C73 C 0.1510(2) 0.8135(6) 0.1872(4)
H63 H 0.1561 0.7889 0.2160
C74 C 0.1643(2) 0.8723(6) 0.1815(4)
H64 H 0.1778 0.8877 0.2063
C75 C 0.1573(2) 0.9066(7) 0.1398(4)
H65 H 0.1657 0.9470 0.1368
C76 C 0.1384(2) 0.8851(6) 0.1009(4)
C77 C 0.1241(2) 0.8271(7) 0.1086(4)
C78 C 0.1008(3) 0.8115(9) 0.0750(5)
H66 H 0.0903 0.7743 0.0808
C79 C 0.0930(3) 0.8466(9) 0.0362(6)
H67 H 0.0776 0.8332 0.0141
C80 C 0.1069(2) 0.9042(10) 0.0260(5)
C81 C 0.1317(2) 0.9196(7) 0.0557(4)
C82 C 0.1481(2) 0.9744(6) 0.0400(4)
C83 C 0.1326(3) 1.0184(8) 0.0090(5)
C84 C 0.1075(3) 1.0074(11) -0.0159(6)
H68 H 0.0980 1.0392 -0.0358
C85 C 0.0953(3) 0.9450(10) -0.0115(6)
H69 H 0.0798 0.9320 -0.0334
C86 C 0.1454(3) 1.0821(9) 0.0037(5)
H70 H 0.1359 1.1137 -0.0164
C87 C 0.1703(3) 1.0937(8) 0.0276(5)
H71 H 0.1768 1.1362 0.0290
C88 C 0.1772(2) 0.9848(6) 0.0532(4)
C89 C 0.1875(3) 1.0478(6) 0.0509(4)
C90 C 0.2150(3) 1.0620(7) 0.0720(6)
H72 H 0.2211 1.1047 0.0726
C91 C 0.2325(3) 1.0188(7) 0.0907(5)
H73 H 0.2503 1.0311 0.1062
C92 C 0.2251(2) 0.9522(5) 0.0882(4)
C93 C 0.1980(2) 0.9365(6) 0.0664(3)
C94 C 0.1923(2) 0.8711(6) 0.0558(4)
H74 H 0.1751 0.8590 0.0382
C95 C 0.2125(2) 0.8246(7) 0.0718(6)
H75 H 0.2084 0.7812 0.0657
C96 C 0.2376(2) 0.8412(7) 0.0956(5)
H76 H 0.2506 0.8091 0.1067
C97 C 0.2449(2) 0.9041(6) 0.1043(4)
C98 C 0.2715(3) 0.9213(7) 0.1271(5)
C99 C 0.2942(2) 0.9388(7) 0.1450(5)
C100 C 0.3216(2) 0.9607(6) 0.1634(5)
C101 C 0.3276(2) 0.9796(6) 0.2131(5)
H77 H 0.3131 0.9760 0.2350
C102 C 0.3531(2) 1.0029(6) 0.2317(5)
C103 C 0.3746(2) 1.0086(7) 0.1968(6)
C104 C 0.3686(2) 0.9915(6) 0.1480(5)
C105 C 0.3426(2) 0.9660(8) 0.1305(5)
H78 H 0.3392 0.9525 0.0970
C106 C 0.3588(3) 1.0180(8) 0.2862(6)
C107 C 0.3708(5) 1.0879(10) 0.2928(8)
H79 H 0.3744 1.0974 0.3283
H80 H 0.3884 1.0915 0.2767
H81 H 0.3570 1.1180 0.2777
C108 C 0.3331(4) 1.0128(11) 0.3155(7)
H82 H 0.3384 1.0232 0.3504
H83 H 0.3186 1.0422 0.3019
H84 H 0.3258 0.9695 0.3132
C109 C 0.3812(4) 0.9708(10) 0.3095(7)
H85 H 0.3851 0.9802 0.3450
H86 H 0.3741 0.9276 0.3055
H87 H 0.3986 0.9751 0.2929
C110 C 0.3893(2) 0.9986(8) 0.1109(5)
H88 H 0.3842 0.9866 0.0775
C111 C 0.4330(3) 1.0299(10) 0.0846(6)
H89 H 0.4370 1.0756 0.0816
H90 H 0.4237 1.0154 0.0525
C112 C 0.4609(3) 0.9943(10) 0.0951(7)
H91 H 0.4745 1.0104 0.0724
H92 H 0.4686 1.0039 0.1294
C113 C -0.0356(2) 0.6027(7) 0.3432(6)
H93 H -0.0497 0.5861 0.3647
H94 H -0.0458 0.6272 0.3161
C114 C -0.0159(3) 0.6459(7) 0.3732(5)
H95 H -0.0268 0.6738 0.3939
H96 H -0.0027 0.6207 0.3954
C115 C 0.0267(2) 0.6844(6) 0.3446(5)
H97 H 0.0358 0.6587 0.3698
C116 C 0.0440(2) 0.7212(5) 0.3139(4)
C117 C 0.0322(2) 0.7614(6) 0.2766(5)
C118 C 0.0492(2) 0.7994(5) 0.2474(5)
C119 C 0.0782(2) 0.7951(5) 0.2589(4)
H98 H 0.0902 0.8191 0.2397
C120 C 0.0905(2) 0.7573(5) 0.2971(4)
C121 C 0.0730(2) 0.7193(5) 0.3242(4)
H99 H 0.0811 0.6923 0.3496
C122 C 0.0372(3) 0.8437(9) 0.2075(7)
C123 C 0.0176(7) 0.8088(17) 0.1708(11)
H100 H 0.0281 0.7755 0.1551
H101 H 0.0024 0.7898 0.1879
H102 H 0.0097 0.8382 0.1454
C124 C 0.0604(4) 0.8787(9) 0.1826(7)
H103 H 0.0736 0.8480 0.1705
H104 H 0.0520 0.9036 0.1546
H105 H 0.0705 0.9070 0.2067
C125 C 0.0174(7) 0.8893(16) 0.225(2)
H106 H 0.0274 0.9165 0.2506
H107 H 0.0095 0.9152 0.1977
H108 H 0.0022 0.8668 0.2402
C126 C 0.1204(2) 0.7556(5) 0.3094(4)
C127 C 0.1447(2) 0.7559(5) 0.3216(4)
C128 C 0.1737(2) 0.7582(4) 0.3407(4)
C129 C 0.1937(2) 0.7197(5) 0.3208(4)
H109 H 0.1884 0.6927 0.2936
C130 C 0.2211(2) 0.7212(5) 0.3407(4)
H110 H 0.2344 0.6933 0.3282
C131 C 0.2297(2) 0.7619(5) 0.3780(4)
H111 H 0.2488 0.7610 0.3913
C132 C 0.2113(2) 0.8046(5) 0.3974(3)
C133 C 0.1821(2) 0.7989(4) 0.3816(4)
C134 C 0.1620(2) 0.8342(5) 0.4069(4)
H112 H 0.1428 0.8337 0.3944
C135 C 0.1697(2) 0.8673(5) 0.4473(4)
H113 H 0.1557 0.8855 0.4658
C136 C 0.1981(2) 0.8761(5) 0.4633(4)
C137 C 0.2198(2) 0.8521(4) 0.4348(4)
C138 C 0.2485(2) 0.8705(5) 0.4473(4)
C139 C 0.2555(2) 0.8937(5) 0.4959(4)
C140 C 0.2341(3) 0.9129(6) 0.5257(4)
H114 H 0.2389 0.9285 0.5582
C141 C 0.2064(3) 0.9091(5) 0.5082(4)
H115 H 0.1925 0.9288 0.5261
C142 C 0.2841(3) 0.8967(7) 0.5150(4)
H116 H 0.2889 0.9116 0.5478
C143 C 0.3048(3) 0.8779(6) 0.4861(5)
H117 H 0.3238 0.8752 0.5001
C144 C 0.2711(2) 0.8660(4) 0.4144(4)
C145 C 0.2985(2) 0.8627(5) 0.4363(4)
C146 C 0.3208(2) 0.8466(6) 0.4050(5)
H118 H 0.3395 0.8426 0.4199
C147 C 0.3160(2) 0.8373(6) 0.3567(5)
H119 H 0.3307 0.8216 0.3384
C148 C 0.2895(2) 0.8504(5) 0.3320(4)
C149 C 0.2670(2) 0.8677(4) 0.3604(4)
C150 C 0.2417(2) 0.8908(4) 0.3347(4)
H120 H 0.2271 0.9063 0.3534
C151 C 0.2378(2) 0.8915(6) 0.2848(4)
H121 H 0.2207 0.9070 0.2686
C152 C 0.2594(2) 0.8688(6) 0.2569(4)
H122 H 0.2563 0.8675 0.2217
C153 C 0.2847(2) 0.8488(5) 0.2794(4)
C154 C 0.3072(2) 0.8295(6) 0.2509(4)
C155 C 0.3284(2) 0.8127(5) 0.2333(4)
C156 C 0.3543(2) 0.7928(5) 0.2157(4)
C157 C 0.3591(2) 0.7269(5) 0.2091(3)
H123 H 0.3442 0.6982 0.2141
C158 C 0.3842(2) 0.7030(5) 0.1960(4)
C159 C 0.4057(2) 0.7468(5) 0.1878(4)
C160 C 0.4009(2) 0.8131(5) 0.1937(4)
C161 C 0.3756(2) 0.8344(6) 0.2068(4)
H124 H 0.3725 0.8785 0.2098
C162 C 0.3894(3) 0.6316(6) 0.1934(5)
C163 C 0.4119(4) 0.6119(8) 0.2331(7)
H125 H 0.4293 0.6349 0.2287
H126 H 0.4056 0.6217 0.2659
H127 H 0.4153 0.5664 0.2307
C164 C 0.3977(5) 0.6135(9) 0.1415(7)
H128 H 0.3828 0.6267 0.1164
H129 H 0.4154 0.6345 0.1353
H130 H 0.4002 0.5676 0.1397
C165 C 0.3628(3) 0.5943(6) 0.2022(6)
H131 H 0.3477 0.6059 0.1770
H132 H 0.3667 0.5490 0.2000
H133 H 0.3570 0.6042 0.2352
C166 C 0.4236(2) 0.8590(6) 0.1882(4)
H134 H 0.4197 0.9024 0.1930
C167 C 0.4704(3) 0.8876(9) 0.1749(5)
H135 H 0.4865 0.8745 0.1982
H136 H 0.4640 0.9294 0.1858
C168 C 0.4801(2) 0.8935(10) 0.1241(5)
H137 H 0.4836 0.8509 0.1109
H138 H 0.4981 0.9172 0.1260
N1 N -0.02131(18) 0.5496(5) 0.3217(3)
N2 N 0.45885(19) 0.9268(7) 0.0895(4)
N3 N 0.03550(18) 0.5011(4) 0.3610(3)
N4 N 0.4163(2) 0.8546(8) 0.0239(4)
N5 N -0.00306(19) 0.5551(6) 0.2156(3)
N6 N 0.4141(2) 1.0208(7) 0.1227(4)
N7 N -0.0001(2) 0.6843(5) 0.3396(4)
N8 N 0.44838(18) 0.8436(6) 0.1773(3)
O7 O 0.68766(17) 0.5050(4) 0.3450(3)
O8 O 0.31895(18) 0.8179(4) 0.6452(4)
O9 O 0.28042(17) 0.6437(4) 0.4320(3)
C169 C 0.7703(2) 0.5918(6) 0.3942(5)
H139 H 0.7911 0.5903 0.4001
H140 H 0.7654 0.5822 0.3587
C170 C 0.7580(2) 0.5421(5) 0.4249(5)
H141 H 0.7683 0.5020 0.4215
H142 H 0.7603 0.5548 0.4603
C171 C 0.7095(2) 0.5420(5) 0.4411(4)
H143 H 0.7154 0.5558 0.4738
C172 C 0.6800(2) 0.5320(4) 0.4276(4)
C173 C 0.6697(2) 0.5139(5) 0.3803(4)
C174 C 0.6397(3) 0.5028(5) 0.3679(4)
C175 C 0.6230(2) 0.5108(5) 0.4054(4)
H144 H 0.6035 0.5025 0.3989
C176 C 0.6328(2) 0.5307(5) 0.4535(4)
C177 C 0.6607(3) 0.5414(5) 0.4645(4)
H145 H 0.6674 0.5551 0.4968
C178 C 0.6287(3) 0.4861(6) 0.3154(4)
C179 C 0.5971(3) 0.4749(13) 0.3129(7)
H146 H 0.5878 0.5127 0.3245
H147 H 0.5900 0.4658 0.2786
H148 H 0.5932 0.4389 0.3341
C180 C 0.6338(6) 0.5413(8) 0.2803(5)
H149 H 0.6255 0.5799 0.2927
H150 H 0.6542 0.5474 0.2790
H151 H 0.6252 0.5317 0.2470
C181 C 0.6414(4) 0.4261(6) 0.2970(6)
H152 H 0.6335 0.4176 0.2630
H153 H 0.6619 0.4309 0.2976
H154 H 0.6370 0.3909 0.3186
C182 C 0.6131(3) 0.5392(6) 0.4911(4)
C183 C 0.5972(3) 0.5492(6) 0.5226(4)
C184 C 0.5791(2) 0.5640(6) 0.5605(4)
C185 C 0.5645(2) 0.6199(5) 0.5589(4)
H155 H 0.5647 0.6466 0.5307
C186 C 0.5492(3) 0.6379(5) 0.5990(4)
H156 H 0.5402 0.6780 0.5986
C187 C 0.5470(2) 0.5983(5) 0.6382(4)
H157 H 0.5364 0.6114 0.6645
C188 C 0.5604(2) 0.5369(5) 0.6412(4)
C189 C 0.5776(2) 0.5227(5) 0.6023(4)
C190 C 0.5945(3) 0.4649(7) 0.6069(6)
H158 H 0.6038 0.4497 0.5795
C191 C 0.5967(3) 0.4342(8) 0.6496(7)
H159 H 0.6105 0.4017 0.6544
C192 C 0.5796(3) 0.4474(7) 0.6879(6)
C193 C 0.5585(3) 0.4952(6) 0.6827(5)
C194 C 0.5392(3) 0.5007(7) 0.7204(5)
C195 C 0.5478(3) 0.4754(8) 0.7669(6)
C196 C 0.5693(5) 0.4334(12) 0.7747(7)
H160 H 0.5740 0.4167 0.8070
C197 C 0.5843(4) 0.4149(8) 0.7351(7)
H161 H 0.5975 0.3813 0.7390
C198 C 0.5344(6) 0.4982(13) 0.8103(5)
H162 H 0.5409 0.4840 0.8426
C199 C 0.5125(5) 0.5403(13) 0.8040(7)
H163 H 0.5057 0.5601 0.8323
C200 C 0.5120(3) 0.5322(6) 0.7154(5)
C201 C 0.5004(3) 0.5541(8) 0.7585(5)
C202 C 0.4748(4) 0.5905(9) 0.7531(6)
H164 H 0.4673 0.6059 0.7822
C203 C 0.4610(4) 0.6036(8) 0.7090(6)
H165 H 0.4454 0.6316 0.7069
C204 C 0.4700(3) 0.5755(6) 0.6658(5)
C205 C 0.4945(2) 0.5374(5) 0.6681(4)
C206 C 0.4993(3) 0.5013(6) 0.6262(4)
H166 H 0.5142 0.4713 0.6284
C207 C 0.4831(3) 0.5080(7) 0.5821(5)
H167 H 0.4872 0.4839 0.5540
C208 C 0.4603(3) 0.5510(7) 0.5787(5)
H168 H 0.4496 0.5565 0.5477
C209 C 0.4533(3) 0.5844(5) 0.6184(5)
C210 C 0.4288(3) 0.6228(6) 0.6179(6)
C211 C 0.4081(3) 0.6565(6) 0.6179(5)
C212 C 0.3845(3) 0.6968(5) 0.6227(4)
C213 C 0.3886(3) 0.7637(5) 0.6231(5)
H169 H 0.4067 0.7794 0.6178
C214 C 0.3676(2) 0.8064(5) 0.6305(4)
C215 C 0.3410(2) 0.7816(5) 0.6381(4)
C216 C 0.3366(3) 0.7135(5) 0.6393(4)
C217 C 0.3586(3) 0.6733(6) 0.6301(5)
H170 H 0.3556 0.6289 0.6291
C218 C 0.3728(2) 0.8770(5) 0.6305(4)
C219 C 0.3555(5) 0.9068(10) 0.5851(12)
H171 H 0.3599 0.8848 0.5547
H172 H 0.3354 0.9029 0.5892
H173 H 0.3605 0.9516 0.5826
C220 C 0.3698(5) 0.9024(8) 0.6807(7)
H174 H 0.3732 0.9481 0.6808
H175 H 0.3507 0.8940 0.6899
H176 H 0.3836 0.8821 0.7046
C221 C 0.4036(3) 0.8908(6) 0.6191(7)
H177 H 0.4067 0.8747 0.5860
H178 H 0.4070 0.9365 0.6202
H179 H 0.4167 0.8699 0.6439
C222 C 0.3098(3) 0.6870(6) 0.6511(4)
H180 H 0.3079 0.6424 0.6526
C223 C 0.2632(3) 0.6909(7) 0.6750(6)
H181 H 0.2670 0.6454 0.6809
H182 H 0.2584 0.7098 0.7067
C224 C 0.2389(3) 0.6972(7) 0.6382(5)
H183 H 0.2215 0.6883 0.6548
H184 H 0.2378 0.7416 0.6266
C225 C 0.2225(3) 0.6786(7) 0.5519(6)
H185 H 0.2041 0.6937 0.5618
H186 H 0.2189 0.6432 0.5284
C226 C 0.2374(3) 0.7334(7) 0.5256(5)
H187 H 0.2237 0.7545 0.5014
H188 H 0.2445 0.7651 0.5504
C227 C 0.2864(3) 0.7250(6) 0.5145(5)
H189 H 0.2896 0.7515 0.5427
C228 C 0.3099(2) 0.7047(6) 0.4890(4)
C229 C 0.3063(2) 0.6660(6) 0.4472(4)
C230 C 0.3295(2) 0.6496(5) 0.4212(4)
C231 C 0.3556(2) 0.6731(5) 0.4388(4)
H190 H 0.3715 0.6617 0.4216
C232 C 0.3600(2) 0.7119(5) 0.4796(4)
C233 C 0.3367(3) 0.7284(6) 0.5049(5)
H191 H 0.3390 0.7556 0.5329
C234 C 0.3262(3) 0.6062(7) 0.3755(5)
C235 C 0.3160(4) 0.5405(9) 0.3895(7)
H192 H 0.2979 0.5443 0.4039
H193 H 0.3138 0.5139 0.3598
H194 H 0.3299 0.5214 0.4139
C236 C 0.3057(4) 0.6395(10) 0.3350(6)
H195 H 0.2874 0.6463 0.3481
H196 H 0.3137 0.6803 0.3262
H197 H 0.3033 0.6127 0.3054
C237 C 0.3543(3) 0.5966(9) 0.3536(6)
H198 H 0.3617 0.6375 0.3440
H199 H 0.3677 0.5767 0.3784
H200 H 0.3516 0.5692 0.3243
C238 C 0.3872(3) 0.7382(6) 0.4947(5)
C239 C 0.4097(3) 0.7591(6) 0.5061(4)
C240 C 0.4365(3) 0.7896(6) 0.5190(4)
C241 C 0.4573(3) 0.7579(7) 0.5497(4)
H201 H 0.4545 0.7157 0.5601
C242 C 0.4816(3) 0.7899(6) 0.5641(4)
H202 H 0.4953 0.7699 0.5864
C243 C 0.4870(3) 0.8490(6) 0.5478(4)
H203 H 0.5043 0.8689 0.5588
C244 C 0.4679(3) 0.8805(5) 0.5157(4)
C245 C 0.4419(3) 0.8533(6) 0.5025(4)
C246 C 0.4198(3) 0.8865(7) 0.4737(5)
H204 H 0.4029 0.8654 0.4622
C247 C 0.4235(4) 0.9485(7) 0.4633(5)
H205 H 0.4082 0.9716 0.4471
C248 C 0.4483(4) 0.9783(6) 0.4753(5)
C249 C 0.4725(3) 0.9446(6) 0.4958(4)
C250 C 0.5000 0.9750(7) 0.5000
C251 C 0.5000 1.0441(9) 0.5000
C252 C 0.4758(5) 1.0765(7) 0.4857(6)
H206 H 0.4760 1.1214 0.4869
C253 C 0.4514(4) 1.0457(8) 0.4697(5)
H207 H 0.4361 1.0694 0.4546
N9 N 0.2393(2) 0.6562(5) 0.5954(4)
N10 N 0.7280(2) 0.5324(4) 0.4096(4)
N11 N 0.2890(2) 0.7215(5) 0.6595(4)
N12 N 0.2606(2) 0.7081(5) 0.5001(4)
O7A O 0.31234(17) 0.5050(4) 0.6550(3)
O8A O 0.68105(18) 0.8179(4) 0.3548(4)
O9A O 0.71958(17) 0.6437(4) 0.5680(3)
C169A C 0.2297(2) 0.5918(6) 0.6058(5)
H139A H 0.2089 0.5903 0.5999
H140A H 0.2346 0.5822 0.6413
C170A C 0.2420(2) 0.5421(5) 0.5751(5)
H141A H 0.2317 0.5020 0.5785
H142A H 0.2397 0.5548 0.5397
C171A C 0.2905(2) 0.5420(5) 0.5589(4)
H143A H 0.2846 0.5558 0.5262
C172A C 0.3200(2) 0.5320(4) 0.5724(4)
C173A C 0.3303(2) 0.5139(5) 0.6197(4)
C174A C 0.3603(3) 0.5028(5) 0.6321(4)
C175A C 0.3770(2) 0.5108(5) 0.5946(4)
H144A H 0.3965 0.5025 0.6011
C176A C 0.3672(2) 0.5307(5) 0.5465(4)
C177A C 0.3393(3) 0.5414(5) 0.5355(4)
H145A H 0.3326 0.5551 0.5032
C178A C 0.3713(3) 0.4861(6) 0.6846(4)
C179A C 0.4029(3) 0.4749(13) 0.6871(7)
H146A H 0.4122 0.5127 0.6755
H147A H 0.4100 0.4658 0.7214
H148A H 0.4068 0.4389 0.6659
C180A C 0.3662(6) 0.5413(8) 0.7197(5)
H149A H 0.3745 0.5799 0.7073
H150A H 0.3458 0.5474 0.7210
H151A H 0.3748 0.5317 0.7530
C181A C 0.3586(4) 0.4261(6) 0.7030(6)
H152A H 0.3665 0.4176 0.7370
H153A H 0.3381 0.4309 0.7024
H154A H 0.3630 0.3909 0.6814
C182A C 0.3869(3) 0.5392(6) 0.5089(4)
C183A C 0.4028(3) 0.5492(6) 0.4774(4)
C184A C 0.4209(2) 0.5640(6) 0.4395(4)
C185A C 0.4355(2) 0.6199(5) 0.4411(4)
H155A H 0.4353 0.6466 0.4693
C186A C 0.4508(3) 0.6379(5) 0.4010(4)
H156A H 0.4598 0.6780 0.4014
C187A C 0.4530(2) 0.5983(5) 0.3618(4)
H157A H 0.4636 0.6114 0.3355
C188A C 0.4396(2) 0.5369(5) 0.3588(4)
C189A C 0.4224(2) 0.5227(5) 0.3977(4)
C190A C 0.4055(3) 0.4649(7) 0.3931(6)
H158A H 0.3962 0.4497 0.4205
C191A C 0.4033(3) 0.4342(8) 0.3504(7)
H159A H 0.3895 0.4017 0.3456
C192A C 0.4204(3) 0.4474(7) 0.3121(6)
C193A C 0.4415(3) 0.4952(6) 0.3173(5)
C194A C 0.4608(3) 0.5007(7) 0.2796(5)
C195A C 0.4522(3) 0.4754(8) 0.2331(6)
C196A C 0.4307(5) 0.4334(12) 0.2253(7)
H160A H 0.4260 0.4167 0.1930
C197A C 0.4157(4) 0.4149(8) 0.2649(7)
H161A H 0.4025 0.3813 0.2610
C198A C 0.4656(6) 0.4982(13) 0.1897(5)
H162A H 0.4591 0.4840 0.1574
C199A C 0.4875(5) 0.5403(13) 0.1960(7)
H163A H 0.4943 0.5601 0.1677
C200A C 0.4880(3) 0.5322(6) 0.2846(5)
C201A C 0.4996(3) 0.5541(8) 0.2415(5)
C202A C 0.5252(4) 0.5905(9) 0.2469(6)
H164A H 0.5327 0.6059 0.2178
C203A C 0.5390(4) 0.6036(8) 0.2910(6)
H165A H 0.5546 0.6316 0.2931
C204A C 0.5300(3) 0.5755(6) 0.3342(5)
C205A C 0.5055(2) 0.5374(5) 0.3319(4)
C206A C 0.5007(3) 0.5013(6) 0.3738(4)
H166A H 0.4858 0.4713 0.3716
C207A C 0.5169(3) 0.5080(7) 0.4179(5)
H167A H 0.5128 0.4839 0.4460
C208A C 0.5397(3) 0.5510(7) 0.4213(5)
H168A H 0.5504 0.5565 0.4523
C209A C 0.5467(3) 0.5844(5) 0.3816(5)
C210A C 0.5712(3) 0.6228(6) 0.3821(6)
C211A C 0.5919(3) 0.6565(6) 0.3821(5)
C212A C 0.6155(3) 0.6968(5) 0.3773(4)
C213A C 0.6114(3) 0.7637(5) 0.3769(5)
H169A H 0.5933 0.7794 0.3822
C214A C 0.6324(2) 0.8064(5) 0.3695(4)
C215A C 0.6590(2) 0.7816(5) 0.3619(4)
C216A C 0.6634(3) 0.7135(5) 0.3607(4)
C217A C 0.6414(3) 0.6733(6) 0.3699(5)
H170A H 0.6444 0.6289 0.3709
C218A C 0.6272(2) 0.8770(5) 0.3695(4)
C219A C 0.6445(5) 0.9068(10) 0.4149(12)
H171A H 0.6401 0.8848 0.4453
H172A H 0.6646 0.9029 0.4108
H173A H 0.6395 0.9516 0.4174
C220A C 0.6302(5) 0.9024(8) 0.3193(7)
H174A H 0.6268 0.9481 0.3192
H175A H 0.6493 0.8940 0.3101
H176A H 0.6164 0.8821 0.2954
C221A C 0.5964(3) 0.8908(6) 0.3809(7)
H177A H 0.5933 0.8747 0.4140
H178A H 0.5930 0.9365 0.3798
H179A H 0.5833 0.8699 0.3561
C222A C 0.6902(3) 0.6870(6) 0.3489(4)
H180A H 0.6921 0.6424 0.3474
C223A C 0.7368(3) 0.6909(7) 0.3250(6)
H181A H 0.7330 0.6454 0.3191
H182A H 0.7416 0.7098 0.2933
C224A C 0.7611(3) 0.6972(7) 0.3618(5)
H183A H 0.7785 0.6883 0.3452
H184A H 0.7622 0.7416 0.3734
C225A C 0.7775(3) 0.6786(7) 0.4481(6)
H185A H 0.7959 0.6937 0.4382
H186A H 0.7811 0.6432 0.4716
C226A C 0.7626(3) 0.7334(7) 0.4744(5)
H187A H 0.7763 0.7545 0.4986
H188A H 0.7555 0.7651 0.4496
C227A C 0.7136(3) 0.7250(6) 0.4855(5)
H189A H 0.7104 0.7515 0.4573
C228A C 0.6901(2) 0.7047(6) 0.5110(4)
C229A C 0.6937(2) 0.6660(6) 0.5528(4)
C230A C 0.6705(2) 0.6496(5) 0.5788(4)
C231A C 0.6444(2) 0.6731(5) 0.5612(4)
H190A H 0.6285 0.6617 0.5784
C232A C 0.6400(2) 0.7119(5) 0.5204(4)
C233A C 0.6633(3) 0.7284(6) 0.4951(5)
H191A H 0.6610 0.7556 0.4671
C234A C 0.6738(3) 0.6062(7) 0.6245(5)
C235A C 0.6840(4) 0.5405(9) 0.6105(7)
H192A H 0.7021 0.5443 0.5961
H193A H 0.6862 0.5139 0.6402
H194A H 0.6701 0.5214 0.5861
C236A C 0.6943(4) 0.6395(10) 0.6650(6)
H195A H 0.7126 0.6463 0.6519
H196A H 0.6863 0.6803 0.6738
H197A H 0.6967 0.6127 0.6946
C237A C 0.6457(3) 0.5966(9) 0.6464(6)
H198A H 0.6383 0.6375 0.6560
H199A H 0.6323 0.5767 0.6216
H200A H 0.6484 0.5692 0.6757
C238A C 0.6128(3) 0.7382(6) 0.5053(5)
C239A C 0.5903(3) 0.7591(6) 0.4939(4)
C240A C 0.5635(3) 0.7896(6) 0.4810(4)
C241A C 0.5427(3) 0.7579(7) 0.4503(4)
H201A H 0.5455 0.7157 0.4399
C242A C 0.5184(3) 0.7899(6) 0.4359(4)
H202A H 0.5047 0.7699 0.4136
C243A C 0.5130(3) 0.8490(6) 0.4522(4)
H203A H 0.4957 0.8689 0.4412
C244A C 0.5321(3) 0.8805(5) 0.4843(4)
C245A C 0.5581(3) 0.8533(6) 0.4975(4)
C246A C 0.5802(3) 0.8865(7) 0.5263(5)
H204A H 0.5971 0.8654 0.5378
C247A C 0.5765(4) 0.9485(7) 0.5367(5)
H205A H 0.5918 0.9716 0.5529
C248A C 0.5517(4) 0.9783(6) 0.5247(5)
C249A C 0.5275(3) 0.9446(6) 0.5042(4)
C252A C 0.5242(5) 1.0765(7) 0.5143(6)
H206A H 0.5240 1.1214 0.5131
C253A C 0.5486(4) 1.0457(8) 0.5303(5)
H207A H 0.5639 1.0694 0.5454
N9A N 0.7607(2) 0.6562(5) 0.4046(4)
N10A N 0.2720(2) 0.5324(4) 0.5904(4)
N11A N 0.7110(2) 0.7215(5) 0.3405(4)
N12A N 0.7394(2) 0.7081(5) 0.4999(4)
O10 O 0.5838(5) 0.3602(9) 0.4321(15)
O11 O 0.3513(5) 1.2160(14) 0.3922(8)
O12 O 0.1301(2) 0.9199(7) -0.1218(6)
O13 O 0.1550(3) 0.6992(10) 0.0404(9)
O14 O 0.5332(3) 0.5663(15) 0.9418(5)
O15 O 0.2593(3) 0.8710(8) 0.6568(6)
O16 O 0.2304(3) 0.6271(10) 0.0113(3)
O17 O 0.0261(10) 0.302(3) 0.2963(10)
O18 O 0.2629(3) 0.7305(3) -0.0326(5)
O19 O 0.3539(2) 0.7669(5) 0.7775(4)
O20 O 0.5688(6) 0.6635(12) 0.9770(8)
O21 O 0.3028(7) 1.1881(15) 0.2294(10)
O22 O -0.0120(4) 0.2345(8) 0.2801(13)
O23 O 0.2877(5) 1.1544(7) 0.1291(7)
C254 C 0.4034(8) 0.5336(17) 0.8528(10)
H208 H 0.4024 0.4951 0.8733
H209 H 0.4030 0.5202 0.8177
Cl1 Cl 0.4353(8) 0.5708(16) 0.8690(16)
Cl2 Cl 0.3737(7) 0.5791(14) 0.8600(7)
O24 O 0.3510(8) 1.324(2) 0.4254(13)
O25 O 0.3231(9) 0.4435(9) 0.2633(8)
O26 O 0.1107(3) 0.6029(9) 0.0248(7)
O27 O 0.4074(2) 0.7030(10) 0.7785(5)
O28 O 0.1639(7) 0.7675(13) -0.0588(18)
O29 O 0.5052(7) 0.7227(17) 0.1633(15)
O30 O 0.4825(7) 0.7462(11) -0.0589(8)
O31 O 0.4600(8) 0.4025(10) 0.4757(12)
O32 O 0.6458(9) 0.3274(13) 0.8014(18)
O33 O 0.5587(6) 0.3152(15) 0.8906(8)
C255 C 0.4200(5) 0.7780(11) 0.3230(8)
H210 H 0.4304 0.7376 0.3246
H211 H 0.4126 0.7853 0.2881
Cl3 Cl 0.4425(3) 0.8395(7) 0.3429(7)
Cl4 Cl 0.3920(2) 0.7740(5) 0.3607(4)
C256 C 0.2130(4) 1.0449(9) 0.2223(6)
H212 H 0.2039 1.0265 0.2506
H213 H 0.2094 1.0158 0.1937
Cl5 Cl 0.1969(5) 1.1181(12) 0.2069(8)
Cl6 Cl 0.2494(3) 1.0488(7) 0.2380(5)
C257 C 0.2945(3) 1.0351(15) 0.6419(6)
H214 H 0.3033 0.9927 0.6458
H215 H 0.3077 1.0663 0.6583
Cl7 Cl 0.2633(2) 1.0361(7) 0.6696(4)
Cl8 Cl 0.2884(2) 1.0531(4) 0.5794(3)
C258 C 0.027(2) 0.6483(11) 0.0630(19)
H216 H 0.0369 0.6542 0.0964
H217 H 0.0067 0.6566 0.0650
Cl9 Cl 0.0408(6) 0.6993(15) 0.020(2)
Cl10 Cl 0.0322(2) 0.5714(5) 0.0414(6)
O34? O 0.4551(4) 0.5303(12) 0.9083(9)
O35? O 0.1419(5) 0.8156(17) -0.0648(9)
O36? O 0.0369(4) 0.3237(6) 0.2696(6)
loop_
_geom_bond_atom_site_label_1
_geom_bond_atom_site_label_2
_geom_bond_site_symmetry_1
_geom_bond_site_symmetry_2
O1 C5 1_555 1_555
O2 C47 1_555 1_555
O3 C61 1_555 1_555
O4 C103 1_555 1_555
O5 C117 1_555 1_555
O6 C159 1_555 1_555
C1 H1 1_555 1_555
H2 C1 1_555 1_555
C2 C1 1_555 1_555
H3 C2 1_555 1_555
H4 C2 1_555 1_555
C3 H5 1_555 1_555
C4 C3 1_555 1_555
C5 C4 1_555 1_555
C6 C5 1_555 1_555
C7 C6 1_555 1_555
H6 C7 1_555 1_555
C8 C7 1_555 1_555
C9 C4 1_555 1_555
H7 C9 1_555 1_555
C10 C6 1_555 1_555
C11 C10 1_555 1_555
H8 C11 1_555 1_555
H9 C11 1_555 1_555
H10 C11 1_555 1_555
C12 C10 1_555 1_555
H11 C12 1_555 1_555
H12 C12 1_555 1_555
H13 C12 1_555 1_555
C13 C10 1_555 1_555
H14 C13 1_555 1_555
H15 C13 1_555 1_555
H16 C13 1_555 1_555
C14 C8 1_555 1_555
C15 C14 1_555 1_555
C16 C15 1_555 1_555
C17 C16 1_555 1_555
H17 C17 1_555 1_555
C18 C17 1_555 1_555
H18 C18 1_555 1_555
C19 C18 1_555 1_555
H19 C19 1_555 1_555
C20 C19 1_555 1_555
C21 C16 1_555 1_555
C22 C21 1_555 1_555
H20 C22 1_555 1_555
C23 C22 1_555 1_555
H21 C23 1_555 1_555
C24 C23 1_555 1_555
C25 C20 1_555 1_555
C26 C25 1_555 1_555
C27 C26 1_555 1_555
C28 C27 1_555 1_555
H22 C28 1_555 1_555
C29 C24 1_555 1_555
H23 C29 1_555 1_555
C30 C27 1_555 1_555
H24 C30 1_555 1_555
C31 C30 1_555 1_555
H25 C31 1_555 1_555
C32 C26 1_555 1_555
C33 C31 1_555 1_555
C34 C33 1_555 1_555
H26 C34 1_555 1_555
C35 C34 1_555 1_555
H27 C35 1_555 1_555
C36 C35 1_555 1_555
C37 C32 1_555 1_555
C38 C37 1_555 1_555
H28 C38 1_555 1_555
C39 C38 1_555 1_555
H29 C39 1_555 1_555
C40 C39 1_555 1_555
H30 C40 1_555 1_555
C41 C36 1_555 1_555
C42 C41 1_555 1_555
C43 C42 1_555 1_555
C44 C43 1_555 1_555
C45 C44 1_555 1_555
H31 C45 1_555 1_555
C46 C45 1_555 1_555
C47 C46 1_555 1_555
C48 C47 1_555 1_555
C49 C44 1_555 1_555
H32 C49 1_555 1_555
C50 C46 1_555 1_555
C51 C50 1_555 1_555
H33 C51 1_555 1_555
H34 C51 1_555 1_555
H35 C51 1_555 1_555
C52 C50 1_555 1_555
H36 C52 1_555 1_555
H37 C52 1_555 1_555
H38 C52 1_555 1_555
C53 C50 1_555 1_555
H39 C53 1_555 1_555
H40 C53 1_555 1_555
H41 C53 1_555 1_555
C54 C48 1_555 1_555
H42 C54 1_555 1_555
C55 H43 1_555 1_555
H44 C55 1_555 1_555
C56 C55 1_555 1_555
H45 C56 1_555 1_555
H46 C56 1_555 1_555
C57 H47 1_555 1_555
H48 C57 1_555 1_555
C58 C57 1_555 1_555
H49 C58 1_555 1_555
H50 C58 1_555 1_555
C59 H51 1_555 1_555
C60 C59 1_555 1_555
C61 C60 1_555 1_555
C62 C61 1_555 1_555
C63 C62 1_555 1_555
H52 C63 1_555 1_555
C64 C63 1_555 1_555
C65 C60 1_555 1_555
H53 C65 1_555 1_555
C66 C62 1_555 1_555
C67 C66 1_555 1_555
H54 C67 1_555 1_555
H55 C67 1_555 1_555
H56 C67 1_555 1_555
C68 C66 1_555 1_555
H57 C68 1_555 1_555
H58 C68 1_555 1_555
H59 C68 1_555 1_555
C69 C66 1_555 1_555
H60 C69 1_555 1_555
H61 C69 1_555 1_555
H62 C69 1_555 1_555
C70 C64 1_555 1_555
C71 C70 1_555 1_555
C72 C71 1_555 1_555
C73 C72 1_555 1_555
H63 C73 1_555 1_555
C74 C73 1_555 1_555
H64 C74 1_555 1_555
C75 C74 1_555 1_555
H65 C75 1_555 1_555
C76 C75 1_555 1_555
C77 C72 1_555 1_555
C78 C77 1_555 1_555
H66 C78 1_555 1_555
C79 C78 1_555 1_555
H67 C79 1_555 1_555
C80 C79 1_555 1_555
C81 C76 1_555 1_555
C82 C81 1_555 1_555
C83 C82 1_555 1_555
C84 C83 1_555 1_555
H68 C84 1_555 1_555
C85 C80 1_555 1_555
H69 C85 1_555 1_555
C86 C83 1_555 1_555
H70 C86 1_555 1_555
C87 C86 1_555 1_555
H71 C87 1_555 1_555
C88 C82 1_555 1_555
C89 C87 1_555 1_555
C90 C89 1_555 1_555
H72 C90 1_555 1_555
C91 C90 1_555 1_555
H73 C91 1_555 1_555
C92 C91 1_555 1_555
C93 C88 1_555 1_555
C94 C93 1_555 1_555
H74 C94 1_555 1_555
C95 C94 1_555 1_555
H75 C95 1_555 1_555
C96 C95 1_555 1_555
H76 C96 1_555 1_555
C97 C92 1_555 1_555
C98 C97 1_555 1_555
C99 C98 1_555 1_555
C100 C99 1_555 1_555
C101 C100 1_555 1_555
H77 C101 1_555 1_555
C102 C101 1_555 1_555
C103 C102 1_555 1_555
C104 C103 1_555 1_555
C105 C100 1_555 1_555
H78 C105 1_555 1_555
C106 C102 1_555 1_555
C107 C106 1_555 1_555
H79 C107 1_555 1_555
H80 C107 1_555 1_555
H81 C107 1_555 1_555
C108 C106 1_555 1_555
H82 C108 1_555 1_555
H83 C108 1_555 1_555
H84 C108 1_555 1_555
C109 C106 1_555 1_555
H85 C109 1_555 1_555
H86 C109 1_555 1_555
H87 C109 1_555 1_555
C110 C104 1_555 1_555
H88 C110 1_555 1_555
C111 H89 1_555 1_555
H90 C111 1_555 1_555
C112 C111 1_555 1_555
H91 C112 1_555 1_555
H92 C112 1_555 1_555
C113 H93 1_555 1_555
H94 C113 1_555 1_555
C114 C113 1_555 1_555
H95 C114 1_555 1_555
H96 C114 1_555 1_555
C115 H97 1_555 1_555
C116 C115 1_555 1_555
C117 C116 1_555 1_555
C118 C117 1_555 1_555
C119 C118 1_555 1_555
H98 C119 1_555 1_555
C120 C119 1_555 1_555
C121 C116 1_555 1_555
H99 C121 1_555 1_555
C122 C118 1_555 1_555
C123 C122 1_555 1_555
H100 C123 1_555 1_555
H101 C123 1_555 1_555
H102 C123 1_555 1_555
C124 C122 1_555 1_555
H103 C124 1_555 1_555
H104 C124 1_555 1_555
H105 C124 1_555 1_555
C125 C122 1_555 1_555
H106 C125 1_555 1_555
H107 C125 1_555 1_555
H108 C125 1_555 1_555
C126 C120 1_555 1_555
C127 C126 1_555 1_555
C128 C127 1_555 1_555
C129 C128 1_555 1_555
H109 C129 1_555 1_555
C130 C129 1_555 1_555
H110 C130 1_555 1_555
C131 C130 1_555 1_555
H111 C131 1_555 1_555
C132 C131 1_555 1_555
C133 C128 1_555 1_555
C134 C133 1_555 1_555
H112 C134 1_555 1_555
C135 C134 1_555 1_555
H113 C135 1_555 1_555
C136 C135 1_555 1_555
C137 C132 1_555 1_555
C138 C137 1_555 1_555
C139 C138 1_555 1_555
C140 C139 1_555 1_555
H114 C140 1_555 1_555
C141 C136 1_555 1_555
H115 C141 1_555 1_555
C142 C139 1_555 1_555
H116 C142 1_555 1_555
C143 C142 1_555 1_555
H117 C143 1_555 1_555
C144 C138 1_555 1_555
C145 C143 1_555 1_555
C146 C145 1_555 1_555
H118 C146 1_555 1_555
C147 C146 1_555 1_555
H119 C147 1_555 1_555
C148 C147 1_555 1_555
C149 C144 1_555 1_555
C150 C149 1_555 1_555
H120 C150 1_555 1_555
C151 C150 1_555 1_555
H121 C151 1_555 1_555
C152 C151 1_555 1_555
H122 C152 1_555 1_555
C153 C148 1_555 1_555
C154 C153 1_555 1_555
C155 C154 1_555 1_555
C156 C155 1_555 1_555
C157 C156 1_555 1_555
H123 C157 1_555 1_555
C158 C157 1_555 1_555
C159 C158 1_555 1_555
C160 C159 1_555 1_555
C161 C156 1_555 1_555
H124 C161 1_555 1_555
C162 C158 1_555 1_555
C163 C162 1_555 1_555
H125 C163 1_555 1_555
H126 C163 1_555 1_555
H127 C163 1_555 1_555
C164 C162 1_555 1_555
H128 C164 1_555 1_555
H129 C164 1_555 1_555
H130 C164 1_555 1_555
C165 C162 1_555 1_555
H131 C165 1_555 1_555
H132 C165 1_555 1_555
H133 C165 1_555 1_555
C166 C160 1_555 1_555
H134 C166 1_555 1_555
C167 H135 1_555 1_555
H136 C167 1_555 1_555
C168 C167 1_555 1_555
H137 C168 1_555 1_555
H138 C168 1_555 1_555
N1 C1 1_555 1_555
N2 C56 1_555 1_555
N3 C2 1_555 1_555
N4 C54 1_555 1_555
N5 C58 1_555 1_555
N6 C110 1_555 1_555
N7 C114 1_555 1_555
N8 C166 1_555 1_555
O7 C173 1_555 1_555
O8 C215 1_555 1_555
O9 C229 1_555 1_555
C169 H139 1_555 1_555
H140 C169 1_555 1_555
C170 C169 1_555 1_555
H141 C170 1_555 1_555
H142 C170 1_555 1_555
C171 H143 1_555 1_555
C172 C171 1_555 1_555
C173 C172 1_555 1_555
C174 C173 1_555 1_555
C175 C174 1_555 1_555
H144 C175 1_555 1_555
C176 C175 1_555 1_555
C177 C172 1_555 1_555
H145 C177 1_555 1_555
C178 C174 1_555 1_555
C179 C178 1_555 1_555
H146 C179 1_555 1_555
H147 C179 1_555 1_555
H148 C179 1_555 1_555
C180 C178 1_555 1_555
H149 C180 1_555 1_555
H150 C180 1_555 1_555
H151 C180 1_555 1_555
C181 C178 1_555 1_555
H152 C181 1_555 1_555
H153 C181 1_555 1_555
H154 C181 1_555 1_555
C182 C176 1_555 1_555
C183 C182 1_555 1_555
C184 C183 1_555 1_555
C185 C184 1_555 1_555
H155 C185 1_555 1_555
C186 C185 1_555 1_555
H156 C186 1_555 1_555
C187 C186 1_555 1_555
H157 C187 1_555 1_555
C188 C187 1_555 1_555
C189 C184 1_555 1_555
C190 C189 1_555 1_555
H158 C190 1_555 1_555
C191 C190 1_555 1_555
H159 C191 1_555 1_555
C192 C191 1_555 1_555
C193 C188 1_555 1_555
C194 C193 1_555 1_555
C195 C194 1_555 1_555
C196 C195 1_555 1_555
H160 C196 1_555 1_555
C197 C192 1_555 1_555
H161 C197 1_555 1_555
C198 C195 1_555 1_555
H162 C198 1_555 1_555
C199 C198 1_555 1_555
H163 C199 1_555 1_555
C200 C194 1_555 1_555
C201 C199 1_555 1_555
C202 C201 1_555 1_555
H164 C202 1_555 1_555
C203 C202 1_555 1_555
H165 C203 1_555 1_555
C204 C203 1_555 1_555
C205 C200 1_555 1_555
C206 C205 1_555 1_555
H166 C206 1_555 1_555
C207 C206 1_555 1_555
H167 C207 1_555 1_555
C208 C207 1_555 1_555
H168 C208 1_555 1_555
C209 C204 1_555 1_555
C210 C209 1_555 1_555
C211 C210 1_555 1_555
C212 C211 1_555 1_555
C213 C212 1_555 1_555
H169 C213 1_555 1_555
C214 C213 1_555 1_555
C215 C214 1_555 1_555
C216 C215 1_555 1_555
C217 C212 1_555 1_555
H170 C217 1_555 1_555
C218 C214 1_555 1_555
C219 C218 1_555 1_555
H171 C219 1_555 1_555
H172 C219 1_555 1_555
H173 C219 1_555 1_555
C220 C218 1_555 1_555
H174 C220 1_555 1_555
H175 C220 1_555 1_555
H176 C220 1_555 1_555
C221 C218 1_555 1_555
H177 C221 1_555 1_555
H178 C221 1_555 1_555
H179 C221 1_555 1_555
C222 C216 1_555 1_555
H180 C222 1_555 1_555
C223 H181 1_555 1_555
H182 C223 1_555 1_555
C224 C223 1_555 1_555
H183 C224 1_555 1_555
H184 C224 1_555 1_555
C225 H185 1_555 1_555
H186 C225 1_555 1_555
C226 C225 1_555 1_555
H187 C226 1_555 1_555
H188 C226 1_555 1_555
C227 H189 1_555 1_555
C228 C227 1_555 1_555
C229 C228 1_555 1_555
C230 C229 1_555 1_555
C231 C230 1_555 1_555
H190 C231 1_555 1_555
C232 C231 1_555 1_555
C233 C228 1_555 1_555
H191 C233 1_555 1_555
C234 C230 1_555 1_555
C235 C234 1_555 1_555
H192 C235 1_555 1_555
H193 C235 1_555 1_555
H194 C235 1_555 1_555
C236 C234 1_555 1_555
H195 C236 1_555 1_555
H196 C236 1_555 1_555
H197 C236 1_555 1_555
C237 C234 1_555 1_555
H198 C237 1_555 1_555
H199 C237 1_555 1_555
H200 C237 1_555 1_555
C238 C232 1_555 1_555
C239 C238 1_555 1_555
C240 C239 1_555 1_555
C241 C240 1_555 1_555
H201 C241 1_555 1_555
C242 C241 1_555 1_555
H202 C242 1_555 1_555
C243 C242 1_555 1_555
H203 C243 1_555 1_555
C244 C243 1_555 1_555
C245 C240 1_555 1_555
C246 C245 1_555 1_555
H204 C246 1_555 1_555
C247 C246 1_555 1_555
H205 C247 1_555 1_555
C248 C247 1_555 1_555
C249 C244 1_555 1_555
C250 C249 1_555 1_555
C251 C250 1_555 1_555
C252 C251 1_555 1_555
H206 C252 1_555 1_555
C253 C248 1_555 1_555
H207 C253 1_555 1_555
N9 C224 1_555 1_555
N10 C170 1_555 1_555
N11 C222 1_555 1_555
N12 C226 1_555 1_555
C254 H208 1_555 1_555
H209 C254 1_555 1_555
Cl1 C254 1_555 1_555
Cl2 C254 1_555 1_555
C255 H210 1_555 1_555
H211 C255 1_555 1_555
Cl3 C255 1_555 1_555
Cl4 C255 1_555 1_555
C256 H212 1_555 1_555
H213 C256 1_555 1_555
Cl5 C256 1_555 1_555
Cl6 C256 1_555 1_555
C257 H214 1_555 1_555
H215 C257 1_555 1_555
Cl7 C257 1_555 1_555
Cl8 C257 1_555 1_555
C258 H216 1_555 1_555
H217 C258 1_555 1_555
Cl9 C258 1_555 1_555
Cl10 C258 1_555 1_555
O7A C173A 1_555 1_555
O8A C215A 1_555 1_555
O9A C229A 1_555 1_555
C169A N9 1_555 1_555
H139A C169A 1_555 1_555
H140A C169A 1_555 1_555
C170A C169A 1_555 1_555
H141A C170A 1_555 1_555
H142A C170A 1_555 1_555
C171A H143A 1_555 1_555
C172A C171A 1_555 1_555
C173A C172A 1_555 1_555
C174A C173A 1_555 1_555
C175A C174A 1_555 1_555
H144A C175A 1_555 1_555
C176A C175A 1_555 1_555
C177A C172A 1_555 1_555
H145A C177A 1_555 1_555
C178A C174A 1_555 1_555
C179A C178A 1_555 1_555
H146A C179A 1_555 1_555
H147A C179A 1_555 1_555
H148A C179A 1_555 1_555
C180A C178A 1_555 1_555
H149A C180A 1_555 1_555
H150A C180A 1_555 1_555
H151A C180A 1_555 1_555
C181A C178A 1_555 1_555
H152A C181A 1_555 1_555
H153A C181A 1_555 1_555
H154A C181A 1_555 1_555
C182A C176A 1_555 1_555
C183A C182A 1_555 1_555
C184A C183A 1_555 1_555
C185A C184A 1_555 1_555
H155A C185A 1_555 1_555
C186A C185A 1_555 1_555
H156A C186A 1_555 1_555
C187A C186A 1_555 1_555
H157A C187A 1_555 1_555
C188A C187A 1_555 1_555
C189A C184A 1_555 1_555
C190A C189A 1_555 1_555
H158A C190A 1_555 1_555
C191A C190A 1_555 1_555
H159A C191A 1_555 1_555
C192A C191A 1_555 1_555
C193A C188A 1_555 1_555
C194A C193A 1_555 1_555
C195A C194A 1_555 1_555
C196A C195A 1_555 1_555
H160A C196A 1_555 1_555
C197A C192A 1_555 1_555
H161A C197A 1_555 1_555
C198A C195A 1_555 1_555
H162A C198A 1_555 1_555
C199A C198A 1_555 1_555
H163A C199A 1_555 1_555
C200A C194A 1_555 1_555
C201A C199A 1_555 1_555
C202A C201A 1_555 1_555
H164A C202A 1_555 1_555
C203A C202A 1_555 1_555
H165A C203A 1_555 1_555
C204A C203A 1_555 1_555
C205A C200A 1_555 1_555
C206A C205A 1_555 1_555
H166A C206A 1_555 1_555
C207A C206A 1_555 1_555
H167A C207A 1_555 1_555
C208A C207A 1_555 1_555
H168A C208A 1_555 1_555
C209A C204A 1_555 1_555
C210A C209A 1_555 1_555
C211A C210A 1_555 1_555
C212A C211A 1_555 1_555
C213A C212A 1_555 1_555
H169A C213A 1_555 1_555
C214A C213A 1_555 1_555
C215A C214A 1_555 1_555
C216A C215A 1_555 1_555
C217A C212A 1_555 1_555
H170A C217A 1_555 1_555
C218A C214A 1_555 1_555
C219A C218A 1_555 1_555
H171A C219A 1_555 1_555
H172A C219A 1_555 1_555
H173A C219A 1_555 1_555
C220A C218A 1_555 1_555
H174A C220A 1_555 1_555
H175A C220A 1_555 1_555
H176A C220A 1_555 1_555
C221A C218A 1_555 1_555
H177A C221A 1_555 1_555
H178A C221A 1_555 1_555
H179A C221A 1_555 1_555
C222A C216A 1_555 1_555
H180A C222A 1_555 1_555
C223A H181A 1_555 1_555
H182A C223A 1_555 1_555
C224A C223A 1_555 1_555
H183A C224A 1_555 1_555
H184A C224A 1_555 1_555
C225A H185A 1_555 1_555
H186A C225A 1_555 1_555
C226A C225A 1_555 1_555
H187A C226A 1_555 1_555
H188A C226A 1_555 1_555
C227A H189A 1_555 1_555
C228A C227A 1_555 1_555
C229A C228A 1_555 1_555
C230A C229A 1_555 1_555
C231A C230A 1_555 1_555
H190A C231A 1_555 1_555
C232A C231A 1_555 1_555
C233A C228A 1_555 1_555
H191A C233A 1_555 1_555
C234A C230A 1_555 1_555
C235A C234A 1_555 1_555
H192A C235A 1_555 1_555
H193A C235A 1_555 1_555
H194A C235A 1_555 1_555
C236A C234A 1_555 1_555
H195A C236A 1_555 1_555
H196A C236A 1_555 1_555
H197A C236A 1_555 1_555
C237A C234A 1_555 1_555
H198A C237A 1_555 1_555
H199A C237A 1_555 1_555
H200A C237A 1_555 1_555
C238A C232A 1_555 1_555
C239A C238A 1_555 1_555
C240A C239A 1_555 1_555
C241A C240A 1_555 1_555
H201A C241A 1_555 1_555
C242A C241A 1_555 1_555
H202A C242A 1_555 1_555
C243A C242A 1_555 1_555
H203A C243A 1_555 1_555
C244A C243A 1_555 1_555
C245A C240A 1_555 1_555
C246A C245A 1_555 1_555
H204A C246A 1_555 1_555
C247A C246A 1_555 1_555
H205A C247A 1_555 1_555
C248A C247A 1_555 1_555
C249A C250 1_555 1_555
C252A C251 1_555 1_555
H206A C252A 1_555 1_555
C253A C248A 1_555 1_555
H207A C253A 1_555 1_555
N9A C169 1_555 1_555
N10A C170A 1_555 1_555
N11A C222A 1_555 1_555
N12A C226A 1_555 1_555
C3 N3 1_555 1_555
C8 C9 1_555 1_555
C20 C21 1_555 1_555
C24 C25 1_555 1_555
C28 C29 1_555 1_555
C32 C33 1_555 1_555
C36 C37 1_555 1_555
C40 C41 1_555 1_555
C48 C49 1_555 1_555
C55 N4 1_555 1_555
C57 N1 1_555 1_555
C59 N5 1_555 1_555
C64 C65 1_555 1_555
C76 C77 1_555 1_555
C80 C81 1_555 1_555
C84 C85 1_555 1_555
C88 C89 1_555 1_555
C92 C93 1_555 1_555
C96 C97 1_555 1_555
C104 C105 1_555 1_555
C111 N6 1_555 1_555
C112 N2 1_555 1_555
C113 N1 1_555 1_555
C115 N7 1_555 1_555
C120 C121 1_555 1_555
C132 C133 1_555 1_555
C136 C137 1_555 1_555
C140 C141 1_555 1_555
C144 C145 1_555 1_555
C148 C149 1_555 1_555
C152 C153 1_555 1_555
C160 C161 1_555 1_555
C167 N8 1_555 1_555
C168 N2 1_555 1_555
C171 N10 1_555 1_555
C176 C177 1_555 1_555
C188 C189 1_555 1_555
C192 C193 1_555 1_555
C196 C197 1_555 1_555
C200 C201 1_555 1_555
C204 C205 1_555 1_555
C208 C209 1_555 1_555
C216 C217 1_555 1_555
C223 N11 1_555 1_555
C225 N9 1_555 1_555
C227 N12 1_555 1_555
C232 C233 1_555 1_555
C244 C245 1_555 1_555
C248 C249 1_555 1_555
C252 C253 1_555 1_555
C171A N10A 1_555 1_555
C176A C177A 1_555 1_555
C188A C189A 1_555 1_555
C192A C193A 1_555 1_555
C196A C197A 1_555 1_555
C200A C201A 1_555 1_555
C204A C205A 1_555 1_555
C208A C209A 1_555 1_555
C216A C217A 1_555 1_555
C223A N11A 1_555 1_555
C224A N9A 1_555 1_555
C225A N9A 1_555 1_555
C227A N12A 1_555 1_555
C232A C233A 1_555 1_555
C244A C245A 1_555 1_555
C244A C249A 1_555 1_555
C248A C249A 1_555 1_555
C252A C253A 1_555 1_555

#END
