
#######################################################################
#
#                 Cambridge Crystallographic Data Centre
#                                CCDC 
#
#######################################################################
#
# If this CIF has been generated from an entry in the Cambridge 
# Structural Database, then it will include bibliographic, chemical, 
# crystal, experimental, refinement or atomic coordinate data resulting 
# from the CCDC's data processing and validation procedures.
#
#######################################################################

data_ZERQAR
_chemical_formula_moiety         'C30 H16'
_chemical_name_systematic        4,13-diethynylhexahelicene
_symmetry_cell_setting           orthorhombic
_symmetry_space_group_name_H-M   'P 21 21 21'
_symmetry_Int_Tables_number      19
_space_group_name_Hall           'P 2ac 2ab'
loop_
_symmetry_equiv_pos_site_id
_symmetry_equiv_pos_as_xyz
1 x,y,z
2 1/2-x,-y,1/2+z
3 -x,1/2+y,1/2-z
4 1/2+x,1/2-y,-z
_cell_length_a                   5.146
_cell_length_b                   18.162
_cell_length_c                   20.254
_cell_angle_alpha                90
_cell_angle_beta                 90
_cell_angle_gamma                90
_cell_volume                     1892.97
_exptl_crystal_colour            colorless
_exptl_crystal_description       block
_cell_formula_units_Z            4
loop_
_atom_site_label
_atom_site_type_symbol
_atom_site_fract_x
_atom_site_fract_y
_atom_site_fract_z
C1 C 0.8403(5) -1.12181(13) -1.50159(11)
H1 H 0.951(4) -1.1018(13) -1.4683(10)
C2 C 0.7080(4) -1.14563(11) -1.54391(9)
C3 C 0.5533(4) -1.17381(10) -1.59760(9)
C4 C 0.3427(4) -1.13405(11) -1.62009(9)
H2 H 0.2981 -1.0886 -1.5998
C5 C 0.1953(4) -1.16090(10) -1.67279(9)
H3 H 0.0445 -1.1350 -1.6866
C6 C 0.2663(4) -1.22435(10) -1.70477(9)
H4 H 0.1651 -1.2410 -1.7410
C7 C 0.4862(4) -1.26560(9) -1.68520(9)
C8 C 0.6233(4) -1.24191(10) -1.62814(8)
C9 C 0.8206(4) -1.28780(11) -1.60085(9)
H5 H 0.9218 -1.2707 -1.5647
C10 C 0.8639(4) -1.35527(11) -1.62614(10)
H6 H 0.9861 -1.3867 -1.6051
C11 C 0.7320(4) -1.38084(10) -1.68346(9)
C12 C 0.5617(4) -1.33331(10) -1.71825(9)
C13 C 0.7604(5) -1.45543(10) -1.70348(10)
H7 H 0.8855 -1.4860 -1.6826
C14 C 0.6098(5) -1.48278(11) -1.75213(10)
H8 H 0.6091 -1.5343 -1.7604
C15 C 0.4526(4) -1.43572(10) -1.79119(10)
C16 C 0.4576(4) -1.35843(10) -1.78086(9)
C17 C 0.2894(5) -1.46621(11) -1.84079(10)
H9 H 0.2808 -1.5181 -1.8461
C18 C 0.1465(5) -1.42230(11) -1.88046(10)
H10 H 0.0197 -1.4432 -1.9089
C19 C 0.1857(4) -1.34487(11) -1.87965(9)
C20 C 0.3579(4) -1.31266(10) -1.83384(9)
C21 C 0.4419(4) -1.23730(10) -1.84675(8)
C22 C 0.3094(4) -1.19461(10) -1.89484(8)
C23 C 0.1095(4) -1.22761(11) -1.93354(9)
H11 H 0.0121 -1.1985 -1.9636
C24 C 0.0583(4) -1.30006(12) -1.92755(9)
H12 H -0.0662 -1.3219 -1.9561
C25 C 0.6612(4) -1.20588(10) -1.81618(9)
H13 H 0.7588 -1.2346 -1.7859
C26 C 0.7379(4) -1.13494(10) -1.82893(9)
H14 H 0.8880 -1.1156 -1.8078
C27 C 0.5970(4) -1.09097(11) -1.87270(9)
H15 H 0.6466 -1.0412 -1.8799
C28 C 0.3863(4) -1.11986(10) -1.90530(9)
C29 C 0.2401(4) -1.07380(11) -1.94990(9)
C30 C 0.1167(5) -1.03604(13) -1.98518(11)
H16 H 0.010(4) -1.0058(12) -2.0123(10)
loop_
_geom_bond_atom_site_label_1
_geom_bond_atom_site_label_2
_geom_bond_site_symmetry_1
_geom_bond_site_symmetry_2
C1 H1 1_555 1_555
C2 C1 1_555 1_555
C3 C2 1_555 1_555
C4 C3 1_555 1_555
H2 C4 1_555 1_555
C5 C4 1_555 1_555
H3 C5 1_555 1_555
C6 C5 1_555 1_555
H4 C6 1_555 1_555
C7 C6 1_555 1_555
C8 C3 1_555 1_555
C9 C8 1_555 1_555
H5 C9 1_555 1_555
C10 C9 1_555 1_555
H6 C10 1_555 1_555
C11 C10 1_555 1_555
C12 C7 1_555 1_555
C13 C11 1_555 1_555
H7 C13 1_555 1_555
C14 C13 1_555 1_555
H8 C14 1_555 1_555
C15 C14 1_555 1_555
C16 C12 1_555 1_555
C17 C15 1_555 1_555
H9 C17 1_555 1_555
C18 C17 1_555 1_555
H10 C18 1_555 1_555
C19 C18 1_555 1_555
C20 C16 1_555 1_555
C21 C20 1_555 1_555
C22 C21 1_555 1_555
C23 C22 1_555 1_555
H11 C23 1_555 1_555
C24 C19 1_555 1_555
H12 C24 1_555 1_555
C25 C21 1_555 1_555
H13 C25 1_555 1_555
C26 C25 1_555 1_555
H14 C26 1_555 1_555
C27 C26 1_555 1_555
H15 C27 1_555 1_555
C28 C22 1_555 1_555
C29 C28 1_555 1_555
C30 C29 1_555 1_555
H16 C30 1_555 1_555
C7 C8 1_555 1_555
C11 C12 1_555 1_555
C15 C16 1_555 1_555
C19 C20 1_555 1_555
C23 C24 1_555 1_555
C27 C28 1_555 1_555

#END
