
#######################################################################
#
#                 Cambridge Crystallographic Data Centre
#                                CCDC 
#
#######################################################################
#
# If this CIF has been generated from an entry in the Cambridge 
# Structural Database, then it will include bibliographic, chemical, 
# crystal, experimental, refinement or atomic coordinate data resulting 
# from the CCDC's data processing and validation procedures.
#
#######################################################################

data_ZERQOF
_chemical_formula_moiety         'C168 H144 N8 O6,2(C1 H2 Cl2),12.667(H2 O1)'
_chemical_name_systematic        
'(M,M,M)-6^5^,12^5^,22^5^,28^5^,37^5^,43^5^-hexa-t-butyl-6^6^,12^4^,22^6^,28^4^,37^6^,43^4^-hexahydroxy-6,12,22,28,37,43(1,3)-hexabenzena-9,25,40(4,13)-trihexahelicena-1,4,14,17,20,30,35,45-octa-azabicyclo[15.15.15]heptatetracontaphane-4,13,20,29,35,44-hexaene-7,10,23,26,38,41-hexayne dichloromethane solvate hydrate'
_symmetry_cell_setting           monoclinic
_symmetry_space_group_name_H-M   'C 2'
_symmetry_Int_Tables_number      5
_space_group_name_Hall           'C 2y'
loop_
_symmetry_equiv_pos_site_id
_symmetry_equiv_pos_as_xyz
1 x,y,z
2 -x,y,-z
3 1/2+x,1/2+y,z
4 1/2-x,1/2+y,-z
_cell_length_a                   47.826(2)
_cell_length_b                   21.1891(9)
_cell_length_c                   27.0097(12)
_cell_angle_alpha                90
_cell_angle_beta                 94.628(3)
_cell_angle_gamma                90
_cell_volume                     27282.1
_exptl_crystal_colour            colorless
_exptl_crystal_description       block
_cell_formula_units_Z            6
loop_
_atom_site_label
_atom_site_type_symbol
_atom_site_fract_x
_atom_site_fract_y
_atom_site_fract_z
O1 O 0.53397(16) 0.4282(4) 0.1858(3)
O2 O 0.90100(15) -0.1213(5) 0.2133(4)
O3 O 0.50541(16) 0.1467(5) 0.2703(4)
O4 O 0.93199(16) 0.1804(5) 0.1728(4)
O5 O 0.57072(15) 0.3533(3) 0.4262(3)
O6 O 0.87224(18) -0.0044(6) -0.0108(4)
C1 C 0.4641(2) 0.3798(7) 0.2779(5)
H1 H 0.4699 0.4235 0.2709
H2 H 0.4438 0.3800 0.2823
C2 C 0.4698(2) 0.3375(8) 0.2340(5)
H3 H 0.4691 0.2926 0.2442
H4 H 0.4551 0.3443 0.2066
C3 C 0.51573(19) 0.3084(5) 0.2161(4)
H5 H 0.5113 0.2677 0.2280
C4 C 0.54339(18) 0.3188(5) 0.1975(4)
C5 C 0.55165(17) 0.3800(5) 0.1825(3)
C6 C 0.57837(19) 0.3888(5) 0.1646(3)
C7 C 0.59536(18) 0.3361(5) 0.1621(3)
H6 H 0.6134 0.3414 0.1502
C8 C 0.58732(19) 0.2746(5) 0.1766(4)
C9 C 0.5614(2) 0.2673(5) 0.1946(4)
H7 H 0.5557 0.2269 0.2052
C10 C 0.5879(2) 0.4549(6) 0.1499(4)
C11 C 0.6177(3) 0.4497(8) 0.1324(7)
H8 H 0.6176 0.4204 0.1043
H9 H 0.6240 0.4914 0.1220
H10 H 0.6306 0.4341 0.1597
C12 C 0.5875(4) 0.4996(7) 0.1929(7)
H11 H 0.5937 0.5414 0.1828
H12 H 0.5684 0.5024 0.2034
H13 H 0.6002 0.4841 0.2206
C13 C 0.5696(3) 0.4783(11) 0.1038(7)
H14 H 0.5705 0.4478 0.0768
H15 H 0.5501 0.4828 0.1121
H16 H 0.5766 0.5193 0.0933
C14 C 0.60462(19) 0.2216(5) 0.1696(4)
C15 C 0.6177(2) 0.1738(6) 0.1621(5)
C16 C 0.63232(19) 0.1165(6) 0.1549(4)
C17 C 0.6526(2) 0.0957(6) 0.1889(4)
H17 H 0.6580 0.1210 0.2171
C18 C 0.6658(2) 0.0371(6) 0.1832(4)
H18 H 0.6795 0.0225 0.2079
C19 C 0.65905(19) 0.0020(6) 0.1429(4)
H19 H 0.6675 -0.0383 0.1403
C20 C 0.63944(18) 0.0232(5) 0.1033(4)
C21 C 0.62527(18) 0.0797(6) 0.1122(4)
C22 C 0.6027(2) 0.0972(7) 0.0768(5)
H20 H 0.5936 0.1363 0.0812
C23 C 0.5941(3) 0.0624(9) 0.0387(6)
H21 H 0.5786 0.0760 0.0172
C24 C 0.6081(2) 0.0021(9) 0.0287(5)
C25 C 0.63263(19) -0.0121(6) 0.0581(4)
C26 C 0.6497(2) -0.0678(6) 0.0434(4)
C27 C 0.6351(3) -0.1123(8) 0.0138(5)
C28 C 0.6080(3) -0.0982(11) -0.0118(6)
H22 H 0.5984 -0.1293 -0.0319
C29 C 0.5964(3) -0.0392(12) -0.0067(7)
H23 H 0.5803 -0.0270 -0.0275
C30 C 0.6462(3) -0.1758(8) 0.0083(6)
H24 H 0.6359 -0.2073 -0.0104
C31 C 0.6712(3) -0.1875(7) 0.0304(6)
H25 H 0.6779 -0.2297 0.0302
C32 C 0.6782(2) -0.0781(6) 0.0566(4)
C33 C 0.6892(2) -0.1400(6) 0.0550(4)
C34 C 0.7154(3) -0.1545(6) 0.0744(6)
H26 H 0.7210 -0.1975 0.0747
C35 C 0.7339(2) -0.1105(6) 0.0935(5)
H27 H 0.7517 -0.1228 0.1090
C36 C 0.72603(19) -0.0446(5) 0.0897(4)
C37 C 0.69906(19) -0.0282(5) 0.0688(3)
C38 C 0.6936(2) 0.0366(5) 0.0574(4)
H28 H 0.6765 0.0482 0.0392
C39 C 0.7131(2) 0.0831(6) 0.0727(5)
H29 H 0.7089 0.1264 0.0667
C40 C 0.7388(2) 0.0654(6) 0.0968(5)
H30 H 0.7517 0.0972 0.1082
C41 C 0.74566(19) 0.0044(6) 0.1043(4)
C42 C 0.7724(2) -0.0140(6) 0.1278(5)
C43 C 0.7951(2) -0.0301(5) 0.1457(5)
C44 C 0.8224(2) -0.0526(5) 0.1636(5)
C45 C 0.8285(2) -0.0702(5) 0.2140(5)
H31 H 0.8144 -0.0649 0.2364
C46 C 0.8538(2) -0.0944(5) 0.2316(5)
C47 C 0.8752(2) -0.0991(6) 0.1974(6)
C48 C 0.8698(2) -0.0843(5) 0.1481(5)
C49 C 0.8434(2) -0.0606(6) 0.1316(5)
H32 H 0.8398 -0.0498 0.0976
C50 C 0.8606(3) -0.1086(7) 0.2887(6)
C51 C 0.8333(3) -0.1025(8) 0.3169(6)
H33 H 0.8192 -0.1325 0.3030
H34 H 0.8378 -0.1117 0.3522
H35 H 0.8260 -0.0594 0.3132
C52 C 0.8825(3) -0.0628(8) 0.3096(6)
H36 H 0.8755 -0.0196 0.3053
H37 H 0.8869 -0.0714 0.3451
H38 H 0.8996 -0.0677 0.2921
C53 C 0.8701(4) -0.1784(9) 0.2940(9)
H39 H 0.8551 -0.2060 0.2798
H40 H 0.8869 -0.1848 0.2762
H41 H 0.8743 -0.1885 0.3292
C54 C 0.8899(2) -0.0916(7) 0.1116(5)
H42 H 0.8846 -0.0804 0.0781
C55 C 0.9341(3) -0.1228(10) 0.0837(6)
H43 H 0.9251 -0.1072 0.0517
H44 H 0.9376 -0.1685 0.0802
C56 C 0.9616(2) -0.0894(10) 0.0949(6)
H45 H 0.9690 -0.0999 0.1292
H46 H 0.9751 -0.1052 0.0720
C57 C 0.4654(2) 0.3057(7) 0.3459(5)
H47 H 0.4548 0.2812 0.3194
H48 H 0.4519 0.3227 0.3682
C58 C 0.4855(3) 0.2623(6) 0.3750(5)
H49 H 0.4984 0.2876 0.3977
H50 H 0.4749 0.2336 0.3955
C59 C 0.5277(2) 0.2267(5) 0.3468(5)
H51 H 0.5367 0.2541 0.3710
C60 C 0.5456(2) 0.1885(4) 0.3168(4)
C61 C 0.5334(2) 0.1489(5) 0.2804(5)
C62 C 0.5504(2) 0.1100(4) 0.2512(5)
C63 C 0.57992(19) 0.1153(4) 0.2617(4)
H52 H 0.5920 0.0914 0.2427
C64 C 0.59158(19) 0.1548(4) 0.2993(4)
C65 C 0.57413(19) 0.1914(4) 0.3259(4)
H53 H 0.5821 0.2190 0.3509
C66 C 0.5385(2) 0.0669(6) 0.2105(6)
C67 C 0.5218(5) 0.0130(12) 0.2362(14)
H54 H 0.5137 -0.0163 0.2109
H55 H 0.5346 -0.0101 0.2600
H56 H 0.5067 0.0319 0.2538
C68 C 0.5614(3) 0.0317(7) 0.1845(6)
H57 H 0.5526 0.0044 0.1584
H58 H 0.5736 0.0623 0.1697
H59 H 0.5726 0.0059 0.2088
C69 C 0.5207(5) 0.1048(11) 0.1693(10)
H60 H 0.5133 0.0758 0.1432
H61 H 0.5051 0.1259 0.1840
H62 H 0.5326 0.1365 0.1549
C70 C 0.6215(2) 0.1563(4) 0.3109(4)
C71 C 0.64572(19) 0.1566(4) 0.3228(4)
C72 C 0.67491(17) 0.1540(4) 0.3417(4)
C73 C 0.6947(2) 0.1918(4) 0.3207(4)
H63 H 0.6894 0.2180 0.2930
C74 C 0.7219(2) 0.1901(5) 0.3411(4)
H64 H 0.7351 0.2183 0.3287
C75 C 0.73077(17) 0.1496(4) 0.3786(4)
H65 H 0.7499 0.1500 0.3913
C76 C 0.71191(18) 0.1073(4) 0.3986(3)
C77 C 0.68324(18) 0.1125(4) 0.3820(4)
C78 C 0.6628(2) 0.0790(4) 0.4082(4)
H66 H 0.6435 0.0814 0.3967
C79 C 0.6703(2) 0.0450(5) 0.4480(4)
H67 H 0.6563 0.0261 0.4661
C80 C 0.6992(2) 0.0360(4) 0.4646(4)
C81 C 0.72031(18) 0.0605(4) 0.4363(3)
C82 C 0.74909(18) 0.0415(4) 0.4486(3)
C83 C 0.7563(2) 0.0177(5) 0.4972(4)
C84 C 0.7341(2) -0.0016(5) 0.5266(4)
H68 H 0.7387 -0.0181 0.5589
C85 C 0.7073(2) 0.0027(5) 0.5099(4)
H69 H 0.6933 -0.0164 0.5281
C86 C 0.7848(2) 0.0149(6) 0.5150(5)
H70 H 0.7895 -0.0008 0.5476
C87 C 0.8055(2) 0.0335(6) 0.4878(4)
H71 H 0.8242 0.0366 0.5023
C88 C 0.77170(19) 0.0455(4) 0.4151(4)
C89 C 0.7989(2) 0.0486(5) 0.4369(4)
C90 C 0.8216(2) 0.0655(5) 0.4067(5)
H72 H 0.8400 0.0707 0.4222
C91 C 0.8172(2) 0.0738(5) 0.3579(5)
H73 H 0.8320 0.0889 0.3395
C92 C 0.79004(18) 0.0598(4) 0.3325(4)
C93 C 0.76737(18) 0.0432(4) 0.3616(4)
C94 C 0.74290(18) 0.0206(4) 0.3367(4)
H74 H 0.7282 0.0057 0.3552
C95 C 0.73950(19) 0.0194(5) 0.2861(4)
H75 H 0.7225 0.0036 0.2702
C96 C 0.7606(2) 0.0408(5) 0.2568(4)
H76 H 0.7575 0.0418 0.2216
C97 C 0.78618(19) 0.0607(4) 0.2803(4)
C98 C 0.8086(2) 0.0798(5) 0.2525(4)
C99 C 0.8296(2) 0.0971(5) 0.2336(4)
C100 C 0.8553(2) 0.1162(5) 0.2153(3)
C101 C 0.8605(2) 0.1812(5) 0.2089(3)
H77 H 0.8459 0.2101 0.2144
C102 C 0.8855(2) 0.2050(5) 0.1950(3)
C103 C 0.9067(2) 0.1612(6) 0.1865(4)
C104 C 0.9022(2) 0.0946(5) 0.1935(4)
C105 C 0.8764(2) 0.0738(5) 0.2081(4)
H78 H 0.8734 0.0300 0.2132
C106 C 0.8898(3) 0.2765(6) 0.1914(5)
C107 C 0.9134(3) 0.2951(7) 0.2293(7)
H79 H 0.9302 0.2704 0.2238
H80 H 0.9175 0.3402 0.2259
H81 H 0.9079 0.2868 0.2628
C108 C 0.8990(4) 0.2918(8) 0.1378(7)
H82 H 0.9160 0.2680 0.1321
H83 H 0.8839 0.2800 0.1129
H84 H 0.9028 0.3371 0.1353
C109 C 0.8638(3) 0.3136(6) 0.1990(6)
H85 H 0.8488 0.3009 0.1742
H86 H 0.8580 0.3053 0.2324
H87 H 0.8677 0.3587 0.1954
C110 C 0.9249(2) 0.0492(7) 0.1880(4)
H88 H 0.9212 0.0057 0.1928
C111 C 0.9712(2) 0.0183(8) 0.1747(5)
H89 H 0.9645 -0.0233 0.1856
H90 H 0.9875 0.0308 0.1975
C112 C 0.9802(2) 0.0125(9) 0.1232(5)
H91 H 0.9834 0.0552 0.1099
H92 H 0.9982 -0.0107 0.1243
C113 C 0.4853(2) 0.4101(6) 0.3582(4)
H93 H 0.4878 0.3935 0.3925
H94 H 0.4691 0.4394 0.3562
C114 C 0.5118(2) 0.4461(5) 0.3465(4)
H95 H 0.5111 0.4552 0.3104
H96 H 0.5128 0.4869 0.3645
C115 C 0.55283(17) 0.3944(4) 0.3287(3)
H97 H 0.5480 0.4062 0.2952
C116 C 0.57942(17) 0.3597(4) 0.3408(3)
C117 C 0.58705(19) 0.3422(4) 0.3897(3)
C118 C 0.61364(18) 0.3105(4) 0.4012(4)
C119 C 0.63080(18) 0.3027(4) 0.3623(3)
H98 H 0.6487 0.2836 0.3691
C120 C 0.62296(18) 0.3216(4) 0.3140(4)
C121 C 0.59664(17) 0.3503(4) 0.3030(3)
H99 H 0.5909 0.3630 0.2701
C122 C 0.6222(2) 0.2881(5) 0.4540(4)
C123 C 0.6268(3) 0.3450(7) 0.4894(4)
H100 H 0.6323 0.3298 0.5231
H101 H 0.6417 0.3719 0.4781
H102 H 0.6094 0.3694 0.4895
C124 C 0.5999(3) 0.2431(6) 0.4724(5)
H103 H 0.6058 0.2293 0.5063
H104 H 0.5819 0.2650 0.4722
H105 H 0.5980 0.2062 0.4505
C125 C 0.6505(3) 0.2521(7) 0.4566(5)
H106 H 0.6554 0.2384 0.4908
H107 H 0.6487 0.2152 0.4347
H108 H 0.6652 0.2801 0.4459
C126 C 0.64188(18) 0.3190(4) 0.2751(3)
C127 C 0.65760(18) 0.3215(4) 0.2436(3)
C128 C 0.67690(17) 0.3331(4) 0.2068(3)
C129 C 0.68160(18) 0.2880(5) 0.1703(4)
H109 H 0.6725 0.2481 0.1703
C130 C 0.69973(19) 0.3025(4) 0.1343(3)
H110 H 0.7018 0.2737 0.1079
C131 C 0.71480(17) 0.3578(4) 0.1362(3)
H111 H 0.7274 0.3656 0.1114
C132 C 0.71222(18) 0.4026(4) 0.1731(3)
C133 C 0.69131(16) 0.3914(4) 0.2074(3)
C134 C 0.6842(2) 0.4410(5) 0.2392(4)
H112 H 0.6712 0.4330 0.2632
C135 C 0.6953(2) 0.4992(5) 0.2363(4)
H113 H 0.6885 0.5328 0.2552
C136 C 0.7176(2) 0.5103(4) 0.2044(4)
C137 C 0.72823(18) 0.4613(4) 0.1777(3)
C138 C 0.7537(2) 0.4722(5) 0.1526(4)
C139 C 0.7601(2) 0.5359(5) 0.1411(5)
C140 C 0.7460(3) 0.5868(5) 0.1659(6)
H114 H 0.7498 0.6295 0.1581
C141 C 0.7278(3) 0.5737(5) 0.1992(5)
H115 H 0.7216 0.6064 0.2198
C142 C 0.7800(3) 0.5490(6) 0.1075(5)
H116 H 0.7845 0.5917 0.1011
C143 C 0.7929(3) 0.5034(7) 0.0839(5)
H117 H 0.8039 0.5132 0.0572
C144 C 0.77274(19) 0.4232(5) 0.1375(3)
C145 C 0.7897(2) 0.4388(5) 0.0997(4)
C146 C 0.8049(2) 0.3905(7) 0.0772(4)
H118 H 0.8164 0.4015 0.0514
C147 C 0.8036(2) 0.3277(6) 0.0915(4)
H119 H 0.8121 0.2955 0.0735
C148 C 0.78884(17) 0.3128(5) 0.1346(3)
C149 C 0.77523(17) 0.3603(4) 0.1590(3)
C150 C 0.76542(17) 0.3461(5) 0.2064(3)
H120 H 0.7582 0.3788 0.2257
C151 C 0.76642(19) 0.2851(5) 0.2240(3)
H121 H 0.7593 0.2758 0.2551
C152 C 0.77763(19) 0.2377(5) 0.1971(3)
H122 H 0.7773 0.1956 0.2091
C153 C 0.78931(18) 0.2496(5) 0.1532(4)
C154 C 0.8021(2) 0.2005(6) 0.1265(4)
C155 C 0.8134(2) 0.1614(6) 0.1034(4)
C156 C 0.8286(2) 0.1156(6) 0.0763(4)
C157 C 0.8149(2) 0.0725(6) 0.0452(4)
H123 H 0.7950 0.0723 0.0437
C158 C 0.8276(2) 0.0292(6) 0.0156(4)
C159 C 0.8579(2) 0.0338(7) 0.0179(4)
C160 C 0.8726(2) 0.0768(6) 0.0495(4)
C161 C 0.8579(2) 0.1191(6) 0.0790(4)
H124 H 0.8677 0.1491 0.1000
C162 C 0.8120(3) -0.0144(8) -0.0205(6)
C163 C 0.7806(3) -0.0108(8) -0.0164(7)
H125 H 0.7710 -0.0397 -0.0404
H126 H 0.7765 -0.0227 0.0173
H127 H 0.7741 0.0324 -0.0233
C164 C 0.8168(3) 0.0071(10) -0.0737(6)
H128 H 0.8067 -0.0211 -0.0977
H129 H 0.8098 0.0503 -0.0788
H130 H 0.8369 0.0059 -0.0785
C165 C 0.8217(4) -0.0836(9) -0.0113(8)
H131 H 0.8113 -0.1115 -0.0352
H132 H 0.8418 -0.0870 -0.0153
H133 H 0.8180 -0.0962 0.0225
C166 C 0.9030(2) 0.0864(7) 0.0514(4)
H134 H 0.9120 0.1174 0.0726
C167 C 0.9478(3) 0.0574(11) 0.0257(5)
H135 H 0.9534 0.0721 -0.0069
H136 H 0.9537 0.0898 0.0508
C168 C 0.9622(3) -0.0014(12) 0.0387(6)
H137 H 0.9823 0.0034 0.0336
H138 H 0.9545 -0.0351 0.0162
N1 N 0.47946(16) 0.3578(4) 0.3235(3)
N2 N 0.95938(18) -0.0204(7) 0.0900(4)
N3 N 0.49754(16) 0.3520(5) 0.2169(4)
N4 N 0.91471(19) -0.1129(6) 0.1229(4)
N5 N 0.50155(19) 0.2258(4) 0.3430(4)
N6 N 0.94876(18) 0.0650(6) 0.1774(4)
N7 N 0.53643(16) 0.4089(4) 0.3611(3)
N8 N 0.9175(2) 0.0510(7) 0.0231(4)
O7 O 0.31212(16) 0.9078(3) 0.6537(3)
O8 O 0.68116(15) 0.5936(3) 0.3553(3)
O9 O 0.28157(15) 0.7685(4) 0.4301(3)
C169 C 0.2304(2) 0.8216(5) 0.6049(5)
H139 H 0.2365 0.8309 0.6401
H140 H 0.2096 0.8241 0.6011
C170 C 0.2423(2) 0.8710(5) 0.5724(5)
H141 H 0.2401 0.8573 0.5372
H142 H 0.2320 0.9113 0.5752
C171 C 0.2905(2) 0.8707(5) 0.5577(4)
H143 H 0.2846 0.8564 0.5252
C172 C 0.3202(2) 0.8809(4) 0.5706(4)
C173 C 0.3301(2) 0.8990(4) 0.6190(4)
C174 C 0.3594(2) 0.9090(4) 0.6311(4)
C175 C 0.3768(2) 0.9014(4) 0.5928(4)
H144 H 0.3963 0.9092 0.5997
C176 C 0.3672(2) 0.8826(4) 0.5436(4)
C177 C 0.3392(2) 0.8715(4) 0.5342(4)
H145 H 0.3324 0.8570 0.5022
C178 C 0.3709(2) 0.9258(5) 0.6839(4)
C179 C 0.3651(5) 0.8726(7) 0.7178(7)
H146 H 0.3448 0.8652 0.7164
H147 H 0.3745 0.8344 0.7073
H148 H 0.3720 0.8834 0.7519
C180 C 0.4015(3) 0.9354(9) 0.6871(6)
H149 H 0.4060 0.9702 0.6652
H150 H 0.4082 0.9457 0.7214
H151 H 0.4107 0.8968 0.6769
C181 C 0.3586(3) 0.9867(6) 0.7016(6)
H152 H 0.3381 0.9830 0.7002
H153 H 0.3660 0.9952 0.7358
H154 H 0.3637 1.0215 0.6801
C182 C 0.3878(3) 0.8726(5) 0.5072(4)
C183 C 0.4030(2) 0.8641(5) 0.4763(4)
C184 C 0.4213(2) 0.8488(5) 0.4384(4)
C185 C 0.4359(2) 0.7919(5) 0.4409(4)
H155 H 0.4354 0.7652 0.4691
C186 C 0.4514(2) 0.7748(5) 0.4012(5)
H156 H 0.4608 0.7353 0.4021
C187 C 0.4533(2) 0.8135(5) 0.3616(4)
H157 H 0.4639 0.7999 0.3352
C188 C 0.4404(2) 0.8724(5) 0.3579(4)
C189 C 0.4234(2) 0.8888(5) 0.3955(4)
C190 C 0.4062(3) 0.9433(6) 0.3899(6)
H158 H 0.3954 0.9565 0.4160
C191 C 0.4054(3) 0.9767(6) 0.3461(6)
H159 H 0.3928 1.0113 0.3421
C192 C 0.4215(3) 0.9632(6) 0.3085(6)
C193 C 0.4421(2) 0.9145(5) 0.3149(4)
C194 C 0.4623(3) 0.9073(6) 0.2769(4)
C195 C 0.4538(3) 0.9314(7) 0.2297(5)
C196 C 0.4314(4) 0.9754(10) 0.2235(7)
H160 H 0.4262 0.9924 0.1915
C197 C 0.4176(4) 0.9930(8) 0.2618(7)
H161 H 0.4047 1.0269 0.2576
C198 C 0.4675(5) 0.9095(11) 0.1886(5)
H162 H 0.4615 0.9248 0.1565
C199 C 0.4892(4) 0.8663(9) 0.1936(6)
H163 H 0.4959 0.8463 0.1653
C200 C 0.4887(2) 0.8766(6) 0.2838(4)
C201 C 0.5008(4) 0.8533(8) 0.2407(5)
C202 C 0.5252(4) 0.8171(8) 0.2467(6)
H164 H 0.5321 0.7995 0.2177
C203 C 0.5397(3) 0.8052(7) 0.2904(6)
H165 H 0.5556 0.7782 0.2924
C204 C 0.5305(3) 0.8344(5) 0.3338(5)
C205 C 0.5064(2) 0.8722(5) 0.3309(4)
C206 C 0.5010(2) 0.9091(5) 0.3723(4)
H166 H 0.4858 0.9380 0.3699
C207 C 0.5174(2) 0.9041(5) 0.4157(5)
H167 H 0.5130 0.9290 0.4433
C208 C 0.5408(2) 0.8627(6) 0.4212(4)
H168 H 0.5516 0.8589 0.4521
C209 C 0.5475(2) 0.8280(5) 0.3801(5)
C210 C 0.5716(3) 0.7886(5) 0.3831(5)
C211 C 0.5923(3) 0.7552(5) 0.3819(5)
C212 C 0.6159(2) 0.7145(4) 0.3777(4)
C213 C 0.6122(2) 0.6489(5) 0.3774(4)
H169 H 0.5941 0.6329 0.3829
C214 C 0.6330(2) 0.6066(4) 0.3698(4)
C215 C 0.6600(2) 0.6307(5) 0.3619(4)
C216 C 0.6641(2) 0.6977(4) 0.3624(4)
C217 C 0.6422(2) 0.7380(5) 0.3707(4)
H170 H 0.6452 0.7823 0.3716
C218 C 0.6274(2) 0.5352(4) 0.3687(4)
C219 C 0.6453(4) 0.5027(7) 0.4095(10)
H171 H 0.6415 0.5209 0.4417
H172 H 0.6409 0.4575 0.4094
H173 H 0.6651 0.5085 0.4040
C220 C 0.5966(3) 0.5208(5) 0.3792(7)
H174 H 0.5932 0.5360 0.4125
H175 H 0.5838 0.5422 0.3544
H176 H 0.5933 0.4752 0.3774
C221 C 0.6314(4) 0.5110(7) 0.3176(6)
H177 H 0.6191 0.5343 0.2932
H178 H 0.6509 0.5170 0.3104
H179 H 0.6267 0.4660 0.3158
C222 C 0.6908(3) 0.7247(5) 0.3503(4)
H180 H 0.6923 0.7693 0.3482
C223 C 0.7376(3) 0.7217(7) 0.3267(5)
H181 H 0.7338 0.7671 0.3208
H182 H 0.7424 0.7028 0.2949
C224 C 0.7622(2) 0.7151(6) 0.3640(5)
H183 H 0.7631 0.6710 0.3762
H184 H 0.7796 0.7235 0.3476
C225 C 0.2233(2) 0.7337(5) 0.5498(5)
H185 H 0.2201 0.7682 0.5253
H186 H 0.2047 0.7191 0.5590
C226 C 0.2382(3) 0.6787(7) 0.5256(6)
H187 H 0.2456 0.6484 0.5513
H188 H 0.2249 0.6561 0.5019
C227 C 0.2865(3) 0.6878(6) 0.5130(5)
H189 H 0.2895 0.6607 0.5410
C228 C 0.3103(2) 0.7075(5) 0.4883(4)
C229 C 0.3075(2) 0.7458(5) 0.4460(4)
C230 C 0.3310(2) 0.7617(5) 0.4191(4)
C231 C 0.3563(2) 0.7389(5) 0.4379(4)
H190 H 0.3725 0.7503 0.4217
C232 C 0.3600(2) 0.7000(5) 0.4794(4)
C233 C 0.3371(2) 0.6844(5) 0.5043(4)
H191 H 0.3393 0.6578 0.5327
C234 C 0.3274(3) 0.8040(6) 0.3731(4)
C235 C 0.3080(3) 0.7734(9) 0.3342(5)
H192 H 0.3152 0.7317 0.3262
H193 H 0.2894 0.7688 0.3465
H194 H 0.3065 0.7997 0.3042
C236 C 0.3556(3) 0.8132(8) 0.3495(5)
H195 H 0.3692 0.8332 0.3737
H196 H 0.3628 0.7721 0.3399
H197 H 0.3527 0.8402 0.3201
C237 C 0.3167(4) 0.8690(7) 0.3863(6)
H198 H 0.3297 0.8882 0.4118
H199 H 0.3153 0.8957 0.3566
H200 H 0.2982 0.8649 0.3990
C238 C 0.3880(3) 0.6744(5) 0.4940(4)
C239 C 0.4103(2) 0.6512(6) 0.5058(4)
C240 C 0.4368(2) 0.6223(5) 0.5189(4)
C241 C 0.4572(2) 0.6525(5) 0.5505(4)
H201 H 0.4542 0.6944 0.5615
C242 C 0.4814(2) 0.6212(5) 0.5652(4)
H202 H 0.4949 0.6407 0.5881
C243 C 0.4864(2) 0.5634(5) 0.5478(4)
H203 H 0.5037 0.5436 0.5584
C244 C 0.4679(3) 0.5311(5) 0.5154(4)
C245 C 0.4419(2) 0.5595(5) 0.5029(4)
C246 C 0.4198(3) 0.5255(6) 0.4741(4)
H204 H 0.4028 0.5464 0.4632
C247 C 0.4234(3) 0.4654(6) 0.4631(5)
H205 H 0.4084 0.4429 0.4461
C248 C 0.4493(3) 0.4333(5) 0.4762(5)
C249 C 0.4729(3) 0.4666(5) 0.4960(4)
C250 C 0.5000 0.4363(7) 0.5000
C251 C 0.5000 0.3686(7) 0.5000
C252 C 0.4755(4) 0.3355(6) 0.4865(5)
H206 H 0.4756 0.2907 0.4880
C253 C 0.4514(4) 0.3658(7) 0.4712(6)
H207 H 0.4358 0.3424 0.4570
N9 N 0.23893(18) 0.7580(4) 0.5934(4)
N10 N 0.27217(19) 0.8801(4) 0.5882(4)
N11 N 0.71205(19) 0.6912(5) 0.3423(4)
N12 N 0.2612(2) 0.7044(5) 0.4996(4)
O7A O 0.68788(16) 0.9078(3) 0.3463(3)
O8A O 0.31884(15) 0.5936(3) 0.6447(3)
O9A O 0.71843(15) 0.7685(4) 0.5699(3)
C169A C 0.7696(2) 0.8216(5) 0.3951(5)
H139A H 0.7635 0.8309 0.3599
H140A H 0.7904 0.8241 0.3989
C170A C 0.7577(2) 0.8710(5) 0.4276(5)
H141A H 0.7599 0.8573 0.4628
H142A H 0.7680 0.9113 0.4248
C171A C 0.7095(2) 0.8707(5) 0.4423(4)
H143A H 0.7154 0.8564 0.4748
C172A C 0.6798(2) 0.8809(4) 0.4294(4)
C173A C 0.6699(2) 0.8990(4) 0.3810(4)
C174A C 0.6406(2) 0.9090(4) 0.3689(4)
C175A C 0.6232(2) 0.9014(4) 0.4072(4)
H144A H 0.6037 0.9092 0.4003
C176A C 0.6328(2) 0.8826(4) 0.4564(4)
C177A C 0.6608(2) 0.8715(4) 0.4658(4)
H145A H 0.6676 0.8570 0.4978
C178A C 0.6291(2) 0.9258(5) 0.3161(4)
C179A C 0.6349(5) 0.8726(7) 0.2822(7)
H146A H 0.6552 0.8652 0.2836
H147A H 0.6255 0.8344 0.2927
H148A H 0.6280 0.8834 0.2481
C180A C 0.5985(3) 0.9354(9) 0.3129(6)
H149A H 0.5940 0.9702 0.3348
H150A H 0.5918 0.9457 0.2786
H151A H 0.5893 0.8968 0.3231
C181A C 0.6414(3) 0.9867(6) 0.2984(6)
H152A H 0.6619 0.9830 0.2998
H153A H 0.6340 0.9952 0.2642
H154A H 0.6363 1.0215 0.3199
C182A C 0.6122(3) 0.8726(5) 0.4928(4)
C183A C 0.5970(2) 0.8641(5) 0.5237(4)
C184A C 0.5787(2) 0.8488(5) 0.5616(4)
C185A C 0.5641(2) 0.7919(5) 0.5591(4)
H155A H 0.5646 0.7652 0.5309
C186A C 0.5486(2) 0.7748(5) 0.5988(5)
H156A H 0.5392 0.7353 0.5979
C187A C 0.5467(2) 0.8135(5) 0.6384(4)
H157A H 0.5361 0.7999 0.6648
C188A C 0.5596(2) 0.8724(5) 0.6421(4)
C189A C 0.5766(2) 0.8888(5) 0.6045(4)
C190A C 0.5938(3) 0.9433(6) 0.6101(6)
H158A H 0.6046 0.9565 0.5840
C191A C 0.5946(3) 0.9767(6) 0.6539(6)
H159A H 0.6072 1.0113 0.6579
C192A C 0.5785(3) 0.9632(6) 0.6915(6)
C193A C 0.5579(2) 0.9145(5) 0.6851(4)
C194A C 0.5377(3) 0.9073(6) 0.7231(4)
C195A C 0.5462(3) 0.9314(7) 0.7703(5)
C196A C 0.5686(4) 0.9754(10) 0.7765(7)
H160A H 0.5738 0.9924 0.8085
C197A C 0.5824(4) 0.9930(8) 0.7382(7)
H161A H 0.5953 1.0269 0.7424
C198A C 0.5325(5) 0.9095(11) 0.8114(5)
H162A H 0.5385 0.9248 0.8435
C199A C 0.5108(4) 0.8663(9) 0.8064(6)
H163A H 0.5041 0.8463 0.8347
C200A C 0.5113(2) 0.8766(6) 0.7162(4)
C201A C 0.4992(4) 0.8533(8) 0.7593(5)
C202A C 0.4748(4) 0.8171(8) 0.7533(6)
H164A H 0.4679 0.7995 0.7823
C203A C 0.4603(3) 0.8052(7) 0.7096(6)
H165A H 0.4444 0.7782 0.7076
C204A C 0.4695(3) 0.8344(5) 0.6662(5)
C205A C 0.4936(2) 0.8722(5) 0.6691(4)
C206A C 0.4990(2) 0.9091(5) 0.6277(4)
H166A H 0.5142 0.9380 0.6301
C207A C 0.4826(2) 0.9041(5) 0.5843(5)
H167A H 0.4870 0.9290 0.5567
C208A C 0.4592(2) 0.8627(6) 0.5788(4)
H168A H 0.4484 0.8589 0.5479
C209A C 0.4525(2) 0.8280(5) 0.6199(5)
C210A C 0.4284(3) 0.7886(5) 0.6169(5)
C211A C 0.4077(3) 0.7552(5) 0.6181(5)
C212A C 0.3841(2) 0.7145(4) 0.6223(4)
C213A C 0.3878(2) 0.6489(5) 0.6226(4)
H169A H 0.4059 0.6329 0.6171
C214A C 0.3670(2) 0.6066(4) 0.6302(4)
C215A C 0.3400(2) 0.6307(5) 0.6381(4)
C216A C 0.3359(2) 0.6977(4) 0.6376(4)
C217A C 0.3578(2) 0.7380(5) 0.6293(4)
H170A H 0.3548 0.7823 0.6284
C218A C 0.3726(2) 0.5352(4) 0.6313(4)
C219A C 0.3547(4) 0.5027(7) 0.5905(10)
H171A H 0.3585 0.5209 0.5583
H172A H 0.3591 0.4575 0.5906
H173A H 0.3349 0.5085 0.5960
C220A C 0.4034(3) 0.5208(5) 0.6208(7)
H174A H 0.4068 0.5360 0.5875
H175A H 0.4162 0.5422 0.6456
H176A H 0.4067 0.4752 0.6226
C221A C 0.3686(4) 0.5110(7) 0.6824(6)
H177A H 0.3809 0.5343 0.7068
H178A H 0.3491 0.5170 0.6896
H179A H 0.3733 0.4660 0.6842
C222A C 0.3092(3) 0.7247(5) 0.6497(4)
H180A H 0.3077 0.7693 0.6518
C223A C 0.2624(3) 0.7217(7) 0.6733(5)
H181A H 0.2662 0.7671 0.6792
H182A H 0.2576 0.7028 0.7051
C224A C 0.2378(2) 0.7151(6) 0.6360(5)
H183A H 0.2369 0.6710 0.6238
H184A H 0.2204 0.7235 0.6524
C225A C 0.7767(2) 0.7337(5) 0.4502(5)
H185A H 0.7799 0.7682 0.4747
H186A H 0.7953 0.7191 0.4410
C226A C 0.7618(3) 0.6787(7) 0.4744(6)
H187A H 0.7544 0.6484 0.4487
H188A H 0.7751 0.6561 0.4981
C227A C 0.7135(3) 0.6878(6) 0.4870(5)
H189A H 0.7105 0.6607 0.4590
C228A C 0.6897(2) 0.7075(5) 0.5117(4)
C229A C 0.6925(2) 0.7458(5) 0.5540(4)
C230A C 0.6690(2) 0.7617(5) 0.5809(4)
C231A C 0.6437(2) 0.7389(5) 0.5621(4)
H190A H 0.6275 0.7503 0.5783
C232A C 0.6400(2) 0.7000(5) 0.5206(4)
C233A C 0.6629(2) 0.6844(5) 0.4957(4)
H191A H 0.6607 0.6578 0.4673
C234A C 0.6726(3) 0.8040(6) 0.6269(4)
C235A C 0.6920(3) 0.7734(9) 0.6658(5)
H192A H 0.6848 0.7317 0.6738
H193A H 0.7106 0.7688 0.6535
H194A H 0.6935 0.7997 0.6958
C236A C 0.6444(3) 0.8132(8) 0.6505(5)
H195A H 0.6308 0.8332 0.6263
H196A H 0.6372 0.7721 0.6601
H197A H 0.6473 0.8402 0.6799
C237A C 0.6833(4) 0.8690(7) 0.6137(6)
H198A H 0.6703 0.8882 0.5882
H199A H 0.6847 0.8957 0.6434
H200A H 0.7018 0.8649 0.6010
C238A C 0.6120(3) 0.6744(5) 0.5060(4)
C239A C 0.5897(2) 0.6512(6) 0.4942(4)
C240A C 0.5632(2) 0.6223(5) 0.4811(4)
C241A C 0.5428(2) 0.6525(5) 0.4495(4)
H201A H 0.5458 0.6944 0.4385
C242A C 0.5186(2) 0.6212(5) 0.4348(4)
H202A H 0.5051 0.6407 0.4119
C243A C 0.5136(2) 0.5634(5) 0.4522(4)
H203A H 0.4963 0.5436 0.4416
C244A C 0.5321(3) 0.5311(5) 0.4846(4)
C245A C 0.5581(2) 0.5595(5) 0.4971(4)
C246A C 0.5802(3) 0.5255(6) 0.5259(4)
H204A H 0.5972 0.5464 0.5368
C247A C 0.5766(3) 0.4654(6) 0.5369(5)
H205A H 0.5916 0.4429 0.5539
C248A C 0.5507(3) 0.4333(5) 0.5238(5)
C249A C 0.5271(3) 0.4666(5) 0.5040(4)
C252A C 0.5245(4) 0.3355(6) 0.5135(5)
H206A H 0.5244 0.2907 0.5120
C253A C 0.5486(4) 0.3658(7) 0.5288(6)
H207A H 0.5642 0.3424 0.5430
N9A N 0.76107(18) 0.7580(4) 0.4066(4)
N10A N 0.72783(19) 0.8801(4) 0.4118(4)
N11A N 0.28795(19) 0.6912(5) 0.6577(4)
N12A N 0.7388(2) 0.7044(5) 0.5004(4)
O10 O 0.6333(4) -0.0090(8) -0.1325(14)
O11 O 0.4158(4) 1.0462(10) 0.5572(14)
O12 O 0.8491(3) -0.3111(6) 0.3930(5)
O13 O 0.5919(3) 0.6940(11) 0.2251(8)
O14 O 0.6472(3) 0.6437(6) 0.2175(7)
O15 O 0.5337(4) 0.5944(9) 0.2768(9)
O16 O 0.5316(3) 0.3381(7) 0.0368(8)
O17 O 0.4444(3) 0.5748(8) 0.3483(8)
O18 O 0.3932(2) 0.6347(6) 0.3600(5)
O19 O 0.7917(7) -0.2394(13) 0.1275(12)
O20 O 0.3286(9) 0.9663(9) 0.2606(9)
O21 O 0.4734(5) 1.0825(10) 0.5844(11)
O22 O 0.8881(5) -0.1985(12) -0.0215(10)
O23 O 0.6561(4) 0.2118(14) 0.0267(13)
O24 O 0.3725(6) 0.8326(9) 0.8570(5)
O25 O 0.7420(4) 0.5408(8) 0.3411(7)
O26 O 0.8467(6) -0.433(2) 0.4127(13)
O27 O 0.5787(6) 0.8479(14) 0.1609(8)
O28 O 0.4875(4) 0.6719(8) 0.2672(10)
C254 C 0.7415(4) 0.7268(9) -0.0162(6)
H208 H 0.7434 0.7001 -0.0458
H209 H 0.7244 0.7527 -0.0229
Cl1 Cl 0.7701(2) 0.7776(8) -0.0104(3)
Cl2 Cl 0.7362(2) 0.6771(3) 0.0335(4)
C255 C 0.7152(5) -0.1338(9) 0.2256(8)
H210 H 0.7081 -0.1196 0.2572
H211 H 0.7106 -0.1015 0.1998
Cl3 Cl 0.7516(5) -0.1478(11) 0.2330(8)
Cl4 Cl 0.7009(5) -0.2065(11) 0.2077(9)
C256 C 0.7070(3) 0.3749(12) 0.3557(6)
H212 H 0.6958 0.4137 0.3500
H213 H 0.6967 0.3395 0.3387
Cl5 Cl 0.7393(2) 0.3842(8) 0.3316(3)
Cl6 Cl 0.71181(17) 0.3594(4) 0.4189(3)
loop_
_geom_bond_atom_site_label_1
_geom_bond_atom_site_label_2
_geom_bond_site_symmetry_1
_geom_bond_site_symmetry_2
O1 C5 1_555 1_555
O2 C47 1_555 1_555
O3 C61 1_555 1_555
O4 C103 1_555 1_555
O5 C117 1_555 1_555
O6 C159 1_555 1_555
C1 H1 1_555 1_555
H2 C1 1_555 1_555
C2 C1 1_555 1_555
H3 C2 1_555 1_555
H4 C2 1_555 1_555
C3 H5 1_555 1_555
C4 C3 1_555 1_555
C5 C4 1_555 1_555
C6 C5 1_555 1_555
C7 C6 1_555 1_555
H6 C7 1_555 1_555
C8 C7 1_555 1_555
C9 C4 1_555 1_555
H7 C9 1_555 1_555
C10 C6 1_555 1_555
C11 C10 1_555 1_555
H8 C11 1_555 1_555
H9 C11 1_555 1_555
H10 C11 1_555 1_555
C12 C10 1_555 1_555
H11 C12 1_555 1_555
H12 C12 1_555 1_555
H13 C12 1_555 1_555
C13 C10 1_555 1_555
H14 C13 1_555 1_555
H15 C13 1_555 1_555
H16 C13 1_555 1_555
C14 C8 1_555 1_555
C15 C14 1_555 1_555
C16 C15 1_555 1_555
C17 C16 1_555 1_555
H17 C17 1_555 1_555
C18 C17 1_555 1_555
H18 C18 1_555 1_555
C19 C18 1_555 1_555
H19 C19 1_555 1_555
C20 C19 1_555 1_555
C21 C16 1_555 1_555
C22 C21 1_555 1_555
H20 C22 1_555 1_555
C23 C22 1_555 1_555
H21 C23 1_555 1_555
C24 C23 1_555 1_555
C25 C20 1_555 1_555
C26 C25 1_555 1_555
C27 C26 1_555 1_555
C28 C27 1_555 1_555
H22 C28 1_555 1_555
C29 C24 1_555 1_555
H23 C29 1_555 1_555
C30 C27 1_555 1_555
H24 C30 1_555 1_555
C31 C30 1_555 1_555
H25 C31 1_555 1_555
C32 C26 1_555 1_555
C33 C31 1_555 1_555
C34 C33 1_555 1_555
H26 C34 1_555 1_555
C35 C34 1_555 1_555
H27 C35 1_555 1_555
C36 C35 1_555 1_555
C37 C32 1_555 1_555
C38 C37 1_555 1_555
H28 C38 1_555 1_555
C39 C38 1_555 1_555
H29 C39 1_555 1_555
C40 C39 1_555 1_555
H30 C40 1_555 1_555
C41 C36 1_555 1_555
C42 C41 1_555 1_555
C43 C42 1_555 1_555
C44 C43 1_555 1_555
C45 C44 1_555 1_555
H31 C45 1_555 1_555
C46 C45 1_555 1_555
C47 C46 1_555 1_555
C48 C47 1_555 1_555
C49 C44 1_555 1_555
H32 C49 1_555 1_555
C50 C46 1_555 1_555
C51 C50 1_555 1_555
H33 C51 1_555 1_555
H34 C51 1_555 1_555
H35 C51 1_555 1_555
C52 C50 1_555 1_555
H36 C52 1_555 1_555
H37 C52 1_555 1_555
H38 C52 1_555 1_555
C53 C50 1_555 1_555
H39 C53 1_555 1_555
H40 C53 1_555 1_555
H41 C53 1_555 1_555
C54 C48 1_555 1_555
H42 C54 1_555 1_555
C55 H43 1_555 1_555
H44 C55 1_555 1_555
C56 C55 1_555 1_555
H45 C56 1_555 1_555
H46 C56 1_555 1_555
C57 H47 1_555 1_555
H48 C57 1_555 1_555
C58 C57 1_555 1_555
H49 C58 1_555 1_555
H50 C58 1_555 1_555
C59 H51 1_555 1_555
C60 C59 1_555 1_555
C61 C60 1_555 1_555
C62 C61 1_555 1_555
C63 C62 1_555 1_555
H52 C63 1_555 1_555
C64 C63 1_555 1_555
C65 C60 1_555 1_555
H53 C65 1_555 1_555
C66 C62 1_555 1_555
C67 C66 1_555 1_555
H54 C67 1_555 1_555
H55 C67 1_555 1_555
H56 C67 1_555 1_555
C68 C66 1_555 1_555
H57 C68 1_555 1_555
H58 C68 1_555 1_555
H59 C68 1_555 1_555
C69 C66 1_555 1_555
H60 C69 1_555 1_555
H61 C69 1_555 1_555
H62 C69 1_555 1_555
C70 C64 1_555 1_555
C71 C70 1_555 1_555
C72 C71 1_555 1_555
C73 C72 1_555 1_555
H63 C73 1_555 1_555
C74 C73 1_555 1_555
H64 C74 1_555 1_555
C75 C74 1_555 1_555
H65 C75 1_555 1_555
C76 C75 1_555 1_555
C77 C72 1_555 1_555
C78 C77 1_555 1_555
H66 C78 1_555 1_555
C79 C78 1_555 1_555
H67 C79 1_555 1_555
C80 C79 1_555 1_555
C81 C76 1_555 1_555
C82 C81 1_555 1_555
C83 C82 1_555 1_555
C84 C83 1_555 1_555
H68 C84 1_555 1_555
C85 C80 1_555 1_555
H69 C85 1_555 1_555
C86 C83 1_555 1_555
H70 C86 1_555 1_555
C87 C86 1_555 1_555
H71 C87 1_555 1_555
C88 C82 1_555 1_555
C89 C87 1_555 1_555
C90 C89 1_555 1_555
H72 C90 1_555 1_555
C91 C90 1_555 1_555
H73 C91 1_555 1_555
C92 C91 1_555 1_555
C93 C88 1_555 1_555
C94 C93 1_555 1_555
H74 C94 1_555 1_555
C95 C94 1_555 1_555
H75 C95 1_555 1_555
C96 C95 1_555 1_555
H76 C96 1_555 1_555
C97 C92 1_555 1_555
C98 C97 1_555 1_555
C99 C98 1_555 1_555
C100 C99 1_555 1_555
C101 C100 1_555 1_555
H77 C101 1_555 1_555
C102 C101 1_555 1_555
C103 C102 1_555 1_555
C104 C103 1_555 1_555
C105 C100 1_555 1_555
H78 C105 1_555 1_555
C106 C102 1_555 1_555
C107 C106 1_555 1_555
H79 C107 1_555 1_555
H80 C107 1_555 1_555
H81 C107 1_555 1_555
C108 C106 1_555 1_555
H82 C108 1_555 1_555
H83 C108 1_555 1_555
H84 C108 1_555 1_555
C109 C106 1_555 1_555
H85 C109 1_555 1_555
H86 C109 1_555 1_555
H87 C109 1_555 1_555
C110 C104 1_555 1_555
H88 C110 1_555 1_555
C111 H89 1_555 1_555
H90 C111 1_555 1_555
C112 C111 1_555 1_555
H91 C112 1_555 1_555
H92 C112 1_555 1_555
C113 H93 1_555 1_555
H94 C113 1_555 1_555
C114 C113 1_555 1_555
H95 C114 1_555 1_555
H96 C114 1_555 1_555
C115 H97 1_555 1_555
C116 C115 1_555 1_555
C117 C116 1_555 1_555
C118 C117 1_555 1_555
C119 C118 1_555 1_555
H98 C119 1_555 1_555
C120 C119 1_555 1_555
C121 C116 1_555 1_555
H99 C121 1_555 1_555
C122 C118 1_555 1_555
C123 C122 1_555 1_555
H100 C123 1_555 1_555
H101 C123 1_555 1_555
H102 C123 1_555 1_555
C124 C122 1_555 1_555
H103 C124 1_555 1_555
H104 C124 1_555 1_555
H105 C124 1_555 1_555
C125 C122 1_555 1_555
H106 C125 1_555 1_555
H107 C125 1_555 1_555
H108 C125 1_555 1_555
C126 C120 1_555 1_555
C127 C126 1_555 1_555
C128 C127 1_555 1_555
C129 C128 1_555 1_555
H109 C129 1_555 1_555
C130 C129 1_555 1_555
H110 C130 1_555 1_555
C131 C130 1_555 1_555
H111 C131 1_555 1_555
C132 C131 1_555 1_555
C133 C128 1_555 1_555
C134 C133 1_555 1_555
H112 C134 1_555 1_555
C135 C134 1_555 1_555
H113 C135 1_555 1_555
C136 C135 1_555 1_555
C137 C132 1_555 1_555
C138 C137 1_555 1_555
C139 C138 1_555 1_555
C140 C139 1_555 1_555
H114 C140 1_555 1_555
C141 C136 1_555 1_555
H115 C141 1_555 1_555
C142 C139 1_555 1_555
H116 C142 1_555 1_555
C143 C142 1_555 1_555
H117 C143 1_555 1_555
C144 C138 1_555 1_555
C145 C143 1_555 1_555
C146 C145 1_555 1_555
H118 C146 1_555 1_555
C147 C146 1_555 1_555
H119 C147 1_555 1_555
C148 C147 1_555 1_555
C149 C144 1_555 1_555
C150 C149 1_555 1_555
H120 C150 1_555 1_555
C151 C150 1_555 1_555
H121 C151 1_555 1_555
C152 C151 1_555 1_555
H122 C152 1_555 1_555
C153 C148 1_555 1_555
C154 C153 1_555 1_555
C155 C154 1_555 1_555
C156 C155 1_555 1_555
C157 C156 1_555 1_555
H123 C157 1_555 1_555
C158 C157 1_555 1_555
C159 C158 1_555 1_555
C160 C159 1_555 1_555
C161 C156 1_555 1_555
H124 C161 1_555 1_555
C162 C158 1_555 1_555
C163 C162 1_555 1_555
H125 C163 1_555 1_555
H126 C163 1_555 1_555
H127 C163 1_555 1_555
C164 C162 1_555 1_555
H128 C164 1_555 1_555
H129 C164 1_555 1_555
H130 C164 1_555 1_555
C165 C162 1_555 1_555
H131 C165 1_555 1_555
H132 C165 1_555 1_555
H133 C165 1_555 1_555
C166 C160 1_555 1_555
H134 C166 1_555 1_555
C167 H135 1_555 1_555
H136 C167 1_555 1_555
C168 C167 1_555 1_555
H137 C168 1_555 1_555
H138 C168 1_555 1_555
N1 C1 1_555 1_555
N2 C56 1_555 1_555
N3 C2 1_555 1_555
N4 C54 1_555 1_555
N5 C58 1_555 1_555
N6 C110 1_555 1_555
N7 C114 1_555 1_555
N8 C166 1_555 1_555
O7 C173 1_555 1_555
O8 C215 1_555 1_555
O9 C229 1_555 1_555
C169 H139 1_555 1_555
H140 C169 1_555 1_555
C170 C169 1_555 1_555
H141 C170 1_555 1_555
H142 C170 1_555 1_555
C171 H143 1_555 1_555
C172 C171 1_555 1_555
C173 C172 1_555 1_555
C174 C173 1_555 1_555
C175 C174 1_555 1_555
H144 C175 1_555 1_555
C176 C175 1_555 1_555
C177 C172 1_555 1_555
H145 C177 1_555 1_555
C178 C174 1_555 1_555
C179 C178 1_555 1_555
H146 C179 1_555 1_555
H147 C179 1_555 1_555
H148 C179 1_555 1_555
C180 C178 1_555 1_555
H149 C180 1_555 1_555
H150 C180 1_555 1_555
H151 C180 1_555 1_555
C181 C178 1_555 1_555
H152 C181 1_555 1_555
H153 C181 1_555 1_555
H154 C181 1_555 1_555
C182 C176 1_555 1_555
C183 C182 1_555 1_555
C184 C183 1_555 1_555
C185 C184 1_555 1_555
H155 C185 1_555 1_555
C186 C185 1_555 1_555
H156 C186 1_555 1_555
C187 C186 1_555 1_555
H157 C187 1_555 1_555
C188 C187 1_555 1_555
C189 C184 1_555 1_555
C190 C189 1_555 1_555
H158 C190 1_555 1_555
C191 C190 1_555 1_555
H159 C191 1_555 1_555
C192 C191 1_555 1_555
C193 C188 1_555 1_555
C194 C193 1_555 1_555
C195 C194 1_555 1_555
C196 C195 1_555 1_555
H160 C196 1_555 1_555
C197 C192 1_555 1_555
H161 C197 1_555 1_555
C198 C195 1_555 1_555
H162 C198 1_555 1_555
C199 C198 1_555 1_555
H163 C199 1_555 1_555
C200 C194 1_555 1_555
C201 C199 1_555 1_555
C202 C201 1_555 1_555
H164 C202 1_555 1_555
C203 C202 1_555 1_555
H165 C203 1_555 1_555
C204 C203 1_555 1_555
C205 C200 1_555 1_555
C206 C205 1_555 1_555
H166 C206 1_555 1_555
C207 C206 1_555 1_555
H167 C207 1_555 1_555
C208 C207 1_555 1_555
H168 C208 1_555 1_555
C209 C204 1_555 1_555
C210 C209 1_555 1_555
C211 C210 1_555 1_555
C212 C211 1_555 1_555
C213 C212 1_555 1_555
H169 C213 1_555 1_555
C214 C213 1_555 1_555
C215 C214 1_555 1_555
C216 C215 1_555 1_555
C217 C212 1_555 1_555
H170 C217 1_555 1_555
C218 C214 1_555 1_555
C219 C218 1_555 1_555
H171 C219 1_555 1_555
H172 C219 1_555 1_555
H173 C219 1_555 1_555
C220 C218 1_555 1_555
H174 C220 1_555 1_555
H175 C220 1_555 1_555
H176 C220 1_555 1_555
C221 C218 1_555 1_555
H177 C221 1_555 1_555
H178 C221 1_555 1_555
H179 C221 1_555 1_555
C222 C216 1_555 1_555
H180 C222 1_555 1_555
C223 H181 1_555 1_555
H182 C223 1_555 1_555
C224 C223 1_555 1_555
H183 C224 1_555 1_555
H184 C224 1_555 1_555
C225 H185 1_555 1_555
H186 C225 1_555 1_555
C226 C225 1_555 1_555
H187 C226 1_555 1_555
H188 C226 1_555 1_555
C227 H189 1_555 1_555
C228 C227 1_555 1_555
C229 C228 1_555 1_555
C230 C229 1_555 1_555
C231 C230 1_555 1_555
H190 C231 1_555 1_555
C232 C231 1_555 1_555
C233 C228 1_555 1_555
H191 C233 1_555 1_555
C234 C230 1_555 1_555
C235 C234 1_555 1_555
H192 C235 1_555 1_555
H193 C235 1_555 1_555
H194 C235 1_555 1_555
C236 C234 1_555 1_555
H195 C236 1_555 1_555
H196 C236 1_555 1_555
H197 C236 1_555 1_555
C237 C234 1_555 1_555
H198 C237 1_555 1_555
H199 C237 1_555 1_555
H200 C237 1_555 1_555
C238 C232 1_555 1_555
C239 C238 1_555 1_555
C240 C239 1_555 1_555
C241 C240 1_555 1_555
H201 C241 1_555 1_555
C242 C241 1_555 1_555
H202 C242 1_555 1_555
C243 C242 1_555 1_555
H203 C243 1_555 1_555
C244 C243 1_555 1_555
C245 C240 1_555 1_555
C246 C245 1_555 1_555
H204 C246 1_555 1_555
C247 C246 1_555 1_555
H205 C247 1_555 1_555
C248 C247 1_555 1_555
C249 C244 1_555 1_555
C250 C249 1_555 1_555
C251 C250 1_555 1_555
C252 C251 1_555 1_555
H206 C252 1_555 1_555
C253 C248 1_555 1_555
H207 C253 1_555 1_555
N9 C169 1_555 1_555
N10 C170 1_555 1_555
N11 C222 1_555 1_555
N12 C226 1_555 1_555
C254 H208 1_555 1_555
H209 C254 1_555 1_555
Cl1 C254 1_555 1_555
Cl2 C254 1_555 1_555
C255 H210 1_555 1_555
H211 C255 1_555 1_555
Cl3 C255 1_555 1_555
Cl4 C255 1_555 1_555
C256 H212 1_555 1_555
H213 C256 1_555 1_555
Cl5 C256 1_555 1_555
Cl6 C256 1_555 1_555
O7A C173A 1_555 1_555
O8A C215A 1_555 1_555
O9A C229A 1_555 1_555
C169A H139A 1_555 1_555
H140A C169A 1_555 1_555
C170A C169A 1_555 1_555
H141A C170A 1_555 1_555
H142A C170A 1_555 1_555
C171A H143A 1_555 1_555
C172A C171A 1_555 1_555
C173A C172A 1_555 1_555
C174A C173A 1_555 1_555
C175A C174A 1_555 1_555
H144A C175A 1_555 1_555
C176A C175A 1_555 1_555
C177A C172A 1_555 1_555
H145A C177A 1_555 1_555
C178A C174A 1_555 1_555
C179A C178A 1_555 1_555
H146A C179A 1_555 1_555
H147A C179A 1_555 1_555
H148A C179A 1_555 1_555
C180A C178A 1_555 1_555
H149A C180A 1_555 1_555
H150A C180A 1_555 1_555
H151A C180A 1_555 1_555
C181A C178A 1_555 1_555
H152A C181A 1_555 1_555
H153A C181A 1_555 1_555
H154A C181A 1_555 1_555
C182A C176A 1_555 1_555
C183A C182A 1_555 1_555
C184A C183A 1_555 1_555
C185A C184A 1_555 1_555
H155A C185A 1_555 1_555
C186A C185A 1_555 1_555
H156A C186A 1_555 1_555
C187A C186A 1_555 1_555
H157A C187A 1_555 1_555
C188A C187A 1_555 1_555
C189A C184A 1_555 1_555
C190A C189A 1_555 1_555
H158A C190A 1_555 1_555
C191A C190A 1_555 1_555
H159A C191A 1_555 1_555
C192A C191A 1_555 1_555
C193A C188A 1_555 1_555
C194A C193A 1_555 1_555
C195A C194A 1_555 1_555
C196A C195A 1_555 1_555
H160A C196A 1_555 1_555
C197A C192A 1_555 1_555
H161A C197A 1_555 1_555
C198A C195A 1_555 1_555
H162A C198A 1_555 1_555
C199A C198A 1_555 1_555
H163A C199A 1_555 1_555
C200A C194A 1_555 1_555
C201A C199A 1_555 1_555
C202A C201A 1_555 1_555
H164A C202A 1_555 1_555
C203A C202A 1_555 1_555
H165A C203A 1_555 1_555
C204A C203A 1_555 1_555
C205A C200A 1_555 1_555
C206A C205A 1_555 1_555
H166A C206A 1_555 1_555
C207A C206A 1_555 1_555
H167A C207A 1_555 1_555
C208A C207A 1_555 1_555
H168A C208A 1_555 1_555
C209A C204A 1_555 1_555
C210A C209A 1_555 1_555
C211A C210A 1_555 1_555
C212A C211A 1_555 1_555
C213A C212A 1_555 1_555
H169A C213A 1_555 1_555
C214A C213A 1_555 1_555
C215A C214A 1_555 1_555
C216A C215A 1_555 1_555
C217A C212A 1_555 1_555
H170A C217A 1_555 1_555
C218A C214A 1_555 1_555
C219A C218A 1_555 1_555
H171A C219A 1_555 1_555
H172A C219A 1_555 1_555
H173A C219A 1_555 1_555
C220A C218A 1_555 1_555
H174A C220A 1_555 1_555
H175A C220A 1_555 1_555
H176A C220A 1_555 1_555
C221A C218A 1_555 1_555
H177A C221A 1_555 1_555
H178A C221A 1_555 1_555
H179A C221A 1_555 1_555
C222A C216A 1_555 1_555
H180A C222A 1_555 1_555
C223A H181A 1_555 1_555
H182A C223A 1_555 1_555
C224A N9 1_555 1_555
H183A C224A 1_555 1_555
H184A C224A 1_555 1_555
C225A H185A 1_555 1_555
H186A C225A 1_555 1_555
C226A C225A 1_555 1_555
H187A C226A 1_555 1_555
H188A C226A 1_555 1_555
C227A H189A 1_555 1_555
C228A C227A 1_555 1_555
C229A C228A 1_555 1_555
C230A C229A 1_555 1_555
C231A C230A 1_555 1_555
H190A C231A 1_555 1_555
C232A C231A 1_555 1_555
C233A C228A 1_555 1_555
H191A C233A 1_555 1_555
C234A C230A 1_555 1_555
C235A C234A 1_555 1_555
H192A C235A 1_555 1_555
H193A C235A 1_555 1_555
H194A C235A 1_555 1_555
C236A C234A 1_555 1_555
H195A C236A 1_555 1_555
H196A C236A 1_555 1_555
H197A C236A 1_555 1_555
C237A C234A 1_555 1_555
H198A C237A 1_555 1_555
H199A C237A 1_555 1_555
H200A C237A 1_555 1_555
C238A C232A 1_555 1_555
C239A C238A 1_555 1_555
C240A C239A 1_555 1_555
C241A C240A 1_555 1_555
H201A C241A 1_555 1_555
C242A C241A 1_555 1_555
H202A C242A 1_555 1_555
C243A C242A 1_555 1_555
H203A C243A 1_555 1_555
C244A C243A 1_555 1_555
C245A C240A 1_555 1_555
C246A C245A 1_555 1_555
H204A C246A 1_555 1_555
C247A C246A 1_555 1_555
H205A C247A 1_555 1_555
C248A C247A 1_555 1_555
C249A C250 1_555 1_555
C252A C251 1_555 1_555
H206A C252A 1_555 1_555
C253A C248A 1_555 1_555
H207A C253A 1_555 1_555
N9A C224 1_555 1_555
N10A C170A 1_555 1_555
N11A C222A 1_555 1_555
N12A C226A 1_555 1_555
C3 N3 1_555 1_555
C8 C9 1_555 1_555
C20 C21 1_555 1_555
C24 C25 1_555 1_555
C28 C29 1_555 1_555
C32 C33 1_555 1_555
C36 C37 1_555 1_555
C40 C41 1_555 1_555
C48 C49 1_555 1_555
C55 N4 1_555 1_555
C57 N1 1_555 1_555
C59 N5 1_555 1_555
C64 C65 1_555 1_555
C76 C77 1_555 1_555
C80 C81 1_555 1_555
C84 C85 1_555 1_555
C88 C89 1_555 1_555
C92 C93 1_555 1_555
C96 C97 1_555 1_555
C104 C105 1_555 1_555
C111 N6 1_555 1_555
C112 N2 1_555 1_555
C113 N1 1_555 1_555
C115 N7 1_555 1_555
C120 C121 1_555 1_555
C132 C133 1_555 1_555
C136 C137 1_555 1_555
C140 C141 1_555 1_555
C144 C145 1_555 1_555
C148 C149 1_555 1_555
C152 C153 1_555 1_555
C160 C161 1_555 1_555
C167 N8 1_555 1_555
C168 N2 1_555 1_555
C171 N10 1_555 1_555
C176 C177 1_555 1_555
C188 C189 1_555 1_555
C192 C193 1_555 1_555
C196 C197 1_555 1_555
C200 C201 1_555 1_555
C204 C205 1_555 1_555
C208 C209 1_555 1_555
C216 C217 1_555 1_555
C223 N11 1_555 1_555
C225 N9 1_555 1_555
C227 N12 1_555 1_555
C232 C233 1_555 1_555
C244 C245 1_555 1_555
C248 C249 1_555 1_555
C252 C253 1_555 1_555
C169A N9A 1_555 1_555
C171A N10A 1_555 1_555
C176A C177A 1_555 1_555
C188A C189A 1_555 1_555
C192A C193A 1_555 1_555
C196A C197A 1_555 1_555
C200A C201A 1_555 1_555
C204A C205A 1_555 1_555
C208A C209A 1_555 1_555
C216A C217A 1_555 1_555
C223A C224A 1_555 1_555
C223A N11A 1_555 1_555
C225A N9A 1_555 1_555
C227A N12A 1_555 1_555
C232A C233A 1_555 1_555
C244A C245A 1_555 1_555
C244A C249A 1_555 1_555
C248A C249A 1_555 1_555
C252A C253A 1_555 1_555

#END
