
#######################################################################
#
#                 Cambridge Crystallographic Data Centre
#                                CCDC 
#
#######################################################################
#
# If this CIF has been generated from an entry in the Cambridge 
# Structural Database, then it will include bibliographic, chemical, 
# crystal, experimental, refinement or atomic coordinate data resulting 
# from the CCDC's data processing and validation procedures.
#
#######################################################################

data_ZESCOR
_chemical_formula_moiety         'C38 H44 N2'
_chemical_name_systematic        
N,N'-Butane-2,3-diylidenebis(2-ethyl-6-methyl-4-(1-phenylethyl)aniline)
_symmetry_cell_setting           triclinic
_symmetry_space_group_name_H-M   'P -1'
_symmetry_Int_Tables_number      2
_space_group_name_Hall           '-P 1'
loop_
_symmetry_equiv_pos_site_id
_symmetry_equiv_pos_as_xyz
1 x,y,z
2 -x,-y,-z
_cell_length_a                   8.136(19)
_cell_length_b                   8.54(2)
_cell_length_c                   11.79(3)
_cell_angle_alpha                86.97(2)
_cell_angle_beta                 80.99(2)
_cell_angle_gamma                79.16(2)
_cell_volume                     794.41
_exptl_crystal_colour            yellow
_exptl_crystal_description       block
_cell_formula_units_Z            1
loop_
_atom_site_label
_atom_site_type_symbol
_atom_site_fract_x
_atom_site_fract_y
_atom_site_fract_z
C1 C 0.2937(7) 0.3378(8) 0.3343(5)
C2 C 0.3535(8) 0.1807(8) 0.3588(5)
C3 C 0.5129(8) 0.1104(7) 0.3066(6)
H1 H 0.5518 0.0032 0.3226
C4 C 0.6156(7) 0.1920(7) 0.2324(6)
C5 C 0.5527(7) 0.3485(7) 0.2078(6)
H2 H 0.6186 0.4070 0.1570
C6 C 0.3909(10) 0.4219(9) 0.2579(8)
C7 C 0.7950(8) 0.1143(9) 0.1800(8)
H3 H 0.8208 0.1844 0.1137
C8 C 0.7947(7) -0.0426(8) 0.1253(6)
C9 C 0.7177(9) -0.0431(8) 0.0318(7)
H4 H 0.6630 0.0533 0.0037
C10 C 0.7175(10) -0.1806(12) -0.0232(7)
H5 H 0.6683 -0.1779 -0.0895
C11 C 0.7948(11) -0.3275(10) 0.0243(8)
H6 H 0.7905 -0.4238 -0.0075
C12 C 0.8719(10) -0.3257(8) 0.1131(8)
H7 H 0.9279 -0.4212 0.1416
C13 C 0.8719(8) -0.1841(9) 0.1659(6)
H8 H 0.9257 -0.1866 0.2301
C14 C 0.0913(7) 0.4675(7) 0.4793(5)
C15 C 0.2182(8) 0.4794(11) 0.5566(6)
H9 H 0.3297 0.4358 0.5192
H10 H 0.1933 0.4206 0.6269
H11 H 0.2127 0.5893 0.5732
C16 C 0.2475(10) 0.0872(12) 0.4433(8)
H12 H 0.2089 0.1460 0.5125
H13 H 0.3145 -0.0138 0.4605
H14 H 0.1518 0.0701 0.4104
C17 C 0.3274(11) 0.5986(9) 0.2135(8)
H15 H 0.3725 0.6089 0.1328
H16 H 0.2050 0.6186 0.2205
C18 C 0.3747(14) 0.7062(13) 0.2715(10)
H17 H 0.3273 0.6988 0.3510
H18 H 0.3353 0.8108 0.2414
H19 H 0.4959 0.6873 0.2644
C19 C 0.9188(10) 0.1238(11) 0.2455(8)
H20 H 0.8864 0.0853 0.3222
H21 H 0.9326 0.2328 0.2476
H22 H 1.0238 0.0599 0.2124
N1 N 0.1236(6) 0.4082(6) 0.3801(4)
C1A C -0.2937(7) 0.6622(8) 0.6657(5)
C2A C -0.3535(8) 0.8193(8) 0.6412(5)
C3A C -0.5129(8) 0.8896(7) 0.6934(6)
H1A H -0.5518 0.9968 0.6774
C4A C -0.6156(7) 0.8080(7) 0.7676(6)
C5A C -0.5527(7) 0.6515(7) 0.7922(6)
H2A H -0.6186 0.5930 0.8430
C6A C -0.3909(10) 0.5781(9) 0.7421(8)
C7A C -0.7950(8) 0.8857(9) 0.8200(8)
H3A H -0.8208 0.8156 0.8863
C8A C -0.7947(7) 1.0426(8) 0.8747(6)
C9A C -0.7177(9) 1.0431(8) 0.9682(7)
H4A H -0.6630 0.9467 0.9963
C10A C -0.7175(10) 1.1806(12) 1.0232(7)
H5A H -0.6683 1.1779 1.0895
C11A C -0.7948(11) 1.3275(10) 0.9757(8)
H6A H -0.7905 1.4238 1.0075
C12A C -0.8719(10) 1.3257(8) 0.8869(8)
H7A H -0.9279 1.4212 0.8584
C13A C -0.8719(8) 1.1841(9) 0.8341(6)
H8A H -0.9257 1.1866 0.7699
C14A C -0.0913(7) 0.5325(7) 0.5207(5)
C15A C -0.2182(8) 0.5206(11) 0.4434(6)
H9A H -0.3297 0.5642 0.4808
H10A H -0.1933 0.5794 0.3731
H11A H -0.2127 0.4107 0.4268
C16A C -0.2475(10) 0.9128(12) 0.5567(8)
H12A H -0.2089 0.8540 0.4875
H13A H -0.3145 1.0138 0.5395
H14A H -0.1518 0.9299 0.5896
C17A C -0.3274(11) 0.4014(9) 0.7865(8)
H15A H -0.3725 0.3911 0.8672
H16A H -0.2050 0.3814 0.7795
C18A C -0.3747(14) 0.2938(13) 0.7285(10)
H17A H -0.3273 0.3012 0.6490
H18A H -0.3353 0.1892 0.7586
H19A H -0.4959 0.3127 0.7356
C19A C -0.9188(10) 0.8762(11) 0.7545(8)
H20A H -0.8864 0.9147 0.6778
H21A H -0.9326 0.7672 0.7524
H22A H -1.0238 0.9401 0.7876
N1A N -0.1236(6) 0.5918(6) 0.6199(4)
loop_
_geom_bond_atom_site_label_1
_geom_bond_atom_site_label_2
_geom_bond_site_symmetry_1
_geom_bond_site_symmetry_2
C1 C2 1_555 1_555
C2 C3 1_555 1_555
C3 H1 1_555 1_555
C4 C3 1_555 1_555
C5 C4 1_555 1_555
H2 C5 1_555 1_555
C6 C1 1_555 1_555
C7 C4 1_555 1_555
H3 C7 1_555 1_555
C8 C7 1_555 1_555
C9 C8 1_555 1_555
H4 C9 1_555 1_555
C10 C9 1_555 1_555
H5 C10 1_555 1_555
C11 C10 1_555 1_555
H6 C11 1_555 1_555
C12 C11 1_555 1_555
H7 C12 1_555 1_555
C13 C8 1_555 1_555
H8 C13 1_555 1_555
C14 C15 1_555 1_555
C15 H9 1_555 1_555
H10 C15 1_555 1_555
H11 C15 1_555 1_555
C16 C2 1_555 1_555
H12 C16 1_555 1_555
H13 C16 1_555 1_555
H14 C16 1_555 1_555
C17 C6 1_555 1_555
H15 C17 1_555 1_555
H16 C17 1_555 1_555
C18 C17 1_555 1_555
H17 C18 1_555 1_555
H18 C18 1_555 1_555
H19 C18 1_555 1_555
C19 C7 1_555 1_555
H20 C19 1_555 1_555
H21 C19 1_555 1_555
H22 C19 1_555 1_555
N1 C1 1_555 1_555
C1A C2A 1_555 1_555
C2A C3A 1_555 1_555
C3A H1A 1_555 1_555
C4A C3A 1_555 1_555
C5A C4A 1_555 1_555
H2A C5A 1_555 1_555
C6A C1A 1_555 1_555
C7A C4A 1_555 1_555
H3A C7A 1_555 1_555
C8A C7A 1_555 1_555
C9A C8A 1_555 1_555
H4A C9A 1_555 1_555
C10A C9A 1_555 1_555
H5A C10A 1_555 1_555
C11A C10A 1_555 1_555
H6A C11A 1_555 1_555
C12A C11A 1_555 1_555
H7A C12A 1_555 1_555
C13A C8A 1_555 1_555
H8A C13A 1_555 1_555
C14A C14 1_555 1_555
C15A C14A 1_555 1_555
H9A C15A 1_555 1_555
H10A C15A 1_555 1_555
H11A C15A 1_555 1_555
C16A C2A 1_555 1_555
H12A C16A 1_555 1_555
H13A C16A 1_555 1_555
H14A C16A 1_555 1_555
C17A C6A 1_555 1_555
H15A C17A 1_555 1_555
H16A C17A 1_555 1_555
C18A C17A 1_555 1_555
H17A C18A 1_555 1_555
H18A C18A 1_555 1_555
H19A C18A 1_555 1_555
C19A C7A 1_555 1_555
H20A C19A 1_555 1_555
H21A C19A 1_555 1_555
H22A C19A 1_555 1_555
N1A C1A 1_555 1_555
C5 C6 1_555 1_555
C12 C13 1_555 1_555
C14 N1 1_555 1_555
C5A C6A 1_555 1_555
C12A C13A 1_555 1_555
C14A N1A 1_555 1_555

#END
