
#######################################################################
#
#                 Cambridge Crystallographic Data Centre
#                                CCDC 
#
#######################################################################
#
# If this CIF has been generated from an entry in the Cambridge 
# Structural Database, then it will include bibliographic, chemical, 
# crystal, experimental, refinement or atomic coordinate data resulting 
# from the CCDC's data processing and validation procedures.
#
#######################################################################

data_ZESDUY
_chemical_formula_moiety         'C20 H28 Ba2 N8 O24,2(H2 O1)'
_chemical_name_systematic        
'bis(\m~2~-4-Carboxy-1H-pyrazole-3-carboxylato)-octa-aqua-bis(4-carboxy-1H-pyrazole-3-carboxylato)-di-barium(ii) dihydrate'
_symmetry_cell_setting           triclinic
_symmetry_space_group_name_H-M   'P -1'
_symmetry_Int_Tables_number      2
_space_group_name_Hall           '-P 1'
loop_
_symmetry_equiv_pos_site_id
_symmetry_equiv_pos_as_xyz
1 x,y,z
2 -x,-y,-z
_cell_length_a                   7.2685(7)
_cell_length_b                   7.2731(7)
_cell_length_c                   18.2570(17)
_cell_angle_alpha                101.055(2)
_cell_angle_beta                 92.230(2)
_cell_angle_gamma                107.932(2)
_cell_volume                     896.252
_cell_formula_units_Z            1
loop_
_atom_site_label
_atom_site_type_symbol
_atom_site_fract_x
_atom_site_fract_y
_atom_site_fract_z
Ba1 Ba 0.7645(1) 0.7535(1) 0.2652
C1 C 1.245(2) 1.134(3) 0.4902(10)
H1 H 1.2971 1.2471 0.5281
C2 C 1.238(2) 0.942(2) 0.4925(9)
C3 C 1.311(2) 0.887(3) 0.5593(10)
C4 C 1.143(2) 0.829(2) 0.4224(10)
C5 C 1.088(3) 0.610(2) 0.3893(10)
C6 C 0.635(3) 0.759(3) -0.0094(10)
H2 H 0.5569 0.7582 -0.0512
C7 C 0.823(2) 0.757(2) -0.008(1)
C8 C 0.932(3) 0.752(3) -0.0751(10)
C9 C 0.876(2) 0.761(2) 0.0679(9)
C10 C 1.062(2) 0.763(3) 0.1062(10)
N1 N 1.162(2) 1.124(2) 0.4218(8)
H3 H 1.1387 1.2184 0.4021
N2 N 1.096(2) 0.940(2) 0.3798(8)
N3 N 0.585(2) 0.763(3) 0.0590(8)
H4 H 0.4711 0.7605 0.0730
N4 N 0.7295(19) 0.767(2) 0.1089(8)
O1 O 0.979(2) 0.5421(19) 0.3303(8)
O2 O 1.164(2) 0.5125(19) 0.4245(9)
O3 O 1.314(2) 0.705(2) 0.5505(9)
H5 H 1.2377 0.6356 0.5142
O4 O 1.367(2) 1.007(2) 0.6198(8)
O5 O 1.0733(18) 0.773(2) 0.1760(7)
O6 O 1.1980(19) 0.755(2) 0.0668(8)
O7 O 1.108(2) 0.742(2) -0.0665(8)
H6 H 1.1247 0.7112 -0.0266
O8 O 0.860(2) 0.761(2) -0.1352(7)
O9 O 0.372(2) 0.617(3) 0.2200(13)
H7 H 0.3195 0.6993 0.2140
H8 H 0.2914 0.5071 0.2046
O10 O 0.659(2) 0.366(2) 0.1816(8)
H9 H 0.5480 0.2889 0.1764
H10 H 0.7204 0.3177 0.1508
O11 O 0.551(2) 0.516(2) 0.3567(10)
H11 H 0.4635 0.4769 0.3826
H12 H 0.6424 0.4815 0.3692
O12 O 0.950(3) 1.151(2) 0.2642(9)
H13 H 0.9512 1.2606 0.2865
H14 H 1.0084 1.1655 0.2270
Ba1A Ba 1.2355(1) 1.2465(1) 0.7348
C1A C 0.755(2) 0.866(3) 0.5098(10)
H1A H 0.7029 0.7529 0.4719
C2A C 0.762(2) 1.058(2) 0.5075(9)
C3A C 0.689(2) 1.113(3) 0.4407(10)
C4A C 0.857(2) 1.171(2) 0.5776(10)
C5A C 0.912(3) 1.390(2) 0.6107(10)
C6A C 1.365(3) 1.241(3) 1.0094(10)
H2A H 1.4431 1.2418 1.0512
C7A C 1.177(2) 1.243(2) 1.008(1)
C8A C 1.068(3) 1.248(3) 1.0751(10)
C9A C 1.124(2) 1.239(2) 0.9321(9)
C10A C 0.938(2) 1.237(3) 0.8938(10)
N1A N 0.838(2) 0.876(2) 0.5782(8)
H3A H 0.8613 0.7816 0.5979
N2A N 0.904(2) 1.060(2) 0.6202(8)
N3A N 1.415(2) 1.237(3) 0.9410(8)
H4A H 1.5289 1.2395 0.9270
N4A N 1.2705(19) 1.233(2) 0.8911(8)
O1A O 1.021(2) 1.4579(19) 0.6697(8)
O2A O 0.836(2) 1.4875(19) 0.5755(9)
O3A O 0.686(2) 1.295(2) 0.4495(9)
H5A H 0.7623 1.3644 0.4858
O4A O 0.633(2) 0.993(2) 0.3802(8)
O5A O 0.9267(18) 1.227(2) 0.8240(7)
O6A O 0.8020(19) 1.245(2) 0.9332(8)
O7A O 0.892(2) 1.258(2) 1.0665(8)
H6A H 0.8753 1.2888 1.0266
O8A O 1.140(2) 1.239(2) 1.1352(7)
O9A O 1.628(2) 1.383(3) 0.7800(13)
H7A H 1.6805 1.3007 0.7860
H8A H 1.7086 1.4929 0.7954
O10A O 1.341(2) 1.634(2) 0.8184(8)
H9A H 1.4520 1.7111 0.8236
H10A H 1.2796 1.6823 0.8492
O11A O 1.449(2) 1.484(2) 0.6433(10)
H11A H 1.5365 1.5231 0.6174
H12A H 1.3576 1.5185 0.6308
O12A O 1.050(3) 0.849(2) 0.7358(9)
H13A H 1.0488 0.7394 0.7135
H14A H 0.9916 0.8345 0.7730
O13 O 0.450(4) 0.080(4) 0.2562(17)
H15 H 0.5206 0.0693 0.2902
H16 H 0.3119 0.0144 0.2571
loop_
_geom_bond_atom_site_label_1
_geom_bond_atom_site_label_2
_geom_bond_site_symmetry_1
_geom_bond_site_symmetry_2
Ba1 N2 1_555 1_555
C1 H1 1_555 1_555
C2 C1 1_555 1_555
C3 C2 1_555 1_555
C4 C2 1_555 1_555
C5 C4 1_555 1_555
C6 H2 1_555 1_555
C7 C6 1_555 1_555
C8 C7 1_555 1_555
C9 C7 1_555 1_555
C10 C9 1_555 1_555
N1 C1 1_555 1_555
H3 N1 1_555 1_555
N2 C4 1_555 1_555
N3 C6 1_555 1_555
H4 N3 1_555 1_555
N4 Ba1 1_555 1_555
O1 Ba1 1_555 1_555
O2 C5 1_555 1_555
O3 C3 1_555 1_555
H5 O3 1_555 1_555
O4 C3 1_555 1_555
O5 Ba1 1_555 1_555
O6 C10 1_555 1_555
O7 C8 1_555 1_555
H6 O7 1_555 1_555
O8 C8 1_555 1_555
O9 Ba1 1_555 1_555
H7 O9 1_555 1_555
H8 O9 1_555 1_555
O10 Ba1 1_555 1_555
H9 O10 1_555 1_555
H10 O10 1_555 1_555
O11 Ba1 1_555 1_555
H11 O11 1_555 1_555
H12 O11 1_555 1_555
O12 Ba1 1_555 1_555
H13 O12 1_555 1_555
H14 O12 1_555 1_555
O13 H15 1_555 1_555
H16 O13 1_555 1_555
Ba1A O4 1_555 1_555
C1A H1A 1_555 1_555
C2A C1A 1_555 1_555
C3A C2A 1_555 1_555
C4A C2A 1_555 1_555
C5A C4A 1_555 1_555
C6A H2A 1_555 1_555
C7A C6A 1_555 1_555
C8A C7A 1_555 1_555
C9A C7A 1_555 1_555
C10A C9A 1_555 1_555
N1A C1A 1_555 1_555
H3A N1A 1_555 1_555
N2A Ba1A 1_555 1_555
N3A C6A 1_555 1_555
H4A N3A 1_555 1_555
N4A Ba1A 1_555 1_555
O1A Ba1A 1_555 1_555
O2A C5A 1_555 1_555
O3A C3A 1_555 1_555
H5A O3A 1_555 1_555
O4A Ba1 1_555 1_555
O5A Ba1A 1_555 1_555
O6A C10A 1_555 1_555
O7A C8A 1_555 1_555
H6A O7A 1_555 1_555
O8A C8A 1_555 1_555
O9A Ba1A 1_555 1_555
H7A O9A 1_555 1_555
H8A O9A 1_555 1_555
O10A Ba1A 1_555 1_555
H9A O10A 1_555 1_555
H10A O10A 1_555 1_555
O11A Ba1A 1_555 1_555
H11A O11A 1_555 1_555
H12A O11A 1_555 1_555
O12A Ba1A 1_555 1_555
H13A O12A 1_555 1_555
H14A O12A 1_555 1_555
C5 O1 1_555 1_555
C9 N4 1_555 1_555
C10 O5 1_555 1_555
N1 N2 1_555 1_555
N3 N4 1_555 1_555
C3A O4A 1_555 1_555
C4A N2A 1_555 1_555
C5A O1A 1_555 1_555
C9A N4A 1_555 1_555
C10A O5A 1_555 1_555
N1A N2A 1_555 1_555
N3A N4A 1_555 1_555

#END
