
#######################################################################
#
#                 Cambridge Crystallographic Data Centre
#                                CCDC 
#
#######################################################################
#
# If this CIF has been generated from an entry in the Cambridge 
# Structural Database, then it will include bibliographic, chemical, 
# crystal, experimental, refinement or atomic coordinate data resulting 
# from the CCDC's data processing and validation procedures.
#
#######################################################################

data_ZESJAK
_chemical_formula_moiety         'C12 H12 N2 O2'
_chemical_name_systematic        
2-Methyl-1,11b-dihydropyrazolo[1,5-d][1,4]benzoxazepin-5(6H)-one
_symmetry_cell_setting           orthorhombic
_symmetry_space_group_name_H-M   'P b c a'
_symmetry_Int_Tables_number      61
_space_group_name_Hall           '-P 2ac 2ab'
loop_
_symmetry_equiv_pos_site_id
_symmetry_equiv_pos_as_xyz
1 x,y,z
2 1/2-x,-y,1/2+z
3 1/2+x,1/2-y,-z
4 -x,1/2+y,1/2-z
5 -x,-y,-z
6 1/2+x,y,1/2-z
7 1/2-x,1/2+y,z
8 x,1/2-y,1/2+z
_cell_length_a                   7.9121(2)
_cell_length_b                   14.6270(4)
_cell_length_c                   17.7344(5)
_cell_angle_alpha                90
_cell_angle_beta                 90
_cell_angle_gamma                90
_cell_volume                     2052.41
_exptl_crystal_colour            'light yellow'
_exptl_crystal_description       block
_cell_formula_units_Z            8
loop_
_atom_site_label
_atom_site_type_symbol
_atom_site_fract_x
_atom_site_fract_y
_atom_site_fract_z
O1 O 0.48817(14) 0.82849(8) 0.72369(6)
O2 O 0.80637(15) 0.90055(8) 0.58867(7)
N1 N 0.66329(17) 0.76531(9) 0.58933(7)
N2 N 0.75317(18) 0.73136(9) 0.52630(7)
C1 C 0.7031(2) 0.84795(11) 0.61766(9)
C2 C 0.6235(2) 0.88010(11) 0.69138(9)
H1 H 0.7129 0.8836 0.7287
H2 H 0.5827 0.9419 0.6834
C3 C 0.5413(2) 0.74435(11) 0.75214(10)
C4 C 0.5575(2) 0.73183(12) 0.82930(9)
H3 H 0.5319 0.7788 0.8628
C5 C 0.6128(2) 0.64751(12) 0.85536(10)
H4 H 0.6236 0.6374 0.9069
C6 C 0.6518(2) 0.57852(13) 0.80518(10)
H5 H 0.6927 0.5230 0.8231
C7 C 0.6304(2) 0.59144(11) 0.72787(9)
H6 H 0.6543 0.5441 0.6945
C8 C 0.5735(2) 0.67487(11) 0.70070(9)
C9 C 0.5381(2) 0.69727(11) 0.61906(9)
H7 H 0.4246 0.7237 0.6154
C10 C 0.5533(2) 0.62021(11) 0.56144(9)
H8 H 0.5801 0.5626 0.5857
H9 H 0.4497 0.6133 0.5328
C11 C 0.6951(2) 0.65143(11) 0.51234(9)
C12 C 0.7630(3) 0.59314(13) 0.45074(10)
H10 H 0.8474 0.6265 0.4232
H11 H 0.6729 0.5762 0.4173
H12 H 0.8127 0.5390 0.4719
loop_
_geom_bond_atom_site_label_1
_geom_bond_atom_site_label_2
_geom_bond_site_symmetry_1
_geom_bond_site_symmetry_2
O1 C2 1_555 1_555
O2 C1 1_555 1_555
N1 N2 1_555 1_555
N2 C11 1_555 1_555
C1 N1 1_555 1_555
C2 C1 1_555 1_555
H1 C2 1_555 1_555
H2 C2 1_555 1_555
C3 O1 1_555 1_555
C4 C3 1_555 1_555
H3 C4 1_555 1_555
C5 C4 1_555 1_555
H4 C5 1_555 1_555
C6 C5 1_555 1_555
H5 C6 1_555 1_555
C7 C6 1_555 1_555
H6 C7 1_555 1_555
C8 C3 1_555 1_555
C9 N1 1_555 1_555
H7 C9 1_555 1_555
C10 C9 1_555 1_555
H8 C10 1_555 1_555
H9 C10 1_555 1_555
C11 C10 1_555 1_555
C12 C11 1_555 1_555
H10 C12 1_555 1_555
H11 C12 1_555 1_555
H12 C12 1_555 1_555
C7 C8 1_555 1_555
C8 C9 1_555 1_555

#END
