
#######################################################################
#
#                 Cambridge Crystallographic Data Centre
#                                CCDC 
#
#######################################################################
#
# If this CIF has been generated from an entry in the Cambridge 
# Structural Database, then it will include bibliographic, chemical, 
# crystal, experimental, refinement or atomic coordinate data resulting 
# from the CCDC's data processing and validation procedures.
#
#######################################################################

data_ZESKUF
_chemical_formula_moiety         'C26 H26 N2 O3'
_chemical_name_systematic        
(9,11-Dimethoxy-5,6,11b,12,16b,16c-hexahydroindolo[3,2-c]isoquinolino[2,1-a]quinolin-5-yl)methanol
_symmetry_cell_setting           orthorhombic
_symmetry_space_group_name_H-M   'P 21 21 21'
_symmetry_Int_Tables_number      19
_space_group_name_Hall           'P 2ac 2ab'
loop_
_symmetry_equiv_pos_site_id
_symmetry_equiv_pos_as_xyz
1 x,y,z
2 1/2-x,-y,1/2+z
3 1/2+x,1/2-y,-z
4 -x,1/2+y,1/2-z
_cell_length_a                   9.8489(5)
_cell_length_b                   11.5881(6)
_cell_length_c                   18.3143(9)
_cell_angle_alpha                90
_cell_angle_beta                 90
_cell_angle_gamma                90
_cell_volume                     2090.21
_exptl_crystal_colour            colorless
_exptl_crystal_description       needle
_cell_formula_units_Z            4
loop_
_atom_site_label
_atom_site_type_symbol
_atom_site_fract_x
_atom_site_fract_y
_atom_site_fract_z
O1 O 0.3096(4) 0.2427(2) 0.80438(16)
H1 H 0.2571 0.2164 0.8349
O2 O 0.6861(3) 0.07487(19) 0.33885(11)
O3 O 0.3403(2) -0.16850(17) 0.43421(12)
N1 N 0.5382(2) 0.14018(17) 0.58150(11)
C1 C 0.4686(3) 0.1001(2) 0.64645(13)
H2 H 0.5195 0.0370 0.6680
H3 H 0.3796 0.0711 0.6331
C2 C 0.4530(3) 0.1966(2) 0.70231(13)
H4 H 0.3985 0.2577 0.6797
C3 C 0.5902(3) 0.2472(2) 0.71995(14)
C4 C 0.6932(3) 0.2410(2) 0.66821(14)
C5 C 0.6746(2) 0.1874(2) 0.59343(13)
H5 H 0.7389 0.1231 0.5896
C6 C 0.6186(3) 0.2991(2) 0.78783(15)
H6 H 0.5502 0.3059 0.8225
C7 C 0.7469(4) 0.3399(3) 0.80326(17)
H7 H 0.7644 0.3735 0.8484
C8 C 0.8492(3) 0.3312(3) 0.75236(17)
H8 H 0.9358 0.3582 0.7633
C9 C 0.8230(3) 0.2822(2) 0.68467(15)
H9 H 0.8919 0.2769 0.6502
C10 C 0.5289(3) 0.0754(2) 0.51663(13)
C11 C 0.6110(3) 0.1053(2) 0.45741(14)
C12 C 0.6024(3) 0.0386(2) 0.39408(15)
C13 C 0.5143(3) -0.0528(3) 0.38650(16)
H10 H 0.5111 -0.0960 0.3437
C14 C 0.4300(3) -0.0779(2) 0.44551(16)
C15 C 0.4379(3) -0.0178(2) 0.51061(15)
H11 H 0.3836 -0.0387 0.5500
N2 N 0.6662(2) 0.2983(2) 0.40575(12)
H12 H 0.6867 0.3004 0.3601
C16 C 0.7074(2) 0.2075(2) 0.45758(14)
H13 H 0.7997 0.1814 0.4463
C17 C 0.7063(2) 0.2714(2) 0.53133(13)
H14 H 0.7965 0.3045 0.5397
C18 C 0.6073(3) 0.3686(2) 0.51828(15)
C19 C 0.5894(3) 0.3797(2) 0.44239(15)
C20 C 0.5073(3) 0.4656(2) 0.41384(18)
H15 H 0.4966 0.4736 0.3636
C21 C 0.4419(3) 0.5391(3) 0.4613(2)
H16 H 0.3858 0.5966 0.4427
C22 C 0.4577(3) 0.5290(2) 0.5360(2)
H17 H 0.4123 0.5794 0.5671
C23 C 0.5415(3) 0.4437(2) 0.56479(17)
H18 H 0.5530 0.4374 0.6150
C24 C 0.3740(3) 0.1512(3) 0.76723(15)
H19 H 0.3063 0.0963 0.7506
H20 H 0.4351 0.1114 0.8003
C25 C 0.7093(4) 0.0015(3) 0.27848(18)
H21 H 0.7665 0.0400 0.2437
H22 H 0.6242 -0.0175 0.2559
H23 H 0.7530 -0.0680 0.2948
C26 C 0.2536(3) -0.2003(3) 0.49300(19)
H24 H 0.1979 -0.2643 0.4785
H25 H 0.1967 -0.1361 0.5057
H26 H 0.3075 -0.2219 0.5344
loop_
_geom_bond_atom_site_label_1
_geom_bond_atom_site_label_2
_geom_bond_site_symmetry_1
_geom_bond_site_symmetry_2
O1 H1 1_555 1_555
O2 C12 1_555 1_555
O3 C14 1_555 1_555
N1 C1 1_555 1_555
C1 H2 1_555 1_555
H3 C1 1_555 1_555
C2 C1 1_555 1_555
H4 C2 1_555 1_555
C3 C2 1_555 1_555
C4 C3 1_555 1_555
C5 N1 1_555 1_555
H5 C5 1_555 1_555
C6 C3 1_555 1_555
H6 C6 1_555 1_555
C7 C6 1_555 1_555
H7 C7 1_555 1_555
C8 C7 1_555 1_555
H8 C8 1_555 1_555
C9 C4 1_555 1_555
H9 C9 1_555 1_555
C10 N1 1_555 1_555
C11 C10 1_555 1_555
C12 C11 1_555 1_555
C13 C12 1_555 1_555
H10 C13 1_555 1_555
C14 C13 1_555 1_555
C15 C10 1_555 1_555
H11 C15 1_555 1_555
N2 H12 1_555 1_555
C16 C11 1_555 1_555
H13 C16 1_555 1_555
C17 C5 1_555 1_555
H14 C17 1_555 1_555
C18 C17 1_555 1_555
C19 N2 1_555 1_555
C20 C19 1_555 1_555
H15 C20 1_555 1_555
C21 C20 1_555 1_555
H16 C21 1_555 1_555
C22 C21 1_555 1_555
H17 C22 1_555 1_555
C23 C18 1_555 1_555
H18 C23 1_555 1_555
C24 O1 1_555 1_555
H19 C24 1_555 1_555
H20 C24 1_555 1_555
C25 O2 1_555 1_555
H21 C25 1_555 1_555
H22 C25 1_555 1_555
H23 C25 1_555 1_555
C26 O3 1_555 1_555
H24 C26 1_555 1_555
H25 C26 1_555 1_555
H26 C26 1_555 1_555
C2 C24 1_555 1_555
C4 C5 1_555 1_555
C8 C9 1_555 1_555
C14 C15 1_555 1_555
N2 C16 1_555 1_555
C16 C17 1_555 1_555
C18 C19 1_555 1_555
C22 C23 1_555 1_555

#END
