
#######################################################################
#
#                 Cambridge Crystallographic Data Centre
#                                CCDC 
#
#######################################################################
#
# If this CIF has been generated from an entry in the Cambridge 
# Structural Database, then it will include bibliographic, chemical, 
# crystal, experimental, refinement or atomic coordinate data resulting 
# from the CCDC's data processing and validation procedures.
#
#######################################################################

data_ZESKOZ
_chemical_formula_moiety         'C26 H25 Br1 N2 O3'
_chemical_name_systematic        
(15-Bromo-9,11-dimethoxy-5,6,11b,12,16b,16c-hexahydroindolo[3,2-c]isoquinolino[2,1-a]quinolin-5-yl)methanol
_symmetry_cell_setting           orthorhombic
_symmetry_space_group_name_H-M   'P 21 21 21'
_symmetry_Int_Tables_number      19
_space_group_name_Hall           'P 2ac 2ab'
loop_
_symmetry_equiv_pos_site_id
_symmetry_equiv_pos_as_xyz
1 x,y,z
2 1/2-x,-y,1/2+z
3 -x,1/2+y,1/2-z
4 1/2+x,1/2-y,-z
_cell_length_a                   10.57100(10)
_cell_length_b                   11.63920(10)
_cell_length_c                   17.94360(10)
_cell_angle_alpha                90
_cell_angle_beta                 90
_cell_angle_gamma                90
_cell_volume                     2207.74
_exptl_crystal_colour            colorless
_exptl_crystal_description       block
_cell_formula_units_Z            4
loop_
_atom_site_label
_atom_site_type_symbol
_atom_site_fract_x
_atom_site_fract_y
_atom_site_fract_z
Br1 Br 0.380795(17) -0.100825(15) 0.375393(11)
O1 O 0.29042(12) -0.07395(10) 0.69233(7)
H1 H 0.2613 -0.0655 0.6485
O2 O 0.34996(13) 0.63814(10) 0.65148(7)
O3 O 0.66108(11) 0.58552(9) 0.46494(6)
N1 N 0.64310(12) 0.35627(11) 0.40362(7)
H2 H 0.5927 0.4133 0.3967
C1 C 0.57394(13) 0.25610(13) 0.39025(8)
C2 C 0.49909(15) 0.23079(14) 0.32843(8)
H3 H 0.4882 0.2855 0.2896
C3 C 0.44088(15) 0.12414(14) 0.32470(8)
H4 H 0.3885 0.1050 0.2835
C4 C 0.45989(13) 0.04594(13) 0.38168(9)
C5 C 0.53591(13) 0.06906(12) 0.44325(8)
H5 H 0.5485 0.0132 0.4812
C6 C 0.59244(12) 0.17604(12) 0.44736(7)
C7 C 0.68184(12) 0.22774(11) 0.50395(7)
H6 H 0.7688 0.1971 0.4949
C8 C 0.64803(12) 0.21011(12) 0.58641(7)
H7 H 0.7086 0.2565 0.6168
N2 N 0.52031(11) 0.25673(10) 0.59888(6)
C9 C 0.51105(13) 0.37527(11) 0.58578(7)
C10 C 0.58925(13) 0.42512(12) 0.53133(8)
C11 C 0.67954(13) 0.35658(13) 0.48382(7)
H8 H 0.7667 0.3890 0.4891
C12 C 0.42631(13) 0.44514(12) 0.62615(8)
H9 H 0.3717 0.4122 0.6624
C13 C 0.42339(15) 0.56212(13) 0.61258(8)
C14 C 0.50153(16) 0.61405(13) 0.55992(9)
H10 H 0.4996 0.6947 0.5519
C15 C 0.58189(15) 0.54401(13) 0.51981(8)
C16 C 0.66164(13) 0.08538(12) 0.60980(7)
C17 C 0.78087(14) 0.03406(14) 0.60249(8)
H11 H 0.8491 0.0771 0.5822
C18 C 0.80055(15) -0.07849(13) 0.62445(10)
H12 H 0.8819 -0.1124 0.6196
C19 C 0.70054(18) -0.14173(14) 0.65366(10)
H13 H 0.7136 -0.2190 0.6689
C20 C 0.58262(15) -0.09266(13) 0.66051(8)
H14 H 0.5144 -0.1371 0.6794
C21 C 0.56196(13) 0.02197(12) 0.63992(7)
C22 C 0.43468(13) 0.07943(12) 0.65042(7)
H15 H 0.3863 0.0689 0.6030
C23 C 0.45185(13) 0.20747(12) 0.66168(8)
H16 H 0.3681 0.2448 0.6663
H17 H 0.4995 0.2215 0.7083
C24 C 0.35342(14) 0.02996(13) 0.71343(8)
H18 H 0.4079 0.0145 0.7572
H19 H 0.2895 0.0877 0.7283
C25 C 0.24986(16) 0.59345(17) 0.69585(9)
H20 H 0.1969 0.5428 0.6654
H21 H 0.1985 0.6570 0.7151
H22 H 0.2853 0.5498 0.7376
C26 C 0.6737(2) 0.70787(15) 0.45928(11)
H23 H 0.7413 0.7265 0.4239
H24 H 0.6947 0.7397 0.5083
H25 H 0.5939 0.7410 0.4418
loop_
_geom_bond_atom_site_label_1
_geom_bond_atom_site_label_2
_geom_bond_site_symmetry_1
_geom_bond_site_symmetry_2
Br1 C4 1_555 1_555
O1 H1 1_555 1_555
O2 C13 1_555 1_555
O3 C15 1_555 1_555
N1 H2 1_555 1_555
C1 N1 1_555 1_555
C2 C1 1_555 1_555
H3 C2 1_555 1_555
C3 C2 1_555 1_555
H4 C3 1_555 1_555
C4 C3 1_555 1_555
C5 C4 1_555 1_555
H5 C5 1_555 1_555
C6 C1 1_555 1_555
C7 C6 1_555 1_555
H6 C7 1_555 1_555
C8 C7 1_555 1_555
H7 C8 1_555 1_555
N2 C8 1_555 1_555
C9 N2 1_555 1_555
C10 C9 1_555 1_555
C11 N1 1_555 1_555
H8 C11 1_555 1_555
C12 C9 1_555 1_555
H9 C12 1_555 1_555
C13 C12 1_555 1_555
C14 C13 1_555 1_555
H10 C14 1_555 1_555
C15 C10 1_555 1_555
C16 C8 1_555 1_555
C17 C16 1_555 1_555
H11 C17 1_555 1_555
C18 C17 1_555 1_555
H12 C18 1_555 1_555
C19 C18 1_555 1_555
H13 C19 1_555 1_555
C20 C19 1_555 1_555
H14 C20 1_555 1_555
C21 C16 1_555 1_555
C22 C21 1_555 1_555
H15 C22 1_555 1_555
C23 N2 1_555 1_555
H16 C23 1_555 1_555
H17 C23 1_555 1_555
C24 O1 1_555 1_555
H18 C24 1_555 1_555
H19 C24 1_555 1_555
C25 O2 1_555 1_555
H20 C25 1_555 1_555
H21 C25 1_555 1_555
H22 C25 1_555 1_555
C26 O3 1_555 1_555
H23 C26 1_555 1_555
H24 C26 1_555 1_555
H25 C26 1_555 1_555
C5 C6 1_555 1_555
C7 C11 1_555 1_555
C10 C11 1_555 1_555
C14 C15 1_555 1_555
C20 C21 1_555 1_555
C22 C23 1_555 1_555
C22 C24 1_555 1_555

#END
