
#######################################################################
#
#                 Cambridge Crystallographic Data Centre
#                                CCDC 
#
#######################################################################
#
# If this CIF has been generated from an entry in the Cambridge 
# Structural Database, then it will include bibliographic, chemical, 
# crystal, experimental, refinement or atomic coordinate data resulting 
# from the CCDC's data processing and validation procedures.
#
#######################################################################

data_ZESVOL
_chemical_formula_moiety         'C24 H18 N2,C1 H1 Cl3'
_chemical_name_systematic        
'3-(4-methylphenyl)-1-phenylpyrido[1,2-a]benzimidazole chloroform solvate'
_symmetry_cell_setting           monoclinic
_symmetry_space_group_name_H-M   'P 21/c'
_symmetry_Int_Tables_number      14
_space_group_name_Hall           '-P 2ybc'
loop_
_symmetry_equiv_pos_site_id
_symmetry_equiv_pos_as_xyz
1 x,y,z
2 -x,1/2+y,1/2-z
3 -x,-y,-z
4 x,1/2-y,1/2+z
_cell_length_a                   10.6279(10)
_cell_length_b                   15.8991(10)
_cell_length_c                   13.4801(10)
_cell_angle_alpha                90
_cell_angle_beta                 100.330(9)
_cell_angle_gamma                90
_cell_volume                     2240.87
_exptl_crystal_colour            'whiteish colorless'
_exptl_crystal_description       block
_cell_formula_units_Z            4
loop_
_atom_site_label
_atom_site_type_symbol
_atom_site_fract_x
_atom_site_fract_y
_atom_site_fract_z
Cl1 Cl 0.89778(14) 0.61359(9) 0.61775(12)
Cl2 Cl 0.99760(14) 0.61629(13) 0.43532(11)
Cl3 Cl 1.04016(12) 0.75492(8) 0.57457(12)
C1 C 0.9366(3) 0.6754(2) 0.5228(3)
H1 H 0.8576 0.7020 0.4880
N1 N 0.5156(2) 0.39721(13) 0.67245(17)
N2 N 0.3338(2) 0.32310(15) 0.62017(19)
C2 C 0.4904(3) 0.4122(2) 0.8570(2)
H2 H 0.5657 0.4416 0.8801
C3 C 0.4086(4) 0.3911(2) 0.9207(3)
H3 H 0.4283 0.4068 0.9880
C4 C 0.2965(4) 0.3465(2) 0.8863(3)
H4 H 0.2430 0.3333 0.9316
C5 C 0.2627(3) 0.3219(2) 0.7878(3)
H5 H 0.1875 0.2922 0.7657
C6 C 0.3451(3) 0.34249(18) 0.7213(2)
C7 C 0.4571(3) 0.38813(16) 0.7566(2)
C8 C 0.4372(2) 0.35518(16) 0.5924(2)
C9 C 0.4759(2) 0.35053(17) 0.4987(2)
H6 H 0.4235 0.3240 0.4451
C10 C 0.5893(2) 0.38426(16) 0.4850(2)
C11 C 0.6648(2) 0.42657(17) 0.5682(2)
H7 H 0.7421 0.4503 0.5595
C12 C 0.6295(2) 0.43358(16) 0.6589(2)
C13 C 0.7096(2) 0.47930(17) 0.7435(2)
C14 C 0.6703(3) 0.55625(19) 0.7762(2)
H8 H 0.5898 0.5771 0.7493
C15 C 0.7505(4) 0.6017(2) 0.8483(3)
H9 H 0.7245 0.6535 0.8694
C16 C 0.8692(4) 0.5704(3) 0.8893(3)
H10 H 0.9228 0.6005 0.9388
C17 C 0.9082(4) 0.4951(3) 0.8574(3)
H11 H 0.9889 0.4747 0.8846
C18 C 0.8287(3) 0.4482(2) 0.7842(3)
H12 H 0.8556 0.3966 0.7632
C19 C 0.6352(2) 0.37855(16) 0.3879(2)
C20 C 0.6061(3) 0.30928(19) 0.3250(3)
H13 H 0.5591 0.2651 0.3449
C21 C 0.6459(3) 0.3055(2) 0.2333(3)
H14 H 0.6243 0.2589 0.1921
C22 C 0.7173(3) 0.3693(2) 0.2007(2)
C23 C 0.7611(5) 0.3648(4) 0.1002(3)
H15 H 0.8520 0.3555 0.1111
H16 H 0.7414 0.4165 0.0643
H17 H 0.7185 0.3191 0.0612
C24 C 0.7478(3) 0.4374(2) 0.2641(3)
H18 H 0.7964 0.4810 0.2448
C25 C 0.7079(3) 0.44206(17) 0.3559(2)
H19 H 0.7301 0.4887 0.3971
loop_
_geom_bond_atom_site_label_1
_geom_bond_atom_site_label_2
_geom_bond_site_symmetry_1
_geom_bond_site_symmetry_2
Cl1 C1 1_555 1_555
Cl2 C1 1_555 1_555
Cl3 C1 1_555 1_555
C1 H1 1_555 1_555
N1 C7 1_555 1_555
N2 C6 1_555 1_555
C2 H2 1_555 1_555
C3 C2 1_555 1_555
H3 C3 1_555 1_555
C4 C3 1_555 1_555
H4 C4 1_555 1_555
C5 C4 1_555 1_555
H5 C5 1_555 1_555
C6 C5 1_555 1_555
C7 C2 1_555 1_555
C8 N1 1_555 1_555
C9 C8 1_555 1_555
H6 C9 1_555 1_555
C10 C9 1_555 1_555
C11 C10 1_555 1_555
H7 C11 1_555 1_555
C12 N1 1_555 1_555
C13 C12 1_555 1_555
C14 C13 1_555 1_555
H8 C14 1_555 1_555
C15 C14 1_555 1_555
H9 C15 1_555 1_555
C16 C15 1_555 1_555
H10 C16 1_555 1_555
C17 C16 1_555 1_555
H11 C17 1_555 1_555
C18 C13 1_555 1_555
H12 C18 1_555 1_555
C19 C10 1_555 1_555
C20 C19 1_555 1_555
H13 C20 1_555 1_555
C21 C20 1_555 1_555
H14 C21 1_555 1_555
C22 C21 1_555 1_555
C23 C22 1_555 1_555
H15 C23 1_555 1_555
H16 C23 1_555 1_555
H17 C23 1_555 1_555
C24 C22 1_555 1_555
H18 C24 1_555 1_555
C25 C19 1_555 1_555
H19 C25 1_555 1_555
N2 C8 1_555 1_555
C6 C7 1_555 1_555
C11 C12 1_555 1_555
C17 C18 1_555 1_555
C24 C25 1_555 1_555

#END
