
#######################################################################
#
#                 Cambridge Crystallographic Data Centre
#                                CCDC 
#
#######################################################################
#
# If this CIF has been generated from an entry in the Cambridge 
# Structural Database, then it will include bibliographic, chemical, 
# crystal, experimental, refinement or atomic coordinate data resulting 
# from the CCDC's data processing and validation procedures.
#
#######################################################################

data_ZESVOK
_chemical_formula_moiety         'C28 H27 Br1 N2 O5,H2 O1'
_chemical_name_systematic        
"(3aR,3bS,4R,5R,7S,7aS,8R,8aR)-Methyl 7-(4-bromophenyl)-4-(4-methoxyphenyl)-2-methyl-1,3-dioxo-2,3,3a,4,5,6,7,7a,8,8a-decahydro-1H-3b,8-ethenopyrrolo(3',4':3,4)cyclopenta(1,2-c)pyridine-5-carboxylate"
_symmetry_cell_setting           orthorhombic
_symmetry_space_group_name_H-M   'P 21 21 21'
_symmetry_Int_Tables_number      19
_space_group_name_Hall           'P 2ac 2ab'
loop_
_symmetry_equiv_pos_site_id
_symmetry_equiv_pos_as_xyz
1 x,y,z
2 1/2-x,-y,1/2+z
3 -x,1/2+y,1/2-z
4 1/2+x,1/2-y,-z
_cell_length_a                   9.8334(10)
_cell_length_b                   10.3708(9)
_cell_length_c                   25.060(2)
_cell_angle_alpha                90
_cell_angle_beta                 90
_cell_angle_gamma                90
_cell_volume                     2555.62
_exptl_crystal_colour            colorless
_exptl_crystal_description       prismatic
_cell_formula_units_Z            4
loop_
_atom_site_label
_atom_site_type_symbol
_atom_site_fract_x
_atom_site_fract_y
_atom_site_fract_z
Br1 Br 0.02439(5) 0.31418(4) 0.755724(16)
N1 N 0.4096(3) 1.2413(3) 0.67075(12)
N2 N 0.1879(4) 0.7422(3) 0.55833(12)
O1 O 0.3590(3) 1.2906(3) 0.58467(11)
O2 O 0.4190(3) 1.1560(3) 0.75445(10)
O3 O 0.4187(3) 1.3426(3) 0.39011(14)
O4 O 0.0593(3) 0.8132(4) 0.46240(11)
O5 O 0.2636(3) 0.8213(3) 0.42700(9)
C1 C 0.3418(4) 1.2224(3) 0.62298(15)
C2 C 0.3715(4) 1.1555(4) 0.71022(15)
C3 C 0.2681(4) 1.0652(3) 0.68710(13)
H1 H 0.1822 1.0694 0.7068
C4 C 0.2492(4) 1.1095(3) 0.62862(13)
H2 H 0.1546 1.1337 0.6215
C5 C 0.2912(3) 0.9850(3) 0.59614(12)
C6 C 0.4415(4) 0.9677(3) 0.60583(13)
H3 H 0.5105 0.9799 0.5809
C7 C 0.4575(4) 0.9318(3) 0.65660(13)
H4 H 0.5399 0.9151 0.6735
C8 C 0.3191(4) 0.9230(3) 0.68176(14)
H5 H 0.3120 0.8693 0.7138
C9 C 0.2332(4) 0.8808(3) 0.63363(12)
H6 H 0.1367 0.8973 0.6406
C10 C 0.2520(4) 0.7461(3) 0.61155(13)
H7 H 0.3496 0.7297 0.6074
C11 C 0.2509(4) 0.8325(3) 0.52082(13)
H8 H 0.3478 0.8125 0.5168
C12 C 0.2330(4) 0.9730(3) 0.53963(12)
H9 H 0.1348 0.9867 0.5430
C13 C 0.2821(3) 1.0705(3) 0.49930(12)
C14 C 0.1929(4) 1.1575(3) 0.47844(14)
H10 H 0.1024 1.1549 0.4892
C15 C 0.2333(4) 1.2503(4) 0.44136(17)
H11 H 0.1707 1.3084 0.4274
C16 C 0.3675(4) 1.2543(4) 0.42585(16)
C17 C 0.4572(4) 1.1652(3) 0.44534(14)
H12 H 0.5471 1.1665 0.4339
C18 C 0.4165(4) 1.0743(3) 0.48145(13)
H13 H 0.4789 1.0144 0.4942
C19 C 0.5153(5) 1.3382(4) 0.67755(18)
H14 H 0.5020 1.3823 0.7108
H15 H 0.5109 1.3990 0.6487
H16 H 0.6028 1.2971 0.6776
C20 C 0.3323(6) 1.4405(6) 0.3732(3)
H17 H 0.2545 1.4035 0.3558
H18 H 0.3797 1.4956 0.3486
H19 H 0.3030 1.4901 0.4034
C21 C 0.1792(4) 0.8186(4) 0.46759(13)
C22 C 0.2027(5) 0.8242(6) 0.37483(15)
H20 H 0.1293 0.7632 0.3734
H21 H 0.2697 0.8021 0.3485
H22 H 0.1684 0.9091 0.3678
C23 C 0.1929(4) 0.6429(3) 0.64663(13)
C24 C 0.2678(4) 0.5959(4) 0.68900(16)
H23 H 0.3537 0.6298 0.6956
C25 C 0.2185(4) 0.4996(4) 0.72190(16)
H24 H 0.2704 0.4694 0.7503
C26 C 0.0918(4) 0.4494(3) 0.71208(14)
C27 C 0.0136(4) 0.4948(4) 0.67163(15)
H25 H -0.0730 0.4617 0.6658
C28 C 0.0654(4) 0.5922(4) 0.63889(15)
H26 H 0.0121 0.6235 0.6111
H27 H 0.198(5) 0.664(2) 0.5514(17)
O6 O 0.3014(9) 0.5074(5) 0.5051(3)
H28 H 0.2188 0.5094 0.4925
H29 H 0.3705 0.5052 0.5251
loop_
_geom_bond_atom_site_label_1
_geom_bond_atom_site_label_2
_geom_bond_site_symmetry_1
_geom_bond_site_symmetry_2
Br1 C26 1_555 1_555
N1 C1 1_555 1_555
N2 C10 1_555 1_555
O1 C1 1_555 1_555
O2 C2 1_555 1_555
O3 C16 1_555 1_555
O4 C21 1_555 1_555
O5 C21 1_555 1_555
C1 C4 1_555 1_555
C2 N1 1_555 1_555
C3 C2 1_555 1_555
H1 C3 1_555 1_555
C4 C3 1_555 1_555
H2 C4 1_555 1_555
C5 C4 1_555 1_555
C6 C5 1_555 1_555
H3 C6 1_555 1_555
C7 C6 1_555 1_555
H4 C7 1_555 1_555
C8 C3 1_555 1_555
H5 C8 1_555 1_555
C9 C5 1_555 1_555
H6 C9 1_555 1_555
C10 C9 1_555 1_555
H7 C10 1_555 1_555
C11 N2 1_555 1_555
H8 C11 1_555 1_555
C12 C5 1_555 1_555
H9 C12 1_555 1_555
C13 C12 1_555 1_555
C14 C13 1_555 1_555
H10 C14 1_555 1_555
C15 C14 1_555 1_555
H11 C15 1_555 1_555
C16 C15 1_555 1_555
C17 C16 1_555 1_555
H12 C17 1_555 1_555
C18 C13 1_555 1_555
H13 C18 1_555 1_555
C19 N1 1_555 1_555
H14 C19 1_555 1_555
H15 C19 1_555 1_555
H16 C19 1_555 1_555
C20 O3 1_555 1_555
H17 C20 1_555 1_555
H18 C20 1_555 1_555
H19 C20 1_555 1_555
C21 C11 1_555 1_555
C22 O5 1_555 1_555
H20 C22 1_555 1_555
H21 C22 1_555 1_555
H22 C22 1_555 1_555
C23 C10 1_555 1_555
C24 C23 1_555 1_555
H23 C24 1_555 1_555
C25 C24 1_555 1_555
H24 C25 1_555 1_555
C26 C25 1_555 1_555
C27 C26 1_555 1_555
H25 C27 1_555 1_555
C28 C23 1_555 1_555
H26 C28 1_555 1_555
H27 N2 1_555 1_555
O6 H28 1_555 1_555
H29 O6 1_555 1_555
C7 C8 1_555 1_555
C8 C9 1_555 1_555
C11 C12 1_555 1_555
C17 C18 1_555 1_555
C27 C28 1_555 1_555

#END
