
#######################################################################
#
#                 Cambridge Crystallographic Data Centre
#                                CCDC 
#
#######################################################################
#
# If this CIF has been generated from an entry in the Cambridge 
# Structural Database, then it will include bibliographic, chemical, 
# crystal, experimental, refinement or atomic coordinate data resulting 
# from the CCDC's data processing and validation procedures.
#
#######################################################################

data_ZESYII
_chemical_formula_moiety         'C24 H34 O3'
_chemical_name_systematic        
3,6,7a-trimethyl-10-isopropyl-1,2,3,5,6,6a,7,7a,8,11b-decahydro-4H-11a,3a-(epoxymethano)indeno[5,6-e]azulene-9,13(11H)-dione
_symmetry_cell_setting           monoclinic
_symmetry_space_group_name_H-M   'P 21'
_symmetry_Int_Tables_number      4
_space_group_name_Hall           'P 2yb'
loop_
_symmetry_equiv_pos_site_id
_symmetry_equiv_pos_as_xyz
1 x,y,z
2 -x,1/2+y,-z
_cell_length_a                   6.6500(2)
_cell_length_b                   11.1580(3)
_cell_length_c                   14.5580(4)
_cell_angle_alpha                90
_cell_angle_beta                 101.781(2)
_cell_angle_gamma                90
_cell_volume                     1057.46
_exptl_crystal_colour            colorless
_exptl_crystal_description       plate
_cell_formula_units_Z            2
_exptl_crystal_recrystallization_method 
'Re-crystallisation from solvent: Acetone/Water'
loop_
_atom_site_label
_atom_site_type_symbol
_atom_site_fract_x
_atom_site_fract_y
_atom_site_fract_z
O1 O 0.4233(3) 0.59640(16) 0.59870(11)
O2 O 0.4101(3) 0.6651(2) 0.45437(13)
O3 O 0.9450(6) 0.2942(3) 1.00985(19)
C1 C 0.5682(4) 0.5886(2) 0.68930(17)
C2 C 0.7772(4) 0.6236(2) 0.66687(17)
H1 H 0.854952 0.671872 0.718321
C3 C 0.9174(5) 0.5246(3) 0.6399(2)
H2 H 1.055071 0.531177 0.677749
H3 H 0.863510 0.445855 0.649710
C4 C 0.9203(5) 0.5432(3) 0.5373(2)
H4 H 0.812884 0.496919 0.497717
H5 H 1.051953 0.520068 0.523835
C5 C 0.8832(4) 0.6771(3) 0.52166(19)
H6 H 1.007918 0.718474 0.553684
C6 C 0.7149(4) 0.7025(2) 0.57803(17)
C7 C 0.6827(5) 0.8347(3) 0.5973(2)
H7 H 0.663125 0.878155 0.538429
H8 H 0.806331 0.865431 0.637599
C8 C 0.4993(5) 0.8605(3) 0.6437(2)
H9 H 0.480617 0.946704 0.645010
H10 H 0.376992 0.827182 0.604023
C9 C 0.5133(5) 0.8128(3) 0.7427(2)
H11 H 0.644416 0.840607 0.780194
C10 C 0.5012(4) 0.6756(2) 0.75954(19)
H12 H 0.357349 0.657223 0.760163
C11 C 0.6260(5) 0.6488(3) 0.85909(19)
H13 H 0.769559 0.666155 0.860416
H14 H 0.580553 0.702709 0.903022
C12 C 0.6089(6) 0.5209(3) 0.89231(19)
C13 C 0.7791(7) 0.4864(3) 0.9775(2)
H15 H 0.891276 0.543520 0.985810
H16 H 0.725024 0.483629 1.034475
C14 C 0.8498(7) 0.3641(3) 0.9537(2)
C15 C 0.7798(5) 0.3462(2) 0.85112(19)
C16 C 0.6509(5) 0.4344(2) 0.81800(19)
C17 C 0.5413(4) 0.4584(2) 0.71966(18)
H17 H 0.396115 0.441993 0.714218
H18 H 0.593016 0.404501 0.677615
C18 C 0.8424(6) 0.7160(4) 0.4192(2)
H19 H 0.729180 0.670992 0.384232
H20 H 0.962619 0.701598 0.393797
H21 H 0.809810 0.799877 0.414939
C19 C 0.5061(4) 0.6534(2) 0.53324(17)
C20 C 0.3415(8) 0.8729(4) 0.7834(3)
H22 H 0.210683 0.855676 0.743839
H23 H 0.362897 0.958046 0.786440
H24 H 0.344221 0.842447 0.845329
C21 C 0.3942(7) 0.4979(4) 0.9142(3)
H25 H 0.290799 0.510666 0.858596
H26 H 0.371935 0.551929 0.962493
H27 H 0.386508 0.416755 0.935222
C22 C 0.8424(6) 0.2398(3) 0.8003(2)
H28 H 0.794867 0.254314 0.733018
C23 C 0.7348(9) 0.1268(4) 0.8245(4)
H29 H 0.781427 0.108424 0.889844
H30 H 0.766320 0.061153 0.787253
H31 H 0.589046 0.139750 0.811745
C24 C 1.0741(7) 0.2228(4) 0.8178(3)
H32 H 1.136339 0.292773 0.797199
H33 H 1.105524 0.154132 0.783627
H34 H 1.126497 0.210852 0.883655
loop_
_geom_bond_atom_site_label_1
_geom_bond_atom_site_label_2
_geom_bond_site_symmetry_1
_geom_bond_site_symmetry_2
O1 C1 1_555 1_555
O2 C19 1_555 1_555
O3 C14 1_555 1_555
C1 C2 1_555 1_555
C2 H1 1_555 1_555
C3 C2 1_555 1_555
H2 C3 1_555 1_555
H3 C3 1_555 1_555
C4 C3 1_555 1_555
H4 C4 1_555 1_555
H5 C4 1_555 1_555
C5 C4 1_555 1_555
H6 C5 1_555 1_555
C6 C2 1_555 1_555
C7 C6 1_555 1_555
H7 C7 1_555 1_555
H8 C7 1_555 1_555
C8 C7 1_555 1_555
H9 C8 1_555 1_555
H10 C8 1_555 1_555
C9 C8 1_555 1_555
H11 C9 1_555 1_555
C10 C1 1_555 1_555
H12 C10 1_555 1_555
C11 C10 1_555 1_555
H13 C11 1_555 1_555
H14 C11 1_555 1_555
C12 C11 1_555 1_555
C13 C12 1_555 1_555
H15 C13 1_555 1_555
H16 C13 1_555 1_555
C14 C13 1_555 1_555
C15 C14 1_555 1_555
C16 C12 1_555 1_555
C17 C1 1_555 1_555
H17 C17 1_555 1_555
H18 C17 1_555 1_555
C18 C5 1_555 1_555
H19 C18 1_555 1_555
H20 C18 1_555 1_555
H21 C18 1_555 1_555
C19 O1 1_555 1_555
C20 C9 1_555 1_555
H22 C20 1_555 1_555
H23 C20 1_555 1_555
H24 C20 1_555 1_555
C21 C12 1_555 1_555
H25 C21 1_555 1_555
H26 C21 1_555 1_555
H27 C21 1_555 1_555
C22 C15 1_555 1_555
H28 C22 1_555 1_555
C23 C22 1_555 1_555
H29 C23 1_555 1_555
H30 C23 1_555 1_555
H31 C23 1_555 1_555
C24 C22 1_555 1_555
H32 C24 1_555 1_555
H33 C24 1_555 1_555
H34 C24 1_555 1_555
C5 C6 1_555 1_555
C6 C19 1_555 1_555
C9 C10 1_555 1_555
C15 C16 1_555 1_555
C16 C17 1_555 1_555

#END
