
#######################################################################
#
#                 Cambridge Crystallographic Data Centre
#                                CCDC 
#
#######################################################################
#
# If this CIF has been generated from an entry in the Cambridge 
# Structural Database, then it will include bibliographic, chemical, 
# crystal, experimental, refinement or atomic coordinate data resulting 
# from the CCDC's data processing and validation procedures.
#
#######################################################################

data_ZESYAA
_chemical_formula_moiety         'C14 H22 O4'
_chemical_name_systematic        
'methyl 8a-hydroxy-3,6-dimethyl-8-oxooctahydroazulene-3a(1H)-carboxylate'
_symmetry_cell_setting           orthorhombic
_symmetry_space_group_name_H-M   'P 21 21 21'
_symmetry_Int_Tables_number      19
_space_group_name_Hall           'P 2ac 2ab'
loop_
_symmetry_equiv_pos_site_id
_symmetry_equiv_pos_as_xyz
1 x,y,z
2 1/2+x,1/2-y,-z
3 -x,1/2+y,1/2-z
4 1/2-x,-y,1/2+z
_cell_length_a                   7.7082(4)
_cell_length_b                   9.8033(6)
_cell_length_c                   17.7454(10)
_cell_angle_alpha                90
_cell_angle_beta                 90
_cell_angle_gamma                90
_cell_volume                     1340.95
_exptl_crystal_colour            colorless
_exptl_crystal_description       block
_cell_formula_units_Z            4
_chemical_properties_physical    Base-sensitive
_exptl_crystal_recrystallization_method 
'Re-crystallisation from solvent: Methanol'
loop_
_atom_site_label
_atom_site_type_symbol
_atom_site_fract_x
_atom_site_fract_y
_atom_site_fract_z
O1 O 0.4895(2) 0.39252(19) 0.20478(12)
O2 O 0.28248(19) 0.66504(13) 0.29442(11)
H1 H 0.3519 0.7283 0.2965
O3 O 0.3004(2) 0.5903(2) 0.46192(12)
O4 O 0.03625(17) 0.53626(16) 0.42276(8)
C1 C 0.2728(2) 0.44029(19) 0.35447(11)
C2 C 0.1262(3) 0.35626(18) 0.31787(11)
H2 H 0.1790 0.2792 0.2924
H3 H 0.0545 0.3198 0.3581
C3 C 0.0064(2) 0.4273(2) 0.26158(11)
H4 H -0.0053 0.5223 0.2760
H5 H -0.1077 0.3859 0.2646
C4 C 0.0693(3) 0.4204(2) 0.17990(11)
H6 H 0.0985 0.3251 0.1689
C5 C 0.2328(3) 0.5066(3) 0.16624(12)
H7 H 0.2737 0.4913 0.1152
H8 H 0.2035 0.6025 0.1710
C6 C 0.3760(3) 0.4728(2) 0.22087(13)
C7 C 0.3732(2) 0.53919(18) 0.29952(12)
C8 C 0.5571(3) 0.5529(2) 0.33310(16)
H9 H 0.6433 0.5501 0.2933
H10 H 0.5683 0.6389 0.3597
C9 C 0.5834(3) 0.4339(3) 0.38728(15)
H11 H 0.5997 0.4673 0.4382
H12 H 0.6850 0.3816 0.3730
C10 C 0.4207(3) 0.3451(2) 0.38277(12)
H13 H 0.4411 0.2776 0.3430
C11 C 0.3812(4) 0.2661(3) 0.45435(16)
H14 H 0.4747 0.2042 0.4648
H15 H 0.2756 0.2155 0.4479
H16 H 0.3683 0.3285 0.4956
C12 C 0.2079(3) 0.5314(2) 0.41863(11)
C13 C -0.0351(3) 0.6260(3) 0.47970(14)
H17 H -0.0196 0.5858 0.5286
H18 H -0.1566 0.6395 0.4704
H19 H 0.0237 0.7123 0.4779
C14 C -0.0729(3) 0.4636(3) 0.12566(13)
H20 H -0.1696 0.4025 0.1302
H21 H -0.0293 0.4609 0.0750
H22 H -0.1095 0.5547 0.1375
loop_
_geom_bond_atom_site_label_1
_geom_bond_atom_site_label_2
_geom_bond_site_symmetry_1
_geom_bond_site_symmetry_2
O1 C6 1_555 1_555
O2 H1 1_555 1_555
O3 C12 1_555 1_555
O4 C12 1_555 1_555
C1 C2 1_555 1_555
C2 H2 1_555 1_555
H3 C2 1_555 1_555
C3 C2 1_555 1_555
H4 C3 1_555 1_555
H5 C3 1_555 1_555
C4 C3 1_555 1_555
H6 C4 1_555 1_555
C5 C4 1_555 1_555
H7 C5 1_555 1_555
H8 C5 1_555 1_555
C6 C5 1_555 1_555
C7 O2 1_555 1_555
C8 C7 1_555 1_555
H9 C8 1_555 1_555
H10 C8 1_555 1_555
C9 C8 1_555 1_555
H11 C9 1_555 1_555
H12 C9 1_555 1_555
C10 C1 1_555 1_555
H13 C10 1_555 1_555
C11 C10 1_555 1_555
H14 C11 1_555 1_555
H15 C11 1_555 1_555
H16 C11 1_555 1_555
C12 C1 1_555 1_555
C13 O4 1_555 1_555
H17 C13 1_555 1_555
H18 C13 1_555 1_555
H19 C13 1_555 1_555
C14 C4 1_555 1_555
H20 C14 1_555 1_555
H21 C14 1_555 1_555
H22 C14 1_555 1_555
C1 C7 1_555 1_555
C6 C7 1_555 1_555
C9 C10 1_555 1_555

#END
