
#######################################################################
#
#                 Cambridge Crystallographic Data Centre
#                                CCDC 
#
#######################################################################
#
# If this CIF has been generated from an entry in the Cambridge 
# Structural Database, then it will include bibliographic, chemical, 
# crystal, experimental, refinement or atomic coordinate data resulting 
# from the CCDC's data processing and validation procedures.
#
#######################################################################

data_ZESYOO
_chemical_formula_moiety         'C24 H38 O3'
_chemical_name_systematic        
8,9-dihydroxy-3,6,7a-trimethyl-10-isopropyltetradecahydro-4H-3a,11a-methanoindeno[5,6-e]azulen-12-one
_symmetry_cell_setting           orthorhombic
_symmetry_space_group_name_H-M   'P 21 21 21'
_symmetry_Int_Tables_number      19
_space_group_name_Hall           'P 2ac 2ab'
loop_
_symmetry_equiv_pos_site_id
_symmetry_equiv_pos_as_xyz
1 x,y,z
2 1/2-x,-y,1/2+z
3 1/2+x,1/2-y,-z
4 -x,1/2+y,1/2-z
_cell_length_a                   6.4921(16)
_cell_length_b                   9.3712(19)
_cell_length_c                   33.896(7)
_cell_angle_alpha                90
_cell_angle_beta                 90
_cell_angle_gamma                90
_cell_volume                     2062.19
_exptl_crystal_colour            colorless
_exptl_crystal_description       block
_cell_formula_units_Z            4
_exptl_crystal_recrystallization_method 
'Re-crystallisation from solvent: Acetone/Water'
loop_
_atom_site_label
_atom_site_type_symbol
_atom_site_fract_x
_atom_site_fract_y
_atom_site_fract_z
O1 O 0.06080(18) 1.03641(13) 0.27130(3)
H1 H 0.1085 0.9540 0.2645
O2 O -0.1504(2) 1.25077(13) 0.24485(3)
H2 H -0.0350 1.2110 0.2431
O3 O -0.31515(19) 0.95685(13) 0.46681(3)
C1 C -0.6301(3) 1.2573(2) 0.32987(5)
H3 H -0.7320 1.3232 0.3393
H4 H -0.6259 1.1754 0.3469
H5 H -0.6648 1.2277 0.3036
C2 C -0.4194(3) 1.32963(18) 0.32963(5)
H6 H -0.3917 1.3611 0.3567
C3 C -0.2358(3) 1.23610(17) 0.31675(4)
H7 H -0.1163 1.2999 0.3159
C4 C -0.1709(3) 1.10795(17) 0.34332(5)
H8 H -0.0204 1.1150 0.3448
C5 C -0.2386(3) 1.09137(18) 0.38606(5)
H9 H -0.3825 1.0638 0.3872
H10 H -0.2226 1.1812 0.4000
C6 C -0.1040(2) 0.97570(17) 0.40546(5)
C7 C -0.1536(3) 0.95458(17) 0.44911(5)
C8 C 0.0749(3) 0.95225(18) 0.46117(5)
C9 C 0.1395(3) 1.06414(18) 0.49163(5)
H11 H 0.2896 1.0594 0.4945
C10 C 0.0446(3) 1.0477(2) 0.53254(5)
H12 H -0.1028 1.0511 0.5305
H13 H 0.0914 1.1239 0.5492
H14 H 0.0855 0.9579 0.5436
C11 C -0.1558(3) 1.01803(18) 0.27772(5)
H15 H -0.2157 0.9537 0.2580
C12 C -0.2520(3) 1.16904(18) 0.27492(5)
H16 H -0.3979 1.1596 0.2680
C13 C 0.1496(3) 0.80043(18) 0.46785(5)
H17 H 0.1302 0.7761 0.4954
H18 H 0.2960 0.7961 0.4623
C14 C 0.0387(3) 0.68932(18) 0.44234(5)
H19 H -0.1044 0.6855 0.4505
H20 H 0.0988 0.5966 0.4477
C15 C 0.0456(3) 0.71516(17) 0.39758(5)
H21 H 0.1853 0.7460 0.3908
C16 C 0.0063(3) 0.5714(2) 0.37706(5)
H22 H 0.0990 0.5010 0.3874
H23 H 0.0287 0.5816 0.3492
H24 H -0.1332 0.5420 0.3817
C17 C -0.1072(3) 0.83089(17) 0.38226(5)
H25 H -0.2462 0.7913 0.3852
C18 C -0.0716(3) 0.85402(17) 0.33753(5)
H26 H 0.0713 0.8801 0.3333
H27 H -0.0965 0.7649 0.3238
C19 C -0.2101(3) 0.96972(17) 0.31983(4)
C20 C -0.4350(3) 0.91698(18) 0.31900(5)
H28 H -0.4429 0.8297 0.3042
H29 H -0.5204 0.9879 0.3068
H30 H -0.4816 0.9005 0.3455
C21 C 0.0867(3) 1.20357(18) 0.47015(5)
H31 H 0.1571 1.2841 0.4821
H32 H -0.0605 1.2212 0.4705
C22 C 0.1638(3) 1.17735(18) 0.42781(5)
H33 H 0.3102 1.1968 0.4258
H34 H 0.0912 1.2380 0.4093
C23 C 0.1189(2) 1.01831(17) 0.41927(5)
H35 H 0.2290 0.9698 0.4047
C24 C -0.4285(3) 1.46427(19) 0.30375(5)
H36 H -0.4518 1.4374 0.2768
H37 H -0.3004 1.5150 0.3057
H38 H -0.5388 1.5245 0.3126
loop_
_geom_bond_atom_site_label_1
_geom_bond_atom_site_label_2
_geom_bond_site_symmetry_1
_geom_bond_site_symmetry_2
O1 H1 1_555 1_555
O2 H2 1_555 1_555
O3 C7 1_555 1_555
C1 H3 1_555 1_555
H4 C1 1_555 1_555
H5 C1 1_555 1_555
C2 C1 1_555 1_555
H6 C2 1_555 1_555
C3 C2 1_555 1_555
H7 C3 1_555 1_555
C4 C3 1_555 1_555
H8 C4 1_555 1_555
C5 C4 1_555 1_555
H9 C5 1_555 1_555
H10 C5 1_555 1_555
C6 C5 1_555 1_555
C7 C6 1_555 1_555
C8 C7 1_555 1_555
C9 C8 1_555 1_555
H11 C9 1_555 1_555
C10 C9 1_555 1_555
H12 C10 1_555 1_555
H13 C10 1_555 1_555
H14 C10 1_555 1_555
C11 O1 1_555 1_555
H15 C11 1_555 1_555
C12 O2 1_555 1_555
H16 C12 1_555 1_555
C13 C8 1_555 1_555
H17 C13 1_555 1_555
H18 C13 1_555 1_555
C14 C13 1_555 1_555
H19 C14 1_555 1_555
H20 C14 1_555 1_555
C15 C14 1_555 1_555
H21 C15 1_555 1_555
C16 C15 1_555 1_555
H22 C16 1_555 1_555
H23 C16 1_555 1_555
H24 C16 1_555 1_555
C17 C6 1_555 1_555
H25 C17 1_555 1_555
C18 C17 1_555 1_555
H26 C18 1_555 1_555
H27 C18 1_555 1_555
C19 C4 1_555 1_555
C20 C19 1_555 1_555
H28 C20 1_555 1_555
H29 C20 1_555 1_555
H30 C20 1_555 1_555
C21 C9 1_555 1_555
H31 C21 1_555 1_555
H32 C21 1_555 1_555
C22 C21 1_555 1_555
H33 C22 1_555 1_555
H34 C22 1_555 1_555
C23 C6 1_555 1_555
H35 C23 1_555 1_555
C24 C2 1_555 1_555
H36 C24 1_555 1_555
H37 C24 1_555 1_555
H38 C24 1_555 1_555
C3 C12 1_555 1_555
C8 C23 1_555 1_555
C11 C12 1_555 1_555
C11 C19 1_555 1_555
C15 C17 1_555 1_555
C18 C19 1_555 1_555
C22 C23 1_555 1_555

#END
