
#######################################################################
#
#                 Cambridge Crystallographic Data Centre
#                                CCDC 
#
#######################################################################
#
# If this CIF has been generated from an entry in the Cambridge 
# Structural Database, then it will include bibliographic, chemical, 
# crystal, experimental, refinement or atomic coordinate data resulting 
# from the CCDC's data processing and validation procedures.
#
#######################################################################

data_ZETGAG
_chemical_formula_moiety         'C26 H28 N2 O8'
_chemical_name_systematic        
'rac-Diethyl 2,3-dicyano-2,3-bis(3,4-dimethoxyphenyl)succinate'
_symmetry_cell_setting           triclinic
_symmetry_space_group_name_H-M   'P -1'
_symmetry_Int_Tables_number      2
_space_group_name_Hall           '-P 1'
loop_
_symmetry_equiv_pos_site_id
_symmetry_equiv_pos_as_xyz
1 x,y,z
2 -x,-y,-z
_cell_length_a                   12.047(1)
_cell_length_b                   13.271(1)
_cell_length_c                   8.728(2)
_cell_angle_alpha                90.71(1)
_cell_angle_beta                 108.81(1)
_cell_angle_gamma                84.87(1)
_cell_volume                     1315.38
_cell_formula_units_Z            2
loop_
_atom_site_label
_atom_site_type_symbol
_atom_site_fract_x
_atom_site_fract_y
_atom_site_fract_z
O1 O 1.1398(2) 0.4443(2) 0.7199(3)
O2 O 1.4035(2) 0.3962(2) 0.8652(2)
O3 O 1.1114(2) 0.3100(1) 0.8491(2)
O4 O 1.4157(2) 0.4781(2) 0.6484(2)
O5 O 1.6790(2) 0.1259(2) 0.6940(2)
O6 O 0.8415(2) 0.2230(2) 0.2641(3)
O7 O 1.6356(2) 0.0926(2) 0.3889(2)
O8 O 0.9195(2) 0.0449(1) 0.2028(2)
N1 N 1.3589(2) 0.1575(2) 0.9089(3)
N2 N 1.1605(2) 0.4469(2) 0.3530(3)
C1 C 1.3023(2) 0.3382(2) 0.5969(3)
C2 C 1.2258(2) 0.2791(2) 0.6761(3)
C3 C 1.1438(2) 0.2139(2) 0.5503(3)
C4 C 1.3868(2) 0.2681(2) 0.5357(3)
C5 C 1.4935(2) 0.2276(2) 0.6467(3)
C6 C 1.0281(2) 0.2517(2) 0.4670(3)
C7 C 1.5734(2) 0.1677(2) 0.5949(3)
C8 C 0.9558(2) 0.1930(2) 0.3520(3)
C9 C 0.9980(2) 0.0966(2) 0.3187(3)
C10 C 1.5488(2) 0.1479(2) 0.4289(3)
C11 C 1.1124(2) 0.0598(2) 0.3992(3)
C12 C 1.4423(2) 0.1856(2) 0.3214(3)
C13 C 1.3619(2) 0.2454(2) 0.3740(3)
C14 C 1.1852(2) 0.1195(2) 0.5164(3)
C15 C 1.3786(2) 0.4092(2) 0.7224(3)
C16 C 1.1546(2) 0.3563(2) 0.7512(3)
C17 C 1.5046(3) 0.5406(3) 0.7524(4)
C18 C 1.0390(3) 0.3748(3) 0.9262(3)
C19 C 1.6223(3) 0.4844(3) 0.8037(5)
C20 C 0.9732(4) 0.3109(4) 0.9896(5)
C21 C 1.3036(2) 0.2117(2) 0.8086(3)
C22 C 1.2210(2) 0.4011(2) 0.4604(3)
C23 C 1.6970(3) 0.1252(4) 0.8612(4)
C24 C 0.7896(3) 0.3136(3) 0.3090(6)
C25 C 0.9552(3) -0.0567(2) 0.1760(4)
C26 C 1.6197(3) 0.0822(2) 0.2202(3)
loop_
_geom_bond_atom_site_label_1
_geom_bond_atom_site_label_2
_geom_bond_site_symmetry_1
_geom_bond_site_symmetry_2
O1 C16 1_555 1_555
O2 C15 1_555 1_555
O3 C16 1_555 1_555
O4 C15 1_555 1_555
O5 C7 1_555 1_555
O6 C8 1_555 1_555
O7 C10 1_555 1_555
O8 C9 1_555 1_555
N1 C21 1_555 1_555
N2 C22 1_555 1_555
C1 C2 1_555 1_555
C2 C3 1_555 1_555
C3 C6 1_555 1_555
C4 C1 1_555 1_555
C5 C4 1_555 1_555
C6 C8 1_555 1_555
C7 C5 1_555 1_555
C8 C9 1_555 1_555
C9 C11 1_555 1_555
C10 C7 1_555 1_555
C11 C14 1_555 1_555
C12 C10 1_555 1_555
C13 C4 1_555 1_555
C14 C3 1_555 1_555
C15 C1 1_555 1_555
C16 C2 1_555 1_555
C17 O4 1_555 1_555
C18 O3 1_555 1_555
C19 C17 1_555 1_555
C20 C18 1_555 1_555
C21 C2 1_555 1_555
C22 C1 1_555 1_555
C23 O5 1_555 1_555
C24 O6 1_555 1_555
C25 O8 1_555 1_555
C26 O7 1_555 1_555
C12 C13 1_555 1_555

#END
