
#######################################################################
#
#                 Cambridge Crystallographic Data Centre
#                                CCDC 
#
#######################################################################
#
# If this CIF has been generated from an entry in the Cambridge 
# Structural Database, then it will include bibliographic, chemical, 
# crystal, experimental, refinement or atomic coordinate data resulting 
# from the CCDC's data processing and validation procedures.
#
#######################################################################

data_ZETLUH
_chemical_formula_moiety         'C26 H27 N1 O3'
_chemical_name_systematic        
'Ethyl (3-allyl-9-benzyl-4-oxo-2,3,4,9-tetrahydro-1H-carbazol-3-yl)acetate'
_symmetry_cell_setting           orthorhombic
_symmetry_space_group_name_H-M   'P 21 21 21'
_symmetry_Int_Tables_number      19
_space_group_name_Hall           'P 2ac 2ab'
loop_
_symmetry_equiv_pos_site_id
_symmetry_equiv_pos_as_xyz
1 x,y,z
2 1/2+x,1/2-y,-z
3 -x,1/2+y,1/2-z
4 1/2-x,-y,1/2+z
_cell_length_a                   8.89700(10)
_cell_length_b                   9.7506(2)
_cell_length_c                   25.0629(4)
_cell_angle_alpha                90
_cell_angle_beta                 90
_cell_angle_gamma                90
_cell_volume                     2174.23
_exptl_crystal_colour            colorless
_exptl_crystal_description       prism
_cell_formula_units_Z            4
loop_
_atom_site_label
_atom_site_type_symbol
_atom_site_fract_x
_atom_site_fract_y
_atom_site_fract_z
O1 O 0.4323(3) 1.1452(3) 0.05570(10)
O2 O -0.0437(2) 0.99618(19) 0.07369(7)
O3 O 0.2661(2) 1.14044(19) 0.12341(7)
N1 N -0.0506(3) 0.7918(2) 0.23881(8)
C1 C 0.4040(6) 1.3910(4) 0.05950(16)
H1 H 0.4336 1.4187 0.0234
H2 H 0.4209 1.4673 0.0842
H3 H 0.2973 1.3660 0.0597
C2 C 0.4931(5) 1.2741(4) 0.07600(17)
H4 H 0.4964 1.2705 0.1155
H5 H 0.5973 1.2855 0.0629
C3 C 0.3125(4) 1.0907(3) 0.08241(12)
C4 C 0.2630(3) 0.9611(3) 0.05636(10)
H6 H 0.3528 0.9133 0.0422
H7 H 0.1980 0.9845 0.0256
C5 C 0.1768(3) 0.8614(3) 0.09293(10)
C6 C 0.2682(3) 0.8282(3) 0.14369(11)
H8 H 0.3607 0.7788 0.1332
H9 H 0.2990 0.9154 0.1607
C7 C 0.1833(3) 0.7416(3) 0.18475(10)
H10 H 0.1712 0.6467 0.1715
H11 H 0.2401 0.7385 0.2187
C8 C 0.0333(3) 0.8054(3) 0.19357(10)
C9 C -0.0002(3) 0.7317(3) 0.28890(10)
H12 H 0.0756 0.6601 0.2813
H13 H -0.0866 0.6872 0.3068
C10 C 0.0677(3) 0.8381(3) 0.32627(10)
C11 C 0.0562(4) 0.8182(3) 0.38111(11)
H14 H 0.0052 0.7398 0.3944
C12 C 0.1183(4) 0.9116(3) 0.41641(12)
H15 H 0.1096 0.8968 0.4538
C13 C 0.1932(3) 1.0265(3) 0.39749(12)
H16 H 0.2357 1.0906 0.4218
C14 C 0.0209(3) 0.9234(3) 0.10628(10)
C15 C -0.0421(3) 0.8867(3) 0.15735(10)
C16 C -0.1825(3) 0.8656(3) 0.23289(10)
C17 C -0.1826(3) 0.9259(3) 0.18145(10)
C18 C -0.3037(3) 1.0094(3) 0.16666(11)
H17 H -0.3063 1.0517 0.1325
C19 C -0.4193(3) 1.0291(3) 0.20274(12)
H18 H -0.5011 1.0867 0.1933
C20 C -0.4185(3) 0.9661(3) 0.25284(12)
H19 H -0.5012 0.9800 0.2762
C21 C -0.3001(3) 0.8840(3) 0.26920(11)
H20 H -0.2989 0.8421 0.3034
C22 C 0.1417(3) 0.9532(3) 0.30751(11)
H21 H 0.1491 0.9685 0.2702
C23 C 0.2058(3) 1.0473(3) 0.34287(12)
H22 H 0.2578 1.1253 0.3296
C24 C 0.1494(3) 0.7247(3) 0.06191(11)
H23 H 0.2466 0.6760 0.0586
H24 H 0.0819 0.6662 0.0835
C25 C 0.0830(3) 0.7394(3) 0.00740(12)
H25 H -0.0049 0.7938 0.0036
C26 C 0.1394(3) 0.6811(3) -0.03572(12)
H26 H 0.2272 0.6261 -0.0332
H27 H 0.0922 0.6942 -0.0693
loop_
_geom_bond_atom_site_label_1
_geom_bond_atom_site_label_2
_geom_bond_site_symmetry_1
_geom_bond_site_symmetry_2
O1 C2 1_555 1_555
O2 C14 1_555 1_555
O3 C3 1_555 1_555
N1 C8 1_555 1_555
C1 H1 1_555 1_555
H2 C1 1_555 1_555
H3 C1 1_555 1_555
C2 C1 1_555 1_555
H4 C2 1_555 1_555
H5 C2 1_555 1_555
C3 O1 1_555 1_555
C4 C3 1_555 1_555
H6 C4 1_555 1_555
H7 C4 1_555 1_555
C5 C4 1_555 1_555
C6 C5 1_555 1_555
H8 C6 1_555 1_555
H9 C6 1_555 1_555
C7 C6 1_555 1_555
H10 C7 1_555 1_555
H11 C7 1_555 1_555
C8 C7 1_555 1_555
C9 N1 1_555 1_555
H12 C9 1_555 1_555
H13 C9 1_555 1_555
C10 C9 1_555 1_555
C11 C10 1_555 1_555
H14 C11 1_555 1_555
C12 C11 1_555 1_555
H15 C12 1_555 1_555
C13 C12 1_555 1_555
H16 C13 1_555 1_555
C14 C5 1_555 1_555
C15 C8 1_555 1_555
C16 N1 1_555 1_555
C17 C15 1_555 1_555
C18 C17 1_555 1_555
H17 C18 1_555 1_555
C19 C18 1_555 1_555
H18 C19 1_555 1_555
C20 C19 1_555 1_555
H19 C20 1_555 1_555
C21 C16 1_555 1_555
H20 C21 1_555 1_555
C22 C10 1_555 1_555
H21 C22 1_555 1_555
C23 C13 1_555 1_555
H22 C23 1_555 1_555
C24 C5 1_555 1_555
H23 C24 1_555 1_555
H24 C24 1_555 1_555
C25 C24 1_555 1_555
H25 C25 1_555 1_555
C26 C25 1_555 1_555
H26 C26 1_555 1_555
H27 C26 1_555 1_555
C14 C15 1_555 1_555
C16 C17 1_555 1_555
C20 C21 1_555 1_555
C22 C23 1_555 1_555

#END
