
#######################################################################
#
#                 Cambridge Crystallographic Data Centre
#                                CCDC 
#
#######################################################################
#
# If this CIF has been generated from an entry in the Cambridge 
# Structural Database, then it will include bibliographic, chemical, 
# crystal, experimental, refinement or atomic coordinate data resulting 
# from the CCDC's data processing and validation procedures.
#
#######################################################################

data_ZETMIX
_chemical_formula_moiety         'C26 H34 N14,2.5(C4 H8 O2)'
_chemical_name_systematic        
'N^11^,N^11^,N^25^,N^25^-tetraethyl-2,8,10,12,14,15,21,22,24,26,27,29-dodecaazapentacyclo[21.3.1.1^3,7^.1^9,13^.1^16,20^]triaconta-1(27),3(30),4,6,9(29),10,12,16(28),17,19,23,25-dodecaene-11,25-diamine 1,4-dioxane solvate'
_symmetry_cell_setting           triclinic
_symmetry_space_group_name_H-M   'P -1'
_symmetry_Int_Tables_number      2
_space_group_name_Hall           '-P 1'
loop_
_symmetry_equiv_pos_site_id
_symmetry_equiv_pos_as_xyz
1 x,y,z
2 -x,-y,-z
_cell_length_a                   8.349(3)
_cell_length_b                   12.980(4)
_cell_length_c                   19.618(7)
_cell_angle_alpha                99.189(16)
_cell_angle_beta                 95.609(17)
_cell_angle_gamma                108.607(14)
_cell_volume                     1963.74
_exptl_crystal_colour            colorless
_exptl_crystal_description       plate
_cell_formula_units_Z            2
loop_
_atom_site_label
_atom_site_type_symbol
_atom_site_fract_x
_atom_site_fract_y
_atom_site_fract_z
N1 N 0.53620(19) 0.57979(12) 0.95127(8)
H1 H 0.610997 0.578745 0.984329
N2 N 0.52111(18) 0.50103(12) 0.89123(8)
H2 H 0.613345 0.500866 0.873071
N3 N 0.24254(19) 0.39345(13) 0.89808(8)
N4 N 0.07174(19) 0.27300(12) 0.79215(8)
N5 N 0.36041(18) 0.38570(12) 0.79166(8)
N6 N -0.0321(2) 0.27224(16) 0.89648(10)
N7 N 0.1782(2) 0.27437(12) 0.69028(8)
H3 H 0.081372 0.219140 0.674321
N8 N 0.65123(18) 0.53497(11) 0.60700(7)
H4 H 0.737117 0.529358 0.585810
N9 N 0.82950(18) 0.71278(11) 0.65084(7)
N10 N 0.73671(18) 0.83307(11) 0.73162(7)
N11 N 0.54219(17) 0.65180(11) 0.67496(8)
N12 N 1.00863(18) 0.88989(12) 0.70258(8)
N13 N 0.45436(18) 0.77034(12) 0.74782(8)
H5 H 0.348247 0.731176 0.728270
N14 N 0.4836(2) 0.84999(12) 0.80895(8)
H6 H 0.550412 0.913885 0.804906
C1 C 0.3667(2) 0.42451(13) 0.86020(9)
C2 C 0.0983(2) 0.31402(15) 0.86129(10)
C3 C 0.2076(2) 0.31332(13) 0.76076(9)
C4 C -0.0173(11) 0.3230(6) 0.9730(4)
H7 H -0.078338 0.263821 0.996836
H8 H 0.104958 0.350686 0.994236
C5 C -0.1791(18) 0.1786(11) 0.8663(6)
H9 H -0.195400 0.125623 0.898326
H10 H -0.155258 0.141754 0.822176
C6 C -0.3455(15) 0.1989(8) 0.8504(6)
H11 H -0.332790 0.250692 0.818418
H12 H -0.375861 0.230711 0.893972
H13 H -0.436036 0.128513 0.828629
C7 C 0.2789(2) 0.30888(13) 0.63897(9)
C8 C 0.2323(2) 0.23913(14) 0.57295(10)
H14 H 0.137560 0.171870 0.564434
C9 C 0.3243(2) 0.26831(15) 0.52023(10)
H15 H 0.293037 0.220215 0.475561
C10 C 0.4618(2) 0.36675(14) 0.53128(9)
H16 H 0.524731 0.385940 0.494646
C11 C 0.5060(2) 0.43679(13) 0.59658(9)
C12 C 0.4160(2) 0.40858(13) 0.65078(9)
H17 H 0.447579 0.456771 0.695426
C13 C 0.6734(2) 0.63631(13) 0.64569(8)
C14 C 0.8540(2) 0.80956(13) 0.69430(9)
C15 C 0.5854(2) 0.75149(13) 0.71755(9)
C16 C 1.1437(2) 0.87114(15) 0.66529(10)
H18 H 1.134216 0.792200 0.660210
H19 H 1.256741 0.916842 0.693195
C17 C 1.1330(3) 0.90005(19) 0.59363(12)
H20 H 1.024625 0.851297 0.564702
H21 H 1.228690 0.890081 0.571472
H22 H 1.138620 0.977490 0.598309
C18 C 1.0466(2) 0.99992(14) 0.74619(10)
H23 H 0.940780 1.019017 0.744508
H24 H 1.131394 1.055359 0.726727
C19 C 1.1164(3) 1.00694(19) 0.82195(12)
H25 H 1.218792 0.985341 0.823904
H26 H 1.029306 0.956784 0.842756
H27 H 1.146220 1.083235 0.848032
C20 C 0.5343(2) 0.82209(14) 0.87271(9)
C21 C 0.5889(3) 0.90605(16) 0.93189(11)
H28 H 0.597115 0.979772 0.928681
C22 C 0.6313(4) 0.88114(18) 0.99570(12)
H29 H 0.671386 0.938948 1.036154
C23 C 0.6166(3) 0.77363(17) 1.00199(11)
H30 H 0.646446 0.758091 1.046259
C24 C 0.5576(2) 0.68855(14) 0.94260(9)
C25 C 0.5170(2) 0.71282(14) 0.87769(9)
H31 H 0.477781 0.655382 0.837031
C26 C -0.0831(14) 0.4117(8) 0.9864(4)
H32 H -0.069824 0.438910 1.035803
H33 H -0.013224 0.468530 0.965433
H34 H -0.200894 0.391860 0.966013
O1 O -0.4875(2) 0.07836(19) 0.64150(16)
O2 O -0.1597(2) 0.12554(15) 0.60677(11)
C31 C -0.3762(4) 0.1876(2) 0.64881(18)
H45 H -0.311980 0.213743 0.697037
H46 H -0.444034 0.236200 0.641426
C32 C -0.2554(4) 0.1970(2) 0.59936(17)
H47 H -0.318599 0.177428 0.551075
H48 H -0.176524 0.274639 0.607535
C33 C -0.2699(3) 0.0151(2) 0.59724(16)
H49 H -0.202183 -0.033600 0.604524
H50 H -0.333091 -0.009894 0.548828
C34 C -0.3926(4) 0.0065(3) 0.6474(2)
H51 H -0.472457 -0.070926 0.638966
H52 H -0.329220 0.024957 0.695603
O3 O 0.8396(2) 0.55351(15) 0.83446(10)
O4 O 1.1121(2) 0.63375(13) 0.76175(10)
C35 C 0.8665(3) 0.4839(2) 0.77541(15)
H53 H 0.797308 0.487198 0.732392
H54 H 0.829428 0.405989 0.781654
C36 C 1.0539(3) 0.52208(19) 0.76822(14)
H55 H 1.121722 0.513185 0.809778
H56 H 1.071077 0.475221 0.726486
C37 C 1.0811(3) 0.70205(19) 0.81887(15)
H57 H 1.116032 0.779382 0.811601
H58 H 1.151804 0.701151 0.862193
C38 C 0.8966(3) 0.6646(2) 0.82760(14)
H59 H 0.881492 0.711808 0.869649
H60 H 0.826782 0.673180 0.786520
O5 O 0.9080(2) 0.45077(13) 0.54932(9)
C39 C 1.0736(3) 0.5346(2) 0.57011(13)
H61 H 1.162662 0.499455 0.571955
H62 H 1.080731 0.577874 0.617385
C40 C 0.8961(3) 0.38994(18) 0.48072(14)
H63 H 0.781088 0.332565 0.466390
H64 H 0.981893 0.352018 0.480709
O5A O 1.0920(2) 0.54923(13) 0.45068(9)
C39A C 0.9264(3) 0.4654(2) 0.42989(13)
H61A H 0.837338 0.500545 0.428045
H62A H 0.919269 0.422126 0.382615
C40A C 1.1039(3) 0.61006(18) 0.51928(14)
H63A H 1.218912 0.667435 0.533610
H64A H 1.018107 0.647982 0.519291
C27? C -0.0462(12) 0.1742(7) 0.9958(4)
H35? H 0.026059 0.134970 0.975522
H36? H -0.166856 0.127889 0.981377
H37? H -0.018339 0.189943 1.046948
C28? C -0.0143(18) 0.2824(9) 0.9705(7)
H38? H -0.094967 0.317976 0.988161
H39? H 0.103057 0.332611 0.991271
C29? C -0.201(3) 0.188(2) 0.8530(11)
H40? H -0.192434 0.178317 0.802560
H41? H -0.223497 0.114593 0.866454
C30? C -0.344(2) 0.2317(15) 0.8674(11)
H42? H -0.451188 0.181303 0.838767
H43? H -0.317492 0.305437 0.855903
H44? H -0.354729 0.236994 0.917034
loop_
_geom_bond_atom_site_label_1
_geom_bond_atom_site_label_2
_geom_bond_site_symmetry_1
_geom_bond_site_symmetry_2
N1 H1 1_555 1_555
N2 N1 1_555 1_555
H2 N2 1_555 1_555
N3 C1 1_555 1_555
N4 C2 1_555 1_555
N5 C1 1_555 1_555
N6 C2 1_555 1_555
N7 H3 1_555 1_555
N8 H4 1_555 1_555
N9 C13 1_555 1_555
N10 C14 1_555 1_555
N11 C13 1_555 1_555
N12 C14 1_555 1_555
N13 H5 1_555 1_555
N14 N13 1_555 1_555
H6 N14 1_555 1_555
C1 N2 1_555 1_555
C2 N3 1_555 1_555
C3 N4 1_555 1_555
C4 N6 1_555 1_555
H7 C4 1_555 1_555
H8 C4 1_555 1_555
C5 N6 1_555 1_555
H9 C5 1_555 1_555
H10 C5 1_555 1_555
C6 C5 1_555 1_555
H11 C6 1_555 1_555
H12 C6 1_555 1_555
H13 C6 1_555 1_555
C7 N7 1_555 1_555
C8 C7 1_555 1_555
H14 C8 1_555 1_555
C9 C8 1_555 1_555
H15 C9 1_555 1_555
C10 C9 1_555 1_555
H16 C10 1_555 1_555
C11 N8 1_555 1_555
C12 C7 1_555 1_555
H17 C12 1_555 1_555
C13 N8 1_555 1_555
C14 N9 1_555 1_555
C15 N10 1_555 1_555
C16 N12 1_555 1_555
H18 C16 1_555 1_555
H19 C16 1_555 1_555
C17 C16 1_555 1_555
H20 C17 1_555 1_555
H21 C17 1_555 1_555
H22 C17 1_555 1_555
C18 N12 1_555 1_555
H23 C18 1_555 1_555
H24 C18 1_555 1_555
C19 C18 1_555 1_555
H25 C19 1_555 1_555
H26 C19 1_555 1_555
H27 C19 1_555 1_555
C20 N14 1_555 1_555
C21 C20 1_555 1_555
H28 C21 1_555 1_555
C22 C21 1_555 1_555
H29 C22 1_555 1_555
C23 C22 1_555 1_555
H30 C23 1_555 1_555
C24 N1 1_555 1_555
C25 C20 1_555 1_555
H31 C25 1_555 1_555
C26 C4 1_555 1_555
H32 C26 1_555 1_555
H33 C26 1_555 1_555
H34 C26 1_555 1_555
O1 C31 1_555 1_555
O2 C32 1_555 1_555
C31 H45 1_555 1_555
H46 C31 1_555 1_555
C32 C31 1_555 1_555
H47 C32 1_555 1_555
H48 C32 1_555 1_555
C33 O2 1_555 1_555
H49 C33 1_555 1_555
H50 C33 1_555 1_555
C34 O1 1_555 1_555
H51 C34 1_555 1_555
H52 C34 1_555 1_555
O3 C35 1_555 1_555
O4 C36 1_555 1_555
C35 H53 1_555 1_555
H54 C35 1_555 1_555
C36 C35 1_555 1_555
H55 C36 1_555 1_555
H56 C36 1_555 1_555
C37 O4 1_555 1_555
H57 C37 1_555 1_555
H58 C37 1_555 1_555
C38 O3 1_555 1_555
H59 C38 1_555 1_555
H60 C38 1_555 1_555
O5 C39 1_555 1_555
C39 H61 1_555 1_555
H62 C39 1_555 1_555
C40 O5 1_555 1_555
H63 C40 1_555 1_555
H64 C40 1_555 1_555
O5A C39A 1_555 1_555
C39A C40 1_555 1_555
H61A C39A 1_555 1_555
H62A C39A 1_555 1_555
C40A C39 1_555 1_555
H63A C40A 1_555 1_555
H64A C40A 1_555 1_555
N5 C3 1_555 1_555
N7 C3 1_555 1_555
N11 C15 1_555 1_555
N13 C15 1_555 1_555
C10 C11 1_555 1_555
C11 C12 1_555 1_555
C23 C24 1_555 1_555
C24 C25 1_555 1_555
C33 C34 1_555 1_555
C37 C38 1_555 1_555
O5A C40A 1_555 1_555

#END
