
#######################################################################
#
#                 Cambridge Crystallographic Data Centre
#                                CCDC 
#
#######################################################################
#
# If this CIF has been generated from an entry in the Cambridge 
# Structural Database, then it will include bibliographic, chemical, 
# crystal, experimental, refinement or atomic coordinate data resulting 
# from the CCDC's data processing and validation procedures.
#
#######################################################################

data_ZETNOE
_chemical_formula_moiety         'C28 H27 Cl2 N11 O8'
_chemical_name_systematic        
'di-t-butyl 11,25-dichloro-30-nitro-2,8-dioxa-10,12,14,15,21,22,24,26,27,29-decaazapentacyclo[21.3.1.1^3,7^.1^9,13^.1^16,20^]triaconta-1(27),3(30),4,6,9(29),10,12,16(28),17,19,23,25-dodecaene-15,21-dicarboxylate unknown solvate'
_symmetry_cell_setting           monoclinic
_symmetry_space_group_name_H-M   'P 21/n'
_symmetry_Int_Tables_number      14
_space_group_name_Hall           '-P 2yn'
loop_
_symmetry_equiv_pos_site_id
_symmetry_equiv_pos_as_xyz
1 x,y,z
2 1/2-x,1/2+y,1/2-z
3 -x,-y,-z
4 1/2+x,1/2-y,1/2+z
_cell_length_a                   18.140(7)
_cell_length_b                   11.740(4)
_cell_length_c                   18.675(7)
_cell_angle_alpha                90
_cell_angle_beta                 118.992(6)
_cell_angle_gamma                90
_cell_volume                     3478.72
_exptl_crystal_colour            colorless
_exptl_crystal_description       Plate
_cell_formula_units_Z            4
loop_
_atom_site_label
_atom_site_type_symbol
_atom_site_fract_x
_atom_site_fract_y
_atom_site_fract_z
Cl1 Cl 0.55480(8) 0.36686(17) 0.67521(7)
Cl2 Cl 0.39612(9) 0.08665(12) -0.07627(8)
O1 O 0.6830(2) 0.1676(3) 0.43444(18)
O2 O 0.66185(19) 0.2364(3) 0.31191(17)
O3 O 0.39254(18) 0.5760(3) 0.00241(16)
O4 O 0.42216(19) 0.6715(3) 0.11985(17)
O5 O 0.31653(18) 0.2205(3) 0.12073(18)
O6 O 0.36275(19) 0.3489(4) 0.38620(18)
O7 O 0.4068(2) 0.1402(4) 0.3436(2)
O8 O 0.4614(2) 0.1803(3) 0.2652(2)
N1 N 0.4543(2) 0.3545(4) 0.5189(2)
N2 N 0.6020(2) 0.3683(4) 0.5650(2)
N3 N 0.5037(2) 0.3575(4) 0.4208(2)
N4 N 0.6480(2) 0.3686(3) 0.47209(19)
H1 H 0.6972 0.3836 0.5122
N5 N 0.6391(2) 0.3503(3) 0.39501(19)
N6 N 0.5043(2) 0.5265(3) 0.12487(19)
N7 N 0.5134(2) 0.4293(3) 0.08749(19)
H2 H 0.5546 0.4243 0.0772
N8 N 0.4581(2) 0.2668(3) 0.0129(2)
N9 N 0.3554(2) 0.1622(3) 0.0304(2)
N10 N 0.4093(2) 0.3363(3) 0.1032(2)
N11 N 0.4109(3) 0.1968(4) 0.2902(2)
C1 C 0.4454(3) 0.3538(4) 0.4442(3)
C2 C 0.5353(3) 0.3615(5) 0.5753(3)
C3 C 0.5823(3) 0.3634(4) 0.4857(2)
C4 C 0.6628(3) 0.2419(4) 0.3834(2)
C5 C 0.6878(3) 0.1311(4) 0.2860(3)
C6 C 0.6784(3) 0.1674(5) 0.2044(3)
H3 H 0.7130 0.2330 0.2118
H4 H 0.6205 0.1860 0.1677
H5 H 0.6956 0.1063 0.1817
C7 C 0.7778(3) 0.1030(5) 0.3457(3)
H6 H 0.7826 0.0852 0.3980
H7 H 0.8129 0.1672 0.3512
H8 H 0.7954 0.0386 0.3261
C8 C 0.6287(4) 0.0345(5) 0.2766(4)
H9 H 0.5717 0.0572 0.2400
H10 H 0.6343 0.0159 0.3290
H11 H 0.6426 -0.0310 0.2547
C9 C 0.6234(2) 0.4485(4) 0.3438(2)
C10 C 0.6572(3) 0.5525(4) 0.3789(3)
H12 H 0.6908 0.5584 0.4354
C11 C 0.6413(3) 0.6470(4) 0.3305(3)
H13 H 0.6643 0.7167 0.3547
C12 C 0.5918(3) 0.6406(4) 0.2466(3)
H14 H 0.5826 0.7045 0.2139
C13 C 0.5561(2) 0.5370(4) 0.2121(2)
C14 C 0.5705(2) 0.4414(4) 0.2602(2)
H15 H 0.5447 0.3727 0.2365
C15 C 0.4340(2) 0.5925(4) 0.0756(2)
C16 C 0.3546(3) 0.7593(4) 0.0788(3)
C17 C 0.2701(3) 0.7008(6) 0.0431(4)
H16 H 0.2681 0.6535 0.0841
H17 H 0.2620 0.6546 -0.0025
H18 H 0.2262 0.7570 0.0251
C18 C 0.3692(3) 0.8229(5) 0.0174(3)
H19 H 0.3566 0.7742 -0.0285
H20 H 0.4271 0.8465 0.0422
H21 H 0.3333 0.8887 -0.0009
C19 C 0.3688(5) 0.8361(6) 0.1491(4)
H22 H 0.4248 0.8668 0.1735
H23 H 0.3620 0.7931 0.1892
H24 H 0.3286 0.8972 0.1293
C20 C 0.4579(2) 0.3424(4) 0.0672(2)
C21 C 0.4045(3) 0.1831(4) -0.0024(3)
C22 C 0.3632(3) 0.2431(4) 0.0838(2)
C23 C 0.3097(3) 0.3048(4) 0.1701(3)
C24 C 0.2526(3) 0.3908(5) 0.1339(3)
H25 H 0.2239 0.3987 0.0773
C25 C 0.2380(3) 0.4658(6) 0.1829(3)
H26 H 0.2009 0.5262 0.1590
C26 C 0.2782(3) 0.4519(5) 0.2671(3)
H27 H 0.2674 0.5022 0.2994
C27 C 0.3336(3) 0.3639(5) 0.3026(3)
C28 C 0.3513(3) 0.2907(5) 0.2544(3)
loop_
_geom_bond_atom_site_label_1
_geom_bond_atom_site_label_2
_geom_bond_site_symmetry_1
_geom_bond_site_symmetry_2
Cl1 C2 1_555 1_555
Cl2 C21 1_555 1_555
O1 C4 1_555 1_555
O2 C4 1_555 1_555
O3 C15 1_555 1_555
O4 C15 1_555 1_555
O5 C22 1_555 1_555
O6 C1 1_555 1_555
O7 N11 1_555 1_555
O8 N11 1_555 1_555
N1 C1 1_555 1_555
N2 C2 1_555 1_555
N3 C1 1_555 1_555
N4 H1 1_555 1_555
N5 N4 1_555 1_555
N6 N7 1_555 1_555
N7 H2 1_555 1_555
N8 C20 1_555 1_555
N9 C21 1_555 1_555
N10 C20 1_555 1_555
N11 C28 1_555 1_555
C2 N1 1_555 1_555
C3 N2 1_555 1_555
C4 N5 1_555 1_555
C5 O2 1_555 1_555
C6 C5 1_555 1_555
H3 C6 1_555 1_555
H4 C6 1_555 1_555
H5 C6 1_555 1_555
C7 C5 1_555 1_555
H6 C7 1_555 1_555
H7 C7 1_555 1_555
H8 C7 1_555 1_555
C8 C5 1_555 1_555
H9 C8 1_555 1_555
H10 C8 1_555 1_555
H11 C8 1_555 1_555
C9 N5 1_555 1_555
C10 C9 1_555 1_555
H12 C10 1_555 1_555
C11 C10 1_555 1_555
H13 C11 1_555 1_555
C12 C11 1_555 1_555
H14 C12 1_555 1_555
C13 N6 1_555 1_555
C14 C9 1_555 1_555
H15 C14 1_555 1_555
C15 N6 1_555 1_555
C16 O4 1_555 1_555
C17 C16 1_555 1_555
H16 C17 1_555 1_555
H17 C17 1_555 1_555
H18 C17 1_555 1_555
C18 C16 1_555 1_555
H19 C18 1_555 1_555
H20 C18 1_555 1_555
H21 C18 1_555 1_555
C19 C16 1_555 1_555
H22 C19 1_555 1_555
H23 C19 1_555 1_555
H24 C19 1_555 1_555
C20 N7 1_555 1_555
C21 N8 1_555 1_555
C22 N9 1_555 1_555
C23 O5 1_555 1_555
C24 C23 1_555 1_555
H25 C24 1_555 1_555
C25 C24 1_555 1_555
H26 C25 1_555 1_555
C26 C25 1_555 1_555
H27 C26 1_555 1_555
C27 O6 1_555 1_555
C28 C23 1_555 1_555
N3 C3 1_555 1_555
N4 C3 1_555 1_555
N10 C22 1_555 1_555
C12 C13 1_555 1_555
C13 C14 1_555 1_555
C26 C27 1_555 1_555
C27 C28 1_555 1_555

#END
