
#######################################################################
#
#                 Cambridge Crystallographic Data Centre
#                                CCDC 
#
#######################################################################
#
# If this CIF has been generated from an entry in the Cambridge 
# Structural Database, then it will include bibliographic, chemical, 
# crystal, experimental, refinement or atomic coordinate data resulting 
# from the CCDC's data processing and validation procedures.
#
#######################################################################

data_ZETQOG
_chemical_formula_moiety         'C15 H19 O6 P1'
_chemical_name_systematic        
'Diethyl (hydroxy(5-oxo-2,5-dihydrofuran-2-yl)phenylmethyl)phosphonate'
_symmetry_cell_setting           orthorhombic
_symmetry_space_group_name_H-M   'P 21 21 21'
_symmetry_Int_Tables_number      19
_space_group_name_Hall           'P 2ac 2ab'
loop_
_symmetry_equiv_pos_site_id
_symmetry_equiv_pos_as_xyz
1 x,y,z
2 1/2-x,-y,1/2+z
3 1/2+x,1/2-y,-z
4 -x,1/2+y,1/2-z
_cell_length_a                   9.1696(18)
_cell_length_b                   11.622(2)
_cell_length_c                   15.253(3)
_cell_angle_alpha                90
_cell_angle_beta                 90
_cell_angle_gamma                90
_cell_volume                     1625.5
_cell_formula_units_Z            4
loop_
_atom_site_label
_atom_site_type_symbol
_atom_site_fract_x
_atom_site_fract_y
_atom_site_fract_z
P1 P 0.52737(7) 0.89369(6) 0.84173(5)
O1 O 0.55092(17) 0.74477(15) 0.60256(10)
O2 O 0.4498(3) 0.6552(2) 0.48888(13)
O3 O 0.4538(2) 0.68861(15) 0.78884(11)
H1 H 0.4649 0.6319 0.7576
O4 O 0.5880(2) 1.00100(16) 0.80804(14)
O5 O 0.36028(19) 0.8935(2) 0.85983(14)
O6 O 0.5978(2) 0.85235(18) 0.92899(12)
C1 C 0.4353(3) 0.7168(3) 0.55126(17)
C2 C 0.3067(3) 0.7751(3) 0.5861(2)
H2 H 0.2129 0.7707 0.5632
C3 C 0.3460(3) 0.8350(2) 0.6552(2)
H3 H 0.2832 0.8787 0.6896
C4 C 0.5049(2) 0.8231(2) 0.67050(16)
H4 H 0.5519 0.8978 0.6612
C5 C 0.5484(3) 0.77673(19) 0.76105(15)
C6 C 0.7081(3) 0.7399(2) 0.76259(15)
C7 C 0.7500(3) 0.6454(2) 0.81207(19)
H5 H 0.6801 0.6043 0.8432
C8 C 0.8942(4) 0.6117(3) 0.8157(2)
H6 H 0.9209 0.5477 0.8486
C9 C 0.9989(4) 0.6732(4) 0.7704(2)
H7 H 1.0964 0.6514 0.7731
C10 C 0.9582(3) 0.7656(3) 0.7220(2)
H8 H 1.0284 0.8067 0.6910
C11 C 0.8154(3) 0.7994(3) 0.71817(19)
H9 H 0.7901 0.8635 0.6850
C12 C 0.2917(4) 0.9700(4) 0.9216(3)
H10 H 0.3316 0.9561 0.9795
H11 H 0.3138 1.0489 0.9057
C13 C 0.1397(4) 0.9554(4) 0.9242(3)
H12 H 0.1007 0.9627 0.8661
H13 H 0.0974 1.0132 0.9614
H14 H 0.1172 0.8805 0.9470
C14 C 0.7480(4) 0.8849(4) 0.9532(2)
H15 H 0.8137 0.8224 0.9384
H16 H 0.7770 0.9518 0.9194
C15 C 0.7609(5) 0.9097(5) 1.0421(3)
H17 H 0.6991 0.9737 1.0565
H18 H 0.8603 0.9288 1.0554
H19 H 0.7321 0.8438 1.0758
loop_
_geom_bond_atom_site_label_1
_geom_bond_atom_site_label_2
_geom_bond_site_symmetry_1
_geom_bond_site_symmetry_2
P1 O4 1_555 1_555
O1 C1 1_555 1_555
O2 C1 1_555 1_555
O3 H1 1_555 1_555
O5 P1 1_555 1_555
O6 P1 1_555 1_555
C1 C2 1_555 1_555
C2 H2 1_555 1_555
C3 C2 1_555 1_555
H3 C3 1_555 1_555
C4 O1 1_555 1_555
H4 C4 1_555 1_555
C5 P1 1_555 1_555
C6 C5 1_555 1_555
C7 C6 1_555 1_555
H5 C7 1_555 1_555
C8 C7 1_555 1_555
H6 C8 1_555 1_555
C9 C8 1_555 1_555
H7 C9 1_555 1_555
C10 C9 1_555 1_555
H8 C10 1_555 1_555
C11 C6 1_555 1_555
H9 C11 1_555 1_555
C12 O5 1_555 1_555
H10 C12 1_555 1_555
H11 C12 1_555 1_555
C13 C12 1_555 1_555
H12 C13 1_555 1_555
H13 C13 1_555 1_555
H14 C13 1_555 1_555
C14 O6 1_555 1_555
H15 C14 1_555 1_555
H16 C14 1_555 1_555
C15 C14 1_555 1_555
H17 C15 1_555 1_555
H18 C15 1_555 1_555
H19 C15 1_555 1_555
O3 C5 1_555 1_555
C3 C4 1_555 1_555
C4 C5 1_555 1_555
C10 C11 1_555 1_555

#END
