
#######################################################################
#
#                 Cambridge Crystallographic Data Centre
#                                CCDC 
#
#######################################################################
#
# If this CIF has been generated from an entry in the Cambridge 
# Structural Database, then it will include bibliographic, chemical, 
# crystal, experimental, refinement or atomic coordinate data resulting 
# from the CCDC's data processing and validation procedures.
#
#######################################################################

data_ZETVUS
_chemical_formula_moiety         'C28 H28 Cl2 N10 O6'
_chemical_name_systematic        
'di-t-butyl 11,25-dichloro-2,8-dioxa-10,12,14,15,21,22,24,26,27,29-decaazapentacyclo[21.3.1.1^3,7^.1^9,13^.1^16,20^]triaconta-1(27),3(30),4,6,9(29),10,12,16(28),17,19,23,25-dodecaene-15,21-dicarboxylate'
_symmetry_cell_setting           orthorhombic
_symmetry_space_group_name_H-M   'P c a 21'
_symmetry_Int_Tables_number      29
_space_group_name_Hall           'P 2c -2ac'
loop_
_symmetry_equiv_pos_site_id
_symmetry_equiv_pos_as_xyz
1 x,y,z
2 -x,-y,1/2+z
3 1/2+x,-y,z
4 1/2-x,y,1/2+z
_cell_length_a                   23.380(5)
_cell_length_b                   15.660(3)
_cell_length_c                   17.820(4)
_cell_angle_alpha                90
_cell_angle_beta                 90
_cell_angle_gamma                90
_cell_volume                     6524.45
_exptl_crystal_colour            colorless
_exptl_crystal_description       plate
_cell_formula_units_Z            8
loop_
_atom_site_label
_atom_site_type_symbol
_atom_site_fract_x
_atom_site_fract_y
_atom_site_fract_z
Cl1 Cl 0.04268(8) -0.00465(11) 0.02601(11)
Cl2 Cl 0.56285(9) 0.20205(13) 0.18882(13)
O1 O 0.1033(2) 0.3392(3) -0.0504(3)
O2 O 0.1868(2) 0.4139(3) -0.0623(3)
O3 O 0.3289(2) 0.5149(3) -0.0004(3)
O4 O 0.4248(2) 0.4942(4) 0.0065(3)
O5 O 0.4164(2) 0.1441(3) 0.0044(3)
O6 O 0.2270(2) 0.0807(3) -0.0718(3)
N1 N 0.1631(2) 0.3398(3) 0.0448(3)
N2 N 0.1270(2) 0.2750(3) 0.0710(3)
H1 H 0.1024 0.2835 0.1075
N3 N 0.0877(2) 0.1443(3) 0.0464(3)
N4 N 0.1403(2) 0.0445(3) -0.0287(3)
N5 N 0.1803(2) 0.1819(3) -0.0019(3)
N6 N 0.3632(2) 0.4278(3) 0.0857(3)
N7 N 0.4089(2) 0.4007(3) 0.1291(3)
H2 H 0.4219 0.4330 0.1658
N8 N 0.4083(2) 0.2722(3) 0.0657(3)
N9 N 0.4841(3) 0.1740(4) 0.0909(4)
N10 N 0.4802(2) 0.3066(3) 0.1562(3)
C1 C 0.0824(4) 0.3509(6) -0.1271(5)
C2 C 0.1210(4) 0.2990(6) -0.1803(5)
H3 H 0.1602 0.3208 -0.1774
H4 H 0.1069 0.3045 -0.2318
H5 H 0.1204 0.2388 -0.1654
C3 C 0.0240(4) 0.3109(8) -0.1244(6)
H6 H 0.0277 0.2500 -0.1125
H7 H 0.0052 0.3175 -0.1732
H8 H 0.0010 0.3390 -0.0856
C4 C 0.0797(4) 0.4436(6) -0.1492(6)
H9 H 0.0567 0.4751 -0.1125
H10 H 0.0623 0.4487 -0.1990
H11 H 0.1185 0.4673 -0.1504
C5 C 0.1553(3) 0.3693(4) -0.0273(4)
C6 C 0.2106(3) 0.3633(4) 0.0907(4)
C7 C 0.1995(3) 0.3685(4) 0.1683(4)
H12 H 0.1625 0.3564 0.1875
C8 C 0.2437(4) 0.3916(5) 0.2158(5)
H13 H 0.2368 0.3937 0.2683
C9 C 0.2963(3) 0.4113(4) 0.1895(4)
H14 H 0.3258 0.4275 0.2233
C10 C 0.3069(3) 0.4078(4) 0.1144(4)
C11 C 0.2648(3) 0.3814(4) 0.0634(4)
H15 H 0.2732 0.3760 0.0114
C12 C 0.3764(3) 0.4804(4) 0.0265(4)
C13 C 0.3299(4) 0.5744(5) -0.0648(5)
C14 C 0.2669(4) 0.5916(6) -0.0760(7)
H16 H 0.2460 0.5373 -0.0770
H17 H 0.2612 0.6216 -0.1237
H18 H 0.2526 0.6269 -0.0347
C15 C 0.3627(4) 0.6520(5) -0.0447(6)
H19 H 0.3445 0.6800 -0.0017
H20 H 0.3632 0.6912 -0.0875
H21 H 0.4019 0.6360 -0.0315
C16 C 0.3555(5) 0.5283(7) -0.1313(6)
H22 H 0.3971 0.5247 -0.1252
H23 H 0.3465 0.5596 -0.1774
H24 H 0.3395 0.4705 -0.1344
C17 C 0.4334(3) 0.3244(4) 0.1148(4)
C18 C 0.5018(3) 0.2309(4) 0.1399(4)
C19 C 0.4372(3) 0.2008(4) 0.0558(4)
C20 C 0.3679(3) 0.1668(4) -0.0370(4)
C21 C 0.3699(3) 0.2360(4) -0.0857(4)
H25 H 0.4035 0.2698 -0.0892
C22 C 0.3231(3) 0.2550(4) -0.1284(4)
H26 H 0.3240 0.3024 -0.1617
C23 C 0.2738(3) 0.2044(4) -0.1231(4)
H27 H 0.2408 0.2166 -0.1524
C24 C 0.2745(3) 0.1365(4) -0.0741(4)
C25 C 0.3210(3) 0.1164(4) -0.0307(4)
H28 H 0.3203 0.0691 0.0026
C26 C 0.1809(3) 0.1052(4) -0.0311(4)
C27 C 0.0960(3) 0.0692(4) 0.0126(4)
C28 C 0.1324(3) 0.1982(4) 0.0365(4)
Cl3 Cl 0.55761(8) 0.52085(11) 0.12345(14)
Cl4 Cl 0.03559(9) 0.66074(14) -0.04774(15)
O7 O 0.1655(2) 0.9421(3) 0.1201(3)
O8 O 0.25070(19) 1.0108(3) 0.1112(2)
O9 O 0.3982(2) 0.9643(3) 0.1730(3)
O10 O 0.4751(2) 0.8826(3) 0.2021(3)
O11 O 0.3711(2) 0.5943(3) 0.2140(3)
O12 O 0.1774(2) 0.6390(3) 0.1462(3)
N11 N 0.2311(2) 0.9073(3) 0.0286(3)
N12 N 0.1880(2) 0.8690(3) -0.0136(3)
H29 H 0.1764 0.8923 -0.0559
N13 N 0.1175(2) 0.7705(3) -0.0281(3)
N14 N 0.1135(3) 0.6516(4) 0.0548(4)
N15 N 0.1880(2) 0.7540(3) 0.0680(4)
N16 N 0.4290(2) 0.8609(3) 0.0944(3)
N17 N 0.4706(2) 0.7986(3) 0.0813(3)
H30 H 0.5001 0.8098 0.0522
N18 N 0.4158(2) 0.7013(3) 0.1482(3)
N19 N 0.4583(2) 0.5645(3) 0.1726(3)
N20 N 0.5114(2) 0.6692(3) 0.1064(3)
C29 C 0.2475(3) 1.0560(4) 0.1854(4)
C30 C 0.2552(4) 0.9895(5) 0.2467(4)
H31 H 0.2206 0.9544 0.2502
H32 H 0.2619 1.0182 0.2948
H33 H 0.2880 0.9531 0.2346
C31 C 0.1927(4) 1.1052(6) 0.1925(5)
H34 H 0.1847 1.1348 0.1452
H35 H 0.1963 1.1471 0.2331
H36 H 0.1613 1.0658 0.2039
C32 C 0.2983(3) 1.1141(5) 0.1810(5)
H37 H 0.3319 1.0814 0.1652
H38 H 0.3054 1.1394 0.2304
H39 H 0.2907 1.1595 0.1445
C33 C 0.2116(3) 0.9532(4) 0.0918(4)
C34 C 0.2885(3) 0.8962(4) 0.0067(3)
C35 C 0.3024(3) 0.9000(4) -0.0699(4)
H40 H 0.2737 0.9084 -0.1069
C36 C 0.3590(3) 0.8911(4) -0.0896(4)
H41 H 0.3692 0.8939 -0.1411
C37 C 0.4020(3) 0.8782(4) -0.0363(4)
H42 H 0.4408 0.8723 -0.0513
C38 C 0.3867(3) 0.8742(4) 0.0391(4)
C39 C 0.3305(3) 0.8810(4) 0.0597(4)
H43 H 0.3202 0.8752 0.1111
C40 C 0.4318(3) 0.9079(4) 0.1599(4)
C41 C 0.4845(4) 0.9233(5) 0.2770(5)
C42 C 0.5351(5) 0.8740(8) 0.3056(6)
H44 H 0.5246 0.8137 0.3112
H45 H 0.5469 0.8970 0.3543
H46 H 0.5668 0.8791 0.2698
C43 C 0.4978(6) 1.0152(6) 0.2673(7)
H47 H 0.5231 1.0226 0.2239
H48 H 0.5169 1.0368 0.3124
H49 H 0.4623 1.0471 0.2590
C44 C 0.4329(5) 0.9060(8) 0.3248(6)
H50 H 0.3999 0.9367 0.3042
H51 H 0.4402 0.9255 0.3761
H52 H 0.4249 0.8446 0.3251
C45 C 0.4652(3) 0.7209(4) 0.1137(4)
C46 C 0.5033(3) 0.5923(4) 0.1356(4)
C47 C 0.4162(3) 0.6234(4) 0.1766(4)
C48 C 0.3219(3) 0.6466(4) 0.2210(4)
C49 C 0.2758(3) 0.6241(4) 0.1762(4)
H53 H 0.2785 0.5800 0.1398
C50 C 0.2259(3) 0.6690(4) 0.1874(5)
C51 C 0.2214(3) 0.7347(5) 0.2379(4)
H54 H 0.1866 0.7652 0.2437
C52 C 0.2694(4) 0.7553(5) 0.2803(4)
H55 H 0.2674 0.7999 0.3163
C53 C 0.3198(3) 0.7111(4) 0.2704(4)
H56 H 0.3528 0.7263 0.2984
C54 C 0.1601(3) 0.6838(4) 0.0876(4)
C55 C 0.0959(3) 0.6986(5) -0.0033(5)
C56 C 0.1638(3) 0.7950(4) 0.0112(4)
loop_
_geom_bond_atom_site_label_1
_geom_bond_atom_site_label_2
_geom_bond_site_symmetry_1
_geom_bond_site_symmetry_2
Cl1 C27 1_555 1_555
Cl2 C18 1_555 1_555
O1 C1 1_555 1_555
O2 C5 1_555 1_555
O3 C12 1_555 1_555
O4 C12 1_555 1_555
O5 C19 1_555 1_555
O6 C24 1_555 1_555
N1 N2 1_555 1_555
N2 H1 1_555 1_555
N3 C27 1_555 1_555
N4 C26 1_555 1_555
N5 C26 1_555 1_555
N6 N7 1_555 1_555
N7 H2 1_555 1_555
N8 C17 1_555 1_555
N9 C18 1_555 1_555
N10 C17 1_555 1_555
C1 C2 1_555 1_555
C2 H3 1_555 1_555
H4 C2 1_555 1_555
H5 C2 1_555 1_555
C3 C1 1_555 1_555
H6 C3 1_555 1_555
H7 C3 1_555 1_555
H8 C3 1_555 1_555
C4 C1 1_555 1_555
H9 C4 1_555 1_555
H10 C4 1_555 1_555
H11 C4 1_555 1_555
C5 O1 1_555 1_555
C6 N1 1_555 1_555
C7 C6 1_555 1_555
H12 C7 1_555 1_555
C8 C7 1_555 1_555
H13 C8 1_555 1_555
C9 C8 1_555 1_555
H14 C9 1_555 1_555
C10 N6 1_555 1_555
C11 C6 1_555 1_555
H15 C11 1_555 1_555
C12 N6 1_555 1_555
C13 O3 1_555 1_555
C14 C13 1_555 1_555
H16 C14 1_555 1_555
H17 C14 1_555 1_555
H18 C14 1_555 1_555
C15 C13 1_555 1_555
H19 C15 1_555 1_555
H20 C15 1_555 1_555
H21 C15 1_555 1_555
C16 C13 1_555 1_555
H22 C16 1_555 1_555
H23 C16 1_555 1_555
H24 C16 1_555 1_555
C17 N7 1_555 1_555
C18 N10 1_555 1_555
C19 N8 1_555 1_555
C20 O5 1_555 1_555
C21 C20 1_555 1_555
H25 C21 1_555 1_555
C22 C21 1_555 1_555
H26 C22 1_555 1_555
C23 C22 1_555 1_555
H27 C23 1_555 1_555
C24 C23 1_555 1_555
C25 C20 1_555 1_555
H28 C25 1_555 1_555
C26 O6 1_555 1_555
C27 N4 1_555 1_555
C28 N2 1_555 1_555
Cl3 C46 1_555 1_555
Cl4 C55 1_555 1_555
O7 C33 1_555 1_555
O8 C29 1_555 1_555
O9 C40 1_555 1_555
O10 C40 1_555 1_555
O11 C47 1_555 1_555
O12 C50 1_555 1_555
N11 N12 1_555 1_555
N12 H29 1_555 1_555
N13 C55 1_555 1_555
N14 C54 1_555 1_555
N15 C54 1_555 1_555
N16 N17 1_555 1_555
N17 H30 1_555 1_555
N18 C45 1_555 1_555
N19 C46 1_555 1_555
N20 C45 1_555 1_555
C29 C30 1_555 1_555
C30 H31 1_555 1_555
H32 C30 1_555 1_555
H33 C30 1_555 1_555
C31 C29 1_555 1_555
H34 C31 1_555 1_555
H35 C31 1_555 1_555
H36 C31 1_555 1_555
C32 C29 1_555 1_555
H37 C32 1_555 1_555
H38 C32 1_555 1_555
H39 C32 1_555 1_555
C33 O8 1_555 1_555
C34 N11 1_555 1_555
C35 C34 1_555 1_555
H40 C35 1_555 1_555
C36 C35 1_555 1_555
H41 C36 1_555 1_555
C37 C36 1_555 1_555
H42 C37 1_555 1_555
C38 N16 1_555 1_555
C39 C34 1_555 1_555
H43 C39 1_555 1_555
C40 N16 1_555 1_555
C41 O10 1_555 1_555
C42 C41 1_555 1_555
H44 C42 1_555 1_555
H45 C42 1_555 1_555
H46 C42 1_555 1_555
C43 C41 1_555 1_555
H47 C43 1_555 1_555
H48 C43 1_555 1_555
H49 C43 1_555 1_555
C44 C41 1_555 1_555
H50 C44 1_555 1_555
H51 C44 1_555 1_555
H52 C44 1_555 1_555
C45 N17 1_555 1_555
C46 N20 1_555 1_555
C47 N18 1_555 1_555
C48 O11 1_555 1_555
C49 C48 1_555 1_555
H53 C49 1_555 1_555
C50 C49 1_555 1_555
C51 C50 1_555 1_555
H54 C51 1_555 1_555
C52 C51 1_555 1_555
H55 C52 1_555 1_555
C53 C48 1_555 1_555
H56 C53 1_555 1_555
C54 O12 1_555 1_555
C55 N14 1_555 1_555
C56 N12 1_555 1_555
N1 C5 1_555 1_555
N3 C28 1_555 1_555
N5 C28 1_555 1_555
N9 C19 1_555 1_555
C9 C10 1_555 1_555
C10 C11 1_555 1_555
C24 C25 1_555 1_555
N11 C33 1_555 1_555
N13 C56 1_555 1_555
N15 C56 1_555 1_555
N19 C47 1_555 1_555
C37 C38 1_555 1_555
C38 C39 1_555 1_555
C52 C53 1_555 1_555

#END
