
#######################################################################
#
#                 Cambridge Crystallographic Data Centre
#                                CCDC 
#
#######################################################################
#
# If this CIF has been generated from an entry in the Cambridge 
# Structural Database, then it will include bibliographic, chemical, 
# crystal, experimental, refinement or atomic coordinate data resulting 
# from the CCDC's data processing and validation procedures.
#
#######################################################################

data_ZETWIH
_chemical_formula_moiety         'C28 H36 O8,H2 O1'
_chemical_name_systematic        
'methyl 5-(hexa-1,3-dien-1-yl)-2-[4-(3-hydroxybutan-2-yl)-3-methoxy-5,7-dimethyl-2,8-dioxobicyclo[3.2.1]oct-3-en-6-yl]-5-methyl-4-oxo-4,5-dihydrofuran-3-carboxylate monohydrate'
_symmetry_cell_setting           orthorhombic
_symmetry_space_group_name_H-M   'P 21 21 21'
_symmetry_Int_Tables_number      19
_space_group_name_Hall           'P 2ac 2ab'
loop_
_symmetry_equiv_pos_site_id
_symmetry_equiv_pos_as_xyz
1 x,y,z
2 1/2-x,-y,1/2+z
3 -x,1/2+y,1/2-z
4 1/2+x,1/2-y,-z
_cell_length_a                   8.3949(9)
_cell_length_b                   15.0525(16)
_cell_length_c                   22.267(2)
_cell_angle_alpha                90
_cell_angle_beta                 90
_cell_angle_gamma                90
_cell_volume                     2813.75
_exptl_crystal_colour            colorless
_exptl_crystal_description       block
_cell_formula_units_Z            4
loop_
_atom_site_label
_atom_site_type_symbol
_atom_site_fract_x
_atom_site_fract_y
_atom_site_fract_z
O1 O 0.28553(16) 0.69565(8) 0.37318(5)
O2 O 0.57114(17) 0.32945(9) 0.25181(7)
O3 O 0.16641(18) 0.71770(9) 0.52467(6)
O4 O 0.2139(2) 0.58558(10) 0.22615(8)
O5 O 0.3467(3) 0.55893(10) 0.55468(6)
O6 O 0.13153(18) 0.32085(11) 0.24847(7)
H1 H 0.1834 0.3316 0.2170
O7 O 0.6678(2) 0.48255(11) 0.19449(8)
O8 O 0.3878(3) 0.46681(11) 0.47786(8)
C1 C 0.3395(2) 0.62160(11) 0.39934(8)
C2 C 0.5056(2) 0.41043(12) 0.26670(8)
C3 C 0.2208(2) 0.69494(12) 0.47629(8)
C4 C 0.3790(2) 0.41564(11) 0.30397(8)
C5 C 0.5427(2) 0.60612(12) 0.31560(8)
H2 H 0.5229 0.6715 0.3187
C6 C 0.4229(2) 0.55837(12) 0.35864(8)
H3 H 0.4826 0.5142 0.3835
C7 C 0.3076(2) 0.61533(12) 0.45908(8)
C8 C 0.3027(2) 0.50683(11) 0.31626(8)
C9 C 0.1982(2) 0.74852(13) 0.41856(8)
C10 C 0.3195(2) 0.56007(12) 0.25821(8)
C11 C 0.5679(2) 0.48855(14) 0.23406(9)
C12 C 0.3529(3) 0.53865(13) 0.49673(9)
C13 C 0.1302(2) 0.50387(14) 0.33731(11)
H4 H 0.0699 0.4625 0.3120
H5 H 0.0834 0.5633 0.3343
H6 H 0.1263 0.4838 0.3792
C14 C 0.4960(3) 0.57651(13) 0.25126(8)
H7 H 0.5190 0.6236 0.2208
C15 C 0.2287(3) 0.27178(13) 0.28920(10)
H8 H 0.3134 0.2402 0.2660
C16 C 0.2695(2) 0.83957(13) 0.41838(9)
H9 H 0.2855 0.8662 0.3802
C17 C 0.3090(3) 0.33509(12) 0.33500(9)
H10 H 0.2227 0.3574 0.3620
C18 C 0.0243(2) 0.74849(16) 0.39954(10)
H11 H 0.0148 0.7741 0.3592
H12 H -0.0381 0.7840 0.4280
H13 H -0.0159 0.6874 0.3992
C19 C 0.3124(3) 0.88661(14) 0.46516(9)
H14 H 0.3012 0.8602 0.5037
C20 C 0.7154(3) 0.58939(16) 0.33297(10)
H15 H 0.7354 0.6136 0.3731
H16 H 0.7859 0.6185 0.3039
H17 H 0.7363 0.5253 0.3331
C21 C 0.3758(3) 0.97627(14) 0.46231(10)
H18 H 0.3909 1.0015 0.4236
C22 C 0.4289(4) 0.28737(17) 0.37480(11)
H19 H 0.5100 0.2589 0.3497
H20 H 0.3740 0.2421 0.3987
H21 H 0.4800 0.3304 0.4017
C23 C 0.7384(3) 0.32003(17) 0.26504(13)
H22 H 0.7978 0.3684 0.2459
H23 H 0.7766 0.2629 0.2496
H24 H 0.7545 0.3224 0.3086
C24 C 0.4141(4) 1.02527(18) 0.50891(12)
H25 H 0.4019 0.9989 0.5474
C25 C 0.1236(3) 0.20329(17) 0.32005(14)
H26 H 0.0460 0.2336 0.3457
H27 H 0.1899 0.1639 0.3447
H28 H 0.0673 0.1682 0.2897
C26 C 0.4754(4) 1.11902(17) 0.50727(13)
H29 H 0.4967 1.1359 0.4651
H30 H 0.5774 1.1219 0.5295
C27 C 0.3950(6) 0.4892(2) 0.59611(12)
H31 H 0.4985 0.4654 0.5837
H32 H 0.3155 0.4416 0.5958
H33 H 0.4036 0.5138 0.6367
C28 C 0.3595(7) 1.1854(3) 0.53447(19)
H34 H 0.2610 1.1861 0.5108
H35 H 0.4075 1.2447 0.5342
H36 H 0.3352 1.1681 0.5759
O9 O 0.3399(2) 0.33727(15) 0.14944(7)
H37 H 0.4398 0.3313 0.1542
H38 H 0.3253 0.3293 0.1121
loop_
_geom_bond_atom_site_label_1
_geom_bond_atom_site_label_2
_geom_bond_site_symmetry_1
_geom_bond_site_symmetry_2
O1 C1 1_555 1_555
O2 C2 1_555 1_555
O3 C3 1_555 1_555
O4 C10 1_555 1_555
O5 C12 1_555 1_555
O6 H1 1_555 1_555
O7 C11 1_555 1_555
O8 C12 1_555 1_555
C1 C6 1_555 1_555
C2 C4 1_555 1_555
C3 C7 1_555 1_555
C4 C8 1_555 1_555
C5 H2 1_555 1_555
C6 C5 1_555 1_555
H3 C6 1_555 1_555
C7 C1 1_555 1_555
C8 C6 1_555 1_555
C9 O1 1_555 1_555
C10 C8 1_555 1_555
C11 C2 1_555 1_555
C12 C7 1_555 1_555
C13 C8 1_555 1_555
H4 C13 1_555 1_555
H5 C13 1_555 1_555
H6 C13 1_555 1_555
C14 C5 1_555 1_555
H7 C14 1_555 1_555
C15 O6 1_555 1_555
H8 C15 1_555 1_555
C16 C9 1_555 1_555
H9 C16 1_555 1_555
C17 C4 1_555 1_555
H10 C17 1_555 1_555
C18 C9 1_555 1_555
H11 C18 1_555 1_555
H12 C18 1_555 1_555
H13 C18 1_555 1_555
C19 C16 1_555 1_555
H14 C19 1_555 1_555
C20 C5 1_555 1_555
H15 C20 1_555 1_555
H16 C20 1_555 1_555
H17 C20 1_555 1_555
C21 C19 1_555 1_555
H18 C21 1_555 1_555
C22 C17 1_555 1_555
H19 C22 1_555 1_555
H20 C22 1_555 1_555
H21 C22 1_555 1_555
C23 O2 1_555 1_555
H22 C23 1_555 1_555
H23 C23 1_555 1_555
H24 C23 1_555 1_555
C24 C21 1_555 1_555
H25 C24 1_555 1_555
C25 C15 1_555 1_555
H26 C25 1_555 1_555
H27 C25 1_555 1_555
H28 C25 1_555 1_555
C26 C24 1_555 1_555
H29 C26 1_555 1_555
H30 C26 1_555 1_555
C27 O5 1_555 1_555
H31 C27 1_555 1_555
H32 C27 1_555 1_555
H33 C27 1_555 1_555
C28 C26 1_555 1_555
H34 C28 1_555 1_555
H35 C28 1_555 1_555
H36 C28 1_555 1_555
O9 H37 1_555 1_555
H38 O9 1_555 1_555
C3 C9 1_555 1_555
C10 C14 1_555 1_555
C11 C14 1_555 1_555
C15 C17 1_555 1_555

#END
