
#######################################################################
#
#                 Cambridge Crystallographic Data Centre
#                                CCDC 
#
#######################################################################
#
# If this CIF has been generated from an entry in the Cambridge 
# Structural Database, then it will include bibliographic, chemical, 
# crystal, experimental, refinement or atomic coordinate data resulting 
# from the CCDC's data processing and validation procedures.
#
#######################################################################

data_ZETWAZ
_chemical_formula_moiety         'C28 H36 O8'
_chemical_name_systematic        
'methyl 5-(hexa-1,3-dien-1-yl)-2-[4-(3-hydroxybutan-2-yl)-3-methoxy-5,7-dimethyl-2,8-dioxobicyclo[3.2.1]oct-3-en-6-yl]-5-methyl-4-oxo-4,5-dihydrofuran-3-carboxylate'
_symmetry_cell_setting           triclinic
_symmetry_space_group_name_H-M   'P 1'
_symmetry_Int_Tables_number      1
_space_group_name_Hall           'P 1'
loop_
_symmetry_equiv_pos_site_id
_symmetry_equiv_pos_as_xyz
1 x,y,z
_cell_length_a                   13.9860(8)
_cell_length_b                   14.0190(8)
_cell_length_c                   28.0285(13)
_cell_angle_alpha                98.119(3)
_cell_angle_beta                 91.053(3)
_cell_angle_gamma                90.157(3)
_cell_volume                     5439.46
_exptl_crystal_colour            colorless
_exptl_crystal_description       prismatic
_cell_formula_units_Z            8
loop_
_atom_site_label
_atom_site_type_symbol
_atom_site_fract_x
_atom_site_fract_y
_atom_site_fract_z
C1 C 0.1492(8) 0.0946(8) 0.0879(4)
H1 H 0.1041 0.0590 0.0648
C2 C 0.0897(7) 0.1407(6) 0.1322(3)
H2 H 0.1176 0.1206 0.1615
C3 C 0.1042(7) 0.2526(7) 0.1346(4)
C4 C 0.1163(8) 0.2615(7) 0.0824(4)
C5 C 0.1878(8) 0.1817(9) 0.0642(4)
H3 H 0.1884 0.1679 0.0289
C6 C 0.2824(9) 0.2151(9) 0.0853(4)
C7 C 0.2822(8) 0.2614(7) 0.1358(4)
C8 C 0.1995(7) 0.2792(6) 0.1604(3)
C9 C 0.2000(8) 0.3228(6) 0.2129(4)
H4 H 0.1345 0.3173 0.2240
C10 C 0.2620(9) 0.2714(7) 0.2447(4)
H5 H 0.3290 0.2832 0.2375
C11 C 0.2483(13) 0.2995(10) 0.2970(4)
H6 H 0.1815 0.3105 0.3030
H7 H 0.2837 0.3575 0.3078
H8 H 0.2705 0.2489 0.3140
C12 C 0.2236(13) 0.4310(8) 0.2191(5)
H9 H 0.2330 0.4546 0.2528
H10 H 0.1717 0.4649 0.2064
H11 H 0.2809 0.4411 0.2022
C13 C 0.4358(10) 0.2139(12) 0.1610(6)
H12 H 0.4040 0.1620 0.1734
H13 H 0.4870 0.2382 0.1826
H14 H 0.4612 0.1907 0.1299
C14 C 0.0213(9) 0.3132(8) 0.1559(4)
H15 H 0.0374 0.3802 0.1580
H16 H 0.0086 0.2980 0.1875
H17 H -0.0346 0.2995 0.1356
C15 C 0.2249(10) 0.0235(10) 0.0999(6)
H18 H 0.2522 0.0451 0.1312
H19 H 0.2742 0.0194 0.0763
H20 H 0.1962 -0.0388 0.0996
C16 C -0.0111(7) 0.1111(7) 0.1284(3)
C17 C -0.0716(7) 0.0799(7) 0.1592(3)
C18 C -0.1632(8) 0.0600(9) 0.1353(4)
C19 C -0.1486(10) 0.0840(12) 0.0849(4)
C20 C -0.1622(15) 0.001(2) 0.0468(6)
H21 H -0.1236 0.0092 0.0198
H22 H -0.2283 -0.0037 0.0369
H23 H -0.1437 -0.0571 0.0591
C21 C -0.0531(7) 0.0659(7) 0.2100(3)
C22 C 0.0337(12) 0.1122(13) 0.2815(5)
H24 H -0.0193 0.1352 0.3011
H25 H 0.0900 0.1490 0.2923
H26 H 0.0446 0.0455 0.2841
C23 C -0.201(2) 0.139(2) 0.0642(15)
H27 H -0.1924 0.1321 0.0311
C24 C -0.2662(18) 0.2037(10) 0.0798(5)
H28 H -0.2720 0.1997 0.1125
C25 C -0.3347(12) 0.2803(13) 0.0697(6)
H29 H -0.2987 0.3214 0.0538
C26 C -0.4191(16) 0.3180(18) 0.0721(9)
H30 H -0.4531 0.2809 0.0910
C27 C -0.490(2) 0.3913(18) 0.0597(11)
H31 H -0.4867 0.3977 0.0258
H32 H -0.5541 0.3719 0.0666
C28 C -0.465(2) 0.4823(18) 0.0892(9)
H33 H -0.4363 0.4698 0.1191
H34 H -0.5213 0.5202 0.0955
H35 H -0.4200 0.5168 0.0723
O1 O 0.0814(8) 0.3181(7) 0.0592(4)
O2 O 0.3550(7) 0.2078(9) 0.0617(4)
O3 O 0.3686(6) 0.2899(6) 0.1564(3)
O4 O 0.2423(6) 0.1706(5) 0.2324(3)
H36 H 0.2869 0.1396 0.2417
O5 O -0.0512(6) 0.1152(6) 0.0840(3)
O6 O -0.2383(7) 0.0306(7) 0.1492(3)
O7 O -0.0959(7) 0.0079(7) 0.2287(3)
O8 O 0.0127(6) 0.1224(6) 0.2320(3)
C29 C 0.2355(11) 0.5373(11) 0.0980(6)
H37 H 0.2845 0.5387 0.0746
H38 H 0.2112 0.4727 0.0964
H39 H 0.2617 0.5582 0.1296
C30 C 0.1550(8) 0.6037(8) 0.0875(4)
H40 H 0.1118 0.5665 0.0639
C31 C 0.0935(7) 0.6426(6) 0.1327(3)
H41 H 0.1220 0.6211 0.1615
C32 C 0.1032(8) 0.7565(7) 0.1368(4)
C33 C 0.1119(10) 0.7711(9) 0.0841(5)
C34 C 0.1855(10) 0.6958(10) 0.0656(4)
H42 H 0.1854 0.6838 0.0303
C35 C 0.2793(10) 0.7331(11) 0.0857(4)
C36 C 0.2805(8) 0.7739(8) 0.1375(4)
C37 C 0.1977(8) 0.7850(6) 0.1622(3)
C38 C 0.1987(9) 0.8233(6) 0.2153(4)
H43 H 0.1339 0.8142 0.2266
C39 C 0.2647(9) 0.7692(8) 0.2455(4)
H44 H 0.3312 0.7827 0.2380
C40 C 0.2505(14) 0.7962(10) 0.2977(5)
H45 H 0.1841 0.8095 0.3035
H46 H 0.2879 0.8526 0.3092
H47 H 0.2703 0.7441 0.3144
C41 C 0.2183(15) 0.9346(8) 0.2235(6)
H48 H 0.2774 0.9479 0.2088
H49 H 0.2223 0.9572 0.2574
H50 H 0.1670 0.9669 0.2092
C42 C 0.4356(10) 0.7282(14) 0.1591(7)
H51 H 0.4043 0.6721 0.1676
H52 H 0.4844 0.7494 0.1827
H53 H 0.4640 0.7126 0.1281
C43 C 0.0192(9) 0.8122(8) 0.1591(5)
H54 H 0.0115 0.7988 0.1914
H55 H -0.0378 0.7934 0.1404
H56 H 0.0303 0.8799 0.1596
C44 C -0.0059(7) 0.6104(7) 0.1273(3)
C45 C -0.0676(7) 0.5760(7) 0.1577(3)
C46 C -0.1580(8) 0.5548(9) 0.1326(4)
C47 C -0.1439(10) 0.5828(14) 0.0825(5)
C48 C -0.1497(14) 0.4940(18) 0.0437(6)
H57 H -0.1077 0.5026 0.0179
H58 H -0.2141 0.4858 0.0314
H59 H -0.1308 0.4379 0.0575
C49 C -0.0513(7) 0.5616(7) 0.2086(3)
C50 C 0.0380(13) 0.6060(15) 0.2799(5)
H60 H -0.0202 0.6139 0.2976
H61 H 0.0834 0.6545 0.2932
H62 H 0.0639 0.5433 0.2820
C51 C -0.202(2) 0.633(2) 0.0577(12)
H63 H -0.1983 0.6194 0.0243
C52 C -0.2612(17) 0.6977(11) 0.0739(7)
H64 H -0.2612 0.7017 0.1073
C53 C -0.3299(11) 0.7685(12) 0.0599(6)
H65 H -0.2987 0.7944 0.0357
C54 C -0.4067(19) 0.812(2) 0.0629(12)
H66 H -0.4395 0.7941 0.0889
C55 C -0.4674(17) 0.8832(14) 0.0408(7)
H67 H -0.5303 0.8572 0.0312
H68 H -0.4369 0.9045 0.0133
C56 C -0.4717(16) 0.9640(15) 0.0837(7)
H69 H -0.4858 0.9369 0.1124
H70 H -0.5208 1.0088 0.0778
H71 H -0.4112 0.9969 0.0878
O9 O 0.0735(9) 0.8256(8) 0.0627(4)
O10 O 0.3512(8) 0.7316(10) 0.0603(4)
O11 O 0.3664(7) 0.8041(7) 0.1574(3)
O12 O 0.2456(7) 0.6700(5) 0.2317(3)
H72 H 0.2953 0.6395 0.2328
O13 O -0.0452(6) 0.6131(6) 0.0828(3)
O14 O -0.2318(7) 0.5221(8) 0.1452(4)
O15 O -0.0961(7) 0.5073(7) 0.2282(3)
O16 O 0.0185(7) 0.6153(7) 0.2300(3)
C57 C 0.6586(8) 0.9997(7) 0.4168(4)
H73 H 0.6138 1.0329 0.4400
C58 C 0.6012(7) 0.9577(6) 0.3703(3)
H74 H 0.6292 0.9804 0.3422
C59 C 0.6123(7) 0.8450(6) 0.3664(3)
C60 C 0.6301(9) 0.8332(8) 0.4201(4)
C61 C 0.7008(9) 0.9131(9) 0.4382(4)
H75 H 0.7051 0.9250 0.4735
C62 C 0.7953(10) 0.8784(9) 0.4158(4)
C63 C 0.7892(8) 0.8347(8) 0.3652(4)
C64 C 0.7052(8) 0.8173(6) 0.3400(4)
C65 C 0.6993(8) 0.7745(7) 0.2886(4)
H76 H 0.6327 0.7806 0.2779
C66 C 0.7617(8) 0.8293(7) 0.2564(4)
H77 H 0.8293 0.8164 0.2625
C67 C 0.7386(13) 0.8010(10) 0.2033(4)
H78 H 0.6719 0.8114 0.1974
H79 H 0.7533 0.7342 0.1940
H80 H 0.7760 0.8396 0.1848
C68 C 0.7224(12) 0.6675(7) 0.2812(5)
H81 H 0.7868 0.6584 0.2920
H82 H 0.7160 0.6426 0.2476
H83 H 0.6791 0.6341 0.2993
C69 C 0.9440(10) 0.8781(13) 0.3421(7)
H84 H 0.9132 0.9394 0.3428
H85 H 0.9788 0.8638 0.3128
H86 H 0.9873 0.8802 0.3692
C70 C 0.5230(9) 0.7869(8) 0.3458(5)
H87 H 0.5075 0.8029 0.3144
H88 H 0.4701 0.8027 0.3667
H89 H 0.5361 0.7193 0.3434
C71 C 0.7383(10) 1.0744(9) 0.4066(5)
H90 H 0.7806 1.0440 0.3825
H91 H 0.7740 1.0954 0.4358
H92 H 0.7086 1.1289 0.3954
C72 C 0.4999(7) 0.9884(6) 0.3747(3)
C73 C 0.4381(7) 1.0256(7) 0.3431(3)
C74 C 0.3496(9) 1.0458(10) 0.3684(4)
C75 C 0.3625(9) 1.0184(12) 0.4179(4)
C76 C 0.3627(15) 1.110(2) 0.4559(6)
H93 H 0.3777 1.0934 0.4872
H94 H 0.3006 1.1397 0.4564
H95 H 0.4097 1.1551 0.4477
C77 C 0.4538(7) 1.0399(7) 0.2941(3)
C78 C 0.5379(11) 0.9952(12) 0.2225(4)
H96 H 0.4800 0.9830 0.2037
H97 H 0.5859 0.9501 0.2100
H98 H 0.5598 1.0596 0.2208
C79 C 0.3064(17) 0.9104(16) 0.4171(7)
H99 H 0.3360 0.8545 0.4029
C80 C 0.2286(14) 0.9051(13) 0.4348(7)
H100 H 0.2023 0.9615 0.4505
C81 C 0.1723(12) 0.8150(12) 0.4331(6)
H101 H 0.2005 0.7582 0.4188
C82 C 0.0880(17) 0.8088(19) 0.4497(10)
H102 H 0.0572 0.8649 0.4628
C83 C 0.038(2) 0.7154(16) 0.4486(9)
H103 H -0.0292 0.7312 0.4489
H104 H 0.0526 0.6958 0.4798
C84 C 0.045(2) 0.6260(17) 0.4139(9)
H105 H 0.0565 0.6421 0.3823
H106 H -0.0133 0.5901 0.4135
H107 H 0.0973 0.5878 0.4234
O17 O 0.5934(8) 0.7744(7) 0.4408(4)
O18 O 0.8712(8) 0.8900(9) 0.4378(4)
O19 O 0.8728(6) 0.8044(6) 0.3443(3)
O20 O 0.7435(6) 0.9296(5) 0.2698(3)
H108 H 0.7786 0.9611 0.2547
O21 O 0.4610(6) 0.9826(6) 0.4172(3)
O22 O 0.2768(7) 1.0819(8) 0.3546(4)
O23 O 0.4094(7) 1.0962(7) 0.2738(3)
O24 O 0.5202(6) 0.9847(6) 0.2715(3)
C85 C 0.0988(7) 0.2437(8) 0.5882(4)
H109 H 0.0686 0.2824 0.5657
C86 C 0.1305(6) 0.3134(7) 0.6335(3)
H110 H 0.1018 0.2927 0.6620
C87 C 0.2421(6) 0.3050(7) 0.6376(3)
C88 C 0.2666(9) 0.2811(9) 0.5851(4)
C89 C 0.1935(8) 0.2034(9) 0.5654(4)
H111 H 0.1895 0.1948 0.5302
C90 C 0.2245(9) 0.1117(9) 0.5840(4)
C91 C 0.2553(7) 0.1278(7) 0.6351(4)
C92 C 0.2639(7) 0.2152(7) 0.6613(4)
C93 C 0.2915(8) 0.2287(8) 0.7147(4)
H112 H 0.2831 0.2972 0.7267
C94 C 0.2285(8) 0.1737(8) 0.7448(4)
H113 H 0.2430 0.1049 0.7376
C95 C 0.2457(11) 0.2060(11) 0.7981(5)
H114 H 0.2473 0.2751 0.8043
H115 H 0.3057 0.1811 0.8079
H116 H 0.1951 0.1823 0.8160
C96 C 0.3977(10) 0.2073(15) 0.7209(6)
H117 H 0.4066 0.1389 0.7186
H118 H 0.4202 0.2380 0.7519
H119 H 0.4329 0.2315 0.6960
C97 C 0.2040(13) -0.0238(10) 0.6557(7)
H120 H 0.1436 0.0077 0.6534
H121 H 0.2074 -0.0510 0.6853
H122 H 0.2101 -0.0741 0.6289
C98 C 0.2951(8) 0.3938(8) 0.6599(5)
H123 H 0.3589 0.3769 0.6686
H124 H 0.2626 0.4223 0.6883
H125 H 0.2975 0.4391 0.6373
C99 C 0.0273(10) 0.1656(9) 0.5967(5)
H126 H 0.0555 0.1252 0.6180
H127 H 0.0107 0.1274 0.5665
H128 H -0.0292 0.1952 0.6109
C100 C 0.0993(7) 0.4133(7) 0.6294(3)
C101 C 0.0550(7) 0.4816(6) 0.6615(3)
C102 C 0.0391(10) 0.5650(8) 0.6366(4)
C103 C 0.0833(12) 0.5398(8) 0.5868(4)
C104 C 0.007(2) 0.5329(14) 0.5466(6)
H129 H 0.0373 0.5192 0.5159
H130 H -0.0262 0.5930 0.5484
H131 H -0.0372 0.4823 0.5503
C105 C 0.0255(7) 0.4773(7) 0.7108(3)
C106 C 0.0524(13) 0.4086(11) 0.7812(4)
H132 H 0.0670 0.4686 0.8011
H133 H 0.0897 0.3582 0.7920
H134 H -0.0143 0.3941 0.7834
C107 C 0.1873(15) 0.5918(13) 0.5860(7)
H135 H 0.2395 0.5613 0.5981
C108 C 0.2023(11) 0.6682(13) 0.5707(5)
H136 H 0.1498 0.6932 0.5560
C109 C 0.2903(15) 0.7264(10) 0.5720(6)
H137 H 0.3416 0.6962 0.5850
C110 C 0.315(2) 0.8078(17) 0.5598(10)
H138 H 0.2758 0.8374 0.5392
C111 C 0.412(2) 0.8579(19) 0.5798(13)
H139 H 0.4027 0.9224 0.5966
H140 H 0.4476 0.8197 0.6004
C112 C 0.457(4) 0.858(3) 0.5331(15)
H141 H 0.5245 0.8475 0.5363
H142 H 0.4464 0.9190 0.5221
H143 H 0.4295 0.8076 0.5102
O25 O 0.3289(7) 0.3143(8) 0.5632(4)
O26 O 0.2212(9) 0.0351(8) 0.5593(4)
O27 O 0.2812(7) 0.0460(6) 0.6551(3)
O28 O 0.1335(5) 0.1885(6) 0.7306(3)
H144 H 0.0983 0.1867 0.7535
O29 O 0.1185(6) 0.4423(5) 0.5877(3)
O30 O -0.0006(9) 0.6395(7) 0.6488(4)
O31 O -0.0351(7) 0.5256(7) 0.7303(3)
O32 O 0.0746(7) 0.4161(6) 0.7322(3)
C113 C 0.6609(7) 0.5053(7) 0.4171(3)
H145 H 0.6163 0.5412 0.4394
C114 C 0.6029(7) 0.4576(6) 0.3725(3)
H146 H 0.6288 0.4774 0.3432
C115 C 0.6161(7) 0.3463(6) 0.3718(3)
C116 C 0.6340(8) 0.3404(8) 0.4252(4)
C117 C 0.7022(8) 0.4220(8) 0.4414(4)
H147 H 0.7057 0.4379 0.4766
C118 C 0.7972(8) 0.3878(8) 0.4203(4)
C119 C 0.7931(7) 0.3401(7) 0.3706(4)
C120 C 0.7100(7) 0.3209(6) 0.3460(3)
C121 C 0.7053(8) 0.2773(6) 0.2942(4)
H148 H 0.6387 0.2814 0.2833
C122 C 0.7668(8) 0.3314(7) 0.2612(4)
H149 H 0.8346 0.3196 0.2675
C123 C 0.7439(12) 0.2985(9) 0.2086(4)
H150 H 0.6766 0.3053 0.2027
H151 H 0.7615 0.2321 0.2005
H152 H 0.7790 0.3371 0.1892
C124 C 0.7320(11) 0.1687(7) 0.2876(5)
H153 H 0.7979 0.1619 0.2966
H154 H 0.7222 0.1415 0.2544
H155 H 0.6923 0.1356 0.3076
C125 C 0.9462(10) 0.3857(12) 0.3460(7)
H156 H 0.9781 0.3716 0.3158
H157 H 0.9924 0.3895 0.3720
H158 H 0.9136 0.4461 0.3472
C126 C 0.5310(8) 0.2832(8) 0.3512(5)
H159 H 0.5475 0.2165 0.3499
H160 H 0.5156 0.2966 0.3193
H161 H 0.4768 0.2971 0.3714
C127 C 0.7361(9) 0.5763(8) 0.4039(5)
H162 H 0.7859 0.5843 0.4282
H163 H 0.7066 0.6374 0.4018
H164 H 0.7629 0.5517 0.3733
C128 C 0.4987(7) 0.4837(7) 0.3766(3)
C129 C 0.4362(7) 0.5166(7) 0.3441(3)
C130 C 0.3450(8) 0.5319(9) 0.3675(4)
C131 C 0.3597(9) 0.5007(14) 0.4184(4)
C132 C 0.3481(17) 0.590(2) 0.4572(6)
H165 H 0.3243 0.5696 0.4861
H166 H 0.3039 0.6338 0.4456
H167 H 0.4090 0.6210 0.4640
C133 C 0.4510(8) 0.5319(8) 0.2943(4)
C134 C 0.5362(12) 0.4864(13) 0.2238(4)
H168 H 0.4797 0.4689 0.2045
H169 H 0.5879 0.4452 0.2121
H170 H 0.5528 0.5522 0.2217
C135 C 0.3004(12) 0.4005(13) 0.4178(5)
H171 H 0.3286 0.3441 0.4032
C136 C 0.2209(11) 0.3940(14) 0.4352(6)
H172 H 0.1937 0.4503 0.4505
C137 C 0.1672(14) 0.3071(15) 0.4337(7)
H173 H 0.1990 0.2515 0.4206
C138 C 0.0829(17) 0.2935(17) 0.4474(9)
H174 H 0.0519 0.3507 0.4586
C139 C 0.0225(19) 0.2072(17) 0.4497(10)
H175 H -0.0428 0.2245 0.4426
H176 H 0.0243 0.1947 0.4829
C140 C 0.043(2) 0.114(2) 0.4188(12)
H177 H 0.0429 0.1242 0.3856
H178 H -0.0058 0.0679 0.4233
H179 H 0.1040 0.0909 0.4276
O33 O 0.6024(8) 0.2832(7) 0.4483(4)
O34 O 0.8736(7) 0.4042(8) 0.4431(3)
O35 O 0.8793(6) 0.3119(6) 0.3504(3)
O36 O 0.7479(6) 0.4300(5) 0.2739(3)
H180 H 0.7776 0.4610 0.2563
O37 O 0.4607(6) 0.4775(6) 0.4187(3)
O38 O 0.2718(6) 0.5640(7) 0.3539(3)
O39 O 0.4070(7) 0.5885(7) 0.2749(3)
O40 O 0.5186(6) 0.4758(7) 0.2725(3)
C141 C 0.5937(7) 0.2432(7) 0.5848(4)
H181 H 0.5635 0.2830 0.5628
C142 C 0.6295(6) 0.3120(6) 0.6304(3)
H182 H 0.6015 0.2924 0.6593
C143 C 0.7401(7) 0.2992(7) 0.6322(3)
C144 C 0.7625(9) 0.2734(9) 0.5790(4)
C145 C 0.6878(8) 0.1972(8) 0.5596(3)
H183 H 0.6822 0.1888 0.5243
C146 C 0.7142(9) 0.1072(8) 0.5777(4)
C147 C 0.7465(8) 0.1217(7) 0.6297(4)
C148 C 0.7595(6) 0.2088(7) 0.6555(3)
C149 C 0.7896(7) 0.2215(8) 0.7084(3)
H184 H 0.7820 0.2899 0.7207
C150 C 0.7271(7) 0.1650(8) 0.7394(4)
H185 H 0.7390 0.0958 0.7311
C151 C 0.7467(10) 0.1950(11) 0.7927(4)
H186 H 0.7323 0.2622 0.8011
H187 H 0.8129 0.1844 0.7998
H188 H 0.7074 0.1577 0.8109
C152 C 0.8949(8) 0.1981(12) 0.7148(5)
H189 H 0.9049 0.1307 0.7045
H190 H 0.9133 0.2138 0.7481
H191 H 0.9327 0.2351 0.6957
C153 C 0.6928(14) -0.0293(10) 0.6490(6)
H192 H 0.6329 0.0039 0.6494
H193 H 0.6992 -0.0602 0.6773
H194 H 0.6950 -0.0770 0.6208
C154 C 0.7987(8) 0.3872(8) 0.6560(4)
H195 H 0.8650 0.3700 0.6577
H196 H 0.7761 0.4074 0.6880
H197 H 0.7916 0.4390 0.6372
C155 C 0.5209(10) 0.1693(9) 0.5950(6)
H198 H 0.5509 0.1240 0.6131
H199 H 0.4956 0.1359 0.5652
H200 H 0.4698 0.2010 0.6134
C156 C 0.6037(7) 0.4139(7) 0.6269(3)
C157 C 0.5615(7) 0.4839(7) 0.6589(3)
C158 C 0.5488(9) 0.5667(8) 0.6353(4)
C159 C 0.5936(12) 0.5403(9) 0.5852(4)
C160 C 0.5147(19) 0.5400(16) 0.5465(6)
H201 H 0.5397 0.5152 0.5155
H202 H 0.4925 0.6046 0.5460
H203 H 0.4625 0.5001 0.5537
C161 C 0.5341(8) 0.4791(7) 0.7094(4)
C162 C 0.5624(13) 0.4102(12) 0.7797(5)
H204 H 0.5965 0.4595 0.8006
H205 H 0.5812 0.3480 0.7871
H206 H 0.4949 0.4183 0.7843
C163 C 0.6907(12) 0.5997(10) 0.5831(5)
H207 H 0.7432 0.5761 0.5985
C164 C 0.7062(12) 0.6721(11) 0.5642(6)
H208 H 0.6574 0.6912 0.5447
C165 C 0.7889(14) 0.7287(12) 0.5686(6)
H209 H 0.8357 0.7075 0.5885
C166 C 0.8134(15) 0.8044(14) 0.5505(8)
H210 H 0.7660 0.8229 0.5301
C167 C 0.8968(18) 0.869(2) 0.5538(10)
H211 H 0.8734 0.9349 0.5611
H212 H 0.9246 0.8635 0.5221
C168 C 0.974(2) 0.858(2) 0.5886(10)
H213 H 0.9596 0.8932 0.6194
H214 H 1.0332 0.8815 0.5775
H215 H 0.9812 0.7907 0.5917
O41 O 0.8249(8) 0.3021(8) 0.5567(4)
O42 O 0.7097(8) 0.0302(7) 0.5532(4)
O43 O 0.7696(6) 0.0383(6) 0.6479(3)
O44 O 0.6312(5) 0.1851(6) 0.7274(3)
H216 H 0.6136 0.1476 0.7037
O45 O 0.6221(6) 0.4421(5) 0.5846(2)
O46 O 0.5126(8) 0.6453(6) 0.6495(3)
O47 O 0.4752(7) 0.5293(7) 0.7293(3)
O48 O 0.5841(7) 0.4173(6) 0.7307(3)
C169 C 0.9231(8) 0.8316(7) 0.9152(4)
H217 H 0.9527 0.8821 0.9387
C170 C 0.8877(7) 0.8791(6) 0.8704(3)
H218 H 0.9152 0.8448 0.8410
C171 C 0.7760(7) 0.8658(7) 0.8685(3)
C172 C 0.7535(8) 0.8635(8) 0.9204(4)
C173 C 0.8297(9) 0.7972(8) 0.9377(4)
H219 H 0.8344 0.8046 0.9729
C174 C 0.8007(10) 0.6987(8) 0.9170(4)
C175 C 0.7656(7) 0.6847(7) 0.8660(4)
C176 C 0.7557(7) 0.7634(7) 0.8421(3)
C177 C 0.7224(7) 0.7521(8) 0.7900(4)
H220 H 0.7293 0.8153 0.7793
C178 C 0.7826(8) 0.6823(8) 0.7571(4)
H221 H 0.7689 0.6167 0.7634
C179 C 0.7660(11) 0.6867(12) 0.7031(4)
H222 H 0.7616 0.7528 0.6978
H223 H 0.7076 0.6536 0.6925
H224 H 0.8184 0.6565 0.6853
C180 C 0.6170(9) 0.7240(12) 0.7835(6)
H225 H 0.6020 0.7071 0.7498
H226 H 0.5782 0.7774 0.7966
H227 H 0.6044 0.6699 0.8000
C181 C 0.8157(13) 0.5276(9) 0.8388(6)
H228 H 0.8344 0.5171 0.8057
H229 H 0.7934 0.4681 0.8480
H230 H 0.8697 0.5508 0.8588
C182 C 0.7211(8) 0.9445(8) 0.8477(4)
H231 H 0.6578 0.9218 0.8383
H232 H 0.7537 0.9609 0.8201
H233 H 0.7173 1.0004 0.8717
C183 C 0.9938(10) 0.7533(10) 0.9041(6)
H234 H 1.0058 0.7232 0.9324
H235 H 1.0523 0.7797 0.8942
H236 H 0.9689 0.7063 0.8786
C184 C 0.9158(7) 0.9830(7) 0.8758(3)
C185 C 0.9558(7) 1.0347(7) 0.8437(4)
C186 C 0.9684(9) 1.1330(8) 0.8694(4)
C187 C 0.9322(13) 1.1306(9) 0.9190(4)
C188 C 1.011(2) 1.1502(14) 0.9560(6)
H237 H 1.0235 1.2183 0.9623
H238 H 1.0679 1.1174 0.9442
H239 H 0.9926 1.1276 0.9853
C189 C 0.9830(7) 1.0059(7) 0.7943(4)
C190 C 0.9540(13) 0.9023(11) 0.7222(5)
H240 H 0.8963 0.8957 0.7029
H241 H 0.9860 0.8413 0.7196
H242 H 0.9951 0.9492 0.7112
C191 C 0.853(2) 1.1882(14) 0.9312(10)
H243 H 0.8142 1.1570 0.9508
C192 C 0.8127(14) 1.2701(13) 0.9253(6)
H244 H 0.8550 1.3064 0.9099
C193 C 0.7325(15) 1.3188(13) 0.9336(7)
H245 H 0.6867 1.2812 0.9459
O49 O 0.6923(7) 0.9074(8) 0.9441(4)
O50 O 0.8026(9) 0.6309(7) 0.9395(4)
O51 O 0.7421(6) 0.5961(5) 0.8446(3)
O52 O 0.8812(5) 0.7046(6) 0.7695(3)
H246 H 0.9155 0.6769 0.7486
O53 O 0.9000(6) 1.0312(5) 0.9189(3)
O54 O 1.0024(8) 1.2021(6) 0.8545(4)
O55 O 1.0407(7) 1.0445(7) 0.7737(3)
O56 O 0.9306(7) 0.9331(6) 0.7718(3)
C194 C 0.698(2) 1.4049(18) 0.9297(11)
H247 H 0.7385 1.4341 0.9099
C195 C 0.537(2) 1.446(2) 0.9128(11)
H248 H 0.5440 1.4734 0.8837
H249 H 0.4787 1.4677 0.9281
H250 H 0.5353 1.3766 0.9053
C196 C 0.618(2) 1.474(3) 0.9454(15)
H251 H 0.6010 1.4704 0.9785
H252 H 0.6371 1.5401 0.9431
C197 C 0.4147(9) 0.8249(8) 0.9147(4)
H253 H 0.4468 0.8735 0.9382
C198 C 0.3847(7) 0.8732(6) 0.8691(3)
H254 H 0.4124 0.8374 0.8401
C199 C 0.2710(7) 0.8647(7) 0.8661(4)
C200 C 0.2467(9) 0.8665(9) 0.9179(5)
C201 C 0.3183(9) 0.7955(9) 0.9363(4)
H255 H 0.3219 0.8044 0.9716
C202 C 0.2831(10) 0.6986(10) 0.9171(5)
C203 C 0.2544(8) 0.6876(8) 0.8653(4)
C204 C 0.2477(7) 0.7630(7) 0.8404(4)
C205 C 0.2227(8) 0.7485(8) 0.7876(4)
H256 H 0.2340 0.8111 0.7769
C206 C 0.2829(8) 0.6789(8) 0.7566(4)
H257 H 0.2675 0.6138 0.7631
C207 C 0.2699(12) 0.6811(12) 0.7025(5)
H258 H 0.2747 0.7464 0.6960
H259 H 0.2082 0.6553 0.6920
H260 H 0.3187 0.6431 0.6854
C208 C 0.1151(10) 0.7276(12) 0.7786(6)
H261 H 0.1036 0.7056 0.7449
H262 H 0.0795 0.7855 0.7880
H263 H 0.0953 0.6788 0.7972
C209 C 0.3016(14) 0.5253(12) 0.8428(7)
H264 H 0.3409 0.5293 0.8154
H265 H 0.2727 0.4625 0.8399
H266 H 0.3403 0.5361 0.8717
C210 C 0.2209(9) 0.9454(8) 0.8444(5)
H267 H 0.1548 0.9287 0.8381
H268 H 0.2509 0.9544 0.8148
H269 H 0.2254 1.0040 0.8667
C211 C 0.4808(11) 0.7402(11) 0.9030(6)
H270 H 0.4891 0.7082 0.9309
H271 H 0.5417 0.7625 0.8937
H272 H 0.4537 0.6959 0.8770
C212 C 0.4155(7) 0.9760(7) 0.8745(3)
C213 C 0.4568(7) 1.0280(7) 0.8421(4)
C214 C 0.4734(9) 1.1237(8) 0.8683(4)
C215 C 0.4374(11) 1.1230(10) 0.9185(5)
C216 C 0.5185(16) 1.1381(14) 0.9558(7)
H273 H 0.5271 1.2058 0.9664
H274 H 0.5764 1.1118 0.9418
H275 H 0.5030 1.1063 0.9829
C217 C 0.4833(7) 0.9991(7) 0.7932(4)
C218 C 0.4564(13) 0.8942(11) 0.7208(5)
H276 H 0.4462 0.9461 0.7024
H277 H 0.4165 0.8404 0.7080
H278 H 0.5223 0.8751 0.7189
C219 C 0.368(2) 1.182(2) 0.9317(14)
H279 H 0.3377 1.1520 0.9548
C220 C 0.3193(13) 1.2586(13) 0.9306(7)
H280 H 0.3557 1.2948 0.9122
C221 C 0.2396(12) 1.3164(12) 0.9427(6)
H281 H 0.1931 1.2802 0.9553
C222 C 0.210(2) 1.400(2) 0.9422(14)
H282 H 0.2497 1.4369 0.9259
C223 C 0.1242(17) 1.4531(18) 0.9619(8)
H283 H 0.1404 1.5192 0.9747
H284 H 0.0962 1.4223 0.9873
C224 C 0.055(2) 1.449(2) 0.9183(9)
H285 H 0.0752 1.4950 0.8981
H286 H -0.0082 1.4639 0.9293
H287 H 0.0560 1.3855 0.9003
O57 O 0.1887(9) 0.9152(9) 0.9406(5)
O58 O 0.2783(10) 0.6343(8) 0.9409(4)
O59 O 0.2288(7) 0.5965(6) 0.8448(3)
O60 O 0.3804(6) 0.6998(6) 0.7710(3)
H288 H 0.4144 0.6552 0.7595
O61 O 0.4011(6) 1.0247(6) 0.9177(3)
O62 O 0.5083(8) 1.1953(6) 0.8547(4)
O63 O 0.5432(7) 1.0375(7) 0.7722(3)
O64 O 0.4330(6) 0.9251(6) 0.7700(3)
loop_
_geom_bond_atom_site_label_1
_geom_bond_atom_site_label_2
_geom_bond_site_symmetry_1
_geom_bond_site_symmetry_2
C1 H1 1_555 1_555
C2 C1 1_555 1_555
H2 C2 1_555 1_555
C3 C2 1_555 1_555
C4 C3 1_555 1_555
C5 C1 1_555 1_555
H3 C5 1_555 1_555
C6 C5 1_555 1_555
C7 C6 1_555 1_555
C8 C3 1_555 1_555
C9 C8 1_555 1_555
H4 C9 1_555 1_555
C10 C9 1_555 1_555
H5 C10 1_555 1_555
C11 C10 1_555 1_555
H6 C11 1_555 1_555
H7 C11 1_555 1_555
H8 C11 1_555 1_555
C12 C9 1_555 1_555
H9 C12 1_555 1_555
H10 C12 1_555 1_555
H11 C12 1_555 1_555
C13 H12 1_555 1_555
H13 C13 1_555 1_555
H14 C13 1_555 1_555
C14 C3 1_555 1_555
H15 C14 1_555 1_555
H16 C14 1_555 1_555
H17 C14 1_555 1_555
C15 C1 1_555 1_555
H18 C15 1_555 1_555
H19 C15 1_555 1_555
H20 C15 1_555 1_555
C16 C2 1_555 1_555
C17 C16 1_555 1_555
C18 C17 1_555 1_555
C19 C18 1_555 1_555
C20 C19 1_555 1_555
H21 C20 1_555 1_555
H22 C20 1_555 1_555
H23 C20 1_555 1_555
C21 C17 1_555 1_555
C22 H24 1_555 1_555
H25 C22 1_555 1_555
H26 C22 1_555 1_555
C23 C19 1_555 1_555
H27 C23 1_555 1_555
C24 C23 1_555 1_555
H28 C24 1_555 1_555
C25 C24 1_555 1_555
H29 C25 1_555 1_555
C26 C25 1_555 1_555
H30 C26 1_555 1_555
C27 C26 1_555 1_555
H31 C27 1_555 1_555
H32 C27 1_555 1_555
C28 C27 1_555 1_555
H33 C28 1_555 1_555
H34 C28 1_555 1_555
H35 C28 1_555 1_555
O1 C4 1_555 1_555
O2 C6 1_555 1_555
O3 C7 1_555 1_555
O4 C10 1_555 1_555
H36 O4 1_555 1_555
O5 C16 1_555 1_555
O6 C18 1_555 1_555
O7 C21 1_555 1_555
O8 C21 1_555 1_555
C29 H37 1_555 1_555
H38 C29 1_555 1_555
H39 C29 1_555 1_555
C30 C29 1_555 1_555
H40 C30 1_555 1_555
C31 C30 1_555 1_555
H41 C31 1_555 1_555
C32 C31 1_555 1_555
C33 C32 1_555 1_555
C34 C30 1_555 1_555
H42 C34 1_555 1_555
C35 C34 1_555 1_555
C36 C35 1_555 1_555
C37 C32 1_555 1_555
C38 C37 1_555 1_555
H43 C38 1_555 1_555
C39 C38 1_555 1_555
H44 C39 1_555 1_555
C40 C39 1_555 1_555
H45 C40 1_555 1_555
H46 C40 1_555 1_555
H47 C40 1_555 1_555
C41 C38 1_555 1_555
H48 C41 1_555 1_555
H49 C41 1_555 1_555
H50 C41 1_555 1_555
C42 H51 1_555 1_555
H52 C42 1_555 1_555
H53 C42 1_555 1_555
C43 C32 1_555 1_555
H54 C43 1_555 1_555
H55 C43 1_555 1_555
H56 C43 1_555 1_555
C44 C31 1_555 1_555
C45 C44 1_555 1_555
C46 C45 1_555 1_555
C47 C46 1_555 1_555
C48 C47 1_555 1_555
H57 C48 1_555 1_555
H58 C48 1_555 1_555
H59 C48 1_555 1_555
C49 C45 1_555 1_555
C50 H60 1_555 1_555
H61 C50 1_555 1_555
H62 C50 1_555 1_555
C51 C47 1_555 1_555
H63 C51 1_555 1_555
C52 C51 1_555 1_555
H64 C52 1_555 1_555
C53 C52 1_555 1_555
H65 C53 1_555 1_555
C54 C53 1_555 1_555
H66 C54 1_555 1_555
C55 C54 1_555 1_555
H67 C55 1_555 1_555
H68 C55 1_555 1_555
C56 C55 1_555 1_555
H69 C56 1_555 1_555
H70 C56 1_555 1_555
H71 C56 1_555 1_555
O9 C33 1_555 1_555
O10 C35 1_555 1_555
O11 C36 1_555 1_555
O12 C39 1_555 1_555
H72 O12 1_555 1_555
O13 C44 1_555 1_555
O14 C46 1_555 1_555
O15 C49 1_555 1_555
O16 C49 1_555 1_555
C57 H73 1_555 1_555
C58 C57 1_555 1_555
H74 C58 1_555 1_555
C59 C58 1_555 1_555
C60 C59 1_555 1_555
C61 C57 1_555 1_555
H75 C61 1_555 1_555
C62 C61 1_555 1_555
C63 C62 1_555 1_555
C64 C59 1_555 1_555
C65 C64 1_555 1_555
H76 C65 1_555 1_555
C66 C65 1_555 1_555
H77 C66 1_555 1_555
C67 C66 1_555 1_555
H78 C67 1_555 1_555
H79 C67 1_555 1_555
H80 C67 1_555 1_555
C68 C65 1_555 1_555
H81 C68 1_555 1_555
H82 C68 1_555 1_555
H83 C68 1_555 1_555
C69 H84 1_555 1_555
H85 C69 1_555 1_555
H86 C69 1_555 1_555
C70 C59 1_555 1_555
H87 C70 1_555 1_555
H88 C70 1_555 1_555
H89 C70 1_555 1_555
C71 C57 1_555 1_555
H90 C71 1_555 1_555
H91 C71 1_555 1_555
H92 C71 1_555 1_555
C72 C58 1_555 1_555
C73 C72 1_555 1_555
C74 C73 1_555 1_555
C75 C74 1_555 1_555
C76 C75 1_555 1_555
H93 C76 1_555 1_555
H94 C76 1_555 1_555
H95 C76 1_555 1_555
C77 C73 1_555 1_555
C78 H96 1_555 1_555
H97 C78 1_555 1_555
H98 C78 1_555 1_555
C79 C75 1_555 1_555
H99 C79 1_555 1_555
C80 C79 1_555 1_555
H100 C80 1_555 1_555
C81 C80 1_555 1_555
H101 C81 1_555 1_555
C82 C81 1_555 1_555
H102 C82 1_555 1_555
C83 C82 1_555 1_555
H103 C83 1_555 1_555
H104 C83 1_555 1_555
C84 C83 1_555 1_555
H105 C84 1_555 1_555
H106 C84 1_555 1_555
H107 C84 1_555 1_555
O17 C60 1_555 1_555
O18 C62 1_555 1_555
O19 C63 1_555 1_555
O20 C66 1_555 1_555
H108 O20 1_555 1_555
O21 C72 1_555 1_555
O22 C74 1_555 1_555
O23 C77 1_555 1_555
O24 C77 1_555 1_555
C85 H109 1_555 1_555
C86 C85 1_555 1_555
H110 C86 1_555 1_555
C87 C86 1_555 1_555
C88 C87 1_555 1_555
C89 C85 1_555 1_555
H111 C89 1_555 1_555
C90 C89 1_555 1_555
C91 C90 1_555 1_555
C92 C87 1_555 1_555
C93 C92 1_555 1_555
H112 C93 1_555 1_555
C94 C93 1_555 1_555
H113 C94 1_555 1_555
C95 C94 1_555 1_555
H114 C95 1_555 1_555
H115 C95 1_555 1_555
H116 C95 1_555 1_555
C96 C93 1_555 1_555
H117 C96 1_555 1_555
H118 C96 1_555 1_555
H119 C96 1_555 1_555
C97 H120 1_555 1_555
H121 C97 1_555 1_555
H122 C97 1_555 1_555
C98 C87 1_555 1_555
H123 C98 1_555 1_555
H124 C98 1_555 1_555
H125 C98 1_555 1_555
C99 C85 1_555 1_555
H126 C99 1_555 1_555
H127 C99 1_555 1_555
H128 C99 1_555 1_555
C100 C86 1_555 1_555
C101 C100 1_555 1_555
C102 C101 1_555 1_555
C103 C102 1_555 1_555
C104 C103 1_555 1_555
H129 C104 1_555 1_555
H130 C104 1_555 1_555
H131 C104 1_555 1_555
C105 C101 1_555 1_555
C106 H132 1_555 1_555
H133 C106 1_555 1_555
H134 C106 1_555 1_555
C107 C103 1_555 1_555
H135 C107 1_555 1_555
C108 C107 1_555 1_555
H136 C108 1_555 1_555
C109 C108 1_555 1_555
H137 C109 1_555 1_555
C110 C109 1_555 1_555
H138 C110 1_555 1_555
C111 C110 1_555 1_555
H139 C111 1_555 1_555
H140 C111 1_555 1_555
C112 C111 1_555 1_555
H141 C112 1_555 1_555
H142 C112 1_555 1_555
H143 C112 1_555 1_555
O25 C88 1_555 1_555
O26 C90 1_555 1_555
O27 C91 1_555 1_555
O28 C94 1_555 1_555
H144 O28 1_555 1_555
O29 C100 1_555 1_555
O30 C102 1_555 1_555
O31 C105 1_555 1_555
O32 C105 1_555 1_555
C113 H145 1_555 1_555
C114 C113 1_555 1_555
H146 C114 1_555 1_555
C115 C114 1_555 1_555
C116 C115 1_555 1_555
C117 C113 1_555 1_555
H147 C117 1_555 1_555
C118 C117 1_555 1_555
C119 C118 1_555 1_555
C120 C115 1_555 1_555
C121 C120 1_555 1_555
H148 C121 1_555 1_555
C122 C121 1_555 1_555
H149 C122 1_555 1_555
C123 C122 1_555 1_555
H150 C123 1_555 1_555
H151 C123 1_555 1_555
H152 C123 1_555 1_555
C124 C121 1_555 1_555
H153 C124 1_555 1_555
H154 C124 1_555 1_555
H155 C124 1_555 1_555
C125 H156 1_555 1_555
H157 C125 1_555 1_555
H158 C125 1_555 1_555
C126 C115 1_555 1_555
H159 C126 1_555 1_555
H160 C126 1_555 1_555
H161 C126 1_555 1_555
C127 C113 1_555 1_555
H162 C127 1_555 1_555
H163 C127 1_555 1_555
H164 C127 1_555 1_555
C128 C114 1_555 1_555
C129 C128 1_555 1_555
C130 C129 1_555 1_555
C131 C130 1_555 1_555
C132 C131 1_555 1_555
H165 C132 1_555 1_555
H166 C132 1_555 1_555
H167 C132 1_555 1_555
C133 C129 1_555 1_555
C134 H168 1_555 1_555
H169 C134 1_555 1_555
H170 C134 1_555 1_555
C135 C131 1_555 1_555
H171 C135 1_555 1_555
C136 C135 1_555 1_555
H172 C136 1_555 1_555
C137 C136 1_555 1_555
H173 C137 1_555 1_555
C138 C137 1_555 1_555
H174 C138 1_555 1_555
C139 C138 1_555 1_555
H175 C139 1_555 1_555
H176 C139 1_555 1_555
C140 C139 1_555 1_555
H177 C140 1_555 1_555
H178 C140 1_555 1_555
H179 C140 1_555 1_555
O33 C116 1_555 1_555
O34 C118 1_555 1_555
O35 C119 1_555 1_555
O36 C122 1_555 1_555
H180 O36 1_555 1_555
O37 C128 1_555 1_555
O38 C130 1_555 1_555
O39 C133 1_555 1_555
O40 C133 1_555 1_555
C141 H181 1_555 1_555
C142 C141 1_555 1_555
H182 C142 1_555 1_555
C143 C142 1_555 1_555
C144 C143 1_555 1_555
C145 C141 1_555 1_555
H183 C145 1_555 1_555
C146 C145 1_555 1_555
C147 C146 1_555 1_555
C148 C143 1_555 1_555
C149 C148 1_555 1_555
H184 C149 1_555 1_555
C150 C149 1_555 1_555
H185 C150 1_555 1_555
C151 C150 1_555 1_555
H186 C151 1_555 1_555
H187 C151 1_555 1_555
H188 C151 1_555 1_555
C152 C149 1_555 1_555
H189 C152 1_555 1_555
H190 C152 1_555 1_555
H191 C152 1_555 1_555
C153 H192 1_555 1_555
H193 C153 1_555 1_555
H194 C153 1_555 1_555
C154 C143 1_555 1_555
H195 C154 1_555 1_555
H196 C154 1_555 1_555
H197 C154 1_555 1_555
C155 C141 1_555 1_555
H198 C155 1_555 1_555
H199 C155 1_555 1_555
H200 C155 1_555 1_555
C156 C142 1_555 1_555
C157 C156 1_555 1_555
C158 C157 1_555 1_555
C159 C158 1_555 1_555
C160 C159 1_555 1_555
H201 C160 1_555 1_555
H202 C160 1_555 1_555
H203 C160 1_555 1_555
C161 C157 1_555 1_555
C162 H204 1_555 1_555
H205 C162 1_555 1_555
H206 C162 1_555 1_555
C163 C159 1_555 1_555
H207 C163 1_555 1_555
C164 C163 1_555 1_555
H208 C164 1_555 1_555
C165 C164 1_555 1_555
H209 C165 1_555 1_555
C166 C165 1_555 1_555
H210 C166 1_555 1_555
C167 C166 1_555 1_555
H211 C167 1_555 1_555
H212 C167 1_555 1_555
C168 C167 1_555 1_555
H213 C168 1_555 1_555
H214 C168 1_555 1_555
H215 C168 1_555 1_555
O41 C144 1_555 1_555
O42 C146 1_555 1_555
O43 C147 1_555 1_555
O44 C150 1_555 1_555
H216 O44 1_555 1_555
O45 C156 1_555 1_555
O46 C158 1_555 1_555
O47 C161 1_555 1_555
O48 C161 1_555 1_555
C169 H217 1_555 1_555
C170 C169 1_555 1_555
H218 C170 1_555 1_555
C171 C170 1_555 1_555
C172 C171 1_555 1_555
C173 C169 1_555 1_555
H219 C173 1_555 1_555
C174 C173 1_555 1_555
C175 C174 1_555 1_555
C176 C171 1_555 1_555
C177 C176 1_555 1_555
H220 C177 1_555 1_555
C178 C177 1_555 1_555
H221 C178 1_555 1_555
C179 C178 1_555 1_555
H222 C179 1_555 1_555
H223 C179 1_555 1_555
H224 C179 1_555 1_555
C180 C177 1_555 1_555
H225 C180 1_555 1_555
H226 C180 1_555 1_555
H227 C180 1_555 1_555
C181 H228 1_555 1_555
H229 C181 1_555 1_555
H230 C181 1_555 1_555
C182 C171 1_555 1_555
H231 C182 1_555 1_555
H232 C182 1_555 1_555
H233 C182 1_555 1_555
C183 C169 1_555 1_555
H234 C183 1_555 1_555
H235 C183 1_555 1_555
H236 C183 1_555 1_555
C184 C170 1_555 1_555
C185 C184 1_555 1_555
C186 C185 1_555 1_555
C187 C186 1_555 1_555
C188 C187 1_555 1_555
H237 C188 1_555 1_555
H238 C188 1_555 1_555
H239 C188 1_555 1_555
C189 C185 1_555 1_555
C190 H240 1_555 1_555
H241 C190 1_555 1_555
H242 C190 1_555 1_555
C191 C187 1_555 1_555
H243 C191 1_555 1_555
C192 C191 1_555 1_555
H244 C192 1_555 1_555
C193 C192 1_555 1_555
H245 C193 1_555 1_555
O49 C172 1_555 1_555
O50 C174 1_555 1_555
O51 C175 1_555 1_555
O52 C178 1_555 1_555
H246 O52 1_555 1_555
O53 C184 1_555 1_555
O54 C186 1_555 1_555
O55 C189 1_555 1_555
O56 C189 1_555 1_555
C194 C193 1_555 1_555
H247 C194 1_555 1_555
C195 H248 1_555 1_555
H249 C195 1_555 1_555
H250 C195 1_555 1_555
C196 C194 1_555 1_555
H251 C196 1_555 1_555
H252 C196 1_555 1_555
C197 H253 1_555 1_555
C198 C197 1_555 1_555
H254 C198 1_555 1_555
C199 C198 1_555 1_555
C200 C199 1_555 1_555
C201 C197 1_555 1_555
H255 C201 1_555 1_555
C202 C201 1_555 1_555
C203 C202 1_555 1_555
C204 C199 1_555 1_555
C205 C204 1_555 1_555
H256 C205 1_555 1_555
C206 C205 1_555 1_555
H257 C206 1_555 1_555
C207 C206 1_555 1_555
H258 C207 1_555 1_555
H259 C207 1_555 1_555
H260 C207 1_555 1_555
C208 C205 1_555 1_555
H261 C208 1_555 1_555
H262 C208 1_555 1_555
H263 C208 1_555 1_555
C209 H264 1_555 1_555
H265 C209 1_555 1_555
H266 C209 1_555 1_555
C210 C199 1_555 1_555
H267 C210 1_555 1_555
H268 C210 1_555 1_555
H269 C210 1_555 1_555
C211 C197 1_555 1_555
H270 C211 1_555 1_555
H271 C211 1_555 1_555
H272 C211 1_555 1_555
C212 C198 1_555 1_555
C213 C212 1_555 1_555
C214 C213 1_555 1_555
C215 C214 1_555 1_555
C216 C215 1_555 1_555
H273 C216 1_555 1_555
H274 C216 1_555 1_555
H275 C216 1_555 1_555
C217 C213 1_555 1_555
C218 H276 1_555 1_555
H277 C218 1_555 1_555
H278 C218 1_555 1_555
C219 C215 1_555 1_555
H279 C219 1_555 1_555
C220 C219 1_555 1_555
H280 C220 1_555 1_555
C221 C220 1_555 1_555
H281 C221 1_555 1_555
C222 C221 1_555 1_555
H282 C222 1_555 1_555
C223 C222 1_555 1_555
H283 C223 1_555 1_555
H284 C223 1_555 1_555
C224 C223 1_555 1_555
H285 C224 1_555 1_555
H286 C224 1_555 1_555
H287 C224 1_555 1_555
O57 C200 1_555 1_555
O58 C202 1_555 1_555
O59 C203 1_555 1_555
O60 C206 1_555 1_555
H288 O60 1_555 1_555
O61 C212 1_555 1_555
O62 C214 1_555 1_555
O63 C217 1_555 1_555
O64 C217 1_555 1_555
C4 C5 1_555 1_555
C7 C8 1_555 1_555
C13 O3 1_555 1_555
C19 O5 1_555 1_555
C22 O8 1_555 1_555
C33 C34 1_555 1_555
C36 C37 1_555 1_555
C42 O11 1_555 1_555
C47 O13 1_555 1_555
C50 O16 1_555 1_555
C60 C61 1_555 1_555
C63 C64 1_555 1_555
C69 O19 1_555 1_555
C75 O21 1_555 1_555
C78 O24 1_555 1_555
C88 C89 1_555 1_555
C91 C92 1_555 1_555
C97 O27 1_555 1_555
C103 O29 1_555 1_555
C106 O32 1_555 1_555
C116 C117 1_555 1_555
C119 C120 1_555 1_555
C125 O35 1_555 1_555
C131 O37 1_555 1_555
C134 O40 1_555 1_555
C144 C145 1_555 1_555
C147 C148 1_555 1_555
C153 O43 1_555 1_555
C159 O45 1_555 1_555
C162 O48 1_555 1_555
C172 C173 1_555 1_555
C175 C176 1_555 1_555
C181 O51 1_555 1_555
C187 O53 1_555 1_555
C190 O56 1_555 1_555
C195 C196 1_555 1_555
C200 C201 1_555 1_555
C203 C204 1_555 1_555
C209 O59 1_555 1_555
C215 O61 1_555 1_555
C218 O64 1_555 1_555

#END
