
#######################################################################
#
#                 Cambridge Crystallographic Data Centre
#                                CCDC 
#
#######################################################################
#
# If this CIF has been generated from an entry in the Cambridge 
# Structural Database, then it will include bibliographic, chemical, 
# crystal, experimental, refinement or atomic coordinate data resulting 
# from the CCDC's data processing and validation procedures.
#
#######################################################################

data_ZETWED
_chemical_formula_moiety         'C32 H38 N4 O2,H2 O1'
_chemical_name_systematic        
"3',6'-bis(ethylamino)-2',7'-dimethyl-2-[2-(pyrrolidin-1-yl)ethyl]spiro[isoindole-1,9'-xanthen]-3(2H)-one monohydrate"
_symmetry_cell_setting           triclinic
_symmetry_space_group_name_H-M   'P -1'
_symmetry_Int_Tables_number      2
_space_group_name_Hall           '-P 1'
loop_
_symmetry_equiv_pos_site_id
_symmetry_equiv_pos_as_xyz
1 x,y,z
2 -x,-y,-z
_cell_length_a                   10.3648(15)
_cell_length_b                   11.5481(17)
_cell_length_c                   12.5472(19)
_cell_angle_alpha                81.870(5)
_cell_angle_beta                 77.716(5)
_cell_angle_gamma                87.248(5)
_cell_volume                     1452.44
_exptl_crystal_colour            'light brown'
_exptl_crystal_description       Block
_cell_formula_units_Z            2
loop_
_atom_site_label
_atom_site_type_symbol
_atom_site_fract_x
_atom_site_fract_y
_atom_site_fract_z
N1 N 0.3084(2) 0.1059(2) 0.8145(2)
O1 O 0.1345(2) 0.40168(19) 0.51198(17)
N2 N -0.0257(3) 0.1604(3) 0.2961(2)
H1 H -0.0777 0.1060 0.2924
C1 C 0.0605(4) 0.2106(3) 0.1968(3)
H2 H 0.0638 0.2944 0.1967
H3 H 0.0248 0.1976 0.1341
O2 O -0.1361(2) 0.1199(2) 0.96982(19)
N3 N 0.3481(3) 0.6449(2) 0.6934(2)
C2 C 0.5237(4) 0.1431(5) 0.7113(4)
H4 H 0.5794 0.2105 0.7013
H5 H 0.5531 0.0994 0.6496
C3 C 0.3811(4) 0.1811(4) 0.7193(4)
H6 H 0.3691 0.2628 0.7301
H7 H 0.3516 0.1705 0.6530
C4 C 0.1795(3) 0.1522(3) 0.8597(3)
H8 H 0.1853 0.2350 0.8639
H9 H 0.1477 0.1127 0.9336
C5 C 0.0836(3) 0.1345(3) 0.7874(3)
N4 N -0.0322(2) 0.20971(19) 0.80082(19)
C6 C -0.0509(3) 0.3100(2) 0.7158(2)
C7 C -0.0420(3) 0.2706(2) 0.6050(2)
C8 C 0.0461(3) 0.3166(2) 0.5118(2)
C9 C 0.0533(3) 0.2819(3) 0.4096(3)
H10 H 0.1135 0.3165 0.3488
C10 C -0.0291(3) 0.1955(3) 0.3973(3)
C11 C 0.1971(4) 0.1599(5) 0.1848(4)
H11 H 0.2305 0.1674 0.2492
H12 H 0.2531 0.2011 0.1212
H13 H 0.1957 0.0787 0.1763
C12 C 0.5295(3) 0.0672(4) 0.8177(4)
H14 H 0.6018 0.0893 0.8482
H15 H 0.5405 -0.0146 0.8073
C13 C 0.3975(3) 0.0896(3) 0.8918(3)
H16 H 0.3720 0.0234 0.9481
H17 H 0.3993 0.1591 0.9267
C14 C -0.1898(3) 0.3513(2) 0.7682(2)
C15 C -0.2681(3) 0.4398(3) 0.7283(3)
H18 H -0.2390 0.4851 0.6607
C16 C -0.3916(3) 0.4591(3) 0.7923(3)
H19 H -0.4465 0.5179 0.7669
C17 C -0.4350(3) 0.3920(3) 0.8938(3)
H20 H -0.5180 0.4071 0.9356
C18 C -0.3564(3) 0.3037(3) 0.9330(3)
H21 H -0.3852 0.2584 1.0007
C19 C -0.2335(3) 0.2845(2) 0.8689(2)
C20 C -0.1322(3) 0.1952(3) 0.8887(3)
C21 C -0.1220(3) 0.1808(3) 0.5909(2)
H22 H -0.1815 0.1463 0.6521
C22 C -0.1167(3) 0.1417(3) 0.4921(3)
C23 C 0.1378(3) 0.4398(2) 0.6106(2)
C24 C 0.2355(3) 0.5210(3) 0.6037(3)
H23 H 0.2916 0.5444 0.5364
C25 C 0.2494(3) 0.5667(2) 0.6963(2)
C26 C 0.4348(4) 0.6890(3) 0.5914(3)
H24 H 0.3831 0.7291 0.5409
H25 H 0.4822 0.6243 0.5580
C27 C 0.5322(4) 0.7726(4) 0.6117(4)
H26 H 0.4852 0.8374 0.6434
H27 H 0.5898 0.8009 0.5433
H28 H 0.5836 0.7326 0.6614
C28 C 0.1654(3) 0.5274(3) 0.7987(2)
C29 C 0.0699(3) 0.4483(2) 0.7998(2)
H29 H 0.0133 0.4244 0.8666
C30 C 0.0522(3) 0.4017(2) 0.7073(2)
C31 C 0.1831(4) 0.5685(3) 0.9023(3)
H30 H 0.1267 0.5252 0.9643
H31 H 0.1605 0.6502 0.9001
H32 H 0.2735 0.5564 0.9090
C32 C -0.1987(3) 0.0407(3) 0.4828(3)
H33 H -0.2413 0.0060 0.5550
H34 H -0.1427 -0.0167 0.4462
H35 H -0.2643 0.0685 0.4411
H36 H 0.328(3) 0.698(3) 0.737(3)
H37 H 0.127(3) 0.149(3) 0.708(3)
H38 H 0.054(4) 0.053(4) 0.806(3)
O3 O 0.7367(3) 0.1323(2) 0.1897(3)
H39 H 0.707(5) 0.050(5) 0.206(4)
H40 H 0.775(6) 0.142(5) 0.127(5)
loop_
_geom_bond_atom_site_label_1
_geom_bond_atom_site_label_2
_geom_bond_site_symmetry_1
_geom_bond_site_symmetry_2
N1 C3 1_555 1_555
O1 C8 1_555 1_555
N2 H1 1_555 1_555
C1 N2 1_555 1_555
H2 C1 1_555 1_555
H3 C1 1_555 1_555
O2 C20 1_555 1_555
N3 C25 1_555 1_555
C2 H4 1_555 1_555
H5 C2 1_555 1_555
C3 C2 1_555 1_555
H6 C3 1_555 1_555
H7 C3 1_555 1_555
C4 N1 1_555 1_555
H8 C4 1_555 1_555
H9 C4 1_555 1_555
C5 C4 1_555 1_555
N4 C5 1_555 1_555
C6 N4 1_555 1_555
C7 C6 1_555 1_555
C8 C7 1_555 1_555
C9 C8 1_555 1_555
H10 C9 1_555 1_555
C10 N2 1_555 1_555
C11 C1 1_555 1_555
H11 C11 1_555 1_555
H12 C11 1_555 1_555
H13 C11 1_555 1_555
C12 C2 1_555 1_555
H14 C12 1_555 1_555
H15 C12 1_555 1_555
C13 N1 1_555 1_555
H16 C13 1_555 1_555
H17 C13 1_555 1_555
C14 C6 1_555 1_555
C15 C14 1_555 1_555
H18 C15 1_555 1_555
C16 C15 1_555 1_555
H19 C16 1_555 1_555
C17 C16 1_555 1_555
H20 C17 1_555 1_555
C18 C17 1_555 1_555
H21 C18 1_555 1_555
C19 C14 1_555 1_555
C20 N4 1_555 1_555
C21 C7 1_555 1_555
H22 C21 1_555 1_555
C22 C10 1_555 1_555
C23 O1 1_555 1_555
C24 C23 1_555 1_555
H23 C24 1_555 1_555
C25 C24 1_555 1_555
C26 N3 1_555 1_555
H24 C26 1_555 1_555
H25 C26 1_555 1_555
C27 C26 1_555 1_555
H26 C27 1_555 1_555
H27 C27 1_555 1_555
H28 C27 1_555 1_555
C28 C25 1_555 1_555
C29 C28 1_555 1_555
H29 C29 1_555 1_555
C30 C6 1_555 1_555
C31 C28 1_555 1_555
H30 C31 1_555 1_555
H31 C31 1_555 1_555
H32 C31 1_555 1_555
C32 C22 1_555 1_555
H33 C32 1_555 1_555
H34 C32 1_555 1_555
H35 C32 1_555 1_555
H36 N3 1_555 1_555
H37 C5 1_555 1_555
H38 C5 1_555 1_555
O3 H39 1_555 1_555
H40 O3 1_555 1_555
C9 C10 1_555 1_555
C12 C13 1_555 1_555
C18 C19 1_555 1_555
C19 C20 1_555 1_555
C21 C22 1_555 1_555
C23 C30 1_555 1_555
C29 C30 1_555 1_555

#END
