
#######################################################################
#
#                 Cambridge Crystallographic Data Centre
#                                CCDC 
#
#######################################################################
#
# If this CIF has been generated from an entry in the Cambridge 
# Structural Database, then it will include bibliographic, chemical, 
# crystal, experimental, refinement or atomic coordinate data resulting 
# from the CCDC's data processing and validation procedures.
#
#######################################################################

data_ZETYIJ
_chemical_formula_moiety         'C35 H24 N6 O3'
_chemical_name_systematic        
"3'-(1H-indole-3-carbonyl)-1'-methyl-4'-(4-nitrophenyl)spiro[indeno[1,2-b]quinoxaline-11,2'-pyrrolidine]-3'-carbonitrile unknown solvate"
_symmetry_cell_setting           monoclinic
_symmetry_space_group_name_H-M   'P 21/c'
_symmetry_Int_Tables_number      14
_space_group_name_Hall           '-P 2ybc'
loop_
_symmetry_equiv_pos_site_id
_symmetry_equiv_pos_as_xyz
1 x,y,z
2 -x,1/2+y,1/2-z
3 -x,-y,-z
4 x,1/2-y,1/2+z
_cell_length_a                   13.1928(12)
_cell_length_b                   22.5666(17)
_cell_length_c                   12.9306(11)
_cell_angle_alpha                90
_cell_angle_beta                 106.968(2)
_cell_angle_gamma                90
_cell_volume                     3682.07
_cell_formula_units_Z            4
loop_
_atom_site_label
_atom_site_type_symbol
_atom_site_fract_x
_atom_site_fract_y
_atom_site_fract_z
N1 N 0.3826(2) 0.46081(13) 0.1872(2)
N2 N 0.5817(2) 0.43724(14) 0.1491(2)
N3 N 0.2624(2) 0.33986(13) 0.1681(2)
N4 N 0.7190(2) 0.29320(14) 0.4589(2)
H1 H 0.7537 0.2619 0.4521
N5 N 0.1457(3) 0.3319(3) 0.7166(3)
N6 N 0.3724(2) 0.24108(15) 0.4052(2)
O1 O 0.46794(19) 0.43117(11) 0.4473(2)
O2 O 0.1041(3) 0.2846(2) 0.7215(3)
O3 O 0.1621(3) 0.3695(2) 0.7877(3)
C1 C 0.3740(3) 0.35081(14) 0.2172(2)
C2 C 0.4455(3) 0.30527(15) 0.1870(2)
C3 C 0.4341(3) 0.24461(16) 0.1819(2)
H2 H 0.3733 0.2269 0.1901
C4 C 0.5143(3) 0.21069(17) 0.1644(3)
H3 H 0.5075 0.1697 0.1606
C5 C 0.6045(3) 0.23694(19) 0.1526(3)
H4 H 0.6597 0.2132 0.1456
C6 C 0.6147(3) 0.29760(19) 0.1508(3)
H5 H 0.6741 0.3150 0.1387
C7 C 0.5333(3) 0.33216(16) 0.1677(2)
C8 C 0.5181(3) 0.39535(15) 0.1688(2)
C9 C 0.4233(3) 0.40810(15) 0.1903(3)
C10 C 0.4426(3) 0.50545(16) 0.1605(3)
C11 C 0.5412(3) 0.49369(17) 0.1438(3)
C12 C 0.5999(4) 0.5409(2) 0.1183(3)
H6 H 0.6659 0.5337 0.1085
C13 C 0.5603(5) 0.5965(2) 0.1083(3)
H7 H 0.5992 0.6273 0.0911
C14 C 0.4628(6) 0.60810(19) 0.1232(3)
H8 H 0.4366 0.6466 0.1155
C15 C 0.4044(4) 0.56359(18) 0.1492(3)
H9 H 0.3389 0.5720 0.1594
C16 C 0.3806(2) 0.34965(14) 0.3421(2)
C17 C 0.2775(3) 0.38260(15) 0.3415(3)
H10 H 0.2944 0.4250 0.3450
C18 C 0.2018(3) 0.37153(19) 0.2296(3)
H11 H 0.1421 0.3478 0.2346
H12 H 0.1752 0.4088 0.1946
C19 C 0.2248(3) 0.34878(18) 0.0518(3)
H13 H 0.2330 0.3897 0.0355
H14 H 0.1514 0.3380 0.0257
H15 H 0.2653 0.3245 0.0173
C20 C 0.4812(3) 0.38238(15) 0.4157(3)
C21 C 0.5841(3) 0.35550(15) 0.4425(2)
C22 C 0.6145(3) 0.30044(16) 0.4163(3)
H16 H 0.5689 0.2723 0.3748
C23 C 0.7627(3) 0.34337(17) 0.5157(3)
C24 C 0.6790(3) 0.38352(16) 0.5088(3)
C25 C 0.7012(3) 0.43701(18) 0.5641(4)
H17 H 0.6477 0.4643 0.5615
C26 C 0.8043(4) 0.4484(2) 0.6228(5)
H18 H 0.8201 0.4835 0.6619
C27 C 0.8856(4) 0.4086(2) 0.6251(5)
H19 H 0.9549 0.4184 0.6630
C28 C 0.8654(3) 0.3556(2) 0.5730(4)
H20 H 0.9195 0.3287 0.5761
C29 C 0.2385(3) 0.36951(15) 0.4371(3)
C30 C 0.1773(3) 0.32016(17) 0.4423(3)
H21 H 0.1568 0.2947 0.3833
C31 C 0.1462(3) 0.30811(18) 0.5335(4)
H22 H 0.1050 0.2750 0.5360
C32 C 0.1770(3) 0.3456(2) 0.6194(3)
C33 C 0.2352(3) 0.3950(2) 0.6174(3)
H23 H 0.2535 0.4208 0.6761
C34 C 0.2665(3) 0.40598(17) 0.5261(3)
H24 H 0.3079 0.4392 0.5248
C35 C 0.3767(3) 0.28819(17) 0.3765(3)
loop_
_geom_bond_atom_site_label_1
_geom_bond_atom_site_label_2
_geom_bond_site_symmetry_1
_geom_bond_site_symmetry_2
N1 C9 1_555 1_555
N2 C8 1_555 1_555
N3 C1 1_555 1_555
N4 H1 1_555 1_555
N5 O2 1_555 1_555
N6 C35 1_555 1_555
O1 C20 1_555 1_555
O3 N5 1_555 1_555
C1 C2 1_555 1_555
C2 C3 1_555 1_555
C3 H2 1_555 1_555
C4 C3 1_555 1_555
H3 C4 1_555 1_555
C5 C4 1_555 1_555
H4 C5 1_555 1_555
C6 C5 1_555 1_555
H5 C6 1_555 1_555
C7 C2 1_555 1_555
C8 C7 1_555 1_555
C9 C1 1_555 1_555
C10 N1 1_555 1_555
C11 N2 1_555 1_555
C12 C11 1_555 1_555
H6 C12 1_555 1_555
C13 C12 1_555 1_555
H7 C13 1_555 1_555
C14 C13 1_555 1_555
H8 C14 1_555 1_555
C15 C10 1_555 1_555
H9 C15 1_555 1_555
C16 C1 1_555 1_555
C17 C16 1_555 1_555
H10 C17 1_555 1_555
C18 N3 1_555 1_555
H11 C18 1_555 1_555
H12 C18 1_555 1_555
C19 N3 1_555 1_555
H13 C19 1_555 1_555
H14 C19 1_555 1_555
H15 C19 1_555 1_555
C20 C16 1_555 1_555
C21 C20 1_555 1_555
C22 N4 1_555 1_555
H16 C22 1_555 1_555
C23 N4 1_555 1_555
C24 C21 1_555 1_555
C25 C24 1_555 1_555
H17 C25 1_555 1_555
C26 C25 1_555 1_555
H18 C26 1_555 1_555
C27 C26 1_555 1_555
H19 C27 1_555 1_555
C28 C23 1_555 1_555
H20 C28 1_555 1_555
C29 C17 1_555 1_555
C30 C29 1_555 1_555
H21 C30 1_555 1_555
C31 C30 1_555 1_555
H22 C31 1_555 1_555
C32 N5 1_555 1_555
C33 C32 1_555 1_555
H23 C33 1_555 1_555
C34 C29 1_555 1_555
H24 C34 1_555 1_555
C35 C16 1_555 1_555
C6 C7 1_555 1_555
C8 C9 1_555 1_555
C10 C11 1_555 1_555
C14 C15 1_555 1_555
C17 C18 1_555 1_555
C21 C22 1_555 1_555
C23 C24 1_555 1_555
C27 C28 1_555 1_555
C31 C32 1_555 1_555
C33 C34 1_555 1_555

#END
