
#######################################################################
#
#                 Cambridge Crystallographic Data Centre
#                                CCDC 
#
#######################################################################
#
# If this CIF has been generated from an entry in the Cambridge 
# Structural Database, then it will include bibliographic, chemical, 
# crystal, experimental, refinement or atomic coordinate data resulting 
# from the CCDC's data processing and validation procedures.
#
#######################################################################

data_ZEVBIO
_chemical_formula_moiety         'C25 H22 O5'
_chemical_name_systematic        
4b-hydroxy-7,9-dimethoxy-10-(2-methylphenyl)-10,10a-dihydrobenzo[b]indeno[2,1-e]pyran-11(4bH)-one
_symmetry_cell_setting           monoclinic
_symmetry_space_group_name_H-M   'P 21/n'
_symmetry_Int_Tables_number      14
_space_group_name_Hall           '-P 2yn'
loop_
_symmetry_equiv_pos_site_id
_symmetry_equiv_pos_as_xyz
1 x,y,z
2 1/2-x,1/2+y,1/2-z
3 -x,-y,-z
4 1/2+x,1/2-y,1/2+z
_cell_length_a                   8.6534(11)
_cell_length_b                   20.771(3)
_cell_length_c                   11.3478(14)
_cell_angle_alpha                90
_cell_angle_beta                 93.146(2)
_cell_angle_gamma                90
_cell_volume                     2036.58
_exptl_crystal_colour            colorless
_exptl_crystal_description       Block
_cell_formula_units_Z            4
loop_
_atom_site_label
_atom_site_type_symbol
_atom_site_fract_x
_atom_site_fract_y
_atom_site_fract_z
C1 C 1.07565(16) 0.10839(7) -0.00441(12)
C2 C 1.1303(2) 0.14177(9) -0.09910(14)
H1 H 1.0654 0.1684 -0.1454
C3 C 1.2841(2) 0.13435(11) -0.12263(17)
H2 H 1.3232 0.1565 -0.1858
C4 C 1.3815(2) 0.09478(10) -0.05440(18)
H3 H 1.4847 0.0908 -0.0722
C5 C 1.32769(19) 0.06132(9) 0.03925(16)
H4 H 1.3927 0.0345 0.0850
C6 C 1.17268(16) 0.06886(7) 0.06366(12)
C7 C 1.08836(17) 0.04264(7) 0.16218(12)
C8 C 0.92496(16) 0.07077(6) 0.15589(11)
H5 H 0.8500(18) 0.0351(8) 0.1444(14)
C9 C 0.91630(15) 0.11322(6) 0.04424(11)
C10 C 0.89677(15) 0.10654(6) 0.27321(11)
H6 H 0.9494(18) 0.0798(8) 0.3356(14)
C11 C 0.72638(16) 0.10863(7) 0.30018(11)
C12 C 0.63980(18) 0.16440(8) 0.28493(15)
H7 H 0.6873 0.2014 0.2584
C13 C 0.4845(2) 0.16652(10) 0.30810(18)
H8 H 0.4289 0.2046 0.2976
C14 C 0.4132(2) 0.11192(10) 0.34678(17)
H9 H 0.3085 0.1126 0.3614
C15 C 0.4980(2) 0.05635(9) 0.36367(16)
H10 H 0.4490 0.0197 0.3902
C16 C 0.65465(19) 0.05327(8) 0.34240(13)
C17 C 0.7429(2) -0.00800(9) 0.3691(2)
H11 H 0.8176 -0.0007 0.4334
H12 H 0.7951 -0.0211 0.3006
H13 H 0.6722 -0.0411 0.3903
C18 C 0.97469(15) 0.17146(6) 0.26874(11)
C19 C 0.97325(15) 0.20500(6) 0.16409(11)
C20 C 1.04979(16) 0.26302(6) 0.14998(12)
H14 H 1.0474 0.2840 0.0775
C21 C 1.12965(16) 0.28835(6) 0.24807(12)
C22 C 1.13014(16) 0.25775(7) 0.35755(12)
H15 H 1.1816 0.2760 0.4234
C23 C 1.05291(16) 0.19984(7) 0.36661(12)
C24 C 1.1169(3) 0.19260(13) 0.57289(16)
H16 H 1.2253 0.1991 0.5628
H17 H 1.1041 0.1639 0.6380
H18 H 1.0690 0.2332 0.5885
C25 C 1.2183(3) 0.37721(9) 0.13593(16)
H19 H 1.2618 0.3496 0.0786
H20 H 1.2804 0.4153 0.1457
H21 H 1.1149 0.3890 0.1094
O1 O 1.13809(15) 0.00659(6) 0.23849(11)
O2 O 0.79487(11) 0.09286(5) -0.03128(8)
H22 H 0.798(2) 0.1132(8) -0.0960(13)
O3 O 0.88734(11) 0.18061(4) 0.06764(8)
O4 O 1.21496(14) 0.34418(5) 0.24612(10)
O5 O 1.04698(14) 0.16558(6) 0.46902(9)
loop_
_geom_bond_atom_site_label_1
_geom_bond_atom_site_label_2
_geom_bond_site_symmetry_1
_geom_bond_site_symmetry_2
C1 C2 1_555 1_555
C2 H1 1_555 1_555
C3 C2 1_555 1_555
H2 C3 1_555 1_555
C4 C3 1_555 1_555
H3 C4 1_555 1_555
C5 C4 1_555 1_555
H4 C5 1_555 1_555
C6 C1 1_555 1_555
C7 C6 1_555 1_555
C8 C7 1_555 1_555
H5 C8 1_555 1_555
C9 C1 1_555 1_555
C10 C8 1_555 1_555
H6 C10 1_555 1_555
C11 C10 1_555 1_555
C12 C11 1_555 1_555
H7 C12 1_555 1_555
C13 C12 1_555 1_555
H8 C13 1_555 1_555
C14 C13 1_555 1_555
H9 C14 1_555 1_555
C15 C14 1_555 1_555
H10 C15 1_555 1_555
C16 C11 1_555 1_555
C17 C16 1_555 1_555
H11 C17 1_555 1_555
H12 C17 1_555 1_555
H13 C17 1_555 1_555
C18 C10 1_555 1_555
C19 C18 1_555 1_555
C20 C19 1_555 1_555
H14 C20 1_555 1_555
C21 C20 1_555 1_555
C22 C21 1_555 1_555
H15 C22 1_555 1_555
C23 C18 1_555 1_555
C24 H16 1_555 1_555
H17 C24 1_555 1_555
H18 C24 1_555 1_555
C25 H19 1_555 1_555
H20 C25 1_555 1_555
H21 C25 1_555 1_555
O1 C7 1_555 1_555
O2 C9 1_555 1_555
H22 O2 1_555 1_555
O3 C9 1_555 1_555
O4 C21 1_555 1_555
O5 C23 1_555 1_555
C5 C6 1_555 1_555
C8 C9 1_555 1_555
C15 C16 1_555 1_555
C19 O3 1_555 1_555
C22 C23 1_555 1_555
C24 O5 1_555 1_555
C25 O4 1_555 1_555

#END
