
#######################################################################
#
#                 Cambridge Crystallographic Data Centre
#                                CCDC 
#
#######################################################################
#
# If this CIF has been generated from an entry in the Cambridge 
# Structural Database, then it will include bibliographic, chemical, 
# crystal, experimental, refinement or atomic coordinate data resulting 
# from the CCDC's data processing and validation procedures.
#
#######################################################################

data_ZEVDUZ
_chemical_name_common            
(1alpha,2beta,6alpha,11R*)-2,14-Carboxy-1-hydroxy-6,13-benzoyloxy-9-oxo-(7betaH)-5,11-epoxy-8-eudesmene
_chemical_formula_moiety         'C22 H22 O7'
_chemical_name_systematic        
2,11-Epoxy-3,11-dimethyl-6-hydroxy-14-phenyl-13,15-dioxa-tricyclo(8.5.0.0^2,7^)pentadec-3-en-8-one-7,5-carbolactone
_symmetry_cell_setting           monoclinic
_symmetry_space_group_name_H-M   'P 21'
_symmetry_Int_Tables_number      4
_space_group_name_Hall           'P 2yb'
loop_
_symmetry_equiv_pos_site_id
_symmetry_equiv_pos_as_xyz
1 x,y,z
2 -x,1/2+y,-z
_cell_length_a                   8.744(2)
_cell_length_b                   9.658(2)
_cell_length_c                   22.430(4)
_cell_angle_alpha                90
_cell_angle_beta                 93.76(3)
_cell_angle_gamma                90
_cell_volume                     1890.13
_exptl_crystal_colour            yellow
_chemical_melting_point          236deg.C(dec.)
_cell_formula_units_Z            4
loop_
_atom_site_label
_atom_site_type_symbol
_atom_site_fract_x
_atom_site_fract_y
_atom_site_fract_z
O1 O 0.2324(11) 0.96(14) 0.5789(4)
O2 O 0.2331(12) 1.09(14) 0.6658(5)
O3 O 0.0840(13) 0.84(14) 0.6909(4)
C1 C 0.0837(20) 1.08(14) 0.6892(7)
C2 C 0.1327(16) 0.76(14) 0.6383(5)
C3 C -0.0326(18) 0.94(14) 0.6050(8)
C4 C 0.2941(18) 0.71(14) 0.6515(7)
C5 C 0.1026(16) 0.87(14) 0.5882(6)
C6 C -0.0073(20) 0.96(14) 0.6750(6)
O4 O -0.0686(15) 0.43(14) 0.6724(6)
O5 O 0.1438(17) 0.46(14) 0.5853(7)
C7 C -0.1709(20) 0.83(14) 0.5939(8)
C8 C 0.3182(21) 0.57(14) 0.6577(8)
C9 C 0.2367(18) 1.09(14) 0.6032(6)
O6 O -0.2485(15) 0.63(14) 0.6414(7)
O7 O -0.0085(17) 0.58(14) 0.5256(6)
C10 C 0.0209(17) 0.64(14) 0.6269(7)
C11 C 0.3835(21) 1.15(14) 0.5863(8)
C12 C 0.4182(18) 0.81(14) 0.6683(7)
C13 C 0.4276(24) 1.14(14) 0.5307(8)
C14 C 0.4908(22) 1.21(14) 0.6251(9)
C15 C -0.1514(19) 0.96(14) 0.7057(8)
C16 C 0.5605(24) 1.19(14) 0.5103(9)
C17 C 0.0348(33) 0.53(14) 0.6736(9)
C18 C -0.1494(25) 0.69(14) 0.6259(8)
C19 C 0.0466(21) 0.56(14) 0.5734(9)
C20 C 0.1906(21) 0.47(14) 0.6483(8)
C21 C 0.6556(30) 1.26(14) 0.5512(12)
C22 C 0.6304(23) 1.26(14) 0.6085(12)
loop_
_geom_bond_atom_site_label_1
_geom_bond_atom_site_label_2
_geom_bond_site_symmetry_1
_geom_bond_site_symmetry_2
O1 C5 1_555 1_555
O2 C1 1_555 1_555
O3 C2 1_555 1_555
C1 C6 1_555 1_555
C2 C4 1_555 1_555
C3 C5 1_555 1_555
C4 C8 1_555 1_555
C5 C2 1_555 1_555
C6 O3 1_555 1_555
O4 C17 1_555 1_555
O5 C19 1_555 1_555
C7 C3 1_555 1_555
C8 C20 1_555 1_555
C9 O1 1_555 1_555
O6 C18 1_555 1_555
O7 C19 1_555 1_555
C10 C2 1_555 1_555
C11 C9 1_555 1_555
C12 C4 1_555 1_555
C13 C11 1_555 1_555
C14 C11 1_555 1_555
C15 C6 1_555 1_555
C16 C13 1_555 1_555
C17 C10 1_555 1_555
C18 C7 1_555 1_555
C19 C10 1_555 1_555
C20 O5 1_555 1_555
C21 C16 1_555 1_555
C22 C14 1_555 1_555
O2 C9 1_555 1_555
C3 C6 1_555 1_555
C10 C18 1_555 1_555
C17 C20 1_555 1_555
C21 C22 1_555 1_555

#END
