
#######################################################################
#
#                 Cambridge Crystallographic Data Centre
#                                CCDC 
#
#######################################################################
#
# If this CIF has been generated from an entry in the Cambridge 
# Structural Database, then it will include bibliographic, chemical, 
# crystal, experimental, refinement or atomic coordinate data resulting 
# from the CCDC's data processing and validation procedures.
#
#######################################################################

data_ZEVHIR
_chemical_formula_moiety         'C24 H43 N5 O7'
_chemical_name_systematic        
'Acetyl-(S)-isovalyl-tetrakis(\a-aminoisobutyryl) methyl ester'
_symmetry_cell_setting           triclinic
_symmetry_space_group_name_H-M   'P 1'
_symmetry_Int_Tables_number      1
_space_group_name_Hall           'P 1'
loop_
_symmetry_equiv_pos_site_id
_symmetry_equiv_pos_as_xyz
1 x,y,z
_cell_length_a                   8.417(1)
_cell_length_b                   11.758(2)
_cell_length_c                   8.211(1)
_cell_angle_alpha                90.7(2)
_cell_angle_beta                 116.2(2)
_cell_angle_gamma                85.5(2)
_cell_volume                     726.653
_exptl_crystal_colour            colorless
_chemical_melting_point          275-277deg.C
_cell_formula_units_Z            1
loop_
_atom_site_label
_atom_site_type_symbol
_atom_site_fract_x
_atom_site_fract_y
_atom_site_fract_z
O1 O -0.153620 -0.739520 -0.067210
O2 O -0.5044(4) -0.8820(2) -0.3843(4)
O3 O -0.5670(4) -1.0191(2) -0.0020(4)
O4 O -0.1916(3) -1.2235(2) 0.0396(4)
O5 O -0.5117(4) -1.3855(2) -0.3105(4)
O6 O -0.8219(4) -1.4919(3) -0.2461(4)
O7 O -0.8921(3) -1.3298(2) -0.4103(3)
N1 N -0.3461(4) -0.6069(2) -0.2700(4)
N2 N -0.5610(4) -0.7521(2) -0.2076(4)
N3 N -0.3347(4) -0.9254(2) 0.0171(4)
N4 N -0.3563(4) -1.1074(2) -0.2020(4)
N5 N -0.5917(4) -1.2456(2) -0.1653(4)
C1 C -0.1087(6) -0.5441(4) 0.0036(7)
C2 C -0.2040(5) -0.6389(3) -0.1123(6)
C3 C -0.4390(5) -0.6891(3) -0.4096(5)
C4 C -0.6081(6) -0.6243(3) -0.5552(6)
C5 C -0.3200(5) -0.7441(3) -0.4927(6)
C6 C -0.2390(7) -0.6590(4) -0.5663(7)
C7 C -0.5030(5) -0.7837(3) -0.3325(5)
C8 C -0.6386(5) -0.8298(3) -0.1300(5)
C9 C -0.8117(6) -0.8711(4) -0.2768(7)
C10 C -0.6769(7) -0.7629(4) 0.0125(7)
C11 C -0.5084(5) -0.9335(3) -0.0323(5)
C12 C -0.2002(5) -1.0227(3) 0.0984(5)
C13 C -0.0249(5) -0.9868(3) 0.1086(6)
C14 C -0.1784(7) -1.0532(4) 0.2901(6)
C15 C -0.2500(5) -1.1278(3) -0.0233(5)
C16 C -0.4229(5) -1.1994(3) -0.3310(5)
C17 C -0.5734(5) -1.1458(4) -0.5083(5)
C18 C -0.2760(6) -1.2595(4) -0.3694(6)
C19 C -0.5083(5) -1.2859(3) -0.2633(5)
C20 C -0.6844(5) -1.3209(3) -0.1015(5)
C21 C -0.5511(6) -1.4001(4) 0.0526(6)
C22 C -0.8026(6) -1.2443(4) -0.0394(6)
C23 C -0.8029(5) -1.3928(3) -0.2589(6)
C24 C -1.0013(6) -1.3891(4) -0.5721(6)
H1 H -0.385530 -0.517610 -0.297670
H2 H -0.553160 -0.666020 -0.167340
H3 H -0.292410 -0.843800 -0.005710
H4 H -0.396180 -1.020690 -0.252530
H5 H -0.591420 -1.156030 -0.137800
H6 H -0.082360 -0.559170 0.139180
H7 H 0.014960 -0.541480 -0.009100
H8 H -0.164000 -0.463360 -0.028300
H9 H -0.678260 -0.683390 -0.661760
H10 H -0.688200 -0.593720 -0.492190
H11 H -0.571310 -0.555530 -0.613630
H12 H -0.404420 -0.796360 -0.606410
H13 H -0.216920 -0.798330 -0.393270
H14 H -0.160410 -0.704470 -0.627360
H15 H -0.343770 -0.604570 -0.674510
H16 H -0.156270 -0.606540 -0.461380
H17 H -0.867220 -0.929880 -0.214620
H18 H -0.911020 -0.802220 -0.343100
H19 H -0.787940 -0.919680 -0.379630
H20 H -0.736720 -0.813870 0.069960
H21 H -0.558000 -0.730660 0.110800
H22 H -0.772120 -0.687850 -0.059900
H23 H 0.080920 -1.055980 0.169000
H24 H -0.039730 -0.968800 -0.027220
H25 H 0.015880 -0.912330 0.189480
H26 H -0.075000 -1.121240 0.347240
H27 H -0.142080 -0.978540 0.370690
H28 H -0.292230 -1.077020 0.277890
H29 H -0.637790 -1.208690 -0.607020
H30 H -0.668760 -1.090370 -0.487040
H31 H -0.498060 -1.105750 -0.539540
H32 H -0.227810 -1.199690 -0.435690
H33 H -0.172340 -1.298010 -0.254560
H34 H -0.327300 -1.312650 -0.453590
H35 H -0.622140 -1.450630 0.104070
H36 H -0.471180 -1.453490 0.008230
H37 H -0.470400 -1.360810 0.157200
H38 H -0.872430 -1.301530 0.014850
H39 H -0.722700 -1.194230 0.073790
H40 H -0.900450 -1.194220 -0.145960
H41 H -1.071750 -1.330360 -0.678950
H42 H -0.922070 -1.453100 -0.598080
H43 H -1.097800 -1.430690 -0.536420
loop_
_geom_bond_atom_site_label_1
_geom_bond_atom_site_label_2
_geom_bond_site_symmetry_1
_geom_bond_site_symmetry_2
O1 C2 1_555 1_555
O2 C7 1_555 1_555
O3 C11 1_555 1_555
O4 C15 1_555 1_555
O5 C19 1_555 1_555
O6 C23 1_555 1_555
O7 C23 1_555 1_555
N1 C2 1_555 1_555
N2 C7 1_555 1_555
N3 C11 1_555 1_555
N4 C15 1_555 1_555
N5 C19 1_555 1_555
C1 C2 1_555 1_555
C3 N1 1_555 1_555
C4 C3 1_555 1_555
C5 C3 1_555 1_555
C6 C5 1_555 1_555
C7 C3 1_555 1_555
C8 N2 1_555 1_555
C9 C8 1_555 1_555
C10 C8 1_555 1_555
C11 C8 1_555 1_555
C12 N3 1_555 1_555
C13 C12 1_555 1_555
C14 C12 1_555 1_555
C15 C12 1_555 1_555
C16 N4 1_555 1_555
C17 C16 1_555 1_555
C18 C16 1_555 1_555
C19 C16 1_555 1_555
C20 N5 1_555 1_555
C21 C20 1_555 1_555
C22 C20 1_555 1_555
C23 C20 1_555 1_555
C24 O7 1_555 1_555
H1 N1 1_555 1_555
H2 N2 1_555 1_555
H3 N3 1_555 1_555
H4 N4 1_555 1_555
H5 N5 1_555 1_555
H6 C1 1_555 1_555
H7 C1 1_555 1_555
H8 C1 1_555 1_555
H9 C4 1_555 1_555
H10 C4 1_555 1_555
H11 C4 1_555 1_555
H12 C5 1_555 1_555
H13 C5 1_555 1_555
H14 C6 1_555 1_555
H15 C6 1_555 1_555
H16 C6 1_555 1_555
H17 C9 1_555 1_555
H18 C9 1_555 1_555
H19 C9 1_555 1_555
H20 C10 1_555 1_555
H21 C10 1_555 1_555
H22 C10 1_555 1_555
H23 C13 1_555 1_555
H24 C13 1_555 1_555
H25 C13 1_555 1_555
H26 C14 1_555 1_555
H27 C14 1_555 1_555
H28 C14 1_555 1_555
H29 C17 1_555 1_555
H30 C17 1_555 1_555
H31 C17 1_555 1_555
H32 C18 1_555 1_555
H33 C18 1_555 1_555
H34 C18 1_555 1_555
H35 C21 1_555 1_555
H36 C21 1_555 1_555
H37 C21 1_555 1_555
H38 C22 1_555 1_555
H39 C22 1_555 1_555
H40 C22 1_555 1_555
H41 C24 1_555 1_555
H42 C24 1_555 1_555
H43 C24 1_555 1_555

#END
