
#######################################################################
#
#                 Cambridge Crystallographic Data Centre
#                                CCDC 
#
#######################################################################
#
# If this CIF has been generated from an entry in the Cambridge 
# Structural Database, then it will include bibliographic, chemical, 
# crystal, experimental, refinement or atomic coordinate data resulting 
# from the CCDC's data processing and validation procedures.
#
#######################################################################

data_ZEVJAL
_chemical_formula_moiety         'C30 H47 N5 O8'
_chemical_name_systematic        
'Benzyloxycarbonyl-(S)-isovalyl-tetrakis(\a-aminoisobutyryl) methyl ester'
_symmetry_cell_setting           monoclinic
_symmetry_space_group_name_H-M   'P 21'
_symmetry_Int_Tables_number      4
_space_group_name_Hall           'P 2yb'
loop_
_symmetry_equiv_pos_site_id
_symmetry_equiv_pos_as_xyz
1 x,y,z
2 -x,1/2+y,-z
_cell_length_a                   8.839(1)
_cell_length_b                   16.675(2)
_cell_length_c                   11.521(2)
_cell_angle_alpha                90
_cell_angle_beta                 90.4(1)
_cell_angle_gamma                90
_cell_volume                     1698.04
_exptl_crystal_colour            colorless
_chemical_melting_point          248-249deg.C
_cell_formula_units_Z            2
loop_
_atom_site_label
_atom_site_type_symbol
_atom_site_fract_x
_atom_site_fract_y
_atom_site_fract_z
O1 O -0.9304(4) -0.0155(3) 0.1137(3)
O2 O -0.6387(5) 0.0902(3) -0.0458(3)
O3 O -0.5140(4) -0.0861(3) -0.1814(3)
O4 O -0.8256(4) -0.0802(3) -0.3838(3)
O5 O -0.6340(4) 0.0690(3) -0.5534(3)
O6 O -0.3458(5) 0.000000 -0.6781(4)
O7 O -0.2937(5) 0.0889(3) -0.5363(3)
O8 O -0.9360(5) -0.0324(3) 0.3074(3)
N1 N -0.7972(5) 0.0663(3) 0.2357(4)
N2 N -0.5829(5) 0.0005(3) 0.0948(3)
N3 N -0.7311(5) -0.0790(3) -0.0813(3)
N4 N -0.7667(5) 0.0251(3) -0.2690(3)
N5 N -0.5132(5) 0.0088(3) -0.4051(3)
C1 C -1.0228(7) -0.1045(5) 0.2908(7)
C2 C -0.8915(7) 0.0050(5) 0.2103(5)
C3 C -0.7336(7) 0.1178(4) 0.1450(5)
C4 C -0.8604(9) 0.1660(5) 0.0836(6)
C5 C -0.6147(9) 0.1743(4) 0.2009(6)
C6 C -0.680(1) 0.2355(5) 0.2865(8)
C7 C -0.6498(6) 0.0686(4) 0.0556(4)
C8 C -0.4927(6) -0.0508(4) 0.0197(5)
C9 C -0.3425(7) -0.0129(6) -0.0083(6)
C10 C -0.4674(7) -0.1285(5) 0.0874(5)
C11 C -0.5800(6) -0.0720(3) -0.0902(4)
C12 C -0.8292(6) -0.1038(4) -0.1785(4)
C13 C -0.9921(6) -0.0904(4) -0.1419(4)
C14 C -0.8018(8) -0.1920(4) -0.2068(6)
C15 C -0.8042(6) -0.0526(4) -0.2874(4)
C16 C -0.7471(6) 0.0811(4) -0.3652(4)
C17 C -0.9004(6) 0.0955(5) -0.4291(5)
C18 C -0.6914(8) 0.1606(4) -0.3134(5)
C19 C -0.6296(6) 0.0512(4) -0.4500(3)
C20 C -0.4042(6) -0.0333(4) -0.4791(4)
C21 C -0.4758(8) -0.1097(4) -0.5305(6)
C22 C -0.2674(6) -0.0538(4) -0.4029(5)
C23 C -0.3500(6) 0.0203(4) -0.5786(5)
C24 C -0.2255(9) 0.1419(5) -0.6208(7)
C25 C -0.9261(5) -0.1760(3) 0.2693(4)
C26 C -0.8212(5) -0.1999(3) 0.3535(4)
C27 C -0.7301(5) -0.2668(3) 0.3344(4)
C28 C -0.7438(5) -0.3099(3) 0.2310(4)
C29 C -0.8486(5) -0.2860(3) 0.1468(4)
C30 C -0.9398(5) -0.2191(3) 0.1659(4)
H1 H -0.7678(5) 0.0777(3) 0.3253(4)
H2 H -0.5968(5) -0.0162(3) 0.1847(3)
H3 H -0.7828(5) -0.0657(3) 0.0012(3)
H4 H -0.7512(5) 0.0461(3) -0.1810(3)
H5 H -0.4996(5) 0.0057(3) -0.3120(3)
H6 H -1.0890(7) -0.1152(5) 0.3677(7)
H7 H -1.0975(7) -0.0963(5) 0.2172(7)
H8 H -0.9215(9) 0.2015(5) 0.1462(6)
H9 H -0.9374(9) 0.1253(5) 0.0406(6)
H10 H -0.8096(9) 0.2052(5) 0.0202(6)
H11 H -0.5591(9) 0.2068(4) 0.1323(6)
H12 H -0.5328(9) 0.1379(4) 0.2469(6)
H13 H -0.590(1) 0.2722(5) 0.3211(8)
H14 H -0.735(1) 0.2042(5) 0.3566(8)
H15 H -0.761(1) 0.2730(5) 0.2421(8)
H16 H -0.2790(7) -0.0525(6) -0.0639(6)
H17 H -0.2797(7) -0.0026(6) 0.0711(6)
H18 H -0.3612(7) 0.0435(6) -0.0521(6)
H19 H -0.4008(7) -0.1694(5) 0.0360(5)
H20 H -0.5753(7) -0.1557(5) 0.1066(5)
H21 H -0.4082(7) -0.1154(5) 0.1675(5)
H22 H -1.0672(6) -0.1081(4) -0.2117(4)
H23 H -1.0093(6) -0.0278(4) -0.1223(4)
H24 H -1.0156(6) -0.1260(4) -0.0658(4)
H25 H -0.8741(8) -0.2098(4) -0.2782(6)
H26 H -0.8270(8) -0.2281(4) -0.1316(6)
H27 H -0.6849(8) -0.2005(4) -0.2305(6)
H28 H -0.8840(6) 0.1370(5) -0.4999(5)
H29 H -0.9811(6) 0.1202(5) -0.3689(5)
H30 H -0.9427(6) 0.0393(5) -0.4627(5)
H31 H -0.6753(8) 0.2037(4) -0.3822(5)
H32 H -0.5853(8) 0.1510(4) -0.2683(5)
H33 H -0.7743(8) 0.1831(4) -0.2532(5)
H34 H -0.3945(8) -0.1399(4) -0.5846(6)
H35 H -0.5739(8) -0.0937(4) -0.5819(6)
H36 H -0.5095(8) -0.1491(4) -0.4609(6)
H37 H -0.1840(6) -0.0850(4) -0.4542(5)
H38 H -0.3027(6) -0.0917(4) -0.3321(5)
H39 H -0.2187(6) 0.0007(4) -0.3687(5)
H40 H -0.1843(9) 0.1952(5) -0.5777(7)
H41 H -0.3089(9) 0.1585(5) -0.6855(7)
H42 H -0.1325(9) 0.1116(5) -0.6623(7)
H43 H -0.806590 -0.166410 0.432620
H44 H -0.644380 -0.284780 0.397280
H45 H -0.670100 -0.360980 0.213850
H46 H -0.858030 -0.318810 0.065750
H47 H -1.020240 -0.200440 0.101090
loop_
_geom_bond_atom_site_label_1
_geom_bond_atom_site_label_2
_geom_bond_site_symmetry_1
_geom_bond_site_symmetry_2
O1 C2 1_555 1_555
O2 C7 1_555 1_555
O3 C11 1_555 1_555
O4 C15 1_555 1_555
O5 C19 1_555 1_555
O6 C23 1_555 1_555
O7 C23 1_555 1_555
O8 C1 1_555 1_555
N1 C2 1_555 1_555
N2 C7 1_555 1_555
N3 C11 1_555 1_555
N4 C15 1_555 1_555
N5 C19 1_555 1_555
C1 C25 1_555 1_555
C2 O8 1_555 1_555
C3 N1 1_555 1_555
C4 C3 1_555 1_555
C5 C3 1_555 1_555
C6 C5 1_555 1_555
C7 C3 1_555 1_555
C8 N2 1_555 1_555
C9 C8 1_555 1_555
C10 C8 1_555 1_555
C11 C8 1_555 1_555
C12 N3 1_555 1_555
C13 C12 1_555 1_555
C14 C12 1_555 1_555
C15 C12 1_555 1_555
C16 N4 1_555 1_555
C17 C16 1_555 1_555
C18 C16 1_555 1_555
C19 C16 1_555 1_555
C20 N5 1_555 1_555
C21 C20 1_555 1_555
C22 C20 1_555 1_555
C23 C20 1_555 1_555
C24 O7 1_555 1_555
C25 C26 1_555 1_555
C26 C27 1_555 1_555
C27 C28 1_555 1_555
C28 C29 1_555 1_555
C29 C30 1_555 1_555
C30 C25 1_555 1_555
H1 N1 1_555 1_555
H2 N2 1_555 1_555
H3 N3 1_555 1_555
H4 N4 1_555 1_555
H5 N5 1_555 1_555
H6 C1 1_555 1_555
H7 C1 1_555 1_555
H8 C4 1_555 1_555
H9 C4 1_555 1_555
H10 C4 1_555 1_555
H11 C5 1_555 1_555
H12 C5 1_555 1_555
H13 C6 1_555 1_555
H14 C6 1_555 1_555
H15 C6 1_555 1_555
H16 C9 1_555 1_555
H17 C9 1_555 1_555
H18 C9 1_555 1_555
H19 C10 1_555 1_555
H20 C10 1_555 1_555
H21 C10 1_555 1_555
H22 C13 1_555 1_555
H23 C13 1_555 1_555
H24 C13 1_555 1_555
H25 C14 1_555 1_555
H26 C14 1_555 1_555
H27 C14 1_555 1_555
H28 C17 1_555 1_555
H29 C17 1_555 1_555
H30 C17 1_555 1_555
H31 C18 1_555 1_555
H32 C18 1_555 1_555
H33 C18 1_555 1_555
H34 C21 1_555 1_555
H35 C21 1_555 1_555
H36 C21 1_555 1_555
H37 C22 1_555 1_555
H38 C22 1_555 1_555
H39 C22 1_555 1_555
H40 C24 1_555 1_555
H41 C24 1_555 1_555
H42 C24 1_555 1_555
H43 C26 1_555 1_555
H44 C27 1_555 1_555
H45 C28 1_555 1_555
H46 C29 1_555 1_555
H47 C30 1_555 1_555

#END
