
#######################################################################
#
#                 Cambridge Crystallographic Data Centre
#                                CCDC 
#
#######################################################################
#
# If this CIF has been generated from an entry in the Cambridge 
# Structural Database, then it will include bibliographic, chemical, 
# crystal, experimental, refinement or atomic coordinate data resulting 
# from the CCDC's data processing and validation procedures.
#
#######################################################################

data_ZEVJIT
_chemical_formula_moiety         'C30 H47 N5 O8'
_chemical_name_systematic        
'Benzyloxycarbonyl-tris(\a-aminoisobutyryl)-(S)-isovalyl-(\a-aminoisobutyryl) methyl ester'
_symmetry_cell_setting           monoclinic
_symmetry_space_group_name_H-M   'P 21'
_symmetry_Int_Tables_number      4
_space_group_name_Hall           'P 2yb'
loop_
_symmetry_equiv_pos_site_id
_symmetry_equiv_pos_as_xyz
1 x,y,z
2 -x,1/2+y,-z
_cell_length_a                   17.199(2)
_cell_length_b                   11.332(2)
_cell_length_c                   8.655(2)
_cell_angle_alpha                90
_cell_angle_beta                 90.0(1)
_cell_angle_gamma                90
_cell_volume                     1686.85
_exptl_crystal_colour            colorless
_chemical_melting_point          221-223deg.C
_cell_formula_units_Z            2
loop_
_atom_site_label
_atom_site_type_symbol
_atom_site_fract_x
_atom_site_fract_y
_atom_site_fract_z
O1 O -0.2643(2) -0.762300 0.0250(4)
O2 O -0.1316(2) -0.9217(3) 0.2883(4)
O3 O -0.2993(2) -1.0574(3) 0.4758(3)
O4 O -0.3134(2) -1.2693(4) 0.1615(4)
O5 O -0.1772(2) -1.4488(3) 0.3405(4)
O6 O -0.2191(3) -1.5581(5) 0.6733(5)
O7 O -0.1303(2) -1.4145(4) 0.6746(4)
O8 O -0.2816(2) -0.5652(4) 0.0305(4)
N1 N -0.1746(2) -0.6363(4) 0.1308(4)
N2 N -0.2154(2) -0.7821(4) 0.3719(4)
N3 N -0.3035(2) -0.9593(4) 0.2488(4)
N4 N -0.2074(2) -1.1559(4) 0.2084(4)
N5 N -0.2224(2) -1.2915(4) 0.4724(4)
C1 C -0.3574(3) -0.5801(6) -0.0340(7)
C2 C -0.2412(3) -0.6643(6) 0.0591(6)
C3 C -0.1178(3) -0.7284(5) 0.1723(6)
C4 C -0.0529(3) -0.6672(6) 0.2625(7)
C5 C -0.0884(4) -0.7914(7) 0.0313(7)
C6 C -0.1555(3) -0.8208(6) 0.2820(5)
C7 C -0.2562(3) -0.8572(5) 0.4816(6)
C8 C -0.2046(4) -0.8905(7) 0.6147(6)
C9 C -0.3285(3) -0.7873(6) 0.5356(7)
C10 C -0.2867(3) -0.9666(6) 0.3996(6)
C11 C -0.3355(3) -1.0595(5) 0.1615(6)
C12 C -0.3301(4) -1.0261(6) -0.0129(6)
C13 C -0.4179(3) -1.0832(6) 0.2071(8)
C14 C -0.2825(3) -1.1718(6) 0.1797(5)
C15 C -0.1556(3) -1.2561(4) 0.2292(5)
C16 C -0.1415(3) -1.3211(5) 0.0756(6)
C17 C -0.0782(3) -1.2056(5) 0.2917(6)
C18 C -0.0198(3) -1.2974(6) 0.3405(6)
C19 C -0.1883(3) -1.3408(5) 0.3487(6)
C20 C -0.2577(3) -1.3641(5) 0.5941(5)
C21 C -0.3325(3) -1.4199(6) 0.5340(7)
C22 C -0.2736(3) -1.2818(6) 0.7288(6)
C23 C -0.2007(4) -1.4587(7) 0.6469(6)
C24 C -0.0737(4) -1.4988(6) 0.7263(8)
C25 C -0.4170(2) -0.5988(5) 0.0924(5)
C26 C -0.4381(2) -0.5043(5) 0.1867(5)
C27 C -0.4922(2) -0.5208(5) 0.3048(5)
C28 C -0.5252(2) -0.6318(5) 0.3286(5)
C29 C -0.5040(2) -0.7263(5) 0.2343(5)
C30 C -0.4499(2) -0.7099(5) 0.1162(5)
H1 H -0.1625(2) -0.5453(4) 0.1589(4)
H2 H -0.2334(2) -0.6912(4) 0.3613(4)
H3 H -0.2931(2) -0.8770(4) 0.1893(4)
H4 H -0.1845(2) -1.0674(4) 0.2166(4)
H5 H -0.2241(2) -1.1965(4) 0.4824(4)
H6 H -0.3725(3) -0.5023(6) -0.0995(7)
H7 H -0.3573(3) -0.6560(6) -0.1095(7)
H8 H -0.0096(3) -0.7315(6) 0.2954(7)
H9 H -0.0768(3) -0.6266(6) 0.3649(7)
H10 H -0.0263(3) -0.6004(6) 0.1908(7)
H11 H -0.0470(4) -0.8582(7) 0.0654(7)
H12 H -0.0604(4) -0.7288(7) -0.0445(7)
H13 H -0.1365(4) -0.8324(7) -0.0282(7)
H14 H -0.2365(4) -0.9462(7) 0.6938(6)
H15 H -0.1859(4) -0.8116(7) 0.6740(6)
H16 H -0.1545(4) -0.9376(7) 0.5720(6)
H17 H -0.3610(3) -0.8395(6) 0.6177(7)
H18 H -0.3648(3) -0.7675(6) 0.4372(7)
H19 H -0.3101(3) -0.7061(6) 0.5897(7)
H20 H -0.3531(4) -1.0973(6) -0.0821(6)
H21 H -0.2700(4) -1.0110(6) -0.0433(6)
H22 H -0.3633(4) -0.9469(6) -0.0340(6)
H23 H -0.4400(3) -1.1570(6) 0.1415(8)
H24 H -0.4528(3) -1.0061(6) 0.1840(8)
H25 H -0.4203(3) -1.1037(6) 0.3289(8)
H26 H -0.1029(3) -1.3947(5) 0.0949(6)
H27 H -0.1156(3) -1.2612(5) -0.0066(6)
H28 H -0.1963(3) -1.3530(5) 0.0309(6)
H29 H -0.0912(3) -1.1510(5) 0.3906(6)
H30 H -0.0523(3) -1.1523(5) 0.2021(6)
H31 H 0.0321(3) -1.2543(6) 0.3823(6)
H32 H -0.0053(3) -1.3525(6) 0.2428(6)
H33 H -0.0443(3) -1.3511(6) 0.4313(6)
H34 H -0.3583(3) -1.4734(6) 0.6236(7)
H35 H -0.3195(3) -1.4745(6) 0.4350(7)
H36 H -0.3727(3) -1.3512(6) 0.5006(7)
H37 H -0.2997(3) -1.3311(6) 0.8222(6)
H38 H -0.3128(3) -1.2128(6) 0.6924(6)
H39 H -0.2197(3) -1.2431(6) 0.7677(6)
H40 H -0.0188(4) -1.4549(6) 0.7456(8)
H41 H -0.0665(4) -1.5664(6) 0.6395(8)
H42 H -0.0933(4) -1.5386(6) 0.8328(8)
H43 H -0.413120 -0.417870 0.169960
H44 H -0.509400 -0.448480 0.378680
H45 H -0.567500 -0.645900 0.419100
H46 H -0.529330 -0.812700 0.250800
H47 H -0.433050 -0.782080 0.042080
loop_
_geom_bond_atom_site_label_1
_geom_bond_atom_site_label_2
_geom_bond_site_symmetry_1
_geom_bond_site_symmetry_2
O1 C2 1_555 1_555
O2 C6 1_555 1_555
O3 C10 1_555 1_555
O4 C14 1_555 1_555
O5 C19 1_555 1_555
O6 C23 1_555 1_555
O7 C23 1_555 1_555
O8 C1 1_555 1_555
N1 C2 1_555 1_555
N2 C6 1_555 1_555
N3 C10 1_555 1_555
N4 C14 1_555 1_555
N5 C19 1_555 1_555
C1 C25 1_555 1_555
C2 O8 1_555 1_555
C3 N1 1_555 1_555
C4 C3 1_555 1_555
C5 C3 1_555 1_555
C6 C3 1_555 1_555
C7 N2 1_555 1_555
C8 C7 1_555 1_555
C9 C7 1_555 1_555
C10 C7 1_555 1_555
C11 N3 1_555 1_555
C12 C11 1_555 1_555
C13 C11 1_555 1_555
C14 C11 1_555 1_555
C15 N4 1_555 1_555
C16 C15 1_555 1_555
C17 C15 1_555 1_555
C18 C17 1_555 1_555
C19 C15 1_555 1_555
C20 N5 1_555 1_555
C21 C20 1_555 1_555
C22 C20 1_555 1_555
C23 C20 1_555 1_555
C24 O7 1_555 1_555
C25 C26 1_555 1_555
C26 C27 1_555 1_555
C27 C28 1_555 1_555
C28 C29 1_555 1_555
C29 C30 1_555 1_555
C30 C25 1_555 1_555
H1 N1 1_555 1_555
H2 N2 1_555 1_555
H3 N3 1_555 1_555
H4 N4 1_555 1_555
H5 N5 1_555 1_555
H6 C1 1_555 1_555
H7 C1 1_555 1_555
H8 C4 1_555 1_555
H9 C4 1_555 1_555
H10 C4 1_555 1_555
H11 C5 1_555 1_555
H12 C5 1_555 1_555
H13 C5 1_555 1_555
H14 C8 1_555 1_555
H15 C8 1_555 1_555
H16 C8 1_555 1_555
H17 C9 1_555 1_555
H18 C9 1_555 1_555
H19 C9 1_555 1_555
H20 C12 1_555 1_555
H21 C12 1_555 1_555
H22 C12 1_555 1_555
H23 C13 1_555 1_555
H24 C13 1_555 1_555
H25 C13 1_555 1_555
H26 C16 1_555 1_555
H27 C16 1_555 1_555
H28 C16 1_555 1_555
H29 C17 1_555 1_555
H30 C17 1_555 1_555
H31 C18 1_555 1_555
H32 C18 1_555 1_555
H33 C18 1_555 1_555
H34 C21 1_555 1_555
H35 C21 1_555 1_555
H36 C21 1_555 1_555
H37 C22 1_555 1_555
H38 C22 1_555 1_555
H39 C22 1_555 1_555
H40 C24 1_555 1_555
H41 C24 1_555 1_555
H42 C24 1_555 1_555
H43 C26 1_555 1_555
H44 C27 1_555 1_555
H45 C28 1_555 1_555
H46 C29 1_555 1_555
H47 C30 1_555 1_555

#END
