
#######################################################################
#
#                 Cambridge Crystallographic Data Centre
#                                CCDC 
#
#######################################################################
#
# If this CIF has been generated from an entry in the Cambridge 
# Structural Database, then it will include bibliographic, chemical, 
# crystal, experimental, refinement or atomic coordinate data resulting 
# from the CCDC's data processing and validation procedures.
#
#######################################################################

data_ZEVJEP
_chemical_formula_moiety         'C30 H47 N5 O8'
_chemical_name_systematic        
'Benzyloxycarbonyl-(\a-aminoisobutyryl)-(S)-isovalyl-tris(\a-aminoisobutyryl) methyl ester'
_symmetry_cell_setting           monoclinic
_symmetry_space_group_name_H-M   'P 21'
_symmetry_Int_Tables_number      4
_space_group_name_Hall           'P 2yb'
loop_
_symmetry_equiv_pos_site_id
_symmetry_equiv_pos_as_xyz
1 x,y,z
2 -x,1/2+y,-z
_cell_length_a                   8.928(1)
_cell_length_b                   16.115(2)
_cell_length_c                   11.706(2)
_cell_angle_alpha                90
_cell_angle_beta                 91.20(1)
_cell_angle_gamma                90
_cell_volume                     1683.83
_exptl_crystal_colour            colorless
_chemical_melting_point          213-215deg.C
_cell_formula_units_Z            2
loop_
_atom_site_label
_atom_site_type_symbol
_atom_site_fract_x
_atom_site_fract_y
_atom_site_fract_z
O1 O -0.9204(5) 0.0014(4) 0.1141(4)
O2 O -0.6531(4) 0.1174(3) -0.0414(3)
O3 O -0.5097(4) -0.0742(3) -0.1805(3)
O4 O -0.8249(5) -0.0698(3) -0.3799(3)
O5 O -0.6194(4) 0.0825(4) -0.5504(3)
O6 O -0.3553(6) 0.000000 -0.6748(4)
O7 O -0.2819(5) 0.0890(4) -0.5366(4)
O8 O -0.9282(5) -0.0210(3) 0.3060(4)
N1 N -0.7807(7) 0.0801(4) 0.2430(5)
N2 N -0.5701(6) 0.0213(4) 0.0917(5)
N3 N -0.7263(5) -0.0609(3) -0.0821(4)
N4 N -0.7551(5) 0.0400(3) -0.2712(4)
N5 N -0.5075(4) 0.0134(3) -0.4053(4)
C1 C -1.0244(6) -0.0932(4) 0.2864(6)
C2 C -0.8770(8) 0.0184(5) 0.2104(6)
C3 C -0.7235(9) 0.1380(5) 0.1571(7)
C4 C -0.8545(8) 0.1917(5) 0.1081(6)
C5 C -0.6083(8) 0.1932(4) 0.2165(6)
C6 C -0.6455(8) 0.0908(5) 0.0586(6)
C7 C -0.4806(7) -0.0279(5) 0.0133(6)
C8 C -0.3434(6) 0.0261(5) -0.0245(6)
C9 C -0.4180(8) -0.1070(5) 0.0717(7)
C10 C -0.5289(8) -0.1658(6) 0.1054(7)
C11 C -0.5746(7) -0.0566(4) -0.0910(5)
C12 C -0.8249(8) -0.0903(5) -0.1759(6)
C13 C -0.9866(6) -0.0733(5) -0.1399(5)
C14 C -0.8004(7) -0.1831(4) -0.1977(6)
C15 C -0.7997(7) -0.0417(5) -0.2850(6)
C16 C -0.7329(8) 0.0989(5) -0.3653(6)
C17 C -0.8803(6) 0.1146(4) -0.4330(5)
C18 C -0.6713(7) 0.1792(4) -0.3186(6)
C19 C -0.6160(7) 0.0610(5) -0.4489(6)
C20 C -0.4062(9) -0.0380(6) -0.4786(7)
C21 C -0.4919(8) -0.1111(4) -0.5271(6)
C22 C -0.2669(6) -0.0612(5) -0.4024(5)
C23 C -0.3483(8) 0.0201(6) -0.5773(7)
C24 C -0.2110(8) 0.1419(5) -0.6212(7)
C25 C -0.935(1) -0.1719(6) 0.272(1)
C26 C -0.835(1) -0.1937(8) 0.3546(8)
C27 C -0.757(1) -0.2676(9) 0.343(1)
C28 C -0.781(1) -0.3148(7) 0.246(1)
C29 C -0.881(2) -0.2917(9) 0.164(1)
C30 C -0.962(1) -0.2181(9) 0.175(1)
H1 H -0.7465(7) 0.0864(4) 0.3316(5)
H2 H -0.5764(6) 0.0016(4) 0.1797(5)
H3 H -0.7761(5) -0.0418(3) -0.0030(4)
H4 H -0.7348(5) 0.0620(3) -0.1852(4)
H5 H -0.4912(4) 0.0114(3) -0.3136(4)
H6 H -1.0969(6) -0.1004(4) 0.3585(6)
H7 H -1.0915(6) -0.0830(4) 0.2098(6)
H8 H -0.8121(8) 0.2341(5) 0.0450(6)
H9 H -0.9044(8) 0.2264(5) 0.1764(6)
H10 H -0.9380(8) 0.1518(5) 0.0687(6)
H11 H -0.5638(8) 0.2367(4) 0.1557(6)
H12 H -0.5184(8) 0.1555(4) 0.2514(6)
H13 H -0.6609(8) 0.2268(4) 0.2847(6)
H14 H -0.2758(6) -0.0092(5) -0.0826(6)
H15 H -0.2765(6) 0.0431(5) 0.0498(6)
H16 H -0.3839(6) 0.0816(5) -0.0668(6)
H17 H -0.3547(8) -0.0884(5) 0.1470(7)
H18 H -0.3445(8) -0.1375(5) 0.0127(7)
H19 H -0.4745(8) -0.2186(6) 0.1452(7)
H20 H -0.5928(8) -0.1861(6) 0.0312(7)
H21 H -0.6029(8) -0.1370(6) 0.1654(7)
H22 H -1.0632(6) -0.0941(5) -0.2066(5)
H23 H -1.0014(6) -0.0075(5) -0.1263(5)
H24 H -1.0090(6) -0.1063(5) -0.0618(5)
H25 H -0.8741(7) -0.2032(4) -0.2666(6)
H26 H -0.8244(7) -0.2178(4) -0.1214(6)
H27 H -0.6854(7) -0.1934(4) -0.2208(6)
H28 H -0.8600(6) 0.1582(4) -0.5011(5)
H29 H -0.9630(6) 0.1399(4) -0.3766(5)
H30 H -0.9210(6) 0.0569(4) -0.4688(5)
H31 H -0.6555(7) 0.2222(4) -0.3880(6)
H32 H -0.5651(7) 0.1677(4) -0.2756(6)
H33 H -0.7489(7) 0.2053(4) -0.2588(6)
H34 H -0.4189(8) -0.1477(4) -0.5795(6)
H35 H -0.5858(8) -0.0892(4) -0.5783(6)
H36 H -0.5322(8) -0.1489(4) -0.4580(6)
H37 H -0.1905(6) -0.0982(5) -0.4514(5)
H38 H -0.3026(6) -0.0961(5) -0.3291(5)
H39 H -0.2111(6) -0.0051(5) -0.3740(5)
H40 H -0.1615(8) 0.1951(5) -0.5790(7)
H41 H -0.2942(8) 0.1624(5) -0.6832(7)
H42 H -0.1249(8) 0.1073(5) -0.6638(7)
H43 H -0.837630 -0.171840 0.447520
H44 H -0.690380 -0.288120 0.414600
H45 H -0.740690 -0.373690 0.255140
H46 H -0.898930 -0.313770 0.088440
H47 H -1.029620 -0.197560 0.102670
loop_
_geom_bond_atom_site_label_1
_geom_bond_atom_site_label_2
_geom_bond_site_symmetry_1
_geom_bond_site_symmetry_2
O1 C2 1_555 1_555
O2 C6 1_555 1_555
O3 C11 1_555 1_555
O4 C15 1_555 1_555
O5 C19 1_555 1_555
O6 C23 1_555 1_555
O7 C23 1_555 1_555
O8 C1 1_555 1_555
N1 C2 1_555 1_555
N2 C6 1_555 1_555
N3 C11 1_555 1_555
N4 C15 1_555 1_555
N5 C19 1_555 1_555
C1 C25 1_555 1_555
C2 O8 1_555 1_555
C3 N1 1_555 1_555
C4 C3 1_555 1_555
C5 C3 1_555 1_555
C6 C3 1_555 1_555
C7 N2 1_555 1_555
C8 C7 1_555 1_555
C9 C7 1_555 1_555
C10 C9 1_555 1_555
C11 C7 1_555 1_555
C12 N3 1_555 1_555
C13 C12 1_555 1_555
C14 C12 1_555 1_555
C15 C12 1_555 1_555
C16 N4 1_555 1_555
C17 C16 1_555 1_555
C18 C16 1_555 1_555
C19 C16 1_555 1_555
C20 N5 1_555 1_555
C21 C20 1_555 1_555
C22 C20 1_555 1_555
C23 C20 1_555 1_555
C24 O7 1_555 1_555
C25 C26 1_555 1_555
C26 C27 1_555 1_555
C27 C28 1_555 1_555
C28 C29 1_555 1_555
C29 C30 1_555 1_555
C30 C25 1_555 1_555
H1 N1 1_555 1_555
H2 N2 1_555 1_555
H3 N3 1_555 1_555
H4 N4 1_555 1_555
H5 N5 1_555 1_555
H6 C1 1_555 1_555
H7 C1 1_555 1_555
H8 C4 1_555 1_555
H9 C4 1_555 1_555
H10 C4 1_555 1_555
H11 C5 1_555 1_555
H12 C5 1_555 1_555
H13 C5 1_555 1_555
H14 C8 1_555 1_555
H15 C8 1_555 1_555
H16 C8 1_555 1_555
H17 C9 1_555 1_555
H18 C9 1_555 1_555
H19 C10 1_555 1_555
H20 C10 1_555 1_555
H21 C10 1_555 1_555
H22 C13 1_555 1_555
H23 C13 1_555 1_555
H24 C13 1_555 1_555
H25 C14 1_555 1_555
H26 C14 1_555 1_555
H27 C14 1_555 1_555
H28 C17 1_555 1_555
H29 C17 1_555 1_555
H30 C17 1_555 1_555
H31 C18 1_555 1_555
H32 C18 1_555 1_555
H33 C18 1_555 1_555
H34 C21 1_555 1_555
H35 C21 1_555 1_555
H36 C21 1_555 1_555
H37 C22 1_555 1_555
H38 C22 1_555 1_555
H39 C22 1_555 1_555
H40 C24 1_555 1_555
H41 C24 1_555 1_555
H42 C24 1_555 1_555
H43 C26 1_555 1_555
H44 C27 1_555 1_555
H45 C28 1_555 1_555
H46 C29 1_555 1_555
H47 C30 1_555 1_555

#END
