
#######################################################################
#
#                 Cambridge Crystallographic Data Centre
#                                CCDC 
#
#######################################################################
#
# If this CIF has been generated from an entry in the Cambridge 
# Structural Database, then it will include bibliographic, chemical, 
# crystal, experimental, refinement or atomic coordinate data resulting 
# from the CCDC's data processing and validation procedures.
#
#######################################################################

data_ZEVLUK
_chemical_formula_moiety         'C18 H17 N1 O4'
_chemical_name_systematic        
'ethyl 9-cyano-2-hydroxy-2,8-dimethyl-2,3-dihydronaphtho[1,8-bc]pyran-7-carboxylate'
_symmetry_cell_setting           orthorhombic
_symmetry_space_group_name_H-M   'P b c n'
_symmetry_Int_Tables_number      60
_space_group_name_Hall           '-P 2n 2ab'
loop_
_symmetry_equiv_pos_site_id
_symmetry_equiv_pos_as_xyz
1 x,y,z
2 1/2-x,1/2-y,1/2+z
3 -x,y,1/2-z
4 1/2+x,1/2-y,-z
5 -x,-y,-z
6 1/2+x,1/2+y,1/2-z
7 x,-y,1/2+z
8 1/2-x,1/2+y,z
_cell_length_a                   17.413(3)
_cell_length_b                   9.5506(14)
_cell_length_c                   18.782(3)
_cell_angle_alpha                90
_cell_angle_beta                 90
_cell_angle_gamma                90
_cell_volume                     3123.53
_exptl_crystal_colour            colorless
_exptl_crystal_description       block
_cell_formula_units_Z            8
loop_
_atom_site_label
_atom_site_type_symbol
_atom_site_fract_x
_atom_site_fract_y
_atom_site_fract_z
O1 O 0.38738(9) 0.27915(19) 0.27383(9)
O2 O 0.34016(10) 0.3538(2) 0.16499(10)
H1 H 0.3813 0.3912 0.1514
O3 O 0.18628(13) 0.6601(2) 0.48324(12)
C1 C 0.33791(13) 0.3452(3) 0.31821(13)
N1 N 0.51365(13) 0.4863(3) 0.36541(14)
O4 O 0.16527(18) 0.4439(3) 0.52055(15)
C2 C 0.36843(14) 0.4339(3) 0.36929(13)
C3 C 0.25743(14) 0.3235(3) 0.31421(13)
C4 C 0.35680(15) 0.2340(3) 0.20440(13)
C5 C 0.32168(15) 0.4982(3) 0.42225(14)
C6 C 0.24408(16) 0.4747(3) 0.41896(14)
C7 C 0.44937(16) 0.4626(3) 0.36723(14)
C8 C 0.20996(15) 0.3922(3) 0.36410(14)
C9 C 0.22702(15) 0.2341(3) 0.26087(14)
C10 C 0.35970(18) 0.5847(3) 0.47977(15)
H2 H 0.4067 0.5377 0.4957
H3 H 0.3244 0.5952 0.5201
H4 H 0.3727 0.6773 0.4608
C11 C 0.42112(17) 0.1459(3) 0.17332(15)
H5 H 0.4684 0.2016 0.1714
H6 H 0.4071 0.1160 0.1251
H7 H 0.4294 0.0634 0.2033
C12 C 0.28257(16) 0.1552(3) 0.21497(15)
H8 H 0.2587 0.1373 0.1680
H9 H 0.2938 0.0635 0.2373
C13 C 0.19425(17) 0.5231(3) 0.47943(16)
C14 C 0.12955(16) 0.3749(4) 0.35696(17)
H10 H 0.0956 0.4201 0.3892
C15 C 0.14879(17) 0.2208(4) 0.25539(17)
H11 H 0.1269 0.1635 0.2194
C16 C 0.10106(17) 0.2931(4) 0.30371(19)
H12 H 0.0470 0.2843 0.2989
C17 C 0.1436(2) 0.7136(4) 0.5460(2)
H13 H 0.1566 0.6571 0.5886
H14 H 0.1583 0.8120 0.5555
C18 C 0.0612(2) 0.7050(5) 0.5320(2)
H15 H 0.0488 0.7599 0.4895
H16 H 0.0328 0.7423 0.5729
H17 H 0.0467 0.6070 0.5243
loop_
_geom_bond_atom_site_label_1
_geom_bond_atom_site_label_2
_geom_bond_site_symmetry_1
_geom_bond_site_symmetry_2
O1 C1 1_555 1_555
O2 H1 1_555 1_555
O3 C13 1_555 1_555
C1 C2 1_555 1_555
N1 C7 1_555 1_555
O4 C13 1_555 1_555
C2 C5 1_555 1_555
C3 C1 1_555 1_555
C4 O1 1_555 1_555
C5 C6 1_555 1_555
C6 C8 1_555 1_555
C7 C2 1_555 1_555
C8 C3 1_555 1_555
C9 C3 1_555 1_555
C10 C5 1_555 1_555
H2 C10 1_555 1_555
H3 C10 1_555 1_555
H4 C10 1_555 1_555
C11 C4 1_555 1_555
H5 C11 1_555 1_555
H6 C11 1_555 1_555
H7 C11 1_555 1_555
C12 C4 1_555 1_555
H8 C12 1_555 1_555
H9 C12 1_555 1_555
C13 C6 1_555 1_555
C14 C8 1_555 1_555
H10 C14 1_555 1_555
C15 C9 1_555 1_555
H11 C15 1_555 1_555
C16 C14 1_555 1_555
H12 C16 1_555 1_555
C17 O3 1_555 1_555
H13 C17 1_555 1_555
H14 C17 1_555 1_555
C18 C17 1_555 1_555
H15 C18 1_555 1_555
H16 C18 1_555 1_555
H17 C18 1_555 1_555
O2 C4 1_555 1_555
C9 C12 1_555 1_555
C15 C16 1_555 1_555

#END
