
#######################################################################
#
#                 Cambridge Crystallographic Data Centre
#                                CCDC 
#
#######################################################################
#
# If this CIF has been generated from an entry in the Cambridge 
# Structural Database, then it will include bibliographic, chemical, 
# crystal, experimental, refinement or atomic coordinate data resulting 
# from the CCDC's data processing and validation procedures.
#
#######################################################################

data_ZEVNOF
_chemical_formula_moiety         'C13 H9 Br2 N3 O2'
_chemical_name_systematic        
N'-(3,5-Dibromo-2-hydroxybenzylidene)pyridine-2-carbohydrazide
_symmetry_cell_setting           monoclinic
_symmetry_space_group_name_H-M   'P 21/c'
_symmetry_Int_Tables_number      14
_space_group_name_Hall           '-P 2ybc'
loop_
_symmetry_equiv_pos_site_id
_symmetry_equiv_pos_as_xyz
1 x,y,z
2 -x,1/2+y,1/2-z
3 -x,-y,-z
4 x,1/2-y,1/2+z
_cell_length_a                   16.8988(10)
_cell_length_b                   7.7371(7)
_cell_length_c                   10.8269(8)
_cell_angle_alpha                90
_cell_angle_beta                 92.013(7)
_cell_angle_gamma                90
_cell_volume                     1414.72
_cell_formula_units_Z            4
loop_
_atom_site_label
_atom_site_type_symbol
_atom_site_fract_x
_atom_site_fract_y
_atom_site_fract_z
Br1 Br 0.11278(5) 0.36047(11) 0.59966(8)
Br2 Br 0.05801(6) 0.62940(11) 0.11981(8)
O1 O 0.4701(3) 0.6968(7) 0.6623(4)
O2 O 0.2719(3) 0.5166(6) 0.5678(4)
H1 H 0.3174 0.5477 0.5555
N1 N 0.6046(4) 0.8479(7) 0.4433(5)
N2 N 0.4569(3) 0.7345(7) 0.4546(5)
H2 H 0.4779 0.7663 0.3871
N3 N 0.3809(3) 0.6748(7) 0.4553(5)
C1 C 0.6788(5) 0.9035(10) 0.4350(7)
H3 H 0.6963 0.9330 0.3573
C2 C 0.7312(5) 0.9198(9) 0.5346(6)
H4 H 0.7827 0.9581 0.5240
C3 C 0.7057(5) 0.8785(9) 0.6497(7)
H5 H 0.7393 0.8892 0.7191
C4 C 0.6287(5) 0.8204(10) 0.6604(6)
H6 H 0.6098 0.7913 0.7374
C5 C 0.5804(4) 0.8062(8) 0.5554(5)
C6 C 0.4983(4) 0.7421(8) 0.5647(6)
C7 C 0.3358(4) 0.6906(8) 0.3572(6)
H7 H 0.3546 0.7407 0.2858
C8 C 0.2550(4) 0.6280(7) 0.3614(6)
C9 C 0.2267(4) 0.5410(8) 0.4649(5)
C10 C 0.1496(4) 0.4780(8) 0.4609(6)
C11 C 0.1004(4) 0.5029(7) 0.3595(6)
H8 H 0.0491 0.4595 0.3582
C12 C 0.1275(4) 0.5931(8) 0.2585(6)
C13 C 0.2040(4) 0.6556(8) 0.2585(6)
H9 H 0.2216 0.7157 0.1904
loop_
_geom_bond_atom_site_label_1
_geom_bond_atom_site_label_2
_geom_bond_site_symmetry_1
_geom_bond_site_symmetry_2
Br1 C10 1_555 1_555
Br2 C12 1_555 1_555
O1 C6 1_555 1_555
O2 H1 1_555 1_555
N1 C1 1_555 1_555
N2 H2 1_555 1_555
N3 N2 1_555 1_555
C1 H3 1_555 1_555
C2 C1 1_555 1_555
H4 C2 1_555 1_555
C3 C2 1_555 1_555
H5 C3 1_555 1_555
C4 C3 1_555 1_555
H6 C4 1_555 1_555
C5 N1 1_555 1_555
C6 N2 1_555 1_555
C7 N3 1_555 1_555
H7 C7 1_555 1_555
C8 C7 1_555 1_555
C9 O2 1_555 1_555
C10 C9 1_555 1_555
C11 C10 1_555 1_555
H8 C11 1_555 1_555
C12 C11 1_555 1_555
C13 C8 1_555 1_555
H9 C13 1_555 1_555
C4 C5 1_555 1_555
C5 C6 1_555 1_555
C8 C9 1_555 1_555
C12 C13 1_555 1_555

#END
