
#######################################################################
#
#                 Cambridge Crystallographic Data Centre
#                                CCDC 
#
#######################################################################
#
# If this CIF has been generated from an entry in the Cambridge 
# Structural Database, then it will include bibliographic, chemical, 
# crystal, experimental, refinement or atomic coordinate data resulting 
# from the CCDC's data processing and validation procedures.
#
#######################################################################

data_ZEVPUO
_chemical_formula_moiety         'C21 H21 N1 O6'
_chemical_name_systematic        
'diethyl 9-cyano-2-hydroxy-2,8-dimethyl-2,3-dihydronaphtho[1,8-bc]pyran-3,7-dicarboxylate'
_symmetry_cell_setting           triclinic
_symmetry_space_group_name_H-M   'P -1'
_symmetry_Int_Tables_number      2
_space_group_name_Hall           '-P 1'
loop_
_symmetry_equiv_pos_site_id
_symmetry_equiv_pos_as_xyz
1 x,y,z
2 -x,-y,-z
_cell_length_a                   9.873(3)
_cell_length_b                   9.890(3)
_cell_length_c                   11.143(3)
_cell_angle_alpha                90.127(6)
_cell_angle_beta                 101.885(6)
_cell_angle_gamma                116.982(5)
_cell_volume                     943.101
_exptl_crystal_colour            colorless
_exptl_crystal_description       block
_cell_formula_units_Z            2
loop_
_atom_site_label
_atom_site_type_symbol
_atom_site_fract_x
_atom_site_fract_y
_atom_site_fract_z
O1 O 0.20466(13) 0.60792(12) 0.85703(10)
O2 O 0.28469(14) 0.84631(13) 0.96091(10)
H1 H 0.2332 0.8076 1.0131
O3 O -0.14741(14) 0.67752(14) 0.32879(11)
O4 O -0.29601(17) 0.68991(18) 0.45257(13)
O5 O 0.6687(4) 0.8519(4) 0.7915(3)
C1 C 0.11939(18) 0.62325(17) 0.75058(14)
N1 N -0.1390(2) 0.28454(18) 0.83856(15)
C2 C -0.13615(18) 0.52397(17) 0.60391(14)
C3 C 0.18331(17) 0.74855(17) 0.68140(14)
C4 C -0.03387(18) 0.51170(17) 0.70994(14)
C5 C 0.08542(18) 0.76118(17) 0.57373(14)
O6 O 0.46341(19) 0.62145(18) 0.7533(2)
C6 C -0.09171(19) 0.38505(18) 0.78110(15)
C7 C -0.07651(18) 0.64910(17) 0.53896(14)
C8 C -0.18618(19) 0.67403(18) 0.43715(15)
C9 C 0.34326(18) 0.85899(18) 0.72030(14)
C10 C 0.33816(19) 0.74818(18) 0.92203(15)
C11 C 0.4042(2) 0.97930(19) 0.65300(17)
H2 H 0.5100 1.0522 0.6782
C12 C 0.52400(19) 0.75045(19) 0.79364(15)
C13 C 0.44139(19) 0.83539(18) 0.83380(15)
H3 H 0.5215 0.9365 0.8768
C14 C 0.1544(2) 0.88941(19) 0.50785(16)
H4 H 0.0928 0.9024 0.4370
C15 C 0.3092(2) 0.99398(19) 0.54642(17)
H5 H 0.3523 1.0768 0.5009
C16 C -0.3042(2) 0.4022(2) 0.56943(18)
H6 H -0.3082 0.3025 0.5639
H7 H -0.3552 0.4176 0.4903
H8 H -0.3573 0.4082 0.6319
C17 C 0.4197(2) 0.6975(2) 1.02891(17)
H9 H 0.3475 0.6432 1.0799
H10 H 0.5088 0.7863 1.0778
H11 H 0.4550 0.6307 0.9975
C18 C -0.2380(2) 0.7131(2) 0.22490(17)
H12 H -0.3378 0.6954 0.2422
H13 H -0.2602 0.6463 0.1507
C19 C -0.1479(3) 0.8765(2) 0.2036(2)
H14 H -0.2039 0.8972 0.1297
H15 H -0.0457 0.8957 0.1935
H16 H -0.1359 0.9425 0.2738
C20 C 0.7691(5) 0.7903(5) 0.7582(4)
H17 H 0.8429 0.8640 0.7148
H18 H 0.7043 0.6956 0.7027
C21 C 0.8627(4) 0.7575(4) 0.8786(3)
H19 H 0.9280 0.7172 0.8555
H20 H 0.9278 0.8516 0.9330
H21 H 0.7895 0.6836 0.9209
H22? H 0.9204 0.7086 0.8546
H23? H 0.9315 0.8660 0.9001
H24? H 0.8226 0.7134 0.9493
O7? O 0.6755(9) 0.8152(9) 0.8382(7)
C22? C 0.7509(11) 0.7372(13) 0.7904(10)
H25? H 0.6789 0.6283 0.7676
H26? H 0.7886 0.7820 0.7180
loop_
_geom_bond_atom_site_label_1
_geom_bond_atom_site_label_2
_geom_bond_site_symmetry_1
_geom_bond_site_symmetry_2
O1 C1 1_555 1_555
O2 H1 1_555 1_555
O3 C8 1_555 1_555
O4 C8 1_555 1_555
O5 C12 1_555 1_555
C1 C3 1_555 1_555
N1 C6 1_555 1_555
C2 C4 1_555 1_555
C3 C5 1_555 1_555
C4 C1 1_555 1_555
C5 C7 1_555 1_555
O6 C12 1_555 1_555
C6 C4 1_555 1_555
C7 C2 1_555 1_555
C8 C7 1_555 1_555
C9 C3 1_555 1_555
C10 O1 1_555 1_555
C11 C9 1_555 1_555
H2 C11 1_555 1_555
C12 C13 1_555 1_555
C13 C9 1_555 1_555
H3 C13 1_555 1_555
C14 C5 1_555 1_555
H4 C14 1_555 1_555
C15 C11 1_555 1_555
H5 C15 1_555 1_555
C16 C2 1_555 1_555
H6 C16 1_555 1_555
H7 C16 1_555 1_555
H8 C16 1_555 1_555
C17 C10 1_555 1_555
H9 C17 1_555 1_555
H10 C17 1_555 1_555
H11 C17 1_555 1_555
C18 O3 1_555 1_555
H12 C18 1_555 1_555
H13 C18 1_555 1_555
C19 C18 1_555 1_555
H14 C19 1_555 1_555
H15 C19 1_555 1_555
H16 C19 1_555 1_555
C20 O5 1_555 1_555
H17 C20 1_555 1_555
H18 C20 1_555 1_555
C21 C20 1_555 1_555
H19 C21 1_555 1_555
H20 C21 1_555 1_555
H21 C21 1_555 1_555
O2 C10 1_555 1_555
C10 C13 1_555 1_555
C14 C15 1_555 1_555

#END
