
#######################################################################
#
#                 Cambridge Crystallographic Data Centre
#                                CCDC 
#
#######################################################################
#
# If this CIF has been generated from an entry in the Cambridge 
# Structural Database, then it will include bibliographic, chemical, 
# crystal, experimental, refinement or atomic coordinate data resulting 
# from the CCDC's data processing and validation procedures.
#
#######################################################################

data_ZEVQIC
_chemical_formula_moiety         'C26 H18 Br1 N1 O3'
_chemical_name_systematic        
(17-(4-Bromophenyl)-16,18-dioxo-17-azapentacyclo[6.6.5.0^2,7^.0^9,14^.0^15,19^]nonadeca-2,4,6,9,11,13-hexaen-1-yl)acetaldehyde
_symmetry_cell_setting           monoclinic
_symmetry_space_group_name_H-M   'P 21'
_symmetry_Int_Tables_number      4
_space_group_name_Hall           'P 2yb'
loop_
_symmetry_equiv_pos_site_id
_symmetry_equiv_pos_as_xyz
1 x,y,z
2 -x,1/2+y,-z
_cell_length_a                   9.5262(3)
_cell_length_b                   11.3389(4)
_cell_length_c                   9.6468(3)
_cell_angle_alpha                90
_cell_angle_beta                 98.7960(10)
_cell_angle_gamma                90
_cell_volume                     1029.76
_exptl_crystal_colour            colorless
_cell_formula_units_Z            2
loop_
_atom_site_label
_atom_site_type_symbol
_atom_site_fract_x
_atom_site_fract_y
_atom_site_fract_z
Br1 Br -0.05959(3) 0.71865(4) 0.94406(3)
O1 O 0.2169(2) 0.24937(18) 0.6800(3)
N1 N 0.3598(2) 0.4131(2) 0.6934(2)
C1 C 0.6544(3) 0.0989(3) 0.7053(3)
C2 C 0.2665(3) 0.4909(2) 0.7540(3)
O2 O 0.5363(2) 0.54442(18) 0.6626(2)
C3 C 0.7552(3) 0.1862(3) 0.7012(3)
C4 C 0.3269(3) 0.2951(3) 0.6674(3)
C5 C 0.8152(3) 0.4064(3) 0.7240(3)
H1 H 0.7771 0.4795 0.7548
H2 H 0.8987 0.3870 0.7909
C6 C 0.6947(3) 0.3720(3) 0.9880(3)
H3 H 0.7612 0.4317 0.9848
C7 C 0.7049(3) 0.3095(3) 0.7297(3)
C8 C 0.1159(3) 0.6600(2) 0.7411(3)
H4 H 0.0780 0.7273 0.6947
C9 C 0.6365(4) 0.3520(4) 1.1097(3)
H5 H 0.6647 0.3984 1.1885
C10 C 0.6524(3) 0.3020(3) 0.8718(3)
O3 O 0.8170(3) 0.3859(3) 0.4752(3)
C11 C 0.2113(3) 0.5898(3) 0.6834(3)
H6 H 0.2378 0.6096 0.5974
C12 C 0.9236(4) 0.0366(4) 0.6646(3)
H7 H 1.0151 0.0151 0.6523
C13 C 0.0782(3) 0.6283(3) 0.8685(3)
C14 C 0.4568(2) 0.2347(3) 0.6272(3)
H8 H 0.4338 0.1959 0.5358
C15 C 0.6863(4) -0.0193(3) 0.6857(3)
H9 H 0.6172 -0.0772 0.6863
C16 C 0.5522(3) 0.2128(3) 0.8776(2)
C17 C 0.8219(4) -0.0489(3) 0.6655(3)
H10 H 0.8447 -0.1275 0.6523
C18 C 0.5661(3) 0.3338(2) 0.6213(3)
H11 H 0.5896 0.3406 0.5262
C19 C 0.4942(4) 0.1950(3) 0.9992(4)
H12 H 0.4263 0.1367 1.0028
C20 C 0.4914(3) 0.4448(3) 0.6595(3)
C21 C 0.8923(3) 0.1543(3) 0.6816(3)
H13 H 0.9619 0.2116 0.6801
C22 C 0.5159(3) 0.1443(3) 0.7422(3)
H14 H 0.4484 0.0804 0.7505
C23 C 0.8614(4) 0.4280(4) 0.5845(4)
H15 H 0.9350 0.4819 0.5844
C24 C 0.1364(3) 0.5328(3) 0.9412(3)
H16 H 0.1125 0.5145 1.0286
C25 C 0.2309(3) 0.4639(3) 0.8835(3)
H17 H 0.2713 0.3984 0.9322
C26 C 0.5380(5) 0.2645(3) 1.1142(4)
H18 H 0.5003 0.2521 1.1964
loop_
_geom_bond_atom_site_label_1
_geom_bond_atom_site_label_2
_geom_bond_site_symmetry_1
_geom_bond_site_symmetry_2
Br1 C13 1_555 1_555
O1 C4 1_555 1_555
N1 C2 1_555 1_555
C1 C3 1_555 1_555
C2 C11 1_555 1_555
O2 C20 1_555 1_555
C3 C7 1_555 1_555
C4 N1 1_555 1_555
C5 H1 1_555 1_555
H2 C5 1_555 1_555
C6 H3 1_555 1_555
C7 C5 1_555 1_555
C8 H4 1_555 1_555
C9 C6 1_555 1_555
H5 C9 1_555 1_555
C10 C6 1_555 1_555
O3 C23 1_555 1_555
C11 C8 1_555 1_555
H6 C11 1_555 1_555
C12 H7 1_555 1_555
C13 C8 1_555 1_555
C14 C4 1_555 1_555
H8 C14 1_555 1_555
C15 C1 1_555 1_555
H9 C15 1_555 1_555
C16 C10 1_555 1_555
C17 C12 1_555 1_555
H10 C17 1_555 1_555
C18 C7 1_555 1_555
H11 C18 1_555 1_555
C19 C16 1_555 1_555
H12 C19 1_555 1_555
C20 N1 1_555 1_555
C21 C3 1_555 1_555
H13 C21 1_555 1_555
C22 C1 1_555 1_555
H14 C22 1_555 1_555
C23 C5 1_555 1_555
H15 C23 1_555 1_555
C24 C13 1_555 1_555
H16 C24 1_555 1_555
C25 C2 1_555 1_555
H17 C25 1_555 1_555
C26 C9 1_555 1_555
H18 C26 1_555 1_555
C7 C10 1_555 1_555
C12 C21 1_555 1_555
C14 C18 1_555 1_555
C14 C22 1_555 1_555
C15 C17 1_555 1_555
C16 C22 1_555 1_555
C18 C20 1_555 1_555
C19 C26 1_555 1_555
C24 C25 1_555 1_555

#END
