
#######################################################################
#
#                 Cambridge Crystallographic Data Centre
#                                CCDC 
#
#######################################################################
#
# If this CIF has been generated from an entry in the Cambridge 
# Structural Database, then it will include bibliographic, chemical, 
# crystal, experimental, refinement or atomic coordinate data resulting 
# from the CCDC's data processing and validation procedures.
#
#######################################################################

data_ZEVVAZ
_chemical_formula_moiety         'C8 H7 N1 O1 S1'
_chemical_name_systematic        1,2-Dihydro-4H-3,1-benzothiazin-4-one
_symmetry_cell_setting           monoclinic
_symmetry_space_group_name_H-M   'P 21/c'
_symmetry_Int_Tables_number      14
_space_group_name_Hall           '-P 2ybc'
loop_
_symmetry_equiv_pos_site_id
_symmetry_equiv_pos_as_xyz
1 x,y,z
2 -x,1/2+y,1/2-z
3 -x,-y,-z
4 x,1/2-y,1/2+z
_cell_length_a                   17.172(6)
_cell_length_b                   7.339(2)
_cell_length_c                   12.608(4)
_cell_angle_alpha                90
_cell_angle_beta                 108.936(12)
_cell_angle_gamma                90
_cell_volume                     1502.94
_exptl_crystal_colour            colorless
_exptl_crystal_description       Block
_cell_formula_units_Z            8
loop_
_atom_site_label
_atom_site_type_symbol
_atom_site_fract_x
_atom_site_fract_y
_atom_site_fract_z
S1 S 0.43456(9) 0.68446(13) 0.44173(10)
N1 N 0.3925(3) 0.7612(5) 0.2228(3)
H1 H 0.3688 0.6972 0.1640
O1 O 0.3968(3) 0.9707(4) 0.5300(2)
C1 C 0.4594(4) 0.6857(5) 0.3150(5)
H2 H 0.5087 0.7575 0.3256
H3 H 0.4705 0.5621 0.2967
C2 C 0.4024(3) 0.9132(5) 0.4435(3)
C3 C 0.3786(2) 1.0183(5) 0.3369(3)
C4 C 0.3544(3) 1.1994(5) 0.3407(3)
H4 H 0.3620 1.2530 0.4102
C5 C 0.3202(4) 1.2999(6) 0.2466(5)
H5 H 0.3059 1.4212 0.2510
C6 C 0.3068(3) 1.2119(7) 0.1392(4)
H6 H 0.2813 1.2762 0.0735
C7 C 0.3304(3) 1.0409(6) 0.1332(3)
H7 H 0.3220 0.9888 0.0631
C8 C 0.3685(3) 0.9347(5) 0.2316(3)
S2 S 0.06402(8) 0.31720(13) 0.49984(10)
N2 N 0.1082(3) 0.2484(4) 0.3207(3)
H8 H 0.1334 0.3160 0.2865
O2 O 0.1045(3) 0.0299(4) 0.6213(3)
C9 C 0.0407(3) 0.3172(5) 0.3498(4)
H9 H -0.0075 0.2425 0.3155
H10 H 0.0285 0.4404 0.3215
C10 C 0.0971(3) 0.0906(5) 0.5277(3)
C11 C 0.1226(2) -0.0116(5) 0.4426(3)
C12 C 0.1447(3) -0.1927(5) 0.4680(3)
H11 H 0.1379 -0.2468 0.5311
C13 C 0.1774(3) -0.2934(5) 0.3972(4)
H12 H 0.1894 -0.4166 0.4104
C14 C 0.1915(3) -0.2068(6) 0.3080(4)
H13 H 0.2162 -0.2708 0.2638
C15 C 0.1702(3) -0.0313(6) 0.2839(3)
H14 H 0.1805 0.0233 0.2233
C16 C 0.1326(3) 0.0718(5) 0.3482(3)
loop_
_geom_bond_atom_site_label_1
_geom_bond_atom_site_label_2
_geom_bond_site_symmetry_1
_geom_bond_site_symmetry_2
S1 C1 1_555 1_555
N1 H1 1_555 1_555
O1 C2 1_555 1_555
C1 N1 1_555 1_555
H2 C1 1_555 1_555
H3 C1 1_555 1_555
C2 S1 1_555 1_555
C3 C2 1_555 1_555
C4 C3 1_555 1_555
H4 C4 1_555 1_555
C5 C4 1_555 1_555
H5 C5 1_555 1_555
C6 C5 1_555 1_555
H6 C6 1_555 1_555
C7 C6 1_555 1_555
H7 C7 1_555 1_555
C8 N1 1_555 1_555
S2 C9 1_555 1_555
N2 H8 1_555 1_555
O2 C10 1_555 1_555
C9 N2 1_555 1_555
H9 C9 1_555 1_555
H10 C9 1_555 1_555
C10 S2 1_555 1_555
C11 C10 1_555 1_555
C12 C11 1_555 1_555
H11 C12 1_555 1_555
C13 C12 1_555 1_555
H12 C13 1_555 1_555
C14 C13 1_555 1_555
H13 C14 1_555 1_555
C15 C14 1_555 1_555
H14 C15 1_555 1_555
C16 N2 1_555 1_555
C3 C8 1_555 1_555
C7 C8 1_555 1_555
C11 C16 1_555 1_555
C15 C16 1_555 1_555

#END
