
#######################################################################
#
#                 Cambridge Crystallographic Data Centre
#                                CCDC 
#
#######################################################################
#
# If this CIF has been generated from an entry in the Cambridge 
# Structural Database, then it will include bibliographic, chemical, 
# crystal, experimental, refinement or atomic coordinate data resulting 
# from the CCDC's data processing and validation procedures.
#
#######################################################################

data_ZEVXOQ
_chemical_formula_moiety         'C31 H43 N1 O1'
_chemical_name_systematic        
'2-((abie ta-8,11,13-trien-18-ylimino)methyl)-6-t-butylphenol'
_chemical_properties_biological  'tested for anticancer activity'
_symmetry_cell_setting           monoclinic
_symmetry_space_group_name_H-M   'P 21'
_symmetry_Int_Tables_number      4
_space_group_name_Hall           'P 2yb'
loop_
_symmetry_equiv_pos_site_id
_symmetry_equiv_pos_as_xyz
1 x,y,z
2 -x,1/2+y,-z
_cell_length_a                   11.1318(10)
_cell_length_b                   7.5217(7)
_cell_length_c                   16.3261(15)
_cell_angle_alpha                90
_cell_angle_beta                 99.802(3)
_cell_angle_gamma                90
_cell_volume                     1347.03
_cell_formula_units_Z            2
loop_
_atom_site_label
_atom_site_type_symbol
_atom_site_fract_x
_atom_site_fract_y
_atom_site_fract_z
O1 O 0.47836(18) 0.1172(3) 0.16995(13)
H1 H 0.5451 0.1651 0.1726
C1 C 0.3969(3) 0.1971(4) 0.11042(19)
C2 C 0.2763(3) 0.1339(4) 0.09512(19)
N1 N 0.6461(2) 0.3208(4) 0.12883(16)
C3 C 0.7743(3) 0.6253(4) 0.4146(2)
C4 C 0.4351(3) 0.3388(4) 0.06559(19)
C5 C 0.5620(3) 0.3946(4) 0.0779(2)
H2 H 0.5827 0.4898 0.0468
C6 C 0.6966(3) 0.7562(4) 0.3772(2)
C7 C 0.7928(3) 0.5099(4) 0.2725(2)
H3 H 0.7114 0.4593 0.2714
C8 C 0.7880(3) 0.6090(5) 0.5011(2)
H4 H 0.8396 0.5215 0.5275
C9 C 0.1978(3) 0.2252(5) 0.0342(2)
H5 H 0.1166 0.1899 0.0232
C10 C 0.8512(3) 0.5099(4) 0.3657(2)
C11 C 0.6501(3) 0.8499(5) 0.5117(2)
C12 C 0.6722(3) 0.7835(5) 0.2846(2)
H6 H 0.6680 0.9100 0.2730
H7 H 0.5936 0.7323 0.2621
C13 C 0.2358(3) -0.0254(5) 0.1410(2)
C14 C 0.8550(3) 0.3163(5) 0.3950(2)
H8 H 0.7722 0.2742 0.3930
H9 H 0.8956 0.3111 0.4525
C15 C 0.3513(4) 0.4200(5) 0.0047(2)
H10 H 0.3759 0.5134 -0.0259
C16 C 0.6362(3) 0.8658(4) 0.4265(2)
H11 H 0.5843 0.9533 0.4005
C17 C 0.7685(3) 0.7012(5) 0.2412(2)
H12 H 0.8431 0.7702 0.2529
H13 H 0.7407 0.7010 0.1816
C18 C 0.8624(3) 0.1988(5) 0.2519(2)
H14 H 0.7814 0.1477 0.2460
H15 H 0.9097 0.1258 0.2201
C19 C 0.5856(3) 0.9742(5) 0.5631(2)
H16 H 0.5156 1.0238 0.5255
C20 C 0.7280(3) 0.7178(6) 0.5483(2)
H17 H 0.7399 0.7026 0.6056
C21 C 0.8523(3) 0.3872(5) 0.2148(2)
C22 C 0.7720(3) 0.3745(5) 0.1288(2)
H18 H 0.7716 0.4895 0.1019
H19 H 0.8089 0.2900 0.0956
C23 C 0.2328(4) 0.3644(5) -0.0109(2)
H20 H 0.1766 0.4200 -0.0515
C24 C 0.9210(3) 0.1922(5) 0.3427(2)
H21 H 1.0058 0.2273 0.3483
H22 H 0.9183 0.0714 0.3631
C25 C 0.1022(3) -0.0747(7) 0.1085(3)
H23 H 0.0508 0.0250 0.1149
H24 H 0.0793 -0.1739 0.1395
H25 H 0.0930 -0.1061 0.0508
C26 C 0.9819(3) 0.5892(6) 0.3841(2)
H26 H 1.0122 0.5836 0.4427
H27 H 0.9798 0.7108 0.3661
H28 H 1.0345 0.5221 0.3548
C27 C 0.9765(3) 0.4520(6) 0.1972(2)
H29 H 1.0071 0.3692 0.1609
H30 H 1.0329 0.4606 0.2485
H31 H 0.9670 0.5667 0.1710
C28 C 0.2481(3) 0.0166(6) 0.2341(2)
H32 H 0.3309 0.0485 0.2557
H33 H 0.2258 -0.0862 0.2630
H34 H 0.1952 0.1138 0.2418
C29 C 0.3122(4) -0.1905(5) 0.1290(2)
H35 H 0.3968 -0.1656 0.1486
H36 H 0.3006 -0.2208 0.0711
H37 H 0.2869 -0.2881 0.1599
C30 C 0.6663(4) 1.1280(7) 0.5949(3)
H38 H 0.6240 1.2050 0.6273
H39 H 0.6875 1.1930 0.5488
H40 H 0.7392 1.0843 0.6290
C31 C 0.5361(5) 0.8837(7) 0.6318(3)
H41 H 0.4830 0.7887 0.6092
H42 H 0.4913 0.9678 0.6589
H43 H 0.6022 0.8364 0.6712
loop_
_geom_bond_atom_site_label_1
_geom_bond_atom_site_label_2
_geom_bond_site_symmetry_1
_geom_bond_site_symmetry_2
O1 H1 1_555 1_555
C1 O1 1_555 1_555
C2 C1 1_555 1_555
N1 C5 1_555 1_555
C3 C6 1_555 1_555
C4 C1 1_555 1_555
C5 C4 1_555 1_555
H2 C5 1_555 1_555
C6 C12 1_555 1_555
C7 H3 1_555 1_555
C8 C3 1_555 1_555
H4 C8 1_555 1_555
C9 C2 1_555 1_555
H5 C9 1_555 1_555
C10 C3 1_555 1_555
C11 C16 1_555 1_555
C12 H6 1_555 1_555
H7 C12 1_555 1_555
C13 C2 1_555 1_555
C14 C10 1_555 1_555
H8 C14 1_555 1_555
H9 C14 1_555 1_555
C15 C4 1_555 1_555
H10 C15 1_555 1_555
C16 C6 1_555 1_555
H11 C16 1_555 1_555
C17 C7 1_555 1_555
H12 C17 1_555 1_555
H13 C17 1_555 1_555
C18 H14 1_555 1_555
H15 C18 1_555 1_555
C19 C11 1_555 1_555
H16 C19 1_555 1_555
C20 C8 1_555 1_555
H17 C20 1_555 1_555
C21 C7 1_555 1_555
C22 N1 1_555 1_555
H18 C22 1_555 1_555
H19 C22 1_555 1_555
C23 C9 1_555 1_555
H20 C23 1_555 1_555
C24 C14 1_555 1_555
H21 C24 1_555 1_555
H22 C24 1_555 1_555
C25 C13 1_555 1_555
H23 C25 1_555 1_555
H24 C25 1_555 1_555
H25 C25 1_555 1_555
C26 C10 1_555 1_555
H26 C26 1_555 1_555
H27 C26 1_555 1_555
H28 C26 1_555 1_555
C27 C21 1_555 1_555
H29 C27 1_555 1_555
H30 C27 1_555 1_555
H31 C27 1_555 1_555
C28 C13 1_555 1_555
H32 C28 1_555 1_555
H33 C28 1_555 1_555
H34 C28 1_555 1_555
C29 C13 1_555 1_555
H35 C29 1_555 1_555
H36 C29 1_555 1_555
H37 C29 1_555 1_555
C30 C19 1_555 1_555
H38 C30 1_555 1_555
H39 C30 1_555 1_555
H40 C30 1_555 1_555
C31 C19 1_555 1_555
H41 C31 1_555 1_555
H42 C31 1_555 1_555
H43 C31 1_555 1_555
C7 C10 1_555 1_555
C11 C20 1_555 1_555
C12 C17 1_555 1_555
C15 C23 1_555 1_555
C18 C21 1_555 1_555
C18 C24 1_555 1_555
C21 C22 1_555 1_555

#END
