
#######################################################################
#
#                 Cambridge Crystallographic Data Centre
#                                CCDC 
#
#######################################################################
#
# If this CIF has been generated from an entry in the Cambridge 
# Structural Database, then it will include bibliographic, chemical, 
# crystal, experimental, refinement or atomic coordinate data resulting 
# from the CCDC's data processing and validation procedures.
#
#######################################################################

data_ZEVYEG
_chemical_formula_moiety         'C21 H24 N2 O1'
_chemical_name_systematic        6,8-Di-t-butyl-10H-phenoxazine-1-carbonitrile
_symmetry_cell_setting           monoclinic
_symmetry_space_group_name_H-M   'C 2/c'
_symmetry_Int_Tables_number      15
_space_group_name_Hall           '-C 2yn'
loop_
_symmetry_equiv_pos_site_id
_symmetry_equiv_pos_as_xyz
1 x,y,z
2 -x,y,1/2-z
3 1/2+x,1/2+y,z
4 1/2-x,1/2+y,1/2-z
5 -x,-y,-z
6 x,-y,1/2+z
7 1/2-x,1/2-y,-z
8 1/2+x,1/2-y,1/2+z
_cell_length_a                   34.3374(12)
_cell_length_b                   6.0181(2)
_cell_length_c                   18.6307(6)
_cell_angle_alpha                90
_cell_angle_beta                 104.012(2)
_cell_angle_gamma                90
_cell_volume                     3735.4
_exptl_crystal_colour            yellow
_exptl_crystal_description       block
_cell_formula_units_Z            8
loop_
_atom_site_label
_atom_site_type_symbol
_atom_site_fract_x
_atom_site_fract_y
_atom_site_fract_z
C1 C 0.11243(9) 0.1382(5) 0.29665(15)
C2 C 0.16296(9) 0.3533(5) 0.38188(16)
C3 C 0.15200(9) 0.2013(5) 0.32434(16)
C4 C 0.23248(10) 0.3032(5) 0.38268(16)
C5 C 0.09477(9) 0.3718(5) 0.39221(16)
C6 C 0.13438(9) 0.4333(5) 0.41616(16)
H1 H 0.1420 0.5301 0.4560
C7 C 0.08463(10) 0.2264(5) 0.33258(16)
H2 H 0.0578 0.1857 0.3157
C8 C 0.27332(10) 0.3337(5) 0.41239(17)
C9 C 0.22080(10) 0.1399(5) 0.32812(17)
C10 C 0.24836(11) 0.0068(6) 0.30743(19)
H3 H 0.2399 -0.1043 0.2724
C11 C 0.28644(10) 0.5061(6) 0.4660(2)
C12 C 0.30171(11) 0.2016(6) 0.3896(2)
H4 H 0.3290 0.2256 0.4091
C13 C 0.28912(12) 0.0371(6) 0.3386(2)
H5 H 0.3078 -0.0545 0.3247
C14 C 0.09982(10) -0.0115(5) 0.22780(16)
C15 C 0.11984(13) -0.2387(6) 0.2412(2)
H6 H 0.1485 -0.2208 0.2536
H7 H 0.1118 -0.3274 0.1973
H8 H 0.1119 -0.3112 0.2813
C16 C 0.11171(16) 0.1018(7) 0.16286(19)
H9 H 0.1000 0.2475 0.1558
H10 H 0.1022 0.0152 0.1188
H11 H 0.1404 0.1138 0.1732
C17 C 0.05461(12) -0.0501(9) 0.2071(2)
H12 H 0.0467 -0.1210 0.2475
H13 H 0.0476 -0.1435 0.1641
H14 H 0.0410 0.0898 0.1966
C18 C 0.06320(10) 0.4583(6) 0.43153(18)
C19 C 0.0247(2) 0.473(2) 0.3838(5)
H15 H 0.0218 0.6142 0.3589
H16 H 0.0048 0.4601 0.4120
H17 H 0.0211 0.3558 0.3479
C20 C 0.0720(3) 0.6818(16) 0.4590(8)
H18 H 0.0890 0.7534 0.4319
H19 H 0.0855 0.6767 0.5105
H20 H 0.0474 0.7638 0.4528
C21 C 0.0622(4) 0.324(2) 0.4918(7)
H21 H 0.0589 0.4146 0.5322
H22 H 0.0869 0.2425 0.5064
H23 H 0.0402 0.2216 0.4783
N1 N 0.20295(8) 0.4243(5) 0.40343(17)
N2 N 0.29567(10) 0.6465(6) 0.5078(2)
O1 O 0.18119(7) 0.1190(4) 0.29101(13)
H24 H 0.2098(12) 0.539(8) 0.438(2)
loop_
_geom_bond_atom_site_label_1
_geom_bond_atom_site_label_2
_geom_bond_site_symmetry_1
_geom_bond_site_symmetry_2
C1 C3 1_555 1_555
C2 C3 1_555 1_555
C3 O1 1_555 1_555
C4 C8 1_555 1_555
C5 C6 1_555 1_555
C6 C2 1_555 1_555
H1 C6 1_555 1_555
C7 C1 1_555 1_555
H2 C7 1_555 1_555
C8 C11 1_555 1_555
C9 C4 1_555 1_555
C10 C9 1_555 1_555
H3 C10 1_555 1_555
C11 N2 1_555 1_555
C12 C8 1_555 1_555
H4 C12 1_555 1_555
C13 C10 1_555 1_555
H5 C13 1_555 1_555
C14 C1 1_555 1_555
C15 C14 1_555 1_555
H6 C15 1_555 1_555
H7 C15 1_555 1_555
H8 C15 1_555 1_555
C16 C14 1_555 1_555
H9 C16 1_555 1_555
H10 C16 1_555 1_555
H11 C16 1_555 1_555
C17 C14 1_555 1_555
H12 C17 1_555 1_555
H13 C17 1_555 1_555
H14 C17 1_555 1_555
C18 C5 1_555 1_555
C19 C18 1_555 1_555
H15 C19 1_555 1_555
H16 C19 1_555 1_555
H17 C19 1_555 1_555
C20 C18 1_555 1_555
H18 C20 1_555 1_555
H19 C20 1_555 1_555
H20 C20 1_555 1_555
C21 C18 1_555 1_555
H21 C21 1_555 1_555
H22 C21 1_555 1_555
H23 C21 1_555 1_555
N1 C2 1_555 1_555
O1 C9 1_555 1_555
H24 N1 1_555 1_555
C4 N1 1_555 1_555
C5 C7 1_555 1_555
C12 C13 1_555 1_555

#END
