
#######################################################################
#
#                 Cambridge Crystallographic Data Centre
#                                CCDC 
#
#######################################################################
#
# If this CIF has been generated from an entry in the Cambridge 
# Structural Database, then it will include bibliographic, chemical, 
# crystal, experimental, refinement or atomic coordinate data resulting 
# from the CCDC's data processing and validation procedures.
#
#######################################################################

data_ZEWCIQ
_chemical_formula_moiety         'C18 H15 Cl1 O5 S1'
_chemical_name_systematic        
5-(benzyloxy)-3-chloro-4-[(4-methylphenyl)sulfonyl]furan-2(5H)-one
_symmetry_cell_setting           triclinic
_symmetry_space_group_name_H-M   'P -1'
_symmetry_Int_Tables_number      2
_space_group_name_Hall           '-P 1'
loop_
_symmetry_equiv_pos_site_id
_symmetry_equiv_pos_as_xyz
1 x,y,z
2 -x,-y,-z
_cell_length_a                   7.6242(5)
_cell_length_b                   10.1996(6)
_cell_length_c                   23.1308(15)
_cell_angle_alpha                87.932(5)
_cell_angle_beta                 88.886(5)
_cell_angle_gamma                79.665(5)
_cell_volume                     1768.25
_exptl_crystal_colour            colorless
_exptl_crystal_description       block
_cell_formula_units_Z            4
loop_
_atom_site_label
_atom_site_type_symbol
_atom_site_fract_x
_atom_site_fract_y
_atom_site_fract_z
S1 S 0.14285(10) 0.83084(7) 0.96767(3)
Cl1 Cl 0.41058(11) 1.06953(8) 0.92716(3)
O1 O -0.0264(2) 0.86382(16) 0.83659(8)
O2 O -0.0142(3) 1.08922(18) 0.83582(8)
O3 O 0.2139(3) 0.88743(19) 1.01569(8)
O4 O -0.0252(3) 0.7896(2) 0.97327(11)
O5 O 0.1832(4) 1.2266(2) 0.82780(10)
C1 C 0.1206(3) 0.9531(2) 0.91100(10)
C2 C 0.3024(4) 0.6986(2) 0.94374(10)
C3 C 0.2181(3) 1.0439(2) 0.89850(10)
C4 C -0.1726(3) 0.7411(3) 0.77222(12)
C5 C -0.0346(3) 0.9724(3) 0.87111(11)
H1 H -0.1473 0.9883 0.8930
C6 C 0.1357(4) 1.1325(3) 0.85030(12)
C7 C 0.5513(5) 0.4848(3) 0.90791(12)
C8 C 0.4791(4) 0.6962(3) 0.95356(12)
H2 H 0.5157 0.7659 0.9721
C9 C -0.1273(4) 0.6103(3) 0.79133(13)
H3 H -0.1097 0.5905 0.8306
C10 C -0.1956(3) 0.7671(3) 0.71399(13)
H4 H -0.2238 0.8550 0.7001
C11 C -0.1774(4) 0.6652(4) 0.67580(13)
H5 H -0.1943 0.6842 0.6365
C12 C 0.2469(5) 0.5952(3) 0.91618(13)
H6 H 0.1266 0.5968 0.9096
C13 C -0.1974(4) 0.8512(3) 0.81439(14)
H7 H -0.2521 0.9343 0.7953
H8 H -0.2753 0.8315 0.8459
C14 C 0.6028(4) 0.5888(3) 0.93561(13)
H9 H 0.7231 0.5867 0.9423
C15 C 0.3741(6) 0.4896(3) 0.89863(13)
H10 H 0.3379 0.4199 0.8800
C16 C -0.1350(4) 0.5366(3) 0.69559(15)
H11 H -0.1244 0.4677 0.6698
C17 C -0.1077(4) 0.5081(3) 0.75302(15)
H12 H -0.0761 0.4200 0.7663
C18 C 0.6868(6) 0.3684(3) 0.88822(16)
H13 H 0.7044 0.3762 0.8471
H14 H 0.6447 0.2869 0.8977
H15 H 0.7976 0.3677 0.9073
S2 S 0.25173(9) 0.76402(7) 0.60236(3)
Cl2 Cl 0.34567(13) 1.01283(7) 0.69460(4)
O6 O 0.4247(2) 0.53348(16) 0.69392(8)
O7 O 0.3416(2) 0.67024(19) 0.77077(8)
O8 O 0.3965(3) 0.8537(2) 0.81147(9)
O9 O 0.1783(3) 0.6479(2) 0.59147(9)
O10 O 0.1539(3) 0.8929(2) 0.58847(9)
C19 C 0.4607(3) 0.7491(2) 0.56804(10)
C20 C 0.2968(3) 0.7581(2) 0.67712(10)
C21 C 0.5405(4) 0.3028(2) 0.68917(13)
C22 C 0.3291(3) 0.8523(2) 0.71032(12)
C23 C 0.2983(3) 0.6341(2) 0.71344(11)
H16 H 0.1806 0.6081 0.7137
C24 C 0.3611(3) 0.7983(3) 0.77035(12)
C25 C 0.5352(4) 0.8600(3) 0.55609(13)
H17 H 0.4813 0.9425 0.5696
C26 C 0.5217(4) 0.2832(3) 0.63150(13)
H18 H 0.4247 0.3317 0.6118
C27 C 0.5431(4) 0.6263(3) 0.54975(11)
H19 H 0.4959 0.5503 0.5593
C28 C 0.7703(4) 0.7279(3) 0.50270(12)
C29 C 0.6836(4) 0.2297(3) 0.71761(14)
H20 H 0.6975 0.2412 0.7569
C30 C 0.6972(4) 0.6183(3) 0.51701(12)
H21 H 0.7532 0.5356 0.5043
C31 C 0.6900(4) 0.8480(3) 0.52402(13)
H22 H 0.7418 0.9229 0.5166
C32 C 0.6425(5) 0.1941(3) 0.60268(15)
H23 H 0.6281 0.1816 0.5635
C33 C 0.8059(4) 0.1401(3) 0.68867(18)
H24 H 0.9029 0.0912 0.7082
C34 C 0.7863(5) 0.1222(3) 0.63150(19)
H25 H 0.8700 0.0615 0.6118
C35 C 0.4103(5) 0.4037(3) 0.71969(16)
H26 H 0.2904 0.3862 0.7154
H27 H 0.4369 0.4008 0.7606
C36 C 0.9335(4) 0.7188(4) 0.46416(15)
H28 H 1.0272 0.7480 0.4846
H29 H 0.9053 0.7746 0.4301
H30 H 0.9719 0.6281 0.4533
loop_
_geom_bond_atom_site_label_1
_geom_bond_atom_site_label_2
_geom_bond_site_symmetry_1
_geom_bond_site_symmetry_2
S1 O3 1_555 1_555
Cl1 C3 1_555 1_555
O1 C5 1_555 1_555
O2 C5 1_555 1_555
O4 S1 1_555 1_555
O5 C6 1_555 1_555
C1 S1 1_555 1_555
C2 S1 1_555 1_555
C3 C1 1_555 1_555
C4 C9 1_555 1_555
C5 C1 1_555 1_555
H1 C5 1_555 1_555
C6 O2 1_555 1_555
C7 C14 1_555 1_555
C8 C2 1_555 1_555
H2 C8 1_555 1_555
C9 H3 1_555 1_555
C10 C4 1_555 1_555
H4 C10 1_555 1_555
C11 C10 1_555 1_555
H5 C11 1_555 1_555
C12 C2 1_555 1_555
H6 C12 1_555 1_555
C13 O1 1_555 1_555
H7 C13 1_555 1_555
H8 C13 1_555 1_555
C14 C8 1_555 1_555
H9 C14 1_555 1_555
C15 C7 1_555 1_555
H10 C15 1_555 1_555
C16 C11 1_555 1_555
H11 C16 1_555 1_555
C17 C9 1_555 1_555
H12 C17 1_555 1_555
C18 C7 1_555 1_555
H13 C18 1_555 1_555
H14 C18 1_555 1_555
H15 C18 1_555 1_555
S2 O9 1_555 1_555
Cl2 C22 1_555 1_555
O6 C23 1_555 1_555
O7 C23 1_555 1_555
O8 C24 1_555 1_555
O10 S2 1_555 1_555
C19 S2 1_555 1_555
C20 S2 1_555 1_555
C21 C26 1_555 1_555
C22 C20 1_555 1_555
C23 C20 1_555 1_555
H16 C23 1_555 1_555
C24 O7 1_555 1_555
C25 C19 1_555 1_555
H17 C25 1_555 1_555
C26 H18 1_555 1_555
C27 C19 1_555 1_555
H19 C27 1_555 1_555
C28 C30 1_555 1_555
C29 C21 1_555 1_555
H20 C29 1_555 1_555
C30 C27 1_555 1_555
H21 C30 1_555 1_555
C31 C25 1_555 1_555
H22 C31 1_555 1_555
C32 C26 1_555 1_555
H23 C32 1_555 1_555
C33 C29 1_555 1_555
H24 C33 1_555 1_555
C34 C32 1_555 1_555
H25 C34 1_555 1_555
C35 O6 1_555 1_555
H26 C35 1_555 1_555
H27 C35 1_555 1_555
C36 C28 1_555 1_555
H28 C36 1_555 1_555
H29 C36 1_555 1_555
H30 C36 1_555 1_555
C3 C6 1_555 1_555
C4 C13 1_555 1_555
C12 C15 1_555 1_555
C16 C17 1_555 1_555
C21 C35 1_555 1_555
C22 C24 1_555 1_555
C28 C31 1_555 1_555
C33 C34 1_555 1_555

#END
