
#######################################################################
#
#                 Cambridge Crystallographic Data Centre
#                                CCDC 
#
#######################################################################
#
# If this CIF has been generated from an entry in the Cambridge 
# Structural Database, then it will include bibliographic, chemical, 
# crystal, experimental, refinement or atomic coordinate data resulting 
# from the CCDC's data processing and validation procedures.
#
#######################################################################

data_ZEWDAI
_chemical_formula_moiety         'C20 H21 N1 O2 S1'
_chemical_name_systematic        
3-((4-Methylphenyl)sulfonyl)-3-azapentacyclo[7.3.2.0^1,7^.0^5,7^.0^8,10^]tetradeca-11,13-diene
_symmetry_cell_setting           monoclinic
_symmetry_space_group_name_H-M   'C c'
_symmetry_Int_Tables_number      9
_space_group_name_Hall           'C -2yc'
loop_
_symmetry_equiv_pos_site_id
_symmetry_equiv_pos_as_xyz
1 x,y,z
2 x,-y,1/2+z
3 1/2+x,1/2+y,z
4 1/2+x,1/2-y,1/2+z
_cell_length_a                   19.6378(14)
_cell_length_b                   6.2264(4)
_cell_length_c                   15.1429(11)
_cell_angle_alpha                90
_cell_angle_beta                 113.794(3)
_cell_angle_gamma                90
_cell_volume                     1694.19
_exptl_crystal_colour            colorless
_exptl_crystal_description       plate
_cell_formula_units_Z            4
loop_
_atom_site_label
_atom_site_type_symbol
_atom_site_fract_x
_atom_site_fract_y
_atom_site_fract_z
S1 S 0.22444(4) 0.10037(12) 0.44095(5)
O1 O 0.16908(14) 0.1735(5) 0.4738(2)
O2 O 0.2334(4) -0.1246(15) 0.4490(5)
N1 N 0.30320(15) 0.2074(5) 0.5121(2)
C1 C 0.30314(18) 0.4393(5) 0.5320(3)
H1 H 0.2537 0.4845 0.5283
H2 H 0.3148 0.5232 0.4843
C2 C 0.36190(18) 0.4754(6) 0.6323(2)
C3 C 0.43792(19) 0.3957(6) 0.6441(3)
C4 C 0.44068(19) 0.2166(6) 0.5790(3)
H3 H 0.4816 0.1099 0.6091
C5 C 0.3704(2) 0.1288(6) 0.5016(3)
H4 H 0.3682 0.1716 0.4375
H5 H 0.3715 -0.0300 0.5048
C6 C 0.3375(4) 0.3559(14) 0.7054(5)
H6 H 0.2892 0.2967 0.6879
C7 C 0.3962(5) 0.3432(18) 0.8040(6)
H7 H 0.3824 0.3226 0.8567
C8 C 0.4753(5) 0.3615(19) 0.8229(10)
H8 H 0.5122 0.2934 0.8830
C9 C 0.4988(7) 0.406(2) 0.7443(6)
H9 H 0.5506 0.3662 0.7534
C10 C 0.3721(6) 0.7037(13) 0.6698(9)
H10 H 0.3320 0.8021 0.6435
C11 C 0.4408(5) 0.7755(19) 0.7440(10)
H11 H 0.4551 0.9222 0.7552
C12 C 0.4882(5) 0.5908(12) 0.8028(6)
H12 H 0.5371 0.6440 0.8509
C13 C 0.4657(2) 0.4429(7) 0.5676(3)
H13 H 0.5197 0.4685 0.5883
H14 H 0.4332 0.5278 0.5110
C14 C 0.19844(16) 0.2007(6) 0.3235(2)
C15 C 0.2031(2) 0.0671(7) 0.2528(3)
H15 H 0.2255 -0.0706 0.2694
C16 C 0.1745(2) 0.1367(8) 0.1574(3)
H16 H 0.1779 0.0461 0.1088
C17 C 0.1414(2) 0.3356(8) 0.1324(3)
C18 C 0.1401(2) 0.4723(7) 0.2048(3)
H17 H 0.1199 0.6126 0.1884
C19 C 0.16785(19) 0.4061(5) 0.3003(3)
H18 H 0.1661 0.4989 0.3491
C20 C 0.1045(3) 0.3972(11) 0.0274(3)
H19 H 0.1355 0.3501 -0.0060
H20 H 0.0984 0.5535 0.0218
H21 H 0.0556 0.3280 -0.0020
O3? O 0.2370(6) -0.1223(17) 0.4257(7)
C21? C 0.3410(4) 0.4710(13) 0.7130(5)
H22? H 0.2859 0.4546 0.6902
C22? C 0.3811(5) 0.3107(16) 0.7926(6)
H23? H 0.3589 0.2072 0.8190
C23? C 0.4607(5) 0.348(2) 0.8207(9)
H24? H 0.4939 0.3269 0.8861
C24? C 0.4914(6) 0.4173(19) 0.7487(6)
H25? H 0.5405 0.3486 0.7614
C25? C 0.3600(6) 0.6855(12) 0.6773(8)
H26? H 0.3186 0.7871 0.6417
C26? C 0.4272(4) 0.770(2) 0.7488(10)
H27? H 0.4256 0.8990 0.7815
C27? C 0.4995(4) 0.6603(15) 0.7727(7)
H28? H 0.5461 0.7317 0.8001
loop_
_geom_bond_atom_site_label_1
_geom_bond_atom_site_label_2
_geom_bond_site_symmetry_1
_geom_bond_site_symmetry_2
S1 O1 1_555 1_555
O2 S1 1_555 1_555
N1 S1 1_555 1_555
C1 N1 1_555 1_555
H1 C1 1_555 1_555
H2 C1 1_555 1_555
C2 C1 1_555 1_555
C3 C2 1_555 1_555
C4 C3 1_555 1_555
H3 C4 1_555 1_555
C5 N1 1_555 1_555
H4 C5 1_555 1_555
H5 C5 1_555 1_555
C6 C2 1_555 1_555
H6 C6 1_555 1_555
C7 C6 1_555 1_555
H7 C7 1_555 1_555
C8 C7 1_555 1_555
H8 C8 1_555 1_555
C9 C3 1_555 1_555
H9 C9 1_555 1_555
C10 C2 1_555 1_555
H10 C10 1_555 1_555
C11 C10 1_555 1_555
H11 C11 1_555 1_555
C12 C8 1_555 1_555
H12 C12 1_555 1_555
C13 C3 1_555 1_555
H13 C13 1_555 1_555
H14 C13 1_555 1_555
C14 S1 1_555 1_555
C15 C14 1_555 1_555
H15 C15 1_555 1_555
C16 C15 1_555 1_555
H16 C16 1_555 1_555
C17 C16 1_555 1_555
C18 C17 1_555 1_555
H17 C18 1_555 1_555
C19 C14 1_555 1_555
H18 C19 1_555 1_555
C20 C17 1_555 1_555
H19 C20 1_555 1_555
H20 C20 1_555 1_555
H21 C20 1_555 1_555
C4 C5 1_555 1_555
C4 C13 1_555 1_555
C8 C9 1_555 1_555
C9 C12 1_555 1_555
C11 C12 1_555 1_555
C18 C19 1_555 1_555

#END
