
#######################################################################
#
#                 Cambridge Crystallographic Data Centre
#                                CCDC 
#
#######################################################################
#
# If this CIF has been generated from an entry in the Cambridge 
# Structural Database, then it will include bibliographic, chemical, 
# crystal, experimental, refinement or atomic coordinate data resulting 
# from the CCDC's data processing and validation procedures.
#
#######################################################################

data_ZEWHUH
_chemical_formula_moiety         'C22 H14 O8,0.76(C1 H1 Cl3)'
_chemical_name_systematic        
"7a,7a'-dimethoxy-2H,2'H-[1a,1a'-binaphtho[2,3-b]oxirene]-2,2',7,7'(7aH,7a'H)-tetrone chloroform solvate"
_symmetry_cell_setting           triclinic
_symmetry_space_group_name_H-M   'P -1'
_symmetry_Int_Tables_number      2
_space_group_name_Hall           '-P 1'
loop_
_symmetry_equiv_pos_site_id
_symmetry_equiv_pos_as_xyz
1 x,y,z
2 -x,-y,-z
_cell_length_a                   8.1221(2)
_cell_length_b                   10.6766(3)
_cell_length_c                   13.8996(4)
_cell_angle_alpha                107.2260(10)
_cell_angle_beta                 91.1880(10)
_cell_angle_gamma                105.6930(10)
_cell_volume                     1101.66
_exptl_crystal_colour            colorless
_exptl_crystal_description       prism
_cell_formula_units_Z            2
loop_
_atom_site_label
_atom_site_type_symbol
_atom_site_fract_x
_atom_site_fract_y
_atom_site_fract_z
O1 O -0.0840(2) 0.36097(19) 0.14265(13)
O2 O 0.1874(2) 0.41646(18) 0.07695(12)
O3 O 0.5038(2) 0.58232(18) 0.22404(14)
O4 O 0.4284(2) 0.25459(19) 0.17825(13)
O5 O -0.1633(2) 0.14320(19) -0.03715(13)
O6 O 0.1033(2) 0.24520(18) 0.30514(13)
O7 O 0.5918(2) 0.71536(19) 0.43297(14)
O8 O 0.2214(2) 0.57201(17) 0.27803(13)
C1 C 0.2854(3) 0.1648(2) 0.01142(17)
C2 C 0.1240(3) 0.1285(2) -0.04415(17)
C3 C 0.2425(3) 0.4384(2) 0.25940(18)
C4 C 0.2115(3) 0.3509(2) 0.15004(17)
C5 C 0.3199(3) 0.2558(2) 0.11790(18)
C6 C 0.4578(3) 0.6247(2) 0.40524(19)
C7 C 0.0914(3) 0.0325(3) -0.13978(18)
H1 H -0.0188 0.0055 -0.1768
C8 C 0.1781(3) 0.3669(2) 0.33450(18)
C9 C -0.0140(3) 0.1890(3) -0.00040(18)
C10 C 0.3455(3) 0.5738(2) 0.47695(18)
C11 C 0.2149(3) 0.4488(2) 0.44310(17)
C12 C 0.4125(3) 0.1071(2) -0.03162(19)
H2 H 0.5222 0.1321 0.0056
C13 C 0.3793(3) 0.0143(3) -0.12762(19)
H3 H 0.4667 -0.0236 -0.1570
C14 C 0.3926(3) 0.5611(2) 0.29276(18)
C15 C 0.2741(3) 0.5996(3) 0.64754(19)
H4 H 0.2923 0.6521 0.7172
C16 C 0.1465(3) 0.4756(3) 0.61452(19)
H5 H 0.0785 0.4426 0.6615
C17 C 0.3748(3) 0.6473(3) 0.58005(19)
H6 H 0.4647 0.7309 0.6039
C18 C 0.0418(3) 0.3164(3) 0.09228(17)
C19 C 0.2179(3) -0.0244(3) -0.18191(19)
H7 H 0.1946 -0.0897 -0.2477
C20 C 0.1183(3) 0.3997(3) 0.51273(19)
H8 H 0.0325 0.3137 0.4903
C21 C -0.1608(4) 0.4394(3) 0.0968(2)
H9 H -0.1991 0.3878 0.0252
H10 H -0.0758 0.5267 0.1022
H11 H -0.2597 0.4569 0.1318
C22 C 0.5377(4) 0.7135(3) 0.2093(2)
H12 H 0.6253 0.7222 0.1623
H13 H 0.5795 0.7856 0.2744
H14 H 0.4317 0.7227 0.1810
Cl1 Cl 1.02113(12) 1.12132(15) 0.63050(8)
Cl2 Cl 0.68677(16) 1.02199(14) 0.69283(10)
Cl3 Cl 0.71870(15) 1.09364(13) 0.50749(10)
C23 C 0.8056(4) 1.0250(4) 0.5877(3)
H15 H 0.8024 0.9289 0.5490
H16? H 0.7871 0.9237 0.5633
Cl4? Cl 1.018(2) 1.079(4) 0.635(2)
Cl5? Cl 0.767(4) 1.052(4) 0.4740(19)
Cl6? Cl 0.654(4) 1.034(5) 0.672(2)
loop_
_geom_bond_atom_site_label_1
_geom_bond_atom_site_label_2
_geom_bond_site_symmetry_1
_geom_bond_site_symmetry_2
O1 C18 1_555 1_555
O2 C4 1_555 1_555
O3 C14 1_555 1_555
O4 C5 1_555 1_555
O5 C9 1_555 1_555
O6 C8 1_555 1_555
O7 C6 1_555 1_555
O8 C3 1_555 1_555
C1 C2 1_555 1_555
C2 C7 1_555 1_555
C3 C4 1_555 1_555
C4 C5 1_555 1_555
C5 C1 1_555 1_555
C6 C10 1_555 1_555
C7 H1 1_555 1_555
C8 C3 1_555 1_555
C9 C2 1_555 1_555
C10 C11 1_555 1_555
C11 C8 1_555 1_555
C12 C1 1_555 1_555
H2 C12 1_555 1_555
C13 C12 1_555 1_555
H3 C13 1_555 1_555
C14 O8 1_555 1_555
C15 H4 1_555 1_555
C16 C15 1_555 1_555
H5 C16 1_555 1_555
C17 C10 1_555 1_555
H6 C17 1_555 1_555
C18 O2 1_555 1_555
C19 C7 1_555 1_555
H7 C19 1_555 1_555
C20 C11 1_555 1_555
H8 C20 1_555 1_555
C21 O1 1_555 1_555
H9 C21 1_555 1_555
H10 C21 1_555 1_555
H11 C21 1_555 1_555
C22 O3 1_555 1_555
H12 C22 1_555 1_555
H13 C22 1_555 1_555
H14 C22 1_555 1_555
Cl1 C23 1_555 1_555
Cl2 C23 1_555 1_555
Cl3 C23 1_555 1_555
C23 H15 1_555 1_555
C3 C14 1_555 1_555
C4 C18 1_555 1_555
C6 C14 1_555 1_555
C9 C18 1_555 1_555
C13 C19 1_555 1_555
C15 C17 1_555 1_555
C16 C20 1_555 1_555

#END
