
#######################################################################
#
#                 Cambridge Crystallographic Data Centre
#                                CCDC 
#
#######################################################################
#
# If this CIF has been generated from an entry in the Cambridge 
# Structural Database, then it will include bibliographic, chemical, 
# crystal, experimental, refinement or atomic coordinate data resulting 
# from the CCDC's data processing and validation procedures.
#
#######################################################################

data_ZEWHUG
_chemical_formula_moiety         'C20 H21 Br2 O3 P1'
_chemical_name_systematic        
'3-Bromo-2,2-dimethylpropyl hydrogen ((10-bromo-9-anthryl)methyl)phosphonate'
_symmetry_cell_setting           orthorhombic
_symmetry_space_group_name_H-M   'P 21 21 21'
_symmetry_Int_Tables_number      19
_space_group_name_Hall           'P 2ac 2ab'
loop_
_symmetry_equiv_pos_site_id
_symmetry_equiv_pos_as_xyz
1 x,y,z
2 1/2-x,-y,1/2+z
3 -x,1/2+y,1/2-z
4 1/2+x,1/2-y,-z
_cell_length_a                   6.3845(17)
_cell_length_b                   13.615(4)
_cell_length_c                   22.618(7)
_cell_angle_alpha                90
_cell_angle_beta                 90
_cell_angle_gamma                90
_cell_volume                     1966.07
_exptl_crystal_colour            yellow
_exptl_crystal_description       blocky
_cell_formula_units_Z            4
loop_
_atom_site_label
_atom_site_type_symbol
_atom_site_fract_x
_atom_site_fract_y
_atom_site_fract_z
Br1 Br 0.65071(12) 0.30652(6) 0.35691(3)
Br2 Br 1.29762(11) 0.55060(5) -0.03871(3)
P1 P 0.7907(3) 0.30876(11) 0.04723(6)
O1 O 0.5594(7) 0.3310(3) 0.06517(17)
H1 H 0.4694 0.3153 0.0325
O2 O 0.9187(7) 0.4030(3) 0.05956(17)
O3 O 0.8153(7) 0.2647(3) -0.01325(17)
C1 C 0.8406(9) 0.2430(3) 0.1622(2)
C2 C 0.6594(5) 0.1975(3) 0.18540(14)
C3 C 0.5295(6) 0.1393(3) 0.15064(11)
H2 H 0.5619 0.1288 0.1110
C4 C 0.3513(6) 0.0970(3) 0.17504(15)
H3 H 0.2644 0.0581 0.1518
C5 C 0.3030(5) 0.1128(3) 0.23420(16)
H4 H 0.1837 0.0844 0.2505
C6 C 0.4329(6) 0.1709(3) 0.26897(11)
H5 H 0.4005 0.1814 0.3086
C7 C 0.6111(5) 0.2132(3) 0.24456(14)
C8 C 0.7287(10) 0.2739(4) 0.2779(2)
C9 C 0.9112(10) 0.3232(4) 0.2555(3)
C10 C 1.0481(11) 0.3852(5) 0.2905(3)
H6 H 1.0153 0.3976 0.3299
C11 C 1.2194(11) 0.4247(4) 0.2671(3)
H7 H 1.3002 0.4679 0.2894
C12 C 1.2770(11) 0.4026(5) 0.2113(3)
H8 H 1.4011 0.4274 0.1958
C13 C 1.1532(10) 0.3442(4) 0.1781(3)
H9 H 1.1961 0.3299 0.1398
C14 C 0.9595(9) 0.3030(5) 0.1983(2)
C15 C 0.9020(9) 0.2227(4) 0.0967(2)
H10 H 0.8560 0.1572 0.0859
H11 H 1.0534 0.2247 0.0931
C16 C 0.8501(11) 0.4925(4) 0.0292(3)
H12 H 0.7029 0.5047 0.0368
H13 H 0.8703 0.4861 -0.0132
C17 C 0.9807(10) 0.5743(5) 0.0530(3)
C18 C 1.2178(11) 0.5581(5) 0.0435(3)
H14 H 1.2590 0.4978 0.0631
H15 H 1.2938 0.6116 0.0620
C19 C 0.9112(11) 0.6703(5) 0.0233(3)
H16 H 0.9730 0.6747 -0.0153
H17 H 0.9558 0.7251 0.0468
H18 H 0.7613 0.6710 0.0198
C20 C 0.9451(12) 0.5786(5) 0.1200(3)
H19 H 0.8403 0.5314 0.1309
H20 H 0.8989 0.6432 0.1309
H21 H 1.0737 0.5638 0.1401
loop_
_geom_bond_atom_site_label_1
_geom_bond_atom_site_label_2
_geom_bond_site_symmetry_1
_geom_bond_site_symmetry_2
Br1 C8 1_555 1_555
Br2 C18 1_555 1_555
P1 O1 1_555 1_555
O1 H1 1_555 1_555
O2 P1 1_555 1_555
O3 P1 1_555 1_555
C1 C2 1_555 1_555
C2 C3 1_555 1_555
C3 H2 1_555 1_555
C4 C3 1_555 1_555
H3 C4 1_555 1_555
C5 C4 1_555 1_555
H4 C5 1_555 1_555
C6 C5 1_555 1_555
H5 C6 1_555 1_555
C7 C2 1_555 1_555
C8 C7 1_555 1_555
C9 C8 1_555 1_555
C10 C9 1_555 1_555
H6 C10 1_555 1_555
C11 C10 1_555 1_555
H7 C11 1_555 1_555
C12 C11 1_555 1_555
H8 C12 1_555 1_555
C13 C12 1_555 1_555
H9 C13 1_555 1_555
C14 C1 1_555 1_555
C15 P1 1_555 1_555
H10 C15 1_555 1_555
H11 C15 1_555 1_555
C16 O2 1_555 1_555
H12 C16 1_555 1_555
H13 C16 1_555 1_555
C17 C16 1_555 1_555
C18 C17 1_555 1_555
H14 C18 1_555 1_555
H15 C18 1_555 1_555
C19 C17 1_555 1_555
H16 C19 1_555 1_555
H17 C19 1_555 1_555
H18 C19 1_555 1_555
C20 C17 1_555 1_555
H19 C20 1_555 1_555
H20 C20 1_555 1_555
H21 C20 1_555 1_555
C1 C15 1_555 1_555
C6 C7 1_555 1_555
C9 C14 1_555 1_555
C13 C14 1_555 1_555

#END
