
#######################################################################
#
#                 Cambridge Crystallographic Data Centre
#                                CCDC 
#
#######################################################################
#
# If this CIF has been generated from an entry in the Cambridge 
# Structural Database, then it will include bibliographic, chemical, 
# crystal, experimental, refinement or atomic coordinate data resulting 
# from the CCDC's data processing and validation procedures.
#
#######################################################################

data_ZEWJAP
_chemical_formula_moiety         'C34 H30 O12'
_chemical_name_systematic        
"6,6'-dihydroxy-5,5',8,8',9,9'-hexamethoxy-2,2'-dimethyl-4H,4'H-[7,7'-binaphtho[2,3-b]pyran]-4,4'-dione unknown solvate"
_symmetry_cell_setting           monoclinic
_symmetry_space_group_name_H-M   'C 2/c'
_symmetry_Int_Tables_number      15
_space_group_name_Hall           '-C 2yn'
loop_
_symmetry_equiv_pos_site_id
_symmetry_equiv_pos_as_xyz
1 x,y,z
2 -x,y,1/2-z
3 1/2+x,1/2+y,z
4 1/2-x,1/2+y,1/2-z
5 -x,-y,-z
6 x,-y,1/2+z
7 1/2-x,1/2-y,-z
8 1/2+x,1/2-y,1/2+z
_cell_length_a                   14.4403(6)
_cell_length_b                   10.6277(4)
_cell_length_c                   21.3332(8)
_cell_angle_alpha                90
_cell_angle_beta                 92.041(2)
_cell_angle_gamma                90
_cell_volume                     3271.87
_exptl_crystal_colour            'pale yellow'
_exptl_crystal_description       prism
_cell_formula_units_Z            4
loop_
_atom_site_label
_atom_site_type_symbol
_atom_site_fract_x
_atom_site_fract_y
_atom_site_fract_z
O1 O 0.78368(13) 0.83220(19) 0.26481(9)
O2 O 0.61557(13) 0.83425(19) 0.19220(9)
O3 O 0.46699(13) 0.59421(19) 0.34396(9)
H1 H 0.4746 0.5636 0.3801
O4 O 0.88106(13) 0.65879(19) 0.46866(9)
O5 O 0.56117(13) 0.52300(19) 0.44423(9)
O6 O 0.66650(15) 0.4847(2) 0.55337(10)
C1 C 0.70476(18) 0.7719(3) 0.28401(13)
C2 C 0.63108(18) 0.6435(2) 0.36451(12)
C3 C 0.62472(19) 0.7718(3) 0.24820(13)
C4 C 0.54344(18) 0.7110(3) 0.26978(12)
C5 C 0.72030(19) 0.5848(3) 0.46095(13)
C6 C 0.54695(18) 0.6494(2) 0.32659(13)
C7 C 0.79704(19) 0.6490(3) 0.43574(13)
C8 C 0.79416(19) 0.7073(3) 0.37898(13)
H2 H 0.8478 0.7475 0.3640
C9 C 0.71054(19) 0.7074(3) 0.34245(13)
C10 C 0.63917(19) 0.5816(3) 0.42353(13)
C11 C 0.8904(2) 0.6095(3) 0.52726(13)
C12 C 0.7298(2) 0.5337(3) 0.52562(13)
C13 C 0.8223(2) 0.5484(3) 0.55470(13)
H3 H 0.8344 0.5128 0.5950
C14 C 0.9854(2) 0.6316(3) 0.55449(14)
H4 H 1.0308 0.5902 0.5284
H5 H 0.9900 0.5969 0.5971
H6 H 0.9979 0.7222 0.5560
C15 C 0.7803(2) 0.9660(3) 0.27441(15)
H7 H 0.8334 1.0056 0.2549
H8 H 0.7826 0.9841 0.3195
H9 H 0.7227 0.9996 0.2554
C16 C 0.6859(2) 0.8110(3) 0.14698(14)
H10 H 0.6639 0.8407 0.1056
H11 H 0.6987 0.7205 0.1451
H12 H 0.7428 0.8560 0.1597
C17 C 0.5643(2) 0.3862(3) 0.44061(16)
H13 H 0.5788 0.3607 0.3979
H14 H 0.5040 0.3515 0.4513
H15 H 0.6122 0.3543 0.4702
O1A O 0.21632(13) 0.83220(19) 0.23519(9)
O2A O 0.38443(13) 0.83425(19) 0.30780(9)
O3A O 0.53301(13) 0.59421(19) 0.15604(9)
H1A H 0.5254 0.5636 0.1199
O4A O 0.11894(13) 0.65879(19) 0.03134(9)
O5A O 0.43883(13) 0.52300(19) 0.05577(9)
O6A O 0.33350(15) 0.4847(2) -0.05337(10)
C1A C 0.29524(18) 0.7719(3) 0.21599(13)
C2A C 0.36892(18) 0.6435(2) 0.13549(12)
C3A C 0.37528(19) 0.7718(3) 0.25180(13)
C4A C 0.45656(18) 0.7110(3) 0.23022(12)
C5A C 0.27970(19) 0.5848(3) 0.03905(13)
C6A C 0.45305(18) 0.6494(2) 0.17341(13)
C7A C 0.20296(19) 0.6490(3) 0.06426(13)
C8A C 0.20584(19) 0.7073(3) 0.12102(13)
H2A H 0.1522 0.7475 0.1360
C9A C 0.28946(19) 0.7074(3) 0.15755(13)
C10A C 0.36083(19) 0.5816(3) 0.07647(13)
C11A C 0.1096(2) 0.6095(3) -0.02726(13)
C12A C 0.2702(2) 0.5337(3) -0.02562(13)
C13A C 0.1777(2) 0.5484(3) -0.05470(13)
H3A H 0.1656 0.5128 -0.0950
C14A C 0.0146(2) 0.6316(3) -0.05449(14)
H4A H -0.0308 0.5902 -0.0284
H5A H 0.0100 0.5969 -0.0971
H6A H 0.0021 0.7222 -0.0560
C15A C 0.2197(2) 0.9660(3) 0.22559(15)
H7A H 0.1666 1.0056 0.2451
H8A H 0.2174 0.9841 0.1805
H9A H 0.2773 0.9996 0.2446
C16A C 0.3141(2) 0.8110(3) 0.35302(14)
H10A H 0.3361 0.8407 0.3944
H11A H 0.3013 0.7205 0.3549
H12A H 0.2572 0.8560 0.3403
C17A C 0.4357(2) 0.3862(3) 0.05939(16)
H13A H 0.4212 0.3607 0.1021
H14A H 0.4960 0.3515 0.0487
H15A H 0.3878 0.3543 0.0298
loop_
_geom_bond_atom_site_label_1
_geom_bond_atom_site_label_2
_geom_bond_site_symmetry_1
_geom_bond_site_symmetry_2
O1 C1 1_555 1_555
O2 C3 1_555 1_555
O3 H1 1_555 1_555
O4 C7 1_555 1_555
O5 C10 1_555 1_555
O6 C12 1_555 1_555
C1 C3 1_555 1_555
C2 C6 1_555 1_555
C3 C4 1_555 1_555
C4 C6 1_555 1_555
C5 C7 1_555 1_555
C6 O3 1_555 1_555
C7 C8 1_555 1_555
C8 H2 1_555 1_555
C9 C1 1_555 1_555
C10 C2 1_555 1_555
C11 O4 1_555 1_555
C12 C5 1_555 1_555
C13 C11 1_555 1_555
H3 C13 1_555 1_555
C14 C11 1_555 1_555
H4 C14 1_555 1_555
H5 C14 1_555 1_555
H6 C14 1_555 1_555
C15 O1 1_555 1_555
H7 C15 1_555 1_555
H8 C15 1_555 1_555
H9 C15 1_555 1_555
C16 O2 1_555 1_555
H10 C16 1_555 1_555
H11 C16 1_555 1_555
H12 C16 1_555 1_555
C17 O5 1_555 1_555
H13 C17 1_555 1_555
H14 C17 1_555 1_555
H15 C17 1_555 1_555
O1A C1A 1_555 1_555
O2A C3A 1_555 1_555
O3A H1A 1_555 1_555
O4A C7A 1_555 1_555
O5A C10A 1_555 1_555
O6A C12A 1_555 1_555
C1A C3A 1_555 1_555
C2A C6A 1_555 1_555
C3A C4A 1_555 1_555
C4A C4 1_555 1_555
C5A C7A 1_555 1_555
C6A O3A 1_555 1_555
C7A C8A 1_555 1_555
C8A H2A 1_555 1_555
C9A C1A 1_555 1_555
C10A C2A 1_555 1_555
C11A O4A 1_555 1_555
C12A C5A 1_555 1_555
C13A C11A 1_555 1_555
H3A C13A 1_555 1_555
C14A C11A 1_555 1_555
H4A C14A 1_555 1_555
H5A C14A 1_555 1_555
H6A C14A 1_555 1_555
C15A O1A 1_555 1_555
H7A C15A 1_555 1_555
H8A C15A 1_555 1_555
H9A C15A 1_555 1_555
C16A O2A 1_555 1_555
H10A C16A 1_555 1_555
H11A C16A 1_555 1_555
H12A C16A 1_555 1_555
C17A O5A 1_555 1_555
H13A C17A 1_555 1_555
H14A C17A 1_555 1_555
H15A C17A 1_555 1_555
C2 C9 1_555 1_555
C5 C10 1_555 1_555
C8 C9 1_555 1_555
C12 C13 1_555 1_555
C2A C9A 1_555 1_555
C4A C6A 1_555 1_555
C5A C10A 1_555 1_555
C8A C9A 1_555 1_555
C12A C13A 1_555 1_555

#END
