
#######################################################################
#
#                 Cambridge Crystallographic Data Centre
#                                CCDC 
#
#######################################################################
#
# If this CIF has been generated from an entry in the Cambridge 
# Structural Database, then it will include bibliographic, chemical, 
# crystal, experimental, refinement or atomic coordinate data resulting 
# from the CCDC's data processing and validation procedures.
#
#######################################################################

data_ZEWJAO
_chemical_formula_moiety         'C20 H20 Br1 O3 P1'
_chemical_name_systematic        
'2-((10-Bromo-9-anthryl)methyl)-5,5-dimethyl-1,3,2-dioxaphosphinane 2-oxide'
_symmetry_cell_setting           monoclinic
_symmetry_space_group_name_H-M   'P 21/c'
_symmetry_Int_Tables_number      14
_space_group_name_Hall           '-P 2ybc'
loop_
_symmetry_equiv_pos_site_id
_symmetry_equiv_pos_as_xyz
1 x,y,z
2 -x,1/2+y,1/2-z
3 -x,-y,-z
4 x,1/2-y,1/2+z
_cell_length_a                   21.510(3)
_cell_length_b                   5.6451(8)
_cell_length_c                   14.508(2)
_cell_angle_alpha                90
_cell_angle_beta                 100.285(3)
_cell_angle_gamma                90
_cell_volume                     1733.34
_exptl_crystal_colour            yellow
_exptl_crystal_description       blocky
_cell_formula_units_Z            4
loop_
_atom_site_label
_atom_site_type_symbol
_atom_site_fract_x
_atom_site_fract_y
_atom_site_fract_z
Br1 Br 0.019015(18) 0.40059(9) 0.63010(3)
P1 P 0.35719(4) 0.38529(15) 0.65393(7)
O1 O 0.33763(11) 0.3166(4) 0.74937(17)
O2 O 0.41910(10) 0.5382(4) 0.68164(15)
O3 O 0.36836(12) 0.1745(4) 0.6014(2)
C1 C 0.22995(14) 0.5383(5) 0.6005(2)
C2 C 0.19606(14) 0.3537(5) 0.5508(2)
C3 C 0.22345(15) 0.1970(6) 0.4915(2)
H1 H 0.2655 0.2183 0.4860
C4 C 0.19056(17) 0.0206(7) 0.4436(2)
H2 H 0.2098 -0.0769 0.4053
C5 C 0.12730(18) -0.0173(7) 0.4510(3)
H3 H 0.1050 -0.1407 0.4178
C6 C 0.09859(17) 0.1222(6) 0.5051(3)
H4 H 0.0565 0.0944 0.5086
C7 C 0.13125(14) 0.3127(6) 0.5577(2)
C8 C 0.10401(14) 0.4587(6) 0.6166(2)
C9 C 0.13579(15) 0.6434(6) 0.6665(2)
C10 C 0.10782(16) 0.7975(7) 0.7250(2)
H5 H 0.0661 0.7719 0.7315
C11 C 0.13992(18) 0.9800(7) 0.7714(3)
H6 H 0.1204 1.0763 0.8098
C12 C 0.20218(18) 1.0239(6) 0.7618(3)
H7 H 0.2239 1.1510 0.7933
C13 C 0.23113(16) 0.8844(5) 0.7076(2)
H8 H 0.2726 0.9187 0.7020
C14 C 0.20064(14) 0.6856(6) 0.6581(2)
C15 C 0.29811(14) 0.5813(5) 0.5908(2)
H9 H 0.3007 0.5733 0.5255
H10 H 0.3089 0.7400 0.6114
C16 C 0.34519(16) 0.4808(7) 0.8266(3)
H11 H 0.3373 0.3986 0.8821
H12 H 0.3140 0.6056 0.8124
C17 C 0.40996(16) 0.5900(5) 0.8470(2)
C18 C 0.42275(16) 0.7062(6) 0.7577(2)
H13 H 0.3922 0.8316 0.7396
H14 H 0.4645 0.7773 0.7696
C19 C 0.45945(18) 0.4041(6) 0.8815(3)
H15 H 0.4503 0.3325 0.9376
H16 H 0.5004 0.4772 0.8946
H17 H 0.4591 0.2849 0.8342
C20 C 0.4107(2) 0.7812(7) 0.9210(3)
H18 H 0.4027 0.7108 0.9779
H19 H 0.3786 0.8965 0.8993
H20 H 0.4513 0.8569 0.9324
loop_
_geom_bond_atom_site_label_1
_geom_bond_atom_site_label_2
_geom_bond_site_symmetry_1
_geom_bond_site_symmetry_2
Br1 C8 1_555 1_555
P1 O1 1_555 1_555
O1 C16 1_555 1_555
O2 P1 1_555 1_555
O3 P1 1_555 1_555
C1 C2 1_555 1_555
C2 C3 1_555 1_555
C3 H1 1_555 1_555
C4 C3 1_555 1_555
H2 C4 1_555 1_555
C5 C4 1_555 1_555
H3 C5 1_555 1_555
C6 C5 1_555 1_555
H4 C6 1_555 1_555
C7 C2 1_555 1_555
C8 C7 1_555 1_555
C9 C8 1_555 1_555
C10 C9 1_555 1_555
H5 C10 1_555 1_555
C11 C10 1_555 1_555
H6 C11 1_555 1_555
C12 C11 1_555 1_555
H7 C12 1_555 1_555
C13 C12 1_555 1_555
H8 C13 1_555 1_555
C14 C1 1_555 1_555
C15 P1 1_555 1_555
H9 C15 1_555 1_555
H10 C15 1_555 1_555
C16 H11 1_555 1_555
H12 C16 1_555 1_555
C17 C16 1_555 1_555
C18 O2 1_555 1_555
H13 C18 1_555 1_555
H14 C18 1_555 1_555
C19 C17 1_555 1_555
H15 C19 1_555 1_555
H16 C19 1_555 1_555
H17 C19 1_555 1_555
C20 C17 1_555 1_555
H18 C20 1_555 1_555
H19 C20 1_555 1_555
H20 C20 1_555 1_555
C1 C15 1_555 1_555
C6 C7 1_555 1_555
C9 C14 1_555 1_555
C13 C14 1_555 1_555
C17 C18 1_555 1_555

#END
