
#######################################################################
#
#                 Cambridge Crystallographic Data Centre
#                                CCDC 
#
#######################################################################
#
# If this CIF has been generated from an entry in the Cambridge 
# Structural Database, then it will include bibliographic, chemical, 
# crystal, experimental, refinement or atomic coordinate data resulting 
# from the CCDC's data processing and validation procedures.
#
#######################################################################

data_ZEWRAU
_chemical_formula_moiety         'C14 H22 N2'
_chemical_name_systematic        1,6-Diaminodiamantane
_chemical_properties_biological  'antitumour and antimicrobial activity'
_symmetry_cell_setting           tetragonal
_symmetry_space_group_name_H-M   'P 42 b c'
_symmetry_Int_Tables_number      106
_space_group_name_Hall           'P 4c -2ab'
loop_
_symmetry_equiv_pos_site_id
_symmetry_equiv_pos_as_xyz
1 x,y,z
2 -y,x,1/2+z
3 1/2-x,1/2+y,z
4 -x,-y,z
5 1/2-y,1/2-x,1/2+z
6 y,-x,1/2+z
7 1/2+x,1/2-y,z
8 1/2+y,1/2+x,1/2+z
_cell_length_a                   15.633(6)
_cell_length_b                   15.633(6)
_cell_length_c                   9.484(3)
_cell_angle_alpha                90
_cell_angle_beta                 90
_cell_angle_gamma                90
_cell_volume                     2317.8
_exptl_crystal_colour            colorless
_chemical_melting_point          324deg.C
_cell_formula_units_Z            8
loop_
_atom_site_label
_atom_site_type_symbol
_atom_site_fract_x
_atom_site_fract_y
_atom_site_fract_z
N1 N 0.67894(13) 0.72265(14) 0.3553
N2 N 0.33818(12) 0.77373(14) 0.5749(3)
C1 C 0.59747(15) 0.71969(15) 0.4343(3)
C2 C 0.52139(15) 0.71053(15) 0.3336(3)
C3 C 0.51467(17) 0.78788(19) 0.2352(3)
C4 C 0.49986(18) 0.86799(17) 0.3245(3)
C5 C 0.41826(16) 0.85793(15) 0.4089(3)
C6 C 0.42244(15) 0.78034(15) 0.5049(3)
C7 C 0.43879(15) 0.69892(15) 0.4182(3)
C8 C 0.44539(17) 0.62080(16) 0.5134(3)
C9 C 0.52048(17) 0.63179(17) 0.6159(3)
C10 C 0.50571(18) 0.71210(19) 0.7041(3)
C11 C 0.49872(16) 0.78980(16) 0.6087(3)
C12 C 0.58172(16) 0.80168(15) 0.5224(3)
C13 C 0.60279(17) 0.64214(16) 0.5314(3)
C14 C 0.57407(17) 0.88043(16) 0.4273(3)
H1 H 0.7255(16) 0.7212(16) 0.414(3)
H2 H 0.6825(16) 0.7706(16) 0.298(3)
H3 H 0.3431(16) 0.7346(17) 0.637(3)
H4 H 0.3279(17) 0.8217(17) 0.616(3)
H5 H 0.5294(14) 0.6595(13) 0.2783(24)
H6 H 0.4634(13) 0.7785(13) 0.169(3)
H7 H 0.5652(14) 0.7951(15) 0.177(3)
H8 H 0.4974(14) 0.9202(13) 0.262(3)
H9 H 0.4075(16) 0.9087(16) 0.467(3)
H10 H 0.3692(16) 0.8518(15) 0.350(3)
H11 H 0.3898(14) 0.6932(14) 0.349(3)
H12 H 0.3895(15) 0.6119(15) 0.566(3)
H13 H 0.4533(13) 0.5724(13) 0.4598(24)
H14 H 0.5255(15) 0.5820(15) 0.679(3)
H15 H 0.5549(16) 0.7209(17) 0.770(3)
H16 H 0.4555(15) 0.7041(15) 0.764(3)
H17 H 0.4905(14) 0.8422(12) 0.661(3)
H18 H 0.6316(12) 0.8081(12) 0.5925(25)
H19 H 0.6544(14) 0.6517(14) 0.5948(24)
H20 H 0.6147(14) 0.5912(14) 0.475(3)
H21 H 0.6278(15) 0.8894(15) 0.377(3)
H22 H 0.5652(16) 0.9330(16) 0.496(3)
loop_
_geom_bond_atom_site_label_1
_geom_bond_atom_site_label_2
_geom_bond_site_symmetry_1
_geom_bond_site_symmetry_2
N1 C1 1_555 1_555
N2 C6 1_555 1_555
C1 C2 1_555 1_555
C2 C3 1_555 1_555
C3 C4 1_555 1_555
C4 C5 1_555 1_555
C5 C6 1_555 1_555
C6 C7 1_555 1_555
C7 C2 1_555 1_555
C8 C7 1_555 1_555
C9 C8 1_555 1_555
C10 C9 1_555 1_555
C11 C6 1_555 1_555
C12 C1 1_555 1_555
C13 C1 1_555 1_555
C14 C4 1_555 1_555
H1 N1 1_555 1_555
H2 N1 1_555 1_555
H3 N2 1_555 1_555
H4 N2 1_555 1_555
H5 C2 1_555 1_555
H6 C3 1_555 1_555
H7 C3 1_555 1_555
H8 C4 1_555 1_555
H9 C5 1_555 1_555
H10 C5 1_555 1_555
H11 C7 1_555 1_555
H12 C8 1_555 1_555
H13 C8 1_555 1_555
H14 C9 1_555 1_555
H15 C10 1_555 1_555
H16 C10 1_555 1_555
H17 C11 1_555 1_555
H18 C12 1_555 1_555
H19 C13 1_555 1_555
H20 C13 1_555 1_555
H21 C14 1_555 1_555
H22 C14 1_555 1_555
C9 C13 1_555 1_555
C10 C11 1_555 1_555
C11 C12 1_555 1_555
C12 C14 1_555 1_555

#END
