
#######################################################################
#
#                 Cambridge Crystallographic Data Centre
#                                CCDC 
#
#######################################################################
#
# If this CIF has been generated from an entry in the Cambridge 
# Structural Database, then it will include bibliographic, chemical, 
# crystal, experimental, refinement or atomic coordinate data resulting 
# from the CCDC's data processing and validation procedures.
#
#######################################################################

data_ZEWZOT
_chemical_formula_moiety         
'C12 H24 O6,C6 H7 N2 O2 1+,2(H3 O4 P1),H2 O4 P1 1-'
_chemical_name_systematic        
'4-nitroanilinium 18-crown-6 bis(phosphoric acid) (dihydrogen phosphate)'
_symmetry_cell_setting           orthorhombic
_symmetry_space_group_name_H-M   'P b c a'
_symmetry_Int_Tables_number      61
_space_group_name_Hall           '-P 2ac 2ab'
loop_
_symmetry_equiv_pos_site_id
_symmetry_equiv_pos_as_xyz
1 x,y,z
2 1/2-x,-y,1/2+z
3 -x,1/2+y,1/2-z
4 1/2+x,1/2-y,-z
5 -x,-y,-z
6 1/2+x,y,1/2-z
7 x,1/2-y,1/2+z
8 1/2-x,1/2+y,z
_cell_length_a                   17.295(7)
_cell_length_b                   15.971(7)
_cell_length_c                   22.665(10)
_cell_angle_alpha                90
_cell_angle_beta                 90
_cell_angle_gamma                90
_cell_volume                     6260.49
_exptl_crystal_colour            colorless
_exptl_crystal_description       block
_cell_formula_units_Z            8
loop_
_atom_site_label
_atom_site_type_symbol
_atom_site_fract_x
_atom_site_fract_y
_atom_site_fract_z
P1 P 0.38947(8) 1.04495(10) 0.48716(8)
O1 O 0.3380(2) 1.1057(2) 0.4560(2)
O2 O 0.4505(2) 1.0845(3) 0.5218(2)
H1 H 0.4768 1.0482 0.5378
O3 O 0.4251(3) 0.9881(3) 0.4391(2)
O4 O 0.3426(3) 0.9915(4) 0.5303(3)
H2 H 0.3075 0.9680 0.5125
P2 P 0.06683(10) 0.79504(11) 0.48600(9)
O5 O 0.0173(3) 0.7380(3) 0.5235(3)
H3 H 0.0434 0.6986 0.5352
O6 O 0.0978(3) 0.7461(3) 0.4333(2)
H4 H 0.1226 0.7056 0.4450
O7 O 0.1343(4) 0.8215(4) 0.5232(3)
O8 O 0.0233(2) 0.8673(3) 0.4645(3)
H5 H 0.0015 0.8550 0.4336
P3 P 0.34966(9) 0.52953(11) 0.48196(11)
O9 O 0.3907(3) 0.5610(4) 0.5397(3)
O10 O 0.3036(3) 0.5989(4) 0.4537(4)
H6 H 0.3329 0.6362 0.4428
O11 O 0.3005(3) 0.4619(3) 0.5012(3)
H7 H 0.3193 0.4399 0.5306
O12 O 0.4103(3) 0.5032(3) 0.4364(3)
H8 H 0.4358 0.5441 0.4265
C1 C 0.3566(8) 0.7164(8) 0.8826(6)
H9 H 0.365(6) 0.721(7) 0.9256(14)
H10 H 0.391(5) 0.684(6) 0.856(4)
C2 C 0.2819(9) 0.6823(8) 0.8830(5)
H11 H 0.2468 0.7221 0.9012
H12 H 0.2819 0.6320 0.9070
C3 C 0.1792(8) 0.6329(8) 0.8233(6)
H13 H 0.1441 0.6772 0.8352
H14 H 0.1733 0.5868 0.8507
C4 C 0.1590(7) 0.6048(9) 0.7640(7)
H15 H 0.1950 0.5620 0.7511
H16 H 0.1074 0.5810 0.7640
C5 C 0.1479(10) 0.6435(12) 0.6695(9)
H17 H 0.0930 0.6496 0.6622
H18 H 0.1586 0.5839 0.6707
C6 C 0.1859(11) 0.6753(10) 0.6210(8)
H19 H 0.1947 0.6292 0.5939
H20 H 0.1509 0.7139 0.6015
C7 C 0.2947(12) 0.7385(14) 0.5839(10)
H21 H 0.2622 0.7743 0.5598
H22 H 0.3053 0.6887 0.5607
C8 C 0.3625(10) 0.7786(11) 0.5914(8)
H23 H 0.4034 0.7374 0.5879
H24 H 0.3685 0.8174 0.5587
C9 C 0.4414(11) 0.8578(12) 0.6441(8)
H25 H 0.4366 0.9153 0.6307
H26 H 0.4792 0.8300 0.6193
C10 C 0.4659(12) 0.8569(15) 0.7007(11)
H27 H 0.4951 0.8053 0.7039
H28 H 0.5039 0.9015 0.7025
C11 C 0.4385(11) 0.8879(11) 0.8151(8)
H29 H 0.4862 0.9182 0.8223
H30 H 0.3951 0.9218 0.8280
C12 C 0.4388(8) 0.8127(9) 0.8418(7)
H31 H 0.4581 0.8185 0.8818
H32 H 0.4730 0.7750 0.8207
O13 O 0.3657(4) 0.7799(5) 0.8430(3)
O14 O 0.2541(4) 0.6622(5) 0.8257(4)
O15 O 0.1621(4) 0.6746(5) 0.7251(4)
O16 O 0.2546(6) 0.7158(7) 0.6283(4)
O17 O 0.3739(6) 0.8196(7) 0.6390(5)
O18 O 0.4305(7) 0.8622(8) 0.7487(5)
C13 C 0.2291(3) 0.8694(4) 0.7413(3)
C14 C 0.2089(5) 0.9072(5) 0.6904(4)
H33 H 0.2278 0.8875 0.6546
C15 C 0.1597(4) 0.9759(5) 0.6920(4)
H34 H 0.1437 1.0022 0.6574
C16 C 0.1361(4) 1.0031(4) 0.7452(4)
C17 C 0.1537(4) 0.9654(5) 0.7958(4)
H35 H 0.1335 0.9847 0.8313
C18 C 0.2030(4) 0.8965(4) 0.7947(3)
H36 H 0.2176 0.8698 0.8294
N1 N 0.2770(3) 0.7953(3) 0.7394(2)
H37 H 0.3033 0.7942 0.7057
H38 H 0.2473 0.7499 0.7419
H39 H 0.3100 0.7961 0.7696
N2 N 0.0822(5) 1.0750(6) 0.7463(5)
O19 O 0.0457(4) 1.0840(5) 0.7910(5)
O20 O 0.0978(13) 1.1333(14) 0.7132(10)
O21? O 0.0546(14) 1.1032(13) 0.6983(11)
loop_
_geom_bond_atom_site_label_1
_geom_bond_atom_site_label_2
_geom_bond_site_symmetry_1
_geom_bond_site_symmetry_2
P1 O1 1_555 1_555
O2 P1 1_555 1_555
H1 O2 1_555 1_555
O3 P1 1_555 1_555
O4 P1 1_555 1_555
H2 O4 1_555 1_555
P2 O5 1_555 1_555
O5 H3 1_555 1_555
O6 P2 1_555 1_555
H4 O6 1_555 1_555
O7 P2 1_555 1_555
O8 P2 1_555 1_555
H5 O8 1_555 1_555
P3 O9 1_555 1_555
O10 P3 1_555 1_555
H6 O10 1_555 1_555
O11 P3 1_555 1_555
H7 O11 1_555 1_555
O12 P3 1_555 1_555
H8 O12 1_555 1_555
C1 H9 1_555 1_555
H10 C1 1_555 1_555
C2 C1 1_555 1_555
H11 C2 1_555 1_555
H12 C2 1_555 1_555
C3 H13 1_555 1_555
H14 C3 1_555 1_555
C4 C3 1_555 1_555
H15 C4 1_555 1_555
H16 C4 1_555 1_555
C5 H17 1_555 1_555
H18 C5 1_555 1_555
C6 C5 1_555 1_555
H19 C6 1_555 1_555
H20 C6 1_555 1_555
C7 H21 1_555 1_555
H22 C7 1_555 1_555
C8 C7 1_555 1_555
H23 C8 1_555 1_555
H24 C8 1_555 1_555
C9 H25 1_555 1_555
H26 C9 1_555 1_555
C10 C9 1_555 1_555
H27 C10 1_555 1_555
H28 C10 1_555 1_555
C11 H29 1_555 1_555
H30 C11 1_555 1_555
C12 C11 1_555 1_555
H31 C12 1_555 1_555
H32 C12 1_555 1_555
O13 C1 1_555 1_555
O14 C2 1_555 1_555
O15 C4 1_555 1_555
O16 C6 1_555 1_555
O17 C8 1_555 1_555
O18 C10 1_555 1_555
C13 C14 1_555 1_555
C14 H33 1_555 1_555
C15 C14 1_555 1_555
H34 C15 1_555 1_555
C16 C15 1_555 1_555
C17 C16 1_555 1_555
H35 C17 1_555 1_555
C18 C13 1_555 1_555
H36 C18 1_555 1_555
N1 C13 1_555 1_555
H37 N1 1_555 1_555
H38 N1 1_555 1_555
H39 N1 1_555 1_555
N2 C16 1_555 1_555
O19 N2 1_555 1_555
O20 N2 1_555 1_555
C3 O14 1_555 1_555
C5 O15 1_555 1_555
C7 O16 1_555 1_555
C9 O17 1_555 1_555
C11 O18 1_555 1_555
C12 O13 1_555 1_555
C17 C18 1_555 1_555

#END
