
#######################################################################
#
#                 Cambridge Crystallographic Data Centre
#                                CCDC 
#
#######################################################################
#
# If this CIF has been generated from an entry in the Cambridge 
# Structural Database, then it will include bibliographic, chemical, 
# crystal, experimental, refinement or atomic coordinate data resulting 
# from the CCDC's data processing and validation procedures.
#
#######################################################################

data_ZEWZOT01
_chemical_formula_moiety         
'C12 H24 O6,C6 H7 N2 O2 1+,2(H3 O4 P1),H2 O4 P1 1-'
_chemical_name_systematic        
'4-nitroanilinium 18-crown-6 dihydrogen phosphate bis(phosphoric acid)'
_symmetry_cell_setting           orthorhombic
_symmetry_space_group_name_H-M   'P b c a'
_symmetry_Int_Tables_number      61
_space_group_name_Hall           '-P 2ac 2ab'
loop_
_symmetry_equiv_pos_site_id
_symmetry_equiv_pos_as_xyz
1 x,y,z
2 1/2-x,-y,1/2+z
3 1/2+x,1/2-y,-z
4 -x,1/2+y,1/2-z
5 -x,-y,-z
6 1/2+x,y,1/2-z
7 1/2-x,1/2+y,z
8 x,1/2-y,1/2+z
_cell_length_a                   17.4602(12)
_cell_length_b                   16.0879(11)
_cell_length_c                   22.8144(17)
_cell_angle_alpha                90
_cell_angle_beta                 90
_cell_angle_gamma                90
_cell_volume                     6408.52
_exptl_crystal_colour            yellow
_exptl_crystal_description       block
_cell_formula_units_Z            8
loop_
_atom_site_label
_atom_site_type_symbol
_atom_site_fract_x
_atom_site_fract_y
_atom_site_fract_z
P1 P 0.38935(8) 0.54492(9) 0.51296(7)
O1 O 0.3378(2) 0.6055(2) 0.54411(18)
O2 O 0.4513(2) 0.5846(2) 0.47744(17)
O3 O 0.4243(3) 0.4885(3) 0.5610(2)
H1 H 0.4555 0.4567 0.5461
O4 O 0.3425(3) 0.4915(4) 0.4698(3)
H2 H 0.3046 0.4730 0.4866
P2 P 0.34971(9) 0.02975(11) 0.51796(10)
O5 O 0.3013(3) -0.0387(3) 0.4974(2)
O6 O 0.3049(3) 0.1016(4) 0.5434(3)
O7 O 0.4107(3) 0.0046(3) 0.5638(2)
H3 H 0.4268 -0.0420 0.5563
O8 O 0.3904(3) 0.0605(5) 0.4607(3)
H4 H 0.4261 0.0912 0.4694
H5 H 0.2975(18) 0.0696(19) 0.5833(14)
P3 P 0.56686(9) 0.29503(10) 0.98598(9)
O9 O 0.5175(4) 0.2383(4) 1.0230(3)
O10 O 0.5228(2) 0.3669(3) 0.9636(2)
O11 O 0.5974(3) 0.2450(3) 0.9330(2)
O12 O 0.6345(4) 0.3205(4) 1.0241(3)
H6 H 0.636(4) 0.255(4) 0.962(3)
H7 H 0.660(5) 0.360(6) 1.015(4)
N1 N 0.2777(3) 0.2040(3) 0.7610(2)
H8 H 0.3033 0.2085 0.7275
H9 H 0.3107 0.1992 0.7906
H10 H 0.2488 0.2489 0.7663
C1 C 0.2290(3) 0.1306(4) 0.7590(2)
C2 C 0.1358(4) -0.0026(4) 0.7548(4)
C3 C 0.2076(4) 0.0929(4) 0.8100(3)
H11 H 0.2247 0.1133 0.8458
O13 O 0.0451(4) -0.0848(5) 0.7092(4)
C4 C 0.2026(4) 0.1024(4) 0.7058(3)
H12 H 0.2170 0.1290 0.6713
C5 C 0.1550(4) 0.0348(4) 0.7040(3)
H13 H 0.1363 0.0150 0.6684
N2 N 0.0816(5) -0.0756(5) 0.7530(5)
C6 C 0.1605(4) 0.0243(5) 0.8079(3)
H14 H 0.1459 -0.0029 0.8421
O14 O 0.0983(9) -0.1333(10) 0.7862(7)
O15 O 0.1632(4) 0.3284(5) 0.7753(4)
O16 O 0.3648(4) 0.2203(4) 0.6571(3)
O17 O 0.3714(5) 0.1813(6) 0.8619(4)
O18 O 0.2533(4) 0.3374(4) 0.6741(3)
C7 C 0.3626(9) 0.2232(10) 0.9099(6)
H15 H 0.4041 0.2632 0.9125
H16 H 0.3683 0.1851 0.9426
C8 C 0.2810(7) 0.3177(7) 0.6191(5)
H17 H 0.2801 0.3675 0.5952
H18 H 0.2466 0.2777 0.6012
C9 C 0.4378(7) 0.1822(8) 0.6558(5)
H19 H 0.4757 0.2211 0.6705
H20 H 0.4509 0.1689 0.6156
C10 C 0.3547(7) 0.2851(6) 0.6182(4)
H21 H 0.3661 0.2658 0.5789
H22 H 0.3908 0.3290 0.6277
C11 C 0.1773(7) 0.3660(8) 0.6764(5)
H23 H 0.1427 0.3218 0.6648
H24 H 0.1708 0.4120 0.6493
C12 C 0.1590(7) 0.3933(8) 0.7358(7)
H25 H 0.1945 0.4366 0.7475
H26 H 0.1077 0.4165 0.7365
C13 C 0.1507(9) 0.3615(11) 0.8314(8)
H27 H 0.1680 0.4188 0.8314
H28 H 0.0959 0.3620 0.8386
C14 C 0.1849(10) 0.3220(10) 0.8767(7)
H29 H 0.1902 0.3624 0.9080
H30 H 0.1490 0.2803 0.8906
O19 O 0.2531(6) 0.2840(6) 0.8711(4)
O20 O 0.4311(6) 0.1365(6) 0.7540(5)
C15 C 0.2971(10) 0.2640(11) 0.9169(7)
H31 H 0.3091 0.3153 0.9372
H32 H 0.2657 0.2312 0.9433
C16 C 0.4401(15) 0.1073(13) 0.6906(9)
H33 H 0.4884 0.0786 0.6852
H34 H 0.3987 0.0702 0.6797
C17 C 0.4338(11) 0.1349(13) 0.8591(8)
H35 H 0.4199 0.0770 0.8644
H36 H 0.4683 0.1505 0.8905
C18 C 0.4703(10) 0.1441(13) 0.8066(8)
H37 H 0.5117 0.1039 0.8059
H38 H 0.4938 0.1987 0.8068
O21? O 0.0558(10) -0.0998(10) 0.8052(8)
H39? H 0.4683 0.2089 0.6257
H40? H 0.4315 0.1244 0.6448
C19? C 0.4794(16) 0.1859(19) 0.7109(9)
H41? H 0.4850 0.2430 0.7239
H42? H 0.5298 0.1614 0.7068
H43? H 0.524(5) 0.207(5) 1.031(4)
loop_
_geom_bond_atom_site_label_1
_geom_bond_atom_site_label_2
_geom_bond_site_symmetry_1
_geom_bond_site_symmetry_2
P1 O1 1_555 1_555
O2 P1 1_555 1_555
O3 P1 1_555 1_555
H1 O3 1_555 1_555
O4 P1 1_555 1_555
H2 O4 1_555 1_555
P2 O5 1_555 1_555
O6 P2 1_555 1_555
O7 P2 1_555 1_555
H3 O7 1_555 1_555
O8 P2 1_555 1_555
H4 O8 1_555 1_555
H5 O6 1_555 1_555
P3 O9 1_555 1_555
O10 P3 1_555 1_555
O11 P3 1_555 1_555
O12 P3 1_555 1_555
H6 O11 1_555 1_555
H7 O12 1_555 1_555
N1 H8 1_555 1_555
H9 N1 1_555 1_555
H10 N1 1_555 1_555
C1 N1 1_555 1_555
C2 C5 1_555 1_555
C3 C1 1_555 1_555
H11 C3 1_555 1_555
O13 N2 1_555 1_555
C4 C1 1_555 1_555
H12 C4 1_555 1_555
C5 C4 1_555 1_555
H13 C5 1_555 1_555
N2 C2 1_555 1_555
C6 C2 1_555 1_555
H14 C6 1_555 1_555
O14 N2 1_555 1_555
O15 C12 1_555 1_555
O16 C9 1_555 1_555
O17 C7 1_555 1_555
O18 C8 1_555 1_555
C7 H15 1_555 1_555
H16 C7 1_555 1_555
C8 H17 1_555 1_555
H18 C8 1_555 1_555
C9 H19 1_555 1_555
H20 C9 1_555 1_555
C10 O16 1_555 1_555
H21 C10 1_555 1_555
H22 C10 1_555 1_555
C11 O18 1_555 1_555
H23 C11 1_555 1_555
H24 C11 1_555 1_555
C12 C11 1_555 1_555
H25 C12 1_555 1_555
H26 C12 1_555 1_555
C13 O15 1_555 1_555
H27 C13 1_555 1_555
H28 C13 1_555 1_555
C14 C13 1_555 1_555
H29 C14 1_555 1_555
H30 C14 1_555 1_555
O19 C14 1_555 1_555
O20 C16 1_555 1_555
C15 C7 1_555 1_555
H31 C15 1_555 1_555
H32 C15 1_555 1_555
C16 C9 1_555 1_555
H33 C16 1_555 1_555
H34 C16 1_555 1_555
C17 O17 1_555 1_555
H35 C17 1_555 1_555
H36 C17 1_555 1_555
C18 O20 1_555 1_555
H37 C18 1_555 1_555
H38 C18 1_555 1_555
C3 C6 1_555 1_555
C8 C10 1_555 1_555
O19 C15 1_555 1_555
C17 C18 1_555 1_555

#END
