
#######################################################################
#
#                 Cambridge Crystallographic Data Centre
#                                CCDC 
#
#######################################################################
#
# If this CIF has been generated from an entry in the Cambridge 
# Structural Database, then it will include bibliographic, chemical, 
# crystal, experimental, refinement or atomic coordinate data resulting 
# from the CCDC's data processing and validation procedures.
#
#######################################################################

data_ZEXCUD
_chemical_formula_moiety         'C23 H18 Br1 F1 N2 O4'
_chemical_name_systematic        
N-((1R,2S)-1-(4-bromophenyl)-2-fluoro-3-(2-methylphenyl)-3-oxopropyl)-4-nitrobenzamide
_symmetry_cell_setting           orthorhombic
_symmetry_space_group_name_H-M   'P 21 21 2'
_symmetry_Int_Tables_number      18
_space_group_name_Hall           'P 2 2ab'
loop_
_symmetry_equiv_pos_site_id
_symmetry_equiv_pos_as_xyz
1 x,y,z
2 -x,-y,z
3 1/2-x,1/2+y,-z
4 1/2+x,1/2-y,-z
_cell_length_a                   18.883(3)
_cell_length_b                   21.006(3)
_cell_length_c                   5.3312(8)
_cell_angle_alpha                90
_cell_angle_beta                 90
_cell_angle_gamma                90
_cell_volume                     2114.65
_exptl_crystal_colour            colorless
_exptl_crystal_description       prismatic
_cell_formula_units_Z            4
_exptl_crystal_recrystallization_method 'ethyl acetate/hexane'
loop_
_atom_site_label
_atom_site_type_symbol
_atom_site_fract_x
_atom_site_fract_y
_atom_site_fract_z
Br1 Br 0.36145(6) 0.99683(5) 0.9915(3)
F1 F 0.1370(2) 0.7403(3) 1.2524(9)
N1 N 0.2301(4) 0.6919(4) 0.9107(14)
N2 N 0.4240(5) 0.4409(4) 1.008(3)
O1 O 0.0800(3) 0.6433(3) 1.0115(15)
O2 O 0.2587(3) 0.6735(3) 0.5099(13)
O3 O 0.4463(5) 0.4374(5) 1.221(3)
O4 O 0.4313(6) 0.3998(4) 0.858(2)
C1 C -0.0043(5) 0.7710(4) 0.6813(16)
H1 H 0.0117 0.8031 0.7874
C2 C -0.0520(4) 0.7856(5) 0.497(2)
H2 H -0.0678 0.8273 0.4773
C3 C -0.0764(5) 0.7387(6) 0.343(2)
H3 H -0.1097 0.7480 0.2200
C4 C -0.0519(5) 0.6781(5) 0.370(2)
H4 H -0.0684 0.6467 0.2620
C5 C -0.0032(4) 0.6617(4) 0.5536(15)
C6 C 0.0211(3) 0.7095(4) 0.7142(15)
C7 C 0.0723(4) 0.6953(4) 0.9182(16)
C8 C 0.1210(3) 0.7495(4) 1.0053(16)
H5 H 0.0968 0.7904 0.9845
C9 C 0.1898(4) 0.7495(3) 0.8539(13)
H6 H 0.1771 0.7480 0.6758
C10 C 0.2325(4) 0.8094(3) 0.8961(14)
C11 C 0.2781(4) 0.8167(4) 1.0955(16)
H7 H 0.2834 0.7840 1.2116
C12 C 0.3163(5) 0.8729(5) 1.1241(18)
H8 H 0.3471 0.8776 1.2589
C13 C 0.3085(4) 0.9206(4) 0.955(2)
C14 C 0.2650(5) 0.9136(4) 0.757(2)
H9 H 0.2607 0.9462 0.6395
C15 C 0.2266(4) 0.8581(4) 0.7278(19)
H10 H 0.1963 0.8538 0.5913
C16 C 0.0228(6) 0.5939(4) 0.564(2)
H11 H 0.0056 0.5710 0.4210
H12 H 0.0056 0.5740 0.7148
H13 H 0.0736 0.5935 0.5646
C17 C 0.2622(4) 0.6593(4) 0.7316(17)
C18 C 0.3041(4) 0.6024(3) 0.8126(16)
C19 C 0.3049(5) 0.5494(4) 0.663(2)
H14 H 0.2786 0.5489 0.5153
C20 C 0.3442(6) 0.4969(5) 0.727(2)
H15 H 0.3440 0.4609 0.6253
C21 C 0.3828(4) 0.4981(4) 0.938(2)
C22 C 0.3846(5) 0.5492(5) 1.088(2)
H16 H 0.4126 0.5492 1.2312
C23 C 0.3442(4) 0.6025(4) 1.026(2)
H17 H 0.3446 0.6381 1.1299
H18 H 0.231(3) 0.683(3) 1.068(15)
loop_
_geom_bond_atom_site_label_1
_geom_bond_atom_site_label_2
_geom_bond_site_symmetry_1
_geom_bond_site_symmetry_2
Br1 C13 1_555 1_555
F1 C8 1_555 1_555
N1 C9 1_555 1_555
N2 O3 1_555 1_555
O1 C7 1_555 1_555
O2 C17 1_555 1_555
O4 N2 1_555 1_555
C1 H1 1_555 1_555
C2 C1 1_555 1_555
H2 C2 1_555 1_555
C3 C2 1_555 1_555
H3 C3 1_555 1_555
C4 C3 1_555 1_555
H4 C4 1_555 1_555
C5 C4 1_555 1_555
C6 C1 1_555 1_555
C7 C6 1_555 1_555
C8 C7 1_555 1_555
H5 C8 1_555 1_555
C9 C8 1_555 1_555
H6 C9 1_555 1_555
C10 C9 1_555 1_555
C11 C10 1_555 1_555
H7 C11 1_555 1_555
C12 C11 1_555 1_555
H8 C12 1_555 1_555
C13 C12 1_555 1_555
C14 C13 1_555 1_555
H9 C14 1_555 1_555
C15 C10 1_555 1_555
H10 C15 1_555 1_555
C16 C5 1_555 1_555
H11 C16 1_555 1_555
H12 C16 1_555 1_555
H13 C16 1_555 1_555
C17 N1 1_555 1_555
C18 C17 1_555 1_555
C19 C18 1_555 1_555
H14 C19 1_555 1_555
C20 C19 1_555 1_555
H15 C20 1_555 1_555
C21 N2 1_555 1_555
C22 C21 1_555 1_555
H16 C22 1_555 1_555
C23 C18 1_555 1_555
H17 C23 1_555 1_555
H18 N1 1_555 1_555
C5 C6 1_555 1_555
C14 C15 1_555 1_555
C20 C21 1_555 1_555
C22 C23 1_555 1_555

#END
