
#######################################################################
#
#                 Cambridge Crystallographic Data Centre
#                                CCDC 
#
#######################################################################
#
# If this CIF has been generated from an entry in the Cambridge 
# Structural Database, then it will include bibliographic, chemical, 
# crystal, experimental, refinement or atomic coordinate data resulting 
# from the CCDC's data processing and validation procedures.
#
#######################################################################

data_ZEXDEO
_chemical_name_common            LY2794193
_chemical_formula_moiety         'C16 H18 N2 O6'
_chemical_name_systematic        
'(1S,2S,4S,5R,6S)-2-Ammonio-2-carboxylato-4-((3-methoxybenzoyl)amino)bicyclo[3.1.0]hexane-6-carboxylic acid'
_chemical_properties_biological  'selective mGlu3 receptor activity'
_symmetry_cell_setting           monoclinic
_symmetry_space_group_name_H-M   'C 2'
_symmetry_Int_Tables_number      5
_space_group_name_Hall           'C 2y'
loop_
_symmetry_equiv_pos_site_id
_symmetry_equiv_pos_as_xyz
1 x,y,z
2 -x,y,-z
3 1/2+x,1/2+y,z
4 1/2-x,1/2+y,-z
_cell_length_a                   19.056(14)
_cell_length_b                   11.270(10)
_cell_length_c                   7.054(4)
_cell_angle_alpha                90
_cell_angle_beta                 100.689(6)
_cell_angle_gamma                90
_cell_volume                     1488.64
_exptl_crystal_description       prismatic
_cell_formula_units_Z            4
loop_
_atom_site_label
_atom_site_type_symbol
_atom_site_fract_x
_atom_site_fract_y
_atom_site_fract_z
O1 O 0.69724(15) 1.0085(2) 0.6352(4)
O2 O 0.68070(15) 0.8522(3) 0.4367(4)
O3 O 0.45744(14) 0.6297(3) 0.7160(4)
O4 O 0.52414(17) 0.1126(3) 0.7916(5)
N1 N 0.56524(17) 0.5500(3) 0.8405(5)
C1 C 0.68583(19) 0.9026(3) 0.6071(5)
C2 C 0.70701(19) 0.6937(3) 0.7491(5)
C3 C 0.4957(2) 0.5417(4) 0.7534(5)
C4 C 0.6671(2) 0.6460(4) 1.0466(5)
C5 C 0.67799(19) 0.8181(3) 0.7614(5)
C6 C 0.62806(19) 0.7134(3) 0.7170(5)
C7 C 0.46711(19) 0.4189(4) 0.7130(5)
C8 C 0.5077(2) 0.3177(4) 0.7707(5)
H1 H 0.5555 0.3258 0.8376
C9 C 0.5996(2) 0.6632(3) 0.8893(5)
C10 C 0.3684(2) 0.2945(5) 0.5764(6)
H2 H 0.3204 0.2863 0.5106
C11 C 0.3968(2) 0.4063(4) 0.6125(5)
H3 H 0.3690 0.4744 0.5695
C12 C 0.4084(2) 0.1933(4) 0.6342(6)
H4 H 0.3880 0.1168 0.6079
C13 C 0.4788(2) 0.2054(4) 0.7315(6)
C14 C 0.4940(4) -0.0038(5) 0.7612(10)
H5 H 0.4526 -0.0102 0.8247
H6 H 0.5299 -0.0629 0.8155
H7 H 0.4790 -0.0179 0.6225
C15 C 0.72966(18) 0.6290(3) 0.9386(5)
N2 N 0.79870(17) 0.6763(3) 1.0542(5)
O5 O 0.69831(13) 0.4227(2) 0.8818(4)
O6 O 0.80731(14) 0.4849(2) 0.8482(3)
C16 C 0.74602(19) 0.4992(3) 0.8864(5)
H8 H 0.5658(18) 0.721(3) 0.931(5)
H9 H 0.728(2) 0.675(4) 0.644(7)
H10 H 0.600(2) 0.709(4) 0.581(7)
H11 H 0.679(2) 0.852(4) 0.874(7)
H12 H 0.808(3) 0.633(6) 1.165(9)
H13 H 0.596(2) 0.486(4) 0.843(6)
H14 H 0.791(2) 0.755(5) 1.077(7)
H15 H 0.688(4) 0.894(7) 0.346(11)
H16 H 0.659(2) 0.578(4) 1.121(7)
H17 H 0.676(2) 0.715(4) 1.120(6)
H18 H 0.835(2) 0.657(4) 1.002(6)
loop_
_geom_bond_atom_site_label_1
_geom_bond_atom_site_label_2
_geom_bond_site_symmetry_1
_geom_bond_site_symmetry_2
O1 C1 1_555 1_555
O2 C1 1_555 1_555
O3 C3 1_555 1_555
O4 C13 1_555 1_555
N1 C3 1_555 1_555
C1 C5 1_555 1_555
C2 C5 1_555 1_555
C3 C7 1_555 1_555
C4 C9 1_555 1_555
C5 C6 1_555 1_555
C6 C2 1_555 1_555
C7 C8 1_555 1_555
C8 H1 1_555 1_555
C9 N1 1_555 1_555
C10 H2 1_555 1_555
C11 C7 1_555 1_555
H3 C11 1_555 1_555
C12 C10 1_555 1_555
H4 C12 1_555 1_555
C13 C8 1_555 1_555
C14 O4 1_555 1_555
H5 C14 1_555 1_555
H6 C14 1_555 1_555
H7 C14 1_555 1_555
C15 C2 1_555 1_555
N2 C15 1_555 1_555
O5 C16 1_555 1_555
O6 C16 1_555 1_555
C16 C15 1_555 1_555
H8 C9 1_555 1_555
H9 C2 1_555 1_555
H10 C6 1_555 1_555
H11 C5 1_555 1_555
H12 N2 1_555 1_555
H13 N1 1_555 1_555
H14 N2 1_555 1_555
H15 O2 1_555 1_555
H16 C4 1_555 1_555
H17 C4 1_555 1_555
H18 N2 1_555 1_555
C4 C15 1_555 1_555
C6 C9 1_555 1_555
C10 C11 1_555 1_555
C12 C13 1_555 1_555

#END
