
#######################################################################
#
#                 Cambridge Crystallographic Data Centre
#                                CCDC 
#
#######################################################################
#
# If this CIF has been generated from an entry in the Cambridge 
# Structural Database, then it will include bibliographic, chemical, 
# crystal, experimental, refinement or atomic coordinate data resulting 
# from the CCDC's data processing and validation procedures.
#
#######################################################################

data_ZEXKIY
_chemical_formula_moiety         'C22 H24 Br1 N1 O2'
_chemical_name_systematic        
't-Butyl 2-(4-bromobenzyl)-5-phenyl-3,4-dihydro-2H-pyrrole-2-carboxylate'
_symmetry_cell_setting           monoclinic
_symmetry_space_group_name_H-M   'P 21'
_symmetry_Int_Tables_number      4
_space_group_name_Hall           'P 2yb'
loop_
_symmetry_equiv_pos_site_id
_symmetry_equiv_pos_as_xyz
1 x,y,z
2 -x,1/2+y,-z
_cell_length_a                   12.297(3)
_cell_length_b                   5.9174(9)
_cell_length_c                   14.699(3)
_cell_angle_alpha                90
_cell_angle_beta                 105.678(4)
_cell_angle_gamma                90
_cell_volume                     1029.8
_exptl_crystal_colour            colorless
_exptl_crystal_description       chunk
_cell_formula_units_Z            2
loop_
_atom_site_label
_atom_site_type_symbol
_atom_site_fract_x
_atom_site_fract_y
_atom_site_fract_z
Br1 Br 0.77891(5) 0.99980(13) 0.30750(3)
O1 O 0.7022(3) 0.6361(5) 0.7135(3)
O2 O 0.7961(4) 0.8994(9) 0.8091(4)
N1 N 0.9988(4) 0.7290(7) 0.7994(3)
C1 C 0.8649(4) 0.5915(7) 0.5928(4)
C2 C 1.1788(4) 0.7613(7) 0.9137(3)
C3 C 1.2107(4) 0.9482(9) 0.8687(4)
C4 C 0.7889(4) 0.5109(12) 0.5116(4)
C5 C 0.8885(5) 0.9196(8) 0.5014(4)
C6 C 0.8969(4) 0.5793(8) 0.7744(4)
C7 C 1.0288(4) 0.4531(8) 0.9199(4)
C8 C 0.8143(5) 0.8336(9) 0.4240(4)
C9 C 1.2535(5) 0.6829(9) 0.9950(4)
C10 C 0.5920(5) 0.7480(10) 0.6927(4)
C11 C 1.0680(4) 0.6561(7) 0.8749(4)
C12 C 1.3565(5) 0.7833(11) 1.0308(4)
C13 C 1.3869(5) 0.9627(12) 0.9876(4)
C14 C 0.8918(4) 0.4588(8) 0.6818(4)
C15 C 0.9140(5) 0.8034(8) 0.5848(4)
C16 C 0.7642(5) 0.6265(10) 0.4275(4)
C17 C 0.7951(5) 0.7264(10) 0.7670(4)
C18 C 1.3147(5) 1.0466(10) 0.9043(4)
C19 C 0.9104(5) 0.4151(10) 0.8588(4)
C20 C 0.5171(5) 0.5978(13) 0.6225(6)
C21 C 0.5524(6) 0.7790(15) 0.7749(5)
C22 C 0.6034(7) 0.9765(18) 0.6463(7)
H1 H 1.1611 1.0064 0.8144
H2 H 0.7532 0.3734 0.5142
H3 H 0.9225 1.0586 0.4979
H4 H 1.0762 0.3227 0.9188
H5 H 1.0290 0.4846 0.9847
H6 H 1.2336 0.5595 1.0263
H7 H 1.4059 0.7266 1.0855
H8 H 1.4564 1.0316 1.0132
H9 H 0.9643 0.3866 0.6885
H10 H 0.8360 0.3394 0.6742
H11 H 0.9648 0.8655 0.6376
H12 H 0.7145 0.5661 0.3738
H13 H 1.3367 1.1678 0.8731
H14 H 0.8555 0.4486 0.8935
H15 H 0.9004 0.2598 0.8370
H16 H 0.5034 0.4616 0.6530
H17 H 0.5527 0.5613 0.5737
H18 H 0.4467 0.6733 0.5951
H19 H 0.5943 0.8984 0.8129
H20 H 0.5626 0.6415 0.8109
H21 H 0.4736 0.8176 0.7560
H22 H 0.6344 0.9529 0.5937
H23 H 0.6525 1.0735 0.6916
H24 H 0.5303 1.0456 0.6245
loop_
_geom_bond_atom_site_label_1
_geom_bond_atom_site_label_2
_geom_bond_site_symmetry_1
_geom_bond_site_symmetry_2
Br1 C8 1_555 1_555
O1 C10 1_555 1_555
O2 C17 1_555 1_555
N1 C6 1_555 1_555
C1 C4 1_555 1_555
C2 C3 1_555 1_555
C3 C18 1_555 1_555
C4 C16 1_555 1_555
C5 C8 1_555 1_555
C6 C14 1_555 1_555
C7 C11 1_555 1_555
C8 C16 1_555 1_555
C9 C2 1_555 1_555
C10 C20 1_555 1_555
C11 N1 1_555 1_555
C12 C9 1_555 1_555
C13 C12 1_555 1_555
C14 C1 1_555 1_555
C15 C1 1_555 1_555
C16 H12 1_555 1_555
C17 O1 1_555 1_555
C18 C13 1_555 1_555
C19 C6 1_555 1_555
C20 H16 1_555 1_555
C21 C10 1_555 1_555
C22 C10 1_555 1_555
H1 C3 1_555 1_555
H2 C4 1_555 1_555
H3 C5 1_555 1_555
H4 C7 1_555 1_555
H5 C7 1_555 1_555
H6 C9 1_555 1_555
H7 C12 1_555 1_555
H8 C13 1_555 1_555
H9 C14 1_555 1_555
H10 C14 1_555 1_555
H11 C15 1_555 1_555
H13 C18 1_555 1_555
H14 C19 1_555 1_555
H15 C19 1_555 1_555
H17 C20 1_555 1_555
H18 C20 1_555 1_555
H19 C21 1_555 1_555
H20 C21 1_555 1_555
H21 C21 1_555 1_555
H22 C22 1_555 1_555
H23 C22 1_555 1_555
H24 C22 1_555 1_555
C2 C11 1_555 1_555
C5 C15 1_555 1_555
C6 C17 1_555 1_555
C7 C19 1_555 1_555

#END
