
#######################################################################
#
#                 Cambridge Crystallographic Data Centre
#                                CCDC 
#
#######################################################################
#
# If this CIF has been generated from an entry in the Cambridge 
# Structural Database, then it will include bibliographic, chemical, 
# crystal, experimental, refinement or atomic coordinate data resulting 
# from the CCDC's data processing and validation procedures.
#
#######################################################################

data_ZEXKUL
_chemical_formula_moiety         'C27 H28 N2 O4 S1'
_chemical_name_systematic        
N-benzyl-4-methyl-N-[2-methyl-2-(2-oxopropyl)-5-phenyl-2,5-dihydro-1,3-oxazol-4-yl]benzene-1-sulfonamide
_symmetry_cell_setting           monoclinic
_symmetry_space_group_name_H-M   'P 21/n'
_symmetry_Int_Tables_number      14
_space_group_name_Hall           '-P 2yn'
loop_
_symmetry_equiv_pos_site_id
_symmetry_equiv_pos_as_xyz
1 x,y,z
2 1/2-x,1/2+y,1/2-z
3 -x,-y,-z
4 1/2+x,1/2-y,1/2+z
_cell_length_a                   13.6905(7)
_cell_length_b                   9.2278(3)
_cell_length_c                   20.5114(11)
_cell_angle_alpha                90
_cell_angle_beta                 106.721(5)
_cell_angle_gamma                90
_cell_volume                     2481.7
_exptl_crystal_colour            colorless
_exptl_crystal_description       prism
_cell_formula_units_Z            4
loop_
_atom_site_label
_atom_site_type_symbol
_atom_site_fract_x
_atom_site_fract_y
_atom_site_fract_z
C1 C -0.1302(3) -0.3057(4) 0.1713(3)
H1 H -0.1272 -0.4031 0.1603
C2 C -0.1028(3) -0.2008(4) 0.13191(19)
H2 H -0.0807 -0.2282 0.0949
C3 C -0.1079(2) -0.0557(3) 0.14675(15)
C4 C 0.0425(2) 0.3456(3) 0.29112(14)
C5 C -0.0194(6) 0.3781(7) 0.4080(2)
H3 H -0.0401 0.3889 0.4471
C6 C -0.1397(3) -0.0185(4) 0.2030(2)
H4 H -0.1436 0.0788 0.2137
C7 C -0.1657(4) -0.1224(5) 0.2430(3)
H5 H -0.1858 -0.0955 0.2810
C8 C -0.0820(2) 0.0578(3) 0.10158(14)
H6 H -0.0373 0.0173 0.0765
C9 C -0.0372(2) 0.1954(3) 0.13758(14)
C10 C -0.2775(4) 0.2951(6) 0.0869(3)
H7 H -0.3358 0.2625 0.0515
H8 H -0.2834 0.3972 0.0940
H9 H -0.2741 0.2440 0.1283
C11 C -0.1814(3) 0.2659(4) 0.06639(19)
C12 C -0.1846(3) 0.3493(5) 0.0018(2)
H10 H -0.2468 0.3221 -0.0327
H11 H -0.1901 0.4515 0.0111
C13 C -0.0976(3) 0.3310(4) -0.02831(16)
C14 C -0.1052(3) 0.4204(5) -0.0901(2)
H12 H -0.1231 0.5181 -0.0821
H13 H -0.1567 0.3807 -0.1280
H14 H -0.0408 0.4201 -0.1000
C15 C 0.0792(3) 0.3399(4) 0.22937(19)
H15 H 0.0490 0.4196 0.1995
H16 H 0.1526 0.3532 0.2431
C16 C -0.0544(5) 0.3588(8) 0.2934(3)
H17 H -0.1058 0.3569 0.2523
C17 C -0.0827(6) 0.3745(11) 0.3517(4)
H18 H -0.1516 0.3828 0.3486
C18 C 0.0918(6) 0.3915(8) 0.4118(3)
H19 H 0.1402 0.4124 0.4529
C19 C 0.1211(5) 0.3717(7) 0.3516(3)
H20 H 0.1891 0.3758 0.3519
C20 C 0.2295(2) 0.1765(3) 0.15262(18)
C21 C 0.2079(3) 0.1623(5) 0.0834(2)
H21 H 0.1512 0.1096 0.0590
C22 C 0.2711(3) 0.2271(6) 0.0504(2)
H22 H 0.2560 0.2183 0.0033
C23 C 0.3553(3) 0.3039(5) 0.0851(3)
C24 C 0.3756(3) 0.3158(6) 0.1549(3)
H23 H 0.4327 0.3674 0.1794
C25 C 0.3138(3) 0.2534(4) 0.1890(2)
H24 H 0.3285 0.2628 0.2359
C26 C 0.4231(4) 0.3745(8) 0.0473(4)
H25 H 0.3844 0.3919 0.0009
H26 H 0.4793 0.3114 0.0483
H27 H 0.4486 0.4648 0.0687
C27 C -0.1618(4) -0.2674(5) 0.2265(3)
H28 H -0.1805 -0.3384 0.2528
N1 N 0.0541(2) 0.2015(3) 0.19088(13)
N2 N -0.0913(2) 0.3070(3) 0.12087(14)
O1 O 0.11399(18) -0.0387(2) 0.16306(14)
O2 O 0.2073(2) 0.0907(3) 0.26749(15)
O3 O -0.17378(18) 0.1138(3) 0.05534(11)
O4 O -0.0267(2) 0.2528(3) -0.00492(13)
S1 S 0.15248(7) 0.09223(9) 0.19683(5)
C28? C -0.0072(7) 0.4993(5) 0.3709(3)
H29? H -0.0198 0.5913 0.3852
C29? C 0.0238(6) 0.4831(3) 0.3125(3)
H30? H 0.0319 0.5643 0.2877
C30? C 0.0303(7) 0.2244(3) 0.3282(3)
H31? H 0.0428 0.1324 0.3139
C31? C -0.0007(7) 0.2406(5) 0.3867(3)
H32? H -0.0089 0.1594 0.4115
loop_
_geom_bond_atom_site_label_1
_geom_bond_atom_site_label_2
_geom_bond_site_symmetry_1
_geom_bond_site_symmetry_2
C1 H1 1_555 1_555
C2 C1 1_555 1_555
H2 C2 1_555 1_555
C3 C2 1_555 1_555
C4 C15 1_555 1_555
C5 H3 1_555 1_555
C6 C3 1_555 1_555
H4 C6 1_555 1_555
C7 C6 1_555 1_555
H5 C7 1_555 1_555
C8 C3 1_555 1_555
H6 C8 1_555 1_555
C9 C8 1_555 1_555
C10 H7 1_555 1_555
H8 C10 1_555 1_555
H9 C10 1_555 1_555
C11 C10 1_555 1_555
C12 C11 1_555 1_555
H10 C12 1_555 1_555
H11 C12 1_555 1_555
C13 C12 1_555 1_555
C14 C13 1_555 1_555
H12 C14 1_555 1_555
H13 C14 1_555 1_555
H14 C14 1_555 1_555
C15 H15 1_555 1_555
H16 C15 1_555 1_555
C16 C4 1_555 1_555
H17 C16 1_555 1_555
C17 C5 1_555 1_555
H18 C17 1_555 1_555
C18 C5 1_555 1_555
H19 C18 1_555 1_555
C19 C4 1_555 1_555
H20 C19 1_555 1_555
C20 C21 1_555 1_555
C21 H21 1_555 1_555
C22 C21 1_555 1_555
H22 C22 1_555 1_555
C23 C22 1_555 1_555
C24 C23 1_555 1_555
H23 C24 1_555 1_555
C25 C20 1_555 1_555
H24 C25 1_555 1_555
C26 C23 1_555 1_555
H25 C26 1_555 1_555
H26 C26 1_555 1_555
H27 C26 1_555 1_555
C27 C1 1_555 1_555
H28 C27 1_555 1_555
N1 C9 1_555 1_555
N2 C9 1_555 1_555
O1 S1 1_555 1_555
O2 S1 1_555 1_555
O3 C8 1_555 1_555
O4 C13 1_555 1_555
S1 C20 1_555 1_555
C7 C27 1_555 1_555
C11 N2 1_555 1_555
C11 O3 1_555 1_555
C15 N1 1_555 1_555
C16 C17 1_555 1_555
C18 C19 1_555 1_555
C24 C25 1_555 1_555
N1 S1 1_555 1_555

#END
