
#######################################################################
#
#                 Cambridge Crystallographic Data Centre
#                                CCDC 
#
#######################################################################
#
# If this CIF has been generated from an entry in the Cambridge 
# Structural Database, then it will include bibliographic, chemical, 
# crystal, experimental, refinement or atomic coordinate data resulting 
# from the CCDC's data processing and validation procedures.
#
#######################################################################

data_ZEXPOJ
_chemical_formula_moiety         'C8 H4 N1 O6 1-,C6 H7 N2 O1 1+'
_chemical_name_systematic        
'3-(carbamoyl)pyridinium 2-carboxy-4-nitrobenzoate'
_symmetry_cell_setting           monoclinic
_symmetry_space_group_name_H-M   'P 21/c'
_symmetry_Int_Tables_number      14
_space_group_name_Hall           '-P 2ybc'
loop_
_symmetry_equiv_pos_site_id
_symmetry_equiv_pos_as_xyz
1 x,y,z
2 -x,1/2+y,1/2-z
3 -x,-y,-z
4 x,1/2-y,1/2+z
_cell_length_a                   15.0173(14)
_cell_length_b                   12.9849(13)
_cell_length_c                   7.7281(6)
_cell_angle_alpha                90
_cell_angle_beta                 111.6040(10)
_cell_angle_gamma                90
_cell_volume                     1401.1
_exptl_crystal_colour            colorless
_exptl_crystal_description       block
_cell_formula_units_Z            4
loop_
_atom_site_label
_atom_site_type_symbol
_atom_site_fract_x
_atom_site_fract_y
_atom_site_fract_z
N1 N 1.11769(13) 0.38627(14) 0.4793(3)
H1 H 1.1788 0.3926 0.5318
N2 N 0.84603(14) 0.38028(18) -0.0877(3)
H2 H 0.8209 0.3820 -0.2073
H3 H 0.8099 0.3768 -0.0237
O1 O 0.99432(13) 0.38794(15) -0.0871(2)
C1 C 0.94025(17) 0.38299(19) -0.0023(3)
C2 C 1.07770(16) 0.38781(17) 0.2940(3)
H4 H 1.1160 0.3952 0.2238
C3 C 0.97996(15) 0.37850(16) 0.2062(3)
C4 C 0.92519(16) 0.36730(17) 0.3141(3)
H5 H 0.8590 0.3613 0.2582
C5 C 0.96918(17) 0.36503(18) 0.5064(3)
H6 H 0.9329 0.3566 0.5804
C6 C 1.06583(17) 0.37523(17) 0.5856(3)
H7 H 1.0959 0.3745 0.7145
N3 N 0.29347(14) 0.3341(2) 0.0061(3)
O2 O 0.72699(11) 0.42017(14) 0.4972(2)
O3 O 0.70436(12) 0.56226(13) 0.3265(2)
O4 O 0.70307(12) 0.33658(14) 0.0994(3)
O5 O 0.62048(12) 0.19468(13) 0.1014(3)
H8 H 0.6646 0.1664 0.0817
O6 O 0.27958(13) 0.25593(16) -0.0860(3)
O7 O 0.23028(13) 0.38417(19) 0.0294(3)
C7 C 0.67832(15) 0.47763(18) 0.3653(3)
C8 C 0.63571(15) 0.29370(18) 0.1172(3)
C9 C 0.57716(15) 0.44250(16) 0.2542(3)
C10 C 0.55799(15) 0.35095(16) 0.1518(3)
C11 C 0.46458(15) 0.31561(18) 0.0716(3)
H9 H 0.4510 0.2544 0.0043
C12 C 0.39233(15) 0.37273(19) 0.0936(3)
C13 C 0.40858(17) 0.4638(2) 0.1894(4)
H10 H 0.3582 0.5014 0.2001
C14 C 0.50154(17) 0.49835(18) 0.2695(3)
H11 H 0.5139 0.5601 0.3350
loop_
_geom_bond_atom_site_label_1
_geom_bond_atom_site_label_2
_geom_bond_site_symmetry_1
_geom_bond_site_symmetry_2
N1 H1 1_555 1_555
N2 H2 1_555 1_555
H3 N2 1_555 1_555
O1 C1 1_555 1_555
C1 N2 1_555 1_555
C2 N1 1_555 1_555
H4 C2 1_555 1_555
C3 C1 1_555 1_555
C4 C3 1_555 1_555
H5 C4 1_555 1_555
C5 C4 1_555 1_555
H6 C5 1_555 1_555
C6 N1 1_555 1_555
H7 C6 1_555 1_555
N3 O6 1_555 1_555
O2 C7 1_555 1_555
O3 C7 1_555 1_555
O4 C8 1_555 1_555
O5 H8 1_555 1_555
O7 N3 1_555 1_555
C7 C9 1_555 1_555
C8 O5 1_555 1_555
C9 C10 1_555 1_555
C10 C8 1_555 1_555
C11 C10 1_555 1_555
H9 C11 1_555 1_555
C12 N3 1_555 1_555
C13 C12 1_555 1_555
H10 C13 1_555 1_555
C14 C9 1_555 1_555
H11 C14 1_555 1_555
C2 C3 1_555 1_555
C5 C6 1_555 1_555
C11 C12 1_555 1_555
C13 C14 1_555 1_555

#END
