
#######################################################################
#
#                 Cambridge Crystallographic Data Centre
#                                CCDC 
#
#######################################################################
#
# If this CIF has been generated from an entry in the Cambridge 
# Structural Database, then it will include bibliographic, chemical, 
# crystal, experimental, refinement or atomic coordinate data resulting 
# from the CCDC's data processing and validation procedures.
#
#######################################################################

data_ZEXQAU01
_chemical_formula_moiety         'C9 H3 N3'
_chemical_name_systematic        benzene-1,3,5-tricarbonitrile
_symmetry_cell_setting           monoclinic
_symmetry_space_group_name_H-M   'P 21'
_symmetry_Int_Tables_number      4
_space_group_name_Hall           'P 2yb'
loop_
_symmetry_equiv_pos_site_id
_symmetry_equiv_pos_as_xyz
1 x,y,z
2 -x,1/2+y,-z
_cell_length_a                   3.8397(8)
_cell_length_b                   7.7446(15)
_cell_length_c                   13.585(3)
_cell_angle_alpha                90
_cell_angle_beta                 93.79(3)
_cell_angle_gamma                90
_cell_volume                     403.093
_exptl_crystal_colour            colorless
_exptl_crystal_description       plate
_cell_formula_units_Z            2
loop_
_atom_site_label
_atom_site_type_symbol
_atom_site_fract_x
_atom_site_fract_y
_atom_site_fract_z
C1 C 0.6567(4) 1.15582(18) 0.24660(11)
C2 C 0.7126(4) 1.0578(2) 0.33172(12)
H1 H 0.8298 1.1059 0.3891
C3 C 0.5942(4) 0.8878(2) 0.33164(11)
C4 C 0.4215(4) 0.81672(19) 0.24837(10)
H2 H 0.3412 0.7007 0.2489
C5 C 0.3678(4) 0.91775(19) 0.16407(11)
C6 C 0.4838(4) 1.08701(18) 0.16251(11)
H3 H 0.4456 1.1552 0.1047
N1 N 0.8976(4) 1.4679(2) 0.24604(15)
C7 C 0.7860(5) 1.3314(2) 0.24599(14)
N2 N 0.7114(5) 0.7022(3) 0.48885(15)
C8 C 0.6570(5) 0.7842(3) 0.41936(14)
N3 N 0.0448(4) 0.7843(2) 0.00906(12)
C9 C 0.1884(4) 0.8436(2) 0.07725(12)
loop_
_geom_bond_atom_site_label_1
_geom_bond_atom_site_label_2
_geom_bond_site_symmetry_1
_geom_bond_site_symmetry_2
C1 C2 1_555 1_555
C2 H1 1_555 1_555
C3 C2 1_555 1_555
C4 C3 1_555 1_555
H2 C4 1_555 1_555
C5 C4 1_555 1_555
C6 C1 1_555 1_555
H3 C6 1_555 1_555
N1 C7 1_555 1_555
C7 C1 1_555 1_555
N2 C8 1_555 1_555
C8 C3 1_555 1_555
N3 C9 1_555 1_555
C9 C5 1_555 1_555
C5 C6 1_555 1_555

#END
