
#######################################################################
#
#                 Cambridge Crystallographic Data Centre
#                                CCDC 
#
#######################################################################
#
# If this CIF has been generated from an entry in the Cambridge 
# Structural Database, then it will include bibliographic, chemical, 
# crystal, experimental, refinement or atomic coordinate data resulting 
# from the CCDC's data processing and validation procedures.
#
#######################################################################

data_ZEXQUO01
_chemical_formula_moiety         'C10 H8 S8 1+,Cl1 O4 1-'
_chemical_name_systematic        
'bis(Ethylenedithio)tetrathiafulvalene perchlorate'
_symmetry_cell_setting           monoclinic
_symmetry_space_group_name_H-M   'C 2/c'
_symmetry_Int_Tables_number      15
_space_group_name_Hall           '-C 2yn'
loop_
_symmetry_equiv_pos_site_id
_symmetry_equiv_pos_as_xyz
1 x,y,z
2 1/2+x,1/2+y,z
3 x,-y,1/2+z
4 1/2+x,1/2-y,1/2+z
5 -x,-y,-z
6 1/2-x,1/2-y,-z
7 -x,y,1/2-z
8 1/2-x,1/2+y,1/2-z
_cell_length_a                   15.981(3)
_cell_length_b                   10.627(2)
_cell_length_c                   11.495(2)
_cell_angle_alpha                90
_cell_angle_beta                 120.61(3)
_cell_angle_gamma                90
_cell_volume                     1680.16
_exptl_crystal_colour            black
_exptl_crystal_description       plate
_cell_formula_units_Z            3
loop_
_atom_site_label
_atom_site_type_symbol
_atom_site_fract_x
_atom_site_fract_y
_atom_site_fract_z
S1 S 0.43047(5) 0.64126(7) 0.05895(8)
S2 S 0.42225(6) 0.36707(7) 0.05486(9)
S3 S 0.30222(6) 0.67307(8) 0.17245(9)
S4 S 0.29147(7) 0.34785(8) 0.16353(10)
C1 C 0.4687(2) 0.5017(2) 0.0251(4)
C2 C 0.3555(2) 0.4442(3) 0.1144(3)
C3 C 0.3608(2) 0.5727(3) 0.1181(3)
C4 C 0.2100(3) 0.4557(4) 0.1796(5)
H1 H 0.1470 0.4152 0.1408
H2 H 0.2340 0.4669 0.2752
C5 C 0.1948(2) 0.5812(3) 0.1186(4)
H3 H 0.1515 0.6278 0.1388
H4 H 0.1622 0.5715 0.0213
C1D C 0.5313(2) 0.4983(2) -0.0251(4)
S1D S 0.56953(5) 0.35874(7) -0.05895(8)
C3D C 0.6392(2) 0.4273(3) -0.1181(3)
S3D S 0.69778(6) 0.32693(8) -0.17245(9)
C5D C 0.8052(2) 0.4188(3) -0.1186(4)
C4D C 0.7900(3) 0.5443(4) -0.1796(5)
S4D S 0.70853(7) 0.65215(8) -0.16353(10)
C2D C 0.6445(2) 0.5558(3) -0.1144(3)
S2D S 0.57775(6) 0.63293(7) -0.05486(9)
H1D H 0.8530 0.5848 -0.1408
H2D H 0.7660 0.5331 -0.2752
H3D H 0.8485 0.3722 -0.1388
H4D H 0.8378 0.4285 -0.0213
Cl1 Cl 0.5000 0.03273(16) 0.2500
O1 O 0.4147(3) 0.0973(5) 0.1916(6)
O3 O 0.4991(6) 0.0517(10) 0.1136(8)
O1F O 0.5853(3) 0.0973(5) 0.3084(6)
O3F O 0.5009(6) 0.0517(10) 0.3864(8)
O2? O 0.5000 -0.0885(6) 0.2500
loop_
_geom_bond_atom_site_label_1
_geom_bond_atom_site_label_2
_geom_bond_site_symmetry_1
_geom_bond_site_symmetry_2
S1 C1 1_555 1_555
S2 C1 1_555 1_555
S3 C3 1_555 1_555
S4 C2 1_555 1_555
C1 C1D 1_555 1_555
C2 S2 1_555 1_555
C3 S1 1_555 1_555
C4 S4 1_555 1_555
H1 C4 1_555 1_555
H2 C4 1_555 1_555
C5 S3 1_555 1_555
H3 C5 1_555 1_555
H4 C5 1_555 1_555
Cl1 O1 1_555 1_555
O3 Cl1 1_555 1_555
C1D S1D 1_555 1_555
S1D C3D 1_555 1_555
C3D S3D 1_555 1_555
S3D C5D 1_555 1_555
C5D C4D 1_555 1_555
C4D S4D 1_555 1_555
S4D C2D 1_555 1_555
C2D C3D 1_555 1_555
S2D C1D 1_555 1_555
H1D C4D 1_555 1_555
H2D C4D 1_555 1_555
H3D C5D 1_555 1_555
H4D C5D 1_555 1_555
O1F Cl1 1_555 1_555
O3F Cl1 1_555 1_555
C2 C3 1_555 1_555
C4 C5 1_555 1_555
C2D S2D 1_555 1_555

#END
