
#######################################################################
#
#                 Cambridge Crystallographic Data Centre
#                                CCDC 
#
#######################################################################
#
# If this CIF has been generated from an entry in the Cambridge 
# Structural Database, then it will include bibliographic, chemical, 
# crystal, experimental, refinement or atomic coordinate data resulting 
# from the CCDC's data processing and validation procedures.
#
#######################################################################

data_ZEXRIG
_chemical_formula_moiety         'C18 H23 Cl1 N2 O5 S1'
_chemical_name_systematic        
1-(4-Chloro-2-hydroxy-3-(((S)-3-methyltetrahydrofuran-3-yl)sulfonyl)phenyl)-3-((R)-2-methylcyclopent-2-en-1-yl)urea
_chemical_properties_biological  'CXCR2 antagonist and CNS penetrant activity'
_symmetry_cell_setting           orthorhombic
_symmetry_space_group_name_H-M   'P 21 21 21'
_symmetry_Int_Tables_number      19
_space_group_name_Hall           'P 2ac 2ab'
loop_
_symmetry_equiv_pos_site_id
_symmetry_equiv_pos_as_xyz
1 x,y,z
2 1/2-x,-y,1/2+z
3 -x,1/2+y,1/2-z
4 1/2+x,1/2-y,-z
_cell_length_a                   11.9118(2)
_cell_length_b                   15.4757(4)
_cell_length_c                   21.1168(5)
_cell_angle_alpha                90
_cell_angle_beta                 90
_cell_angle_gamma                90
_cell_volume                     3892.74
_exptl_crystal_colour            colorless
_exptl_crystal_description       rod
_cell_formula_units_Z            8
_exptl_crystal_recrystallization_method toluene
loop_
_atom_site_label
_atom_site_type_symbol
_atom_site_fract_x
_atom_site_fract_y
_atom_site_fract_z
N1 N 0.5767(2) 0.36710(16) 0.31919(11)
H1 H 0.539(2) 0.4072(18) 0.2993(15)
C1 C 0.63325(19) 0.31145(17) 0.27866(13)
N2 N 0.63189(19) 0.33681(16) 0.21824(11)
H2 H 0.590(3) 0.3827(17) 0.211(2)
O1 O 0.67907(15) 0.24492(13) 0.29784(9)
C2 C 0.6759(3) 0.2844(2) 0.16647(14)
H3 H 0.7048 0.2282 0.1832
C3 C 0.5858(3) 0.2684(2) 0.11744(15)
C4 C 0.6182(4) 0.2908(3) 0.06149(18)
H4 H 0.5722 0.2857 0.0249
C5 C 0.7341(4) 0.3252(4) 0.05998(19)
H5 H 0.7361 0.3830 0.0399
H6 H 0.7846 0.2860 0.0364
C6 C 0.7675(3) 0.3305(4) 0.12895(17)
H7 H 0.7736 0.3915 0.1425
H8 H 0.8409 0.3019 0.1357
C7 C 0.4767(4) 0.2284(4) 0.1368(2)
H9 H 0.4767 0.2186 0.1826
H10 H 0.4671 0.1731 0.1148
H11 H 0.4148 0.2672 0.1256
C8 C 0.5449(2) 0.34729(19) 0.38152(13)
C9 C 0.4519(2) 0.3924(2) 0.40484(13)
C10 C 0.4099(2) 0.3759(2) 0.46621(14)
C11 C 0.4619(3) 0.3114(2) 0.50225(13)
C12 C 0.5546(3) 0.2701(2) 0.48005(14)
H12 H 0.5906 0.2281 0.5059
C13 C 0.5981(2) 0.2881(2) 0.42017(13)
H13 H 0.6641 0.2596 0.4060
O2 O 0.4084(2) 0.45101(17) 0.36422(9)
H14 H 0.350(2) 0.474(3) 0.3786(19)
Cl1 Cl 0.41525(8) 0.27881(6) 0.57673(4)
S1 S 0.29425(7) 0.43814(6) 0.49402(4)
O3 O 0.2388(2) 0.4730(2) 0.43854(12)
O4 O 0.2264(2) 0.38867(18) 0.53649(13)
C14 C 0.3369(9) 0.5328(7) 0.5372(6)
C15 C 0.4137(8) 0.5799(7) 0.4908(5)
H15 H 0.4366 0.5414 0.4557
H16 H 0.3762 0.6316 0.4730
O5 O 0.5068(5) 0.6035(4) 0.5283(3)
C16 C 0.5281(8) 0.5309(7) 0.5660(6)
H17 H 0.5801 0.5452 0.6010
H18 H 0.5608 0.4834 0.5405
C17 C 0.4128(11) 0.5056(14) 0.5916(8)
H19 H 0.4078 0.4427 0.5996
H20 H 0.3947 0.5374 0.6309
C18 C 0.2318(10) 0.5800(11) 0.5564(10)
H21 H 0.1850 0.5420 0.5825
H22 H 0.1900 0.5970 0.5184
H23 H 0.2519 0.6317 0.5807
N3 N 0.31893(18) 0.55960(15) 0.22918(12)
H33 H 0.302(2) 0.6144(8) 0.2247(13)
C24 C 0.4287(2) 0.54079(18) 0.21339(11)
N4 N 0.48665(19) 0.60981(17) 0.19370(12)
H34 H 0.453(2) 0.6601(11) 0.1892(15)
O7 O 0.46777(14) 0.46740(14) 0.21790(10)
C25 C 0.6032(2) 0.6062(2) 0.17261(13)
H35 H 0.6420 0.5569 0.1940
C26 C 0.6164(3) 0.5973(2) 0.10154(15)
C27 C 0.6964(3) 0.6486(3) 0.08064(15)
H36 H 0.7188 0.6512 0.0375
C28 C 0.7485(2) 0.7022(3) 0.13150(16)
H37 H 0.7534 0.7637 0.1187
H38 H 0.8244 0.6810 0.1425
C29 C 0.6660(2) 0.6899(2) 0.18710(14)
H39 H 0.7071 0.6852 0.2277
H40 H 0.6131 0.7392 0.1898
C30 C 0.5464(3) 0.5337(3) 0.06629(18)
H41 H 0.4945 0.5053 0.0957
H42 H 0.5951 0.4903 0.0466
H43 H 0.5035 0.5638 0.0334
C31 C 0.2328(2) 0.50115(18) 0.24259(12)
C32 C 0.12733(19) 0.53970(18) 0.25484(12)
C33 C 0.0318(2) 0.48791(18) 0.26573(11)
C34 C 0.0442(2) 0.39796(18) 0.26381(12)
C35 C 0.1472(2) 0.3607(2) 0.25287(14)
H44 H 0.1544 0.2995 0.2526
C36 C 0.2414(2) 0.41240(19) 0.24222(14)
H45 H 0.3122 0.3861 0.2346
O8 O 0.12870(15) 0.62663(13) 0.25458(11)
H46 H 0.0608(13) 0.643(3) 0.2542(19)
Cl2 Cl -0.06796(5) 0.32733(5) 0.27537(4)
S2 S -0.09949(5) 0.54029(4) 0.27753(3)
O9 O -0.08534(14) 0.62823(13) 0.25549(9)
O10 O -0.18818(15) 0.49184(15) 0.24933(10)
C37 C -0.1268(13) 0.5512(10) 0.3616(5)
C38 C -0.2270(11) 0.6132(9) 0.3691(10)
H47 H -0.2693 0.6174 0.3288
H48 H -0.2784 0.5920 0.4025
O11 O -0.1829(5) 0.6939(4) 0.3857(4)
C39 C -0.0663(7) 0.6960(5) 0.3857(3)
H49 H -0.0382 0.7283 0.4229
H50 H -0.0381 0.7243 0.3468
C40 C -0.0275(11) 0.6014(8) 0.3884(7)
H51 H 0.0406 0.5925 0.3623
H52 H -0.0113 0.5836 0.4325
C41 C -0.1414(14) 0.4624(9) 0.3909(8)
H53 H -0.2029 0.4321 0.3696
H54 H -0.1588 0.4685 0.4360
H55 H -0.0718 0.4293 0.3859
C19? C 0.3648(10) 0.5260(9) 0.5364(7)
C20? C 0.4615(9) 0.5728(8) 0.5020(5)
H24? H 0.4475 0.5747 0.4558
H25? H 0.4695 0.6327 0.5178
O6? O 0.5597(5) 0.5237(4) 0.5155(3)
C21? C 0.5504(10) 0.4893(9) 0.5771(5)
H26? H 0.5989 0.5217 0.6069
H27? H 0.5736 0.4279 0.5775
C22? C 0.4282(13) 0.4977(17) 0.5963(8)
H28? H 0.4196 0.5414 0.6303
H29? H 0.3990 0.4417 0.6119
C23? C 0.2714(13) 0.5900(13) 0.5531(11)
H30? H 0.2154 0.5613 0.5797
H31? H 0.2356 0.6106 0.5141
H32? H 0.3035 0.6392 0.5761
C42? C -0.1197(13) 0.5444(11) 0.3628(5)
C43? C -0.1666(15) 0.4580(9) 0.3886(10)
H56? H -0.2052 0.4253 0.3547
H57? H -0.1055 0.4218 0.4062
O12? O -0.2431(4) 0.4822(3) 0.4367(2)
C44? C -0.3089(5) 0.5476(5) 0.4089(3)
H58? H -0.3479 0.5821 0.4417
H59? H -0.3653 0.5228 0.3797
C45? C -0.2229(13) 0.6033(9) 0.3726(11)
H60? H -0.2023 0.6551 0.3976
H61? H -0.2539 0.6221 0.3314
C46? C -0.0203(14) 0.5790(12) 0.3999(9)
H62? H 0.0453 0.5422 0.3922
H63? H -0.0382 0.5789 0.4452
H64? H -0.0038 0.6381 0.3861
loop_
_geom_bond_atom_site_label_1
_geom_bond_atom_site_label_2
_geom_bond_site_symmetry_1
_geom_bond_site_symmetry_2
N1 H1 1_555 1_555
C1 N1 1_555 1_555
N2 C1 1_555 1_555
H2 N2 1_555 1_555
O1 C1 1_555 1_555
C2 N2 1_555 1_555
H3 C2 1_555 1_555
C3 C2 1_555 1_555
C4 C3 1_555 1_555
H4 C4 1_555 1_555
C5 C4 1_555 1_555
H5 C5 1_555 1_555
H6 C5 1_555 1_555
C6 C2 1_555 1_555
H7 C6 1_555 1_555
H8 C6 1_555 1_555
C7 C3 1_555 1_555
H9 C7 1_555 1_555
H10 C7 1_555 1_555
H11 C7 1_555 1_555
C8 N1 1_555 1_555
C9 C8 1_555 1_555
C10 C9 1_555 1_555
C11 C10 1_555 1_555
C12 C11 1_555 1_555
H12 C12 1_555 1_555
C13 C8 1_555 1_555
H13 C13 1_555 1_555
O2 C9 1_555 1_555
H14 O2 1_555 1_555
Cl1 C11 1_555 1_555
S1 C10 1_555 1_555
O3 S1 1_555 1_555
O4 S1 1_555 1_555
C14 S1 1_555 1_555
C15 C14 1_555 1_555
H15 C15 1_555 1_555
H16 C15 1_555 1_555
O5 C15 1_555 1_555
C16 O5 1_555 1_555
H17 C16 1_555 1_555
H18 C16 1_555 1_555
C17 C14 1_555 1_555
H19 C17 1_555 1_555
H20 C17 1_555 1_555
C18 C14 1_555 1_555
H21 C18 1_555 1_555
H22 C18 1_555 1_555
H23 C18 1_555 1_555
N3 H33 1_555 1_555
C24 N3 1_555 1_555
N4 C24 1_555 1_555
H34 N4 1_555 1_555
O7 C24 1_555 1_555
C25 N4 1_555 1_555
H35 C25 1_555 1_555
C26 C25 1_555 1_555
C27 C26 1_555 1_555
H36 C27 1_555 1_555
C28 C27 1_555 1_555
H37 C28 1_555 1_555
H38 C28 1_555 1_555
C29 C25 1_555 1_555
H39 C29 1_555 1_555
H40 C29 1_555 1_555
C30 C26 1_555 1_555
H41 C30 1_555 1_555
H42 C30 1_555 1_555
H43 C30 1_555 1_555
C31 N3 1_555 1_555
C32 C31 1_555 1_555
C33 C32 1_555 1_555
C34 C33 1_555 1_555
C35 C34 1_555 1_555
H44 C35 1_555 1_555
C36 C31 1_555 1_555
H45 C36 1_555 1_555
O8 C32 1_555 1_555
H46 O8 1_555 1_555
Cl2 C34 1_555 1_555
S2 C33 1_555 1_555
O9 S2 1_555 1_555
O10 S2 1_555 1_555
C37 S2 1_555 1_555
C38 C37 1_555 1_555
H47 C38 1_555 1_555
H48 C38 1_555 1_555
O11 C38 1_555 1_555
C39 O11 1_555 1_555
H49 C39 1_555 1_555
H50 C39 1_555 1_555
C40 C37 1_555 1_555
H51 C40 1_555 1_555
H52 C40 1_555 1_555
C41 C37 1_555 1_555
H53 C41 1_555 1_555
H54 C41 1_555 1_555
H55 C41 1_555 1_555
C5 C6 1_555 1_555
C12 C13 1_555 1_555
C16 C17 1_555 1_555
C28 C29 1_555 1_555
C35 C36 1_555 1_555
C39 C40 1_555 1_555

#END
