
#######################################################################
#
#                 Cambridge Crystallographic Data Centre
#                                CCDC 
#
#######################################################################
#
# If this CIF has been generated from an entry in the Cambridge 
# Structural Database, then it will include bibliographic, chemical, 
# crystal, experimental, refinement or atomic coordinate data resulting 
# from the CCDC's data processing and validation procedures.
#
#######################################################################

data_ZEXTAX
_chemical_name_common            
'Tropinyl 2-isopropylbenzo(b)thiophene-3-carboxylate'
_chemical_formula_moiety         'C20 H25 N1 O2 S1'
_chemical_name_systematic        
'8-Methyl-8-azabicyclo[3.2.1]oct-3-yl 2-isopropylbenzo[b]thiophene-3-carboxylate'
_chemical_properties_biological  
'a potential therapeutic agent for the treatment of thrombosis'
_symmetry_cell_setting           monoclinic
_symmetry_space_group_name_H-M   'P 21/n'
_symmetry_Int_Tables_number      14
_space_group_name_Hall           '-P 2yn'
loop_
_symmetry_equiv_pos_site_id
_symmetry_equiv_pos_as_xyz
1 x,y,z
2 1/2-x,1/2+y,1/2-z
3 -x,-y,-z
4 1/2+x,1/2-y,1/2+z
_cell_length_a                   13.887(2)
_cell_length_b                   8.121(1)
_cell_length_c                   16.201(3)
_cell_angle_alpha                90
_cell_angle_beta                 98.15(1)
_cell_angle_gamma                90
_cell_volume                     1808.64
_exptl_crystal_colour            white
_cell_formula_units_Z            4
loop_
_atom_site_label
_atom_site_type_symbol
_atom_site_fract_x
_atom_site_fract_y
_atom_site_fract_z
S1 S 0.7615(2) 0.2095(3) 0.2772(2)
C1 C 0.8663(6) 0.1183(10) 0.3252(5)
C2 C 0.9168(6) 0.0418(10) 0.2686(5)
C3 C 0.8994(6) 0.0108(10) 0.1066(6)
C4 C 0.8428(7) 0.0504(12) 0.0339(6)
C5 C 0.7585(8) 0.1363(14) 0.0330(6)
C6 C 0.7271(6) 0.1901(13) 0.1033(7)
C7 C 0.7840(6) 0.1526(11) 0.1795(5)
C8 C 0.8711(5) 0.0637(9) 0.1824(6)
C9 C 0.8891(6) 0.1273(11) 0.4200(5)
C10 C 0.9534(7) 0.2776(13) 0.4439(6)
C11 C 0.7984(6) 0.1337(12) 0.4616(6)
C12 C 1.0094(6) -0.0463(11) 0.2961(6)
O1 O 1.0606(5) -0.0230(9) 0.3604(4)
O2 O 1.0285(4) -0.1547(7) 0.2392(3)
C13 C 1.1197(6) -0.2484(11) 0.2562(5)
C14 C 1.1094(6) -0.4026(11) 0.3073(5)
C15 C 1.0734(6) -0.5464(11) 0.2524(6)
C16 C 0.9734(6) -0.5119(11) 0.1982(8)
C17 C 0.9999(7) -0.4405(12) 0.1185(6)
C18 C 1.1118(6) -0.4387(10) 0.1319(5)
C19 C 1.1533(6) -0.2802(12) 0.1730(5)
N1 N 1.1398(5) -0.5741(9) 0.1904(4)
C20 C 1.1263(7) -0.7343(12) 0.1499(6)
H1 H 0.959(4) -0.059(6) 0.110(3)
H2 H 0.870(4) 0.021(6) -0.018(3)
H3 H 0.721(4) 0.166(6) -0.016(3)
H4 H 0.677(4) 0.219(6) 0.110(3)
H5 H 0.933(4) 0.026(6) 0.440(3)
H6 H 0.966(4) 0.283(6) 0.498(3)
H7 H 0.915(4) 0.364(6) 0.415(3)
H8 H 1.010(4) 0.286(7) 0.418(3)
H9 H 0.758(4) 0.229(7) 0.440(3)
H10 H 0.750(4) 0.051(7) 0.446(3)
H11 H 0.819(4) 0.114(7) 0.525(3)
H12 H 1.162(4) -0.185(6) 0.288(3)
H13 H 1.174(4) -0.422(6) 0.337(3)
H14 H 1.068(4) -0.376(6) 0.355(3)
H15 H 1.065(4) -0.653(6) 0.289(3)
H16 H 0.939(4) -0.423(6) 0.214(3)
H17 H 0.953(4) -0.618(7) 0.192(3)
H18 H 0.985(4) -0.522(7) 0.079(3)
H19 H 0.972(4) -0.345(7) 0.103(3)
H20 H 1.139(4) -0.469(6) 0.079(3)
H21 H 1.217(4) -0.303(6) 0.177(3)
H22 H 1.134(4) -0.182(6) 0.132(3)
H23 H 1.143(4) -0.836(6) 0.192(3)
H24 H 1.179(4) -0.734(6) 0.104(3)
H25 H 1.060(4) -0.752(6) 0.123(3)
loop_
_geom_bond_atom_site_label_1
_geom_bond_atom_site_label_2
_geom_bond_site_symmetry_1
_geom_bond_site_symmetry_2
S1 C1 1_555 1_555
C1 C2 1_555 1_555
C2 C8 1_555 1_555
C3 C4 1_555 1_555
C4 C5 1_555 1_555
C5 C6 1_555 1_555
C6 C7 1_555 1_555
C7 S1 1_555 1_555
C8 C3 1_555 1_555
C9 C1 1_555 1_555
C10 C9 1_555 1_555
C11 C9 1_555 1_555
C12 C2 1_555 1_555
O1 C12 1_555 1_555
O2 C12 1_555 1_555
C13 O2 1_555 1_555
C14 C13 1_555 1_555
C15 C14 1_555 1_555
C16 C15 1_555 1_555
C17 C16 1_555 1_555
C18 C17 1_555 1_555
C19 C13 1_555 1_555
N1 C15 1_555 1_555
C20 N1 1_555 1_555
H1 C3 1_555 1_555
H2 C4 1_555 1_555
H3 C5 1_555 1_555
H4 C6 1_555 1_555
H5 C9 1_555 1_555
H6 C10 1_555 1_555
H7 C10 1_555 1_555
H8 C10 1_555 1_555
H9 C11 1_555 1_555
H10 C11 1_555 1_555
H11 C11 1_555 1_555
H12 C13 1_555 1_555
H13 C14 1_555 1_555
H14 C14 1_555 1_555
H15 C15 1_555 1_555
H16 C16 1_555 1_555
H17 C16 1_555 1_555
H18 C17 1_555 1_555
H19 C17 1_555 1_555
H20 C18 1_555 1_555
H21 C19 1_555 1_555
H22 C19 1_555 1_555
H23 C20 1_555 1_555
H24 C20 1_555 1_555
H25 C20 1_555 1_555
C7 C8 1_555 1_555
C18 C19 1_555 1_555
C18 N1 1_555 1_555

#END
