
#######################################################################
#
#                 Cambridge Crystallographic Data Centre
#                                CCDC 
#
#######################################################################
#
# If this CIF has been generated from an entry in the Cambridge 
# Structural Database, then it will include bibliographic, chemical, 
# crystal, experimental, refinement or atomic coordinate data resulting 
# from the CCDC's data processing and validation procedures.
#
#######################################################################

data_ZEXVIK
_chemical_formula_moiety         'C25 H26 N2 O4 S2'
_chemical_name_systematic        
N-benzyl-N-[3,5-dimethyl-7-(thiophen-2-yl)-6,8-dioxa-2-azabicyclo[3.2.1]oct-2-en-1-yl]-4-methylbenzene-1-sulfonamide
_symmetry_cell_setting           tetragonal
_symmetry_space_group_name_H-M   'P 4/n'
_symmetry_Int_Tables_number      85
_space_group_name_Hall           '-P 4a'
loop_
_symmetry_equiv_pos_site_id
_symmetry_equiv_pos_as_xyz
1 x,y,z
2 1/2-x,1/2-y,z
3 1/2-y,x,z
4 y,1/2-x,z
5 -x,-y,-z
6 1/2+x,1/2+y,-z
7 1/2+y,-x,-z
8 -y,1/2+x,-z
_cell_length_a                   21.6271(8)
_cell_length_b                   21.6271(8)
_cell_length_c                   10.6708(10)
_cell_angle_alpha                90
_cell_angle_beta                 90
_cell_angle_gamma                90
_cell_volume                     4991.07
_exptl_crystal_colour            colorless
_exptl_crystal_description       prism
_cell_formula_units_Z            8
loop_
_atom_site_label
_atom_site_type_symbol
_atom_site_fract_x
_atom_site_fract_y
_atom_site_fract_z
C1 C 0.6124(2) 0.76153(18) 0.5167(4)
H1 H 0.6001 0.7586 0.6029
H2 H 0.5913 0.7955 0.4777
H3 H 0.6562 0.7682 0.5121
C2 C 0.59617(16) 0.70210(14) 0.4493(3)
C3 C 0.60971(17) 0.69485(15) 0.3232(4)
H4 H 0.6292 0.7269 0.2806
C4 C 0.59516(16) 0.64171(15) 0.2598(3)
H5 H 0.6045 0.6378 0.1751
C5 C 0.56650(12) 0.59402(12) 0.3230(3)
C6 C 0.55207(13) 0.59962(13) 0.4489(3)
H6 H 0.5327 0.5675 0.4916
C7 C 0.56722(15) 0.65416(15) 0.5099(3)
H7 H 0.5575 0.6584 0.5944
C8 C 0.61484(13) 0.48137(13) 0.0584(2)
H8 H 0.5753 0.4747 0.0176
H9 H 0.6396 0.4445 0.0461
C9 C 0.64701(13) 0.53555(13) -0.0036(2)
C10 C 0.62282(16) 0.56182(17) -0.1091(3)
H10 H 0.5855 0.5473 -0.1410
C11 C 0.6533(2) 0.6100(2) -0.1694(4)
H11 H 0.6359 0.6276 -0.2406
C12 C 0.70775(19) 0.63140(18) -0.1256(3)
H12 H 0.7282 0.6632 -0.1672
C13 C 0.73258(18) 0.60623(19) -0.0201(4)
H13 H 0.7698 0.6212 0.0111
C14 C 0.70266(16) 0.55847(18) 0.0408(3)
H14 H 0.7201 0.5414 0.1125
C15 C 0.63819(11) 0.45198(12) 0.2850(2)
C16 C 0.60644(12) 0.39035(12) 0.3248(3)
H15 H 0.5621 0.3980 0.3350
C17 C 0.61460(14) 0.33584(13) 0.2411(3)
C18 C 0.57028(18) 0.31733(13) 0.1439(3)
H16 H 0.5319 0.3347 0.1262
C19 C 0.6013(3) 0.26395(18) 0.0800(4)
H17 H 0.5840 0.2446 0.0103
C20 C 0.6541(3) 0.24610(17) 0.1280(4)
H18 H 0.6765 0.2126 0.0975
C21 C 0.66320(13) 0.43740(12) 0.4838(3)
C22 C 0.64798(16) 0.45348(15) 0.6169(3)
H19 H 0.6652 0.4932 0.6370
H20 H 0.6651 0.4227 0.6718
H21 H 0.6039 0.4548 0.6272
C23 C 0.73154(14) 0.43016(14) 0.4547(3)
H22 H 0.7546 0.4632 0.4947
H23 H 0.7463 0.3911 0.4880
C24 C 0.74230(12) 0.43208(12) 0.3152(3)
C25 C 0.80746(14) 0.42105(17) 0.2707(3)
H24 H 0.8181 0.3784 0.2830
H25 H 0.8354 0.4467 0.3175
H26 H 0.8104 0.4311 0.1832
N1 N 0.60423(10) 0.49028(10) 0.1955(2)
N2 N 0.69971(10) 0.44120(10) 0.2352(2)
O1 O 0.51450(9) 0.55043(10) 0.1250(2)
O2 O 0.50512(8) 0.49119(9) 0.3216(2)
O3 O 0.63929(8) 0.48348(8) 0.40171(16)
O4 O 0.63287(10) 0.38056(8) 0.44609(18)
S1 S 0.54172(3) 0.52819(3) 0.23884(6)
S2 S 0.67739(5) 0.28883(5) 0.24872(11)
loop_
_geom_bond_atom_site_label_1
_geom_bond_atom_site_label_2
_geom_bond_site_symmetry_1
_geom_bond_site_symmetry_2
C1 H1 1_555 1_555
H2 C1 1_555 1_555
H3 C1 1_555 1_555
C2 C1 1_555 1_555
C3 C2 1_555 1_555
H4 C3 1_555 1_555
C4 C3 1_555 1_555
H5 C4 1_555 1_555
C5 C4 1_555 1_555
C6 C5 1_555 1_555
H6 C6 1_555 1_555
C7 C2 1_555 1_555
H7 C7 1_555 1_555
C8 H8 1_555 1_555
H9 C8 1_555 1_555
C9 C8 1_555 1_555
C10 C9 1_555 1_555
H10 C10 1_555 1_555
C11 C10 1_555 1_555
H11 C11 1_555 1_555
C12 C11 1_555 1_555
H12 C12 1_555 1_555
C13 C12 1_555 1_555
H13 C13 1_555 1_555
C14 C9 1_555 1_555
H14 C14 1_555 1_555
C15 C16 1_555 1_555
C16 H15 1_555 1_555
C17 C16 1_555 1_555
C18 C17 1_555 1_555
H16 C18 1_555 1_555
C19 C18 1_555 1_555
H17 C19 1_555 1_555
C20 C19 1_555 1_555
H18 C20 1_555 1_555
C21 C22 1_555 1_555
C22 H19 1_555 1_555
H20 C22 1_555 1_555
H21 C22 1_555 1_555
C23 C21 1_555 1_555
H22 C23 1_555 1_555
H23 C23 1_555 1_555
C24 C23 1_555 1_555
C25 C24 1_555 1_555
H24 C25 1_555 1_555
H25 C25 1_555 1_555
H26 C25 1_555 1_555
N1 C8 1_555 1_555
N2 C15 1_555 1_555
O1 S1 1_555 1_555
O2 S1 1_555 1_555
O3 C15 1_555 1_555
O4 C16 1_555 1_555
S1 C5 1_555 1_555
S2 C17 1_555 1_555
C6 C7 1_555 1_555
C13 C14 1_555 1_555
C15 N1 1_555 1_555
C20 S2 1_555 1_555
C21 O3 1_555 1_555
C21 O4 1_555 1_555
C24 N2 1_555 1_555
N1 S1 1_555 1_555

#END
