
#######################################################################
#
#                 Cambridge Crystallographic Data Centre
#                                CCDC 
#
#######################################################################
#
# If this CIF has been generated from an entry in the Cambridge 
# Structural Database, then it will include bibliographic, chemical, 
# crystal, experimental, refinement or atomic coordinate data resulting 
# from the CCDC's data processing and validation procedures.
#
#######################################################################

data_ZEYFUH
_chemical_compound_source        
'isolated from the twigs and leaves of Tabernaemontana corymbosa'
_chemical_name_common            'taburnaemine A'
_chemical_formula_moiety         'C47 H56 N4 O8'
_chemical_name_systematic        
"methyl 13-methoxy-14-[13a-(methoxycarbonyl)-3',14-dimethyl-1,4a,5,6,7,12,13,13a-octahydro-3H-spiro[3,13-epiminopyrano[3',4':5,6]cycloocta[1,2-b]indole-4,2'-oxiran]-6-yl]-19-(2-oxopropyl)ibogamine-18-carboxylate"
_chemical_properties_biological  
'antiproliferative activity against multidrug-resistant KB subline KB-VIN'
_symmetry_cell_setting           orthorhombic
_symmetry_space_group_name_H-M   'P 21 21 21'
_symmetry_Int_Tables_number      19
_space_group_name_Hall           'P 2ac 2ab'
loop_
_symmetry_equiv_pos_site_id
_symmetry_equiv_pos_as_xyz
1 x,y,z
2 1/2+x,1/2-y,-z
3 -x,1/2+y,1/2-z
4 1/2-x,-y,1/2+z
_cell_length_a                   9.4439(2)
_cell_length_b                   18.2011(3)
_cell_length_c                   24.5795(4)
_cell_angle_alpha                90
_cell_angle_beta                 90
_cell_angle_gamma                90
_cell_volume                     4224.95
_exptl_crystal_colour            colorless
_exptl_crystal_description       prism
_cell_formula_units_Z            4
_chemical_properties_physical    Heat-sensitive,Light-sensitive
_exptl_crystal_preparation       'Magnetic properties'
loop_
_atom_site_label
_atom_site_type_symbol
_atom_site_fract_x
_atom_site_fract_y
_atom_site_fract_z
O1 O 1.16041(15) 0.36778(7) 0.13052(6)
O2 O 1.05915(15) 0.45156(8) 0.07571(5)
O3 O 0.3979(3) 0.39530(11) 0.38659(8)
O4 O 1.09237(18) 0.53045(10) 0.37476(7)
C1 C 1.1769(3) 0.66536(16) 0.39623(17)
H1 H 1.2231 0.6427 0.4277
H2 H 1.1856 0.7189 0.3987
H3 H 1.2223 0.6481 0.3627
O5 O 0.83563(16) 0.69840(8) 0.10508(6)
O6 O 1.50283(15) 0.51076(8) 0.13622(6)
O7 O 1.41327(16) 0.63875(8) 0.08470(6)
N1 N 0.61648(18) 0.59068(9) 0.43033(7)
C2 C 0.7101(2) 0.66330(10) 0.32478(8)
C3 C 0.7702(2) 0.59617(10) 0.43315(7)
H4 H 0.7978 0.6491 0.4361
N2 N 1.36729(18) 0.53934(9) 0.21505(7)
C4 C 0.2220(3) 0.40931(15) 0.45448(11)
H5 H 0.1663 0.3756 0.4319
H6 H 0.1664 0.4537 0.4619
H7 H 0.2463 0.3852 0.4889
C5 C 0.3555(3) 0.42997(13) 0.42488(10)
C6 C 0.4340(2) 0.49682(12) 0.44579(9)
H8 H 0.4586 0.4885 0.4845
H9 H 0.3694 0.5396 0.4443
C7 C 0.5689(2) 0.51604(10) 0.41498(8)
H10 H 0.5475 0.5158 0.3751
C8 C 0.5388(2) 0.64999(10) 0.40338(8)
H11 H 0.4906 0.6794 0.4318
H12 H 0.4642 0.6276 0.3804
C9 C 0.6252(2) 0.70260(10) 0.36772(8)
H13 H 0.5600 0.7377 0.3498
H14 H 0.6903 0.7312 0.3911
C10 C 0.7194(2) 0.68292(10) 0.26797(8)
C11 C 0.8065(2) 0.62985(10) 0.24245(8)
C12 C 0.8412(2) 0.63142(10) 0.18710(8)
C13 C 0.9391(2) 0.57571(10) 0.16014(8)
H15 H 0.9135 0.5736 0.1207
C14 C 1.0914(2) 0.60466(10) 0.16399(8)
H16 H 1.1237 0.5979 0.2020
H17 H 1.0888 0.6582 0.1569
C15 C 1.2041(2) 0.57086(10) 0.12632(8)
H18 H 1.1719 0.5759 0.0878
C16 C 1.2454(2) 0.48968(10) 0.13682(8)
C17 C 1.1415(2) 0.43613(10) 0.11150(8)
C18 C 1.0613(2) 0.31387(11) 0.10962(9)
H19 H 0.9643 0.3315 0.1151
H20 H 1.0743 0.2673 0.1290
H21 H 1.0785 0.3064 0.0707
C19 C 0.7916(2) 0.60186(10) 0.33153(8)
N3 N 0.84914(18) 0.58148(8) 0.28215(6)
H22 H 0.9047 0.5433 0.2769
C20 C 0.8416(2) 0.56217(10) 0.38200(8)
C21 C 0.6929(2) 0.46359(10) 0.42543(8)
H23 H 0.6595 0.4116 0.4227
C22 C 0.8064(2) 0.47821(10) 0.38209(8)
H24 H 0.7712 0.4631 0.3458
H25 H 0.8928 0.4495 0.3903
C23 C 0.7559(2) 0.47728(11) 0.48204(8)
H26 H 0.8286 0.4397 0.4902
H27 H 0.6805 0.4737 0.5099
C24 C 0.8234(2) 0.55466(11) 0.48349(8)
H28 H 0.9283 0.5488 0.4801
C25 C 0.7933(2) 0.59510(12) 0.53640(8)
H29 H 0.8198 0.5629 0.5673
H30 H 0.6903 0.6046 0.5389
C26 C 0.8718(3) 0.66767(13) 0.54196(9)
H31 H 0.9728 0.6599 0.5349
H32 H 0.8594 0.6868 0.5789
H33 H 0.8339 0.7031 0.5157
C27 C 1.0016(2) 0.57514(12) 0.38366(8)
O8 O 1.02903(17) 0.64531(9) 0.39558(8)
C28 C 0.6680(2) 0.74147(10) 0.23672(8)
H34 H 0.6086 0.7776 0.2527
C29 C 0.7044(2) 0.74608(11) 0.18242(8)
H35 H 0.6716 0.7862 0.1612
C30 C 0.7901(2) 0.69156(11) 0.15817(8)
C31 C 0.7303(3) 0.70995(15) 0.06540(9)
H36 H 0.6618 0.6695 0.0666
H37 H 0.7742 0.7119 0.0293
H38 H 0.6816 0.7565 0.0727
C32 C 0.9182(2) 0.49980(10) 0.18336(7)
C33 C 1.0035(2) 0.45451(10) 0.21386(7)
C34 C 1.1488(2) 0.46885(11) 0.23740(7)
H39 H 1.1707 0.4282 0.2628
H40 H 1.1430 0.5144 0.2593
C35 C 1.2766(2) 0.47695(10) 0.19777(8)
H41 H 1.3347 0.4312 0.2007
C36 C 1.4438(2) 0.56932(11) 0.16956(8)
H42 H 1.5215 0.6020 0.1829
C37 C 1.3891(2) 0.47497(11) 0.10759(8)
H43 H 1.4071 0.4214 0.1061
H44 H 1.3846 0.4937 0.0698
C38 C 1.3436(2) 0.61265(11) 0.13330(8)
C39 C 1.3624(2) 0.69198(12) 0.12420(9)
H45 H 1.4382 0.7152 0.1468
C40 C 1.2520(3) 0.74414(12) 0.10383(10)
H46 H 1.2961 0.7804 0.0798
H47 H 1.2079 0.7693 0.1347
H48 H 1.1796 0.7168 0.0837
C41 C 1.4586(2) 0.51800(13) 0.26067(8)
H49 H 1.5233 0.4790 0.2489
H50 H 1.4000 0.5000 0.2908
H51 H 1.5134 0.5607 0.2728
C42 C 0.9235(2) 0.38823(10) 0.22276(8)
C43 C 0.7898(2) 0.39768(10) 0.19800(8)
C44 C 0.6855(2) 0.34335(11) 0.19828(8)
H52 H 0.5954 0.3513 0.1822
C45 C 0.7195(2) 0.27728(11) 0.22311(10)
H53 H 0.6513 0.2389 0.2241
C46 C 0.8526(3) 0.26606(11) 0.24675(10)
H54 H 0.8736 0.2197 0.2626
C47 C 0.9542(2) 0.32052(11) 0.24761(9)
H55 H 1.0431 0.3124 0.2647
N4 N 0.78955(18) 0.46610(8) 0.17436(6)
H56 H 0.7183 0.4854 0.1563
loop_
_geom_bond_atom_site_label_1
_geom_bond_atom_site_label_2
_geom_bond_site_symmetry_1
_geom_bond_site_symmetry_2
O1 C17 1_555 1_555
O2 C17 1_555 1_555
O3 C5 1_555 1_555
O4 C27 1_555 1_555
C1 H1 1_555 1_555
H2 C1 1_555 1_555
H3 C1 1_555 1_555
O5 C30 1_555 1_555
O6 C36 1_555 1_555
O7 C38 1_555 1_555
N1 C3 1_555 1_555
C2 C9 1_555 1_555
C3 H4 1_555 1_555
N2 C35 1_555 1_555
C4 H5 1_555 1_555
H6 C4 1_555 1_555
H7 C4 1_555 1_555
C5 C4 1_555 1_555
C6 C5 1_555 1_555
H8 C6 1_555 1_555
H9 C6 1_555 1_555
C7 N1 1_555 1_555
H10 C7 1_555 1_555
C8 N1 1_555 1_555
H11 C8 1_555 1_555
H12 C8 1_555 1_555
C9 C8 1_555 1_555
H13 C9 1_555 1_555
H14 C9 1_555 1_555
C10 C2 1_555 1_555
C11 C10 1_555 1_555
C12 C11 1_555 1_555
C13 C12 1_555 1_555
H15 C13 1_555 1_555
C14 C13 1_555 1_555
H16 C14 1_555 1_555
H17 C14 1_555 1_555
C15 C14 1_555 1_555
H18 C15 1_555 1_555
C16 C15 1_555 1_555
C17 C16 1_555 1_555
C18 O1 1_555 1_555
H19 C18 1_555 1_555
H20 C18 1_555 1_555
H21 C18 1_555 1_555
C19 C2 1_555 1_555
N3 C11 1_555 1_555
H22 N3 1_555 1_555
C20 C3 1_555 1_555
C21 C7 1_555 1_555
H23 C21 1_555 1_555
C22 C20 1_555 1_555
H24 C22 1_555 1_555
H25 C22 1_555 1_555
C23 C21 1_555 1_555
H26 C23 1_555 1_555
H27 C23 1_555 1_555
C24 C3 1_555 1_555
H28 C24 1_555 1_555
C25 C24 1_555 1_555
H29 C25 1_555 1_555
H30 C25 1_555 1_555
C26 C25 1_555 1_555
H31 C26 1_555 1_555
H32 C26 1_555 1_555
H33 C26 1_555 1_555
C27 C20 1_555 1_555
O8 C1 1_555 1_555
C28 C10 1_555 1_555
H34 C28 1_555 1_555
C29 C28 1_555 1_555
H35 C29 1_555 1_555
C30 C12 1_555 1_555
C31 O5 1_555 1_555
H36 C31 1_555 1_555
H37 C31 1_555 1_555
H38 C31 1_555 1_555
C32 C13 1_555 1_555
C33 C32 1_555 1_555
C34 C33 1_555 1_555
H39 C34 1_555 1_555
H40 C34 1_555 1_555
C35 C16 1_555 1_555
H41 C35 1_555 1_555
C36 N2 1_555 1_555
H42 C36 1_555 1_555
C37 O6 1_555 1_555
H43 C37 1_555 1_555
H44 C37 1_555 1_555
C38 C15 1_555 1_555
C39 O7 1_555 1_555
H45 C39 1_555 1_555
C40 C39 1_555 1_555
H46 C40 1_555 1_555
H47 C40 1_555 1_555
H48 C40 1_555 1_555
C41 N2 1_555 1_555
H49 C41 1_555 1_555
H50 C41 1_555 1_555
H51 C41 1_555 1_555
C42 C33 1_555 1_555
C43 C42 1_555 1_555
C44 C43 1_555 1_555
H52 C44 1_555 1_555
C45 C44 1_555 1_555
H53 C45 1_555 1_555
C46 C45 1_555 1_555
H54 C46 1_555 1_555
C47 C42 1_555 1_555
H55 C47 1_555 1_555
N4 C32 1_555 1_555
H56 N4 1_555 1_555
C6 C7 1_555 1_555
C16 C37 1_555 1_555
C19 N3 1_555 1_555
C19 C20 1_555 1_555
C21 C22 1_555 1_555
C23 C24 1_555 1_555
C27 O8 1_555 1_555
C29 C30 1_555 1_555
C34 C35 1_555 1_555
C36 C38 1_555 1_555
C38 C39 1_555 1_555
C43 N4 1_555 1_555
C46 C47 1_555 1_555

#END
