
#######################################################################
#
#                 Cambridge Crystallographic Data Centre
#                                CCDC 
#
#######################################################################
#
# If this CIF has been generated from an entry in the Cambridge 
# Structural Database, then it will include bibliographic, chemical, 
# crystal, experimental, refinement or atomic coordinate data resulting 
# from the CCDC's data processing and validation procedures.
#
#######################################################################

data_ZEYLEU
_chemical_formula_moiety         'C24 H25 B2 F10 N3'
_chemical_name_systematic        
1,3-Di-t-butyl-1,2,3,4-tetrahydro-6-isopropyl-2,4-bis(pentafluorophenyl)-1,3,5,2,4-triazadiborine
_symmetry_cell_setting           monoclinic
_symmetry_space_group_name_H-M   'P 21/c'
_symmetry_Int_Tables_number      14
_space_group_name_Hall           '-P 2ybc'
loop_
_symmetry_equiv_pos_site_id
_symmetry_equiv_pos_as_xyz
1 x,y,z
2 -x,1/2+y,1/2-z
3 -x,-y,-z
4 x,1/2-y,1/2+z
_cell_length_a                   8.1007(7)
_cell_length_b                   20.051(3)
_cell_length_c                   16.403(2)
_cell_angle_alpha                90
_cell_angle_beta                 102.598(9)
_cell_angle_gamma                90
_cell_volume                     2600.15
_exptl_crystal_colour            colorless
_cell_formula_units_Z            4
loop_
_atom_site_label
_atom_site_type_symbol
_atom_site_fract_x
_atom_site_fract_y
_atom_site_fract_z
F1 F 0.3849(2) 0.85745(8) -0.2827(1)
F2 F 0.4680(3) 0.9273(1) -0.4064(1)
F3 F 0.3923(2) 1.0591(1) -0.4236(1)
F4 F 0.2302(3) 1.11927(8) -0.3153(1)
F5 F 0.1313(2) 1.04823(8) -0.1971(1)
F6 F 0.3434(2) 0.70106(9) -0.21371(9)
F7 F 0.3005(3) 0.56859(8) -0.2100(1)
F8 F 0.1465(3) 0.51359(8) -0.0955(1)
F9 F 0.0230(3) 0.59259(9) 0.0110(1)
F10 F 0.0553(2) 0.72507(7) 0.00418(8)
N1 N 0.1357(2) 0.84144(9) -0.1653(1)
N2 N 0.3453(2) 0.82557(9) -0.0310(1)
N3 N 0.2673(2) 0.93249(9) -0.0781(1)
C1 C 0.3127(3) 0.8933(1) -0.0163(1)
C2 C 0.2992(3) 0.9153(1) 0.0702(1)
C3 C 0.1197(4) 0.8970(2) 0.0789(2)
C4 C 0.3328(4) 0.9895(1) 0.0846(2)
C5 C 0.2505(3) 0.9495(1) -0.2354(1)
C6 C 0.3385(3) 0.9223(1) -0.2906(1)
C7 C 0.3848(4) 0.9571(2) -0.3542(2)
C8 C 0.3470(4) 1.0235(2) -0.3633(2)
C9 C 0.2645(4) 1.0537(1) -0.3085(2)
C10 C 0.2176(3) 1.0164(1) -0.2469(2)
C11 C -0.0257(3) 0.8249(1) -0.2281(1)
C12 C 0.0051(4) 0.7788(2) -0.2961(2)
C13 C -0.1061(4) 0.8882(2) -0.2674(2)
C14 C -0.1493(4) 0.7938(2) -0.1831(2)
C15 C 0.2014(3) 0.7188(1) -0.1054(1)
C16 C 0.2579(3) 0.6759(1) -0.1585(1)
C17 C 0.2398(4) 0.6077(1) -0.1562(2)
C18 C 0.1632(4) 0.5799(1) -0.0986(2)
C19 C 0.1023(4) 0.6197(1) -0.0448(2)
C20 C 0.1207(3) 0.6876(1) -0.0492(1)
C21 C 0.5000(3) 0.7927(1) 0.0232(1)
C22 C 0.6394(3) 0.8451(1) 0.0464(2)
C23 C 0.4597(4) 0.7596(2) 0.1009(1)
C24 C 0.5698(4) 0.7389(1) -0.0270(2)
B1 B 0.2113(4) 0.9070(1) -0.1599(2)
B2 B 0.2282(3) 0.7977(1) -0.1025(1)
H1 H 0.378 0.891 0.113
H2 H 0.100 0.909 0.134
H3 H 0.034 0.922 0.040
H4 H 0.105 0.849 0.066
H5 H 0.324 1.001 0.142
H6 H 0.451 0.997 0.082
H7 H 0.244 1.013 0.045
H8 H 0.042 0.736 -0.271
H9 H 0.094 0.798 -0.321
H10 H -0.098 0.772 -0.340
H11 H -0.045 0.903 -0.310
H12 H -0.102 0.923 -0.225
H13 H -0.224 0.878 -0.294
H14 H -0.264 0.792 -0.218
H15 H -0.148 0.822 -0.134
H16 H -0.117 0.747 -0.170
H17 H 0.660 0.867 -0.004
H18 H 0.738 0.822 0.080
H19 H 0.610 0.883 0.079
H20 H 0.373 0.725 0.083
H21 H 0.561 0.736 0.131
H22 H 0.427 0.793 0.138
H23 H 0.557 0.753 -0.085
H24 H 0.510 0.697 -0.024
H25 H 0.686 0.731 0.004
loop_
_geom_bond_atom_site_label_1
_geom_bond_atom_site_label_2
_geom_bond_site_symmetry_1
_geom_bond_site_symmetry_2
F1 C6 1_555 1_555
F2 C7 1_555 1_555
F3 C8 1_555 1_555
F4 C9 1_555 1_555
F5 C10 1_555 1_555
F6 C16 1_555 1_555
F7 C17 1_555 1_555
F8 C18 1_555 1_555
F9 C19 1_555 1_555
F10 C20 1_555 1_555
N1 C11 1_555 1_555
N2 C1 1_555 1_555
N3 C1 1_555 1_555
C1 C2 1_555 1_555
C2 C3 1_555 1_555
C3 H2 1_555 1_555
C4 C2 1_555 1_555
C5 C6 1_555 1_555
C6 C7 1_555 1_555
C7 C8 1_555 1_555
C8 C9 1_555 1_555
C9 C10 1_555 1_555
C10 C5 1_555 1_555
C11 C12 1_555 1_555
C12 H8 1_555 1_555
C13 C11 1_555 1_555
C14 C11 1_555 1_555
C15 C16 1_555 1_555
C16 C17 1_555 1_555
C17 C18 1_555 1_555
C18 C19 1_555 1_555
C19 C20 1_555 1_555
C20 C15 1_555 1_555
C21 N2 1_555 1_555
C22 C21 1_555 1_555
C23 C21 1_555 1_555
C24 C21 1_555 1_555
B1 N1 1_555 1_555
B2 N1 1_555 1_555
H1 C2 1_555 1_555
H3 C3 1_555 1_555
H4 C3 1_555 1_555
H5 C4 1_555 1_555
H6 C4 1_555 1_555
H7 C4 1_555 1_555
H9 C12 1_555 1_555
H10 C12 1_555 1_555
H11 C13 1_555 1_555
H12 C13 1_555 1_555
H13 C13 1_555 1_555
H14 C14 1_555 1_555
H15 C14 1_555 1_555
H16 C14 1_555 1_555
H17 C22 1_555 1_555
H18 C22 1_555 1_555
H19 C22 1_555 1_555
H20 C23 1_555 1_555
H21 C23 1_555 1_555
H22 C23 1_555 1_555
H23 C24 1_555 1_555
H24 C24 1_555 1_555
H25 C24 1_555 1_555
N2 B2 1_555 1_555
N3 B1 1_555 1_555
C5 B1 1_555 1_555
C15 B2 1_555 1_555

#END
