
#######################################################################
#
#                 Cambridge Crystallographic Data Centre
#                                CCDC 
#
#######################################################################
#
# If this CIF has been generated from an entry in the Cambridge 
# Structural Database, then it will include bibliographic, chemical, 
# crystal, experimental, refinement or atomic coordinate data resulting 
# from the CCDC's data processing and validation procedures.
#
#######################################################################

data_ZEYNAV
_chemical_formula_moiety         'C6 H8 N2,C8 H5 N1 O6'
_chemical_name_systematic        '2,3-dimethylpyrazine 3-nitrophthalic acid'
_symmetry_cell_setting           triclinic
_symmetry_space_group_name_H-M   'P -1'
_symmetry_Int_Tables_number      2
_space_group_name_Hall           '-P 1'
loop_
_symmetry_equiv_pos_site_id
_symmetry_equiv_pos_as_xyz
1 x,y,z
2 -x,-y,-z
_cell_length_a                   8.0562(6)
_cell_length_b                   8.6177(7)
_cell_length_c                   10.6582(8)
_cell_angle_alpha                74.6940(10)
_cell_angle_beta                 89.7220(10)
_cell_angle_gamma                83.6330(10)
_cell_volume                     709.076
_exptl_crystal_colour            colorless
_exptl_crystal_description       schistose
_cell_formula_units_Z            2
loop_
_atom_site_label
_atom_site_type_symbol
_atom_site_fract_x
_atom_site_fract_y
_atom_site_fract_z
O1 O 0.44811(14) 0.62943(12) 0.66315(10)
O2 O 0.47931(15) 0.82942(13) 0.75313(11)
H1 H 0.5393 0.7581 0.8047
O3 O 0.47246(14) 0.66438(12) 0.38564(11)
H2 H 0.4887 0.5730 0.3753
O4 O 0.21487(14) 0.59770(12) 0.43601(11)
C1 C 0.27704(17) 0.85813(16) 0.44335(13)
C2 C 0.42367(17) 0.77141(16) 0.66279(13)
O5 O 0.22100(19) 0.85403(15) 0.18585(11)
N1 N 0.12742(19) 0.94598(15) 0.23064(12)
C3 C 0.31693(18) 0.69106(17) 0.42221(13)
O6 O -0.0058(2) 1.01258(17) 0.18005(14)
C4 C 0.32396(17) 0.89587(16) 0.55670(13)
C5 C 0.27658(19) 1.05006(18) 0.57287(15)
H3 H 0.3113 1.0752 0.6475
C6 C 0.1789(2) 1.16615(18) 0.47971(16)
H4 H 0.1484 1.2684 0.4919
C7 C 0.1269(2) 1.12991(18) 0.36892(15)
H5 H 0.0588 1.2058 0.3066
C8 C 0.17796(18) 0.97823(17) 0.35241(14)
N2 N 0.33464(16) 0.38135(15) 0.06540(12)
N3 N 0.13205(17) 0.59995(16) -0.12294(12)
C9 C 0.18081(19) 0.45152(18) -0.13457(14)
C10 C 0.28550(19) 0.34065(18) -0.03948(14)
C11 C 0.1196(2) 0.4091(2) -0.25194(16)
H6 H 0.0469 0.4988 -0.3036
H7 H 0.0595 0.3161 -0.2252
H8 H 0.2131 0.3849 -0.3025
C12 C 0.2841(2) 0.53032(19) 0.07700(16)
H9 H 0.3167 0.5605 0.1500
C13 C 0.1850(2) 0.63840(19) -0.01791(15)
H10 H 0.1535 0.7419 -0.0088
C14 C 0.3469(3) 0.1752(2) -0.05203(19)
H11 H 0.4117 0.1845 -0.1290
H12 H 0.2533 0.1174 -0.0580
H13 H 0.4153 0.1175 0.0229
loop_
_geom_bond_atom_site_label_1
_geom_bond_atom_site_label_2
_geom_bond_site_symmetry_1
_geom_bond_site_symmetry_2
O1 C2 1_555 1_555
O2 H1 1_555 1_555
O3 H2 1_555 1_555
O4 C3 1_555 1_555
C1 C3 1_555 1_555
C2 O2 1_555 1_555
O5 N1 1_555 1_555
N1 O6 1_555 1_555
C3 O3 1_555 1_555
C4 C1 1_555 1_555
C5 C4 1_555 1_555
H3 C5 1_555 1_555
C6 C5 1_555 1_555
H4 C6 1_555 1_555
C7 C6 1_555 1_555
H5 C7 1_555 1_555
C8 C1 1_555 1_555
N2 C10 1_555 1_555
N3 C9 1_555 1_555
C9 C10 1_555 1_555
C10 C14 1_555 1_555
C11 C9 1_555 1_555
H6 C11 1_555 1_555
H7 C11 1_555 1_555
H8 C11 1_555 1_555
C12 N2 1_555 1_555
H9 C12 1_555 1_555
C13 N3 1_555 1_555
H10 C13 1_555 1_555
C14 H11 1_555 1_555
H12 C14 1_555 1_555
H13 C14 1_555 1_555
C2 C4 1_555 1_555
N1 C8 1_555 1_555
C7 C8 1_555 1_555
C12 C13 1_555 1_555

#END
