
#######################################################################
#
#                 Cambridge Crystallographic Data Centre
#                                CCDC 
#
#######################################################################
#
# If this CIF has been generated from an entry in the Cambridge 
# Structural Database, then it will include bibliographic, chemical, 
# crystal, experimental, refinement or atomic coordinate data resulting 
# from the CCDC's data processing and validation procedures.
#
#######################################################################

data_ZEYNOJ
_chemical_formula_moiety         'C6 H8 N2,2(C11 H8 O3),C1 H4 O1,H2 O1'
_chemical_name_systematic        
'2,3-dimethylpyrazine bis(6-hydroxy-2-naphthoic acid) methanol solvate monohydrate'
_symmetry_cell_setting           triclinic
_symmetry_space_group_name_H-M   'P -1'
_symmetry_Int_Tables_number      2
_space_group_name_Hall           '-P 1'
loop_
_symmetry_equiv_pos_site_id
_symmetry_equiv_pos_as_xyz
1 x,y,z
2 -x,-y,-z
_cell_length_a                   8.2537(6)
_cell_length_b                   8.2655(8)
_cell_length_c                   20.9677(14)
_cell_angle_alpha                83.973(7)
_cell_angle_beta                 88.005(6)
_cell_angle_gamma                68.959(8)
_cell_volume                     1327.67
_exptl_crystal_colour            colorless
_exptl_crystal_description       rod
_cell_formula_units_Z            2
loop_
_atom_site_label
_atom_site_type_symbol
_atom_site_fract_x
_atom_site_fract_y
_atom_site_fract_z
O1 O -0.0621(2) 0.7557(3) 0.00422(8)
H1 H -0.0889 0.7339 -0.0303
O2 O 0.2060(2) 0.6207(2) -0.03029(8)
O3 O 0.56926(18) 0.9140(2) 0.29240(7)
H2 H 0.4887 0.9733 0.3137
C1 C 0.3328(3) 0.9170(3) 0.22908(9)
H3 H 0.2526 0.9880 0.2560
C2 C 0.3973(3) 0.7545(3) 0.13456(9)
C3 C 0.2748(2) 0.8631(3) 0.17544(9)
C4 C 0.1653(3) 0.7572(3) 0.06691(10)
C5 C 0.0969(3) 0.9163(3) 0.16012(10)
H4 H 0.0146 0.9871 0.1865
C6 C 0.5050(3) 0.8659(3) 0.24163(9)
C7 C 0.6278(3) 0.7596(3) 0.20100(10)
H5 H 0.7456 0.7264 0.2097
C8 C 0.3382(3) 0.7026(3) 0.08094(9)
H6 H 0.4182 0.6297 0.0545
C9 C 0.5755(3) 0.7050(3) 0.14919(10)
H7 H 0.6581 0.6341 0.1230
C10 C 0.1087(3) 0.7027(3) 0.00862(10)
C11 C 0.0439(3) 0.8655(3) 0.10740(10)
H8 H -0.0740 0.9028 0.0980
O4 O 0.57353(18) 0.5036(2) 0.68703(7)
H9 H 0.6081 0.5378 0.7173
O5 O 0.85531(19) 0.3964(2) 0.66649(7)
O6 O 0.32905(18) 0.1167(2) 0.36876(7)
H10 H 0.2247 0.1347 0.3678
C12 C 0.4930(3) 0.3613(2) 0.58606(9)
H11 H 0.4068 0.4164 0.6145
C13 C 0.5805(2) 0.2128(2) 0.48913(8)
C14 C 0.3675(3) 0.1754(2) 0.42296(9)
C15 C 0.7070(3) 0.4150(3) 0.65314(9)
C16 C 0.2750(3) 0.3176(3) 0.51858(10)
H12 H 0.1870 0.3719 0.5466
C17 C 0.7923(3) 0.2561(3) 0.55533(9)
H13 H 0.9069 0.2420 0.5633
C18 C 0.4474(2) 0.2981(2) 0.53198(9)
C19 C 0.2354(3) 0.2584(3) 0.46547(9)
H14 H 0.1209 0.2727 0.4572
C20 C 0.5350(2) 0.1525(2) 0.43445(9)
H15 H 0.6209 0.0965 0.4060
C21 C 0.6610(2) 0.3433(2) 0.59757(9)
C22 C 0.7537(2) 0.1923(3) 0.50306(9)
H16 H 0.8425 0.1342 0.4760
N1 N 0.3230(2) 0.3882(2) 0.20922(7)
N2 N 0.1898(2) 0.3094(2) 0.10296(8)
C23 C 0.3597(3) 0.2570(3) 0.11189(9)
C24 C 0.0867(3) 0.3991(3) 0.14713(11)
H17 H -0.0331 0.4356 0.1421
C25 C 0.4280(3) 0.2972(3) 0.16573(9)
C26 C 0.4740(3) 0.1548(3) 0.06229(11)
H18 H 0.5322 0.0369 0.0802
H19 H 0.5586 0.2060 0.0485
H20 H 0.4049 0.1559 0.0263
C27 C 0.6188(3) 0.2415(3) 0.17687(11)
H21 H 0.6703 0.2897 0.1417
H22 H 0.6696 0.1167 0.1801
H23 H 0.6390 0.2823 0.2160
C28 C 0.1526(3) 0.4389(3) 0.19959(11)
H24 H 0.0768 0.5030 0.2293
O7 O 1.0043(2) 0.1704(3) 0.34662(12)
H25 H 0.9689 0.0931 0.3397
C29 C 0.8830(4) 0.3274(4) 0.32780(17)
H26 H 0.8745 0.3425 0.2819
H27 H 0.9156 0.4178 0.3423
H28 H 0.7728 0.3333 0.3459
O8 O 0.8921(2) -0.0733(2) 0.31816(12)
H29 H 0.9608 -0.1784 0.3248
H30 H 0.7907 -0.0709 0.3108
loop_
_geom_bond_atom_site_label_1
_geom_bond_atom_site_label_2
_geom_bond_site_symmetry_1
_geom_bond_site_symmetry_2
O1 H1 1_555 1_555
O2 C10 1_555 1_555
O3 H2 1_555 1_555
C1 H3 1_555 1_555
C2 C3 1_555 1_555
C3 C1 1_555 1_555
C4 C8 1_555 1_555
C5 C3 1_555 1_555
H4 C5 1_555 1_555
C6 O3 1_555 1_555
C7 C6 1_555 1_555
H5 C7 1_555 1_555
C8 C2 1_555 1_555
H6 C8 1_555 1_555
C9 C2 1_555 1_555
H7 C9 1_555 1_555
C10 O1 1_555 1_555
C11 C4 1_555 1_555
H8 C11 1_555 1_555
O4 H9 1_555 1_555
O5 C15 1_555 1_555
O6 H10 1_555 1_555
C12 H11 1_555 1_555
C13 C18 1_555 1_555
C14 O6 1_555 1_555
C15 O4 1_555 1_555
C16 H12 1_555 1_555
C17 H13 1_555 1_555
C18 C12 1_555 1_555
C19 C14 1_555 1_555
H14 C19 1_555 1_555
C20 C13 1_555 1_555
H15 C20 1_555 1_555
C21 C12 1_555 1_555
C22 C13 1_555 1_555
H16 C22 1_555 1_555
N1 C25 1_555 1_555
N2 C23 1_555 1_555
C23 C25 1_555 1_555
C24 N2 1_555 1_555
H17 C24 1_555 1_555
C25 C27 1_555 1_555
C26 C23 1_555 1_555
H18 C26 1_555 1_555
H19 C26 1_555 1_555
H20 C26 1_555 1_555
C27 H21 1_555 1_555
H22 C27 1_555 1_555
H23 C27 1_555 1_555
C28 N1 1_555 1_555
H24 C28 1_555 1_555
O7 H25 1_555 1_555
C29 O7 1_555 1_555
H26 C29 1_555 1_555
H27 C29 1_555 1_555
H28 C29 1_555 1_555
O8 H29 1_555 1_555
H30 O8 1_555 1_555
C1 C6 1_555 1_555
C4 C10 1_555 1_555
C5 C11 1_555 1_555
C7 C9 1_555 1_555
C14 C20 1_555 1_555
C15 C21 1_555 1_555
C16 C18 1_555 1_555
C16 C19 1_555 1_555
C17 C21 1_555 1_555
C17 C22 1_555 1_555
C24 C28 1_555 1_555

#END
