
#######################################################################
#
#                 Cambridge Crystallographic Data Centre
#                                CCDC 
#
#######################################################################
#
# If this CIF has been generated from an entry in the Cambridge 
# Structural Database, then it will include bibliographic, chemical, 
# crystal, experimental, refinement or atomic coordinate data resulting 
# from the CCDC's data processing and validation procedures.
#
#######################################################################

data_ZEYSUU
_chemical_formula_moiety         'C12 H11 N3'
_chemical_name_systematic        
1-methyl-4-(4-methylphenyl)-1H-pyrazole-3-carbonitrile
_symmetry_cell_setting           orthorhombic
_symmetry_space_group_name_H-M   'P 21 21 21'
_symmetry_Int_Tables_number      19
_space_group_name_Hall           'P 2ac 2ab'
loop_
_symmetry_equiv_pos_site_id
_symmetry_equiv_pos_as_xyz
1 x,y,z
2 1/2-x,-y,1/2+z
3 -x,1/2+y,1/2-z
4 1/2+x,1/2-y,-z
_cell_length_a                   3.89137(12)
_cell_length_b                   10.9774(3)
_cell_length_c                   23.7702(6)
_cell_angle_alpha                90
_cell_angle_beta                 90
_cell_angle_gamma                90
_cell_volume                     1015.39
_exptl_crystal_colour            colorless
_exptl_crystal_description       block
_cell_formula_units_Z            4
loop_
_atom_site_label
_atom_site_type_symbol
_atom_site_fract_x
_atom_site_fract_y
_atom_site_fract_z
N1 N 0.9200(5) 0.30896(17) 0.23397(8)
N2 N 0.7976(5) 0.20194(18) 0.25223(8)
N3 N 0.3804(7) 0.0614(2) 0.36284(9)
C1 C 0.7313(6) 0.3511(2) 0.31894(9)
C2 C 0.6406(6) 0.4121(2) 0.37243(9)
C3 C 0.6799(7) 0.2282(2) 0.30439(9)
C4 C 0.7018(7) 0.3555(2) 0.42405(10)
H1 H 0.7985 0.2780 0.4249
C5 C 0.4740(7) 0.5293(2) 0.47417(10)
C6 C 0.8839(7) 0.3995(2) 0.27178(9)
H2 H 0.9502 0.4802 0.2669
C7 C 0.4138(7) 0.5853(2) 0.42259(10)
H3 H 0.3173 0.6628 0.4218
C8 C 0.4946(7) 0.5280(2) 0.37221(10)
H4 H 0.4512 0.5671 0.3382
C9 C 0.5171(7) 0.1348(2) 0.33675(9)
C10 C 0.6198(7) 0.4136(2) 0.47406(10)
H5 H 0.6630 0.3746 0.5081
C11 C 1.0728(8) 0.3159(2) 0.17786(9)
H6 H 1.1677 0.2381 0.1680
H7 H 1.2516 0.3761 0.1777
H8 H 0.8993 0.3381 0.1510
C12 C 0.3769(8) 0.5915(2) 0.52857(10)
H9 H 0.3138 0.6745 0.5210
H10 H 0.5692 0.5899 0.5539
H11 H 0.1861 0.5497 0.5454
loop_
_geom_bond_atom_site_label_1
_geom_bond_atom_site_label_2
_geom_bond_site_symmetry_1
_geom_bond_site_symmetry_2
N1 N2 1_555 1_555
N2 C3 1_555 1_555
N3 C9 1_555 1_555
C1 C2 1_555 1_555
C2 C4 1_555 1_555
C3 C1 1_555 1_555
C4 H1 1_555 1_555
C5 C7 1_555 1_555
C6 N1 1_555 1_555
H2 C6 1_555 1_555
C7 H3 1_555 1_555
C8 C2 1_555 1_555
H4 C8 1_555 1_555
C9 C3 1_555 1_555
C10 C4 1_555 1_555
H5 C10 1_555 1_555
C11 N1 1_555 1_555
H6 C11 1_555 1_555
H7 C11 1_555 1_555
H8 C11 1_555 1_555
C12 C5 1_555 1_555
H9 C12 1_555 1_555
H10 C12 1_555 1_555
H11 C12 1_555 1_555
C1 C6 1_555 1_555
C5 C10 1_555 1_555
C7 C8 1_555 1_555

#END
