
#######################################################################
#
#                 Cambridge Crystallographic Data Centre
#                                CCDC 
#
#######################################################################
#
# If this CIF has been generated from an entry in the Cambridge 
# Structural Database, then it will include bibliographic, chemical, 
# crystal, experimental, refinement or atomic coordinate data resulting 
# from the CCDC's data processing and validation procedures.
#
#######################################################################

data_ZEYTUV
_chemical_formula_moiety         'C22 H24 N2 O3'
_chemical_name_systematic        
2-(1-hydroxyethylidene)-5-methyl-10-(3-methylbut-2-en-1-yl)-5,6,11,11a-tetrahydro-1H-indolizino[6,7-b]indole-1,3(2H)-dione
_symmetry_cell_setting           monoclinic
_symmetry_space_group_name_H-M   'P 21'
_symmetry_Int_Tables_number      4
_space_group_name_Hall           'P 2yb'
loop_
_symmetry_equiv_pos_site_id
_symmetry_equiv_pos_as_xyz
1 x,y,z
2 -x,1/2+y,-z
_cell_length_a                   8.9918(10)
_cell_length_b                   8.7953(10)
_cell_length_c                   12.6943(14)
_cell_angle_alpha                90
_cell_angle_beta                 107.372(4)
_cell_angle_gamma                90
_cell_volume                     958.143
_exptl_crystal_colour            colorless
_cell_formula_units_Z            2
loop_
_atom_site_label
_atom_site_type_symbol
_atom_site_fract_x
_atom_site_fract_y
_atom_site_fract_z
C1 C 0.1650(3) 0.8938(3) 0.9003(2)
C2 C 0.2236(3) 0.8535(3) 0.8164(2)
C3 C 0.3785(3) 0.6068(3) 0.7958(2)
C4 C 0.4351(3) 0.4745(3) 0.8510(3)
H1 H 0.4906 0.4078 0.8201
C5 C 0.4119(3) 0.4368(3) 0.9518(3)
H2 H 0.4527 0.3463 0.9865
C6 C 0.3297(3) 0.5311(3) 1.0008(3)
H3 H 0.3137 0.5059 1.0677
C7 C 0.2718(3) 0.6652(3) 0.9465(2)
C8 C 0.2937(3) 0.7066(3) 0.8440(2)
C9 C 0.2167(3) 0.9596(3) 0.7225(2)
H4 H 0.1237 0.9404 0.6616
H5 H 0.3070 0.9450 0.6967
C10 C 0.2144(3) 1.1204(3) 0.7650(2)
H6 H 0.3164 1.1436 0.8173
C11 C 0.1718(3) 1.2434(3) 0.6789(2)
C12 C 0.0472(3) 1.3315(3) 0.6956(2)
C13 C 0.0010(3) 1.2605(3) 0.7862(2)
C14 C 0.0912(3) 1.0427(3) 0.9143(2)
H7 H -0.0178 1.0239 0.9103
C15 C 0.1721(3) 1.1194(4) 1.0244(2)
H8 H 0.2809 1.1317 1.0319
H9 H 0.1604 1.0575 1.0837
H10 H 0.1259 1.2172 1.0269
C16 C -0.0016(3) 1.4637(4) 0.6394(2)
C17 C -0.1120(4) 1.5726(4) 0.6626(3)
H11 H -0.0554 1.6529 0.7086
H12 H -0.1761 1.5214 0.6999
H13 H -0.1767 1.6146 0.5945
C18 C 0.4140(3) 0.6468(3) 0.6895(2)
H14 H 0.4383 0.5543 0.6565
H15 H 0.3217 0.6911 0.6383
C19 C 0.5466(3) 0.7556(4) 0.7057(2)
H16 H 0.6230 0.7512 0.7738
C20 C 0.5686(4) 0.8574(4) 0.6352(3)
C21 C 0.4587(6) 0.8829(7) 0.5237(3)
H17 H 0.3654 0.8250 0.5157
H18 H 0.5063 0.8511 0.4690
H19 H 0.4331 0.9890 0.5142
C22 C 0.7094(5) 0.9576(6) 0.6634(4)
H20 H 0.6800 1.0594 0.6758
H21 H 0.7540 0.9574 0.6034
H22 H 0.7847 0.9203 0.7289
N1 N 0.1926(3) 0.7817(3) 0.97842(17)
N2 N 0.0945(2) 1.1383(3) 0.82077(17)
O1 O 0.2387(2) 1.2662(3) 0.60739(16)
O2 O -0.1040(2) 1.3000(2) 0.82445(16)
O3 O 0.0577(3) 1.5043(3) 0.5597(2)
H23 H 0.1285 1.4460 0.5588
loop_
_geom_bond_atom_site_label_1
_geom_bond_atom_site_label_2
_geom_bond_site_symmetry_1
_geom_bond_site_symmetry_2
C1 C2 1_555 1_555
C2 C8 1_555 1_555
C3 C4 1_555 1_555
C4 H1 1_555 1_555
C5 C4 1_555 1_555
H2 C5 1_555 1_555
C6 C5 1_555 1_555
H3 C6 1_555 1_555
C7 C6 1_555 1_555
C8 C3 1_555 1_555
C9 C2 1_555 1_555
H4 C9 1_555 1_555
H5 C9 1_555 1_555
C10 C9 1_555 1_555
H6 C10 1_555 1_555
C11 C10 1_555 1_555
C12 C11 1_555 1_555
C13 C12 1_555 1_555
C14 C1 1_555 1_555
H7 C14 1_555 1_555
C15 C14 1_555 1_555
H8 C15 1_555 1_555
H9 C15 1_555 1_555
H10 C15 1_555 1_555
C16 C12 1_555 1_555
C17 C16 1_555 1_555
H11 C17 1_555 1_555
H12 C17 1_555 1_555
H13 C17 1_555 1_555
C18 C3 1_555 1_555
H14 C18 1_555 1_555
H15 C18 1_555 1_555
C19 C18 1_555 1_555
H16 C19 1_555 1_555
C20 C19 1_555 1_555
C21 C20 1_555 1_555
H17 C21 1_555 1_555
H18 C21 1_555 1_555
H19 C21 1_555 1_555
C22 C20 1_555 1_555
H20 C22 1_555 1_555
H21 C22 1_555 1_555
H22 C22 1_555 1_555
N1 C1 1_555 1_555
N2 C10 1_555 1_555
O1 C11 1_555 1_555
O2 C13 1_555 1_555
O3 C16 1_555 1_555
H23 O3 1_555 1_555
C7 C8 1_555 1_555
C7 N1 1_555 1_555
C13 N2 1_555 1_555
C14 N2 1_555 1_555

#END
