
#######################################################################
#
#                 Cambridge Crystallographic Data Centre
#                                CCDC 
#
#######################################################################
#
# If this CIF has been generated from an entry in the Cambridge 
# Structural Database, then it will include bibliographic, chemical, 
# crystal, experimental, refinement or atomic coordinate data resulting 
# from the CCDC's data processing and validation procedures.
#
#######################################################################

data_ZEYTIJ
_chemical_formula_moiety         'C9 H7 N3 O1'
_chemical_name_systematic        
4-(furan-2-yl)-1-methyl-1H-pyrazole-3-carbonitrile
_symmetry_cell_setting           monoclinic
_symmetry_space_group_name_H-M   'P 21/n'
_symmetry_Int_Tables_number      14
_space_group_name_Hall           '-P 2yn'
loop_
_symmetry_equiv_pos_site_id
_symmetry_equiv_pos_as_xyz
1 x,y,z
2 1/2-x,1/2+y,1/2-z
3 -x,-y,-z
4 1/2+x,1/2-y,1/2+z
_cell_length_a                   7.836(3)
_cell_length_b                   13.163(5)
_cell_length_c                   8.674(4)
_cell_angle_alpha                90
_cell_angle_beta                 109.561(10)
_cell_angle_gamma                90
_cell_volume                     843.046
_exptl_crystal_colour            colorless
_exptl_crystal_description       Prism
_cell_formula_units_Z            4
loop_
_atom_site_label
_atom_site_type_symbol
_atom_site_fract_x
_atom_site_fract_y
_atom_site_fract_z
O1 O -0.09071(14) -0.02531(8) 0.63505(12)
N1 N 0.11730(15) 0.21793(9) 0.95509(13)
N2 N 0.25187(15) 0.17203(9) 1.07266(13)
N3 N 0.47432(18) -0.05437(10) 1.19694(16)
C1 C -0.1130(2) -0.11890(12) 0.5630(2)
H1 H -0.2045 -0.1355 0.4625
C2 C 0.0117(2) -0.18400(13) 0.6535(2)
H2 H 0.0242 -0.2535 0.6300
C3 C 0.1219(2) -0.12830(12) 0.7920(2)
H3 H 0.2226 -0.1535 0.8788
C4 C 0.05555(19) -0.03286(11) 0.77591(17)
C5 C 0.10520(18) 0.05974(11) 0.87058(16)
C6 C 0.24442(18) 0.07546(10) 1.02161(17)
C7 C 0.37182(19) 0.00338(11) 1.11960(17)
C8 C 0.02715(18) 0.15415(11) 0.83342(17)
H4 H -0.0724 0.1714 0.7390
C9 C 0.0831(2) 0.32569(12) 0.96809(18)
H5 H 0.0751 0.3399 1.0764
H6 H -0.0312 0.3444 0.8835
H7 H 0.1823 0.3653 0.9531
loop_
_geom_bond_atom_site_label_1
_geom_bond_atom_site_label_2
_geom_bond_site_symmetry_1
_geom_bond_site_symmetry_2
O1 C1 1_555 1_555
N1 N2 1_555 1_555
N2 C6 1_555 1_555
N3 C7 1_555 1_555
C1 H1 1_555 1_555
C2 C1 1_555 1_555
H2 C2 1_555 1_555
C3 C2 1_555 1_555
H3 C3 1_555 1_555
C4 O1 1_555 1_555
C5 C4 1_555 1_555
C6 C5 1_555 1_555
C7 C6 1_555 1_555
C8 N1 1_555 1_555
H4 C8 1_555 1_555
C9 N1 1_555 1_555
H5 C9 1_555 1_555
H6 C9 1_555 1_555
H7 C9 1_555 1_555
C3 C4 1_555 1_555
C5 C8 1_555 1_555

#END
