
#######################################################################
#
#                 Cambridge Crystallographic Data Centre
#                                CCDC 
#
#######################################################################
#
# If this CIF has been generated from an entry in the Cambridge 
# Structural Database, then it will include bibliographic, chemical, 
# crystal, experimental, refinement or atomic coordinate data resulting 
# from the CCDC's data processing and validation procedures.
#
#######################################################################

data_ZEYVAD
_chemical_formula_moiety         'C29 H30 I1 N3 O1'
_chemical_name_systematic        
1'-azido-3,5-di-t-butyl-3'-[iodo(phenyl)methylidene]-1',3'-dihydro-4H-spiro[cyclohexa-2,5-diene-1,2'-inden]-4-one
_symmetry_cell_setting           monoclinic
_symmetry_space_group_name_H-M   'P 21/c'
_symmetry_Int_Tables_number      14
_space_group_name_Hall           '-P 2ybc'
loop_
_symmetry_equiv_pos_site_id
_symmetry_equiv_pos_as_xyz
1 x,y,z
2 -x,1/2+y,1/2-z
3 -x,-y,-z
4 x,1/2-y,1/2+z
_cell_length_a                   16.3688(8)
_cell_length_b                   16.7775(9)
_cell_length_c                   9.6700(4)
_cell_angle_alpha                90
_cell_angle_beta                 94.618(3)
_cell_angle_gamma                90
_cell_volume                     2647.03
_exptl_crystal_colour            colorless
_exptl_crystal_description       block
_cell_formula_units_Z            4
loop_
_atom_site_label
_atom_site_type_symbol
_atom_site_fract_x
_atom_site_fract_y
_atom_site_fract_z
I1 I 0.61484(3) 0.39663(3) 0.85910(4)
O1 O 0.8992(4) 0.5019(4) 0.2937(7)
N1 N 0.5870(4) 0.4763(3) 0.1842(5)
N2 N 0.6091(4) 0.5398(4) 0.1347(6)
N3 N 0.6262(6) 0.5936(4) 0.0736(8)
C1 C 0.7619(5) 0.5379(4) 0.8143(7)
H1 H 0.7146 0.5616 0.8478
C2 C 0.8379(5) 0.5671(5) 0.8550(8)
H2 H 0.8428 0.6117 0.9157
C3 C 0.9074(5) 0.5336(5) 0.8103(8)
H3 H 0.9598 0.5538 0.8418
C4 C 0.9004(5) 0.4702(5) 0.7189(8)
H4 H 0.9482 0.4475 0.6859
C5 C 0.8251(4) 0.4401(4) 0.6758(7)
H5 H 0.8213 0.3964 0.6132
C6 C 0.7538(4) 0.4725(4) 0.7224(6)
C7 C 0.6739(4) 0.4354(3) 0.6826(6)
C8 C 0.6382(4) 0.4225(3) 0.5545(6)
C9 C 0.5640(4) 0.3771(4) 0.5062(6)
C10 C 0.5272(4) 0.3107(4) 0.5619(7)
H6 H 0.5476 0.2896 0.6491
C11 C 0.4610(5) 0.2762(5) 0.4886(8)
H7 H 0.4363 0.2304 0.5252
C12 C 0.4293(5) 0.3070(5) 0.3619(8)
H8 H 0.3827 0.2826 0.3145
C13 C 0.4645(5) 0.3726(5) 0.3039(8)
H9 H 0.4434 0.3939 0.2172
C14 C 0.5332(4) 0.4066(4) 0.3791(7)
C15 C 0.5836(4) 0.4758(4) 0.3366(6)
H10 H 0.5590 0.5268 0.3672
C16 C 0.6688(4) 0.4614(3) 0.4204(6)
C17 C 0.7149(4) 0.4002(3) 0.3472(6)
H11 H 0.6911 0.3488 0.3355
C18 C 0.7875(4) 0.4126(3) 0.2965(6)
C19 C 0.8289(4) 0.4916(4) 0.3209(7)
C20 C 0.7803(4) 0.5575(3) 0.3814(6)
C21 C 0.7109(4) 0.5400(4) 0.4345(6)
H12 H 0.6860 0.5804 0.4856
C22 C 0.8176(5) 0.6424(4) 0.3807(7)
C23 C 0.7549(6) 0.7022(4) 0.4289(11)
H13 H 0.7047 0.6997 0.3667
H14 H 0.7778 0.7561 0.4274
H15 H 0.7422 0.6889 0.5236
C24 C 0.8951(5) 0.6483(5) 0.4774(8)
H16 H 0.8811 0.6435 0.5737
H17 H 0.9214 0.6999 0.4643
H18 H 0.9327 0.6053 0.4565
C25 C 0.8359(7) 0.6652(5) 0.2331(9)
H19 H 0.8731 0.6258 0.1975
H20 H 0.8617 0.7180 0.2342
H21 H 0.7847 0.6665 0.1733
C26 C 0.8331(5) 0.3483(4) 0.2178(7)
C27 C 0.7770(6) 0.2757(5) 0.1893(11)
H22 H 0.7595 0.2554 0.2771
H23 H 0.8070 0.2340 0.1437
H24 H 0.7288 0.2915 0.1288
C28 C 0.8558(5) 0.3799(4) 0.0779(8)
H25 H 0.8064 0.3996 0.0247
H26 H 0.8802 0.3369 0.0264
H27 H 0.8954 0.4235 0.0930
C29 C 0.9109(6) 0.3224(6) 0.3078(10)
H28 H 0.9446 0.3693 0.3324
H29 H 0.9424 0.2848 0.2555
H30 H 0.8951 0.2966 0.3926
loop_
_geom_bond_atom_site_label_1
_geom_bond_atom_site_label_2
_geom_bond_site_symmetry_1
_geom_bond_site_symmetry_2
I1 C7 1_555 1_555
O1 C19 1_555 1_555
N1 N2 1_555 1_555
N2 N3 1_555 1_555
C1 H1 1_555 1_555
C2 C1 1_555 1_555
H2 C2 1_555 1_555
C3 C2 1_555 1_555
H3 C3 1_555 1_555
C4 C3 1_555 1_555
H4 C4 1_555 1_555
C5 C4 1_555 1_555
H5 C5 1_555 1_555
C6 C1 1_555 1_555
C7 C6 1_555 1_555
C8 C7 1_555 1_555
C9 C8 1_555 1_555
C10 C9 1_555 1_555
H6 C10 1_555 1_555
C11 C10 1_555 1_555
H7 C11 1_555 1_555
C12 C11 1_555 1_555
H8 C12 1_555 1_555
C13 C12 1_555 1_555
H9 C13 1_555 1_555
C14 C9 1_555 1_555
C15 N1 1_555 1_555
H10 C15 1_555 1_555
C16 C8 1_555 1_555
C17 C16 1_555 1_555
H11 C17 1_555 1_555
C18 C17 1_555 1_555
C19 C18 1_555 1_555
C20 C19 1_555 1_555
C21 C16 1_555 1_555
H12 C21 1_555 1_555
C22 C20 1_555 1_555
C23 C22 1_555 1_555
H13 C23 1_555 1_555
H14 C23 1_555 1_555
H15 C23 1_555 1_555
C24 C22 1_555 1_555
H16 C24 1_555 1_555
H17 C24 1_555 1_555
H18 C24 1_555 1_555
C25 C22 1_555 1_555
H19 C25 1_555 1_555
H20 C25 1_555 1_555
H21 C25 1_555 1_555
C26 C18 1_555 1_555
C27 C26 1_555 1_555
H22 C27 1_555 1_555
H23 C27 1_555 1_555
H24 C27 1_555 1_555
C28 C26 1_555 1_555
H25 C28 1_555 1_555
H26 C28 1_555 1_555
H27 C28 1_555 1_555
C29 C26 1_555 1_555
H28 C29 1_555 1_555
H29 C29 1_555 1_555
H30 C29 1_555 1_555
C5 C6 1_555 1_555
C13 C14 1_555 1_555
C14 C15 1_555 1_555
C15 C16 1_555 1_555
C20 C21 1_555 1_555

#END
