
#######################################################################
#
#                 Cambridge Crystallographic Data Centre
#                                CCDC 
#
#######################################################################
#
# If this CIF has been generated from an entry in the Cambridge 
# Structural Database, then it will include bibliographic, chemical, 
# crystal, experimental, refinement or atomic coordinate data resulting 
# from the CCDC's data processing and validation procedures.
#
#######################################################################

data_ZEYVEH
_chemical_formula_moiety         'C29 H30 O2'
_chemical_name_systematic        
3-(3,5-di-t-butyl-4-hydroxyphenyl)-2-phenyl-1H-inden-1-one
_symmetry_cell_setting           orthorhombic
_symmetry_space_group_name_H-M   'P b c a'
_symmetry_Int_Tables_number      61
_space_group_name_Hall           '-P 2ac 2ab'
loop_
_symmetry_equiv_pos_site_id
_symmetry_equiv_pos_as_xyz
1 x,y,z
2 1/2-x,-y,1/2+z
3 -x,1/2+y,1/2-z
4 1/2+x,1/2-y,-z
5 -x,-y,-z
6 1/2+x,y,1/2-z
7 x,1/2-y,1/2+z
8 1/2-x,1/2+y,z
_cell_length_a                   19.1524(16)
_cell_length_b                   11.5780(10)
_cell_length_c                   20.9822(17)
_cell_angle_alpha                90
_cell_angle_beta                 90
_cell_angle_gamma                90
_cell_volume                     4652.73
_exptl_crystal_colour            red
_exptl_crystal_description       block
_cell_formula_units_Z            8
loop_
_atom_site_label
_atom_site_type_symbol
_atom_site_fract_x
_atom_site_fract_y
_atom_site_fract_z
O1 O 0.36012(9) 0.68533(15) 0.81583(6)
O2 O 0.37234(11) 0.61635(14) 0.39154(7)
C1 C 0.37908(9) 0.60388(15) 0.62415(8)
C2 C 0.42255(8) 0.59268(14) 0.73331(8)
C3 C 0.42835(9) 0.56694(15) 0.66892(8)
H1 H 0.4667 0.5232 0.6549
C4 C 0.31305(9) 0.69755(14) 0.70916(8)
C5 C 0.32194(9) 0.66714(15) 0.64598(8)
H2 H 0.2879 0.6902 0.6163
C6 C 0.36507(9) 0.66102(15) 0.75229(8)
C7 C 0.40944(9) 0.46306(15) 0.53088(8)
C8 C 0.38661(9) 0.57865(15) 0.55604(8)
C9 C 0.47750(9) 0.55058(15) 0.78155(8)
C10 C 0.40411(10) 0.46557(16) 0.46469(9)
C11 C 0.24953(10) 0.76976(16) 0.73029(9)
C12 C 0.42947(10) 0.36270(16) 0.56069(9)
H3 H 0.4333 0.3592 0.6053
C13 C 0.35050(10) 0.77250(17) 0.50634(9)
C14 C 0.37079(10) 0.64949(16) 0.50631(9)
C15 C 0.41651(11) 0.36948(18) 0.42800(10)
H4 H 0.4115 0.3723 0.3835
C16 C 0.38102(11) 0.58317(17) 0.44612(9)
C17 C 0.30032(11) 0.81358(18) 0.46432(10)
H5 H 0.2783 0.7621 0.4361
C18 C 0.44403(12) 0.26627(18) 0.52335(10)
H6 H 0.4593 0.1980 0.5432
C19 C 0.53280(11) 0.4743(2) 0.74987(10)
H7 H 0.5104 0.4081 0.7303
H8 H 0.5659 0.4481 0.7817
H9 H 0.5572 0.5185 0.7175
C20 C 0.51595(11) 0.65430(18) 0.81049(11)
H10 H 0.5363 0.7004 0.7766
H11 H 0.5527 0.6270 0.8386
H12 H 0.4833 0.7011 0.8346
C21 C 0.19906(11) 0.7910(2) 0.67462(11)
H13 H 0.2230 0.8332 0.6412
H14 H 0.1594 0.8357 0.6895
H15 H 0.1829 0.7175 0.6580
C22 C 0.44380(12) 0.4786(2) 0.83445(10)
H16 H 0.4089 0.5247 0.8562
H17 H 0.4793 0.4547 0.8646
H18 H 0.4219 0.4109 0.8160
C23 C 0.20769(11) 0.70771(19) 0.78261(11)
H19 H 0.1905 0.6346 0.7663
H20 H 0.1686 0.7556 0.7954
H21 H 0.2376 0.6938 0.8191
C24 C 0.43662(12) 0.26847(19) 0.45804(10)
H22 H 0.4452 0.2015 0.4340
C25 C 0.38176(11) 0.85142(18) 0.54757(11)
H23 H 0.4164 0.8261 0.5761
C26 C 0.27278(11) 0.89001(17) 0.75266(12)
H24 H 0.3043 0.8822 0.7886
H25 H 0.2322 0.9344 0.7655
H26 H 0.2965 0.9294 0.7181
C27 C 0.28226(12) 0.9294(2) 0.46348(12)
H27 H 0.2485 0.9559 0.4344
C28 C 0.36260(13) 0.96609(19) 0.54713(13)
H28 H 0.3834 1.0178 0.5760
C29 C 0.31304(14) 1.0055(2) 0.50457(13)
H29 H 0.3006 1.0840 0.5039
H30 H 0.352(2) 0.7424(18) 0.8361(11)
loop_
_geom_bond_atom_site_label_1
_geom_bond_atom_site_label_2
_geom_bond_site_symmetry_1
_geom_bond_site_symmetry_2
O1 C6 1_555 1_555
O2 C16 1_555 1_555
C1 C3 1_555 1_555
C2 C3 1_555 1_555
C3 H1 1_555 1_555
C4 C5 1_555 1_555
C5 C1 1_555 1_555
H2 C5 1_555 1_555
C6 C2 1_555 1_555
C7 C8 1_555 1_555
C8 C1 1_555 1_555
C9 C2 1_555 1_555
C10 C7 1_555 1_555
C11 C4 1_555 1_555
C12 C7 1_555 1_555
H3 C12 1_555 1_555
C13 C14 1_555 1_555
C14 C8 1_555 1_555
C15 C10 1_555 1_555
H4 C15 1_555 1_555
C16 C10 1_555 1_555
C17 C13 1_555 1_555
H5 C17 1_555 1_555
C18 C12 1_555 1_555
H6 C18 1_555 1_555
C19 C9 1_555 1_555
H7 C19 1_555 1_555
H8 C19 1_555 1_555
H9 C19 1_555 1_555
C20 C9 1_555 1_555
H10 C20 1_555 1_555
H11 C20 1_555 1_555
H12 C20 1_555 1_555
C21 C11 1_555 1_555
H13 C21 1_555 1_555
H14 C21 1_555 1_555
H15 C21 1_555 1_555
C22 C9 1_555 1_555
H16 C22 1_555 1_555
H17 C22 1_555 1_555
H18 C22 1_555 1_555
C23 C11 1_555 1_555
H19 C23 1_555 1_555
H20 C23 1_555 1_555
H21 C23 1_555 1_555
C24 C15 1_555 1_555
H22 C24 1_555 1_555
C25 C13 1_555 1_555
H23 C25 1_555 1_555
C26 C11 1_555 1_555
H24 C26 1_555 1_555
H25 C26 1_555 1_555
H26 C26 1_555 1_555
C27 C17 1_555 1_555
H27 C27 1_555 1_555
C28 C25 1_555 1_555
H28 C28 1_555 1_555
C29 C27 1_555 1_555
H29 C29 1_555 1_555
H30 O1 1_555 1_555
C4 C6 1_555 1_555
C14 C16 1_555 1_555
C18 C24 1_555 1_555
C28 C29 1_555 1_555

#END
