
#######################################################################
#
#                 Cambridge Crystallographic Data Centre
#                                CCDC 
#
#######################################################################
#
# If this CIF has been generated from an entry in the Cambridge 
# Structural Database, then it will include bibliographic, chemical, 
# crystal, experimental, refinement or atomic coordinate data resulting 
# from the CCDC's data processing and validation procedures.
#
#######################################################################

data_ZEZCEO
_chemical_formula_moiety         'C28 H22 O4'
_chemical_name_systematic        
4,4'-bis(benzyloxy)biphenyl-3,3'-dicarbaldehyde
_symmetry_cell_setting           orthorhombic
_symmetry_space_group_name_H-M   'P b c a'
_symmetry_Int_Tables_number      61
_space_group_name_Hall           '-P 2ac 2ab'
loop_
_symmetry_equiv_pos_site_id
_symmetry_equiv_pos_as_xyz
1 x,y,z
2 1/2+x,1/2-y,-z
3 -x,1/2+y,1/2-z
4 1/2-x,-y,1/2+z
5 -x,-y,-z
6 1/2-x,1/2+y,z
7 x,1/2-y,1/2+z
8 1/2+x,y,1/2-z
_cell_length_a                   7.5379(7)
_cell_length_b                   16.1488(13)
_cell_length_c                   16.9621(16)
_cell_angle_alpha                90
_cell_angle_beta                 90
_cell_angle_gamma                90
_cell_volume                     2064.76
_exptl_crystal_colour            colorless
_exptl_crystal_description       tabular
_cell_formula_units_Z            4
loop_
_atom_site_label
_atom_site_type_symbol
_atom_site_fract_x
_atom_site_fract_y
_atom_site_fract_z
O1 O 0.01928(15) 0.07582(6) 0.21817(6)
O2 O 0.18446(18) -0.15104(6) 0.27607(7)
C1 C 0.0400(2) 0.17209(9) -0.05656(10)
H1 H 0.0565 0.1756 -0.1120
C2 C 0.1084(2) 0.23278(9) -0.00736(10)
H2 H 0.1729 0.2778 -0.0293
C3 C 0.08397(19) 0.22856(8) 0.07327(10)
H3 H 0.1305 0.2708 0.1063
C4 C -0.0088(2) 0.16248(8) 0.10638(9)
C5 C -0.0371(2) 0.15715(8) 0.19364(10)
H4 H 0.0333 0.2002 0.2210
H5 H -0.1639 0.1656 0.2065
C6 C 0.0070(2) 0.05719(8) 0.29657(9)
C7 C 0.06550(19) -0.02201(8) 0.31960(9)
C8 C 0.0598(2) -0.04347(9) 0.39906(9)
H6 H 0.0991 -0.0970 0.4143
C9 C -0.00151(19) 0.01057(8) 0.45724(9)
C10 C -0.0642(2) 0.08724(9) 0.43107(10)
H7 H -0.1125 0.1246 0.4686
C11 C -0.0588(2) 0.11085(9) 0.35283(9)
H8 H -0.1003 0.1641 0.3377
C12 C -0.0765(2) 0.10159(8) 0.05685(10)
H9 H -0.1399 0.0562 0.0787
C13 C -0.0525(2) 0.10650(9) -0.02411(10)
H10 H -0.0998 0.0646 -0.0574
C14 C 0.1326(2) -0.08159(9) 0.26071(10)
H11 H 0.1354 -0.0645 0.2071
O1D O -0.01928(15) -0.07582(6) 0.78183(6)
O2D O -0.18446(18) 0.15104(6) 0.72393(7)
C1D C -0.0400(2) -0.17209(9) 1.05656(10)
H1D H -0.0565 -0.1756 1.1120
C2D C -0.1084(2) -0.23278(9) 1.00736(10)
H2D H -0.1729 -0.2778 1.0293
C3D C -0.08397(19) -0.22856(8) 0.92673(10)
H3D H -0.1305 -0.2708 0.8937
C4D C 0.0088(2) -0.16248(8) 0.89362(9)
C5D C 0.0371(2) -0.15715(8) 0.80636(10)
H4D H -0.0333 -0.2002 0.7790
H5D H 0.1639 -0.1656 0.7935
C6D C -0.0070(2) -0.05719(8) 0.70343(9)
C7D C -0.06550(19) 0.02201(8) 0.68040(9)
C8D C -0.0598(2) 0.04347(9) 0.60094(9)
H6D H -0.0991 0.0970 0.5857
C9D C 0.00151(19) -0.01057(8) 0.54276(9)
C10D C 0.0642(2) -0.08724(9) 0.56893(10)
H7D H 0.1125 -0.1246 0.5314
C11D C 0.0588(2) -0.11085(9) 0.64717(9)
H8D H 0.1003 -0.1641 0.6623
C12D C 0.0765(2) -0.10159(8) 0.94315(10)
H9D H 0.1399 -0.0562 0.9213
C13D C 0.0525(2) -0.10650(9) 1.02411(10)
H10D H 0.0998 -0.0646 1.0574
C14D C -0.1326(2) 0.08159(9) 0.73929(10)
H11D H -0.1354 0.0645 0.7929
loop_
_geom_bond_atom_site_label_1
_geom_bond_atom_site_label_2
_geom_bond_site_symmetry_1
_geom_bond_site_symmetry_2
O1 C5 1_555 1_555
O2 C14 1_555 1_555
C1 H1 1_555 1_555
C2 C1 1_555 1_555
H2 C2 1_555 1_555
C3 C2 1_555 1_555
H3 C3 1_555 1_555
C4 C3 1_555 1_555
C5 C4 1_555 1_555
H4 C5 1_555 1_555
H5 C5 1_555 1_555
C6 O1 1_555 1_555
C7 C6 1_555 1_555
C8 C7 1_555 1_555
H6 C8 1_555 1_555
C9 C8 1_555 1_555
C10 C9 1_555 1_555
H7 C10 1_555 1_555
C11 C6 1_555 1_555
H8 C11 1_555 1_555
C12 C4 1_555 1_555
H9 C12 1_555 1_555
C13 C1 1_555 1_555
H10 C13 1_555 1_555
C14 C7 1_555 1_555
H11 C14 1_555 1_555
O1D C5D 1_555 1_555
O2D C14D 1_555 1_555
C1D H1D 1_555 1_555
C2D C1D 1_555 1_555
H2D C2D 1_555 1_555
C3D C2D 1_555 1_555
H3D C3D 1_555 1_555
C4D C3D 1_555 1_555
C5D C4D 1_555 1_555
H4D C5D 1_555 1_555
H5D C5D 1_555 1_555
C6D O1D 1_555 1_555
C7D C6D 1_555 1_555
C8D C7D 1_555 1_555
H6D C8D 1_555 1_555
C9D C9 1_555 1_555
C10D C9D 1_555 1_555
H7D C10D 1_555 1_555
C11D C6D 1_555 1_555
H8D C11D 1_555 1_555
C12D C4D 1_555 1_555
H9D C12D 1_555 1_555
C13D C1D 1_555 1_555
H10D C13D 1_555 1_555
C14D C7D 1_555 1_555
H11D C14D 1_555 1_555
C10 C11 1_555 1_555
C12 C13 1_555 1_555
C8D C9D 1_555 1_555
C10D C11D 1_555 1_555
C12D C13D 1_555 1_555

#END
