
#######################################################################
#
#                 Cambridge Crystallographic Data Centre
#                                CCDC 
#
#######################################################################
#
# If this CIF has been generated from an entry in the Cambridge 
# Structural Database, then it will include bibliographic, chemical, 
# crystal, experimental, refinement or atomic coordinate data resulting 
# from the CCDC's data processing and validation procedures.
#
#######################################################################

data_ZEZDUF
_chemical_formula_moiety         'C19 H14 N2 O1'
_chemical_name_systematic        
7,12-Dihydro-6H-benzo[2,3]indolizino[8,7-b]indole-13-carbaldehyde
_symmetry_cell_setting           orthorhombic
_symmetry_space_group_name_H-M   'P 21 21 21'
_symmetry_Int_Tables_number      19
_space_group_name_Hall           'P 2ac 2ab'
loop_
_symmetry_equiv_pos_site_id
_symmetry_equiv_pos_as_xyz
1 x,y,z
2 1/2-x,-y,1/2+z
3 -x,1/2+y,1/2-z
4 1/2+x,1/2-y,-z
_cell_length_a                   6.832(2)
_cell_length_b                   11.063(4)
_cell_length_c                   18.364(6)
_cell_angle_alpha                90
_cell_angle_beta                 90
_cell_angle_gamma                90
_cell_volume                     1388
_exptl_crystal_colour            colorless
_exptl_crystal_description       block
_cell_formula_units_Z            4
loop_
_atom_site_label
_atom_site_type_symbol
_atom_site_fract_x
_atom_site_fract_y
_atom_site_fract_z
C1 C 0.1118(3) 0.48998(15) 0.73342(10)
C2 C -0.0630(3) 0.43654(18) 0.75453(12)
H1 H -0.1174 0.3731 0.7282
C3 C -0.1527(3) 0.4811(2) 0.81597(13)
H2 H -0.2697 0.4468 0.8316
C4 C -0.0723(3) 0.5765(2) 0.85540(12)
H3 H -0.1362 0.6039 0.8970
C5 C 0.0984(3) 0.63069(19) 0.83441(10)
H4 H 0.1505 0.6943 0.8613
C6 C 0.1937(3) 0.58862(16) 0.77154(10)
C7 C 0.3698(3) 0.62107(16) 0.73469(10)
C8 C 0.3903(3) 0.54159(16) 0.67766(10)
C9 C 0.5558(3) 0.54149(16) 0.63084(10)
C10 C 0.6382(3) 0.74342(18) 0.68271(13)
H5 H 0.5660 0.8005 0.6529
H6 H 0.7600 0.7817 0.6971
C11 C 0.5206(3) 0.71505(18) 0.74982(11)
H7 H 0.6075 0.6867 0.7879
H8 H 0.4569 0.7881 0.7670
C12 C 0.6326(3) 0.46170(16) 0.57855(10)
C13 C 0.8159(3) 0.51286(15) 0.55440(10)
C14 C 0.9584(3) 0.47919(19) 0.50415(10)
H9 H 0.9455 0.4078 0.4779
C15 C 1.1184(3) 0.5526(2) 0.49382(11)
H10 H 1.2138 0.5303 0.4603
C16 C 1.1397(4) 0.65984(19) 0.53282(12)
H11 H 1.2492 0.7079 0.5247
C17 C 1.0030(3) 0.69595(18) 0.58283(12)
H12 H 1.0180 0.7673 0.6090
C18 C 0.8411(3) 0.62192(16) 0.59304(10)
C19 C 0.5479(3) 0.35045(17) 0.55380(10)
H13 H 0.6226 0.3050 0.5215
N1 N 0.2343(2) 0.46178(14) 0.67617(9)
N2 N 0.6826(2) 0.63582(13) 0.63913(8)
O1 O 0.3870(2) 0.30834(12) 0.57064(8)
H14 H 0.222(3) 0.3961(19) 0.6371(11)
loop_
_geom_bond_atom_site_label_1
_geom_bond_atom_site_label_2
_geom_bond_site_symmetry_1
_geom_bond_site_symmetry_2
C1 C2 1_555 1_555
C2 H1 1_555 1_555
C3 C2 1_555 1_555
H2 C3 1_555 1_555
C4 C3 1_555 1_555
H3 C4 1_555 1_555
C5 C4 1_555 1_555
H4 C5 1_555 1_555
C6 C1 1_555 1_555
C7 C6 1_555 1_555
C8 C7 1_555 1_555
C9 C8 1_555 1_555
C10 H5 1_555 1_555
H6 C10 1_555 1_555
C11 C7 1_555 1_555
H7 C11 1_555 1_555
H8 C11 1_555 1_555
C12 C9 1_555 1_555
C13 C12 1_555 1_555
C14 C13 1_555 1_555
H9 C14 1_555 1_555
C15 C14 1_555 1_555
H10 C15 1_555 1_555
C16 C15 1_555 1_555
H11 C16 1_555 1_555
C17 C16 1_555 1_555
H12 C17 1_555 1_555
C18 C13 1_555 1_555
C19 C12 1_555 1_555
H13 C19 1_555 1_555
N1 C1 1_555 1_555
N2 C9 1_555 1_555
O1 C19 1_555 1_555
H14 N1 1_555 1_555
C5 C6 1_555 1_555
C8 N1 1_555 1_555
C10 C11 1_555 1_555
C10 N2 1_555 1_555
C17 C18 1_555 1_555
C18 N2 1_555 1_555

#END
