
#######################################################################
#
#                 Cambridge Crystallographic Data Centre
#                                CCDC 
#
#######################################################################
#
# If this CIF has been generated from an entry in the Cambridge 
# Structural Database, then it will include bibliographic, chemical, 
# crystal, experimental, refinement or atomic coordinate data resulting 
# from the CCDC's data processing and validation procedures.
#
#######################################################################

data_ZEZFOB
_chemical_formula_moiety         'C30 H38 N2 O8'
_chemical_name_systematic        
2,7-bis(1-Ethoxy-1-hydroxy-4-methylpentan-2-yl)benzo[lmn][3,8]phenanthroline-1,3,6,8(2H,7H)-tetrone
_symmetry_cell_setting           triclinic
_symmetry_space_group_name_H-M   'P 1'
_symmetry_Int_Tables_number      1
_space_group_name_Hall           'P 1'
loop_
_symmetry_equiv_pos_site_id
_symmetry_equiv_pos_as_xyz
1 x,y,z
_cell_length_a                   5.7769(9)
_cell_length_b                   8.856(2)
_cell_length_c                   14.249(3)
_cell_angle_alpha                84.286(8)
_cell_angle_beta                 79.600(6)
_cell_angle_gamma                76.235(8)
_cell_volume                     695.19
_exptl_crystal_colour            colorless
_exptl_crystal_description       block
_cell_formula_units_Z            1
loop_
_atom_site_label
_atom_site_type_symbol
_atom_site_fract_x
_atom_site_fract_y
_atom_site_fract_z
N1 N 0.8000(19) 0.2246(12) 0.3303(8)
N2 N 0.184(2) 0.7820(13) 0.6653(9)
O1 O 1.1067(18) 0.3492(12) 0.2962(8)
O2 O 0.5311(17) 0.0716(12) 0.3916(7)
O3 O 0.4536(17) 0.9287(10) 0.6124(8)
O4 O -0.1016(19) 0.6381(12) 0.7067(8)
O5 O 1.1086(17) -0.0312(12) 0.3922(8)
H1 H 1.2177 -0.0101 0.4169
O6 O -0.116(2) 1.0467(13) 0.6060(9)
H2 H -0.2414 1.0120 0.6106
O7 O -0.264(2) 1.1088(13) 0.7620(9)
O8 O 1.1898(19) -0.1362(12) 0.2435(8)
C1 C 0.440(2) 0.5586(17) 0.5297(10)
C2 C 0.569(2) 0.4431(15) 0.4643(9)
C3 C 0.135(2) 0.4050(14) 0.5837(11)
H3 H -0.0120 0.3913 0.6218
C4 C 0.728(2) 0.7156(16) 0.4742(11)
H4 H 0.7887 0.8061 0.4757
C5 C 0.265(2) 0.2915(15) 0.5204(10)
H5 H 0.2092 0.1997 0.5177
C6 C 0.845(3) 0.6006(17) 0.4094(11)
H6 H 0.9847 0.6169 0.3665
C7 C 0.467(2) 0.3122(15) 0.4642(11)
C8 C 0.771(2) 0.4675(15) 0.4047(10)
C9 C 0.520(2) 0.6927(15) 0.5367(10)
C10 C 0.217(2) 0.5337(14) 0.5913(10)
C11 C 0.393(2) 0.8110(16) 0.6064(10)
C12 C 0.909(2) 0.3447(15) 0.3402(10)
C13 C 0.087(2) 0.6546(17) 0.6564(12)
C14 C 0.598(2) 0.1946(15) 0.3930(10)
C15 C 0.050(2) 0.8920(14) 0.7359(11)
H7 H -0.0872 0.8470 0.7705
C16 C 0.920(3) 0.1002(18) 0.2571(11)
H8 H 0.8077 0.0298 0.2574
C17 C 0.965(3) 0.1756(18) 0.1573(11)
H9 H 1.0380 0.2649 0.1609
H10 H 1.0854 0.0994 0.1170
C18 C 0.197(2) 0.9145(16) 0.8147(11)
H11 H 0.3258 0.9682 0.7835
H12 H 0.0872 0.9849 0.8616
C19 C 0.751(3) 0.232(2) 0.1088(12)
H13 H 0.6185 0.2949 0.1537
C20 C 0.314(3) 0.7694(19) 0.8693(14)
H14 H 0.4295 0.7004 0.8218
C21 C 0.454(3) 0.806(2) 0.9364(13)
H15 H 0.5790 0.8574 0.9014
H16 H 0.5298 0.7096 0.9695
H17 H 0.3462 0.8755 0.9832
C22 C 0.131(3) 0.6777(19) 0.9220(15)
H18 H 0.2116 0.5936 0.9631
H19 H 0.0647 0.6334 0.8754
H20 H 0.0004 0.7476 0.9612
C23 C 0.661(4) 0.088(2) 0.0800(14)
H21 H 0.6499 0.0123 0.1350
H22 H 0.7754 0.0375 0.0267
H23 H 0.5013 0.1252 0.0608
C24 C 0.803(5) 0.329(2) 0.0212(17)
H24 H 0.8449 0.4230 0.0374
H25 H 0.6592 0.3588 -0.0101
H26 H 0.9377 0.2701 -0.0222
C25 C 1.150(3) 0.0044(17) 0.2925(12)
H27 H 1.2875 0.0572 0.2734
C26 C -0.062(2) 1.0506(15) 0.6963(10)
H28 H 0.0557 1.1188 0.6920
C27 C 1.418(3) -0.240(2) 0.2575(15)
H29 H 1.4117 -0.2785 0.3254
H30 H 1.5504 -0.1841 0.2404
C28 C -0.361(3) 1.2724(19) 0.7492(16)
H31 H -0.3804 1.3009 0.6816
H32 H -0.2519 1.3320 0.7666
C29 C 1.465(4) -0.373(2) 0.1969(16)
H33 H 1.6222 -0.4413 0.2042
H34 H 1.4668 -0.3343 0.1300
H35 H 1.3381 -0.4310 0.2162
C30 C -0.606(3) 1.3097(19) 0.8137(13)
H36 H -0.6748 1.4220 0.8085
H37 H -0.5857 1.2775 0.8801
H38 H -0.7149 1.2536 0.7941
loop_
_geom_bond_atom_site_label_1
_geom_bond_atom_site_label_2
_geom_bond_site_symmetry_1
_geom_bond_site_symmetry_2
N1 C12 1_555 1_555
N2 C11 1_555 1_555
O1 C12 1_555 1_555
O2 C14 1_555 1_555
O3 C11 1_555 1_555
O4 C13 1_555 1_555
O5 H1 1_555 1_555
O6 H2 1_555 1_555
O7 C26 1_555 1_555
O8 C25 1_555 1_555
C1 C2 1_555 1_555
C2 C7 1_555 1_555
C3 H3 1_555 1_555
C4 H4 1_555 1_555
C5 C3 1_555 1_555
H5 C5 1_555 1_555
C6 C4 1_555 1_555
H6 C6 1_555 1_555
C7 C5 1_555 1_555
C8 C2 1_555 1_555
C9 C1 1_555 1_555
C10 C1 1_555 1_555
C11 C9 1_555 1_555
C12 C8 1_555 1_555
C13 N2 1_555 1_555
C14 N1 1_555 1_555
C15 N2 1_555 1_555
H7 C15 1_555 1_555
C16 N1 1_555 1_555
H8 C16 1_555 1_555
C17 C16 1_555 1_555
H9 C17 1_555 1_555
H10 C17 1_555 1_555
C18 C15 1_555 1_555
H11 C18 1_555 1_555
H12 C18 1_555 1_555
C19 C17 1_555 1_555
H13 C19 1_555 1_555
C20 C18 1_555 1_555
H14 C20 1_555 1_555
C21 C20 1_555 1_555
H15 C21 1_555 1_555
H16 C21 1_555 1_555
H17 C21 1_555 1_555
C22 C20 1_555 1_555
H18 C22 1_555 1_555
H19 C22 1_555 1_555
H20 C22 1_555 1_555
C23 C19 1_555 1_555
H21 C23 1_555 1_555
H22 C23 1_555 1_555
H23 C23 1_555 1_555
C24 C19 1_555 1_555
H24 C24 1_555 1_555
H25 C24 1_555 1_555
H26 C24 1_555 1_555
C25 O5 1_555 1_555
H27 C25 1_555 1_555
C26 O6 1_555 1_555
H28 C26 1_555 1_555
C27 O8 1_555 1_555
H29 C27 1_555 1_555
H30 C27 1_555 1_555
C28 O7 1_555 1_555
H31 C28 1_555 1_555
H32 C28 1_555 1_555
C29 C27 1_555 1_555
H33 C29 1_555 1_555
H34 C29 1_555 1_555
H35 C29 1_555 1_555
C30 C28 1_555 1_555
H36 C30 1_555 1_555
H37 C30 1_555 1_555
H38 C30 1_555 1_555
C3 C10 1_555 1_555
C4 C9 1_555 1_555
C6 C8 1_555 1_555
C7 C14 1_555 1_555
C10 C13 1_555 1_555
C15 C26 1_555 1_555
C16 C25 1_555 1_555

#END
