
#######################################################################
#
#                 Cambridge Crystallographic Data Centre
#                                CCDC 
#
#######################################################################
#
# If this CIF has been generated from an entry in the Cambridge 
# Structural Database, then it will include bibliographic, chemical, 
# crystal, experimental, refinement or atomic coordinate data resulting 
# from the CCDC's data processing and validation procedures.
#
#######################################################################

data_ZEZNID
_chemical_formula_moiety         'C28 H24 O4'
_chemical_name_systematic        
2-Butoxy-3-methoxybenzo[11,12]triphenyleno[2,3-d][1,3]dioxole
_symmetry_cell_setting           monoclinic
_symmetry_space_group_name_H-M   'P 21/c'
_symmetry_Int_Tables_number      14
_space_group_name_Hall           '-P 2ybc'
loop_
_symmetry_equiv_pos_site_id
_symmetry_equiv_pos_as_xyz
1 x,y,z
2 -x,1/2+y,1/2-z
3 -x,-y,-z
4 x,1/2-y,1/2+z
_cell_length_a                   6.3608(6)
_cell_length_b                   27.461(3)
_cell_length_c                   23.465(2)
_cell_angle_alpha                90
_cell_angle_beta                 93.661(6)
_cell_angle_gamma                90
_cell_volume                     4090.36
_exptl_crystal_colour            colorless
_exptl_crystal_description       Blade
_cell_formula_units_Z            8
loop_
_atom_site_label
_atom_site_type_symbol
_atom_site_fract_x
_atom_site_fract_y
_atom_site_fract_z
O1 O 0.8256(3) 0.46206(7) 0.50309(8)
O2 O 0.4271(3) 0.61336(7) 0.35746(8)
O3 O 0.0333(3) 0.63979(7) 0.32292(8)
O4 O 0.9613(3) 0.38519(7) 0.48746(9)
C1 C 1.0109(4) 0.43217(11) 0.51147(13)
H1 H 1.1295 0.4470 0.4923
H2 H 1.0521 0.4291 0.5527
C2 C 0.7026(4) 0.43881(11) 0.46065(12)
C3 C 0.5221(4) 0.45466(11) 0.43314(12)
H3 H 0.4671 0.4859 0.4410
C4 C 0.4166(4) 0.42358(10) 0.39219(11)
C5 C 0.2286(4) 0.43997(11) 0.35778(12)
C6 C 0.1804(4) 0.49125(10) 0.34832(12)
C7 C 0.3282(4) 0.52986(10) 0.35740(12)
H4 H 0.4693 0.5221 0.3698
C8 C 0.2750(4) 0.57737(11) 0.34903(12)
C9 C 0.4399(4) 0.63231(11) 0.41485(12)
H5 H 0.4647 0.6053 0.4424
H6 H 0.3053 0.6483 0.4228
C10 C 0.6170(4) 0.66848(11) 0.42167(12)
H7 H 0.5891 0.6958 0.3947
H8 H 0.7499 0.6526 0.4120
C11 C 0.6423(4) 0.68838(11) 0.48243(12)
H9 H 0.5088 0.7041 0.4919
H10 H 0.6691 0.6609 0.5092
C12 C 0.8206(5) 0.72512(11) 0.49106(14)
H11 H 0.9522 0.7104 0.4799
H12 H 0.8358 0.7347 0.5313
H13 H 0.7884 0.7539 0.4674
C13 C -0.0213(4) 0.50481(11) 0.32385(12)
C14 C -0.0743(4) 0.55442(10) 0.31482(12)
H14 H -0.2107 0.5627 0.2988
C15 C 0.0673(4) 0.59072(11) 0.32871(12)
C16 C -0.1523(4) 0.65413(11) 0.28859(12)
H15 H -0.1467 0.6404 0.2501
H16 H -0.1586 0.6897 0.2862
H17 H -0.2779 0.6419 0.3061
C17 C -0.1648(4) 0.46767(11) 0.30480(12)
H18 H -0.3028 0.4762 0.2904
C18 C -0.1073(4) 0.42030(11) 0.30699(12)
H19 H -0.2018 0.3965 0.2909
C19 C 0.0921(4) 0.40482(10) 0.33281(12)
C20 C 0.1527(4) 0.35349(11) 0.33289(12)
C21 C 0.3538(4) 0.33937(10) 0.35642(12)
C22 C 0.4110(5) 0.28964(11) 0.35364(13)
H20 H 0.5475 0.2800 0.3682
C23 C 0.2758(5) 0.25490(12) 0.33060(13)
H21 H 0.3164 0.2216 0.3302
C24 C 0.0772(5) 0.26934(11) 0.30776(13)
H22 H -0.0176 0.2457 0.2915
C25 C 0.0175(4) 0.31730(11) 0.30854(13)
H23 H -0.1176 0.3263 0.2924
C26 C 0.4875(4) 0.37504(10) 0.38750(12)
C27 C 0.7824(4) 0.39273(11) 0.45190(12)
C28 C 0.6778(4) 0.35989(11) 0.41698(12)
H24 H 0.7308 0.3279 0.4125
O5 O 0.1651(3) 1.11997(7) 0.36203(8)
O6 O -0.3872(3) 0.88836(7) 0.47110(8)
O7 O 0.5108(3) 1.14111(7) 0.31706(8)
O8 O -0.2533(3) 0.96626(7) 0.48538(8)
C29 C -0.3088(5) 1.20224(11) 0.48907(14)
H25 H -0.1936 1.2142 0.5151
H26 H -0.4343 1.1969 0.5104
H27 H -0.3404 1.2264 0.4590
C30 C -0.2437(4) 1.15465(11) 0.46234(12)
H28 H -0.3645 1.1416 0.4383
H29 H -0.2089 1.1307 0.4931
C31 C -0.0555(4) 1.15990(10) 0.42596(12)
H30 H -0.0911 1.1826 0.3940
H31 H 0.0650 1.1737 0.4494
C32 C 0.0058(4) 1.11107(10) 0.40237(12)
H32 H 0.0625 1.0897 0.4336
H33 H -0.1185 1.0950 0.3830
C33 C 0.2794(4) 1.08039(11) 0.34612(12)
C34 C 0.2202(4) 1.03316(10) 0.35229(11)
H34 H 0.0856 1.0264 0.3657
C35 C 0.3540(4) 0.99353(10) 0.33924(11)
C36 C 0.3061(4) 0.94220(10) 0.34859(11)
C37 C 0.1328(4) 0.92575(11) 0.38246(11)
C38 C 0.0643(4) 0.87668(11) 0.37872(11)
C39 C -0.1174(4) 0.86177(11) 0.40699(12)
H35 H -0.1684 0.8293 0.4037
C40 C -0.2152(4) 0.89521(11) 0.43874(12)
C41 C 0.4711(4) 1.09230(11) 0.32124(12)
C42 C 0.6779(4) 1.15511(11) 0.28223(12)
H36 H 0.8109 1.1412 0.2980
H37 H 0.6891 1.1907 0.2816
H38 H 0.6477 1.1431 0.2433
C43 C 0.5943(4) 1.05538(11) 0.30385(12)
H39 H 0.7187 1.0629 0.2853
C44 C 0.5418(4) 1.00587(10) 0.31264(12)
C45 C 0.6715(4) 0.96845(10) 0.29249(11)
H40 H 0.7998 0.9767 0.2762
C46 C 0.6150(4) 0.92145(11) 0.29612(11)
H41 H 0.7000 0.8973 0.2799
C47 C 0.4311(4) 0.90669(10) 0.32358(11)
C48 C 0.3745(4) 0.85523(11) 0.32493(11)
C49 C 0.1871(4) 0.84070(10) 0.34964(12)
C50 C 0.0360(4) 0.95740(10) 0.42138(11)
H42 H 0.0917 0.9889 0.4294
C51 C -0.1367(4) 0.94140(11) 0.44648(12)
C52 C -0.4347(4) 0.93594(11) 0.49184(13)
H43 H -0.4667 0.9342 0.5325
H44 H -0.5589 0.9495 0.4697
C53 C 0.1336(4) 0.79088(11) 0.34865(12)
H45 H 0.0058 0.7810 0.3640
C54 C 0.2602(4) 0.75612(11) 0.32611(12)
H46 H 0.2221 0.7227 0.3269
C55 C 0.4455(4) 0.77067(11) 0.30209(13)
H47 H 0.5339 0.7470 0.2863
C56 C 0.5001(4) 0.81892(11) 0.30121(12)
H48 H 0.6257 0.8282 0.2842
loop_
_geom_bond_atom_site_label_1
_geom_bond_atom_site_label_2
_geom_bond_site_symmetry_1
_geom_bond_site_symmetry_2
O1 C1 1_555 1_555
O2 C8 1_555 1_555
O3 C15 1_555 1_555
O4 C1 1_555 1_555
C1 H1 1_555 1_555
H2 C1 1_555 1_555
C2 O1 1_555 1_555
C3 C2 1_555 1_555
H3 C3 1_555 1_555
C4 C3 1_555 1_555
C5 C4 1_555 1_555
C6 C5 1_555 1_555
C7 C6 1_555 1_555
H4 C7 1_555 1_555
C8 C7 1_555 1_555
C9 O2 1_555 1_555
H5 C9 1_555 1_555
H6 C9 1_555 1_555
C10 C9 1_555 1_555
H7 C10 1_555 1_555
H8 C10 1_555 1_555
C11 C10 1_555 1_555
H9 C11 1_555 1_555
H10 C11 1_555 1_555
C12 C11 1_555 1_555
H11 C12 1_555 1_555
H12 C12 1_555 1_555
H13 C12 1_555 1_555
C13 C6 1_555 1_555
C14 C13 1_555 1_555
H14 C14 1_555 1_555
C15 C8 1_555 1_555
C16 O3 1_555 1_555
H15 C16 1_555 1_555
H16 C16 1_555 1_555
H17 C16 1_555 1_555
C17 C13 1_555 1_555
H18 C17 1_555 1_555
C18 C17 1_555 1_555
H19 C18 1_555 1_555
C19 C5 1_555 1_555
C20 C19 1_555 1_555
C21 C20 1_555 1_555
C22 C21 1_555 1_555
H20 C22 1_555 1_555
C23 C22 1_555 1_555
H21 C23 1_555 1_555
C24 C23 1_555 1_555
H22 C24 1_555 1_555
C25 C20 1_555 1_555
H23 C25 1_555 1_555
C26 C4 1_555 1_555
C27 O4 1_555 1_555
C28 C26 1_555 1_555
H24 C28 1_555 1_555
O5 C32 1_555 1_555
O6 C40 1_555 1_555
O7 C41 1_555 1_555
O8 C51 1_555 1_555
C29 H25 1_555 1_555
H26 C29 1_555 1_555
H27 C29 1_555 1_555
C30 C29 1_555 1_555
H28 C30 1_555 1_555
H29 C30 1_555 1_555
C31 C30 1_555 1_555
H30 C31 1_555 1_555
H31 C31 1_555 1_555
C32 C31 1_555 1_555
H32 C32 1_555 1_555
H33 C32 1_555 1_555
C33 O5 1_555 1_555
C34 C33 1_555 1_555
H34 C34 1_555 1_555
C35 C34 1_555 1_555
C36 C35 1_555 1_555
C37 C36 1_555 1_555
C38 C37 1_555 1_555
C39 C38 1_555 1_555
H35 C39 1_555 1_555
C40 C39 1_555 1_555
C41 C33 1_555 1_555
C42 O7 1_555 1_555
H36 C42 1_555 1_555
H37 C42 1_555 1_555
H38 C42 1_555 1_555
C43 C41 1_555 1_555
H39 C43 1_555 1_555
C44 C35 1_555 1_555
C45 C44 1_555 1_555
H40 C45 1_555 1_555
C46 C45 1_555 1_555
H41 C46 1_555 1_555
C47 C36 1_555 1_555
C48 C47 1_555 1_555
C49 C38 1_555 1_555
C50 C37 1_555 1_555
H42 C50 1_555 1_555
C51 C40 1_555 1_555
C52 O6 1_555 1_555
H43 C52 1_555 1_555
H44 C52 1_555 1_555
C53 C49 1_555 1_555
H45 C53 1_555 1_555
C54 C53 1_555 1_555
H46 C54 1_555 1_555
C55 C54 1_555 1_555
H47 C55 1_555 1_555
C56 C48 1_555 1_555
H48 C56 1_555 1_555
C2 C27 1_555 1_555
C14 C15 1_555 1_555
C18 C19 1_555 1_555
C21 C26 1_555 1_555
C24 C25 1_555 1_555
C27 C28 1_555 1_555
O8 C52 1_555 1_555
C43 C44 1_555 1_555
C46 C47 1_555 1_555
C48 C49 1_555 1_555
C50 C51 1_555 1_555
C55 C56 1_555 1_555

#END
