
#######################################################################
#
#                 Cambridge Crystallographic Data Centre
#                                CCDC 
#
#######################################################################
#
# If this CIF has been generated from an entry in the Cambridge 
# Structural Database, then it will include bibliographic, chemical, 
# crystal, experimental, refinement or atomic coordinate data resulting 
# from the CCDC's data processing and validation procedures.
#
#######################################################################

data_ZEZYOU
_chemical_formula_moiety         'C12 H10 N4 S1'
_chemical_name_systematic        
(E)-2-(2-(Pyrrol-2-ylmethylene)hydrazinyl)benzo[d]thiazole
_symmetry_cell_setting           monoclinic
_symmetry_space_group_name_H-M   'P 21/c'
_symmetry_Int_Tables_number      14
_space_group_name_Hall           '-P 2ybc'
loop_
_symmetry_equiv_pos_site_id
_symmetry_equiv_pos_as_xyz
1 x,y,z
2 -x,1/2+y,1/2-z
3 -x,-y,-z
4 x,1/2-y,1/2+z
_cell_length_a                   15.9740(7)
_cell_length_b                   4.9329(2)
_cell_length_c                   16.2227(9)
_cell_angle_alpha                90
_cell_angle_beta                 118.102(2)
_cell_angle_gamma                90
_cell_volume                     1127.62
_exptl_crystal_colour            grey
_exptl_crystal_description       blade
_cell_formula_units_Z            4
loop_
_atom_site_label
_atom_site_type_symbol
_atom_site_fract_x
_atom_site_fract_y
_atom_site_fract_z
S1 S 0.50048(4) 0.07861(13) 0.16099(4)
N1 N 0.33852(13) -0.1232(4) 0.00933(14)
C1 C 0.65437(16) -0.1628(5) 0.18506(16)
C2 C 0.17202(16) -0.0601(5) -0.07164(17)
C3 C 0.62349(16) 0.0415(5) 0.22363(16)
C4 C 0.81416(17) -0.0711(5) 0.30119(19)
H1 H 0.8802 -0.1083 0.3281
N2 N 0.58143(13) -0.2907(4) 0.10753(14)
C5 C 0.49792(17) -0.1854(5) 0.08696(17)
N3 N 0.41638(14) -0.2648(4) 0.01660(15)
H2 H 0.4155(18) -0.403(4) -0.0176(16)
N4 N 0.17011(14) 0.1468(5) -0.01792(16)
H3 H 0.2195(13) 0.215(5) 0.0300(13)
C6 C 0.75104(17) -0.2183(5) 0.22444(19)
H4 H 0.7734 -0.3561 0.1988
C7 C 0.78269(17) 0.1288(5) 0.33919(18)
H5 H 0.8271 0.2271 0.3921
C8 C 0.68727(17) 0.1875(5) 0.30106(17)
H6 H 0.6656 0.3253 0.3273
C9 C 0.02179(19) 0.0671(6) -0.1203(2)
H7 H -0.0454 0.0785 -0.1550
C10 C 0.25840(18) -0.1911(6) -0.05700(19)
H8 H 0.2516(19) -0.320(6) -0.100(2)
C11 C 0.07849(19) 0.2220(7) -0.0474(2)
H9 H 0.0580 0.3615 -0.0206
C12 C 0.07951(18) -0.1125(7) -0.1357(2)
H10 H 0.0587 -0.2488 -0.1826
loop_
_geom_bond_atom_site_label_1
_geom_bond_atom_site_label_2
_geom_bond_site_symmetry_1
_geom_bond_site_symmetry_2
S1 C3 1_555 1_555
N1 N3 1_555 1_555
C1 C3 1_555 1_555
C2 N4 1_555 1_555
C3 C8 1_555 1_555
C4 H1 1_555 1_555
N2 C1 1_555 1_555
C5 S1 1_555 1_555
N3 C5 1_555 1_555
H2 N3 1_555 1_555
N4 H3 1_555 1_555
C6 C1 1_555 1_555
H4 C6 1_555 1_555
C7 C4 1_555 1_555
H5 C7 1_555 1_555
C8 C7 1_555 1_555
H6 C8 1_555 1_555
C9 H7 1_555 1_555
C10 N1 1_555 1_555
H8 C10 1_555 1_555
C11 N4 1_555 1_555
H9 C11 1_555 1_555
C12 C2 1_555 1_555
H10 C12 1_555 1_555
C2 C10 1_555 1_555
C4 C6 1_555 1_555
N2 C5 1_555 1_555
C9 C11 1_555 1_555
C9 C12 1_555 1_555

#END
