
#######################################################################
#
#                 Cambridge Crystallographic Data Centre
#                                CCDC 
#
#######################################################################
#
# If this CIF has been generated from an entry in the Cambridge 
# Structural Database, then it will include bibliographic, chemical, 
# crystal, experimental, refinement or atomic coordinate data resulting 
# from the CCDC's data processing and validation procedures.
#
#######################################################################

data_ZEZZIQ
_chemical_formula_moiety         'C26 H19 Cl1 O6'
_chemical_name_systematic        
'methyl 2-{8-[2-(3-chlorophenyl)ethenyl]-6-oxo-7,8-dihydro-2H,6H-[1,3]dioxolo[4,5-g][1]benzopyran-7-yl}benzoate'
_symmetry_cell_setting           orthorhombic
_symmetry_space_group_name_H-M   'P 21 21 21'
_symmetry_Int_Tables_number      19
_space_group_name_Hall           'P 2ac 2ab'
loop_
_symmetry_equiv_pos_site_id
_symmetry_equiv_pos_as_xyz
1 x,y,z
2 1/2-x,-y,1/2+z
3 1/2+x,1/2-y,-z
4 -x,1/2+y,1/2-z
_cell_length_a                   11.5119(12)
_cell_length_b                   18.844(2)
_cell_length_c                   20.583(2)
_cell_angle_alpha                90
_cell_angle_beta                 90
_cell_angle_gamma                90
_cell_volume                     4465.08
_exptl_crystal_description       block
_cell_formula_units_Z            8
loop_
_atom_site_label
_atom_site_type_symbol
_atom_site_fract_x
_atom_site_fract_y
_atom_site_fract_z
Cl1 Cl 0.22848(18) -0.99248(11) -0.26885(10)
O1 O 0.8944(3) -0.6479(2) -0.3037(2)
O2 O 0.6985(4) -0.6658(3) -0.3221(2)
O3 O 0.8793(3) -0.7520(2) -0.0912(2)
O4 O 0.8804(4) -0.8138(2) -0.0013(2)
O5 O 0.8751(4) -0.9569(2) -0.0917(3)
O6 O 0.8150(5) -1.0585(2) -0.0531(3)
C1 C 0.7993(6) -0.6351(4) -0.3483(3)
H1 H 0.788035 -0.584535 -0.354177
H2 H 0.816419 -0.656072 -0.390263
C2 C 0.8457(5) -0.6801(3) -0.2507(3)
C3 C 0.8972(5) -0.7010(3) -0.1957(3)
H3 H 0.975986 -0.693950 -0.188002
C4 C 0.8249(5) -0.7342(3) -0.1505(3)
C5 C 0.8319(5) -0.8022(3) -0.0522(3)
C6 C 0.7258(4) -0.8400(3) -0.0769(3)
H4 H 0.752009 -0.870767 -0.112368
C7 C 0.6405(4) -0.7853(3) -0.1078(3)
H5 H 0.616073 -0.751406 -0.074309
C8 C 0.7094(5) -0.7462(3) -0.1591(3)
C9 C 0.6597(5) -0.7241(3) -0.2180(3)
H6 H 0.581375 -0.731596 -0.226624
C10 C 0.7296(5) -0.6914(3) -0.2624(3)
C11 C 0.5361(4) -0.8223(3) -0.1336(3)
H7 H 0.548633 -0.859108 -0.162884
C12 C 0.4282(5) -0.8075(3) -0.1188(3)
H8 H 0.416119 -0.768455 -0.092049
C13 C 0.3248(5) -0.8462(3) -0.1399(3)
C14 C 0.3235(5) -0.8935(3) -0.1908(3)
H9 H 0.390159 -0.899738 -0.215693
C15 C 0.2256(6) -0.9317(3) -0.2053(3)
C16 C 0.1271(6) -0.9250(4) -0.1714(4)
H10 H 0.062286 -0.952111 -0.181923
C17 C 0.1228(6) -0.8766(5) -0.1202(5)
H11 H 0.054549 -0.870988 -0.096491
C18 C 0.2198(5) -0.8371(4) -0.1046(3)
H12 H 0.216474 -0.804331 -0.070836
C19 C 0.6754(5) -0.8883(3) -0.0257(3)
C20 C 0.5881(5) -0.8635(3) 0.0141(3)
H13 H 0.561092 -0.817335 0.009024
C21 C 0.5401(6) -0.9063(4) 0.0614(3)
H14 H 0.481350 -0.888557 0.087761
C22 C 0.5776(6) -0.9743(4) 0.0700(3)
H15 H 0.544828 -1.002803 0.101957
C23 C 0.6646(5) -1.0001(3) 0.0306(3)
H16 H 0.690152 -1.046516 0.036399
C24 C 0.7149(5) -0.9589(3) -0.0172(3)
C25 C 0.8084(5) -0.9886(3) -0.0587(4)
C26 C 0.9083(9) -1.0931(5) -0.0902(6)
H17 H 0.913935 -1.142007 -0.077467
H18 H 0.980667 -1.069622 -0.081524
H19 H 0.891239 -1.090287 -0.135757
Cl2 Cl -0.36944(19) -0.98647(11) -0.22060(14)
O7 O 0.3867(3) -0.6364(2) -0.19788(19)
O8 O 0.2038(4) -0.6764(2) -0.1706(2)
O9 O 0.3889(3) -0.7582(2) -0.40280(19)
O10 O 0.3861(3) -0.7979(2) -0.5018(2)
O11 O 0.3696(4) -0.9182(2) -0.4088(2)
O12 O 0.3590(5) -1.0227(3) -0.4549(3)
C27 C 0.2910(6) -0.6261(3) -0.1541(3)
H20 H 0.316180 -0.633200 -0.109595
H21 H 0.260786 -0.578309 -0.158220
C28 C 0.3425(5) -0.6773(3) -0.2468(3)
C29 C 0.3949(5) -0.6956(3) -0.3052(3)
H22 H 0.467659 -0.678340 -0.316837
C30 C 0.3328(4) -0.7408(3) -0.3449(3)
C31 C 0.3341(5) -0.7922(3) -0.4519(3)
C32 C 0.2076(5) -0.8120(3) -0.4430(3)
H23 H 0.164033 -0.770728 -0.458660
C33 C 0.1683(4) -0.8217(3) -0.3721(3)
H24 H 0.194814 -0.868554 -0.357874
C34 C 0.2246(4) -0.7678(3) -0.3291(3)
C35 C 0.1746(5) -0.7475(3) -0.2694(3)
H25 H 0.102723 -0.765137 -0.256641
C36 C 0.2341(5) -0.7017(3) -0.2313(3)
C37 C 0.0367(4) -0.8210(3) -0.3674(3)
H26 H -0.002842 -0.785058 -0.389014
C38 C -0.0245(5) -0.8668(3) -0.3354(3)
H27 H 0.017159 -0.901362 -0.313123
C39 C -0.1515(5) -0.8711(3) -0.3297(3)
C40 C -0.1975(5) -0.9182(3) -0.2825(4)
H28 H -0.148818 -0.942995 -0.254460
C41 C -0.3156(7) -0.9263(4) -0.2794(4)
C42 C -0.3900(6) -0.8919(5) -0.3188(5)
H29 H -0.469641 -0.898796 -0.314543
C43 C -0.3465(6) -0.8458(5) -0.3660(4)
H30 H -0.396880 -0.822245 -0.394008
C44 C -0.2251(6) -0.8352(4) -0.3709(4)
H31 H -0.195242 -0.804202 -0.401754
C45 C 0.1708(4) -0.8724(3) -0.4871(3)
C46 C 0.0757(5) -0.8603(3) -0.5267(3)
H32 H 0.041450 -0.815574 -0.527211
C47 C 0.0307(5) -0.9135(3) -0.5654(3)
H33 H -0.034720 -0.904589 -0.590593
C48 C 0.0815(5) -0.9790(4) -0.5670(3)
H34 H 0.052322 -1.014479 -0.593880
C49 C 0.1765(5) -0.9916(3) -0.5282(3)
H35 H 0.210989 -1.036209 -0.528948
C50 C 0.2223(5) -0.9398(3) -0.4880(3)
C51 C 0.3244(5) -0.9574(3) -0.4469(3)
C52 C 0.4583(8) -1.0451(5) -0.4172(5)
H36 H 0.438859 -1.044525 -0.371900
H37 H 0.522014 -1.013316 -0.425017
H38 H 0.480188 -1.092316 -0.429798
loop_
_geom_bond_atom_site_label_1
_geom_bond_atom_site_label_2
_geom_bond_site_symmetry_1
_geom_bond_site_symmetry_2
Cl1 C15 1_555 1_555
O1 C1 1_555 1_555
O2 C1 1_555 1_555
O3 C4 1_555 1_555
O4 C5 1_555 1_555
O5 C25 1_555 1_555
O6 C25 1_555 1_555
C1 H1 1_555 1_555
H2 C1 1_555 1_555
C2 O1 1_555 1_555
C3 C2 1_555 1_555
H3 C3 1_555 1_555
C4 C3 1_555 1_555
C5 O3 1_555 1_555
C6 C5 1_555 1_555
H4 C6 1_555 1_555
C7 C6 1_555 1_555
H5 C7 1_555 1_555
C8 C4 1_555 1_555
C9 C8 1_555 1_555
H6 C9 1_555 1_555
C10 O2 1_555 1_555
C11 C7 1_555 1_555
H7 C11 1_555 1_555
C12 C11 1_555 1_555
H8 C12 1_555 1_555
C13 C12 1_555 1_555
C14 C13 1_555 1_555
H9 C14 1_555 1_555
C15 C14 1_555 1_555
C16 C15 1_555 1_555
H10 C16 1_555 1_555
C17 C16 1_555 1_555
H11 C17 1_555 1_555
C18 C13 1_555 1_555
H12 C18 1_555 1_555
C19 C6 1_555 1_555
C20 C19 1_555 1_555
H13 C20 1_555 1_555
C21 C20 1_555 1_555
H14 C21 1_555 1_555
C22 C21 1_555 1_555
H15 C22 1_555 1_555
C23 C22 1_555 1_555
H16 C23 1_555 1_555
C24 C19 1_555 1_555
C25 C24 1_555 1_555
C26 O6 1_555 1_555
H17 C26 1_555 1_555
H18 C26 1_555 1_555
H19 C26 1_555 1_555
Cl2 C41 1_555 1_555
O7 C27 1_555 1_555
O8 C27 1_555 1_555
O9 C30 1_555 1_555
O10 C31 1_555 1_555
O11 C51 1_555 1_555
O12 C51 1_555 1_555
C27 H20 1_555 1_555
H21 C27 1_555 1_555
C28 O7 1_555 1_555
C29 C28 1_555 1_555
H22 C29 1_555 1_555
C30 C29 1_555 1_555
C31 O9 1_555 1_555
C32 C31 1_555 1_555
H23 C32 1_555 1_555
C33 C32 1_555 1_555
H24 C33 1_555 1_555
C34 C30 1_555 1_555
C35 C34 1_555 1_555
H25 C35 1_555 1_555
C36 O8 1_555 1_555
C37 C33 1_555 1_555
H26 C37 1_555 1_555
C38 C37 1_555 1_555
H27 C38 1_555 1_555
C39 C38 1_555 1_555
C40 C39 1_555 1_555
H28 C40 1_555 1_555
C41 C40 1_555 1_555
C42 C41 1_555 1_555
H29 C42 1_555 1_555
C43 C42 1_555 1_555
H30 C43 1_555 1_555
C44 C39 1_555 1_555
H31 C44 1_555 1_555
C45 C32 1_555 1_555
C46 C45 1_555 1_555
H32 C46 1_555 1_555
C47 C46 1_555 1_555
H33 C47 1_555 1_555
C48 C47 1_555 1_555
H34 C48 1_555 1_555
C49 C48 1_555 1_555
H35 C49 1_555 1_555
C50 C45 1_555 1_555
C51 C50 1_555 1_555
C52 O12 1_555 1_555
H36 C52 1_555 1_555
H37 C52 1_555 1_555
H38 C52 1_555 1_555
C2 C10 1_555 1_555
C7 C8 1_555 1_555
C9 C10 1_555 1_555
C17 C18 1_555 1_555
C23 C24 1_555 1_555
C28 C36 1_555 1_555
C33 C34 1_555 1_555
C35 C36 1_555 1_555
C43 C44 1_555 1_555
C49 C50 1_555 1_555

#END
