
#######################################################################
#
#                 Cambridge Crystallographic Data Centre
#                                CCDC 
#
#######################################################################
#
# If this CIF has been generated from an entry in the Cambridge 
# Structural Database, then it will include bibliographic, chemical, 
# crystal, experimental, refinement or atomic coordinate data resulting 
# from the CCDC's data processing and validation procedures.
#
#######################################################################

data_ZIBCOC
_chemical_formula_moiety         'C66 H84'
_chemical_name_systematic        
1,6-bis(3,5-Di-t-butylphenyl)-3,4-bis(3,5-di-t-butylphenylethynyl)hex-3-ene-1,5-diyne
_symmetry_cell_setting           monoclinic
_symmetry_space_group_name_H-M   'P 21/c'
_symmetry_Int_Tables_number      14
_space_group_name_Hall           '-P 2ybc'
loop_
_symmetry_equiv_pos_site_id
_symmetry_equiv_pos_as_xyz
1 x,y,z
2 -x,1/2+y,1/2-z
3 -x,-y,-z
4 x,1/2-y,1/2+z
_cell_length_a                   12.302(3)
_cell_length_b                   15.747(1)
_cell_length_c                   17.927(4)
_cell_angle_alpha                90
_cell_angle_beta                 123.03(2)
_cell_angle_gamma                90
_cell_volume                     2911.55
_exptl_crystal_colour            'bright yellow'
_chemical_melting_point          167-169deg.C
_cell_formula_units_Z            2
loop_
_atom_site_label
_atom_site_type_symbol
_atom_site_fract_x
_atom_site_fract_y
_atom_site_fract_z
C1 C 0.0510(3) 0.5013(2) 0.0439(2)
C2 C 0.1660(3) 0.5479(2) 0.0706(2)
C3 C 0.2626(3) 0.5862(2) 0.0926(2)
C4 C 0.3816(3) 0.6304(2) 0.1211(2)
C5 C 0.3953(3) 0.7157(2) 0.1446(2)
C6 C 0.5124(3) 0.7574(2) 0.1764(2)
C7 C 0.6122(3) 0.7116(2) 0.1819(3)
C8 C 0.6020(3) 0.6272(2) 0.1579(3)
C9 C 0.4845(3) 0.5868(2) 0.1276(2)
C10 C 0.7165(4) 0.5796(3) 0.1649(3)
C11 C 0.8361(7) 0.5956(8) 0.2481(8)
C12 C 0.7396(11) 0.6148(8) 0.0986(8)
C13 C 0.6890(7) 0.4879(5) 0.1394(7)
C14 C 0.5332(4) 0.8496(3) 0.2088(3)
C15 C 0.5968(7) 0.9003(3) 0.1693(6)
C16 C 0.6220(7) 0.8502(4) 0.3099(4)
C17 C 0.4054(5) 0.8945(3) 0.1801(5)
C18 C 0.0417(3) 0.4551(2) 0.1088(2)
C19 C 0.0260(3) 0.4143(2) 0.1579(2)
C20 C -0.0069(3) 0.3609(2) 0.2079(2)
C21 C -0.1056(3) 0.3015(2) 0.1596(2)
C22 C -0.1477(4) 0.2504(2) 0.2024(2)
C23 C -0.0877(4) 0.2600(2) 0.2933(2)
C24 C 0.0111(3) 0.3179(2) 0.3433(2)
C25 C 0.0507(3) 0.3685(2) 0.2988(2)
C26 C 0.0706(4) 0.3289(3) 0.4433(3)
C27 C 0.0567(9) 0.2511(6) 0.4859(4)
C28 C -0.0012(11) 0.3975(7) 0.4553(5)
C29 C 0.2105(8) 0.3487(7) 0.4931(4)
C30 C -0.2579(5) 0.1872(3) 0.1478(3)
C31 C -0.2255(7) 0.1316(5) 0.0935(6)
C32 C -0.3804(6) 0.2388(5) 0.0807(5)
C33 C -0.2961(10) 0.1371(6) 0.2006(5)
H1 H 0.3227 0.7460 0.1379
H2 H 0.6932 0.7400 0.2036
H3 H 0.4746 0.5276 0.1121
H4 H 0.9063 0.5652 0.2514
H5 H 0.8559 0.6551 0.2562
H6 H 0.8243 0.5757 0.2938
H7 H 0.8102 0.5851 0.1019
H8 H 0.6627 0.6082 0.0402
H9 H 0.7607 0.6741 0.1104
H10 H 0.7638 0.4621 0.1448
H11 H 0.6706 0.4603 0.1790
H12 H 0.6159 0.4821 0.0793
H13 H 0.6774 0.8732 0.1870
H14 H 0.5412 0.9005 0.1056
H15 H 0.6132 0.9576 0.1909
H16 H 0.7024 0.8233 0.3270
H17 H 0.6384 0.9075 0.3317
H18 H 0.5817 0.8194 0.3348
H19 H 0.3493 0.8947 0.1164
H20 H 0.3647 0.8638 0.2048
H21 H 0.4214 0.9519 0.2017
H22 H -0.1450 0.2958 0.0967
H23 H -0.1159 0.2249 0.3234
H24 H 0.1178 0.4098 0.3317
H25 H 0.0955 0.2613 0.5482
H26 H -0.0338 0.2390 0.4583
H27 H 0.0986 0.2036 0.4781
H28 H 0.0350 0.4053 0.5177
H29 H 0.0056 0.4495 0.4302
H30 H -0.0908 0.3817 0.4262
H31 H 0.2469 0.3556 0.5557
H32 H 0.2528 0.3024 0.4840
H33 H 0.2227 0.3999 0.4696
H34 H -0.1497 0.0987 0.1330
H35 H -0.2959 0.0943 0.0548
H36 H -0.2080 0.1684 0.0586
H37 H -0.4078 0.2737 0.1115
H38 H -0.3606 0.2741 0.0460
H39 H -0.4486 0.2000 0.0423
H40 H -0.3186 0.1732 0.2334
H41 H -0.3676 0.1002 0.1627
H42 H -0.2215 0.1037 0.2413
C1B C -0.0510(3) 0.4987(2) -0.0439(2)
C2B C -0.1660(3) 0.4521(2) -0.0706(2)
C3B C -0.2626(3) 0.4138(2) -0.0926(2)
C4B C -0.3816(3) 0.3696(2) -0.1211(2)
C5B C -0.3953(3) 0.2843(2) -0.1446(2)
C6B C -0.5124(3) 0.2426(2) -0.1764(2)
C7B C -0.6122(3) 0.2884(2) -0.1819(3)
C8B C -0.6020(3) 0.3728(2) -0.1579(3)
C9B C -0.4845(3) 0.4132(2) -0.1276(2)
H3B H -0.4746 0.4724 -0.1121
C10B C -0.7165(4) 0.4204(3) -0.1649(3)
C11B C -0.8361(7) 0.4044(8) -0.2481(8)
H4B H -0.9063 0.4348 -0.2514
H5B H -0.8559 0.3449 -0.2562
H6B H -0.8243 0.4243 -0.2938
C12B C -0.7396(11) 0.3852(8) -0.0986(8)
H7B H -0.8102 0.4149 -0.1019
H8B H -0.6627 0.3918 -0.0402
H9B H -0.7607 0.3259 -0.1104
C13B C -0.6890(7) 0.5121(5) -0.1394(7)
H10B H -0.7638 0.5379 -0.1448
H11B H -0.6706 0.5397 -0.1790
H12B H -0.6159 0.5179 -0.0793
H2B H -0.6932 0.2600 -0.2036
C14B C -0.5332(4) 0.1504(3) -0.2088(3)
C15B C -0.5968(7) 0.0997(3) -0.1693(6)
H13B H -0.6774 0.1268 -0.1870
H14B H -0.5412 0.0995 -0.1056
H15B H -0.6132 0.0424 -0.1909
C16B C -0.6220(7) 0.1498(4) -0.3099(4)
H16B H -0.7024 0.1767 -0.3270
H17B H -0.6384 0.0925 -0.3317
H18B H -0.5817 0.1806 -0.3348
C17B C -0.4054(5) 0.1055(3) -0.1801(5)
H19B H -0.3493 0.1053 -0.1164
H20B H -0.3647 0.1362 -0.2048
H21B H -0.4214 0.0481 -0.2017
H1B H -0.3227 0.2540 -0.1379
C18B C -0.0417(3) 0.5449(2) -0.1088(2)
C19B C -0.0260(3) 0.5857(2) -0.1579(2)
C20B C 0.0069(3) 0.6391(2) -0.2079(2)
C21B C 0.1056(3) 0.6985(2) -0.1596(2)
C22B C 0.1477(4) 0.7496(2) -0.2024(2)
C23B C 0.0877(4) 0.7400(2) -0.2933(2)
C24B C -0.0111(3) 0.6821(2) -0.3433(2)
C25B C -0.0507(3) 0.6315(2) -0.2988(2)
H24B H -0.1178 0.5902 -0.3317
C26B C -0.0706(4) 0.6711(3) -0.4433(3)
C27B C -0.0567(9) 0.7489(6) -0.4859(4)
H25B H -0.0955 0.7387 -0.5482
H26B H 0.0338 0.7610 -0.4583
H27B H -0.0986 0.7964 -0.4781
C28B C 0.0012(11) 0.6025(7) -0.4553(5)
H28B H -0.0350 0.5947 -0.5177
H29B H -0.0056 0.5505 -0.4302
H30B H 0.0908 0.6183 -0.4262
C29B C -0.2105(8) 0.6513(7) -0.4931(4)
H31B H -0.2469 0.6444 -0.5557
H32B H -0.2528 0.6976 -0.4840
H33B H -0.2227 0.6001 -0.4696
H23B H 0.1159 0.7751 -0.3234
C30B C 0.2579(5) 0.8128(3) -0.1478(3)
C31B C 0.2255(7) 0.8684(5) -0.0935(6)
H34B H 0.1497 0.9013 -0.1330
H35B H 0.2959 0.9057 -0.0548
H36B H 0.2080 0.8316 -0.0586
C32B C 0.3804(6) 0.7612(5) -0.0807(5)
H37B H 0.4078 0.7263 -0.1115
H38B H 0.3606 0.7259 -0.0460
H39B H 0.4486 0.8000 -0.0423
C33B C 0.2961(10) 0.8629(6) -0.2006(5)
H40B H 0.3186 0.8268 -0.2334
H41B H 0.3676 0.8998 -0.1627
H42B H 0.2215 0.8963 -0.2413
H22B H 0.1450 0.7042 -0.0967
loop_
_geom_bond_atom_site_label_1
_geom_bond_atom_site_label_2
_geom_bond_site_symmetry_1
_geom_bond_site_symmetry_2
C1 C2 1_555 1_555
C2 C3 1_555 1_555
C3 C4 1_555 1_555
C4 C5 1_555 1_555
C5 C6 1_555 1_555
C6 C7 1_555 1_555
C7 C8 1_555 1_555
C8 C9 1_555 1_555
C9 C4 1_555 1_555
C10 C8 1_555 1_555
C11 C10 1_555 1_555
C12 C10 1_555 1_555
C13 C10 1_555 1_555
C14 C6 1_555 1_555
C15 C14 1_555 1_555
C16 C14 1_555 1_555
C17 C14 1_555 1_555
C18 C1 1_555 1_555
C19 C18 1_555 1_555
C20 C19 1_555 1_555
C21 C20 1_555 1_555
C22 C21 1_555 1_555
C23 C22 1_555 1_555
C24 C23 1_555 1_555
C25 C20 1_555 1_555
C26 C24 1_555 1_555
C27 C26 1_555 1_555
C28 C26 1_555 1_555
C29 C26 1_555 1_555
C30 C22 1_555 1_555
C31 C30 1_555 1_555
C32 C30 1_555 1_555
C33 C30 1_555 1_555
H1 C5 1_555 1_555
H2 C7 1_555 1_555
H3 C9 1_555 1_555
H4 C11 1_555 1_555
H5 C11 1_555 1_555
H6 C11 1_555 1_555
H7 C12 1_555 1_555
H8 C12 1_555 1_555
H9 C12 1_555 1_555
H10 C13 1_555 1_555
H11 C13 1_555 1_555
H12 C13 1_555 1_555
H13 C15 1_555 1_555
H14 C15 1_555 1_555
H15 C15 1_555 1_555
H16 C16 1_555 1_555
H17 C16 1_555 1_555
H18 C16 1_555 1_555
H19 C17 1_555 1_555
H20 C17 1_555 1_555
H21 C17 1_555 1_555
H22 C21 1_555 1_555
H23 C23 1_555 1_555
H24 C25 1_555 1_555
H25 C27 1_555 1_555
H26 C27 1_555 1_555
H27 C27 1_555 1_555
H28 C28 1_555 1_555
H29 C28 1_555 1_555
H30 C28 1_555 1_555
H31 C29 1_555 1_555
H32 C29 1_555 1_555
H33 C29 1_555 1_555
H34 C31 1_555 1_555
H35 C31 1_555 1_555
H36 C31 1_555 1_555
H37 C32 1_555 1_555
H38 C32 1_555 1_555
H39 C32 1_555 1_555
H40 C33 1_555 1_555
H41 C33 1_555 1_555
H42 C33 1_555 1_555
C1B C1 1_555 1_555
C2B C1B 1_555 1_555
C3B C2B 1_555 1_555
C4B C3B 1_555 1_555
C5B C4B 1_555 1_555
C6B C5B 1_555 1_555
C7B C6B 1_555 1_555
C8B C7B 1_555 1_555
C9B C4B 1_555 1_555
H3B C9B 1_555 1_555
C10B C8B 1_555 1_555
C11B C10B 1_555 1_555
H4B C11B 1_555 1_555
H5B C11B 1_555 1_555
H6B C11B 1_555 1_555
C12B C10B 1_555 1_555
H7B C12B 1_555 1_555
H8B C12B 1_555 1_555
H9B C12B 1_555 1_555
C13B C10B 1_555 1_555
H10B C13B 1_555 1_555
H11B C13B 1_555 1_555
H12B C13B 1_555 1_555
H2B C7B 1_555 1_555
C14B C6B 1_555 1_555
C15B C14B 1_555 1_555
H13B C15B 1_555 1_555
H14B C15B 1_555 1_555
H15B C15B 1_555 1_555
C16B C14B 1_555 1_555
H16B C16B 1_555 1_555
H17B C16B 1_555 1_555
H18B C16B 1_555 1_555
C17B C14B 1_555 1_555
H19B C17B 1_555 1_555
H20B C17B 1_555 1_555
H21B C17B 1_555 1_555
H1B C5B 1_555 1_555
C18B C1B 1_555 1_555
C19B C18B 1_555 1_555
C20B C19B 1_555 1_555
C21B C20B 1_555 1_555
C22B C21B 1_555 1_555
C23B C22B 1_555 1_555
C24B C23B 1_555 1_555
C25B C20B 1_555 1_555
H24B C25B 1_555 1_555
C26B C24B 1_555 1_555
C27B C26B 1_555 1_555
H25B C27B 1_555 1_555
H26B C27B 1_555 1_555
H27B C27B 1_555 1_555
C28B C26B 1_555 1_555
H28B C28B 1_555 1_555
H29B C28B 1_555 1_555
H30B C28B 1_555 1_555
C29B C26B 1_555 1_555
H31B C29B 1_555 1_555
H32B C29B 1_555 1_555
H33B C29B 1_555 1_555
H23B C23B 1_555 1_555
C30B C22B 1_555 1_555
C31B C30B 1_555 1_555
H34B C31B 1_555 1_555
H35B C31B 1_555 1_555
H36B C31B 1_555 1_555
C32B C30B 1_555 1_555
H37B C32B 1_555 1_555
H38B C32B 1_555 1_555
H39B C32B 1_555 1_555
C33B C30B 1_555 1_555
H40B C33B 1_555 1_555
H41B C33B 1_555 1_555
H42B C33B 1_555 1_555
H22B C21B 1_555 1_555
C24 C25 1_555 1_555
C8B C9B 1_555 1_555
C24B C25B 1_555 1_555

#END
