
#######################################################################
#
#                 Cambridge Crystallographic Data Centre
#                                CCDC 
#
#######################################################################
#
# If this CIF has been generated from an entry in the Cambridge 
# Structural Database, then it will include bibliographic, chemical, 
# crystal, experimental, refinement or atomic coordinate data resulting 
# from the CCDC's data processing and validation procedures.
#
#######################################################################

data_ZIBCAQ01
_chemical_formula_moiety         'C2 N8 O2 2-,2(H4 N1 1+)'
_chemical_name_systematic        
"bisammonium 1H,1'H-[5,5'-bitetrazole]-1,1'-diolate"
_symmetry_cell_setting           tetragonal
_symmetry_space_group_name_H-M   'I -4'
_symmetry_Int_Tables_number      82
_space_group_name_Hall           'I -4'
loop_
_symmetry_equiv_pos_site_id
_symmetry_equiv_pos_as_xyz
1 x,y,z
2 -x,-y,z
3 y,-x,-z
4 -y,x,-z
5 1/2+x,1/2+y,1/2+z
6 1/2-x,1/2-y,1/2+z
7 1/2+y,1/2-x,1/2-z
8 1/2-y,1/2+x,1/2-z
_cell_length_a                   7.5982(12)
_cell_length_b                   7.5982(12)
_cell_length_c                   13.294(3)
_cell_angle_alpha                90
_cell_angle_beta                 90
_cell_angle_gamma                90
_cell_volume                     767.498
_exptl_crystal_colour            colorless
_exptl_crystal_description       block
_cell_formula_units_Z            4
_exptl_crystal_recrystallization_method 'Vapour deposition'
loop_
_atom_site_label
_atom_site_type_symbol
_atom_site_fract_x
_atom_site_fract_y
_atom_site_fract_z
N8 N 0.5000 0.5000 0.7244(2)
H1 H 0.560(7) 0.439(7) 0.687(3)
H2 H 0.566(6) 0.568(5) 0.760(2)
H1A H 0.440(7) 0.561(7) 0.687(3)
H2A H 0.434(6) 0.432(5) 0.760(2)
N9 N 1.0000 0.5000 0.7500
H3 H 1.054(4) 0.566(4) 0.706(3)
H3A H 0.946(4) 0.434(4) 0.706(3)
H3F H 1.066(4) 0.446(4) 0.794(3)
H3G H 0.934(4) 0.554(4) 0.794(3)
N10 N 0.5000 1.0000 0.7500
H4 H 0.564(4) 1.054(4) 0.705(3)
H4A H 0.436(4) 0.946(4) 0.705(3)
H4F H 0.554(4) 0.936(4) 0.795(3)
H4G H 0.446(4) 1.064(4) 0.795(3)
O1 O 0.7735(3) 0.7735(3) 0.34330(10)
N1 N 0.7752(3) 0.7754(3) 0.44276(12)
N2 N 0.7761(6) 0.6216(5) 0.4916(5)
N3 N 0.7826(6) 0.6583(6) 0.5878(4)
N4 N 0.7868(9) 0.8351(9) 0.6030(6)
C1 C 0.7791(5) 0.9070(5) 0.5111(4)
N5 N 0.7755(5) 1.3789(5) 0.5086(5)
N6 N 0.7824(6) 1.3417(6) 0.4128(4)
N7 N 0.7854(9) 1.1661(10) 0.3973(7)
C2 C 0.7794(6) 1.0935(5) 0.4889(4)
O1B O 0.7735(3) 1.2265(3) 0.65670(10)
N1B N 0.7754(3) 1.2248(3) 0.55724(12)
N2B N 0.6216(5) 1.2239(6) 0.5084(5)
N3B N 0.6583(6) 1.2174(6) 0.4122(4)
N4B N 0.8351(9) 1.2132(9) 0.3970(6)
C1B C 0.9070(5) 1.2209(5) 0.4889(4)
N5B N 1.3789(5) 1.2245(5) 0.4914(5)
N6B N 1.3417(6) 1.2176(6) 0.5872(4)
N7B N 1.1661(10) 1.2146(9) 0.6027(7)
C2B C 1.0935(5) 1.2206(6) 0.5111(4)
O1C O 1.2265(3) 0.7735(3) 0.65670(10)
N1C N 1.2246(3) 0.7752(3) 0.55724(12)
N2C N 1.3784(5) 0.7761(6) 0.5084(5)
N3C N 1.3417(6) 0.7826(6) 0.4122(4)
N4C N 1.1649(9) 0.7868(9) 0.3970(6)
C1C C 1.0930(5) 0.7791(5) 0.4889(4)
N5C N 0.6211(5) 0.7755(5) 0.4914(5)
N6C N 0.6583(6) 0.7824(6) 0.5872(4)
N7C N 0.8339(10) 0.7854(9) 0.6027(7)
C2C C 0.9065(5) 0.7794(6) 0.5111(4)
O1A O 1.2265(3) 1.2265(3) 0.34330(10)
N1A N 1.2248(3) 1.2246(3) 0.44276(12)
N2A N 1.2239(6) 1.3784(5) 0.4916(5)
N3A N 1.2174(6) 1.3417(6) 0.5878(4)
N4A N 1.2132(9) 1.1649(9) 0.6030(6)
C1A C 1.2209(5) 1.0930(5) 0.5111(4)
N5A N 1.2245(5) 0.6211(5) 0.5086(5)
N6A N 1.2176(6) 0.6583(6) 0.4128(4)
N7A N 1.2146(9) 0.8339(10) 0.3973(7)
C2A C 1.2206(6) 0.9065(5) 0.4889(4)
loop_
_geom_bond_atom_site_label_1
_geom_bond_atom_site_label_2
_geom_bond_site_symmetry_1
_geom_bond_site_symmetry_2
O1 N1 1_555 1_555
N1 N2 1_555 1_555
N2 N3 1_555 1_555
N3 N4 1_555 1_555
N4 C1 1_555 1_555
C1 N1 1_555 1_555
N5 N6 1_555 1_555
N6 N7 1_555 1_555
N7 C2 1_555 1_555
C2 C1 1_555 1_555
N8 H1 1_555 1_555
H2 N8 1_555 1_555
N9 H3 1_555 1_555
N10 H4 1_555 1_555
O1B N1B 1_555 1_555
N1B N5 1_555 1_555
N2B N5 1_555 1_555
N3B N6 1_555 1_555
N4B N6 1_555 1_555
C1B N5 1_555 1_555
N5B N6B 1_555 1_555
N6B N7B 1_555 1_555
N7B C2B 1_555 1_555
C2B C1B 1_555 1_555
O1C N1C 1_555 1_555
N1C N2C 1_555 1_555
N2C N3C 1_555 1_555
N3C N4C 1_555 1_555
N4C C1C 1_555 1_555
C1C N1C 1_555 1_555
N5C N1 1_555 1_555
N6C N3 1_555 1_555
N7C N3 1_555 1_555
C2C N1 1_555 1_555
O1A N1A 1_555 1_555
N1A N5B 1_555 1_555
N2A N5B 1_555 1_555
N3A N6B 1_555 1_555
N4A N6B 1_555 1_555
C1A N5B 1_555 1_555
N5A N1C 1_555 1_555
N6A N3C 1_555 1_555
N7A N3C 1_555 1_555
C2A N1C 1_555 1_555
H1A N8 1_555 1_555
H2A N8 1_555 1_555
H3A N9 1_555 1_555
H3F N9 1_555 1_555
H3G N9 1_555 1_555
H4A N10 1_555 1_555
H4F N10 1_555 1_555
H4G N10 1_555 1_555
N2 N5C 1_555 1_555
N2 C2C 1_555 1_555
N4 N6C 1_555 1_555
N4 C2C 1_555 1_555
C1 N5C 1_555 1_555
C1 N7C 1_555 1_555
C1 C2C 1_555 1_555
N7 N3B 1_555 1_555
N7 C1B 1_555 1_555
C2 N1B 1_555 1_555
C2 N2B 1_555 1_555
C2 N4B 1_555 1_555
C2 C1B 1_555 1_555
N1B N2B 1_555 1_555
N1B C1B 1_555 1_555
N2B N3B 1_555 1_555
N3B N4B 1_555 1_555
N4B C1B 1_555 1_555
N7B N3A 1_555 1_555
N7B C1A 1_555 1_555
C2B N1A 1_555 1_555
C2B N2A 1_555 1_555
C2B N4A 1_555 1_555
C2B C1A 1_555 1_555
N2C N5A 1_555 1_555
N2C C2A 1_555 1_555
N4C N6A 1_555 1_555
N4C C2A 1_555 1_555
C1C C2C 1_555 1_555
C1C N5A 1_555 1_555
C1C N7A 1_555 1_555
C1C C2A 1_555 1_555
N5C N6C 1_555 1_555
N6C N7C 1_555 1_555
N7C C2C 1_555 1_555
N1A N2A 1_555 1_555
N1A C1A 1_555 1_555
N2A N3A 1_555 1_555
N3A N4A 1_555 1_555
N4A C1A 1_555 1_555
C1A C2A 1_555 1_555
N5A N6A 1_555 1_555
N6A N7A 1_555 1_555
N7A C2A 1_555 1_555

#END
