
#######################################################################
#
#                 Cambridge Crystallographic Data Centre
#                                CCDC 
#
#######################################################################
#
# If this CIF has been generated from an entry in the Cambridge 
# Structural Database, then it will include bibliographic, chemical, 
# crystal, experimental, refinement or atomic coordinate data resulting 
# from the CCDC's data processing and validation procedures.
#
#######################################################################

data_ZIBFOI
_chemical_formula_moiety         'C16 H16 N2 O2'
_chemical_name_systematic        
N-(oxolan-2-yl)-N-phenylpyridine-2-carboxamide
_symmetry_cell_setting           monoclinic
_symmetry_space_group_name_H-M   'P 21/c'
_symmetry_Int_Tables_number      14
_space_group_name_Hall           '-P 2ybc'
loop_
_symmetry_equiv_pos_site_id
_symmetry_equiv_pos_as_xyz
1 x,y,z
2 -x,1/2+y,1/2-z
3 -x,-y,-z
4 x,1/2-y,1/2+z
_cell_length_a                   9.0977(19)
_cell_length_b                   15.8862(8)
_cell_length_c                   16.343(4)
_cell_angle_alpha                90
_cell_angle_beta                 143.62(5)
_cell_angle_gamma                90
_cell_volume                     1401
_exptl_crystal_colour            colorless
_exptl_crystal_description       block
_cell_formula_units_Z            4
loop_
_atom_site_label
_atom_site_type_symbol
_atom_site_fract_x
_atom_site_fract_y
_atom_site_fract_z
C1 C -0.0728(6) 0.1178(2) 0.0620(3)
H1 H -0.2376 0.1006 -0.0120
C2 C 0.1062(7) 0.0571(2) 0.1460(4)
H2 H 0.0633 0.0004 0.1293
C3 C 0.3496(7) 0.0810(2) 0.2550(4)
H3 H 0.4752 0.0411 0.3150
C4 C 0.4047(5) 0.1655(2) 0.2741(3)
H4 H 0.5684 0.1837 0.3457
C5 C 0.2119(4) 0.22253(16) 0.1847(2)
C6 C 0.2617(4) 0.31409(17) 0.1924(2)
C7 C 0.0877(4) 0.34711(13) 0.2488(2)
C8 C 0.2591(5) 0.31837(17) 0.3812(3)
H5 H 0.4234 0.3114 0.4392
C9 C 0.1871(6) 0.29982(18) 0.4283(3)
H6 H 0.3031 0.2800 0.5177
C10 C -0.0538(6) 0.31056(17) 0.3437(3)
H7 H -0.1017 0.2987 0.3756
C11 C -0.2249(5) 0.33885(18) 0.2114(3)
H8 H -0.3888 0.3461 0.1540
C12 C -0.1569(5) 0.35673(17) 0.1623(3)
H9 H -0.2744 0.3751 0.0720
C13 C 0.1737(5) 0.46054(17) 0.1853(3)
H10 H 0.2455 0.4662 0.1627
C14 C 0.3177(6) 0.5156(2) 0.3077(3)
H11 H 0.4837 0.5261 0.3617
H12 H 0.3284 0.4904 0.3664
C15 C 0.1661(8) 0.5954(3) 0.2414(5)
H13 H 0.1772 0.6226 0.2994
H14 H 0.2214 0.6345 0.2244
C16 C -0.0880(8) 0.5668(3) 0.1113(4)
H15 H -0.1749 0.5568 0.1233
H16 H -0.1779 0.6092 0.0402
N1 N -0.0255(4) 0.20021(14) 0.0798(2)
N2 N 0.1670(4) 0.37099(13) 0.2035(2)
O1 O 0.3796(4) 0.33441(14) 0.1847(3)
O2 O -0.0709(4) 0.49238(14) 0.0737(2)
loop_
_geom_bond_atom_site_label_1
_geom_bond_atom_site_label_2
_geom_bond_site_symmetry_1
_geom_bond_site_symmetry_2
C1 H1 1_555 1_555
C2 C1 1_555 1_555
H2 C2 1_555 1_555
C3 C2 1_555 1_555
H3 C3 1_555 1_555
C4 C3 1_555 1_555
H4 C4 1_555 1_555
C5 C4 1_555 1_555
C6 C5 1_555 1_555
C7 C8 1_555 1_555
C8 H5 1_555 1_555
C9 C8 1_555 1_555
H6 C9 1_555 1_555
C10 C9 1_555 1_555
H7 C10 1_555 1_555
C11 C10 1_555 1_555
H8 C11 1_555 1_555
C12 C7 1_555 1_555
H9 C12 1_555 1_555
C13 H10 1_555 1_555
C14 C13 1_555 1_555
H11 C14 1_555 1_555
H12 C14 1_555 1_555
C15 C14 1_555 1_555
H13 C15 1_555 1_555
H14 C15 1_555 1_555
C16 C15 1_555 1_555
H15 C16 1_555 1_555
H16 C16 1_555 1_555
N1 C1 1_555 1_555
N2 C6 1_555 1_555
O1 C6 1_555 1_555
O2 C13 1_555 1_555
C5 N1 1_555 1_555
C7 N2 1_555 1_555
C11 C12 1_555 1_555
C13 N2 1_555 1_555
C16 O2 1_555 1_555

#END
