
#######################################################################
#
#                 Cambridge Crystallographic Data Centre
#                                CCDC 
#
#######################################################################
#
# If this CIF has been generated from an entry in the Cambridge 
# Structural Database, then it will include bibliographic, chemical, 
# crystal, experimental, refinement or atomic coordinate data resulting 
# from the CCDC's data processing and validation procedures.
#
#######################################################################

data_ZIBFIC
_chemical_formula_moiety         'C20 H26 O9'
_chemical_name_systematic        
'8-(acetyloxy)-5,9-dihydroxy-5,8a-dimethyl-3-methylidene-2-oxododecahydronaphtho[2,3-b]furan-4-yl 2-oxopropanoate'
_symmetry_cell_setting           monoclinic
_symmetry_space_group_name_H-M   'C 2'
_symmetry_Int_Tables_number      5
_space_group_name_Hall           'C 2y'
loop_
_symmetry_equiv_pos_site_id
_symmetry_equiv_pos_as_xyz
1 x,y,z
2 -x,y,-z
3 1/2+x,1/2+y,z
4 1/2-x,1/2+y,-z
_cell_length_a                   21.766(2)
_cell_length_b                   8.1624(7)
_cell_length_c                   12.9534(12)
_cell_angle_alpha                90
_cell_angle_beta                 110.390(10)
_cell_angle_gamma                90
_cell_volume                     2157.14
_cell_formula_units_Z            4
loop_
_atom_site_label
_atom_site_type_symbol
_atom_site_fract_x
_atom_site_fract_y
_atom_site_fract_z
C1 C 0.8273(8) 0.4886(18) 0.5813(8)
H1 H 0.7888 0.5290 0.5932
H2 H 0.8562 0.5783 0.5836
H3 H 0.8492 0.4110 0.6379
C2 C 0.8078(5) 0.4067(16) 0.4710(7)
C3 C 0.8175(3) 0.4434(7) 0.2931(4)
H4 H 0.8154 0.3234 0.2916
C4 C 0.7504(3) 0.5138(9) 0.2243(5)
H5 H 0.7374 0.4713 0.1498
H6 H 0.7180 0.4795 0.2555
C5 C 0.7526(3) 0.6959(9) 0.2214(5)
H7 H 0.7623 0.7371 0.2956
H8 H 0.7095 0.7359 0.1771
C6 C 0.8031(2) 0.7660(6) 0.1750(4)
C7 C 0.8718(2) 0.6893(5) 0.2352(4)
H9 H 0.8868 0.7398 0.3084
C8 C 0.8743(2) 0.5004(6) 0.2580(4)
C9 C 0.8056(3) 0.9519(8) 0.1852(6)
H10 H 0.8355 0.9948 0.1524
H11 H 0.8200 0.9820 0.2616
H12 H 0.7626 0.9961 0.1480
C10 C 0.9391(3) 0.4595(7) 0.3528(4)
H13 H 0.9388 0.5093 0.4197
H14 H 0.9755 0.5009 0.3350
H15 H 0.9432 0.3429 0.3623
C11 C 0.8748(2) 0.3975(6) 0.1587(4)
H16 H 0.8780 0.2821 0.1809
C12 C 0.9352(3) 0.4375(8) 0.1293(4)
H17 H 0.9745 0.3979 0.1880
C13 C 0.9427(2) 0.6202(9) 0.1109(5)
H18 H 0.9896 0.6383 0.1264
C14 C 0.9226(2) 0.7427(7) 0.1836(5)
H19 H 0.9058 0.8414 0.1397
C15 C 0.9106(3) 0.4636(13) -0.0546(6)
C16 C 0.9104(3) 0.6295(11) -0.0137(5)
C17 C 0.8874(6) 0.760(2) -0.0765(9)
H20 H 0.8698 0.7493 -0.1526
H21 H 0.8889 0.8626 -0.0442
C18 C 1.0012(5) 0.9347(11) 0.2874(13)
C19 C 1.0659(7) 0.9649(19) 0.3703(17)
C20 C 1.1043(7) 1.0975(18) 0.3421(15)
H22 H 1.1017 1.1954 0.3814
H23 H 1.0867 1.1184 0.2643
H24 H 1.1492 1.0642 0.3624
O1 O 0.7791(5) 0.2869(13) 0.4430(7)
O2 O 0.8313(2) 0.5012(6) 0.4054(3)
O3 O 0.81781(16) 0.4139(5) 0.0620(3)
H25 H 0.8066 0.5104 0.0537
O4 O 0.9296(2) 0.3564(8) 0.0267(4)
O5 O 0.8977(3) 0.4157(12) -0.1503(4)
O6 O 0.78544(15) 0.7210(4) 0.0604(3)
H26 H 0.7516 0.7684 0.0242
O7 O 0.9834(2) 0.7861(6) 0.2710(4)
O8 O 0.9642(3) 1.0461(8) 0.2551(9)
O9 O 1.0857(5) 0.8740(14) 0.4533(11)
loop_
_geom_bond_atom_site_label_1
_geom_bond_atom_site_label_2
_geom_bond_site_symmetry_1
_geom_bond_site_symmetry_2
C1 H1 1_555 1_555
H2 C1 1_555 1_555
H3 C1 1_555 1_555
C2 C1 1_555 1_555
C3 H4 1_555 1_555
C4 C3 1_555 1_555
H5 C4 1_555 1_555
H6 C4 1_555 1_555
C5 C4 1_555 1_555
H7 C5 1_555 1_555
H8 C5 1_555 1_555
C6 C5 1_555 1_555
C7 C6 1_555 1_555
H9 C7 1_555 1_555
C8 C3 1_555 1_555
C9 C6 1_555 1_555
H10 C9 1_555 1_555
H11 C9 1_555 1_555
H12 C9 1_555 1_555
C10 C8 1_555 1_555
H13 C10 1_555 1_555
H14 C10 1_555 1_555
H15 C10 1_555 1_555
C11 C8 1_555 1_555
H16 C11 1_555 1_555
C12 C11 1_555 1_555
H17 C12 1_555 1_555
C13 C12 1_555 1_555
H18 C13 1_555 1_555
C14 C7 1_555 1_555
H19 C14 1_555 1_555
C15 C16 1_555 1_555
C16 C13 1_555 1_555
C17 C16 1_555 1_555
H20 C17 1_555 1_555
H21 C17 1_555 1_555
C18 C19 1_555 1_555
C19 C20 1_555 1_555
C20 H22 1_555 1_555
H23 C20 1_555 1_555
H24 C20 1_555 1_555
O1 C2 1_555 1_555
O2 C2 1_555 1_555
O3 C11 1_555 1_555
H25 O3 1_555 1_555
O4 C12 1_555 1_555
O5 C15 1_555 1_555
O6 C6 1_555 1_555
H26 O6 1_555 1_555
O7 C14 1_555 1_555
O8 C18 1_555 1_555
O9 C19 1_555 1_555
C3 O2 1_555 1_555
C7 C8 1_555 1_555
C13 C14 1_555 1_555
C15 O4 1_555 1_555
C18 O7 1_555 1_555

#END
