
#######################################################################
#
#                 Cambridge Crystallographic Data Centre
#                                CCDC 
#
#######################################################################
#
# If this CIF has been generated from an entry in the Cambridge 
# Structural Database, then it will include bibliographic, chemical, 
# crystal, experimental, refinement or atomic coordinate data resulting 
# from the CCDC's data processing and validation procedures.
#
#######################################################################

data_ZIBFUO
_chemical_formula_moiety         'C29 H26 N2 O1'
_chemical_name_systematic        
2,3,5,6-tetraphenylhexahydro-2H-pyrrolo[3,2-d][1,2]oxazole
_symmetry_cell_setting           monoclinic
_symmetry_space_group_name_H-M   'P 21/c'
_symmetry_Int_Tables_number      14
_space_group_name_Hall           '-P 2ybc'
loop_
_symmetry_equiv_pos_site_id
_symmetry_equiv_pos_as_xyz
1 x,y,z
2 -x,1/2+y,1/2-z
3 -x,-y,-z
4 x,1/2-y,1/2+z
_cell_length_a                   11.6449(14)
_cell_length_b                   10.0539(11)
_cell_length_c                   19.051(2)
_cell_angle_alpha                90
_cell_angle_beta                 100.411(2)
_cell_angle_gamma                90
_cell_volume                     2193.71
_exptl_crystal_colour            colorless
_exptl_crystal_description       Prism
_cell_formula_units_Z            4
loop_
_atom_site_label
_atom_site_type_symbol
_atom_site_fract_x
_atom_site_fract_y
_atom_site_fract_z
O1 O 1.00639(18) 0.9816(2) 0.19001(12)
N1 N 0.8606(2) 0.9241(3) 0.25760(14)
N2 N 1.1273(2) 0.9470(3) 0.19314(14)
C1 C 0.9569(3) 0.8786(4) 0.22793(16)
H1 H 0.9371 0.7973 0.1980
C2 C 1.0553(3) 0.8521(3) 0.29207(18)
H2 H 1.0489 0.7611 0.3121
C3 C 1.0319(3) 0.9591(4) 0.34384(18)
H3 H 1.0693 1.0440 0.3343
H4 H 1.0618 0.9319 0.3937
C4 C 0.8965(3) 0.9736(3) 0.33024(16)
H5 H 0.8760 1.0700 0.3316
C5 C 0.8414(2) 0.8995(3) 0.38487(15)
C6 C 0.8164(3) 0.7648(3) 0.38204(17)
H6 H 0.8300 0.7130 0.3426
C7 C 0.7706(3) 0.7050(3) 0.4379(2)
H7 H 0.7552 0.6121 0.4368
C8 C 0.7481(3) 0.7808(4) 0.49384(17)
H8 H 0.7159 0.7404 0.5310
C9 C 0.7719(3) 0.9138(4) 0.49641(17)
H9 H 0.7553 0.9661 0.5349
C10 C 0.8200(3) 0.9718(3) 0.44318(17)
H10 H 0.8390 1.0637 0.4464
C11 C 0.7521(3) 0.9571(3) 0.21483(17)
C12 C 0.6559(3) 0.9918(4) 0.24616(17)
H11 H 0.6644 0.9952 0.2967
C13 C 0.5496(3) 1.0209(4) 0.20452(19)
H12 H 0.4854 1.0428 0.2268
C14 C 0.5346(3) 1.0188(3) 0.13077(18)
H13 H 0.4608 1.0387 0.1024
C15 C 0.6297(3) 0.9871(3) 0.09905(17)
H14 H 0.6208 0.9859 0.0485
C16 C 0.7363(3) 0.9576(3) 0.13981(16)
H15 H 0.8003 0.9371 0.1171
C17 C 1.1661(3) 0.8665(3) 0.25980(17)
H16 H 1.1887 0.7761 0.2452
C18 C 1.2711(2) 0.9269(3) 0.30787(14)
C19 C 1.3501(2) 0.8441(3) 0.35056(16)
H17 H 1.3367 0.7508 0.3500
C20 C 1.4481(3) 0.8962(4) 0.39386(17)
H18 H 1.5013 0.8385 0.4229
C21 C 1.4689(3) 1.0304(4) 0.39504(17)
H19 H 1.5361 1.0656 0.4251
C22 C 1.3917(3) 1.1147(3) 0.35236(16)
H20 H 1.4063 1.2077 0.3528
C23 C 1.2929(2) 1.0629(3) 0.30886(15)
H21 H 1.2401 1.1208 0.2797
C24 C 1.1485(2) 0.8889(3) 0.12958(16)
C25 C 1.0639(3) 0.8807(3) 0.06809(17)
H22 H 0.9852 0.9041 0.0694
C26 C 1.0944(3) 0.8386(3) 0.00553(17)
H23 H 1.0362 0.8331 -0.0363
C27 C 1.2085(3) 0.8039(3) 0.00197(18)
H24 H 1.2292 0.7769 -0.0419
C28 C 1.2917(3) 0.8095(3) 0.06380(19)
H25 H 1.3700 0.7846 0.0624
C29 C 1.2629(3) 0.8502(3) 0.12675(18)
H26 H 1.3209 0.8523 0.1688
loop_
_geom_bond_atom_site_label_1
_geom_bond_atom_site_label_2
_geom_bond_site_symmetry_1
_geom_bond_site_symmetry_2
O1 N2 1_555 1_555
N1 C1 1_555 1_555
N2 C17 1_555 1_555
C1 O1 1_555 1_555
H1 C1 1_555 1_555
C2 C1 1_555 1_555
H2 C2 1_555 1_555
C3 C2 1_555 1_555
H3 C3 1_555 1_555
H4 C3 1_555 1_555
C4 N1 1_555 1_555
H5 C4 1_555 1_555
C5 C4 1_555 1_555
C6 C5 1_555 1_555
H6 C6 1_555 1_555
C7 C6 1_555 1_555
H7 C7 1_555 1_555
C8 C7 1_555 1_555
H8 C8 1_555 1_555
C9 C8 1_555 1_555
H9 C9 1_555 1_555
C10 C5 1_555 1_555
H10 C10 1_555 1_555
C11 N1 1_555 1_555
C12 C11 1_555 1_555
H11 C12 1_555 1_555
C13 C12 1_555 1_555
H12 C13 1_555 1_555
C14 C13 1_555 1_555
H13 C14 1_555 1_555
C15 C14 1_555 1_555
H14 C15 1_555 1_555
C16 C11 1_555 1_555
H15 C16 1_555 1_555
C17 C2 1_555 1_555
H16 C17 1_555 1_555
C18 C17 1_555 1_555
C19 C18 1_555 1_555
H17 C19 1_555 1_555
C20 C19 1_555 1_555
H18 C20 1_555 1_555
C21 C20 1_555 1_555
H19 C21 1_555 1_555
C22 C21 1_555 1_555
H20 C22 1_555 1_555
C23 C18 1_555 1_555
H21 C23 1_555 1_555
C24 N2 1_555 1_555
C25 C24 1_555 1_555
H22 C25 1_555 1_555
C26 C25 1_555 1_555
H23 C26 1_555 1_555
C27 C26 1_555 1_555
H24 C27 1_555 1_555
C28 C27 1_555 1_555
H25 C28 1_555 1_555
C29 C24 1_555 1_555
H26 C29 1_555 1_555
C3 C4 1_555 1_555
C9 C10 1_555 1_555
C15 C16 1_555 1_555
C22 C23 1_555 1_555
C28 C29 1_555 1_555

#END
