
#######################################################################
#
#                 Cambridge Crystallographic Data Centre
#                                CCDC 
#
#######################################################################
#
# If this CIF has been generated from an entry in the Cambridge 
# Structural Database, then it will include bibliographic, chemical, 
# crystal, experimental, refinement or atomic coordinate data resulting 
# from the CCDC's data processing and validation procedures.
#
#######################################################################

data_ZIBFAU
_chemical_formula_moiety         'C23 H32 O9'
_chemical_name_systematic        
'8,9-bis(acetyloxy)-5-hydroxy-5,8a-dimethyl-3-methylidene-2-oxododecahydronaphtho[2,3-b]furan-4-yl 2-methylpropanoate'
_symmetry_cell_setting           orthorhombic
_symmetry_space_group_name_H-M   'P 21 21 21'
_symmetry_Int_Tables_number      19
_space_group_name_Hall           'P 2ac 2ab'
loop_
_symmetry_equiv_pos_site_id
_symmetry_equiv_pos_as_xyz
1 x,y,z
2 1/2-x,-y,1/2+z
3 1/2+x,1/2-y,-z
4 -x,1/2+y,1/2-z
_cell_length_a                   10.28136(13)
_cell_length_b                   12.47066(15)
_cell_length_c                   17.59236(19)
_cell_angle_alpha                90
_cell_angle_beta                 90
_cell_angle_gamma                90
_cell_volume                     2255.61
_cell_formula_units_Z            4
loop_
_atom_site_label
_atom_site_type_symbol
_atom_site_fract_x
_atom_site_fract_y
_atom_site_fract_z
O1 O 0.43780(8) 0.10443(7) 0.11150(5)
O2 O 0.05656(8) 0.02696(7) 0.05968(5)
O3 O 0.64476(9) 0.16489(8) 0.10742(5)
O4 O 0.15744(9) 0.01130(7) 0.22911(5)
H1 H 0.1272 -0.0200 0.2661
O5 O 0.55310(10) 0.10742(9) 0.29853(6)
O6 O 0.45237(9) 0.25428(7) 0.25341(5)
O7 O 0.42605(9) 0.18356(9) -0.03091(5)
O8 O 0.17740(10) -0.12259(8) 0.04533(6)
C1 C 0.56866(12) 0.09263(10) 0.11507(7)
C2 C 0.17261(12) 0.08700(10) 0.07833(7)
H2 H 0.2449 0.0383 0.0896
O9 O 0.43504(11) 0.08351(13) -0.13482(6)
C3 C 0.07348(13) -0.07901(10) 0.04577(7)
C4 C 0.23316(13) 0.09988(10) -0.06406(7)
C5 C 0.55477(13) 0.20133(12) 0.28297(7)
C6 C 0.27744(12) 0.22892(10) 0.16336(7)
C7 C 0.33298(12) 0.19358(10) 0.24040(7)
H3 H 0.3538 0.1169 0.2383
C8 C 0.08728(12) 0.10893(11) 0.21677(7)
C9 C 0.10009(13) 0.18369(12) 0.28569(8)
H4 H 0.0518 0.2489 0.2755
H5 H 0.0603 0.1492 0.3293
C10 C -0.05779(14) 0.08469(13) 0.20615(8)
H6 H -0.0681 0.0287 0.1692
H7 H -0.1017 0.1481 0.1889
H8 H -0.0944 0.0621 0.2537
C11 C 0.15370(14) 0.04915(11) -0.11090(8)
C12 C 0.32974(13) 0.22195(10) 0.02309(7)
H9 H 0.3121 0.2978 0.0129
C13 C 0.66943(15) 0.27418(13) 0.29214(8)
H10 H 0.7293 0.2434 0.3279
H11 H 0.6406 0.3427 0.3105
H12 H 0.7119 0.2831 0.2440
C14 C 0.20463(12) 0.15698(10) 0.00914(7)
H13 H 0.1326 0.2070 0.0007
C15 C 0.24049(13) 0.21386(12) 0.30617(7)
H14 H 0.2439 0.2891 0.3201
H15 H 0.2682 0.1722 0.3498
C16 C -0.05438(16) -0.13623(12) 0.03319(9)
H16 H -0.0923 -0.1445 0.0840
C17 C 0.14827(12) 0.16301(10) 0.14575(7)
H17 H 0.0843 0.2156 0.1280
C18 C 0.38455(12) 0.21098(10) 0.10279(7)
H18 H 0.4539 0.2639 0.1101
C19 C 0.60232(14) -0.02156(12) 0.13224(9)
H19 H 0.5720 -0.0396 0.1822
H20 H 0.6950 -0.0307 0.1299
H21 H 0.5616 -0.0676 0.0956
C20 C 0.37196(14) 0.11719(13) -0.08262(7)
C21 C -0.15298(15) -0.07408(14) -0.01139(9)
H22 H -0.1676 -0.0060 0.0126
H23 H -0.2331 -0.1135 -0.0132
H24 H -0.1214 -0.0629 -0.0621
C22 C 0.24703(14) 0.34954(11) 0.16404(8)
H25 H 0.1826 0.3643 0.2022
H26 H 0.2145 0.3707 0.1151
H27 H 0.3249 0.3890 0.1753
C23 C -0.03271(17) -0.24896(13) 0.00487(11)
H28 H 0.0079 -0.2466 -0.0442
H29 H -0.1148 -0.2853 0.0010
H30 H 0.0225 -0.2867 0.0398
H31 H 0.0591(18) 0.0388(13) -0.1022(9)
H32 H 0.1844(16) 0.0185(13) -0.1569(10)
loop_
_geom_bond_atom_site_label_1
_geom_bond_atom_site_label_2
_geom_bond_site_symmetry_1
_geom_bond_site_symmetry_2
O1 C1 1_555 1_555
O2 C2 1_555 1_555
O3 C1 1_555 1_555
O4 H1 1_555 1_555
O5 C5 1_555 1_555
O6 C5 1_555 1_555
O7 C12 1_555 1_555
O8 C3 1_555 1_555
C1 C19 1_555 1_555
C2 H2 1_555 1_555
O9 C20 1_555 1_555
C3 O2 1_555 1_555
C4 C11 1_555 1_555
C5 C13 1_555 1_555
C6 C7 1_555 1_555
C7 O6 1_555 1_555
H3 C7 1_555 1_555
C8 O4 1_555 1_555
C9 C8 1_555 1_555
H4 C9 1_555 1_555
H5 C9 1_555 1_555
C10 C8 1_555 1_555
H6 C10 1_555 1_555
H7 C10 1_555 1_555
H8 C10 1_555 1_555
C11 H31 1_555 1_555
C12 H9 1_555 1_555
C13 H10 1_555 1_555
H11 C13 1_555 1_555
H12 C13 1_555 1_555
C14 C2 1_555 1_555
H13 C14 1_555 1_555
C15 C7 1_555 1_555
H14 C15 1_555 1_555
H15 C15 1_555 1_555
C16 C3 1_555 1_555
H16 C16 1_555 1_555
C17 C2 1_555 1_555
H17 C17 1_555 1_555
C18 O1 1_555 1_555
H18 C18 1_555 1_555
C19 H19 1_555 1_555
H20 C19 1_555 1_555
H21 C19 1_555 1_555
C20 O7 1_555 1_555
C21 C16 1_555 1_555
H22 C21 1_555 1_555
H23 C21 1_555 1_555
H24 C21 1_555 1_555
C22 C6 1_555 1_555
H25 C22 1_555 1_555
H26 C22 1_555 1_555
H27 C22 1_555 1_555
C23 C16 1_555 1_555
H28 C23 1_555 1_555
H29 C23 1_555 1_555
H30 C23 1_555 1_555
H32 C11 1_555 1_555
C4 C14 1_555 1_555
C4 C20 1_555 1_555
C6 C17 1_555 1_555
C6 C18 1_555 1_555
C8 C17 1_555 1_555
C9 C15 1_555 1_555
C12 C14 1_555 1_555
C12 C18 1_555 1_555

#END
