
#######################################################################
#
#                 Cambridge Crystallographic Data Centre
#                                CCDC 
#
#######################################################################
#
# If this CIF has been generated from an entry in the Cambridge 
# Structural Database, then it will include bibliographic, chemical, 
# crystal, experimental, refinement or atomic coordinate data resulting 
# from the CCDC's data processing and validation procedures.
#
#######################################################################

data_ZIBGAV
_chemical_formula_moiety         'C23 H34 O9'
_chemical_name_systematic        
'8,9-bis(acetyloxy)-5-hydroxy-3,5,8a-trimethyl-2-oxododecahydronaphtho[2,3-b]furan-4-yl 2-methylpropanoate'
_symmetry_cell_setting           hexagonal
_symmetry_space_group_name_H-M   'P 61'
_symmetry_Int_Tables_number      169
_space_group_name_Hall           'P 61'
loop_
_symmetry_equiv_pos_site_id
_symmetry_equiv_pos_as_xyz
1 x,y,z
2 x-y,x,1/6+z
3 -y,x-y,1/3+z
4 -x,-y,1/2+z
5 -x+y,-x,2/3+z
6 y,-x+y,5/6+z
_cell_length_a                   9.82141(12)
_cell_length_b                   9.82141(12)
_cell_length_c                   42.6133(4)
_cell_angle_alpha                90
_cell_angle_beta                 90
_cell_angle_gamma                120
_cell_volume                     3559.78
_cell_formula_units_Z            6
loop_
_atom_site_label
_atom_site_type_symbol
_atom_site_fract_x
_atom_site_fract_y
_atom_site_fract_z
O1 O 0.63472(16) 0.77774(14) 0.00108(3)
O2 O 0.49662(15) 0.32426(14) -0.05617(3)
O3 O 0.56837(19) 0.56293(18) -0.12358(3)
O4 O 0.24082(15) 0.27803(16) -0.02467(4)
C1 C 0.4459(2) 0.4379(2) -0.06121(4)
H1 H 0.3736 0.4054 -0.0791
O5 O 0.95758(18) 0.78841(19) -0.01812(4)
H2 H 1.0322 0.8768 -0.0149
O6 O 0.6481(3) 0.7265(2) 0.05171(4)
C2 C 0.3607(2) 0.4385(2) -0.03166(5)
H3 H 0.3103 0.5017 -0.0352
C3 C 0.5882(2) 0.6020(2) -0.06751(4)
C4 C 0.6454(3) 0.8115(2) 0.03165(5)
C5 C 0.6321(2) 0.63135(19) -0.00681(4)
H4 H 0.6985 0.6170 0.0084
C6 C 0.8681(2) 0.7929(2) -0.04459(5)
O7 O 0.3525(4) 0.1740(3) -0.09614(6)
C7 C 0.5236(2) 0.7148(2) -0.07228(5)
H5 H 0.4262 0.6618 -0.0836
H6 H 0.5982 0.8050 -0.0840
H7 H 0.5061 0.7478 -0.0522
C8 C 0.7037(2) 0.6444(2) -0.03944(4)
H8 H 0.7273 0.5586 -0.0394
O8 O 0.2273(2) 0.08008(19) 0.00266(5)
C9 C 0.2928(2) 0.2180(2) -0.00236(5)
C10 C 0.4619(2) 0.4973(2) -0.00190(5)
H9 H 0.4116 0.5398 0.0117
C11 C 0.5801(3) 0.4806(3) -0.14771(6)
C12 C 0.4368(3) 0.3456(2) 0.01415(5)
H10 H 0.4054 0.3490 0.0358
C13 C 0.8775(3) 0.9526(2) -0.04569(6)
H11 H 0.8306 0.9664 -0.0271
H12 H 0.8222 0.9577 -0.0638
H13 H 0.9856 1.0343 -0.0468
C14 C 0.5685(3) 0.3103(3) 0.01580(7)
H14 H 0.5295 0.2061 0.0239
H15 H 0.6495 0.3849 0.0294
H16 H 0.6108 0.3173 -0.0048
C15 C 0.9366(3) 0.7683(3) -0.07477(6)
H17 H 1.0377 0.8612 -0.0788
H18 H 0.9542 0.6803 -0.0719
C16 C 0.8304(3) 0.7367(3) -0.10314(6)
H19 H 0.8161 0.8262 -0.1069
H20 H 0.8783 0.7209 -0.1216
C17 C 0.6727(2) 0.5914(2) -0.09696(5)
H21 H 0.6888 0.5011 -0.0947
C18 C 0.6576(4) 0.9683(3) 0.03787(6)
H22 H 0.6112 0.9961 0.0204
C19 C 0.4331(3) 0.1926(2) -0.07400(6)
O9 O 0.6650(3) 0.4263(3) -0.14813(5)
C20 C 0.4736(4) 0.4664(4) -0.17383(7)
H23 H 0.3825 0.3632 -0.1736
H24 H 0.5277 0.4834 -0.1935
H25 H 0.4417 0.5436 -0.1713
C21 C 0.4777(4) 0.0777(3) -0.06226(7)
H26 H 0.5897 0.1294 -0.0596
H27 H 0.4454 -0.0063 -0.0771
H28 H 0.4270 0.0358 -0.0425
C22 C 0.5766(6) 0.9644(5) 0.06769(12)
H29 H 0.4653 0.8964 0.0652
H30 H 0.5982 1.0686 0.0727
H31 H 0.6141 0.9256 0.0843
C23 C 0.8320(6) 1.0901(4) 0.04080(12)
H32 H 0.8749 1.0670 0.0589
H33 H 0.8442 1.1930 0.0429
H34 H 0.8865 1.0870 0.0224
loop_
_geom_bond_atom_site_label_1
_geom_bond_atom_site_label_2
_geom_bond_site_symmetry_1
_geom_bond_site_symmetry_2
O1 C4 1_555 1_555
O2 C1 1_555 1_555
O3 C11 1_555 1_555
O4 C2 1_555 1_555
C1 H1 1_555 1_555
O5 H2 1_555 1_555
O6 C4 1_555 1_555
C2 C1 1_555 1_555
H3 C2 1_555 1_555
C3 C1 1_555 1_555
C4 C18 1_555 1_555
C5 O1 1_555 1_555
H4 C5 1_555 1_555
C6 O5 1_555 1_555
O7 C19 1_555 1_555
C7 C3 1_555 1_555
H5 C7 1_555 1_555
H6 C7 1_555 1_555
H7 C7 1_555 1_555
C8 C3 1_555 1_555
H8 C8 1_555 1_555
O8 C9 1_555 1_555
C9 O4 1_555 1_555
C10 C2 1_555 1_555
H9 C10 1_555 1_555
C11 O9 1_555 1_555
C12 C9 1_555 1_555
H10 C12 1_555 1_555
C13 C6 1_555 1_555
H11 C13 1_555 1_555
H12 C13 1_555 1_555
H13 C13 1_555 1_555
C14 C12 1_555 1_555
H14 C14 1_555 1_555
H15 C14 1_555 1_555
H16 C14 1_555 1_555
C15 C6 1_555 1_555
H17 C15 1_555 1_555
H18 C15 1_555 1_555
C16 C15 1_555 1_555
H19 C16 1_555 1_555
H20 C16 1_555 1_555
C17 O3 1_555 1_555
H21 C17 1_555 1_555
C18 H22 1_555 1_555
C19 O2 1_555 1_555
C20 C11 1_555 1_555
H23 C20 1_555 1_555
H24 C20 1_555 1_555
H25 C20 1_555 1_555
C21 C19 1_555 1_555
H26 C21 1_555 1_555
H27 C21 1_555 1_555
H28 C21 1_555 1_555
C22 C18 1_555 1_555
H29 C22 1_555 1_555
H30 C22 1_555 1_555
H31 C22 1_555 1_555
C23 C18 1_555 1_555
H32 C23 1_555 1_555
H33 C23 1_555 1_555
H34 C23 1_555 1_555
C3 C17 1_555 1_555
C5 C8 1_555 1_555
C5 C10 1_555 1_555
C6 C8 1_555 1_555
C10 C12 1_555 1_555
C16 C17 1_555 1_555

#END
