
#######################################################################
#
#                 Cambridge Crystallographic Data Centre
#                                CCDC 
#
#######################################################################
#
# If this CIF has been generated from an entry in the Cambridge 
# Structural Database, then it will include bibliographic, chemical, 
# crystal, experimental, refinement or atomic coordinate data resulting 
# from the CCDC's data processing and validation procedures.
#
#######################################################################

data_ZIBJEC
_chemical_formula_moiety         'C30 H32 O6'
_chemical_name_systematic        
2,5,9,12,14,16b-hexamethyl-2,3,7a,9,11,12,13,16b-octahydro-8aH-furo[2',3':3,4]naphtho[2,3-b]naphtho[1',2':4,5]furo[3,2-d]furan-4,10,15(1H)-trione
_symmetry_cell_setting           monoclinic
_symmetry_space_group_name_H-M   'P 21'
_symmetry_Int_Tables_number      4
_space_group_name_Hall           'P 2yb'
loop_
_symmetry_equiv_pos_site_id
_symmetry_equiv_pos_as_xyz
1 x,y,z
2 -x,1/2+y,-z
_cell_length_a                   9.1959(3)
_cell_length_b                   15.4171(5)
_cell_length_c                   18.2499(7)
_cell_angle_alpha                90
_cell_angle_beta                 104.370(2)
_cell_angle_gamma                90
_cell_volume                     2506.41
_exptl_crystal_colour            brown
_exptl_crystal_description       plate
_cell_formula_units_Z            4
loop_
_atom_site_label
_atom_site_type_symbol
_atom_site_fract_x
_atom_site_fract_y
_atom_site_fract_z
O1 O 0.4749(4) 0.4119(2) 1.07272(16)
O2 O 0.8320(3) 0.74684(14) 1.02010(14)
O3 O 0.9229(3) 0.80480(14) 0.92086(15)
O4 O 0.8981(2) 0.62864(14) 0.80433(12)
O5 O 0.9090(3) 0.50226(16) 0.74420(13)
O6 O 1.2985(3) 0.75221(18) 1.11820(14)
C1 C 0.6806(4) 0.5148(3) 1.1682(2)
H1 H 0.7592 0.5422 1.2076
H2 H 0.7004 0.4524 1.1670
H3 H 0.5828 0.5241 1.1793
C2 C 0.6796(4) 0.5545(2) 1.0921(2)
C3 C 0.6184(3) 0.5129(2) 1.02198(19)
C4 C 0.6405(3) 0.5474(2) 0.95357(19)
C5 C 0.7161(3) 0.6263(2) 0.95660(18)
C6 C 0.7621(4) 0.6818(2) 0.89694(19)
C7 C 0.9193(3) 0.6556(2) 0.88154(18)
C8 C 0.9932(3) 0.57848(19) 0.92664(19)
C9 C 1.0723(3) 0.5904(2) 1.00587(18)
C10 C 1.0720(4) 0.5199(2) 1.0633(2)
H4 H 1.1373 0.4717 1.0548
H5 H 0.9688 0.4969 1.0556
C11 C 1.1263(4) 0.5515(2) 1.1441(2)
H6 H 1.0476 0.5905 1.1552
C12 C 1.1504(6) 0.4766(3) 1.2002(2)
H7 H 1.0572 0.4433 1.1932
H8 H 1.1792 0.4995 1.2519
H9 H 1.2303 0.4388 1.1916
C13 C 0.5210(4) 0.4350(2) 1.0189(2)
C14 C 0.4746(4) 0.3866(2) 0.9448(2)
H10 H 0.3826 0.3528 0.9440
H11 H 0.5548 0.3451 0.9415
C15 C 0.4445(4) 0.4465(2) 0.8761(2)
H12 H 0.3619 0.4873 0.8793
C16 C 0.3973(4) 0.3966(2) 0.8026(2)
H13 H 0.4776 0.3566 0.7984
H14 H 0.3779 0.4373 0.7600
H15 H 0.3058 0.3637 0.8018
C17 C 0.5872(4) 0.4991(2) 0.88025(19)
H16 H 0.6677 0.4595 0.8737
H17 H 0.5680 0.5413 0.8380
C18 C 0.6430(4) 0.6998(2) 0.8234(2)
H18 H 0.6346 0.6495 0.7897
H19 H 0.6723 0.7509 0.7984
H20 H 0.5460 0.7106 0.8349
C19 C 0.8001(3) 0.7678(2) 0.9399(2)
H21 H 0.7122 0.8080 0.9261
C20 C 0.7646(3) 0.6689(2) 1.0251(2)
C21 C 0.7504(4) 0.6349(2) 1.09302(19)
H22 H 0.7877 0.6654 1.1391
C22 C 1.0163(4) 0.73918(19) 0.89911(19)
H23 H 1.0426 0.7585 0.8517
C23 C 0.9274(3) 0.5415(2) 0.80239(19)
C24 C 0.9856(3) 0.5102(2) 0.88002(18)
C25 C 1.2697(4) 0.6043(2) 1.1521(2)
H24 H 1.3051 0.6248 1.2049
H25 H 1.3488 0.5668 1.1408
C26 C 1.2441(4) 0.6810(2) 1.09950(19)
C27 C 1.1506(4) 0.6651(2) 1.02251(18)
C28 C 1.1622(3) 0.7297(2) 0.96179(18)
H26 H 1.1852 0.7876 0.9867
C29 C 1.2945(4) 0.7051(2) 0.92901(19)
H27 H 1.3867 0.7030 0.9698
H28 H 1.3054 0.7486 0.8915
H29 H 1.2760 0.6481 0.9047
C30 C 1.0350(4) 0.4178(2) 0.8946(2)
H30 H 1.1187 0.4149 0.9399
H31 H 1.0675 0.3952 0.8511
H32 H 0.9512 0.3829 0.9025
O7 O 1.3325(4) 0.4026(2) 0.51871(19)
O8 O 0.7766(2) 0.25406(14) 0.27995(12)
O9 O 0.8466(3) 0.43834(15) 0.48325(13)
O10 O 0.6426(4) 0.11900(19) 0.65401(15)
O11 O 0.8988(3) 0.44870(15) 0.36422(14)
O12 O 0.7244(3) 0.11627(15) 0.24089(14)
C31 C 1.2855(4) 0.2858(2) 0.5952(2)
H33 H 1.3319 0.3230 0.6390
H34 H 1.3588 0.2399 0.5917
C32 C 1.2558(4) 0.3399(3) 0.5245(2)
C33 C 1.1297(3) 0.3123(2) 0.46061(19)
C34 C 1.1173(4) 0.3544(2) 0.3844(2)
H35 H 1.1683 0.4121 0.3929
C35 C 0.9537(3) 0.3688(2) 0.34060(19)
H36 H 0.9505 0.3736 0.2856
C36 C 0.8461(3) 0.2957(2) 0.35064(17)
C37 C 0.7218(3) 0.3431(2) 0.38270(18)
C38 C 0.7126(3) 0.3102(2) 0.45999(18)
C39 C 0.6531(3) 0.2358(2) 0.48438(19)
C40 C 0.6691(3) 0.2236(2) 0.56288(19)
C41 C 0.7410(4) 0.2873(2) 0.61569(19)
C42 C 0.7557(5) 0.2801(3) 0.6997(2)
H37 H 0.7951 0.3346 0.7244
H38 H 0.8246 0.2326 0.7204
H39 H 0.6570 0.2683 0.7089
C43 C 1.0407(3) 0.2451(2) 0.46816(18)
C44 C 1.0620(4) 0.1929(2) 0.53987(19)
H40 H 1.1186 0.1394 0.5352
H41 H 0.9625 0.1754 0.5466
C45 C 1.1462(4) 0.2434(2) 0.60965(19)
H42 H 1.0785 0.2905 0.6192
C46 C 1.1841(6) 0.1852(3) 0.6793(2)
H43 H 1.2552 0.1404 0.6726
H44 H 1.0922 0.1577 0.6860
H45 H 1.2292 0.2202 0.7240
C47 C 0.9246(3) 0.2220(2) 0.39985(18)
C48 C 0.8809(3) 0.1462(2) 0.36626(18)
C49 C 0.7850(4) 0.1655(2) 0.29001(19)
C50 C 0.5728(4) 0.3533(2) 0.3226(2)
H46 H 0.5296 0.2959 0.3078
H47 H 0.5910 0.3830 0.2782
H48 H 0.5028 0.3876 0.3434
C51 C 0.7889(4) 0.4341(2) 0.40223(19)
H49 H 0.7078 0.4784 0.3862
C52 C 0.7885(3) 0.3699(2) 0.51338(19)
C53 C 0.8020(4) 0.3602(2) 0.58967(19)
H50 H 0.8526 0.4029 0.6243
C54 C 0.6100(4) 0.1419(2) 0.5886(2)
C55 C 0.5057(4) 0.0861(2) 0.5306(2)
H51 H 0.4203 0.0684 0.5512
H52 H 0.5600 0.0328 0.5229
C56 C 0.4438(4) 0.1287(2) 0.4542(2)
H53 H 0.3744 0.1765 0.4604
C57 C 0.5750(4) 0.1678(2) 0.4294(2)
H54 H 0.6473 0.1214 0.4256
H55 H 0.5385 0.1941 0.3787
C58 C 0.3569(4) 0.0645(3) 0.3960(2)
H56 H 0.3191 0.0941 0.3475
H57 H 0.2723 0.0411 0.4135
H58 H 0.4235 0.0170 0.3896
C59 C 1.1984(4) 0.2983(3) 0.3373(2)
H59 H 1.3040 0.2916 0.3646
H60 H 1.1922 0.3263 0.2885
H61 H 1.1507 0.2411 0.3290
C60 C 0.9171(4) 0.0545(2) 0.3897(2)
H62 H 0.9722 0.0528 0.4431
H63 H 0.9791 0.0290 0.3587
H64 H 0.8239 0.0212 0.3829
loop_
_geom_bond_atom_site_label_1
_geom_bond_atom_site_label_2
_geom_bond_site_symmetry_1
_geom_bond_site_symmetry_2
O1 C13 1_555 1_555
O2 C19 1_555 1_555
O3 C19 1_555 1_555
O4 C7 1_555 1_555
O5 C23 1_555 1_555
O6 C26 1_555 1_555
C1 H1 1_555 1_555
H2 C1 1_555 1_555
H3 C1 1_555 1_555
C2 C1 1_555 1_555
C3 C2 1_555 1_555
C4 C3 1_555 1_555
C5 C4 1_555 1_555
C6 C5 1_555 1_555
C7 C6 1_555 1_555
C8 C7 1_555 1_555
C9 C8 1_555 1_555
C10 C9 1_555 1_555
H4 C10 1_555 1_555
H5 C10 1_555 1_555
C11 C10 1_555 1_555
H6 C11 1_555 1_555
C12 C11 1_555 1_555
H7 C12 1_555 1_555
H8 C12 1_555 1_555
H9 C12 1_555 1_555
C13 C3 1_555 1_555
C14 C13 1_555 1_555
H10 C14 1_555 1_555
H11 C14 1_555 1_555
C15 C14 1_555 1_555
H12 C15 1_555 1_555
C16 C15 1_555 1_555
H13 C16 1_555 1_555
H14 C16 1_555 1_555
H15 C16 1_555 1_555
C17 C4 1_555 1_555
H16 C17 1_555 1_555
H17 C17 1_555 1_555
C18 C6 1_555 1_555
H18 C18 1_555 1_555
H19 C18 1_555 1_555
H20 C18 1_555 1_555
C19 C6 1_555 1_555
H21 C19 1_555 1_555
C20 O2 1_555 1_555
C21 C2 1_555 1_555
H22 C21 1_555 1_555
C22 O3 1_555 1_555
H23 C22 1_555 1_555
C23 O4 1_555 1_555
C24 C8 1_555 1_555
C25 C11 1_555 1_555
H24 C25 1_555 1_555
H25 C25 1_555 1_555
C26 C25 1_555 1_555
C27 C9 1_555 1_555
C28 C22 1_555 1_555
H26 C28 1_555 1_555
C29 C28 1_555 1_555
H27 C29 1_555 1_555
H28 C29 1_555 1_555
H29 C29 1_555 1_555
C30 C24 1_555 1_555
H30 C30 1_555 1_555
H31 C30 1_555 1_555
H32 C30 1_555 1_555
O7 C32 1_555 1_555
O8 C36 1_555 1_555
O9 C51 1_555 1_555
O10 C54 1_555 1_555
O11 C35 1_555 1_555
O12 C49 1_555 1_555
C31 H33 1_555 1_555
H34 C31 1_555 1_555
C32 C31 1_555 1_555
C33 C32 1_555 1_555
C34 C33 1_555 1_555
H35 C34 1_555 1_555
C35 C34 1_555 1_555
H36 C35 1_555 1_555
C36 C35 1_555 1_555
C37 C36 1_555 1_555
C38 C37 1_555 1_555
C39 C38 1_555 1_555
C40 C39 1_555 1_555
C41 C40 1_555 1_555
C42 C41 1_555 1_555
H37 C42 1_555 1_555
H38 C42 1_555 1_555
H39 C42 1_555 1_555
C43 C33 1_555 1_555
C44 C43 1_555 1_555
H40 C44 1_555 1_555
H41 C44 1_555 1_555
C45 C31 1_555 1_555
H42 C45 1_555 1_555
C46 C45 1_555 1_555
H43 C46 1_555 1_555
H44 C46 1_555 1_555
H45 C46 1_555 1_555
C47 C36 1_555 1_555
C48 C47 1_555 1_555
C49 O8 1_555 1_555
C50 C37 1_555 1_555
H46 C50 1_555 1_555
H47 C50 1_555 1_555
H48 C50 1_555 1_555
C51 O11 1_555 1_555
H49 C51 1_555 1_555
C52 O9 1_555 1_555
C53 C41 1_555 1_555
H50 C53 1_555 1_555
C54 C40 1_555 1_555
C55 C54 1_555 1_555
H51 C55 1_555 1_555
H52 C55 1_555 1_555
C56 C55 1_555 1_555
H53 C56 1_555 1_555
C57 C39 1_555 1_555
H54 C57 1_555 1_555
H55 C57 1_555 1_555
C58 C56 1_555 1_555
H56 C58 1_555 1_555
H57 C58 1_555 1_555
H58 C58 1_555 1_555
C59 C34 1_555 1_555
H59 C59 1_555 1_555
H60 C59 1_555 1_555
H61 C59 1_555 1_555
C60 C48 1_555 1_555
H62 C60 1_555 1_555
H63 C60 1_555 1_555
H64 C60 1_555 1_555
C5 C20 1_555 1_555
C7 C22 1_555 1_555
C15 C17 1_555 1_555
C20 C21 1_555 1_555
C23 C24 1_555 1_555
C26 C27 1_555 1_555
C27 C28 1_555 1_555
C37 C51 1_555 1_555
C38 C52 1_555 1_555
C43 C47 1_555 1_555
C44 C45 1_555 1_555
C48 C49 1_555 1_555
C52 C53 1_555 1_555
C56 C57 1_555 1_555

#END
