
#######################################################################
#
#                 Cambridge Crystallographic Data Centre
#                                CCDC 
#
#######################################################################
#
# If this CIF has been generated from an entry in the Cambridge 
# Structural Database, then it will include bibliographic, chemical, 
# crystal, experimental, refinement or atomic coordinate data resulting 
# from the CCDC's data processing and validation procedures.
#
#######################################################################

data_ZIBQIN
_chemical_formula_moiety         'C40 H35 N3 O1'
_chemical_name_systematic        
1-benzyl-3'-(3,3-dimethyl-3H-indol-2-yl)-4',5'-diphenylspiro[indole-3,2'-pyrrolidin]-2(1H)-one
_symmetry_cell_setting           monoclinic
_symmetry_space_group_name_H-M   'P 21/c'
_symmetry_Int_Tables_number      14
_space_group_name_Hall           '-P 2ybc'
loop_
_symmetry_equiv_pos_site_id
_symmetry_equiv_pos_as_xyz
1 x,y,z
2 -x,1/2+y,1/2-z
3 -x,-y,-z
4 x,1/2-y,1/2+z
_cell_length_a                   10.6871(2)
_cell_length_b                   26.7381(5)
_cell_length_c                   11.5252(3)
_cell_angle_alpha                90
_cell_angle_beta                 105.4210(10)
_cell_angle_gamma                90
_cell_volume                     3174.79
_exptl_crystal_colour            colorless
_exptl_crystal_description       block
_cell_formula_units_Z            4
loop_
_atom_site_label
_atom_site_type_symbol
_atom_site_fract_x
_atom_site_fract_y
_atom_site_fract_z
N1 N 0.43178(17) 0.09815(6) 0.46059(15)
N2 N 0.75964(16) 0.14741(6) 0.82551(14)
O1 O 0.59117(16) 0.19012(6) 0.86935(14)
C1 C 0.49181(19) 0.18406(7) 0.48470(17)
C2 C 0.65408(19) 0.07993(7) 0.72177(17)
C3 C 0.55248(18) 0.11017(7) 0.75856(16)
C4 C 0.49996(19) 0.16532(7) 0.36344(17)
C5 C 0.45122(18) 0.13556(7) 0.53458(17)
N3 N 0.49357(17) 0.08213(7) 0.84092(15)
H1 H 0.5359 0.0643 0.9006
C6 C 0.77486(19) 0.10221(7) 0.76679(17)
C7 C 0.4633(2) 0.11554(7) 0.35432(17)
C8 C 0.6333(2) 0.15422(8) 0.82569(17)
C9 C 0.43302(18) 0.13151(7) 0.65861(16)
H2 H 0.4158 0.1653 0.6836
C10 C 0.6224(2) 0.20409(8) 0.56024(19)
H3 H 0.6133 0.2156 0.6364
H4 H 0.6860 0.1779 0.5731
H5 H 0.6497 0.2313 0.5185
C11 C 0.6454(2) 0.03482(8) 0.66151(19)
H6 H 0.5651 0.0198 0.6295
C12 C 0.3524(2) 0.08911(7) 0.80635(18)
H7 H 0.3327 0.1198 0.8447
C13 C 0.31957(18) 0.09813(7) 0.66961(17)
H8 H 0.3259 0.0661 0.6300
C14 C 0.4979(2) 0.11170(9) 0.1589(2)
H9 H 0.4978 0.0938 0.0897
C15 C 0.5354(2) 0.16112(9) 0.16787(19)
H10 H 0.5602 0.1762 0.1047
C16 C 0.2850(2) 0.04596(8) 0.84916(18)
C17 C 0.8763(3) 0.03473(9) 0.6965(2)
H11 H 0.9509 0.0188 0.6883
C18 C 0.8878(2) 0.08038(9) 0.7558(2)
H12 H 0.9681 0.0955 0.7867
C19 C 0.5367(2) 0.18858(9) 0.27041(19)
H13 H 0.5618 0.2220 0.2765
C20 C 0.4601(2) 0.08805(8) 0.25181(19)
H14 H 0.4335 0.0548 0.2452
C21 C 0.8597(2) 0.18547(8) 0.8650(2)
H15 H 0.8182 0.2179 0.8611
H16 H 0.9139 0.1860 0.8095
C22 C 0.9445(2) 0.17768(8) 0.9900(2)
C23 C 0.2312(2) 0.05238(10) 0.9448(2)
H17 H 0.2336 0.0838 0.9800
C24 C 0.7575(3) 0.01237(9) 0.6496(2)
H18 H 0.7529 -0.0181 0.6096
C25 C 0.3865(2) 0.22432(8) 0.4727(2)
H19 H 0.3841 0.2353 0.5513
H20 H 0.4061 0.2522 0.4279
H21 H 0.3037 0.2106 0.4313
C26 C 0.1872(2) 0.11961(10) 0.6156(2)
C27 C 0.2790(3) -0.00108(9) 0.7994(2)
H22 H 0.3148 -0.0066 0.7352
C28 C 0.1682(3) -0.03328(12) 0.9380(3)
H23 H 0.1290 -0.0597 0.9674
C29 C 0.1739(3) 0.01286(12) 0.9890(3)
H24 H 0.1391 0.0179 1.0540
C30 C 0.1539(3) 0.16743(11) 0.6431(3)
H25 H 0.2141 0.1871 0.6971
C31 C 0.0939(2) 0.09068(14) 0.5367(2)
H26 H 0.1140 0.0584 0.5179
C32 C -0.0306(3) 0.1102(2) 0.4854(3)
H27 H -0.0928 0.0910 0.4321
C33 C 0.2205(3) -0.04040(10) 0.8434(3)
H28 H 0.2170 -0.0719 0.8082
C34 C 0.8892(3) 0.17310(11) 1.0843(2)
H29 H 0.7993 0.1745 1.0688
C35 C 1.0766(3) 0.17664(12) 1.0142(3)
H30 H 1.1163 0.1810 0.9522
C36 C 1.1532(4) 0.16898(17) 1.1333(5)
H31 H 1.2432 0.1676 1.1501
C37 C 0.9623(5) 0.16650(17) 1.2007(3)
H32 H 0.9225 0.1640 1.2630
C38 C -0.0601(5) 0.1580(3) 0.5147(5)
H33 H -0.1430 0.1708 0.4820
C39 C 1.0927(5) 0.16366(19) 1.2236(4)
H34 H 1.1424 0.1580 1.3020
C40 C 0.0294(5) 0.1861(2) 0.5895(5)
H35 H 0.0088 0.2186 0.6064
loop_
_geom_bond_atom_site_label_1
_geom_bond_atom_site_label_2
_geom_bond_site_symmetry_1
_geom_bond_site_symmetry_2
N1 C5 1_555 1_555
N2 C6 1_555 1_555
O1 C8 1_555 1_555
C1 C4 1_555 1_555
C2 C3 1_555 1_555
C3 N3 1_555 1_555
C4 C7 1_555 1_555
C5 C1 1_555 1_555
N3 H1 1_555 1_555
C6 C2 1_555 1_555
C7 N1 1_555 1_555
C8 N2 1_555 1_555
C9 C3 1_555 1_555
H2 C9 1_555 1_555
C10 C1 1_555 1_555
H3 C10 1_555 1_555
H4 C10 1_555 1_555
H5 C10 1_555 1_555
C11 C2 1_555 1_555
H6 C11 1_555 1_555
C12 N3 1_555 1_555
H7 C12 1_555 1_555
C13 C9 1_555 1_555
H8 C13 1_555 1_555
C14 H9 1_555 1_555
C15 C14 1_555 1_555
H10 C15 1_555 1_555
C16 C12 1_555 1_555
C17 H11 1_555 1_555
C18 C6 1_555 1_555
H12 C18 1_555 1_555
C19 C4 1_555 1_555
H13 C19 1_555 1_555
C20 C7 1_555 1_555
H14 C20 1_555 1_555
C21 N2 1_555 1_555
H15 C21 1_555 1_555
H16 C21 1_555 1_555
C22 C21 1_555 1_555
C23 C16 1_555 1_555
H17 C23 1_555 1_555
C24 C11 1_555 1_555
H18 C24 1_555 1_555
C25 C1 1_555 1_555
H19 C25 1_555 1_555
H20 C25 1_555 1_555
H21 C25 1_555 1_555
C26 C13 1_555 1_555
C27 C16 1_555 1_555
H22 C27 1_555 1_555
C28 H23 1_555 1_555
C29 C23 1_555 1_555
H24 C29 1_555 1_555
C30 C26 1_555 1_555
H25 C30 1_555 1_555
C31 C26 1_555 1_555
H26 C31 1_555 1_555
C32 C31 1_555 1_555
H27 C32 1_555 1_555
C33 C27 1_555 1_555
H28 C33 1_555 1_555
C34 C22 1_555 1_555
H29 C34 1_555 1_555
C35 C22 1_555 1_555
H30 C35 1_555 1_555
C36 C35 1_555 1_555
H31 C36 1_555 1_555
C37 C34 1_555 1_555
H32 C37 1_555 1_555
C38 C32 1_555 1_555
H33 C38 1_555 1_555
C39 C36 1_555 1_555
H34 C39 1_555 1_555
C40 C30 1_555 1_555
H35 C40 1_555 1_555
C3 C8 1_555 1_555
C5 C9 1_555 1_555
C12 C13 1_555 1_555
C14 C20 1_555 1_555
C15 C19 1_555 1_555
C17 C18 1_555 1_555
C17 C24 1_555 1_555
C28 C29 1_555 1_555
C28 C33 1_555 1_555
C37 C39 1_555 1_555
C38 C40 1_555 1_555

#END
