
#######################################################################
#
#                 Cambridge Crystallographic Data Centre
#                                CCDC 
#
#######################################################################
#
# If this CIF has been generated from an entry in the Cambridge 
# Structural Database, then it will include bibliographic, chemical, 
# crystal, experimental, refinement or atomic coordinate data resulting 
# from the CCDC's data processing and validation procedures.
#
#######################################################################

data_ZIBREK
_chemical_formula_moiety         'C26 H25 N3 O2'
_chemical_name_systematic        
N-t-butyl-6-methylidene-3-oxo-1-phenyl-6,11-dihydro-3H-indolizino[8,7-b]indole-11b(5H)-carboxamide
_symmetry_cell_setting           orthorhombic
_symmetry_space_group_name_H-M   'P b c a'
_symmetry_Int_Tables_number      61
_space_group_name_Hall           '-P 2ac 2ab'
loop_
_symmetry_equiv_pos_site_id
_symmetry_equiv_pos_as_xyz
1 x,y,z
2 1/2-x,-y,1/2+z
3 1/2+x,1/2-y,-z
4 -x,1/2+y,1/2-z
5 -x,-y,-z
6 1/2+x,y,1/2-z
7 1/2-x,1/2+y,z
8 x,1/2-y,1/2+z
_cell_length_a                   17.4222(3)
_cell_length_b                   13.6764(3)
_cell_length_c                   17.9124(4)
_cell_angle_alpha                90
_cell_angle_beta                 90
_cell_angle_gamma                90
_cell_volume                     4268.04
_exptl_crystal_colour            colorless
_exptl_crystal_description       plate
_cell_formula_units_Z            8
loop_
_atom_site_label
_atom_site_type_symbol
_atom_site_fract_x
_atom_site_fract_y
_atom_site_fract_z
O1 O 0.06813(6) 0.58037(7) 0.00142(6)
O2 O 0.12732(5) 0.20316(7) 0.13068(5)
N1 N 0.27623(6) 0.29406(8) 0.07607(6)
N2 N 0.10044(6) 0.44455(7) 0.07014(6)
N3 N 0.01599(6) 0.27054(7) 0.08808(6)
C1 C 0.13779(6) 0.35053(8) 0.05741(7)
C2 C 0.21804(7) 0.35923(8) 0.08874(7)
C3 C 0.34169(7) 0.32695(9) 0.11155(7)
C4 C 0.41456(7) 0.28486(9) 0.11340(7)
H1 H 0.4253 0.2251 0.0885
C5 C 0.47051(7) 0.33409(10) 0.15317(8)
H2 H 0.5211 0.3083 0.1550
C6 C 0.45389(8) 0.42116(10) 0.19072(8)
H3 H 0.4932 0.4524 0.2187
C7 C 0.38173(7) 0.46301(10) 0.18814(7)
H4 H 0.3715 0.5225 0.2137
C8 C 0.32395(7) 0.41607(9) 0.14710(7)
C9 C 0.24407(7) 0.43594(9) 0.13150(6)
C10 C 0.19377(7) 0.51527(9) 0.15566(7)
C11 C 0.10973(7) 0.49233(9) 0.14228(7)
H5 H 0.0905 0.4490 0.1824
H6 H 0.0794 0.5535 0.1433
C12 C 0.08935(7) 0.49488(9) 0.00533(7)
C13 C 0.10762(7) 0.42685(10) -0.05542(7)
H7 H 0.1000 0.4402 -0.1069
C14 C 0.13652(7) 0.34304(9) -0.02829(7)
C15 C 0.16332(7) 0.25823(10) -0.07197(7)
C16 C 0.17689(8) 0.27053(11) -0.14877(8)
H8 H 0.1698 0.3330 -0.1709
C17 C 0.20041(9) 0.19274(13) -0.19256(9)
H9 H 0.2088 0.2019 -0.2445
H10 H 0.2711(11) 0.2358(15) 0.0538(11)
H11 H -0.0028(12) 0.3208(15) 0.0630(11)
C18 C 0.21173(9) 0.10187(12) -0.16095(10)
H12 H 0.2282 0.0487 -0.1911
C19 C 0.19907(9) 0.08810(11) -0.08497(9)
H13 H 0.2072 0.0256 -0.0632
C20 C 0.17445(8) 0.16580(10) -0.04078(8)
H14 H 0.1652 0.1558 0.0109
C21 C 0.21539(7) 0.59924(9) 0.18686(7)
H15 H 0.2683 0.6120 0.1954
H16 H 0.1779 0.6464 0.2006
C22 C 0.09199(7) 0.26654(8) 0.09670(6)
C23 C -0.03750(7) 0.19131(9) 0.11151(7)
C24 C -0.11824(8) 0.22820(11) 0.09581(9)
H17 H -0.1281 0.2869 0.1257
H18 H -0.1555 0.1774 0.1089
H19 H -0.1231 0.2442 0.0427
C25 C -0.02063(8) 0.09966(9) 0.06541(7)
H20 H -0.0269 0.1145 0.0122
H21 H -0.0563 0.0475 0.0797
H22 H 0.0322 0.0782 0.0748
C26 C -0.02964(8) 0.17123(10) 0.19502(7)
H23 H 0.0230 0.1503 0.2060
H24 H -0.0656 0.1196 0.2096
H25 H -0.0412 0.2310 0.2230
loop_
_geom_bond_atom_site_label_1
_geom_bond_atom_site_label_2
_geom_bond_site_symmetry_1
_geom_bond_site_symmetry_2
O1 C12 1_555 1_555
O2 C22 1_555 1_555
N1 C2 1_555 1_555
N2 C1 1_555 1_555
N3 H11 1_555 1_555
C1 C2 1_555 1_555
C2 C9 1_555 1_555
C3 N1 1_555 1_555
C4 C3 1_555 1_555
H1 C4 1_555 1_555
C5 C4 1_555 1_555
H2 C5 1_555 1_555
C6 C5 1_555 1_555
H3 C6 1_555 1_555
C7 C6 1_555 1_555
H4 C7 1_555 1_555
C8 C3 1_555 1_555
C9 C8 1_555 1_555
C10 C9 1_555 1_555
C11 N2 1_555 1_555
H5 C11 1_555 1_555
H6 C11 1_555 1_555
C12 N2 1_555 1_555
C13 C12 1_555 1_555
H7 C13 1_555 1_555
C14 C1 1_555 1_555
C15 C14 1_555 1_555
C16 C15 1_555 1_555
H8 C16 1_555 1_555
C17 C16 1_555 1_555
H9 C17 1_555 1_555
H10 N1 1_555 1_555
C18 C17 1_555 1_555
H12 C18 1_555 1_555
C19 C18 1_555 1_555
H13 C19 1_555 1_555
C20 C15 1_555 1_555
H14 C20 1_555 1_555
C21 C10 1_555 1_555
H15 C21 1_555 1_555
H16 C21 1_555 1_555
C22 N3 1_555 1_555
C23 N3 1_555 1_555
C24 C23 1_555 1_555
H17 C24 1_555 1_555
H18 C24 1_555 1_555
H19 C24 1_555 1_555
C25 C23 1_555 1_555
H20 C25 1_555 1_555
H21 C25 1_555 1_555
H22 C25 1_555 1_555
C26 C23 1_555 1_555
H23 C26 1_555 1_555
H24 C26 1_555 1_555
H25 C26 1_555 1_555
C1 C22 1_555 1_555
C7 C8 1_555 1_555
C10 C11 1_555 1_555
C13 C14 1_555 1_555
C19 C20 1_555 1_555

#END
