
#######################################################################
#
#                 Cambridge Crystallographic Data Centre
#                                CCDC 
#
#######################################################################
#
# If this CIF has been generated from an entry in the Cambridge 
# Structural Database, then it will include bibliographic, chemical, 
# crystal, experimental, refinement or atomic coordinate data resulting 
# from the CCDC's data processing and validation procedures.
#
#######################################################################

data_ZIBRUA
_chemical_name_common            
3-hydroxy-6,10,12a-trimethyl-3-(propan-2-yl)-2,3,3a,4,5,9,12,12a-octahydrocyclopenta[11]annulen-8(1H)-one
_chemical_formula_moiety         'C20 H32 O2'
_chemical_name_systematic        
(3S,6E,10E,12aS)-3-hydroxy-3-isopropyl-6,10,12a-trimethyl-2,3,3a,4,5,9,12,12a-octahydrocyclopenta[11]annulen-8(1H)-one
_symmetry_cell_setting           monoclinic
_symmetry_space_group_name_H-M   'P 21'
_symmetry_Int_Tables_number      4
_space_group_name_Hall           'P 2yb'
loop_
_symmetry_equiv_pos_site_id
_symmetry_equiv_pos_as_xyz
1 x,y,z
2 -x,1/2+y,-z
_cell_length_a                   8.2916(3)
_cell_length_b                   23.6075(10)
_cell_length_c                   10.0526(3)
_cell_angle_alpha                90
_cell_angle_beta                 110.757(2)
_cell_angle_gamma                90
_cell_volume                     1840.01
_exptl_crystal_colour            colorless
_exptl_crystal_description       acicular
_cell_formula_units_Z            4
loop_
_atom_site_label
_atom_site_type_symbol
_atom_site_fract_x
_atom_site_fract_y
_atom_site_fract_z
O1 O 1.1130(7) 0.4263(3) 0.8506(5)
H1 H 1.1946 0.4094 0.9080
O2 O 0.3331(10) 0.4090(4) 0.1544(8)
C1 C 0.9268(9) 0.3875(3) 0.6291(7)
H2 H 0.8081 0.3737 0.5857
C2 C 0.8271(11) 0.4080(4) 0.8457(9)
H3 H 0.8049 0.4480 0.8196
C3 C 0.9700(8) 0.3881(3) 0.7944(7)
C4 C 0.6464(11) 0.3071(4) 0.3167(8)
C5 C 0.8151(11) 0.3103(4) 0.3658(8)
H4 H 0.8653 0.3257 0.3047
C6 C 0.9342(12) 0.4455(4) 0.5625(9)
H5 H 1.0318 0.4661 0.6271
H6 H 0.9572 0.4392 0.4756
C7 C 0.5416(14) 0.2823(5) 0.3915(12)
H7 H 0.4846 0.2490 0.3418
H8 H 0.4569 0.3093 0.3956
H9 H 0.6142 0.2722 0.4864
C8 C 0.4809(12) 0.3936(4) 0.2081(8)
C9 C 1.1448(10) 0.3152(4) 0.7528(10)
H10 H 1.1610 0.2747 0.7467
H11 H 1.2569 0.3330 0.7961
C10 C 1.0312(10) 0.3275(4) 0.8382(8)
H12 H 1.0959 0.3251 0.9395
H13 H 0.9346 0.3015 0.8140
C11 C 0.9373(11) 0.2918(4) 0.5100(10)
H14 H 1.0142 0.2632 0.4968
H15 H 0.8709 0.2744 0.5615
C12 C 1.0479(9) 0.3405(4) 0.6025(9)
C13 C 0.8785(16) 0.4039(6) 1.0073(11)
H16 H 0.8745 0.3650 1.0340
H17 H 0.8000 0.4258 1.0371
H18 H 0.9935 0.4182 1.0521
C14 C 0.7782(15) 0.4828(4) 0.5277(10)
H19 H 0.8058 0.5189 0.4950
H20 H 0.7569 0.4898 0.6150
C15 C 0.6102(12) 0.4611(4) 0.4163(8)
C16 C 0.6545(12) 0.3756(6) 0.7776(12)
H21 H 0.6130 0.3808 0.6763
H22 H 0.5710 0.3899 0.8151
H23 H 0.6729 0.3360 0.7992
C17 C 0.6222(13) 0.4280(4) 0.3100(9)
H24 H 0.7291 0.4266 0.2994
C18 C 1.1805(13) 0.3611(7) 0.5413(14)
H25 H 1.1250 0.3683 0.4414
H26 H 1.2677 0.3327 0.5552
H27 H 1.2326 0.3954 0.5886
C19 C 0.5447(14) 0.3376(5) 0.1781(9)
H28 H 0.6180 0.3432 0.1225
H29 H 0.4475 0.3143 0.1228
C20 C 0.4505(19) 0.4778(6) 0.4325(14)
H30 H 0.4697 0.4834 0.5315
H31 H 0.3658 0.4486 0.3952
H32 H 0.4100 0.5124 0.3815
O3 O 0.3312(9) 0.6587(2) -0.2347(6)
H33 H 0.3488 0.6428 -0.3009
C21 C 0.1951(8) 0.6524(3) -0.0619(6)
H34 H 0.2034 0.6290 0.0207
C22 C -0.0039(9) 0.6583(3) -0.1540(7)
C23 C 0.2747(10) 0.6176(3) -0.1544(6)
C24 C 0.4368(9) 0.6791(3) 0.2578(7)
O4 O 0.3280(10) 0.6294(4) 0.4911(6)
C25 C 0.2884(10) 0.6802(3) 0.2756(7)
H35 H 0.2062 0.7040 0.2139
C26 C 0.2887(9) 0.7084(3) -0.0039(7)
H36 H 0.3154 0.7270 -0.0797
H37 H 0.2101 0.7329 0.0215
C27 C -0.1161(9) 0.6262(4) -0.0855(8)
H38 H -0.2365 0.6324 -0.1423
H39 H -0.0934 0.5859 -0.0874
C28 C 0.4803(14) 0.5425(5) -0.1754(12)
H40 H 0.3920 0.5147 -0.2160
H41 H 0.5874 0.5238 -0.1251
H42 H 0.4930 0.5655 -0.2498
C29 C 0.4301(10) 0.5798(4) -0.0727(8)
H43 H 0.5278 0.6050 -0.0261
C30 C 0.2317(12) 0.6496(4) 0.3787(8)
C31 C -0.0256(11) 0.6117(4) 0.1827(9)
C32 C -0.0224(12) 0.6280(4) -0.2939(7)
H44 H -0.1340 0.6096 -0.3334
H45 H -0.0100 0.6545 -0.3632
C33 C 0.4028(14) 0.5436(4) 0.0433(10)
H46 H 0.3925 0.5677 0.1168
H47 H 0.4994 0.5186 0.0830
H48 H 0.2993 0.5216 0.0032
C34 C 0.0377(13) 0.6395(5) 0.3294(9)
H49 H -0.0213 0.6753 0.3251
H50 H 0.0116 0.6152 0.3970
C35 C -0.0856(9) 0.6436(4) 0.0665(8)
H51 H -0.1120 0.6809 0.0802
C36 C 0.1209(11) 0.5848(4) -0.2539(7)
H52 H 0.1429 0.5715 -0.3372
H53 H 0.0934 0.5526 -0.2058
C37 C -0.0703(12) 0.7189(4) -0.1866(10)
H54 H -0.0525 0.7387 -0.0991
H55 H -0.1912 0.7183 -0.2425
H56 H -0.0090 0.7379 -0.2387
C38 C 0.4549(9) 0.7031(4) 0.1248(7)
H57 H 0.5344 0.6794 0.0986
H58 H 0.5066 0.7404 0.1469
C39 C 0.5964(13) 0.6531(7) 0.3619(11)
H59 H 0.5695 0.6358 0.4380
H60 H 0.6822 0.6819 0.3997
H61 H 0.6399 0.6248 0.3147
C40 C 0.0103(19) 0.5495(6) 0.1832(13)
H62 H 0.1323 0.5435 0.2100
H63 H -0.0478 0.5343 0.0898
H64 H -0.0305 0.5308 0.2500
loop_
_geom_bond_atom_site_label_1
_geom_bond_atom_site_label_2
_geom_bond_site_symmetry_1
_geom_bond_site_symmetry_2
O1 H1 1_555 1_555
O2 C8 1_555 1_555
C1 H2 1_555 1_555
C2 H3 1_555 1_555
C3 O1 1_555 1_555
C4 C5 1_555 1_555
C5 H4 1_555 1_555
C6 C1 1_555 1_555
H5 C6 1_555 1_555
H6 C6 1_555 1_555
C7 C4 1_555 1_555
H7 C7 1_555 1_555
H8 C7 1_555 1_555
H9 C7 1_555 1_555
C8 C17 1_555 1_555
C9 H10 1_555 1_555
H11 C9 1_555 1_555
C10 C3 1_555 1_555
H12 C10 1_555 1_555
H13 C10 1_555 1_555
C11 C5 1_555 1_555
H14 C11 1_555 1_555
H15 C11 1_555 1_555
C12 C1 1_555 1_555
C13 C2 1_555 1_555
H16 C13 1_555 1_555
H17 C13 1_555 1_555
H18 C13 1_555 1_555
C14 C6 1_555 1_555
H19 C14 1_555 1_555
H20 C14 1_555 1_555
C15 C14 1_555 1_555
C16 C2 1_555 1_555
H21 C16 1_555 1_555
H22 C16 1_555 1_555
H23 C16 1_555 1_555
C17 C15 1_555 1_555
H24 C17 1_555 1_555
C18 C12 1_555 1_555
H25 C18 1_555 1_555
H26 C18 1_555 1_555
H27 C18 1_555 1_555
C19 C4 1_555 1_555
H28 C19 1_555 1_555
H29 C19 1_555 1_555
C20 C15 1_555 1_555
H30 C20 1_555 1_555
H31 C20 1_555 1_555
H32 C20 1_555 1_555
O3 H33 1_555 1_555
C21 H34 1_555 1_555
C22 C21 1_555 1_555
C23 O3 1_555 1_555
C24 C25 1_555 1_555
O4 C30 1_555 1_555
C25 H35 1_555 1_555
C26 C21 1_555 1_555
H36 C26 1_555 1_555
H37 C26 1_555 1_555
C27 C22 1_555 1_555
H38 C27 1_555 1_555
H39 C27 1_555 1_555
C28 H40 1_555 1_555
H41 C28 1_555 1_555
H42 C28 1_555 1_555
C29 C23 1_555 1_555
H43 C29 1_555 1_555
C30 C25 1_555 1_555
C31 C34 1_555 1_555
C32 C22 1_555 1_555
H44 C32 1_555 1_555
H45 C32 1_555 1_555
C33 C29 1_555 1_555
H46 C33 1_555 1_555
H47 C33 1_555 1_555
H48 C33 1_555 1_555
C34 C30 1_555 1_555
H49 C34 1_555 1_555
H50 C34 1_555 1_555
C35 C27 1_555 1_555
H51 C35 1_555 1_555
C36 C23 1_555 1_555
H52 C36 1_555 1_555
H53 C36 1_555 1_555
C37 C22 1_555 1_555
H54 C37 1_555 1_555
H55 C37 1_555 1_555
H56 C37 1_555 1_555
C38 C24 1_555 1_555
H57 C38 1_555 1_555
H58 C38 1_555 1_555
C39 C24 1_555 1_555
H59 C39 1_555 1_555
H60 C39 1_555 1_555
H61 C39 1_555 1_555
C40 C31 1_555 1_555
H62 C40 1_555 1_555
H63 C40 1_555 1_555
H64 C40 1_555 1_555
C1 C3 1_555 1_555
C2 C3 1_555 1_555
C8 C19 1_555 1_555
C9 C10 1_555 1_555
C9 C12 1_555 1_555
C11 C12 1_555 1_555
C21 C23 1_555 1_555
C26 C38 1_555 1_555
C28 C29 1_555 1_555
C31 C35 1_555 1_555
C32 C36 1_555 1_555

#END
