
#######################################################################
#
#                 Cambridge Crystallographic Data Centre
#                                CCDC 
#
#######################################################################
#
# If this CIF has been generated from an entry in the Cambridge 
# Structural Database, then it will include bibliographic, chemical, 
# crystal, experimental, refinement or atomic coordinate data resulting 
# from the CCDC's data processing and validation procedures.
#
#######################################################################

data_ZIBSAH
_chemical_name_common            
(3S,3aS,6Z,10E,12aS)-3-hydroxy-3-isopropyl-6,10,12a-trimethyl-2,3,3a,4,5,9,12,12a-octahydrocyclopenta[11]annulen-8(1H)-one
_chemical_formula_moiety         'C20 H32 O2'
_chemical_name_systematic        
3-hydroxy-6,10,12a-trimethyl-3-(propan-2-yl)-2,3,3a,4,5,9,12,12a-octahydrocyclopenta[11]annulen-8(1H)-one
_symmetry_cell_setting           orthorhombic
_symmetry_space_group_name_H-M   'P 21 21 21'
_symmetry_Int_Tables_number      19
_space_group_name_Hall           'P 2ac 2ab'
loop_
_symmetry_equiv_pos_site_id
_symmetry_equiv_pos_as_xyz
1 x,y,z
2 1/2-x,-y,1/2+z
3 -x,1/2+y,1/2-z
4 1/2+x,1/2-y,-z
_cell_length_a                   8.4595(17)
_cell_length_b                   14.229(3)
_cell_length_c                   15.750(3)
_cell_angle_alpha                90
_cell_angle_beta                 90
_cell_angle_gamma                90
_cell_volume                     1895.83
_exptl_crystal_colour            colorless
_exptl_crystal_description       acicular
_cell_formula_units_Z            4
loop_
_atom_site_label
_atom_site_type_symbol
_atom_site_fract_x
_atom_site_fract_y
_atom_site_fract_z
O1 O 0.4704(8) 0.5394(4) 0.4086(3)
H1 H 0.450(13) 0.556(3) 0.451(7)
C1 C 0.4404(7) 0.4400(5) 0.4020(4)
C2 C 0.3528(7) 0.4233(4) 0.3174(4)
H2 H 0.3749 0.3582 0.3006
C3 C 0.1595(8) 0.2232(5) 0.2079(4)
C4 C 0.4191(9) 0.4860(4) 0.2472(4)
H3 H 0.5308 0.4954 0.2581
H4 H 0.3682 0.5470 0.2514
C5 C 0.4937(12) 0.3633(7) 0.1320(4)
C6 C 0.5981(8) 0.3912(6) 0.4086(4)
H5 H 0.6652 0.4168 0.3635
C7 C 0.1691(8) 0.4277(6) 0.3415(6)
C8 C 0.1630(10) 0.2040(5) 0.1120(4)
H6 H 0.2144 0.1444 0.1005
H7 H 0.0564 0.2018 0.0895
C9 C 0.0906(8) 0.3305(6) 0.3274(6)
H8 H 0.1458 0.2844 0.3617
H9 H -0.0176 0.3335 0.3476
C10 C 0.0891(9) 0.2969(6) 0.2373(6)
H10 H 0.0316 0.3326 0.1987
C11 C 0.4008(12) 0.4508(6) 0.1543(4)
H11 H 0.2898 0.4386 0.1437
H12 H 0.4333 0.5009 0.1163
C12 C 0.2591(9) 0.1579(5) 0.2598(5)
H13 H 0.2154 0.0957 0.2573
H14 H 0.2608 0.1789 0.3177
H15 H 0.3648 0.1571 0.2377
C13 C 0.3252(10) 0.4104(7) 0.4688(5)
H16 H 0.3510 0.4384 0.5232
H17 H 0.3234 0.3426 0.4748
C14 C 0.1682(10) 0.4469(7) 0.4357(6)
H18 H 0.0810 0.4145 0.4629
H19 H 0.1581 0.5137 0.4466
C15 C 0.5940(10) 0.2861(7) 0.3966(7)
H20 H 0.4985 0.2559 0.3860
H21 H 0.6870 0.2514 0.3998
C16 C 0.6796(14) 0.4155(10) 0.4946(6)
H22 H 0.7834 0.3884 0.4959
H23 H 0.6179 0.3907 0.5406
H24 H 0.6875 0.4825 0.5004
C17 C 0.0752(12) 0.5030(7) 0.2954(9)
H25 H 0.1191 0.5637 0.3080
H26 H -0.0330 0.5010 0.3138
H27 H 0.0801 0.4921 0.2354
C18 C 0.4228(12) 0.2905(6) 0.0952(5)
H28 H 0.4859 0.2388 0.0828
O2 O 0.1849(13) 0.3380(5) 0.0283(5)
C19 C 0.2540(15) 0.2833(6) 0.0721(5)
C20 C 0.6620(15) 0.3643(14) 0.1547(9)
H29 H 0.7114 0.3078 0.1346
H30 H 0.6727 0.3681 0.2153
H31 H 0.7120 0.4178 0.1290
loop_
_geom_bond_atom_site_label_1
_geom_bond_atom_site_label_2
_geom_bond_site_symmetry_1
_geom_bond_site_symmetry_2
O1 H1 1_555 1_555
C1 O1 1_555 1_555
C2 C1 1_555 1_555
H2 C2 1_555 1_555
C3 C8 1_555 1_555
C4 C2 1_555 1_555
H3 C4 1_555 1_555
H4 C4 1_555 1_555
C5 C11 1_555 1_555
C6 C1 1_555 1_555
H5 C6 1_555 1_555
C7 C2 1_555 1_555
C8 H6 1_555 1_555
H7 C8 1_555 1_555
C9 C7 1_555 1_555
H8 C9 1_555 1_555
H9 C9 1_555 1_555
C10 C3 1_555 1_555
H10 C10 1_555 1_555
C11 C4 1_555 1_555
H11 C11 1_555 1_555
H12 C11 1_555 1_555
C12 C3 1_555 1_555
H13 C12 1_555 1_555
H14 C12 1_555 1_555
H15 C12 1_555 1_555
C13 C1 1_555 1_555
H16 C13 1_555 1_555
H17 C13 1_555 1_555
C14 C7 1_555 1_555
H18 C14 1_555 1_555
H19 C14 1_555 1_555
C15 C6 1_555 1_555
H20 C15 1_555 1_555
H21 C15 1_555 1_555
C16 C6 1_555 1_555
H22 C16 1_555 1_555
H23 C16 1_555 1_555
H24 C16 1_555 1_555
C17 C7 1_555 1_555
H25 C17 1_555 1_555
H26 C17 1_555 1_555
H27 C17 1_555 1_555
C18 C5 1_555 1_555
H28 C18 1_555 1_555
O2 C19 1_555 1_555
C19 C8 1_555 1_555
C20 C5 1_555 1_555
H29 C20 1_555 1_555
H30 C20 1_555 1_555
H31 C20 1_555 1_555
C9 C10 1_555 1_555
C13 C14 1_555 1_555
C18 C19 1_555 1_555

#END
