
#######################################################################
#
#                 Cambridge Crystallographic Data Centre
#                                CCDC 
#
#######################################################################
#
# If this CIF has been generated from an entry in the Cambridge 
# Structural Database, then it will include bibliographic, chemical, 
# crystal, experimental, refinement or atomic coordinate data resulting 
# from the CCDC's data processing and validation procedures.
#
#######################################################################

data_ZIBSUA
_chemical_formula_moiety         'C30 H24 N2 O2'
_chemical_name_systematic        
1-Benzyl-1',3'-diphenyl-5'H-spiro[indole-3,2'-pyrrolidine]-2,5'(1H)-dione
_symmetry_cell_setting           monoclinic
_symmetry_space_group_name_H-M   'C 2/c'
_symmetry_Int_Tables_number      15
_space_group_name_Hall           '-C 2yn'
loop_
_symmetry_equiv_pos_site_id
_symmetry_equiv_pos_as_xyz
1 x,y,z
2 -x,y,1/2-z
3 1/2+x,1/2+y,z
4 1/2-x,1/2+y,1/2-z
5 -x,-y,-z
6 x,-y,1/2+z
7 1/2-x,1/2-y,-z
8 1/2+x,1/2-y,1/2+z
_cell_length_a                   25.554(2)
_cell_length_b                   8.2620(7)
_cell_length_c                   23.3499(19)
_cell_angle_alpha                90
_cell_angle_beta                 113.371(3)
_cell_angle_gamma                90
_cell_volume                     4525.34
_exptl_crystal_colour            colorless
_exptl_crystal_description       block
_cell_formula_units_Z            8
loop_
_atom_site_label
_atom_site_type_symbol
_atom_site_fract_x
_atom_site_fract_y
_atom_site_fract_z
O1 O 0.22885(6) 0.88200(17) 0.22205(6)
O2 O 0.35566(6) 0.65551(19) 0.16716(8)
N1 N 0.17406(6) 1.06641(19) 0.14840(7)
N2 N 0.29188(6) 0.86733(19) 0.13786(7)
C1 C 0.17040(7) 1.1188(2) 0.08945(9)
C2 C 0.13895(8) 1.2459(2) 0.05405(10)
H1 H 0.1161 1.3096 0.0676
C3 C 0.14283(9) 1.2745(3) -0.00240(11)
H2 H 0.1223 1.3598 -0.0271
C4 C 0.17628(10) 1.1800(3) -0.02310(11)
H3 H 0.1779 1.2015 -0.0615
C5 C 0.20761(9) 1.0526(3) 0.01333(10)
H4 H 0.2303 0.9886 -0.0003
C6 C 0.20456(7) 1.0228(2) 0.06958(9)
C7 C 0.23038(8) 0.8914(2) 0.11701(9)
C8 C 0.21222(8) 0.9421(2) 0.17033(9)
C9 C 0.33240(8) 0.9971(2) 0.15760(9)
C10 C 0.32269(9) 1.1333(3) 0.18637(10)
H5 H 0.2889 1.1429 0.1923
C11 C 0.36286(10) 1.2546(3) 0.20619(11)
H6 H 0.3557 1.3463 0.2251
C12 C 0.41299(10) 1.2425(3) 0.19853(12)
H7 H 0.4402 1.3241 0.2127
C13 C 0.42265(10) 1.1082(3) 0.16958(12)
H8 H 0.4567 1.0992 0.1642
C14 C 0.38249(9) 0.9859(3) 0.14826(10)
H9 H 0.3891 0.8967 0.1278
C15 C 0.14689(8) 1.1474(3) 0.18466(10)
H10 H 0.1547 1.2624 0.1853
H11 H 0.1641 1.1084 0.2273
C16 C 0.08306(9) 1.1233(3) 0.16074(10)
C17 C 0.05309(10) 1.0246(3) 0.11198(14)
H12 H 0.0722 0.9702 0.0912
C18 C -0.00531(11) 1.0032(4) 0.09265(17)
H13 H -0.0249 0.9362 0.0589
C19 C -0.03389(12) 1.0796(4) 0.12283(16)
H14 H -0.0729 1.0640 0.1105
C20 C -0.00497(12) 1.1787(5) 0.17113(13)
H15 H -0.0243 1.2311 0.1921
C21 C 0.05321(11) 1.2034(4) 0.18994(11)
H16 H 0.0722 1.2746 0.2225
C22 C 0.30720(9) 0.7063(3) 0.14748(9)
C23 C 0.25421(8) 0.6070(2) 0.13054(10)
H17 H 0.2489 0.5729 0.1676
H18 H 0.2558 0.5119 0.1069
C24 C 0.20662(8) 0.7197(2) 0.09114(10)
H19 H 0.2052 0.7143 0.0486
C25 C 0.14714(9) 0.6840(2) 0.08635(11)
C26 C 0.13625(10) 0.6287(3) 0.13653(12)
H20 H 0.1664 0.6126 0.1749
C27 C 0.08122(13) 0.5971(3) 0.13042(16)
H21 H 0.0744 0.5617 0.1647
C28 C 0.03671(13) 0.6178(4) 0.0740(2)
H22 H -0.0002 0.5944 0.0697
C29 C 0.04630(11) 0.6726(3) 0.02372(16)
H23 H 0.0159 0.6876 -0.0145
C30 C 0.10140(10) 0.7059(3) 0.02991(12)
H24 H 0.1077 0.7434 -0.0043
loop_
_geom_bond_atom_site_label_1
_geom_bond_atom_site_label_2
_geom_bond_site_symmetry_1
_geom_bond_site_symmetry_2
O1 C8 1_555 1_555
O2 C22 1_555 1_555
N1 C1 1_555 1_555
N2 C7 1_555 1_555
C1 C2 1_555 1_555
C2 H1 1_555 1_555
C3 C2 1_555 1_555
H2 C3 1_555 1_555
C4 C3 1_555 1_555
H3 C4 1_555 1_555
C5 C4 1_555 1_555
H4 C5 1_555 1_555
C6 C1 1_555 1_555
C7 C6 1_555 1_555
C8 N1 1_555 1_555
C9 N2 1_555 1_555
C10 C9 1_555 1_555
H5 C10 1_555 1_555
C11 C10 1_555 1_555
H6 C11 1_555 1_555
C12 C11 1_555 1_555
H7 C12 1_555 1_555
C13 C12 1_555 1_555
H8 C13 1_555 1_555
C14 C9 1_555 1_555
H9 C14 1_555 1_555
C15 N1 1_555 1_555
H10 C15 1_555 1_555
H11 C15 1_555 1_555
C16 C15 1_555 1_555
C17 C16 1_555 1_555
H12 C17 1_555 1_555
C18 C17 1_555 1_555
H13 C18 1_555 1_555
C19 C18 1_555 1_555
H14 C19 1_555 1_555
C20 C19 1_555 1_555
H15 C20 1_555 1_555
C21 C16 1_555 1_555
H16 C21 1_555 1_555
C22 N2 1_555 1_555
C23 C22 1_555 1_555
H17 C23 1_555 1_555
H18 C23 1_555 1_555
C24 C7 1_555 1_555
H19 C24 1_555 1_555
C25 C24 1_555 1_555
C26 C25 1_555 1_555
H20 C26 1_555 1_555
C27 C26 1_555 1_555
H21 C27 1_555 1_555
C28 C27 1_555 1_555
H22 C28 1_555 1_555
C29 C28 1_555 1_555
H23 C29 1_555 1_555
C30 C25 1_555 1_555
H24 C30 1_555 1_555
C5 C6 1_555 1_555
C7 C8 1_555 1_555
C13 C14 1_555 1_555
C20 C21 1_555 1_555
C23 C24 1_555 1_555
C29 C30 1_555 1_555

#END
