
#######################################################################
#
#                 Cambridge Crystallographic Data Centre
#                                CCDC 
#
#######################################################################
#
# If this CIF has been generated from an entry in the Cambridge 
# Structural Database, then it will include bibliographic, chemical, 
# crystal, experimental, refinement or atomic coordinate data resulting 
# from the CCDC's data processing and validation procedures.
#
#######################################################################

data_ZIBVOX
_chemical_name_common            (+)-Q-1047H-A-A
_chemical_formula_moiety         'C19 H23 N1 O5'
_chemical_name_systematic        
11-Hydroxy-4,6,8,10-tetramethyl-2-azabicyclo[10.3.1]hexadeca-1(15),8,12-triene-3,5,14,16-tetrone
_symmetry_cell_setting           monoclinic
_symmetry_space_group_name_H-M   'P 21'
_symmetry_Int_Tables_number      4
_space_group_name_Hall           'P 2yb'
loop_
_symmetry_equiv_pos_site_id
_symmetry_equiv_pos_as_xyz
1 x,y,z
2 -x,1/2+y,-z
_cell_length_a                   7.9781(16)
_cell_length_b                   10.179(2)
_cell_length_c                   10.988(2)
_cell_angle_alpha                90
_cell_angle_beta                 97.52(3)
_cell_angle_gamma                90
_cell_volume                     884.651
_exptl_crystal_colour            yellow
_exptl_crystal_description       platelet
_cell_formula_units_Z            2
loop_
_atom_site_label
_atom_site_type_symbol
_atom_site_fract_x
_atom_site_fract_y
_atom_site_fract_z
O1 O 0.1556(3) 0.68605(19) 0.7228(2)
O2 O -0.0920(3) 1.0897(2) 0.9308(2)
O3 O 0.3597(3) 0.7690(2) 1.08339(19)
H1 H 0.2872 0.7204 1.1095
O4 O 0.2863(3) 0.7386(2) 0.4092(2)
O5 O 0.0425(3) 1.0904(2) 0.51651(19)
N1 N 0.0206(3) 0.8737(2) 0.5644(2)
H2 H -0.0019 0.7951 0.5332
C1 C 0.1273(3) 0.7914(3) 0.7655(3)
C2 C 0.0241(3) 0.8927(3) 0.6900(3)
C3 C -0.0483(3) 0.9919(3) 0.7435(3)
H3 H -0.1201 1.0520 0.6953
C4 C -0.0158(4) 1.0069(3) 0.8770(3)
C5 C 0.1179(4) 0.9279(3) 0.9465(3)
H4 H 0.1514 0.9467 1.0308
C6 C 0.1935(4) 0.8303(3) 0.8933(3)
C7 C 0.3471(3) 0.7578(3) 0.9544(3)
H5 H 0.3396 0.6630 0.9304
C8 C 0.5102(4) 0.8194(3) 0.9147(3)
H6 H 0.5136 0.9141 0.9390
C9 C 0.6647(4) 0.7520(4) 0.9840(4)
H7 H 0.6622 0.6582 0.9636
H8 H 0.6636 0.7629 1.0725
H9 H 0.7676 0.7916 0.9603
C10 C 0.5173(3) 0.8123(3) 0.7787(3)
H10 H 0.5396 0.7276 0.7482
C11 C 0.4970(3) 0.9075(3) 0.6947(3)
C12 C 0.4452(4) 1.0451(3) 0.7214(3)
H11 H 0.5227 1.1075 0.6899
H12 H 0.4492 1.0568 0.8102
H13 H 0.3299 1.0611 0.6813
C13 C 0.5473(4) 0.8834(3) 0.5678(3)
H14 H 0.5546 0.7872 0.5563
H15 H 0.6625 0.9193 0.5672
C14 C 0.4346(3) 0.9396(3) 0.4559(3)
H16 H 0.3968 1.0295 0.4767
C15 C 0.5363(4) 0.9502(3) 0.3458(3)
H17 H 0.5819 0.8637 0.3287
H18 H 0.6296 1.0125 0.3655
H19 H 0.4619 0.9811 0.2734
C16 C 0.2805(4) 0.8575(3) 0.4127(3)
C17 C 0.1158(3) 0.9315(3) 0.3693(3)
H20 H 0.1445 1.0116 0.3235
C18 C -0.0128(4) 0.8510(3) 0.2852(3)
H21 H 0.0375 0.8231 0.2127
H22 H -0.1130 0.9048 0.2595
H23 H -0.0454 0.7734 0.3295
C19 C 0.0514(3) 0.9756(3) 0.4873(3)
loop_
_geom_bond_atom_site_label_1
_geom_bond_atom_site_label_2
_geom_bond_site_symmetry_1
_geom_bond_site_symmetry_2
O1 C1 1_555 1_555
O2 C4 1_555 1_555
O3 H1 1_555 1_555
O4 C16 1_555 1_555
O5 C19 1_555 1_555
N1 H2 1_555 1_555
C1 C2 1_555 1_555
C2 N1 1_555 1_555
C3 C2 1_555 1_555
H3 C3 1_555 1_555
C4 C3 1_555 1_555
C5 C4 1_555 1_555
H4 C5 1_555 1_555
C6 C1 1_555 1_555
C7 O3 1_555 1_555
H5 C7 1_555 1_555
C8 C7 1_555 1_555
H6 C8 1_555 1_555
C9 C8 1_555 1_555
H7 C9 1_555 1_555
H8 C9 1_555 1_555
H9 C9 1_555 1_555
C10 C8 1_555 1_555
H10 C10 1_555 1_555
C11 C10 1_555 1_555
C12 C11 1_555 1_555
H11 C12 1_555 1_555
H12 C12 1_555 1_555
H13 C12 1_555 1_555
C13 C11 1_555 1_555
H14 C13 1_555 1_555
H15 C13 1_555 1_555
C14 C13 1_555 1_555
H16 C14 1_555 1_555
C15 C14 1_555 1_555
H17 C15 1_555 1_555
H18 C15 1_555 1_555
H19 C15 1_555 1_555
C16 C14 1_555 1_555
C17 C16 1_555 1_555
H20 C17 1_555 1_555
C18 C17 1_555 1_555
H21 C18 1_555 1_555
H22 C18 1_555 1_555
H23 C18 1_555 1_555
C19 N1 1_555 1_555
C5 C6 1_555 1_555
C6 C7 1_555 1_555
C17 C19 1_555 1_555

#END
