
#######################################################################
#
#                 Cambridge Crystallographic Data Centre
#                                CCDC 
#
#######################################################################
#
# If this CIF has been generated from an entry in the Cambridge 
# Structural Database, then it will include bibliographic, chemical, 
# crystal, experimental, refinement or atomic coordinate data resulting 
# from the CCDC's data processing and validation procedures.
#
#######################################################################

data_ZIBVIR
_chemical_formula_moiety         'C19 H17 N5 O2 S1'
_chemical_name_systematic        
3-(4-Nitrophenyl)-1,1-bis(pyridin-2-ylmethyl)thiourea
_symmetry_cell_setting           monoclinic
_symmetry_space_group_name_H-M   'P 21/n'
_symmetry_Int_Tables_number      14
_space_group_name_Hall           '-P 2yn'
loop_
_symmetry_equiv_pos_site_id
_symmetry_equiv_pos_as_xyz
1 x,y,z
2 1/2-x,1/2+y,1/2-z
3 -x,-y,-z
4 1/2+x,1/2-y,1/2+z
_cell_length_a                   7.9640(16)
_cell_length_b                   12.596(3)
_cell_length_c                   18.041(4)
_cell_angle_alpha                90
_cell_angle_beta                 101.33(3)
_cell_angle_gamma                90
_cell_volume                     1774.51
_exptl_crystal_colour            colorless
_exptl_crystal_description       block
_cell_formula_units_Z            4
loop_
_atom_site_label
_atom_site_type_symbol
_atom_site_fract_x
_atom_site_fract_y
_atom_site_fract_z
S1 S 0.41270(11) 0.09270(6) 0.07089(4)
N1 N 0.7210(4) -0.1873(2) 0.26010(14)
N2 N 0.3617(3) -0.06379(18) 0.16357(13)
N3 N 0.0078(3) -0.16316(19) 0.13540(14)
N4 N 0.1300(3) 0.04418(19) 0.12607(13)
N5 N -0.2794(4) 0.3801(2) -0.01519(15)
O1 O -0.4258(3) 0.35824(18) -0.04714(14)
O2 O -0.2193(3) 0.47046(17) -0.01365(13)
C1 C 0.8540(5) -0.1757(3) 0.31877(19)
H1 H 0.8950 -0.2369 0.3474
C2 C 0.9336(5) -0.0801(3) 0.33943(19)
H2 H 1.0264 -0.0757 0.3814
C3 C 0.8755(5) 0.0094(3) 0.2977(2)
H3 H 0.9275 0.0765 0.3106
C4 C 0.7409(4) -0.0004(3) 0.23692(18)
H4 H 0.6988 0.0597 0.2072
C5 C 0.6682(4) -0.0996(3) 0.22003(17)
C6 C 0.5219(4) -0.1154(2) 0.15359(18)
H5 H 0.5555 -0.0865 0.1076
H6 H 0.5010 -0.1924 0.1457
C7 C 0.2726(4) -0.1168(2) 0.21788(16)
H7 H 0.2112 -0.0626 0.2420
H8 H 0.3590 -0.1502 0.2581
C8 C 0.1466(4) -0.2004(2) 0.18244(16)
C9 C 0.1709(5) -0.3079(2) 0.19798(17)
H9 H 0.2706 -0.3327 0.2313
C10 C 0.0448(5) -0.3782(3) 0.16325(19)
H10 H 0.0570 -0.4522 0.1732
C11 C -0.0964(5) -0.3406(3) 0.11493(18)
H11 H -0.1834 -0.3878 0.0909
C12 C -0.1100(4) -0.2331(2) 0.10181(16)
H12 H -0.2073 -0.2071 0.0674
C13 C 0.2991(4) 0.0229(2) 0.12275(16)
C14 C 0.0352(4) 0.1326(2) 0.09085(16)
C15 C 0.0967(4) 0.2367(2) 0.09551(16)
H13 H 0.2093 0.2513 0.1224
C16 C -0.0053(4) 0.3181(2) 0.06127(16)
H14 H 0.0361 0.3890 0.0641
C17 C -0.1697(4) 0.2948(2) 0.02259(16)
C18 C -0.2338(4) 0.1930(2) 0.01853(16)
H15 H -0.3472 0.1789 -0.0076
C19 C -0.1311(4) 0.1118(2) 0.05285(16)
H16 H -0.1740 0.0412 0.0505
loop_
_geom_bond_atom_site_label_1
_geom_bond_atom_site_label_2
_geom_bond_site_symmetry_1
_geom_bond_site_symmetry_2
S1 C13 1_555 1_555
N1 C1 1_555 1_555
N2 C6 1_555 1_555
N3 C8 1_555 1_555
N4 C13 1_555 1_555
N5 O1 1_555 1_555
O2 N5 1_555 1_555
C1 H1 1_555 1_555
C2 C1 1_555 1_555
H2 C2 1_555 1_555
C3 C2 1_555 1_555
H3 C3 1_555 1_555
C4 C3 1_555 1_555
H4 C4 1_555 1_555
C5 N1 1_555 1_555
C6 C5 1_555 1_555
H5 C6 1_555 1_555
H6 C6 1_555 1_555
C7 N2 1_555 1_555
H7 C7 1_555 1_555
H8 C7 1_555 1_555
C8 C7 1_555 1_555
C9 C8 1_555 1_555
H9 C9 1_555 1_555
C10 C9 1_555 1_555
H10 C10 1_555 1_555
C11 C10 1_555 1_555
H11 C11 1_555 1_555
C12 N3 1_555 1_555
H12 C12 1_555 1_555
C13 N2 1_555 1_555
C14 N4 1_555 1_555
C15 C14 1_555 1_555
H13 C15 1_555 1_555
C16 C15 1_555 1_555
H14 C16 1_555 1_555
C17 N5 1_555 1_555
C18 C17 1_555 1_555
H15 C18 1_555 1_555
C19 C14 1_555 1_555
H16 C19 1_555 1_555
C4 C5 1_555 1_555
C11 C12 1_555 1_555
C16 C17 1_555 1_555
C18 C19 1_555 1_555

#END
