
#######################################################################
#
#                 Cambridge Crystallographic Data Centre
#                                CCDC 
#
#######################################################################
#
# If this CIF has been generated from an entry in the Cambridge 
# Structural Database, then it will include bibliographic, chemical, 
# crystal, experimental, refinement or atomic coordinate data resulting 
# from the CCDC's data processing and validation procedures.
#
#######################################################################

data_ZIBVAJ
_chemical_formula_moiety         'C15 H22 O2'
_chemical_name_systematic        
5-Hydroxy-1,4,4,5b-tetramethyldecahydro-2H-cyclopenta[a]cyclopropa[cd]pentalen-2-one
_symmetry_cell_setting           monoclinic
_symmetry_space_group_name_H-M   'P 21'
_symmetry_Int_Tables_number      4
_space_group_name_Hall           'P 2yb'
loop_
_symmetry_equiv_pos_site_id
_symmetry_equiv_pos_as_xyz
1 x,y,z
2 -x,1/2+y,-z
_cell_length_a                   12.7618(8)
_cell_length_b                   8.8819(4)
_cell_length_c                   13.2175(8)
_cell_angle_alpha                90
_cell_angle_beta                 118.610(2)
_cell_angle_gamma                90
_cell_volume                     1315.26
_exptl_crystal_colour            colorless
_exptl_crystal_description       prism
_cell_formula_units_Z            4
loop_
_atom_site_label
_atom_site_type_symbol
_atom_site_fract_x
_atom_site_fract_y
_atom_site_fract_z
C1 C 0.3578(3) 0.9893(4) 0.9334(3)
C2 C 0.4322(3) 0.9675(4) 0.8743(3)
C3 C 0.3443(3) 0.9071(4) 0.7518(3)
C4 C 0.3263(3) 0.7341(4) 0.7539(2)
C5 C 0.2619(3) 0.6563(4) 0.6365(3)
C6 C 0.2044(3) 0.5157(4) 0.6566(3)
C7 C 0.1591(4) 0.5759(5) 0.7366(4)
C8 C 0.2394(3) 0.7109(4) 0.8033(3)
C9 C 0.1716(3) 0.8597(4) 0.7769(3)
C10 C 0.2227(3) 0.9716(4) 0.7289(3)
C11 C 0.2314(3) 1.0016(4) 0.8457(3)
C12 C 0.5485(3) 0.8877(5) 0.9436(3)
C13 C 0.3831(3) 0.9587(4) 0.6651(3)
C14 C 0.2992(4) 0.3930(4) 0.7165(3)
C15 C 0.1051(4) 0.4543(5) 0.5441(4)
O1 O 0.3319(2) 0.6276(3) 0.58170(18)
O2 O 0.3979(3) 1.0021(3) 1.0378(2)
H1 H 0.3992 0.6023 0.6333
H2 H 0.4530 1.0661 0.8623
H3 H 0.4004 0.6860 0.8014
H4 H 0.1987 0.7209 0.5870
H5 H 0.1639 0.4997 0.7891
H6 H 0.0787 0.6082 0.6928
H7 H 0.2813 0.6919 0.8838
H8 H 0.0870 0.8542 0.7423
H9 H 0.1743 1.0306 0.6628
H10 H 0.1835 1.0784 0.8529
H11 H 0.5892 0.8792 0.8996
H12 H 0.5963 0.9432 1.0119
H13 H 0.5338 0.7901 0.9633
H14 H 0.3288 0.9212 0.5909
H15 H 0.3839 1.0656 0.6630
H16 H 0.4609 0.9213 0.6872
H17 H 0.2627 0.3066 0.7285
H18 H 0.3594 0.4295 0.7886
H19 H 0.3339 0.3670 0.6694
H20 H 0.0714 0.3676 0.5595
H21 H 0.1368 0.4279 0.4945
H22 H 0.0451 0.5289 0.5081
C16 C 0.9656(3) 0.2174(5) 0.8644(3)
C17 C 0.8678(3) 0.2337(5) 0.8959(3)
C18 C 0.7585(3) 0.3001(4) 0.7857(3)
C19 C 0.7706(3) 0.4746(4) 0.7843(3)
C20 C 0.6601(3) 0.5594(4) 0.6995(3)
C21 C 0.7049(3) 0.7038(4) 0.6693(3)
C22 C 0.8122(3) 0.6427(4) 0.6589(3)
C23 C 0.8602(3) 0.5048(4) 0.7382(3)
C24 C 0.8566(3) 0.3623(4) 0.6732(3)
C25 C 0.7795(3) 0.2468(4) 0.6864(3)
C26 C 0.9118(4) 0.2155(5) 0.7370(3)
C27 C 0.9004(4) 0.2991(6) 1.0072(3)
C28 C 0.6416(3) 0.2467(4) 0.7771(4)
C29 C 0.7485(4) 0.8178(4) 0.7687(3)
C30 C 0.6105(4) 0.7749(5) 0.5580(3)
O3 O 0.5746(2) 0.5877(3) 0.7381(2)
O4 O 1.0706(3) 0.2022(4) 0.9320(2)
H23 H 0.6056 0.5709 0.8084
H24 H 0.8452 0.1333 0.9011
H25 H 0.8000 0.5145 0.8597
H26 H 0.6218 0.5005 0.6313
H27 H 0.8724 0.7177 0.6821
H28 H 0.7875 0.6143 0.5814
H29 H 0.9383 0.5229 0.7996
H30 H 0.8494 0.3742 0.5987
H31 H 0.7211 0.1919 0.6227
H32 H 0.9378 0.1424 0.7014
H33 H 0.8321 0.3037 1.0181
H34 H 0.9601 0.2390 1.0660
H35 H 0.9305 0.3979 1.0105
H36 H 0.5768 0.2882 0.7101
H37 H 0.6370 0.2786 0.8434
H38 H 0.6378 0.1399 0.7725
H39 H 0.7759 0.9063 0.7482
H40 H 0.8121 0.7748 0.8359
H41 H 0.6847 0.8427 0.7834
H42 H 0.6418 0.8638 0.5425
H43 H 0.5886 0.7058 0.4962
H44 H 0.5422 0.7995 0.5656
loop_
_geom_bond_atom_site_label_1
_geom_bond_atom_site_label_2
_geom_bond_site_symmetry_1
_geom_bond_site_symmetry_2
C1 C2 1_555 1_555
C2 C3 1_555 1_555
C3 C4 1_555 1_555
C4 C5 1_555 1_555
C5 C6 1_555 1_555
C6 C7 1_555 1_555
C7 C8 1_555 1_555
C8 C4 1_555 1_555
C9 C8 1_555 1_555
C10 C3 1_555 1_555
C11 C1 1_555 1_555
C12 C2 1_555 1_555
C13 C3 1_555 1_555
C14 C6 1_555 1_555
C15 C6 1_555 1_555
O1 C5 1_555 1_555
O2 C1 1_555 1_555
H1 O1 1_555 1_555
H2 C2 1_555 1_555
H3 C4 1_555 1_555
H4 C5 1_555 1_555
H5 C7 1_555 1_555
H6 C7 1_555 1_555
H7 C8 1_555 1_555
H8 C9 1_555 1_555
H9 C10 1_555 1_555
H10 C11 1_555 1_555
H11 C12 1_555 1_555
H12 C12 1_555 1_555
H13 C12 1_555 1_555
H14 C13 1_555 1_555
H15 C13 1_555 1_555
H16 C13 1_555 1_555
H17 C14 1_555 1_555
H18 C14 1_555 1_555
H19 C14 1_555 1_555
H20 C15 1_555 1_555
H21 C15 1_555 1_555
H22 C15 1_555 1_555
C16 C17 1_555 1_555
C17 C18 1_555 1_555
C18 C19 1_555 1_555
C19 C20 1_555 1_555
C20 C21 1_555 1_555
C21 C22 1_555 1_555
C22 C23 1_555 1_555
C23 C19 1_555 1_555
C24 C23 1_555 1_555
C25 C18 1_555 1_555
C26 C16 1_555 1_555
C27 C17 1_555 1_555
C28 C18 1_555 1_555
C29 C21 1_555 1_555
C30 C21 1_555 1_555
O3 C20 1_555 1_555
O4 C16 1_555 1_555
H23 O3 1_555 1_555
H24 C17 1_555 1_555
H25 C19 1_555 1_555
H26 C20 1_555 1_555
H27 C22 1_555 1_555
H28 C22 1_555 1_555
H29 C23 1_555 1_555
H30 C24 1_555 1_555
H31 C25 1_555 1_555
H32 C26 1_555 1_555
H33 C27 1_555 1_555
H34 C27 1_555 1_555
H35 C27 1_555 1_555
H36 C28 1_555 1_555
H37 C28 1_555 1_555
H38 C28 1_555 1_555
H39 C29 1_555 1_555
H40 C29 1_555 1_555
H41 C29 1_555 1_555
H42 C30 1_555 1_555
H43 C30 1_555 1_555
H44 C30 1_555 1_555
C9 C10 1_555 1_555
C9 C11 1_555 1_555
C10 C11 1_555 1_555
C24 C25 1_555 1_555
C24 C26 1_555 1_555
C25 C26 1_555 1_555

#END
