
#######################################################################
#
#                 Cambridge Crystallographic Data Centre
#                                CCDC 
#
#######################################################################
#
# If this CIF has been generated from an entry in the Cambridge 
# Structural Database, then it will include bibliographic, chemical, 
# crystal, experimental, refinement or atomic coordinate data resulting 
# from the CCDC's data processing and validation procedures.
#
#######################################################################

data_ZIBWAL
_chemical_formula_moiety         'C21 H22 O6,H2 O1'
_chemical_name_systematic        
'9a-(1,2-dihydroxypent-3-en-1-yl)-3-hydroxy-1,7-dimethyl-7,9a-dihydro-6H,6bH-cyclopenta[4,5]furo[3,2-c][1]benzopyran-6-one monohydrate'
_symmetry_cell_setting           monoclinic
_symmetry_space_group_name_H-M   'P 21'
_symmetry_Int_Tables_number      4
_space_group_name_Hall           'P 2yb'
loop_
_symmetry_equiv_pos_site_id
_symmetry_equiv_pos_as_xyz
1 x,y,z
2 -x,1/2+y,-z
_cell_length_a                   10.3711(12)
_cell_length_b                   20.093(2)
_cell_length_c                   10.4384(12)
_cell_angle_alpha                90
_cell_angle_beta                 115.739(5)
_cell_angle_gamma                90
_cell_volume                     1959.4
_exptl_crystal_colour            'light colorless'
_exptl_crystal_description       block
_cell_formula_units_Z            4
_exptl_crystal_preparation       -
loop_
_atom_site_label
_atom_site_type_symbol
_atom_site_fract_x
_atom_site_fract_y
_atom_site_fract_z
O1 O 0.49393(18) 0.36986(10) 0.45027(17)
O2 O 0.11003(19) 0.43162(10) 0.42508(18)
O3 O 0.0121(2) 0.41519(14) 0.1935(2)
O4 O 0.2761(3) 0.45438(13) 0.9229(2)
H1 H 0.190279 0.459071 0.899535
O5 O 0.5492(3) 0.44670(11) 0.2579(2)
H2 H 0.532045 0.456515 0.325238
C1 C 0.1898(3) 0.44481(14) 0.6697(3)
H3 H 0.097747 0.457927 0.652460
C2 C 0.2972(3) 0.44099(14) 0.8062(3)
C3 C 0.1215(3) 0.41152(14) 0.3043(3)
C4 C 0.2986(3) 0.36273(13) 0.2114(2)
H4 H 0.288508 0.396788 0.140455
C5 C 0.4583(3) 0.34476(14) 0.3048(3)
C6 C 0.2240(3) 0.29673(15) 0.1410(3)
H5 H 0.137316 0.290696 0.155106
C7 C 0.3712(3) 0.38972(12) 0.4518(2)
C8 C 0.2568(3) 0.38864(13) 0.3227(3)
C9 C 0.2236(3) 0.42844(13) 0.5588(3)
C10 C 0.5582(3) 0.37614(16) 0.2500(3)
H6 H 0.519139 0.365070 0.148646
C11 C 0.4364(3) 0.42354(15) 0.8303(3)
H7 H 0.507736 0.422262 0.923211
C12 C 0.3606(3) 0.40893(13) 0.5796(3)
C13 C 0.4578(3) 0.26996(15) 0.3082(3)
H8 H 0.537084 0.244312 0.363863
C14 C 0.3324(4) 0.24498(15) 0.2234(3)
H9 H 0.312824 0.199603 0.215422
C15 C 0.8524(4) 0.3530(2) 0.5804(5)
H10 H 0.907623 0.378700 0.659298
C16 C 0.7138(3) 0.3527(2) 0.3166(4)
H11 H 0.716501 0.304197 0.326662
O6 O 0.7624(4) 0.3709(3) 0.2115(4)
H12 H 0.849279 0.376734 0.250332
C17 C 0.4707(3) 0.40821(14) 0.7205(3)
C18 C 0.8033(3) 0.3833(2) 0.4565(4)
H13 H 0.826895 0.427939 0.456768
C19 C 0.6232(3) 0.3917(2) 0.7536(3)
H14 H 0.682943 0.399570 0.852675
H15 H 0.654463 0.419188 0.697281
H16 H 0.629789 0.345711 0.732050
C20 C 0.1861(5) 0.29280(19) -0.0182(3)
H17 H 0.117801 0.326884 -0.068171
H18 H 0.145645 0.249952 -0.054241
H19 H 0.271045 0.299112 -0.031835
C21 C 0.8301(5) 0.2823(3) 0.6094(5)
H20 H 0.813717 0.255682 0.527398
H21 H 0.748727 0.279401 0.630076
H22 H 0.913665 0.266422 0.689377
O7 O 0.12012(19) 0.63219(9) 0.64593(17)
O8 O -0.0772(2) 0.54343(9) 0.66510(18)
H23 H -0.155874 0.525505 0.635831
O9 O 0.1352(2) 0.58303(11) 0.27537(18)
O10 O 0.6234(2) 0.52232(12) 0.4919(2)
H24 H 0.599160 0.503872 0.414857
O11 O -0.0952(2) 0.60649(13) 0.15866(18)
O12 O -0.1112(2) 0.58646(13) 0.89392(19)
H25 H -0.097886 0.597899 0.974104
C22 C 0.5057(3) 0.54842(14) 0.5000(3)
C23 C 0.2687(3) 0.59654(12) 0.5315(3)
C24 C 0.2607(3) 0.57844(14) 0.3983(3)
C25 C -0.0913(3) 0.61247(13) 0.6866(2)
H26 H -0.193955 0.622177 0.646875
C26 C 0.1349(3) 0.61526(12) 0.5294(2)
C27 C -0.0309(3) 0.65248(14) 0.6008(2)
C28 C 0.0084(3) 0.60289(14) 0.2755(3)
C29 C 0.4043(3) 0.59207(13) 0.6521(3)
C30 C 0.0112(3) 0.61817(14) 0.4076(3)
C31 C -0.1110(3) 0.63887(15) 0.4387(2)
H27 H -0.181138 0.602926 0.418030
C32 C 0.5193(3) 0.56860(14) 0.6320(3)
H28 H 0.608659 0.566282 0.709607
C33 C 0.3770(3) 0.55447(14) 0.3798(3)
H29 H 0.368783 0.542942 0.290312
C34 C -0.0278(3) 0.62780(14) 0.8461(3)
H30 H -0.045593 0.674619 0.859294
C35 C -0.0373(4) 0.72662(15) 0.6127(3)
H31 H 0.009167 0.750287 0.697036
C36 C 0.4234(3) 0.61053(17) 0.7985(3)
H32 H 0.392603 0.655598 0.798200
H33 H 0.522617 0.606536 0.864122
H34 H 0.367386 0.581258 0.826918
C37 C -0.1851(4) 0.70587(19) 0.3698(3)
H35 H -0.160213 0.717572 0.292146
C38 C 0.1284(3) 0.61375(16) 0.9264(3)
H36 H 0.158800 0.571369 0.916109
C39 C -0.1172(5) 0.75402(18) 0.4885(4)
H37 H -0.130120 0.799776 0.476210
C40 C 0.2281(4) 0.6552(2) 1.0105(3)
H38 H 0.320728 0.638403 1.055147
C41 C -0.3472(5) 0.7034(3) 0.3139(6)
H39 H -0.385803 0.671677 0.237881
H40 H -0.386488 0.746615 0.279374
H41 H -0.371388 0.690470 0.389291
C42 C 0.2090(7) 0.7256(4) 1.0419(8)
H42 H 0.270528 0.753518 1.018110
H43 H 0.232944 0.730157 1.141182
H44 H 0.111187 0.738508 0.986558
O13 O 0.0113(3) 0.45011(13) 0.9181(2)
H45 H 0.008788 0.438188 0.995151
H46 H -0.026060 0.488498 0.894481
O14 O 0.6978(6) 0.5075(3) 0.1256(5)
loop_
_geom_bond_atom_site_label_1
_geom_bond_atom_site_label_2
_geom_bond_site_symmetry_1
_geom_bond_site_symmetry_2
O1 C5 1_555 1_555
O2 C3 1_555 1_555
O3 C3 1_555 1_555
O4 H1 1_555 1_555
O5 H2 1_555 1_555
C1 H3 1_555 1_555
C2 O4 1_555 1_555
C3 C8 1_555 1_555
C4 H4 1_555 1_555
C5 C4 1_555 1_555
C6 C4 1_555 1_555
H5 C6 1_555 1_555
C7 O1 1_555 1_555
C8 C4 1_555 1_555
C9 O2 1_555 1_555
C10 O5 1_555 1_555
H6 C10 1_555 1_555
C11 C2 1_555 1_555
H7 C11 1_555 1_555
C12 C7 1_555 1_555
C13 C5 1_555 1_555
H8 C13 1_555 1_555
C14 C6 1_555 1_555
H9 C14 1_555 1_555
C15 H10 1_555 1_555
C16 C10 1_555 1_555
H11 C16 1_555 1_555
O6 C16 1_555 1_555
H12 O6 1_555 1_555
C17 C11 1_555 1_555
C18 C15 1_555 1_555
H13 C18 1_555 1_555
C19 C17 1_555 1_555
H14 C19 1_555 1_555
H15 C19 1_555 1_555
H16 C19 1_555 1_555
C20 C6 1_555 1_555
H17 C20 1_555 1_555
H18 C20 1_555 1_555
H19 C20 1_555 1_555
C21 C15 1_555 1_555
H20 C21 1_555 1_555
H21 C21 1_555 1_555
H22 C21 1_555 1_555
O7 C26 1_555 1_555
O8 H23 1_555 1_555
O9 C24 1_555 1_555
O10 H24 1_555 1_555
O11 C28 1_555 1_555
O12 H25 1_555 1_555
C22 O10 1_555 1_555
C23 C24 1_555 1_555
C24 C33 1_555 1_555
C25 O8 1_555 1_555
H26 C25 1_555 1_555
C26 C23 1_555 1_555
C27 O7 1_555 1_555
C28 O9 1_555 1_555
C29 C23 1_555 1_555
C30 C26 1_555 1_555
C31 C27 1_555 1_555
H27 C31 1_555 1_555
C32 C22 1_555 1_555
H28 C32 1_555 1_555
C33 C22 1_555 1_555
H29 C33 1_555 1_555
C34 O12 1_555 1_555
H30 C34 1_555 1_555
C35 C27 1_555 1_555
H31 C35 1_555 1_555
C36 C29 1_555 1_555
H32 C36 1_555 1_555
H33 C36 1_555 1_555
H34 C36 1_555 1_555
C37 C31 1_555 1_555
H35 C37 1_555 1_555
C38 C34 1_555 1_555
H36 C38 1_555 1_555
C39 C35 1_555 1_555
H37 C39 1_555 1_555
C40 C38 1_555 1_555
H38 C40 1_555 1_555
C41 C37 1_555 1_555
H39 C41 1_555 1_555
H40 C41 1_555 1_555
H41 C41 1_555 1_555
C42 C40 1_555 1_555
H42 C42 1_555 1_555
H43 C42 1_555 1_555
H44 C42 1_555 1_555
O13 H45 1_555 1_555
H46 O13 1_555 1_555
C1 C2 1_555 1_555
C1 C9 1_555 1_555
C5 C10 1_555 1_555
C7 C8 1_555 1_555
C9 C12 1_555 1_555
C12 C17 1_555 1_555
C13 C14 1_555 1_555
C16 C18 1_555 1_555
C25 C27 1_555 1_555
C25 C34 1_555 1_555
C28 C30 1_555 1_555
C29 C32 1_555 1_555
C30 C31 1_555 1_555
C37 C39 1_555 1_555

#END
