
#######################################################################
#
#                 Cambridge Crystallographic Data Centre
#                                CCDC 
#
#######################################################################
#
# If this CIF has been generated from an entry in the Cambridge 
# Structural Database, then it will include bibliographic, chemical, 
# crystal, experimental, refinement or atomic coordinate data resulting 
# from the CCDC's data processing and validation procedures.
#
#######################################################################

data_ZICKUU
_chemical_formula_moiety         'C17 H26 O3'
_chemical_name_systematic        
'2-[4-(2,4,4-trimethylpentan-2-yl)phenoxy]propanoic acid'
_symmetry_cell_setting           monoclinic
_symmetry_space_group_name_H-M   'P 21/c'
_symmetry_Int_Tables_number      14
_space_group_name_Hall           '-P 2ybc'
loop_
_symmetry_equiv_pos_site_id
_symmetry_equiv_pos_as_xyz
1 x,y,z
2 -x,1/2+y,1/2-z
3 -x,-y,-z
4 x,1/2-y,1/2+z
_cell_length_a                   15.6175(13)
_cell_length_b                   8.4961(7)
_cell_length_c                   12.6700(10)
_cell_angle_alpha                90
_cell_angle_beta                 96.193(2)
_cell_angle_gamma                90
_cell_volume                     1671.34
_exptl_crystal_colour            colorless
_exptl_crystal_description       block
_cell_formula_units_Z            4
loop_
_atom_site_label
_atom_site_type_symbol
_atom_site_fract_x
_atom_site_fract_y
_atom_site_fract_z
O1 O 0.51060(11) 0.1182(2) 0.68355(12)
O2 O 0.51266(13) -0.0222(2) 0.87768(12)
O3 O 0.46967(13) 0.1992(2) 0.94873(12)
H1 H 0.475305 0.146636 1.003328
C1 C 0.48695(15) 0.1119(3) 0.86866(17)
C2 C 0.46949(15) 0.1962(3) 0.76371(17)
H2 H 0.490225 0.304880 0.771058
C3 C 0.59672(16) 0.1479(3) 0.67839(18)
C4 C 0.64994(17) 0.2255(3) 0.75466(19)
H3 H 0.628923 0.259159 0.816799
C5 C 0.73508(18) 0.2537(3) 0.7388(2)
H4 H 0.770284 0.306179 0.791317
C6 C 0.76957(17) 0.2068(3) 0.6480(2)
C7 C 0.71464(18) 0.1233(3) 0.5742(2)
H5 H 0.736062 0.085980 0.513183
C8 C 0.62991(18) 0.0938(3) 0.5879(2)
H6 H 0.595091 0.037884 0.536825
C9 C 0.86183(18) 0.2463(4) 0.6263(2)
C10 C 0.9169(2) 0.3009(6) 0.7275(3)
H7 H 0.891206 0.392521 0.755318
H8 H 0.973850 0.326145 0.710887
H9 H 0.920015 0.218268 0.779386
C11 C 0.9058(2) 0.0970(5) 0.5894(4)
H10 H 0.902793 0.015178 0.641125
H11 H 0.964984 0.119501 0.581517
H12 H 0.876948 0.063104 0.522477
C12 C 0.86416(18) 0.3677(4) 0.5351(2)
H13 H 0.924540 0.384128 0.526797
H14 H 0.839374 0.315046 0.471003
C13 C 0.82324(19) 0.5313(4) 0.5330(2)
C14 C 0.8477(3) 0.6099(6) 0.4315(4)
H15 H 0.823827 0.550531 0.370805
H16 H 0.909229 0.613091 0.433122
H17 H 0.825191 0.715098 0.426923
C15 C 0.8525(4) 0.6334(5) 0.6287(4)
H18 H 0.822481 0.732139 0.622749
H19 H 0.913372 0.651951 0.631389
H20 H 0.840255 0.580703 0.692365
C16 C 0.7257(2) 0.5254(4) 0.5228(3)
H21 H 0.705065 0.465664 0.460859
H22 H 0.703086 0.630404 0.516273
H23 H 0.707151 0.476257 0.584637
C17 C 0.37371(17) 0.1956(4) 0.7283(2)
H24 H 0.362773 0.251308 0.662342
H25 H 0.343669 0.246099 0.781247
H26 H 0.353963 0.088972 0.718988
loop_
_geom_bond_atom_site_label_1
_geom_bond_atom_site_label_2
_geom_bond_site_symmetry_1
_geom_bond_site_symmetry_2
O1 C2 1_555 1_555
O2 C1 1_555 1_555
O3 H1 1_555 1_555
C1 O3 1_555 1_555
C2 C1 1_555 1_555
H2 C2 1_555 1_555
C3 O1 1_555 1_555
C4 C3 1_555 1_555
H3 C4 1_555 1_555
C5 C4 1_555 1_555
H4 C5 1_555 1_555
C6 C5 1_555 1_555
C7 C6 1_555 1_555
H5 C7 1_555 1_555
C8 C3 1_555 1_555
H6 C8 1_555 1_555
C9 C6 1_555 1_555
C10 C9 1_555 1_555
H7 C10 1_555 1_555
H8 C10 1_555 1_555
H9 C10 1_555 1_555
C11 C9 1_555 1_555
H10 C11 1_555 1_555
H11 C11 1_555 1_555
H12 C11 1_555 1_555
C12 C9 1_555 1_555
H13 C12 1_555 1_555
H14 C12 1_555 1_555
C13 C12 1_555 1_555
C14 C13 1_555 1_555
H15 C14 1_555 1_555
H16 C14 1_555 1_555
H17 C14 1_555 1_555
C15 C13 1_555 1_555
H18 C15 1_555 1_555
H19 C15 1_555 1_555
H20 C15 1_555 1_555
C16 C13 1_555 1_555
H21 C16 1_555 1_555
H22 C16 1_555 1_555
H23 C16 1_555 1_555
C17 C2 1_555 1_555
H24 C17 1_555 1_555
H25 C17 1_555 1_555
H26 C17 1_555 1_555
C7 C8 1_555 1_555

#END
