
#######################################################################
#
#                 Cambridge Crystallographic Data Centre
#                                CCDC 
#
#######################################################################
#
# If this CIF has been generated from an entry in the Cambridge 
# Structural Database, then it will include bibliographic, chemical, 
# crystal, experimental, refinement or atomic coordinate data resulting 
# from the CCDC's data processing and validation procedures.
#
#######################################################################

data_ZICMAB
_chemical_formula_moiety         'C28 H31 N1 O4'
_chemical_name_systematic        
'Ethyl 1-(t-butoxycarbonyl)-4,5-diphenyl-2-(prop-1-en-1-yl)-1H-pyrrole-3-carboxylate'
_symmetry_cell_setting           orthorhombic
_symmetry_space_group_name_H-M   'P c c n'
_symmetry_Int_Tables_number      56
_space_group_name_Hall           '-P 2ab 2ac'
loop_
_symmetry_equiv_pos_site_id
_symmetry_equiv_pos_as_xyz
1 x,y,z
2 1/2+x,-y,1/2-z
3 -x,1/2+y,1/2-z
4 1/2-x,1/2-y,z
5 -x,-y,-z
6 1/2-x,y,1/2+z
7 x,1/2-y,1/2+z
8 1/2+x,1/2+y,-z
_cell_length_a                   19.473(3)
_cell_length_b                   33.144(4)
_cell_length_c                   7.8337(10)
_cell_angle_alpha                90
_cell_angle_beta                 90
_cell_angle_gamma                90
_cell_volume                     5055.97
_exptl_crystal_colour            colorless
_exptl_crystal_description       cubic
_cell_formula_units_Z            8
loop_
_atom_site_label
_atom_site_type_symbol
_atom_site_fract_x
_atom_site_fract_y
_atom_site_fract_z
O1 O 0.08729(9) 0.65262(6) 0.5589(2)
O2 O 0.06569(11) 0.51904(6) -0.1750(2)
O3 O 0.12417(10) 0.66436(7) 0.2912(3)
O4 O -0.00375(13) 0.55055(7) -0.3517(3)
N1 N 0.01967(10) 0.61236(6) 0.1639(2)
C1 C 0.20795(17) 0.65785(16) 0.6169(5)
H1 H 0.2073 0.6305 0.6572
H2 H 0.2428 0.6727 0.6766
H3 H 0.2177 0.6581 0.4968
C2 C 0.13974(14) 0.67686(11) 0.6481(4)
C3 C 0.08605(14) 0.64831(8) 0.3906(3)
C4 C 0.02882(13) 0.61987(8) 0.3468(3)
H4 H 0.0373 0.5943 0.4032
H5 H -0.0137 0.6307 0.3923
C5 C 0.04475(13) 0.57905(8) 0.0801(3)
C6 C 0.00909(13) 0.57592(8) -0.0723(3)
C7 C 0.02181(14) 0.54816(8) -0.2135(4)
C8 C 0.08128(19) 0.49038(10) -0.3097(4)
H6 H 0.1013 0.5042 -0.4068
H7 H 0.0397 0.4769 -0.3470
C9 C 0.1299(2) 0.46093(10) -0.2408(5)
H8 H 0.1703 0.4746 -0.2015
H9 H 0.1422 0.4420 -0.3285
H10 H 0.1090 0.4468 -0.1473
C10 C 0.11899(19) 0.67323(13) 0.8327(4)
H11 H 0.0731 0.6832 0.8469
H12 H 0.1499 0.6887 0.9021
H13 H 0.1208 0.6454 0.8667
C11 C 0.1354(3) 0.72002(13) 0.5896(6)
H14 H 0.1524 0.7221 0.4750
H15 H 0.1625 0.7367 0.6636
H16 H 0.0884 0.7288 0.5929
C12 C -0.03194(12) 0.63021(7) 0.0676(3)
C13 C -0.06840(12) 0.66679(7) 0.1226(3)
C14 C -0.13903(13) 0.66903(8) 0.1099(3)
H17 H -0.1635 0.6469 0.0700
C15 C -0.17383(16) 0.70353(10) 0.1555(4)
H18 H -0.2213 0.7048 0.1429
C16 C -0.13904(18) 0.73589(10) 0.2190(4)
H19 H -0.1628 0.7589 0.2522
C17 C -0.06922(17) 0.73448(9) 0.2338(4)
H20 H -0.0454 0.7565 0.2779
C18 C -0.03397(14) 0.70030(8) 0.1830(3)
H21 H 0.0137 0.6999 0.1897
C19 C -0.03951(12) 0.60812(7) -0.0791(3)
C20 C 0.09885(16) 0.55340(9) 0.1500(4)
H22 H 0.0916 0.5257 0.1429
C21 C 0.15521(17) 0.56459(11) 0.2202(5)
H23 H 0.1631 0.5922 0.2291
C22 C 0.20962(19) 0.53686(13) 0.2892(5)
H24 H 0.2102 0.5385 0.4115
H25 H 0.2536 0.5447 0.2451
H26 H 0.1998 0.5096 0.2550
C23 C -0.09060(12) 0.61609(7) -0.2150(3)
C24 C -0.14273(14) 0.58898(9) -0.2473(4)
H27 H -0.1454 0.5653 -0.1840
C25 C -0.19081(14) 0.59655(10) -0.3717(4)
H28 H -0.2259 0.5781 -0.3914
C26 C -0.18734(14) 0.63111(11) -0.4668(4)
H29 H -0.2193 0.6359 -0.5526
C27 C -0.13669(15) 0.65834(9) -0.4349(4)
H30 H -0.1345 0.6821 -0.4980
C28 C -0.08851(13) 0.65098(8) -0.3095(3)
H31 H -0.0542 0.6699 -0.2887
loop_
_geom_bond_atom_site_label_1
_geom_bond_atom_site_label_2
_geom_bond_site_symmetry_1
_geom_bond_site_symmetry_2
O1 C2 1_555 1_555
O2 C7 1_555 1_555
O3 C3 1_555 1_555
O4 C7 1_555 1_555
N1 C4 1_555 1_555
C1 H1 1_555 1_555
H2 C1 1_555 1_555
H3 C1 1_555 1_555
C2 C1 1_555 1_555
C3 O1 1_555 1_555
C4 C3 1_555 1_555
H4 C4 1_555 1_555
H5 C4 1_555 1_555
C5 N1 1_555 1_555
C6 C5 1_555 1_555
C7 C6 1_555 1_555
C8 O2 1_555 1_555
H6 C8 1_555 1_555
H7 C8 1_555 1_555
C9 C8 1_555 1_555
H8 C9 1_555 1_555
H9 C9 1_555 1_555
H10 C9 1_555 1_555
C10 C2 1_555 1_555
H11 C10 1_555 1_555
H12 C10 1_555 1_555
H13 C10 1_555 1_555
C11 C2 1_555 1_555
H14 C11 1_555 1_555
H15 C11 1_555 1_555
H16 C11 1_555 1_555
C12 N1 1_555 1_555
C13 C12 1_555 1_555
C14 C13 1_555 1_555
H17 C14 1_555 1_555
C15 C14 1_555 1_555
H18 C15 1_555 1_555
C16 C15 1_555 1_555
H19 C16 1_555 1_555
C17 C16 1_555 1_555
H20 C17 1_555 1_555
C18 C13 1_555 1_555
H21 C18 1_555 1_555
C19 C6 1_555 1_555
C20 C5 1_555 1_555
H22 C20 1_555 1_555
C21 C20 1_555 1_555
H23 C21 1_555 1_555
C22 C21 1_555 1_555
H24 C22 1_555 1_555
H25 C22 1_555 1_555
H26 C22 1_555 1_555
C23 C19 1_555 1_555
C24 C23 1_555 1_555
H27 C24 1_555 1_555
C25 C24 1_555 1_555
H28 C25 1_555 1_555
C26 C25 1_555 1_555
H29 C26 1_555 1_555
C27 C26 1_555 1_555
H30 C27 1_555 1_555
C28 C23 1_555 1_555
H31 C28 1_555 1_555
C12 C19 1_555 1_555
C17 C18 1_555 1_555
C27 C28 1_555 1_555

#END
