
#######################################################################
#
#                 Cambridge Crystallographic Data Centre
#                                CCDC 
#
#######################################################################
#
# If this CIF has been generated from an entry in the Cambridge 
# Structural Database, then it will include bibliographic, chemical, 
# crystal, experimental, refinement or atomic coordinate data resulting 
# from the CCDC's data processing and validation procedures.
#
#######################################################################

data_ZICNII
_chemical_formula_moiety         'C22 H29 N3 O7'
_chemical_name_systematic        
9-(2'-Hydroxy-5'-nitrobenzyl)-3,6,12,15-tetraoxa-9,21-diazabicyclo(15.3.1.)heneicosa-1(21),17,19-triene
_symmetry_cell_setting           triclinic
_symmetry_space_group_name_H-M   'P -1'
_symmetry_Int_Tables_number      2
_space_group_name_Hall           '-P 1'
loop_
_symmetry_equiv_pos_site_id
_symmetry_equiv_pos_as_xyz
1 x,y,z
2 -x,-y,-z
_cell_length_a                   6.343(2)
_cell_length_b                   11.626(4)
_cell_length_c                   15.643(6)
_cell_angle_alpha                74.60(3)
_cell_angle_beta                 87.65(3)
_cell_angle_gamma                83.36(3)
_cell_volume                     1104.63
_exptl_crystal_colour            yellow
_chemical_melting_point          '114-115 deg.C'
_cell_formula_units_Z            2
loop_
_atom_site_label
_atom_site_type_symbol
_atom_site_fract_x
_atom_site_fract_y
_atom_site_fract_z
N1 N 0.9346(3) 0.0939(2) 0.0730(2)
C1 C 1.0604(4) 0.0012(2) 0.1222(2)
C2 C 0.9509(5) -0.0988(3) 0.1808(2)
H1 H 1.0216 -0.1741 0.1752
H2 H 0.8082 -0.0915 0.1602
O1 O 0.9428(4) -0.0987(2) 0.2705(2)
C3 C 0.8570(14) -0.0080(8) 0.3093(7)
H3 H 0.8735 0.0694 0.2702
H4 H 0.9265 -0.0142 0.3640
C4 C 0.6305(12) -0.0212(7) 0.3248(7)
H5 H 0.6098 -0.1009 0.3590
H6 H 0.5540 -0.0036 0.2703
O2 O 0.5593(4) 0.0708(2) 0.3776(2)
C5 C 0.3424(6) 0.0739(3) 0.3697(2)
H7 H 0.2953 -0.0015 0.4016
H8 H 0.3080 0.0883 0.3083
C6 C 0.2304(4) 0.1766(2) 0.4024(2)
H9 H 0.2681 0.1624 0.4634
H10 H 0.0793 0.1777 0.3997
N2 N 0.2930(3) 0.2937(2) 0.3531(1)
C7 C 0.2004(5) 0.3341(3) 0.2638(2)
H11 H 0.0539 0.3630 0.2696
H12 H 0.2057 0.2663 0.2394
C8 C 0.3103(5) 0.4284(3) 0.2016(2)
H13 H 0.2390 0.4445 0.1396
H14 H 0.2921 0.5220 0.2239
O3 O 0.5035(12) 0.3636(6) 0.1799(4)
C9 C 0.6429(5) 0.4500(3) 0.1269(2)
H15 H 0.5651 0.5179 0.0823
H16 H 0.8051 0.4770 0.1483
C10 C 0.7709(9) 0.3674(4) 0.0872(3)
H17 H 0.8477 0.2989 0.1401
O4 O 0.7122(6) 0.3290(3) 0.0230(2)
C11 C 0.8799(5) 0.2892(3) -0.0301(2)
H18 H 0.7681 0.2563 -0.0733
H19 H 0.9600 0.3439 -0.0786
C12 C 1.0276(4) 0.1866(3) 0.0223(2)
C13 C 1.2438(5) 0.1886(3) 0.0193(2)
H20 H 1.3050 0.2564 -0.0180
C14 C 1.3720(5) 0.0925(3) 0.0697(2)
H21 H 1.5234 0.0928 0.0687
C15 C 1.2786(4) -0.0020(3) 0.1217(2)
H22 H 1.3631 -0.0710 0.1567
C16 C 0.2391(4) 0.3835(2) 0.4042(2)
H23 H 0.0924 0.3834 0.4219
H24 H 0.2596 0.4620 0.3676
C17 C 0.3739(4) 0.3563(2) 0.4858(2)
C18 C 0.2887(4) 0.3675(2) 0.5654(2)
H25 H 0.1405 0.3936 0.5701
C19 C 0.4147(4) 0.3400(2) 0.6394(2)
N3 N 0.3161(5) 0.3472(2) 0.7241(2)
O5 O 0.1298(4) 0.3891(2) 0.7261(2)
O6 O 0.4269(4) 0.3087(2) 0.7911(2)
C20 C 0.6300(4) 0.3004(2) 0.6354(2)
H26 H 0.7148 0.2808 0.6878
C21 C 0.7161(4) 0.2898(2) 0.5563(2)
H27 H 0.8642 0.2627 0.5526
C22 C 0.5930(4) 0.3179(2) 0.4809(2)
O7 O 0.6859(3) 0.3074(2) 0.4041(1)
H28 H 0.5506 0.3032 0.3608
C23? C 0.7717(15) 0.0040(7) 0.2703(5)
H29? H 0.6497 -0.0004 0.2375
H30? H 0.8236 0.0807 0.2474
C24? C 0.7192(12) -0.0202(6) 0.3691(4)
H31? H 0.8432 -0.0167 0.4011
H32? H 0.6709 -0.0980 0.3913
O8? O 0.5543(10) 0.4066(6) 0.2090(4)
O9? O 0.8396(8) 0.3910(4) 0.0169(3)
loop_
_geom_bond_atom_site_label_1
_geom_bond_atom_site_label_2
_geom_bond_site_symmetry_1
_geom_bond_site_symmetry_2
N1 C1 1_555 1_555
C1 C2 1_555 1_555
C2 H1 1_555 1_555
H2 C2 1_555 1_555
O1 C2 1_555 1_555
C3 O1 1_555 1_555
H3 C3 1_555 1_555
H4 C3 1_555 1_555
C4 C3 1_555 1_555
H5 C4 1_555 1_555
H6 C4 1_555 1_555
O2 C4 1_555 1_555
C5 O2 1_555 1_555
H7 C5 1_555 1_555
H8 C5 1_555 1_555
C6 C5 1_555 1_555
H9 C6 1_555 1_555
H10 C6 1_555 1_555
N2 C6 1_555 1_555
C7 N2 1_555 1_555
H11 C7 1_555 1_555
H12 C7 1_555 1_555
C8 C7 1_555 1_555
H13 C8 1_555 1_555
H14 C8 1_555 1_555
O3 C8 1_555 1_555
C9 O3 1_555 1_555
H15 C9 1_555 1_555
H16 C9 1_555 1_555
C10 C9 1_555 1_555
H17 C10 1_555 1_555
O4 C10 1_555 1_555
C11 O4 1_555 1_555
H18 C11 1_555 1_555
H19 C11 1_555 1_555
C12 N1 1_555 1_555
C13 C12 1_555 1_555
H20 C13 1_555 1_555
C14 C13 1_555 1_555
H21 C14 1_555 1_555
C15 C1 1_555 1_555
H22 C15 1_555 1_555
C16 N2 1_555 1_555
H23 C16 1_555 1_555
H24 C16 1_555 1_555
C17 C16 1_555 1_555
C18 C17 1_555 1_555
H25 C18 1_555 1_555
C19 C18 1_555 1_555
N3 C19 1_555 1_555
O5 N3 1_555 1_555
O6 N3 1_555 1_555
C20 C19 1_555 1_555
H26 C20 1_555 1_555
C21 C20 1_555 1_555
H27 C21 1_555 1_555
C22 C17 1_555 1_555
O7 C22 1_555 1_555
H28 O7 1_555 1_555
C11 C12 1_555 1_555
C14 C15 1_555 1_555
C21 C22 1_555 1_555

#END
