
#######################################################################
#
#                 Cambridge Crystallographic Data Centre
#                                CCDC 
#
#######################################################################
#
# If this CIF has been generated from an entry in the Cambridge 
# Structural Database, then it will include bibliographic, chemical, 
# crystal, experimental, refinement or atomic coordinate data resulting 
# from the CCDC's data processing and validation procedures.
#
#######################################################################

data_ZICWAM
_chemical_formula_moiety         'C24 H24 O1'
_chemical_name_systematic        
(2-butyl-1H-inden-1-yl)(naphthalen-1-yl)methanol
_symmetry_cell_setting           triclinic
_symmetry_space_group_name_H-M   'P -1'
_symmetry_Int_Tables_number      2
_space_group_name_Hall           '-P 1'
loop_
_symmetry_equiv_pos_site_id
_symmetry_equiv_pos_as_xyz
1 x,y,z
2 -x,-y,-z
_cell_length_a                   16.3273(7)
_cell_length_b                   16.8364(8)
_cell_length_c                   17.1138(8)
_cell_angle_alpha                89.826(2)
_cell_angle_beta                 66.421(2)
_cell_angle_gamma                65.168(2)
_cell_volume                     3835.32
_exptl_crystal_colour            colorless
_exptl_crystal_description       plate
_cell_formula_units_Z            8
loop_
_atom_site_label
_atom_site_type_symbol
_atom_site_fract_x
_atom_site_fract_y
_atom_site_fract_z
C1 C 0.3096(3) 0.2426(3) 0.4804(3)
C2 C 0.2627(4) 0.2664(3) 0.4278(3)
H1 H 0.301801 0.255218 0.366677
C3 C 0.1575(4) 0.3071(4) 0.4620(4)
H2 H 0.126498 0.324197 0.42401
C4 C 0.0998(4) 0.3224(3) 0.5486(4)
H3 H 0.02878 0.349115 0.570898
C5 C 0.1450(4) 0.2987(3) 0.6061(3)
C6 C 0.0865(3) 0.3117(3) 0.6969(4)
H4 H 0.015396 0.337173 0.720067
C7 C 0.1310(3) 0.2883(3) 0.7509(3)
H5 H 0.091005 0.296933 0.811466
C8 C 0.2341(3) 0.2520(3) 0.7187(3)
H6 H 0.264288 0.237588 0.757458
C9 C 0.2939(3) 0.2363(2) 0.6302(3)
H7 H 0.364857 0.209853 0.608904
C10 C 0.2518(3) 0.2587(3) 0.5724(3)
C11 C 0.4236(3) 0.1919(2) 0.4385(2)
H8 H 0.448547 0.216729 0.471928
O1 O 0.4663(2) 0.20152(16) 0.35046(15)
H9 H 0.47482 0.247477 0.349124
C12 C 0.4639(3) 0.0903(2) 0.4377(2)
H10 H 0.45079 0.08169 0.498638
C13 C 0.4203(4) 0.0426(3) 0.4041(3)
C14 C 0.3237(4) 0.0568(3) 0.4312(3)
H11 H 0.270216 0.104459 0.477923
C15 C 0.3043(4) -0.0001(3) 0.3888(3)
H12 H 0.237452 0.009363 0.405621
C16 C 0.3838(5) -0.0696(3) 0.3226(3)
H13 H 0.370178 -0.107515 0.294082
C17 C 0.4817(4) -0.0867(3) 0.2958(3)
H14 H 0.535057 -0.136115 0.25083
C18 C 0.5009(4) -0.0290(3) 0.3370(3)
C19 C 0.5942(4) -0.0289(3) 0.3241(3)
H15 H 0.658963 -0.070396 0.281598
C20 C 0.5759(3) 0.0385(3) 0.3810(3)
C21 C 0.6500(3) 0.0631(3) 0.3878(3)
H16 H 0.64431 0.061943 0.447563
H17 H 0.632491 0.125206 0.378994
C22 C 0.7589(3) 0.0034(3) 0.3238(3)
H18 H 0.778952 -0.057669 0.335986
H19 H 0.764091 0.000279 0.264087
C23 C 0.8308(4) 0.0357(3) 0.3278(3)
H20 H 0.828449 0.036054 0.386466
H21 H 0.809575 0.097654 0.317811
C24 C 0.9372(4) -0.0231(4) 0.2605(4)
H22 H 0.941492 -0.017523 0.202146
H23 H 0.956126 -0.085415 0.266768
H24 H 0.982939 -0.004553 0.269029
C25 C 0.6898(3) 0.0105(3) 0.1070(3)
C26 C 0.7423(4) 0.0584(4) 0.0986(3)
H25 H 0.707914 0.121688 0.114809
C27 C 0.8502(4) 0.0116(4) 0.0648(4)
H26 H 0.886719 0.044667 0.058107
C28 C 0.9005(4) -0.0787(5) 0.0424(3)
H27 H 0.971535 -0.107714 0.02059
C29 C 0.8507(4) -0.1289(4) 0.0506(3)
C30 C 0.9031(4) -0.2240(4) 0.0269(3)
H28 H 0.974179 -0.253361 0.004625
C31 C 0.8540(4) -0.2728(3) 0.0354(3)
H29 H 0.889959 -0.336151 0.020459
C32 C 0.7514(4) -0.2308(3) 0.0659(3)
H30 H 0.717321 -0.265807 0.070624
C33 C 0.6960(3) -0.1385(3) 0.0900(2)
H31 H 0.625047 -0.111647 0.111434
C34 C 0.7430(3) -0.0851(3) 0.0833(2)
C35 C 0.5768(3) 0.0575(2) 0.1362(2)
H32 H 0.545881 0.02603 0.179118
O2 O 0.5331(2) 0.14936(16) 0.17789(17)
H33 H 0.49614 0.156246 0.230955
C36 C 0.5475(3) 0.0582(2) 0.0606(2)
H34 H 0.565873 -0.00465 0.038441
C37 C 0.5965(4) 0.0948(3) -0.0169(3)
C38 C 0.6955(4) 0.0698(3) -0.0717(3)
H35 H 0.74772 0.023171 -0.063061
C39 C 0.7176(4) 0.1140(3) -0.1400(3)
H36 H 0.785708 0.098396 -0.177731
C40 C 0.6417(5) 0.1803(3) -0.1536(3)
H37 H 0.658196 0.209742 -0.200573
C41 C 0.5426(4) 0.2043(3) -0.1002(3)
H38 H 0.490769 0.249707 -0.110303
C42 C 0.5190(4) 0.1611(3) -0.0309(3)
C43 C 0.4231(4) 0.1713(3) 0.0345(3)
H39 H 0.359342 0.213034 0.03926
C44 C 0.4375(3) 0.1134(3) 0.0874(3)
C45 C 0.3601(3) 0.1001(3) 0.1632(3)
H40 H 0.360774 0.119821 0.217295
H41 H 0.3794 0.035519 0.157482
C46 C 0.2541(3) 0.1496(3) 0.1719(3)
H42 H 0.25339 0.130998 0.117506
H43 H 0.233778 0.214395 0.179443
C47 C 0.1781(3) 0.1330(3) 0.2479(3)
H44 H 0.203768 0.06791 0.245731
H45 H 0.170327 0.160642 0.302983
C48 C 0.0763(4) 0.1706(4) 0.2470(4)
H46 H 0.082829 0.140866 0.194156
H47 H 0.051005 0.234862 0.248096
H48 H 0.029194 0.160347 0.298226
C49 C 0.2888(3) 0.3943(3) 0.1610(3)
C50 C 0.2333(4) 0.3974(3) 0.2469(3)
H49 H 0.266432 0.377415 0.283067
C51 C 0.1284(4) 0.4296(3) 0.2828(3)
H50 H 0.09262 0.429921 0.342455
C52 C 0.0781(4) 0.4596(3) 0.2353(3)
H51 H 0.007313 0.48125 0.261077
C53 C 0.1305(3) 0.4590(3) 0.1462(3)
C54 C 0.0775(3) 0.4942(3) 0.0957(3)
H52 H 0.00644 0.518314 0.121516
C55 C 0.1287(3) 0.4933(3) 0.0100(3)
H53 H 0.092882 0.517396 -0.023498
C56 C 0.2328(3) 0.4577(3) -0.0290(3)
H54 H 0.267215 0.457001 -0.088924
C57 C 0.2865(3) 0.4235(3) 0.0178(3)
H55 H 0.357666 0.39903 -0.010033
C58 C 0.2366(3) 0.4245(3) 0.1078(3)
C59 C 0.3991(3) 0.3699(2) 0.1243(3)
H56 H 0.435394 0.326995 0.067583
O3 O 0.4419(2) 0.32834(17) 0.18133(18)
H57 H 0.46783 0.272591 0.166752
C60 C 0.4198(3) 0.4520(2) 0.1084(2)
H58 H 0.404141 0.473799 0.059213
C61 C 0.3609(3) 0.5311(2) 0.1838(3)
C62 C 0.2596(3) 0.5827(3) 0.2329(3)
H59 H 0.212872 0.569144 0.223644
C63 C 0.2259(3) 0.6549(3) 0.2966(3)
H60 H 0.155912 0.690969 0.331031
C64 C 0.2940(3) 0.6742(3) 0.3096(3)
H61 H 0.269963 0.723047 0.354028
C65 C 0.3953(3) 0.6252(2) 0.2604(2)
H62 H 0.441015 0.640475 0.269565
C66 C 0.4305(3) 0.5521(2) 0.1963(3)
C67 C 0.5315(3) 0.4894(2) 0.1337(2)
H63 H 0.591443 0.48933 0.129125
C68 C 0.5274(3) 0.4309(2) 0.0829(2)
C69 C 0.6122(3) 0.3551(3) 0.0125(3)
H64 H 0.601988 0.361524 -0.040905
H65 H 0.610316 0.299207 0.028893
C70 C 0.7148(3) 0.3458(3) -0.0084(3)
H66 H 0.724835 0.340332 0.045137
H67 H 0.717446 0.401044 -0.026102
C71 C 0.8008(3) 0.2665(3) -0.0797(3)
H68 H 0.8042 0.210581 -0.059437
H69 H 0.787717 0.267853 -0.131498
C72 C 0.8969(4) 0.2670(4) -0.1039(4)
H70 H 0.950419 0.214898 -0.149657
H71 H 0.910581 0.26491 -0.052894
H72 H 0.894395 0.321683 -0.125289
C74 C 0.6598(3) 0.3582(2) 0.2571(2)
C75 C 0.7171(3) 0.2687(3) 0.2265(3)
H78 H 0.685013 0.231741 0.232335
C76 C 0.8220(4) 0.2297(3) 0.1868(3)
H79 H 0.85991 0.167018 0.165905
C77 C 0.8703(3) 0.2802(3) 0.1776(3)
H80 H 0.9416 0.252551 0.152346
C78 C 0.8151(3) 0.3735(3) 0.2055(3)
C79 C 0.8631(3) 0.4288(3) 0.1976(3)
H81 H 0.934328 0.402365 0.173073
C80 C 0.8087(3) 0.5186(3) 0.2246(3)
H82 H 0.841916 0.554457 0.219105
C81 C 0.7043(3) 0.5586(3) 0.2602(2)
H83 H 0.667036 0.621774 0.277093
C82 C 0.6547(3) 0.5083(3) 0.2711(2)
H84 H 0.583408 0.536784 0.296677
C83 C 0.7083(3) 0.4137(3) 0.2449(2)
C84 C 0.5481(3) 0.3965(2) 0.3106(2)
H85 H 0.514302 0.452044 0.291158
O4 O 0.5122(2) 0.33510(17) 0.30006(16)
H86 H 0.495735 0.343781 0.258981
C85 C 0.5166(3) 0.4204(2) 0.4098(2)
H87 H 0.521225 0.476352 0.420789
C86 C 0.5781(3) 0.3495(2) 0.4467(2)
C87 C 0.6791(3) 0.3110(2) 0.4262(2)
H88 H 0.723539 0.326804 0.381314
C88 C 0.7141(3) 0.2482(3) 0.4730(3)
H89 H 0.783541 0.220121 0.459272
C89 C 0.6494(3) 0.2262(3) 0.5390(3)
H90 H 0.675232 0.182534 0.569498
C90 C 0.5484(3) 0.2662(2) 0.5616(2)
H91 H 0.504218 0.251229 0.607741
C91 C 0.5115(3) 0.3292(2) 0.5154(2)
C92 C 0.4099(3) 0.3831(2) 0.5239(2)
H92 H 0.351543 0.380636 0.565037
C93 C 0.4105(3) 0.4365(2) 0.4658(2)
C94 C 0.3221(3) 0.5012(2) 0.4537(3)
H93 H 0.336269 0.488636 0.391893
H94 H 0.313143 0.562306 0.466837
C95 C 0.2206(5) 0.4980(4) 0.5126(5)
H95 H 0.229811 0.436839 0.499171
H96 H 0.207034 0.510007 0.574275
C96 C 0.1302(5) 0.5629(4) 0.5021(5)
H97 H 0.073936 0.5485 0.533069
H98 H 0.145866 0.555115 0.439609
C97 C 0.0966(5) 0.6603(4) 0.5365(5)
H99 H 0.150459 0.676133 0.503847
H100 H 0.081331 0.668545 0.598241
H101 H 0.036375 0.698655 0.529367
H73? H 0.854944 0.282761 -0.113045
H74? H 0.776638 0.253154 -0.120139
C73? C 0.845(2) 0.1802(18) -0.0441(19)
H75? H 0.909898 0.136634 -0.090208
H76? H 0.798567 0.154336 -0.025103
H77? H 0.855491 0.195939 0.005301
H102? H 0.333451 0.552667 0.434279
H103? H 0.31672 0.471925 0.407081
C98? C 0.240(2) 0.530(2) 0.522(2)
H104? H 0.244697 0.557121 0.570038
H105? H 0.224865 0.479388 0.540071
C99? C 0.1572(19) 0.597(2) 0.5051(19)
H106? H 0.15945 0.572961 0.451187
H107? H 0.165966 0.651684 0.496961
C100? C 0.0548(18) 0.620(3) 0.583(2)
H108? H 0.002236 0.673389 0.577759
H109? H 0.057989 0.631413 0.637243
H110? H 0.039261 0.569832 0.582129
loop_
_geom_bond_atom_site_label_1
_geom_bond_atom_site_label_2
_geom_bond_site_symmetry_1
_geom_bond_site_symmetry_2
C1 C2 1_555 1_555
C2 H1 1_555 1_555
C3 C2 1_555 1_555
H2 C3 1_555 1_555
C4 C3 1_555 1_555
H3 C4 1_555 1_555
C5 C4 1_555 1_555
C6 C5 1_555 1_555
H4 C6 1_555 1_555
C7 C6 1_555 1_555
H5 C7 1_555 1_555
C8 C7 1_555 1_555
H6 C8 1_555 1_555
C9 C8 1_555 1_555
H7 C9 1_555 1_555
C10 C1 1_555 1_555
C11 C1 1_555 1_555
H8 C11 1_555 1_555
O1 C11 1_555 1_555
H9 O1 1_555 1_555
C12 C11 1_555 1_555
H10 C12 1_555 1_555
C13 C12 1_555 1_555
C14 C13 1_555 1_555
H11 C14 1_555 1_555
C15 C14 1_555 1_555
H12 C15 1_555 1_555
C16 C15 1_555 1_555
H13 C16 1_555 1_555
C17 C16 1_555 1_555
H14 C17 1_555 1_555
C18 C13 1_555 1_555
C19 C18 1_555 1_555
H15 C19 1_555 1_555
C20 C12 1_555 1_555
C21 C20 1_555 1_555
H16 C21 1_555 1_555
H17 C21 1_555 1_555
C22 C21 1_555 1_555
H18 C22 1_555 1_555
H19 C22 1_555 1_555
C23 C22 1_555 1_555
H20 C23 1_555 1_555
H21 C23 1_555 1_555
C24 C23 1_555 1_555
H22 C24 1_555 1_555
H23 C24 1_555 1_555
H24 C24 1_555 1_555
C25 C26 1_555 1_555
C26 H25 1_555 1_555
C27 C26 1_555 1_555
H26 C27 1_555 1_555
C28 C27 1_555 1_555
H27 C28 1_555 1_555
C29 C28 1_555 1_555
C30 C29 1_555 1_555
H28 C30 1_555 1_555
C31 C30 1_555 1_555
H29 C31 1_555 1_555
C32 C31 1_555 1_555
H30 C32 1_555 1_555
C33 C32 1_555 1_555
H31 C33 1_555 1_555
C34 C25 1_555 1_555
C35 C25 1_555 1_555
H32 C35 1_555 1_555
O2 C35 1_555 1_555
H33 O2 1_555 1_555
C36 C35 1_555 1_555
H34 C36 1_555 1_555
C37 C36 1_555 1_555
C38 C37 1_555 1_555
H35 C38 1_555 1_555
C39 C38 1_555 1_555
H36 C39 1_555 1_555
C40 C39 1_555 1_555
H37 C40 1_555 1_555
C41 C40 1_555 1_555
H38 C41 1_555 1_555
C42 C37 1_555 1_555
C43 C42 1_555 1_555
H39 C43 1_555 1_555
C44 C36 1_555 1_555
C45 C44 1_555 1_555
H40 C45 1_555 1_555
H41 C45 1_555 1_555
C46 C45 1_555 1_555
H42 C46 1_555 1_555
H43 C46 1_555 1_555
C47 C46 1_555 1_555
H44 C47 1_555 1_555
H45 C47 1_555 1_555
C48 C47 1_555 1_555
H46 C48 1_555 1_555
H47 C48 1_555 1_555
H48 C48 1_555 1_555
C49 C50 1_555 1_555
C50 H49 1_555 1_555
C51 C50 1_555 1_555
H50 C51 1_555 1_555
C52 C51 1_555 1_555
H51 C52 1_555 1_555
C53 C52 1_555 1_555
C54 C53 1_555 1_555
H52 C54 1_555 1_555
C55 C54 1_555 1_555
H53 C55 1_555 1_555
C56 C55 1_555 1_555
H54 C56 1_555 1_555
C57 C56 1_555 1_555
H55 C57 1_555 1_555
C58 C49 1_555 1_555
C59 C49 1_555 1_555
H56 C59 1_555 1_555
O3 C59 1_555 1_555
H57 O3 1_555 1_555
C60 C59 1_555 1_555
H58 C60 1_555 1_555
C61 C60 1_555 1_555
C62 C61 1_555 1_555
H59 C62 1_555 1_555
C63 C62 1_555 1_555
H60 C63 1_555 1_555
C64 C63 1_555 1_555
H61 C64 1_555 1_555
C65 C64 1_555 1_555
H62 C65 1_555 1_555
C66 C61 1_555 1_555
C67 C66 1_555 1_555
H63 C67 1_555 1_555
C68 C60 1_555 1_555
C69 C68 1_555 1_555
H64 C69 1_555 1_555
H65 C69 1_555 1_555
C70 C69 1_555 1_555
H66 C70 1_555 1_555
H67 C70 1_555 1_555
C71 C70 1_555 1_555
H68 C71 1_555 1_555
H69 C71 1_555 1_555
C72 C71 1_555 1_555
H70 C72 1_555 1_555
H71 C72 1_555 1_555
H72 C72 1_555 1_555
C74 C75 1_555 1_555
C75 H78 1_555 1_555
C76 C75 1_555 1_555
H79 C76 1_555 1_555
C77 C76 1_555 1_555
H80 C77 1_555 1_555
C78 C77 1_555 1_555
C79 C78 1_555 1_555
H81 C79 1_555 1_555
C80 C79 1_555 1_555
H82 C80 1_555 1_555
C81 C80 1_555 1_555
H83 C81 1_555 1_555
C82 C81 1_555 1_555
H84 C82 1_555 1_555
C83 C74 1_555 1_555
C84 C74 1_555 1_555
H85 C84 1_555 1_555
O4 C84 1_555 1_555
H86 O4 1_555 1_555
C85 C84 1_555 1_555
H87 C85 1_555 1_555
C86 C85 1_555 1_555
C87 C86 1_555 1_555
H88 C87 1_555 1_555
C88 C87 1_555 1_555
H89 C88 1_555 1_555
C89 C88 1_555 1_555
H90 C89 1_555 1_555
C90 C89 1_555 1_555
H91 C90 1_555 1_555
C91 C86 1_555 1_555
C92 C91 1_555 1_555
H92 C92 1_555 1_555
C93 C85 1_555 1_555
C94 C93 1_555 1_555
H93 C94 1_555 1_555
H94 C94 1_555 1_555
C95 C94 1_555 1_555
H95 C95 1_555 1_555
H96 C95 1_555 1_555
C96 C95 1_555 1_555
H97 C96 1_555 1_555
H98 C96 1_555 1_555
C97 C96 1_555 1_555
H99 C97 1_555 1_555
H100 C97 1_555 1_555
H101 C97 1_555 1_555
C5 C10 1_555 1_555
C9 C10 1_555 1_555
C17 C18 1_555 1_555
C19 C20 1_555 1_555
C29 C34 1_555 1_555
C33 C34 1_555 1_555
C41 C42 1_555 1_555
C43 C44 1_555 1_555
C53 C58 1_555 1_555
C57 C58 1_555 1_555
C65 C66 1_555 1_555
C67 C68 1_555 1_555
C78 C83 1_555 1_555
C82 C83 1_555 1_555
C90 C91 1_555 1_555
C92 C93 1_555 1_555

#END
