
#######################################################################
#
#                 Cambridge Crystallographic Data Centre
#                                CCDC 
#
#######################################################################
#
# If this CIF has been generated from an entry in the Cambridge 
# Structural Database, then it will include bibliographic, chemical, 
# crystal, experimental, refinement or atomic coordinate data resulting 
# from the CCDC's data processing and validation procedures.
#
#######################################################################

data_ZIDCUN
_chemical_formula_moiety         'C17 H14 O1'
_chemical_name_systematic        2-ethyl-3-phenyl-1H-inden-1-one
_symmetry_cell_setting           triclinic
_symmetry_space_group_name_H-M   'P -1'
_symmetry_Int_Tables_number      2
_space_group_name_Hall           '-P 1'
loop_
_symmetry_equiv_pos_site_id
_symmetry_equiv_pos_as_xyz
1 x,y,z
2 -x,-y,-z
_cell_length_a                   8.166(4)
_cell_length_b                   9.066(5)
_cell_length_c                   9.404(6)
_cell_angle_alpha                85.402(19)
_cell_angle_beta                 75.824(17)
_cell_angle_gamma                71.601(17)
_cell_volume                     640.497
_exptl_crystal_colour            yellow
_exptl_crystal_description       block
_cell_formula_units_Z            2
loop_
_atom_site_label
_atom_site_type_symbol
_atom_site_fract_x
_atom_site_fract_y
_atom_site_fract_z
C1 C 1.19601(16) 0.79561(15) 0.42309(16)
C2 C 1.05494(16) 0.81136(14) 0.34225(15)
C3 C 1.05419(19) 0.83739(16) 0.19656(15)
H1 H 1.1527 0.8514 0.1293
C4 C 0.9011(2) 0.84232(17) 0.15213(16)
H2 H 0.8973 0.8595 0.0540
C5 C 0.75629(19) 0.82180(17) 0.25290(16)
H3 H 0.6556 0.8252 0.2215
C6 C 0.75685(17) 0.79595(15) 0.40135(15)
H4 H 0.6580 0.7828 0.4686
C7 C 0.90764(16) 0.79051(14) 0.44541(13)
C8 C 0.95279(16) 0.76085(14) 0.59192(14)
C9 C 1.12037(17) 0.76445(15) 0.57995(15)
C10 C 0.82812(16) 0.73224(15) 0.72643(13)
C11 C 0.87412(19) 0.59707(16) 0.80773(16)
H5 H 0.9841 0.5231 0.7768
C12 C 0.7580(2) 0.57140(18) 0.93423(16)
H6 H 0.7904 0.4802 0.9875
C13 C 0.59459(19) 0.68004(18) 0.98211(15)
H7 H 0.5171 0.6628 1.0676
C14 C 0.54734(19) 0.81408(17) 0.90222(16)
H8 H 0.4376 0.8881 0.9343
C15 C 0.66206(18) 0.83976(16) 0.77436(16)
H9 H 0.6276 0.9298 0.7201
C16 C 1.22229(19) 0.74766(18) 0.69548(17)
H10 H 1.1416 0.7538 0.7911
H11 H 1.2704 0.8339 0.6872
C17 C 1.3736(2) 0.59615(19) 0.68592(19)
H12 H 1.3271 0.5100 0.6954
H13 H 1.4326 0.5921 0.7634
H14 H 1.4565 0.5907 0.5929
O1 O 1.34407(12) 0.80611(13) 0.37171(13)
loop_
_geom_bond_atom_site_label_1
_geom_bond_atom_site_label_2
_geom_bond_site_symmetry_1
_geom_bond_site_symmetry_2
C1 C2 1_555 1_555
C2 C3 1_555 1_555
C3 H1 1_555 1_555
C4 C3 1_555 1_555
H2 C4 1_555 1_555
C5 C4 1_555 1_555
H3 C5 1_555 1_555
C6 C5 1_555 1_555
H4 C6 1_555 1_555
C7 C2 1_555 1_555
C8 C7 1_555 1_555
C9 C1 1_555 1_555
C10 C8 1_555 1_555
C11 C10 1_555 1_555
H5 C11 1_555 1_555
C12 C11 1_555 1_555
H6 C12 1_555 1_555
C13 C12 1_555 1_555
H7 C13 1_555 1_555
C14 C13 1_555 1_555
H8 C14 1_555 1_555
C15 C10 1_555 1_555
H9 C15 1_555 1_555
C16 C9 1_555 1_555
H10 C16 1_555 1_555
H11 C16 1_555 1_555
C17 C16 1_555 1_555
H12 C17 1_555 1_555
H13 C17 1_555 1_555
H14 C17 1_555 1_555
O1 C1 1_555 1_555
C6 C7 1_555 1_555
C8 C9 1_555 1_555
C14 C15 1_555 1_555

#END
