
#######################################################################
#
#                 Cambridge Crystallographic Data Centre
#                                CCDC 
#
#######################################################################
#
# If this CIF has been generated from an entry in the Cambridge 
# Structural Database, then it will include bibliographic, chemical, 
# crystal, experimental, refinement or atomic coordinate data resulting 
# from the CCDC's data processing and validation procedures.
#
#######################################################################

data_ZIDDEY
_chemical_formula_moiety         'C31 H20 O1'
_chemical_name_systematic        
6-(naphthalen-1-yl)-2,3-diphenyl-1H-inden-1-one
_symmetry_cell_setting           triclinic
_symmetry_space_group_name_H-M   'P -1'
_symmetry_Int_Tables_number      2
_space_group_name_Hall           '-P 1'
loop_
_symmetry_equiv_pos_site_id
_symmetry_equiv_pos_as_xyz
1 x,y,z
2 -x,-y,-z
_cell_length_a                   8.4085(15)
_cell_length_b                   9.3500(16)
_cell_length_c                   14.153(3)
_cell_angle_alpha                105.907(10)
_cell_angle_beta                 95.411(18)
_cell_angle_gamma                97.753(13)
_cell_volume                     1050.2
_exptl_crystal_colour            colorless
_exptl_crystal_description       Prism
_cell_formula_units_Z            2
loop_
_atom_site_label
_atom_site_type_symbol
_atom_site_fract_x
_atom_site_fract_y
_atom_site_fract_z
O1 O 1.08591(12) 0.09743(11) 0.34313(7)
C1 C 1.00558(16) 0.16894(14) 0.39978(10)
C2 C 1.04950(15) 0.23898(14) 0.50957(10)
C3 C 0.92235(15) 0.30308(14) 0.54487(10)
C4 C 0.79032(15) 0.28141(14) 0.46164(9)
C5 C 0.84110(16) 0.20372(15) 0.37357(10)
C6 C 0.74385(16) 0.16362(15) 0.28422(10)
H1 H 0.7821 0.1129 0.2251
C7 C 0.58539(16) 0.19888(15) 0.28128(10)
C8 C 0.53441(16) 0.27252(15) 0.36940(10)
H2 H 0.4273 0.2946 0.3679
C9 C 0.63482(16) 0.31527(15) 0.46015(10)
H3 H 0.5975 0.3664 0.5195
C10 C 0.47176(17) 0.15182(16) 0.18658(10)
C11 C 0.33199(17) 0.05098(16) 0.17591(11)
H4 H 0.3097 0.0121 0.2295
C12 C 0.22102(18) 0.00332(18) 0.08863(12)
H5 H 0.1263 -0.0681 0.0831
C13 C 0.25014(19) 0.06083(18) 0.01090(12)
H6 H 0.1747 0.0295 -0.0481
C14 C 0.39171(17) 0.16614(16) 0.01849(10)
C15 C 0.4246(2) 0.22913(19) -0.05933(11)
H7 H 0.3500 0.1990 -0.1187
C16 C 0.5591(2) 0.33091(19) -0.05153(12)
H8 H 0.5780 0.3719 -0.1047
C17 C 0.6701(2) 0.37546(18) 0.03501(11)
H9 H 0.7643 0.4472 0.0400
C18 C 0.64705(17) 0.31897(15) 0.11264(10)
H10 H 0.7250 0.3508 0.1706
C19 C 0.50533(17) 0.21159(16) 0.10685(10)
C20 C 1.20628(15) 0.23849(14) 0.56490(10)
C21 C 1.27775(16) 0.10849(15) 0.54619(10)
H11 H 1.2282 0.0211 0.4943
C22 C 1.42065(16) 0.10674(16) 0.60310(10)
H12 H 1.4672 0.0174 0.5907
C23 C 1.49573(16) 0.23354(16) 0.67745(10)
H13 H 1.5925 0.2309 0.7170
C24 C 1.42939(16) 0.36541(16) 0.69443(10)
H14 H 1.4826 0.4539 0.7442
C25 C 1.28606(15) 0.36746(15) 0.63872(10)
H15 H 1.2411 0.4577 0.6507
C26 C 0.90833(15) 0.37918(14) 0.64899(9)
C27 C 0.94324(16) 0.31233(15) 0.72383(10)
H16 H 0.9755 0.2160 0.7078
C28 C 0.93093(17) 0.38605(17) 0.82091(10)
H17 H 0.9535 0.3396 0.8714
C29 C 0.88582(18) 0.52778(18) 0.84537(11)
H18 H 0.8788 0.5785 0.9125
C30 C 0.85119(17) 0.59494(17) 0.77200(11)
H19 H 0.8213 0.6923 0.7887
C31 C 0.86010(15) 0.52042(15) 0.67439(10)
H20 H 0.8331 0.5657 0.6239
loop_
_geom_bond_atom_site_label_1
_geom_bond_atom_site_label_2
_geom_bond_site_symmetry_1
_geom_bond_site_symmetry_2
O1 C1 1_555 1_555
C1 C2 1_555 1_555
C2 C3 1_555 1_555
C3 C4 1_555 1_555
C4 C5 1_555 1_555
C5 C1 1_555 1_555
C6 C5 1_555 1_555
H1 C6 1_555 1_555
C7 C6 1_555 1_555
C8 C7 1_555 1_555
H2 C8 1_555 1_555
C9 C4 1_555 1_555
H3 C9 1_555 1_555
C10 C7 1_555 1_555
C11 C10 1_555 1_555
H4 C11 1_555 1_555
C12 C11 1_555 1_555
H5 C12 1_555 1_555
C13 C12 1_555 1_555
H6 C13 1_555 1_555
C14 C13 1_555 1_555
C15 C14 1_555 1_555
H7 C15 1_555 1_555
C16 C15 1_555 1_555
H8 C16 1_555 1_555
C17 C16 1_555 1_555
H9 C17 1_555 1_555
C18 C17 1_555 1_555
H10 C18 1_555 1_555
C19 C10 1_555 1_555
C20 C2 1_555 1_555
C21 C20 1_555 1_555
H11 C21 1_555 1_555
C22 C21 1_555 1_555
H12 C22 1_555 1_555
C23 C22 1_555 1_555
H13 C23 1_555 1_555
C24 C23 1_555 1_555
H14 C24 1_555 1_555
C25 C20 1_555 1_555
H15 C25 1_555 1_555
C26 C3 1_555 1_555
C27 C26 1_555 1_555
H16 C27 1_555 1_555
C28 C27 1_555 1_555
H17 C28 1_555 1_555
C29 C28 1_555 1_555
H18 C29 1_555 1_555
C30 C29 1_555 1_555
H19 C30 1_555 1_555
C31 C26 1_555 1_555
H20 C31 1_555 1_555
C8 C9 1_555 1_555
C14 C19 1_555 1_555
C18 C19 1_555 1_555
C24 C25 1_555 1_555
C30 C31 1_555 1_555

#END
