
#######################################################################
#
#                 Cambridge Crystallographic Data Centre
#                                CCDC 
#
#######################################################################
#
# If this CIF has been generated from an entry in the Cambridge 
# Structural Database, then it will include bibliographic, chemical, 
# crystal, experimental, refinement or atomic coordinate data resulting 
# from the CCDC's data processing and validation procedures.
#
#######################################################################

data_ZIDDAU
_chemical_formula_moiety         'C27 H18 O1'
_chemical_name_systematic        2,3,6-triphenyl-1H-inden-1-one
_symmetry_cell_setting           triclinic
_symmetry_space_group_name_H-M   'P -1'
_symmetry_Int_Tables_number      2
_space_group_name_Hall           '-P 1'
loop_
_symmetry_equiv_pos_site_id
_symmetry_equiv_pos_as_xyz
1 x,y,z
2 -x,-y,-z
_cell_length_a                   9.603(3)
_cell_length_b                   10.694(4)
_cell_length_c                   10.7294(16)
_cell_angle_alpha                70.55(5)
_cell_angle_beta                 64.18(5)
_cell_angle_gamma                81.02(6)
_cell_volume                     935.167
_exptl_crystal_colour            colorless
_exptl_crystal_description       Prism
_cell_formula_units_Z            2
loop_
_atom_site_label
_atom_site_type_symbol
_atom_site_fract_x
_atom_site_fract_y
_atom_site_fract_z
O1 O 0.80423(16) 0.50209(13) 0.28061(13)
C1 C 0.7924(2) 0.51708(18) 0.39272(19)
C2 C 0.72321(19) 0.42209(17) 0.54308(18)
C3 C 0.73823(18) 0.47483(17) 0.63604(18)
C4 C 0.81185(18) 0.60775(17) 0.55432(17)
C5 C 0.84628(19) 0.63309(17) 0.40767(18)
C6 C 0.90756(19) 0.75099(18) 0.30589(19)
H1 H 0.9322 0.7644 0.2065
C7 C 0.93347(18) 0.85173(17) 0.35028(18)
C8 C 0.89842(19) 0.82597(18) 0.49747(19)
H2 H 0.9160 0.8930 0.5288
C9 C 0.83839(19) 0.70468(18) 0.59964(19)
H3 H 0.8162 0.6892 0.6989
C10 C 0.99638(19) 0.98196(18) 0.24491(19)
C11 C 0.9391(2) 1.09989(18) 0.2802(2)
H4 H 0.8574 1.0968 0.3722
C12 C 1.0003(2) 1.2210(2) 0.1826(2)
H5 H 0.9601 1.3004 0.2079
C13 C 1.1200(2) 1.2269(2) 0.0480(2)
H6 H 1.1624 1.3100 -0.0187
C14 C 1.1768(2) 1.1114(2) 0.0117(2)
H7 H 1.2591 1.1151 -0.0801
C15 C 1.1152(2) 0.99020(19) 0.10775(19)
H8 H 1.1540 0.9116 0.0803
C16 C 0.65515(19) 0.29524(17) 0.57360(18)
C17 C 0.5597(2) 0.28847(18) 0.5077(2)
H9 H 0.5440 0.3651 0.4382
C18 C 0.4886(2) 0.1722(2) 0.5426(2)
H10 H 0.4224 0.1696 0.4986
C19 C 0.5125(2) 0.0589(2) 0.6410(2)
H11 H 0.4623 -0.0211 0.6655
C20 C 0.6108(2) 0.06291(19) 0.7039(2)
H12 H 0.6293 -0.0151 0.7703
C21 C 0.6812(2) 0.17947(18) 0.67043(19)
H13 H 0.7483 0.1812 0.7138
C22 C 0.68591(19) 0.41924(17) 0.79543(18)
C23 C 0.5417(2) 0.35976(18) 0.88193(19)
H14 H 0.4763 0.3545 0.8382
C24 C 0.4931(2) 0.3086(2) 1.0297(2)
H15 H 0.3947 0.2682 1.0871
C25 C 0.5857(3) 0.3155(2) 1.0952(2)
H16 H 0.5515 0.2794 1.1974
C26 C 0.7288(3) 0.3752(2) 1.0122(2)
H17 H 0.7926 0.3807 1.0574
C27 C 0.7788(2) 0.42682(18) 0.8630(2)
H18 H 0.8770 0.4677 0.8062
loop_
_geom_bond_atom_site_label_1
_geom_bond_atom_site_label_2
_geom_bond_site_symmetry_1
_geom_bond_site_symmetry_2
O1 C1 1_555 1_555
C1 C2 1_555 1_555
C2 C3 1_555 1_555
C3 C4 1_555 1_555
C4 C5 1_555 1_555
C5 C1 1_555 1_555
C6 C5 1_555 1_555
H1 C6 1_555 1_555
C7 C6 1_555 1_555
C8 C7 1_555 1_555
H2 C8 1_555 1_555
C9 C4 1_555 1_555
H3 C9 1_555 1_555
C10 C7 1_555 1_555
C11 C10 1_555 1_555
H4 C11 1_555 1_555
C12 C11 1_555 1_555
H5 C12 1_555 1_555
C13 C12 1_555 1_555
H6 C13 1_555 1_555
C14 C13 1_555 1_555
H7 C14 1_555 1_555
C15 C10 1_555 1_555
H8 C15 1_555 1_555
C16 C2 1_555 1_555
C17 C16 1_555 1_555
H9 C17 1_555 1_555
C18 C17 1_555 1_555
H10 C18 1_555 1_555
C19 C18 1_555 1_555
H11 C19 1_555 1_555
C20 C19 1_555 1_555
H12 C20 1_555 1_555
C21 C16 1_555 1_555
H13 C21 1_555 1_555
C22 C3 1_555 1_555
C23 C22 1_555 1_555
H14 C23 1_555 1_555
C24 C23 1_555 1_555
H15 C24 1_555 1_555
C25 C24 1_555 1_555
H16 C25 1_555 1_555
C26 C25 1_555 1_555
H17 C26 1_555 1_555
C27 C22 1_555 1_555
H18 C27 1_555 1_555
C8 C9 1_555 1_555
C14 C15 1_555 1_555
C20 C21 1_555 1_555
C26 C27 1_555 1_555

#END
