
#######################################################################
#
#                 Cambridge Crystallographic Data Centre
#                                CCDC 
#
#######################################################################
#
# If this CIF has been generated from an entry in the Cambridge 
# Structural Database, then it will include bibliographic, chemical, 
# crystal, experimental, refinement or atomic coordinate data resulting 
# from the CCDC's data processing and validation procedures.
#
#######################################################################

data_ZIDJED
_chemical_formula_moiety         'C21 H19 N3 O2'
_chemical_name_systematic        
6-(Dimethylamino)-2-(2-(pyridin-4-yl)ethyl)-1H-benzo[de]isoquinoline-1,3(2H)-dione
_symmetry_cell_setting           monoclinic
_symmetry_space_group_name_H-M   'P 21/n'
_symmetry_Int_Tables_number      14
_space_group_name_Hall           '-P 2yn'
loop_
_symmetry_equiv_pos_site_id
_symmetry_equiv_pos_as_xyz
1 x,y,z
2 1/2-x,1/2+y,1/2-z
3 -x,-y,-z
4 1/2+x,1/2-y,1/2+z
_cell_length_a                   14.785(3)
_cell_length_b                   7.1200(14)
_cell_length_c                   17.076(3)
_cell_angle_alpha                90
_cell_angle_beta                 108.28(3)
_cell_angle_gamma                90
_cell_volume                     1706.86
_exptl_crystal_colour            yellow
_exptl_crystal_description       Plate
_cell_formula_units_Z            4
loop_
_atom_site_label
_atom_site_type_symbol
_atom_site_fract_x
_atom_site_fract_y
_atom_site_fract_z
O1 O 1.05191(6) 0.19285(14) 0.83988(5)
O2 O 0.74156(7) 0.35870(15) 0.78414(6)
N1 N 0.86960(8) 0.37269(16) 1.18128(7)
N2 N 0.89568(8) 0.26526(15) 0.81270(6)
N3 N 0.89189(11) 0.3097(2) 0.43280(8)
C1 C 0.89153(12) 0.1984(2) 1.22882(9)
H1 H 0.8322 0.1398 1.2306
H2 H 0.9320 0.2262 1.2851
H3 H 0.9251 0.1123 1.2026
C2 C 0.80356(11) 0.4893(2) 1.20771(9)
H4 H 0.7982 0.6127 1.1812
H5 H 0.8272 0.5046 1.2677
H6 H 0.7408 0.4289 1.1919
C3 C 0.85705(9) 0.36462(18) 1.09684(8)
C4 C 0.77381(9) 0.4243(2) 1.03821(8)
H7 H 0.7241 0.4760 1.0558
C5 C 0.76148(9) 0.40992(19) 0.95382(8)
H8 H 0.7028 0.4482 0.9152
C6 C 0.83289(9) 0.34112(18) 0.92557(7)
C7 C 0.92136(9) 0.29197(17) 0.98348(8)
C8 C 0.99850(9) 0.23897(17) 0.95580(7)
C9 C 1.08597(9) 0.19623(18) 1.01082(8)
H9 H 1.1370 0.1599 0.9914
C10 C 1.09981(9) 0.20641(19) 1.09577(8)
H10 H 1.1602 0.1760 1.1338
C11 C 1.02669(10) 0.26004(18) 1.12428(8)
H11 H 1.0378 0.2695 1.1820
C12 C 0.93493(9) 0.30161(18) 1.06954(8)
C13 C 0.81765(9) 0.32438(18) 0.83646(8)
C14 C 0.98656(9) 0.23042(18) 0.86679(8)
C15 C 0.88282(10) 0.24216(19) 0.72430(7)
H12 H 0.8152 0.2128 0.6949
H13 H 0.9219 0.1350 0.7166
C16 C 0.91148(10) 0.4191(2) 0.68677(8)
H14 H 0.8686 0.5239 0.6895
H15 H 0.9773 0.4553 0.7189
C17 C 0.90577(9) 0.38446(19) 0.59823(8)
C18 C 0.97578(11) 0.2836(2) 0.57782(9)
H16 H 1.0297 0.2368 0.6198
C19 C 0.96570(13) 0.2524(2) 0.49534(10)
H17 H 1.0149 0.1854 0.4827
C20 C 0.82532(12) 0.4061(2) 0.45319(9)
H18 H 0.7717 0.4494 0.4099
C21 C 0.82943(10) 0.4469(2) 0.53346(8)
H19 H 0.7800 0.5176 0.5440
loop_
_geom_bond_atom_site_label_1
_geom_bond_atom_site_label_2
_geom_bond_site_symmetry_1
_geom_bond_site_symmetry_2
O1 C14 1_555 1_555
O2 C13 1_555 1_555
N1 C1 1_555 1_555
N2 C13 1_555 1_555
N3 C19 1_555 1_555
C1 H1 1_555 1_555
H2 C1 1_555 1_555
H3 C1 1_555 1_555
C2 N1 1_555 1_555
H4 C2 1_555 1_555
H5 C2 1_555 1_555
H6 C2 1_555 1_555
C3 N1 1_555 1_555
C4 C3 1_555 1_555
H7 C4 1_555 1_555
C5 C4 1_555 1_555
H8 C5 1_555 1_555
C6 C5 1_555 1_555
C7 C6 1_555 1_555
C8 C7 1_555 1_555
C9 C8 1_555 1_555
H9 C9 1_555 1_555
C10 C9 1_555 1_555
H10 C10 1_555 1_555
C11 C10 1_555 1_555
H11 C11 1_555 1_555
C12 C3 1_555 1_555
C13 C6 1_555 1_555
C14 N2 1_555 1_555
C15 N2 1_555 1_555
H12 C15 1_555 1_555
H13 C15 1_555 1_555
C16 C15 1_555 1_555
H14 C16 1_555 1_555
H15 C16 1_555 1_555
C17 C16 1_555 1_555
C18 C17 1_555 1_555
H16 C18 1_555 1_555
C19 C18 1_555 1_555
H17 C19 1_555 1_555
C20 N3 1_555 1_555
H18 C20 1_555 1_555
C21 C17 1_555 1_555
H19 C21 1_555 1_555
C7 C12 1_555 1_555
C8 C14 1_555 1_555
C11 C12 1_555 1_555
C20 C21 1_555 1_555

#END
