
#######################################################################
#
#                 Cambridge Crystallographic Data Centre
#                                CCDC 
#
#######################################################################
#
# If this CIF has been generated from an entry in the Cambridge 
# Structural Database, then it will include bibliographic, chemical, 
# crystal, experimental, refinement or atomic coordinate data resulting 
# from the CCDC's data processing and validation procedures.
#
#######################################################################

data_ZIDPAD
_chemical_formula_moiety         'C45 H54 O6 P2,2(C7 H8)'
_chemical_name_systematic        
"5,11,17,23-Tetra-t-butyl-(26,27,28,29-bis(phosphato)methyl-P,P')calix(4)arene toluene solvate"
_symmetry_cell_setting           triclinic
_symmetry_space_group_name_H-M   'P -1'
_symmetry_Int_Tables_number      2
_space_group_name_Hall           '-P 1'
loop_
_symmetry_equiv_pos_site_id
_symmetry_equiv_pos_as_xyz
1 x,y,z
2 -x,-y,-z
_cell_length_a                   10.481(4)
_cell_length_b                   12.869(4)
_cell_length_c                   19.809(6)
_cell_angle_alpha                102.97(2)
_cell_angle_beta                 93.59(3)
_cell_angle_gamma                95.34(3)
_cell_volume                     2582.75
_exptl_crystal_colour            colorless
_chemical_melting_point          '388-390 deg.C'
_cell_formula_units_Z            2
loop_
_atom_site_label
_atom_site_type_symbol
_atom_site_fract_x
_atom_site_fract_y
_atom_site_fract_z
P1 P 0.5315(1) 0.3336(1) 0.8168(1)
P2 P 0.3372(1) 0.4595(1) 0.9002(1)
C1 C 0.5014(4) 0.4374(4) 0.8873(2)
O1 O 0.6638(3) 0.3424(3) 0.7989(2)
O2 O 0.3195(3) 0.5156(3) 0.9709(2)
O3 O 0.4859(3) 0.2256(3) 0.8378(2)
O4 O 0.2624(3) 0.3438(2) 0.8742(2)
O5 O 0.2956(3) 0.5191(2) 0.8423(2)
O6 O 0.4226(3) 0.3417(2) 0.7599(1)
C2 C 0.3954(4) 0.1410(4) 0.8008(3)
C3 C 0.4073(4) 0.0958(4) 0.7309(2)
C4 C 0.3222(5) 0.0064(4) 0.6991(3)
C5 C 0.2290(5) -0.0400(4) 0.7336(3)
C6 C 0.2200(5) 0.0108(4) 0.8027(3)
C7 C 0.3025(5) 0.1018(4) 0.8372(2)
C8 C 0.1462(5) -0.1438(4) 0.6984(3)
C9 C 0.0237(8) -0.1565(7) 0.7288(4)
C10 C 0.1080(8) -0.1452(6) 0.6234(4)
C11 C 0.2198(8) -0.2339(5) 0.6991(6)
C12 C 0.1515(5) 0.3044(4) 0.9015(2)
C13 C 0.1607(5) 0.2075(4) 0.9205(2)
C14 C 0.0533(5) 0.1646(4) 0.9456(2)
C15 C -0.0604(5) 0.2133(4) 0.9520(2)
C16 C -0.0628(5) 0.3102(4) 0.9326(2)
C17 C 0.0440(5) 0.3578(4) 0.9065(2)
C18 C -0.1766(5) 0.1611(4) 0.9803(3)
C19 C -0.1462(6) 0.1689(6) 1.0579(3)
C20 C -0.2016(6) 0.0421(5) 0.9440(3)
C21 C -0.2989(5) 0.2103(5) 0.9689(4)
C22 C 0.1888(4) 0.4863(3) 0.7916(2)
C23 C 0.0658(5) 0.4654(3) 0.8116(2)
C24 C -0.0375(5) 0.4477(4) 0.7614(3)
C25 C -0.0216(4) 0.4523(3) 0.6924(2)
C26 C 0.1050(4) 0.4679(3) 0.6754(2)
C27 C 0.2119(4) 0.4850(3) 0.7234(2)
C28 C -0.1391(5) 0.4428(4) 0.6411(3)
C29 C -0.1027(6) 0.4587(6) 0.5717(3)
C30 C -0.2181(5) 0.3357(4) 0.6321(3)
C31 C -0.2260(6) 0.5294(5) 0.6706(3)
C32 C 0.4257(4) 0.3187(3) 0.6873(2)
C33 C 0.3858(4) 0.3964(3) 0.6556(2)
C34 C 0.3816(4) 0.3730(4) 0.5833(2)
C35 C 0.4157(4) 0.2779(4) 0.5447(2)
C36 C 0.4550(4) 0.2043(4) 0.5802(2)
C37 C 0.4615(4) 0.2221(4) 0.6526(2)
C38 C 0.4087(5) 0.2559(4) 0.4650(2)
C39 C 0.2675(5) 0.2473(5) 0.4367(3)
C40 C 0.4610(6) 0.1513(4) 0.4330(3)
C41 C 0.4854(5) 0.3474(4) 0.4432(3)
C42 C 0.2840(5) 0.1530(4) 0.9128(2)
C43 C 0.0382(5) 0.4648(4) 0.8860(2)
C44 C 0.3461(4) 0.5001(3) 0.6983(2)
C45 C 0.5074(4) 0.1394(4) 0.6894(2)
H1 H 0.5385 0.4217 0.9290
H2 H 0.5450 0.5031 0.8808
H3 H 0.3280 -0.0250 0.6508
H4 H 0.1546 -0.0178 0.8277
H5 H 0.0400 -0.1564 0.7770
H6 H -0.0246 -0.2232 0.7048
H7 H -0.0251 -0.0983 0.7246
H8 H 0.1845 -0.1371 0.5996
H9 H 0.0574 -0.0872 0.6213
H10 H 0.0580 -0.2121 0.6016
H11 H 0.2455 -0.2351 0.7463
H12 H 0.2954 -0.2267 0.6745
H13 H 0.1673 -0.2995 0.6771
H14 H 0.0568 0.0979 0.9594
H15 H -0.1399 0.3458 0.9372
H16 H -0.1299 0.2430 1.0820
H17 H -0.0710 0.1333 1.0646
H18 H -0.2185 0.1353 1.0758
H19 H -0.1251 0.0079 0.9502
H20 H -0.2239 0.0348 0.8953
H21 H -0.2717 0.0089 0.9638
H22 H -0.2867 0.2854 0.9911
H23 H -0.3681 0.1755 0.9885
H24 H -0.3203 0.2015 0.9200
H25 H -0.1231 0.4316 0.7743
H26 H 0.1191 0.4667 0.6278
H27 H -0.0483 0.4053 0.5523
H28 H -0.0570 0.5288 0.5773
H29 H -0.1796 0.4520 0.5410
H30 H -0.1667 0.2794 0.6137
H31 H -0.2930 0.3318 0.6005
H32 H -0.2448 0.3275 0.6762
H33 H -0.1787 0.5991 0.6771
H34 H -0.2527 0.5195 0.7144
H35 H -0.3009 0.5238 0.6386
H36 H 0.3538 0.4252 0.5594
H37 H 0.4791 0.1377 0.5540
H38 H 0.2317 0.3125 0.4560
H39 H 0.2194 0.1881 0.4492
H40 H 0.2626 0.2358 0.3869
H41 H 0.5500 0.1544 0.4500
H42 H 0.4546 0.1405 0.3833
H43 H 0.4114 0.0929 0.4456
H44 H 0.4528 0.4138 0.4632
H45 H 0.4768 0.3354 0.3934
H46 H 0.5749 0.3509 0.4591
H47 H 0.3565 0.2055 0.9314
H48 H 0.2804 0.0981 0.9387
H49 H 0.1005 0.5167 0.9165
H50 H -0.0471 0.4857 0.8926
H51 H 0.4077 0.5261 0.7380
H52 H 0.3463 0.5519 0.6702
H53 H 0.5819 0.1720 0.7206
H54 H 0.5312 0.0806 0.6551
C46 C 0.0723(6) 0.8765(5) 0.3052(3)
C47 C -0.0465(6) 0.8248(5) 0.3138(4)
C48 C -0.0853(7) 0.8255(5) 0.3794(4)
C49 C -0.0058(7) 0.8766(5) 0.4363(4)
C50 C 0.1116(7) 0.9299(5) 0.4289(4)
C51 C 0.1489(6) 0.9305(4) 0.3638(3)
C52 C 0.1155(7) 0.8729(6) 0.2348(3)
H55 H -0.1026 0.7880 0.2736
H56 H -0.1680 0.7899 0.3846
H57 H -0.0314 0.8758 0.4819
H58 H 0.1673 0.9665 0.4694
H59 H 0.2298 0.9694 0.3591
H60 H 0.0501 0.8319 0.2003
H61 H 0.1945 0.8399 0.2303
H62 H 0.1300 0.9445 0.2281
C53 C 0.6900(7) 0.7268(6) 0.8662(4)
C54 C 0.7344(7) 0.7707(6) 0.8127(4)
C55 C 0.6548(10) 0.8340(9) 0.7843(5)
C56 C 0.5383(9) 0.8598(8) 0.8109(6)
C57 C 0.4959(9) 0.8116(12) 0.8630(7)
C58 C 0.5712(7) 0.7468(7) 0.8927(4)
C59 C 0.7689(10) 0.6635(6) 0.8960(5)
C60? C 0.6291(18) 0.7952(12) 0.8325(9)
C61? C 0.8177(12) 0.7202(23) 0.8493(12)
C62? C 0.6565(17) 0.6934(21) 0.9260(10)
loop_
_geom_bond_atom_site_label_1
_geom_bond_atom_site_label_2
_geom_bond_site_symmetry_1
_geom_bond_site_symmetry_2
P1 C1 1_555 1_555
P2 C1 1_555 1_555
C1 H1 1_555 1_555
O1 P1 1_555 1_555
O2 P2 1_555 1_555
O3 P1 1_555 1_555
O4 P2 1_555 1_555
O5 P2 1_555 1_555
O6 P1 1_555 1_555
C2 O3 1_555 1_555
C3 C2 1_555 1_555
C4 C3 1_555 1_555
C5 C4 1_555 1_555
C6 C5 1_555 1_555
C7 C2 1_555 1_555
C8 C5 1_555 1_555
C9 C8 1_555 1_555
C10 C8 1_555 1_555
C11 C8 1_555 1_555
C12 O4 1_555 1_555
C13 C12 1_555 1_555
C14 C13 1_555 1_555
C15 C14 1_555 1_555
C16 C15 1_555 1_555
C17 C12 1_555 1_555
C18 C15 1_555 1_555
C19 C18 1_555 1_555
C20 C18 1_555 1_555
C21 C18 1_555 1_555
C22 O5 1_555 1_555
C23 C22 1_555 1_555
C24 C23 1_555 1_555
C25 C24 1_555 1_555
C26 C25 1_555 1_555
C27 C22 1_555 1_555
C28 C25 1_555 1_555
C29 C28 1_555 1_555
C30 C28 1_555 1_555
C31 C28 1_555 1_555
C32 O6 1_555 1_555
C33 C32 1_555 1_555
C34 C33 1_555 1_555
C35 C34 1_555 1_555
C36 C35 1_555 1_555
C37 C32 1_555 1_555
C38 C35 1_555 1_555
C39 C38 1_555 1_555
C40 C38 1_555 1_555
C41 C38 1_555 1_555
C42 C7 1_555 1_555
C43 C17 1_555 1_555
C44 C27 1_555 1_555
C45 C3 1_555 1_555
H2 C1 1_555 1_555
H3 C4 1_555 1_555
H4 C6 1_555 1_555
H5 C9 1_555 1_555
H6 C9 1_555 1_555
H7 C9 1_555 1_555
H8 C10 1_555 1_555
H9 C10 1_555 1_555
H10 C10 1_555 1_555
H11 C11 1_555 1_555
H12 C11 1_555 1_555
H13 C11 1_555 1_555
H14 C14 1_555 1_555
H15 C16 1_555 1_555
H16 C19 1_555 1_555
H17 C19 1_555 1_555
H18 C19 1_555 1_555
H19 C20 1_555 1_555
H20 C20 1_555 1_555
H21 C20 1_555 1_555
H22 C21 1_555 1_555
H23 C21 1_555 1_555
H24 C21 1_555 1_555
H25 C24 1_555 1_555
H26 C26 1_555 1_555
H27 C29 1_555 1_555
H28 C29 1_555 1_555
H29 C29 1_555 1_555
H30 C30 1_555 1_555
H31 C30 1_555 1_555
H32 C30 1_555 1_555
H33 C31 1_555 1_555
H34 C31 1_555 1_555
H35 C31 1_555 1_555
H36 C34 1_555 1_555
H37 C36 1_555 1_555
H38 C39 1_555 1_555
H39 C39 1_555 1_555
H40 C39 1_555 1_555
H41 C40 1_555 1_555
H42 C40 1_555 1_555
H43 C40 1_555 1_555
H44 C41 1_555 1_555
H45 C41 1_555 1_555
H46 C41 1_555 1_555
H47 C42 1_555 1_555
H48 C42 1_555 1_555
H49 C43 1_555 1_555
H50 C43 1_555 1_555
H51 C44 1_555 1_555
H52 C44 1_555 1_555
H53 C45 1_555 1_555
H54 C45 1_555 1_555
C46 C47 1_555 1_555
C47 C48 1_555 1_555
C48 C49 1_555 1_555
C49 C50 1_555 1_555
C50 C51 1_555 1_555
C51 C46 1_555 1_555
C52 C46 1_555 1_555
H55 C47 1_555 1_555
H56 C48 1_555 1_555
H57 C49 1_555 1_555
H58 C50 1_555 1_555
H59 C51 1_555 1_555
H60 C52 1_555 1_555
H61 C52 1_555 1_555
H62 C52 1_555 1_555
C53 C54 1_555 1_555
C54 C55 1_555 1_555
C55 C56 1_555 1_555
C56 C57 1_555 1_555
C57 C58 1_555 1_555
C58 C53 1_555 1_555
C59 C53 1_555 1_555
C6 C7 1_555 1_555
C13 C42 1_555 1_555
C16 C17 1_555 1_555
C23 C43 1_555 1_555
C26 C27 1_555 1_555
C33 C44 1_555 1_555
C36 C37 1_555 1_555
C37 C45 1_555 1_555

#END
