
#######################################################################
#
#                 Cambridge Crystallographic Data Centre
#                                CCDC 
#
#######################################################################
#
# If this CIF has been generated from an entry in the Cambridge 
# Structural Database, then it will include bibliographic, chemical, 
# crystal, experimental, refinement or atomic coordinate data resulting 
# from the CCDC's data processing and validation procedures.
#
#######################################################################

data_ZIDQUB
_chemical_formula_moiety         'C13 H14 N3 O3 1+,C4 H4 N1 O4 S1 1-,H2 O1'
_chemical_name_systematic        'lenalidomide acesulfamate monohydrate'
_chemical_properties_biological  
'lenalidomide is a first line drug in the treatment of multiple myeloma, myelodysplastic syndromes and mantle cell lymphoma'
_symmetry_cell_setting           monoclinic
_symmetry_space_group_name_H-M   'P 21/c'
_symmetry_Int_Tables_number      14
_space_group_name_Hall           '-P 2ybc'
loop_
_symmetry_equiv_pos_site_id
_symmetry_equiv_pos_as_xyz
1 x,y,z
2 -x,1/2+y,1/2-z
3 -x,-y,-z
4 x,1/2-y,1/2+z
_cell_length_a                   17.5654(19)
_cell_length_b                   7.0424(8)
_cell_length_c                   16.9891(18)
_cell_angle_alpha                90
_cell_angle_beta                 111.866(2)
_cell_angle_gamma                90
_cell_volume                     1950.4
_exptl_crystal_colour            yellow
_exptl_crystal_description       Prism
_cell_formula_units_Z            4
loop_
_atom_site_label
_atom_site_type_symbol
_atom_site_fract_x
_atom_site_fract_y
_atom_site_fract_z
S1 S 0.75452(7) 0.05699(16) 0.36153(7)
O1 O 0.59017(19) 0.4096(4) 0.31542(19)
O2 O 0.8153(2) 0.1758(5) 0.4430(2)
O3 O 0.7613(2) -0.1315(5) 0.3933(3)
O4 O 0.7825(2) 0.0922(5) 0.2941(2)
N1 N 0.6650(2) 0.1386(5) 0.3438(2)
C1 C 0.6591(3) 0.3293(6) 0.3458(3)
C2 C 0.7319(3) 0.4447(7) 0.3884(3)
H1 H 0.727492 0.578657 0.381475
C3 C 0.8041(3) 0.3718(8) 0.4362(3)
C4 C 0.8797(3) 0.4759(11) 0.4892(5)
H2 H 0.923467 0.384534 0.517490
H3 H 0.897046 0.559866 0.453018
H4 H 0.868300 0.551604 0.531953
O5 O 0.6038(2) 0.7596(5) 0.69349(19)
O6 O 0.7855(2) 0.5295(5) 0.6217(2)
O7 O 1.0046(2) 0.8664(7) 0.7899(4)
N2 N 0.5468(2) 0.7951(6) 0.3227(2)
H5 H 0.582(4) 0.889(9) 0.335(4)
H6 H 0.499(4) 0.801(10) 0.268(4)
H7 H 0.579(5) 0.682(12) 0.326(5)
N3 N 0.6745(2) 0.8187(6) 0.6060(2)
N4 N 0.8932(3) 0.6997(6) 0.7089(3)
H8 H 0.925611 0.603356 0.710566
C5 C 0.5382(3) 0.7638(6) 0.5388(3)
C6 C 0.4568(3) 0.7184(7) 0.5215(3)
H9 H 0.436998 0.701996 0.566012
C7 C 0.4052(3) 0.6976(7) 0.4373(3)
H10 H 0.349250 0.664382 0.423360
C8 C 0.4354(3) 0.7255(6) 0.3732(3)
H11 H 0.399557 0.711315 0.315667
C9 C 0.5172(3) 0.7739(6) 0.3915(3)
C10 C 0.5695(2) 0.7921(6) 0.4755(3)
C11 C 0.6596(3) 0.8320(7) 0.5154(3)
H12 H 0.691900 0.736397 0.498470
H13 H 0.672809 0.960229 0.500254
C12 C 0.6065(3) 0.7790(7) 0.6224(3)
C13 C 0.7550(3) 0.8338(8) 0.6713(3)
H14 H 0.748312 0.816285 0.726822
C14 C 0.8103(3) 0.6727(7) 0.6634(3)
C15 C 0.9306(3) 0.8627(8) 0.7521(4)
C16 C 0.8771(3) 1.0254(8) 0.7508(4)
H15 H 0.906763 1.144483 0.749952
H16 H 0.865722 1.024346 0.803607
C17 C 0.7956(3) 1.0247(7) 0.6748(3)
H17 H 0.759636 1.127195 0.680922
H18 H 0.805342 1.046601 0.621756
O8 O 0.9853(11) 0.913(3) 0.5895(14)
H19 H 0.997375 0.797972 0.603349
H20 H 0.967665 0.932502 0.629109
O9? O 0.9954(5) 0.9803(16) 0.5421(9)
H21? H 0.956667 0.997516 0.494439
H22? H 1.003897 0.872296 0.524629
loop_
_geom_bond_atom_site_label_1
_geom_bond_atom_site_label_2
_geom_bond_site_symmetry_1
_geom_bond_site_symmetry_2
S1 O2 1_555 1_555
O1 C1 1_555 1_555
O2 C3 1_555 1_555
O3 S1 1_555 1_555
O4 S1 1_555 1_555
N1 S1 1_555 1_555
C1 N1 1_555 1_555
C2 C1 1_555 1_555
H1 C2 1_555 1_555
C3 C2 1_555 1_555
C4 C3 1_555 1_555
H2 C4 1_555 1_555
H3 C4 1_555 1_555
H4 C4 1_555 1_555
O5 C12 1_555 1_555
O6 C14 1_555 1_555
O7 C15 1_555 1_555
N2 H5 1_555 1_555
H6 N2 1_555 1_555
H7 N2 1_555 1_555
N3 C11 1_555 1_555
N4 H8 1_555 1_555
C5 C6 1_555 1_555
C6 H9 1_555 1_555
C7 C6 1_555 1_555
H10 C7 1_555 1_555
C8 C7 1_555 1_555
H11 C8 1_555 1_555
C9 N2 1_555 1_555
C10 C5 1_555 1_555
C11 C10 1_555 1_555
H12 C11 1_555 1_555
H13 C11 1_555 1_555
C12 N3 1_555 1_555
C13 N3 1_555 1_555
H14 C13 1_555 1_555
C14 N4 1_555 1_555
C15 N4 1_555 1_555
C16 C15 1_555 1_555
H15 C16 1_555 1_555
H16 C16 1_555 1_555
C17 C13 1_555 1_555
H17 C17 1_555 1_555
H18 C17 1_555 1_555
O8 H19 1_555 1_555
H20 O8 1_555 1_555
C5 C12 1_555 1_555
C8 C9 1_555 1_555
C9 C10 1_555 1_555
C13 C14 1_555 1_555
C16 C17 1_555 1_555

#END
