
#######################################################################
#
#                 Cambridge Crystallographic Data Centre
#                                CCDC 
#
#######################################################################
#
# If this CIF has been generated from an entry in the Cambridge 
# Structural Database, then it will include bibliographic, chemical, 
# crystal, experimental, refinement or atomic coordinate data resulting 
# from the CCDC's data processing and validation procedures.
#
#######################################################################

data_ZIDQUB01
_chemical_formula_moiety         'C13 H14 N3 O3 1+,C4 H4 N1 O4 S1 1-,H2 O1'
_chemical_name_systematic        'lenalidomide acesulfamate monohydrate'
_chemical_properties_biological  
'lenalidomide is a first line drug in the treatment of multiple myeloma, myelodysplastic syndromes and mantle cell lymphoma'
_symmetry_cell_setting           monoclinic
_symmetry_space_group_name_H-M   'P 21/c'
_symmetry_Int_Tables_number      14
_space_group_name_Hall           '-P 2ybc'
loop_
_symmetry_equiv_pos_site_id
_symmetry_equiv_pos_as_xyz
1 x,y,z
2 -x,1/2+y,1/2-z
3 -x,-y,-z
4 x,1/2-y,1/2+z
_cell_length_a                   17.6479(9)
_cell_length_b                   7.0505(3)
_cell_length_c                   17.0391(8)
_cell_angle_alpha                90
_cell_angle_beta                 112.162(6)
_cell_angle_gamma                90
_cell_volume                     1963.48
_exptl_crystal_colour            colorless
_exptl_crystal_description       block
_cell_formula_units_Z            4
loop_
_atom_site_label
_atom_site_type_symbol
_atom_site_fract_x
_atom_site_fract_y
_atom_site_fract_z
O1 O 0.10346(18) 0.2581(5) 0.69384(16)
O2 O 0.28551(19) 0.0282(4) 0.62369(18)
O3 O 0.5036(2) 0.3685(6) 0.7891(3)
N1 N 0.04668(19) 0.2954(5) 0.32346(17)
H1 H 0.081529 0.394102 0.334779
H2 H 0.004247 0.316497 0.274362
H3 H 0.072824 0.188780 0.319044
N2 N 0.1742(2) 0.3145(5) 0.60699(18)
N3 N 0.3925(2) 0.1999(5) 0.7091(2)
H4 H 0.421699 0.103393 0.707851
C1 C 0.0375(2) 0.2619(5) 0.5397(2)
C2 C -0.0427(2) 0.2184(6) 0.5216(2)
H5 H -0.062323 0.201554 0.565319
C3 C -0.0950(2) 0.1995(6) 0.4371(2)
H6 H -0.150311 0.168215 0.423152
C4 C -0.0646(2) 0.2272(5) 0.3734(2)
H7 H -0.099942 0.213766 0.316390
C5 C 0.0163(2) 0.2740(5) 0.3924(2)
C6 C 0.0691(2) 0.2893(5) 0.4764(2)
C7 C 0.1592(2) 0.3289(6) 0.5165(2)
H8 H 0.190921 0.234576 0.499595
H9 H 0.172260 0.455906 0.501817
C8 C 0.1067(2) 0.2771(6) 0.6234(2)
C9 C 0.2550(2) 0.3298(6) 0.6724(2)
H10 H 0.248757 0.311811 0.727258
C10 C 0.3098(2) 0.1716(6) 0.6647(2)
C11 C 0.4300(3) 0.3638(7) 0.7515(3)
C12 C 0.3766(3) 0.5256(7) 0.7503(3)
H11 H 0.405103 0.643558 0.747952
H12 H 0.367031 0.526234 0.803325
C13 C 0.2940(3) 0.5222(7) 0.6758(3)
H13 H 0.258291 0.621393 0.683080
H14 H 0.301815 0.546266 0.622721
O4 O 0.08998(16) 0.9107(4) 0.31545(15)
O5 O 0.31419(19) 0.6784(5) 0.44371(19)
O6 O 0.2810(2) 0.5900(5) 0.2961(2)
O7 O 0.2596(2) 0.3706(5) 0.3952(2)
N4 N 0.1646(2) 0.6406(5) 0.3447(2)
C14 C 0.1587(2) 0.8316(5) 0.3461(2)
C15 C 0.2315(3) 0.9457(6) 0.3881(3)
H15 H 0.227570 1.077904 0.380532
C16 C 0.3033(3) 0.8727(6) 0.4364(3)
C17 C 0.3787(3) 0.9782(9) 0.4887(4)
H16 H 0.419279 0.966740 0.463262
H17 H 0.400481 0.925569 0.545509
H18 H 0.365518 1.110980 0.491457
S1 S 0.25310(6) 0.55790(14) 0.36290(6)
O8 O 0.4851(13) 0.424(4) 0.5867(19)
H19 H 0.502488 0.536606 0.598666
H20 H 0.498458 0.336316 0.560026
O9? O 0.4971(7) 0.487(2) 0.5405(14)
H21? H 0.488504 0.417587 0.497121
H22? H 0.524544 0.576127 0.571871
loop_
_geom_bond_atom_site_label_1
_geom_bond_atom_site_label_2
_geom_bond_site_symmetry_1
_geom_bond_site_symmetry_2
O1 C8 1_555 1_555
O2 C10 1_555 1_555
O3 C11 1_555 1_555
N1 H1 1_555 1_555
H2 N1 1_555 1_555
H3 N1 1_555 1_555
N2 C7 1_555 1_555
N3 H4 1_555 1_555
C1 C2 1_555 1_555
C2 H5 1_555 1_555
C3 C2 1_555 1_555
H6 C3 1_555 1_555
C4 C3 1_555 1_555
H7 C4 1_555 1_555
C5 N1 1_555 1_555
C6 C1 1_555 1_555
C7 C6 1_555 1_555
H8 C7 1_555 1_555
H9 C7 1_555 1_555
C8 N2 1_555 1_555
C9 N2 1_555 1_555
H10 C9 1_555 1_555
C10 N3 1_555 1_555
C11 N3 1_555 1_555
C12 C11 1_555 1_555
H11 C12 1_555 1_555
H12 C12 1_555 1_555
C13 C9 1_555 1_555
H13 C13 1_555 1_555
H14 C13 1_555 1_555
O4 C14 1_555 1_555
O5 C16 1_555 1_555
O6 S1 1_555 1_555
O7 S1 1_555 1_555
N4 C14 1_555 1_555
C14 C15 1_555 1_555
C15 H15 1_555 1_555
C16 C15 1_555 1_555
C17 C16 1_555 1_555
H16 C17 1_555 1_555
H17 C17 1_555 1_555
H18 C17 1_555 1_555
S1 O5 1_555 1_555
O8 H19 1_555 1_555
H20 O8 1_555 1_555
C1 C8 1_555 1_555
C4 C5 1_555 1_555
C5 C6 1_555 1_555
C9 C10 1_555 1_555
C12 C13 1_555 1_555
N4 S1 1_555 1_555

#END
