
#######################################################################
#
#                 Cambridge Crystallographic Data Centre
#                                CCDC 
#
#######################################################################
#
# If this CIF has been generated from an entry in the Cambridge 
# Structural Database, then it will include bibliographic, chemical, 
# crystal, experimental, refinement or atomic coordinate data resulting 
# from the CCDC's data processing and validation procedures.
#
#######################################################################

data_ZIDVUF
_chemical_formula_moiety         'C62 H38 N8 S2,4(C1 H1 Cl3)'
_chemical_name_systematic        
"2,2',2'',2'''-(7,16-bis((4-t-butylphenyl)sulfanyl)heptacene-5,9,14,18-tetraylidene)tetramalononitrile chloroform solvate"
_symmetry_cell_setting           triclinic
_symmetry_space_group_name_H-M   'P -1'
_symmetry_Int_Tables_number      2
_space_group_name_Hall           '-P 1'
loop_
_symmetry_equiv_pos_site_id
_symmetry_equiv_pos_as_xyz
1 x,y,z
2 -x,-y,-z
_cell_length_a                   10.1259(11)
_cell_length_b                   11.1866(13)
_cell_length_c                   15.4918(17)
_cell_angle_alpha                102.087(2)
_cell_angle_beta                 91.163(2)
_cell_angle_gamma                105.935(2)
_cell_volume                     1644.33
_exptl_crystal_colour            red
_exptl_crystal_description       Block
_cell_formula_units_Z            1
loop_
_atom_site_label
_atom_site_type_symbol
_atom_site_fract_x
_atom_site_fract_y
_atom_site_fract_z
S1 S 1.12318(6) 0.06599(6) 0.32180(4)
N1 N 0.5182(3) 0.4505(3) 0.75215(18)
N2 N 0.8735(3) 0.3258(3) 0.78926(17)
N3 N 1.1310(2) 0.4366(2) 0.37767(17)
N4 N 0.8282(3) 0.6342(2) 0.36606(18)
C1 C 1.0531(3) 0.0280(2) 0.41987(17)
C2 C 0.9618(3) 0.0915(2) 0.46214(17)
C3 C 0.9206(3) 0.1843(2) 0.42683(17)
H1 H 0.9537 0.2023 0.3726
C4 C 0.8348(3) 0.2483(2) 0.46867(17)
C5 C 0.7901(3) 0.3454(2) 0.43464(17)
C6 C 0.6454(3) 0.3426(2) 0.44701(17)
C7 C 0.5631(3) 0.3662(3) 0.38335(18)
H2 H 0.6017 0.3919 0.3325
C8 C 0.4244(3) 0.3520(3) 0.39440(19)
H3 H 0.3676 0.3665 0.3504
C9 C 0.3685(3) 0.3172(3) 0.46904(19)
H4 H 0.2733 0.3074 0.4758
C10 C 0.4496(3) 0.2962(2) 0.53430(18)
H5 H 0.4105 0.2737 0.5859
C11 C 0.5888(3) 0.3083(2) 0.52373(18)
C12 C 0.6816(3) 0.2859(2) 0.58902(18)
C13 C 0.7807(3) 0.2202(2) 0.54961(17)
C14 C 0.8165(3) 0.1298(2) 0.58439(17)
H6 H 0.7793 0.1108 0.6374
C15 C 0.9084(3) 0.0634(2) 0.54303(17)
C16 C 0.9868(3) -0.0231(3) 0.23958(18)
C17 C 0.9850(3) 0.0192(3) 0.1618(2)
H7 H 1.0527 0.0935 0.1548
C18 C 0.8832(4) -0.0482(3) 0.0944(2)
H8 H 0.8827 -0.0183 0.0414
C19 C 0.7824(3) -0.1574(3) 0.1010(2)
C20 C 0.7884(3) -0.1976(3) 0.1796(2)
H9 H 0.7211 -0.2723 0.1865
C21 C 0.8893(3) -0.1325(3) 0.2483(2)
H10 H 0.8910 -0.1631 0.3010
C22 C 0.6737(4) -0.2307(3) 0.0245(2)
C23 C 0.7385(5) -0.3123(5) -0.0427(3)
H11 H 0.7705 -0.3710 -0.0143
H12 H 0.8169 -0.2572 -0.0650
H13 H 0.6701 -0.3613 -0.0921
C24 C 0.5486(4) -0.3174(4) 0.0556(2)
H14 H 0.5778 -0.3781 0.0833
H15 H 0.4821 -0.3642 0.0047
H16 H 0.5054 -0.2658 0.0987
C25 C 0.6225(5) -0.1384(5) -0.0190(3)
H17 H 0.7008 -0.0810 -0.0397
H18 H 0.5782 -0.0882 0.0243
H19 H 0.5559 -0.1871 -0.0695
C26 C 0.6818(3) 0.3272(2) 0.67743(18)
C27 C 0.5888(3) 0.3953(3) 0.71744(18)
C28 C 0.7888(3) 0.3233(3) 0.73913(19)
C29 C 0.8778(3) 0.4331(3) 0.39798(17)
C30 C 0.8453(3) 0.5422(3) 0.37770(18)
C31 C 1.0185(3) 0.4338(2) 0.38649(18)
S1A S 0.87682(6) -0.06599(6) 0.67820(4)
N1A N 1.4818(3) -0.4505(3) 0.24785(18)
N2A N 1.1265(3) -0.3258(3) 0.21074(17)
N3A N 0.8690(2) -0.4366(2) 0.62233(17)
N4A N 1.1718(3) -0.6342(2) 0.63394(18)
C1A C 0.9469(3) -0.0280(2) 0.58013(17)
C2A C 1.0382(3) -0.0915(2) 0.53786(17)
C3A C 1.0794(3) -0.1843(2) 0.57317(17)
H1A H 1.0463 -0.2023 0.6274
C4A C 1.1652(3) -0.2483(2) 0.53133(17)
C5A C 1.2099(3) -0.3454(2) 0.56536(17)
C6A C 1.3546(3) -0.3426(2) 0.55299(17)
C7A C 1.4369(3) -0.3662(3) 0.61665(18)
H2A H 1.3983 -0.3919 0.6675
C8A C 1.5756(3) -0.3520(3) 0.60560(19)
H3A H 1.6324 -0.3665 0.6496
C9A C 1.6315(3) -0.3172(3) 0.53096(19)
H4A H 1.7267 -0.3074 0.5242
C10A C 1.5504(3) -0.2962(2) 0.46570(18)
H5A H 1.5895 -0.2737 0.4141
C11A C 1.4112(3) -0.3083(2) 0.47627(18)
C12A C 1.3184(3) -0.2859(2) 0.41098(18)
C13A C 1.2193(3) -0.2202(2) 0.45039(17)
C14A C 1.1835(3) -0.1298(2) 0.41561(17)
H6A H 1.2207 -0.1108 0.3626
C15A C 1.0916(3) -0.0634(2) 0.45697(17)
C16A C 1.0132(3) 0.0231(3) 0.76042(18)
C17A C 1.0150(3) -0.0192(3) 0.8382(2)
H7A H 0.9473 -0.0935 0.8452
C18A C 1.1168(4) 0.0482(3) 0.9056(2)
H8A H 1.1173 0.0183 0.9586
C19A C 1.2176(3) 0.1574(3) 0.8990(2)
C20A C 1.2116(3) 0.1976(3) 0.8204(2)
H9A H 1.2789 0.2723 0.8135
C21A C 1.1107(3) 0.1325(3) 0.7517(2)
H10A H 1.1090 0.1631 0.6990
C22A C 1.3263(4) 0.2307(3) 0.9755(2)
C23A C 1.2615(5) 0.3123(5) 1.0427(3)
H11A H 1.2295 0.3710 1.0143
H12A H 1.1831 0.2572 1.0650
H13A H 1.3299 0.3613 1.0921
C24A C 1.4514(4) 0.3174(4) 0.9444(2)
H14A H 1.4222 0.3781 0.9167
H15A H 1.5179 0.3642 0.9953
H16A H 1.4946 0.2658 0.9013
C25A C 1.3775(5) 0.1384(5) 1.0190(3)
H17A H 1.2992 0.0810 1.0397
H18A H 1.4218 0.0882 0.9757
H19A H 1.4441 0.1871 1.0695
C26A C 1.3182(3) -0.3272(2) 0.32257(18)
C27A C 1.4112(3) -0.3953(3) 0.28256(18)
C28A C 1.2112(3) -0.3233(3) 0.26087(19)
C29A C 1.1222(3) -0.4331(3) 0.60202(17)
C30A C 1.1547(3) -0.5422(3) 0.62230(18)
C31A C 0.9815(3) -0.4338(2) 0.61351(18)
C32 C 0.5665(4) 0.9879(4) 0.2513(3)
H20 H 0.6070 0.9182 0.2242
Cl1 Cl 0.56284(11) 0.99258(9) 0.36606(7)
Cl2 Cl 0.66886(10) 1.12809(8) 0.23064(6)
Cl3 Cl 0.39693(9) 0.94864(11) 0.20263(7)
Cl4 Cl 0.95176(10) 0.34052(11) 0.16720(6)
C33 C 0.8757(3) 0.4254(3) 0.1077(2)
H21 H 0.9398 0.5134 0.1154
Cl5 Cl 0.72021(8) 0.43865(9) 0.15086(5)
Cl6 Cl 0.85153(10) 0.35384(10) -0.00533(6)
loop_
_geom_bond_atom_site_label_1
_geom_bond_atom_site_label_2
_geom_bond_site_symmetry_1
_geom_bond_site_symmetry_2
S1 C1 1_555 1_555
N1 C27 1_555 1_555
N2 C28 1_555 1_555
N3 C31 1_555 1_555
N4 C30 1_555 1_555
C1 C2 1_555 1_555
C2 C3 1_555 1_555
C3 H1 1_555 1_555
C4 C3 1_555 1_555
C5 C4 1_555 1_555
C6 C5 1_555 1_555
C7 C6 1_555 1_555
H2 C7 1_555 1_555
C8 C7 1_555 1_555
H3 C8 1_555 1_555
C9 C8 1_555 1_555
H4 C9 1_555 1_555
C10 C9 1_555 1_555
H5 C10 1_555 1_555
C11 C6 1_555 1_555
C12 C11 1_555 1_555
C13 C4 1_555 1_555
C14 C13 1_555 1_555
H6 C14 1_555 1_555
C15 C2 1_555 1_555
C16 S1 1_555 1_555
C17 C16 1_555 1_555
H7 C17 1_555 1_555
C18 C17 1_555 1_555
H8 C18 1_555 1_555
C19 C18 1_555 1_555
C20 C19 1_555 1_555
H9 C20 1_555 1_555
C21 C16 1_555 1_555
H10 C21 1_555 1_555
C22 C19 1_555 1_555
C23 C22 1_555 1_555
H11 C23 1_555 1_555
H12 C23 1_555 1_555
H13 C23 1_555 1_555
C24 C22 1_555 1_555
H14 C24 1_555 1_555
H15 C24 1_555 1_555
H16 C24 1_555 1_555
C25 C22 1_555 1_555
H17 C25 1_555 1_555
H18 C25 1_555 1_555
H19 C25 1_555 1_555
C26 C12 1_555 1_555
C27 C26 1_555 1_555
C28 C26 1_555 1_555
C29 C5 1_555 1_555
C30 C29 1_555 1_555
C31 C29 1_555 1_555
C32 H20 1_555 1_555
Cl1 C32 1_555 1_555
Cl2 C32 1_555 1_555
Cl3 C32 1_555 1_555
Cl4 C33 1_555 1_555
C33 H21 1_555 1_555
Cl5 C33 1_555 1_555
Cl6 C33 1_555 1_555
S1A C1A 1_555 1_555
N1A C27A 1_555 1_555
N2A C28A 1_555 1_555
N3A C31A 1_555 1_555
N4A C30A 1_555 1_555
C1A C15 1_555 1_555
C2A C1A 1_555 1_555
C3A C2A 1_555 1_555
H1A C3A 1_555 1_555
C4A C3A 1_555 1_555
C5A C4A 1_555 1_555
C6A C5A 1_555 1_555
C7A C6A 1_555 1_555
H2A C7A 1_555 1_555
C8A C7A 1_555 1_555
H3A C8A 1_555 1_555
C9A C8A 1_555 1_555
H4A C9A 1_555 1_555
C10A C9A 1_555 1_555
H5A C10A 1_555 1_555
C11A C6A 1_555 1_555
C12A C11A 1_555 1_555
C13A C4A 1_555 1_555
C14A C13A 1_555 1_555
H6A C14A 1_555 1_555
C15A C1 1_555 1_555
C16A S1A 1_555 1_555
C17A C16A 1_555 1_555
H7A C17A 1_555 1_555
C18A C17A 1_555 1_555
H8A C18A 1_555 1_555
C19A C18A 1_555 1_555
C20A C19A 1_555 1_555
H9A C20A 1_555 1_555
C21A C16A 1_555 1_555
H10A C21A 1_555 1_555
C22A C19A 1_555 1_555
C23A C22A 1_555 1_555
H11A C23A 1_555 1_555
H12A C23A 1_555 1_555
H13A C23A 1_555 1_555
C24A C22A 1_555 1_555
H14A C24A 1_555 1_555
H15A C24A 1_555 1_555
H16A C24A 1_555 1_555
C25A C22A 1_555 1_555
H17A C25A 1_555 1_555
H18A C25A 1_555 1_555
H19A C25A 1_555 1_555
C26A C12A 1_555 1_555
C27A C26A 1_555 1_555
C28A C26A 1_555 1_555
C29A C5A 1_555 1_555
C30A C29A 1_555 1_555
C31A C29A 1_555 1_555
C10 C11 1_555 1_555
C12 C13 1_555 1_555
C14 C15 1_555 1_555
C20 C21 1_555 1_555
C2A C15A 1_555 1_555
C10A C11A 1_555 1_555
C12A C13A 1_555 1_555
C14A C15A 1_555 1_555
C20A C21A 1_555 1_555

#END
