
#######################################################################
#
#                 Cambridge Crystallographic Data Centre
#                                CCDC 
#
#######################################################################
#
# If this CIF has been generated from an entry in the Cambridge 
# Structural Database, then it will include bibliographic, chemical, 
# crystal, experimental, refinement or atomic coordinate data resulting 
# from the CCDC's data processing and validation procedures.
#
#######################################################################

data_ZIDZIX
_chemical_formula_moiety         'C26 H46 Li2 N4 O2'
_chemical_name_systematic        
bis(\m~2~-2-(t-Butylaminomethyl)pyrrolyl-N,N,N')-bis(tetrahydrofuran)-di-lithium
_symmetry_cell_setting           triclinic
_symmetry_space_group_name_H-M   'P -1'
_symmetry_Int_Tables_number      2
_space_group_name_Hall           '-P 1'
loop_
_symmetry_equiv_pos_site_id
_symmetry_equiv_pos_as_xyz
1 x,y,z
2 -x,-y,-z
_cell_length_a                   8.9945(11)
_cell_length_b                   9.6533(12)
_cell_length_c                   17.164(2)
_cell_angle_alpha                97.709(2)
_cell_angle_beta                 93.160(2)
_cell_angle_gamma                100.001(2)
_cell_volume                     1449.68
_cell_formula_units_Z            2
loop_
_atom_site_label
_atom_site_type_symbol
_atom_site_fract_x
_atom_site_fract_y
_atom_site_fract_z
Li1 Li 0.1209(4) 0.2032(4) 0.2044(2)
Li2 Li -0.0708(5) 0.2918(5) 0.2940(2)
N1 N 0.1647(2) 0.34238(19) 0.30912(11)
N2 N 0.2541(2) 0.07481(18) 0.25351(10)
H1 H 0.3518 0.1131 0.2450
N3 N -0.1135(2) 0.1484(2) 0.19132(11)
N4 N 0.1196(2) 0.25192(19) 0.08800(10)
H2 H 0.1128 0.1660 0.0562
O1 O -0.1845(2) 0.4468(2) 0.28871(12)
O2 O -0.1420(2) 0.2173(3) 0.38914(11)
C1 C 0.2037(3) 0.4842(3) 0.33832(16)
H3 H 0.1609 0.5558 0.3185
C2 C 0.3123(3) 0.5087(3) 0.39975(18)
H4 H 0.3559 0.5970 0.4293
C3 C 0.3457(3) 0.3754(3) 0.40993(16)
H5 H 0.4164 0.3568 0.4477
C4 C 0.2545(3) 0.2769(3) 0.35377(13)
C5 C 0.2417(3) 0.1202(3) 0.33836(13)
H6 H 0.3224 0.0915 0.3698
H7 H 0.1441 0.0741 0.3538
C6 C 0.2397(3) -0.0810(2) 0.22631(14)
C7 C 0.0850(3) -0.1581(3) 0.24279(18)
H8 H 0.0775 -0.1503 0.2993
H9 H 0.0720 -0.2576 0.2204
H10 H 0.0068 -0.1156 0.2192
C8 C 0.2522(4) -0.0956(3) 0.13785(15)
H11 H 0.1652 -0.0675 0.1126
H12 H 0.2551 -0.1938 0.1175
H13 H 0.3441 -0.0350 0.1269
C9 C 0.3651(3) -0.1428(3) 0.26626(17)
H14 H 0.4632 -0.0934 0.2550
H15 H 0.3540 -0.2432 0.2462
H16 H 0.3572 -0.1309 0.3228
C10 C -0.2236(3) 0.0361(3) 0.20025(17)
H17 H -0.2333 -0.0046 0.2469
C11 C -0.3172(3) -0.0096(4) 0.13349(19)
H18 H -0.4006 -0.0851 0.1256
C12 C -0.2645(3) 0.0780(4) 0.07942(17)
H19 H -0.3059 0.0735 0.0274
C13 C -0.1410(3) 0.1725(3) 0.11587(14)
C14 C -0.0366(3) 0.2840(3) 0.08383(15)
H20 H -0.0370 0.3772 0.1145
H21 H -0.0705 0.2869 0.0289
C15 C 0.2393(3) 0.3509(3) 0.05646(14)
C16 C 0.2568(4) 0.4973(3) 0.1059(2)
H22 H 0.1650 0.5354 0.0983
H23 H 0.3417 0.5606 0.0897
H24 H 0.2749 0.4891 0.1612
C17 C 0.3840(3) 0.2919(3) 0.06553(18)
H25 H 0.4088 0.2884 0.1209
H26 H 0.4660 0.3528 0.0454
H27 H 0.3698 0.1968 0.0362
C18 C 0.2022(4) 0.3597(3) -0.03077(17)
H28 H 0.1882 0.2654 -0.0611
H29 H 0.2850 0.4213 -0.0499
H30 H 0.1100 0.3979 -0.0366
C19 C -0.2004(4) 0.5512(4) 0.3529(2)
H31 H -0.1009 0.6065 0.3737
H32 H -0.2476 0.5056 0.3954
C20 C -0.2957(5) 0.6435(4) 0.3231(2)
H33 H -0.2341 0.7318 0.3121
H34 H -0.3681 0.6670 0.3611
C21 C -0.3744(5) 0.5596(5) 0.2505(3)
H35 H -0.4812 0.5273 0.2582
H36 H -0.3688 0.6173 0.2075
C22 C -0.3026(5) 0.4415(6) 0.2316(3)
H37 H -0.3759 0.3531 0.2297
H38 H -0.2628 0.4434 0.1797
C23 C -0.2914(4) 0.1568(6) 0.4029(2)
H39 H -0.3367 0.0847 0.3583
H40 H -0.3542 0.2303 0.4094
C24 C -0.2819(6) 0.0930(5) 0.4738(3)
H41 H -0.2854 -0.0096 0.4610
H42 H -0.3656 0.1090 0.5060
C25 C -0.1336(5) 0.1644(5) 0.5163(2)
H43 H -0.1486 0.2173 0.5673
H44 H -0.0700 0.0945 0.5255
C26 C -0.0643(4) 0.2605(4) 0.46459(16)
H45 H -0.0728 0.3586 0.4844
H46 H 0.0433 0.2554 0.4621
loop_
_geom_bond_atom_site_label_1
_geom_bond_atom_site_label_2
_geom_bond_site_symmetry_1
_geom_bond_site_symmetry_2
Li1 N1 1_555 1_555
Li2 N1 1_555 1_555
N1 C1 1_555 1_555
N2 Li1 1_555 1_555
H1 N2 1_555 1_555
N3 Li1 1_555 1_555
N4 Li1 1_555 1_555
H2 N4 1_555 1_555
O1 Li2 1_555 1_555
O2 Li2 1_555 1_555
C1 H3 1_555 1_555
C2 C1 1_555 1_555
H4 C2 1_555 1_555
C3 C2 1_555 1_555
H5 C3 1_555 1_555
C4 N1 1_555 1_555
C5 N2 1_555 1_555
H6 C5 1_555 1_555
H7 C5 1_555 1_555
C6 N2 1_555 1_555
C7 C6 1_555 1_555
H8 C7 1_555 1_555
H9 C7 1_555 1_555
H10 C7 1_555 1_555
C8 C6 1_555 1_555
H11 C8 1_555 1_555
H12 C8 1_555 1_555
H13 C8 1_555 1_555
C9 C6 1_555 1_555
H14 C9 1_555 1_555
H15 C9 1_555 1_555
H16 C9 1_555 1_555
C10 N3 1_555 1_555
H17 C10 1_555 1_555
C11 C10 1_555 1_555
H18 C11 1_555 1_555
C12 C11 1_555 1_555
H19 C12 1_555 1_555
C13 N3 1_555 1_555
C14 N4 1_555 1_555
H20 C14 1_555 1_555
H21 C14 1_555 1_555
C15 N4 1_555 1_555
C16 C15 1_555 1_555
H22 C16 1_555 1_555
H23 C16 1_555 1_555
H24 C16 1_555 1_555
C17 C15 1_555 1_555
H25 C17 1_555 1_555
H26 C17 1_555 1_555
H27 C17 1_555 1_555
C18 C15 1_555 1_555
H28 C18 1_555 1_555
H29 C18 1_555 1_555
H30 C18 1_555 1_555
C19 O1 1_555 1_555
H31 C19 1_555 1_555
H32 C19 1_555 1_555
C20 C19 1_555 1_555
H33 C20 1_555 1_555
H34 C20 1_555 1_555
C21 C20 1_555 1_555
H35 C21 1_555 1_555
H36 C21 1_555 1_555
C22 O1 1_555 1_555
H37 C22 1_555 1_555
H38 C22 1_555 1_555
C23 O2 1_555 1_555
H39 C23 1_555 1_555
H40 C23 1_555 1_555
C24 C23 1_555 1_555
H41 C24 1_555 1_555
H42 C24 1_555 1_555
C25 C24 1_555 1_555
H43 C25 1_555 1_555
H44 C25 1_555 1_555
C26 O2 1_555 1_555
H45 C26 1_555 1_555
H46 C26 1_555 1_555
Li2 N3 1_555 1_555
C3 C4 1_555 1_555
C4 C5 1_555 1_555
C12 C13 1_555 1_555
C13 C14 1_555 1_555
C21 C22 1_555 1_555
C25 C26 1_555 1_555

#END
