
#######################################################################
#
#                 Cambridge Crystallographic Data Centre
#                                CCDC 
#
#######################################################################
#
# If this CIF has been generated from an entry in the Cambridge 
# Structural Database, then it will include bibliographic, chemical, 
# crystal, experimental, refinement or atomic coordinate data resulting 
# from the CCDC's data processing and validation procedures.
#
#######################################################################

data_ZIDZUJ
_chemical_formula_moiety         'C28 H50 Li2 N4 O2'
_chemical_name_systematic        
"bis(\m~2~-2-(Piperidinylmethyl)pyrrolyl-N,N,N')-bis(diethyl ether)-di-lithium"
_symmetry_cell_setting           monoclinic
_symmetry_space_group_name_H-M   'P 21/n'
_symmetry_Int_Tables_number      14
_space_group_name_Hall           '-P 2yn'
loop_
_symmetry_equiv_pos_site_id
_symmetry_equiv_pos_as_xyz
1 x,y,z
2 1/2-x,1/2+y,1/2-z
3 -x,-y,-z
4 1/2+x,1/2-y,1/2+z
_cell_length_a                   9.240(3)
_cell_length_b                   11.526(3)
_cell_length_c                   14.211(4)
_cell_angle_alpha                90
_cell_angle_beta                 90.378(4)
_cell_angle_gamma                90
_cell_volume                     1513.44
_exptl_crystal_colour            colorless
_exptl_crystal_description       block
_cell_formula_units_Z            2
loop_
_atom_site_label
_atom_site_type_symbol
_atom_site_fract_x
_atom_site_fract_y
_atom_site_fract_z
Li1 Li -0.0137(3) 0.0377(3) 0.9152(2)
N1 N 0.12598(16) 0.09562(14) 1.02296(11)
N2 N 0.17449(16) -0.01147(13) 0.83230(11)
O1 O -0.12954(15) 0.16953(13) 0.86846(10)
C1 C 0.25853(19) 0.07814(19) 0.98037(13)
C2 C 0.3526(2) 0.1646(2) 1.00512(15)
H1 H 0.4488 0.1723 0.9850
C3 C 0.2801(3) 0.2394(2) 1.06560(16)
H2 H 0.3174 0.3066 1.0943
C4 C 0.1437(2) 0.19524(19) 1.07471(15)
H3 H 0.0710 0.2289 1.1118
C5 C 0.2761(2) -0.0197(2) 0.91458(15)
H4 H 0.2585 -0.0926 0.9481
H5 H 0.3759 -0.0210 0.8917
C6 C 0.2168(2) 0.08583(18) 0.77151(14)
H6 H 0.3156 0.0733 0.7490
H7 H 0.2160 0.1578 0.8082
C7 C 0.1160(2) 0.09835(19) 0.68824(14)
H8 H 0.1496 0.1618 0.6480
H9 H 0.0188 0.1180 0.7104
C8 C 0.1094(3) -0.0131(2) 0.63140(16)
H10 H 0.0337 -0.0067 0.5830
H11 H 0.2021 -0.0257 0.5999
C9 C 0.0770(3) -0.1148(2) 0.69529(16)
H12 H -0.0225 -0.1084 0.7182
H13 H 0.0847 -0.1871 0.6594
C10 C 0.1793(2) -0.11893(18) 0.77749(16)
H14 H 0.1539 -0.1845 0.8181
H15 H 0.2780 -0.1314 0.7547
C11 C -0.2696(3) 0.1672(3) 0.82538(18)
H16 H -0.2733 0.2240 0.7741
H17 H -0.3427 0.1888 0.8718
C12 C -0.3025(3) 0.0502(3) 0.7878(2)
H18 H -0.2344 0.0313 0.7384
H19 H -0.4001 0.0493 0.7622
H20 H -0.2945 -0.0065 0.8380
C13 C -0.0680(3) 0.2839(2) 0.8779(2)
H21 H -0.0671 0.3215 0.8161
H22 H 0.0325 0.2769 0.8997
C14 C -0.1494(5) 0.3587(3) 0.9452(2)
H23 H -0.2487 0.3669 0.9237
H24 H -0.1042 0.4346 0.9486
H25 H -0.1480 0.3232 1.0071
Li1B Li 0.0137(3) -0.0377(3) 1.0848(2)
N1B N -0.12598(16) -0.09562(14) 0.97704(11)
N2B N -0.17449(16) 0.01147(13) 1.16770(11)
O1B O 0.12954(15) -0.16953(13) 1.13154(10)
C1B C -0.25853(19) -0.07814(19) 1.01963(13)
C2B C -0.3526(2) -0.1646(2) 0.99488(15)
H1B H -0.4488 -0.1723 1.0150
C3B C -0.2801(3) -0.2394(2) 0.93440(16)
H2B H -0.3174 -0.3066 0.9057
C4B C -0.1437(2) -0.19524(19) 0.92529(15)
H3B H -0.0710 -0.2289 0.8882
C5B C -0.2761(2) 0.0197(2) 1.08542(15)
H4B H -0.2585 0.0926 1.0519
H5B H -0.3759 0.0210 1.1083
C6B C -0.2168(2) -0.08583(18) 1.22849(14)
H6B H -0.3156 -0.0733 1.2510
H7B H -0.2160 -0.1578 1.1918
C7B C -0.1160(2) -0.09835(19) 1.31176(14)
H8B H -0.1496 -0.1618 1.3520
H9B H -0.0188 -0.1180 1.2896
C8B C -0.1094(3) 0.0131(2) 1.36860(16)
H10B H -0.0337 0.0067 1.4170
H11B H -0.2021 0.0257 1.4001
C9B C -0.0770(3) 0.1148(2) 1.30471(16)
H12B H 0.0225 0.1084 1.2818
H13B H -0.0847 0.1871 1.3406
C10B C -0.1793(2) 0.11893(18) 1.22251(16)
H14B H -0.1539 0.1845 1.1819
H15B H -0.2780 0.1314 1.2453
C11B C 0.2696(3) -0.1672(3) 1.17462(18)
H16B H 0.2733 -0.2240 1.2259
H17B H 0.3427 -0.1888 1.1282
C12B C 0.3025(3) -0.0502(3) 1.2122(2)
H18B H 0.2344 -0.0313 1.2616
H19B H 0.4001 -0.0493 1.2378
H20B H 0.2945 0.0065 1.1620
C13B C 0.0680(3) -0.2839(2) 1.1221(2)
H21B H 0.0671 -0.3215 1.1839
H22B H -0.0325 -0.2769 1.1003
C14B C 0.1494(5) -0.3587(3) 1.0548(2)
H23B H 0.2487 -0.3669 1.0763
H24B H 0.1042 -0.4346 1.0514
H25B H 0.1480 -0.3232 0.9929
loop_
_geom_bond_atom_site_label_1
_geom_bond_atom_site_label_2
_geom_bond_site_symmetry_1
_geom_bond_site_symmetry_2
Li1 N1 1_555 1_555
N1 C1 1_555 1_555
N2 Li1 1_555 1_555
O1 Li1 1_555 1_555
C1 C2 1_555 1_555
C2 H1 1_555 1_555
C3 C2 1_555 1_555
H2 C3 1_555 1_555
C4 N1 1_555 1_555
H3 C4 1_555 1_555
C5 N2 1_555 1_555
H4 C5 1_555 1_555
H5 C5 1_555 1_555
C6 N2 1_555 1_555
H6 C6 1_555 1_555
H7 C6 1_555 1_555
C7 C6 1_555 1_555
H8 C7 1_555 1_555
H9 C7 1_555 1_555
C8 C7 1_555 1_555
H10 C8 1_555 1_555
H11 C8 1_555 1_555
C9 C8 1_555 1_555
H12 C9 1_555 1_555
H13 C9 1_555 1_555
C10 N2 1_555 1_555
H14 C10 1_555 1_555
H15 C10 1_555 1_555
C11 O1 1_555 1_555
H16 C11 1_555 1_555
H17 C11 1_555 1_555
C12 C11 1_555 1_555
H18 C12 1_555 1_555
H19 C12 1_555 1_555
H20 C12 1_555 1_555
C13 O1 1_555 1_555
H21 C13 1_555 1_555
H22 C13 1_555 1_555
C14 C13 1_555 1_555
H23 C14 1_555 1_555
H24 C14 1_555 1_555
H25 C14 1_555 1_555
Li1B N1 1_555 1_555
N1B Li1 1_555 1_555
N2B Li1B 1_555 1_555
O1B Li1B 1_555 1_555
C1B N1B 1_555 1_555
C2B C1B 1_555 1_555
H1B C2B 1_555 1_555
C3B C2B 1_555 1_555
H2B C3B 1_555 1_555
C4B N1B 1_555 1_555
H3B C4B 1_555 1_555
C5B N2B 1_555 1_555
H4B C5B 1_555 1_555
H5B C5B 1_555 1_555
C6B N2B 1_555 1_555
H6B C6B 1_555 1_555
H7B C6B 1_555 1_555
C7B C6B 1_555 1_555
H8B C7B 1_555 1_555
H9B C7B 1_555 1_555
C8B C7B 1_555 1_555
H10B C8B 1_555 1_555
H11B C8B 1_555 1_555
C9B C8B 1_555 1_555
H12B C9B 1_555 1_555
H13B C9B 1_555 1_555
C10B N2B 1_555 1_555
H14B C10B 1_555 1_555
H15B C10B 1_555 1_555
C11B O1B 1_555 1_555
H16B C11B 1_555 1_555
H17B C11B 1_555 1_555
C12B C11B 1_555 1_555
H18B C12B 1_555 1_555
H19B C12B 1_555 1_555
H20B C12B 1_555 1_555
C13B O1B 1_555 1_555
H21B C13B 1_555 1_555
H22B C13B 1_555 1_555
C14B C13B 1_555 1_555
H23B C14B 1_555 1_555
H24B C14B 1_555 1_555
H25B C14B 1_555 1_555
C1 C5 1_555 1_555
C3 C4 1_555 1_555
C9 C10 1_555 1_555
Li1B N1B 1_555 1_555
C1B C5B 1_555 1_555
C3B C4B 1_555 1_555
C9B C10B 1_555 1_555

#END
