
#######################################################################
#
#                 Cambridge Crystallographic Data Centre
#                                CCDC 
#
#######################################################################
#
# If this CIF has been generated from an entry in the Cambridge 
# Structural Database, then it will include bibliographic, chemical, 
# crystal, experimental, refinement or atomic coordinate data resulting 
# from the CCDC's data processing and validation procedures.
#
#######################################################################

data_ZIFDID
_chemical_formula_moiety         'C9 H6 Cl1 N1 O2'
_chemical_name_systematic        '6-Chloro-1H-indole-3-carboxylic acid'
_symmetry_cell_setting           monoclinic
_symmetry_space_group_name_H-M   'P 21/c'
_symmetry_Int_Tables_number      14
_space_group_name_Hall           '-P 2ybc'
loop_
_symmetry_equiv_pos_site_id
_symmetry_equiv_pos_as_xyz
1 x,y,z
2 -x,1/2+y,1/2-z
3 -x,-y,-z
4 x,1/2-y,1/2+z
_cell_length_a                   7.2608(15)
_cell_length_b                   11.973(2)
_cell_length_c                   9.6567(19)
_cell_angle_alpha                90
_cell_angle_beta                 98.88(3)
_cell_angle_gamma                90
_cell_volume                     829.429
_exptl_crystal_colour            white
_exptl_crystal_description       Prism
_cell_formula_units_Z            4
loop_
_atom_site_label
_atom_site_type_symbol
_atom_site_fract_x
_atom_site_fract_y
_atom_site_fract_z
Cl1 Cl 0.011(4) 0.873(3) 0.626(3)
O1 O 0.396(2) 0.9337(13) 1.3384(16)
H1 H 0.4359 0.9232 1.4216
N1 N 0.320(3) 1.176(2) 0.972(2)
C1 C 0.382(3) 1.173(2) 1.110(2)
H2 H 0.4357 1.2330 1.1611
C2 C 0.355(3) 1.069(2) 1.166(3)
C3 C 0.413(3) 1.042(2) 1.308(3)
C4 C 0.276(3) 1.001(2) 1.047(3)
C5 C 0.249(3) 1.074(2) 0.929(3)
C6 C 0.175(3) 1.038(2) 0.798(3)
H3 H 0.1578 1.0859 0.7213
C7 C 0.129(3) 0.928(2) 0.786(2)
C8 C 0.149(3) 0.854(2) 0.898(2)
H4 H 0.1133 0.7794 0.8829
C9 C 0.221(3) 0.888(2) 1.029(3)
H5 H 0.2334 0.8392 1.1046
O2 O 0.424(6) 1.112(3) 1.397(3)
H6 H 0.31(2) 1.238(15) 0.917(17)
Cl2? Cl 0.058(4) 0.882(3) 0.610(4)
O3? O 0.508(5) 1.113(2) 1.400(3)
loop_
_geom_bond_atom_site_label_1
_geom_bond_atom_site_label_2
_geom_bond_site_symmetry_1
_geom_bond_site_symmetry_2
Cl1 C7 1_555 1_555
O1 H1 1_555 1_555
N1 C1 1_555 1_555
C1 H2 1_555 1_555
C2 C1 1_555 1_555
C3 O1 1_555 1_555
C4 C2 1_555 1_555
C5 N1 1_555 1_555
C6 C5 1_555 1_555
H3 C6 1_555 1_555
C7 C6 1_555 1_555
C8 C7 1_555 1_555
H4 C8 1_555 1_555
C9 C4 1_555 1_555
H5 C9 1_555 1_555
O2 C3 1_555 1_555
H6 N1 1_555 1_555
C2 C3 1_555 1_555
C4 C5 1_555 1_555
C8 C9 1_555 1_555

#END
