
#######################################################################
#
#                 Cambridge Crystallographic Data Centre
#                                CCDC 
#
#######################################################################
#
# If this CIF has been generated from an entry in the Cambridge 
# Structural Database, then it will include bibliographic, chemical, 
# crystal, experimental, refinement or atomic coordinate data resulting 
# from the CCDC's data processing and validation procedures.
#
#######################################################################

data_ZIFJOP
_chemical_formula_moiety         'C19 H12 Br1 Cl1 N4'
_chemical_name_systematic        
2-(5-(4-Bromophenyl)-4-(4-chlorophenyl)-4H-1,2,4-triazol-3-yl)pyridine
_symmetry_cell_setting           monoclinic
_symmetry_space_group_name_H-M   'P 21/n'
_symmetry_Int_Tables_number      14
_space_group_name_Hall           '-P 2yn'
loop_
_symmetry_equiv_pos_site_id
_symmetry_equiv_pos_as_xyz
1 x,y,z
2 1/2-x,1/2+y,1/2-z
3 -x,-y,-z
4 1/2+x,1/2-y,1/2+z
_cell_length_a                   13.84(3)
_cell_length_b                   7.169(14)
_cell_length_c                   17.62(3)
_cell_angle_alpha                90
_cell_angle_beta                 92.41(3)
_cell_angle_gamma                90
_cell_volume                     1746.69
_exptl_crystal_colour            colorless
_exptl_crystal_description       Block
_cell_formula_units_Z            4
loop_
_atom_site_label
_atom_site_type_symbol
_atom_site_fract_x
_atom_site_fract_y
_atom_site_fract_z
Br1 Br 0.07770(3) 0.17441(9) 0.79072(3)
Cl1 Cl 0.67633(9) 0.2205(2) 0.61922(6)
N1 N 0.7755(3) 0.2238(5) 0.9467(2)
N2 N 0.5696(3) 0.2840(5) 1.06410(19)
N3 N 0.4733(3) 0.2671(4) 1.03937(18)
N4 N 0.5632(2) 0.2551(4) 0.93984(17)
C1 C 0.8729(4) 0.2269(8) 0.9534(3)
H1 H 0.9066 0.1874 0.9117
C2 C 0.9275(4) 0.2848(8) 1.0181(5)
H2 H 0.9948 0.2821 1.0199
C3 C 0.8781(5) 0.3438(7) 1.0768(4)
H3 H 0.9117 0.3855 1.1204
C4 C 0.7773(4) 0.3447(6) 1.0745(3)
H4 H 0.7432 0.3841 1.1160
C5 C 0.7291(3) 0.2844(6) 1.0077(3)
C6 C 0.6223(3) 0.2760(5) 1.0040(2)
C7 C 0.4703(3) 0.2512(5) 0.9648(2)
C8 C 0.3795(3) 0.2321(5) 0.9197(2)
C9 C 0.2984(3) 0.1681(5) 0.9562(2)
H5 H 0.3044 0.1352 1.0072
C10 C 0.2097(3) 0.1525(5) 0.9184(3)
H6 H 0.1563 0.1115 0.9442
C11 C 0.1999(3) 0.1970(6) 0.8434(3)
C12 C 0.2784(3) 0.2624(6) 0.8038(2)
H7 H 0.2714 0.2932 0.7526
C13 C 0.3674(3) 0.2805(6) 0.8430(2)
H8 H 0.4200 0.3258 0.8175
C14 C 0.5913(3) 0.2461(6) 0.8615(2)
C15 C 0.5878(3) 0.0761(6) 0.8237(2)
H9 H 0.5690 -0.0317 0.8484
C16 C 0.6132(3) 0.0703(6) 0.7479(2)
H10 H 0.6107 -0.0417 0.7213
C17 C 0.6421(3) 0.2317(6) 0.7128(2)
C18 C 0.6458(3) 0.4008(6) 0.7510(2)
H11 H 0.6659 0.5080 0.7264
C19 C 0.6192(3) 0.4093(6) 0.8260(2)
H12 H 0.6201 0.5222 0.8520
loop_
_geom_bond_atom_site_label_1
_geom_bond_atom_site_label_2
_geom_bond_site_symmetry_1
_geom_bond_site_symmetry_2
Br1 C11 1_555 1_555
Cl1 C17 1_555 1_555
N1 C1 1_555 1_555
N2 N3 1_555 1_555
N3 C7 1_555 1_555
N4 C6 1_555 1_555
C1 H1 1_555 1_555
C2 C1 1_555 1_555
H2 C2 1_555 1_555
C3 C2 1_555 1_555
H3 C3 1_555 1_555
C4 C3 1_555 1_555
H4 C4 1_555 1_555
C5 N1 1_555 1_555
C6 N2 1_555 1_555
C7 N4 1_555 1_555
C8 C7 1_555 1_555
C9 C8 1_555 1_555
H5 C9 1_555 1_555
C10 C9 1_555 1_555
H6 C10 1_555 1_555
C11 C10 1_555 1_555
C12 C11 1_555 1_555
H7 C12 1_555 1_555
C13 C8 1_555 1_555
H8 C13 1_555 1_555
C14 N4 1_555 1_555
C15 C14 1_555 1_555
H9 C15 1_555 1_555
C16 C15 1_555 1_555
H10 C16 1_555 1_555
C17 C16 1_555 1_555
C18 C17 1_555 1_555
H11 C18 1_555 1_555
C19 C14 1_555 1_555
H12 C19 1_555 1_555
C4 C5 1_555 1_555
C5 C6 1_555 1_555
C12 C13 1_555 1_555
C18 C19 1_555 1_555

#END
