
#######################################################################
#
#                 Cambridge Crystallographic Data Centre
#                                CCDC 
#
#######################################################################
#
# If this CIF has been generated from an entry in the Cambridge 
# Structural Database, then it will include bibliographic, chemical, 
# crystal, experimental, refinement or atomic coordinate data resulting 
# from the CCDC's data processing and validation procedures.
#
#######################################################################

data_ZIFJOQ
_chemical_formula_moiety         'C20 H30 O3'
_chemical_name_systematic        
5,10,13,14,17-pentamethyl-4,9-dioxatetracyclo[11.3.1.0^3,5^.0^8,10^]heptadec-1(16)-en-2-one
_symmetry_cell_setting           orthorhombic
_symmetry_space_group_name_H-M   'P 21 21 21'
_symmetry_Int_Tables_number      19
_space_group_name_Hall           'P 2ac 2ab'
loop_
_symmetry_equiv_pos_site_id
_symmetry_equiv_pos_as_xyz
1 x,y,z
2 1/2+x,1/2-y,-z
3 -x,1/2+y,1/2-z
4 1/2-x,-y,1/2+z
_cell_length_a                   10.3402(2)
_cell_length_b                   11.1032(2)
_cell_length_c                   15.8156(3)
_cell_angle_alpha                90
_cell_angle_beta                 90
_cell_angle_gamma                90
_cell_volume                     1815.78
_exptl_crystal_colour            colorless
_exptl_crystal_description       plate
_cell_formula_units_Z            4
loop_
_atom_site_label
_atom_site_type_symbol
_atom_site_fract_x
_atom_site_fract_y
_atom_site_fract_z
C1 C 0.3890(3) 0.1046(3) 0.2627(2)
C2 C 0.4197(3) 0.2083(3) 0.3198(2)
H1 H 0.435570 0.187835 0.380508
C3 C 0.3638(3) 0.3301(3) 0.3031(2)
C4 C 0.3439(4) 0.4116(3) 0.3784(2)
H2 H 0.363493 0.495564 0.361582
H3 H 0.405709 0.388616 0.423441
C5 C 0.2062(4) 0.4064(3) 0.4142(2)
H4 H 0.201061 0.457010 0.465581
H5 H 0.145038 0.439560 0.371975
C6 C 0.1672(3) 0.2792(3) 0.4358(2)
H6 H 0.167040 0.222500 0.386693
C7 C 0.1883(3) 0.2219(3) 0.5176(2)
C8 C 0.1997(4) 0.0859(3) 0.5266(2)
H7 H 0.292707 0.064752 0.525687
H8 H 0.165671 0.063148 0.582827
C9 C 0.1312(4) 0.0096(3) 0.4604(2)
H9 H 0.106866 0.063466 0.413136
H10 H 0.049820 -0.020091 0.485915
C10 C 0.2027(4) -0.1007(3) 0.4219(2)
C11 C 0.1058(4) -0.1590(3) 0.3586(2)
H11 H 0.023436 -0.172630 0.390263
C12 C 0.0738(4) -0.0741(3) 0.2851(2)
H12 H 0.045809 -0.123104 0.236084
H13 H -0.000068 -0.022607 0.301853
C13 C 0.1830(4) 0.0052(3) 0.2580(2)
H14 H 0.170498 0.053771 0.209229
C14 C 0.2960(3) 0.0124(3) 0.2970(2)
C15 C 0.3276(3) -0.0701(3) 0.3713(2)
H15 H 0.350224 -0.148128 0.343382
C16 C 0.4500(3) -0.0384(3) 0.4207(2)
H16 H 0.522641 -0.029451 0.381372
H17 H 0.469203 -0.102891 0.461122
H18 H 0.436712 0.037328 0.451263
C17 C 0.2345(5) -0.1895(3) 0.4938(2)
H19 H 0.154046 -0.222155 0.517076
H20 H 0.282232 -0.147307 0.538385
H21 H 0.287575 -0.255419 0.471557
C18 C 0.1494(5) -0.2826(3) 0.3246(3)
H22 H 0.082146 -0.315493 0.287506
H23 H 0.163687 -0.337755 0.372078
H24 H 0.229906 -0.273237 0.292625
C19 C 0.2813(4) 0.3518(3) 0.2266(2)
H25 H 0.284132 0.437412 0.211672
H26 H 0.191905 0.328364 0.238914
H27 H 0.314018 0.303774 0.179191
C20 C 0.2500(4) 0.2896(4) 0.5895(2)
H28 H 0.233733 0.376039 0.582640
H29 H 0.343393 0.274787 0.589408
H30 H 0.212944 0.262129 0.643129
O1 O 0.4269(3) 0.1019(2) 0.18990(15)
O2 O 0.4980(2) 0.3036(2) 0.28533(16)
O3 O 0.0592(2) 0.2643(2) 0.49350(15)
loop_
_geom_bond_atom_site_label_1
_geom_bond_atom_site_label_2
_geom_bond_site_symmetry_1
_geom_bond_site_symmetry_2
C1 C2 1_555 1_555
C2 H1 1_555 1_555
C3 C2 1_555 1_555
C4 C3 1_555 1_555
H2 C4 1_555 1_555
H3 C4 1_555 1_555
C5 C4 1_555 1_555
H4 C5 1_555 1_555
H5 C5 1_555 1_555
C6 C5 1_555 1_555
H6 C6 1_555 1_555
C7 C6 1_555 1_555
C8 C7 1_555 1_555
H7 C8 1_555 1_555
H8 C8 1_555 1_555
C9 C8 1_555 1_555
H9 C9 1_555 1_555
H10 C9 1_555 1_555
C10 C9 1_555 1_555
C11 C10 1_555 1_555
H11 C11 1_555 1_555
C12 C11 1_555 1_555
H12 C12 1_555 1_555
H13 C12 1_555 1_555
C13 C12 1_555 1_555
H14 C13 1_555 1_555
C14 C1 1_555 1_555
C15 C10 1_555 1_555
H15 C15 1_555 1_555
C16 C15 1_555 1_555
H16 C16 1_555 1_555
H17 C16 1_555 1_555
H18 C16 1_555 1_555
C17 C10 1_555 1_555
H19 C17 1_555 1_555
H20 C17 1_555 1_555
H21 C17 1_555 1_555
C18 C11 1_555 1_555
H22 C18 1_555 1_555
H23 C18 1_555 1_555
H24 C18 1_555 1_555
C19 C3 1_555 1_555
H25 C19 1_555 1_555
H26 C19 1_555 1_555
H27 C19 1_555 1_555
C20 C7 1_555 1_555
H28 C20 1_555 1_555
H29 C20 1_555 1_555
H30 C20 1_555 1_555
O1 C1 1_555 1_555
O2 C2 1_555 1_555
O3 C6 1_555 1_555
C3 O2 1_555 1_555
C7 O3 1_555 1_555
C13 C14 1_555 1_555
C14 C15 1_555 1_555

#END
