
#######################################################################
#
#                 Cambridge Crystallographic Data Centre
#                                CCDC 
#
#######################################################################
#
# If this CIF has been generated from an entry in the Cambridge 
# Structural Database, then it will include bibliographic, chemical, 
# crystal, experimental, refinement or atomic coordinate data resulting 
# from the CCDC's data processing and validation procedures.
#
#######################################################################

data_ZIFNIN
_chemical_formula_moiety         'C36 H36 N24 O12 2-,C22 H28 N4 2+,7(H2 O1)'
_chemical_name_systematic        
"(2)-(N,N'-bis(4-Cyanobenzyl)hexane-1,6-diaminium cucurbit(6)uril) rotaxane heptahydrate"
_symmetry_cell_setting           monoclinic
_symmetry_space_group_name_H-M   'C 2/c'
_symmetry_Int_Tables_number      15
_space_group_name_Hall           '-C 2yn'
loop_
_symmetry_equiv_pos_site_id
_symmetry_equiv_pos_as_xyz
1 x,y,z
2 -x,y,1/2-z
3 1/2+x,1/2+y,z
4 1/2-x,1/2+y,1/2-z
5 -x,-y,-z
6 x,-y,1/2+z
7 1/2-x,1/2-y,-z
8 1/2+x,1/2-y,1/2+z
_cell_length_a                   28.266(5)
_cell_length_b                   15.802(5)
_cell_length_c                   18.367(5)
_cell_angle_alpha                90
_cell_angle_beta                 119.599(5)
_cell_angle_gamma                90
_cell_volume                     7133.23
_exptl_crystal_colour            colorless
_exptl_crystal_description       block
_cell_formula_units_Z            4
loop_
_atom_site_label
_atom_site_type_symbol
_atom_site_fract_x
_atom_site_fract_y
_atom_site_fract_z
C1 C 0.84164(19) 0.4792(3) 0.5882(3)
C2 C 0.8650(2) 0.4840(3) 0.4760(3)
H1 H 0.8996 0.5038 0.4833
H2 H 0.8404 0.5319 0.4588
C3 C 0.7896(2) 0.4210(3) 0.3477(3)
C4 C 0.7335(2) 0.3483(3) 0.2135(3)
H3 H 0.7130 0.4005 0.2017
H4 H 0.7437 0.3410 0.1706
C5 C 0.65337(19) 0.2906(3) 0.2168(3)
C6 C 0.57704(19) 0.2050(3) 0.2042(3)
H5 H 0.5553 0.1678 0.1573
H6 H 0.5599 0.2602 0.1909
C7 C 0.57179(18) 0.2262(3) 0.3330(3)
C8 C 0.58202(19) 0.0861(3) 0.3015(3)
H7 H 0.5536 0.0514 0.2574
C9 C 0.6575(2) 0.1463(3) 0.1920(3)
H8 H 0.6329 0.1229 0.1365
C10 C 0.7062(2) 0.1918(3) 0.1935(3)
H9 H 0.7057 0.1856 0.1400
C11 C 0.83378(19) 0.3131(3) 0.3148(3)
H10 H 0.8437 0.3231 0.2714
C12 C 0.87457(19) 0.3571(3) 0.3987(3)
H11 H 0.9055 0.3814 0.3958
C13 C 0.92335(19) 0.4128(3) 0.6183(3)
H12 H 0.9556 0.4438 0.6263
C14 C 0.93824(18) 0.2905(3) 0.5414(3)
H13 H 0.9657 0.3255 0.5394
H14 H 0.9533 0.2341 0.5582
C15 C 0.87234(18) 0.2093(3) 0.4187(3)
C16 C 0.80837(19) 0.1608(3) 0.2763(3)
H15 H 0.8280 0.1080 0.2972
H16 H 0.8072 0.1736 0.2238
C17 C 0.7381(2) 0.0843(3) 0.2937(3)
C18 C 0.6544(2) 0.0194(3) 0.2744(3)
H17 H 0.6781 -0.0288 0.3003
H18 H 0.6231 -0.0003 0.2232
N1 N 0.87310(16) 0.4531(3) 0.5556(3)
N2 N 0.84319(17) 0.4212(3) 0.4102(3)
N3 N 0.78268(17) 0.3557(3) 0.2945(3)
N4 N 0.69871(16) 0.2779(3) 0.2089(3)
N5 N 0.63110(15) 0.2125(2) 0.2136(2)
N6 N 0.57694(17) 0.1725(3) 0.2777(3)
N7 N 0.63562(16) 0.0500(2) 0.3308(2)
N8 N 0.68249(16) 0.0801(3) 0.2536(3)
N9 N 0.75260(16) 0.1496(2) 0.2605(3)
N10 N 0.83751(16) 0.2267(3) 0.3352(3)
N11 N 0.89164(16) 0.2859(3) 0.4583(2)
N12 N 0.92708(16) 0.3241(3) 0.6044(3)
O1 O 0.80036(15) 0.5216(2) 0.5518(2)
O2 O 0.75546(15) 0.4718(2) 0.3410(2)
O3 O 0.63682(14) 0.3580(2) 0.2263(2)
O4 O 0.56728(16) 0.3019(2) 0.3273(2)
O5 O 0.76916(16) 0.0363(2) 0.3479(2)
O6 O 0.88546(15) 0.1410(2) 0.4519(2)
C1F C 0.65836(19) 0.0208(3) 0.4118(3)
C2F C 0.6350(2) 0.0160(3) 0.5240(3)
H1F H 0.6004 -0.0038 0.5167
H2F H 0.6596 -0.0319 0.5412
C3F C 0.7104(2) 0.0790(3) 0.6523(3)
C4F C 0.7665(2) 0.1517(3) 0.7865(3)
H3F H 0.7870 0.0995 0.7983
H4F H 0.7563 0.1590 0.8294
C5F C 0.84663(19) 0.2094(3) 0.7832(3)
C6F C 0.92296(19) 0.2950(3) 0.7958(3)
H5F H 0.9447 0.3322 0.8427
H6F H 0.9401 0.2398 0.8091
C7F C 0.92821(18) 0.2738(3) 0.6670(3)
C8F C 0.91798(19) 0.4139(3) 0.6985(3)
H7F H 0.9464 0.4486 0.7426
C9F C 0.8425(2) 0.3537(3) 0.8080(3)
H8F H 0.8671 0.3771 0.8635
C10F C 0.7938(2) 0.3082(3) 0.8065(3)
H9F H 0.7943 0.3144 0.8600
C11F C 0.66622(19) 0.1869(3) 0.6852(3)
H10F H 0.6563 0.1769 0.7286
C12F C 0.62543(19) 0.1429(3) 0.6013(3)
H11F H 0.5945 0.1186 0.6042
C13F C 0.57665(19) 0.0872(3) 0.3817(3)
H12F H 0.5444 0.0562 0.3737
C14F C 0.56176(18) 0.2095(3) 0.4586(3)
H13F H 0.5343 0.1745 0.4606
H14F H 0.5467 0.2659 0.4418
C15F C 0.62766(18) 0.2907(3) 0.5813(3)
C16F C 0.69163(19) 0.3392(3) 0.7237(3)
H15F H 0.6720 0.3920 0.7028
H16F H 0.6928 0.3264 0.7762
C17F C 0.7619(2) 0.4157(3) 0.7063(3)
C18F C 0.8456(2) 0.4806(3) 0.7256(3)
H17F H 0.8219 0.5288 0.6997
H18F H 0.8769 0.5003 0.7768
N1F N 0.62690(16) 0.0469(3) 0.4444(3)
N2F N 0.65681(17) 0.0788(3) 0.5898(3)
N3F N 0.71732(17) 0.1443(3) 0.7055(3)
N4F N 0.80129(16) 0.2221(3) 0.7911(3)
N5F N 0.86890(15) 0.2875(2) 0.7864(2)
N6F N 0.92306(17) 0.3275(3) 0.7223(3)
N7F N 0.86438(16) 0.4500(2) 0.6692(2)
N8F N 0.81751(16) 0.4199(3) 0.7464(3)
N9F N 0.74740(16) 0.3504(2) 0.7395(3)
N10F N 0.66249(16) 0.2733(3) 0.6648(3)
N11F N 0.60836(16) 0.2141(3) 0.5417(2)
N12F N 0.57292(16) 0.1759(3) 0.3956(3)
O1F O 0.69964(15) -0.0216(2) 0.4482(2)
O2F O 0.74454(15) 0.0282(2) 0.6590(2)
O3F O 0.86318(14) 0.1420(2) 0.7737(2)
O4F O 0.93272(16) 0.1981(2) 0.6727(2)
O5F O 0.73084(16) 0.4637(2) 0.6521(2)
O6F O 0.61454(15) 0.3590(2) 0.5481(2)
C19 C 0.4853(3) 0.6693(6) 0.0356(5)
C20 C 0.5156(2) 0.6225(5) 0.1143(4)
C21 C 0.5463(3) 0.6696(5) 0.1865(5)
H19 H 0.5482 0.7281 0.1833
C22 C 0.5741(3) 0.6296(4) 0.2627(4)
H20 H 0.5950 0.6605 0.3113
C23 C 0.5703(2) 0.5428(4) 0.2655(4)
C24 C 0.5401(3) 0.4974(5) 0.1950(4)
H21 H 0.5379 0.4389 0.1982
C25 C 0.5123(3) 0.5376(5) 0.1181(4)
H22 H 0.4916 0.5064 0.0696
C26 C 0.5994(2) 0.4976(4) 0.3499(4)
H23 H 0.6072 0.5381 0.3942
H24 H 0.5755 0.4546 0.3518
C27 C 0.6787(2) 0.4104(4) 0.4471(4)
H25 H 0.7001 0.4497 0.4921
H26 H 0.6514 0.3855 0.4579
C28 C 0.7132(3) 0.3452(5) 0.4449(6)
H27 H 0.6924 0.3139 0.3932
H28 H 0.7428 0.3727 0.4417
C29 C 0.7365(4) 0.2857(6) 0.5111(6)
H29 H 0.7085 0.2625 0.5211
H30 H 0.7634 0.3135 0.5620
N13 N 0.65125(18) 0.4571(3) 0.3653(3)
H31 H 0.6756 0.5004 0.3654
H32 H 0.6436 0.4180 0.3202
N14 N 0.4622(3) 0.7054(6) -0.0253(5)
C19F C 1.0147(3) -0.1693(6) 0.9644(5)
C20F C 0.9844(2) -0.1225(5) 0.8857(4)
C21F C 0.9537(3) -0.1696(5) 0.8135(5)
H19F H 0.9518 -0.2281 0.8167
C22F C 0.9259(3) -0.1296(4) 0.7373(4)
H20F H 0.9050 -0.1605 0.6887
C23F C 0.9297(2) -0.0428(4) 0.7345(4)
C24F C 0.9599(3) 0.0026(5) 0.8050(4)
H21F H 0.9621 0.0611 0.8018
C25F C 0.9877(3) -0.0376(5) 0.8819(4)
H22F H 1.0084 -0.0064 0.9304
C26F C 0.9006(2) 0.0024(4) 0.6501(4)
H23F H 0.8928 -0.0381 0.6058
H24F H 0.9245 0.0454 0.6482
C27F C 0.8213(2) 0.0896(4) 0.5529(4)
H25F H 0.7999 0.0503 0.5079
H26F H 0.8486 0.1145 0.5421
C28F C 0.7868(3) 0.1548(5) 0.5551(6)
H27F H 0.8076 0.1861 0.6068
H28F H 0.7572 0.1273 0.5583
C29F C 0.7635(4) 0.2143(6) 0.4889(6)
H29F H 0.7915 0.2375 0.4789
H30F H 0.7366 0.1865 0.4380
N13F N 0.84875(18) 0.0429(3) 0.6347(3)
H31F H 0.8244 -0.0004 0.6346
H32F H 0.8564 0.0820 0.6798
N14F N 1.0378(3) -0.2054(6) 1.0253(5)
O7 O 0.8859(2) 0.9568(3) 0.4357(4)
O8 O 0.7145(2) 0.6112(4) 0.4187(5)
O9 O 0.8401(5) 0.8327(6) 0.4914(5)
O10 O 0.5260(5) 0.0274(7) 0.0629(8)
C30? C 0.7106(12) 0.2567(8) 0.4471(19)
O11? O 0.5000 0.0000 0.0000
loop_
_geom_bond_atom_site_label_1
_geom_bond_atom_site_label_2
_geom_bond_site_symmetry_1
_geom_bond_site_symmetry_2
C1 N1 1_555 1_555
C2 H1 1_555 1_555
H2 C2 1_555 1_555
C3 N2 1_555 1_555
C4 H3 1_555 1_555
H4 C4 1_555 1_555
C5 N4 1_555 1_555
C6 H5 1_555 1_555
H6 C6 1_555 1_555
C7 N6 1_555 1_555
C8 H7 1_555 1_555
C9 H8 1_555 1_555
C10 C9 1_555 1_555
H9 C10 1_555 1_555
C11 H10 1_555 1_555
C12 C11 1_555 1_555
H11 C12 1_555 1_555
C13 H12 1_555 1_555
C14 H13 1_555 1_555
H14 C14 1_555 1_555
C15 N10 1_555 1_555
C16 H15 1_555 1_555
H16 C16 1_555 1_555
C17 N8 1_555 1_555
C18 H17 1_555 1_555
H18 C18 1_555 1_555
N1 C2 1_555 1_555
N2 C2 1_555 1_555
N3 C3 1_555 1_555
N4 C4 1_555 1_555
N5 C5 1_555 1_555
N6 C6 1_555 1_555
N7 C8 1_555 1_555
N8 C9 1_555 1_555
N9 C10 1_555 1_555
N10 C11 1_555 1_555
N11 C12 1_555 1_555
N12 C13 1_555 1_555
O1 C1 1_555 1_555
O2 C3 1_555 1_555
O3 C5 1_555 1_555
O4 C7 1_555 1_555
O5 C17 1_555 1_555
O6 C15 1_555 1_555
C19 C20 1_555 1_555
C20 C21 1_555 1_555
C21 H19 1_555 1_555
C22 C21 1_555 1_555
H20 C22 1_555 1_555
C23 C22 1_555 1_555
C24 C23 1_555 1_555
H21 C24 1_555 1_555
C25 C20 1_555 1_555
H22 C25 1_555 1_555
C26 C23 1_555 1_555
H23 C26 1_555 1_555
H24 C26 1_555 1_555
C27 H25 1_555 1_555
H26 C27 1_555 1_555
C28 C27 1_555 1_555
H27 C28 1_555 1_555
H28 C28 1_555 1_555
C29 C28 1_555 1_555
H29 C29 1_555 1_555
H30 C29 1_555 1_555
N13 C26 1_555 1_555
H31 N13 1_555 1_555
H32 N13 1_555 1_555
N14 C19 1_555 1_555
C1F N7 1_555 1_555
C2F H1F 1_555 1_555
H2F C2F 1_555 1_555
C3F N2F 1_555 1_555
C4F H3F 1_555 1_555
H4F C4F 1_555 1_555
C5F N4F 1_555 1_555
C6F H5F 1_555 1_555
H6F C6F 1_555 1_555
C7F N12 1_555 1_555
C8F C13 1_555 1_555
H7F C8F 1_555 1_555
C9F H8F 1_555 1_555
C10F C9F 1_555 1_555
H9F C10F 1_555 1_555
C11F H10F 1_555 1_555
C12F C11F 1_555 1_555
H11F C12F 1_555 1_555
C13F C8 1_555 1_555
H12F C13F 1_555 1_555
C14F H13F 1_555 1_555
H14F C14F 1_555 1_555
C15F N10F 1_555 1_555
C16F H15F 1_555 1_555
H16F C16F 1_555 1_555
C17F N8F 1_555 1_555
C18F H17F 1_555 1_555
H18F C18F 1_555 1_555
N1F C1F 1_555 1_555
N2F C2F 1_555 1_555
N3F C3F 1_555 1_555
N4F C4F 1_555 1_555
N5F C5F 1_555 1_555
N6F C6F 1_555 1_555
N7F C1 1_555 1_555
N8F C9F 1_555 1_555
N9F C10F 1_555 1_555
N10F C11F 1_555 1_555
N11F C12F 1_555 1_555
N12F C7 1_555 1_555
O1F C1F 1_555 1_555
O2F C3F 1_555 1_555
O3F C5F 1_555 1_555
O4F C7F 1_555 1_555
O5F C17F 1_555 1_555
O6F C15F 1_555 1_555
C19F C20F 1_555 1_555
C20F C21F 1_555 1_555
C21F H19F 1_555 1_555
C22F C21F 1_555 1_555
H20F C22F 1_555 1_555
C23F C22F 1_555 1_555
C24F C23F 1_555 1_555
H21F C24F 1_555 1_555
C25F C20F 1_555 1_555
H22F C25F 1_555 1_555
C26F C23F 1_555 1_555
H23F C26F 1_555 1_555
H24F C26F 1_555 1_555
C27F H25F 1_555 1_555
H26F C27F 1_555 1_555
C28F C27F 1_555 1_555
H27F C28F 1_555 1_555
H28F C28F 1_555 1_555
C29F C29 1_555 1_555
H29F C29F 1_555 1_555
H30F C29F 1_555 1_555
N13F C26F 1_555 1_555
H31F N13F 1_555 1_555
H32F N13F 1_555 1_555
N14F C19F 1_555 1_555
C4 N3 1_555 1_555
C6 N5 1_555 1_555
C8 N6 1_555 1_555
C9 N5 1_555 1_555
C10 N4 1_555 1_555
C11 N3 1_555 1_555
C12 N2 1_555 1_555
C13 N1 1_555 1_555
C14 N11 1_555 1_555
C14 N12 1_555 1_555
C15 N11 1_555 1_555
C16 N9 1_555 1_555
C16 N10 1_555 1_555
C17 N9 1_555 1_555
C18 N7 1_555 1_555
C18 N8 1_555 1_555
C24 C25 1_555 1_555
C27 N13 1_555 1_555
C2F N1F 1_555 1_555
C4F N3F 1_555 1_555
C6F N5F 1_555 1_555
C7F N6F 1_555 1_555
C8F N6F 1_555 1_555
C8F N7F 1_555 1_555
C9F N5F 1_555 1_555
C10F N4F 1_555 1_555
C11F N3F 1_555 1_555
C12F N2F 1_555 1_555
C13F N1F 1_555 1_555
C13F N12F 1_555 1_555
C14F N11F 1_555 1_555
C14F N12F 1_555 1_555
C15F N11F 1_555 1_555
C16F N9F 1_555 1_555
C16F N10F 1_555 1_555
C17F N9F 1_555 1_555
C18F N7F 1_555 1_555
C18F N8F 1_555 1_555
C24F C25F 1_555 1_555
C27F N13F 1_555 1_555
C28F C29F 1_555 1_555

#END
