
#######################################################################
#
#                 Cambridge Crystallographic Data Centre
#                                CCDC 
#
#######################################################################
#
# If this CIF has been generated from an entry in the Cambridge 
# Structural Database, then it will include bibliographic, chemical, 
# crystal, experimental, refinement or atomic coordinate data resulting 
# from the CCDC's data processing and validation procedures.
#
#######################################################################

data_ZIFQAJ
_chemical_formula_moiety         'C27 H20 N1 O1 1+,I1 1-'
_chemical_name_systematic        '2,3,4,5-tetraphenyl-1,3-oxazol-3-ium iodide'
_symmetry_cell_setting           monoclinic
_symmetry_space_group_name_H-M   'P 21/n'
_symmetry_Int_Tables_number      14
_space_group_name_Hall           '-P 2yn'
loop_
_symmetry_equiv_pos_site_id
_symmetry_equiv_pos_as_xyz
1 x,y,z
2 1/2-x,1/2+y,1/2-z
3 -x,-y,-z
4 1/2+x,1/2-y,1/2+z
_cell_length_a                   10.1672(10)
_cell_length_b                   18.4224(18)
_cell_length_c                   12.1232(11)
_cell_angle_alpha                90
_cell_angle_beta                 99.428(3)
_cell_angle_gamma                90
_cell_volume                     2240.05
_exptl_crystal_colour            green
_exptl_crystal_description       prismatic
_cell_formula_units_Z            4
loop_
_atom_site_label
_atom_site_type_symbol
_atom_site_fract_x
_atom_site_fract_y
_atom_site_fract_z
I1 I 0.58397(5) 0.15707(3) 0.82098(5)
N1 N 0.2729(5) 0.2328(3) 0.5908(4)
O1 O 0.4377(4) 0.2335(2) 0.4985(3)
C1 C 0.3302(6) 0.1956(3) 0.5174(5)
C2 C 0.4452(7) 0.2960(4) 0.5609(5)
C3 C 0.3431(6) 0.2972(3) 0.6170(5)
C4 C 0.3036(7) 0.3502(3) 0.6956(5)
C5 C 0.2273(7) 0.4095(4) 0.6561(6)
H1 H 0.2022 0.4163 0.5795
C6 C 0.1887(8) 0.4583(4) 0.7293(7)
H2 H 0.1386 0.4987 0.7025
C7 C 0.2234(8) 0.4479(4) 0.8421(7)
H3 H 0.1961 0.4810 0.8917
C8 C 0.2983(7) 0.3889(4) 0.8821(6)
H4 H 0.3223 0.3823 0.9588
C9 C 0.3381(7) 0.3398(4) 0.8094(6)
H5 H 0.3882 0.2994 0.8367
C10 C 0.1612(6) 0.2085(3) 0.6439(5)
C11 C 0.0464(7) 0.2472(4) 0.6335(6)
H6 H 0.0362 0.2892 0.5904
C12 C -0.0549(7) 0.2238(5) 0.6874(6)
H7 H -0.1331 0.2507 0.6820
C13 C -0.0411(8) 0.1613(4) 0.7488(6)
H8 H -0.1103 0.1458 0.7846
C14 C 0.0730(8) 0.1214(4) 0.7582(6)
H9 H 0.0812 0.0785 0.7990
C15 C 0.1764(7) 0.1454(3) 0.7066(5)
H10 H 0.2557 0.1194 0.7140
C16 C 0.2993(7) 0.1264(4) 0.4608(5)
C17 C 0.1701(7) 0.1010(4) 0.4389(5)
H11 H 0.1009 0.1286 0.4584
C18 C 0.1437(8) 0.0342(4) 0.3879(6)
H12 H 0.0573 0.0158 0.3753
C19 C 0.2466(8) -0.0048(4) 0.3560(6)
H13 H 0.2300 -0.0500 0.3225
C20 C 0.3715(8) 0.0223(4) 0.3729(6)
H14 H 0.4395 -0.0040 0.3487
C21 C 0.4004(7) 0.0883(4) 0.4256(6)
H15 H 0.4869 0.1065 0.4368
C22 C 0.5590(8) 0.3434(4) 0.5540(6)
C23 C 0.6663(8) 0.3152(5) 0.5092(7)
H16 H 0.6648 0.2674 0.4841
C24 C 0.7764(9) 0.3599(6) 0.5026(9)
H17 H 0.8483 0.3419 0.4724
C25 C 0.7783(10) 0.4308(7) 0.5410(8)
H18 H 0.8520 0.4601 0.5374
C26 C 0.6746(12) 0.4572(6) 0.5832(8)
H19 H 0.6767 0.5049 0.6085
C27 C 0.5638(10) 0.4143(5) 0.5896(7)
H20 H 0.4921 0.4338 0.6183
loop_
_geom_bond_atom_site_label_1
_geom_bond_atom_site_label_2
_geom_bond_site_symmetry_1
_geom_bond_site_symmetry_2
N1 C1 1_555 1_555
O1 C1 1_555 1_555
C1 C16 1_555 1_555
C2 O1 1_555 1_555
C3 N1 1_555 1_555
C4 C3 1_555 1_555
C5 C4 1_555 1_555
H1 C5 1_555 1_555
C6 C5 1_555 1_555
H2 C6 1_555 1_555
C7 C6 1_555 1_555
H3 C7 1_555 1_555
C8 C7 1_555 1_555
H4 C8 1_555 1_555
C9 C4 1_555 1_555
H5 C9 1_555 1_555
C10 N1 1_555 1_555
C11 C10 1_555 1_555
H6 C11 1_555 1_555
C12 C11 1_555 1_555
H7 C12 1_555 1_555
C13 C12 1_555 1_555
H8 C13 1_555 1_555
C14 C13 1_555 1_555
H9 C14 1_555 1_555
C15 C10 1_555 1_555
H10 C15 1_555 1_555
C16 C17 1_555 1_555
C17 H11 1_555 1_555
C18 C17 1_555 1_555
H12 C18 1_555 1_555
C19 C18 1_555 1_555
H13 C19 1_555 1_555
C20 C19 1_555 1_555
H14 C20 1_555 1_555
C21 C16 1_555 1_555
H15 C21 1_555 1_555
C22 C2 1_555 1_555
C23 C22 1_555 1_555
H16 C23 1_555 1_555
C24 C23 1_555 1_555
H17 C24 1_555 1_555
C25 C24 1_555 1_555
H18 C25 1_555 1_555
C26 C25 1_555 1_555
H19 C26 1_555 1_555
C27 C22 1_555 1_555
H20 C27 1_555 1_555
C2 C3 1_555 1_555
C8 C9 1_555 1_555
C14 C15 1_555 1_555
C20 C21 1_555 1_555
C26 C27 1_555 1_555

#END
