
#######################################################################
#
#                 Cambridge Crystallographic Data Centre
#                                CCDC 
#
#######################################################################
#
# If this CIF has been generated from an entry in the Cambridge 
# Structural Database, then it will include bibliographic, chemical, 
# crystal, experimental, refinement or atomic coordinate data resulting 
# from the CCDC's data processing and validation procedures.
#
#######################################################################

data_ZIFTUD
_chemical_formula_moiety         'C40 H28'
_chemical_name_systematic        
(2.2)(2,2'')-1,1'':3',1''-Terphenylophan-1(E),21(E)-diene
_symmetry_cell_setting           triclinic
_symmetry_space_group_name_H-M   'P -1'
_symmetry_Int_Tables_number      2
_space_group_name_Hall           '-P 1'
loop_
_symmetry_equiv_pos_site_id
_symmetry_equiv_pos_as_xyz
1 x,y,z
2 -x,-y,-z
_cell_length_a                   10.278(1)
_cell_length_b                   10.508(1)
_cell_length_c                   14.501(1)
_cell_angle_alpha                69.85(1)
_cell_angle_beta                 76.85(1)
_cell_angle_gamma                76.36(1)
_cell_volume                     1410.32
_exptl_crystal_colour            colorless
_exptl_crystal_description       plates
_cell_formula_units_Z            2
loop_
_atom_site_label
_atom_site_type_symbol
_atom_site_fract_x
_atom_site_fract_y
_atom_site_fract_z
C1 C 0.18172(25) 0.44794(27) 0.13483(17)
H1 H 0.26428(25) 0.48308(27) 0.12249(17)
C2 C 0.17806(25) 0.36497(27) 0.08404(17)
H2 H 0.09586(25) 0.32928(27) 0.09621(17)
C3 C 0.29123(23) 0.32293(27) 0.01177(17)
C4 C 0.37628(27) 0.41756(31) -0.04907(19)
H3 H 0.35930(27) 0.50780(31) -0.04194(19)
C5 C 0.48187(28) 0.38238(35) -0.11821(20)
H4 H 0.54042(28) 0.44705(35) -0.15801(20)
C6 C 0.50468(27) 0.25302(35) -0.12983(21)
H5 H 0.57763(27) 0.22809(35) -0.17843(21)
C7 C 0.42248(26) 0.16091(30) -0.07183(19)
H6 H 0.43601(26) 0.07213(30) -0.08087(19)
C8 C 0.31547(24) 0.19234(28) 0.00067(17)
C9 C 0.23738(24) 0.08150(27) 0.06549(18)
C10 C 0.19597(28) -0.00024(32) 0.02375(20)
H7 H 0.20930(28) 0.02159(32) -0.04733(20)
C11 C 0.13335(28) -0.11096(31) 0.08372(21)
H8 H 0.10640(28) -0.16733(31) 0.05396(21)
C12 C 0.11143(25) -0.14160(29) 0.18496(20)
H9 H 0.06773(25) -0.21829(29) 0.22561(20)
C13 C 0.15128(23) -0.06183(26) 0.23054(17)
C14 C 0.21180(23) 0.05046(26) 0.16823(18)
H10 H 0.23646(23) 0.10867(26) 0.19761(18)
C15 C 0.12704(25) -0.09950(25) 0.34158(18)
C16 C 0.00552(28) -0.14484(27) 0.39472(21)
H11 H -0.06087(28) -0.14599(27) 0.35806(21)
C17 C -0.02188(32) -0.18510(29) 0.49579(22)
H12 H -0.10505(32) -0.21779(29) 0.52976(22)
C18 C 0.07231(38) -0.18113(31) 0.54955(22)
H13 H 0.05301(38) -0.20778(31) 0.62091(22)
C19 C 0.19251(32) -0.13728(29) 0.49960(20)
H14 H 0.25882(32) -0.13599(29) 0.53627(20)
C20 C 0.22147(27) -0.09462(26) 0.39637(19)
C21 C 0.35141(26) -0.04925(27) 0.34707(19)
H15 H 0.40020(26) -0.07879(27) 0.29110(19)
C22 C 0.40915(26) 0.03039(28) 0.37410(20)
H16 H 0.36216(26) 0.05843(28) 0.43107(20)
C23 C 0.53809(25) 0.07695(31) 0.32174(20)
C24 C 0.64237(30) -0.01232(37) 0.28415(24)
H17 H 0.62903(30) -0.10412(37) 0.29507(24)
C25 C 0.76374(31) 0.02939(48) 0.23269(26)
H18 H 0.83353(31) -0.03271(48) 0.20565(26)
C26 C 0.78494(32) 0.15909(48) 0.21952(26)
H19 H 0.86948(32) 0.18769(48) 0.18430(26)
C27 C 0.68346(28) 0.24737(37) 0.25669(21)
H20 H 0.69858(28) 0.33751(37) 0.24887(21)
C28 C 0.55847(25) 0.20988(31) 0.30727(19)
C29 C 0.45066(25) 0.31767(27) 0.33795(18)
C30 C 0.48218(29) 0.40091(32) 0.38437(21)
H21 H 0.56928(29) 0.38020(32) 0.40485(21)
C31 C 0.38727(31) 0.50902(33) 0.40385(21)
H22 H 0.40999(31) 0.56438(33) 0.43652(21)
C32 C 0.26158(29) 0.53856(29) 0.37645(19)
H23 H 0.19778(29) 0.61582(29) 0.38932(19)
C33 C 0.22533(25) 0.45985(26) 0.32927(17)
C34 C 0.32197(24) 0.34786(27) 0.31211(17)
H24 H 0.29903(24) 0.29009(27) 0.28151(17)
C35 C 0.08997(24) 0.49622(25) 0.29791(18)
C36 C -0.02339(27) 0.54170(28) 0.36043(20)
H25 H -0.01023(27) 0.54707(28) 0.42235(20)
C37 C -0.15225(28) 0.57956(30) 0.33525(23)
H26 H -0.22814(28) 0.60859(30) 0.38031(23)
C38 C -0.17148(28) 0.57469(32) 0.24609(23)
H27 H -0.26020(28) 0.60227(32) 0.22749(23)
C39 C -0.06162(26) 0.52940(30) 0.18324(21)
H28 H -0.07484(26) 0.52371(30) 0.12143(21)
C40 C 0.06854(24) 0.49075(26) 0.20661(18)
loop_
_geom_bond_atom_site_label_1
_geom_bond_atom_site_label_2
_geom_bond_site_symmetry_1
_geom_bond_site_symmetry_2
C1 H1 1_555 1_555
C2 C1 1_555 1_555
H2 C2 1_555 1_555
C3 C2 1_555 1_555
C4 C3 1_555 1_555
H3 C4 1_555 1_555
C5 C4 1_555 1_555
H4 C5 1_555 1_555
C6 C5 1_555 1_555
H5 C6 1_555 1_555
C7 C6 1_555 1_555
H6 C7 1_555 1_555
C8 C3 1_555 1_555
C9 C8 1_555 1_555
C10 C9 1_555 1_555
H7 C10 1_555 1_555
C11 C10 1_555 1_555
H8 C11 1_555 1_555
C12 C11 1_555 1_555
H9 C12 1_555 1_555
C13 C12 1_555 1_555
C14 C9 1_555 1_555
H10 C14 1_555 1_555
C15 C13 1_555 1_555
C16 C15 1_555 1_555
H11 C16 1_555 1_555
C17 C16 1_555 1_555
H12 C17 1_555 1_555
C18 C17 1_555 1_555
H13 C18 1_555 1_555
C19 C18 1_555 1_555
H14 C19 1_555 1_555
C20 C15 1_555 1_555
C21 C20 1_555 1_555
H15 C21 1_555 1_555
C22 C21 1_555 1_555
H16 C22 1_555 1_555
C23 C22 1_555 1_555
C24 C23 1_555 1_555
H17 C24 1_555 1_555
C25 C24 1_555 1_555
H18 C25 1_555 1_555
C26 C25 1_555 1_555
H19 C26 1_555 1_555
C27 C26 1_555 1_555
H20 C27 1_555 1_555
C28 C23 1_555 1_555
C29 C28 1_555 1_555
C30 C29 1_555 1_555
H21 C30 1_555 1_555
C31 C30 1_555 1_555
H22 C31 1_555 1_555
C32 C31 1_555 1_555
H23 C32 1_555 1_555
C33 C32 1_555 1_555
C34 C29 1_555 1_555
H24 C34 1_555 1_555
C35 C33 1_555 1_555
C36 C35 1_555 1_555
H25 C36 1_555 1_555
C37 C36 1_555 1_555
H26 C37 1_555 1_555
C38 C37 1_555 1_555
H27 C38 1_555 1_555
C39 C38 1_555 1_555
H28 C39 1_555 1_555
C40 C1 1_555 1_555
C7 C8 1_555 1_555
C13 C14 1_555 1_555
C19 C20 1_555 1_555
C27 C28 1_555 1_555
C33 C34 1_555 1_555
C35 C40 1_555 1_555
C39 C40 1_555 1_555

#END
