
#######################################################################
#
#                 Cambridge Crystallographic Data Centre
#                                CCDC 
#
#######################################################################
#
# If this CIF has been generated from an entry in the Cambridge 
# Structural Database, then it will include bibliographic, chemical, 
# crystal, experimental, refinement or atomic coordinate data resulting 
# from the CCDC's data processing and validation procedures.
#
#######################################################################

data_ZIFWOD
_chemical_name_common            
"(2S,5R,2''R)-ineupatolide (2S,5R,2''S)-ineupatolide dihydrate"
_chemical_formula_moiety         'C25 H36 O9,C25 H36 O9,2(H2 O1)'
_chemical_name_systematic        
"(2S,4R,5R,6R,7S,8S,9R,10S,2''R)-2,5-epoxy-5,10-dihydroxy-6-angeloyloxy-9-2-methylbutyryloxy-germacran-8,12-olide (2S,4R,5R,6R,7S,8S,9R,10S,2''S)-2,5-epoxy-5,10-dihydroxy-6-angeloyloxy-9-2-methylbutyryloxy-germacran-8,12-olide dihydrate"
_symmetry_cell_setting           trigonal
_symmetry_space_group_name_H-M   'P 32 2 1'
_symmetry_Int_Tables_number      154
_space_group_name_Hall           'P 32 2"'
loop_
_symmetry_equiv_pos_site_id
_symmetry_equiv_pos_as_xyz
1 x,y,z
2 -y,x-y,2/3+z
3 -x+y,-x,1/3+z
4 y,x,-z
5 -x,-x+y,2/3-z
6 x-y,-y,1/3-z
_cell_length_a                   18.3947(4)
_cell_length_b                   18.3947(4)
_cell_length_c                   28.7027(5)
_cell_angle_alpha                90
_cell_angle_beta                 90
_cell_angle_gamma                120
_cell_volume                     8410.83
_cell_formula_units_Z            6
loop_
_atom_site_label
_atom_site_type_symbol
_atom_site_fract_x
_atom_site_fract_y
_atom_site_fract_z
O10 O 0.86223(14) 0.65617(14) 0.25153(7)
O11 O 0.94629(14) 0.48771(16) 0.22505(7)
O12 O 0.74766(14) 0.49216(15) 0.28237(7)
H28 H 0.7692 0.5426 0.2874
O13 O 1.04814(14) 0.74680(17) 0.18028(7)
O14 O 0.79058(15) 0.38312(15) 0.23274(7)
O15 O 0.7831(2) 0.32999(18) 0.16150(8)
O16 O 1.03751(17) 0.4750(2) 0.17914(9)
C26 C 0.93681(19) 0.5999(2) 0.18817(9)
H29 H 0.8935 0.5978 0.1674
O17 O 0.96975(17) 0.79548(16) 0.25139(8)
H30 H 1.0112 0.8305 0.2372
C27 C 0.8812(2) 0.7388(2) 0.18403(11)
H31 H 0.8746 0.7017 0.1579
C28 C 0.9265(2) 0.7220(2) 0.22414(10)
O18 O 1.14789(17) 0.7371(2) 0.21994(9)
C29 C 0.9976(2) 0.5092(2) 0.18714(11)
C30 C 0.7359(2) 0.5530(2) 0.20969(10)
H32 H 0.7625 0.5615 0.1794
H33 H 0.6781 0.5387 0.2043
C31 C 0.80474(19) 0.4620(2) 0.21302(9)
H34 H 0.7983 0.4561 0.1791
C32 C 0.7800(2) 0.6364(2) 0.23607(11)
H35 H 0.7459 0.6334 0.2631
C33 C 1.1895(3) 0.8275(3) 0.15450(14)
C34 C 0.7949(2) 0.7104(2) 0.20536(12)
H36 H 0.7953 0.7548 0.2237
H37 H 0.7522 0.6930 0.1814
C35 C 0.73513(19) 0.4770(2) 0.23311(10)
C36 C 0.89569(19) 0.5286(2) 0.22445(9)
H38 H 0.8977 0.5527 0.2552
C37 C 0.9922(2) 0.5754(2) 0.16117(11)
C38 C 0.7830(2) 0.3230(2) 0.20309(12)
C39 C 0.9843(2) 0.6870(2) 0.21150(10)
H39 H 1.0114 0.6827 0.2399
C40 C 1.1281(2) 0.7666(2) 0.18848(12)
C41 C 0.6500(2) 0.3985(2) 0.22567(12)
H40 H 0.6495 0.3516 0.2406
H41 H 0.6401 0.3876 0.1929
H42 H 0.6068 0.4069 0.2388
C42 C 1.0285(2) 0.6019(3) 0.11981(12)
H43 H 1.0583 0.5785 0.1065
H44 H 1.0242 0.6438 0.1041
C43 C 0.9256(3) 0.8299(3) 0.16656(15)
H45 H 0.9260 0.8660 0.1908
H46 H 0.8963 0.8341 0.1399
H47 H 0.9823 0.8466 0.1580
C44 C 1.1726(6) 0.8418(6) 0.1141(3)
H48 H 1.2205 0.8774 0.0972
C45 C 1.0967(6) 0.8161(6) 0.0881(3)
H49 H 1.0986 0.7896 0.0597
H50 H 1.0916 0.8643 0.0811
H51 H 1.0493 0.7771 0.1063
C46 C 1.2826(6) 0.8595(7) 0.1705(3)
H52 H 1.2900 0.8802 0.2018
H53 H 1.3205 0.9038 0.1501
H54 H 1.2940 0.8140 0.1692
C47 C 0.7713(10) 0.1839(10) 0.1994(5)
C48 C 0.8665(9) 0.2485(9) 0.2224(4)
C49 C 0.7560(17) 0.2389(10) 0.2308(4)
O19 O 1.2590(2) 0.2590(2) 0.0000
O20 O 0.4198(2) 0.3006(2) 0.01435(9)
O21 O 0.5832(6) 0.5013(4) -0.01585(13)
O1 O 0.64699(14) 0.23126(13) 0.01078(7)
O2 O 0.67269(14) 0.12724(14) -0.01588(8)
H1 H 0.6225 0.0923 -0.0165
O3 O 0.82847(16) 0.20991(17) 0.02947(10)
O4 O 1.00875(19) 0.50433(19) 0.02198(12)
O5 O 0.61802(18) 0.37203(16) 0.01011(8)
H2 H 0.6133 0.4129 0.0036
C1 C 0.8982(2) 0.3782(2) 0.05724(12)
O6 O 0.77173(19) 0.51079(15) 0.02814(8)
C2 C 0.7908(2) 0.39233(19) 0.02008(10)
H3 H 0.7555 0.3658 -0.0073
O7 O 0.8420(2) 0.58484(17) 0.09107(9)
C3 C 0.7817(2) 0.2497(2) 0.01573(11)
H4 H 0.7943 0.2672 -0.0169
C4 C 0.6188(2) 0.2963(2) 0.07867(10)
H5 H 0.6622 0.2977 0.0985
H6 H 0.5728 0.2878 0.0988
C5 C 0.5871(2) 0.2200(2) 0.04692(10)
H7 H 0.5344 0.2091 0.0324
C6 C 0.7508(2) 0.43149(19) 0.05067(10)
H8 H 0.7764 0.4430 0.0817
O8 O 0.87400(18) 0.45925(15) 0.00519(8)
C7 C 0.5727(2) 0.1409(2) 0.07240(11)
H9 H 0.5577 0.1416 0.1047
H10 H 0.5288 0.0908 0.0575
C8 C 0.6884(2) 0.18533(19) 0.02017(10)
C9 C 0.8176(4) 0.5817(2) 0.05179(14)
C10 C 0.6544(2) 0.3830(2) 0.05570(11)
C11 C 0.6573(2) 0.1452(2) 0.06855(11)
H11 H 0.6948 0.1847 0.0921
C12 C 0.8060(2) 0.32811(19) 0.04627(10)
H12 H 0.7734 0.3113 0.0752
C13 C 0.6535(3) 0.0613(2) 0.07611(15)
H13 H 0.6368 0.0430 0.1076
H14 H 0.7079 0.0677 0.0705
H15 H 0.6135 0.0203 0.0550
C14 C 0.9354(3) 0.4527(2) 0.02743(13)
C15 C 0.9418(2) 0.3654(3) 0.08944(15)
H16 H 0.9983 0.4045 0.0938
H17 H 0.9161 0.3173 0.1078
C16 C 0.6294(3) 0.4367(3) 0.08522(13)
H18 H 0.6488 0.4900 0.0703
H19 H 0.6544 0.4452 0.1155
H20 H 0.5694 0.4083 0.0882
O9 O 0.9247(2) 0.2866(3) -0.02584(16)
C17 C 0.9015(3) 0.2349(4) 0.0037(2)
C18 C 0.9427(4) 0.1868(5) 0.0221(3)
C19 C 1.0192(5) 0.2057(7) 0.0053(3)
H21 H 1.0413 0.1739 0.0173
C20 C 0.8987(4) 0.1217(4) 0.0593(4)
H22 H 0.8905 0.1476 0.0863
H23 H 0.9321 0.0970 0.0675
H24 H 0.8452 0.0789 0.0478
C21 C 1.0734(6) 0.2713(10) -0.0303(3)
H25 H 1.0617 0.2464 -0.0608
H26 H 1.1315 0.2926 -0.0229
H27 H 1.0614 0.3164 -0.0297
C22 C 0.8150(8) 0.6541(6) 0.0268(3)
C23 C 0.8866(8) 0.7331(7) 0.0413(4)
C24 C 0.9142(9) 0.8135(9) 0.0133(5)
C25 C 0.9197(11) 0.6863(11) -0.0006(6)
C50? C 1.2462(7) 0.8010(8) 0.1332(4)
H55? H 1.2657 0.7779 0.1569
H56? H 1.2933 0.8486 0.1192
H57? H 1.2161 0.7592 0.1098
C51? C 1.1970(7) 0.9046(7) 0.1470(4)
H58? H 1.2353 0.9364 0.1240
C52? C 1.1552(7) 0.9448(7) 0.1690(4)
H59? H 1.1227 0.9542 0.1462
H60? H 1.1964 0.9975 0.1821
H61? H 1.1189 0.9092 0.1933
C53? C 0.7892(11) 0.2534(7) 0.2278(3)
C54? C 0.8428(9) 0.7319(7) 0.0478(4)
C55? C 0.8531(8) 0.6582(5) 0.0179(3)
C56? C 0.7085(7) 0.1641(6) 0.2096(3)
C57? C 0.7811(12) 0.1183(12) 0.2151(7)
C58? C 0.7636(9) 0.7036(9) 0.0626(5)
C59? C 0.6339(7) 0.1582(6) 0.2133(3)
loop_
_geom_bond_atom_site_label_1
_geom_bond_atom_site_label_2
_geom_bond_site_symmetry_1
_geom_bond_site_symmetry_2
O1 C5 1_555 1_555
O2 H1 1_555 1_555
O3 C3 1_555 1_555
O4 C14 1_555 1_555
O5 H2 1_555 1_555
C1 C12 1_555 1_555
O6 C6 1_555 1_555
C2 H3 1_555 1_555
O7 C9 1_555 1_555
C3 H4 1_555 1_555
C4 H5 1_555 1_555
H6 C4 1_555 1_555
C5 C4 1_555 1_555
H7 C5 1_555 1_555
C6 C2 1_555 1_555
H8 C6 1_555 1_555
O8 C2 1_555 1_555
C7 C5 1_555 1_555
H9 C7 1_555 1_555
H10 C7 1_555 1_555
C8 O1 1_555 1_555
C9 O6 1_555 1_555
C10 O5 1_555 1_555
C11 C7 1_555 1_555
H11 C11 1_555 1_555
C12 C2 1_555 1_555
H12 C12 1_555 1_555
C13 C11 1_555 1_555
H13 C13 1_555 1_555
H14 C13 1_555 1_555
H15 C13 1_555 1_555
C14 C1 1_555 1_555
C15 C1 1_555 1_555
H16 C15 1_555 1_555
H17 C15 1_555 1_555
C16 C10 1_555 1_555
H18 C16 1_555 1_555
H19 C16 1_555 1_555
H20 C16 1_555 1_555
O9 C17 1_555 1_555
C17 O3 1_555 1_555
C18 C17 1_555 1_555
C19 C18 1_555 1_555
H21 C19 1_555 1_555
C20 C18 1_555 1_555
H22 C20 1_555 1_555
H23 C20 1_555 1_555
H24 C20 1_555 1_555
C21 C19 1_555 1_555
H25 C21 1_555 1_555
H26 C21 1_555 1_555
H27 C21 1_555 1_555
C22 C9 1_555 1_555
C23 C22 1_555 1_555
C24 C23 1_555 1_555
C25 C23 1_555 1_555
O10 C28 1_555 1_555
O11 C29 1_555 1_555
O12 H28 1_555 1_555
O13 C39 1_555 1_555
O14 C31 1_555 1_555
O15 C38 1_555 1_555
O16 C29 1_555 1_555
C26 H29 1_555 1_555
O17 H30 1_555 1_555
C27 H31 1_555 1_555
C28 O17 1_555 1_555
O18 C40 1_555 1_555
C29 C37 1_555 1_555
C30 H32 1_555 1_555
H33 C30 1_555 1_555
C31 H34 1_555 1_555
C32 O10 1_555 1_555
H35 C32 1_555 1_555
C33 C40 1_555 1_555
C34 C27 1_555 1_555
H36 C34 1_555 1_555
H37 C34 1_555 1_555
C35 O12 1_555 1_555
C36 O11 1_555 1_555
H38 C36 1_555 1_555
C37 C26 1_555 1_555
C38 O14 1_555 1_555
C39 C26 1_555 1_555
H39 C39 1_555 1_555
C40 O13 1_555 1_555
C41 C35 1_555 1_555
H40 C41 1_555 1_555
H41 C41 1_555 1_555
H42 C41 1_555 1_555
C42 C37 1_555 1_555
H43 C42 1_555 1_555
H44 C42 1_555 1_555
C43 C27 1_555 1_555
H45 C43 1_555 1_555
H46 C43 1_555 1_555
H47 C43 1_555 1_555
C44 C33 1_555 1_555
H48 C44 1_555 1_555
C45 C44 1_555 1_555
H49 C45 1_555 1_555
H50 C45 1_555 1_555
H51 C45 1_555 1_555
C46 C33 1_555 1_555
H52 C46 1_555 1_555
H53 C46 1_555 1_555
H54 C46 1_555 1_555
C47 C48 1_555 1_555
C49 C38 1_555 1_555
O2 C8 1_555 1_555
C3 C8 1_555 1_555
C3 C12 1_555 1_555
C4 C10 1_555 1_555
C6 C10 1_555 1_555
O8 C14 1_555 1_555
C8 C11 1_555 1_555
C26 C36 1_555 1_555
C27 C28 1_555 1_555
C28 C39 1_555 1_555
C30 C32 1_555 1_555
C30 C35 1_555 1_555
C31 C35 1_555 1_555
C31 C36 1_555 1_555
C32 C34 1_555 1_555
C47 C49 1_555 1_555

#END
