
#######################################################################
#
#                 Cambridge Crystallographic Data Centre
#                                CCDC 
#
#######################################################################
#
# If this CIF has been generated from an entry in the Cambridge 
# Structural Database, then it will include bibliographic, chemical, 
# crystal, experimental, refinement or atomic coordinate data resulting 
# from the CCDC's data processing and validation procedures.
#
#######################################################################

data_ZIFXOD
_chemical_formula_moiety         'C12 H22 N2 O2 S2'
_chemical_name_systematic        
1,1'-Piperazine-1,4-diylbis(3-(methylsulfanyl)propan-1-one)
_symmetry_cell_setting           triclinic
_symmetry_space_group_name_H-M   'P -1'
_symmetry_Int_Tables_number      2
_space_group_name_Hall           '-P 1'
loop_
_symmetry_equiv_pos_site_id
_symmetry_equiv_pos_as_xyz
1 x,y,z
2 -x,-y,-z
_cell_length_a                   5.8103(5)
_cell_length_b                   7.7152(7)
_cell_length_c                   8.3678(7)
_cell_angle_alpha                105.4330(10)
_cell_angle_beta                 96.756(2)
_cell_angle_gamma                92.0100(10)
_cell_volume                     358.208
_exptl_crystal_colour            colorless
_exptl_crystal_description       plate
_cell_formula_units_Z            1
loop_
_atom_site_label
_atom_site_type_symbol
_atom_site_fract_x
_atom_site_fract_y
_atom_site_fract_z
S1 S 0.40059(10) 0.80765(8) 1.28831(7)
N1 N 0.0285(3) 0.6241(2) 0.6596(2)
O1 O -0.1854(3) 0.7392(2) 0.86610(19)
C1 C 0.5935(4) 0.9662(3) 1.2360(3)
H1 H 0.6497 0.9089 1.1299
H2 H 0.7258 1.0045 1.3245
H3 H 0.5099 1.0715 1.2252
C2 C 0.1594(3) 0.7867(3) 1.1260(2)
H4 H 0.0218 0.7316 1.1581
H5 H 0.1224 0.9089 1.1185
C3 C 0.2025(3) 0.6743(3) 0.9537(2)
H6 H 0.2215 0.5479 0.9559
H7 H 0.3472 0.7217 0.9239
C4 C -0.0016(3) 0.6810(2) 0.8232(2)
C5 C 0.2305(3) 0.5368(3) 0.5941(2)
H8 H 0.3409 0.5193 0.6871
H9 H 0.3110 0.6139 0.5375
C6 C -0.1503(3) 0.6451(3) 0.5296(2)
H10 H -0.0877 0.7270 0.4695
H11 H -0.2844 0.6999 0.5816
S1A S -0.40059(10) 0.19235(8) -0.28831(7)
N1A N -0.0285(3) 0.3759(2) 0.3404(2)
O1A O 0.1854(3) 0.2608(2) 0.13390(19)
C1A C -0.5935(4) 0.0338(3) -0.2360(3)
H1A H -0.6497 0.0911 -0.1299
H2A H -0.7258 -0.0045 -0.3245
H3A H -0.5099 -0.0715 -0.2252
C2A C -0.1594(3) 0.2133(3) -0.1260(2)
H4A H -0.0218 0.2684 -0.1581
H5A H -0.1224 0.0911 -0.1185
C3A C -0.2025(3) 0.3257(3) 0.0463(2)
H6A H -0.2215 0.4521 0.0441
H7A H -0.3472 0.2783 0.0761
C4A C 0.0016(3) 0.3190(2) 0.1768(2)
C5A C -0.2305(3) 0.4632(3) 0.4059(2)
H8A H -0.3409 0.4807 0.3129
H9A H -0.3110 0.3861 0.4625
C6A C 0.1503(3) 0.3549(3) 0.4704(2)
H10A H 0.0877 0.2730 0.5305
H11A H 0.2844 0.3001 0.4184
loop_
_geom_bond_atom_site_label_1
_geom_bond_atom_site_label_2
_geom_bond_site_symmetry_1
_geom_bond_site_symmetry_2
S1 C1 1_555 1_555
N1 C4 1_555 1_555
O1 C4 1_555 1_555
C1 H1 1_555 1_555
H2 C1 1_555 1_555
H3 C1 1_555 1_555
C2 S1 1_555 1_555
H4 C2 1_555 1_555
H5 C2 1_555 1_555
C3 C2 1_555 1_555
H6 C3 1_555 1_555
H7 C3 1_555 1_555
C4 C3 1_555 1_555
C5 N1 1_555 1_555
H8 C5 1_555 1_555
H9 C5 1_555 1_555
C6 N1 1_555 1_555
H10 C6 1_555 1_555
H11 C6 1_555 1_555
S1A C1A 1_555 1_555
N1A C4A 1_555 1_555
O1A C4A 1_555 1_555
C1A H1A 1_555 1_555
H2A C1A 1_555 1_555
H3A C1A 1_555 1_555
C2A S1A 1_555 1_555
H4A C2A 1_555 1_555
H5A C2A 1_555 1_555
C3A C2A 1_555 1_555
H6A C3A 1_555 1_555
H7A C3A 1_555 1_555
C4A C3A 1_555 1_555
C5A C6 1_555 1_555
H8A C5A 1_555 1_555
H9A C5A 1_555 1_555
C6A C5 1_555 1_555
H10A C6A 1_555 1_555
H11A C6A 1_555 1_555
N1A C5A 1_555 1_555
N1A C6A 1_555 1_555

#END
