
#######################################################################
#
#                 Cambridge Crystallographic Data Centre
#                                CCDC 
#
#######################################################################
#
# If this CIF has been generated from an entry in the Cambridge 
# Structural Database, then it will include bibliographic, chemical, 
# crystal, experimental, refinement or atomic coordinate data resulting 
# from the CCDC's data processing and validation procedures.
#
#######################################################################

data_ZIFZAR
_chemical_formula_moiety         'C25 H23 N3 O3'
_chemical_name_systematic        
7-(Diethylamino)-3-(((2-hydroxy-1-naphthyl)methylene)carbohydrazonoyl)-2H-chromen-2-one
_symmetry_cell_setting           monoclinic
_symmetry_space_group_name_H-M   'P 21/c'
_symmetry_Int_Tables_number      14
_space_group_name_Hall           '-P 2ybc'
loop_
_symmetry_equiv_pos_site_id
_symmetry_equiv_pos_as_xyz
1 x,y,z
2 -x,1/2+y,1/2-z
3 -x,-y,-z
4 x,1/2-y,1/2+z
_cell_length_a                   10.5149(11)
_cell_length_b                   15.0652(14)
_cell_length_c                   14.2390(13)
_cell_angle_alpha                90
_cell_angle_beta                 108.8300(10)
_cell_angle_gamma                90
_cell_volume                     2134.87
_cell_formula_units_Z            4
loop_
_atom_site_label
_atom_site_type_symbol
_atom_site_fract_x
_atom_site_fract_y
_atom_site_fract_z
N1 N 0.46019(15) 0.78765(9) 0.48438(12)
N2 N -0.07492(14) 0.34968(10) 0.36956(11)
N3 N -0.18460(14) 0.29158(9) 0.34021(11)
O1 O -0.43246(12) 0.24625(8) 0.27618(11)
H1 H -0.3681 0.2797 0.2981
O2 O -0.17526(14) 0.60486(9) 0.27192(13)
O3 O 0.03025(12) 0.65652(7) 0.34154(10)
C1 C -0.38853(19) 0.16173(12) 0.28127(13)
C2 C -0.48804(18) 0.09641(13) 0.24792(14)
H2 H -0.5782 0.1126 0.2249
C3 C -0.4530(2) 0.01015(14) 0.24930(14)
H3 H -0.5201 -0.0323 0.2267
C4 C -0.3174(2) -0.01766(12) 0.28394(14)
C5 C -0.2820(2) -0.10805(13) 0.28346(16)
H4 H -0.3493 -0.1503 0.2599
C6 C -0.1525(3) -0.13427(14) 0.31652(19)
H5 H -0.1304 -0.1939 0.3149
C7 C -0.0525(2) -0.07106(15) 0.35307(18)
H6 H 0.0367 -0.0893 0.3771
C8 C -0.0820(2) 0.01750(13) 0.35468(15)
H7 H -0.0127 0.0582 0.3795
C9 C -0.21539(19) 0.04757(11) 0.31928(13)
C10 C -0.25288(17) 0.13993(11) 0.31706(12)
C11 C -0.15263(18) 0.20892(12) 0.34805(13)
H8 H -0.0626 0.1931 0.3744
C12 C -0.10913(18) 0.42969(12) 0.34412(14)
H9 H -0.1990 0.4420 0.3104
C13 C -0.01313(19) 0.50201(11) 0.36576(14)
C14 C -0.0618(2) 0.58745(12) 0.32350(16)
C15 C 0.16227(17) 0.64661(11) 0.39995(13)
C16 C 0.24210(18) 0.72047(11) 0.41306(13)
H10 H 0.2063 0.7738 0.3831
C17 C 0.37819(18) 0.71578(11) 0.47176(13)
C18 C 0.42607(17) 0.63280(11) 0.51626(14)
H11 H 0.5151 0.6276 0.5566
C19 C 0.34400(18) 0.56068(11) 0.50101(13)
H12 H 0.3790 0.5073 0.5312
C20 C 0.20886(17) 0.56377(10) 0.44163(13)
C21 C 0.11754(18) 0.49246(11) 0.42212(13)
H13 H 0.1478 0.4370 0.4487
C22 C 0.3477(2) 0.93437(12) 0.46888(16)
H14 H 0.2706 0.9073 0.4790
H15 H 0.3197 0.9841 0.4248
H16 H 0.4082 0.9543 0.5314
C23 C 0.41784(19) 0.86765(12) 0.42410(15)
H17 H 0.3579 0.8507 0.3592
H18 H 0.4962 0.8954 0.4149
C24 C 0.5978(2) 0.78708(13) 0.55384(16)
H19 H 0.6011 0.7494 0.6098
H20 H 0.6216 0.8468 0.5789
C25 C 0.7000(2) 0.75481(16) 0.5084(2)
H21 H 0.6738 0.6974 0.4792
H22 H 0.7862 0.7506 0.5588
H23 H 0.7051 0.7958 0.4581
loop_
_geom_bond_atom_site_label_1
_geom_bond_atom_site_label_2
_geom_bond_site_symmetry_1
_geom_bond_site_symmetry_2
N1 C17 1_555 1_555
N2 N3 1_555 1_555
N3 C11 1_555 1_555
O1 H1 1_555 1_555
O2 C14 1_555 1_555
O3 C14 1_555 1_555
C1 O1 1_555 1_555
C2 C1 1_555 1_555
H2 C2 1_555 1_555
C3 C2 1_555 1_555
H3 C3 1_555 1_555
C4 C3 1_555 1_555
C5 C4 1_555 1_555
H4 C5 1_555 1_555
C6 C5 1_555 1_555
H5 C6 1_555 1_555
C7 C6 1_555 1_555
H6 C7 1_555 1_555
C8 C7 1_555 1_555
H7 C8 1_555 1_555
C9 C4 1_555 1_555
C10 C1 1_555 1_555
C11 C10 1_555 1_555
H8 C11 1_555 1_555
C12 N2 1_555 1_555
H9 C12 1_555 1_555
C13 C12 1_555 1_555
C14 C13 1_555 1_555
C15 O3 1_555 1_555
C16 C15 1_555 1_555
H10 C16 1_555 1_555
C17 C16 1_555 1_555
C18 C17 1_555 1_555
H11 C18 1_555 1_555
C19 C18 1_555 1_555
H12 C19 1_555 1_555
C20 C15 1_555 1_555
C21 C13 1_555 1_555
H13 C21 1_555 1_555
C22 H14 1_555 1_555
H15 C22 1_555 1_555
H16 C22 1_555 1_555
C23 N1 1_555 1_555
H17 C23 1_555 1_555
H18 C23 1_555 1_555
C24 N1 1_555 1_555
H19 C24 1_555 1_555
H20 C24 1_555 1_555
C25 C24 1_555 1_555
H21 C25 1_555 1_555
H22 C25 1_555 1_555
H23 C25 1_555 1_555
C8 C9 1_555 1_555
C9 C10 1_555 1_555
C19 C20 1_555 1_555
C20 C21 1_555 1_555
C22 C23 1_555 1_555

#END
