
#######################################################################
#
#                 Cambridge Crystallographic Data Centre
#                                CCDC 
#
#######################################################################
#
# If this CIF has been generated from an entry in the Cambridge 
# Structural Database, then it will include bibliographic, chemical, 
# crystal, experimental, refinement or atomic coordinate data resulting 
# from the CCDC's data processing and validation procedures.
#
#######################################################################

data_ZIGKEI
_chemical_formula_moiety         'C6 H18 N2 2+,2(H1 O4 S1 1-)'
_chemical_name_systematic        
'N^1^,N^1^,N^2^,N^2^-tetramethylethane-1,2-diaminium bis(hydrogen sulfate)'
_symmetry_cell_setting           triclinic
_symmetry_space_group_name_H-M   'P -1'
_symmetry_Int_Tables_number      2
_space_group_name_Hall           '-P 1'
loop_
_symmetry_equiv_pos_site_id
_symmetry_equiv_pos_as_xyz
1 x,y,z
2 -x,-y,-z
_cell_length_a                   8.419(4)
_cell_length_b                   9.037(5)
_cell_length_c                   10.619(6)
_cell_angle_alpha                65.419(5)
_cell_angle_beta                 81.891(5)
_cell_angle_gamma                71.909(5)
_cell_volume                     698.315
_exptl_crystal_colour            colorless
_exptl_crystal_description       block
_cell_formula_units_Z            2
loop_
_atom_site_label
_atom_site_type_symbol
_atom_site_fract_x
_atom_site_fract_y
_atom_site_fract_z
N1 N 0.6706(2) -0.0262(2) 0.25974(17)
N2 N 0.8109(2) -0.48940(19) 0.30846(17)
H1 H 0.909(3) -0.494(3) 0.311(2)
H2 H 0.578(3) -0.023(3) 0.267(2)
C1 C 0.6895(3) 0.1321(3) 0.1413(2)
H3 H 0.6539 0.1364 0.0576
H4 H 0.6220 0.2291 0.1588
H5 H 0.8045 0.1323 0.1318
C2 C 0.7248(3) -0.0363(3) 0.3912(2)
H6 H 0.6638 0.0644 0.4059
H7 H 0.7034 -0.1336 0.4669
H8 H 0.8422 -0.0461 0.3855
C3 C 0.7588(3) -0.1779(2) 0.2273(2)
H9 H 0.8785 -0.2006 0.2332
H10 H 0.7339 -0.1547 0.1334
C4 C 0.7054(2) -0.3330(2) 0.3273(2)
H11 H 0.7149 -0.3465 0.4216
H12 H 0.5892 -0.3169 0.3118
C5 C 0.7879(3) -0.4865(3) 0.1705(2)
H13 H 0.8580 -0.5893 0.1634
H14 H 0.6732 -0.4773 0.1608
H15 H 0.8177 -0.3912 0.0986
C6 C 0.7788(3) -0.6441(3) 0.4230(2)
H16 H 0.7943 -0.6433 0.5106
H17 H 0.6663 -0.6450 0.4177
H18 H 0.8554 -0.7435 0.4144
S1 S 0.27891(6) 0.49479(6) 0.25531(5)
O1 O 0.41188(19) 0.3466(2) 0.32363(18)
O2 O 0.3304(2) 0.6491(2) 0.19937(18)
O3 O 0.2301(3) 0.4805(2) 0.12522(16)
H19 H 0.2160 0.3870 0.1475
O4 O 0.13053(18) 0.5056(2) 0.34239(17)
S2 S 0.2382(9) 0.0439(10) 0.2116(6)
O5 O 0.3536(5) 0.0647(5) 0.0936(4)
O6 O 0.1218(5) 0.2030(5) 0.1995(6)
O7 O 0.3318(19) -0.046(2) 0.3364(16)
O8 O 0.1347(11) -0.0665(17) 0.2070(16)
H20 H 0.1963 -0.1460 0.1895
S3? S 0.2136(10) 0.0476(10) 0.2418(7)
O9? O 0.2590(7) 0.1851(5) 0.1281(4)
O10? O 0.0743(5) 0.1046(7) 0.3195(6)
O11? O 0.3555(18) -0.073(2) 0.3271(18)
O12? O 0.1489(16) -0.0440(19) 0.1718(18)
H21? H 0.1080 0.0248 0.0968
loop_
_geom_bond_atom_site_label_1
_geom_bond_atom_site_label_2
_geom_bond_site_symmetry_1
_geom_bond_site_symmetry_2
N1 H2 1_555 1_555
N2 H1 1_555 1_555
C1 N1 1_555 1_555
H3 C1 1_555 1_555
H4 C1 1_555 1_555
H5 C1 1_555 1_555
C2 N1 1_555 1_555
H6 C2 1_555 1_555
H7 C2 1_555 1_555
H8 C2 1_555 1_555
C3 N1 1_555 1_555
H9 C3 1_555 1_555
H10 C3 1_555 1_555
C4 N2 1_555 1_555
H11 C4 1_555 1_555
H12 C4 1_555 1_555
C5 N2 1_555 1_555
H13 C5 1_555 1_555
H14 C5 1_555 1_555
H15 C5 1_555 1_555
C6 N2 1_555 1_555
H16 C6 1_555 1_555
H17 C6 1_555 1_555
H18 C6 1_555 1_555
S1 O1 1_555 1_555
O2 S1 1_555 1_555
O3 S1 1_555 1_555
H19 O3 1_555 1_555
O4 S1 1_555 1_555
S2 O5 1_555 1_555
O6 S2 1_555 1_555
O7 S2 1_555 1_555
O8 S2 1_555 1_555
H20 O8 1_555 1_555
C3 C4 1_555 1_555

#END
