
#######################################################################
#
#                 Cambridge Crystallographic Data Centre
#                                CCDC 
#
#######################################################################
#
# If this CIF has been generated from an entry in the Cambridge 
# Structural Database, then it will include bibliographic, chemical, 
# crystal, experimental, refinement or atomic coordinate data resulting 
# from the CCDC's data processing and validation procedures.
#
#######################################################################

data_ZIHCEB
_chemical_formula_moiety         'C28 H25 F1 N2 O3 S1'
_chemical_name_systematic        
3-benzyl-2-(4-fluorophenyl)-1-[(4-methylphenyl)sulfonyl]-1,2,3,5-tetrahydro-4,1,3-benzoxadiazepine
_symmetry_cell_setting           triclinic
_symmetry_space_group_name_H-M   'P -1'
_symmetry_Int_Tables_number      2
_space_group_name_Hall           '-P 1'
loop_
_symmetry_equiv_pos_site_id
_symmetry_equiv_pos_as_xyz
1 x,y,z
2 -x,-y,-z
_cell_length_a                   7.9879(5)
_cell_length_b                   10.3602(12)
_cell_length_c                   16.4694(18)
_cell_angle_alpha                72.518(10)
_cell_angle_beta                 80.282(8)
_cell_angle_gamma                69.643(8)
_cell_volume                     1215.65
_exptl_crystal_description       block
_cell_formula_units_Z            2
loop_
_atom_site_label
_atom_site_type_symbol
_atom_site_fract_x
_atom_site_fract_y
_atom_site_fract_z
S1 S 1.25250(9) 0.38919(8) 0.15017(5)
F1 F 0.7562(3) -0.0279(2) 0.45791(15)
O1 O 0.8974(3) 0.68389(19) 0.19960(13)
O2 O 1.1665(3) 0.3273(2) 0.11011(14)
O3 O 1.4280(3) 0.3130(2) 0.17817(14)
N1 N 1.1218(3) 0.4212(2) 0.23523(14)
N2 N 0.8283(3) 0.5779(2) 0.26029(15)
C1 C 0.9275(3) 0.4440(3) 0.23575(18)
H1 H 0.8991 0.4536 0.1782
C2 C 1.1857(3) 0.4614(3) 0.29758(18)
C3 C 1.3050(4) 0.3555(3) 0.35390(19)
H2 H 1.3462 0.2623 0.3488
C4 C 1.3623(4) 0.3882(4) 0.4174(2)
H3 H 1.4436 0.3176 0.4544
C5 C 1.2989(5) 0.5257(4) 0.4259(2)
H4 H 1.3358 0.5477 0.4693
C6 C 1.1810(4) 0.6302(4) 0.3699(2)
H5 H 1.1382 0.7226 0.3764
C7 C 1.1246(4) 0.6015(3) 0.30423(19)
C8 C 1.0023(4) 0.7231(3) 0.2434(2)
H6 H 0.9225 0.7888 0.2751
H7 H 1.0743 0.7738 0.2016
C9 C 0.8755(3) 0.3211(3) 0.29711(19)
C10 C 0.8130(4) 0.2377(3) 0.2661(2)
H8 H 0.7990 0.2609 0.2080
C11 C 0.7710(4) 0.1208(3) 0.3195(2)
H9 H 0.7283 0.0652 0.2985
C12 C 0.7940(4) 0.0891(3) 0.4043(2)
C13 C 0.8519(4) 0.1699(3) 0.4387(2)
H10 H 0.8636 0.1465 0.4970
C14 C 0.8923(4) 0.2873(3) 0.3839(2)
H11 H 0.9312 0.3442 0.4057
C15 C 0.6397(3) 0.6222(3) 0.2426(2)
H12 H 0.5901 0.5463 0.2733
H13 H 0.6320 0.6376 0.1821
C16 C 0.5307(3) 0.7561(3) 0.2682(2)
C17 C 0.3963(4) 0.8554(3) 0.2176(2)
H14 H 0.3814 0.8415 0.1665
C18 C 0.2853(5) 0.9741(3) 0.2423(3)
H15 H 0.1941 1.0388 0.2083
C19 C 0.3075(5) 0.9976(3) 0.3161(3)
H16 H 0.2313 1.0778 0.3327
C20 C 0.4431(5) 0.9024(4) 0.3662(3)
H17 H 0.4605 0.9194 0.4159
C21 C 0.5532(4) 0.7813(3) 0.3422(2)
H18 H 0.6435 0.7164 0.3765
C22 C 1.2586(4) 0.5532(3) 0.08009(18)
C23 C 1.1170(4) 0.6374(4) 0.0298(2)
H19 H 1.0191 0.6072 0.0319
C24 C 1.1241(5) 0.7668(4) -0.0235(2)
H20 H 1.0291 0.8240 -0.0571
C25 C 1.2683(6) 0.8142(4) -0.0285(2)
C26 C 1.4095(5) 0.7261(4) 0.0209(2)
H21 H 1.5093 0.7546 0.0173
C27 C 1.4049(4) 0.5970(3) 0.0753(2)
H22 H 1.5002 0.5397 0.1086
C28 C 1.2766(8) 0.9540(4) -0.0880(3)
H23 H 1.3558 0.9371 -0.1371
H24 H 1.3202 1.0026 -0.0591
H25 H 1.1591 1.0119 -0.1057
loop_
_geom_bond_atom_site_label_1
_geom_bond_atom_site_label_2
_geom_bond_site_symmetry_1
_geom_bond_site_symmetry_2
S1 O2 1_555 1_555
F1 C12 1_555 1_555
O1 N2 1_555 1_555
O3 S1 1_555 1_555
N1 S1 1_555 1_555
N2 C1 1_555 1_555
C1 N1 1_555 1_555
H1 C1 1_555 1_555
C2 N1 1_555 1_555
C3 C2 1_555 1_555
H2 C3 1_555 1_555
C4 C3 1_555 1_555
H3 C4 1_555 1_555
C5 C4 1_555 1_555
H4 C5 1_555 1_555
C6 C5 1_555 1_555
H5 C6 1_555 1_555
C7 C2 1_555 1_555
C8 O1 1_555 1_555
H6 C8 1_555 1_555
H7 C8 1_555 1_555
C9 C1 1_555 1_555
C10 C9 1_555 1_555
H8 C10 1_555 1_555
C11 C10 1_555 1_555
H9 C11 1_555 1_555
C12 C11 1_555 1_555
C13 C12 1_555 1_555
H10 C13 1_555 1_555
C14 C9 1_555 1_555
H11 C14 1_555 1_555
C15 N2 1_555 1_555
H12 C15 1_555 1_555
H13 C15 1_555 1_555
C16 C15 1_555 1_555
C17 C16 1_555 1_555
H14 C17 1_555 1_555
C18 C17 1_555 1_555
H15 C18 1_555 1_555
C19 C18 1_555 1_555
H16 C19 1_555 1_555
C20 C19 1_555 1_555
H17 C20 1_555 1_555
C21 C16 1_555 1_555
H18 C21 1_555 1_555
C22 S1 1_555 1_555
C23 C22 1_555 1_555
H19 C23 1_555 1_555
C24 C23 1_555 1_555
H20 C24 1_555 1_555
C25 C24 1_555 1_555
C26 C25 1_555 1_555
H21 C26 1_555 1_555
C27 C22 1_555 1_555
H22 C27 1_555 1_555
C28 C25 1_555 1_555
H23 C28 1_555 1_555
H24 C28 1_555 1_555
H25 C28 1_555 1_555
C6 C7 1_555 1_555
C7 C8 1_555 1_555
C13 C14 1_555 1_555
C20 C21 1_555 1_555
C26 C27 1_555 1_555

#END
