
#######################################################################
#
#                 Cambridge Crystallographic Data Centre
#                                CCDC 
#
#######################################################################
#
# If this CIF has been generated from an entry in the Cambridge 
# Structural Database, then it will include bibliographic, chemical, 
# crystal, experimental, refinement or atomic coordinate data resulting 
# from the CCDC's data processing and validation procedures.
#
#######################################################################

data_ZIHDOM
_chemical_formula_moiety         'C23 H15 N1 O1 S1'
_chemical_name_systematic        
phenyl(2-phenyl-4H-thieno[3,2-b]indol-3-yl)methanone
_symmetry_cell_setting           triclinic
_symmetry_space_group_name_H-M   'P -1'
_symmetry_Int_Tables_number      2
_space_group_name_Hall           '-P 1'
loop_
_symmetry_equiv_pos_site_id
_symmetry_equiv_pos_as_xyz
1 x,y,z
2 -x,-y,-z
_cell_length_a                   7.7444(8)
_cell_length_b                   9.5545(11)
_cell_length_c                   13.1675(12)
_cell_angle_alpha                102.433(9)
_cell_angle_beta                 91.431(8)
_cell_angle_gamma                110.388(10)
_cell_volume                     886.525
_exptl_crystal_colour            colorless
_exptl_crystal_description       prismatic
_cell_formula_units_Z            2
loop_
_atom_site_label
_atom_site_type_symbol
_atom_site_fract_x
_atom_site_fract_y
_atom_site_fract_z
S1 S 0.40257(15) 0.81890(12) 0.89004(8)
N1 N 0.0540(5) 0.7260(4) 0.6558(3)
O1 O 0.1049(4) 0.4383(4) 0.5662(2)
C1 C 0.0106(6) 0.8497(5) 0.7061(3)
C2 C -0.1288(7) 0.8995(5) 0.6782(4)
H1 H -0.2031 0.8527 0.6148
C3 C -0.1536(8) 1.0196(6) 0.7469(4)
H2 H -0.2471 1.0535 0.7300
C4 C -0.0411(8) 1.0914(6) 0.8415(4)
H3 H -0.0598 1.1733 0.8863
C5 C 0.0970(7) 1.0434(5) 0.8698(4)
H4 H 0.1708 1.0920 0.9332
C6 C 0.1253(6) 0.9215(4) 0.8024(3)
C7 C 0.2403(5) 0.8342(4) 0.8060(3)
C8 C 0.1919(5) 0.7158(4) 0.7177(3)
C9 C 0.2845(5) 0.6090(4) 0.7154(3)
C10 C 0.4044(5) 0.6533(4) 0.8066(3)
C11 C 0.5245(5) 0.5791(4) 0.8435(3)
C12 C 0.7136(6) 0.6603(5) 0.8682(3)
H5 H 0.7632 0.7622 0.8635
C13 C 0.8282(7) 0.5920(6) 0.8995(4)
H6 H 0.9547 0.6473 0.9158
C14 C 0.7551(7) 0.4411(6) 0.9067(4)
H7 H 0.8329 0.3941 0.9266
C15 C 0.5679(7) 0.3600(6) 0.8846(3)
H8 H 0.5194 0.2585 0.8903
C16 C 0.4510(6) 0.4284(5) 0.8541(3)
H9 H 0.3239 0.3739 0.8407
C17 C 0.2415(5) 0.4729(4) 0.6286(3)
C18 C 0.3545(5) 0.3746(4) 0.6163(3)
C19 C 0.5431(6) 0.4347(5) 0.6124(3)
H10 H 0.6027 0.5396 0.6185
C20 C 0.6435(7) 0.3388(7) 0.5993(4)
H11 H 0.7704 0.3788 0.5954
C21 C 0.5565(10) 0.1857(7) 0.5923(4)
H12 H 0.6250 0.1218 0.5847
C22 C 0.3695(9) 0.1250(6) 0.5963(4)
H13 H 0.3116 0.0205 0.5922
C23 C 0.2664(7) 0.2186(5) 0.6063(3)
H14 H 0.1385 0.1768 0.6064
H15 H 0.012(6) 0.672(5) 0.598(4)
loop_
_geom_bond_atom_site_label_1
_geom_bond_atom_site_label_2
_geom_bond_site_symmetry_1
_geom_bond_site_symmetry_2
S1 C7 1_555 1_555
N1 C1 1_555 1_555
O1 C17 1_555 1_555
C1 C2 1_555 1_555
C2 H1 1_555 1_555
C3 C2 1_555 1_555
H2 C3 1_555 1_555
C4 C3 1_555 1_555
H3 C4 1_555 1_555
C5 C4 1_555 1_555
H4 C5 1_555 1_555
C6 C1 1_555 1_555
C7 C6 1_555 1_555
C8 N1 1_555 1_555
C9 C8 1_555 1_555
C10 S1 1_555 1_555
C11 C10 1_555 1_555
C12 C11 1_555 1_555
H5 C12 1_555 1_555
C13 C12 1_555 1_555
H6 C13 1_555 1_555
C14 C13 1_555 1_555
H7 C14 1_555 1_555
C15 C14 1_555 1_555
H8 C15 1_555 1_555
C16 C11 1_555 1_555
H9 C16 1_555 1_555
C17 C9 1_555 1_555
C18 C17 1_555 1_555
C19 C18 1_555 1_555
H10 C19 1_555 1_555
C20 C19 1_555 1_555
H11 C20 1_555 1_555
C21 C20 1_555 1_555
H12 C21 1_555 1_555
C22 C21 1_555 1_555
H13 C22 1_555 1_555
C23 C18 1_555 1_555
H14 C23 1_555 1_555
H15 N1 1_555 1_555
C5 C6 1_555 1_555
C7 C8 1_555 1_555
C9 C10 1_555 1_555
C15 C16 1_555 1_555
C22 C23 1_555 1_555

#END
