
#######################################################################
#
#                 Cambridge Crystallographic Data Centre
#                                CCDC 
#
#######################################################################
#
# If this CIF has been generated from an entry in the Cambridge 
# Structural Database, then it will include bibliographic, chemical, 
# crystal, experimental, refinement or atomic coordinate data resulting 
# from the CCDC's data processing and validation procedures.
#
#######################################################################

data_ZIHHOQ
_chemical_formula_moiety         'C20 H19 N1 O5'
_chemical_name_systematic        
'dimethyl 1-oxo-2,5-diphenyl-4,5-dihydro-3H-1-pyrrole-3,3-dicarboxylate'
_symmetry_cell_setting           triclinic
_symmetry_space_group_name_H-M   'P -1'
_symmetry_Int_Tables_number      2
_space_group_name_Hall           '-P 1'
loop_
_symmetry_equiv_pos_site_id
_symmetry_equiv_pos_as_xyz
1 x,y,z
2 -x,-y,-z
_cell_length_a                   9.683(2)
_cell_length_b                   9.746(3)
_cell_length_c                   11.167(3)
_cell_angle_alpha                68.90(3)
_cell_angle_beta                 72.87(2)
_cell_angle_gamma                64.67(3)
_cell_volume                     876.23
_exptl_crystal_colour            'light colorless'
_exptl_crystal_description       block
_cell_formula_units_Z            2
loop_
_atom_site_label
_atom_site_type_symbol
_atom_site_fract_x
_atom_site_fract_y
_atom_site_fract_z
O1 O 0.6658(3) 0.9610(4) -0.4186(2)
O2 O 0.4982(3) 0.9617(3) -0.2350(2)
O3 O 0.8396(4) 0.6247(5) -0.3964(3)
O4 O 1.0081(3) 0.6364(3) -0.3073(2)
O5 O 0.8662(3) 0.6845(2) 0.0702(2)
N1 N 0.8110(3) 0.6924(3) -0.0250(2)
C1 C 0.8037(4) 0.7974(3) -0.1392(3)
C2 C 0.7427(4) 0.7557(4) -0.2265(3)
C3 C 0.6661(4) 0.6394(4) -0.1262(3)
H1 H 0.5579 0.6951 -0.0964
H2 H 0.6731 0.5607 -0.1638
C4 C 0.7582(4) 0.5633(3) -0.0146(3)
H3 H 0.8489 0.4724 -0.0335
C5 C 0.6701(4) 0.5121(4) 0.1180(3)
C6 C 0.7157(4) 0.3547(4) 0.1873(3)
H4 H 0.8031 0.2811 0.1529
C7 C 0.6320(6) 0.3064(5) 0.3072(4)
H5 H 0.6621 0.2002 0.3528
C8 C 0.5051(5) 0.4144(6) 0.3592(4)
H6 H 0.4498 0.3818 0.4406
C9 C 0.4591(5) 0.5703(5) 0.2919(4)
H7 H 0.3721 0.6432 0.3272
C10 C 0.5414(4) 0.6196(4) 0.1717(3)
H8 H 0.5100 0.7260 0.1266
C11 C 0.8514(4) 0.9324(3) -0.1718(3)
C12 C 0.8221(5) 1.0119(4) -0.0802(4)
H9 H 0.7687 0.9806 0.0025
C13 C 0.8703(6) 1.1354(5) -0.1094(5)
H10 H 0.8505 1.1863 -0.0466
C14 C 0.9479(6) 1.1834(5) -0.2314(6)
H11 H 0.9801 1.2676 -0.2516
C15 C 0.9777(5) 1.1082(5) -0.3229(5)
H12 H 1.0317 1.1403 -0.4052
C16 C 0.9286(5) 0.9848(4) -0.2945(3)
H13 H 0.9475 0.9361 -0.3587
C17 C 0.6319(4) 0.9026(4) -0.3064(3)
C18 C 0.3871(5) 1.1060(4) -0.3015(4)
H14 H 0.3638 1.0878 -0.3710
H15 H 0.4303 1.1874 -0.3365
H16 H 0.2939 1.1382 -0.2410
C19 C 0.8679(4) 0.6650(4) -0.3206(3)
C20 C 1.1350(4) 0.5397(4) -0.3839(4)
H17 H 1.1313 0.5908 -0.4748
H18 H 1.1261 0.4389 -0.3625
H19 H 1.2317 0.5254 -0.3652
loop_
_geom_bond_atom_site_label_1
_geom_bond_atom_site_label_2
_geom_bond_site_symmetry_1
_geom_bond_site_symmetry_2
O1 C17 1_555 1_555
O2 C17 1_555 1_555
O3 C19 1_555 1_555
O4 C19 1_555 1_555
O5 N1 1_555 1_555
N1 C1 1_555 1_555
C1 C2 1_555 1_555
C2 C3 1_555 1_555
C3 H1 1_555 1_555
H2 C3 1_555 1_555
C4 N1 1_555 1_555
H3 C4 1_555 1_555
C5 C4 1_555 1_555
C6 C5 1_555 1_555
H4 C6 1_555 1_555
C7 C6 1_555 1_555
H5 C7 1_555 1_555
C8 C7 1_555 1_555
H6 C8 1_555 1_555
C9 C8 1_555 1_555
H7 C9 1_555 1_555
C10 C5 1_555 1_555
H8 C10 1_555 1_555
C11 C1 1_555 1_555
C12 C11 1_555 1_555
H9 C12 1_555 1_555
C13 C12 1_555 1_555
H10 C13 1_555 1_555
C14 C13 1_555 1_555
H11 C14 1_555 1_555
C15 C14 1_555 1_555
H12 C15 1_555 1_555
C16 C11 1_555 1_555
H13 C16 1_555 1_555
C17 C2 1_555 1_555
C18 O2 1_555 1_555
H14 C18 1_555 1_555
H15 C18 1_555 1_555
H16 C18 1_555 1_555
C19 C2 1_555 1_555
C20 O4 1_555 1_555
H17 C20 1_555 1_555
H18 C20 1_555 1_555
H19 C20 1_555 1_555
C3 C4 1_555 1_555
C9 C10 1_555 1_555
C15 C16 1_555 1_555

#END
