
#######################################################################
#
#                 Cambridge Crystallographic Data Centre
#                                CCDC 
#
#######################################################################
#
# If this CIF has been generated from an entry in the Cambridge 
# Structural Database, then it will include bibliographic, chemical, 
# crystal, experimental, refinement or atomic coordinate data resulting 
# from the CCDC's data processing and validation procedures.
#
#######################################################################

data_ZIHQOZ
_chemical_formula_moiety         'C25 H33 O4 P1 S1'
_chemical_name_systematic        
"2'-(dicyclohexylphosphaniumyl)-6-methoxy[1,1'-biphenyl]-3-sulfonate unknown solvate"
_symmetry_cell_setting           monoclinic
_symmetry_space_group_name_H-M   'P 21/c'
_symmetry_Int_Tables_number      14
_space_group_name_Hall           '-P 2ybc'
loop_
_symmetry_equiv_pos_site_id
_symmetry_equiv_pos_as_xyz
1 x,y,z
2 -x,1/2+y,1/2-z
3 -x,-y,-z
4 x,1/2-y,1/2+z
_cell_length_a                   9.888(4)
_cell_length_b                   18.146(6)
_cell_length_c                   15.891(6)
_cell_angle_alpha                90
_cell_angle_beta                 90.437(6)
_cell_angle_gamma                90
_cell_volume                     2851.2
_exptl_crystal_colour            colorless
_exptl_crystal_description       block
_cell_formula_units_Z            4
loop_
_atom_site_label
_atom_site_type_symbol
_atom_site_fract_x
_atom_site_fract_y
_atom_site_fract_z
S1 S 0.71248(11) -0.09905(4) 0.16059(7)
P1 P 0.84322(8) 0.24172(4) 0.25747(5)
H1 H 0.726(3) 0.2255(13) 0.2282(15)
O1 O 0.8435(3) -0.12347(13) 0.1433(3)
O2 O 0.7349(11) -0.0958(4) 0.2523(5)
O3 O 0.6161(3) -0.13655(14) 0.1109(3)
O4 O 0.7021(2) 0.21536(10) 0.06436(14)
C1 C 0.7042(3) -0.00492(15) 0.1306(2)
C2 C 0.5873(3) 0.02511(16) 0.1001(2)
H2 H 0.5102 -0.0039 0.0950
C3 C 0.5826(3) 0.09902(17) 0.0766(2)
H3 H 0.5033 0.1191 0.0546
C4 C 0.6969(3) 0.14220(15) 0.0862(2)
C5 C 0.8158(3) 0.11316(15) 0.11771(19)
C6 C 0.8182(3) 0.03877(15) 0.13928(19)
H4 H 0.8979 0.0181 0.1599
C7 C 0.5796(4) 0.24972(18) 0.0363(3)
H5 H 0.5453 0.2242 -0.0123
H6 H 0.5973 0.3002 0.0221
H7 H 0.5139 0.2478 0.0804
C8 C 0.9445(3) 0.15620(15) 0.1245(2)
C9 C 0.9672(3) 0.21350(15) 0.18217(19)
C10 C 1.0938(3) 0.24764(16) 0.1866(2)
H8 H 1.1091 0.2851 0.2255
C11 C 1.1955(3) 0.22615(19) 0.1340(2)
H9 H 1.2797 0.2488 0.1378
C12 C 1.1740(3) 0.1716(2) 0.0761(2)
H10 H 1.2431 0.1577 0.0401
C13 C 1.0494(3) 0.13710(17) 0.0709(2)
H11 H 1.0356 0.1004 0.0309
C14 C 0.8664(4) 0.19468(16) 0.3555(2)
H12 H 0.8014 0.2161 0.3948
C15 C 1.0072(4) 0.20851(19) 0.3931(2)
H13 H 1.0754 0.1887 0.3559
H14 H 1.0224 0.2611 0.3986
C16 C 1.0194(5) 0.1719(2) 0.4795(3)
H15 H 1.1104 0.1789 0.5012
H16 H 0.9572 0.1954 0.5180
C17 C 0.9894(5) 0.0921(2) 0.4759(3)
H17 H 0.9938 0.0716 0.5322
H18 H 1.0571 0.0676 0.4420
C18 C 0.8495(5) 0.0782(2) 0.4382(3)
H19 H 0.7813 0.0986 0.4751
H20 H 0.8342 0.0255 0.4340
C19 C 0.8349(4) 0.11313(17) 0.3504(3)
H21 H 0.8965 0.0894 0.3116
H22 H 0.7434 0.1061 0.3294
C20 C 0.8508(3) 0.34056(15) 0.2720(2)
H23 H 0.9460 0.3536 0.2809
C21 C 0.8033(4) 0.37998(17) 0.1929(2)
H24 H 0.7092 0.3682 0.1817
H25 H 0.8564 0.3639 0.1453
C22 C 0.8194(5) 0.46355(18) 0.2052(3)
H26 H 0.9147 0.4753 0.2114
H27 H 0.7857 0.4888 0.1555
C23 C 0.7450(5) 0.49082(19) 0.2808(3)
H28 H 0.6485 0.4841 0.2720
H29 H 0.7621 0.5431 0.2881
C24 C 0.7888(4) 0.44996(17) 0.3591(3)
H30 H 0.7356 0.4668 0.4064
H31 H 0.8830 0.4611 0.3711
C25 C 0.7721(3) 0.36740(16) 0.3496(2)
H32 H 0.6770 0.3554 0.3431
H33 H 0.8059 0.3428 0.3997
O5? O 0.6267(13) -0.1103(5) 0.2304(6)
loop_
_geom_bond_atom_site_label_1
_geom_bond_atom_site_label_2
_geom_bond_site_symmetry_1
_geom_bond_site_symmetry_2
S1 O1 1_555 1_555
P1 H1 1_555 1_555
O2 S1 1_555 1_555
O3 S1 1_555 1_555
O4 C4 1_555 1_555
C1 S1 1_555 1_555
C2 C1 1_555 1_555
H2 C2 1_555 1_555
C3 C2 1_555 1_555
H3 C3 1_555 1_555
C4 C3 1_555 1_555
C5 C4 1_555 1_555
C6 C1 1_555 1_555
H4 C6 1_555 1_555
C7 O4 1_555 1_555
H5 C7 1_555 1_555
H6 C7 1_555 1_555
H7 C7 1_555 1_555
C8 C5 1_555 1_555
C9 P1 1_555 1_555
C10 C9 1_555 1_555
H8 C10 1_555 1_555
C11 C10 1_555 1_555
H9 C11 1_555 1_555
C12 C11 1_555 1_555
H10 C12 1_555 1_555
C13 C8 1_555 1_555
H11 C13 1_555 1_555
C14 P1 1_555 1_555
H12 C14 1_555 1_555
C15 C14 1_555 1_555
H13 C15 1_555 1_555
H14 C15 1_555 1_555
C16 C15 1_555 1_555
H15 C16 1_555 1_555
H16 C16 1_555 1_555
C17 C16 1_555 1_555
H17 C17 1_555 1_555
H18 C17 1_555 1_555
C18 C17 1_555 1_555
H19 C18 1_555 1_555
H20 C18 1_555 1_555
C19 C14 1_555 1_555
H21 C19 1_555 1_555
H22 C19 1_555 1_555
C20 P1 1_555 1_555
H23 C20 1_555 1_555
C21 C20 1_555 1_555
H24 C21 1_555 1_555
H25 C21 1_555 1_555
C22 C21 1_555 1_555
H26 C22 1_555 1_555
H27 C22 1_555 1_555
C23 C22 1_555 1_555
H28 C23 1_555 1_555
H29 C23 1_555 1_555
C24 C23 1_555 1_555
H30 C24 1_555 1_555
H31 C24 1_555 1_555
C25 C20 1_555 1_555
H32 C25 1_555 1_555
H33 C25 1_555 1_555
C5 C6 1_555 1_555
C8 C9 1_555 1_555
C12 C13 1_555 1_555
C18 C19 1_555 1_555
C24 C25 1_555 1_555

#END
