
#######################################################################
#
#                 Cambridge Crystallographic Data Centre
#                                CCDC 
#
#######################################################################
#
# If this CIF has been generated from an entry in the Cambridge 
# Structural Database, then it will include bibliographic, chemical, 
# crystal, experimental, refinement or atomic coordinate data resulting 
# from the CCDC's data processing and validation procedures.
#
#######################################################################

data_ZIHQEP
_chemical_formula_moiety         'C14 H15 N1 O1'
_chemical_name_systematic        4-(naphthalen-2-yl)morpholine
_symmetry_cell_setting           orthorhombic
_symmetry_space_group_name_H-M   'P b c a'
_symmetry_Int_Tables_number      61
_space_group_name_Hall           '-P 2ac 2ab'
loop_
_symmetry_equiv_pos_site_id
_symmetry_equiv_pos_as_xyz
1 x,y,z
2 1/2-x,-y,1/2+z
3 -x,1/2+y,1/2-z
4 1/2+x,1/2-y,-z
5 -x,-y,-z
6 1/2+x,y,1/2-z
7 x,1/2-y,1/2+z
8 1/2-x,1/2+y,z
_cell_length_a                   8.5353(7)
_cell_length_b                   23.2164(18)
_cell_length_c                   34.350(3)
_cell_angle_alpha                90
_cell_angle_beta                 90
_cell_angle_gamma                90
_cell_volume                     6806.76
_exptl_crystal_colour            colorless
_exptl_crystal_description       plate-like
_cell_formula_units_Z            24
loop_
_atom_site_label
_atom_site_type_symbol
_atom_site_fract_x
_atom_site_fract_y
_atom_site_fract_z
C1 C 0.7058(2) 0.37727(10) 0.19579(6)
C2 C 0.7632(3) 0.34200(10) 0.16477(6)
H1 H 0.831647 0.358277 0.145950
C3 C 0.7216(3) 0.28557(11) 0.16169(6)
H2 H 0.762024 0.263190 0.140826
C4 C 0.6204(2) 0.25989(10) 0.18868(5)
C5 C 0.5777(3) 0.20013(10) 0.18657(6)
H3 H 0.618858 0.176569 0.166401
C6 C 0.4785(3) 0.17721(10) 0.21342(6)
H4 H 0.451444 0.137565 0.212135
C7 C 0.4163(3) 0.21190(10) 0.24290(7)
H5 H 0.344403 0.195749 0.260961
C8 C 0.4569(3) 0.26827(10) 0.24616(7)
H6 H 0.414187 0.290802 0.266672
C9 C 0.5607(2) 0.29355(9) 0.21968(6)
C10 C 0.6082(3) 0.35249(9) 0.22247(6)
H7 H 0.570614 0.375116 0.243539
O1 O 0.8963(5) 0.54103(13) 0.21467(11)
N1 N 0.7459(7) 0.4359(2) 0.19554(14)
C11 C 0.8985(6) 0.45088(17) 0.18020(12)
H8 H 0.909861 0.434419 0.153761
H9 H 0.980657 0.433735 0.196916
C12 C 0.9219(8) 0.5150(2) 0.17829(17)
H10 H 1.030080 0.523295 0.169544
H11 H 0.848747 0.531561 0.158944
C13 C 0.7395(7) 0.5303(2) 0.2259(2)
H12 H 0.668050 0.547023 0.206230
H13 H 0.718742 0.549734 0.251038
C14 C 0.7051(6) 0.4678(2) 0.23004(17)
H14 H 0.764465 0.452248 0.252466
H15 H 0.592086 0.462611 0.235494
O3 O 0.0257(2) 0.09148(7) 0.13882(5)
N3 N 0.0487(2) 0.21169(7) 0.12560(5)
C19 C 0.0872(2) 0.26936(8) 0.11646(6)
C20 C 0.0122(2) 0.29568(9) 0.08370(6)
H24 H -0.054940 0.273164 0.067735
C21 C 0.0349(2) 0.35235(10) 0.07489(6)
H25 H -0.016127 0.368668 0.052926
C22 C 0.1331(2) 0.38676(9) 0.09801(6)
C23 C 0.1566(3) 0.44710(10) 0.08972(8)
H26 H 0.105605 0.464286 0.068051
C24 C 0.2507(3) 0.47912(10) 0.11263(8)
H27 H 0.266095 0.518790 0.107033
C25 C 0.3268(3) 0.45369(10) 0.14511(8)
H28 H 0.392737 0.476611 0.161111
C26 C 0.3064(3) 0.39667(10) 0.15369(7)
H29 H 0.358633 0.380165 0.175415
C27 C 0.2091(2) 0.36278(9) 0.13056(6)
C28 C 0.1844(2) 0.30232(9) 0.13877(6)
H30 H 0.237110 0.285187 0.160203
C29 C 0.0312(3) 0.17150(9) 0.09372(6)
H31 H 0.135782 0.162422 0.082865
H32 H -0.031799 0.189643 0.072861
C30 C -0.0466(3) 0.11692(10) 0.10637(8)
H33 H -0.157448 0.125175 0.112783
H34 H -0.045365 0.089206 0.084471
C31 C 0.0350(3) 0.13102(11) 0.16990(7)
H35 H 0.091542 0.112569 0.191762
H36 H -0.072465 0.139812 0.178957
C32 C 0.1152(3) 0.18612(10) 0.16003(6)
H37 H 0.105155 0.213276 0.182108
H38 H 0.228133 0.178733 0.155717
O4 O 0.63129(19) 0.49941(6) 0.04035(5)
N4 N 0.66941(18) 0.37781(7) 0.03767(4)
C33 C 0.6538(2) 0.31754(8) 0.03490(5)
C34 C 0.7360(2) 0.28824(9) 0.00457(5)
H39 H 0.792512 0.310003 -0.014175
C35 C 0.7349(2) 0.22977(9) 0.00203(6)
H40 H 0.790619 0.211539 -0.018501
C36 C 0.6527(2) 0.19551(8) 0.02924(5)
C37 C 0.6498(3) 0.13464(9) 0.02772(6)
H41 H 0.705565 0.115209 0.007712
C38 C 0.5681(3) 0.10341(9) 0.05452(7)
H42 H 0.567908 0.062546 0.053135
C39 C 0.4842(3) 0.13150(9) 0.08422(7)
H43 H 0.426828 0.109539 0.102696
C40 C 0.4850(2) 0.19028(9) 0.08659(6)
H44 H 0.427696 0.208780 0.106747
C41 C 0.5697(2) 0.22401(8) 0.05948(5)
C42 C 0.5718(2) 0.28506(8) 0.06147(5)
H45 H 0.515274 0.303906 0.081605
C43 C 0.6448(3) 0.41156(9) 0.00204(6)
H46 H 0.531901 0.412273 -0.004501
H47 H 0.701746 0.393432 -0.019882
C44 C 0.7033(3) 0.47224(9) 0.00795(7)
H48 H 0.818160 0.471430 0.011948
H49 H 0.681942 0.495083 -0.015805
C45 C 0.6592(3) 0.46657(9) 0.07459(6)
H50 H 0.608547 0.485778 0.097036
H51 H 0.773251 0.465040 0.079675
C46 C 0.5964(2) 0.40593(8) 0.07092(6)
H52 H 0.619486 0.384009 0.094966
H53 H 0.481343 0.406987 0.067360
O2? O 0.807(3) 0.5569(7) 0.2114(5)
N2? N 0.757(4) 0.4373(10) 0.2069(5)
C15? C 0.809(3) 0.4684(9) 0.1735(5)
H16? H 0.722839 0.469177 0.154343
H17? H 0.896931 0.446667 0.161602
C16? C 0.863(3) 0.5285(8) 0.1801(7)
H18? H 0.978265 0.528100 0.181873
H19? H 0.834813 0.551234 0.156676
C17? C 0.776(3) 0.5254(8) 0.2451(5)
H20? H 0.687697 0.544722 0.258525
H21? H 0.868521 0.529360 0.262319
C18? C 0.738(3) 0.4636(8) 0.2432(5)
H22? H 0.804122 0.442990 0.262290
H23? H 0.627421 0.458506 0.251347
loop_
_geom_bond_atom_site_label_1
_geom_bond_atom_site_label_2
_geom_bond_site_symmetry_1
_geom_bond_site_symmetry_2
C1 C2 1_555 1_555
C2 H1 1_555 1_555
C3 C2 1_555 1_555
H2 C3 1_555 1_555
C4 C3 1_555 1_555
C5 C4 1_555 1_555
H3 C5 1_555 1_555
C6 C5 1_555 1_555
H4 C6 1_555 1_555
C7 C6 1_555 1_555
H5 C7 1_555 1_555
C8 C7 1_555 1_555
H6 C8 1_555 1_555
C9 C4 1_555 1_555
C10 C1 1_555 1_555
H7 C10 1_555 1_555
O1 C12 1_555 1_555
N1 C1 1_555 1_555
C11 N1 1_555 1_555
H8 C11 1_555 1_555
H9 C11 1_555 1_555
C12 C11 1_555 1_555
H10 C12 1_555 1_555
H11 C12 1_555 1_555
C13 O1 1_555 1_555
H12 C13 1_555 1_555
H13 C13 1_555 1_555
C14 N1 1_555 1_555
H14 C14 1_555 1_555
H15 C14 1_555 1_555
O3 C30 1_555 1_555
N3 C19 1_555 1_555
C19 C20 1_555 1_555
C20 H24 1_555 1_555
C21 C20 1_555 1_555
H25 C21 1_555 1_555
C22 C21 1_555 1_555
C23 C22 1_555 1_555
H26 C23 1_555 1_555
C24 C23 1_555 1_555
H27 C24 1_555 1_555
C25 C24 1_555 1_555
H28 C25 1_555 1_555
C26 C25 1_555 1_555
H29 C26 1_555 1_555
C27 C22 1_555 1_555
C28 C19 1_555 1_555
H30 C28 1_555 1_555
C29 N3 1_555 1_555
H31 C29 1_555 1_555
H32 C29 1_555 1_555
C30 C29 1_555 1_555
H33 C30 1_555 1_555
H34 C30 1_555 1_555
C31 O3 1_555 1_555
H35 C31 1_555 1_555
H36 C31 1_555 1_555
C32 N3 1_555 1_555
H37 C32 1_555 1_555
H38 C32 1_555 1_555
O4 C44 1_555 1_555
N4 C33 1_555 1_555
C33 C34 1_555 1_555
C34 H39 1_555 1_555
C35 C34 1_555 1_555
H40 C35 1_555 1_555
C36 C35 1_555 1_555
C37 C36 1_555 1_555
H41 C37 1_555 1_555
C38 C37 1_555 1_555
H42 C38 1_555 1_555
C39 C38 1_555 1_555
H43 C39 1_555 1_555
C40 C39 1_555 1_555
H44 C40 1_555 1_555
C41 C36 1_555 1_555
C42 C33 1_555 1_555
H45 C42 1_555 1_555
C43 N4 1_555 1_555
H46 C43 1_555 1_555
H47 C43 1_555 1_555
C44 C43 1_555 1_555
H48 C44 1_555 1_555
H49 C44 1_555 1_555
C45 O4 1_555 1_555
H50 C45 1_555 1_555
H51 C45 1_555 1_555
C46 N4 1_555 1_555
H52 C46 1_555 1_555
H53 C46 1_555 1_555
C8 C9 1_555 1_555
C9 C10 1_555 1_555
C13 C14 1_555 1_555
C26 C27 1_555 1_555
C27 C28 1_555 1_555
C31 C32 1_555 1_555
C40 C41 1_555 1_555
C41 C42 1_555 1_555
C45 C46 1_555 1_555

#END
