
#######################################################################
#
#                 Cambridge Crystallographic Data Centre
#                                CCDC 
#
#######################################################################
#
# If this CIF has been generated from an entry in the Cambridge 
# Structural Database, then it will include bibliographic, chemical, 
# crystal, experimental, refinement or atomic coordinate data resulting 
# from the CCDC's data processing and validation procedures.
#
#######################################################################

data_ZIHQUF
_chemical_formula_moiety         'C20 H28 N5 O5 P1 S2'
_chemical_name_systematic        
1-[4-azido-5-({[3a-methyl-6-(prop-1-en-2-yl)-2-sulfanylidenehexahydro-2H-1,3,2-benzoxathiaphosphol-2-yl]oxy}methyl)oxolan-2-yl]-5-methylpyrimidine-2,4(1H,3H)-dione
_symmetry_cell_setting           orthorhombic
_symmetry_space_group_name_H-M   'P 21 21 21'
_symmetry_Int_Tables_number      19
_space_group_name_Hall           'P 2ac 2ab'
loop_
_symmetry_equiv_pos_site_id
_symmetry_equiv_pos_as_xyz
1 x,y,z
2 1/2-x,-y,1/2+z
3 -x,1/2+y,1/2-z
4 1/2+x,1/2-y,-z
_cell_length_a                   7.4416(3)
_cell_length_b                   10.5158(3)
_cell_length_c                   30.7194(12)
_cell_angle_alpha                90
_cell_angle_beta                 90
_cell_angle_gamma                90
_cell_volume                     2403.93
_exptl_crystal_colour            colorless
_exptl_crystal_description       block
_cell_formula_units_Z            4
loop_
_atom_site_label
_atom_site_type_symbol
_atom_site_fract_x
_atom_site_fract_y
_atom_site_fract_z
S1 S 1.00378(12) 0.74918(8) 0.32176(3)
P1 P 0.81580(12) 0.88190(7) 0.34328(3)
S2 S 0.85743(13) 1.06127(8) 0.33849(3)
O1 O 0.7829(3) 0.8311(2) 0.39156(7)
O2 O 0.4208(4) 0.77051(19) 0.39784(7)
O3 O 0.6460(3) 0.83668(19) 0.31533(7)
O4 O 0.1270(3) 0.5499(2) 0.47806(7)
O5 O 0.5586(4) 0.2435(2) 0.47945(8)
N1 N 0.3468(4) 0.3981(2) 0.47861(8)
H1 H 0.276381 0.347263 0.493656
N2 N 0.1913(4) 1.1039(3) 0.41584(9)
N3 N 0.3926(4) 0.5932(2) 0.44475(8)
N4 N 0.1779(4) 0.9928(2) 0.42935(10)
C1 C 0.3512(5) 0.9408(3) 0.44570(10)
H2 H 0.412773 1.002230 0.465591
C2 C 0.8390(5) 0.6812(3) 0.28218(10)
N5 N 0.1870(6) 1.2042(3) 0.40246(13)
C3 C 0.5623(5) 0.5532(3) 0.43278(10)
H3 H 0.635528 0.609684 0.416393
C4 C 0.4802(5) 0.4405(3) 0.31406(10)
C5 C 0.2780(5) 0.5157(3) 0.46784(10)
C6 C 0.8649(5) 0.5378(3) 0.27590(11)
H4 H 0.876277 0.495939 0.304626
H5 H 0.976814 0.521979 0.259327
C7 C 0.8592(5) 0.7536(3) 0.23916(10)
H6 H 0.830058 0.843484 0.243761
H7 H 0.777154 0.717558 0.217465
H8 H 0.983202 0.746057 0.228750
C8 C 0.3127(5) 0.4818(3) 0.33813(11)
H9 H 0.289228 0.422736 0.362150
H10 H 0.210276 0.481648 0.318088
H11 H 0.330222 0.567671 0.349751
C9 C 0.5774(6) 0.3437(3) 0.32843(12)
C10 C 0.6296(5) 0.4376(3) 0.44322(10)
C11 C 0.4746(5) 0.8989(3) 0.40867(10)
H12 H 0.456150 0.955444 0.382894
C12 C 0.3109(5) 0.8154(3) 0.46861(10)
H13 H 0.191884 0.817697 0.482970
H14 H 0.403957 0.795552 0.490635
C13 C 0.3136(5) 0.7182(3) 0.43144(10)
H15 H 0.188507 0.704725 0.420465
C14 C 0.5149(5) 0.3522(3) 0.46818(10)
C15 C 0.6574(5) 0.7011(3) 0.30463(10)
H16 H 0.656907 0.651524 0.332407
C16 C 0.5022(5) 0.6579(3) 0.27745(10)
H17 H 0.504708 0.700539 0.248714
H18 H 0.387361 0.679043 0.292013
C17 C 0.6712(5) 0.9011(3) 0.42186(10)
H19 H 0.712980 0.990338 0.423278
H20 H 0.683828 0.863563 0.451257
C18 C 0.7031(5) 0.4813(3) 0.25101(11)
H21 H 0.704181 0.514340 0.220833
H22 H 0.717311 0.387817 0.249495
C19 C 0.5199(5) 0.5119(3) 0.27177(10)
H23 H 0.425966 0.485630 0.250317
C20 C 0.8109(5) 0.3924(3) 0.42922(11)
H24 H 0.797958 0.314867 0.411783
H25 H 0.884324 0.374160 0.454960
H26 H 0.869395 0.458409 0.411727
H27 H 0.539(5) 0.298(3) 0.3543(10)
H28 H 0.685(6) 0.317(3) 0.3140(12)
loop_
_geom_bond_atom_site_label_1
_geom_bond_atom_site_label_2
_geom_bond_site_symmetry_1
_geom_bond_site_symmetry_2
S1 P1 1_555 1_555
P1 S2 1_555 1_555
O1 P1 1_555 1_555
O2 C11 1_555 1_555
O3 P1 1_555 1_555
O4 C5 1_555 1_555
O5 C14 1_555 1_555
N1 H1 1_555 1_555
N2 N4 1_555 1_555
N3 C3 1_555 1_555
N4 C1 1_555 1_555
C1 H2 1_555 1_555
C2 S1 1_555 1_555
N5 N2 1_555 1_555
C3 H3 1_555 1_555
C4 C8 1_555 1_555
C5 N1 1_555 1_555
C6 C2 1_555 1_555
H4 C6 1_555 1_555
H5 C6 1_555 1_555
C7 C2 1_555 1_555
H6 C7 1_555 1_555
H7 C7 1_555 1_555
H8 C7 1_555 1_555
C8 H9 1_555 1_555
H10 C8 1_555 1_555
H11 C8 1_555 1_555
C9 C4 1_555 1_555
C10 C3 1_555 1_555
C11 C1 1_555 1_555
H12 C11 1_555 1_555
C12 C1 1_555 1_555
H13 C12 1_555 1_555
H14 C12 1_555 1_555
C13 O2 1_555 1_555
H15 C13 1_555 1_555
C14 N1 1_555 1_555
C15 O3 1_555 1_555
H16 C15 1_555 1_555
C16 C15 1_555 1_555
H17 C16 1_555 1_555
H18 C16 1_555 1_555
C17 O1 1_555 1_555
H19 C17 1_555 1_555
H20 C17 1_555 1_555
C18 C6 1_555 1_555
H21 C18 1_555 1_555
H22 C18 1_555 1_555
C19 C4 1_555 1_555
H23 C19 1_555 1_555
C20 C10 1_555 1_555
H24 C20 1_555 1_555
H25 C20 1_555 1_555
H26 C20 1_555 1_555
H27 C9 1_555 1_555
H28 C9 1_555 1_555
N3 C5 1_555 1_555
N3 C13 1_555 1_555
C2 C15 1_555 1_555
C10 C14 1_555 1_555
C11 C17 1_555 1_555
C12 C13 1_555 1_555
C16 C19 1_555 1_555
C18 C19 1_555 1_555

#END
