
#######################################################################
#
#                 Cambridge Crystallographic Data Centre
#                                CCDC 
#
#######################################################################
#
# If this CIF has been generated from an entry in the Cambridge 
# Structural Database, then it will include bibliographic, chemical, 
# crystal, experimental, refinement or atomic coordinate data resulting 
# from the CCDC's data processing and validation procedures.
#
#######################################################################

data_ZIHSER
_chemical_formula_moiety         'C18 H15 Cl2 N1 O2'
_chemical_name_systematic        
5-{(3,4-dichlorophenyl)[(4-methylphenyl)amino]methyl}furan-2(5H)-one
_symmetry_cell_setting           monoclinic
_symmetry_space_group_name_H-M   'P 21'
_symmetry_Int_Tables_number      4
_space_group_name_Hall           'P 2yb'
loop_
_symmetry_equiv_pos_site_id
_symmetry_equiv_pos_as_xyz
1 x,y,z
2 -x,1/2+y,-z
_cell_length_a                   6.5884(5)
_cell_length_b                   9.7332(8)
_cell_length_c                   13.2831(10)
_cell_angle_alpha                90
_cell_angle_beta                 103.5510(10)
_cell_angle_gamma                90
_cell_volume                     828.082
_cell_formula_units_Z            2
loop_
_atom_site_label
_atom_site_type_symbol
_atom_site_fract_x
_atom_site_fract_y
_atom_site_fract_z
Cl1 Cl 0.15569(16) 0.34103(15) 0.55288(8)
Cl2 Cl 0.3829(2) 0.11960(17) 0.44581(9)
O1 O 0.5354(4) 0.3124(3) 0.93572(19)
O2 O 0.2600(5) 0.1747(4) 0.9238(3)
N1 N 0.7929(6) 0.5147(4) 0.8642(3)
H1 H 0.804808 0.535727 0.928179
C1 C 0.9002(6) 0.6106(5) 0.8170(3)
C2 C 0.8470(8) 0.7480(5) 0.8183(3)
H2 H 0.736895 0.774692 0.846739
C3 C 0.9575(8) 0.8457(6) 0.7774(3)
H3 H 0.919278 0.937474 0.779602
C4 C 1.1221(7) 0.8135(5) 0.7332(3)
C5 C 1.1682(8) 0.6760(5) 0.7308(5)
H4 H 1.276985 0.649279 0.701396
C6 C 1.0588(8) 0.5749(5) 0.7706(5)
H5 H 1.093286 0.482842 0.765760
C7 C 1.2391(8) 0.9199(6) 0.6872(4)
H6 H 1.151164 0.954486 0.624269
H7 H 1.361745 0.879138 0.672618
H8 H 1.279078 0.994015 0.735496
C8 C 0.8231(6) 0.3691(4) 0.8546(3)
H9 H 0.973047 0.353205 0.863028
C9 C 0.7120(6) 0.3101(4) 0.7497(3)
C10 C 0.8123(6) 0.2150(5) 0.7004(3)
H10 H 0.949697 0.190602 0.730220
C11 C 0.7106(8) 0.1559(5) 0.6076(4)
H11 H 0.778445 0.091075 0.575794
C12 C 0.5090(7) 0.1936(5) 0.5628(3)
C13 C 0.4089(6) 0.2894(5) 0.6093(3)
C14 C 0.5092(5) 0.3473(5) 0.7028(3)
H12 H 0.439957 0.411575 0.734327
C15 C 0.7558(6) 0.2941(5) 0.9436(3)
H13 H 0.833948 0.331607 1.009823
C16 C 0.7838(6) 0.1426(5) 0.9440(3)
H14 H 0.910076 0.097439 0.948602
C17 C 0.6041(6) 0.0827(5) 0.9370(3)
H15 H 0.582317 -0.011707 0.936048
C18 C 0.4435(7) 0.1861(5) 0.9309(3)
loop_
_geom_bond_atom_site_label_1
_geom_bond_atom_site_label_2
_geom_bond_site_symmetry_1
_geom_bond_site_symmetry_2
Cl1 C13 1_555 1_555
Cl2 C12 1_555 1_555
O1 C15 1_555 1_555
O2 C18 1_555 1_555
N1 H1 1_555 1_555
C1 N1 1_555 1_555
C2 C1 1_555 1_555
H2 C2 1_555 1_555
C3 C2 1_555 1_555
H3 C3 1_555 1_555
C4 C3 1_555 1_555
C5 C4 1_555 1_555
H4 C5 1_555 1_555
C6 C1 1_555 1_555
H5 C6 1_555 1_555
C7 C4 1_555 1_555
H6 C7 1_555 1_555
H7 C7 1_555 1_555
H8 C7 1_555 1_555
C8 N1 1_555 1_555
H9 C8 1_555 1_555
C9 C8 1_555 1_555
C10 C9 1_555 1_555
H10 C10 1_555 1_555
C11 C10 1_555 1_555
H11 C11 1_555 1_555
C12 C11 1_555 1_555
C13 C12 1_555 1_555
C14 C9 1_555 1_555
H12 C14 1_555 1_555
C15 C8 1_555 1_555
H13 C15 1_555 1_555
C16 C15 1_555 1_555
H14 C16 1_555 1_555
C17 C16 1_555 1_555
H15 C17 1_555 1_555
C18 O1 1_555 1_555
C5 C6 1_555 1_555
C13 C14 1_555 1_555
C17 C18 1_555 1_555

#END
