
#######################################################################
#
#                 Cambridge Crystallographic Data Centre
#                                CCDC 
#
#######################################################################
#
# If this CIF has been generated from an entry in the Cambridge 
# Structural Database, then it will include bibliographic, chemical, 
# crystal, experimental, refinement or atomic coordinate data resulting 
# from the CCDC's data processing and validation procedures.
#
#######################################################################

data_ZIHYEX
_chemical_formula_moiety         'C18 H33 N4 1+,Cl1 O4 1-,0.5(H2 O1)'
_chemical_name_systematic        
'6-methyl-3,9-bis(propan-2-yl)-3,6,9,15-tetraazabicyclo[9.3.1]pentadeca-1(15),11,13-trien-6-ium perchlorate hemihydrate'
_symmetry_cell_setting           monoclinic
_symmetry_space_group_name_H-M   'P 21/n'
_symmetry_Int_Tables_number      14
_space_group_name_Hall           '-P 2yn'
loop_
_symmetry_equiv_pos_site_id
_symmetry_equiv_pos_as_xyz
1 x,y,z
2 1/2-x,1/2+y,1/2-z
3 -x,-y,-z
4 1/2+x,1/2-y,1/2+z
_cell_length_a                   11.2180(3)
_cell_length_b                   26.6036(7)
_cell_length_c                   14.8328(4)
_cell_angle_alpha                90
_cell_angle_beta                 99.409(3)
_cell_angle_gamma                90
_cell_volume                     4367.13
_exptl_crystal_colour            colorless
_exptl_crystal_description       block
_cell_formula_units_Z            8
_exptl_crystal_recrystallization_method water
loop_
_atom_site_label
_atom_site_type_symbol
_atom_site_fract_x
_atom_site_fract_y
_atom_site_fract_z
Cl1 Cl 0.78634(6) 0.41299(2) 0.08913(4)
O1 O 0.68145(16) 0.43864(6) 0.04350(12)
O2 O 0.8338(2) 0.43858(7) 0.17138(13)
O3 O 0.87511(19) 0.41071(9) 0.03046(13)
O4 O 0.7539(3) 0.36338(7) 0.11039(18)
Cl2 Cl 0.70874(6) 0.26180(2) 0.55287(4)
O5 O 0.7345(2) 0.31414(7) 0.55535(15)
O6 O 0.81384(19) 0.23309(7) 0.58879(13)
O7 O 0.6152(2) 0.25170(8) 0.60553(17)
O8 O 0.6672(2) 0.24680(8) 0.46037(14)
N1 N 0.01853(19) 0.39545(7) 0.75532(13)
N2 N 0.19764(19) 0.31894(7) 0.76292(14)
N3 N 0.43279(19) 0.35264(7) 0.83748(14)
N4 N 0.22572(19) 0.39327(7) 0.89359(13)
H1 H 0.2254 0.3753 0.8359
C1 C -0.0125(2) 0.34295(9) 0.73146(18)
H2 H -0.0785 0.3423 0.6803
H3 H -0.0401 0.3267 0.7829
C2 C 0.0928(2) 0.31368(8) 0.70653(17)
C3 C 0.2936(2) 0.29163(8) 0.74983(18)
C4 C 0.4053(2) 0.29922(9) 0.82022(19)
H4 H 0.3938 0.2832 0.8769
H5 H 0.4734 0.2831 0.7993
C5 C 0.5325(2) 0.37185(10) 0.79339(19)
H6 H 0.5373 0.4081 0.8053
C6 C 0.0040(2) 0.40917(10) 0.84856(16)
H7 H -0.0740 0.3975 0.8602
H8 H 0.0060 0.4455 0.8547
C7 C 0.3181(2) 0.36818(10) 0.96239(17)
H9 H 0.2924 0.3340 0.9716
H10 H 0.3238 0.3858 1.0202
C8 C 0.0812(3) 0.28132(9) 0.63212(19)
H11 H 0.0081 0.2785 0.5925
C9 C 0.2570(3) 0.44627(9) 0.87646(18)
H12 H 0.2626 0.4651 0.9322
H13 H 0.1954 0.4606 0.8312
H14 H 0.3331 0.4474 0.8549
C10 C 0.2875(3) 0.25805(10) 0.6777(2)
H15 H 0.3545 0.2390 0.6699
C11 C -0.0359(2) 0.43253(9) 0.68707(17)
H16 H -0.0057 0.4656 0.7093
C12 C -0.1734(3) 0.43546(10) 0.67270(19)
H17 H -0.2069 0.4039 0.6494
H18 H -0.2005 0.4617 0.6298
H19 H -0.1994 0.4426 0.7299
C13 C 0.5023(3) 0.36562(11) 0.68987(19)
H20 H 0.5037 0.3306 0.6746
H21 H 0.5610 0.3833 0.6615
H22 H 0.4234 0.3791 0.6684
C14 C 0.1029(2) 0.38635(10) 0.91823(17)
H23 H 0.1011 0.4017 0.9773
H24 H 0.0874 0.3507 0.9236
C15 C 0.4416(3) 0.36707(10) 0.93341(18)
H25 H 0.4785 0.4001 0.9425
H26 H 0.4930 0.3433 0.9713
C16 C 0.1808(3) 0.25339(10) 0.6182(2)
H27 H 0.1754 0.2316 0.5687
C17 C 0.6560(3) 0.35023(11) 0.8320(2)
H28 H 0.6725 0.3558 0.8968
H29 H 0.7168 0.3664 0.8037
H30 H 0.6565 0.3148 0.8200
C18 C 0.0083(3) 0.42389(11) 0.59757(18)
H31 H 0.0948 0.4213 0.6084
H32 H -0.0159 0.4515 0.5571
H33 H -0.0259 0.3933 0.5703
O9 O 0.3994(2) 0.20339(8) 0.47478(15)
H34 H 0.4634(6) 0.21399(12) 0.5101(3)
H35 H 0.3799(3) 0.18277(19) 0.5067(3)
N5 N 0.83018(19) 0.64605(7) 0.68147(13)
N6 N 0.5830(2) 0.66844(7) 0.65443(13)
H36 H 0.6181 0.6368 0.6799
N7 N 0.44143(19) 0.58352(8) 0.67762(13)
N8 N 0.67345(19) 0.59399(7) 0.78052(12)
C19 C 0.9140(2) 0.62747(9) 0.62217(17)
H37 H 0.8765 0.6345 0.5590
C20 C 0.8662(2) 0.63316(9) 0.77879(16)
H38 H 0.8556 0.6623 0.8159
H39 H 0.9511 0.6242 0.7900
C21 C 0.9251(3) 0.57089(9) 0.63115(18)
H40 H 0.9677 0.5625 0.6908
H41 H 0.9688 0.5581 0.5855
H42 H 0.8460 0.5561 0.6229
C22 C 0.5670(3) 0.66294(10) 0.55357(16)
H43 H 0.5395 0.6942 0.5252
H44 H 0.5084 0.6372 0.5344
H45 H 0.6427 0.6539 0.5359
C23 C 0.7927(2) 0.58997(9) 0.80678(14)
C24 C 0.6448(3) 0.51811(9) 0.85887(16)
H46 H 0.5928 0.4944 0.8774
C25 C 0.4672(2) 0.56774(10) 0.77416(16)
H47 H 0.4231 0.5371 0.7818
H48 H 0.4393 0.5935 0.8120
C26 C 0.7952(3) 0.69859(9) 0.66524(18)
H49 H 0.7945 0.7067 0.6014
H50 H 0.8541 0.7201 0.7017
C27 C 0.3803(3) 0.63210(10) 0.66378(19)
H51 H 0.3156 0.6335 0.6999
H52 H 0.3447 0.6356 0.6000
C28 C 0.7683(2) 0.51322(9) 0.88414(15)
H53 H 0.8003 0.4858 0.9186
C29 C 0.5991(2) 0.55887(9) 0.80535(15)
C30 C 0.6715(3) 0.70861(9) 0.68945(18)
H54 H 0.6780 0.7108 0.7554
H55 H 0.6421 0.7407 0.6638
C31 C 0.3909(3) 0.54422(11) 0.61316(18)
H56 H 0.3866 0.5584 0.5517
C32 C 1.0373(3) 0.65311(10) 0.63722(19)
H57 H 1.0267 0.6889 0.6321
H58 H 1.0833 0.6417 0.5920
H59 H 1.0796 0.6449 0.6970
C33 C 0.8441(2) 0.54941(9) 0.85783(15)
H60 H 0.9275 0.5467 0.8739
C34 C 0.4671(3) 0.67500(10) 0.69095(19)
H61 H 0.4293 0.7063 0.6681
H62 H 0.4845 0.6772 0.7571
C35 C 0.2627(3) 0.52761(13) 0.6219(2)
H63 H 0.2632 0.5123 0.6806
H64 H 0.2342 0.5038 0.5747
H65 H 0.2102 0.5563 0.6160
C36 C 0.4764(3) 0.49984(11) 0.6189(2)
H66 H 0.5560 0.5115 0.6137
H67 H 0.4490 0.4768 0.5700
H68 H 0.4784 0.4831 0.6764
loop_
_geom_bond_atom_site_label_1
_geom_bond_atom_site_label_2
_geom_bond_site_symmetry_1
_geom_bond_site_symmetry_2
Cl1 O1 1_555 1_555
O2 Cl1 1_555 1_555
O3 Cl1 1_555 1_555
O4 Cl1 1_555 1_555
Cl2 O5 1_555 1_555
O6 Cl2 1_555 1_555
O7 Cl2 1_555 1_555
O8 Cl2 1_555 1_555
N1 C1 1_555 1_555
N2 C2 1_555 1_555
N3 C4 1_555 1_555
N4 H1 1_555 1_555
C1 H2 1_555 1_555
H3 C1 1_555 1_555
C2 C1 1_555 1_555
C3 N2 1_555 1_555
C4 C3 1_555 1_555
H4 C4 1_555 1_555
H5 C4 1_555 1_555
C5 N3 1_555 1_555
H6 C5 1_555 1_555
C6 N1 1_555 1_555
H7 C6 1_555 1_555
H8 C6 1_555 1_555
C7 N4 1_555 1_555
H9 C7 1_555 1_555
H10 C7 1_555 1_555
C8 C2 1_555 1_555
H11 C8 1_555 1_555
C9 N4 1_555 1_555
H12 C9 1_555 1_555
H13 C9 1_555 1_555
H14 C9 1_555 1_555
C10 C3 1_555 1_555
H15 C10 1_555 1_555
C11 N1 1_555 1_555
H16 C11 1_555 1_555
C12 C11 1_555 1_555
H17 C12 1_555 1_555
H18 C12 1_555 1_555
H19 C12 1_555 1_555
C13 C5 1_555 1_555
H20 C13 1_555 1_555
H21 C13 1_555 1_555
H22 C13 1_555 1_555
C14 N4 1_555 1_555
H23 C14 1_555 1_555
H24 C14 1_555 1_555
C15 N3 1_555 1_555
H25 C15 1_555 1_555
H26 C15 1_555 1_555
C16 C8 1_555 1_555
H27 C16 1_555 1_555
C17 C5 1_555 1_555
H28 C17 1_555 1_555
H29 C17 1_555 1_555
H30 C17 1_555 1_555
C18 C11 1_555 1_555
H31 C18 1_555 1_555
H32 C18 1_555 1_555
H33 C18 1_555 1_555
O9 H34 1_555 1_555
H35 O9 1_555 1_555
N5 C19 1_555 1_555
N6 H36 1_555 1_555
N7 C25 1_555 1_555
N8 C23 1_555 1_555
C19 H37 1_555 1_555
C20 N5 1_555 1_555
H38 C20 1_555 1_555
H39 C20 1_555 1_555
C21 C19 1_555 1_555
H40 C21 1_555 1_555
H41 C21 1_555 1_555
H42 C21 1_555 1_555
C22 N6 1_555 1_555
H43 C22 1_555 1_555
H44 C22 1_555 1_555
H45 C22 1_555 1_555
C23 C20 1_555 1_555
C24 H46 1_555 1_555
C25 H47 1_555 1_555
H48 C25 1_555 1_555
C26 N5 1_555 1_555
H49 C26 1_555 1_555
H50 C26 1_555 1_555
C27 N7 1_555 1_555
H51 C27 1_555 1_555
H52 C27 1_555 1_555
C28 C24 1_555 1_555
H53 C28 1_555 1_555
C29 N8 1_555 1_555
C30 N6 1_555 1_555
H54 C30 1_555 1_555
H55 C30 1_555 1_555
C31 N7 1_555 1_555
H56 C31 1_555 1_555
C32 C19 1_555 1_555
H57 C32 1_555 1_555
H58 C32 1_555 1_555
H59 C32 1_555 1_555
C33 C23 1_555 1_555
H60 C33 1_555 1_555
C34 N6 1_555 1_555
H61 C34 1_555 1_555
H62 C34 1_555 1_555
C35 C31 1_555 1_555
H63 C35 1_555 1_555
H64 C35 1_555 1_555
H65 C35 1_555 1_555
C36 C31 1_555 1_555
H66 C36 1_555 1_555
H67 C36 1_555 1_555
H68 C36 1_555 1_555
C6 C14 1_555 1_555
C7 C15 1_555 1_555
C10 C16 1_555 1_555
C24 C29 1_555 1_555
C25 C29 1_555 1_555
C26 C30 1_555 1_555
C27 C34 1_555 1_555
C28 C33 1_555 1_555

#END
