
#######################################################################
#
#                 Cambridge Crystallographic Data Centre
#                                CCDC 
#
#######################################################################
#
# If this CIF has been generated from an entry in the Cambridge 
# Structural Database, then it will include bibliographic, chemical, 
# crystal, experimental, refinement or atomic coordinate data resulting 
# from the CCDC's data processing and validation procedures.
#
#######################################################################

data_ZIHZIC
_chemical_formula_moiety         'C32 H51 N1 O3'
_chemical_name_systematic        
2,2'-{[(2-hydroxyethyl)azanediyl]bis(methylene)}bis(4,6-di-t-butylphenol)
_symmetry_cell_setting           monoclinic
_symmetry_space_group_name_H-M   'P 21/c'
_symmetry_Int_Tables_number      14
_space_group_name_Hall           '-P 2ybc'
loop_
_symmetry_equiv_pos_site_id
_symmetry_equiv_pos_as_xyz
1 x,y,z
2 -x,1/2+y,1/2-z
3 -x,-y,-z
4 x,1/2-y,1/2+z
_cell_length_a                   31.5913(10)
_cell_length_b                   8.8109(3)
_cell_length_c                   23.3529(7)
_cell_angle_alpha                90
_cell_angle_beta                 111.6458(15)
_cell_angle_gamma                90
_cell_volume                     6041.84
_exptl_crystal_colour            colorless
_exptl_crystal_description       block
_cell_formula_units_Z            8
loop_
_atom_site_label
_atom_site_type_symbol
_atom_site_fract_x
_atom_site_fract_y
_atom_site_fract_z
N1 N 0.15306(8) 0.7489(3) 0.32912(12)
C1 C 0.15109(10) 0.7476(3) 0.17954(14)
H1 H 0.136270 0.651755 0.171737
C2 C 0.17607(11) 0.7879(4) 0.24045(14)
C3 C 0.14686(11) 0.8396(3) 0.13030(15)
C4 C 0.19873(10) 0.9302(4) 0.25201(15)
C5 C 0.16845(10) 0.9824(3) 0.14357(15)
H2 H 0.165312 1.049095 0.110280
C6 C 0.17879(11) 0.6862(4) 0.29235(16)
H3 H 0.211104 0.672390 0.319411
H4 H 0.166256 0.585408 0.275911
C7 C 0.19429(10) 1.0306(3) 0.20344(16)
C8 C 0.12159(12) 0.7850(4) 0.06358(16)
C9 C 0.21859(11) 1.1856(4) 0.2141(2)
C10 C 0.07452(10) 0.8066(3) 0.32363(13)
C11 C 0.05725(10) 1.0296(3) 0.37273(14)
C12 C 0.00617(10) 0.8073(3) 0.34764(14)
C13 C 0.03548(9) 0.7376(3) 0.32419(13)
H5 H 0.028474 0.638012 0.307785
C14 C 0.01833(10) 0.9530(3) 0.37157(13)
H6 H -0.001196 1.003195 0.388151
C15 C 0.10355(10) 0.7283(4) 0.29442(14)
H7 H 0.096457 0.618455 0.291252
H8 H 0.095812 0.767969 0.252108
C16 C 0.08529(10) 0.9527(3) 0.34763(13)
C17 C 0.03102(14) 1.2509(4) 0.42100(17)
H9 H 0.038971 1.353618 0.437595
H10 H 0.028326 1.184219 0.453070
H11 H 0.001921 1.253516 0.385948
C18 C 0.06842(12) 1.1903(3) 0.39964(15)
C19 C 0.07167(16) 1.3007(4) 0.3501(2)
H12 H 0.098626 1.276103 0.340642
H13 H 0.074134 1.405034 0.365589
H14 H 0.044317 1.291151 0.312706
C20 C 0.11364(15) 1.1889(4) 0.4553(2)
H15 H 0.136347 1.130739 0.445113
H16 H 0.108978 1.141732 0.490572
H17 H 0.124435 1.293239 0.465868
C21 C -0.03755(11) 0.7351(4) 0.34876(16)
O1 O 0.12390(7) 1.0236(3) 0.34685(11)
O2 O 0.22547(8) 0.9713(3) 0.31057(12)
C22 C 0.1531(2) 0.6695(7) 0.0488(3)
H18 H 0.166322 0.600371 0.083794
H19 H 0.177608 0.723950 0.041251
H20 H 0.135409 0.611038 0.012074
C23 C 0.1142(2) 0.9118(6) 0.0158(2)
H21 H 0.095650 0.873400 -0.025140
H22 H 0.143789 0.945750 0.015832
H23 H 0.098606 0.997304 0.026304
C24 C -0.04733(12) 0.5799(4) 0.31619(18)
H24 H -0.048672 0.591317 0.273816
H25 H -0.076538 0.540980 0.315658
H26 H -0.023009 0.508517 0.338380
C25 C -0.07813(12) 0.8381(5) 0.3155(2)
H27 H -0.073337 0.937407 0.335781
H28 H -0.105992 0.792156 0.316868
H29 H -0.081086 0.850719 0.272488
C26 C -0.03400(15) 0.7131(7) 0.41517(19)
H30 H -0.008356 0.645657 0.436605
H31 H -0.062253 0.667849 0.415472
H32 H -0.029093 0.811584 0.436107
C27 C 0.20625(12) 0.7680(6) 0.43778(17)
H33 H 0.194242 0.867709 0.444159
H34 H 0.217414 0.713542 0.477687
C28 C 0.16821(12) 0.6760(5) 0.39041(17)
H35 H 0.179347 0.572324 0.387601
H36 H 0.142104 0.667533 0.404003
C29 C 0.20477(14) 1.2791(4) 0.1549(2)
H37 H 0.215747 1.229066 0.125559
H38 H 0.218191 1.380686 0.164385
H39 H 0.171515 1.287580 0.136888
C30 C 0.20906(14) 1.2793(5) 0.2632(2)
H40 H 0.225013 1.376773 0.268523
H41 H 0.219820 1.223884 0.302346
H42 H 0.176232 1.297359 0.250202
O3 O 0.24255(10) 0.7896(5) 0.41696(14)
H43 H 0.232963 0.835437 0.383033
C31 C 0.0797(2) 0.7036(14) 0.0566(3)
H44 H 0.060726 0.766662 0.072121
H45 H 0.087293 0.608679 0.080145
H46 H 0.063077 0.680671 0.013005
C32 C 0.27055(12) 1.1569(4) 0.2359(3)
H47 H 0.277063 1.094810 0.205306
H48 H 0.280919 1.103567 0.275507
H49 H 0.286519 1.254195 0.240661
N2 N 0.34624(8) 0.7174(3) 0.17203(11)
C33 C 0.34761(9) 0.7465(3) 0.02289(13)
H50 H 0.362099 0.650533 0.026501
C34 C 0.32204(10) 0.6646(3) 0.10750(14)
H51 H 0.289760 0.644216 0.100929
H52 H 0.335856 0.568221 0.101214
C35 C 0.32418(10) 0.7789(3) 0.06100(14)
C36 C 0.35076(10) 0.8494(3) -0.02069(14)
C37 C 0.30518(10) 1.0294(3) 0.01310(17)
C38 C 0.30164(10) 0.9193(3) 0.05462(15)
C39 C 0.32964(11) 0.9897(3) -0.02357(16)
H53 H 0.332056 1.062422 -0.052223
C40 C 0.46401(10) 0.7035(3) 0.28743(14)
H54 H 0.470876 0.604358 0.277428
C41 C 0.42471(10) 0.7754(3) 0.24800(13)
C42 C 0.41389(9) 0.9218(3) 0.26174(13)
C43 C 0.39585(10) 0.6992(3) 0.18774(14)
H55 H 0.403995 0.742291 0.154023
H56 H 0.403193 0.589543 0.190572
C44 C 0.44308(9) 0.9978(3) 0.31540(14)
C45 C 0.49338(9) 0.7721(3) 0.34075(13)
C46 C 0.48175(9) 0.9196(3) 0.35313(13)
H57 H 0.501435 0.968891 0.389348
C47 C 0.47006(12) 1.2197(4) 0.38951(18)
H58 H 0.461351 1.320146 0.399495
H59 H 0.498782 1.227532 0.382676
H60 H 0.473905 1.149954 0.423751
C48 C 0.43277(10) 1.1596(3) 0.33107(14)
C49 C 0.42951(13) 1.2685(3) 0.27865(17)
H61 H 0.423552 1.371461 0.289689
H62 H 0.404625 1.236599 0.240993
H63 H 0.458251 1.267297 0.271676
C50 C 0.38798(12) 1.1621(4) 0.34195(18)
H64 H 0.390901 1.099280 0.377841
H65 H 0.363507 1.121959 0.305550
H66 H 0.380784 1.266669 0.349430
C51 C 0.53675(10) 0.6975(4) 0.38639(15)
C52 C 0.54717(12) 0.5481(4) 0.36148(17)
H67 H 0.552303 0.567039 0.323196
H68 H 0.521372 0.478650 0.353274
H69 H 0.574526 0.502621 0.391945
C53 C 0.37352(12) 0.8003(4) -0.06514(16)
O4 O 0.37564(7) 0.9928(2) 0.22276(10)
O5 O 0.27478(8) 0.9504(3) 0.08799(13)
C54 C 0.38123(16) 0.9350(5) -0.10181(17)
H70 H 0.396679 0.899701 -0.128838
H71 H 0.400119 1.011354 -0.073244
H72 H 0.351811 0.979885 -0.126771
C55 C 0.34241(13) 0.6881(4) -0.11178(17)
H73 H 0.355382 0.663993 -0.142883
H74 H 0.312209 0.733564 -0.131864
H75 H 0.339698 0.594938 -0.090473
C56 C 0.41980(13) 0.7273(6) -0.0301(2)
H76 H 0.415672 0.638795 -0.007247
H77 H 0.439668 0.801135 -0.001120
H78 H 0.433711 0.695342 -0.059291
C57 C 0.52993(14) 0.6652(5) 0.44691(18)
H79 H 0.557677 0.619697 0.476523
H80 H 0.504367 0.594973 0.439154
H81 H 0.523389 0.760411 0.463745
C58 C 0.57741(11) 0.8019(4) 0.3985(2)
H82 H 0.573972 0.891480 0.421321
H83 H 0.579090 0.833849 0.359207
H84 H 0.605385 0.747877 0.422834
C59 C 0.29124(13) 0.7149(5) 0.22430(18)
H85 H 0.279835 0.652762 0.250890
H86 H 0.301758 0.813488 0.244987
C60 C 0.33042(11) 0.6341(4) 0.21469(15)
H87 H 0.355920 0.622890 0.254826
H88 H 0.320515 0.531194 0.198118
C61 C 0.28172(13) 1.1870(4) 0.0058(3)
C62 C 0.29495(14) 1.2609(4) 0.0707(3)
H89 H 0.328160 1.269762 0.089763
H90 H 0.283790 1.197505 0.096610
H91 H 0.281223 1.362069 0.066508
C63 C 0.29426(17) 1.2925(4) -0.0349(3)
H92 H 0.283759 1.251112 -0.076742
H93 H 0.327420 1.304871 -0.019305
H94 H 0.279880 1.391366 -0.035409
O6 O 0.25544(8) 0.7392(4) 0.16577(13)
H95 H 0.265238 0.792331 0.143458
C64 C 0.22989(14) 1.1653(5) -0.0205(4)
H96 H 0.214982 1.261878 -0.018951
H97 H 0.221369 1.089188 0.003895
H98 H 0.220196 1.130899 -0.063371
loop_
_geom_bond_atom_site_label_1
_geom_bond_atom_site_label_2
_geom_bond_site_symmetry_1
_geom_bond_site_symmetry_2
N1 C6 1_555 1_555
C1 H1 1_555 1_555
C2 C1 1_555 1_555
C3 C1 1_555 1_555
C4 C2 1_555 1_555
C5 C3 1_555 1_555
H2 C5 1_555 1_555
C6 C2 1_555 1_555
H3 C6 1_555 1_555
H4 C6 1_555 1_555
C7 C4 1_555 1_555
C8 C3 1_555 1_555
C9 C7 1_555 1_555
C10 C13 1_555 1_555
C11 C14 1_555 1_555
C12 C13 1_555 1_555
C13 H5 1_555 1_555
C14 C12 1_555 1_555
H6 C14 1_555 1_555
C15 N1 1_555 1_555
H7 C15 1_555 1_555
H8 C15 1_555 1_555
C16 C10 1_555 1_555
C17 H9 1_555 1_555
H10 C17 1_555 1_555
H11 C17 1_555 1_555
C18 C11 1_555 1_555
C19 C18 1_555 1_555
H12 C19 1_555 1_555
H13 C19 1_555 1_555
H14 C19 1_555 1_555
C20 C18 1_555 1_555
H15 C20 1_555 1_555
H16 C20 1_555 1_555
H17 C20 1_555 1_555
C21 C12 1_555 1_555
O1 C16 1_555 1_555
O2 C4 1_555 1_555
C22 C8 1_555 1_555
H18 C22 1_555 1_555
H19 C22 1_555 1_555
H20 C22 1_555 1_555
C23 C8 1_555 1_555
H21 C23 1_555 1_555
H22 C23 1_555 1_555
H23 C23 1_555 1_555
C24 C21 1_555 1_555
H24 C24 1_555 1_555
H25 C24 1_555 1_555
H26 C24 1_555 1_555
C25 C21 1_555 1_555
H27 C25 1_555 1_555
H28 C25 1_555 1_555
H29 C25 1_555 1_555
C26 C21 1_555 1_555
H30 C26 1_555 1_555
H31 C26 1_555 1_555
H32 C26 1_555 1_555
C27 H33 1_555 1_555
H34 C27 1_555 1_555
C28 N1 1_555 1_555
H35 C28 1_555 1_555
H36 C28 1_555 1_555
C29 C9 1_555 1_555
H37 C29 1_555 1_555
H38 C29 1_555 1_555
H39 C29 1_555 1_555
C30 C9 1_555 1_555
H40 C30 1_555 1_555
H41 C30 1_555 1_555
H42 C30 1_555 1_555
O3 C27 1_555 1_555
H43 O3 1_555 1_555
C31 C8 1_555 1_555
H44 C31 1_555 1_555
H45 C31 1_555 1_555
H46 C31 1_555 1_555
C32 C9 1_555 1_555
H47 C32 1_555 1_555
H48 C32 1_555 1_555
H49 C32 1_555 1_555
N2 C34 1_555 1_555
C33 H50 1_555 1_555
C34 H51 1_555 1_555
H52 C34 1_555 1_555
C35 C33 1_555 1_555
C36 C33 1_555 1_555
C37 C38 1_555 1_555
C38 C35 1_555 1_555
C39 C36 1_555 1_555
H53 C39 1_555 1_555
C40 H54 1_555 1_555
C41 C40 1_555 1_555
C42 C41 1_555 1_555
C43 N2 1_555 1_555
H55 C43 1_555 1_555
H56 C43 1_555 1_555
C44 C42 1_555 1_555
C45 C40 1_555 1_555
C46 C44 1_555 1_555
H57 C46 1_555 1_555
C47 H58 1_555 1_555
H59 C47 1_555 1_555
H60 C47 1_555 1_555
C48 C44 1_555 1_555
C49 C48 1_555 1_555
H61 C49 1_555 1_555
H62 C49 1_555 1_555
H63 C49 1_555 1_555
C50 C48 1_555 1_555
H64 C50 1_555 1_555
H65 C50 1_555 1_555
H66 C50 1_555 1_555
C51 C45 1_555 1_555
C52 C51 1_555 1_555
H67 C52 1_555 1_555
H68 C52 1_555 1_555
H69 C52 1_555 1_555
C53 C36 1_555 1_555
O4 C42 1_555 1_555
O5 C38 1_555 1_555
C54 C53 1_555 1_555
H70 C54 1_555 1_555
H71 C54 1_555 1_555
H72 C54 1_555 1_555
C55 C53 1_555 1_555
H73 C55 1_555 1_555
H74 C55 1_555 1_555
H75 C55 1_555 1_555
C56 C53 1_555 1_555
H76 C56 1_555 1_555
H77 C56 1_555 1_555
H78 C56 1_555 1_555
C57 C51 1_555 1_555
H79 C57 1_555 1_555
H80 C57 1_555 1_555
H81 C57 1_555 1_555
C58 C51 1_555 1_555
H82 C58 1_555 1_555
H83 C58 1_555 1_555
H84 C58 1_555 1_555
C59 H85 1_555 1_555
H86 C59 1_555 1_555
C60 N2 1_555 1_555
H87 C60 1_555 1_555
H88 C60 1_555 1_555
C61 C37 1_555 1_555
C62 C61 1_555 1_555
H89 C62 1_555 1_555
H90 C62 1_555 1_555
H91 C62 1_555 1_555
C63 C61 1_555 1_555
H92 C63 1_555 1_555
H93 C63 1_555 1_555
H94 C63 1_555 1_555
O6 C59 1_555 1_555
H95 O6 1_555 1_555
C64 C61 1_555 1_555
H96 C64 1_555 1_555
H97 C64 1_555 1_555
H98 C64 1_555 1_555
C5 C7 1_555 1_555
C10 C15 1_555 1_555
C11 C16 1_555 1_555
C17 C18 1_555 1_555
C27 C28 1_555 1_555
C34 C35 1_555 1_555
C37 C39 1_555 1_555
C41 C43 1_555 1_555
C45 C46 1_555 1_555
C47 C48 1_555 1_555
C59 C60 1_555 1_555

#END
