
#######################################################################
#
#                 Cambridge Crystallographic Data Centre
#                                CCDC 
#
#######################################################################
#
# If this CIF has been generated from an entry in the Cambridge 
# Structural Database, then it will include bibliographic, chemical, 
# crystal, experimental, refinement or atomic coordinate data resulting 
# from the CCDC's data processing and validation procedures.
#
#######################################################################

data_ZIJFOP
_chemical_name_common            1,3-bis[(3-chloropyrazin-2-yl)oxy]benzene
_chemical_formula_moiety         'C14 H8 Cl2 N4 O2'
_chemical_name_systematic        
2,2'-(1,3-Phenylenebis(oxy))bis(3-chloropyrazine)
_symmetry_cell_setting           monoclinic
_symmetry_space_group_name_H-M   'C 2/c'
_symmetry_Int_Tables_number      15
_space_group_name_Hall           '-C 2yn'
loop_
_symmetry_equiv_pos_site_id
_symmetry_equiv_pos_as_xyz
1 x,y,z
2 -x,y,1/2-z
3 1/2+x,1/2+y,z
4 1/2-x,1/2+y,1/2-z
5 -x,-y,-z
6 x,-y,1/2+z
7 1/2-x,1/2-y,-z
8 1/2+x,1/2-y,1/2+z
_cell_length_a                   9.9618(3)
_cell_length_b                   10.2196(4)
_cell_length_c                   14.6010(6)
_cell_angle_alpha                90
_cell_angle_beta                 106.231(2)
_cell_angle_gamma                90
_cell_volume                     1427.22
_exptl_crystal_colour            colorless
_exptl_crystal_description       block
_cell_formula_units_Z            4
loop_
_atom_site_label
_atom_site_type_symbol
_atom_site_fract_x
_atom_site_fract_y
_atom_site_fract_z
C1 C 0.10770(15) 0.37514(13) -0.02670(10)
C2 C -0.07466(18) 0.3213(2) -0.15100(11)
H1 H -0.1203 0.3246 -0.2159
C3 C -0.13428(17) 0.25363(19) -0.09216(11)
H2 H -0.2196 0.2121 -0.1178
C4 C 0.04654(14) 0.30517(13) 0.03426(9)
C5 C 0.05477(14) 0.23121(15) 0.18814(9)
C6 C 0.0000 0.3013(2) 0.2500
H3 H 0.0000 0.3923 0.2500
C7 C 0.05777(19) 0.09686(17) 0.18801(10)
H4 H 0.0979 0.0516 0.1470
C8 C 0.0000 0.0305(2) 0.2500
H5 H 0.0000 -0.0605 0.2500
N1 N 0.04795(16) 0.38337(13) -0.11809(9)
N2 N -0.07257(13) 0.24545(13) 0.00221(8)
O1 O 0.11655(11) 0.30189(12) 0.12853(7)
Cl1 Cl 0.26460(5) 0.45456(4) 0.01959(4)
C1A C -0.10770(15) 0.37514(13) 0.52670(10)
C2A C 0.07466(18) 0.3213(2) 0.65100(11)
H1A H 0.1203 0.3246 0.7159
C3A C 0.13428(17) 0.25363(19) 0.59216(11)
H2A H 0.2196 0.2121 0.6178
C4A C -0.04654(14) 0.30517(13) 0.46574(9)
C5A C -0.05477(14) 0.23121(15) 0.31186(9)
C7A C -0.05777(19) 0.09686(17) 0.31199(10)
H4A H -0.0979 0.0516 0.3530
N1A N -0.04795(16) 0.38337(13) 0.61809(9)
N2A N 0.07257(13) 0.24545(13) 0.49779(8)
O1A O -0.11655(11) 0.30189(12) 0.37147(7)
Cl1A Cl -0.26460(5) 0.45456(4) 0.48041(4)
loop_
_geom_bond_atom_site_label_1
_geom_bond_atom_site_label_2
_geom_bond_site_symmetry_1
_geom_bond_site_symmetry_2
C1 C4 1_555 1_555
C2 H1 1_555 1_555
C3 C2 1_555 1_555
H2 C3 1_555 1_555
C4 N2 1_555 1_555
C5 C6 1_555 1_555
C6 H3 1_555 1_555
C7 C5 1_555 1_555
H4 C7 1_555 1_555
C8 C7 1_555 1_555
H5 C8 1_555 1_555
N1 C1 1_555 1_555
N2 C3 1_555 1_555
O1 C4 1_555 1_555
Cl1 C1 1_555 1_555
C1A C4A 1_555 1_555
C2A H1A 1_555 1_555
C3A C2A 1_555 1_555
H2A C3A 1_555 1_555
C4A N2A 1_555 1_555
C5A C6 1_555 1_555
C7A C8 1_555 1_555
H4A C7A 1_555 1_555
N1A C1A 1_555 1_555
N2A C3A 1_555 1_555
O1A C4A 1_555 1_555
Cl1A C1A 1_555 1_555
C2 N1 1_555 1_555
C5 O1 1_555 1_555
C2A N1A 1_555 1_555
C5A C7A 1_555 1_555
C5A O1A 1_555 1_555

#END
