
#######################################################################
#
#                 Cambridge Crystallographic Data Centre
#                                CCDC 
#
#######################################################################
#
# If this CIF has been generated from an entry in the Cambridge 
# Structural Database, then it will include bibliographic, chemical, 
# crystal, experimental, refinement or atomic coordinate data resulting 
# from the CCDC's data processing and validation procedures.
#
#######################################################################

data_ZIJJOU
_chemical_formula_moiety         'C22 H24 N2 O2'
_chemical_name_systematic        
't-butyl [2-(1H-indol-3-yl)-2,3-dihydro-1H-inden-1-yl]carbamate'
_symmetry_cell_setting           monoclinic
_symmetry_space_group_name_H-M   'P 21'
_symmetry_Int_Tables_number      4
_space_group_name_Hall           'P 2yb'
loop_
_symmetry_equiv_pos_site_id
_symmetry_equiv_pos_as_xyz
1 x,y,z
2 -x,1/2+y,-z
_cell_length_a                   11.05500(10)
_cell_length_b                   5.17940(10)
_cell_length_c                   16.2006(2)
_cell_angle_alpha                90
_cell_angle_beta                 104.2960(10)
_cell_angle_gamma                90
_cell_volume                     898.893
_exptl_crystal_colour            colorless
_exptl_crystal_description       rod
_cell_formula_units_Z            2
loop_
_atom_site_label
_atom_site_type_symbol
_atom_site_fract_x
_atom_site_fract_y
_atom_site_fract_z
C1 C 0.97087(16) 0.8451(4) 0.81336(11)
H1 H 1.022465 0.890059 0.776571
C2 C 0.88905(15) 0.6428(3) 0.80067(10)
C3 C 0.83318(14) 0.6439(3) 0.87224(10)
C4 C 0.74719(15) 0.4825(3) 0.89751(10)
H2 H 0.713054 0.337364 0.863884
C5 C 0.71263(16) 0.5373(4) 0.97209(11)
H3 H 0.654613 0.428384 0.989790
C6 C 0.76252(17) 0.7526(4) 1.02205(11)
H4 H 0.736352 0.787761 1.072532
C7 C 0.84865(16) 0.9143(3) 0.99951(11)
H5 H 0.882261 1.059113 1.033501
C8 C 0.88418(15) 0.8558(3) 0.92456(11)
C9 C 0.85516(14) 0.4604(3) 0.72718(10)
H6 H 0.836382 0.290273 0.750419
C10 C 0.95229(15) 0.4094(3) 0.67519(11)
H7 H 0.987962 0.572356 0.659693
H8 H 1.020658 0.296731 0.706556
C11 C 0.87317(16) 0.2749(3) 0.59764(10)
C12 C 0.90586(17) 0.0917(3) 0.54445(11)
H9 H 0.990527 0.041709 0.551748
C13 C 0.81232(18) -0.0177(4) 0.48015(11)
H10 H 0.833463 -0.143128 0.443281
C14 C 0.68863(17) 0.0550(4) 0.46951(11)
H11 H 0.625851 -0.023097 0.425882
C15 C 0.65515(16) 0.2417(3) 0.52213(10)
H12 H 0.570670 0.294051 0.514009
C16 C 0.74812(15) 0.3482(3) 0.58635(10)
C17 C 0.73767(15) 0.5373(3) 0.65569(10)
H13 H 0.748462 0.717078 0.636130
C18 C 0.56815(16) 0.7313(3) 0.70753(10)
C19 C 0.39950(15) 0.8472(3) 0.77474(11)
C20 C 0.48325(17) 1.0160(4) 0.84216(11)
H14 H 0.548565 0.909459 0.878329
H15 H 0.433298 1.097474 0.877218
H16 H 0.521824 1.149883 0.814350
C21 C 0.3193(2) 0.6776(4) 0.81597(16)
H17 H 0.268282 0.563296 0.772943
H18 H 0.264797 0.786206 0.840722
H19 H 0.373083 0.573441 0.860923
C22 C 0.31989(18) 1.0040(4) 0.70228(12)
H20 H 0.374072 1.105659 0.675088
H21 H 0.265718 1.120282 0.724672
H22 H 0.268470 0.887312 0.660273
O1 O 0.59966(12) 0.9543(2) 0.70083(8)
O2 O 0.47291(11) 0.6555(2) 0.74052(7)
N1 N 0.96788(14) 0.9752(3) 0.88735(9)
H23 H 1.012500 1.112392 0.907317
N2 N 0.62157(13) 0.5208(3) 0.68128(9)
H24 H 0.584462 0.369993 0.679804
loop_
_geom_bond_atom_site_label_1
_geom_bond_atom_site_label_2
_geom_bond_site_symmetry_1
_geom_bond_site_symmetry_2
C1 H1 1_555 1_555
C2 C1 1_555 1_555
C3 C2 1_555 1_555
C4 C3 1_555 1_555
H2 C4 1_555 1_555
C5 C4 1_555 1_555
H3 C5 1_555 1_555
C6 C5 1_555 1_555
H4 C6 1_555 1_555
C7 C6 1_555 1_555
H5 C7 1_555 1_555
C8 C3 1_555 1_555
C9 C2 1_555 1_555
H6 C9 1_555 1_555
C10 C9 1_555 1_555
H7 C10 1_555 1_555
H8 C10 1_555 1_555
C11 C10 1_555 1_555
C12 C11 1_555 1_555
H9 C12 1_555 1_555
C13 C12 1_555 1_555
H10 C13 1_555 1_555
C14 C13 1_555 1_555
H11 C14 1_555 1_555
C15 C14 1_555 1_555
H12 C15 1_555 1_555
C16 C11 1_555 1_555
C17 C9 1_555 1_555
H13 C17 1_555 1_555
C18 O1 1_555 1_555
C19 C20 1_555 1_555
C20 H14 1_555 1_555
H15 C20 1_555 1_555
H16 C20 1_555 1_555
C21 C19 1_555 1_555
H17 C21 1_555 1_555
H18 C21 1_555 1_555
H19 C21 1_555 1_555
C22 C19 1_555 1_555
H20 C22 1_555 1_555
H21 C22 1_555 1_555
H22 C22 1_555 1_555
O2 C18 1_555 1_555
N1 C1 1_555 1_555
H23 N1 1_555 1_555
N2 C17 1_555 1_555
H24 N2 1_555 1_555
C7 C8 1_555 1_555
C8 N1 1_555 1_555
C15 C16 1_555 1_555
C16 C17 1_555 1_555
C18 N2 1_555 1_555
C19 O2 1_555 1_555

#END
