
#######################################################################
#
#                 Cambridge Crystallographic Data Centre
#                                CCDC 
#
#######################################################################
#
# If this CIF has been generated from an entry in the Cambridge 
# Structural Database, then it will include bibliographic, chemical, 
# crystal, experimental, refinement or atomic coordinate data resulting 
# from the CCDC's data processing and validation procedures.
#
#######################################################################

data_ZIJJUZ
_chemical_formula_moiety         'C19 H15 N3 O3,H2 O1'
_chemical_name_systematic        
'8-((3-(3-Methoxyphenyl)-1,2,4-oxadiazol-5-yl)methoxy)quinoline monohydrate'
_symmetry_cell_setting           monoclinic
_symmetry_space_group_name_H-M   'P 21/n'
_symmetry_Int_Tables_number      14
_space_group_name_Hall           '-P 2yn'
loop_
_symmetry_equiv_pos_site_id
_symmetry_equiv_pos_as_xyz
1 x,y,z
2 1/2-x,1/2+y,1/2-z
3 -x,-y,-z
4 1/2+x,1/2-y,1/2+z
_cell_length_a                   7.9510(16)
_cell_length_b                   6.9870(14)
_cell_length_c                   30.395(6)
_cell_angle_alpha                90
_cell_angle_beta                 92.31(3)
_cell_angle_gamma                90
_cell_volume                     1687.18
_exptl_crystal_colour            colorless
_exptl_crystal_description       block
_chemical_melting_point          '338 K'
_cell_formula_units_Z            4
loop_
_atom_site_label
_atom_site_type_symbol
_atom_site_fract_x
_atom_site_fract_y
_atom_site_fract_z
O1 O 0.4276(3) 0.7480(4) 0.77526(8)
N1 N 0.4925(4) 0.3104(4) 0.63924(9)
C1 C 0.3027(6) 0.6086(7) 0.78108(13)
H1 H 0.2535 0.6270 0.8091
H2 H 0.3522 0.4834 0.7801
H3 H 0.2171 0.6201 0.7580
N2 N 0.6199(3) 0.4981(3) 0.59050(8)
O2 O 0.5011(3) 0.2177(3) 0.59795(8)
C2 C 0.5139(4) 0.7451(5) 0.73722(10)
O3 O 0.6989(3) 0.4102(3) 0.50481(6)
N3 N 0.8809(3) 0.6747(3) 0.46505(8)
C3 C 0.4933(4) 0.6079(5) 0.70490(10)
H4 H 0.4178 0.5078 0.7083
C4 C 0.5858(4) 0.6199(4) 0.66719(9)
C5 C 0.6971(4) 0.7703(5) 0.66207(11)
H5 H 0.7580 0.7799 0.6367
C6 C 0.7167(5) 0.9053(6) 0.69492(12)
H6 H 0.7922 1.0056 0.6917
C7 C 0.6265(5) 0.8940(5) 0.73233(12)
H7 H 0.6409 0.9859 0.7543
C8 C 0.5642(4) 0.4745(4) 0.63264(10)
C9 C 0.5784(4) 0.3397(4) 0.57156(9)
C10 C 0.6032(4) 0.2704(4) 0.52647(10)
H8 H 0.6624 0.1490 0.5273
H9 H 0.4953 0.2523 0.5110
C11 C 0.7455(3) 0.3672(4) 0.46310(9)
C12 C 0.7012(4) 0.2037(4) 0.44091(10)
H10 H 0.6377 0.1106 0.4545
C13 C 0.7514(4) 0.1761(5) 0.39758(11)
H11 H 0.7193 0.0650 0.3826
C14 C 0.8448(4) 0.3072(5) 0.37739(10)
H12 H 0.8781 0.2850 0.3489
C15 C 0.8928(4) 0.4787(4) 0.39913(9)
C16 C 0.9866(4) 0.6257(5) 0.37967(11)
H13 H 1.0215 0.6119 0.3510
C17 C 1.0257(4) 0.7863(5) 0.40267(12)
H14 H 1.0888 0.8829 0.3903
C18 C 0.9697(4) 0.8045(5) 0.44528(11)
H15 H 0.9970 0.9159 0.4607
C19 C 0.8423(3) 0.5107(4) 0.44272(9)
O4 O 0.7589(3) 0.8317(3) 0.54382(9)
H16 H 0.724(6) 0.727(7) 0.5591(16)
H17 H 0.806(6) 0.781(7) 0.5207(12)
loop_
_geom_bond_atom_site_label_1
_geom_bond_atom_site_label_2
_geom_bond_site_symmetry_1
_geom_bond_site_symmetry_2
O1 C1 1_555 1_555
N1 O2 1_555 1_555
C1 H1 1_555 1_555
H2 C1 1_555 1_555
H3 C1 1_555 1_555
N2 C8 1_555 1_555
O2 C9 1_555 1_555
C2 O1 1_555 1_555
O3 C10 1_555 1_555
N3 C18 1_555 1_555
C3 C2 1_555 1_555
H4 C3 1_555 1_555
C4 C3 1_555 1_555
C5 C4 1_555 1_555
H5 C5 1_555 1_555
C6 C5 1_555 1_555
H6 C6 1_555 1_555
C7 C2 1_555 1_555
H7 C7 1_555 1_555
C8 N1 1_555 1_555
C9 N2 1_555 1_555
C10 C9 1_555 1_555
H8 C10 1_555 1_555
H9 C10 1_555 1_555
C11 O3 1_555 1_555
C12 C11 1_555 1_555
H10 C12 1_555 1_555
C13 C12 1_555 1_555
H11 C13 1_555 1_555
C14 C13 1_555 1_555
H12 C14 1_555 1_555
C15 C14 1_555 1_555
C16 C15 1_555 1_555
H13 C16 1_555 1_555
C17 C16 1_555 1_555
H14 C17 1_555 1_555
C18 C17 1_555 1_555
H15 C18 1_555 1_555
C19 N3 1_555 1_555
O4 H16 1_555 1_555
H17 O4 1_555 1_555
C4 C8 1_555 1_555
C6 C7 1_555 1_555
C11 C19 1_555 1_555
C15 C19 1_555 1_555

#END
