
#######################################################################
#
#                 Cambridge Crystallographic Data Centre
#                                CCDC 
#
#######################################################################
#
# If this CIF has been generated from an entry in the Cambridge 
# Structural Database, then it will include bibliographic, chemical, 
# crystal, experimental, refinement or atomic coordinate data resulting 
# from the CCDC's data processing and validation procedures.
#
#######################################################################

data_ZIJMUC
_chemical_formula_moiety         'C16 H10 Cl2 N4 O4'
_chemical_name_systematic        
'Methyl 3,5-bis((3-chloropyrazin-2-yl)oxy)benzoate'
_symmetry_cell_setting           triclinic
_symmetry_space_group_name_H-M   'P -1'
_symmetry_Int_Tables_number      2
_space_group_name_Hall           '-P 1'
loop_
_symmetry_equiv_pos_site_id
_symmetry_equiv_pos_as_xyz
1 x,y,z
2 -x,-y,-z
_cell_length_a                   8.5437(15)
_cell_length_b                   9.2984(18)
_cell_length_c                   11.545(2)
_cell_angle_alpha                88.592(10)
_cell_angle_beta                 74.974(9)
_cell_angle_gamma                73.231(9)
_cell_volume                     846.887
_exptl_crystal_colour            colorless
_exptl_crystal_description       Block
_cell_formula_units_Z            2
loop_
_atom_site_label
_atom_site_type_symbol
_atom_site_fract_x
_atom_site_fract_y
_atom_site_fract_z
C1 C 1.2164(2) -0.13661(19) 0.56898(15)
C2 C 1.3326(2) -0.2435(2) 0.48010(16)
C3 C 1.2200(3) -0.4217(2) 0.5674(2)
H1 H 1.2182 -0.5212 0.5714
C4 C 1.1050(3) -0.3171(2) 0.65286(19)
H2 H 1.0265 -0.3476 0.7125
C5 C 1.1396(2) 0.10665(18) 0.66279(15)
C6 C 1.1808(2) 0.07829(19) 0.77108(16)
H3 H 1.2538 -0.0136 0.7823
C7 C 1.1100(2) 0.19087(19) 0.86279(16)
C8 C 0.9977(2) 0.32842(19) 0.84678(16)
H4 H 0.9532 0.4046 0.9073
C9 C 0.9551(2) 0.34790(19) 0.73925(17)
C10 C 1.0255(2) 0.23987(19) 0.64574(16)
H5 H 0.9970 0.2562 0.5731
C11 C 0.6780(2) 0.5146(2) 0.76707(15)
C12 C 0.5715(2) 0.6516(2) 0.74204(17)
C13 C 0.3460(3) 0.5899(3) 0.8520(2)
H6 H 0.2294 0.6121 0.8838
C14 C 0.4482(3) 0.4569(3) 0.8760(2)
H7 H 0.3993 0.3908 0.9235
C15 C 1.1546(2) 0.1705(2) 0.98024(17)
C16 C 1.2714(4) -0.0079(3) 1.1083(2)
H8 H 1.3582 0.0366 1.1128
H9 H 1.3125 -0.1150 1.1123
H10 H 1.1733 0.0318 1.1742
N1 N 1.3349(2) -0.38465(18) 0.47831(15)
N2 N 1.10203(19) -0.17218(18) 0.65331(14)
N3 N 0.4081(2) 0.6891(2) 0.78443(18)
N4 N 0.6181(2) 0.41812(19) 0.83301(15)
O1 O 1.22265(18) 0.00741(14) 0.56204(11)
O2 O 0.84699(15) 0.48570(14) 0.71782(13)
O3 O 1.1276(3) 0.27208(19) 1.05207(15)
O4 O 1.2263(2) 0.02685(17) 0.99597(13)
Cl1 Cl 1.47807(7) -0.18931(7) 0.36871(5)
Cl2 Cl 0.65455(7) 0.77453(6) 0.65015(6)
loop_
_geom_bond_atom_site_label_1
_geom_bond_atom_site_label_2
_geom_bond_site_symmetry_1
_geom_bond_site_symmetry_2
C1 C2 1_555 1_555
C2 N1 1_555 1_555
C3 H1 1_555 1_555
C4 C3 1_555 1_555
H2 C4 1_555 1_555
C5 C6 1_555 1_555
C6 H3 1_555 1_555
C7 C6 1_555 1_555
C8 C7 1_555 1_555
H4 C8 1_555 1_555
C9 C8 1_555 1_555
C10 C5 1_555 1_555
H5 C10 1_555 1_555
C11 C12 1_555 1_555
C12 N3 1_555 1_555
C13 H6 1_555 1_555
C14 C13 1_555 1_555
H7 C14 1_555 1_555
C15 C7 1_555 1_555
C16 H8 1_555 1_555
H9 C16 1_555 1_555
H10 C16 1_555 1_555
N1 C3 1_555 1_555
N2 C1 1_555 1_555
N3 C13 1_555 1_555
N4 C11 1_555 1_555
O1 C1 1_555 1_555
O2 C9 1_555 1_555
O3 C15 1_555 1_555
O4 C15 1_555 1_555
Cl1 C2 1_555 1_555
Cl2 C12 1_555 1_555
C4 N2 1_555 1_555
C5 O1 1_555 1_555
C9 C10 1_555 1_555
C11 O2 1_555 1_555
C14 N4 1_555 1_555
C16 O4 1_555 1_555

#END
