
#######################################################################
#
#                 Cambridge Crystallographic Data Centre
#                                CCDC 
#
#######################################################################
#
# If this CIF has been generated from an entry in the Cambridge 
# Structural Database, then it will include bibliographic, chemical, 
# crystal, experimental, refinement or atomic coordinate data resulting 
# from the CCDC's data processing and validation procedures.
#
#######################################################################

data_ZIJPIT01
_chemical_formula_moiety         'C18 H12 O6'
_chemical_name_systematic        
'9,10-Dioxo-9,10-dihydroanthracene-1,4-diyl diacetate'
_symmetry_cell_setting           triclinic
_symmetry_space_group_name_H-M   'P -1'
_symmetry_Int_Tables_number      2
_space_group_name_Hall           '-P 1'
loop_
_symmetry_equiv_pos_site_id
_symmetry_equiv_pos_as_xyz
1 x,y,z
2 -x,-y,-z
_cell_length_a                   8.0688(5)
_cell_length_b                   9.5576(7)
_cell_length_c                   9.7889(5)
_cell_angle_alpha                73.691(6)
_cell_angle_beta                 80.719(5)
_cell_angle_gamma                81.681(6)
_cell_volume                     711.095
_chemical_melting_point          '236 deg.C'
_cell_formula_units_Z            2
_exptl_crystal_recrystallization_method ethanol
loop_
_atom_site_label
_atom_site_type_symbol
_atom_site_fract_x
_atom_site_fract_y
_atom_site_fract_z
O1 O 0.36285(13) 0.84416(12) 0.08005(12)
O2 O 0.92154(14) 0.57782(11) -0.19075(12)
O3 O 0.33786(14) 1.04873(12) -0.16654(13)
O4 O 0.87405(14) 0.78540(12) -0.43066(12)
C1 C 0.69606(19) 0.77920(16) -0.21063(16)
O5 O 0.77321(14) 0.47067(12) -0.30200(12)
C2 C 0.55308(18) 0.84776(15) -0.14111(16)
O6 O 0.16447(14) 0.76685(12) -0.01111(13)
C3 C 0.69774(19) 1.00286(16) -0.42706(17)
C4 C 0.55788(19) 1.07143(16) -0.35755(17)
C5 C 0.49272(19) 0.77787(17) -0.00007(17)
C6 C 0.5693(2) 0.64467(18) 0.07225(18)
H1 H 0.5260 0.5998 0.1659
C7 C 0.47067(19) 0.99403(16) -0.21699(17)
C8 C 0.7099(2) 0.57838(17) 0.00530(17)
H2 H 0.7622 0.4890 0.0537
C9 C 0.77258(19) 0.64544(16) -0.13388(17)
C10 C 0.76524(19) 0.84938(16) -0.36169(17)
C11 C 0.7105(2) 1.21901(19) -0.62469(19)
H3 H 0.7616 1.2688 -0.7138
C12 C 0.4954(2) 1.21405(17) -0.42370(18)
H4 H 0.4019 1.2601 -0.3783
C13 C 0.7731(2) 1.07744(18) -0.56082(18)
H5 H 0.8659 1.0318 -0.6073
C14 C 0.9065(2) 0.49226(16) -0.27806(16)
C15 C 0.20049(19) 0.83314(15) 0.06524(16)
C16 C 0.5711(2) 1.28720(18) -0.55580(19)
H6 H 0.5289 1.3825 -0.5991
C17 C 0.0824(2) 0.91246(19) 0.15920(19)
H7 H 0.1051 0.8732 0.2568
H8 H -0.0319 0.9004 0.1527
H9 H 0.0980 1.0148 0.1285
C18 C 1.0772(2) 0.43181(19) -0.33327(19)
H10 H 1.1373 0.5104 -0.3951
H11 H 1.0653 0.3639 -0.3862
H12 H 1.1387 0.3822 -0.2541
loop_
_geom_bond_atom_site_label_1
_geom_bond_atom_site_label_2
_geom_bond_site_symmetry_1
_geom_bond_site_symmetry_2
O1 C5 1_555 1_555
O2 C9 1_555 1_555
O3 C7 1_555 1_555
O4 C10 1_555 1_555
C1 C2 1_555 1_555
O5 C14 1_555 1_555
C2 C5 1_555 1_555
O6 C15 1_555 1_555
C3 C4 1_555 1_555
C4 C7 1_555 1_555
C5 C6 1_555 1_555
C6 H1 1_555 1_555
C7 C2 1_555 1_555
C8 C6 1_555 1_555
H2 C8 1_555 1_555
C9 C1 1_555 1_555
C10 C1 1_555 1_555
C11 H3 1_555 1_555
C12 C4 1_555 1_555
H4 C12 1_555 1_555
C13 C3 1_555 1_555
H5 C13 1_555 1_555
C14 O2 1_555 1_555
C15 O1 1_555 1_555
C16 C11 1_555 1_555
H6 C16 1_555 1_555
C17 C15 1_555 1_555
H7 C17 1_555 1_555
H8 C17 1_555 1_555
H9 C17 1_555 1_555
C18 C14 1_555 1_555
H10 C18 1_555 1_555
H11 C18 1_555 1_555
H12 C18 1_555 1_555
C3 C10 1_555 1_555
C8 C9 1_555 1_555
C11 C13 1_555 1_555
C12 C16 1_555 1_555

#END
