
#######################################################################
#
#                 Cambridge Crystallographic Data Centre
#                                CCDC 
#
#######################################################################
#
# If this CIF has been generated from an entry in the Cambridge 
# Structural Database, then it will include bibliographic, chemical, 
# crystal, experimental, refinement or atomic coordinate data resulting 
# from the CCDC's data processing and validation procedures.
#
#######################################################################

data_ZIJPIT
_chemical_name_common            1,4-Diacetateanthraquinone
_chemical_formula_moiety         'C18 H12 O6'
_chemical_name_systematic        
'9,10-Dioxo-9,10-dihydroanthracene-1,4-diyl diacetate'
_symmetry_cell_setting           triclinic
_symmetry_space_group_name_H-M   'P -1'
_symmetry_Int_Tables_number      2
_space_group_name_Hall           '-P 1'
loop_
_symmetry_equiv_pos_site_id
_symmetry_equiv_pos_as_xyz
1 x,y,z
2 -x,-y,-z
_cell_length_a                   8.208(7)
_cell_length_b                   9.730(8)
_cell_length_c                   9.902(8)
_cell_angle_alpha                73.257(16)
_cell_angle_beta                 79.986(14)
_cell_angle_gamma                80.770(14)
_cell_volume                     740.63
_exptl_crystal_colour            colorless
_exptl_crystal_description       block
_cell_formula_units_Z            2
loop_
_atom_site_label
_atom_site_type_symbol
_atom_site_fract_x
_atom_site_fract_y
_atom_site_fract_z
O1 O 0.6269(2) 0.7129(2) 0.92996(18)
O2 O 1.1612(2) 0.4505(2) 0.66625(19)
O3 O 0.5808(2) 0.92058(19) 0.69178(18)
O4 O 0.7230(2) 1.0267(2) 0.80172(19)
O5 O 1.1375(2) 0.6552(2) 0.42121(16)
O6 O 1.3324(2) 0.7313(2) 0.50884(19)
C1 C 0.7353(3) 0.6484(3) 0.8615(2)
C2 C 0.8032(3) 0.4978(3) 0.9257(2)
C3 C 0.7287(3) 0.4235(3) 1.0597(3)
H1 H 0.6371 0.4686 1.1067
C4 C 0.7911(4) 0.2837(3) 1.1216(3)
H2 H 0.7402 0.2340 1.2097
C5 C 0.9294(4) 0.2166(3) 1.0533(3)
H3 H 0.9717 0.1225 1.0965
C6 C 1.0048(3) 0.2884(3) 0.9218(3)
H4 H 1.0975 0.2428 0.8765
C7 C 0.9425(3) 0.4288(3) 0.8570(2)
C8 C 1.0286(3) 0.5067(3) 0.7161(2)
C9 C 0.9476(3) 0.6507(3) 0.6424(2)
C10 C 0.8044(3) 0.7199(3) 0.7110(2)
C11 C 0.7303(3) 0.8527(3) 0.6356(3)
C12 C 0.7934(3) 0.9195(3) 0.4973(3)
H5 H 0.7422 1.0084 0.4494
C13 C 0.9328(3) 0.8533(3) 0.4309(3)
H6 H 0.9762 0.8979 0.3381
C14 C 1.0076(3) 0.7220(3) 0.5014(2)
C15 C 0.5922(3) 1.0057(3) 0.7771(3)
C16 C 0.4227(3) 1.0665(3) 0.8308(3)
H7 H 0.4327 1.1330 0.8834
H8 H 0.3629 0.9895 0.8918
H9 H 0.3634 1.1162 0.7518
C17 C 1.2978(3) 0.6659(3) 0.4340(3)
C18 C 1.4156(3) 0.5881(3) 0.3400(3)
H10 H 1.5278 0.6028 0.3427
H11 H 1.3903 0.6249 0.2441
H12 H 1.4044 0.4867 0.3726
loop_
_geom_bond_atom_site_label_1
_geom_bond_atom_site_label_2
_geom_bond_site_symmetry_1
_geom_bond_site_symmetry_2
O1 C1 1_555 1_555
O2 C8 1_555 1_555
O3 C11 1_555 1_555
O4 C15 1_555 1_555
O5 C14 1_555 1_555
O6 C17 1_555 1_555
C1 C2 1_555 1_555
C2 C3 1_555 1_555
C3 H1 1_555 1_555
C4 C3 1_555 1_555
H2 C4 1_555 1_555
C5 C4 1_555 1_555
H3 C5 1_555 1_555
C6 C5 1_555 1_555
H4 C6 1_555 1_555
C7 C2 1_555 1_555
C8 C7 1_555 1_555
C9 C8 1_555 1_555
C10 C1 1_555 1_555
C11 C10 1_555 1_555
C12 C11 1_555 1_555
H5 C12 1_555 1_555
C13 C12 1_555 1_555
H6 C13 1_555 1_555
C14 C9 1_555 1_555
C15 O3 1_555 1_555
C16 C15 1_555 1_555
H7 C16 1_555 1_555
H8 C16 1_555 1_555
H9 C16 1_555 1_555
C17 O5 1_555 1_555
C18 C17 1_555 1_555
H10 C18 1_555 1_555
H11 C18 1_555 1_555
H12 C18 1_555 1_555
C6 C7 1_555 1_555
C9 C10 1_555 1_555
C13 C14 1_555 1_555

#END
