
#######################################################################
#
#                 Cambridge Crystallographic Data Centre
#                                CCDC 
#
#######################################################################
#
# If this CIF has been generated from an entry in the Cambridge 
# Structural Database, then it will include bibliographic, chemical, 
# crystal, experimental, refinement or atomic coordinate data resulting 
# from the CCDC's data processing and validation procedures.
#
#######################################################################

data_ZIJRES
_chemical_formula_moiety         'C12 H6 N4'
_chemical_name_systematic        "[2,3'-bipyridine]-2',6'-dicarbonitrile"
_symmetry_cell_setting           monoclinic
_symmetry_space_group_name_H-M   'P 21/c'
_symmetry_Int_Tables_number      14
_space_group_name_Hall           '-P 2ybc'
loop_
_symmetry_equiv_pos_site_id
_symmetry_equiv_pos_as_xyz
1 x,y,z
2 -x,1/2+y,1/2-z
3 -x,-y,-z
4 x,1/2-y,1/2+z
_cell_length_a                   22.5144(5)
_cell_length_b                   13.1601(3)
_cell_length_c                   13.2652(3)
_cell_angle_alpha                90
_cell_angle_beta                 93.4509(11)
_cell_angle_gamma                90
_cell_volume                     3923.24
_exptl_crystal_colour            colorless
_exptl_crystal_description       block
_cell_formula_units_Z            16
loop_
_atom_site_label
_atom_site_type_symbol
_atom_site_fract_x
_atom_site_fract_y
_atom_site_fract_z
N1 N 0.49910(5) 0.74057(9) 0.26760(10)
N2 N 0.67745(5) 0.83351(10) 0.29072(11)
N3 N 0.62263(6) 0.61415(10) 0.24069(12)
N4 N 0.35033(6) 0.75276(12) 0.29544(15)
C1 C 0.55555(6) 0.77161(10) 0.26223(11)
C2 C 0.45846(6) 0.81336(11) 0.27582(12)
C3 C 0.47099(7) 0.91693(11) 0.27679(13)
H1 H 0.4402 0.9658 0.2815
C4 C 0.52920(6) 0.94626(11) 0.27070(12)
H2 H 0.5391 1.0165 0.2714
C5 C 0.57391(6) 0.87387(11) 0.26354(11)
C6 C 0.63739(6) 0.90300(11) 0.25798(12)
C7 C 0.65339(7) 0.99737(11) 0.22031(12)
H3 H 0.6239 1.0453 0.1983
C8 C 0.71324(7) 1.01972(12) 0.21571(13)
H4 H 0.7255 1.0838 0.1913
C9 C 0.75478(7) 0.94792(12) 0.24703(13)
H5 H 0.7961 0.9608 0.2433
C10 C 0.73499(7) 0.85668(12) 0.28397(14)
H6 H 0.7639 0.8075 0.3059
C11 C 0.59619(6) 0.68697(11) 0.25145(12)
C12 C 0.39805(7) 0.77851(12) 0.28566(14)
N5 N 1.00098(5) 0.66865(10) 0.25099(11)
N6 N 0.82233(6) 0.58423(10) 0.23869(13)
N7 N 0.87912(6) 0.79976(11) 0.21706(16)
N8 N 1.15222(6) 0.65194(11) 0.28236(15)
C13 C 0.94394(6) 0.63854(11) 0.24219(12)
C14 C 1.04188(7) 0.59585(12) 0.26116(14)
C15 C 1.02892(7) 0.49305(13) 0.26150(17)
H7 H 1.0597 0.4437 0.2677
C16 C 0.97019(7) 0.46449(13) 0.25256(16)
H8 H 0.9602 0.3943 0.2525
C17 C 0.92501(7) 0.53684(11) 0.24356(13)
C18 C 0.86123(7) 0.50763(11) 0.23825(12)
C19 C 0.84293(7) 0.40674(12) 0.23460(13)
H9 H 0.8713 0.3534 0.2336
C20 C 0.78279(7) 0.38510(12) 0.23251(13)
H10 H 0.7694 0.3166 0.2310
C21 C 0.74263(7) 0.46356(13) 0.23266(13)
H11 H 0.7011 0.4507 0.2310
C22 C 0.76432(7) 0.56175(13) 0.23535(15)
H12 H 0.7366 0.6162 0.2348
C23 C 0.90390(7) 0.72465(12) 0.22910(15)
C24 C 1.10337(7) 0.62904(12) 0.27276(15)
N9 N 0.25051(5) 0.53772(10) 0.02073(10)
N10 N 0.07122(6) 0.62043(11) -0.00555(15)
N11 N 0.13060(6) 0.40241(12) 0.02803(17)
N12 N 0.40066(6) 0.55328(12) 0.01479(14)
C25 C 0.19315(6) 0.56632(11) 0.02102(12)
C26 C 0.29079(7) 0.61155(12) 0.02084(13)
C27 C 0.27729(7) 0.71403(13) 0.02209(15)
H13 H 0.3078 0.7639 0.0238
C28 C 0.21814(7) 0.74172(13) 0.02080(15)
H14 H 0.2077 0.8116 0.0206
C29 C 0.17368(7) 0.66812(12) 0.01976(12)
C30 C 0.10958(7) 0.69596(12) 0.01452(12)
C31 C 0.09100(7) 0.79532(13) 0.02696(15)
H15 H 0.1192 0.8479 0.0415
C32 C 0.03076(7) 0.81675(13) 0.01785(15)
H16 H 0.0170 0.8844 0.0257
C33 C -0.00892(7) 0.73939(13) -0.00260(14)
H17 H -0.0505 0.7522 -0.0094
C34 C 0.01307(7) 0.64306(14) -0.01301(18)
H18 H -0.0145 0.5893 -0.0263
C35 C 0.15421(7) 0.47900(12) 0.02419(15)
C36 C 0.35214(7) 0.57814(12) 0.01809(14)
N13 N 0.25087(5) 0.03678(9) 0.02181(10)
N14 N 0.42958(5) 0.11479(9) -0.00983(11)
N15 N 0.37265(6) -0.09144(10) 0.07125(13)
N16 N 0.10036(6) 0.04871(12) 0.00311(15)
C37 C 0.30810(6) 0.06558(11) 0.02102(11)
C38 C 0.21010(6) 0.10823(12) -0.00026(12)
C39 C 0.22322(7) 0.20789(12) -0.02331(14)
H19 H 0.1925 0.2561 -0.0382
C40 C 0.28232(7) 0.23508(12) -0.02402(13)
H20 H 0.2926 0.3030 -0.0398
C41 C 0.32714(6) 0.16403(11) -0.00185(11)
C42 C 0.39103(6) 0.19201(11) -0.00522(11)
C43 C 0.40905(7) 0.29331(11) -0.00522(12)
H21 H 0.3808 0.3464 -0.0003
C44 C 0.46879(7) 0.31533(12) -0.01251(12)
H22 H 0.4821 0.3838 -0.0135
C45 C 0.50870(7) 0.23649(12) -0.01824(12)
H23 H 0.5499 0.2495 -0.0241
C46 C 0.48740(7) 0.13777(12) -0.01523(13)
H24 H 0.5152 0.0835 -0.0171
C47 C 0.34799(6) -0.01830(11) 0.04801(12)
C48 C 0.14866(7) 0.07449(13) 0.00158(15)
loop_
_geom_bond_atom_site_label_1
_geom_bond_atom_site_label_2
_geom_bond_site_symmetry_1
_geom_bond_site_symmetry_2
N1 C1 1_555 1_555
N2 C6 1_555 1_555
N3 C11 1_555 1_555
N4 C12 1_555 1_555
C1 C5 1_555 1_555
C2 N1 1_555 1_555
C3 C2 1_555 1_555
H1 C3 1_555 1_555
C4 C3 1_555 1_555
H2 C4 1_555 1_555
C5 C4 1_555 1_555
C6 C5 1_555 1_555
C7 C6 1_555 1_555
H3 C7 1_555 1_555
C8 C7 1_555 1_555
H4 C8 1_555 1_555
C9 C8 1_555 1_555
H5 C9 1_555 1_555
C10 N2 1_555 1_555
H6 C10 1_555 1_555
C11 C1 1_555 1_555
C12 C2 1_555 1_555
N5 C13 1_555 1_555
N6 C18 1_555 1_555
N7 C23 1_555 1_555
N8 C24 1_555 1_555
C13 C17 1_555 1_555
C14 N5 1_555 1_555
C15 C14 1_555 1_555
H7 C15 1_555 1_555
C16 C15 1_555 1_555
H8 C16 1_555 1_555
C17 C16 1_555 1_555
C18 C17 1_555 1_555
C19 C18 1_555 1_555
H9 C19 1_555 1_555
C20 C19 1_555 1_555
H10 C20 1_555 1_555
C21 C20 1_555 1_555
H11 C21 1_555 1_555
C22 N6 1_555 1_555
H12 C22 1_555 1_555
C23 C13 1_555 1_555
C24 C14 1_555 1_555
N9 C25 1_555 1_555
N10 C30 1_555 1_555
N11 C35 1_555 1_555
N12 C36 1_555 1_555
C25 C29 1_555 1_555
C26 N9 1_555 1_555
C27 C26 1_555 1_555
H13 C27 1_555 1_555
C28 C27 1_555 1_555
H14 C28 1_555 1_555
C29 C28 1_555 1_555
C30 C29 1_555 1_555
C31 C30 1_555 1_555
H15 C31 1_555 1_555
C32 C31 1_555 1_555
H16 C32 1_555 1_555
C33 C32 1_555 1_555
H17 C33 1_555 1_555
C34 N10 1_555 1_555
H18 C34 1_555 1_555
C35 C25 1_555 1_555
C36 C26 1_555 1_555
N13 C37 1_555 1_555
N14 C42 1_555 1_555
N15 C47 1_555 1_555
N16 C48 1_555 1_555
C37 C41 1_555 1_555
C38 N13 1_555 1_555
C39 C38 1_555 1_555
H19 C39 1_555 1_555
C40 C39 1_555 1_555
H20 C40 1_555 1_555
C41 C40 1_555 1_555
C42 C41 1_555 1_555
C43 C42 1_555 1_555
H21 C43 1_555 1_555
C44 C43 1_555 1_555
H22 C44 1_555 1_555
C45 C44 1_555 1_555
H23 C45 1_555 1_555
C46 N14 1_555 1_555
H24 C46 1_555 1_555
C47 C37 1_555 1_555
C48 C38 1_555 1_555
C9 C10 1_555 1_555
C21 C22 1_555 1_555
C33 C34 1_555 1_555
C45 C46 1_555 1_555

#END
