
#######################################################################
#
#                 Cambridge Crystallographic Data Centre
#                                CCDC 
#
#######################################################################
#
# If this CIF has been generated from an entry in the Cambridge 
# Structural Database, then it will include bibliographic, chemical, 
# crystal, experimental, refinement or atomic coordinate data resulting 
# from the CCDC's data processing and validation procedures.
#
#######################################################################

data_ZIJTEU
_chemical_formula_moiety         'C28 H18 B2 N4 S3'
_chemical_name_systematic        
4,9-diphenyl-4,6,7,9-tetrahydro[1,2,5]thiadiazolo[3,4-g]bisthieno[3',2':3,4][1,2]azaborinino[1,6,5-de:5',6',1'-ij]quinoxaline
_symmetry_cell_setting           triclinic
_symmetry_space_group_name_H-M   'P -1'
_symmetry_Int_Tables_number      2
_space_group_name_Hall           '-P 1'
loop_
_symmetry_equiv_pos_site_id
_symmetry_equiv_pos_as_xyz
1 x,y,z
2 -x,-y,-z
_cell_length_a                   7.816(4)
_cell_length_b                   12.150(5)
_cell_length_c                   12.764(6)
_cell_angle_alpha                91.877(9)
_cell_angle_beta                 92.37(2)
_cell_angle_gamma                91.526(14)
_cell_volume                     1209.96
_exptl_crystal_colour            colorless
_exptl_crystal_description       Prism
_cell_formula_units_Z            2
loop_
_atom_site_label
_atom_site_type_symbol
_atom_site_fract_x
_atom_site_fract_y
_atom_site_fract_z
S1 S -0.00868(5) 0.19761(3) 0.44407(3)
S2 S 0.22688(5) 0.42974(3) 0.22780(3)
S3 S 0.48669(5) 0.74438(3) 0.33355(3)
B1 B 0.0971(2) 0.34097(14) 0.72939(14)
B2 B 0.4300(2) 0.75418(13) 0.64561(13)
N1 N 0.15338(17) 0.36261(11) 0.32547(10)
N2 N 0.31399(17) 0.53679(11) 0.29083(10)
N3 N 0.18545(16) 0.44049(10) 0.70247(10)
N4 N 0.34155(16) 0.65083(10) 0.65999(9)
C1 C 0.0840(2) 0.30459(12) 0.84651(12)
C2 C 0.2286(2) 0.28420(13) 0.91034(13)
H1 H 0.3390 0.3006 0.8855
C3 C 0.2153(2) 0.24063(14) 1.00909(13)
H2 H 0.3157 0.2269 1.0506
C4 C 0.0550(3) 0.21738(15) 1.04666(14)
H3 H 0.0452 0.1878 1.1142
C5 C -0.0902(3) 0.23711(16) 0.98613(14)
H4 H -0.2001 0.2217 1.0122
C6 C -0.0761(2) 0.27972(14) 0.88654(14)
H5 H -0.1771 0.2921 0.8451
C7 C 0.02791(19) 0.26701(12) 0.63866(12)
C8 C -0.0612(2) 0.16236(12) 0.63753(13)
H6 H -0.0966 0.1280 0.6992
C9 C -0.0899(2) 0.11739(13) 0.53989(14)
H7 H -0.1486 0.0487 0.5257
C10 C 0.06495(19) 0.29654(12) 0.53781(12)
C11 C 0.15603(19) 0.39627(11) 0.51686(12)
C12 C 0.19507(19) 0.42428(12) 0.41250(12)
C13 C 0.28817(19) 0.52304(12) 0.39277(11)
C14 C 0.34226(18) 0.59914(11) 0.47604(11)
C15 C 0.30079(18) 0.57395(11) 0.57828(11)
C16 C 0.21244(18) 0.46934(11) 0.59938(11)
C17 C 0.43376(19) 0.69930(11) 0.45601(11)
C18 C 0.48502(19) 0.77496(12) 0.53551(11)
C19 C 0.56885(19) 0.86963(12) 0.49495(12)
H8 H 0.6132 0.9301 0.5377
C20 C 0.5783(2) 0.86383(12) 0.38924(12)
H9 H 0.6301 0.9198 0.3500
C21 C 0.2744(2) 0.50967(12) 0.78577(12)
H10 H 0.3955 0.4881 0.7931
H11 H 0.2204 0.4973 0.8533
C22 C 0.2676(2) 0.62933(12) 0.76163(11)
H12 H 0.1470 0.6524 0.7602
H13 H 0.3317 0.6734 0.8176
C23 C 0.4553(2) 0.84680(12) 0.73468(11)
C24 C 0.3178(2) 0.89407(13) 0.78468(12)
H14 H 0.2059 0.8629 0.7717
C25 C 0.3405(3) 0.98552(14) 0.85289(13)
H15 H 0.2446 1.0163 0.8853
C26 C 0.5029(3) 1.03163(13) 0.87351(12)
H16 H 0.5186 1.0944 0.9196
C27 C 0.6418(2) 0.98597(13) 0.82683(13)
H17 H 0.7537 1.0163 0.8422
C28 C 0.6185(2) 0.89529(13) 0.75714(12)
H18 H 0.7149 0.8658 0.7243
loop_
_geom_bond_atom_site_label_1
_geom_bond_atom_site_label_2
_geom_bond_site_symmetry_1
_geom_bond_site_symmetry_2
S1 C9 1_555 1_555
S2 N1 1_555 1_555
S3 C17 1_555 1_555
B1 N3 1_555 1_555
B2 N4 1_555 1_555
N1 C12 1_555 1_555
N2 S2 1_555 1_555
N3 C16 1_555 1_555
N4 C15 1_555 1_555
C1 B1 1_555 1_555
C2 C1 1_555 1_555
H1 C2 1_555 1_555
C3 C2 1_555 1_555
H2 C3 1_555 1_555
C4 C3 1_555 1_555
H3 C4 1_555 1_555
C5 C4 1_555 1_555
H4 C5 1_555 1_555
C6 C1 1_555 1_555
H5 C6 1_555 1_555
C7 B1 1_555 1_555
C8 C7 1_555 1_555
H6 C8 1_555 1_555
C9 C8 1_555 1_555
H7 C9 1_555 1_555
C10 S1 1_555 1_555
C11 C10 1_555 1_555
C12 C11 1_555 1_555
C13 N2 1_555 1_555
C14 C13 1_555 1_555
C15 C14 1_555 1_555
C16 C11 1_555 1_555
C17 C14 1_555 1_555
C18 B2 1_555 1_555
C19 C18 1_555 1_555
H8 C19 1_555 1_555
C20 S3 1_555 1_555
H9 C20 1_555 1_555
C21 N3 1_555 1_555
H10 C21 1_555 1_555
H11 C21 1_555 1_555
C22 N4 1_555 1_555
H12 C22 1_555 1_555
H13 C22 1_555 1_555
C23 B2 1_555 1_555
C24 C23 1_555 1_555
H14 C24 1_555 1_555
C25 C24 1_555 1_555
H15 C25 1_555 1_555
C26 C25 1_555 1_555
H16 C26 1_555 1_555
C27 C26 1_555 1_555
H17 C27 1_555 1_555
C28 C23 1_555 1_555
H18 C28 1_555 1_555
C5 C6 1_555 1_555
C7 C10 1_555 1_555
C12 C13 1_555 1_555
C15 C16 1_555 1_555
C17 C18 1_555 1_555
C19 C20 1_555 1_555
C21 C22 1_555 1_555
C27 C28 1_555 1_555

#END
