
#######################################################################
#
#                 Cambridge Crystallographic Data Centre
#                                CCDC 
#
#######################################################################
#
# If this CIF has been generated from an entry in the Cambridge 
# Structural Database, then it will include bibliographic, chemical, 
# crystal, experimental, refinement or atomic coordinate data resulting 
# from the CCDC's data processing and validation procedures.
#
#######################################################################

data_ZIJVOG
_chemical_formula_moiety         'C46 H66 N2 O2 2+,2(B1 F4 1-),0.5(H2 O1)'
_chemical_name_systematic        
"1,1'-bis[4-(dodecyloxy)phenyl]-4,4'-bipyridin-1-ium tetrafluoroborate hemihydrate"
_symmetry_cell_setting           triclinic
_symmetry_space_group_name_H-M   'P -1'
_symmetry_Int_Tables_number      2
_space_group_name_Hall           '-P 1'
loop_
_symmetry_equiv_pos_site_id
_symmetry_equiv_pos_as_xyz
1 x,y,z
2 -x,-y,-z
_cell_length_a                   7.7273(2)
_cell_length_b                   10.0812(3)
_cell_length_c                   30.1503(9)
_cell_angle_alpha                98.0699(10)
_cell_angle_beta                 93.6023(11)
_cell_angle_gamma                93.0372(11)
_cell_volume                     2316.33
_exptl_crystal_colour            colorless
_exptl_crystal_description       plate
_cell_formula_units_Z            2
loop_
_atom_site_label
_atom_site_type_symbol
_atom_site_fract_x
_atom_site_fract_y
_atom_site_fract_z
O1 O 0.5516(2) 0.64655(18) 0.30477(5)
N1 N 0.5289(2) 0.56837(18) 0.11764(6)
C1 C 0.5239(3) 0.6698(2) 0.09328(7)
H1 H 0.5286 0.7597 0.1081
C2 C 0.5122(3) 0.6454(2) 0.04729(7)
H2 H 0.5078 0.7183 0.0305
C3 C 0.5067(3) 0.5147(2) 0.02496(7)
C4 C 0.5141(3) 0.4113(2) 0.05130(8)
H3 H 0.5119 0.3207 0.0373
C5 C 0.5245(3) 0.4399(2) 0.09715(8)
H4 H 0.5288 0.3688 0.1147
C6 C 0.5355(3) 0.5942(2) 0.16628(7)
C7 C 0.6528(3) 0.5298(3) 0.19114(8)
H5 H 0.7310 0.4716 0.1765
C8 C 0.6549(3) 0.5510(3) 0.23729(8)
H6 H 0.7350 0.5072 0.2546
C9 C 0.5405(3) 0.6363(2) 0.25885(7)
C10 C 0.4269(3) 0.7027(2) 0.23377(7)
H7 H 0.3507 0.7628 0.2484
C11 C 0.4244(3) 0.6813(2) 0.18712(7)
H8 H 0.3464 0.7266 0.1697
C12 C 0.4258(3) 0.7215(2) 0.32843(7)
H9 H 0.3071 0.6837 0.3178
H10 H 0.4359 0.8163 0.3231
C13 C 0.4595(3) 0.7134(2) 0.37791(7)
H11 H 0.5823 0.7425 0.3873
H12 H 0.4405 0.6190 0.3830
C14 C 0.3420(3) 0.8005(2) 0.40676(7)
H13 H 0.2193 0.7707 0.3975
H14 H 0.3601 0.8947 0.4013
C15 C 0.3751(3) 0.7950(2) 0.45681(7)
H15 H 0.4988 0.8219 0.4658
H16 H 0.3534 0.7012 0.4623
C16 C 0.2621(3) 0.8852(2) 0.48611(7)
H17 H 0.2835 0.9789 0.4805
H18 H 0.1384 0.8582 0.4771
C17 C 0.2947(3) 0.8804(2) 0.53622(7)
H19 H 0.4188 0.9062 0.5452
H20 H 0.2714 0.7870 0.5419
C18 C 0.1833(3) 0.9725(2) 0.56538(7)
H21 H 0.2064 1.0658 0.5595
H22 H 0.0593 0.9466 0.5564
C19 C 0.2152(3) 0.9688(2) 0.61552(7)
H23 H 0.3394 0.9934 0.6245
H24 H 0.1898 0.8760 0.6216
C20 C 0.1049(3) 1.0632(2) 0.64407(7)
H25 H 0.1309 1.1559 0.6380
H26 H -0.0191 1.0389 0.6348
C21 C 0.1335(3) 1.0609(3) 0.69430(8)
H27 H 0.1047 0.9688 0.7006
H28 H 0.2579 1.0833 0.7036
C22 C 0.0255(4) 1.1578(3) 0.72229(8)
H29 H 0.0560 1.2500 0.7164
H30 H -0.0987 1.1363 0.7125
C23 C 0.0501(5) 1.1547(3) 0.77245(9)
H31 H 0.0022 1.0685 0.7793
H32 H -0.0104 1.2278 0.7885
H33 H 0.1743 1.1658 0.7820
O1A O 0.4484(2) 0.35345(18) -0.30477(5)
N1A N 0.4711(2) 0.43163(18) -0.11764(6)
C1A C 0.4761(3) 0.3302(2) -0.09328(7)
H1A H 0.4714 0.2403 -0.1081
C2A C 0.4878(3) 0.3546(2) -0.04729(7)
H2A H 0.4922 0.2817 -0.0305
C3A C 0.4933(3) 0.4853(2) -0.02496(7)
C4A C 0.4859(3) 0.5887(2) -0.05130(8)
H3A H 0.4881 0.6793 -0.0373
C5A C 0.4755(3) 0.5601(2) -0.09715(8)
H4A H 0.4712 0.6312 -0.1147
C6A C 0.4645(3) 0.4058(2) -0.16628(7)
C7A C 0.3472(3) 0.4702(3) -0.19114(8)
H5A H 0.2690 0.5284 -0.1765
C8A C 0.3451(3) 0.4490(3) -0.23729(8)
H6A H 0.2650 0.4928 -0.2546
C9A C 0.4595(3) 0.3637(2) -0.25885(7)
C10A C 0.5731(3) 0.2973(2) -0.23377(7)
H7A H 0.6493 0.2372 -0.2484
C11A C 0.5756(3) 0.3187(2) -0.18712(7)
H8A H 0.6536 0.2734 -0.1697
C12A C 0.5742(3) 0.2785(2) -0.32843(7)
H9A H 0.6929 0.3163 -0.3178
H10A H 0.5641 0.1837 -0.3231
C13A C 0.5405(3) 0.2866(2) -0.37791(7)
H11A H 0.4177 0.2575 -0.3873
H12A H 0.5595 0.3810 -0.3830
C14A C 0.6580(3) 0.1995(2) -0.40676(7)
H13A H 0.7807 0.2293 -0.3975
H14A H 0.6399 0.1053 -0.4013
C15A C 0.6249(3) 0.2050(2) -0.45681(7)
H15A H 0.5012 0.1781 -0.4658
H16A H 0.6466 0.2988 -0.4623
C16A C 0.7379(3) 0.1148(2) -0.48611(7)
H17A H 0.7165 0.0211 -0.4805
H18A H 0.8616 0.1418 -0.4771
C17A C 0.7053(3) 0.1196(2) -0.53622(7)
H19A H 0.5812 0.0938 -0.5452
H20A H 0.7286 0.2130 -0.5419
C18A C 0.8167(3) 0.0275(2) -0.56538(7)
H21A H 0.7936 -0.0658 -0.5595
H22A H 0.9407 0.0534 -0.5564
C19A C 0.7848(3) 0.0312(2) -0.61552(7)
H23A H 0.6606 0.0066 -0.6245
H24A H 0.8102 0.1240 -0.6216
C20A C 0.8951(3) -0.0632(2) -0.64407(7)
H25A H 0.8691 -0.1559 -0.6380
H26A H 1.0191 -0.0389 -0.6348
C21A C 0.8665(3) -0.0609(3) -0.69430(8)
H27A H 0.8953 0.0312 -0.7006
H28A H 0.7421 -0.0833 -0.7036
C22A C 0.9745(4) -0.1578(3) -0.72229(8)
H29A H 0.9440 -0.2500 -0.7164
H30A H 1.0987 -0.1363 -0.7125
C23A C 0.9499(5) -0.1547(3) -0.77245(9)
H31A H 0.9978 -0.0685 -0.7793
H32A H 1.0104 -0.2278 -0.7885
H33A H 0.8257 -0.1658 -0.7820
B1 B 0.0187(4) 0.6157(3) 0.09343(10)
F1 F 0.0773(5) 0.7343(2) 0.12057(9)
F2 F -0.1030(5) 0.5399(4) 0.11361(11)
F3 F -0.0526(4) 0.6386(3) 0.05208(10)
F4 F 0.1583(4) 0.5318(3) 0.0899(2)
O2 O 1.0513(2) 0.42976(17) 0.28624(5)
N2 N 1.0082(2) 0.15907(18) 0.11126(6)
C24 C 1.0061(4) 0.2330(2) 0.07729(8)
H34 H 1.0055 0.3280 0.0837
C25 C 1.0050(4) 0.1732(2) 0.03370(8)
H35 H 1.0071 0.2269 0.0102
C26 C 1.0009(3) 0.0340(2) 0.02346(7)
C27 C 0.9986(3) -0.0391(2) 0.05927(7)
H36 H 0.9935 -0.1344 0.0536
C28 C 1.0035(3) 0.0247(2) 0.10250(7)
H37 H 1.0036 -0.0267 0.1266
C29 C 1.0163(3) 0.2261(2) 0.15712(7)
C30 C 1.1364(4) 0.3328(3) 0.17043(8)
H38 H 1.2132 0.3613 0.1497
C31 C 1.1440(4) 0.3979(3) 0.21391(8)
H39 H 1.2256 0.4720 0.2231
C32 C 1.0329(3) 0.3556(2) 0.24435(7)
C33 C 0.9141(3) 0.2484(2) 0.23091(7)
H40 H 0.8382 0.2191 0.2517
C34 C 0.9054(3) 0.1831(2) 0.18698(7)
H41 H 0.8235 0.1094 0.1776
C35 C 0.9400(3) 0.3947(2) 0.31938(7)
H42 H 0.9669 0.3062 0.3278
H43 H 0.8170 0.3900 0.3077
C36 C 0.9721(3) 0.5028(2) 0.35962(7)
H44 H 0.9517 0.5911 0.3501
H45 H 1.0951 0.5046 0.3712
C37 C 0.8561(3) 0.4811(2) 0.39702(7)
H46 H 0.8750 0.3921 0.4061
H47 H 0.7332 0.4808 0.3856
C38 C 0.8904(3) 0.5888(2) 0.43802(7)
H48 H 1.0135 0.5889 0.4493
H49 H 0.8719 0.6777 0.4288
C39 C 0.7752(3) 0.5688(2) 0.47594(7)
H50 H 0.7931 0.4797 0.4850
H51 H 0.6521 0.5693 0.4647
C40 C 0.8103(3) 0.6760(2) 0.51708(7)
H52 H 0.9337 0.6763 0.5281
H53 H 0.7908 0.7651 0.5081
C41 C 0.6963(3) 0.6546(2) 0.55505(7)
H54 H 0.7143 0.5647 0.5636
H55 H 0.5730 0.6556 0.5440
C42 C 0.7317(3) 0.7595(2) 0.59679(7)
H56 H 0.8558 0.7607 0.6074
H57 H 0.7096 0.8492 0.5886
C43 C 0.6202(3) 0.7333(2) 0.63488(8)
H58 H 0.4964 0.7339 0.6243
H59 H 0.6402 0.6425 0.6423
C44 C 0.6549(3) 0.8343(2) 0.67744(8)
H60 H 0.7786 0.8341 0.6881
H61 H 0.6337 0.9251 0.6702
C45 C 0.5429(4) 0.8052(3) 0.71482(9)
H62 H 0.4193 0.8076 0.7043
H63 H 0.5616 0.7132 0.7212
C46 C 0.5783(5) 0.9017(4) 0.75785(10)
H64 H 0.7009 0.9017 0.7683
H65 H 0.5053 0.8739 0.7808
H66 H 0.5515 0.9923 0.7524
O2A O 0.9487(2) -0.42976(17) -0.28624(5)
N2A N 0.9918(2) -0.15907(18) -0.11126(6)
C24A C 0.9939(4) -0.2330(2) -0.07729(8)
H34A H 0.9945 -0.3280 -0.0837
C25A C 0.9950(4) -0.1732(2) -0.03370(8)
H35A H 0.9929 -0.2269 -0.0102
C26A C 0.9991(3) -0.0340(2) -0.02346(7)
C27A C 1.0014(3) 0.0391(2) -0.05927(7)
H36A H 1.0065 0.1344 -0.0536
C28A C 0.9965(3) -0.0247(2) -0.10250(7)
H37A H 0.9964 0.0267 -0.1266
C29A C 0.9837(3) -0.2261(2) -0.15712(7)
C30A C 0.8636(4) -0.3328(3) -0.17043(8)
H38A H 0.7868 -0.3613 -0.1497
C31A C 0.8560(4) -0.3979(3) -0.21391(8)
H39A H 0.7744 -0.4720 -0.2231
C32A C 0.9671(3) -0.3556(2) -0.24435(7)
C33A C 1.0859(3) -0.2484(2) -0.23091(7)
H40A H 1.1618 -0.2191 -0.2517
C34A C 1.0946(3) -0.1831(2) -0.18698(7)
H41A H 1.1765 -0.1094 -0.1776
C35A C 1.0600(3) -0.3947(2) -0.31938(7)
H42A H 1.0331 -0.3062 -0.3278
H43A H 1.1830 -0.3900 -0.3077
C36A C 1.0279(3) -0.5028(2) -0.35962(7)
H44A H 1.0483 -0.5911 -0.3501
H45A H 0.9049 -0.5046 -0.3712
C37A C 1.1439(3) -0.4811(2) -0.39702(7)
H46A H 1.1250 -0.3921 -0.4061
H47A H 1.2668 -0.4808 -0.3856
C38A C 1.1096(3) -0.5888(2) -0.43802(7)
H48A H 0.9865 -0.5889 -0.4493
H49A H 1.1281 -0.6777 -0.4288
C39A C 1.2248(3) -0.5688(2) -0.47594(7)
H50A H 1.2069 -0.4797 -0.4850
H51A H 1.3479 -0.5693 -0.4647
C40A C 1.1897(3) -0.6760(2) -0.51708(7)
H52A H 1.0663 -0.6763 -0.5281
H53A H 1.2092 -0.7651 -0.5081
C41A C 1.3037(3) -0.6546(2) -0.55505(7)
H54A H 1.2857 -0.5647 -0.5636
H55A H 1.4270 -0.6556 -0.5440
C42A C 1.2683(3) -0.7595(2) -0.59679(7)
H56A H 1.1442 -0.7607 -0.6074
H57A H 1.2904 -0.8492 -0.5886
C43A C 1.3798(3) -0.7333(2) -0.63488(8)
H58A H 1.5036 -0.7339 -0.6243
H59A H 1.3598 -0.6425 -0.6423
C44A C 1.3451(3) -0.8343(2) -0.67744(8)
H60A H 1.2214 -0.8341 -0.6881
H61A H 1.3663 -0.9251 -0.6702
C45A C 1.4571(4) -0.8052(3) -0.71482(9)
H62A H 1.5807 -0.8076 -0.7043
H63A H 1.4384 -0.7132 -0.7212
C46A C 1.4217(5) -0.9017(4) -0.75785(10)
H64A H 1.2991 -0.9017 -0.7683
H65A H 1.4947 -0.8739 -0.7808
H66A H 1.4485 -0.9923 -0.7524
B2 B 0.5046(4) 0.0591(4) 0.10756(14)
F9 F 0.3871(5) 0.1368(5) 0.12430(16)
F10 F 0.4376(6) -0.0366(3) 0.07079(12)
F11 F 0.6324(4) 0.1379(3) 0.09155(15)
F12 F 0.5847(5) -0.0188(3) 0.13662(11)
O3 O 0.4232(17) 0.0932(13) -0.0019(4)
H67 H 0.4091 0.0133 0.0057
H68 H 0.5362 0.1150 0.0111
F5? F -0.0317(13) 0.7309(7) 0.1183(3)
F6? F -0.1134(17) 0.5279(15) 0.0953(4)
F7? F 0.0314(13) 0.6479(11) 0.0514(3)
F8? F 0.1765(13) 0.5713(12) 0.0974(9)
F13? F 0.3739(14) 0.0015(12) 0.1304(4)
F14? F 0.4094(16) 0.1106(9) 0.0753(3)
F15? F 0.5371(12) 0.1803(8) 0.1399(3)
F16? F 0.6353(12) -0.0107(9) 0.1110(4)
loop_
_geom_bond_atom_site_label_1
_geom_bond_atom_site_label_2
_geom_bond_site_symmetry_1
_geom_bond_site_symmetry_2
O1 C9 1_555 1_555
N1 C1 1_555 1_555
C1 H1 1_555 1_555
C2 C1 1_555 1_555
H2 C2 1_555 1_555
C3 C2 1_555 1_555
C4 C3 1_555 1_555
H3 C4 1_555 1_555
C5 N1 1_555 1_555
H4 C5 1_555 1_555
C6 N1 1_555 1_555
C7 C6 1_555 1_555
H5 C7 1_555 1_555
C8 C7 1_555 1_555
H6 C8 1_555 1_555
C9 C8 1_555 1_555
C10 C9 1_555 1_555
H7 C10 1_555 1_555
C11 C6 1_555 1_555
H8 C11 1_555 1_555
C12 O1 1_555 1_555
H9 C12 1_555 1_555
H10 C12 1_555 1_555
C13 C12 1_555 1_555
H11 C13 1_555 1_555
H12 C13 1_555 1_555
C14 C13 1_555 1_555
H13 C14 1_555 1_555
H14 C14 1_555 1_555
C15 C14 1_555 1_555
H15 C15 1_555 1_555
H16 C15 1_555 1_555
C16 C15 1_555 1_555
H17 C16 1_555 1_555
H18 C16 1_555 1_555
C17 C16 1_555 1_555
H19 C17 1_555 1_555
H20 C17 1_555 1_555
C18 C17 1_555 1_555
H21 C18 1_555 1_555
H22 C18 1_555 1_555
C19 C18 1_555 1_555
H23 C19 1_555 1_555
H24 C19 1_555 1_555
C20 C19 1_555 1_555
H25 C20 1_555 1_555
H26 C20 1_555 1_555
C21 C20 1_555 1_555
H27 C21 1_555 1_555
H28 C21 1_555 1_555
C22 C21 1_555 1_555
H29 C22 1_555 1_555
H30 C22 1_555 1_555
C23 C22 1_555 1_555
H31 C23 1_555 1_555
H32 C23 1_555 1_555
H33 C23 1_555 1_555
B1 F1 1_555 1_555
F2 B1 1_555 1_555
F3 B1 1_555 1_555
F4 B1 1_555 1_555
O2 C32 1_555 1_555
N2 C24 1_555 1_555
C24 H34 1_555 1_555
C25 C24 1_555 1_555
H35 C25 1_555 1_555
C26 C25 1_555 1_555
C27 C26 1_555 1_555
H36 C27 1_555 1_555
C28 N2 1_555 1_555
H37 C28 1_555 1_555
C29 N2 1_555 1_555
C30 C29 1_555 1_555
H38 C30 1_555 1_555
C31 C30 1_555 1_555
H39 C31 1_555 1_555
C32 C31 1_555 1_555
C33 C32 1_555 1_555
H40 C33 1_555 1_555
C34 C29 1_555 1_555
H41 C34 1_555 1_555
C35 O2 1_555 1_555
H42 C35 1_555 1_555
H43 C35 1_555 1_555
C36 C35 1_555 1_555
H44 C36 1_555 1_555
H45 C36 1_555 1_555
C37 C36 1_555 1_555
H46 C37 1_555 1_555
H47 C37 1_555 1_555
C38 C37 1_555 1_555
H48 C38 1_555 1_555
H49 C38 1_555 1_555
C39 C38 1_555 1_555
H50 C39 1_555 1_555
H51 C39 1_555 1_555
C40 C39 1_555 1_555
H52 C40 1_555 1_555
H53 C40 1_555 1_555
C41 C40 1_555 1_555
H54 C41 1_555 1_555
H55 C41 1_555 1_555
C42 C41 1_555 1_555
H56 C42 1_555 1_555
H57 C42 1_555 1_555
C43 C42 1_555 1_555
H58 C43 1_555 1_555
H59 C43 1_555 1_555
C44 C43 1_555 1_555
H60 C44 1_555 1_555
H61 C44 1_555 1_555
C45 C44 1_555 1_555
H62 C45 1_555 1_555
H63 C45 1_555 1_555
C46 C45 1_555 1_555
H64 C46 1_555 1_555
H65 C46 1_555 1_555
H66 C46 1_555 1_555
B2 F9 1_555 1_555
F10 B2 1_555 1_555
F11 B2 1_555 1_555
F12 B2 1_555 1_555
O3 H67 1_555 1_555
H68 O3 1_555 1_555
O1A C9A 1_555 1_555
N1A C1A 1_555 1_555
C1A H1A 1_555 1_555
C2A C1A 1_555 1_555
H2A C2A 1_555 1_555
C3A C3 1_555 1_555
C4A C3A 1_555 1_555
H3A C4A 1_555 1_555
C5A N1A 1_555 1_555
H4A C5A 1_555 1_555
C6A N1A 1_555 1_555
C7A C6A 1_555 1_555
H5A C7A 1_555 1_555
C8A C7A 1_555 1_555
H6A C8A 1_555 1_555
C9A C8A 1_555 1_555
C10A C9A 1_555 1_555
H7A C10A 1_555 1_555
C11A C6A 1_555 1_555
H8A C11A 1_555 1_555
C12A O1A 1_555 1_555
H9A C12A 1_555 1_555
H10A C12A 1_555 1_555
C13A C12A 1_555 1_555
H11A C13A 1_555 1_555
H12A C13A 1_555 1_555
C14A C13A 1_555 1_555
H13A C14A 1_555 1_555
H14A C14A 1_555 1_555
C15A C14A 1_555 1_555
H15A C15A 1_555 1_555
H16A C15A 1_555 1_555
C16A C15A 1_555 1_555
H17A C16A 1_555 1_555
H18A C16A 1_555 1_555
C17A C16A 1_555 1_555
H19A C17A 1_555 1_555
H20A C17A 1_555 1_555
C18A C17A 1_555 1_555
H21A C18A 1_555 1_555
H22A C18A 1_555 1_555
C19A C18A 1_555 1_555
H23A C19A 1_555 1_555
H24A C19A 1_555 1_555
C20A C19A 1_555 1_555
H25A C20A 1_555 1_555
H26A C20A 1_555 1_555
C21A C20A 1_555 1_555
H27A C21A 1_555 1_555
H28A C21A 1_555 1_555
C22A C21A 1_555 1_555
H29A C22A 1_555 1_555
H30A C22A 1_555 1_555
C23A C22A 1_555 1_555
H31A C23A 1_555 1_555
H32A C23A 1_555 1_555
H33A C23A 1_555 1_555
O2A C32A 1_555 1_555
N2A C24A 1_555 1_555
C24A H34A 1_555 1_555
C25A C24A 1_555 1_555
H35A C25A 1_555 1_555
C26A C26 1_555 1_555
C27A C26A 1_555 1_555
H36A C27A 1_555 1_555
C28A N2A 1_555 1_555
H37A C28A 1_555 1_555
C29A N2A 1_555 1_555
C30A C29A 1_555 1_555
H38A C30A 1_555 1_555
C31A C30A 1_555 1_555
H39A C31A 1_555 1_555
C32A C31A 1_555 1_555
C33A C32A 1_555 1_555
H40A C33A 1_555 1_555
C34A C29A 1_555 1_555
H41A C34A 1_555 1_555
C35A O2A 1_555 1_555
H42A C35A 1_555 1_555
H43A C35A 1_555 1_555
C36A C35A 1_555 1_555
H44A C36A 1_555 1_555
H45A C36A 1_555 1_555
C37A C36A 1_555 1_555
H46A C37A 1_555 1_555
H47A C37A 1_555 1_555
C38A C37A 1_555 1_555
H48A C38A 1_555 1_555
H49A C38A 1_555 1_555
C39A C38A 1_555 1_555
H50A C39A 1_555 1_555
H51A C39A 1_555 1_555
C40A C39A 1_555 1_555
H52A C40A 1_555 1_555
H53A C40A 1_555 1_555
C41A C40A 1_555 1_555
H54A C41A 1_555 1_555
H55A C41A 1_555 1_555
C42A C41A 1_555 1_555
H56A C42A 1_555 1_555
H57A C42A 1_555 1_555
C43A C42A 1_555 1_555
H58A C43A 1_555 1_555
H59A C43A 1_555 1_555
C44A C43A 1_555 1_555
H60A C44A 1_555 1_555
H61A C44A 1_555 1_555
C45A C44A 1_555 1_555
H62A C45A 1_555 1_555
H63A C45A 1_555 1_555
C46A C45A 1_555 1_555
H64A C46A 1_555 1_555
H65A C46A 1_555 1_555
H66A C46A 1_555 1_555
C4 C5 1_555 1_555
C10 C11 1_555 1_555
C27 C28 1_555 1_555
C33 C34 1_555 1_555
C2A C3A 1_555 1_555
C4A C5A 1_555 1_555
C10A C11A 1_555 1_555
C25A C26A 1_555 1_555
C27A C28A 1_555 1_555
C33A C34A 1_555 1_555

#END
