
#######################################################################
#
#                 Cambridge Crystallographic Data Centre
#                                CCDC 
#
#######################################################################
#
# If this CIF has been generated from an entry in the Cambridge 
# Structural Database, then it will include bibliographic, chemical, 
# crystal, experimental, refinement or atomic coordinate data resulting 
# from the CCDC's data processing and validation procedures.
#
#######################################################################

data_ZIJWUM
_chemical_formula_moiety         
'2(Cl1 1-),70(H2 O1),2(Rb1 1+),1.5(C48 H48 N32 O16)'
_chemical_name_systematic        
'di-rubidium dichloride cucurbit[8]uril unknown solvate hydrate'
_symmetry_cell_setting           rhombohedral
_symmetry_space_group_name_H-M   'R -3'
_symmetry_Int_Tables_number      148
_space_group_name_Hall           '-R 3'
loop_
_symmetry_equiv_pos_site_id
_symmetry_equiv_pos_as_xyz
1 x,y,z
2 -y,x-y,z
3 -x+y,-x,z
4 2/3+x,1/3+y,1/3+z
5 2/3-y,1/3+x-y,1/3+z
6 2/3-x+y,1/3-x,1/3+z
7 1/3+x,2/3+y,2/3+z
8 1/3-y,2/3+x-y,2/3+z
9 1/3-x+y,2/3-x,2/3+z
10 -x,-y,-z
11 y,-x+y,-z
12 x-y,x,-z
13 1/3-x,2/3-y,2/3-z
14 1/3+y,2/3-x+y,2/3-z
15 1/3+x-y,2/3+x,2/3-z
16 2/3-x,1/3-y,1/3-z
17 2/3+y,1/3-x+y,1/3-z
18 2/3+x-y,1/3+x,1/3-z
_cell_length_a                   21.755(5)
_cell_length_b                   21.755(5)
_cell_length_c                   52.173(9)
_cell_angle_alpha                90
_cell_angle_beta                 90
_cell_angle_gamma                120
_cell_volume                     21384.3
_cell_formula_units_Z            6
loop_
_atom_site_label
_atom_site_type_symbol
_atom_site_fract_x
_atom_site_fract_y
_atom_site_fract_z
Cl1 Cl 1.3333 0.6667 0.1242(2)
Cl2 Cl 0.9965(6) 0.3004(7) 0.1503(2)
O1 O 0.6667 0.3333 0.0060(3)
Rb1 Rb 0.6667 0.3333 0.066431(16)
Rb2 Rb 1.3333 0.6667 0.052559(18)
C1 C 0.9363(2) 0.7189(2) -0.03301(11)
C2 C 0.83113(19) 0.64518(19) -0.05377(9)
H1 H 0.8136 0.6657 -0.0666
C3 C 0.81351(18) 0.65733(19) -0.02680(10)
H2 H 0.7825 0.6779 -0.0267
C4 C 0.76487(18) 0.5358(2) -0.03356(9)
C5 C 0.8928(2) 0.7452(2) 0.00795(11)
H3 H 0.9399 0.7868 0.0079
H4 H 0.8587 0.7615 0.0083
C6 C 0.7384(2) 0.5704(2) 0.00816(10)
H5 H 0.7144 0.5979 0.0087
H6 H 0.7023 0.5206 0.0084
C7 C 0.9402(2) 0.7228(2) 0.04604(11)
C8 C 0.81685(19) 0.65660(18) 0.04240(10)
H7 H 0.7853 0.6766 0.0431
C9 C 0.83674(19) 0.64405(19) 0.06905(9)
H8 H 0.8179 0.6618 0.0824
C10 C 0.77115(19) 0.5366(2) 0.04843(9)
C11 C 0.9570(2) 0.6948(2) 0.09079(10)
H9 H 0.9353 0.7046 0.1053
H10 H 1.0033 0.7362 0.0880
C12 C 0.79629(19) 0.5316(2) 0.09376(9)
H11 H 0.7542 0.4850 0.0923
H12 H 0.7879 0.5570 0.1073
C13 C 1.0305(2) 0.6389(2) 0.09538(9)
C14 C 0.9181(2) 0.5789(2) 0.11379(9)
H13 H 0.9057 0.5968 0.1290
C15 C 0.9592(2) 0.5401(2) 0.12046(8)
H14 H 0.9655 0.5389 0.1390
C16 C 0.8558(2) 0.4610(2) 0.09950(8)
C17 C 1.09154(19) 0.5824(2) 0.11513(9)
H15 H 1.1331 0.6269 0.1103
H16 H 1.0914 0.5788 0.1337
C18 C 0.9280(2) 0.4107(2) 0.11753(9)
H17 H 0.9343 0.4113 0.1360
H18 H 0.8853 0.3666 0.1132
C19 C 1.1557(2) 0.5372(2) 0.09045(8)
C20 C 1.05945(19) 0.45497(19) 0.11477(8)
H19 H 1.0615 0.4553 0.1335
C21 C 1.09824(19) 0.4173(2) 0.10256(9)
H20 H 1.1157 0.3979 0.1158
C22 C 0.9796(2) 0.3576(2) 0.08976(8)
C23 C 1.21445(19) 0.4671(2) 0.08024(10)
H21 H 1.2246 0.4412 0.0931
H22 H 1.2558 0.5141 0.0789
C24 C 1.0505(2) 0.3033(2) 0.07792(10)
H23 H 1.0035 0.2633 0.0748
H24 H 1.0728 0.2892 0.0910
N1 N 0.90751(16) 0.67991(17) -0.05401(7)
N2 N 0.88300(16) 0.70526(16) -0.01588(7)
N3 N 0.79565(16) 0.56825(17) -0.05610(8)
N4 N 0.77887(15) 0.58603(16) -0.01588(7)
N5 N 0.88477(17) 0.70553(16) 0.03051(8)
N6 N 0.91392(17) 0.68353(17) 0.06851(9)
N7 N 0.78213(15) 0.58624(15) 0.03051(7)
N8 N 0.80613(16) 0.56828(15) 0.07054(7)
N9 N 0.96611(16) 0.63501(15) 0.09700(7)
N10 N 1.02869(15) 0.58421(16) 0.10724(7)
N11 N 0.85615(15) 0.52286(16) 0.10092(6)
N12 N 0.91805(15) 0.47071(16) 0.11029(7)
N13 N 1.09709(16) 0.52519(16) 0.10426(7)
N14 N 1.15576(16) 0.47411(16) 0.08891(7)
N15 N 0.98725(15) 0.41208(16) 0.10527(6)
N16 N 1.04373(16) 0.36235(16) 0.08757(6)
O2 O 0.99850(15) 0.75875(18) -0.02850(8)
O3 O 1.00204(15) 0.76654(16) 0.04256(8)
O4 O 1.08116(15) 0.68545(15) 0.08323(7)
O5 O 1.20029(14) 0.59338(14) 0.08122(6)
O6 O 0.73143(15) 0.47190(14) -0.03081(6)
O7 O 0.73749(14) 0.47188(13) 0.04433(6)
O8 O 0.80889(13) 0.40550(14) 0.09025(6)
O9 O 0.92358(14) 0.31211(14) 0.08066(6)
C1I C 1.0637(2) 0.2811(2) 0.03301(11)
C2I C 1.16887(19) 0.35482(19) 0.05377(9)
H1I H 1.1864 0.3343 0.0666
C3I C 1.18649(18) 0.34267(19) 0.02680(10)
H2I H 1.2175 0.3221 0.0267
C4I C 1.23513(18) 0.4642(2) 0.03356(9)
C5I C 1.1072(2) 0.2548(2) -0.00795(11)
H3I H 1.0601 0.2132 -0.0079
H4I H 1.1413 0.2385 -0.0083
C6I C 1.2616(2) 0.4296(2) -0.00816(10)
H5I H 1.2856 0.4021 -0.0087
H6I H 1.2977 0.4794 -0.0084
C7I C 1.0598(2) 0.2772(2) -0.04604(11)
C8I C 1.18315(19) 0.34340(18) -0.04240(10)
H7I H 1.2147 0.3234 -0.0431
C9I C 1.16326(19) 0.35595(19) -0.06905(9)
H8I H 1.1821 0.3382 -0.0824
C10I C 1.22885(19) 0.4634(2) -0.04843(9)
C11I C 1.0430(2) 0.3052(2) -0.09079(10)
H9I H 1.0647 0.2954 -0.1053
H10I H 0.9967 0.2638 -0.0880
C12I C 1.20371(19) 0.4684(2) -0.09376(9)
H11I H 1.2458 0.5150 -0.0923
H12I H 1.2121 0.4430 -0.1073
C13I C 0.9695(2) 0.3611(2) -0.09538(9)
C14I C 1.0819(2) 0.4211(2) -0.11379(9)
H13I H 1.0943 0.4032 -0.1290
C15I C 1.0408(2) 0.4599(2) -0.12046(8)
H14I H 1.0345 0.4611 -0.1390
C16I C 1.1442(2) 0.5390(2) -0.09950(8)
C17I C 0.90846(19) 0.4176(2) -0.11513(9)
H15I H 0.8669 0.3731 -0.1103
H16I H 0.9086 0.4212 -0.1337
C18I C 1.0720(2) 0.5893(2) -0.11753(9)
H17I H 1.0657 0.5887 -0.1360
H18I H 1.1147 0.6334 -0.1132
C19I C 0.8443(2) 0.4628(2) -0.09045(8)
C20I C 0.94055(19) 0.54503(19) -0.11477(8)
H19I H 0.9385 0.5447 -0.1335
C21I C 0.90176(19) 0.5827(2) -0.10256(9)
H20I H 0.8843 0.6021 -0.1158
C22I C 1.0204(2) 0.6424(2) -0.08976(8)
C23I C 0.78555(19) 0.5329(2) -0.08024(10)
H21I H 0.7754 0.5588 -0.0931
H22I H 0.7442 0.4859 -0.0789
C24I C 0.9495(2) 0.6967(2) -0.07792(10)
H23I H 0.9965 0.7367 -0.0748
H24I H 0.9272 0.7108 -0.0910
N1I N 1.09249(16) 0.32009(17) 0.05401(7)
N2I N 1.11700(16) 0.29474(16) 0.01588(7)
N3I N 1.20435(16) 0.43175(17) 0.05610(8)
N4I N 1.22113(15) 0.41397(16) 0.01588(7)
N5I N 1.11523(17) 0.29447(16) -0.03051(8)
N6I N 1.08608(17) 0.31647(17) -0.06851(9)
N7I N 1.21787(15) 0.41376(15) -0.03051(7)
N8I N 1.19387(16) 0.43172(15) -0.07054(7)
N9I N 1.03389(16) 0.36499(15) -0.09700(7)
N10I N 0.97131(15) 0.41579(16) -0.10724(7)
N11I N 1.14385(15) 0.47714(16) -0.10092(6)
N12I N 1.08195(15) 0.52929(16) -0.11029(7)
N13I N 0.90291(16) 0.47481(16) -0.10426(7)
N14I N 0.84424(16) 0.52589(16) -0.08891(7)
N15I N 1.01275(15) 0.58792(16) -0.10527(6)
N16I N 0.95627(16) 0.63765(16) -0.08757(6)
O2I O 1.00150(15) 0.24125(18) 0.02850(8)
O3I O 0.99796(15) 0.23346(16) -0.04256(8)
O4I O 0.91884(15) 0.31455(15) -0.08323(7)
O5I O 0.79971(14) 0.40662(14) -0.08122(6)
O6I O 1.26857(15) 0.52810(14) 0.03081(6)
O7I O 1.26251(14) 0.52812(13) -0.04433(6)
O8I O 1.19111(13) 0.59450(14) -0.09025(6)
O9I O 1.07642(14) 0.68789(14) -0.08066(6)
Cl3? Cl 1.0021(9) 0.3406(10) 0.1654(4)
loop_
_geom_bond_atom_site_label_1
_geom_bond_atom_site_label_2
_geom_bond_site_symmetry_1
_geom_bond_site_symmetry_2
C1 N1 1_555 1_555
C2 H1 1_555 1_555
C3 C2 1_555 1_555
H2 C3 1_555 1_555
C4 N3 1_555 1_555
C5 H3 1_555 1_555
H4 C5 1_555 1_555
C6 H5 1_555 1_555
H6 C6 1_555 1_555
C7 N5 1_555 1_555
C8 H7 1_555 1_555
C9 C8 1_555 1_555
H8 C9 1_555 1_555
C10 N7 1_555 1_555
C11 H9 1_555 1_555
H10 C11 1_555 1_555
C12 H11 1_555 1_555
H12 C12 1_555 1_555
C13 N9 1_555 1_555
C14 H13 1_555 1_555
C15 C14 1_555 1_555
H14 C15 1_555 1_555
C16 N11 1_555 1_555
C17 H15 1_555 1_555
H16 C17 1_555 1_555
C18 H17 1_555 1_555
H18 C18 1_555 1_555
C19 N13 1_555 1_555
C20 H19 1_555 1_555
C21 C20 1_555 1_555
H20 C21 1_555 1_555
C22 N15 1_555 1_555
C23 H21 1_555 1_555
H22 C23 1_555 1_555
C24 H23 1_555 1_555
H24 C24 1_555 1_555
N1 C2 1_555 1_555
N2 C1 1_555 1_555
N3 C2 1_555 1_555
N4 C3 1_555 1_555
N5 C5 1_555 1_555
N6 C7 1_555 1_555
N7 C6 1_555 1_555
N8 C9 1_555 1_555
N9 C11 1_555 1_555
N10 C13 1_555 1_555
N11 C12 1_555 1_555
N12 C15 1_555 1_555
N13 C17 1_555 1_555
N14 C19 1_555 1_555
N15 C18 1_555 1_555
N16 C21 1_555 1_555
O2 C1 1_555 1_555
O3 C7 1_555 1_555
O4 C13 1_555 1_555
O5 C19 1_555 1_555
O6 C4 1_555 1_555
O7 C10 1_555 1_555
O8 C16 1_555 1_555
O9 C22 1_555 1_555
C1I N1I 1_555 1_555
C2I H1I 1_555 1_555
C3I C2I 1_555 1_555
H2I C3I 1_555 1_555
C4I N3I 1_555 1_555
C5I H3I 1_555 1_555
H4I C5I 1_555 1_555
C6I H5I 1_555 1_555
H6I C6I 1_555 1_555
C7I N5I 1_555 1_555
C8I H7I 1_555 1_555
C9I C8I 1_555 1_555
H8I C9I 1_555 1_555
C10I N7I 1_555 1_555
C11I H9I 1_555 1_555
H10I C11I 1_555 1_555
C12I H11I 1_555 1_555
H12I C12I 1_555 1_555
C13I N9I 1_555 1_555
C14I H13I 1_555 1_555
C15I C14I 1_555 1_555
H14I C15I 1_555 1_555
C16I N11I 1_555 1_555
C17I H15I 1_555 1_555
H16I C17I 1_555 1_555
C18I H17I 1_555 1_555
H18I C18I 1_555 1_555
C19I N13I 1_555 1_555
C20I H19I 1_555 1_555
C21I C20I 1_555 1_555
H20I C21I 1_555 1_555
C22I N15I 1_555 1_555
C23I N3 1_555 1_555
H21I C23I 1_555 1_555
H22I C23I 1_555 1_555
C24I N1 1_555 1_555
H23I C24I 1_555 1_555
H24I C24I 1_555 1_555
N1I C24 1_555 1_555
N2I C1I 1_555 1_555
N3I C23 1_555 1_555
N4I C3I 1_555 1_555
N5I C5I 1_555 1_555
N6I C7I 1_555 1_555
N7I C6I 1_555 1_555
N8I C9I 1_555 1_555
N9I C11I 1_555 1_555
N10I C13I 1_555 1_555
N11I C12I 1_555 1_555
N12I C15I 1_555 1_555
N13I C17I 1_555 1_555
N14I C19I 1_555 1_555
N15I C18I 1_555 1_555
N16I C21I 1_555 1_555
O2I C1I 1_555 1_555
O3I C7I 1_555 1_555
O4I C13I 1_555 1_555
O5I C19I 1_555 1_555
O6I C4I 1_555 1_555
O7I C10I 1_555 1_555
O8I C16I 1_555 1_555
O9I C22I 1_555 1_555
C3 N2 1_555 1_555
C4 N4 1_555 1_555
C5 N2 1_555 1_555
C6 N4 1_555 1_555
C8 N5 1_555 1_555
C8 N7 1_555 1_555
C9 N6 1_555 1_555
C10 N8 1_555 1_555
C11 N6 1_555 1_555
C12 N8 1_555 1_555
C14 N9 1_555 1_555
C14 N11 1_555 1_555
C15 N10 1_555 1_555
C16 N12 1_555 1_555
C17 N10 1_555 1_555
C18 N12 1_555 1_555
C20 N13 1_555 1_555
C20 N15 1_555 1_555
C21 N14 1_555 1_555
C22 N16 1_555 1_555
C23 N14 1_555 1_555
C24 N16 1_555 1_555
C2I N1I 1_555 1_555
C2I N3I 1_555 1_555
C3I N2I 1_555 1_555
C4I N4I 1_555 1_555
C5I N2I 1_555 1_555
C6I N4I 1_555 1_555
C8I N5I 1_555 1_555
C8I N7I 1_555 1_555
C9I N6I 1_555 1_555
C10I N8I 1_555 1_555
C11I N6I 1_555 1_555
C12I N8I 1_555 1_555
C14I N9I 1_555 1_555
C14I N11I 1_555 1_555
C15I N10I 1_555 1_555
C16I N12I 1_555 1_555
C17I N10I 1_555 1_555
C18I N12I 1_555 1_555
C20I N13I 1_555 1_555
C20I N15I 1_555 1_555
C21I N14I 1_555 1_555
C22I N16I 1_555 1_555
C23I N14I 1_555 1_555
C24I N16I 1_555 1_555

#END
