
#######################################################################
#
#                 Cambridge Crystallographic Data Centre
#                                CCDC 
#
#######################################################################
#
# If this CIF has been generated from an entry in the Cambridge 
# Structural Database, then it will include bibliographic, chemical, 
# crystal, experimental, refinement or atomic coordinate data resulting 
# from the CCDC's data processing and validation procedures.
#
#######################################################################

data_ZIJXEX
_chemical_name_common            
3-((1-Bromo-2-naphthyl)methoxy)-5,5-dimethylcyclohex-2-en-1-one
_chemical_formula_moiety         'C19 H19 Br1 O2'
_chemical_name_systematic        
3-((1-Bromonaphthalen-2-yl)methoxy)-5,5-dimethylcyclohex-2-enone
_symmetry_cell_setting           monoclinic
_symmetry_space_group_name_H-M   'P 21/c'
_symmetry_Int_Tables_number      14
_space_group_name_Hall           '-P 2ybc'
loop_
_symmetry_equiv_pos_site_id
_symmetry_equiv_pos_as_xyz
1 x,y,z
2 -x,1/2+y,1/2-z
3 -x,-y,-z
4 x,1/2-y,1/2+z
_cell_length_a                   13.986(3)
_cell_length_b                   9.9970(18)
_cell_length_c                   11.859(2)
_cell_angle_alpha                90
_cell_angle_beta                 91.169(2)
_cell_angle_gamma                90
_cell_volume                     1657.76
_exptl_crystal_colour            colorless
_exptl_crystal_description       block
_cell_formula_units_Z            4
_exptl_crystal_recrystallization_method 'chloroform/ethyl acetate'
loop_
_atom_site_label
_atom_site_type_symbol
_atom_site_fract_x
_atom_site_fract_y
_atom_site_fract_z
Br1 Br 0.93272(9) 0.21923(16) 0.49100(14)
C1 C 0.8583(5) 0.0318(10) 0.6902(8)
H1 H 0.8328 0.0122 0.6153
H2 H 0.8464 -0.0448 0.7381
C2 C 1.1164(5) 0.0103(9) 0.7741(7)
H3 H 1.1523 -0.0316 0.8307
C3 C 1.0182(6) -0.0061(16) 0.7684(11)
H4 H 0.9881 -0.0599 0.8208
C4 C 0.9649(5) 0.0574(9) 0.6848(7)
C5 C 1.0089(4) 0.1363(8) 0.6063(6)
C6 C 1.1077(4) 0.1516(9) 0.6101(7)
C7 C 1.1529(4) 0.2292(9) 0.5302(7)
H5 H 1.1171 0.2707 0.4733
C8 C 1.2513(5) 0.2448(9) 0.5352(7)
H6 H 1.2816 0.2968 0.4816
C9 C 1.3047(5) 0.1829(8) 0.6201(7)
H7 H 1.3707 0.1934 0.6234
C10 C 1.2595(4) 0.1054(9) 0.7000(7)
H8 H 1.2953 0.0638 0.7569
C11 C 1.1611(4) 0.0897(9) 0.6950(6)
C12 C 0.7221(3) 0.1315(4) 0.7734(3)
C13 C 0.6685(3) 0.0219(5) 0.7571(4)
H9 H 0.6915 -0.0492 0.7149
C14 C 0.5733(3) 0.0146(5) 0.8065(4)
C15 C 0.5388(3) 0.1316(5) 0.8710(4)
H10 H 0.4962 0.1001 0.9288
H11 H 0.5020 0.1888 0.8204
C16 C 0.6191(3) 0.2159(4) 0.9280(3)
C17 C 0.6897(3) 0.2516(4) 0.8369(4)
H12 H 0.6598 0.3143 0.7846
H13 H 0.7448 0.2954 0.8714
C18 C 0.6693(4) 0.1348(6) 1.0219(4)
H14 H 0.7186 0.1882 1.0569
H15 H 0.6972 0.0558 0.9902
H16 H 0.6235 0.1095 1.0772
C19 C 0.5763(4) 0.3438(6) 0.9770(5)
H17 H 0.6263 0.3970 1.0107
H18 H 0.5307 0.3207 1.0332
H19 H 0.5450 0.3938 0.9178
O1 O 0.8111(2) 0.1500(3) 0.7355(3)
O2 O 0.5246(3) -0.0871(4) 0.7946(3)
C20? C 0.8450(6) 0.0553(11) 0.6468(9)
H20? H 0.8038 0.0595 0.5800
H21? H 0.8458 -0.0359 0.6748
C21? C 1.0349(5) 0.2273(10) 0.4867(7)
H22? H 1.0368 0.2777 0.4209
C22? C 0.9485(6) 0.1796(18) 0.5240(12)
H23? H 0.8923 0.1996 0.4842
C23? C 0.9454(5) 0.1022(10) 0.6205(7)
C24? C 1.0287(5) 0.0714(9) 0.6786(7)
C25? C 1.1158(4) 0.1209(10) 0.6427(7)
C26? C 1.2003(5) 0.0901(10) 0.7016(8)
H24? H 1.1986 0.0369 0.7658
C27? C 1.2875(6) 0.1393(10) 0.6641(9)
H25? H 1.3438 0.1188 0.7034
C28? C 1.2901(6) 0.2191(10) 0.5678(8)
H26? H 1.3482 0.2519 0.5428
C29? C 1.2056(5) 0.2498(9) 0.5089(7)
H27? H 1.2073 0.3031 0.4446
C30? C 1.1184(4) 0.2007(9) 0.5463(7)
Br2? Br 1.02132(16) -0.0384(2) 0.80852(18)
loop_
_geom_bond_atom_site_label_1
_geom_bond_atom_site_label_2
_geom_bond_site_symmetry_1
_geom_bond_site_symmetry_2
Br1 C5 1_555 1_555
C1 H1 1_555 1_555
H2 C1 1_555 1_555
C2 H3 1_555 1_555
C3 C2 1_555 1_555
H4 C3 1_555 1_555
C4 C1 1_555 1_555
C5 C4 1_555 1_555
C6 C5 1_555 1_555
C7 C6 1_555 1_555
H5 C7 1_555 1_555
C8 C7 1_555 1_555
H6 C8 1_555 1_555
C9 C8 1_555 1_555
H7 C9 1_555 1_555
C10 C9 1_555 1_555
H8 C10 1_555 1_555
C11 C2 1_555 1_555
C12 C13 1_555 1_555
C13 H9 1_555 1_555
C14 C13 1_555 1_555
C15 C14 1_555 1_555
H10 C15 1_555 1_555
H11 C15 1_555 1_555
C16 C15 1_555 1_555
C17 C12 1_555 1_555
H12 C17 1_555 1_555
H13 C17 1_555 1_555
C18 C16 1_555 1_555
H14 C18 1_555 1_555
H15 C18 1_555 1_555
H16 C18 1_555 1_555
C19 C16 1_555 1_555
H17 C19 1_555 1_555
H18 C19 1_555 1_555
H19 C19 1_555 1_555
O1 C1 1_555 1_555
O2 C14 1_555 1_555
C3 C4 1_555 1_555
C6 C11 1_555 1_555
C10 C11 1_555 1_555
C12 O1 1_555 1_555
C16 C17 1_555 1_555

#END
