
#######################################################################
#
#                 Cambridge Crystallographic Data Centre
#                                CCDC 
#
#######################################################################
#
# If this CIF has been generated from an entry in the Cambridge 
# Structural Database, then it will include bibliographic, chemical, 
# crystal, experimental, refinement or atomic coordinate data resulting 
# from the CCDC's data processing and validation procedures.
#
#######################################################################

data_ZIJXUN
_chemical_formula_moiety         
'2(Cl1 1-),71(H2 O1),2(Rb1 1+),1.5(C48 H48 N32 O16)'
_chemical_name_systematic        
'di-rubidium dichloride cucurbit[8]uril unknown solvate hydrate'
_symmetry_cell_setting           rhombohedral
_symmetry_space_group_name_H-M   'R -3'
_symmetry_Int_Tables_number      148
_space_group_name_Hall           '-R 3'
loop_
_symmetry_equiv_pos_site_id
_symmetry_equiv_pos_as_xyz
1 x,y,z
2 -y,x-y,z
3 -x+y,-x,z
4 2/3+x,1/3+y,1/3+z
5 2/3-y,1/3+x-y,1/3+z
6 2/3-x+y,1/3-x,1/3+z
7 1/3+x,2/3+y,2/3+z
8 1/3-y,2/3+x-y,2/3+z
9 1/3-x+y,2/3-x,2/3+z
10 -x,-y,-z
11 y,-x+y,-z
12 x-y,x,-z
13 1/3-x,2/3-y,2/3-z
14 1/3+y,2/3-x+y,2/3-z
15 1/3+x-y,2/3+x,2/3-z
16 2/3-x,1/3-y,1/3-z
17 2/3+y,1/3-x+y,1/3-z
18 2/3+x-y,1/3+x,1/3-z
_cell_length_a                   21.830(14)
_cell_length_b                   21.830(14)
_cell_length_c                   52.55(4)
_cell_angle_alpha                90
_cell_angle_beta                 90
_cell_angle_gamma                120
_cell_volume                     21687.6
_exptl_crystal_colour            colorless
_exptl_crystal_description       prism
_cell_formula_units_Z            6
loop_
_atom_site_label
_atom_site_type_symbol
_atom_site_fract_x
_atom_site_fract_y
_atom_site_fract_z
Cl1 Cl 0.6667 0.3333 0.2907(4)
Cl2 Cl 0.5320(8) 0.4218(9) 0.3163(3)
O1 O 0.6667 0.3333 0.1581(7)
Rb1 Rb 0.0000 0.0000 0.23243(2)
Rb2 Rb 0.6667 0.3333 0.21971(3)
C1 C 0.3977(3) -0.0499(3) 0.20057(17)
C2 C 0.5203(3) 0.0099(3) 0.19403(14)
H1 H 0.5513 -0.0110 0.1938
C3 C 0.5030(3) 0.0227(3) 0.22142(13)
H2 H 0.5209 0.0025 0.2343
C4 C 0.5681(3) 0.1306(3) 0.20057(14)
C5 C 0.3850(3) -0.0292(3) 0.24412(13)
H3 H 0.4076 -0.0432 0.2572
H4 H 0.3378 -0.0698 0.2410
C6 C 0.5473(3) 0.1336(3) 0.24695(14)
H5 H 0.5888 0.1811 0.2455
H6 H 0.5578 0.1080 0.2600
C7 C 0.3123(3) 0.0244(3) 0.25628(12)
C8 C 0.4307(3) 0.0845(3) 0.26892(12)
H7 H 0.4485 0.0651 0.2822
C9 C 0.3925(3) 0.1212(3) 0.28121(12)
H8 H 0.3952 0.1221 0.3000
C10 C 0.4891(3) 0.2035(3) 0.25677(12)
C11 C 0.2597(3) 0.0781(3) 0.28349(13)
H9 H 0.2650 0.0782 0.3020
H10 H 0.2166 0.0342 0.2789
C12 C 0.4228(3) 0.2493(3) 0.28156(13)
H11 H 0.4220 0.2444 0.3001
H12 H 0.4645 0.2945 0.2771
C13 C 0.1885(3) 0.1269(3) 0.26518(12)
C14 C 0.2918(3) 0.2075(3) 0.28652(12)
H13 H 0.2974 0.2065 0.3052
C15 C 0.2514(3) 0.2439(3) 0.27957(11)
H14 H 0.2386 0.2616 0.2949
C16 C 0.3638(3) 0.3065(3) 0.26090(12)
C17 C 0.1288(3) 0.1985(3) 0.25975(12)
H15 H 0.0862 0.1518 0.2586
H16 H 0.1211 0.2250 0.2732
C18 C 0.2888(3) 0.3613(3) 0.25646(15)
H17 H 0.2664 0.3711 0.2709
H18 H 0.3349 0.4036 0.2536
C19 C 0.1056(3) 0.2033(3) 0.21397(14)
C20 C 0.1701(3) 0.3108(3) 0.23445(14)
H19 H 0.1513 0.3285 0.2480
C21 C 0.1494(3) 0.3234(3) 0.20842(14)
H20 H 0.1180 0.3439 0.2093
C22 C 0.2722(4) 0.3874(3) 0.21217(17)
C23 C 0.5944(3) 0.0957(3) 0.15890(14)
H21 H 0.6315 0.1456 0.1587
H22 H 0.6178 0.0673 0.1585
C24 C 0.4410(3) -0.0788(3) 0.15879(16)
H23 H 0.4756 -0.0949 0.1584
H24 H 0.3937 -0.1208 0.1588
N1 N 0.4509(3) -0.0372(3) 0.18285(13)
N2 N 0.4252(2) -0.0135(2) 0.22130(10)
N3 N 0.5546(2) 0.0811(2) 0.18297(10)
N4 N 0.5372(2) 0.0983(2) 0.22334(11)
N5 N 0.3771(2) 0.0287(2) 0.25398(9)
N6 N 0.3193(2) 0.0783(2) 0.27176(9)
N7 N 0.4880(2) 0.1401(2) 0.25534(9)
N8 N 0.4295(3) 0.1922(3) 0.27004(12)
N9 N 0.2508(2) 0.1379(2) 0.27635(9)
N10 N 0.1890(2) 0.1898(3) 0.26668(9)
N11 N 0.3610(2) 0.2503(2) 0.27371(10)
N12 N 0.2994(2) 0.3019(2) 0.26305(10)
N13 N 0.1394(2) 0.2346(2) 0.23617(10)
N14 N 0.1136(2) 0.2520(2) 0.19664(10)
N15 N 0.2465(2) 0.3484(3) 0.23467(13)
N16 N 0.2176(3) 0.3720(2) 0.19659(12)
O2 O 0.3345(2) -0.0911(3) 0.19502(10)
O3 O 0.2568(2) -0.0205(2) 0.24697(8)
O4 O 0.14144(19) 0.0713(2) 0.25622(8)
O5 O 0.0707(2) 0.1375(2) 0.21064(8)
O6 O 0.6018(2) 0.1953(2) 0.19790(9)
O7 O 0.5338(2) 0.2601(2) 0.24797(9)
O8 O 0.4144(2) 0.3519(2) 0.24940(10)
O9 O 0.3360(2) 0.4321(2) 0.20804(11)
C1O C 0.2690(3) 0.3832(3) 0.13276(17)
C2O C 0.1464(3) 0.3234(3) 0.13930(14)
H1O H 0.1154 0.3443 0.1395
C3O C 0.1637(3) 0.3106(3) 0.11191(13)
H2O H 0.1458 0.3308 0.0990
C4O C 0.0986(3) 0.2027(3) 0.13276(14)
C5O C 0.2817(3) 0.3625(3) 0.08921(13)
H3O H 0.2591 0.3765 0.0761
H4O H 0.3289 0.4031 0.0923
C6O C 0.1194(3) 0.1997(3) 0.08638(14)
H5O H 0.0779 0.1522 0.0878
H6O H 0.1089 0.2253 0.0733
C7O C 0.3544(3) 0.3089(3) 0.07705(12)
C8O C 0.2360(3) 0.2488(3) 0.06441(12)
H7O H 0.2182 0.2682 0.0511
C9O C 0.2742(3) 0.2121(3) 0.05212(12)
H8O H 0.2715 0.2112 0.0333
C10O C 0.1776(3) 0.1298(3) 0.07656(12)
C11O C 0.4070(3) 0.2552(3) 0.04984(13)
H9O H 0.4017 0.2551 0.0313
H10O H 0.4501 0.2991 0.0544
C12O C 0.2439(3) 0.0840(3) 0.05177(13)
H11O H 0.2447 0.0889 0.0332
H12O H 0.2022 0.0388 0.0562
C13O C 0.4782(3) 0.2064(3) 0.06815(12)
C14O C 0.3749(3) 0.1258(3) 0.04681(12)
H13O H 0.3693 0.1268 0.0281
C15O C 0.4153(3) 0.0894(3) 0.05376(11)
H14O H 0.4281 0.0717 0.0384
C16O C 0.3029(3) 0.0268(3) 0.07243(12)
C17O C 0.5379(3) 0.1348(3) 0.07358(12)
H15O H 0.5805 0.1815 0.0747
H16O H 0.5456 0.1083 0.0601
C18O C 0.3779(3) -0.0280(3) 0.07687(15)
H17O H 0.4003 -0.0378 0.0624
H18O H 0.3318 -0.0703 0.0797
C19O C 0.5611(3) 0.1300(3) 0.11936(14)
C20O C 0.4966(3) 0.0225(3) 0.09888(14)
H19O H 0.5154 0.0048 0.0853
C21O C 0.5173(3) 0.0099(3) 0.12491(14)
H20O H 0.5487 -0.0106 0.1240
C22O C 0.3945(4) -0.0541(3) 0.12116(17)
C23O C 0.0723(3) 0.2376(3) 0.17443(14)
H21O H 0.0352 0.1877 0.1746
H22O H 0.0489 0.2660 0.1748
C24O C 0.2257(3) 0.4121(3) 0.17454(16)
H23O H 0.1911 0.4282 0.1749
H24O H 0.2730 0.4541 0.1745
N1O N 0.2158(3) 0.3705(3) 0.15048(13)
N2O N 0.2415(2) 0.3468(2) 0.11203(10)
N3O N 0.1121(2) 0.2522(2) 0.15036(10)
N4O N 0.1295(2) 0.2350(2) 0.10999(11)
N5O N 0.2896(2) 0.3046(2) 0.07935(9)
N6O N 0.3474(2) 0.2550(2) 0.06157(9)
N7O N 0.1787(2) 0.1932(2) 0.07799(9)
N8O N 0.2372(3) 0.1411(3) 0.06329(12)
N9O N 0.4159(2) 0.1954(2) 0.05698(9)
N10O N 0.4777(2) 0.1435(3) 0.06665(9)
N11O N 0.3057(2) 0.0830(2) 0.05962(10)
N12O N 0.3673(2) 0.0314(2) 0.07028(10)
N13O N 0.5273(2) 0.0987(2) 0.09716(10)
N14O N 0.5531(2) 0.0813(2) 0.13669(10)
N15O N 0.4202(2) -0.0151(3) 0.09866(13)
N16O N 0.4491(3) -0.0387(2) 0.13674(12)
O2O O 0.3322(2) 0.4244(3) 0.13831(10)
O3O O 0.4099(2) 0.3538(2) 0.08636(8)
O4O O 0.52523(19) 0.2620(2) 0.07711(8)
O5O O 0.5960(2) 0.1958(2) 0.12269(8)
O6O O 0.0649(2) 0.1380(2) 0.13543(9)
O7O O 0.1329(2) 0.0732(2) 0.08536(9)
O8O O 0.2523(2) -0.0186(2) 0.08393(10)
O9O O 0.3307(2) -0.0988(2) 0.12529(11)
Cl3? Cl 0.5046(10) 0.4619(11) 0.3144(4)
loop_
_geom_bond_atom_site_label_1
_geom_bond_atom_site_label_2
_geom_bond_site_symmetry_1
_geom_bond_site_symmetry_2
C1 N1 1_555 1_555
C2 H1 1_555 1_555
C3 C2 1_555 1_555
H2 C3 1_555 1_555
C4 N3 1_555 1_555
C5 H3 1_555 1_555
H4 C5 1_555 1_555
C6 H5 1_555 1_555
H6 C6 1_555 1_555
C7 N5 1_555 1_555
C8 H7 1_555 1_555
C9 C8 1_555 1_555
H8 C9 1_555 1_555
C10 N7 1_555 1_555
C11 H9 1_555 1_555
H10 C11 1_555 1_555
C12 H11 1_555 1_555
H12 C12 1_555 1_555
C13 N9 1_555 1_555
C14 H13 1_555 1_555
C15 C14 1_555 1_555
H14 C15 1_555 1_555
C16 N11 1_555 1_555
C17 H15 1_555 1_555
H16 C17 1_555 1_555
C18 H17 1_555 1_555
H18 C18 1_555 1_555
C19 N13 1_555 1_555
C20 H19 1_555 1_555
C21 C20 1_555 1_555
H20 C21 1_555 1_555
C22 N15 1_555 1_555
C23 H21 1_555 1_555
H22 C23 1_555 1_555
C24 H23 1_555 1_555
H24 C24 1_555 1_555
N1 C2 1_555 1_555
N2 C1 1_555 1_555
N3 C2 1_555 1_555
N4 C3 1_555 1_555
N5 C5 1_555 1_555
N6 C7 1_555 1_555
N7 C6 1_555 1_555
N8 C9 1_555 1_555
N9 C11 1_555 1_555
N10 C13 1_555 1_555
N11 C12 1_555 1_555
N12 C15 1_555 1_555
N13 C17 1_555 1_555
N14 C19 1_555 1_555
N15 C18 1_555 1_555
N16 C21 1_555 1_555
O2 C1 1_555 1_555
O3 C7 1_555 1_555
O4 C13 1_555 1_555
O5 C19 1_555 1_555
O6 C4 1_555 1_555
O7 C10 1_555 1_555
O8 C16 1_555 1_555
O9 C22 1_555 1_555
C1O N1O 1_555 1_555
C2O H1O 1_555 1_555
C3O C2O 1_555 1_555
H2O C3O 1_555 1_555
C4O N3O 1_555 1_555
C5O H3O 1_555 1_555
H4O C5O 1_555 1_555
C6O H5O 1_555 1_555
H6O C6O 1_555 1_555
C7O N5O 1_555 1_555
C8O H7O 1_555 1_555
C9O C8O 1_555 1_555
H8O C9O 1_555 1_555
C10O N7O 1_555 1_555
C11O H9O 1_555 1_555
H10O C11O 1_555 1_555
C12O H11O 1_555 1_555
H12O C12O 1_555 1_555
C13O N9O 1_555 1_555
C14O H13O 1_555 1_555
C15O C14O 1_555 1_555
H14O C15O 1_555 1_555
C16O N11O 1_555 1_555
C17O H15O 1_555 1_555
H16O C17O 1_555 1_555
C18O H17O 1_555 1_555
H18O C18O 1_555 1_555
C19O N13O 1_555 1_555
C20O H19O 1_555 1_555
C21O C20O 1_555 1_555
H20O C21O 1_555 1_555
C22O N15O 1_555 1_555
C23O N14 1_555 1_555
H21O C23O 1_555 1_555
H22O C23O 1_555 1_555
C24O N16 1_555 1_555
H23O C24O 1_555 1_555
H24O C24O 1_555 1_555
N1O C2O 1_555 1_555
N2O C1O 1_555 1_555
N3O C2O 1_555 1_555
N4O C3O 1_555 1_555
N5O C5O 1_555 1_555
N6O C7O 1_555 1_555
N7O C6O 1_555 1_555
N8O C9O 1_555 1_555
N9O C11O 1_555 1_555
N10O C13O 1_555 1_555
N11O C12O 1_555 1_555
N12O C15O 1_555 1_555
N13O C17O 1_555 1_555
N14O C23 1_555 1_555
N15O C18O 1_555 1_555
N16O C24 1_555 1_555
O2O C1O 1_555 1_555
O3O C7O 1_555 1_555
O4O C13O 1_555 1_555
O5O C19O 1_555 1_555
O6O C4O 1_555 1_555
O7O C10O 1_555 1_555
O8O C16O 1_555 1_555
O9O C22O 1_555 1_555
C3 N2 1_555 1_555
C4 N4 1_555 1_555
C5 N2 1_555 1_555
C6 N4 1_555 1_555
C8 N5 1_555 1_555
C8 N7 1_555 1_555
C9 N6 1_555 1_555
C10 N8 1_555 1_555
C11 N6 1_555 1_555
C12 N8 1_555 1_555
C14 N9 1_555 1_555
C14 N11 1_555 1_555
C15 N10 1_555 1_555
C16 N12 1_555 1_555
C17 N10 1_555 1_555
C18 N12 1_555 1_555
C20 N13 1_555 1_555
C20 N15 1_555 1_555
C21 N14 1_555 1_555
C22 N16 1_555 1_555
C23 N3 1_555 1_555
C24 N1 1_555 1_555
C3O N2O 1_555 1_555
C4O N4O 1_555 1_555
C5O N2O 1_555 1_555
C6O N4O 1_555 1_555
C8O N5O 1_555 1_555
C8O N7O 1_555 1_555
C9O N6O 1_555 1_555
C10O N8O 1_555 1_555
C11O N6O 1_555 1_555
C12O N8O 1_555 1_555
C14O N9O 1_555 1_555
C14O N11O 1_555 1_555
C15O N10O 1_555 1_555
C16O N12O 1_555 1_555
C17O N10O 1_555 1_555
C18O N12O 1_555 1_555
C19O N14O 1_555 1_555
C20O N13O 1_555 1_555
C20O N15O 1_555 1_555
C21O N14O 1_555 1_555
C21O N16O 1_555 1_555
C22O N16O 1_555 1_555
C23O N3O 1_555 1_555
C24O N1O 1_555 1_555

#END
