
#######################################################################
#
#                 Cambridge Crystallographic Data Centre
#                                CCDC 
#
#######################################################################
#
# If this CIF has been generated from an entry in the Cambridge 
# Structural Database, then it will include bibliographic, chemical, 
# crystal, experimental, refinement or atomic coordinate data resulting 
# from the CCDC's data processing and validation procedures.
#
#######################################################################

data_ZIKDOO
_chemical_formula_moiety         'C28 H31 Br1 F3 N1 O1'
_chemical_name_systematic        
4-Bromo-N-(12-butyl-2-(trifluoromethyl)-6,7,8,9,10,11,11a,12-octahydrocyclonona[a]inden-12-yl)benzamide
_symmetry_cell_setting           monoclinic
_symmetry_space_group_name_H-M   'P 21'
_symmetry_Int_Tables_number      4
_space_group_name_Hall           'P 2yb'
loop_
_symmetry_equiv_pos_site_id
_symmetry_equiv_pos_as_xyz
1 x,y,z
2 -x,1/2+y,-z
_cell_length_a                   10.2890(17)
_cell_length_b                   17.6935(19)
_cell_length_c                   14.2852(19)
_cell_angle_alpha                90
_cell_angle_beta                 102.170(10)
_cell_angle_gamma                90
_cell_volume                     2542.15
_exptl_crystal_colour            colorless
_exptl_crystal_description       prismatic
_cell_formula_units_Z            4
loop_
_atom_site_label
_atom_site_type_symbol
_atom_site_fract_x
_atom_site_fract_y
_atom_site_fract_z
Br1 Br 0.62959(4) 0.38487(2) 0.83544(3)
F1 F 0.9950(3) 0.5203(2) 0.0977(2)
F2 F 0.8636(3) 0.58453(15) 0.1630(3)
F3 F 1.0038(3) 0.51227(16) 0.24820(19)
O1 O 0.3493(3) 0.36303(16) 0.3664(2)
N1 N 0.5547(3) 0.38794(18) 0.3375(2)
H1 H 0.637(4) 0.382(3) 0.356(3)
C1 C 0.5128(3) 0.3801(2) 0.2328(3)
C2 C 0.4690(3) 0.37513(19) 0.3962(3)
C3 C 0.5262(3) 0.37509(19) 0.5021(3)
C4 C 0.6235(4) 0.4244(2) 0.5479(3)
H2 H 0.6679 0.4564 0.5113
C5 C 0.6564(4) 0.4271(2) 0.6475(3)
H3 H 0.7216 0.4617 0.6793
C6 C 0.5926(3) 0.3784(2) 0.7001(3)
C7 C 0.4997(4) 0.3257(2) 0.6551(3)
H4 H 0.4602 0.2911 0.6917
C8 C 0.4660(4) 0.3246(2) 0.5564(3)
H5 H 0.4016 0.2896 0.5247
C9 C 0.4634(4) 0.2977(2) 0.1974(3)
H6 H 0.3640 0.2962 0.1833
C10 C 0.5185(4) 0.2328(2) 0.2669(3)
H7 H 0.5291 0.2516 0.3333
H8 H 0.6079 0.2191 0.2570
C11 C 0.4317(4) 0.1605(2) 0.2562(3)
H9 H 0.4152 0.1474 0.3200
H10 H 0.3446 0.1726 0.2144
C12 C 0.4875(5) 0.0904(2) 0.2156(4)
H11 H 0.4229 0.0489 0.2149
H12 H 0.5700 0.0757 0.2613
C13 C 0.5201(5) 0.0942(2) 0.1155(3)
H13 H 0.5865 0.1347 0.1160
H14 H 0.5628 0.0459 0.1040
C14 C 0.4043(4) 0.1083(2) 0.0311(3)
H15 H 0.3300 0.0745 0.0377
H16 H 0.4326 0.0940 -0.0286
C15 C 0.3521(4) 0.1905(2) 0.0207(3)
H17 H 0.2897 0.1962 -0.0419
H18 H 0.3026 0.2010 0.0716
C16 C 0.4631(4) 0.2467(2) 0.0274(3)
H19 H 0.5017 0.2518 -0.0270
C17 C 0.5124(4) 0.2901(2) 0.1032(3)
C18 C 0.6277(4) 0.3419(2) 0.1106(3)
C19 C 0.7257(4) 0.3446(2) 0.0563(3)
H20 H 0.7275 0.3078 0.0082
C20 C 0.8205(4) 0.4017(2) 0.0732(3)
H21 H 0.8852 0.4053 0.0348
C21 C 0.8206(4) 0.4535(2) 0.1463(3)
C22 C 0.7282(4) 0.4489(2) 0.2051(3)
H22 H 0.7312 0.4831 0.2568
C23 C 0.6316(3) 0.3927(2) 0.1857(3)
C24 C 0.9208(4) 0.5163(2) 0.1628(3)
C25 C 0.4010(4) 0.4375(2) 0.1894(3)
H23 H 0.3794 0.4310 0.1190
H24 H 0.3202 0.4247 0.2134
C26 C 0.4339(4) 0.5208(2) 0.2116(3)
H25 H 0.4497 0.5286 0.2817
H26 H 0.5171 0.5336 0.1907
C27 C 0.3238(4) 0.5743(2) 0.1625(4)
H27 H 0.2416 0.5631 0.1856
H28 H 0.3052 0.5650 0.0926
C28 C 0.3601(4) 0.6574(2) 0.1814(4)
H29 H 0.3784 0.6670 0.2505
H30 H 0.2859 0.6892 0.1496
H31 H 0.4393 0.6693 0.1563
Br2 Br 0.96802(4) 0.15907(2) 0.05866(3)
F4 F 0.6116(2) 0.63170(14) 0.4382(2)
F5 F 0.7663(2) 0.71176(12) 0.4294(2)
F6 F 0.7392(2) 0.61428(14) 0.33676(18)
O2 O 0.8584(2) 0.37355(14) 0.43399(19)
N2 N 1.0838(3) 0.39257(18) 0.4577(2)
H32 H 1.151(4) 0.377(2) 0.440(3)
C29 C 1.1083(4) 0.4407(2) 0.5437(3)
C30 C 0.9668(4) 0.36299(19) 0.4104(3)
C31 C 0.9742(3) 0.3135(2) 0.3260(3)
C32 C 1.0632(3) 0.3260(2) 0.2663(3)
H33 H 1.1256 0.3662 0.2801
C33 C 1.0617(4) 0.2801(2) 0.1867(3)
H34 H 1.1209 0.2895 0.1452
C34 C 0.9721(4) 0.2206(2) 0.1693(3)
C35 C 0.8830(4) 0.2064(2) 0.2271(3)
H35 H 0.8220 0.1655 0.2137
C36 C 0.8848(4) 0.2535(2) 0.3056(3)
H36 H 0.8239 0.2446 0.3459
C37 C 1.1236(4) 0.3978(2) 0.6430(3)
H37 H 1.2184 0.3821 0.6658
C38 C 1.0319(4) 0.3279(2) 0.6422(3)
H38 H 1.0253 0.3008 0.5808
H39 H 0.9417 0.3458 0.6451
C39 C 1.0797(4) 0.2712(2) 0.7259(3)
H40 H 1.0782 0.2199 0.6981
H41 H 1.1736 0.2831 0.7550
C40 C 1.0016(5) 0.2686(2) 0.8068(3)
H42 H 1.0381 0.2265 0.8501
H43 H 0.9084 0.2554 0.7775
C41 C 0.9984(4) 0.3394(2) 0.8694(3)
H44 H 0.9552 0.3807 0.8273
H45 H 0.9410 0.3282 0.9152
C42 C 1.1322(4) 0.3693(2) 0.9269(3)
H46 H 1.1839 0.3259 0.9590
H47 H 1.1142 0.4034 0.9775
C43 C 1.2196(4) 0.4122(2) 0.8683(3)
H48 H 1.2925 0.4388 0.9124
H49 H 1.2598 0.3758 0.8300
C44 C 1.1360(4) 0.4686(2) 0.8028(3)
H50 H 1.1133 0.5139 0.8311
C45 C 1.0907(4) 0.4605(2) 0.7081(3)
C46 C 0.9993(4) 0.5128(2) 0.6458(3)
C47 C 0.9167(4) 0.5692(2) 0.6696(3)
H51 H 0.9166 0.5795 0.7349
C48 C 0.8354(4) 0.6097(2) 0.5980(3)
H52 H 0.7803 0.6487 0.6140
C49 C 0.8337(4) 0.5937(2) 0.5021(3)
C50 C 0.9155(4) 0.5382(2) 0.4763(3)
H53 H 0.9147 0.5279 0.4109
C51 C 0.9989(3) 0.49835(19) 0.5495(3)
C52 C 0.7387(4) 0.6367(2) 0.4263(3)
C53 C 1.2410(4) 0.4824(2) 0.5468(3)
H54 H 1.2686 0.5061 0.6107
H55 H 1.3091 0.4442 0.5409
C54 C 1.2430(4) 0.5436(2) 0.4711(3)
H56 H 1.1666 0.5359 0.4169
H57 H 1.3255 0.5386 0.4464
C55 C 1.2359(5) 0.6249(3) 0.5122(4)
H58 H 1.1519 0.6304 0.5349
H59 H 1.3105 0.6319 0.5679
C56 C 1.2426(5) 0.6855(3) 0.4385(4)
H60 H 1.3267 0.6810 0.4171
H61 H 1.2374 0.7354 0.4672
H62 H 1.1682 0.6792 0.3837
loop_
_geom_bond_atom_site_label_1
_geom_bond_atom_site_label_2
_geom_bond_site_symmetry_1
_geom_bond_site_symmetry_2
Br1 C6 1_555 1_555
F1 C24 1_555 1_555
F2 C24 1_555 1_555
F3 C24 1_555 1_555
O1 C2 1_555 1_555
N1 H1 1_555 1_555
C1 N1 1_555 1_555
C2 N1 1_555 1_555
C3 C2 1_555 1_555
C4 C3 1_555 1_555
H2 C4 1_555 1_555
C5 C4 1_555 1_555
H3 C5 1_555 1_555
C6 C5 1_555 1_555
C7 C6 1_555 1_555
H4 C7 1_555 1_555
C8 C3 1_555 1_555
H5 C8 1_555 1_555
C9 C1 1_555 1_555
H6 C9 1_555 1_555
C10 C9 1_555 1_555
H7 C10 1_555 1_555
H8 C10 1_555 1_555
C11 C10 1_555 1_555
H9 C11 1_555 1_555
H10 C11 1_555 1_555
C12 C11 1_555 1_555
H11 C12 1_555 1_555
H12 C12 1_555 1_555
C13 C12 1_555 1_555
H13 C13 1_555 1_555
H14 C13 1_555 1_555
C14 C13 1_555 1_555
H15 C14 1_555 1_555
H16 C14 1_555 1_555
C15 C14 1_555 1_555
H17 C15 1_555 1_555
H18 C15 1_555 1_555
C16 C15 1_555 1_555
H19 C16 1_555 1_555
C17 C9 1_555 1_555
C18 C17 1_555 1_555
C19 C18 1_555 1_555
H20 C19 1_555 1_555
C20 C19 1_555 1_555
H21 C20 1_555 1_555
C21 C20 1_555 1_555
C22 C21 1_555 1_555
H22 C22 1_555 1_555
C23 C1 1_555 1_555
C24 C21 1_555 1_555
C25 C1 1_555 1_555
H23 C25 1_555 1_555
H24 C25 1_555 1_555
C26 C25 1_555 1_555
H25 C26 1_555 1_555
H26 C26 1_555 1_555
C27 C26 1_555 1_555
H27 C27 1_555 1_555
H28 C27 1_555 1_555
C28 C27 1_555 1_555
H29 C28 1_555 1_555
H30 C28 1_555 1_555
H31 C28 1_555 1_555
Br2 C34 1_555 1_555
F4 C52 1_555 1_555
F5 C52 1_555 1_555
F6 C52 1_555 1_555
O2 C30 1_555 1_555
N2 H32 1_555 1_555
C29 N2 1_555 1_555
C30 N2 1_555 1_555
C31 C30 1_555 1_555
C32 C31 1_555 1_555
H33 C32 1_555 1_555
C33 C32 1_555 1_555
H34 C33 1_555 1_555
C34 C33 1_555 1_555
C35 C34 1_555 1_555
H35 C35 1_555 1_555
C36 C31 1_555 1_555
H36 C36 1_555 1_555
C37 C29 1_555 1_555
H37 C37 1_555 1_555
C38 C37 1_555 1_555
H38 C38 1_555 1_555
H39 C38 1_555 1_555
C39 C38 1_555 1_555
H40 C39 1_555 1_555
H41 C39 1_555 1_555
C40 C39 1_555 1_555
H42 C40 1_555 1_555
H43 C40 1_555 1_555
C41 C40 1_555 1_555
H44 C41 1_555 1_555
H45 C41 1_555 1_555
C42 C41 1_555 1_555
H46 C42 1_555 1_555
H47 C42 1_555 1_555
C43 C42 1_555 1_555
H48 C43 1_555 1_555
H49 C43 1_555 1_555
C44 C43 1_555 1_555
H50 C44 1_555 1_555
C45 C37 1_555 1_555
C46 C45 1_555 1_555
C47 C46 1_555 1_555
H51 C47 1_555 1_555
C48 C47 1_555 1_555
H52 C48 1_555 1_555
C49 C48 1_555 1_555
C50 C49 1_555 1_555
H53 C50 1_555 1_555
C51 C29 1_555 1_555
C52 C49 1_555 1_555
C53 C29 1_555 1_555
H54 C53 1_555 1_555
H55 C53 1_555 1_555
C54 C53 1_555 1_555
H56 C54 1_555 1_555
H57 C54 1_555 1_555
C55 C54 1_555 1_555
H58 C55 1_555 1_555
H59 C55 1_555 1_555
C56 C55 1_555 1_555
H60 C56 1_555 1_555
H61 C56 1_555 1_555
H62 C56 1_555 1_555
C7 C8 1_555 1_555
C16 C17 1_555 1_555
C18 C23 1_555 1_555
C22 C23 1_555 1_555
C35 C36 1_555 1_555
C44 C45 1_555 1_555
C46 C51 1_555 1_555
C50 C51 1_555 1_555

#END
