
#######################################################################
#
#                 Cambridge Crystallographic Data Centre
#                                CCDC 
#
#######################################################################
#
# If this CIF has been generated from an entry in the Cambridge 
# Structural Database, then it will include bibliographic, chemical, 
# crystal, experimental, refinement or atomic coordinate data resulting 
# from the CCDC's data processing and validation procedures.
#
#######################################################################

data_ZIKKAH
_chemical_formula_moiety         'C27 H14 F6 O3'
_chemical_name_systematic        
3a,9b-Bis(4-(trifluoromethyl)phenyl)-3a,9b-dihydronaphtho[2',3':3,4]cyclobuta[1,2-d][1,3]dioxol-2-one
_symmetry_cell_setting           monoclinic
_symmetry_space_group_name_H-M   'P 21/n'
_symmetry_Int_Tables_number      14
_space_group_name_Hall           '-P 2yn'
loop_
_symmetry_equiv_pos_site_id
_symmetry_equiv_pos_as_xyz
1 x,y,z
2 1/2-x,1/2+y,1/2-z
3 -x,-y,-z
4 1/2+x,1/2-y,1/2+z
_cell_length_a                   10.0834(8)
_cell_length_b                   13.2013(11)
_cell_length_c                   17.3962(14)
_cell_angle_alpha                90
_cell_angle_beta                 97.352(2)
_cell_angle_gamma                90
_cell_volume                     2296.64
_exptl_crystal_colour            colorless
_exptl_crystal_description       prismatic
_cell_formula_units_Z            4
loop_
_atom_site_label
_atom_site_type_symbol
_atom_site_fract_x
_atom_site_fract_y
_atom_site_fract_z
O1 O 0.03965(14) 0.70866(11) 0.07525(8)
O2 O 0.18726(13) 0.63375(9) 0.16376(7)
O3 O 0.03135(11) 0.54166(9) 0.09304(7)
F1 F -0.3330(12) 0.1529(11) 0.1962(5)
F2 F -0.3628(11) 0.2528(7) 0.2830(10)
F3 F -0.2272(8) 0.1405(8) 0.3079(5)
F4 F 0.1700(15) 0.4508(15) 0.5448(4)
F5 F 0.281(2) 0.5894(9) 0.5551(7)
F6 F 0.3788(8) 0.4588(12) 0.5518(4)
C1 C 0.08272(19) 0.63406(15) 0.10755(12)
C2 C 0.22083(16) 0.53189(13) 0.18975(10)
C3 C 0.11242(16) 0.46555(13) 0.13705(10)
C4 C 0.22744(16) 0.42681(13) 0.09703(10)
C5 C 0.32229(17) 0.48231(14) 0.14456(11)
C6 C 0.45522(18) 0.47920(17) 0.13823(12)
H1 H 0.5171 0.5173 0.1704
C7 C 0.49416(19) 0.41514(17) 0.08028(12)
C8 C 0.3963(2) 0.35861(15) 0.03082(11)
C9 C 0.25913(19) 0.36577(14) 0.03952(11)
H2 H 0.1941 0.3304 0.0075
C10 C 0.6305(2) 0.4053(2) 0.06932(14)
H3 H 0.6951 0.4428 0.1000
C11 C 0.6678(3) 0.3422(3) 0.01476(18)
H4 H 0.7578 0.3357 0.0091
C12 C 0.5736(3) 0.2870(2) -0.03273(17)
H5 H 0.6013 0.2442 -0.0700
C13 C 0.4411(3) 0.29456(18) -0.02583(13)
H6 H 0.3794 0.2573 -0.0586
C14 C 0.02140(16) 0.39377(13) 0.17189(10)
C15 C 0.0195(2) 0.29271(14) 0.15422(13)
H7 H 0.0798 0.2666 0.1231
C16 C -0.0720(2) 0.22948(16) 0.18263(13)
H8 H -0.0732 0.1609 0.1704
C17 C -0.16034(19) 0.26676(16) 0.22825(11)
C18 C -0.15570(19) 0.36679(16) 0.24862(12)
H9 H -0.2135 0.3920 0.2816
C19 C -0.06536(18) 0.42976(15) 0.22023(12)
H10 H -0.0628 0.4979 0.2339
C20 C -0.2670(3) 0.1991(2) 0.25185(17)
C21 C 0.23480(17) 0.52649(13) 0.27624(10)
C22 C 0.1772(2) 0.59804(15) 0.31911(12)
H11 H 0.1317 0.6526 0.2943
C23 C 0.1865(2) 0.58948(17) 0.39825(13)
H12 H 0.1471 0.6382 0.4266
C24 C 0.2532(2) 0.50976(16) 0.43573(12)
C25 C 0.3109(2) 0.43785(17) 0.39376(13)
H13 H 0.3562 0.3834 0.4189
C26 C 0.3016(2) 0.44635(15) 0.31459(12)
H14 H 0.3410 0.3974 0.2864
C27 C 0.2618(4) 0.5018(3) 0.52180(16)
F7? F -0.2261(6) 0.0984(4) 0.2504(8)
F8? F -0.2968(12) 0.2144(11) 0.3171(4)
F9? F -0.3684(6) 0.1968(8) 0.2071(5)
F10? F 0.1463(10) 0.5286(12) 0.5490(4)
F11? F 0.3377(15) 0.5646(14) 0.5578(7)
F12? F 0.285(2) 0.4115(6) 0.5470(3)
loop_
_geom_bond_atom_site_label_1
_geom_bond_atom_site_label_2
_geom_bond_site_symmetry_1
_geom_bond_site_symmetry_2
O1 C1 1_555 1_555
O2 C1 1_555 1_555
O3 C1 1_555 1_555
F1 C20 1_555 1_555
F2 C20 1_555 1_555
F3 C20 1_555 1_555
F4 C27 1_555 1_555
F5 C27 1_555 1_555
F6 C27 1_555 1_555
C2 O2 1_555 1_555
C3 O3 1_555 1_555
C4 C3 1_555 1_555
C5 C2 1_555 1_555
C6 C5 1_555 1_555
H1 C6 1_555 1_555
C7 C6 1_555 1_555
C8 C7 1_555 1_555
C9 C4 1_555 1_555
H2 C9 1_555 1_555
C10 C7 1_555 1_555
H3 C10 1_555 1_555
C11 C10 1_555 1_555
H4 C11 1_555 1_555
C12 C11 1_555 1_555
H5 C12 1_555 1_555
C13 C8 1_555 1_555
H6 C13 1_555 1_555
C14 C3 1_555 1_555
C15 C14 1_555 1_555
H7 C15 1_555 1_555
C16 C15 1_555 1_555
H8 C16 1_555 1_555
C17 C16 1_555 1_555
C18 C17 1_555 1_555
H9 C18 1_555 1_555
C19 C14 1_555 1_555
H10 C19 1_555 1_555
C20 C17 1_555 1_555
C21 C2 1_555 1_555
C22 C21 1_555 1_555
H11 C22 1_555 1_555
C23 C22 1_555 1_555
H12 C23 1_555 1_555
C24 C23 1_555 1_555
C25 C24 1_555 1_555
H13 C25 1_555 1_555
C26 C21 1_555 1_555
H14 C26 1_555 1_555
C27 C24 1_555 1_555
C2 C3 1_555 1_555
C4 C5 1_555 1_555
C8 C9 1_555 1_555
C12 C13 1_555 1_555
C18 C19 1_555 1_555
C25 C26 1_555 1_555

#END
