
#######################################################################
#
#                 Cambridge Crystallographic Data Centre
#                                CCDC 
#
#######################################################################
#
# If this CIF has been generated from an entry in the Cambridge 
# Structural Database, then it will include bibliographic, chemical, 
# crystal, experimental, refinement or atomic coordinate data resulting 
# from the CCDC's data processing and validation procedures.
#
#######################################################################

data_ZIKNAI
_chemical_formula_moiety         'C19 H19 N5 O3'
_chemical_name_systematic        
'2-Azido-N,N-diphenylcarbamoyl proline methyl ester'
_symmetry_cell_setting           orthorhombic
_symmetry_space_group_name_H-M   'P 21 21 21'
_symmetry_Int_Tables_number      19
_space_group_name_Hall           'P 2ac 2ab'
loop_
_symmetry_equiv_pos_site_id
_symmetry_equiv_pos_as_xyz
1 x,y,z
2 1/2-x,-y,1/2+z
3 1/2+x,1/2-y,-z
4 -x,1/2+y,1/2-z
_cell_length_a                   9.253(2)
_cell_length_b                   12.558(2)
_cell_length_c                   15.862(8)
_cell_angle_alpha                90
_cell_angle_beta                 90
_cell_angle_gamma                90
_cell_volume                     1843.15
_exptl_crystal_colour            colorless
_cell_formula_units_Z            4
loop_
_atom_site_label
_atom_site_type_symbol
_atom_site_fract_x
_atom_site_fract_y
_atom_site_fract_z
N1 N 0.3676(9) 0.1755(7) 0.1906(5)
C1 C 0.4819(11) 0.1584(9) 0.2517(7)
C2 C 0.5663(13) 0.0646(9) 0.2184(7)
C3 C 0.5524(11) 0.0737(10) 0.1237(7)
C4 C 0.4009(11) 0.1195(9) 0.1092(6)
N2 N 0.4230(11) 0.1264(8) 0.3352(6)
N3 N 0.3918(11) 0.1936(9) 0.3876(7)
N4 N 0.358(2) 0.2478(12) 0.4426(7)
C5 C 0.5828(12) 0.2580(11) 0.2541(8)
O1 O 0.6082(9) 0.3076(7) 0.1944(5)
O2 O 0.6441(8) 0.2651(6) 0.3306(5)
C6 C 0.7598(10) 0.3426(10) 0.3337(8)
C7 C 0.2759(11) 0.2575(10) 0.2016(8)
O3 O 0.2895(7) 0.3216(6) 0.2577(5)
N5 N 0.1646(8) 0.2646(7) 0.1402(5)
C8 C 0.0955(7) 0.3647(4) 0.1276(4)
C9 C -0.0546(7) 0.3727(4) 0.1219(4)
C10 C -0.1188(7) 0.4711(4) 0.1056(4)
C11 C -0.0330(7) 0.5614(4) 0.0948(4)
C12 C 0.1170(7) 0.5534(4) 0.1004(4)
C13 C 0.1813(7) 0.4550(4) 0.1168(4)
C14 C 0.0903(6) 0.1718(4) 0.1135(4)
C15 C 0.0298(6) 0.1032(4) 0.1730(4)
C16 C -0.0433(6) 0.0119(4) 0.1467(4)
C17 C -0.0558(6) -0.0108(4) 0.0609(4)
C18 C 0.0048(6) 0.0578(4) 0.0015(4)
C19 C 0.0779(6) 0.1491(4) 0.0277(4)
H1 H 0.6653 0.0662 0.2364
H2 H 0.5238 -0.0016 0.2358
H3 H 0.6220 0.1243 0.1035
H4 H 0.5666 0.0071 0.0951
H5 H 0.3346 0.0619 0.0999
H6 H 0.3954 0.1682 0.0627
H7 H 0.7994 0.3443 0.3896
H8 H 0.7220 0.4116 0.3196
H9 H 0.8342 0.3237 0.2943
H10 H -0.1136 0.3106 0.1293
H11 H -0.2221 0.4766 0.1017
H12 H -0.0772 0.6291 0.0835
H13 H 0.1761 0.6155 0.0930
H14 H 0.2846 0.4495 0.1207
H15 H 0.0384 0.1189 0.2320
H16 H -0.0850 -0.0353 0.1876
H17 H -0.1061 -0.0737 0.0428
H18 H -0.0038 0.0421 -0.0576
H19 H 0.1196 0.1963 -0.0132
loop_
_geom_bond_atom_site_label_1
_geom_bond_atom_site_label_2
_geom_bond_site_symmetry_1
_geom_bond_site_symmetry_2
N1 C1 1_555 1_555
C1 C2 1_555 1_555
C2 C3 1_555 1_555
C3 C4 1_555 1_555
C4 N1 1_555 1_555
N2 C1 1_555 1_555
N3 N2 1_555 1_555
N4 N3 1_555 1_555
C5 C1 1_555 1_555
O1 C5 1_555 1_555
O2 C5 1_555 1_555
C6 O2 1_555 1_555
C7 N1 1_555 1_555
O3 C7 1_555 1_555
N5 C7 1_555 1_555
C8 N5 1_555 1_555
C9 C8 1_555 1_555
C10 C9 1_555 1_555
C11 C10 1_555 1_555
C12 C11 1_555 1_555
C13 C8 1_555 1_555
C14 N5 1_555 1_555
C15 C14 1_555 1_555
C16 C15 1_555 1_555
C17 C16 1_555 1_555
C18 C17 1_555 1_555
C19 C14 1_555 1_555
H1 C2 1_555 1_555
H2 C2 1_555 1_555
H3 C3 1_555 1_555
H4 C3 1_555 1_555
H5 C4 1_555 1_555
H6 C4 1_555 1_555
H7 C6 1_555 1_555
H8 C6 1_555 1_555
H9 C6 1_555 1_555
H10 C9 1_555 1_555
H11 C10 1_555 1_555
H12 C11 1_555 1_555
H13 C12 1_555 1_555
H14 C13 1_555 1_555
H15 C15 1_555 1_555
H16 C16 1_555 1_555
H17 C17 1_555 1_555
H18 C18 1_555 1_555
H19 C19 1_555 1_555
C12 C13 1_555 1_555
C18 C19 1_555 1_555

#END
