
#######################################################################
#
#                 Cambridge Crystallographic Data Centre
#                                CCDC 
#
#######################################################################
#
# If this CIF has been generated from an entry in the Cambridge 
# Structural Database, then it will include bibliographic, chemical, 
# crystal, experimental, refinement or atomic coordinate data resulting 
# from the CCDC's data processing and validation procedures.
#
#######################################################################

data_ZIKNEM
_chemical_formula_moiety         'C19 H19 N5 O3'
_chemical_name_systematic        
'cis-5-Azido-N,N-diphenylcarbamoyl proline methyl ester'
_symmetry_cell_setting           orthorhombic
_symmetry_space_group_name_H-M   'P 21 21 21'
_symmetry_Int_Tables_number      19
_space_group_name_Hall           'P 2ac 2ab'
loop_
_symmetry_equiv_pos_site_id
_symmetry_equiv_pos_as_xyz
1 x,y,z
2 1/2-x,-y,1/2+z
3 1/2+x,1/2-y,-z
4 -x,1/2+y,1/2-z
_cell_length_a                   8.379(3)
_cell_length_b                   13.183(8)
_cell_length_c                   16.294(7)
_cell_angle_alpha                90
_cell_angle_beta                 90
_cell_angle_gamma                90
_cell_volume                     1799.84
_exptl_crystal_colour            colorless
_cell_formula_units_Z            4
loop_
_atom_site_label
_atom_site_type_symbol
_atom_site_fract_x
_atom_site_fract_y
_atom_site_fract_z
N1 N 0.3686(2) 0.32449(12) 0.38493(8)
C1 C 0.2704(2) 0.2691(2) 0.44258(11)
C2 C 0.2200(3) 0.1779(2) 0.39224(12)
C3 C 0.1845(3) 0.2253(2) 0.30817(13)
C4 C 0.3026(2) 0.31539(14) 0.30181(10)
N2 N 0.1186(2) 0.3230(2) 0.46451(11)
N3 N 0.1278(2) 0.3938(2) 0.51245(12)
N4 N 0.1137(3) 0.4586(2) 0.5560(2)
C5 C 0.2210(2) 0.4127(2) 0.27586(11)
O1 O 0.2134(2) 0.48902(11) 0.31577(9)
O2 O 0.1579(2) 0.40167(11) 0.20154(8)
C6 C 0.0705(3) 0.4879(2) 0.17024(14)
C7 C 0.4660(2) 0.40020(14) 0.41463(10)
O3 O 0.4553(2) 0.42848(11) 0.48599(7)
N5 N 0.5788(2) 0.43949(13) 0.36185(9)
C8 C 0.6618(2) 0.5301(2) 0.38584(10)
C9 C 0.8271(2) 0.5286(2) 0.39175(12)
C10 C 0.9083(3) 0.6166(2) 0.41094(13)
C11 C 0.8262(3) 0.7058(2) 0.42482(12)
C12 C 0.6617(3) 0.7072(2) 0.41891(13)
C13 C 0.5789(3) 0.6195(2) 0.39949(12)
C14 C 0.6356(2) 0.38888(14) 0.28964(11)
C15 C 0.6247(3) 0.4381(2) 0.21487(11)
C16 C 0.6801(3) 0.3906(2) 0.14422(12)
C17 C 0.7450(3) 0.2948(2) 0.14863(12)
C18 C 0.7548(3) 0.2453(2) 0.22367(13)
C19 C 0.7019(3) 0.2924(2) 0.29472(11)
H1 H 0.331(2) 0.252(2) 0.4922(13)
H2 H 0.136(3) 0.146(2) 0.4157(14)
H3 H 0.312(3) 0.132(2) 0.3902(13)
H4 H 0.074(3) 0.251(2) 0.3068(13)
H5 H 0.199(3) 0.178(2) 0.2607(15)
H6 H 0.383(3) 0.298(2) 0.2625(11)
H7 H -0.021(4) 0.501(2) 0.207(2)
H8 H 0.028(4) 0.467(2) 0.114(2)
H9 H 0.139(3) 0.545(2) 0.1657(15)
H10 H 0.879(3) 0.466(2) 0.3811(12)
H11 H 1.016(3) 0.613(2) 0.417(2)
H12 H 0.884(3) 0.768(2) 0.437(2)
H13 H 0.606(3) 0.765(2) 0.4252(14)
H14 H 0.465(3) 0.620(2) 0.3969(14)
H15 H 0.584(3) 0.504(2) 0.2125(14)
H16 H 0.666(3) 0.425(2) 0.0912(14)
H17 H 0.780(3) 0.266(2) 0.0988(15)
H18 H 0.805(3) 0.180(2) 0.2243(14)
H19 H 0.711(3) 0.263(2) 0.351(2)
loop_
_geom_bond_atom_site_label_1
_geom_bond_atom_site_label_2
_geom_bond_site_symmetry_1
_geom_bond_site_symmetry_2
N1 C1 1_555 1_555
C1 C2 1_555 1_555
C2 C3 1_555 1_555
C3 C4 1_555 1_555
C4 N1 1_555 1_555
N2 C1 1_555 1_555
N3 N2 1_555 1_555
N4 N3 1_555 1_555
C5 C4 1_555 1_555
O1 C5 1_555 1_555
O2 C5 1_555 1_555
C6 O2 1_555 1_555
C7 N1 1_555 1_555
O3 C7 1_555 1_555
N5 C7 1_555 1_555
C8 N5 1_555 1_555
C9 C8 1_555 1_555
C10 C9 1_555 1_555
C11 C10 1_555 1_555
C12 C11 1_555 1_555
C13 C8 1_555 1_555
C14 N5 1_555 1_555
C15 C14 1_555 1_555
C16 C15 1_555 1_555
C17 C16 1_555 1_555
C18 C17 1_555 1_555
C19 C14 1_555 1_555
H1 C1 1_555 1_555
H2 C2 1_555 1_555
H3 C2 1_555 1_555
H4 C3 1_555 1_555
H5 C3 1_555 1_555
H6 C4 1_555 1_555
H7 C6 1_555 1_555
H8 C6 1_555 1_555
H9 C6 1_555 1_555
H10 C9 1_555 1_555
H11 C10 1_555 1_555
H12 C11 1_555 1_555
H13 C12 1_555 1_555
H14 C13 1_555 1_555
H15 C15 1_555 1_555
H16 C16 1_555 1_555
H17 C17 1_555 1_555
H18 C18 1_555 1_555
H19 C19 1_555 1_555
C12 C13 1_555 1_555
C18 C19 1_555 1_555

#END
