
#######################################################################
#
#                 Cambridge Crystallographic Data Centre
#                                CCDC 
#
#######################################################################
#
# If this CIF has been generated from an entry in the Cambridge 
# Structural Database, then it will include bibliographic, chemical, 
# crystal, experimental, refinement or atomic coordinate data resulting 
# from the CCDC's data processing and validation procedures.
#
#######################################################################

data_ZIKTES
_chemical_formula_moiety         'C7 H4 N2 O2 S2'
_chemical_name_systematic        '2-Nitrobenzenesulfenyl thiocyanate'
_symmetry_cell_setting           triclinic
_symmetry_space_group_name_H-M   'P -1'
_symmetry_Int_Tables_number      2
_space_group_name_Hall           '-P 1'
loop_
_symmetry_equiv_pos_site_id
_symmetry_equiv_pos_as_xyz
1 x,y,z
2 -x,-y,-z
_cell_length_a                   7.774(16)
_cell_length_b                   7.973(12)
_cell_length_c                   8.053(17)
_cell_angle_alpha                94.28(15)
_cell_angle_beta                 109.45(19)
_cell_angle_gamma                105.67(13)
_cell_volume                     445.657
_exptl_crystal_colour            yellow
_chemical_melting_point          363-364K
_cell_formula_units_Z            2
loop_
_atom_site_label
_atom_site_type_symbol
_atom_site_fract_x
_atom_site_fract_y
_atom_site_fract_z
S1 S 0.4122(4) 0.8415(3) 0.1496(3)
S2 S 0.6223(4) 0.8107(4) 0.3704(4)
O1 O 0.1709(10) 0.8862(9) -0.1258(9)
O2 O -0.0423(12) 0.7027(11) -0.3606(10)
N1 N 0.0865(11) 0.7359(11) -0.2140(10)
N2 N 0.4227(15) 0.7338(12) 0.6082(12)
C1 C 0.3248(14) 0.4720(11) 0.0925(13)
C2 C 0.2257(16) 0.3082(13) -0.0068(15)
C3 C 0.0847(16) 0.2801(14) -0.1690(15)
C4 C 0.0383(14) 0.4224(13) -0.2382(13)
C5 C 0.1406(12) 0.5878(11) -0.1382(11)
C6 C 0.2872(12) 0.6198(11) 0.0278(11)
C7 C 0.5007(15) 0.7626(12) 0.5107(13)
H1 H 0.4207 0.4858 0.2072
H2 H 0.2563 0.2092 0.0391
H3 H 0.0179 0.1631 -0.2351
H4 H 0.0612 0.4059 -0.3512
loop_
_geom_bond_atom_site_label_1
_geom_bond_atom_site_label_2
_geom_bond_site_symmetry_1
_geom_bond_site_symmetry_2
S1 S2 1_555 1_555
S2 C7 1_555 1_555
O1 N1 1_555 1_555
O2 N1 1_555 1_555
N1 C5 1_555 1_555
N2 C7 1_555 1_555
C1 C2 1_555 1_555
C2 C3 1_555 1_555
C3 C4 1_555 1_555
C4 C5 1_555 1_555
C5 C6 1_555 1_555
C6 S1 1_555 1_555
H1 C1 1_555 1_555
H2 C2 1_555 1_555
H3 C3 1_555 1_555
H4 C4 1_555 1_555
C1 C6 1_555 1_555

#END
