
#######################################################################
#
#                 Cambridge Crystallographic Data Centre
#                                CCDC 
#
#######################################################################
#
# If this CIF has been generated from an entry in the Cambridge 
# Structural Database, then it will include bibliographic, chemical, 
# crystal, experimental, refinement or atomic coordinate data resulting 
# from the CCDC's data processing and validation procedures.
#
#######################################################################

data_ZIKTIY
_chemical_formula_moiety         'C20 H16 F3 N3 O2,H2 O1'
_chemical_name_systematic        
'2-Butyl-6-(3-(trifluoromethyl)-1H-pyrazol-5-yl)-1H-benzo[de]isoquinoline-1,3(2H)-dione monohydrate'
_symmetry_cell_setting           monoclinic
_symmetry_space_group_name_H-M   'C 2/c'
_symmetry_Int_Tables_number      15
_space_group_name_Hall           '-C 2yn'
loop_
_symmetry_equiv_pos_site_id
_symmetry_equiv_pos_as_xyz
1 x,y,z
2 -x,y,1/2-z
3 1/2+x,1/2+y,z
4 1/2-x,1/2+y,1/2-z
5 -x,-y,-z
6 x,-y,1/2+z
7 1/2-x,1/2-y,-z
8 1/2+x,1/2-y,1/2+z
_cell_length_a                   27.371(2)
_cell_length_b                   7.0453(6)
_cell_length_c                   18.8951(14)
_cell_angle_alpha                90
_cell_angle_beta                 99.010(7)
_cell_angle_gamma                90
_cell_volume                     3598.71
_cell_formula_units_Z            8
loop_
_atom_site_label
_atom_site_type_symbol
_atom_site_fract_x
_atom_site_fract_y
_atom_site_fract_z
C1 C 0.30917(10) 0.5279(4) 0.42576(15)
C2 C 0.27302(10) 0.5141(4) 0.47575(14)
C3 C 0.28821(9) 0.5523(4) 0.54683(14)
H1 H 0.3216 0.5874 0.5632
C4 C 0.25461(9) 0.5398(4) 0.59554(14)
H2 H 0.2655 0.5645 0.6449
C5 C 0.20637(10) 0.4923(4) 0.57255(14)
H3 H 0.1842 0.4848 0.6064
C6 C 0.18861(9) 0.4540(4) 0.49961(14)
C7 C 0.13881(9) 0.4028(4) 0.47180(15)
C8 C 0.12622(10) 0.3569(4) 0.40054(15)
H4 H 0.0935 0.3157 0.3831
C9 C 0.16064(10) 0.3696(4) 0.35299(15)
H5 H 0.1508 0.3406 0.3037
C10 C 0.20839(10) 0.4237(4) 0.37751(14)
C11 C 0.24368(10) 0.4404(4) 0.32569(15)
C12 C 0.22348(9) 0.4638(4) 0.45060(14)
C13 C 0.32717(9) 0.5149(4) 0.30191(13)
H6 H 0.3535 0.6056 0.3215
H7 H 0.3095 0.5686 0.2566
C14 C 0.35070(10) 0.3282(4) 0.28610(14)
H8 H 0.3244 0.2337 0.2709
H9 H 0.3711 0.2806 0.3304
C15 C 0.38324(10) 0.3478(4) 0.22718(14)
H10 H 0.3933 0.2196 0.2137
H11 H 0.3633 0.4055 0.1843
C16 C 0.42921(10) 0.4670(4) 0.24899(15)
H12 H 0.4196 0.5956 0.2610
H13 H 0.4483 0.4728 0.2092
H14 H 0.4495 0.4098 0.2909
C17 C 0.10031(10) 0.4052(4) 0.51873(14)
C18 C 0.08932(9) 0.5320(4) 0.56882(13)
H15 H 0.1068 0.6446 0.5846
C19 C 0.04713(10) 0.4604(4) 0.59152(14)
C20 C 0.02039(11) 0.5376(5) 0.64690(16)
N1 N 0.29217(8) 0.4943(3) 0.35339(11)
N2 N 0.06504(8) 0.2671(4) 0.51357(13)
N3 N 0.03172(8) 0.2979(3) 0.55859(12)
O1 O 0.35265(6) 0.5698(3) 0.44528(9)
O2 O 0.23196(6) 0.4088(3) 0.26155(10)
F1 F 0.00419(6) 0.7159(3) 0.63248(9)
F2 F -0.01911(6) 0.4340(3) 0.65584(9)
F3 F 0.04948(6) 0.5474(3) 0.71124(8)
H16 H 0.0632(10) 0.154(4) 0.4873(15)
O3 O 0.44058(11) 0.5758(4) 0.55606(13)
H17 H 0.4721(15) 0.643(6) 0.559(2)
H18 H 0.4208(15) 0.636(6) 0.534(2)
loop_
_geom_bond_atom_site_label_1
_geom_bond_atom_site_label_2
_geom_bond_site_symmetry_1
_geom_bond_site_symmetry_2
C1 C2 1_555 1_555
C2 C3 1_555 1_555
C3 H1 1_555 1_555
C4 C3 1_555 1_555
H2 C4 1_555 1_555
C5 C4 1_555 1_555
H3 C5 1_555 1_555
C6 C5 1_555 1_555
C7 C6 1_555 1_555
C8 C7 1_555 1_555
H4 C8 1_555 1_555
C9 C8 1_555 1_555
H5 C9 1_555 1_555
C10 C9 1_555 1_555
C11 C10 1_555 1_555
C12 C2 1_555 1_555
C13 H6 1_555 1_555
H7 C13 1_555 1_555
C14 C13 1_555 1_555
H8 C14 1_555 1_555
H9 C14 1_555 1_555
C15 C14 1_555 1_555
H10 C15 1_555 1_555
H11 C15 1_555 1_555
C16 C15 1_555 1_555
H12 C16 1_555 1_555
H13 C16 1_555 1_555
H14 C16 1_555 1_555
C17 C7 1_555 1_555
C18 C17 1_555 1_555
H15 C18 1_555 1_555
C19 C18 1_555 1_555
C20 C19 1_555 1_555
N1 C1 1_555 1_555
N2 C17 1_555 1_555
N3 C19 1_555 1_555
O1 C1 1_555 1_555
O2 C11 1_555 1_555
F1 C20 1_555 1_555
F2 C20 1_555 1_555
F3 C20 1_555 1_555
H16 N2 1_555 1_555
O3 H17 1_555 1_555
H18 O3 1_555 1_555
C6 C12 1_555 1_555
C10 C12 1_555 1_555
C11 N1 1_555 1_555
C13 N1 1_555 1_555
N2 N3 1_555 1_555

#END
