
#######################################################################
#
#                 Cambridge Crystallographic Data Centre
#                                CCDC 
#
#######################################################################
#
# If this CIF has been generated from an entry in the Cambridge 
# Structural Database, then it will include bibliographic, chemical, 
# crystal, experimental, refinement or atomic coordinate data resulting 
# from the CCDC's data processing and validation procedures.
#
#######################################################################

data_ZIKXOJ
_chemical_name_common            
1-(3-methoxybenzoyl)-3-(2,3-difluorophenyl)thiourea
_chemical_formula_moiety         'C15 H12 F2 N2 O2 S1'
_chemical_name_systematic        
N-[(2,3-difluorophenyl)carbamothioyl]-3-methoxybenzamide
_symmetry_cell_setting           monoclinic
_symmetry_space_group_name_H-M   'P 21/c'
_symmetry_Int_Tables_number      14
_space_group_name_Hall           '-P 2ybc'
loop_
_symmetry_equiv_pos_site_id
_symmetry_equiv_pos_as_xyz
1 x,y,z
2 -x,1/2+y,1/2-z
3 -x,-y,-z
4 x,1/2-y,1/2+z
_cell_length_a                   3.964(5)
_cell_length_b                   15.092(19)
_cell_length_c                   23.90(3)
_cell_angle_alpha                90
_cell_angle_beta                 98.20(3)
_cell_angle_gamma                90
_cell_volume                     1415.19
_exptl_crystal_colour            colorless
_exptl_crystal_description       needle
_cell_formula_units_Z            4
loop_
_atom_site_label
_atom_site_type_symbol
_atom_site_fract_x
_atom_site_fract_y
_atom_site_fract_z
S1 S 0.2796(5) -0.07859(10) 0.05505(7)
F1 F -0.0212(15) 0.0739(3) 0.23935(16)
F2 F -0.1978(16) -0.0333(3) 0.31867(18)
N1 N 0.3420(15) 0.0932(3) 0.0692(2)
H1 H 0.3911 0.0907 0.0353
N2 N 0.1635(15) 0.0201(3) 0.1442(2)
H2 H 0.1589 0.0733 0.1568
O1 O 0.2992(15) 0.1890(3) 0.14125(19)
O2 O 0.4019(15) 0.3117(3) -0.0892(2)
C1 C -0.019(2) -0.0139(5) 0.2311(3)
C2 C -0.108(2) -0.0692(5) 0.2706(3)
C3 C -0.111(2) -0.1583(5) 0.2642(3)
H3 H -0.1771 -0.1956 0.2917
C4 C -0.011(2) -0.1916(5) 0.2154(3)
H4 H -0.0015 -0.2526 0.2104
C5 C 0.075(2) -0.1363(4) 0.1740(3)
H5 H 0.1357 -0.1602 0.1410
C6 C 0.072(2) -0.0466(4) 0.1809(3)
C7 C 0.2575(18) 0.0121(4) 0.0919(2)
C8 C 0.358(2) 0.1762(4) 0.0930(3)
C9 C 0.4618(19) 0.2497(4) 0.0575(3)
C10 C 0.6338(19) 0.3202(4) 0.0851(3)
H6 H 0.6784 0.3212 0.1244
C11 C 0.739(2) 0.3889(4) 0.0541(3)
H7 H 0.8585 0.4361 0.0723
C12 C 0.666(2) 0.3880(4) -0.0047(3)
H8 H 0.7350 0.4348 -0.0256
C13 C 0.4936(19) 0.3189(4) -0.0314(3)
C14 C 0.3886(18) 0.2489(4) -0.0007(3)
H9 H 0.2698 0.2017 -0.0192
C15 C 0.542(2) 0.3741(5) -0.1232(3)
H10 H 0.4603 0.3625 -0.1623
H11 H 0.4749 0.4327 -0.1136
H12 H 0.7860 0.3696 -0.1168
loop_
_geom_bond_atom_site_label_1
_geom_bond_atom_site_label_2
_geom_bond_site_symmetry_1
_geom_bond_site_symmetry_2
S1 C7 1_555 1_555
F1 C1 1_555 1_555
F2 C2 1_555 1_555
N1 H1 1_555 1_555
N2 H2 1_555 1_555
O1 C8 1_555 1_555
O2 C13 1_555 1_555
C1 C2 1_555 1_555
C2 C3 1_555 1_555
C3 H3 1_555 1_555
C4 C3 1_555 1_555
H4 C4 1_555 1_555
C5 C4 1_555 1_555
H5 C5 1_555 1_555
C6 N2 1_555 1_555
C7 N1 1_555 1_555
C8 N1 1_555 1_555
C9 C8 1_555 1_555
C10 C9 1_555 1_555
H6 C10 1_555 1_555
C11 C10 1_555 1_555
H7 C11 1_555 1_555
C12 C11 1_555 1_555
H8 C12 1_555 1_555
C13 C12 1_555 1_555
C14 C9 1_555 1_555
H9 C14 1_555 1_555
C15 O2 1_555 1_555
H10 C15 1_555 1_555
H11 C15 1_555 1_555
H12 C15 1_555 1_555
N2 C7 1_555 1_555
C1 C6 1_555 1_555
C5 C6 1_555 1_555
C13 C14 1_555 1_555

#END
