
#######################################################################
#
#                 Cambridge Crystallographic Data Centre
#                                CCDC 
#
#######################################################################
#
# If this CIF has been generated from an entry in the Cambridge 
# Structural Database, then it will include bibliographic, chemical, 
# crystal, experimental, refinement or atomic coordinate data resulting 
# from the CCDC's data processing and validation procedures.
#
#######################################################################

data_ZILDUT
_chemical_compound_source        'Roots of Stauranthus perforatus'
_chemical_name_common            Xanthyletin
_chemical_formula_moiety         'C14 H12 O3'
_chemical_name_systematic        
8,8-Dimethyl-2H,8H-benzo(1,2-b:5,4-b')dipyran-2-one
_chemical_properties_biological  'folk medical agent in treatment of rheumatism'
_symmetry_cell_setting           monoclinic
_symmetry_space_group_name_H-M   'P 21/c'
_symmetry_Int_Tables_number      14
_space_group_name_Hall           '-P 2ybc'
loop_
_symmetry_equiv_pos_site_id
_symmetry_equiv_pos_as_xyz
1 x,y,z
2 -x,1/2+y,1/2-z
3 -x,-y,-z
4 x,1/2-y,1/2+z
_cell_length_a                   8.830(1)
_cell_length_b                   11.658(2)
_cell_length_c                   11.492(2)
_cell_angle_alpha                90
_cell_angle_beta                 104.25(1)
_cell_angle_gamma                90
_cell_volume                     1146.59
_exptl_crystal_colour            colorless
_chemical_melting_point          130-131deg.C
_cell_formula_units_Z            4
loop_
_atom_site_label
_atom_site_type_symbol
_atom_site_fract_x
_atom_site_fract_y
_atom_site_fract_z
C1 C -0.0350(2) 0.2841(2) 0.2747(2)
C2 C -0.0234(2) 0.4056(2) 0.2618(2)
C3 C 0.0559(2) 0.4524(2) 0.1888(2)
C4 C 0.1361(2) 0.3811(2) 0.1218(2)
C5 C 0.2252(2) 0.4223(2) 0.0451(2)
C6 C 0.3077(2) 0.3499(2) -0.0112(2)
C7 C 0.4013(3) 0.3866(2) -0.0928(2)
C8 C 0.4972(3) 0.3142(2) -0.1258(2)
C9 C 0.5192(2) 0.1947(2) -0.0775(2)
C10 C 0.3000(2) 0.2317(2) 0.0095(2)
C11 C 0.2094(2) 0.1877(2) 0.0812(2)
C12 C 0.1299(2) 0.2632(2) 0.1369(2)
C13 C 0.6517(3) 0.1893(3) 0.0347(2)
C14 C 0.5421(3) 0.1092(2) -0.1705(2)
O1 O 0.0444(1) 0.2163(1) 0.2107(1)
O2 O 0.3760(2) 0.1552(1) -0.0460(1)
O3 O -0.1080(2) 0.2337(1) 0.3355(1)
H1 H -0.0767(25) 0.4502(21) 0.3133(19)
H2 H 0.0659(23) 0.5322(22) 0.1787(19)
H3 H 0.2305(21) 0.5055(19) 0.0340(16)
H4 H 0.3869(26) 0.4620(21) -0.1188(20)
H5 H 0.5582(24) 0.3355(19) -0.1779(19)
H6 H 0.2057(19) 0.1050(18) 0.0931(15)
H7 H 0.7511(30) 0.2115(22) 0.0156(22)
H8 H 0.6624(27) 0.1088(23) 0.0686(21)
H9 H 0.6314(28) 0.2407(21) 0.0953(22)
H10 H 0.5468(26) 0.0322(21) -0.1365(21)
H11 H 0.6390(26) 0.1299(18) -0.1941(18)
H12 H 0.4513(28) 0.1112(21) -0.2426(22)
loop_
_geom_bond_atom_site_label_1
_geom_bond_atom_site_label_2
_geom_bond_site_symmetry_1
_geom_bond_site_symmetry_2
C1 C2 1_555 1_555
C2 C3 1_555 1_555
C3 C4 1_555 1_555
C4 C5 1_555 1_555
C5 C6 1_555 1_555
C6 C7 1_555 1_555
C7 C8 1_555 1_555
C8 C9 1_555 1_555
C9 C13 1_555 1_555
C10 C6 1_555 1_555
C11 C10 1_555 1_555
C12 C4 1_555 1_555
C13 H7 1_555 1_555
C14 C9 1_555 1_555
O1 C1 1_555 1_555
O2 C9 1_555 1_555
O3 C1 1_555 1_555
H1 C2 1_555 1_555
H2 C3 1_555 1_555
H3 C5 1_555 1_555
H4 C7 1_555 1_555
H5 C8 1_555 1_555
H6 C11 1_555 1_555
H8 C13 1_555 1_555
H9 C13 1_555 1_555
H10 C14 1_555 1_555
H11 C14 1_555 1_555
H12 C14 1_555 1_555
C10 O2 1_555 1_555
C11 C12 1_555 1_555
C12 O1 1_555 1_555

#END
