
#######################################################################
#
#                 Cambridge Crystallographic Data Centre
#                                CCDC 
#
#######################################################################
#
# If this CIF has been generated from an entry in the Cambridge 
# Structural Database, then it will include bibliographic, chemical, 
# crystal, experimental, refinement or atomic coordinate data resulting 
# from the CCDC's data processing and validation procedures.
#
#######################################################################

data_ZILGAE
_chemical_formula_moiety         'C20 H14 Cl1 N1 O6'
_chemical_name_systematic        
4'-(2-Chlorophenyl)-5'-methyl-3'-nitro-4',5'-dihydrospiro[indene-2,2'-pyran]-1,3,6'(3'H)-trione
_symmetry_cell_setting           orthorhombic
_symmetry_space_group_name_H-M   'P 21 21 21'
_symmetry_Int_Tables_number      19
_space_group_name_Hall           'P 2ac 2ab'
loop_
_symmetry_equiv_pos_site_id
_symmetry_equiv_pos_as_xyz
1 x,y,z
2 1/2-x,-y,1/2+z
3 -x,1/2+y,1/2-z
4 1/2+x,1/2-y,-z
_cell_length_a                   8.1843(16)
_cell_length_b                   10.679(2)
_cell_length_c                   21.790(4)
_cell_angle_alpha                90
_cell_angle_beta                 90
_cell_angle_gamma                90
_cell_volume                     1904.45
_exptl_crystal_colour            colorless
_exptl_crystal_description       Block
_cell_formula_units_Z            4
loop_
_atom_site_label
_atom_site_type_symbol
_atom_site_fract_x
_atom_site_fract_y
_atom_site_fract_z
Cl1 Cl 0.32592(4) 0.71420(3) 0.37232(2)
O1 O 0.34463(12) 0.21283(9) 0.46292(4)
O2 O 0.29594(13) 0.29531(11) 0.55340(5)
O3 O 0.09356(12) 0.36993(10) 0.41108(5)
O4 O 0.47051(13) 0.04965(10) 0.36362(6)
O5 O 0.34163(14) 0.40895(12) 0.29370(5)
O6 O 0.57565(14) 0.32005(14) 0.28214(5)
N1 N 0.46267(13) 0.35647(11) 0.31373(5)
C1 C 0.15919(15) 0.28364(12) 0.38497(6)
C2 C 0.08806(15) 0.19521(13) 0.34076(6)
C3 C -0.06705(17) 0.19801(14) 0.31459(6)
H1 H -0.1405 0.2649 0.3227
C4 C -0.11074(18) 0.10054(16) 0.27644(7)
H2 H -0.2161 0.1000 0.2581
C5 C -0.0019(2) 0.00229(16) 0.26435(7)
H3 H -0.0347 -0.0634 0.2377
C6 C 0.1523(2) -0.00133(14) 0.29032(7)
H4 H 0.2255 -0.0683 0.2821
C7 C 0.19590(16) 0.09681(13) 0.32887(6)
C8 C 0.35065(17) 0.11484(12) 0.36310(7)
C9 C 0.33597(16) 0.24000(12) 0.39873(6)
C10 C 0.47087(15) 0.33278(12) 0.38171(6)
H5 H 0.5794 0.2953 0.3920
C11 C 0.45010(15) 0.45541(12) 0.41722(6)
H6 H 0.3389 0.4896 0.4082
C12 C 0.45871(18) 0.42334(13) 0.48642(6)
H7 H 0.5748 0.4007 0.4955
C13 C 0.35532(16) 0.31099(13) 0.50381(6)
C14 C 0.57603(16) 0.55238(13) 0.39812(6)
C15 C 0.74302(17) 0.52598(14) 0.40153(7)
H8 H 0.7775 0.4471 0.4170
C16 C 0.85944(19) 0.61193(14) 0.38284(8)
H9 H 0.9723 0.5919 0.3855
C17 C 0.8107(2) 0.72730(14) 0.36024(8)
H10 H 0.8904 0.7860 0.3470
C18 C 0.6463(2) 0.75758(14) 0.35683(7)
H11 H 0.6126 0.8368 0.3415
C19 C 0.53156(17) 0.67021(13) 0.37615(7)
C20 C 0.4171(3) 0.53528(17) 0.52656(8)
H12 H 0.3046 0.5619 0.5184
H13 H 0.4922 0.6043 0.5174
H14 H 0.4278 0.5118 0.5699
loop_
_geom_bond_atom_site_label_1
_geom_bond_atom_site_label_2
_geom_bond_site_symmetry_1
_geom_bond_site_symmetry_2
Cl1 C19 1_555 1_555
O1 C9 1_555 1_555
O2 C13 1_555 1_555
O3 C1 1_555 1_555
O4 C8 1_555 1_555
O5 N1 1_555 1_555
O6 N1 1_555 1_555
N1 C10 1_555 1_555
C1 C2 1_555 1_555
C2 C3 1_555 1_555
C3 H1 1_555 1_555
C4 C3 1_555 1_555
H2 C4 1_555 1_555
C5 C4 1_555 1_555
H3 C5 1_555 1_555
C6 C5 1_555 1_555
H4 C6 1_555 1_555
C7 C2 1_555 1_555
C8 C7 1_555 1_555
C9 C1 1_555 1_555
C10 C9 1_555 1_555
H5 C10 1_555 1_555
C11 C10 1_555 1_555
H6 C11 1_555 1_555
C12 C11 1_555 1_555
H7 C12 1_555 1_555
C13 O1 1_555 1_555
C14 C11 1_555 1_555
C15 C14 1_555 1_555
H8 C15 1_555 1_555
C16 C15 1_555 1_555
H9 C16 1_555 1_555
C17 C16 1_555 1_555
H10 C17 1_555 1_555
C18 C17 1_555 1_555
H11 C18 1_555 1_555
C19 C14 1_555 1_555
C20 C12 1_555 1_555
H12 C20 1_555 1_555
H13 C20 1_555 1_555
H14 C20 1_555 1_555
C6 C7 1_555 1_555
C8 C9 1_555 1_555
C12 C13 1_555 1_555
C18 C19 1_555 1_555

#END
