
#######################################################################
#
#                 Cambridge Crystallographic Data Centre
#                                CCDC 
#
#######################################################################
#
# If this CIF has been generated from an entry in the Cambridge 
# Structural Database, then it will include bibliographic, chemical, 
# crystal, experimental, refinement or atomic coordinate data resulting 
# from the CCDC's data processing and validation procedures.
#
#######################################################################

data_ZILHOT
_chemical_formula_moiety         'C16 H13 N1 O2'
_chemical_name_systematic        
3-(4-Methoxybenzylidene)-1,3-dihydro-2H-indol-2-one
_symmetry_cell_setting           triclinic
_symmetry_space_group_name_H-M   'P -1'
_symmetry_Int_Tables_number      2
_space_group_name_Hall           '-P 1'
loop_
_symmetry_equiv_pos_site_id
_symmetry_equiv_pos_as_xyz
1 x,y,z
2 -x,-y,-z
_cell_length_a                   4.1302(2)
_cell_length_b                   12.9513(9)
_cell_length_c                   13.0829(9)
_cell_angle_alpha                62.708(3)
_cell_angle_beta                 86.495(4)
_cell_angle_gamma                86.546(4)
_cell_volume                     620.347
_exptl_crystal_colour            yellow
_exptl_crystal_description       plate
_cell_formula_units_Z            2
loop_
_atom_site_label
_atom_site_type_symbol
_atom_site_fract_x
_atom_site_fract_y
_atom_site_fract_z
C1 C -0.2601(8) 0.4371(3) 0.3998(3)
C2 C -0.0776(7) 0.3595(3) 0.3567(3)
C3 C 0.0744(7) 0.2665(3) 0.4578(3)
C4 C 0.2812(7) 0.1712(3) 0.4773(3)
H1 H 0.3467 0.1541 0.4157
C5 C 0.3916(8) 0.1012(3) 0.5867(3)
H2 H 0.5314 0.0356 0.6000
C6 C 0.3000(8) 0.1259(3) 0.6770(3)
H3 H 0.3761 0.0764 0.7517
C7 C 0.0984(8) 0.2218(3) 0.6601(3)
H4 H 0.0395 0.2399 0.7216
C8 C -0.0126(7) 0.2896(3) 0.5516(3)
C9 C -0.0705(8) 0.3881(3) 0.2445(3)
H5 H -0.1669 0.4617 0.1955
C10 C 0.0692(7) 0.3191(3) 0.1878(3)
C11 C 0.0231(8) 0.1996(3) 0.2343(3)
H6 H -0.0976 0.1611 0.3050
C12 C 0.1502(8) 0.1371(3) 0.1790(3)
H7 H 0.1158 0.0562 0.2114
C13 C 0.3274(8) 0.1918(3) 0.0767(3)
C14 C 0.3686(8) 0.3097(3) 0.0270(3)
H8 H 0.4853 0.3478 -0.0446
C15 C 0.2367(8) 0.3722(3) 0.0831(3)
H9 H 0.2626 0.4538 0.0483
C16 C 0.6325(9) 0.1717(4) -0.0760(3)
H10 H 0.5014 0.2336 -0.1348
H11 H 0.6962 0.1124 -0.1009
H12 H 0.8273 0.2045 -0.0650
N1 N -0.2123(6) 0.3895(2) 0.5148(2)
H13 H -0.2971 0.4183 0.5601
O1 O -0.4289(6) 0.5251(2) 0.3436(2)
O2 O 0.4465(6) 0.1201(2) 0.0300(2)
loop_
_geom_bond_atom_site_label_1
_geom_bond_atom_site_label_2
_geom_bond_site_symmetry_1
_geom_bond_site_symmetry_2
C1 C2 1_555 1_555
C2 C3 1_555 1_555
C3 C4 1_555 1_555
C4 H1 1_555 1_555
C5 C4 1_555 1_555
H2 C5 1_555 1_555
C6 C5 1_555 1_555
H3 C6 1_555 1_555
C7 C6 1_555 1_555
H4 C7 1_555 1_555
C8 C3 1_555 1_555
C9 C2 1_555 1_555
H5 C9 1_555 1_555
C10 C9 1_555 1_555
C11 C10 1_555 1_555
H6 C11 1_555 1_555
C12 C11 1_555 1_555
H7 C12 1_555 1_555
C13 C12 1_555 1_555
C14 C13 1_555 1_555
H8 C14 1_555 1_555
C15 C10 1_555 1_555
H9 C15 1_555 1_555
C16 H10 1_555 1_555
H11 C16 1_555 1_555
H12 C16 1_555 1_555
N1 C1 1_555 1_555
H13 N1 1_555 1_555
O1 C1 1_555 1_555
O2 C13 1_555 1_555
C7 C8 1_555 1_555
C8 N1 1_555 1_555
C14 C15 1_555 1_555
C16 O2 1_555 1_555

#END
