
#######################################################################
#
#                 Cambridge Crystallographic Data Centre
#                                CCDC 
#
#######################################################################
#
# If this CIF has been generated from an entry in the Cambridge 
# Structural Database, then it will include bibliographic, chemical, 
# crystal, experimental, refinement or atomic coordinate data resulting 
# from the CCDC's data processing and validation procedures.
#
#######################################################################

data_ZILJUB
_chemical_formula_moiety         'C19 H18 N2 O3'
_chemical_name_systematic        
(6aS,7aR,14aR)-2-Nitro-6a,7,7a,12,13,14a-hexahydro-6H-chromeno[3',4':4,5]pyrrolo[2,1-a]isoquinoline
_symmetry_cell_setting           monoclinic
_symmetry_space_group_name_H-M   'P 21/c'
_symmetry_Int_Tables_number      14
_space_group_name_Hall           '-P 2ybc'
loop_
_symmetry_equiv_pos_site_id
_symmetry_equiv_pos_as_xyz
1 x,y,z
2 -x,1/2+y,1/2-z
3 -x,-y,-z
4 x,1/2-y,1/2+z
_cell_length_a                   13.9267(6)
_cell_length_b                   8.4827(3)
_cell_length_c                   13.6567(5)
_cell_angle_alpha                90
_cell_angle_beta                 103.560(4)
_cell_angle_gamma                90
_cell_volume                     1568.38
_exptl_crystal_colour            yellow
_exptl_crystal_description       block
_cell_formula_units_Z            4
loop_
_atom_site_label
_atom_site_type_symbol
_atom_site_fract_x
_atom_site_fract_y
_atom_site_fract_z
N1 N 0.09026(16) 1.2342(3) 0.0678(2)
O1 O 0.10574(18) 1.2084(3) 0.1586(2)
O2 O 0.05816(18) 1.3603(2) 0.0295(2)
C1 C 0.14632(17) 0.9683(3) 0.0427(2)
C2 C 0.10711(17) 1.1087(3) 0.0006(2)
C3 C 0.0827(2) 1.1308(4) -0.1028(2)
C4 C 0.0974(2) 1.0107(4) -0.1636(2)
C5 C 0.13414(18) 0.8665(3) -0.12244(19)
O3 O 0.14477(15) 0.7526(2) -0.18904(13)
C6 C 0.1546(3) 0.5942(4) -0.1490(2)
C7 C 0.23091(19) 0.5831(3) -0.0521(2)
C8 C 0.3365(2) 0.6290(4) -0.0558(2)
C9 C 0.36889(17) 0.7508(3) 0.03017(17)
C10 C 0.47644(17) 0.7470(3) 0.08225(18)
C11 C 0.54561(19) 0.8043(3) 0.0322(2)
C12 C 0.6447(2) 0.8051(3) 0.0777(3)
C13 C 0.6769(2) 0.7487(4) 0.1743(3)
C14 C 0.6095(2) 0.6904(4) 0.2238(2)
C15 C 0.50862(19) 0.6893(3) 0.17945(18)
C16 C 0.4343(2) 0.6331(4) 0.2353(2)
C17 C 0.3362(2) 0.5943(3) 0.1668(2)
N2 N 0.30219(14) 0.7280(2) 0.09876(14)
C18 C 0.20723(18) 0.6928(3) 0.02884(18)
C19 C 0.16067(16) 0.8448(3) -0.01849(17)
H1 H 0.1659(17) 0.959(3) 0.1215(18)
H2 H 0.055(2) 1.229(4) -0.125(2)
H3 H 0.084(2) 1.021(3) -0.238(2)
H4 H 0.2304(19) 0.474(3) -0.0262(19)
H5 H 0.171(2) 0.531(4) -0.205(2)
H6 H 0.087(2) 0.563(3) -0.144(2)
H7 H 0.3553(17) 0.855(3) 0.0012(17)
H8 H 0.3374(19) 0.672(3) -0.118(2)
H9 H 0.385(2) 0.536(3) -0.046(2)
H10 H 0.5222(18) 0.844(3) -0.0364(19)
H11 H 0.692(2) 0.843(3) 0.039(2)
H12 H 0.747(2) 0.750(3) 0.208(2)
H13 H 0.627(2) 0.651(4) 0.287(2)
H14 H 0.3457(18) 0.496(3) 0.1281(19)
H15 H 0.459(2) 0.543(3) 0.279(2)
H16 H 0.427(2) 0.713(4) 0.285(2)
H17 H 0.284(2) 0.578(3) 0.2067(19)
H18 H 0.1633(16) 0.643(2) 0.0667(15)
loop_
_geom_bond_atom_site_label_1
_geom_bond_atom_site_label_2
_geom_bond_site_symmetry_1
_geom_bond_site_symmetry_2
N1 O1 1_555 1_555
O2 N1 1_555 1_555
C1 C2 1_555 1_555
C2 N1 1_555 1_555
C3 C2 1_555 1_555
C4 C3 1_555 1_555
C5 C4 1_555 1_555
O3 C5 1_555 1_555
C6 O3 1_555 1_555
C7 C6 1_555 1_555
C8 C7 1_555 1_555
C9 C8 1_555 1_555
C10 C9 1_555 1_555
C11 C10 1_555 1_555
C12 C11 1_555 1_555
C13 C12 1_555 1_555
C14 C13 1_555 1_555
C15 C10 1_555 1_555
C16 C15 1_555 1_555
C17 C16 1_555 1_555
N2 C9 1_555 1_555
C18 C7 1_555 1_555
C19 C1 1_555 1_555
H1 C1 1_555 1_555
H2 C3 1_555 1_555
H3 C4 1_555 1_555
H4 C7 1_555 1_555
H5 C6 1_555 1_555
H6 C6 1_555 1_555
H7 C9 1_555 1_555
H8 C8 1_555 1_555
H9 C8 1_555 1_555
H10 C11 1_555 1_555
H11 C12 1_555 1_555
H12 C13 1_555 1_555
H13 C14 1_555 1_555
H14 C17 1_555 1_555
H15 C16 1_555 1_555
H16 C16 1_555 1_555
H17 C17 1_555 1_555
H18 C18 1_555 1_555
C5 C19 1_555 1_555
C14 C15 1_555 1_555
C17 N2 1_555 1_555
N2 C18 1_555 1_555
C18 C19 1_555 1_555

#END
