
#######################################################################
#
#                 Cambridge Crystallographic Data Centre
#                                CCDC 
#
#######################################################################
#
# If this CIF has been generated from an entry in the Cambridge 
# Structural Database, then it will include bibliographic, chemical, 
# crystal, experimental, refinement or atomic coordinate data resulting 
# from the CCDC's data processing and validation procedures.
#
#######################################################################

data_ZILKIQ
_chemical_formula_moiety         'C10 H14 O6 S1'
_chemical_name_systematic        
'Ethyl 5-((methylsulfonyl)oxy)-7-oxabicyclo[4.1.0]hept-2-ene-3-carboxylate'
_symmetry_cell_setting           orthorhombic
_symmetry_space_group_name_H-M   'P 21 21 21'
_symmetry_Int_Tables_number      19
_space_group_name_Hall           'P 2ac 2ab'
loop_
_symmetry_equiv_pos_site_id
_symmetry_equiv_pos_as_xyz
1 x,y,z
2 1/2-x,-y,1/2+z
3 -x,1/2+y,1/2-z
4 1/2+x,1/2-y,-z
_cell_length_a                   7.9394(7)
_cell_length_b                   9.5072(8)
_cell_length_c                   15.6888(13)
_cell_angle_alpha                90
_cell_angle_beta                 90
_cell_angle_gamma                90
_cell_volume                     1184.21
_exptl_crystal_colour            colorless
_exptl_crystal_description       prismatic
_cell_formula_units_Z            4
loop_
_atom_site_label
_atom_site_type_symbol
_atom_site_fract_x
_atom_site_fract_y
_atom_site_fract_z
S1 S -0.03137(5) 0.54938(5) 0.70490(3)
O1 O 0.40512(16) 0.59458(13) 0.49854(8)
O2 O 0.09039(14) 0.66070(11) 0.66299(7)
O3 O -0.19203(17) 0.6139(2) 0.70212(10)
O4 O -0.0067(2) 0.41760(17) 0.66404(11)
O5 O 0.52298(17) 1.00349(13) 0.69245(8)
O6 O 0.36561(18) 1.10141(12) 0.58970(9)
C1 C 0.26044(19) 0.61502(15) 0.63752(9)
H1 H 0.2914 0.5293 0.6684
C2 C 0.2492(2) 0.58482(16) 0.54368(10)
H2 H 0.1706 0.5111 0.5257
C3 C 0.2763(2) 0.70179(16) 0.48473(9)
H3 H 0.2153 0.6989 0.4305
C4 C 0.31524(19) 0.84183(17) 0.52012(10)
H4 H 0.3034 0.9212 0.4860
C5 C 0.36691(17) 0.85598(14) 0.59994(9)
C6 C 0.3815(2) 0.73250(15) 0.65959(10)
H5 H 0.3595 0.7639 0.7174
H6 H 0.4958 0.6966 0.6576
C7 C 0.42722(19) 0.99318(16) 0.63315(10)
C8 C 0.4153(3) 1.24203(18) 0.61621(14)
H7 H 0.4292 1.2438 0.6776
H8 H 0.3269 1.3081 0.6014
C9 C 0.5742(4) 1.2862(3) 0.5753(2)
H9 H 0.6622 1.2214 0.5901
H10 H 0.6040 1.3788 0.5946
H11 H 0.5599 1.2873 0.5145
C10 C 0.0383(3) 0.5414(3) 0.81057(11)
H12 H 0.0254 0.6320 0.8368
H13 H 0.1548 0.5145 0.8117
H14 H -0.0272 0.4732 0.8412
loop_
_geom_bond_atom_site_label_1
_geom_bond_atom_site_label_2
_geom_bond_site_symmetry_1
_geom_bond_site_symmetry_2
S1 O2 1_555 1_555
O1 C2 1_555 1_555
O2 C1 1_555 1_555
O3 S1 1_555 1_555
O4 S1 1_555 1_555
O5 C7 1_555 1_555
O6 C7 1_555 1_555
C1 H1 1_555 1_555
C2 C1 1_555 1_555
H2 C2 1_555 1_555
C3 O1 1_555 1_555
H3 C3 1_555 1_555
C4 C3 1_555 1_555
H4 C4 1_555 1_555
C5 C4 1_555 1_555
C6 C1 1_555 1_555
H5 C6 1_555 1_555
H6 C6 1_555 1_555
C7 C5 1_555 1_555
C8 O6 1_555 1_555
H7 C8 1_555 1_555
H8 C8 1_555 1_555
C9 C8 1_555 1_555
H9 C9 1_555 1_555
H10 C9 1_555 1_555
H11 C9 1_555 1_555
C10 S1 1_555 1_555
H12 C10 1_555 1_555
H13 C10 1_555 1_555
H14 C10 1_555 1_555
C2 C3 1_555 1_555
C5 C6 1_555 1_555

#END
