
#######################################################################
#
#                 Cambridge Crystallographic Data Centre
#                                CCDC 
#
#######################################################################
#
# If this CIF has been generated from an entry in the Cambridge 
# Structural Database, then it will include bibliographic, chemical, 
# crystal, experimental, refinement or atomic coordinate data resulting 
# from the CCDC's data processing and validation procedures.
#
#######################################################################

data_ZILMOZ
_chemical_formula_moiety         'C16 H24 N2 O4,C2 H4 O2'
_chemical_name_systematic        
'2-[(3-azaniumyl-2-hydroxy-4-phenylbutanoyl)amino]-4-methylpentanoate acetic acid solvate'
_symmetry_cell_setting           orthorhombic
_symmetry_space_group_name_H-M   'P 21 21 21'
_symmetry_Int_Tables_number      19
_space_group_name_Hall           'P 2ac 2ab'
loop_
_symmetry_equiv_pos_site_id
_symmetry_equiv_pos_as_xyz
1 x,y,z
2 1/2-x,-y,1/2+z
3 -x,1/2+y,1/2-z
4 1/2+x,1/2-y,-z
_cell_length_a                   5.78930(10)
_cell_length_b                   13.7345(2)
_cell_length_c                   25.4628(4)
_cell_angle_alpha                90
_cell_angle_beta                 90
_cell_angle_gamma                90
_cell_volume                     2024.63
_exptl_crystal_colour            colorless
_exptl_crystal_description       block
_cell_formula_units_Z            4
loop_
_atom_site_label
_atom_site_type_symbol
_atom_site_fract_x
_atom_site_fract_y
_atom_site_fract_z
O1 O 0.2261(3) 0.47577(11) 0.33362(6)
O2 O 0.5560(3) 0.32749(11) 0.24062(6)
O3 O 0.5329(3) 0.53987(11) 0.29389(6)
O4 O 1.1371(3) 0.27851(12) 0.27013(6)
H1 H 1.264623 0.293901 0.258857
N1 N 0.7792(3) 0.36936(12) 0.31051(7)
H2 H 0.917897 0.376879 0.321920
N2 N 0.8925(4) 0.12930(13) 0.23036(7)
H3 H 0.875457 0.077096 0.210018
H4 H 0.769656 0.135451 0.251109
H5 H 1.018771 0.122534 0.249962
C1 C 0.4361(4) 0.47561(15) 0.32125(8)
C2 C 0.7475(4) 0.33464(14) 0.26229(8)
C3 C 0.5873(4) 0.39497(15) 0.34452(8)
H6 H 0.492440 0.337064 0.350911
C4 C 0.6806(4) 0.43354(15) 0.39717(8)
H7 H 0.752509 0.496221 0.390792
H8 H 0.550142 0.444605 0.420331
C5 C 0.9154(4) 0.21782(15) 0.19682(8)
H9 H 0.769050 0.229385 0.178496
C6 C 0.8547(4) 0.36924(16) 0.42615(9)
H10 H 0.988710 0.359637 0.403213
C7 C 1.1060(4) 0.20029(16) 0.15633(9)
H11 H 1.254665 0.201356 0.173878
H12 H 1.085740 0.136213 0.140980
C8 C 1.1053(4) 0.27576(17) 0.11302(9)
C9 C 0.9662(4) 0.30411(15) 0.23311(9)
H13 H 1.021779 0.359000 0.212017
C10 C 0.7533(5) 0.26963(17) 0.43899(9)
H14 H 0.614908 0.277702 0.459302
H15 H 0.863554 0.232506 0.458795
H16 H 0.717575 0.235942 0.406974
C11 C 1.2650(5) 0.3505(2) 0.11204(10)
H17 H 1.375126 0.355054 0.138527
C12 C 0.9355(6) 0.42218(19) 0.47541(11)
H18 H 0.990930 0.485748 0.466097
H19 H 1.057655 0.385816 0.491687
H20 H 0.808714 0.428338 0.499491
C13 C 0.9419(6) 0.2701(2) 0.07315(10)
H21 H 0.834215 0.219900 0.073255
C14 C 0.9380(6) 0.3391(3) 0.03300(12)
H22 H 0.826811 0.335360 0.006711
C15 C 1.0985(6) 0.4125(2) 0.03238(12)
H23 H 1.097217 0.458124 0.005397
C16 C 1.2626(6) 0.4189(2) 0.07179(12)
H24 H 1.370936 0.468912 0.071345
O5 O 0.7334(3) 0.54318(12) 0.20605(7)
H25 H 0.652526 0.534904 0.232105
O6 O 0.4327(3) 0.63296(13) 0.17916(7)
C17 C 0.6230(4) 0.59975(17) 0.17209(9)
C18 C 0.7685(5) 0.6196(2) 0.12435(10)
H26 H 0.901506 0.657073 0.134291
H27 H 0.679411 0.655348 0.099081
H28 H 0.817625 0.559009 0.109213
loop_
_geom_bond_atom_site_label_1
_geom_bond_atom_site_label_2
_geom_bond_site_symmetry_1
_geom_bond_site_symmetry_2
O1 C1 1_555 1_555
O2 C2 1_555 1_555
O3 C1 1_555 1_555
O4 H1 1_555 1_555
N1 H2 1_555 1_555
N2 H3 1_555 1_555
H4 N2 1_555 1_555
H5 N2 1_555 1_555
C1 C3 1_555 1_555
C2 N1 1_555 1_555
C3 N1 1_555 1_555
H6 C3 1_555 1_555
C4 C3 1_555 1_555
H7 C4 1_555 1_555
H8 C4 1_555 1_555
C5 N2 1_555 1_555
H9 C5 1_555 1_555
C6 C4 1_555 1_555
H10 C6 1_555 1_555
C7 C5 1_555 1_555
H11 C7 1_555 1_555
H12 C7 1_555 1_555
C8 C7 1_555 1_555
C9 O4 1_555 1_555
H13 C9 1_555 1_555
C10 C6 1_555 1_555
H14 C10 1_555 1_555
H15 C10 1_555 1_555
H16 C10 1_555 1_555
C11 C8 1_555 1_555
H17 C11 1_555 1_555
C12 C6 1_555 1_555
H18 C12 1_555 1_555
H19 C12 1_555 1_555
H20 C12 1_555 1_555
C13 C8 1_555 1_555
H21 C13 1_555 1_555
C14 C13 1_555 1_555
H22 C14 1_555 1_555
C15 C14 1_555 1_555
H23 C15 1_555 1_555
C16 C11 1_555 1_555
H24 C16 1_555 1_555
O5 H25 1_555 1_555
O6 C17 1_555 1_555
C17 O5 1_555 1_555
C18 C17 1_555 1_555
H26 C18 1_555 1_555
H27 C18 1_555 1_555
H28 C18 1_555 1_555
C2 C9 1_555 1_555
C5 C9 1_555 1_555
C15 C16 1_555 1_555

#END
