
#######################################################################
#
#                 Cambridge Crystallographic Data Centre
#                                CCDC 
#
#######################################################################
#
# If this CIF has been generated from an entry in the Cambridge 
# Structural Database, then it will include bibliographic, chemical, 
# crystal, experimental, refinement or atomic coordinate data resulting 
# from the CCDC's data processing and validation procedures.
#
#######################################################################

data_ZILNIU
_chemical_formula_moiety         'C32 H36 Cl4 N2'
_chemical_name_systematic        
1,3-bis[2,6-diisopropylphenyl]-2-(2,3,4,5-tetrachlorocyclopenta-2,4-dien-1-ylidene)-2,3-dihydro-1H-imidazole
_symmetry_cell_setting           orthorhombic
_symmetry_space_group_name_H-M   'P 21 21 21'
_symmetry_Int_Tables_number      19
_space_group_name_Hall           'P 2ac 2ab'
loop_
_symmetry_equiv_pos_site_id
_symmetry_equiv_pos_as_xyz
1 x,y,z
2 1/2-x,-y,1/2+z
3 -x,1/2+y,1/2-z
4 1/2+x,1/2-y,-z
_cell_length_a                   16.5113(4)
_cell_length_b                   18.4826(4)
_cell_length_c                   31.1034(7)
_cell_angle_alpha                90
_cell_angle_beta                 90
_cell_angle_gamma                90
_cell_volume                     9491.88
_exptl_crystal_colour            colorless
_exptl_crystal_description       block
_cell_formula_units_Z            12
loop_
_atom_site_label
_atom_site_type_symbol
_atom_site_fract_x
_atom_site_fract_y
_atom_site_fract_z
C1 C 0.1159(3) 0.9265(2) 0.78762(13)
C2 C 0.1531(3) 0.9743(2) 0.75910(15)
C3 C 0.1307(3) 1.0472(3) 0.76243(19)
H1 H 0.1525 1.0807 0.7433
C4 C 0.0776(4) 1.0700(3) 0.7931(2)
H2 H 0.0642 1.1188 0.7948
C5 C 0.0437(3) 1.0226(3) 0.82141(18)
H3 H 0.0080 1.0398 0.8422
C6 C 0.0616(3) 0.9486(2) 0.81988(15)
C7 C 0.2197(3) 0.9526(3) 0.72753(15)
H4 H 0.2188 0.8999 0.7243
C8 C 0.2076(4) 0.9868(3) 0.68295(18)
H5 H 0.1538 0.9768 0.6729
H6 H 0.2463 0.9669 0.6632
H7 H 0.2153 1.0382 0.6849
C9 C 0.3023(3) 0.9746(3) 0.7451(2)
H8 H 0.3043 1.0262 0.7484
H9 H 0.3439 0.9594 0.7255
H10 H 0.3109 0.9519 0.7725
C10 C 0.0270(3) 0.8981(3) 0.85325(16)
H11 H 0.0351 0.8485 0.8431
C11 C -0.0640(4) 0.9094(4) 0.8599(2)
H12 H -0.0731 0.9555 0.8732
H13 H -0.0849 0.8717 0.8780
H14 H -0.0910 0.9080 0.8325
C12 C 0.0735(5) 0.9068(4) 0.89537(18)
H15 H 0.1296 0.8959 0.8907
H16 H 0.0517 0.8743 0.9165
H17 H 0.0683 0.9557 0.9054
C13 C 0.0976(2) 0.7910(2) 0.78015(12)
C14 C 0.2146(3) 0.7596(2) 0.81064(13)
H18 H 0.2562 0.7316 0.8220
C15 C 0.2144(3) 0.8315(2) 0.80713(13)
H19 H 0.2556 0.8626 0.8157
C16 C 0.0207(3) 0.7876(2) 0.75822(13)
C17 C 0.0063(3) 0.8113(2) 0.71571(14)
C18 C -0.0724(3) 0.7959(2) 0.70462(15)
C19 C -0.1099(3) 0.7638(2) 0.73977(15)
C20 C -0.0542(3) 0.7580(2) 0.77194(13)
C21 C 0.1225(2) 0.6580(2) 0.79154(14)
C22 C 0.0961(3) 0.6227(2) 0.82888(15)
C23 C 0.0788(3) 0.5491(3) 0.82474(18)
H20 H 0.0605 0.5235 0.8486
C24 C 0.0882(3) 0.5138(3) 0.7862(2)
H21 H 0.0742 0.4652 0.7840
C25 C 0.1180(3) 0.5496(3) 0.75092(17)
H22 H 0.1266 0.5243 0.7255
C26 C 0.1356(3) 0.6233(2) 0.75260(14)
C27 C 0.0918(3) 0.6601(3) 0.87235(14)
H23 H 0.0820 0.7116 0.8671
C28 C 0.1714(3) 0.6536(3) 0.89705(16)
H24 H 0.1808 0.6039 0.9043
H25 H 0.1683 0.6820 0.9229
H26 H 0.2150 0.6710 0.8795
C29 C 0.0227(4) 0.6319(4) 0.90092(18)
H27 H -0.0263 0.6291 0.8843
H28 H 0.0148 0.6644 0.9247
H29 H 0.0363 0.5847 0.9116
C30 C 0.1744(3) 0.6609(3) 0.71401(14)
H30 H 0.1756 0.7129 0.7202
C31 C 0.1272(4) 0.6506(4) 0.67272(17)
H31 H 0.1321 0.6013 0.6634
H32 H 0.1484 0.6822 0.6510
H33 H 0.0712 0.6618 0.6776
C32 C 0.2613(3) 0.6358(4) 0.7088(2)
H34 H 0.2620 0.5851 0.7020
H35 H 0.2902 0.6438 0.7351
H36 H 0.2866 0.6625 0.6860
N1 N 0.1419(2) 0.85128(17) 0.78840(10)
N2 N 0.1422(2) 0.73425(17) 0.79447(10)
Cl1 Cl 0.07823(9) 0.84469(9) 0.68106(4)
Cl2 Cl -0.11587(10) 0.81057(10) 0.65499(5)
Cl3 Cl -0.21059(7) 0.73858(7) 0.74238(4)
Cl4 Cl -0.07577(8) 0.72458(8) 0.82242(4)
C33 C 0.6222(3) 0.9077(2) 0.86886(13)
C34 C 0.6312(3) 0.9433(2) 0.90799(13)
C35 C 0.6127(3) 1.0169(3) 0.90849(16)
H37 H 0.6166 1.0426 0.9341
C36 C 0.5889(3) 1.0520(2) 0.87195(17)
H38 H 0.5761 1.1009 0.8732
C37 C 0.5837(3) 1.0160(2) 0.83343(15)
H39 H 0.5684 1.0411 0.8088
C38 C 0.6008(3) 0.9423(2) 0.83068(13)
C39 C 0.6636(3) 0.9073(3) 0.94809(15)
H40 H 0.6671 0.8553 0.9425
C40 C 0.6084(4) 0.9181(4) 0.98649(16)
H41 H 0.6063 0.9686 0.9937
H42 H 0.6289 0.8912 1.0105
H43 H 0.5549 0.9014 0.9795
C41 C 0.7491(4) 0.9346(4) 0.9578(2)
H44 H 0.7835 0.9256 0.9336
H45 H 0.7700 0.9098 0.9826
H46 H 0.7474 0.9856 0.9635
C42 C 0.5996(3) 0.9055(3) 0.78690(14)
H47 H 0.5959 0.8532 0.7917
C43 C 0.6791(4) 0.9204(3) 0.76249(17)
H48 H 0.6835 0.9712 0.7566
H49 H 0.6791 0.8941 0.7359
H50 H 0.7242 0.9052 0.7797
C44 C 0.5278(4) 0.9279(3) 0.75898(17)
H51 H 0.4788 0.9247 0.7755
H52 H 0.5241 0.8963 0.7346
H53 H 0.5352 0.9768 0.7493
C45 C 0.5971(2) 0.7751(2) 0.88371(12)
C46 C 0.7101(3) 0.7323(2) 0.85307(13)
H54 H 0.7496 0.7003 0.8433
C47 C 0.7107(3) 0.8036(2) 0.84856(14)
H55 H 0.7511 0.8306 0.8353
C48 C 0.5207(2) 0.7789(2) 0.90638(13)
C49 C 0.4469(3) 0.8078(2) 0.89122(14)
C50 C 0.3874(3) 0.7965(2) 0.92128(16)
C51 C 0.4231(3) 0.7625(2) 0.95657(15)
C52 C 0.5040(3) 0.7510(2) 0.94751(14)
C53 C 0.6137(2) 0.6389(2) 0.87926(12)
C54 C 0.5541(2) 0.6135(2) 0.85140(13)
C55 C 0.5357(3) 0.5403(2) 0.85341(15)
H56 H 0.4957 0.5217 0.8355
C56 C 0.5756(3) 0.4944(2) 0.88148(16)
H57 H 0.5624 0.4455 0.8824
C57 C 0.6346(3) 0.5215(2) 0.90793(15)
H58 H 0.6614 0.4901 0.9265
C58 C 0.6557(3) 0.5945(2) 0.90799(13)
C59 C 0.5125(3) 0.6609(3) 0.81832(14)
H59 H 0.5228 0.7113 0.8265
C60 C 0.5498(4) 0.6495(4) 0.77373(16)
H60 H 0.6065 0.6608 0.7747
H61 H 0.5235 0.6805 0.7533
H62 H 0.5429 0.5999 0.7652
C61 C 0.4211(3) 0.6507(4) 0.8174(2)
H63 H 0.4086 0.6030 0.8072
H64 H 0.3973 0.6859 0.7986
H65 H 0.3997 0.6568 0.8459
C62 C 0.7237(3) 0.6211(3) 0.93739(13)
H66 H 0.7181 0.6736 0.9405
C63 C 0.8069(3) 0.6056(3) 0.91795(16)
H67 H 0.8123 0.5546 0.9129
H68 H 0.8483 0.6213 0.9375
H69 H 0.8123 0.6311 0.8912
C64 C 0.7184(3) 0.5870(3) 0.98237(15)
H70 H 0.6651 0.5945 0.9939
H71 H 0.7577 0.6092 1.0009
H72 H 0.7291 0.5361 0.9804
N3 N 0.6409(2) 0.83083(17) 0.86694(10)
N4 N 0.6399(2) 0.71420(17) 0.87501(10)
Cl5 Cl 0.42920(8) 0.84394(7) 0.84092(4)
Cl6 Cl 0.28723(8) 0.82097(8) 0.91633(5)
Cl7 Cl 0.37483(10) 0.74054(8) 1.00415(5)
Cl8 Cl 0.57333(9) 0.71803(7) 0.98364(4)
C65 C 0.3919(3) 0.4019(2) 0.95777(13)
C66 C 0.3489(3) 0.4494(2) 0.93117(14)
C67 C 0.3715(3) 0.5220(3) 0.93324(17)
H73 H 0.3448 0.5555 0.9160
C68 C 0.4317(3) 0.5454(3) 0.95996(19)
H74 H 0.4453 0.5942 0.9605
C69 C 0.4722(3) 0.4976(3) 0.98592(17)
H75 H 0.5131 0.5145 1.0039
C70 C 0.4534(3) 0.4239(2) 0.98588(14)
C71 C 0.4949(3) 0.3736(3) 1.01720(15)
H76 H 0.4835 0.3240 1.0079
C72 C 0.5872(4) 0.3832(4) 1.0172(2)
H77 H 0.6078 0.3744 0.9888
H78 H 0.6111 0.3495 1.0369
H79 H 0.6003 0.4316 1.0258
C73 C 0.4593(5) 0.3824(5) 1.06206(19)
H80 H 0.4715 0.4300 1.0727
H81 H 0.4823 0.3468 1.0809
H82 H 0.4016 0.3761 1.0608
C74 C 0.2791(3) 0.4263(2) 0.90273(14)
H83 H 0.2829 0.3738 0.8987
C75 C 0.2820(3) 0.4618(3) 0.85781(15)
H84 H 0.2709 0.5126 0.8604
H85 H 0.2422 0.4398 0.8395
H86 H 0.3349 0.4552 0.8455
C76 C 0.1972(3) 0.4426(3) 0.92427(16)
H87 H 0.1921 0.4143 0.9500
H88 H 0.1540 0.4306 0.9048
H89 H 0.1944 0.4931 0.9314
C77 C 0.4064(2) 0.2663(2) 0.94863(12)
C78 C 0.2921(3) 0.2359(2) 0.98283(14)
H90 H 0.2515 0.2081 0.9953
C79 C 0.2945(3) 0.3076(2) 0.98121(14)
H91 H 0.2559 0.3392 0.9922
C80 C 0.4820(3) 0.2631(2) 0.92580(13)
C81 C 0.4986(3) 0.2944(2) 0.88516(14)
C82 C 0.5784(3) 0.2808(2) 0.87443(15)
C83 C 0.6135(3) 0.2421(2) 0.90794(15)
C84 C 0.5552(2) 0.2304(2) 0.93871(13)
C85 C 0.3769(2) 0.1332(2) 0.95735(13)
C86 C 0.3654(3) 0.1029(2) 0.91633(14)
C87 C 0.3805(3) 0.0295(3) 0.91269(17)
H92 H 0.3751 0.0074 0.8860
C88 C 0.4033(3) -0.0113(3) 0.94735(19)
H93 H 0.4138 -0.0603 0.9437
C89 C 0.4109(3) 0.0191(2) 0.98741(16)
H94 H 0.4248 -0.0100 1.0107
C90 C 0.3980(3) 0.0929(2) 0.99379(13)
C91 C 0.3324(3) 0.1455(3) 0.87874(14)
H95 H 0.3342 0.1968 0.8865
C92 C 0.3810(4) 0.1358(4) 0.83811(17)
H96 H 0.4365 0.1482 0.8435
H97 H 0.3597 0.1668 0.8161
H98 H 0.3777 0.0864 0.8289
C93 C 0.2438(4) 0.1252(5) 0.8711(2)
H99 H 0.2404 0.0753 0.8627
H100 H 0.2218 0.1552 0.8487
H101 H 0.2135 0.1324 0.8971
C94 C 0.4038(3) 0.1252(2) 1.03867(13)
H102 H 0.4130 0.1773 1.0358
C95 C 0.4742(3) 0.0932(3) 1.06479(17)
H103 H 0.4596 0.0459 1.0749
H104 H 0.4857 0.1240 1.0889
H105 H 0.5214 0.0897 1.0469
C96 C 0.3254(3) 0.1141(3) 1.06395(16)
H106 H 0.2806 0.1330 1.0478
H107 H 0.3290 0.1390 1.0910
H108 H 0.3172 0.0634 1.0690
N5 N 0.3651(2) 0.32686(17) 0.96009(10)
N6 N 0.3609(2) 0.20980(17) 0.96262(10)
Cl9 Cl 0.42866(9) 0.33327(7) 0.85171(4)
Cl10 Cl 0.62499(10) 0.30636(8) 0.82737(5)
Cl11 Cl 0.71306(7) 0.21405(8) 0.91082(4)
Cl12 Cl 0.57389(7) 0.18961(7) 0.98769(4)
loop_
_geom_bond_atom_site_label_1
_geom_bond_atom_site_label_2
_geom_bond_site_symmetry_1
_geom_bond_site_symmetry_2
C1 C2 1_555 1_555
C2 C3 1_555 1_555
C3 H1 1_555 1_555
C4 C3 1_555 1_555
H2 C4 1_555 1_555
C5 C4 1_555 1_555
H3 C5 1_555 1_555
C6 C1 1_555 1_555
C7 C2 1_555 1_555
H4 C7 1_555 1_555
C8 C7 1_555 1_555
H5 C8 1_555 1_555
H6 C8 1_555 1_555
H7 C8 1_555 1_555
C9 C7 1_555 1_555
H8 C9 1_555 1_555
H9 C9 1_555 1_555
H10 C9 1_555 1_555
C10 C6 1_555 1_555
H11 C10 1_555 1_555
C11 C10 1_555 1_555
H12 C11 1_555 1_555
H13 C11 1_555 1_555
H14 C11 1_555 1_555
C12 C10 1_555 1_555
H15 C12 1_555 1_555
H16 C12 1_555 1_555
H17 C12 1_555 1_555
C13 C16 1_555 1_555
C14 H18 1_555 1_555
C15 C14 1_555 1_555
H19 C15 1_555 1_555
C16 C17 1_555 1_555
C17 C18 1_555 1_555
C18 C19 1_555 1_555
C19 C20 1_555 1_555
C20 C16 1_555 1_555
C21 C22 1_555 1_555
C22 C23 1_555 1_555
C23 H20 1_555 1_555
C24 C23 1_555 1_555
H21 C24 1_555 1_555
C25 C24 1_555 1_555
H22 C25 1_555 1_555
C26 C21 1_555 1_555
C27 C22 1_555 1_555
H23 C27 1_555 1_555
C28 C27 1_555 1_555
H24 C28 1_555 1_555
H25 C28 1_555 1_555
H26 C28 1_555 1_555
C29 C27 1_555 1_555
H27 C29 1_555 1_555
H28 C29 1_555 1_555
H29 C29 1_555 1_555
C30 C26 1_555 1_555
H30 C30 1_555 1_555
C31 C30 1_555 1_555
H31 C31 1_555 1_555
H32 C31 1_555 1_555
H33 C31 1_555 1_555
C32 C30 1_555 1_555
H34 C32 1_555 1_555
H35 C32 1_555 1_555
H36 C32 1_555 1_555
N1 C1 1_555 1_555
N2 C13 1_555 1_555
Cl1 C17 1_555 1_555
Cl2 C18 1_555 1_555
Cl3 C19 1_555 1_555
Cl4 C20 1_555 1_555
C33 C34 1_555 1_555
C34 C35 1_555 1_555
C35 H37 1_555 1_555
C36 C35 1_555 1_555
H38 C36 1_555 1_555
C37 C36 1_555 1_555
H39 C37 1_555 1_555
C38 C33 1_555 1_555
C39 C34 1_555 1_555
H40 C39 1_555 1_555
C40 C39 1_555 1_555
H41 C40 1_555 1_555
H42 C40 1_555 1_555
H43 C40 1_555 1_555
C41 C39 1_555 1_555
H44 C41 1_555 1_555
H45 C41 1_555 1_555
H46 C41 1_555 1_555
C42 C38 1_555 1_555
H47 C42 1_555 1_555
C43 C42 1_555 1_555
H48 C43 1_555 1_555
H49 C43 1_555 1_555
H50 C43 1_555 1_555
C44 C42 1_555 1_555
H51 C44 1_555 1_555
H52 C44 1_555 1_555
H53 C44 1_555 1_555
C45 C48 1_555 1_555
C46 H54 1_555 1_555
C47 C46 1_555 1_555
H55 C47 1_555 1_555
C48 C49 1_555 1_555
C49 C50 1_555 1_555
C50 C51 1_555 1_555
C51 C52 1_555 1_555
C52 C48 1_555 1_555
C53 C54 1_555 1_555
C54 C55 1_555 1_555
C55 H56 1_555 1_555
C56 C55 1_555 1_555
H57 C56 1_555 1_555
C57 C56 1_555 1_555
H58 C57 1_555 1_555
C58 C53 1_555 1_555
C59 C54 1_555 1_555
H59 C59 1_555 1_555
C60 C59 1_555 1_555
H60 C60 1_555 1_555
H61 C60 1_555 1_555
H62 C60 1_555 1_555
C61 C59 1_555 1_555
H63 C61 1_555 1_555
H64 C61 1_555 1_555
H65 C61 1_555 1_555
C62 C58 1_555 1_555
H66 C62 1_555 1_555
C63 C62 1_555 1_555
H67 C63 1_555 1_555
H68 C63 1_555 1_555
H69 C63 1_555 1_555
C64 C62 1_555 1_555
H70 C64 1_555 1_555
H71 C64 1_555 1_555
H72 C64 1_555 1_555
N3 C33 1_555 1_555
N4 C45 1_555 1_555
Cl5 C49 1_555 1_555
Cl6 C50 1_555 1_555
Cl7 C51 1_555 1_555
Cl8 C52 1_555 1_555
C65 C66 1_555 1_555
C66 C67 1_555 1_555
C67 H73 1_555 1_555
C68 C67 1_555 1_555
H74 C68 1_555 1_555
C69 C68 1_555 1_555
H75 C69 1_555 1_555
C70 C65 1_555 1_555
C71 C70 1_555 1_555
H76 C71 1_555 1_555
C72 C71 1_555 1_555
H77 C72 1_555 1_555
H78 C72 1_555 1_555
H79 C72 1_555 1_555
C73 C71 1_555 1_555
H80 C73 1_555 1_555
H81 C73 1_555 1_555
H82 C73 1_555 1_555
C74 C66 1_555 1_555
H83 C74 1_555 1_555
C75 C74 1_555 1_555
H84 C75 1_555 1_555
H85 C75 1_555 1_555
H86 C75 1_555 1_555
C76 C74 1_555 1_555
H87 C76 1_555 1_555
H88 C76 1_555 1_555
H89 C76 1_555 1_555
C77 C80 1_555 1_555
C78 H90 1_555 1_555
C79 C78 1_555 1_555
H91 C79 1_555 1_555
C80 C81 1_555 1_555
C81 C82 1_555 1_555
C82 C83 1_555 1_555
C83 C84 1_555 1_555
C84 C80 1_555 1_555
C85 C86 1_555 1_555
C86 C87 1_555 1_555
C87 H92 1_555 1_555
C88 C87 1_555 1_555
H93 C88 1_555 1_555
C89 C88 1_555 1_555
H94 C89 1_555 1_555
C90 C85 1_555 1_555
C91 C86 1_555 1_555
H95 C91 1_555 1_555
C92 C91 1_555 1_555
H96 C92 1_555 1_555
H97 C92 1_555 1_555
H98 C92 1_555 1_555
C93 C91 1_555 1_555
H99 C93 1_555 1_555
H100 C93 1_555 1_555
H101 C93 1_555 1_555
C94 C90 1_555 1_555
H102 C94 1_555 1_555
C95 C94 1_555 1_555
H103 C95 1_555 1_555
H104 C95 1_555 1_555
H105 C95 1_555 1_555
C96 C94 1_555 1_555
H106 C96 1_555 1_555
H107 C96 1_555 1_555
H108 C96 1_555 1_555
N5 C65 1_555 1_555
N6 C77 1_555 1_555
Cl9 C81 1_555 1_555
Cl10 C82 1_555 1_555
Cl11 C83 1_555 1_555
Cl12 C84 1_555 1_555
C5 C6 1_555 1_555
C13 N1 1_555 1_555
C14 N2 1_555 1_555
C15 N1 1_555 1_555
C21 N2 1_555 1_555
C25 C26 1_555 1_555
C37 C38 1_555 1_555
C45 N3 1_555 1_555
C46 N4 1_555 1_555
C47 N3 1_555 1_555
C53 N4 1_555 1_555
C57 C58 1_555 1_555
C69 C70 1_555 1_555
C77 N5 1_555 1_555
C78 N6 1_555 1_555
C79 N5 1_555 1_555
C85 N6 1_555 1_555
C89 C90 1_555 1_555

#END
