
#######################################################################
#
#                 Cambridge Crystallographic Data Centre
#                                CCDC 
#
#######################################################################
#
# If this CIF has been generated from an entry in the Cambridge 
# Structural Database, then it will include bibliographic, chemical, 
# crystal, experimental, refinement or atomic coordinate data resulting 
# from the CCDC's data processing and validation procedures.
#
#######################################################################

data_ZILROB
_chemical_formula_moiety         'C8 H3 Cl2 N3 O4,C2 H6 O1 S1'
_chemical_name_systematic        
'6,7-Dichloro-1,4-dihydro-5-nitroquinoxaline-2,3-dione dimethylsulfoxide solvate'
_chemical_properties_biological  
'high antagonistic activity at glycine sites, with moderate activity at non-(N-methyl-D-aspartate) sites'
_symmetry_cell_setting           monoclinic
_symmetry_space_group_name_H-M   'P 21/n'
_symmetry_Int_Tables_number      14
_space_group_name_Hall           '-P 2yn'
loop_
_symmetry_equiv_pos_site_id
_symmetry_equiv_pos_as_xyz
1 x,y,z
2 1/2-x,1/2+y,1/2-z
3 -x,-y,-z
4 1/2+x,1/2-y,1/2+z
_cell_length_a                   10.349(3)
_cell_length_b                   6.504(1)
_cell_length_c                   21.131(4)
_cell_angle_alpha                90
_cell_angle_beta                 99.89(2)
_cell_angle_gamma                90
_cell_volume                     1401.19
_exptl_crystal_colour            yellow
_chemical_melting_point          342-344deg.C
_cell_formula_units_Z            4
loop_
_atom_site_label
_atom_site_type_symbol
_atom_site_fract_x
_atom_site_fract_y
_atom_site_fract_z
Cl1 Cl 0.72452(12) 0.1690(2) 0.66520(5)
Cl2 Cl 0.91528(11) 0.0000(2) 0.57630(6)
O1 O 0.7491(3) 0.8875(5) 0.3644(2)
O2 O 0.5700(3) 1.0292(5) 0.4360(2)
O3 O 0.4824(3) 0.5298(6) 0.6125(2)
O4 O 0.6492(4) 0.6582(7) 0.6709(2)
N1 N 0.7996(3) 0.6260(5) 0.4344(2)
N2 N 0.6247(3) 0.7723(5) 0.5076(2)
N3 N 0.5976(4) 0.5634(5) 0.6247(2)
C1 C 0.6812(4) 0.4824(6) 0.5811(2)
C2 C 0.7480(4) 0.3005(6) 0.5973(2)
C3 C 0.8309(4) 0.2281(6) 0.5576(2)
C4 C 0.8489(4) 0.3341(6) 0.5039(2)
C5 C 0.7816(3) 0.5171(6) 0.4885(2)
C6 C 0.6948(4) 0.5916(6) 0.5263(2)
C7 C 0.7340(4) 0.7991(7) 0.4131(2)
C8 C 0.6358(4) 0.8767(7) 0.4533(2)
H1 H 0.9043 0.2640 0.4725
H2 H 0.8519 0.5564 0.4065
H3 H 0.5662 0.8171 0.5320
S1 S 0.38976(14) 0.0928(2) 0.79577(6)
O5 O 0.4609(3) 0.0689(5) 0.8658(2)
C9 C 0.4468(6) 0.3212(9) 0.7692(2)
C10 C 0.4642(6) -0.0849(9) 0.7517(3)
H4 H 0.5390 0.3129 0.7712
H5 H 0.4057 0.3455 0.7261
H6 H 0.4269 0.4308 0.7956
H7 H 0.4530 -0.2195 0.7674
H8 H 0.4250 -0.0771 0.7077
H9 H 0.5551 -0.0550 0.7561
S2? S 0.5009(13) 0.1130(18) 0.8046(5)
loop_
_geom_bond_atom_site_label_1
_geom_bond_atom_site_label_2
_geom_bond_site_symmetry_1
_geom_bond_site_symmetry_2
Cl1 C2 1_555 1_555
Cl2 C3 1_555 1_555
O1 C7 1_555 1_555
O2 C8 1_555 1_555
O3 N3 1_555 1_555
O4 N3 1_555 1_555
N1 C5 1_555 1_555
N2 C6 1_555 1_555
N3 C1 1_555 1_555
C1 C2 1_555 1_555
C2 C3 1_555 1_555
C3 C4 1_555 1_555
C4 C5 1_555 1_555
C5 C6 1_555 1_555
C6 C1 1_555 1_555
C7 N1 1_555 1_555
C8 N2 1_555 1_555
H1 C4 1_555 1_555
H2 N1 1_555 1_555
H3 N2 1_555 1_555
S1 O5 1_555 1_555
C9 S1 1_555 1_555
C10 S1 1_555 1_555
H4 C9 1_555 1_555
H5 C9 1_555 1_555
H6 C9 1_555 1_555
H7 C10 1_555 1_555
H8 C10 1_555 1_555
H9 C10 1_555 1_555
C7 C8 1_555 1_555

#END
