
#######################################################################
#
#                 Cambridge Crystallographic Data Centre
#                                CCDC 
#
#######################################################################
#
# If this CIF has been generated from an entry in the Cambridge 
# Structural Database, then it will include bibliographic, chemical, 
# crystal, experimental, refinement or atomic coordinate data resulting 
# from the CCDC's data processing and validation procedures.
#
#######################################################################

data_ZILRIV
_chemical_formula_moiety         'C27 H34 O14,3.5(H2 O1)'
_chemical_name_systematic        'Naringin dihydrochalcone hydrate'
_symmetry_cell_setting           monoclinic
_symmetry_space_group_name_H-M   'P 21'
_symmetry_Int_Tables_number      4
_space_group_name_Hall           'P 2yb'
loop_
_symmetry_equiv_pos_site_id
_symmetry_equiv_pos_as_xyz
1 x,y,z
2 -x,1/2+y,-z
_cell_length_a                   18.470(7)
_cell_length_b                   8.360(3)
_cell_length_c                   19.877(8)
_cell_angle_alpha                90
_cell_angle_beta                 96.40(5)
_cell_angle_gamma                90
_cell_volume                     3050.06
_cell_formula_units_Z            4
loop_
_atom_site_label
_atom_site_type_symbol
_atom_site_fract_x
_atom_site_fract_y
_atom_site_fract_z
O1 O 0.4448(4) 0.3735(12) 0.5406(3)
C1 C 0.4289(6) 0.3420(17) 0.6089(6)
C2 C 0.4540(7) 0.4741(19) 0.6539(6)
C3 C 0.4228(7) 0.6317(18) 0.6288(6)
C4 C 0.4377(6) 0.6583(17) 0.5559(5)
C5 C 0.4136(5) 0.5194(17) 0.5130(5)
C6 C 0.4644(8) 0.1759(19) 0.6280(7)
O2 O 0.4300(5) 0.4373(15) 0.7187(4)
O3 O 0.4457(4) 0.7658(13) 0.6701(4)
O4 O 0.5158(4) 0.6754(13) 0.5569(4)
O5 O 0.3381(4) 0.5158(11) 0.5089(3)
C7 C 0.3006(7) 0.4088(16) 0.4611(5)
C8 C 0.2769(6) 0.5089(20) 0.3936(5)
C9 C 0.2217(7) 0.4063(19) 0.3478(6)
C10 C 0.1599(7) 0.3534(23) 0.3859(6)
O6 O 0.1888(4) 0.2608(12) 0.4420(4)
C11 C 0.2346(7) 0.3494(17) 0.4905(6)
O7 O 0.3395(4) 0.5431(14) 0.3622(4)
O8 O 0.1942(6) 0.5108(14) 0.2921(4)
C12 C 0.1031(9) 0.2479(38) 0.3446(9)
O9 O 0.1392(10) 0.1233(20) 0.3124(6)
O10 O 0.2622(4) 0.2401(12) 0.5433(4)
C13 C 0.2175(7) 0.1944(21) 0.5890(6)
C14 C 0.1432(7) 0.2125(22) 0.5810(7)
C15 C 0.1009(7) 0.1566(25) 0.6303(7)
C16 C 0.1335(7) 0.0848(21) 0.6913(6)
C17 C 0.2113(7) 0.0742(19) 0.6969(6)
C18 C 0.2518(7) 0.1324(22) 0.6487(6)
O11 O 0.0291(4) 0.1700(20) 0.6169(5)
O12 O 0.2427(4) 0.0014(16) 0.7544(4)
C19 C 0.0876(7) 0.0212(25) 0.7401(7)
O13 O 0.0192(5) 0.0426(21) 0.7264(5)
C20 C 0.1152(6) -0.0482(21) 0.8069(5)
C21 C 0.0533(7) -0.0904(27) 0.8471(7)
C22 C 0.0755(6) -0.1509(21) 0.9187(6)
C23 C 0.1312(8) -0.2673(22) 0.9324(7)
C24 C 0.1445(8) -0.3264(23) 0.9995(7)
C25 C 0.1125(10) -0.2703(20) 1.0492(7)
C26 C 0.0593(7) -0.1609(24) 1.0382(6)
C27 C 0.0411(6) -0.0955(23) 0.9725(7)
O14 O 0.1238(8) -0.3261(16) 1.1157(5)
H1 H 0.376 0.332 0.609
H2 H 0.507 0.479 0.658
H3 H 0.370 0.624 0.628
H4 H 0.413 0.756 0.538
H5 H 0.428 0.535 0.468
H6 H 0.445 0.097 0.596
H7 H 0.454 0.146 0.673
H8 H 0.516 0.183 0.627
H9 H 0.443 0.509 0.746
H10 H 0.474 0.736 0.703
H11 H 0.525 0.705 0.520
H12 H 0.332 0.319 0.452
H13 H 0.254 0.609 0.405
H14 H 0.246 0.313 0.331
H15 H 0.136 0.448 0.402
H16 H 0.208 0.438 0.509
H17 H 0.336 0.502 0.324
H18 H 0.150 0.521 0.292
H19 H 0.070 0.202 0.374
H20 H 0.075 0.312 0.311
H21 H 0.163 0.069 0.341
H22 H 0.121 0.262 0.542
H23 H 0.302 0.130 0.656
H24 H 0.009 0.134 0.649
H25 H 0.287 0.000 0.754
H26 H 0.147 0.028 0.832
H27 H 0.143 -0.144 0.800
H28 H 0.024 -0.172 0.822
H29 H 0.023 0.004 0.850
H30 H 0.158 -0.303 0.899
H31 H 0.178 -0.409 1.008
H32 H 0.034 -0.128 1.074
H33 H 0.006 -0.015 0.966
H34 H 0.153 -0.400 1.118
O15 O 0.4333(4) 0.0422(11) 0.9515(3)
C28 C 0.4090(7) 0.0673(17) 0.8794(6)
C29 C 0.4203(6) -0.0785(19) 0.8405(5)
C30 C 0.3836(6) -0.2245(16) 0.8674(5)
C31 C 0.4077(8) -0.2415(18) 0.9450(6)
C32 C 0.3987(6) -0.0873(16) 0.9824(6)
C33 C 0.4571(7) 0.2074(19) 0.8590(7)
O16 O 0.3901(4) -0.0505(11) 0.7703(3)
O17 O 0.3982(5) -0.3657(12) 0.8352(4)
O18 O 0.4832(5) -0.2863(12) 0.9511(4)
O19 O 0.3235(4) -0.0622(12) 0.9830(3)
C34 C 0.3050(6) 0.0468(16) 1.0327(5)
C35 C 0.2844(6) -0.0346(21) 1.0960(5)
C36 C 0.2505(8) 0.0677(22) 1.1424(6)
C37 C 0.1853(7) 0.1615(25) 1.1029(6)
O20 O 0.2138(4) 0.2472(15) 1.0479(4)
C38 C 0.2432(6) 0.1510(18) 1.0012(6)
O21 O 0.3475(4) -0.1202(13) 1.1277(4)
O22 O 0.2260(6) -0.0157(18) 1.1960(4)
C39 C 0.1454(9) 0.2815(27) 1.1451(9)
O23 O 0.1968(6) 0.4107(20) 1.1647(5)
O24 O 0.2735(4) 0.2529(13) 0.9554(4)
C40 C 0.2290(6) 0.3246(19) 0.9037(6)
C41 C 0.1539(7) 0.3095(16) 0.8959(6)
C42 C 0.1153(7) 0.3799(23) 0.8388(6)
C43 C 0.1518(7) 0.4614(19) 0.7884(6)
C44 C 0.2276(7) 0.4654(18) 0.7997(6)
C45 C 0.2674(7) 0.3942(21) 0.8551(7)
O25 O 0.0430(4) 0.3687(17) 0.8343(5)
O26 O 0.2664(5) 0.5396(16) 0.7538(5)
C46 C 0.1089(8) 0.5284(24) 0.7298(8)
O27 O 0.0411(5) 0.5205(18) 0.7265(5)
C47 C 0.1442(8) 0.6025(23) 0.6720(7)
C48 C 0.0950(10) 0.6643(27) 0.6172(9)
C49 C 0.1315(8) 0.7347(23) 0.5606(7)
C50 C 0.2035(6) 0.7721(20) 0.5645(7)
C51 C 0.2345(7) 0.8408(19) 0.5102(7)
C52 C 0.1900(8) 0.8663(21) 0.4511(6)
C53 C 0.1187(7) 0.8371(26) 0.4474(8)
C54 C 0.0901(8) 0.7750(30) 0.5009(7)
O28 O 0.2238(5) 0.9253(17) 0.3961(5)
H35 H 0.357 0.098 0.873
H36 H 0.473 -0.099 0.842
H37 H 0.331 -0.207 0.861
H38 H 0.379 -0.326 0.964
H39 H 0.421 -0.099 1.029
H40 H 0.448 0.300 0.885
H41 H 0.445 0.231 0.812
H42 H 0.507 0.178 0.867
H43 H 0.396 -0.131 0.748
H44 H 0.425 -0.347 0.806
H45 H 0.491 -0.355 0.980
H46 H 0.347 0.116 1.046
H47 H 0.248 -0.116 1.081
H48 H 0.287 0.146 1.161
H49 H 0.149 0.083 1.083
H50 H 0.205 0.084 0.977
H51 H 0.354 -0.097 1.168
H52 H 0.207 0.047 1.221
H53 H 0.102 0.323 1.118
H54 H 0.131 0.230 1.185
H55 H 0.177 0.477 1.187
H56 H 0.130 0.254 0.928
H57 H 0.318 0.393 0.859
H58 H 0.025 0.413 0.800
H59 H 0.310 0.531 0.766
H60 H 0.176 0.689 0.690
H61 H 0.175 0.522 0.654
H62 H 0.065 0.746 0.635
H63 H 0.063 0.578 0.599
H64 H 0.233 0.752 0.605
H65 H 0.284 0.868 0.514
H66 H 0.089 0.860 0.408
H67 H 0.040 0.758 0.498
H68 H 0.268 0.936 0.407
O29 O 0.3388(9) -0.1909(22) 0.2801(6)
O30 O 0.8942(6) 0.2802(25) 0.7536(7)
O31 O 0.6368(8) 0.5059(34) 0.6105(10)
O32 O 0.4022(8) 0.3189(35) 0.2750(10)
O33 O 0.3969(6) 0.4270(14) 0.0313(6)
O34 O 0.4558(5) 0.0773(17) 0.1928(4)
O35 O 0.6633(8) 0.0513(24) 0.8621(9)
loop_
_geom_bond_atom_site_label_1
_geom_bond_atom_site_label_2
_geom_bond_site_symmetry_1
_geom_bond_site_symmetry_2
O1 C1 1_555 1_555
C1 C2 1_555 1_555
C2 C3 1_555 1_555
C3 C4 1_555 1_555
C4 C5 1_555 1_555
C5 O1 1_555 1_555
C6 C1 1_555 1_555
O2 C2 1_555 1_555
O3 C3 1_555 1_555
O4 C4 1_555 1_555
O5 C5 1_555 1_555
C7 O5 1_555 1_555
C8 C7 1_555 1_555
C9 C8 1_555 1_555
C10 C9 1_555 1_555
O6 C10 1_555 1_555
C11 C7 1_555 1_555
O7 C8 1_555 1_555
O8 C9 1_555 1_555
C12 C10 1_555 1_555
O9 C12 1_555 1_555
O10 C11 1_555 1_555
C13 O10 1_555 1_555
C14 C13 1_555 1_555
C15 C14 1_555 1_555
C16 C15 1_555 1_555
C17 C16 1_555 1_555
C18 C13 1_555 1_555
O11 C15 1_555 1_555
O12 C17 1_555 1_555
C19 C16 1_555 1_555
O13 C19 1_555 1_555
C20 C19 1_555 1_555
C21 C20 1_555 1_555
C22 C21 1_555 1_555
C23 C22 1_555 1_555
C24 C23 1_555 1_555
C25 C24 1_555 1_555
C26 C25 1_555 1_555
C27 C22 1_555 1_555
O14 C25 1_555 1_555
H1 C1 1_555 1_555
H2 C2 1_555 1_555
H3 C3 1_555 1_555
H4 C4 1_555 1_555
H5 C5 1_555 1_555
H6 C6 1_555 1_555
H7 C6 1_555 1_555
H8 C6 1_555 1_555
H9 O2 1_555 1_555
H10 O3 1_555 1_555
H11 O4 1_555 1_555
H12 C7 1_555 1_555
H13 C8 1_555 1_555
H14 C9 1_555 1_555
H15 C10 1_555 1_555
H16 C11 1_555 1_555
H17 O7 1_555 1_555
H18 O8 1_555 1_555
H19 C12 1_555 1_555
H20 C12 1_555 1_555
H21 O9 1_555 1_555
H22 C14 1_555 1_555
H23 C18 1_555 1_555
H24 O11 1_555 1_555
H25 O12 1_555 1_555
H26 C20 1_555 1_555
H27 C20 1_555 1_555
H28 C21 1_555 1_555
H29 C21 1_555 1_555
H30 C23 1_555 1_555
H31 C24 1_555 1_555
H32 C26 1_555 1_555
H33 C27 1_555 1_555
H34 O14 1_555 1_555
O15 C28 1_555 1_555
C28 C29 1_555 1_555
C29 C30 1_555 1_555
C30 C31 1_555 1_555
C31 C32 1_555 1_555
C32 O15 1_555 1_555
C33 C28 1_555 1_555
O16 C29 1_555 1_555
O17 C30 1_555 1_555
O18 C31 1_555 1_555
O19 C32 1_555 1_555
C34 O19 1_555 1_555
C35 C34 1_555 1_555
C36 C35 1_555 1_555
C37 C36 1_555 1_555
O20 C37 1_555 1_555
C38 C34 1_555 1_555
O21 C35 1_555 1_555
O22 C36 1_555 1_555
C39 C37 1_555 1_555
O23 C39 1_555 1_555
O24 C38 1_555 1_555
C40 O24 1_555 1_555
C41 C40 1_555 1_555
C42 C41 1_555 1_555
C43 C42 1_555 1_555
C44 C43 1_555 1_555
C45 C40 1_555 1_555
O25 C42 1_555 1_555
O26 C44 1_555 1_555
C46 C43 1_555 1_555
O27 C46 1_555 1_555
C47 C46 1_555 1_555
C48 C47 1_555 1_555
C49 C48 1_555 1_555
C50 C49 1_555 1_555
C51 C50 1_555 1_555
C52 C51 1_555 1_555
C53 C52 1_555 1_555
C54 C49 1_555 1_555
O28 C52 1_555 1_555
H35 C28 1_555 1_555
H36 C29 1_555 1_555
H37 C30 1_555 1_555
H38 C31 1_555 1_555
H39 C32 1_555 1_555
H40 C33 1_555 1_555
H41 C33 1_555 1_555
H42 C33 1_555 1_555
H43 O16 1_555 1_555
H44 O17 1_555 1_555
H45 O18 1_555 1_555
H46 C34 1_555 1_555
H47 C35 1_555 1_555
H48 C36 1_555 1_555
H49 C37 1_555 1_555
H50 C38 1_555 1_555
H51 O21 1_555 1_555
H52 O22 1_555 1_555
H53 C39 1_555 1_555
H54 C39 1_555 1_555
H55 O23 1_555 1_555
H56 C41 1_555 1_555
H57 C45 1_555 1_555
H58 O25 1_555 1_555
H59 O26 1_555 1_555
H60 C47 1_555 1_555
H61 C47 1_555 1_555
H62 C48 1_555 1_555
H63 C48 1_555 1_555
H64 C50 1_555 1_555
H65 C51 1_555 1_555
H66 C53 1_555 1_555
H67 C54 1_555 1_555
H68 O28 1_555 1_555
O6 C11 1_555 1_555
C17 C18 1_555 1_555
C26 C27 1_555 1_555
O20 C38 1_555 1_555
C44 C45 1_555 1_555
C53 C54 1_555 1_555

#END
