
#######################################################################
#
#                 Cambridge Crystallographic Data Centre
#                                CCDC 
#
#######################################################################
#
# If this CIF has been generated from an entry in the Cambridge 
# Structural Database, then it will include bibliographic, chemical, 
# crystal, experimental, refinement or atomic coordinate data resulting 
# from the CCDC's data processing and validation procedures.
#
#######################################################################

data_ZILRUH
_chemical_formula_moiety         'C9 H3 Cl1 F3 N3 O4,H2 O1'
_chemical_name_systematic        
'5-Chloro-1,4-dihydro-6-nitro-7-trifluoromethylquinoxaline-2,3-dione monohydrate'
_symmetry_cell_setting           monoclinic
_symmetry_space_group_name_H-M   'P 21/c'
_symmetry_Int_Tables_number      14
_space_group_name_Hall           '-P 2ybc'
loop_
_symmetry_equiv_pos_site_id
_symmetry_equiv_pos_as_xyz
1 x,y,z
2 -x,1/2+y,1/2-z
3 -x,-y,-z
4 x,1/2-y,1/2+z
_cell_length_a                   7.832(2)
_cell_length_b                   11.686(2)
_cell_length_c                   13.315(2)
_cell_angle_alpha                90
_cell_angle_beta                 100.26(2)
_cell_angle_gamma                90
_cell_volume                     1199.17
_exptl_crystal_colour            colorless
_chemical_melting_point          345deg.C
_cell_formula_units_Z            4
loop_
_atom_site_label
_atom_site_type_symbol
_atom_site_fract_x
_atom_site_fract_y
_atom_site_fract_z
Cl1 Cl 0.1810(3) 0.13746(16) 0.36712(13)
F1 F -0.0496(6) -0.3056(4) 0.3884(4)
F2 F 0.1597(8) -0.3850(4) 0.4794(4)
F3 F 0.1754(7) -0.3305(5) 0.3333(4)
O1 O 0.5064(6) 0.0345(4) 0.8402(3)
O2 O 0.4629(6) 0.2294(4) 0.7250(3)
O3 O -0.0818(6) -0.0836(5) 0.2729(4)
O4 O 0.1598(7) -0.1048(7) 0.2297(4)
N1 N 0.4076(6) -0.0678(4) 0.6985(3)
N2 N 0.3581(6) 0.1271(4) 0.5847(3)
N3 N 0.0712(8) -0.0940(5) 0.2919(4)
C1 C 0.2139(8) 0.0147(5) 0.4391(4)
C2 C 0.1582(7) -0.0896(5) 0.4002(4)
C3 C 0.1833(8) -0.1885(6) 0.4574(5)
C4 C 0.2679(8) -0.1805(5) 0.5567(4)
C5 C 0.3252(7) -0.0764(5) 0.5976(4)
C6 C 0.3008(7) 0.0238(5) 0.5403(4)
C7 C 0.4489(8) 0.0307(5) 0.7502(5)
C8 C 0.4225(8) 0.1382(6) 0.6853(4)
C9 C 0.1205(11) -0.3034(7) 0.4157(6)
H1 H 0.4376 -0.1372 0.7344
H2 H 0.3518 0.1932 0.5426
H3 H 0.2871 -0.2475 0.5975
O5 O 0.3905(7) 0.1570(4) 1.0081(3)
H4 H 0.4408 0.1376 0.9452
H5 H 0.4031 0.0922 1.0517
loop_
_geom_bond_atom_site_label_1
_geom_bond_atom_site_label_2
_geom_bond_site_symmetry_1
_geom_bond_site_symmetry_2
Cl1 C1 1_555 1_555
F1 C9 1_555 1_555
F2 C9 1_555 1_555
F3 C9 1_555 1_555
O1 C7 1_555 1_555
O2 C8 1_555 1_555
O3 N3 1_555 1_555
O4 N3 1_555 1_555
N1 C5 1_555 1_555
N2 C6 1_555 1_555
N3 C2 1_555 1_555
C1 C2 1_555 1_555
C2 C3 1_555 1_555
C3 C4 1_555 1_555
C4 C5 1_555 1_555
C5 C6 1_555 1_555
C6 C1 1_555 1_555
C7 N1 1_555 1_555
C8 N2 1_555 1_555
C9 C3 1_555 1_555
H1 N1 1_555 1_555
H2 N2 1_555 1_555
H3 C4 1_555 1_555
O5 H4 1_555 1_555
H5 O5 1_555 1_555
C7 C8 1_555 1_555

#END
