
#######################################################################
#
#                 Cambridge Crystallographic Data Centre
#                                CCDC 
#
#######################################################################
#
# If this CIF has been generated from an entry in the Cambridge 
# Structural Database, then it will include bibliographic, chemical, 
# crystal, experimental, refinement or atomic coordinate data resulting 
# from the CCDC's data processing and validation procedures.
#
#######################################################################

data_ZILVIC
_chemical_formula_moiety         'C44 H31 B1 F2 N2'
_chemical_name_systematic        
5,5-difluoro-12-(4-methylphenyl)-7,8,9,10-tetraphenyl-5H-pyrrolo[1',2':3,4][1,3,2]diazaborinino[1,6-a]indole
_symmetry_cell_setting           triclinic
_symmetry_space_group_name_H-M   'P -1'
_symmetry_Int_Tables_number      2
_space_group_name_Hall           '-P 1'
loop_
_symmetry_equiv_pos_site_id
_symmetry_equiv_pos_as_xyz
1 x,y,z
2 -x,-y,-z
_cell_length_a                   10.9158(4)
_cell_length_b                   12.3528(4)
_cell_length_c                   13.1488(5)
_cell_angle_alpha                96.328(3)
_cell_angle_beta                 104.212(3)
_cell_angle_gamma                92.839(3)
_cell_volume                     1702.85
_exptl_crystal_colour            'dark red'
_exptl_crystal_description       plate
_cell_formula_units_Z            2
loop_
_atom_site_label
_atom_site_type_symbol
_atom_site_fract_x
_atom_site_fract_y
_atom_site_fract_z
F1 F 0.84826(10) 0.63825(8) 0.49410(9)
F2 F 0.74023(11) 0.59318(9) 0.61291(9)
N1 N 0.75069(13) 0.45288(11) 0.47219(12)
N2 N 0.93959(14) 0.52025(12) 0.61963(12)
C1 C 0.39305(16) 0.55968(14) 0.18704(14)
C2 C 0.58557(16) 0.63909(14) 0.37188(14)
C3 C 0.62952(16) 0.32933(14) 0.33877(14)
C4 C 0.52955(16) 0.29122(14) 0.24837(14)
C5 C 0.88613(16) 0.32698(14) 0.57469(14)
C6 C 0.33632(17) 0.32940(14) 0.11333(14)
C7 C 0.65105(15) 0.44158(14) 0.38235(13)
C8 C 0.71587(16) 0.27200(14) 0.40621(14)
H1 H 0.7241 0.1956 0.3977
C9 C 0.78702(16) 0.34808(14) 0.48771(14)
C10 C 0.63147(17) 0.71246(15) 0.31401(15)
H2 H 0.6608 0.6858 0.2544
C11 C 0.47430(16) 0.47997(14) 0.24471(14)
C12 C 0.57185(16) 0.51947(14) 0.33378(14)
C13 C 0.40817(18) 0.58263(15) 0.08970(15)
H3 H 0.4705 0.5484 0.0611
C14 C 0.45047(16) 0.36660(14) 0.20278(14)
C15 C 0.51244(17) 0.17212(14) 0.20988(14)
C16 C 0.96181(17) 0.41348(14) 0.63957(14)
C17 C 0.60574(19) 0.12211(15) 0.17002(15)
H4 H 0.6805 0.1641 0.1687
C18 C 1.02338(18) 0.17083(15) 0.61078(15)
H5 H 1.0949 0.2154 0.6064
C19 C 0.23912(19) 0.24034(16) -0.06315(15)
H6 H 0.2475 0.2036 -0.1282
C20 C 0.54396(17) 0.67946(15) 0.45948(15)
H7 H 0.5128 0.6303 0.4997
C21 C 0.80156(18) 0.14544(15) 0.60440(15)
H8 H 0.7199 0.1723 0.5940
C22 C 0.21545(18) 0.34714(16) 0.12640(16)
H9 H 0.2066 0.3836 0.1914
C23 C 1.06906(18) 0.41828(16) 0.72769(15)
H10 H 1.1049 0.3580 0.7597
C24 C 0.30156(18) 0.61162(17) 0.22770(16)
H11 H 0.2903 0.5978 0.2946
C25 C 0.34673(18) 0.27575(15) 0.01764(15)
H12 H 0.4282 0.2631 0.0073
C26 C 0.33358(19) 0.65500(16) 0.03349(16)
H13 H 0.3452 0.6700 -0.0330
C27 C 0.40469(19) 0.10851(16) 0.21280(16)
H14 H 0.3401 0.1413 0.2396
C28 C 0.90437(17) 0.21306(14) 0.59580(14)
C29 C 0.63451(19) 0.82387(16) 0.34298(17)
H15 H 0.6660 0.8733 0.3032
C30 C 0.22724(19) 0.68303(18) 0.17111(18)
H16 H 0.1647 0.7174 0.1993
C31 C 1.02796(19) 0.58665(16) 0.68977(16)
H17 H 1.0344 0.6640 0.6936
C32 C 0.59207(19) 0.86363(16) 0.42950(18)
H18 H 0.5931 0.9402 0.4486
C33 C 0.24252(19) 0.70512(16) 0.07427(17)
H19 H 0.1909 0.7543 0.0360
C34 C 0.8178(2) 0.03978(16) 0.62795(16)
H20 H 0.7475 -0.0042 0.6355
C35 C 0.54791(19) 0.79135(16) 0.48829(17)
H21 H 0.5202 0.8185 0.5486
C36 C 0.3911(2) -0.00222(17) 0.17690(17)
H22 H 0.3179 -0.0452 0.1803
C37 C 1.0368(2) 0.06402(16) 0.63204(17)
H23 H 1.1177 0.0361 0.6409
C38 C 0.9351(2) -0.00322(16) 0.64074(16)
C39 C 0.12033(19) 0.25831(17) -0.04933(17)
H24 H 0.0470 0.2339 -0.1046
C40 C 1.1107(2) 0.52603(17) 0.75753(16)
H25 H 1.1819 0.5546 0.8133
C41 C 0.4831(2) -0.05055(16) 0.13626(17)
H26 H 0.4728 -0.1264 0.1111
C42 C 0.5904(2) 0.01134(17) 0.13221(17)
H27 H 0.6535 -0.0217 0.1037
C43 C 0.10815(19) 0.31217(19) 0.04565(18)
H28 H 0.0264 0.3251 0.0553
B1 B 0.81489(19) 0.55624(16) 0.54728(16)
C44 C 0.9505(3) -0.12022(17) 0.6615(2)
H29 H 0.9246 -0.1317 0.7260
H30 H 1.0396 -0.1355 0.6704
H31 H 0.8975 -0.1694 0.6016
loop_
_geom_bond_atom_site_label_1
_geom_bond_atom_site_label_2
_geom_bond_site_symmetry_1
_geom_bond_site_symmetry_2
F1 B1 1_555 1_555
F2 B1 1_555 1_555
N1 C7 1_555 1_555
N2 C16 1_555 1_555
C1 C11 1_555 1_555
C2 C10 1_555 1_555
C3 C4 1_555 1_555
C4 C14 1_555 1_555
C5 C9 1_555 1_555
C6 C14 1_555 1_555
C7 C3 1_555 1_555
C8 C3 1_555 1_555
H1 C8 1_555 1_555
C9 N1 1_555 1_555
C10 H2 1_555 1_555
C11 C12 1_555 1_555
C12 C2 1_555 1_555
C13 C1 1_555 1_555
H3 C13 1_555 1_555
C14 C11 1_555 1_555
C15 C4 1_555 1_555
C16 C5 1_555 1_555
C17 C15 1_555 1_555
H4 C17 1_555 1_555
C18 H5 1_555 1_555
C19 H6 1_555 1_555
C20 C2 1_555 1_555
H7 C20 1_555 1_555
C21 H8 1_555 1_555
C22 C6 1_555 1_555
H9 C22 1_555 1_555
C23 C16 1_555 1_555
H10 C23 1_555 1_555
C24 C1 1_555 1_555
H11 C24 1_555 1_555
C25 C6 1_555 1_555
H12 C25 1_555 1_555
C26 C13 1_555 1_555
H13 C26 1_555 1_555
C27 C15 1_555 1_555
H14 C27 1_555 1_555
C28 C5 1_555 1_555
C29 C10 1_555 1_555
H15 C29 1_555 1_555
C30 C24 1_555 1_555
H16 C30 1_555 1_555
C31 N2 1_555 1_555
H17 C31 1_555 1_555
C32 C29 1_555 1_555
H18 C32 1_555 1_555
C33 C26 1_555 1_555
H19 C33 1_555 1_555
C34 C21 1_555 1_555
H20 C34 1_555 1_555
C35 C20 1_555 1_555
H21 C35 1_555 1_555
C36 C27 1_555 1_555
H22 C36 1_555 1_555
C37 C18 1_555 1_555
H23 C37 1_555 1_555
C38 C34 1_555 1_555
C39 C19 1_555 1_555
H24 C39 1_555 1_555
C40 C23 1_555 1_555
H25 C40 1_555 1_555
C41 C36 1_555 1_555
H26 C41 1_555 1_555
C42 C17 1_555 1_555
H27 C42 1_555 1_555
C43 C22 1_555 1_555
H28 C43 1_555 1_555
B1 N1 1_555 1_555
C44 C38 1_555 1_555
H29 C44 1_555 1_555
H30 C44 1_555 1_555
H31 C44 1_555 1_555
N2 B1 1_555 1_555
C7 C12 1_555 1_555
C8 C9 1_555 1_555
C18 C28 1_555 1_555
C19 C25 1_555 1_555
C21 C28 1_555 1_555
C30 C33 1_555 1_555
C31 C40 1_555 1_555
C32 C35 1_555 1_555
C37 C38 1_555 1_555
C39 C43 1_555 1_555
C41 C42 1_555 1_555

#END
