
#######################################################################
#
#                 Cambridge Crystallographic Data Centre
#                                CCDC 
#
#######################################################################
#
# If this CIF has been generated from an entry in the Cambridge 
# Structural Database, then it will include bibliographic, chemical, 
# crystal, experimental, refinement or atomic coordinate data resulting 
# from the CCDC's data processing and validation procedures.
#
#######################################################################

data_ZIMBOO
_chemical_name_common            'Salicylamide hydrochloride'
_chemical_formula_moiety         'C7 H8 N1 O2 1+,Cl1 1-'
_chemical_name_systematic        
'Hydroxy(2-hydroxyphenyl)methaniminium chloride'
_symmetry_cell_setting           monoclinic
_symmetry_space_group_name_H-M   'P 21/c'
_symmetry_Int_Tables_number      14
_space_group_name_Hall           '-P 2ybc'
loop_
_symmetry_equiv_pos_site_id
_symmetry_equiv_pos_as_xyz
1 x,y,z
2 -x,1/2+y,1/2-z
3 -x,-y,-z
4 x,1/2-y,1/2+z
_cell_length_a                   9.0833(6)
_cell_length_b                   5.1811(4)
_cell_length_c                   16.3294(11)
_cell_angle_alpha                90
_cell_angle_beta                 91.0110(10)
_cell_angle_gamma                90
_cell_volume                     768.366
_exptl_crystal_colour            colorless
_exptl_crystal_description       block
_cell_formula_units_Z            4
loop_
_atom_site_label
_atom_site_type_symbol
_atom_site_fract_x
_atom_site_fract_y
_atom_site_fract_z
Cl1 Cl 0.35259(4) 0.05903(7) 0.90308(2)
O1 O 0.39085(11) 0.5501(2) 1.22230(7)
O2 O 0.20077(12) 0.4728(2) 0.99085(6)
C1 C 0.06396(16) 1.0560(3) 1.14186(9)
C2 C 0.12541(17) 1.0794(3) 1.22042(9)
C3 C 0.27612(15) 0.4971(3) 1.05907(8)
C4 C 0.22595(14) 0.6944(3) 1.11652(8)
C5 C 0.28457(14) 0.7172(3) 1.19653(8)
N1 N 0.38969(14) 0.3529(3) 1.07446(8)
C6 C 0.23378(16) 0.9129(3) 1.24762(9)
C7 C 0.11472(15) 0.8651(3) 1.09060(9)
H1 H 0.2756(19) 0.927(3) 1.3000(11)
H2 H 0.0749(18) 0.846(3) 1.0367(10)
H3 H 0.433(2) 0.370(4) 1.1214(13)
H4 H 0.091(2) 1.210(4) 1.2546(11)
H5 H -0.013(2) 1.167(4) 1.1242(11)
H6 H 0.414(2) 0.238(4) 1.0400(12)
H7 H 0.388(2) 0.531(4) 1.2714(14)
H8 H 0.242(2) 0.354(5) 0.9590(14)
loop_
_geom_bond_atom_site_label_1
_geom_bond_atom_site_label_2
_geom_bond_site_symmetry_1
_geom_bond_site_symmetry_2
O1 C5 1_555 1_555
O2 C3 1_555 1_555
C1 C2 1_555 1_555
C2 C6 1_555 1_555
C3 C4 1_555 1_555
C4 C5 1_555 1_555
C5 C6 1_555 1_555
N1 C3 1_555 1_555
C6 H1 1_555 1_555
C7 C1 1_555 1_555
H2 C7 1_555 1_555
H3 N1 1_555 1_555
H4 C2 1_555 1_555
H5 C1 1_555 1_555
H6 N1 1_555 1_555
H7 O1 1_555 1_555
H8 O2 1_555 1_555
C4 C7 1_555 1_555

#END
