
#######################################################################
#
#                 Cambridge Crystallographic Data Centre
#                                CCDC 
#
#######################################################################
#
# If this CIF has been generated from an entry in the Cambridge 
# Structural Database, then it will include bibliographic, chemical, 
# crystal, experimental, refinement or atomic coordinate data resulting 
# from the CCDC's data processing and validation procedures.
#
#######################################################################

data_ZIMBUU
_chemical_name_common            
'tris(5-Nitroethenzamide) tris(ethenzamide) hexanitrate monohydrate'
_chemical_formula_moiety         
'3(C9 H11 N2 O4 1+),3(C9 H12 N1 O2 1+),6(N1 O3 1-),H2 O1'
_chemical_name_systematic        
'tris((2-Ethoxy-5-nitrophenyl)(hydroxy)methaniminium) tris((2-ethoxyphenyl)(hydroxy)methaniminium) hexanitrate monohydrate'
_symmetry_cell_setting           rhombohedral
_symmetry_space_group_name_H-M   'R 3'
_symmetry_Int_Tables_number      146
_space_group_name_Hall           'R 3'
loop_
_symmetry_equiv_pos_site_id
_symmetry_equiv_pos_as_xyz
1 x,y,z
2 -y,x-y,z
3 -x+y,-x,z
4 2/3+x,1/3+y,1/3+z
5 2/3-y,1/3+x-y,1/3+z
6 2/3-x+y,1/3-x,1/3+z
7 1/3+x,2/3+y,2/3+z
8 1/3-y,2/3+x-y,2/3+z
9 1/3-x+y,2/3-x,2/3+z
_cell_length_a                   38.522(5)
_cell_length_b                   38.522(5)
_cell_length_c                   3.9027(5)
_cell_angle_alpha                90
_cell_angle_beta                 90
_cell_angle_gamma                120
_cell_volume                     5015.49
_exptl_crystal_colour            colorless
_exptl_crystal_description       needle
_cell_formula_units_Z            3
loop_
_atom_site_label
_atom_site_type_symbol
_atom_site_fract_x
_atom_site_fract_y
_atom_site_fract_z
O1 O 0.64095(11) 0.09688(12) 0.4825(10)
O2 O 0.55719(12) 0.11159(11) -0.0687(11)
N1 N 0.56960(14) 0.06588(14) 0.1835(13)
C1 C 0.64954(15) 0.13364(16) 0.3860(13)
C2 C 0.61984(15) 0.13765(16) 0.2044(12)
C3 C 0.62725(18) 0.17492(17) 0.1078(15)
H1 H 0.6073 0.1774 -0.0150
C4 C 0.58040(16) 0.10349(15) 0.1046(13)
C5 C 0.68503(16) 0.16721(19) 0.4549(13)
H2 H 0.7055 0.1650 0.5714
C6 C 0.69171(18) 0.2053(2) 0.3547(17)
H3 H 0.7165 0.2286 0.4065
C7 C 0.66286(18) 0.20872(19) 0.1848(17)
C8 C 0.67142(15) 0.09197(16) 0.6477(14)
H4 H 0.6797 0.1078 0.8624
H5 H 0.6951 0.1021 0.4963
C9 C 0.6562(2) 0.0490(2) 0.7266(18)
H6 H 0.6775 0.0461 0.8363
H7 H 0.6480 0.0334 0.5138
H8 H 0.6332 0.0392 0.8817
N2 N 0.6675(3) 0.2435(3) 0.094(3)
O3 O 0.6985(3) 0.2734(3) 0.138(4)
O4 O 0.6389(3) 0.2444(3) -0.051(4)
H9 H 0.5847(9) 0.0591(9) 0.332(8)
H10 H 0.5440(9) 0.0444(9) 0.123(7)
O5 O 0.87782(16) 0.30760(11) -0.6298(9)
O6 O 0.77920(17) 0.22368(12) -0.0851(11)
N3 N 0.83528(20) 0.23553(14) -0.3441(13)
C10 C 0.80993(21) 0.24605(14) -0.2569(14)
C11 C 0.84810(25) 0.31550(17) -0.5354(12)
C12 C 0.81522(23) 0.28538(16) -0.3569(12)
C13 C 0.78433(22) 0.29319(16) -0.2599(14)
H11 H 0.7616 0.2733 -0.1405
C14 C 0.85034(25) 0.35295(17) -0.6088(14)
H12 H 0.8729 0.3734 -0.7263
C15 C 0.9383(3) 0.3203(2) -0.8882(16)
H13 H 0.9627 0.3397 -1.0092
H14 H 0.9229 0.2968 -1.0339
H15 H 0.9457 0.3121 -0.6754
C16 C 0.82047(23) 0.35912(16) -0.5115(15)
H16 H 0.8221 0.3841 -0.5620
C17 C 0.78671(26) 0.32943(19) -0.3360(17)
C18 C 0.91352(27) 0.33916(18) -0.8057(15)
H17 H 0.9285 0.3628 -0.6548
H18 H 0.9058 0.3478 -1.0176
H19 H 0.860(3) 0.263(2) -0.37(2)
O9 O 0.6667 0.3333 -0.24(3)
N5 N 0.5287(8) -0.0302(13) 0.438(6)
O10 O 0.50691(19) -0.0171(2) 0.363(2)
O11 O 0.5065(4) -0.0694(5) 0.518(3)
O12 O 0.56502(19) -0.0117(2) 0.455(2)
N8 N 0.4701(7) 0.0325(9) -0.212(5)
O19 O 0.4377(6) 0.0084(6) -0.377(4)
O20 O 0.48846(18) 0.07094(18) -0.2383(16)
O21 O 0.4810(2) 0.02208(19) 0.0218(18)
O5B O 0.42978(19) 0.12218(16) -0.6298(9)
O6B O 0.44448(21) 0.22080(17) -0.0851(11)
N3B N 0.40025(24) 0.16472(20) -0.3441(13)
C10B C 0.43612(25) 0.19007(21) -0.2569(14)
C11B C 0.46740(30) 0.15190(25) -0.5354(12)
C12B C 0.47016(28) 0.18478(23) -0.3569(12)
C13B C 0.50886(27) 0.21567(22) -0.2599(14)
H11B H 0.5117 0.2384 -0.1405
C14B C 0.50261(30) 0.14966(25) -0.6088(14)
H12B H 0.5005 0.1271 -0.7263
C15B C 0.3820(4) 0.0617(3) -0.8882(16)
H13B H 0.3770 0.0373 -1.0092
H14B H 0.3739 0.0771 -1.0339
H15B H 0.3664 0.0543 -0.6754
C16B C 0.53865(28) 0.17953(23) -0.5115(15)
H16B H 0.5620 0.1779 -0.5620
C17B C 0.54272(32) 0.21329(26) -0.3360(17)
C18B C 0.42564(32) 0.08648(27) -0.8057(15)
H17B H 0.4343 0.0715 -0.6548
H18B H 0.4420 0.0942 -1.0176
H19B H 0.403(4) 0.140(3) -0.37(2)
O1A O 0.90312(12) 0.54407(16) 0.4825(10)
O2A O 0.88841(11) 0.44560(16) -0.0687(11)
N1A N 0.93412(14) 0.50372(20) 0.1835(13)
C1A C 0.86636(16) 0.51590(22) 0.3860(13)
C2A C 0.86235(16) 0.48219(22) 0.2044(12)
C3A C 0.82508(17) 0.45233(25) 0.1078(15)
H1A H 0.8226 0.4299 -0.0150
C4A C 0.89651(15) 0.47691(22) 0.1046(13)
C5A C 0.83279(19) 0.51782(25) 0.4549(13)
H2A H 0.8350 0.5405 0.5714
C6A C 0.7947(2) 0.48641(27) 0.3547(17)
H3A H 0.7714 0.4879 0.4065
C7A C 0.79128(19) 0.45414(26) 0.1848(17)
C8A C 0.90803(16) 0.57945(22) 0.6477(14)
H4A H 0.8922 0.5719 0.8624
H5A H 0.8979 0.5930 0.4963
C9A C 0.9510(2) 0.6072(3) 0.7266(18)
H6A H 0.9539 0.6314 0.8363
H7A H 0.9666 0.6146 0.5138
H8A H 0.9608 0.5940 0.8817
N2A N 0.7565(3) 0.4240(4) 0.094(3)
O3A O 0.7266(3) 0.4251(4) 0.138(4)
O4A O 0.7556(3) 0.3945(4) -0.051(4)
H9A H 0.9409(9) 0.5256(13) 0.332(8)
H10A H 0.9556(9) 0.4996(13) 0.123(7)
O1B O 0.45593(16) 0.35905(11) 0.4825(10)
O2B O 0.55440(16) 0.44281(12) -0.0687(11)
N1B N 0.49628(20) 0.43040(14) 0.1835(13)
C1B C 0.48410(22) 0.35046(15) 0.3860(13)
C2B C 0.51781(22) 0.38016(15) 0.2044(12)
C3B C 0.54767(25) 0.37275(18) 0.1078(15)
H1B H 0.5701 0.3927 -0.0150
C4B C 0.52309(22) 0.41960(16) 0.1046(13)
C5B C 0.48218(25) 0.31497(16) 0.4549(13)
H2B H 0.4595 0.2945 0.5714
C6B C 0.51359(27) 0.30829(18) 0.3547(17)
H3B H 0.5121 0.2835 0.4065
C7B C 0.54586(26) 0.33714(18) 0.1848(17)
C8B C 0.42055(22) 0.32858(15) 0.6477(14)
H4B H 0.4281 0.3203 0.8624
H5B H 0.4070 0.3049 0.4963
C9B C 0.3928(3) 0.3438(2) 0.7266(18)
H6B H 0.3686 0.3225 0.8363
H7B H 0.3854 0.3520 0.5138
H8B H 0.4060 0.3668 0.8817
N2B N 0.5760(4) 0.3325(3) 0.094(3)
O3B O 0.5749(4) 0.3015(3) 0.138(4)
O4B O 0.6055(4) 0.3611(3) -0.051(4)
H9B H 0.4744(13) 0.4153(9) 0.332(8)
H10B H 0.5004(13) 0.4560(9) 0.123(7)
O5A O 0.69240(11) 0.57022(19) -0.6298(9)
O6A O 0.77632(12) 0.55552(21) -0.0851(11)
N3A N 0.76447(14) 0.59975(24) -0.3441(13)
C10A C 0.75395(14) 0.56388(25) -0.2569(14)
C11A C 0.68450(17) 0.53260(30) -0.5354(12)
C12A C 0.71462(16) 0.52984(28) -0.3569(12)
C13A C 0.70681(16) 0.49114(27) -0.2599(14)
H11A H 0.7267 0.4883 -0.1405
C14A C 0.64705(17) 0.49739(30) -0.6088(14)
H12A H 0.6266 0.4995 -0.7263
C15A C 0.6797(2) 0.6180(4) -0.8882(16)
H13A H 0.6603 0.6230 -1.0092
H14A H 0.7032 0.6261 -1.0339
H15A H 0.6879 0.6336 -0.6754
C16A C 0.64088(16) 0.46135(28) -0.5115(15)
H16A H 0.6159 0.4380 -0.5620
C17A C 0.67057(19) 0.45728(32) -0.3360(17)
C18A C 0.66084(18) 0.57436(32) -0.8057(15)
H17A H 0.6372 0.5657 -0.6548
H18A H 0.6522 0.5580 -1.0176
H19A H 0.737(2) 0.597(4) -0.37(2)
N4? N 0.7562(8) 0.3375(5) -0.229(6)
O7? O 0.7598(8) 0.3713(6) -0.303(8)
O8? O 0.7266(8) 0.3121(6) -0.040(7)
N6? N 0.5293(13) -0.033(2) 0.378(11)
O13? O 0.5177(3) -0.0247(3) 0.152(4)
O14? O 0.5131(8) -0.0681(8) 0.390(6)
O15? O 0.5558(3) -0.0099(4) 0.609(3)
N7? N 0.4734(10) 0.0307(13) -0.281(7)
O16? O 0.4360(8) 0.0140(8) -0.265(7)
O17? O 0.4971(2) 0.0636(2) -0.407(2)
O18? O 0.4928(3) 0.0163(3) -0.213(2)
loop_
_geom_bond_atom_site_label_1
_geom_bond_atom_site_label_2
_geom_bond_site_symmetry_1
_geom_bond_site_symmetry_2
O1 C1 1_555 1_555
O2 C4 1_555 1_555
N1 C4 1_555 1_555
C1 C2 1_555 1_555
C2 C3 1_555 1_555
C3 H1 1_555 1_555
C4 C2 1_555 1_555
C5 C1 1_555 1_555
H2 C5 1_555 1_555
C6 C5 1_555 1_555
H3 C6 1_555 1_555
C7 C3 1_555 1_555
C8 O1 1_555 1_555
H4 C8 1_555 1_555
H5 C8 1_555 1_555
C9 C8 1_555 1_555
H6 C9 1_555 1_555
H7 C9 1_555 1_555
H8 C9 1_555 1_555
N2 C7 1_555 1_555
O3 N2 1_555 1_555
O4 N2 1_555 1_555
H9 N1 1_555 1_555
H10 N1 1_555 1_555
O5 C11 1_555 1_555
O6 C10 1_555 1_555
N3 C10 1_555 1_555
C10 C12 1_555 1_555
C11 C12 1_555 1_555
C12 C13 1_555 1_555
C13 H11 1_555 1_555
C14 C11 1_555 1_555
H12 C14 1_555 1_555
C15 H13 1_555 1_555
H14 C15 1_555 1_555
H15 C15 1_555 1_555
C16 C14 1_555 1_555
H16 C16 1_555 1_555
C17 C13 1_555 1_555
C18 O5 1_555 1_555
H17 C18 1_555 1_555
H18 C18 1_555 1_555
H19 N3 1_555 1_555
N5 O10 1_555 1_555
O11 N5 1_555 1_555
O12 N5 1_555 1_555
N8 O19 1_555 1_555
O20 N8 1_555 1_555
O21 N8 1_555 1_555
O5B C11B 1_555 1_555
O6B C10B 1_555 1_555
N3B C10B 1_555 1_555
C10B C12B 1_555 1_555
C11B C12B 1_555 1_555
C12B C13B 1_555 1_555
C13B H11B 1_555 1_555
C14B C11B 1_555 1_555
H12B C14B 1_555 1_555
C15B H13B 1_555 1_555
H14B C15B 1_555 1_555
H15B C15B 1_555 1_555
C16B C14B 1_555 1_555
H16B C16B 1_555 1_555
C17B C13B 1_555 1_555
C18B O5B 1_555 1_555
H17B C18B 1_555 1_555
H18B C18B 1_555 1_555
H19B N3B 1_555 1_555
O1A C1A 1_555 1_555
O2A C4A 1_555 1_555
N1A C4A 1_555 1_555
C1A C2A 1_555 1_555
C2A C3A 1_555 1_555
C3A H1A 1_555 1_555
C4A C2A 1_555 1_555
C5A C1A 1_555 1_555
H2A C5A 1_555 1_555
C6A C5A 1_555 1_555
H3A C6A 1_555 1_555
C7A C3A 1_555 1_555
C8A O1A 1_555 1_555
H4A C8A 1_555 1_555
H5A C8A 1_555 1_555
C9A C8A 1_555 1_555
H6A C9A 1_555 1_555
H7A C9A 1_555 1_555
H8A C9A 1_555 1_555
N2A C7A 1_555 1_555
O3A N2A 1_555 1_555
O4A N2A 1_555 1_555
H9A N1A 1_555 1_555
H10A N1A 1_555 1_555
O1B C1B 1_555 1_555
O2B C4B 1_555 1_555
N1B C4B 1_555 1_555
C1B C2B 1_555 1_555
C2B C3B 1_555 1_555
C3B H1B 1_555 1_555
C4B C2B 1_555 1_555
C5B C1B 1_555 1_555
H2B C5B 1_555 1_555
C6B C5B 1_555 1_555
H3B C6B 1_555 1_555
C7B C3B 1_555 1_555
C8B O1B 1_555 1_555
H4B C8B 1_555 1_555
H5B C8B 1_555 1_555
C9B C8B 1_555 1_555
H6B C9B 1_555 1_555
H7B C9B 1_555 1_555
H8B C9B 1_555 1_555
N2B C7B 1_555 1_555
O3B N2B 1_555 1_555
O4B N2B 1_555 1_555
H9B N1B 1_555 1_555
H10B N1B 1_555 1_555
O5A C11A 1_555 1_555
O6A C10A 1_555 1_555
N3A C10A 1_555 1_555
C10A C12A 1_555 1_555
C11A C12A 1_555 1_555
C12A C13A 1_555 1_555
C13A H11A 1_555 1_555
C14A C11A 1_555 1_555
H12A C14A 1_555 1_555
C15A H13A 1_555 1_555
H14A C15A 1_555 1_555
H15A C15A 1_555 1_555
C16A C14A 1_555 1_555
H16A C16A 1_555 1_555
C17A C13A 1_555 1_555
C18A O5A 1_555 1_555
H17A C18A 1_555 1_555
H18A C18A 1_555 1_555
H19A N3A 1_555 1_555
C6 C7 1_555 1_555
C15 C18 1_555 1_555
C16 C17 1_555 1_555
C15B C18B 1_555 1_555
C16B C17B 1_555 1_555
C6A C7A 1_555 1_555
C6B C7B 1_555 1_555
C15A C18A 1_555 1_555
C16A C17A 1_555 1_555

#END
