
#######################################################################
#
#                 Cambridge Crystallographic Data Centre
#                                CCDC 
#
#######################################################################
#
# If this CIF has been generated from an entry in the Cambridge 
# Structural Database, then it will include bibliographic, chemical, 
# crystal, experimental, refinement or atomic coordinate data resulting 
# from the CCDC's data processing and validation procedures.
#
#######################################################################

data_ZIMCAB
_chemical_name_common            'Ethenzamide perchlorate'
_chemical_formula_moiety         'C9 H12 N1 O2 1+,Cl1 O4 1-'
_chemical_name_systematic        
'(2-Ethoxyphenyl)(hydroxy)methaniminium perchlorate'
_symmetry_cell_setting           monoclinic
_symmetry_space_group_name_H-M   'P 21/c'
_symmetry_Int_Tables_number      14
_space_group_name_Hall           '-P 2ybc'
loop_
_symmetry_equiv_pos_site_id
_symmetry_equiv_pos_as_xyz
1 x,y,z
2 -x,1/2+y,1/2-z
3 -x,-y,-z
4 x,1/2-y,1/2+z
_cell_length_a                   6.7925(17)
_cell_length_b                   14.670(4)
_cell_length_c                   11.674(3)
_cell_angle_alpha                90
_cell_angle_beta                 95.785(3)
_cell_angle_gamma                90
_cell_volume                     1157.34
_cell_formula_units_Z            4
loop_
_atom_site_label
_atom_site_type_symbol
_atom_site_fract_x
_atom_site_fract_y
_atom_site_fract_z
Cl1 Cl 0.26405(8) 0.62584(3) 0.44440(4)
O1 O 0.2847(3) 0.67701(9) 0.55244(12)
O2 O 0.0990(3) 0.66054(12) 0.37297(15)
O3 O 0.2337(3) 0.53164(10) 0.46992(13)
O4 O 0.4388(3) 0.63750(14) 0.38857(17)
O5 O 0.2186(2) 0.36642(8) 0.89128(11)
O6 O 0.3030(3) 0.62461(10) 0.76420(12)
C1 C 0.2352(3) 0.43014(14) 1.08350(16)
C2 C 0.2581(3) 0.52585(12) 0.91651(15)
C3 C 0.2550(3) 0.50631(14) 1.15347(16)
C4 C 0.2599(3) 0.54147(12) 0.79299(16)
C5 C 0.2358(3) 0.43866(12) 0.96471(15)
N1 N 0.2210(3) 0.47969(12) 0.71503(15)
C6 C 0.2764(3) 0.59277(14) 1.10739(17)
C7 C 0.2098(3) 0.27527(13) 0.93938(18)
C8 C 0.2776(3) 0.60198(13) 0.99000(17)
C9 C 0.2041(4) 0.21012(15) 0.8397(2)
H1 H 0.293(3) 0.6587(16) 0.9573(19)
H2 H 0.331(4) 0.2654(16) 0.997(2)
H3 H 0.255(4) 0.4951(14) 1.2339(19)
H4 H 0.319(5) 0.2179(18) 0.795(2)
H5 H 0.291(3) 0.6437(15) 1.1537(19)
H6 H 0.222(4) 0.3742(16) 1.115(2)
H7 H 0.195(4) 0.425(2) 0.735(2)
H8 H 0.101(4) 0.2689(15) 0.981(2)
H9 H 0.089(5) 0.2218(18) 0.788(3)
H10 H 0.296(4) 0.6335(18) 0.694(2)
H11 H 0.216(5) 0.147(2) 0.872(3)
H12 H 0.224(4) 0.4908(17) 0.641(2)
loop_
_geom_bond_atom_site_label_1
_geom_bond_atom_site_label_2
_geom_bond_site_symmetry_1
_geom_bond_site_symmetry_2
Cl1 O1 1_555 1_555
O2 Cl1 1_555 1_555
O3 Cl1 1_555 1_555
O4 Cl1 1_555 1_555
O5 C5 1_555 1_555
O6 C4 1_555 1_555
C1 C3 1_555 1_555
C2 C4 1_555 1_555
C3 C6 1_555 1_555
C4 N1 1_555 1_555
C5 C1 1_555 1_555
N1 H7 1_555 1_555
C6 C8 1_555 1_555
C7 O5 1_555 1_555
C8 C2 1_555 1_555
C9 C7 1_555 1_555
H1 C8 1_555 1_555
H2 C7 1_555 1_555
H3 C3 1_555 1_555
H4 C9 1_555 1_555
H5 C6 1_555 1_555
H6 C1 1_555 1_555
H8 C7 1_555 1_555
H9 C9 1_555 1_555
H10 O6 1_555 1_555
H11 C9 1_555 1_555
H12 N1 1_555 1_555
C2 C5 1_555 1_555

#END
