
#######################################################################
#
#                 Cambridge Crystallographic Data Centre
#                                CCDC 
#
#######################################################################
#
# If this CIF has been generated from an entry in the Cambridge 
# Structural Database, then it will include bibliographic, chemical, 
# crystal, experimental, refinement or atomic coordinate data resulting 
# from the CCDC's data processing and validation procedures.
#
#######################################################################

data_ZIMCAC
_chemical_formula_moiety         'C21 H15 N1 S1'
_chemical_name_systematic        N,2-diphenyl-4H-1-benzothiopyran-4-imine
_symmetry_cell_setting           triclinic
_symmetry_space_group_name_H-M   'P -1'
_symmetry_Int_Tables_number      2
_space_group_name_Hall           '-P 1'
loop_
_symmetry_equiv_pos_site_id
_symmetry_equiv_pos_as_xyz
1 x,y,z
2 -x,-y,-z
_cell_length_a                   6.1542(7)
_cell_length_b                   11.9256(12)
_cell_length_c                   12.3170(14)
_cell_angle_alpha                109.823(4)
_cell_angle_beta                 98.135(4)
_cell_angle_gamma                104.068(4)
_cell_volume                     799.681
_exptl_crystal_colour            'pale yellow'
_exptl_crystal_description       block
_cell_formula_units_Z            2
loop_
_atom_site_label
_atom_site_type_symbol
_atom_site_fract_x
_atom_site_fract_y
_atom_site_fract_z
N1 N 0.2718(5) -0.0096(2) 0.6328(2)
S1 S 0.75580(18) 0.34733(9) 0.91533(9)
C1 C 0.5000(6) 0.3247(3) 0.8174(3)
C2 C 0.4381(7) 0.4326(3) 0.8323(3)
H1 H 0.5331 0.5092 0.8901
C3 C 0.2402(8) 0.4268(4) 0.7632(3)
H2 H 0.2004 0.4995 0.7734
C4 C 0.0976(7) 0.3133(4) 0.6778(3)
H3 H -0.0394 0.3093 0.6314
C5 C 0.1577(6) 0.2069(3) 0.6614(3)
H4 H 0.0610 0.1310 0.6032
C6 C 0.3611(6) 0.2097(3) 0.7300(3)
C7 C 0.4181(6) 0.0924(3) 0.7132(3)
C8 C 0.6212(6) 0.0962(3) 0.7901(3)
H5 H 0.6504 0.0203 0.7764
C9 C 0.7724(6) 0.1968(3) 0.8789(3)
C10 C 0.9728(6) 0.1904(3) 0.9565(3)
C11 C 1.0510(7) 0.2689(4) 1.0754(3)
H6 H 0.9780 0.3275 1.1077
C12 C 1.2362(8) 0.2612(4) 1.1468(4)
H7 H 1.2873 0.3149 1.2268
C13 C 1.3445(7) 0.1755(5) 1.1009(4)
H8 H 1.4706 0.1713 1.1490
C14 C 1.2663(7) 0.0951(4) 0.9827(4)
H9 H 1.3373 0.0351 0.9512
C15 C 1.0821(6) 0.1038(3) 0.9112(3)
H10 H 1.0315 0.0502 0.8312
C16 C 0.3044(6) -0.1277(3) 0.6122(3)
C17 C 0.1508(6) -0.2134(3) 0.6396(3)
H11 H 0.0366 -0.1904 0.6755
C18 C 0.1654(7) -0.3320(3) 0.6143(3)
H12 H 0.0619 -0.3882 0.6342
C19 C 0.3302(7) -0.3690(3) 0.5600(3)
H13 H 0.3390 -0.4497 0.5430
C20 C 0.4817(7) -0.2849(4) 0.5312(3)
H14 H 0.5931 -0.3092 0.4935
C21 C 0.4708(6) -0.1643(3) 0.5576(3)
H15 H 0.5758 -0.1079 0.5386
loop_
_geom_bond_atom_site_label_1
_geom_bond_atom_site_label_2
_geom_bond_site_symmetry_1
_geom_bond_site_symmetry_2
N1 C7 1_555 1_555
S1 C1 1_555 1_555
C1 C2 1_555 1_555
C2 H1 1_555 1_555
C3 C2 1_555 1_555
H2 C3 1_555 1_555
C4 C3 1_555 1_555
H3 C4 1_555 1_555
C5 C4 1_555 1_555
H4 C5 1_555 1_555
C6 C1 1_555 1_555
C7 C6 1_555 1_555
C8 C7 1_555 1_555
H5 C8 1_555 1_555
C9 S1 1_555 1_555
C10 C9 1_555 1_555
C11 C10 1_555 1_555
H6 C11 1_555 1_555
C12 C11 1_555 1_555
H7 C12 1_555 1_555
C13 C12 1_555 1_555
H8 C13 1_555 1_555
C14 C13 1_555 1_555
H9 C14 1_555 1_555
C15 C10 1_555 1_555
H10 C15 1_555 1_555
C16 N1 1_555 1_555
C17 C16 1_555 1_555
H11 C17 1_555 1_555
C18 C17 1_555 1_555
H12 C18 1_555 1_555
C19 C18 1_555 1_555
H13 C19 1_555 1_555
C20 C19 1_555 1_555
H14 C20 1_555 1_555
C21 C16 1_555 1_555
H15 C21 1_555 1_555
C5 C6 1_555 1_555
C8 C9 1_555 1_555
C14 C15 1_555 1_555
C20 C21 1_555 1_555

#END
