
#######################################################################
#
#                 Cambridge Crystallographic Data Centre
#                                CCDC 
#
#######################################################################
#
# If this CIF has been generated from an entry in the Cambridge 
# Structural Database, then it will include bibliographic, chemical, 
# crystal, experimental, refinement or atomic coordinate data resulting 
# from the CCDC's data processing and validation procedures.
#
#######################################################################

data_ZIMCOQ
_chemical_formula_moiety         'C33 H29 N1 O4 S1'
_chemical_name_systematic        
'4-{benzyl[(4-methylphenyl)sulfonyl]amino}-3-methylnaphthalen-2-yl phenylacetate'
_symmetry_cell_setting           monoclinic
_symmetry_space_group_name_H-M   'P 21/c'
_symmetry_Int_Tables_number      14
_space_group_name_Hall           '-P 2ybc'
loop_
_symmetry_equiv_pos_site_id
_symmetry_equiv_pos_as_xyz
1 x,y,z
2 -x,1/2+y,1/2-z
3 -x,-y,-z
4 x,1/2-y,1/2+z
_cell_length_a                   15.4446(6)
_cell_length_b                   9.1154(3)
_cell_length_c                   19.6449(7)
_cell_angle_alpha                90
_cell_angle_beta                 100.925(2)
_cell_angle_gamma                90
_cell_volume                     2715.56
_exptl_crystal_colour            colorless
_exptl_crystal_description       block
_cell_formula_units_Z            4
loop_
_atom_site_label
_atom_site_type_symbol
_atom_site_fract_x
_atom_site_fract_y
_atom_site_fract_z
S1 S 0.79036(3) 0.83350(5) 0.50144(2)
O1 O 0.54405(8) 0.35973(14) 0.49883(7)
O2 O 0.62763(13) 0.1824(2) 0.46792(14)
O3 O 0.83905(12) 0.84887(15) 0.44670(7)
O4 O 0.69757(10) 0.85681(16) 0.48889(8)
N1 N 0.80671(9) 0.66717(14) 0.53090(7)
C1 C 0.67409(11) 0.51469(18) 0.51213(8)
C2 C 0.74007(10) 0.58637(17) 0.55711(8)
C3 C 0.74677(11) 0.57931(17) 0.63056(8)
C4 C 0.80925(13) 0.66018(19) 0.67775(9)
H1 H 0.8507 0.7175 0.6613
C5 C 0.80937(15) 0.6550(2) 0.74741(10)
H2 H 0.8499 0.7112 0.7776
C6 C 0.74988(17) 0.5674(3) 0.77384(10)
H3 H 0.7515 0.5646 0.8214
C7 C 0.68952(15) 0.4858(2) 0.73064(10)
H4 H 0.6503 0.4267 0.7488
C8 C 0.68585(12) 0.49022(19) 0.65777(8)
C9 C 0.62106(13) 0.4125(2) 0.61140(10)
H5 H 0.5817 0.3518 0.6284
C10 C 0.61615(11) 0.42622(18) 0.54226(9)
C11 C 0.55594(14) 0.2339(2) 0.46566(11)
C12 C 0.46897(15) 0.1791(3) 0.42875(13)
H6 H 0.4328 0.2636 0.4124
H7 H 0.4409 0.1292 0.4624
C13 C 0.46691(12) 0.07673(19) 0.36795(9)
C14 C 0.52729(14) -0.0341(2) 0.36721(10)
H8 H 0.5741 -0.0451 0.4044
C15 C 0.51862(17) -0.1294(3) 0.31121(13)
H9 H 0.5596 -0.2041 0.3112
C16 C 0.45038(19) -0.1147(3) 0.25594(12)
H10 H 0.4452 -0.1783 0.2184
C17 C 0.38946(18) -0.0046(3) 0.25652(11)
H11 H 0.3422 0.0051 0.2196
C18 C 0.39829(14) 0.0910(3) 0.31155(11)
H12 H 0.3576 0.1664 0.3109
C19 C 0.89097(11) 0.5909(2) 0.52920(9)
H13 H 0.9107 0.5407 0.5729
H14 H 0.9355 0.6626 0.5235
C20 C 0.88105(12) 0.48112(19) 0.47074(9)
C21 C 0.85922(17) 0.3377(2) 0.48077(12)
H15 H 0.8554 0.3055 0.5250
C22 C 0.8429(2) 0.2408(2) 0.42567(14)
H16 H 0.8278 0.1441 0.4330
C23 C 0.8488(2) 0.2864(3) 0.36059(13)
H17 H 0.8369 0.2214 0.3235
C24 C 0.87237(19) 0.4279(3) 0.35011(12)
H18 H 0.8776 0.4587 0.3059
C25 C 0.88847(16) 0.5254(2) 0.40485(10)
H19 H 0.9044 0.6215 0.3973
C26 C 0.83809(12) 0.95778(18) 0.56678(9)
C27 C 0.92824(13) 0.9819(2) 0.57959(11)
H20 H 0.9644 0.9277 0.5561
C28 C 0.96432(14) 1.0870(2) 0.62756(11)
H21 H 1.0249 1.1024 0.6364
C29 C 0.91144(14) 1.16930(19) 0.66251(9)
C30 C 0.82263(14) 1.1424(2) 0.64976(10)
H22 H 0.7868 1.1955 0.6739
C31 C 0.78454(13) 1.0376(2) 0.60168(10)
H23 H 0.7240 1.0218 0.5933
C32 C 0.95064(18) 1.2904(3) 0.71124(12)
H24 H 0.9044 1.3529 0.7208
H25 H 0.9909 1.3469 0.6902
H26 H 0.9816 1.2483 0.7538
C33 C 0.66037(13) 0.5288(2) 0.43460(9)
H27 H 0.7036 0.5945 0.4225
H28 H 0.6024 0.5667 0.4172
H29 H 0.6664 0.4342 0.4145
loop_
_geom_bond_atom_site_label_1
_geom_bond_atom_site_label_2
_geom_bond_site_symmetry_1
_geom_bond_site_symmetry_2
S1 O3 1_555 1_555
O1 C10 1_555 1_555
O2 C11 1_555 1_555
O4 S1 1_555 1_555
N1 S1 1_555 1_555
C1 C2 1_555 1_555
C2 N1 1_555 1_555
C3 C2 1_555 1_555
C4 C3 1_555 1_555
H1 C4 1_555 1_555
C5 C4 1_555 1_555
H2 C5 1_555 1_555
C6 C5 1_555 1_555
H3 C6 1_555 1_555
C7 C6 1_555 1_555
H4 C7 1_555 1_555
C8 C3 1_555 1_555
C9 C8 1_555 1_555
H5 C9 1_555 1_555
C10 C1 1_555 1_555
C11 O1 1_555 1_555
C12 C11 1_555 1_555
H6 C12 1_555 1_555
H7 C12 1_555 1_555
C13 C12 1_555 1_555
C14 C13 1_555 1_555
H8 C14 1_555 1_555
C15 C14 1_555 1_555
H9 C15 1_555 1_555
C16 C15 1_555 1_555
H10 C16 1_555 1_555
C17 C16 1_555 1_555
H11 C17 1_555 1_555
C18 C13 1_555 1_555
H12 C18 1_555 1_555
C19 N1 1_555 1_555
H13 C19 1_555 1_555
H14 C19 1_555 1_555
C20 C19 1_555 1_555
C21 C20 1_555 1_555
H15 C21 1_555 1_555
C22 C21 1_555 1_555
H16 C22 1_555 1_555
C23 C22 1_555 1_555
H17 C23 1_555 1_555
C24 C23 1_555 1_555
H18 C24 1_555 1_555
C25 C20 1_555 1_555
H19 C25 1_555 1_555
C26 S1 1_555 1_555
C27 C26 1_555 1_555
H20 C27 1_555 1_555
C28 C27 1_555 1_555
H21 C28 1_555 1_555
C29 C28 1_555 1_555
C30 C29 1_555 1_555
H22 C30 1_555 1_555
C31 C26 1_555 1_555
H23 C31 1_555 1_555
C32 C29 1_555 1_555
H24 C32 1_555 1_555
H25 C32 1_555 1_555
H26 C32 1_555 1_555
C33 C1 1_555 1_555
H27 C33 1_555 1_555
H28 C33 1_555 1_555
H29 C33 1_555 1_555
C7 C8 1_555 1_555
C9 C10 1_555 1_555
C17 C18 1_555 1_555
C24 C25 1_555 1_555
C30 C31 1_555 1_555

#END
