
#######################################################################
#
#                 Cambridge Crystallographic Data Centre
#                                CCDC 
#
#######################################################################
#
# If this CIF has been generated from an entry in the Cambridge 
# Structural Database, then it will include bibliographic, chemical, 
# crystal, experimental, refinement or atomic coordinate data resulting 
# from the CCDC's data processing and validation procedures.
#
#######################################################################

data_ZIMKUE
_chemical_formula_moiety         'C20 H22 I1 N1 O4'
_chemical_name_systematic        
'diethyl {[(4-iodophenyl)amino](phenyl)methyl}propanedioate'
_symmetry_cell_setting           triclinic
_symmetry_space_group_name_H-M   'P -1'
_symmetry_Int_Tables_number      2
_space_group_name_Hall           '-P 1'
loop_
_symmetry_equiv_pos_site_id
_symmetry_equiv_pos_as_xyz
1 x,y,z
2 -x,-y,-z
_cell_length_a                   9.3949(7)
_cell_length_b                   11.0238(8)
_cell_length_c                   11.0310(8)
_cell_angle_alpha                94.7790(10)
_cell_angle_beta                 101.8680(10)
_cell_angle_gamma                110.0880(10)
_cell_volume                     1035.18
_exptl_crystal_colour            colorless
_exptl_crystal_description       block
_cell_formula_units_Z            2
loop_
_atom_site_label
_atom_site_type_symbol
_atom_site_fract_x
_atom_site_fract_y
_atom_site_fract_z
I1 I 0.56480(3) 0.35400(2) 1.092943(16)
O1 O 1.10437(18) 0.39519(15) 0.49530(17)
O2 O 1.00544(19) 0.18614(15) 0.52189(17)
O3 O 0.6895(2) 0.04592(17) 0.29529(19)
O4 O 0.8525(2) 0.18814(16) 0.20569(15)
N1 N 0.8047(2) 0.34754(16) 0.60215(16)
H1 H 0.848(3) 0.4246(13) 0.587(2)
C1 C 0.7493(2) 0.34649(19) 0.70952(18)
C2 C 0.8243(3) 0.4525(2) 0.8082(2)
H2 H 0.9103 0.5224 0.8005
C3 C 0.7735(3) 0.4554(2) 0.9163(2)
H3 H 0.8243 0.5275 0.9802
C4 C 0.6476(3) 0.3519(2) 0.9304(2)
C5 C 0.5730(3) 0.2452(2) 0.8349(2)
H4 H 0.4891 0.1745 0.8444
C6 C 0.6224(3) 0.2428(2) 0.7255(2)
H5 H 0.5702 0.1709 0.6615
C7 C 0.5617(2) 0.2467(2) 0.42645(18)
C8 C 0.4333(3) 0.1306(3) 0.3861(2)
H6 H 0.4439 0.0514 0.3985
C9 C 0.2878(3) 0.1325(4) 0.3268(3)
H7 H 0.2019 0.0542 0.2995
C10 C 0.2705(3) 0.2471(4) 0.3085(3)
H8 H 0.1730 0.2472 0.2693
C11 C 0.3967(3) 0.3628(3) 0.3476(2)
H9 H 0.3851 0.4415 0.3344
C12 C 0.5407(3) 0.3624(2) 0.4067(2)
H10 H 0.6255 0.4414 0.4339
C13 C 0.7216(2) 0.24719(19) 0.49124(18)
H11 H 0.7066 0.1616 0.5169
C14 C 0.8322(2) 0.26831(19) 0.40209(19)
H12 H 0.8339 0.3464 0.3651
C15 C 0.9966(2) 0.2921(2) 0.4774(2)
C16 C 1.1511(3) 0.2010(3) 0.6113(3)
H13 H 1.2389 0.2645 0.5896
H14 H 1.1656 0.1179 0.6074
C17 C 1.1461(5) 0.2449(4) 0.7394(3)
H15 H 1.1413 0.3307 0.7450
H16 H 1.2385 0.2477 0.7982
H17 H 1.0552 0.1849 0.7586
C18 C 0.7799(3) 0.1533(2) 0.2967(2)
C19 C 0.8084(4) 0.0884(3) 0.0955(3)
H18 H 0.6977 0.0617 0.0558
H19 H 0.8286 0.0121 0.1196
C20 C 0.9032(5) 0.1456(4) 0.0068(3)
H20 H 0.8668 0.0858 -0.0712
H21 H 1.0113 0.1610 0.0426
H22 H 0.8925 0.2270 -0.0082
loop_
_geom_bond_atom_site_label_1
_geom_bond_atom_site_label_2
_geom_bond_site_symmetry_1
_geom_bond_site_symmetry_2
I1 C4 1_555 1_555
O1 C15 1_555 1_555
O2 C15 1_555 1_555
O3 C18 1_555 1_555
O4 C18 1_555 1_555
N1 H1 1_555 1_555
C1 N1 1_555 1_555
C2 C1 1_555 1_555
H2 C2 1_555 1_555
C3 C2 1_555 1_555
H3 C3 1_555 1_555
C4 C3 1_555 1_555
C5 C4 1_555 1_555
H4 C5 1_555 1_555
C6 C1 1_555 1_555
H5 C6 1_555 1_555
C7 C8 1_555 1_555
C8 H6 1_555 1_555
C9 C8 1_555 1_555
H7 C9 1_555 1_555
C10 C9 1_555 1_555
H8 C10 1_555 1_555
C11 C10 1_555 1_555
H9 C11 1_555 1_555
C12 C7 1_555 1_555
H10 C12 1_555 1_555
C13 N1 1_555 1_555
H11 C13 1_555 1_555
C14 C13 1_555 1_555
H12 C14 1_555 1_555
C15 C14 1_555 1_555
C16 O2 1_555 1_555
H13 C16 1_555 1_555
H14 C16 1_555 1_555
C17 C16 1_555 1_555
H15 C17 1_555 1_555
H16 C17 1_555 1_555
H17 C17 1_555 1_555
C18 C14 1_555 1_555
C19 O4 1_555 1_555
H18 C19 1_555 1_555
H19 C19 1_555 1_555
C20 C19 1_555 1_555
H20 C20 1_555 1_555
H21 C20 1_555 1_555
H22 C20 1_555 1_555
C5 C6 1_555 1_555
C7 C13 1_555 1_555
C11 C12 1_555 1_555

#END
