
#######################################################################
#
#                 Cambridge Crystallographic Data Centre
#                                CCDC 
#
#######################################################################
#
# If this CIF has been generated from an entry in the Cambridge 
# Structural Database, then it will include bibliographic, chemical, 
# crystal, experimental, refinement or atomic coordinate data resulting 
# from the CCDC's data processing and validation procedures.
#
#######################################################################

data_ZIMLAL
_chemical_formula_moiety         'C17 H15 N3 O2'
_chemical_name_systematic        
12-(methoxyimino)-7-methyl-7,12-dihydroindazolo[2,3-b]isoquinolin-7-ol
_symmetry_cell_setting           monoclinic
_symmetry_space_group_name_H-M   'P 21/n'
_symmetry_Int_Tables_number      14
_space_group_name_Hall           '-P 2yn'
loop_
_symmetry_equiv_pos_site_id
_symmetry_equiv_pos_as_xyz
1 x,y,z
2 1/2-x,1/2+y,1/2-z
3 -x,-y,-z
4 1/2+x,1/2-y,1/2+z
_cell_length_a                   8.8381(8)
_cell_length_b                   10.2546(11)
_cell_length_c                   16.1701(19)
_cell_angle_alpha                90
_cell_angle_beta                 99.358(10)
_cell_angle_gamma                90
_cell_volume                     1446.01
_exptl_crystal_colour            colorless
_exptl_crystal_description       block
_cell_formula_units_Z            4
loop_
_atom_site_label
_atom_site_type_symbol
_atom_site_fract_x
_atom_site_fract_y
_atom_site_fract_z
O1 O 0.58642(17) 0.52369(16) 0.12048(11)
H1 H 0.5101 0.5244 0.0841
O2 O 1.07000(18) 0.11375(18) 0.08394(12)
N1 N 0.6912(2) 0.4307(2) -0.01839(13)
N2 N 0.74392(19) 0.38351(19) 0.05834(13)
N3 N 1.0386(2) 0.1654(2) 0.15837(14)
C1 C 0.8027(2) 0.4021(2) -0.06400(17)
C2 C 0.8046(3) 0.4334(2) -0.14842(18)
H2 H 0.7217 0.4747 -0.1807
C3 C 0.9314(3) 0.4011(2) -0.18133(18)
H3 H 0.9348 0.4202 -0.2372
C4 C 1.0585(3) 0.3392(2) -0.13256(18)
H4 H 1.1449 0.3214 -0.1567
C5 C 1.0579(3) 0.3050(2) -0.05172(18)
H5 H 1.1420 0.2634 -0.0207
C6 C 0.9257(2) 0.3342(2) -0.01529(16)
C7 C 0.8817(2) 0.3214(2) 0.06382(16)
C8 C 0.9445(2) 0.2638(2) 0.14479(17)
C9 C 0.8932(2) 0.3196(2) 0.21909(16)
C10 C 0.7562(2) 0.3899(2) 0.20993(16)
C11 C 0.6504(2) 0.3996(2) 0.12609(17)
C12 C 0.5280(3) 0.2927(3) 0.11598(17)
H6 H 0.4653 0.3019 0.1588
H7 H 0.5768 0.2087 0.1209
H8 H 0.4652 0.3002 0.0619
C13 C 0.7116(3) 0.4488(2) 0.27952(17)
H9 H 0.6211 0.4968 0.2733
C14 C 0.7999(3) 0.4370(3) 0.35764(18)
H10 H 0.7690 0.4771 0.4037
C15 C 0.9345(3) 0.3657(3) 0.36759(18)
H11 H 0.9934 0.3571 0.4205
C16 C 0.9814(3) 0.3075(2) 0.29943(18)
H12 H 1.0721 0.2597 0.3065
C17 C 1.1689(3) 0.0031(3) 0.1024(2)
H13 H 1.1751 -0.0435 0.0516
H14 H 1.1285 -0.0533 0.1409
H15 H 1.2694 0.0321 0.1272
loop_
_geom_bond_atom_site_label_1
_geom_bond_atom_site_label_2
_geom_bond_site_symmetry_1
_geom_bond_site_symmetry_2
O1 H1 1_555 1_555
O2 N3 1_555 1_555
N1 N2 1_555 1_555
N2 C7 1_555 1_555
N3 C8 1_555 1_555
C1 N1 1_555 1_555
C2 C1 1_555 1_555
H2 C2 1_555 1_555
C3 C2 1_555 1_555
H3 C3 1_555 1_555
C4 C3 1_555 1_555
H4 C4 1_555 1_555
C5 C4 1_555 1_555
H5 C5 1_555 1_555
C6 C1 1_555 1_555
C7 C6 1_555 1_555
C8 C7 1_555 1_555
C9 C8 1_555 1_555
C10 C9 1_555 1_555
C11 O1 1_555 1_555
C12 C11 1_555 1_555
H6 C12 1_555 1_555
H7 C12 1_555 1_555
H8 C12 1_555 1_555
C13 C10 1_555 1_555
H9 C13 1_555 1_555
C14 C13 1_555 1_555
H10 C14 1_555 1_555
C15 C14 1_555 1_555
H11 C15 1_555 1_555
C16 C9 1_555 1_555
H12 C16 1_555 1_555
C17 O2 1_555 1_555
H13 C17 1_555 1_555
H14 C17 1_555 1_555
H15 C17 1_555 1_555
N2 C11 1_555 1_555
C5 C6 1_555 1_555
C10 C11 1_555 1_555
C15 C16 1_555 1_555

#END
