
#######################################################################
#
#                 Cambridge Crystallographic Data Centre
#                                CCDC 
#
#######################################################################
#
# If this CIF has been generated from an entry in the Cambridge 
# Structural Database, then it will include bibliographic, chemical, 
# crystal, experimental, refinement or atomic coordinate data resulting 
# from the CCDC's data processing and validation procedures.
#
#######################################################################

data_ZIMQOE
_chemical_formula_moiety         'C20 H12 N2 O1'
_chemical_name_systematic        
1-oxo-3-phenyl-1H-pyrido[1,2-a]quinoline-4-carbonitrile
_symmetry_cell_setting           monoclinic
_symmetry_space_group_name_H-M   'P 21/n'
_symmetry_Int_Tables_number      14
_space_group_name_Hall           '-P 2yn'
loop_
_symmetry_equiv_pos_site_id
_symmetry_equiv_pos_as_xyz
1 x,y,z
2 1/2-x,1/2+y,1/2-z
3 -x,-y,-z
4 1/2+x,1/2-y,1/2+z
_cell_length_a                   7.3201(5)
_cell_length_b                   6.9507(4)
_cell_length_c                   27.384(3)
_cell_angle_alpha                90
_cell_angle_beta                 94.654(8)
_cell_angle_gamma                90
_cell_volume                     1388.7
_exptl_crystal_colour            yellow
_exptl_crystal_description       plate
_cell_formula_units_Z            4
loop_
_atom_site_label
_atom_site_type_symbol
_atom_site_fract_x
_atom_site_fract_y
_atom_site_fract_z
O1 O 0.8322(5) 0.8549(5) 0.44106(13)
N1 N 0.7387(5) 0.5474(5) 0.46329(13)
N2 N 0.4352(5) 0.0320(6) 0.37063(15)
C1 C 0.7684(5) 0.4189(6) 0.54706(16)
C2 C 0.7952(5) 0.5711(6) 0.51449(16)
C3 C 0.6206(5) 0.4942(6) 0.36224(16)
C4 C 0.6954(6) 0.6648(7) 0.37885(17)
H1 H 0.7040 0.7636 0.3562
C5 C 0.6601(5) 0.3735(6) 0.44668(16)
C6 C 0.6880(6) 0.2422(6) 0.52878(17)
H2 H 0.6705 0.1414 0.5502
C7 C 0.6034(6) 0.3459(6) 0.39737(16)
C8 C 0.8793(6) 0.7419(6) 0.53410(17)
H3 H 0.9008 0.8448 0.5136
C9 C 0.7608(6) 0.7014(6) 0.42835(17)
C10 C 0.6382(6) 0.2219(7) 0.48097(17)
H4 H 0.5877 0.1058 0.4697
C11 C 0.5590(6) 0.4709(7) 0.30982(17)
C12 C 0.5129(6) 0.1700(7) 0.38291(17)
C13 C 0.6130(6) 0.3121(7) 0.28261(18)
H5 H 0.6844 0.2156 0.2980
C14 C 0.8190(6) 0.4375(7) 0.59717(17)
H6 H 0.7975 0.3365 0.6182
C15 C 0.4479(6) 0.6107(7) 0.28588(18)
H7 H 0.4109 0.7169 0.3033
C16 C 0.9006(6) 0.6039(7) 0.61584(18)
H8 H 0.9357 0.6154 0.6491
C17 C 0.9289(6) 0.7537(7) 0.58378(18)
H9 H 0.9833 0.8663 0.5962
C18 C 0.3922(7) 0.5933(8) 0.23669(18)
H10 H 0.3163 0.6862 0.2213
C19 C 0.4493(7) 0.4372(8) 0.21001(18)
H11 H 0.4128 0.4262 0.1768
C20 C 0.5607(7) 0.2985(8) 0.23318(19)
H12 H 0.6006 0.1951 0.2153
loop_
_geom_bond_atom_site_label_1
_geom_bond_atom_site_label_2
_geom_bond_site_symmetry_1
_geom_bond_site_symmetry_2
O1 C9 1_555 1_555
N1 C2 1_555 1_555
N2 C12 1_555 1_555
C1 C2 1_555 1_555
C2 C8 1_555 1_555
C3 C4 1_555 1_555
C4 H1 1_555 1_555
C5 N1 1_555 1_555
C6 C1 1_555 1_555
H2 C6 1_555 1_555
C7 C3 1_555 1_555
C8 H3 1_555 1_555
C9 N1 1_555 1_555
C10 C5 1_555 1_555
H4 C10 1_555 1_555
C11 C3 1_555 1_555
C12 C7 1_555 1_555
C13 C11 1_555 1_555
H5 C13 1_555 1_555
C14 C1 1_555 1_555
H6 C14 1_555 1_555
C15 C11 1_555 1_555
H7 C15 1_555 1_555
C16 C14 1_555 1_555
H8 C16 1_555 1_555
C17 C8 1_555 1_555
H9 C17 1_555 1_555
C18 C15 1_555 1_555
H10 C18 1_555 1_555
C19 C18 1_555 1_555
H11 C19 1_555 1_555
C20 C13 1_555 1_555
H12 C20 1_555 1_555
C4 C9 1_555 1_555
C5 C7 1_555 1_555
C6 C10 1_555 1_555
C16 C17 1_555 1_555
C19 C20 1_555 1_555

#END
