
#######################################################################
#
#                 Cambridge Crystallographic Data Centre
#                                CCDC 
#
#######################################################################
#
# If this CIF has been generated from an entry in the Cambridge 
# Structural Database, then it will include bibliographic, chemical, 
# crystal, experimental, refinement or atomic coordinate data resulting 
# from the CCDC's data processing and validation procedures.
#
#######################################################################

data_ZIMQAQ
_chemical_formula_moiety         'C16 H10 N2 O1'
_chemical_name_systematic        4-oxo-2-phenyl-4H-quinolizine-1-carbonitrile
_symmetry_cell_setting           monoclinic
_symmetry_space_group_name_H-M   'P 21/c'
_symmetry_Int_Tables_number      14
_space_group_name_Hall           '-P 2ybc'
loop_
_symmetry_equiv_pos_site_id
_symmetry_equiv_pos_as_xyz
1 x,y,z
2 -x,1/2+y,1/2-z
3 -x,-y,-z
4 x,1/2-y,1/2+z
_cell_length_a                   3.8460(8)
_cell_length_b                   24.811(5)
_cell_length_c                   12.108(2)
_cell_angle_alpha                90
_cell_angle_beta                 93.01(3)
_cell_angle_gamma                90
_cell_volume                     1153.79
_exptl_crystal_colour            colorless
_exptl_crystal_description       prism
_cell_formula_units_Z            4
loop_
_atom_site_label
_atom_site_type_symbol
_atom_site_fract_x
_atom_site_fract_y
_atom_site_fract_z
O1 O -0.2281(5) 0.67654(7) -0.03318(13)
C1 C 0.0051(6) 0.76008(9) 0.08764(19)
H1 H -0.1038 0.7654 0.0181
C2 C 0.1045(6) 0.80314(10) 0.14884(19)
H2 H 0.0658 0.8378 0.1218
C3 C 0.2679(6) 0.79514(10) 0.25432(19)
H3 H 0.3346 0.8246 0.2979
C4 C 0.3279(6) 0.74441(9) 0.29215(19)
H4 H 0.4364 0.7395 0.3619
C5 C 0.2288(6) 0.69862(9) 0.22771(17)
C6 C 0.2902(6) 0.64514(9) 0.26195(17)
C7 C 0.1855(6) 0.60137(9) 0.19328(17)
C8 C 0.0180(6) 0.61210(9) 0.09196(18)
H5 H -0.0451 0.5831 0.0467
C9 C -0.0633(6) 0.66452(10) 0.05290(18)
C10 C 0.4776(6) 0.63801(9) 0.36638(18)
C11 C 0.2493(6) 0.54456(9) 0.22825(18)
C12 C 0.1892(6) 0.52742(9) 0.33507(19)
H6 H 0.1085 0.5517 0.3863
C13 C 0.2493(7) 0.47424(10) 0.3653(2)
H7 H 0.2088 0.4630 0.4368
C14 C 0.3691(7) 0.43789(10) 0.2897(2)
H8 H 0.4105 0.4023 0.3106
C15 C 0.4276(7) 0.45428(10) 0.1835(2)
H9 H 0.5079 0.4297 0.1327
C16 C 0.3667(6) 0.50714(10) 0.1526(2)
H10 H 0.4043 0.5179 0.0806
N1 N 0.0608(5) 0.70791(8) 0.12544(14)
N2 N 0.6314(6) 0.63403(8) 0.45016(16)
loop_
_geom_bond_atom_site_label_1
_geom_bond_atom_site_label_2
_geom_bond_site_symmetry_1
_geom_bond_site_symmetry_2
O1 C9 1_555 1_555
C1 H1 1_555 1_555
C2 C1 1_555 1_555
H2 C2 1_555 1_555
C3 C2 1_555 1_555
H3 C3 1_555 1_555
C4 C3 1_555 1_555
H4 C4 1_555 1_555
C5 C4 1_555 1_555
C6 C5 1_555 1_555
C7 C6 1_555 1_555
C8 C7 1_555 1_555
H5 C8 1_555 1_555
C9 C8 1_555 1_555
C10 C6 1_555 1_555
C11 C7 1_555 1_555
C12 C11 1_555 1_555
H6 C12 1_555 1_555
C13 C12 1_555 1_555
H7 C13 1_555 1_555
C14 C13 1_555 1_555
H8 C14 1_555 1_555
C15 C14 1_555 1_555
H9 C15 1_555 1_555
C16 C11 1_555 1_555
H10 C16 1_555 1_555
N1 C1 1_555 1_555
N2 C10 1_555 1_555
C5 N1 1_555 1_555
C9 N1 1_555 1_555
C15 C16 1_555 1_555

#END
