
#######################################################################
#
#                 Cambridge Crystallographic Data Centre
#                                CCDC 
#
#######################################################################
#
# If this CIF has been generated from an entry in the Cambridge 
# Structural Database, then it will include bibliographic, chemical, 
# crystal, experimental, refinement or atomic coordinate data resulting 
# from the CCDC's data processing and validation procedures.
#
#######################################################################

data_ZIMRAQ
_chemical_formula_moiety         'C40 H35 N1 O1'
_chemical_name_systematic        
9,9-Dimethyl-9a-(2-(4-(triphenylvinyl)phenyl)vinyl)-2,3,9,9a-tetrahydro[1,3]oxazolo[3,2-a]indole
_symmetry_cell_setting           triclinic
_symmetry_space_group_name_H-M   'P -1'
_symmetry_Int_Tables_number      2
_space_group_name_Hall           '-P 1'
loop_
_symmetry_equiv_pos_site_id
_symmetry_equiv_pos_as_xyz
1 x,y,z
2 -x,-y,-z
_cell_length_a                   11.086(7)
_cell_length_b                   12.646(9)
_cell_length_c                   12.710(7)
_cell_angle_alpha                75.39(2)
_cell_angle_beta                 68.94(2)
_cell_angle_gamma                67.74(2)
_cell_volume                     1524.94
_cell_formula_units_Z            2
loop_
_atom_site_label
_atom_site_type_symbol
_atom_site_fract_x
_atom_site_fract_y
_atom_site_fract_z
C1 C 0.8637(5) 0.3932(4) 0.4903(4)
H1 H 0.8745 0.4132 0.5512
C2 C 0.8843(5) 0.2799(4) 0.4873(4)
H2 H 0.9081 0.2236 0.5460
C3 C 0.8696(5) 0.2502(5) 0.3969(5)
H3 H 0.8846 0.1734 0.3939
C4 C 0.8328(5) 0.3336(5) 0.3111(4)
H4 H 0.8228 0.3133 0.2500
C5 C 0.8108(5) 0.4466(4) 0.3154(4)
H5 H 0.7845 0.5026 0.2574
C6 C 0.8268(4) 0.4789(3) 0.4037(3)
C7 C 0.8007(4) 0.6022(3) 0.4110(3)
C8 C 0.8536(4) 0.6721(4) 0.3232(4)
C9 C 0.9584(4) 0.6310(4) 0.2164(3)
C10 C 1.0787(4) 0.5414(4) 0.2172(4)
H6 H 1.0954 0.5047 0.2862
C11 C 1.1729(5) 0.5062(4) 0.1178(4)
H7 H 1.2547 0.4481 0.1198
C12 C 1.1484(6) 0.5557(5) 0.0149(4)
H8 H 1.2119 0.5306 -0.0525
C13 C 1.0288(5) 0.6425(5) 0.0137(4)
H9 H 1.0100 0.6755 -0.0552
C14 C 0.9359(5) 0.6818(4) 0.1124(4)
H10 H 0.8569 0.7431 0.1094
C15 C 0.8133(4) 0.7996(4) 0.3251(3)
C16 C 0.9107(5) 0.8527(4) 0.2959(3)
H11 H 1.0025 0.8094 0.2746
C17 C 0.8742(6) 0.9680(4) 0.2979(4)
H12 H 0.9418 1.0017 0.2798
C18 C 0.7402(6) 1.0352(4) 0.3260(4)
H13 H 0.7166 1.1137 0.3277
C19 C 0.6419(6) 0.9856(4) 0.3512(4)
H14 H 0.5505 1.0305 0.3679
C20 C 0.6786(5) 0.8670(4) 0.3521(4)
H15 H 0.6110 0.8331 0.3711
C21 C 0.7107(4) 0.6391(3) 0.5235(3)
C22 C 0.5928(4) 0.6106(4) 0.5778(4)
H16 H 0.5676 0.5701 0.5420
C23 C 0.5115(4) 0.6405(4) 0.6834(4)
H17 H 0.4320 0.6208 0.7169
C24 C 0.5452(4) 0.6992(3) 0.7409(3)
C25 C 0.6649(4) 0.7276(4) 0.6866(3)
H18 H 0.6910 0.7669 0.7229
C26 C 0.7442(4) 0.6988(4) 0.5813(3)
H19 H 0.8230 0.7197 0.5471
C27 C 0.4582(4) 0.7279(4) 0.8552(4)
H20 H 0.3902 0.6935 0.8906
C28 C 0.4661(4) 0.7967(4) 0.9125(4)
H21 H 0.5335 0.8318 0.8782
C29 C 0.3743(4) 0.8233(4) 1.0298(3)
C30 C 0.1585(5) 0.8889(5) 1.0078(5)
H22 H 0.0672 0.9020 1.0604
H23 H 0.1579 0.8740 0.9368
C31 C 0.2025(5) 0.9898(5) 0.9883(5)
H24 H 0.2290 1.0182 0.9078
H25 H 0.1300 1.0514 1.0282
C32 C 0.2908(4) 0.9598(4) 1.1480(4)
C33 C 0.2144(5) 1.0544(5) 1.2024(5)
H26 H 0.1670 1.1220 1.1651
C34 C 0.2088(7) 1.0476(8) 1.3141(6)
H27 H 0.1565 1.1116 1.3521
C35 C 0.2758(9) 0.9524(9) 1.3688(6)
H28 H 0.2711 0.9509 1.4437
C36 C 0.3517(7) 0.8562(7) 1.3160(5)
H29 H 0.3979 0.7892 1.3547
C37 C 0.3590(5) 0.8598(5) 1.2041(4)
C38 C 0.4417(5) 0.7716(4) 1.1255(4)
C39 C 0.4352(8) 0.6491(5) 1.1732(5)
H30 H 0.4642 0.6230 1.2406
H31 H 0.4942 0.5984 1.1173
H32 H 0.3433 0.6492 1.1914
C40 C 0.5881(6) 0.7684(6) 1.0878(5)
H33 H 0.5950 0.8418 1.0464
H34 H 0.6433 0.7094 1.0396
H35 H 0.6194 0.7521 1.1533
N1 N 0.3188(4) 0.9483(3) 1.0330(3)
O1 O 0.2558(3) 0.7910(3) 1.0555(3)
loop_
_geom_bond_atom_site_label_1
_geom_bond_atom_site_label_2
_geom_bond_site_symmetry_1
_geom_bond_site_symmetry_2
C1 H1 1_555 1_555
C2 C1 1_555 1_555
H2 C2 1_555 1_555
C3 C2 1_555 1_555
H3 C3 1_555 1_555
C4 C3 1_555 1_555
H4 C4 1_555 1_555
C5 C4 1_555 1_555
H5 C5 1_555 1_555
C6 C1 1_555 1_555
C7 C6 1_555 1_555
C8 C7 1_555 1_555
C9 C8 1_555 1_555
C10 C9 1_555 1_555
H6 C10 1_555 1_555
C11 C10 1_555 1_555
H7 C11 1_555 1_555
C12 C11 1_555 1_555
H8 C12 1_555 1_555
C13 C12 1_555 1_555
H9 C13 1_555 1_555
C14 C9 1_555 1_555
H10 C14 1_555 1_555
C15 C8 1_555 1_555
C16 C15 1_555 1_555
H11 C16 1_555 1_555
C17 C16 1_555 1_555
H12 C17 1_555 1_555
C18 C17 1_555 1_555
H13 C18 1_555 1_555
C19 C18 1_555 1_555
H14 C19 1_555 1_555
C20 C15 1_555 1_555
H15 C20 1_555 1_555
C21 C7 1_555 1_555
C22 C21 1_555 1_555
H16 C22 1_555 1_555
C23 C22 1_555 1_555
H17 C23 1_555 1_555
C24 C23 1_555 1_555
C25 C24 1_555 1_555
H18 C25 1_555 1_555
C26 C21 1_555 1_555
H19 C26 1_555 1_555
C27 C24 1_555 1_555
H20 C27 1_555 1_555
C28 C27 1_555 1_555
H21 C28 1_555 1_555
C29 C28 1_555 1_555
C30 H22 1_555 1_555
H23 C30 1_555 1_555
C31 C30 1_555 1_555
H24 C31 1_555 1_555
H25 C31 1_555 1_555
C32 C33 1_555 1_555
C33 H26 1_555 1_555
C34 C33 1_555 1_555
H27 C34 1_555 1_555
C35 C34 1_555 1_555
H28 C35 1_555 1_555
C36 C35 1_555 1_555
H29 C36 1_555 1_555
C37 C32 1_555 1_555
C38 C29 1_555 1_555
C39 C38 1_555 1_555
H30 C39 1_555 1_555
H31 C39 1_555 1_555
H32 C39 1_555 1_555
C40 C38 1_555 1_555
H33 C40 1_555 1_555
H34 C40 1_555 1_555
H35 C40 1_555 1_555
N1 C29 1_555 1_555
O1 C29 1_555 1_555
C5 C6 1_555 1_555
C13 C14 1_555 1_555
C19 C20 1_555 1_555
C25 C26 1_555 1_555
C30 O1 1_555 1_555
C31 N1 1_555 1_555
C32 N1 1_555 1_555
C36 C37 1_555 1_555
C37 C38 1_555 1_555

#END
