
#######################################################################
#
#                 Cambridge Crystallographic Data Centre
#                                CCDC 
#
#######################################################################
#
# If this CIF has been generated from an entry in the Cambridge 
# Structural Database, then it will include bibliographic, chemical, 
# crystal, experimental, refinement or atomic coordinate data resulting 
# from the CCDC's data processing and validation procedures.
#
#######################################################################

data_ZIMSOG
_chemical_name_common            
'diethyl 2-(phenyl(2-fluorophenylamino)methyl)malonate'
_chemical_formula_moiety         'C20 H22 F1 N1 O4'
_chemical_name_systematic        
'diethyl (((2-fluorophenyl)amino)(phenyl)methyl)propanedioate'
_symmetry_cell_setting           monoclinic
_symmetry_space_group_name_H-M   'C 2'
_symmetry_Int_Tables_number      5
_space_group_name_Hall           'C 2y'
loop_
_symmetry_equiv_pos_site_id
_symmetry_equiv_pos_as_xyz
1 x,y,z
2 -x,y,-z
3 1/2+x,1/2+y,z
4 1/2-x,1/2+y,-z
_cell_length_a                   17.943(9)
_cell_length_b                   5.805(3)
_cell_length_c                   18.086(9)
_cell_angle_alpha                90
_cell_angle_beta                 96.999(9)
_cell_angle_gamma                90
_cell_volume                     1869.78
_exptl_crystal_colour            colorless
_exptl_crystal_description       block
_chemical_melting_point          '118-119 deg.C'
_cell_formula_units_Z            4
loop_
_atom_site_label
_atom_site_type_symbol
_atom_site_fract_x
_atom_site_fract_y
_atom_site_fract_z
F1 F 0.60062(10) 1.0061(3) 0.23778(11)
O1 O 0.88474(11) 0.2029(4) 0.17405(11)
O2 O 0.81083(12) 0.0176(4) 0.24585(12)
O3 O 0.70309(12) 0.2803(4) 0.11928(12)
N1 N 0.68609(14) 0.6249(5) 0.26267(14)
O4 O 0.75263(15) 0.6276(5) 0.10275(13)
C1 C 0.82839(16) 0.1901(6) 0.21598(15)
C2 C 0.78030(16) 0.4300(5) 0.35567(16)
C3 C 0.73619(16) 0.4289(5) 0.27807(16)
H1 H 0.7054 0.2890 0.2735
C4 C 0.77600(17) 0.2469(6) 0.40337(17)
H2 H 0.7463 0.1205 0.3877
C5 C 0.62142(16) 0.6484(6) 0.29773(16)
C6 C 0.78857(17) 0.4217(6) 0.21663(16)
H3 H 0.8265 0.5430 0.2265
C7 C 0.74610(18) 0.4602(6) 0.13994(17)
C8 C 0.57698(18) 0.8435(6) 0.28478(18)
C9 C 0.81492(18) 0.2476(6) 0.47403(18)
H4 H 0.8116 0.1222 0.5055
C10 C 0.85829(19) 0.4330(7) 0.49767(18)
H5 H 0.8845 0.4340 0.5453
C11 C 0.82423(16) 0.6182(6) 0.38034(17)
H6 H 0.8274 0.7443 0.3492
C12 C 0.59509(16) 0.4835(6) 0.34433(17)
H7 H 0.6229 0.3502 0.3557
C13 C 0.86317(17) 0.6186(7) 0.45098(18)
H8 H 0.8928 0.7445 0.4672
C14 C 0.6621(2) 0.2904(7) 0.04500(19)
H9 H 0.6965 0.3099 0.0081
H10 H 0.6272 0.4186 0.0410
C15 C 0.52849(17) 0.5155(7) 0.37369(18)
H11 H 0.5117 0.4019 0.4039
C16 C 0.48659(18) 0.7105(8) 0.3593(2)
H12 H 0.4419 0.7299 0.3798
C17 C 0.51147(19) 0.8793(7) 0.3139(2)
H13 H 0.4840 1.0139 0.3036
C18 C 0.9260(2) -0.0086(7) 0.1664(2)
H14 H 0.8924 -0.1283 0.1447
H15 H 0.9492 -0.0607 0.2148
C19 C 0.6213(2) 0.0700(8) 0.0334(2)
H16 H 0.5865 0.0551 0.0694
H17 H 0.6564 -0.0553 0.0389
H18 H 0.5943 0.0669 -0.0159
C20 C 0.9848(2) 0.0428(9) 0.1166(2)
H19 H 1.0151 0.1695 0.1368
H20 H 0.9610 0.0824 0.0678
H21 H 1.0159 -0.0905 0.1134
H22 H 0.709(3) 0.747(6) 0.250(3)
loop_
_geom_bond_atom_site_label_1
_geom_bond_atom_site_label_2
_geom_bond_site_symmetry_1
_geom_bond_site_symmetry_2
F1 C8 1_555 1_555
O1 C1 1_555 1_555
O2 C1 1_555 1_555
O3 C7 1_555 1_555
N1 C3 1_555 1_555
O4 C7 1_555 1_555
C1 C6 1_555 1_555
C2 C3 1_555 1_555
C3 H1 1_555 1_555
C4 C2 1_555 1_555
H2 C4 1_555 1_555
C5 N1 1_555 1_555
C6 C3 1_555 1_555
H3 C6 1_555 1_555
C7 C6 1_555 1_555
C8 C5 1_555 1_555
C9 C4 1_555 1_555
H4 C9 1_555 1_555
C10 C9 1_555 1_555
H5 C10 1_555 1_555
C11 C2 1_555 1_555
H6 C11 1_555 1_555
C12 C5 1_555 1_555
H7 C12 1_555 1_555
C13 C10 1_555 1_555
H8 C13 1_555 1_555
C14 O3 1_555 1_555
H9 C14 1_555 1_555
H10 C14 1_555 1_555
C15 C12 1_555 1_555
H11 C15 1_555 1_555
C16 C15 1_555 1_555
H12 C16 1_555 1_555
C17 C8 1_555 1_555
H13 C17 1_555 1_555
C18 O1 1_555 1_555
H14 C18 1_555 1_555
H15 C18 1_555 1_555
C19 C14 1_555 1_555
H16 C19 1_555 1_555
H17 C19 1_555 1_555
H18 C19 1_555 1_555
C20 C18 1_555 1_555
H19 C20 1_555 1_555
H20 C20 1_555 1_555
H21 C20 1_555 1_555
H22 N1 1_555 1_555
C11 C13 1_555 1_555
C16 C17 1_555 1_555

#END
