
#######################################################################
#
#                 Cambridge Crystallographic Data Centre
#                                CCDC 
#
#######################################################################
#
# If this CIF has been generated from an entry in the Cambridge 
# Structural Database, then it will include bibliographic, chemical, 
# crystal, experimental, refinement or atomic coordinate data resulting 
# from the CCDC's data processing and validation procedures.
#
#######################################################################

data_ZIMSAS
_chemical_formula_moiety         'C23 H35 N2 O2 1+,I1 1-'
_chemical_name_systematic        
'2-(bis(2-hydroxy-3,5-dimethylbenzyl)amino)-N,N,N-trimethylethanaminium iodide unknown solvate'
_symmetry_cell_setting           orthorhombic
_symmetry_space_group_name_H-M   'P n a 21'
_symmetry_Int_Tables_number      33
_space_group_name_Hall           'P 2c -2n'
loop_
_symmetry_equiv_pos_site_id
_symmetry_equiv_pos_as_xyz
1 x,y,z
2 -x,-y,1/2+z
3 1/2+x,1/2-y,z
4 1/2-x,1/2+y,1/2+z
_cell_length_a                   11.70160(10)
_cell_length_b                   32.0199(4)
_cell_length_c                   6.86550(10)
_cell_angle_alpha                90
_cell_angle_beta                 90
_cell_angle_gamma                90
_cell_volume                     2572.39
_exptl_crystal_description       block
_cell_formula_units_Z            4
_exptl_crystal_recrystallization_method deuterochloroform
loop_
_atom_site_label
_atom_site_type_symbol
_atom_site_fract_x
_atom_site_fract_y
_atom_site_fract_z
C1 C 0.7023(3) 0.13486(13) 0.6663(6)
C2 C 0.5998(3) 0.14721(14) 0.7539(6)
C3 C 0.4970(3) 0.13696(14) 0.6628(7)
H1 H 0.4271 0.1438 0.7256
C4 C 0.4938(3) 0.11715(13) 0.4833(8)
C5 C 0.5977(3) 0.10615(12) 0.3972(7)
H2 H 0.5974 0.0925 0.2744
C6 C 0.7024(3) 0.11484(11) 0.4876(8)
C7 C 0.6014(4) 0.17076(17) 0.9443(7)
H3 H 0.5228 0.1770 0.9841
H4 H 0.6439 0.1969 0.9279
H5 H 0.6383 0.1536 1.0444
C8 C 0.3804(4) 0.10754(17) 0.3818(8)
H6 H 0.3580 0.0786 0.4094
H7 H 0.3892 0.1113 0.2409
H8 H 0.3212 0.1266 0.4301
C9 C 0.8125(3) 0.10099(13) 0.3927(7)
H9 H 0.8424 0.0762 0.4619
H10 H 0.7970 0.0929 0.2561
C10 C 1.1094(3) 0.09063(12) 0.6184(6)
C11 C 1.1661(3) 0.05933(13) 0.7231(6)
C12 C 1.1697(4) 0.01884(13) 0.6403(7)
H11 H 1.2064 -0.0029 0.7104
C13 C 1.1217(3) 0.00992(11) 0.4612(6)
C14 C 1.0655(3) 0.04211(13) 0.3627(7)
H12 H 1.0297 0.0363 0.2415
C15 C 1.0607(3) 0.08287(12) 0.4388(6)
C16 C 1.2242(4) 0.06898(15) 0.9132(7)
H13 H 1.2484 0.0429 0.9755
H14 H 1.1709 0.0838 0.9990
H15 H 1.2913 0.0866 0.8891
C17 C 1.1285(4) -0.03304(14) 0.3709(8)
H16 H 1.1837 -0.0327 0.2635
H17 H 1.0532 -0.0410 0.3211
H18 H 1.1532 -0.0532 0.4695
C18 C 1.0092(3) 0.11839(12) 0.3203(6)
H19 H 1.0651 0.1416 0.3149
H20 H 0.9969 0.1085 0.1853
C19 C 0.8585(3) 0.16901(13) 0.2685(6)
H21 H 0.7833 0.1782 0.3190
H22 H 0.8454 0.1572 0.1372
C20 C 0.9330(3) 0.20774(12) 0.2451(6)
H23 H 1.0092 0.1985 0.1993
H24 H 0.8994 0.2251 0.1404
C21 C 1.0290(4) 0.21663(14) 0.5695(7)
H25 H 1.0328 0.2348 0.6843
H26 H 1.1056 0.2137 0.5133
H27 H 1.0001 0.1891 0.6076
C22 C 1.0073(4) 0.27426(13) 0.3462(7)
H28 H 1.0210 0.2936 0.4543
H29 H 0.9576 0.2876 0.2496
H30 H 1.0803 0.2669 0.2854
C23 C 0.8395(3) 0.24637(13) 0.5178(9)
H31 H 0.8063 0.2212 0.5762
H32 H 0.7867 0.2577 0.4204
H33 H 0.8528 0.2673 0.6195
N1 N 0.9004(3) 0.13474(9) 0.3961(5)
N2 N 0.9507(3) 0.23553(10) 0.4218(5)
O1 O 0.8029(2) 0.14477(10) 0.7605(5)
H34 H 0.8582 0.1342 0.7001
O2 O 1.1005(3) 0.13089(9) 0.6879(5)
H35 H 1.1465 0.1343 0.7805
I1 I 0.737162(16) 0.300425(6) 0.00729(10)
loop_
_geom_bond_atom_site_label_1
_geom_bond_atom_site_label_2
_geom_bond_site_symmetry_1
_geom_bond_site_symmetry_2
C1 C2 1_555 1_555
C2 C3 1_555 1_555
C3 H1 1_555 1_555
C4 C3 1_555 1_555
C5 C4 1_555 1_555
H2 C5 1_555 1_555
C6 C1 1_555 1_555
C7 C2 1_555 1_555
H3 C7 1_555 1_555
H4 C7 1_555 1_555
H5 C7 1_555 1_555
C8 C4 1_555 1_555
H6 C8 1_555 1_555
H7 C8 1_555 1_555
H8 C8 1_555 1_555
C9 C6 1_555 1_555
H9 C9 1_555 1_555
H10 C9 1_555 1_555
C10 C11 1_555 1_555
C11 C12 1_555 1_555
C12 H11 1_555 1_555
C13 C12 1_555 1_555
C14 C13 1_555 1_555
H12 C14 1_555 1_555
C15 C10 1_555 1_555
C16 C11 1_555 1_555
H13 C16 1_555 1_555
H14 C16 1_555 1_555
H15 C16 1_555 1_555
C17 C13 1_555 1_555
H16 C17 1_555 1_555
H17 C17 1_555 1_555
H18 C17 1_555 1_555
C18 C15 1_555 1_555
H19 C18 1_555 1_555
H20 C18 1_555 1_555
C19 H21 1_555 1_555
H22 C19 1_555 1_555
C20 C19 1_555 1_555
H23 C20 1_555 1_555
H24 C20 1_555 1_555
C21 H25 1_555 1_555
H26 C21 1_555 1_555
H27 C21 1_555 1_555
C22 H28 1_555 1_555
H29 C22 1_555 1_555
H30 C22 1_555 1_555
C23 H31 1_555 1_555
H32 C23 1_555 1_555
H33 C23 1_555 1_555
N1 C9 1_555 1_555
N2 C20 1_555 1_555
O1 C1 1_555 1_555
H34 O1 1_555 1_555
O2 C10 1_555 1_555
H35 O2 1_555 1_555
C5 C6 1_555 1_555
C14 C15 1_555 1_555
C18 N1 1_555 1_555
C19 N1 1_555 1_555
C21 N2 1_555 1_555
C22 N2 1_555 1_555
C23 N2 1_555 1_555

#END
