
#######################################################################
#
#                 Cambridge Crystallographic Data Centre
#                                CCDC 
#
#######################################################################
#
# If this CIF has been generated from an entry in the Cambridge 
# Structural Database, then it will include bibliographic, chemical, 
# crystal, experimental, refinement or atomic coordinate data resulting 
# from the CCDC's data processing and validation procedures.
#
#######################################################################

data_ZIMSOF
_chemical_formula_moiety         'C28 H24 O6'
_chemical_name_systematic        
'4-Benzyl 2-ethyl 5-(benzyloxy)-3-phenylfuran-2,4-dicarboxylate'
_symmetry_cell_setting           triclinic
_symmetry_space_group_name_H-M   'P -1'
_symmetry_Int_Tables_number      2
_space_group_name_Hall           '-P 1'
loop_
_symmetry_equiv_pos_site_id
_symmetry_equiv_pos_as_xyz
1 x,y,z
2 -x,-y,-z
_cell_length_a                   9.0618(12)
_cell_length_b                   11.3801(15)
_cell_length_c                   12.3091(16)
_cell_angle_alpha                73.216(2)
_cell_angle_beta                 85.2965(19)
_cell_angle_gamma                67.465(2)
_cell_volume                     1121.91
_cell_formula_units_Z            2
loop_
_atom_site_label
_atom_site_type_symbol
_atom_site_fract_x
_atom_site_fract_y
_atom_site_fract_z
O1 O 0.40752(13) 0.85567(12) 0.07063(9)
O2 O 0.59411(13) 0.90554(12) -0.19517(9)
O3 O 0.38835(13) 0.80400(12) 0.26312(10)
O4 O 0.33574(14) 0.94217(13) -0.15533(10)
O5 O 0.90087(14) 0.63345(13) 0.24326(10)
O6 O 0.70516(16) 0.68345(16) 0.36563(11)
C1 C 0.6748(2) 0.78804(17) 0.04979(14)
C2 C 0.4786(2) 0.80506(17) 0.17406(14)
C3 C 0.4742(2) 0.90219(17) -0.12505(14)
C4 C 0.7482(2) 0.69080(18) 0.26975(15)
C5 C 0.83237(19) 0.76770(17) -0.00325(14)
C6 C 0.8924(2) 0.68108(19) -0.06966(15)
H1 H 0.8356 0.6316 -0.0790
C7 C 0.1398(2) 0.84614(17) 0.35687(14)
C8 C 0.6416(2) 0.75996(17) 0.16907(14)
C9 C 0.53053(19) 0.84567(17) -0.00651(14)
C10 C 1.1814(2) 0.53714(17) 0.29468(15)
C11 C 0.5530(2) 0.95055(19) -0.31599(14)
H2 H 0.6345 0.9789 -0.3581
H3 H 0.4522 1.0260 -0.3308
C12 C 0.9194(2) 0.84029(18) 0.01075(15)
H4 H 0.8814 0.8973 0.0565
C13 C 0.2168(2) 0.8607(2) 0.24374(15)
H5 H 0.1858 0.8150 0.1998
H6 H 0.1828 0.9536 0.2017
C14 C 1.0366(2) 0.6678(2) -0.12219(16)
H7 H 1.0770 0.6086 -0.1658
C15 C -0.0160(2) 0.8236(2) 0.56114(17)
H8 H -0.0681 0.8160 0.6296
C16 C 1.1205(2) 0.7422(2) -0.11007(16)
H9 H 1.2162 0.7346 -0.1469
C17 C 1.0625(2) 0.82755(19) -0.04341(16)
H10 H 1.1196 0.8770 -0.0347
C18 C 0.2250(2) 0.7968(2) 0.45865(16)
H11 H 0.3356 0.7708 0.4590
C19 C -0.0245(2) 0.8846(2) 0.35839(17)
H12 H -0.0835 0.9187 0.2903
C20 C 0.1468(2) 0.7859(2) 0.56008(16)
H13 H 0.2053 0.7527 0.6283
C21 C 0.5395(3) 0.8426(2) -0.35558(17)
H14 H 0.5218 0.8718 -0.4365
H15 H 0.4514 0.8209 -0.3198
H16 H 0.6365 0.7655 -0.3359
C22 C -0.1019(2) 0.8728(2) 0.45978(17)
H17 H -0.2124 0.8982 0.4598
C23 C 1.2158(2) 0.54773(18) 0.18142(16)
H18 H 1.1348 0.5684 0.1292
C24 C 1.3038(2) 0.50549(19) 0.37138(17)
H19 H 1.2822 0.4974 0.4478
C25 C 1.0154(2) 0.5596(2) 0.33782(16)
H20 H 1.0056 0.4752 0.3740
H21 H 0.9945 0.6088 0.3936
C26 C 1.4908(2) 0.4967(2) 0.22191(19)
H22 H 1.5944 0.4833 0.1975
C27 C 1.3699(2) 0.5277(2) 0.14565(18)
H23 H 1.3920 0.5352 0.0694
C28 C 1.4575(2) 0.4858(2) 0.33509(19)
H24 H 1.5388 0.4651 0.3870
loop_
_geom_bond_atom_site_label_1
_geom_bond_atom_site_label_2
_geom_bond_site_symmetry_1
_geom_bond_site_symmetry_2
O1 C2 1_555 1_555
O2 C3 1_555 1_555
O3 C2 1_555 1_555
O4 C3 1_555 1_555
O5 C4 1_555 1_555
O6 C4 1_555 1_555
C1 C5 1_555 1_555
C2 C8 1_555 1_555
C3 C9 1_555 1_555
C4 C8 1_555 1_555
C5 C6 1_555 1_555
C6 H1 1_555 1_555
C7 C13 1_555 1_555
C8 C1 1_555 1_555
C9 O1 1_555 1_555
C10 C23 1_555 1_555
C11 O2 1_555 1_555
H2 C11 1_555 1_555
H3 C11 1_555 1_555
C12 C5 1_555 1_555
H4 C12 1_555 1_555
C13 O3 1_555 1_555
H5 C13 1_555 1_555
H6 C13 1_555 1_555
C14 C6 1_555 1_555
H7 C14 1_555 1_555
C15 H8 1_555 1_555
C16 C14 1_555 1_555
H9 C16 1_555 1_555
C17 C12 1_555 1_555
H10 C17 1_555 1_555
C18 C7 1_555 1_555
H11 C18 1_555 1_555
C19 C7 1_555 1_555
H12 C19 1_555 1_555
C20 C15 1_555 1_555
H13 C20 1_555 1_555
C21 C11 1_555 1_555
H14 C21 1_555 1_555
H15 C21 1_555 1_555
H16 C21 1_555 1_555
C22 C15 1_555 1_555
H17 C22 1_555 1_555
C23 H18 1_555 1_555
C24 C10 1_555 1_555
H19 C24 1_555 1_555
C25 O5 1_555 1_555
H20 C25 1_555 1_555
H21 C25 1_555 1_555
C26 H22 1_555 1_555
C27 C23 1_555 1_555
H23 C27 1_555 1_555
C28 C24 1_555 1_555
H24 C28 1_555 1_555
C1 C9 1_555 1_555
C10 C25 1_555 1_555
C16 C17 1_555 1_555
C18 C20 1_555 1_555
C19 C22 1_555 1_555
C26 C27 1_555 1_555
C26 C28 1_555 1_555

#END
