
#######################################################################
#
#                 Cambridge Crystallographic Data Centre
#                                CCDC 
#
#######################################################################
#
# If this CIF has been generated from an entry in the Cambridge 
# Structural Database, then it will include bibliographic, chemical, 
# crystal, experimental, refinement or atomic coordinate data resulting 
# from the CCDC's data processing and validation procedures.
#
#######################################################################

data_ZIMTAT
_chemical_name_common            
'diethyl 2-(2-fluoro phenyl(2-carboxyphenylamino)methyl)malonate'
_chemical_formula_moiety         'C21 H22 F1 N1 O6'
_chemical_name_systematic        
'2-((3-ethoxy-2-(ethoxycarbonyl)-1-(2-fluorophenyl)-3-oxopropyl)amino)benzoic acid'
_symmetry_cell_setting           triclinic
_symmetry_space_group_name_H-M   'P -1'
_symmetry_Int_Tables_number      2
_space_group_name_Hall           '-P 1'
loop_
_symmetry_equiv_pos_site_id
_symmetry_equiv_pos_as_xyz
1 x,y,z
2 -x,-y,-z
_cell_length_a                   9.5813(4)
_cell_length_b                   10.5405(4)
_cell_length_c                   11.0264(4)
_cell_angle_alpha                92.240(3)
_cell_angle_beta                 107.373(3)
_cell_angle_gamma                93.207(3)
_cell_volume                     1059.29
_exptl_crystal_description       block
_chemical_melting_point          '170-171 deg.C'
_cell_formula_units_Z            2
loop_
_atom_site_label
_atom_site_type_symbol
_atom_site_fract_x
_atom_site_fract_y
_atom_site_fract_z
O1 O 0.43071(17) 0.10200(17) 0.89430(16)
N1 N 0.27410(18) 0.25577(17) 0.72345(16)
H1 H 0.3559 0.2210 0.7510
O2 O 0.32983(19) 0.0214(2) 1.03357(18)
H2 H 0.4067 -0.0142 1.0542
C1 C 0.1686(2) 0.23223(18) 0.78118(17)
C2 C 0.2539(2) 0.33709(19) 0.61750(19)
H3 H 0.2037 0.4104 0.6363
C3 C 0.0299(2) 0.2818(2) 0.7355(2)
H4 H 0.0101 0.3296 0.6639
C4 C 0.1919(2) 0.15706(19) 0.88840(18)
C5 C 0.3276(2) 0.0930(2) 0.93795(19)
C6 C 0.0815(3) 0.1398(2) 0.9465(2)
H5 H 0.0988 0.0925 1.0183
C7 C -0.0761(2) 0.2613(2) 0.7940(2)
H6 H -0.1663 0.2954 0.7616
O3 O 0.5229(2) 0.19437(19) 0.6451(2)
F1 F 0.1023(3) 0.47462(17) 0.41803(18)
C8 C 0.4946(3) 0.2842(2) 0.5828(2)
C9 C 0.4034(2) 0.3890(2) 0.6072(2)
H7 H 0.3833 0.4416 0.5334
C10 C 0.1583(2) 0.2734(2) 0.4923(2)
C11 C -0.0514(3) 0.1907(3) 0.9007(3)
H8 H -0.1236 0.1781 0.9405
C12 C 0.4820(3) 0.4762(2) 0.7238(3)
O4 O 0.5429(3) 0.3072(2) 0.4854(2)
O5 O 0.4206(3) 0.5425(2) 0.7767(2)
C13 C 0.1389(3) 0.1432(3) 0.4662(3)
H9 H 0.1878 0.0897 0.5277
O6 O 0.6257(2) 0.4751(2) 0.7514(2)
C14 C 0.0825(3) 0.3457(3) 0.3966(2)
C15 C -0.0106(4) 0.2954(4) 0.2819(3)
H10 H -0.0620 0.3481 0.2209
C16 C 0.0481(4) 0.0904(3) 0.3503(3)
H11 H 0.0378 0.0025 0.3347
C17 C -0.0255(5) 0.1656(4) 0.2600(3)
H12 H -0.0865 0.1294 0.1828
C18 C 0.7129(5) 0.5590(5) 0.8624(5)
H13 H 0.8031 0.5911 0.8480
H14 H 0.6579 0.6312 0.8722
C19 C 0.5596(8) 0.1429(5) 0.3496(5)
H15 H 0.5076 0.1965 0.2854
H16 H 0.4908 0.0868 0.3731
H17 H 0.6230 0.0935 0.3168
C20 C 0.7462(7) 0.4919(5) 0.9747(4)
H18 H 0.7702 0.4075 0.9566
H19 H 0.6629 0.4872 1.0061
H20 H 0.8283 0.5355 1.0379
C21 C 0.6411(6) 0.2160(5) 0.4534(4)
H21? H 0.7398 0.2101 0.4965
loop_
_geom_bond_atom_site_label_1
_geom_bond_atom_site_label_2
_geom_bond_site_symmetry_1
_geom_bond_site_symmetry_2
O1 C5 1_555 1_555
N1 H1 1_555 1_555
O2 H2 1_555 1_555
C1 N1 1_555 1_555
C2 N1 1_555 1_555
H3 C2 1_555 1_555
C3 C1 1_555 1_555
H4 C3 1_555 1_555
C4 C1 1_555 1_555
C5 O2 1_555 1_555
C6 C4 1_555 1_555
H5 C6 1_555 1_555
C7 C3 1_555 1_555
H6 C7 1_555 1_555
O3 C8 1_555 1_555
F1 C14 1_555 1_555
C8 C9 1_555 1_555
C9 C2 1_555 1_555
H7 C9 1_555 1_555
C10 C2 1_555 1_555
C11 C6 1_555 1_555
H8 C11 1_555 1_555
C12 C9 1_555 1_555
O4 C8 1_555 1_555
O5 C12 1_555 1_555
C13 C10 1_555 1_555
H9 C13 1_555 1_555
O6 C12 1_555 1_555
C14 C10 1_555 1_555
C15 C14 1_555 1_555
H10 C15 1_555 1_555
C16 C13 1_555 1_555
H11 C16 1_555 1_555
C17 C15 1_555 1_555
H12 C17 1_555 1_555
C18 O6 1_555 1_555
H13 C18 1_555 1_555
H14 C18 1_555 1_555
C19 H15 1_555 1_555
H16 C19 1_555 1_555
H17 C19 1_555 1_555
C20 C18 1_555 1_555
H18 C20 1_555 1_555
H19 C20 1_555 1_555
H20 C20 1_555 1_555
C21 O4 1_555 1_555
C4 C5 1_555 1_555
C7 C11 1_555 1_555
C16 C17 1_555 1_555
C19 C21 1_555 1_555

#END
