
#######################################################################
#
#                 Cambridge Crystallographic Data Centre
#                                CCDC 
#
#######################################################################
#
# If this CIF has been generated from an entry in the Cambridge 
# Structural Database, then it will include bibliographic, chemical, 
# crystal, experimental, refinement or atomic coordinate data resulting 
# from the CCDC's data processing and validation procedures.
#
#######################################################################

data_ZIMTEX
_chemical_name_common            
'diethyl 2-(3-fluorophenyl(3-chlorophenylamino)methyl)malonate'
_chemical_formula_moiety         'C20 H21 Cl1 F1 N1 O4'
_chemical_name_systematic        
'diethyl (((3-chlorophenyl)amino)(3-fluorophenyl)methyl)propanedioate'
_symmetry_cell_setting           triclinic
_symmetry_space_group_name_H-M   'P -1'
_symmetry_Int_Tables_number      2
_space_group_name_Hall           '-P 1'
loop_
_symmetry_equiv_pos_site_id
_symmetry_equiv_pos_as_xyz
1 x,y,z
2 -x,-y,-z
_cell_length_a                   8.5448(6)
_cell_length_b                   11.2109(8)
_cell_length_c                   11.6473(8)
_cell_angle_alpha                99.949(6)
_cell_angle_beta                 106.762(5)
_cell_angle_gamma                104.087(5)
_cell_volume                     1000.13
_exptl_crystal_description       block
_chemical_melting_point          '131 deg.C'
_cell_formula_units_Z            2
loop_
_atom_site_label
_atom_site_type_symbol
_atom_site_fract_x
_atom_site_fract_y
_atom_site_fract_z
Cl1 Cl 0.06342(16) 0.98411(9) 0.35318(9)
C1 C 0.2169(3) 1.5593(2) 0.2020(2)
H1 H 0.2272 1.5600 0.1204
C2 C 0.2073(3) 1.4257(2) 0.2203(2)
H2 H 0.2025 1.4259 0.3034
C3 C 0.3634(3) 1.3870(2) 0.2112(2)
O1 O -0.0470(3) 1.6068(2) 0.11472(17)
N1 N 0.0458(3) 1.33781(19) 0.12900(18)
H3 H -0.0156 1.3661 0.0743
C4 C 0.0543(3) 1.5914(2) 0.2030(2)
C5 C 0.0499(4) 1.1642(2) 0.2288(2)
H4 H 0.1372 1.2183 0.3003
C6 C 0.4716(4) 1.3625(3) 0.3126(3)
H5 H 0.4524 1.3749 0.3878
O2 O 0.4606(3) 1.6480(2) 0.3931(2)
O3 O 0.3937(3) 1.77007(18) 0.26756(19)
C7 C 0.3709(4) 1.6621(2) 0.2989(2)
C8 C 0.3953(4) 1.3716(2) 0.1009(3)
H6 H 0.3255 1.3885 0.0322
C9 C -0.0120(3) 1.2104(2) 0.1273(2)
C10 C -0.1426(4) 1.1258(3) 0.0221(3)
H7 H -0.1858 1.1547 -0.0469
F1 F 0.5633(3) 1.3158(3) -0.0129(2)
C11 C 0.5333(4) 1.3305(3) 0.0950(3)
C12 C -0.0188(4) 1.0381(3) 0.2229(3)
C13 C 0.6062(4) 1.3204(3) 0.3031(4)
H8 H 0.6763 1.3030 0.3714
C14 C -0.1460(4) 0.9541(3) 0.1190(3)
H9 H -0.1886 0.8687 0.1163
C15 C -0.2084(5) 1.0000(3) 0.0193(3)
H10 H -0.2966 0.9452 -0.0514
C16 C 0.6382(4) 1.3037(3) 0.1935(4)
H11 H 0.7291 1.2748 0.1864
C17 C 0.5402(6) 1.8769(3) 0.3523(4)
H12 H 0.5299 1.8947 0.4339
H13 H 0.6460 1.8562 0.3604
C18 C 0.5441(7) 1.9883(4) 0.3032(5)
H14 H 0.5521 1.9695 0.2219
H15 H 0.6420 2.0586 0.3572
H16 H 0.4408 2.0100 0.2982
O4 O 0.0375(2) 1.60155(17) 0.31376(15)
C19 C -0.1120(4) 1.6362(3) 0.3266(3)
H17 H -0.2170 1.5683 0.2755
H18 H -0.1160 1.7131 0.3001
C20 C -0.0957(5) 1.6574(4) 0.4601(3)
H19 H -0.1917 1.6815 0.4714
H20 H 0.0091 1.7242 0.5098
H21 H -0.0938 1.5804 0.4850
loop_
_geom_bond_atom_site_label_1
_geom_bond_atom_site_label_2
_geom_bond_site_symmetry_1
_geom_bond_site_symmetry_2
Cl1 C12 1_555 1_555
C1 H1 1_555 1_555
C2 C1 1_555 1_555
H2 C2 1_555 1_555
C3 C2 1_555 1_555
O1 C4 1_555 1_555
N1 C2 1_555 1_555
H3 N1 1_555 1_555
C4 C1 1_555 1_555
C5 H4 1_555 1_555
C6 C3 1_555 1_555
H5 C6 1_555 1_555
O2 C7 1_555 1_555
O3 C7 1_555 1_555
C7 C1 1_555 1_555
C8 C3 1_555 1_555
H6 C8 1_555 1_555
C9 N1 1_555 1_555
C10 C9 1_555 1_555
H7 C10 1_555 1_555
F1 C11 1_555 1_555
C11 C8 1_555 1_555
C12 C5 1_555 1_555
C13 C6 1_555 1_555
H8 C13 1_555 1_555
C14 C12 1_555 1_555
H9 C14 1_555 1_555
C15 C10 1_555 1_555
H10 C15 1_555 1_555
C16 C11 1_555 1_555
H11 C16 1_555 1_555
C17 O3 1_555 1_555
H12 C17 1_555 1_555
H13 C17 1_555 1_555
C18 C17 1_555 1_555
H14 C18 1_555 1_555
H15 C18 1_555 1_555
H16 C18 1_555 1_555
O4 C4 1_555 1_555
C19 O4 1_555 1_555
H17 C19 1_555 1_555
H18 C19 1_555 1_555
C20 C19 1_555 1_555
H19 C20 1_555 1_555
H20 C20 1_555 1_555
H21 C20 1_555 1_555
C5 C9 1_555 1_555
C13 C16 1_555 1_555
C14 C15 1_555 1_555

#END
