
#######################################################################
#
#                 Cambridge Crystallographic Data Centre
#                                CCDC 
#
#######################################################################
#
# If this CIF has been generated from an entry in the Cambridge 
# Structural Database, then it will include bibliographic, chemical, 
# crystal, experimental, refinement or atomic coordinate data resulting 
# from the CCDC's data processing and validation procedures.
#
#######################################################################

data_ZIMWEA
_chemical_formula_moiety         'C25 H23 N1 O3 S1'
_chemical_name_systematic        
N-benzyl-4-methyl-N-(2-methyl-3-oxo-4-phenylcyclobut-1-en-1-yl)benzene-1-sulfonamide
_symmetry_cell_setting           orthorhombic
_symmetry_space_group_name_H-M   'P 21 21 21'
_symmetry_Int_Tables_number      19
_space_group_name_Hall           'P 2ac 2ab'
loop_
_symmetry_equiv_pos_site_id
_symmetry_equiv_pos_as_xyz
1 x,y,z
2 1/2-x,-y,1/2+z
3 -x,1/2+y,1/2-z
4 1/2+x,1/2-y,-z
_cell_length_a                   6.1623(2)
_cell_length_b                   15.6222(7)
_cell_length_c                   21.7282(10)
_cell_angle_alpha                90
_cell_angle_beta                 90
_cell_angle_gamma                90
_cell_volume                     2091.75
_exptl_crystal_colour            colorless
_exptl_crystal_description       block
_chemical_melting_point          '156-157 deg.C'
_cell_formula_units_Z            4
_exptl_crystal_recrystallization_method 'hexane/ethyl acetate'
loop_
_atom_site_label
_atom_site_type_symbol
_atom_site_fract_x
_atom_site_fract_y
_atom_site_fract_z
S1 S 0.91138(7) 0.12053(2) 1.009317(18)
O1 O 1.0347(3) -0.16712(10) 0.85046(7)
O2 O 1.1269(2) 0.08768(9) 1.01113(7)
O3 O 0.8705(2) 0.20959(7) 1.00031(7)
N1 N 0.7865(2) 0.07199(9) 0.94981(6)
C1 C 0.8051(4) 0.16573(13) 0.83467(9)
H1 H 0.9271 0.1372 0.8493
C2 C 0.8166(4) 0.21074(14) 0.77938(10)
H2 H 0.9451 0.2113 0.7570
C3 C 0.6383(4) 0.25419(14) 0.75803(10)
H3 H 0.6451 0.2837 0.7209
C4 C 0.4501(5) 0.25392(19) 0.79162(12)
H4 H 0.3303 0.2843 0.7775
C5 C 0.4366(4) 0.20862(15) 0.84652(11)
H5 H 0.3082 0.2088 0.8690
C6 C 0.6152(3) 0.16313(11) 0.86775(8)
C7 C 0.5864(3) 0.11293(11) 0.92685(7)
H6 H 0.5315 0.1512 0.9584
H7 H 0.4779 0.0689 0.9201
C8 C 0.8549(3) -0.00305(11) 0.92419(7)
C9 C 0.7779(3) -0.05131(12) 0.87615(8)
C10 C 0.9668(3) -0.10706(12) 0.87984(8)
C11 C 1.0579(3) -0.05739(11) 0.93613(8)
H8 H 1.1914 -0.0264 0.9259
C12 C 0.5939(4) -0.05178(15) 0.83144(10)
H9 H 0.4754 -0.0842 0.8482
H10 H 0.6405 -0.0774 0.7935
H11 H 0.5474 0.0059 0.8239
C13 C 1.0803(3) -0.10727(10) 0.99532(8)
C14 C 1.2732(3) -0.10525(13) 1.02826(10)
H12 H 1.3881 -0.0720 1.0142
C15 C 1.2960(4) -0.15229(15) 1.08181(11)
H13 H 1.4264 -0.1510 1.1033
C16 C 1.1264(5) -0.20092(14) 1.10328(10)
H14 H 1.1418 -0.2317 1.1396
C17 C 0.9339(4) -0.20429(14) 1.07127(10)
H15 H 0.8197 -0.2376 1.0858
C18 C 0.9104(3) -0.15769(12) 1.01698(9)
H16 H 0.7808 -0.1603 0.9951
C19 C 0.7670(3) 0.08664(11) 1.07455(7)
C20 C 0.8441(3) 0.02019(12) 1.11016(8)
H17 H 0.9758 -0.0058 1.1008
C21 C 0.7224(4) -0.00726(14) 1.16008(9)
H18 H 0.7744 -0.0515 1.1846
C22 C 0.5234(3) 0.03037(14) 1.17413(9)
C23 C 0.4509(3) 0.09757(13) 1.13765(9)
H19 H 0.3187 0.1235 1.1466
C24 C 0.5713(3) 0.12664(12) 1.08830(8)
H20 H 0.5223 0.1723 1.0646
C25 C 0.3881(5) -0.00138(18) 1.22708(11)
H21 H 0.2759 0.0394 1.2359
H22 H 0.4785 -0.0085 1.2627
H23 H 0.3237 -0.0553 1.2164
loop_
_geom_bond_atom_site_label_1
_geom_bond_atom_site_label_2
_geom_bond_site_symmetry_1
_geom_bond_site_symmetry_2
S1 O2 1_555 1_555
O1 C10 1_555 1_555
O3 S1 1_555 1_555
N1 S1 1_555 1_555
C1 H1 1_555 1_555
C2 C1 1_555 1_555
H2 C2 1_555 1_555
C3 C2 1_555 1_555
H3 C3 1_555 1_555
C4 C3 1_555 1_555
H4 C4 1_555 1_555
C5 C4 1_555 1_555
H5 C5 1_555 1_555
C6 C1 1_555 1_555
C7 N1 1_555 1_555
H6 C7 1_555 1_555
H7 C7 1_555 1_555
C8 N1 1_555 1_555
C9 C8 1_555 1_555
C10 C9 1_555 1_555
C11 C8 1_555 1_555
H8 C11 1_555 1_555
C12 C9 1_555 1_555
H9 C12 1_555 1_555
H10 C12 1_555 1_555
H11 C12 1_555 1_555
C13 C11 1_555 1_555
C14 C13 1_555 1_555
H12 C14 1_555 1_555
C15 C14 1_555 1_555
H13 C15 1_555 1_555
C16 C15 1_555 1_555
H14 C16 1_555 1_555
C17 C16 1_555 1_555
H15 C17 1_555 1_555
C18 C13 1_555 1_555
H16 C18 1_555 1_555
C19 S1 1_555 1_555
C20 C19 1_555 1_555
H17 C20 1_555 1_555
C21 C20 1_555 1_555
H18 C21 1_555 1_555
C22 C21 1_555 1_555
C23 C22 1_555 1_555
H19 C23 1_555 1_555
C24 C19 1_555 1_555
H20 C24 1_555 1_555
C25 C22 1_555 1_555
H21 C25 1_555 1_555
H22 C25 1_555 1_555
H23 C25 1_555 1_555
C5 C6 1_555 1_555
C6 C7 1_555 1_555
C10 C11 1_555 1_555
C17 C18 1_555 1_555
C23 C24 1_555 1_555

#END
