
#######################################################################
#
#                 Cambridge Crystallographic Data Centre
#                                CCDC 
#
#######################################################################
#
# If this CIF has been generated from an entry in the Cambridge 
# Structural Database, then it will include bibliographic, chemical, 
# crystal, experimental, refinement or atomic coordinate data resulting 
# from the CCDC's data processing and validation procedures.
#
#######################################################################

data_ZIMWIE
_chemical_formula_moiety         'C16 H12 N2 O2'
_chemical_name_systematic        
7-hydroxy-7-methylindazolo[2,3-b]isoquinolin-12(7H)-one
_symmetry_cell_setting           monoclinic
_symmetry_space_group_name_H-M   'P 21/n'
_symmetry_Int_Tables_number      14
_space_group_name_Hall           '-P 2yn'
loop_
_symmetry_equiv_pos_site_id
_symmetry_equiv_pos_as_xyz
1 x,y,z
2 1/2-x,1/2+y,1/2-z
3 -x,-y,-z
4 1/2+x,1/2-y,1/2+z
_cell_length_a                   8.0848(6)
_cell_length_b                   11.6383(11)
_cell_length_c                   13.0505(10)
_cell_angle_alpha                90
_cell_angle_beta                 90.708(7)
_cell_angle_gamma                90
_cell_volume                     1227.87
_exptl_crystal_colour            colorless
_exptl_crystal_description       block
_cell_formula_units_Z            4
loop_
_atom_site_label
_atom_site_type_symbol
_atom_site_fract_x
_atom_site_fract_y
_atom_site_fract_z
O1 O 0.68607(14) 0.67140(13) 0.45426(10)
O2 O 0.16642(14) 0.41072(12) 0.36100(10)
H1 H 0.2021 0.3855 0.4156
N1 N 0.12222(17) 0.64188(15) 0.41881(11)
N2 N 0.26861(16) 0.59689(14) 0.39369(11)
C1 C 0.1631(2) 0.73845(18) 0.47287(14)
C2 C 0.0546(2) 0.81748(19) 0.51851(15)
H2 H -0.0595 0.8079 0.5146
C3 C 0.1241(2) 0.9088(2) 0.56879(15)
H3 H 0.0554 0.9616 0.6006
C4 C 0.2971(2) 0.92538(19) 0.57392(15)
H4 H 0.3389 0.9899 0.6073
C5 C 0.4044(2) 0.84928(19) 0.53114(14)
H5 H 0.5182 0.8602 0.5357
C6 C 0.3366(2) 0.75361(17) 0.47991(13)
C7 C 0.4015(2) 0.65893(18) 0.42773(13)
C8 C 0.5683(2) 0.61845(18) 0.41469(13)
C9 C 0.5895(2) 0.51148(17) 0.35627(13)
C10 C 0.7487(2) 0.46776(18) 0.34108(14)
H6 H 0.8402 0.5066 0.3677
C11 C 0.7700(2) 0.36767(19) 0.28701(15)
H7 H 0.8759 0.3390 0.2768
C12 C 0.6339(2) 0.30934(19) 0.24763(15)
H8 H 0.6485 0.2419 0.2106
C13 C 0.4761(2) 0.35167(18) 0.26358(14)
H9 H 0.3853 0.3112 0.2382
C14 C 0.4513(2) 0.45281(18) 0.31657(13)
C15 C 0.2735(2) 0.49547(17) 0.32484(14)
C16 C 0.2055(2) 0.5336(2) 0.22042(15)
H10 H 0.2082 0.4700 0.1736
H11 H 0.2722 0.5951 0.1945
H12 H 0.0936 0.5596 0.2276
loop_
_geom_bond_atom_site_label_1
_geom_bond_atom_site_label_2
_geom_bond_site_symmetry_1
_geom_bond_site_symmetry_2
O1 C8 1_555 1_555
O2 H1 1_555 1_555
N1 N2 1_555 1_555
N2 C7 1_555 1_555
C1 N1 1_555 1_555
C2 C1 1_555 1_555
H2 C2 1_555 1_555
C3 C2 1_555 1_555
H3 C3 1_555 1_555
C4 C3 1_555 1_555
H4 C4 1_555 1_555
C5 C4 1_555 1_555
H5 C5 1_555 1_555
C6 C1 1_555 1_555
C7 C6 1_555 1_555
C8 C7 1_555 1_555
C9 C8 1_555 1_555
C10 C9 1_555 1_555
H6 C10 1_555 1_555
C11 C10 1_555 1_555
H7 C11 1_555 1_555
C12 C11 1_555 1_555
H8 C12 1_555 1_555
C13 C12 1_555 1_555
H9 C13 1_555 1_555
C14 C9 1_555 1_555
C15 O2 1_555 1_555
C16 C15 1_555 1_555
H10 C16 1_555 1_555
H11 C16 1_555 1_555
H12 C16 1_555 1_555
N2 C15 1_555 1_555
C5 C6 1_555 1_555
C13 C14 1_555 1_555
C14 C15 1_555 1_555

#END
