
#######################################################################
#
#                 Cambridge Crystallographic Data Centre
#                                CCDC 
#
#######################################################################
#
# If this CIF has been generated from an entry in the Cambridge 
# Structural Database, then it will include bibliographic, chemical, 
# crystal, experimental, refinement or atomic coordinate data resulting 
# from the CCDC's data processing and validation procedures.
#
#######################################################################

data_ZIMXUQ
_chemical_formula_moiety         'C21 H13 Cl1 I1 N1 O1'
_chemical_name_systematic        
2-(4-Chlorophenyl)-4-(iodo(phenyl)methylene)-4H-3,1-benzoxazine
_symmetry_cell_setting           monoclinic
_symmetry_space_group_name_H-M   'C 2/c'
_symmetry_Int_Tables_number      15
_space_group_name_Hall           '-C 2yn'
loop_
_symmetry_equiv_pos_site_id
_symmetry_equiv_pos_as_xyz
1 x,y,z
2 -x,y,1/2-z
3 1/2+x,1/2+y,z
4 1/2-x,1/2+y,1/2-z
5 -x,-y,-z
6 x,-y,1/2+z
7 1/2-x,1/2-y,-z
8 1/2+x,1/2-y,1/2+z
_cell_length_a                   15.6740(11)
_cell_length_b                   8.2808(6)
_cell_length_c                   28.5842(19)
_cell_angle_alpha                90
_cell_angle_beta                 101.6950(10)
_cell_angle_gamma                90
_cell_volume                     3633.02
_exptl_crystal_colour            yellow
_exptl_crystal_description       parallelepiped
_cell_formula_units_Z            8
loop_
_atom_site_label
_atom_site_type_symbol
_atom_site_fract_x
_atom_site_fract_y
_atom_site_fract_z
I1 I 0.246401(12) 0.12612(3) 0.444462(7)
Cl1 Cl 0.63356(6) 0.54673(10) 0.62688(3)
O1 O 0.43687(12) 0.1004(2) 0.44409(6)
N1 N 0.57349(15) 0.1175(3) 0.42280(9)
C1 C 0.39601(16) 0.0342(3) 0.40065(8)
C2 C 0.45507(16) -0.0347(3) 0.37200(8)
C3 C 0.43057(19) -0.1509(3) 0.33649(10)
H1 H 0.3734 -0.1878 0.3292
C4 C 0.4915(2) -0.2114(4) 0.31198(11)
H2 H 0.4745 -0.2873 0.2879
C5 C 0.5768(2) -0.1602(4) 0.32293(13)
H3 H 0.6170 -0.2010 0.3062
C6 C 0.6025(2) -0.0483(4) 0.35876(11)
H4 H 0.6601 -0.0139 0.3661
C7 C 0.54262(17) 0.0131(3) 0.38393(9)
C8 C 0.52180(17) 0.1508(3) 0.45034(9)
C9 C 0.54748(16) 0.2471(3) 0.49420(9)
C10 C 0.63363(17) 0.2964(3) 0.50818(10)
H5 H 0.6737 0.2669 0.4898
C11 C 0.66095(19) 0.3881(3) 0.54875(11)
H6 H 0.7187 0.4209 0.5578
C12 C 0.60012(19) 0.4299(3) 0.57544(9)
C13 C 0.5142(2) 0.3831(3) 0.56283(10)
H7 H 0.4745 0.4128 0.5815
C14 C 0.48780(17) 0.2912(3) 0.52199(9)
H8 H 0.4300 0.2587 0.5131
C15 C 0.30874(16) 0.0362(3) 0.39119(9)
C16 C 0.24940(16) -0.0078(3) 0.34556(9)
C17 C 0.1821(2) -0.1175(4) 0.34407(12)
H9 H 0.1734 -0.1659 0.3721
C18 C 0.1276(2) -0.1554(5) 0.30081(15)
H10 H 0.0832 -0.2304 0.3000
C19 C 0.1386(2) -0.0832(5) 0.25920(13)
H11 H 0.1015 -0.1088 0.2305
C20 C 0.2051(2) 0.0278(4) 0.26008(11)
H12 H 0.2133 0.0763 0.2320
C21 C 0.2593(2) 0.0656(4) 0.30321(10)
H13 H 0.3032 0.1416 0.3039
loop_
_geom_bond_atom_site_label_1
_geom_bond_atom_site_label_2
_geom_bond_site_symmetry_1
_geom_bond_site_symmetry_2
I1 C15 1_555 1_555
Cl1 C12 1_555 1_555
O1 C1 1_555 1_555
N1 C7 1_555 1_555
C1 C2 1_555 1_555
C2 C3 1_555 1_555
C3 H1 1_555 1_555
C4 C3 1_555 1_555
H2 C4 1_555 1_555
C5 C4 1_555 1_555
H3 C5 1_555 1_555
C6 C5 1_555 1_555
H4 C6 1_555 1_555
C7 C2 1_555 1_555
C8 O1 1_555 1_555
C9 C8 1_555 1_555
C10 C9 1_555 1_555
H5 C10 1_555 1_555
C11 C10 1_555 1_555
H6 C11 1_555 1_555
C12 C11 1_555 1_555
C13 C12 1_555 1_555
H7 C13 1_555 1_555
C14 C9 1_555 1_555
H8 C14 1_555 1_555
C15 C1 1_555 1_555
C16 C15 1_555 1_555
C17 C16 1_555 1_555
H9 C17 1_555 1_555
C18 C17 1_555 1_555
H10 C18 1_555 1_555
C19 C18 1_555 1_555
H11 C19 1_555 1_555
C20 C19 1_555 1_555
H12 C20 1_555 1_555
C21 C16 1_555 1_555
H13 C21 1_555 1_555
N1 C8 1_555 1_555
C6 C7 1_555 1_555
C13 C14 1_555 1_555
C20 C21 1_555 1_555

#END
