
#######################################################################
#
#                 Cambridge Crystallographic Data Centre
#                                CCDC 
#
#######################################################################
#
# If this CIF has been generated from an entry in the Cambridge 
# Structural Database, then it will include bibliographic, chemical, 
# crystal, experimental, refinement or atomic coordinate data resulting 
# from the CCDC's data processing and validation procedures.
#
#######################################################################

data_ZIMYUR
_chemical_formula_moiety         'C18 H17 I1 N2 O3 Si1'
_chemical_name_systematic        
4-(Iodo(trimethylsilyl)methylene)-2-(4-nitrophenyl)-4H-3,1-benzoxazine
_symmetry_cell_setting           monoclinic
_symmetry_space_group_name_H-M   'P 21/c'
_symmetry_Int_Tables_number      14
_space_group_name_Hall           '-P 2ybc'
loop_
_symmetry_equiv_pos_site_id
_symmetry_equiv_pos_as_xyz
1 x,y,z
2 -x,1/2+y,1/2-z
3 -x,-y,-z
4 x,1/2-y,1/2+z
_cell_length_a                   6.6498(4)
_cell_length_b                   20.2549(11)
_cell_length_c                   14.0362(8)
_cell_angle_alpha                90
_cell_angle_beta                 98.4040(10)
_cell_angle_gamma                90
_cell_volume                     1870.25
_exptl_crystal_colour            yellow
_exptl_crystal_description       parallelepiped
_cell_formula_units_Z            4
loop_
_atom_site_label
_atom_site_type_symbol
_atom_site_fract_x
_atom_site_fract_y
_atom_site_fract_z
I1 I 0.24964(3) 0.511557(10) 0.924062(16)
Si1 Si -0.09671(12) 0.53925(4) 0.73422(6)
O1 O 0.0889(3) 0.37432(8) 0.90700(12)
O2 O 0.9003(4) 0.14561(13) 1.0539(2)
O3 O 0.9950(3) 0.24317(14) 1.09926(18)
N1 N -0.0280(3) 0.27223(10) 0.84199(15)
N2 N 0.8685(4) 0.20431(14) 1.06068(17)
C1 C -0.0464(3) 0.41086(12) 0.84151(17)
C2 C -0.2251(3) 0.37293(13) 0.80052(17)
C3 C -0.4135(4) 0.40148(15) 0.7661(2)
H1 H -0.4301 0.4470 0.7697
C4 C -0.5741(4) 0.36269(17) 0.7271(2)
H2 H -0.6979 0.3822 0.7033
C5 C -0.5531(4) 0.29493(17) 0.7229(2)
H3 H -0.6618 0.2692 0.6950
C6 C -0.3719(4) 0.26539(14) 0.76000(18)
H4 H -0.3590 0.2197 0.7581
C7 C -0.2079(3) 0.30392(12) 0.80032(17)
C8 C 0.1032(4) 0.30775(12) 0.89279(17)
C9 C 0.2973(4) 0.28071(12) 0.94228(16)
C10 C 0.3307(4) 0.21314(13) 0.94301(19)
H5 H 0.2264 0.1848 0.9175
C11 C 0.5181(4) 0.18750(13) 0.98141(19)
H6 H 0.5417 0.1423 0.9812
C12 C 0.6685(4) 0.23036(13) 1.01990(18)
C13 C 0.6381(4) 0.29740(14) 1.02302(19)
H7 H 0.7416 0.3252 1.0510
C14 C 0.4510(4) 0.32295(13) 0.98386(18)
H8 H 0.4280 0.3682 0.9853
C15 C -0.0010(4) 0.47426(12) 0.8266(2)
C16 C -0.2605(7) 0.50671(17) 0.6243(3)
H9 H -0.3030 0.5426 0.5814
H10 H -0.3779 0.4854 0.6428
H11 H -0.1846 0.4754 0.5925
C17 C -0.2359(6) 0.60218(19) 0.7951(3)
H12 H -0.2867 0.6358 0.7497
H13 H -0.1455 0.6217 0.8471
H14 H -0.3475 0.5816 0.8200
C18 C 0.1313(6) 0.5766(3) 0.6920(4)
H15 H 0.0888 0.6100 0.6448
H16 H 0.2056 0.5430 0.6638
H17 H 0.2169 0.5961 0.7457
loop_
_geom_bond_atom_site_label_1
_geom_bond_atom_site_label_2
_geom_bond_site_symmetry_1
_geom_bond_site_symmetry_2
I1 C15 1_555 1_555
Si1 C15 1_555 1_555
O1 C1 1_555 1_555
O2 N2 1_555 1_555
O3 N2 1_555 1_555
N1 C7 1_555 1_555
N2 C12 1_555 1_555
C1 C2 1_555 1_555
C2 C3 1_555 1_555
C3 H1 1_555 1_555
C4 C3 1_555 1_555
H2 C4 1_555 1_555
C5 C4 1_555 1_555
H3 C5 1_555 1_555
C6 C5 1_555 1_555
H4 C6 1_555 1_555
C7 C2 1_555 1_555
C8 O1 1_555 1_555
C9 C8 1_555 1_555
C10 C9 1_555 1_555
H5 C10 1_555 1_555
C11 C10 1_555 1_555
H6 C11 1_555 1_555
C12 C11 1_555 1_555
C13 C12 1_555 1_555
H7 C13 1_555 1_555
C14 C9 1_555 1_555
H8 C14 1_555 1_555
C15 C1 1_555 1_555
C16 Si1 1_555 1_555
H9 C16 1_555 1_555
H10 C16 1_555 1_555
H11 C16 1_555 1_555
C17 Si1 1_555 1_555
H12 C17 1_555 1_555
H13 C17 1_555 1_555
H14 C17 1_555 1_555
C18 Si1 1_555 1_555
H15 C18 1_555 1_555
H16 C18 1_555 1_555
H17 C18 1_555 1_555
N1 C8 1_555 1_555
C6 C7 1_555 1_555
C13 C14 1_555 1_555

#END
