
#######################################################################
#
#                 Cambridge Crystallographic Data Centre
#                                CCDC 
#
#######################################################################
#
# If this CIF has been generated from an entry in the Cambridge 
# Structural Database, then it will include bibliographic, chemical, 
# crystal, experimental, refinement or atomic coordinate data resulting 
# from the CCDC's data processing and validation procedures.
#
#######################################################################

data_ZIMYEB
_chemical_formula_moiety         'C22 H12 Cl1 F3 I1 N1 O1'
_chemical_name_systematic        
2-(4-Chlorophenyl)-4-(iodo(phenyl)methylene)-6-(trifluoromethyl)-4H-3,1-benzoxazine
_symmetry_cell_setting           monoclinic
_symmetry_space_group_name_H-M   'C 2/c'
_symmetry_Int_Tables_number      15
_space_group_name_Hall           '-C 2yn'
loop_
_symmetry_equiv_pos_site_id
_symmetry_equiv_pos_as_xyz
1 x,y,z
2 -x,y,1/2-z
3 1/2+x,1/2+y,z
4 1/2-x,1/2+y,1/2-z
5 -x,-y,-z
6 x,-y,1/2+z
7 1/2-x,1/2-y,-z
8 1/2+x,1/2-y,1/2+z
_cell_length_a                   31.568(5)
_cell_length_b                   5.7418(8)
_cell_length_c                   23.028(3)
_cell_angle_alpha                90
_cell_angle_beta                 105.641(3)
_cell_angle_gamma                90
_cell_volume                     4019.43
_exptl_crystal_colour            yellow
_exptl_crystal_description       parallelepiped
_cell_formula_units_Z            8
loop_
_atom_site_label
_atom_site_type_symbol
_atom_site_fract_x
_atom_site_fract_y
_atom_site_fract_z
I1 I 0.207523(9) 0.12922(6) 0.230282(14)
Cl1 Cl 0.38124(4) -0.2459(3) 0.05458(6)
F1 F 0.0010(4) -0.637(4) 0.1465(6)
F2 F -0.0139(2) -0.395(2) 0.0792(6)
F3 F -0.0180(3) -0.742(3) 0.0524(8)
N1 N 0.18181(11) -0.5749(6) 0.07678(16)
O1 O 0.19207(9) -0.2164(5) 0.12660(13)
C1 C 0.20430(13) -0.3957(8) 0.09582(18)
C2 C 0.15651(13) -0.2462(8) 0.15141(19)
C3 C 0.12427(13) -0.4211(7) 0.11940(18)
C4 C 0.13935(14) -0.5847(7) 0.08493(19)
C5 C 0.11128(15) -0.7630(9) 0.0562(2)
H1 H 0.1214 -0.8759 0.0343
C6 C 0.06859(15) -0.7717(10) 0.0604(2)
H2 H 0.0502 -0.8926 0.0421
C7 C 0.05307(14) -0.6008(9) 0.0918(2)
C8 C 0.08056(14) -0.4287(8) 0.1210(2)
H3 H 0.0699 -0.3153 0.1423
C9 C 0.24821(13) -0.3544(8) 0.08614(17)
C10 C 0.27123(15) -0.1495(9) 0.1040(2)
H4 H 0.2592 -0.0336 0.1229
C11 C 0.31210(15) -0.1168(9) 0.0940(2)
H5 H 0.3274 0.0215 0.1054
C12 C 0.32982(14) -0.2895(9) 0.0671(2)
C13 C 0.30769(16) -0.4910(9) 0.0489(2)
H6 H 0.3199 -0.6062 0.0300
C14 C 0.26689(15) -0.5223(9) 0.0589(2)
H7 H 0.2518 -0.6607 0.0468
C15 C 0.15627(13) -0.1141(7) 0.19866(19)
C16 C 0.12361(13) -0.1215(8) 0.23399(18)
C17 C 0.09500(16) 0.0588(8) 0.2332(2)
H8 H 0.0962 0.1905 0.2101
C18 C 0.06440(18) 0.0473(10) 0.2662(3)
H9 H 0.0451 0.1709 0.2647
C19 C 0.06204(17) -0.1394(12) 0.3004(2)
H10 H 0.0416 -0.1443 0.3229
C20 C 0.09030(19) -0.3235(10) 0.3017(3)
H11 H 0.0885 -0.4553 0.3244
C21 C 0.12129(16) -0.3123(9) 0.2693(2)
H12 H 0.1408 -0.4352 0.2714
C22 C 0.00674(18) -0.6073(16) 0.0950(3)
F4? F -0.0034(10) -0.483(8) 0.131(2)
F5? F -0.0225(6) -0.596(6) 0.0465(11)
F6? F -0.0022(5) -0.838(5) 0.1136(17)
loop_
_geom_bond_atom_site_label_1
_geom_bond_atom_site_label_2
_geom_bond_site_symmetry_1
_geom_bond_site_symmetry_2
I1 C15 1_555 1_555
Cl1 C12 1_555 1_555
F1 C22 1_555 1_555
F2 C22 1_555 1_555
F3 C22 1_555 1_555
N1 C1 1_555 1_555
O1 C1 1_555 1_555
C1 C9 1_555 1_555
C2 O1 1_555 1_555
C3 C2 1_555 1_555
C4 N1 1_555 1_555
C5 C4 1_555 1_555
H1 C5 1_555 1_555
C6 C5 1_555 1_555
H2 C6 1_555 1_555
C7 C6 1_555 1_555
C8 C3 1_555 1_555
H3 C8 1_555 1_555
C9 C10 1_555 1_555
C10 H4 1_555 1_555
C11 C10 1_555 1_555
H5 C11 1_555 1_555
C12 C11 1_555 1_555
C13 C12 1_555 1_555
H6 C13 1_555 1_555
C14 C9 1_555 1_555
H7 C14 1_555 1_555
C15 C2 1_555 1_555
C16 C15 1_555 1_555
C17 C16 1_555 1_555
H8 C17 1_555 1_555
C18 C17 1_555 1_555
H9 C18 1_555 1_555
C19 C18 1_555 1_555
H10 C19 1_555 1_555
C20 C19 1_555 1_555
H11 C20 1_555 1_555
C21 C16 1_555 1_555
H12 C21 1_555 1_555
C22 C7 1_555 1_555
C3 C4 1_555 1_555
C7 C8 1_555 1_555
C13 C14 1_555 1_555
C20 C21 1_555 1_555

#END
