
#######################################################################
#
#                 Cambridge Crystallographic Data Centre
#                                CCDC 
#
#######################################################################
#
# If this CIF has been generated from an entry in the Cambridge 
# Structural Database, then it will include bibliographic, chemical, 
# crystal, experimental, refinement or atomic coordinate data resulting 
# from the CCDC's data processing and validation procedures.
#
#######################################################################

data_ZIMYOL
_chemical_formula_moiety         'C20 H17 F3 I1 N1 O1'
_chemical_name_systematic        
4-(1-Iodopentylidene)-2-(4-(trifluoromethyl)phenyl)-4H-3,1-benzoxazine
_symmetry_cell_setting           triclinic
_symmetry_space_group_name_H-M   'P -1'
_symmetry_Int_Tables_number      2
_space_group_name_Hall           '-P 1'
loop_
_symmetry_equiv_pos_site_id
_symmetry_equiv_pos_as_xyz
1 x,y,z
2 -x,-y,-z
_cell_length_a                   5.3560(2)
_cell_length_b                   11.4646(7)
_cell_length_c                   15.8424(10)
_cell_angle_alpha                107.043(6)
_cell_angle_beta                 96.345(4)
_cell_angle_gamma                98.308(4)
_cell_volume                     908.219
_exptl_crystal_colour            yellow
_exptl_crystal_description       parallelepiped
_cell_formula_units_Z            2
loop_
_atom_site_label
_atom_site_type_symbol
_atom_site_fract_x
_atom_site_fract_y
_atom_site_fract_z
I1 I 1.08013(2) 0.408992(11) 0.387242(9)
F1 F 1.3480(3) 0.52256(11) 0.88504(8)
F2 F 1.2767(3) 0.33979(11) 0.89621(9)
F3 F 1.6596(2) 0.44235(13) 0.92500(9)
O1 O 1.3496(2) 0.22443(11) 0.44417(9)
N1 N 1.7081(3) 0.13959(13) 0.47793(11)
C1 C 1.3860(3) 0.20797(16) 0.35583(12)
C2 C 1.5359(3) 0.11144(15) 0.32153(12)
C3 C 1.5211(3) 0.04520(16) 0.23127(13)
H1 H 1.4007 0.0578 0.1876
C4 C 1.6812(3) -0.03894(16) 0.20506(13)
H2 H 1.6719 -0.0828 0.1435
C5 C 1.8553(3) -0.05928(16) 0.26871(13)
H3 H 1.9692 -0.1146 0.2502
C6 C 1.8636(3) 0.00048(16) 0.35870(13)
H4 H 1.9791 -0.0157 0.4020
C7 C 1.7016(3) 0.08492(16) 0.38595(13)
C8 C 1.5324(3) 0.20093(15) 0.50121(12)
C9 C 1.5035(3) 0.25566(15) 0.59523(12)
C10 C 1.6711(3) 0.23857(17) 0.66275(13)
H5 H 1.7981 0.1897 0.6474
C11 C 1.6537(3) 0.29207(17) 0.75147(13)
H6 H 1.7692 0.2807 0.7971
C12 C 1.4666(3) 0.36264(16) 0.77383(12)
C13 C 1.2975(3) 0.37898(17) 0.70691(13)
H7 H 1.1691 0.4269 0.7224
C14 C 1.3154(3) 0.32585(16) 0.61810(13)
H8 H 1.1994 0.3372 0.5726
C15 C 1.4392(4) 0.41718(17) 0.86945(14)
C16 C 1.2882(3) 0.28200(16) 0.31522(12)
C17 C 1.3077(3) 0.28816(16) 0.22283(13)
H9 H 1.4540 0.2503 0.2024
H10 H 1.3444 0.3765 0.2256
C18 C 1.0678(3) 0.22291(17) 0.15377(13)
H11 H 0.9227 0.2633 0.1724
H12 H 1.0260 0.1354 0.1526
C19 C 1.0983(4) 0.2258(2) 0.05962(14)
H13 H 1.1449 0.3132 0.0610
H14 H 1.2400 0.1831 0.0402
C20 C 0.8572(4) 0.1641(2) -0.00789(15)
H15 H 0.8867 0.1680 -0.0670
H16 H 0.7172 0.2072 0.0101
H17 H 0.8119 0.0770 -0.0104
loop_
_geom_bond_atom_site_label_1
_geom_bond_atom_site_label_2
_geom_bond_site_symmetry_1
_geom_bond_site_symmetry_2
I1 C16 1_555 1_555
F1 C15 1_555 1_555
F2 C15 1_555 1_555
F3 C15 1_555 1_555
O1 C1 1_555 1_555
N1 C7 1_555 1_555
C1 C2 1_555 1_555
C2 C3 1_555 1_555
C3 H1 1_555 1_555
C4 C3 1_555 1_555
H2 C4 1_555 1_555
C5 C4 1_555 1_555
H3 C5 1_555 1_555
C6 C5 1_555 1_555
H4 C6 1_555 1_555
C7 C2 1_555 1_555
C8 O1 1_555 1_555
C9 C8 1_555 1_555
C10 C9 1_555 1_555
H5 C10 1_555 1_555
C11 C10 1_555 1_555
H6 C11 1_555 1_555
C12 C11 1_555 1_555
C13 C12 1_555 1_555
H7 C13 1_555 1_555
C14 C9 1_555 1_555
H8 C14 1_555 1_555
C15 C12 1_555 1_555
C16 C1 1_555 1_555
C17 C16 1_555 1_555
H9 C17 1_555 1_555
H10 C17 1_555 1_555
C18 C17 1_555 1_555
H11 C18 1_555 1_555
H12 C18 1_555 1_555
C19 C18 1_555 1_555
H13 C19 1_555 1_555
H14 C19 1_555 1_555
C20 C19 1_555 1_555
H15 C20 1_555 1_555
H16 C20 1_555 1_555
H17 C20 1_555 1_555
N1 C8 1_555 1_555
C6 C7 1_555 1_555
C13 C14 1_555 1_555

#END
