
#######################################################################
#
#                 Cambridge Crystallographic Data Centre
#                                CCDC 
#
#######################################################################
#
# If this CIF has been generated from an entry in the Cambridge 
# Structural Database, then it will include bibliographic, chemical, 
# crystal, experimental, refinement or atomic coordinate data resulting 
# from the CCDC's data processing and validation procedures.
#
#######################################################################

data_ZIMYIF
_chemical_formula_moiety         'C19 H17 I1 N2 O3'
_chemical_name_systematic        
4-(1-Iodopentylidene)-2-(4-nitrophenyl)-4H-3,1-benzoxazine
_symmetry_cell_setting           monoclinic
_symmetry_space_group_name_H-M   'P 21/c'
_symmetry_Int_Tables_number      14
_space_group_name_Hall           '-P 2ybc'
loop_
_symmetry_equiv_pos_site_id
_symmetry_equiv_pos_as_xyz
1 x,y,z
2 -x,1/2+y,1/2-z
3 -x,-y,-z
4 x,1/2-y,1/2+z
_cell_length_a                   6.8137(3)
_cell_length_b                   10.3948(5)
_cell_length_c                   24.8522(12)
_cell_angle_alpha                90
_cell_angle_beta                 96.933(4)
_cell_angle_gamma                90
_cell_volume                     1747.34
_exptl_crystal_colour            red
_exptl_crystal_description       parallelepiped
_cell_formula_units_Z            4
loop_
_atom_site_label
_atom_site_type_symbol
_atom_site_fract_x
_atom_site_fract_y
_atom_site_fract_z
I1 I 0.31633(10) 0.12254(5) 0.08872(2)
O1 O 0.2861(9) 0.3114(6) -0.0024(2)
O2 O 0.0703(12) -0.1493(6) -0.1940(3)
O3 O 0.0092(11) -0.0070(7) -0.2563(3)
N1 N 0.1723(11) 0.4754(7) -0.0630(3)
N2 N 0.0578(12) -0.0368(8) -0.2099(3)
C1 C 0.2921(12) 0.3896(8) 0.0438(3)
C2 C 0.2820(12) 0.5256(8) 0.0326(3)
C3 C 0.3331(14) 0.6207(9) 0.0708(3)
H1 H 0.3882 0.5958 0.1062
C4 C 0.3070(13) 0.7507(8) 0.0595(4)
H2 H 0.3374 0.8134 0.0870
C5 C 0.2338(13) 0.7884(8) 0.0057(4)
H3 H 0.2132 0.8768 -0.0031
C6 C 0.1931(13) 0.6947(9) -0.0338(4)
H4 H 0.1481 0.7185 -0.0701
C7 C 0.2184(12) 0.5652(8) -0.0199(4)
C8 C 0.2097(13) 0.3584(8) -0.0516(3)
C9 C 0.1746(13) 0.2558(8) -0.0929(3)
C10 C 0.2125(13) 0.1261(9) -0.0782(3)
H5 H 0.2649 0.1047 -0.0422
C11 C 0.1731(13) 0.0310(8) -0.1165(4)
H6 H 0.1956 -0.0569 -0.1072
C12 C 0.1002(13) 0.0661(9) -0.1686(4)
C13 C 0.0625(14) 0.1916(9) -0.1848(4)
H7 H 0.0124 0.2116 -0.2211
C14 C 0.1003(14) 0.2877(9) -0.1461(3)
H8 H 0.0756 0.3751 -0.1558
C15 C 0.3022(13) 0.3238(8) 0.0910(4)
C16 C 0.3081(14) 0.3763(9) 0.1475(4)
H9 H 0.2304 0.3192 0.1687
H10 H 0.2448 0.4622 0.1458
C17 C 0.5196(14) 0.3883(9) 0.1769(4)
H11 H 0.5846 0.3030 0.1773
H12 H 0.5959 0.4479 0.1562
C18 C 0.5260(15) 0.4369(10) 0.2346(4)
H13 H 0.6560 0.4153 0.2549
H14 H 0.4228 0.3924 0.2525
C19 C 0.4932(17) 0.5837(11) 0.2372(5)
H15 H 0.4979 0.6105 0.2752
H16 H 0.3638 0.6054 0.2177
H17 H 0.5970 0.6282 0.2205
loop_
_geom_bond_atom_site_label_1
_geom_bond_atom_site_label_2
_geom_bond_site_symmetry_1
_geom_bond_site_symmetry_2
I1 C15 1_555 1_555
O1 C1 1_555 1_555
O2 N2 1_555 1_555
O3 N2 1_555 1_555
N1 C7 1_555 1_555
N2 C12 1_555 1_555
C1 C2 1_555 1_555
C2 C3 1_555 1_555
C3 H1 1_555 1_555
C4 C3 1_555 1_555
H2 C4 1_555 1_555
C5 C4 1_555 1_555
H3 C5 1_555 1_555
C6 C5 1_555 1_555
H4 C6 1_555 1_555
C7 C2 1_555 1_555
C8 O1 1_555 1_555
C9 C8 1_555 1_555
C10 C9 1_555 1_555
H5 C10 1_555 1_555
C11 C10 1_555 1_555
H6 C11 1_555 1_555
C12 C11 1_555 1_555
C13 C12 1_555 1_555
H7 C13 1_555 1_555
C14 C9 1_555 1_555
H8 C14 1_555 1_555
C15 C1 1_555 1_555
C16 C15 1_555 1_555
H9 C16 1_555 1_555
H10 C16 1_555 1_555
C17 C16 1_555 1_555
H11 C17 1_555 1_555
H12 C17 1_555 1_555
C18 C17 1_555 1_555
H13 C18 1_555 1_555
H14 C18 1_555 1_555
C19 C18 1_555 1_555
H15 C19 1_555 1_555
H16 C19 1_555 1_555
H17 C19 1_555 1_555
N1 C8 1_555 1_555
C6 C7 1_555 1_555
C13 C14 1_555 1_555

#END
