
#######################################################################
#
#                 Cambridge Crystallographic Data Centre
#                                CCDC 
#
#######################################################################
#
# If this CIF has been generated from an entry in the Cambridge 
# Structural Database, then it will include bibliographic, chemical, 
# crystal, experimental, refinement or atomic coordinate data resulting 
# from the CCDC's data processing and validation procedures.
#
#######################################################################

data_ZIMZEC
_chemical_formula_moiety         'C27 H18 N2 O4'
_chemical_name_systematic        
1-(4-Nitrobenzoyl)-2,2-diphenyl-1,2-dihydro-3H-indol-3-one
_symmetry_cell_setting           monoclinic
_symmetry_space_group_name_H-M   'P 21/n'
_symmetry_Int_Tables_number      14
_space_group_name_Hall           '-P 2yn'
loop_
_symmetry_equiv_pos_site_id
_symmetry_equiv_pos_as_xyz
1 x,y,z
2 1/2-x,1/2+y,1/2-z
3 -x,-y,-z
4 1/2+x,1/2-y,1/2+z
_cell_length_a                   12.0042(3)
_cell_length_b                   14.4363(3)
_cell_length_c                   12.4330(4)
_cell_angle_alpha                90
_cell_angle_beta                 106.177(3)
_cell_angle_gamma                90
_cell_volume                     2069.28
_exptl_crystal_colour            colorless
_exptl_crystal_description       parallelepiped
_cell_formula_units_Z            4
loop_
_atom_site_label
_atom_site_type_symbol
_atom_site_fract_x
_atom_site_fract_y
_atom_site_fract_z
O1 O 0.21259(7) 0.08340(6) 0.13668(7)
O2 O 0.66794(7) 0.21084(6) 0.17929(8)
O3 O 0.56218(10) 0.62752(7) 0.42813(12)
O4 O 0.53559(9) 0.66666(7) 0.25462(11)
N1 N 0.50169(7) 0.16551(6) 0.21499(7)
N2 N 0.55194(9) 0.60940(9) 0.32978(14)
C1 C 0.51292(9) 0.07174(8) 0.18638(9)
C2 C 0.61300(10) 0.02254(9) 0.18882(10)
H1 H 0.6855 0.0508 0.2090
C3 C 0.60066(12) -0.06966(9) 0.16014(11)
H2 H 0.6668 -0.1041 0.1626
C4 C 0.49428(12) -0.11313(9) 0.12792(12)
H3 H 0.4898 -0.1756 0.1088
C5 C 0.39507(11) -0.06446(9) 0.12400(11)
H4 H 0.3227 -0.0927 0.1011
C6 C 0.40577(9) 0.02791(8) 0.15506(9)
C7 C 0.31650(10) 0.09399(8) 0.16185(9)
C8 C 0.37901(8) 0.18456(7) 0.21623(9)
C9 C 0.36528(9) 0.18185(7) 0.33457(9)
C10 C 0.45307(9) 0.14990(8) 0.42498(10)
H5 H 0.5245 0.1336 0.4149
C11 C 0.43538(11) 0.14202(8) 0.52964(10)
H6 H 0.4950 0.1207 0.5896
C12 C 0.33094(11) 0.16539(8) 0.54572(11)
H7 H 0.3200 0.1618 0.6168
C13 C 0.24251(10) 0.19407(9) 0.45648(11)
H8 H 0.1708 0.2086 0.4670
C14 C 0.25822(9) 0.20168(8) 0.35127(10)
H9 H 0.1969 0.2202 0.2912
C15 C 0.33105(8) 0.26829(7) 0.14332(9)
C16 C 0.29782(9) 0.35020(8) 0.18326(10)
H10 H 0.2989 0.3550 0.2581
C17 C 0.26287(9) 0.42529(9) 0.11204(12)
H11 H 0.2404 0.4800 0.1395
C18 C 0.26121(10) 0.41928(10) 0.00161(12)
H12 H 0.2386 0.4700 -0.0455
C19 C 0.29313(10) 0.33788(10) -0.03953(11)
H13 H 0.2918 0.3334 -0.1145
C20 C 0.32694(9) 0.26320(8) 0.03096(10)
H14 H 0.3475 0.2082 0.0026
C21 C 0.58329(9) 0.23115(8) 0.20962(9)
C22 C 0.56950(8) 0.32869(8) 0.24326(10)
C23 C 0.56953(9) 0.35292(8) 0.35110(10)
H15 H 0.5719 0.3070 0.4042
C24 C 0.56604(9) 0.44507(9) 0.38002(11)
H16 H 0.5681 0.4619 0.4528
C25 C 0.55944(9) 0.51109(8) 0.29943(11)
C26 C 0.55989(9) 0.48956(9) 0.19222(11)
H17 H 0.5551 0.5359 0.1391
C27 C 0.56758(9) 0.39784(9) 0.16479(10)
H18 H 0.5715 0.3820 0.0934
loop_
_geom_bond_atom_site_label_1
_geom_bond_atom_site_label_2
_geom_bond_site_symmetry_1
_geom_bond_site_symmetry_2
O1 C7 1_555 1_555
O2 C21 1_555 1_555
O3 N2 1_555 1_555
O4 N2 1_555 1_555
N1 C1 1_555 1_555
N2 C25 1_555 1_555
C1 C2 1_555 1_555
C2 H1 1_555 1_555
C3 C2 1_555 1_555
H2 C3 1_555 1_555
C4 C3 1_555 1_555
H3 C4 1_555 1_555
C5 C4 1_555 1_555
H4 C5 1_555 1_555
C6 C1 1_555 1_555
C7 C6 1_555 1_555
C8 N1 1_555 1_555
C9 C8 1_555 1_555
C10 C9 1_555 1_555
H5 C10 1_555 1_555
C11 C10 1_555 1_555
H6 C11 1_555 1_555
C12 C11 1_555 1_555
H7 C12 1_555 1_555
C13 C12 1_555 1_555
H8 C13 1_555 1_555
C14 C9 1_555 1_555
H9 C14 1_555 1_555
C15 C8 1_555 1_555
C16 C15 1_555 1_555
H10 C16 1_555 1_555
C17 C16 1_555 1_555
H11 C17 1_555 1_555
C18 C17 1_555 1_555
H12 C18 1_555 1_555
C19 C18 1_555 1_555
H13 C19 1_555 1_555
C20 C15 1_555 1_555
H14 C20 1_555 1_555
C21 N1 1_555 1_555
C22 C21 1_555 1_555
C23 C22 1_555 1_555
H15 C23 1_555 1_555
C24 C23 1_555 1_555
H16 C24 1_555 1_555
C25 C24 1_555 1_555
C26 C25 1_555 1_555
H17 C26 1_555 1_555
C27 C22 1_555 1_555
H18 C27 1_555 1_555
C5 C6 1_555 1_555
C7 C8 1_555 1_555
C13 C14 1_555 1_555
C19 C20 1_555 1_555
C26 C27 1_555 1_555

#END
