
#######################################################################
#
#                 Cambridge Crystallographic Data Centre
#                                CCDC 
#
#######################################################################
#
# If this CIF has been generated from an entry in the Cambridge 
# Structural Database, then it will include bibliographic, chemical, 
# crystal, experimental, refinement or atomic coordinate data resulting 
# from the CCDC's data processing and validation procedures.
#
#######################################################################

data_ZINDOR
_chemical_formula_moiety         'C20 H25 N5 O2 S1'
_chemical_name_systematic        
2-(Dimethylamino)-N-(1-oxo-3-phenyl-1-(2-(phenylcarbamothioyl)hydrazino)propan-2-yl)acetamide
_symmetry_cell_setting           orthorhombic
_symmetry_space_group_name_H-M   'P 21 21 21'
_symmetry_Int_Tables_number      19
_space_group_name_Hall           'P 2ac 2ab'
loop_
_symmetry_equiv_pos_site_id
_symmetry_equiv_pos_as_xyz
1 x,y,z
2 1/2-x,-y,1/2+z
3 -x,1/2+y,1/2-z
4 1/2+x,1/2-y,-z
_cell_length_a                   8.7524(4)
_cell_length_b                   15.1376(7)
_cell_length_c                   15.8697(8)
_cell_angle_alpha                90
_cell_angle_beta                 90
_cell_angle_gamma                90
_cell_volume                     2102.58
_cell_formula_units_Z            4
loop_
_atom_site_label
_atom_site_type_symbol
_atom_site_fract_x
_atom_site_fract_y
_atom_site_fract_z
S1 S 0.46172(8) 0.97282(4) 1.06929(4)
O1 O 0.56008(16) 0.73368(11) 0.92908(10)
O2 O 0.14489(17) 0.74067(11) 0.83820(10)
N1 N 0.39152(19) 0.80723(13) 1.05293(12)
H1 H 0.4328 0.8014 1.1018
C1 C 0.3692(2) 0.62522(15) 0.89455(13)
H2 H 0.2696 0.6084 0.9177
N2 N 0.3473(2) 0.73219(12) 1.00910(11)
H3 H 0.2642 0.7052 1.0224
N3 N 0.27585(19) 0.89509(12) 0.95464(12)
H4 H 0.2348 0.8457 0.9403
N4 N 0.3501(2) 0.65578(13) 0.80864(11)
H5 H 0.4120 0.6372 0.7705
C2 C 0.2312(2) 0.96856(15) 0.90426(14)
C3 C 0.4349(2) 0.70168(15) 0.94562(13)
C4 C 0.4772(3) 0.54552(16) 0.89743(15)
H6 H 0.5777 0.5634 0.8783
H7 H 0.4866 0.5252 0.9552
C5 C 0.3715(2) 0.89001(15) 1.02085(13)
C6 C 0.1149(2) 0.95265(16) 0.84648(15)
H8 H 0.0662 0.8981 0.8458
C7 C 0.4205(2) 0.47076(15) 0.84315(14)
C8 C 0.2923(3) 0.42201(16) 0.86669(16)
H9 H 0.2446 0.4337 0.9178
C9 C 0.1415(3) 1.09901(18) 0.79106(17)
H10 H 0.1122 1.1425 0.7530
C10 C 0.2391(2) 0.71181(15) 0.78699(14)
N5 N 0.3366(2) 0.69056(16) 0.64125(12)
C11 C 0.2376(3) 0.74222(18) 0.69678(15)
H11 H 0.1337 0.7391 0.6757
H12 H 0.2694 0.8036 0.6948
C12 C 0.0716(3) 1.01698(18) 0.79058(17)
H13 H -0.0056 1.0054 0.7519
C13 C 0.4343(3) 0.38527(19) 0.71619(17)
H14 H 0.4837 0.3726 0.6657
C14 C 0.2352(3) 0.35631(17) 0.81465(18)
H15 H 0.1495 0.3243 0.8309
C15 C 0.2537(3) 1.11472(17) 0.8483(2)
H16 H 0.3014 1.1696 0.8487
C16 C 0.3053(3) 0.33837(18) 0.73889(18)
H17 H 0.2661 0.2951 0.7033
C17 C 0.4901(3) 0.45065(18) 0.76795(17)
H18 H 0.5768 0.4819 0.7517
C18 C 0.2989(3) 1.05133(17) 0.90604(17)
H19 H 0.3740 1.0642 0.9457
C19 C 0.2618(3) 0.6096(2) 0.61415(18)
H20 H 0.2287 0.5769 0.6626
H21 H 0.3324 0.5746 0.5821
H22 H 0.1750 0.6240 0.5798
C20 C 0.3865(3) 0.7423(3) 0.56968(18)
H23 H 0.4353 0.7953 0.5892
H24 H 0.2998 0.7575 0.5356
H25 H 0.4575 0.7084 0.5368
loop_
_geom_bond_atom_site_label_1
_geom_bond_atom_site_label_2
_geom_bond_site_symmetry_1
_geom_bond_site_symmetry_2
S1 C5 1_555 1_555
O1 C3 1_555 1_555
O2 C10 1_555 1_555
N1 H1 1_555 1_555
C1 H2 1_555 1_555
N2 N1 1_555 1_555
H3 N2 1_555 1_555
N3 H4 1_555 1_555
N4 C1 1_555 1_555
H5 N4 1_555 1_555
C2 N3 1_555 1_555
C3 C1 1_555 1_555
C4 C1 1_555 1_555
H6 C4 1_555 1_555
H7 C4 1_555 1_555
C5 N1 1_555 1_555
C6 C2 1_555 1_555
H8 C6 1_555 1_555
C7 C4 1_555 1_555
C8 C7 1_555 1_555
H9 C8 1_555 1_555
C9 H10 1_555 1_555
C10 N4 1_555 1_555
N5 C11 1_555 1_555
C11 C10 1_555 1_555
H11 C11 1_555 1_555
H12 C11 1_555 1_555
C12 C6 1_555 1_555
H13 C12 1_555 1_555
C13 H14 1_555 1_555
C14 C8 1_555 1_555
H15 C14 1_555 1_555
C15 C9 1_555 1_555
H16 C15 1_555 1_555
C16 C13 1_555 1_555
H17 C16 1_555 1_555
C17 C7 1_555 1_555
H18 C17 1_555 1_555
C18 C2 1_555 1_555
H19 C18 1_555 1_555
C19 N5 1_555 1_555
H20 C19 1_555 1_555
H21 C19 1_555 1_555
H22 C19 1_555 1_555
C20 N5 1_555 1_555
H23 C20 1_555 1_555
H24 C20 1_555 1_555
H25 C20 1_555 1_555
N2 C3 1_555 1_555
N3 C5 1_555 1_555
C9 C12 1_555 1_555
C13 C17 1_555 1_555
C14 C16 1_555 1_555
C15 C18 1_555 1_555

#END
