
#######################################################################
#
#                 Cambridge Crystallographic Data Centre
#                                CCDC 
#
#######################################################################
#
# If this CIF has been generated from an entry in the Cambridge 
# Structural Database, then it will include bibliographic, chemical, 
# crystal, experimental, refinement or atomic coordinate data resulting 
# from the CCDC's data processing and validation procedures.
#
#######################################################################

data_ZINNUI
_chemical_formula_moiety         'C12 H2 Cl2 N8 O14'
_chemical_name_systematic        
2,2'-(diazene-1,2-diyl)bis(5-chloro-3,4,6-trinitrophenol)
_symmetry_cell_setting           monoclinic
_symmetry_space_group_name_H-M   'P 21/c'
_symmetry_Int_Tables_number      14
_space_group_name_Hall           '-P 2ybc'
loop_
_symmetry_equiv_pos_site_id
_symmetry_equiv_pos_as_xyz
1 x,y,z
2 -x,1/2+y,1/2-z
3 -x,-y,-z
4 x,1/2-y,1/2+z
_cell_length_a                   11.430(2)
_cell_length_b                   5.4511(11)
_cell_length_c                   15.427(3)
_cell_angle_alpha                90
_cell_angle_beta                 98.60(3)
_cell_angle_gamma                90
_cell_volume                     950.388
_exptl_crystal_colour            colorless
_exptl_crystal_description       block
_cell_formula_units_Z            2
loop_
_atom_site_label
_atom_site_type_symbol
_atom_site_fract_x
_atom_site_fract_y
_atom_site_fract_z
Cl1 Cl 0.89612(11) 0.0896(3) 0.26290(8)
O1 O 0.6876(4) -0.5013(8) 0.5291(3)
O2 O 0.8314(4) -0.2719(9) 0.5888(3)
O3 O 0.9076(3) -0.4893(8) 0.4237(3)
O4 O 1.0188(3) -0.1704(9) 0.4196(3)
O5 O 0.7123(5) 0.5532(8) 0.2546(3)
O6 O 0.6012(4) 0.2830(8) 0.1849(2)
N1 N 0.6668(4) 0.3530(7) 0.2482(3)
N2 N 0.9238(3) -0.2685(8) 0.4166(3)
N3 N 0.7528(3) -0.3250(7) 0.5306(2)
N4 N 0.5477(3) -0.0607(7) 0.5061(2)
O7 O 0.5125(3) 0.3032(7) 0.3607(3)
H1 H 0.4661 0.2504 0.3938
C1 C 0.7980(4) 0.0543(9) 0.3345(3)
C2 C 0.8176(4) -0.1145(8) 0.4045(3)
C3 C 0.7311(4) -0.1493(8) 0.4569(3)
C4 C 0.6257(4) -0.0163(8) 0.4459(3)
C5 C 0.6067(4) 0.1557(8) 0.3767(3)
C6 C 0.6929(4) 0.1817(8) 0.3230(3)
Cl1B Cl 0.10388(11) -0.0896(3) 0.73710(8)
O1B O 0.3124(4) 0.5013(8) 0.4709(3)
O2B O 0.1686(4) 0.2719(9) 0.4112(3)
O3B O 0.0924(3) 0.4893(8) 0.5763(3)
O4B O -0.0188(3) 0.1704(9) 0.5804(3)
O5B O 0.2877(5) -0.5532(8) 0.7454(3)
O6B O 0.3988(4) -0.2830(8) 0.8151(2)
N1B N 0.3332(4) -0.3530(7) 0.7518(3)
N2B N 0.0762(3) 0.2685(8) 0.5834(3)
N3B N 0.2472(3) 0.3250(7) 0.4694(2)
N4B N 0.4523(3) 0.0607(7) 0.4939(2)
O7B O 0.4875(3) -0.3032(7) 0.6393(3)
H1B H 0.5339 -0.2504 0.6062
C1B C 0.2020(4) -0.0543(9) 0.6655(3)
C2B C 0.1824(4) 0.1145(8) 0.5955(3)
C3B C 0.2689(4) 0.1493(8) 0.5431(3)
C4B C 0.3743(4) 0.0163(8) 0.5541(3)
C5B C 0.3933(4) -0.1557(8) 0.6233(3)
C6B C 0.3071(4) -0.1817(8) 0.6770(3)
loop_
_geom_bond_atom_site_label_1
_geom_bond_atom_site_label_2
_geom_bond_site_symmetry_1
_geom_bond_site_symmetry_2
Cl1 C1 1_555 1_555
O1 N3 1_555 1_555
O2 N3 1_555 1_555
O3 N2 1_555 1_555
O4 N2 1_555 1_555
O5 N1 1_555 1_555
O6 N1 1_555 1_555
N1 C6 1_555 1_555
N2 C2 1_555 1_555
N3 C3 1_555 1_555
N4 C4 1_555 1_555
O7 H1 1_555 1_555
C1 C2 1_555 1_555
C2 C3 1_555 1_555
C3 C4 1_555 1_555
C4 C5 1_555 1_555
C5 O7 1_555 1_555
C6 C1 1_555 1_555
Cl1B C1B 1_555 1_555
O1B N3B 1_555 1_555
O2B N3B 1_555 1_555
O3B N2B 1_555 1_555
O4B N2B 1_555 1_555
O5B N1B 1_555 1_555
O6B N1B 1_555 1_555
N1B C6B 1_555 1_555
N2B C2B 1_555 1_555
N3B C3B 1_555 1_555
N4B N4 1_555 1_555
O7B H1B 1_555 1_555
C1B C2B 1_555 1_555
C2B C3B 1_555 1_555
C3B C4B 1_555 1_555
C4B N4B 1_555 1_555
C5B O7B 1_555 1_555
C6B C1B 1_555 1_555
C5 C6 1_555 1_555
C4B C5B 1_555 1_555
C5B C6B 1_555 1_555

#END
