
#######################################################################
#
#                 Cambridge Crystallographic Data Centre
#                                CCDC 
#
#######################################################################
#
# If this CIF has been generated from an entry in the Cambridge 
# Structural Database, then it will include bibliographic, chemical, 
# crystal, experimental, refinement or atomic coordinate data resulting 
# from the CCDC's data processing and validation procedures.
#
#######################################################################

data_ZINPUK
_chemical_name_common            'sulfamethizole proline'
_chemical_formula_moiety         'C9 H10 N4 O2 S2,C5 H9 N1 O2'
_chemical_name_systematic        
'pyrrolidin-1-ium-2-carboxylate 4-amino-N-(5-methyl-1,3,4-thiadiazol-2(3H)-ylidene)benzene-1-sulfonamide'
_chemical_properties_biological  'Sulfamethizole is a sulfonamide antibiotic.'
_symmetry_cell_setting           monoclinic
_symmetry_space_group_name_H-M   'P 21'
_symmetry_Int_Tables_number      4
_space_group_name_Hall           'P 2yb'
loop_
_symmetry_equiv_pos_site_id
_symmetry_equiv_pos_as_xyz
1 x,y,z
2 -x,1/2+y,-z
_cell_length_a                   11.1850(9)
_cell_length_b                   8.9191(9)
_cell_length_c                   17.2838(15)
_cell_angle_alpha                90
_cell_angle_beta                 96.393(9)
_cell_angle_gamma                90
_cell_volume                     1713.51
_exptl_crystal_colour            colorless
_exptl_crystal_description       block
_cell_formula_units_Z            4
loop_
_atom_site_label
_atom_site_type_symbol
_atom_site_fract_x
_atom_site_fract_y
_atom_site_fract_z
S1 S 1.2700(2) 0.4762(3) 0.69893(14)
S2 S 0.99958(17) 0.6235(3) 0.70475(11)
O1 O 0.9098(5) 0.7058(7) 0.7413(3)
O2 O 1.0872(5) 0.7101(7) 0.6680(3)
N1 N 0.7454(6) 0.2590(10) 0.4535(4)
H1 H 0.7725 0.2488 0.4120
H2 H 0.6764 0.2322 0.4535
N2 N 1.0617(6) 0.5179(8) 0.7720(4)
N3 N 1.2222(6) 0.3770(8) 0.8267(4)
H3 H 1.1947 0.3501 0.8624
N4 N 1.3358(6) 0.3243(9) 0.8219(4)
C1 C 0.8031(7) 0.3401(10) 0.5124(5)
C2 C 0.7507(7) 0.3710(10) 0.5813(5)
H4 H 0.6726 0.3336 0.5870
C3 C 0.8107(7) 0.4540(11) 0.6402(5)
H5 H 0.7741 0.4735 0.6862
C4 C 0.9255(7) 0.5100(10) 0.6326(4)
C5 C 0.9760(7) 0.4805(11) 0.5649(4)
H6 H 1.0539 0.5184 0.5590
C6 C 0.9164(7) 0.3979(11) 0.5064(5)
H7 H 0.9535 0.3797 0.4605
C7 C 1.1719(7) 0.4614(10) 0.7685(5)
C8 C 1.3706(8) 0.3650(11) 0.7576(5)
C9 C 1.4937(7) 0.3298(13) 0.7352(6)
H8 H 1.5015 0.3714 0.6835
H9 H 1.5549 0.3741 0.7733
H10 H 1.5047 0.2208 0.7340
S3 S 0.50157(18) -0.2097(3) 0.79108(11)
S4 S 0.2311(2) -0.0687(3) 0.80155(14)
O3 O 0.5941(5) -0.2852(7) 0.7546(3)
O4 O 0.4158(5) -0.3031(7) 0.8251(3)
N5 N 0.7399(6) 0.1602(9) 1.0466(4)
H11 H 0.7014 0.1677 1.0936
H12 H 0.8044 0.2017 1.0376
N6 N 0.4378(6) -0.1020(9) 0.7246(4)
N7 N 0.2755(7) 0.0426(9) 0.6755(4)
N8 N 0.1628(6) 0.0981(10) 0.6837(4)
C10 C 0.6853(8) 0.0775(11) 0.9858(5)
C11 C 0.7287(8) 0.0705(10) 0.9147(5)
H13 H 0.7982 0.1271 0.9065
C12 C 0.6744(7) -0.0163(10) 0.8549(4)
H14 H 0.7074 -0.0216 0.8067
C13 C 0.5712(7) -0.0958(10) 0.8658(4)
C14 C 0.5235(7) -0.0880(12) 0.9362(5)
H15 H 0.4523 -0.1420 0.9433
C15 C 0.5788(7) -0.0026(11) 0.9955(5)
H16 H 0.5454 0.0029 1.0436
C16 C 0.3299(8) -0.0466(11) 0.7299(5)
C17 C 0.1281(8) 0.0469(11) 0.7483(6)
C18 C 0.0093(7) 0.0863(14) 0.7729(6)
H17 H -0.0002 0.0373 0.8226
H18 H 0.0039 0.1952 0.7790
H19 H -0.0546 0.0524 0.7333
H20 H 0.314(7) 0.062(10) 0.634(3)
O5 O 0.9612(6) 0.3101(10) 1.0327(4)
O6 O 1.0800(6) 0.3513(9) 0.9445(4)
N9 N 1.0980(5) 0.0802(8) 1.0991(4)
H21 H 1.0389 0.0275 1.0707
H22 H 1.0663 0.1252 1.1395
C19 C 1.0556(8) 0.2895(11) 1.0040(5)
C20 C 1.1499(6) 0.1937(9) 1.0499(4)
H23 H 1.1999 0.2625 1.0859
C21 C 1.2352(8) 0.1037(13) 1.0079(5)
H24 H 1.2978 0.1682 0.9888
H25 H 1.1923 0.0488 0.9634
C22 C 1.2905(8) -0.0059(12) 1.0719(6)
H26 H 1.3069 -0.1043 1.0488
H27 H 1.3670 0.0348 1.0979
C23 C 1.2003(7) -0.0221(12) 1.1289(5)
H28 H 1.2353 0.0086 1.1817
H29 H 1.1723 -0.1272 1.1310
O7 O 0.5070(5) 0.1200(8) 0.4518(3)
O8 O 0.4285(5) 0.1037(8) 0.5655(3)
N10 N 0.4041(5) 0.3757(8) 0.4082(3)
H30 H 0.4594 0.4503 0.4168
H31 H 0.4351 0.3031 0.3793
C24 C 0.4424(7) 0.1638(10) 0.5014(5)
C25 C 0.3751(6) 0.3117(8) 0.4846(4)
H32 H 0.4019 0.3845 0.5270
C26 C 0.2400(6) 0.3020(11) 0.4767(5)
H33 H 0.2094 0.3119 0.5280
H34 H 0.2118 0.2056 0.4528
C27 C 0.1991(7) 0.4326(11) 0.4242(5)
H35 H 0.1169 0.4156 0.3980
H36 H 0.2002 0.5274 0.4540
C28 C 0.2903(7) 0.4360(12) 0.3659(5)
H37 H 0.2633 0.3728 0.3202
H38 H 0.3022 0.5398 0.3480
loop_
_geom_bond_atom_site_label_1
_geom_bond_atom_site_label_2
_geom_bond_site_symmetry_1
_geom_bond_site_symmetry_2
S1 C7 1_555 1_555
S2 O1 1_555 1_555
O2 S2 1_555 1_555
N1 H1 1_555 1_555
H2 N1 1_555 1_555
N2 S2 1_555 1_555
N3 H3 1_555 1_555
N4 N3 1_555 1_555
C1 N1 1_555 1_555
C2 C1 1_555 1_555
H4 C2 1_555 1_555
C3 C2 1_555 1_555
H5 C3 1_555 1_555
C4 S2 1_555 1_555
C5 C4 1_555 1_555
H6 C5 1_555 1_555
C6 C1 1_555 1_555
H7 C6 1_555 1_555
C7 N2 1_555 1_555
C8 S1 1_555 1_555
C9 C8 1_555 1_555
H8 C9 1_555 1_555
H9 C9 1_555 1_555
H10 C9 1_555 1_555
S3 O3 1_555 1_555
S4 C16 1_555 1_555
O4 S3 1_555 1_555
N5 H11 1_555 1_555
H12 N5 1_555 1_555
N6 S3 1_555 1_555
N7 N8 1_555 1_555
N8 C17 1_555 1_555
C10 N5 1_555 1_555
C11 C10 1_555 1_555
H13 C11 1_555 1_555
C12 C11 1_555 1_555
H14 C12 1_555 1_555
C13 S3 1_555 1_555
C14 C13 1_555 1_555
H15 C14 1_555 1_555
C15 C10 1_555 1_555
H16 C15 1_555 1_555
C16 N6 1_555 1_555
C17 S4 1_555 1_555
C18 C17 1_555 1_555
H17 C18 1_555 1_555
H18 C18 1_555 1_555
H19 C18 1_555 1_555
H20 N7 1_555 1_555
O5 C19 1_555 1_555
O6 C19 1_555 1_555
N9 H21 1_555 1_555
H22 N9 1_555 1_555
C19 C20 1_555 1_555
C20 N9 1_555 1_555
H23 C20 1_555 1_555
C21 C20 1_555 1_555
H24 C21 1_555 1_555
H25 C21 1_555 1_555
C22 C21 1_555 1_555
H26 C22 1_555 1_555
H27 C22 1_555 1_555
C23 N9 1_555 1_555
H28 C23 1_555 1_555
H29 C23 1_555 1_555
O7 C24 1_555 1_555
O8 C24 1_555 1_555
N10 H30 1_555 1_555
H31 N10 1_555 1_555
C24 C25 1_555 1_555
C25 N10 1_555 1_555
H32 C25 1_555 1_555
C26 C25 1_555 1_555
H33 C26 1_555 1_555
H34 C26 1_555 1_555
C27 C26 1_555 1_555
H35 C27 1_555 1_555
H36 C27 1_555 1_555
C28 N10 1_555 1_555
H37 C28 1_555 1_555
H38 C28 1_555 1_555
N3 C7 1_555 1_555
N4 C8 1_555 1_555
C3 C4 1_555 1_555
C5 C6 1_555 1_555
N7 C16 1_555 1_555
C12 C13 1_555 1_555
C14 C15 1_555 1_555
C22 C23 1_555 1_555
C27 C28 1_555 1_555

#END
