
#######################################################################
#
#                 Cambridge Crystallographic Data Centre
#                                CCDC 
#
#######################################################################
#
# If this CIF has been generated from an entry in the Cambridge 
# Structural Database, then it will include bibliographic, chemical, 
# crystal, experimental, refinement or atomic coordinate data resulting 
# from the CCDC's data processing and validation procedures.
#
#######################################################################

data_ZINPAQ
_chemical_formula_moiety         'C12 N18 O8'
_chemical_name_systematic        
'8-(2,4,6-triazido-3,5-dinitrophenyl)-8H-[1,2,5]oxadiazolo[3,4-e][1,2,3]triazolo[4,5-g][2,1,3]benzoxadiazole 1,4-dioxide'
_symmetry_cell_setting           orthorhombic
_symmetry_space_group_name_H-M   'P b c a'
_symmetry_Int_Tables_number      61
_space_group_name_Hall           '-P 2ac 2ab'
loop_
_symmetry_equiv_pos_site_id
_symmetry_equiv_pos_as_xyz
1 x,y,z
2 1/2-x,-y,1/2+z
3 -x,1/2+y,1/2-z
4 1/2+x,1/2-y,-z
5 -x,-y,-z
6 1/2+x,y,1/2-z
7 x,1/2-y,1/2+z
8 1/2-x,1/2+y,z
_cell_length_a                   9.3869(19)
_cell_length_b                   15.742(3)
_cell_length_c                   25.114(5)
_cell_angle_alpha                90
_cell_angle_beta                 90
_cell_angle_gamma                90
_cell_volume                     3711.06
_exptl_crystal_colour            colorless
_exptl_crystal_description       plate
_cell_formula_units_Z            8
loop_
_atom_site_label
_atom_site_type_symbol
_atom_site_fract_x
_atom_site_fract_y
_atom_site_fract_z
O1 O 1.2682(4) 0.6059(3) 0.54990(18)
O2 O 1.2204(4) 0.7351(3) 0.52755(18)
O3 O 0.9209(5) 0.5107(3) 0.38171(17)
O4 O 0.7123(5) 0.5667(3) 0.38862(17)
O5 O 0.5709(4) 0.3856(3) 0.69866(19)
O6 O 0.3712(5) 0.4347(3) 0.74407(18)
O7 O 0.1050(4) 0.6838(3) 0.74016(18)
O8 O 0.2195(5) 0.7722(3) 0.68065(17)
N1 N 1.1872(5) 0.6609(3) 0.53362(19)
N2 N 0.8312(5) 0.5527(3) 0.40569(19)
N3 N 1.1344(5) 0.6048(3) 0.4355(2)
N4 N 1.1254(5) 0.6181(4) 0.3962(3)
N5 N 1.1374(7) 0.6367(4) 0.3476(3)
N6 N 0.6207(5) 0.5631(3) 0.4920(2)
N7 N 0.5389(6) 0.6071(4) 0.4640(2)
N8 N 0.4525(6) 0.6403(4) 0.4408(3)
N9 N 0.9902(5) 0.6714(3) 0.61023(19)
N10 N 0.9015(5) 0.6863(3) 0.6463(2)
N11 N 0.8413(6) 0.7044(4) 0.6832(2)
N12 N 0.6722(5) 0.5461(3) 0.61957(17)
N13 N 0.6924(4) 0.6151(3) 0.58881(17)
N14 N 0.6011(5) 0.6796(3) 0.59488(18)
N15 N 0.3377(5) 0.7676(3) 0.6482(2)
N16 N 0.2066(5) 0.6922(3) 0.71030(19)
N17 N 0.2921(5) 0.5087(3) 0.7448(2)
N18 N 0.4906(5) 0.4454(3) 0.7057(2)
C1 C 1.0406(5) 0.6357(3) 0.5208(2)
C2 C 1.0105(6) 0.6089(3) 0.4694(2)
C3 C 0.8682(5) 0.5866(3) 0.4581(2)
C4 C 0.7630(6) 0.5909(3) 0.4973(2)
C5 C 0.8006(5) 0.6159(3) 0.5487(2)
C6 C 0.9397(6) 0.6402(3) 0.5617(2)
C7 C 0.5588(5) 0.5693(3) 0.6478(2)
C8 C 0.4797(6) 0.5237(4) 0.6878(2)
C9 C 0.3562(6) 0.5601(4) 0.7114(2)
C10 C 0.3169(5) 0.6448(4) 0.6958(2)
C11 C 0.3933(6) 0.6916(4) 0.6574(2)
C12 C 0.5159(5) 0.6512(3) 0.6330(2)
loop_
_geom_bond_atom_site_label_1
_geom_bond_atom_site_label_2
_geom_bond_site_symmetry_1
_geom_bond_site_symmetry_2
O1 N1 1_555 1_555
O2 N1 1_555 1_555
O3 N2 1_555 1_555
O4 N2 1_555 1_555
O5 N18 1_555 1_555
O6 N17 1_555 1_555
O7 N16 1_555 1_555
O8 N15 1_555 1_555
N1 C1 1_555 1_555
N2 C3 1_555 1_555
N3 N4 1_555 1_555
N4 N5 1_555 1_555
N6 N7 1_555 1_555
N7 N8 1_555 1_555
N9 N10 1_555 1_555
N10 N11 1_555 1_555
N12 N13 1_555 1_555
N13 N14 1_555 1_555
N14 C12 1_555 1_555
N15 C11 1_555 1_555
N16 O8 1_555 1_555
N17 C9 1_555 1_555
N18 O6 1_555 1_555
C1 C2 1_555 1_555
C2 N3 1_555 1_555
C3 C2 1_555 1_555
C4 N6 1_555 1_555
C5 N13 1_555 1_555
C6 N9 1_555 1_555
C7 N12 1_555 1_555
C8 N18 1_555 1_555
C9 C8 1_555 1_555
C10 N16 1_555 1_555
C11 C10 1_555 1_555
C12 C7 1_555 1_555
C1 C6 1_555 1_555
C3 C4 1_555 1_555
C4 C5 1_555 1_555
C5 C6 1_555 1_555
C7 C8 1_555 1_555
C9 C10 1_555 1_555
C11 C12 1_555 1_555

#END
