
#######################################################################
#
#                 Cambridge Crystallographic Data Centre
#                                CCDC 
#
#######################################################################
#
# If this CIF has been generated from an entry in the Cambridge 
# Structural Database, then it will include bibliographic, chemical, 
# crystal, experimental, refinement or atomic coordinate data resulting 
# from the CCDC's data processing and validation procedures.
#
#######################################################################

data_ZINPIY
_chemical_name_common            'flucytosine proline'
_chemical_formula_moiety         'C5 H9 N1 O2,C4 H4 F1 N3 O1'
_chemical_name_systematic        
'pyrrolidin-1-ium-2-carboxylate 4-amino-5-fluoropyrimidin-2(1H)-one'
_chemical_properties_biological  'Flucytosine is an antifungal drug.'
_symmetry_cell_setting           triclinic
_symmetry_space_group_name_H-M   'P 1'
_symmetry_Int_Tables_number      1
_space_group_name_Hall           'P 1'
loop_
_symmetry_equiv_pos_site_id
_symmetry_equiv_pos_as_xyz
1 x,y,z
_cell_length_a                   5.5932(3)
_cell_length_b                   6.0945(4)
_cell_length_c                   16.8563(8)
_cell_angle_alpha                97.308(4)
_cell_angle_beta                 94.713(4)
_cell_angle_gamma                107.291(5)
_cell_volume                     539.785
_exptl_crystal_colour            colorless
_exptl_crystal_description       prism
_cell_formula_units_Z            2
loop_
_atom_site_label
_atom_site_type_symbol
_atom_site_fract_x
_atom_site_fract_y
_atom_site_fract_z
F1 F 0.6569(4) 0.6806(3) 0.06624(12)
O1 O 1.0985(4) 1.0517(4) 0.36599(13)
N1 N 0.8266(4) 1.0478(4) 0.25765(15)
H1 H 0.7903 1.1647 0.2843
N2 N 1.0677(4) 0.7915(4) 0.25254(15)
N3 N 1.0195(5) 0.5218(5) 0.13934(17)
H2 H 1.131(7) 0.462(6) 0.166(2)
H3 H 0.942(8) 0.456(7) 0.099(3)
C1 C 0.7096(5) 0.9550(5) 0.18208(19)
H4 H 0.5883 1.0118 0.1588
C2 C 0.7703(5) 0.7817(5) 0.14167(17)
C3 C 0.9552(5) 0.6951(5) 0.17835(16)
C4 C 1.0036(5) 0.9668(5) 0.29545(17)
F2 F 0.7646(4) 0.7650(3) 0.53118(11)
O2 O 0.4086(4) 0.3664(4) 0.22698(12)
N4 N 0.4124(4) 0.6307(4) 0.33440(15)
H5 H 0.2940 0.6610 0.3150
N5 N 0.6690(4) 0.3893(4) 0.34095(15)
N6 N 0.9233(5) 0.4094(5) 0.45787(17)
H6 H 0.967(7) 0.303(7) 0.429(2)
H7 H 0.996(8) 0.483(8) 0.510(3)
C5 C 0.4996(5) 0.7361(5) 0.41143(17)
H8 H 0.4442 0.8562 0.4345
C6 C 0.6675(5) 0.6642(5) 0.45388(17)
C7 C 0.7552(5) 0.4843(5) 0.41701(16)
C8 C 0.4922(5) 0.4565(5) 0.29768(17)
O3 O 0.7640(4) 0.2345(4) 0.98502(14)
O4 O 0.6020(5) 0.2487(7) 0.86354(16)
N7 N 0.1290(4) 0.1578(4) 0.89511(16)
H9 H 0.202(7) 0.234(7) 0.856(2)
H10 H 0.004(8) 0.199(7) 0.914(2)
C9 C 0.5853(5) 0.2275(5) 0.93464(18)
C10 C 0.3260(5) 0.1809(6) 0.96346(18)
H11 H 0.3279 0.3078 1.0057
C11 C 0.2360(7) -0.0472(9) 0.9931(3)
H12 H 0.3728 -0.0779 1.0243
H13 H 0.1013 -0.0499 1.0262
C12 C 0.1445(10) -0.2162(8) 0.9191(4)
H14 H 0.0224 -0.3569 0.9294
H15 H 0.2832 -0.2566 0.8968
C13 C 0.0194(7) -0.0933(7) 0.8602(3)
H16 H 0.0617 -0.1232 0.8061
H17 H -0.1628 -0.1447 0.8587
O5 O 0.0483(4) 0.4661(4) 0.64158(15)
O6 O 0.1943(6) 0.3859(6) 0.75650(17)
N8 N 0.6013(5) 0.3073(4) 0.70415(17)
H18 H 0.740(10) 0.360(8) 0.696(3)
H19 H 0.566(8) 0.335(7) 0.750(3)
C14 C 0.2075(5) 0.4151(5) 0.68560(19)
C15 C 0.4358(5) 0.3860(5) 0.64681(18)
H20 H 0.5320 0.5332 0.6312
C16 C 0.3635(6) 0.1924(6) 0.57433(19)
H21 H 0.4956 0.2120 0.5395
H22 H 0.2072 0.1865 0.5433
C17 C 0.3322(6) -0.0246(5) 0.6136(2)
H23 H 0.1723 -0.0695 0.6352
H24 H 0.3418 -0.1539 0.5754
C18 C 0.5510(6) 0.0502(5) 0.6802(2)
H25 H 0.5076 -0.0309 0.7254
H26 H 0.6981 0.0184 0.6610
loop_
_geom_bond_atom_site_label_1
_geom_bond_atom_site_label_2
_geom_bond_site_symmetry_1
_geom_bond_site_symmetry_2
F1 C2 1_555 1_555
O1 C4 1_555 1_555
N1 H1 1_555 1_555
N2 C3 1_555 1_555
N3 H2 1_555 1_555
H3 N3 1_555 1_555
C1 N1 1_555 1_555
H4 C1 1_555 1_555
C2 C1 1_555 1_555
C3 N3 1_555 1_555
C4 N1 1_555 1_555
F2 C6 1_555 1_555
O2 C8 1_555 1_555
N4 H5 1_555 1_555
N5 C7 1_555 1_555
N6 H6 1_555 1_555
H7 N6 1_555 1_555
C5 N4 1_555 1_555
H8 C5 1_555 1_555
C6 C5 1_555 1_555
C7 N6 1_555 1_555
C8 N4 1_555 1_555
O3 C9 1_555 1_555
O4 C9 1_555 1_555
N7 H9 1_555 1_555
H10 N7 1_555 1_555
C9 C10 1_555 1_555
C10 N7 1_555 1_555
H11 C10 1_555 1_555
C11 C10 1_555 1_555
H12 C11 1_555 1_555
H13 C11 1_555 1_555
C12 C11 1_555 1_555
H14 C12 1_555 1_555
H15 C12 1_555 1_555
C13 N7 1_555 1_555
H16 C13 1_555 1_555
H17 C13 1_555 1_555
O5 C14 1_555 1_555
O6 C14 1_555 1_555
N8 H18 1_555 1_555
H19 N8 1_555 1_555
C14 C15 1_555 1_555
C15 N8 1_555 1_555
H20 C15 1_555 1_555
C16 C15 1_555 1_555
H21 C16 1_555 1_555
H22 C16 1_555 1_555
C17 C16 1_555 1_555
H23 C17 1_555 1_555
H24 C17 1_555 1_555
C18 N8 1_555 1_555
H25 C18 1_555 1_555
H26 C18 1_555 1_555
N2 C4 1_555 1_555
C2 C3 1_555 1_555
N5 C8 1_555 1_555
C6 C7 1_555 1_555
C12 C13 1_555 1_555
C17 C18 1_555 1_555

#END
