
#######################################################################
#
#                 Cambridge Crystallographic Data Centre
#                                CCDC 
#
#######################################################################
#
# If this CIF has been generated from an entry in the Cambridge 
# Structural Database, then it will include bibliographic, chemical, 
# crystal, experimental, refinement or atomic coordinate data resulting 
# from the CCDC's data processing and validation procedures.
#
#######################################################################

data_ZINXIG
_chemical_formula_moiety         'C15 H11 N1 O2 S1'
_chemical_name_systematic        
2-[2-(methylsulfanyl)phenyl]-1H-isoindole-1,3(2H)-dione
_symmetry_cell_setting           monoclinic
_symmetry_space_group_name_H-M   'P 21/c'
_symmetry_Int_Tables_number      14
_space_group_name_Hall           '-P 2ybc'
loop_
_symmetry_equiv_pos_site_id
_symmetry_equiv_pos_as_xyz
1 x,y,z
2 -x,1/2+y,1/2-z
3 -x,-y,-z
4 x,1/2-y,1/2+z
_cell_length_a                   14.1337(16)
_cell_length_b                   10.2364(11)
_cell_length_c                   8.8680(11)
_cell_angle_alpha                90
_cell_angle_beta                 97.306(2)
_cell_angle_gamma                90
_cell_volume                     1272.59
_exptl_crystal_colour            colorless
_exptl_crystal_description       Block
_cell_formula_units_Z            4
loop_
_atom_site_label
_atom_site_type_symbol
_atom_site_fract_x
_atom_site_fract_y
_atom_site_fract_z
S1 S 0.76574(2) 1.03577(3) 1.04385(4)
O1 O 0.67170(7) 1.04391(9) 0.59531(12)
O2 O 0.81372(7) 0.71590(9) 0.89546(11)
N1 N 0.76354(8) 0.89987(11) 0.75426(12)
C1 C 0.65821(9) 0.72690(13) 0.74092(14)
C2 C 0.61310(10) 0.60816(13) 0.75482(15)
H1 H 0.6424 0.5411 0.8143
C3 C 0.52201(10) 0.59346(14) 0.67586(16)
H2 H 0.4902 0.5144 0.6814
C4 C 0.47748(10) 0.69449(15) 0.58880(16)
H3 H 0.4161 0.6824 0.5392
C5 C 0.52353(9) 0.81330(14) 0.57497(15)
H4 H 0.4943 0.8810 0.5165
C6 C 0.61476(9) 0.82656(13) 0.65209(14)
C7 C 0.68177(9) 0.93917(13) 0.65779(15)
C8 C 0.75437(9) 0.77237(12) 0.80957(14)
C9 C 0.84532(9) 0.98276(12) 0.78952(15)
C10 C 0.85484(9) 1.05573(12) 0.92379(15)
C11 C 0.93458(9) 1.13692(13) 0.95474(15)
H5 H 0.9428 1.1861 1.0436
C12 C 1.00126(9) 1.14424(13) 0.85337(16)
H6 H 1.0543 1.1979 0.8755
C13 C 0.99020(10) 1.07275(14) 0.71919(16)
H7 H 1.0350 1.0791 0.6513
C14 C 0.91116(10) 0.99137(13) 0.68739(15)
H8 H 0.9028 0.9431 0.5979
C15 C 0.79766(12) 1.15499(16) 1.19108(18)
H9 H 0.8599 1.1353 1.2428
H10 H 0.7519 1.1528 1.2623
H11 H 0.7982 1.2404 1.1466
loop_
_geom_bond_atom_site_label_1
_geom_bond_atom_site_label_2
_geom_bond_site_symmetry_1
_geom_bond_site_symmetry_2
S1 C10 1_555 1_555
O1 C7 1_555 1_555
O2 C8 1_555 1_555
N1 C7 1_555 1_555
C1 C2 1_555 1_555
C2 H1 1_555 1_555
C3 C2 1_555 1_555
H2 C3 1_555 1_555
C4 C3 1_555 1_555
H3 C4 1_555 1_555
C5 C4 1_555 1_555
H4 C5 1_555 1_555
C6 C1 1_555 1_555
C7 C6 1_555 1_555
C8 N1 1_555 1_555
C9 N1 1_555 1_555
C10 C9 1_555 1_555
C11 C10 1_555 1_555
H5 C11 1_555 1_555
C12 C11 1_555 1_555
H6 C12 1_555 1_555
C13 C12 1_555 1_555
H7 C13 1_555 1_555
C14 C9 1_555 1_555
H8 C14 1_555 1_555
C15 S1 1_555 1_555
H9 C15 1_555 1_555
H10 C15 1_555 1_555
H11 C15 1_555 1_555
C1 C8 1_555 1_555
C5 C6 1_555 1_555
C13 C14 1_555 1_555

#END
