
#######################################################################
#
#                 Cambridge Crystallographic Data Centre
#                                CCDC 
#
#######################################################################
#
# If this CIF has been generated from an entry in the Cambridge 
# Structural Database, then it will include bibliographic, chemical, 
# crystal, experimental, refinement or atomic coordinate data resulting 
# from the CCDC's data processing and validation procedures.
#
#######################################################################

data_ZIPBOR
_chemical_name_common            
'1,1,3,3-tetramethylguanidine p-toluenesulfonate'
_chemical_formula_moiety         'C5 H14 N3 1+,C7 H7 O3 S1 1-'
_chemical_name_systematic        
'bis(dimethylamino)methaniminium 4-methylbenzenesulfonate'
_symmetry_cell_setting           monoclinic
_symmetry_space_group_name_H-M   'P 21/c'
_symmetry_Int_Tables_number      14
_space_group_name_Hall           '-P 2ybc'
loop_
_symmetry_equiv_pos_site_id
_symmetry_equiv_pos_as_xyz
1 x,y,z
2 -x,1/2+y,1/2-z
3 -x,-y,-z
4 x,1/2-y,1/2+z
_cell_length_a                   11.185(3)
_cell_length_b                   7.648(2)
_cell_length_c                   17.415(5)
_cell_angle_alpha                90
_cell_angle_beta                 93.169(4)
_cell_angle_gamma                90
_cell_volume                     1487.45
_exptl_crystal_colour            colorless
_exptl_crystal_description       needle
_cell_formula_units_Z            4
loop_
_atom_site_label
_atom_site_type_symbol
_atom_site_fract_x
_atom_site_fract_y
_atom_site_fract_z
S1 S 0.29495(10) 0.56175(19) 0.40703(8)
O1 O 0.3460(4) 0.4551(9) 0.3592(3)
O2 O 0.3510(3) 0.7310(5) 0.4107(3)
O3 O 0.2812(3) 0.4933(4) 0.48344(18)
C1 C -0.0649(4) 0.5739(6) 0.3758(2)
H1 H -0.1295 0.5335 0.4022
C2 C 0.0499(3) 0.5440(6) 0.4053(2)
H2 H 0.0618 0.4820 0.4511
C3 C 0.1465(3) 0.6038(5) 0.3686(2)
C4 C -0.0852(4) 0.6621(6) 0.3081(2)
C5 C 0.1274(4) 0.6953(6) 0.3016(3)
H3 H 0.1920 0.7386 0.2762
C6 C -0.2104(4) 0.6907(8) 0.2732(3)
H4 H -0.2260 0.8139 0.2691
H5 H -0.2673 0.6377 0.3054
H6 H -0.2174 0.6387 0.2230
C7 C 0.0122(4) 0.7232(7) 0.2719(3)
H7 H 0.0003 0.7851 0.2261
N1 N 0.4054(3) 0.1976(6) 0.5527(2)
H8 H 0.370(4) 0.274(6) 0.531(3)
H9 H 0.483(4) 0.215(6) 0.571(2)
N2 N 0.3989(3) -0.0456(5) 0.62949(19)
N3 N 0.2466(3) 0.0096(5) 0.5376(2)
C8 C 0.3513(3) 0.0534(6) 0.5729(2)
C9 C 0.4852(4) 0.0232(8) 0.6870(3)
H10 H 0.4738 -0.0319 0.7356
H11 H 0.4742 0.1471 0.6918
H12 H 0.5648 -0.0001 0.6718
C10 C 0.2110(5) 0.0756(7) 0.4608(3)
H13 H 0.1704 -0.0151 0.4315
H14 H 0.2808 0.1113 0.4353
H15 H 0.1583 0.1737 0.4652
C11 C 0.1546(4) -0.0843(7) 0.5762(3)
H16 H 0.1468 -0.2001 0.5553
H17 H 0.0797 -0.0237 0.5685
H18 H 0.1762 -0.0911 0.6302
C12 C 0.3906(4) -0.2361(6) 0.6268(3)
H19 H 0.3509 -0.2713 0.5790
H20 H 0.3458 -0.2767 0.6687
H21 H 0.4696 -0.2854 0.6309
loop_
_geom_bond_atom_site_label_1
_geom_bond_atom_site_label_2
_geom_bond_site_symmetry_1
_geom_bond_site_symmetry_2
S1 O1 1_555 1_555
O2 S1 1_555 1_555
O3 S1 1_555 1_555
C1 H1 1_555 1_555
C2 C1 1_555 1_555
H2 C2 1_555 1_555
C3 S1 1_555 1_555
C4 C1 1_555 1_555
C5 C3 1_555 1_555
H3 C5 1_555 1_555
C6 C4 1_555 1_555
H4 C6 1_555 1_555
H5 C6 1_555 1_555
H6 C6 1_555 1_555
C7 C4 1_555 1_555
H7 C7 1_555 1_555
N1 H8 1_555 1_555
H9 N1 1_555 1_555
N2 C8 1_555 1_555
N3 C8 1_555 1_555
C8 N1 1_555 1_555
C9 N2 1_555 1_555
H10 C9 1_555 1_555
H11 C9 1_555 1_555
H12 C9 1_555 1_555
C10 N3 1_555 1_555
H13 C10 1_555 1_555
H14 C10 1_555 1_555
H15 C10 1_555 1_555
C11 N3 1_555 1_555
H16 C11 1_555 1_555
H17 C11 1_555 1_555
H18 C11 1_555 1_555
C12 N2 1_555 1_555
H19 C12 1_555 1_555
H20 C12 1_555 1_555
H21 C12 1_555 1_555
C2 C3 1_555 1_555
C5 C7 1_555 1_555

#END
