
#######################################################################
#
#                 Cambridge Crystallographic Data Centre
#                                CCDC 
#
#######################################################################
#
# If this CIF has been generated from an entry in the Cambridge 
# Structural Database, then it will include bibliographic, chemical, 
# crystal, experimental, refinement or atomic coordinate data resulting 
# from the CCDC's data processing and validation procedures.
#
#######################################################################

data_ZIPDEK
_chemical_formula_moiety         'C27 H23 N3 2+,2(Cl1 1-),2.5(H2 O1)'
_chemical_name_systematic        
"(4,4'-((1-cyanoethene-1,2-diyl)bis(4,1-phenylene))bis(1-methylpyridin-1-ium)) dichloride hydrate"
_symmetry_cell_setting           triclinic
_symmetry_space_group_name_H-M   'P -1'
_symmetry_Int_Tables_number      2
_space_group_name_Hall           '-P 1'
loop_
_symmetry_equiv_pos_site_id
_symmetry_equiv_pos_as_xyz
1 x,y,z
2 -x,-y,-z
_cell_length_a                   6.6333(4)
_cell_length_b                   14.6186(9)
_cell_length_c                   15.6273(9)
_cell_angle_alpha                64.866(3)
_cell_angle_beta                 86.932(3)
_cell_angle_gamma                87.742(3)
_cell_volume                     1369.69
_exptl_crystal_colour            'intense yellow'
_exptl_crystal_description       plate
_cell_formula_units_Z            2
loop_
_atom_site_label
_atom_site_type_symbol
_atom_site_fract_x
_atom_site_fract_y
_atom_site_fract_z
C1 C 1.5113(13) 0.0620(6) 0.2182(6)
H1 H 1.5483 0.0362 0.1744
C2 C 1.3367(11) 0.1189(5) 0.2075(5)
H2 H 1.2554 0.1297 0.1573
C3 C 1.2789(10) 0.1608(5) 0.2711(5)
C4 C 1.4069(11) 0.1420(5) 0.3427(5)
H3 H 1.3768 0.1688 0.3864
C5 C 1.5811(12) 0.0834(6) 0.3512(5)
H4 H 1.6666 0.0718 0.4002
C6 C 1.0931(10) 0.2220(4) 0.2602(5)
C7 C 0.9816(12) 0.2494(6) 0.1806(5)
H5 H 1.0225 0.2285 0.1338
C8 C 0.8047(12) 0.3096(6) 0.1709(6)
H6 H 0.7282 0.3285 0.1176
C9 C 0.7461(13) 0.3403(5) 0.2415(7)
C10 C 0.8545(13) 0.3129(6) 0.3184(6)
H7 H 0.8131 0.3328 0.3658
C11 C 1.0264(11) 0.2556(5) 0.3272(5)
H8 H 1.1016 0.2386 0.3806
C12 C 0.5485(16) 0.4095(7) 0.2432(6)
H9 H 0.5295 0.4327 0.2901
C13 C 0.4321(16) 0.4293(7) 0.1849(6)
C14 C 0.2398(13) 0.4977(6) 0.1961(8)
C15 C 0.1248(13) 0.5430(6) 0.1194(7)
H10 H 0.1611 0.5356 0.0643
C16 C -0.0435(11) 0.5993(5) 0.1215(5)
H11 H -0.1184 0.6292 0.0675
C17 C -0.1065(10) 0.6134(5) 0.2006(5)
C18 C 0.0107(12) 0.5677(6) 0.2792(6)
H12 H -0.0259 0.5747 0.3344
C19 C 0.1845(12) 0.5111(6) 0.2757(6)
H13 H 0.2634 0.4822 0.3284
C20 C -0.2920(10) 0.6720(5) 0.2024(4)
C21 C -0.4255(11) 0.7027(5) 0.1287(5)
H14 H -0.3983 0.6858 0.0781
C22 C -0.5983(11) 0.7583(5) 0.1306(5)
H15 H -0.6852 0.7788 0.0808
C23 C -0.5205(11) 0.7534(6) 0.2736(5)
H16 H -0.5544 0.7702 0.3237
C24 C -0.3442(11) 0.6983(5) 0.2755(5)
H17 H -0.2607 0.6791 0.3264
C25 C 1.8148(12) -0.0216(6) 0.3006(6)
H18 H 1.7811 -0.0914 0.3363
H19 H 1.9132 -0.0034 0.3332
H20 H 1.8694 -0.0117 0.2392
C26 C 0.4176(11) 0.4013(5) 0.1092(5)
C27 C -0.8272(10) 0.8462(5) 0.1996(5)
H21 H -0.8116 0.9125 0.1493
H22 H -0.8443 0.8511 0.2589
H23 H -0.9436 0.8154 0.1897
N1 N 1.6270(9) 0.0438(4) 0.2899(5)
N2 N 0.3896(10) 0.3811(5) 0.0476(5)
N3 N -0.6417(8) 0.7825(4) 0.2011(4)
Cl1 Cl 0.2773(7) 0.8708(3) 0.4228(3)
Cl2 Cl 0.9979(6) 0.1225(3) 0.0336(3)
Cl3 Cl 0.000 0.000 0.500
O1 O 0.0217(8) 0.6975(4) 0.4428(3)
O2 O 0.6756(7) 0.9707(3) 0.0601(3)
O3 O 0.6091(7) 0.7328(4) 0.5042(3)
O4 O 0.3664(11) 0.5580(5) 0.5332(4)
Cl4? Cl 0.0217(8) 0.6975(4) 0.4428(3)
Cl5? Cl 0.6756(7) 0.9707(3) 0.0601(3)
Cl6? Cl 0.6091(7) 0.7328(4) 0.5042(3)
Cl7? Cl 0.3664(11) 0.5580(5) 0.5332(4)
O5? O 0.2773(7) 0.8708(3) 0.4228(3)
loop_
_geom_bond_atom_site_label_1
_geom_bond_atom_site_label_2
_geom_bond_site_symmetry_1
_geom_bond_site_symmetry_2
C1 H1 1_555 1_555
C2 C1 1_555 1_555
H2 C2 1_555 1_555
C3 C2 1_555 1_555
C4 C3 1_555 1_555
H3 C4 1_555 1_555
C5 C4 1_555 1_555
H4 C5 1_555 1_555
C6 C3 1_555 1_555
C7 C6 1_555 1_555
H5 C7 1_555 1_555
C8 C7 1_555 1_555
H6 C8 1_555 1_555
C9 C8 1_555 1_555
C10 C9 1_555 1_555
H7 C10 1_555 1_555
C11 C6 1_555 1_555
H8 C11 1_555 1_555
C12 C9 1_555 1_555
H9 C12 1_555 1_555
C13 C12 1_555 1_555
C14 C13 1_555 1_555
C15 C14 1_555 1_555
H10 C15 1_555 1_555
C16 C15 1_555 1_555
H11 C16 1_555 1_555
C17 C16 1_555 1_555
C18 C17 1_555 1_555
H12 C18 1_555 1_555
C19 C14 1_555 1_555
H13 C19 1_555 1_555
C20 C17 1_555 1_555
C21 C20 1_555 1_555
H14 C21 1_555 1_555
C22 C21 1_555 1_555
H15 C22 1_555 1_555
C23 H16 1_555 1_555
C24 C20 1_555 1_555
H17 C24 1_555 1_555
C25 H18 1_555 1_555
H19 C25 1_555 1_555
H20 C25 1_555 1_555
C26 C13 1_555 1_555
C27 H21 1_555 1_555
H22 C27 1_555 1_555
H23 C27 1_555 1_555
N1 C1 1_555 1_555
N2 C26 1_555 1_555
N3 C22 1_555 1_555
C5 N1 1_555 1_555
C10 C11 1_555 1_555
C18 C19 1_555 1_555
C23 C24 1_555 1_555
C23 N3 1_555 1_555
C25 N1 1_555 1_555
C27 N3 1_555 1_555

#END
