
#######################################################################
#
#                 Cambridge Crystallographic Data Centre
#                                CCDC 
#
#######################################################################
#
# If this CIF has been generated from an entry in the Cambridge 
# Structural Database, then it will include bibliographic, chemical, 
# crystal, experimental, refinement or atomic coordinate data resulting 
# from the CCDC's data processing and validation procedures.
#
#######################################################################

data_ZIPKEO
_chemical_formula_moiety         'C13 H20 N2'
_chemical_name_systematic        N-Isopropyl-2-(isopropylamino)troponimine
_symmetry_cell_setting           trigonal
_symmetry_space_group_name_H-M   'P -3'
_symmetry_Int_Tables_number      147
_space_group_name_Hall           '-P 3'
loop_
_symmetry_equiv_pos_site_id
_symmetry_equiv_pos_as_xyz
1 x,y,z
2 -y,x-y,z
3 -x+y,-x,z
4 -x,-y,-z
5 y,-x+y,-z
6 x-y,x,-z
_cell_length_a                   15.469(1)
_cell_length_b                   15.469(1)
_cell_length_c                   9.099(2)
_cell_angle_alpha                90
_cell_angle_beta                 90
_cell_angle_gamma                120
_cell_volume                     1885.6
_exptl_crystal_colour            yellow
_chemical_melting_point          '57-60 deg.C'
_cell_formula_units_Z            6
loop_
_atom_site_label
_atom_site_type_symbol
_atom_site_fract_x
_atom_site_fract_y
_atom_site_fract_z
N1 N 0.1674(2) 0.4714(2) 0.2335(2)
N2 N 0.2077(1) 0.3336(2) 0.2426(2)
C1 C 0.1908(2) 0.4509(2) 0.1009(3)
C2 C 0.1961(2) 0.5065(2) -0.0231(3)
C3 C 0.2191(2) 0.4987(2) -0.1705(3)
C4 C 0.2424(2) 0.4331(2) -0.2345(3)
C5 C 0.2503(2) 0.3570(2) -0.1638(3)
C6 C 0.2383(2) 0.3295(2) -0.0192(3)
C7 C 0.2133(2) 0.3675(2) 0.1084(3)
C8 C 0.1436(2) 0.5490(2) 0.2678(3)
C9 C 0.0374(2) 0.5186(2) 0.2227(3)
C10 C 0.1585(2) 0.5705(2) 0.4315(3)
C11 C 0.2295(2) 0.2534(2) 0.2760(3)
C12 C 0.1373(2) 0.1521(2) 0.2507(4)
C13 C 0.2632(2) 0.2652(2) 0.4357(3)
H1 H 0.1691 0.4323 0.3046
H2 H 0.1819 0.5591 -0.0036
H3 H 0.2186 0.5470 -0.2360
H4 H 0.2541 0.4398 -0.3386
H5 H 0.2669 0.3182 -0.2280
H6 H 0.2487 0.2745 0.0016
H7 H 0.1891 0.6087 0.2156
H8 H 0.0300 0.5063 0.1188
H9 H -0.0084 0.4588 0.2743
H10 H 0.0235 0.5709 0.2464
H11 H 0.2260 0.5900 0.4577
H12 H 0.1453 0.6231 0.4563
H13 H 0.1134 0.5110 0.4842
H14 H 0.2824 0.2600 0.2134
H15 H 0.1173 0.1452 0.1496
H16 H 0.1518 0.1004 0.2761
H17 H 0.0844 0.1468 0.3120
H18 H 0.3218 0.3293 0.4496
H19 H 0.2104 0.2601 0.4972
H20 H 0.2778 0.2137 0.4613
loop_
_geom_bond_atom_site_label_1
_geom_bond_atom_site_label_2
_geom_bond_site_symmetry_1
_geom_bond_site_symmetry_2
N1 C1 1_555 1_555
N2 C7 1_555 1_555
C1 C2 1_555 1_555
C2 C3 1_555 1_555
C3 C4 1_555 1_555
C4 C5 1_555 1_555
C5 C6 1_555 1_555
C6 C7 1_555 1_555
C7 C1 1_555 1_555
C8 N1 1_555 1_555
C9 C8 1_555 1_555
C10 C8 1_555 1_555
C11 N2 1_555 1_555
C12 C11 1_555 1_555
C13 C11 1_555 1_555
H1 N1 1_555 1_555
H2 C2 1_555 1_555
H3 C3 1_555 1_555
H4 C4 1_555 1_555
H5 C5 1_555 1_555
H6 C6 1_555 1_555
H7 C8 1_555 1_555
H8 C9 1_555 1_555
H9 C9 1_555 1_555
H10 C9 1_555 1_555
H11 C10 1_555 1_555
H12 C10 1_555 1_555
H13 C10 1_555 1_555
H14 C11 1_555 1_555
H15 C12 1_555 1_555
H16 C12 1_555 1_555
H17 C12 1_555 1_555
H18 C13 1_555 1_555
H19 C13 1_555 1_555
H20 C13 1_555 1_555

#END
