
#######################################################################
#
#                 Cambridge Crystallographic Data Centre
#                                CCDC 
#
#######################################################################
#
# If this CIF has been generated from an entry in the Cambridge 
# Structural Database, then it will include bibliographic, chemical, 
# crystal, experimental, refinement or atomic coordinate data resulting 
# from the CCDC's data processing and validation procedures.
#
#######################################################################

data_ZIPLUI
_chemical_formula_moiety         
'C8 H20 N1 1+,C7 H14 B12 Cl2 N1 O1 1-,C4 H10 O1'
_chemical_name_systematic        
'Tetraethylammonium 1,2-((3,5-dichlorophenyl)(iminio)methanolato)-closo-dodecaborate(10) diethyl ether solvate'
_chemical_properties_biological  'antimicrobial activity'
_symmetry_cell_setting           monoclinic
_symmetry_space_group_name_H-M   'P n'
_symmetry_Int_Tables_number      7
_space_group_name_Hall           'P -2yac'
loop_
_symmetry_equiv_pos_site_id
_symmetry_equiv_pos_as_xyz
1 x,y,z
2 1/2+x,-y,1/2+z
_cell_length_a                   9.7154(7)
_cell_length_b                   8.2420(5)
_cell_length_c                   19.9332(14)
_cell_angle_alpha                90
_cell_angle_beta                 92.884(7)
_cell_angle_gamma                90
_cell_volume                     1594.12
_exptl_crystal_colour            colorless
_exptl_crystal_description       block
_cell_formula_units_Z            2
_exptl_crystal_recrystallization_method 'dichloromethane/diethyl ether'
loop_
_atom_site_label
_atom_site_type_symbol
_atom_site_fract_x
_atom_site_fract_y
_atom_site_fract_z
Cl1 Cl 0.31820(13) 0.52690(12) 0.49474(7)
Cl2 Cl 0.43654(14) -0.10163(13) 0.45465(7)
O1 O 0.3796(2) 0.2231(3) 0.36098(11)
N1 N 0.5670(3) 0.3085(3) 0.42036(14)
H1 H 0.614(3) 0.329(4) 0.4557(14)
C1 C 0.4442(4) 0.2499(4) 0.41944(16)
C2 C 0.3696(4) 0.2081(5) 0.47984(17)
C3 C 0.3051(4) 0.3249(5) 0.51819(19)
C4 C 0.2326(4) 0.2857(5) 0.5729(2)
H2 H 0.1909 0.3664 0.5974
C5 C 0.2219(5) 0.1251(6) 0.5914(2)
H3 H 0.1723 0.0973 0.6284
C6 C 0.2844(5) 0.0058(6) 0.5553(2)
H4 H 0.2776 -0.1025 0.5678
C7 C 0.3569(4) 0.0487(5) 0.5008(2)
B1 B 0.6165(4) 0.3371(5) 0.3499(2)
B2 B 0.4720(4) 0.2704(5) 0.3056(2)
B3 B 0.6241(4) 0.1521(5) 0.3049(2)
H5 H 0.6356 0.0327 0.3291
B4 B 0.7642(4) 0.2934(5) 0.3054(2)
H6 H 0.8654 0.2659 0.3300
B5 B 0.6937(4) 0.4955(5) 0.3056(2)
H7 H 0.7499 0.5969 0.3303
B6 B 0.5111(4) 0.4796(5) 0.3050(2)
H8 H 0.4493 0.5719 0.3296
B7 B 0.4466(4) 0.3808(6) 0.2302(2)
H9 H 0.3444 0.4081 0.2067
B8 B 0.5177(4) 0.1780(6) 0.2302(2)
H10 H 0.4606 0.0760 0.2065
B9 B 0.7012(4) 0.1970(6) 0.2292(2)
H11 H 0.7635 0.1067 0.2037
B10 B 0.7444(5) 0.4047(6) 0.2295(2)
H12 H 0.8352 0.4487 0.2042
B11 B 0.5891(5) 0.5209(6) 0.2295(2)
H13 H 0.5791 0.6397 0.2046
B12 B 0.5933(5) 0.3356(7) 0.1828(2)
H14 H 0.5856 0.3352 0.1276
N2 N 0.0823(3) -0.1688(4) 0.27739(18)
C8 C 0.1726(4) -0.3004(6) 0.3086(3)
H15 H 0.2242 -0.2552 0.3471
H16 H 0.2386 -0.3332 0.2762
C9 C 0.0974(6) -0.4495(6) 0.3311(3)
H17 H 0.0363 -0.4874 0.2951
H18 H 0.0451 -0.4230 0.3692
H19 H 0.1630 -0.5329 0.3432
C10 C 0.1772(4) -0.0368(6) 0.2547(3)
H20 H 0.2323 0.0013 0.2935
H21 H 0.2397 -0.0836 0.2236
C11 C 0.1068(6) 0.1072(7) 0.2215(4)
H22 H 0.0499 0.0711 0.1836
H23 H 0.1750 0.1814 0.2066
H24 H 0.0507 0.1606 0.2530
C12 C -0.0058(5) -0.2334(6) 0.2196(3)
H25 H -0.0713 -0.3097 0.2370
H26 H -0.0582 -0.1441 0.1995
C13 C 0.0696(6) -0.3156(9) 0.1660(3)
H27 H 0.0055 -0.3470 0.1301
H28 H 0.1152 -0.4103 0.1842
H29 H 0.1366 -0.2426 0.1491
C14 C -0.0171(4) -0.1038(6) 0.3272(3)
H30 H -0.0777 -0.1912 0.3395
H31 H -0.0737 -0.0206 0.3052
C15 C 0.0511(8) -0.0325(9) 0.3911(4)
H32 H 0.1095 0.0563 0.3797
H33 H 0.1054 -0.1146 0.4141
H34 H -0.0185 0.0056 0.4197
O2 O 0.7582(4) 0.3623(6) 0.5296(2)
C16 C 0.7284(14) 0.6206(14) 0.5234(7)
H35 H 0.6703 0.5900 0.4851
H36 H 0.7727 0.7219 0.5146
H37 H 0.6736 0.6320 0.5619
C17 C 0.8194(12) 0.5114(16) 0.5349(5)
H38 H 0.8617 0.5253 0.5797
H39 H 0.8909 0.5205 0.5029
C18 C 0.8631(9) 0.2419(15) 0.5418(5)
H40 H 0.9333 0.2542 0.5092
H41 H 0.9065 0.2583 0.5862
C19 C 0.8103(11) 0.0891(15) 0.5376(6)
H42 H 0.7769 0.0682 0.4923
H43 H 0.7358 0.0794 0.5672
H44 H 0.8810 0.0120 0.5503
loop_
_geom_bond_atom_site_label_1
_geom_bond_atom_site_label_2
_geom_bond_site_symmetry_1
_geom_bond_site_symmetry_2
Cl1 C3 1_555 1_555
Cl2 C7 1_555 1_555
O1 C1 1_555 1_555
N1 H1 1_555 1_555
C1 N1 1_555 1_555
C2 C1 1_555 1_555
C3 C2 1_555 1_555
C4 C3 1_555 1_555
H2 C4 1_555 1_555
C5 C4 1_555 1_555
H3 C5 1_555 1_555
C6 C5 1_555 1_555
H4 C6 1_555 1_555
C7 C2 1_555 1_555
B1 N1 1_555 1_555
B2 O1 1_555 1_555
B3 B1 1_555 1_555
H5 B3 1_555 1_555
B4 B1 1_555 1_555
H6 B4 1_555 1_555
B5 B1 1_555 1_555
H7 B5 1_555 1_555
B6 B1 1_555 1_555
H8 B6 1_555 1_555
B7 B2 1_555 1_555
H9 B7 1_555 1_555
B8 B2 1_555 1_555
H10 B8 1_555 1_555
B9 B3 1_555 1_555
H11 B9 1_555 1_555
B10 B4 1_555 1_555
H12 B10 1_555 1_555
B11 B5 1_555 1_555
H13 B11 1_555 1_555
B12 B7 1_555 1_555
H14 B12 1_555 1_555
N2 C8 1_555 1_555
C8 H15 1_555 1_555
H16 C8 1_555 1_555
C9 C8 1_555 1_555
H17 C9 1_555 1_555
H18 C9 1_555 1_555
H19 C9 1_555 1_555
C10 N2 1_555 1_555
H20 C10 1_555 1_555
H21 C10 1_555 1_555
C11 C10 1_555 1_555
H22 C11 1_555 1_555
H23 C11 1_555 1_555
H24 C11 1_555 1_555
C12 N2 1_555 1_555
H25 C12 1_555 1_555
H26 C12 1_555 1_555
C13 C12 1_555 1_555
H27 C13 1_555 1_555
H28 C13 1_555 1_555
H29 C13 1_555 1_555
C14 N2 1_555 1_555
H30 C14 1_555 1_555
H31 C14 1_555 1_555
C15 C14 1_555 1_555
H32 C15 1_555 1_555
H33 C15 1_555 1_555
H34 C15 1_555 1_555
O2 C17 1_555 1_555
C16 H35 1_555 1_555
H36 C16 1_555 1_555
H37 C16 1_555 1_555
C17 C16 1_555 1_555
H38 C17 1_555 1_555
H39 C17 1_555 1_555
C18 O2 1_555 1_555
H40 C18 1_555 1_555
H41 C18 1_555 1_555
C19 C18 1_555 1_555
H42 C19 1_555 1_555
H43 C19 1_555 1_555
H44 C19 1_555 1_555
C6 C7 1_555 1_555
B1 B2 1_555 1_555
B2 B3 1_555 1_555
B2 B6 1_555 1_555
B3 B4 1_555 1_555
B3 B8 1_555 1_555
B4 B5 1_555 1_555
B4 B9 1_555 1_555
B5 B6 1_555 1_555
B5 B10 1_555 1_555
B6 B7 1_555 1_555
B6 B11 1_555 1_555
B7 B8 1_555 1_555
B7 B11 1_555 1_555
B8 B9 1_555 1_555
B8 B12 1_555 1_555
B9 B10 1_555 1_555
B9 B12 1_555 1_555
B10 B11 1_555 1_555
B10 B12 1_555 1_555
B11 B12 1_555 1_555

#END
