
#######################################################################
#
#                 Cambridge Crystallographic Data Centre
#                                CCDC 
#
#######################################################################
#
# If this CIF has been generated from an entry in the Cambridge 
# Structural Database, then it will include bibliographic, chemical, 
# crystal, experimental, refinement or atomic coordinate data resulting 
# from the CCDC's data processing and validation procedures.
#
#######################################################################

data_ZIPMIX
_chemical_formula_moiety         'C8 H20 N1 1+,C5 H20 B12 N1 O1 1-'
_chemical_name_systematic        
'Tetraethylammonium 1,2-((t-butyl)(iminio)methanolato)-closo-dodecaborate(10)'
_symmetry_cell_setting           monoclinic
_symmetry_space_group_name_H-M   'P 21/n'
_symmetry_Int_Tables_number      14
_space_group_name_Hall           '-P 2yn'
loop_
_symmetry_equiv_pos_site_id
_symmetry_equiv_pos_as_xyz
1 x,y,z
2 1/2-x,1/2+y,1/2-z
3 -x,-y,-z
4 1/2+x,1/2-y,1/2+z
_cell_length_a                   11.4168(6)
_cell_length_b                   12.1530(7)
_cell_length_c                   17.5089(10)
_cell_angle_alpha                90
_cell_angle_beta                 91.335(5)
_cell_angle_gamma                90
_cell_volume                     2428.67
_exptl_crystal_colour            yellow
_exptl_crystal_description       block
_cell_formula_units_Z            4
_exptl_crystal_recrystallization_method 'dichloromethane/diethyl ether'
loop_
_atom_site_label
_atom_site_type_symbol
_atom_site_fract_x
_atom_site_fract_y
_atom_site_fract_z
O1 O 0.82125(11) 0.55885(12) 0.12533(7)
N1 N 0.64631(14) 0.49725(14) 0.08483(9)
H1 H 0.5853 0.4558 0.0862
C1 C 0.73342(17) 0.49145(17) 0.13455(12)
C2 C 0.74193(19) 0.4146(2) 0.20142(13)
C3 C 0.7579(4) 0.4828(3) 0.27342(18)
H2 H 0.6901 0.5282 0.2801
H3 H 0.8259 0.5287 0.2691
H4 H 0.7679 0.4349 0.3167
C4 C 0.6371(3) 0.3414(4) 0.2074(2)
H5 H 0.6469 0.2940 0.2509
H6 H 0.6289 0.2977 0.1619
H7 H 0.5682 0.3857 0.2132
C5 C 0.8520(3) 0.3455(4) 0.1928(2)
H8 H 0.8619 0.2982 0.2363
H9 H 0.9188 0.3930 0.1892
H10 H 0.8448 0.3017 0.1473
B1 B 0.80011(18) 0.62964(18) 0.05672(12)
B2 B 0.66431(18) 0.58498(18) 0.02429(12)
B3 B 0.79069(18) 0.55631(19) -0.03017(12)
H11 H 0.8260 0.4728 -0.0371
B4 B 0.8866(2) 0.67113(19) -0.02058(13)
H12 H 0.9825 0.6626 -0.0210
B5 B 0.8163(2) 0.77130(19) 0.03903(13)
H13 H 0.8673 0.8267 0.0767
B6 B 0.67795(19) 0.71780(19) 0.06512(13)
H14 H 0.6398 0.7397 0.1202
B7 B 0.5869(2) 0.69643(19) -0.01759(13)
H15 H 0.4910 0.7038 -0.0165
B8 B 0.65710(19) 0.59595(19) -0.07676(12)
H16 H 0.6061 0.5390 -0.1133
B9 B 0.7952(2) 0.6522(2) -0.10446(13)
H17 H 0.8328 0.6322 -0.1601
B10 B 0.8115(2) 0.7848(2) -0.06243(14)
H18 H 0.8600 0.8507 -0.0909
B11 B 0.6833(2) 0.8128(2) -0.00936(14)
H19 H 0.6487 0.8968 -0.0035
B12 B 0.6705(2) 0.7392(2) -0.09694(13)
H20 H 0.6275 0.7758 -0.1478
N2 N 0.25522(14) 0.79995(13) 0.12728(10)
C6 C 0.33789(19) 0.70348(18) 0.13896(12)
H21 H 0.2990 0.6375 0.1202
H22 H 0.4061 0.7153 0.1080
C7 C 0.3789(2) 0.6833(2) 0.21992(14)
H23 H 0.4287 0.6197 0.2217
H24 H 0.3124 0.6713 0.2514
H25 H 0.4219 0.7462 0.2384
C8 C 0.1481(2) 0.7877(2) 0.17615(14)
H26 H 0.1722 0.7963 0.2293
H27 H 0.0942 0.8470 0.1637
C9 C 0.0834(2) 0.6798(2) 0.16764(16)
H28 H 0.0598 0.6695 0.1151
H29 H 0.0154 0.6808 0.1988
H30 H 0.1339 0.6205 0.1836
C10 C 0.2210(2) 0.80032(19) 0.04264(12)
H31 H 0.2923 0.8030 0.0136
H32 H 0.1826 0.7310 0.0308
C11 C 0.1425(2) 0.8917(2) 0.01523(15)
H33 H 0.1253 0.8825 -0.0383
H34 H 0.1811 0.9611 0.0235
H35 H 0.0709 0.8902 0.0429
C12 C 0.3142(2) 0.90787(19) 0.15057(14)
H36 H 0.2608 0.9678 0.1385
H37 H 0.3271 0.9074 0.2055
C13 C 0.4290(2) 0.9311(2) 0.11354(17)
H38 H 0.4191 0.9258 0.0591
H39 H 0.4863 0.8785 0.1309
H40 H 0.4548 1.0039 0.1270
loop_
_geom_bond_atom_site_label_1
_geom_bond_atom_site_label_2
_geom_bond_site_symmetry_1
_geom_bond_site_symmetry_2
O1 C1 1_555 1_555
N1 H1 1_555 1_555
C1 N1 1_555 1_555
C2 C1 1_555 1_555
C3 C2 1_555 1_555
H2 C3 1_555 1_555
H3 C3 1_555 1_555
H4 C3 1_555 1_555
C4 C2 1_555 1_555
H5 C4 1_555 1_555
H6 C4 1_555 1_555
H7 C4 1_555 1_555
C5 C2 1_555 1_555
H8 C5 1_555 1_555
H9 C5 1_555 1_555
H10 C5 1_555 1_555
B1 O1 1_555 1_555
B2 N1 1_555 1_555
B3 B1 1_555 1_555
H11 B3 1_555 1_555
B4 B1 1_555 1_555
H12 B4 1_555 1_555
B5 B1 1_555 1_555
H13 B5 1_555 1_555
B6 B1 1_555 1_555
H14 B6 1_555 1_555
B7 B2 1_555 1_555
H15 B7 1_555 1_555
B8 B2 1_555 1_555
H16 B8 1_555 1_555
B9 B3 1_555 1_555
H17 B9 1_555 1_555
B10 B4 1_555 1_555
H18 B10 1_555 1_555
B11 B5 1_555 1_555
H19 B11 1_555 1_555
B12 B7 1_555 1_555
H20 B12 1_555 1_555
N2 C6 1_555 1_555
C6 H21 1_555 1_555
H22 C6 1_555 1_555
C7 C6 1_555 1_555
H23 C7 1_555 1_555
H24 C7 1_555 1_555
H25 C7 1_555 1_555
C8 N2 1_555 1_555
H26 C8 1_555 1_555
H27 C8 1_555 1_555
C9 C8 1_555 1_555
H28 C9 1_555 1_555
H29 C9 1_555 1_555
H30 C9 1_555 1_555
C10 N2 1_555 1_555
H31 C10 1_555 1_555
H32 C10 1_555 1_555
C11 C10 1_555 1_555
H33 C11 1_555 1_555
H34 C11 1_555 1_555
H35 C11 1_555 1_555
C12 N2 1_555 1_555
H36 C12 1_555 1_555
H37 C12 1_555 1_555
C13 C12 1_555 1_555
H38 C13 1_555 1_555
H39 C13 1_555 1_555
H40 C13 1_555 1_555
B1 B2 1_555 1_555
B2 B3 1_555 1_555
B2 B6 1_555 1_555
B3 B4 1_555 1_555
B3 B8 1_555 1_555
B4 B5 1_555 1_555
B4 B9 1_555 1_555
B5 B6 1_555 1_555
B5 B10 1_555 1_555
B6 B7 1_555 1_555
B6 B11 1_555 1_555
B7 B8 1_555 1_555
B7 B11 1_555 1_555
B8 B9 1_555 1_555
B8 B12 1_555 1_555
B9 B10 1_555 1_555
B9 B12 1_555 1_555
B10 B11 1_555 1_555
B10 B12 1_555 1_555
B11 B12 1_555 1_555

#END
