
#######################################################################
#
#                 Cambridge Crystallographic Data Centre
#                                CCDC 
#
#######################################################################
#
# If this CIF has been generated from an entry in the Cambridge 
# Structural Database, then it will include bibliographic, chemical, 
# crystal, experimental, refinement or atomic coordinate data resulting 
# from the CCDC's data processing and validation procedures.
#
#######################################################################

data_ZIPMAP
_chemical_formula_moiety         'C6 H16 N1 1+,C11 H18 B12 N1 O1 1-'
_chemical_name_systematic        
'Triethylammonium 1,2-((naphthalen-1-yl)(iminio)methanolato)-closo-dodecaborate(10)'
_chemical_properties_biological  'antimicrobial activity'
_symmetry_cell_setting           monoclinic
_symmetry_space_group_name_H-M   'P 21/c'
_symmetry_Int_Tables_number      14
_space_group_name_Hall           '-P 2ybc'
loop_
_symmetry_equiv_pos_site_id
_symmetry_equiv_pos_as_xyz
1 x,y,z
2 -x,1/2+y,1/2-z
3 -x,-y,-z
4 x,1/2-y,1/2+z
_cell_length_a                   19.0995(16)
_cell_length_b                   9.2355(6)
_cell_length_c                   13.7680(8)
_cell_angle_alpha                90
_cell_angle_beta                 96.460(6)
_cell_angle_gamma                90
_cell_volume                     2413.16
_exptl_crystal_colour            colorless
_exptl_crystal_description       plate
_cell_formula_units_Z            4
_exptl_crystal_recrystallization_method 'dichloromethane/diethyl ether'
loop_
_atom_site_label
_atom_site_type_symbol
_atom_site_fract_x
_atom_site_fract_y
_atom_site_fract_z
O1 O 0.35865(9) 0.32345(19) 0.00255(12)
N1 N 0.29744(11) 0.3329(2) -0.14511(14)
H1 H 0.2910 0.3542 -0.2063
C1 C 0.35713(13) 0.3550(3) -0.08965(18)
C2 C 0.42187(14) 0.4110(3) -0.12429(18)
C3 C 0.41625(16) 0.5195(3) -0.1905(2)
H2 H 0.3718 0.5546 -0.2136
C4 C 0.47627(19) 0.5805(4) -0.2255(3)
H3 H 0.4710 0.6554 -0.2709
C5 C 0.54005(18) 0.5322(4) -0.1944(2)
H4 H 0.5791 0.5751 -0.2173
C6 C 0.55003(15) 0.4162(3) -0.1268(2)
C7 C 0.49072(14) 0.3538(3) -0.0897(2)
C8 C 0.50240(16) 0.2352(4) -0.0249(2)
H5 H 0.4645 0.1917 0.0006
C9 C 0.56878(18) 0.1843(4) 0.0004(3)
H6 H 0.5754 0.1054 0.0424
C10 C 0.62620(19) 0.2465(4) -0.0346(3)
H7 H 0.6711 0.2099 -0.0159
C11 C 0.61777(16) 0.3605(4) -0.0962(3)
H8 H 0.6571 0.4029 -0.1187
B1 B 0.29000(15) 0.2619(3) 0.0232(2)
B2 B 0.24062(15) 0.2654(3) -0.0898(2)
B3 B 0.21772(16) 0.3817(3) 0.0051(2)
H9 H 0.2232 0.5002 0.0026
B4 B 0.23631(17) 0.2865(3) 0.1173(2)
H10 H 0.2539 0.3422 0.1864
B5 B 0.26843(17) 0.1098(3) 0.0899(2)
H11 H 0.3067 0.0521 0.1417
B6 B 0.26987(16) 0.0965(3) -0.0389(2)
H12 H 0.3093 0.0292 -0.0701
B7 B 0.18319(16) 0.1148(3) -0.1000(2)
H13 H 0.1663 0.0606 -0.1699
B8 B 0.15141(16) 0.2922(3) -0.0727(2)
H14 H 0.1145 0.3518 -0.1253
B9 B 0.14828(17) 0.3005(3) 0.0572(2)
H15 H 0.1079 0.3645 0.0889
B10 B 0.17931(17) 0.1345(3) 0.1098(2)
H16 H 0.1592 0.0912 0.1757
B11 B 0.20029(17) 0.0189(3) 0.0143(2)
H17 H 0.1938 -0.0992 0.0184
B12 B 0.12646(17) 0.1372(3) -0.0069(2)
H18 H 0.0721 0.0957 -0.0170
N2 N 0.12239(13) 0.6963(2) -0.30314(18)
H19 H 0.1408 0.6279 -0.3405
C12 C 0.1729(2) 0.7100(4) -0.2125(3)
H20 H 0.1556 0.7833 -0.1707
H21 H 0.1744 0.6188 -0.1773
C13 C 0.2456(2) 0.7490(5) -0.2318(3)
H22 H 0.2599 0.6875 -0.2822
H23 H 0.2773 0.7365 -0.1732
H24 H 0.2466 0.8482 -0.2525
C14 C 0.11682(18) 0.8309(3) -0.3629(2)
H25 H 0.1633 0.8566 -0.3792
H26 H 0.1006 0.9089 -0.3240
C15 C 0.06773(19) 0.8176(4) -0.4557(2)
H27 H 0.0732 0.9002 -0.4965
H28 H 0.0200 0.8130 -0.4404
H29 H 0.0786 0.7311 -0.4897
C16 C 0.0531(2) 0.6381(5) -0.2805(3)
H30 H 0.0253 0.6115 -0.3412
H31 H 0.0613 0.5508 -0.2416
C17 C 0.0120(3) 0.7418(8) -0.2268(3)
H32 H -0.0001 0.8248 -0.2672
H33 H 0.0398 0.7719 -0.1678
H34 H -0.0302 0.6957 -0.2107
loop_
_geom_bond_atom_site_label_1
_geom_bond_atom_site_label_2
_geom_bond_site_symmetry_1
_geom_bond_site_symmetry_2
O1 C1 1_555 1_555
N1 H1 1_555 1_555
C1 N1 1_555 1_555
C2 C1 1_555 1_555
C3 C2 1_555 1_555
H2 C3 1_555 1_555
C4 C3 1_555 1_555
H3 C4 1_555 1_555
C5 C4 1_555 1_555
H4 C5 1_555 1_555
C6 C5 1_555 1_555
C7 C2 1_555 1_555
C8 C7 1_555 1_555
H5 C8 1_555 1_555
C9 C8 1_555 1_555
H6 C9 1_555 1_555
C10 C9 1_555 1_555
H7 C10 1_555 1_555
C11 C6 1_555 1_555
H8 C11 1_555 1_555
B1 O1 1_555 1_555
B2 N1 1_555 1_555
B3 B1 1_555 1_555
H9 B3 1_555 1_555
B4 B1 1_555 1_555
H10 B4 1_555 1_555
B5 B1 1_555 1_555
H11 B5 1_555 1_555
B6 B1 1_555 1_555
H12 B6 1_555 1_555
B7 B2 1_555 1_555
H13 B7 1_555 1_555
B8 B2 1_555 1_555
H14 B8 1_555 1_555
B9 B3 1_555 1_555
H15 B9 1_555 1_555
B10 B4 1_555 1_555
H16 B10 1_555 1_555
B11 B5 1_555 1_555
H17 B11 1_555 1_555
B12 B7 1_555 1_555
H18 B12 1_555 1_555
N2 H19 1_555 1_555
C12 N2 1_555 1_555
H20 C12 1_555 1_555
H21 C12 1_555 1_555
C13 C12 1_555 1_555
H22 C13 1_555 1_555
H23 C13 1_555 1_555
H24 C13 1_555 1_555
C14 N2 1_555 1_555
H25 C14 1_555 1_555
H26 C14 1_555 1_555
C15 C14 1_555 1_555
H27 C15 1_555 1_555
H28 C15 1_555 1_555
H29 C15 1_555 1_555
C16 N2 1_555 1_555
H30 C16 1_555 1_555
H31 C16 1_555 1_555
C17 C16 1_555 1_555
H32 C17 1_555 1_555
H33 C17 1_555 1_555
H34 C17 1_555 1_555
C6 C7 1_555 1_555
C10 C11 1_555 1_555
B1 B2 1_555 1_555
B2 B3 1_555 1_555
B2 B6 1_555 1_555
B3 B4 1_555 1_555
B3 B8 1_555 1_555
B4 B5 1_555 1_555
B4 B9 1_555 1_555
B5 B6 1_555 1_555
B5 B10 1_555 1_555
B6 B7 1_555 1_555
B6 B11 1_555 1_555
B7 B8 1_555 1_555
B7 B11 1_555 1_555
B8 B9 1_555 1_555
B8 B12 1_555 1_555
B9 B10 1_555 1_555
B9 B12 1_555 1_555
B10 B11 1_555 1_555
B10 B12 1_555 1_555
B11 B12 1_555 1_555

#END
