
#######################################################################
#
#                 Cambridge Crystallographic Data Centre
#                                CCDC 
#
#######################################################################
#
# If this CIF has been generated from an entry in the Cambridge 
# Structural Database, then it will include bibliographic, chemical, 
# crystal, experimental, refinement or atomic coordinate data resulting 
# from the CCDC's data processing and validation procedures.
#
#######################################################################

data_ZIPMUJ
_chemical_formula_moiety         'C8 H20 N1 1+,C7 H16 B12 N1 O1 1-,C1 H2 Cl2'
_chemical_name_systematic        
'Tetraethylammonium 1,2-(phenyl(iminio)methanolato)-closo-dodecaborate(10) dichloromethane solvate'
_chemical_properties_biological  'antimicrobial activity'
_symmetry_cell_setting           orthorhombic
_symmetry_space_group_name_H-M   'P 21 21 21'
_symmetry_Int_Tables_number      19
_space_group_name_Hall           'P 2ac 2ab'
loop_
_symmetry_equiv_pos_site_id
_symmetry_equiv_pos_as_xyz
1 x,y,z
2 1/2-x,-y,1/2+z
3 1/2+x,1/2-y,-z
4 -x,1/2+y,1/2-z
_cell_length_a                   12.0304(4)
_cell_length_b                   12.8307(6)
_cell_length_c                   18.2518(9)
_cell_angle_alpha                90
_cell_angle_beta                 90
_cell_angle_gamma                90
_cell_volume                     2817.32
_exptl_crystal_colour            colorless
_exptl_crystal_description       plate
_cell_formula_units_Z            4
_exptl_crystal_recrystallization_method dichloromethane/hexanes
loop_
_atom_site_label
_atom_site_type_symbol
_atom_site_fract_x
_atom_site_fract_y
_atom_site_fract_z
O1 O 1.04821(15) 0.17138(15) 0.00420(12)
N1 N 0.86302(18) 0.17473(19) 0.00397(15)
H1 H 0.7976 0.1478 0.0061
C1 C 0.9542(2) 0.1205(2) 0.00760(17)
C2 C 0.9577(3) 0.0064(2) 0.01452(17)
C3 C 1.0566(3) -0.0464(3) 0.0016(2)
H2 H 1.1209 -0.0097 -0.0101
C4 C 1.0585(3) -0.1538(3) 0.0064(2)
H3 H 1.1243 -0.1896 -0.0029
C5 C 0.9644(4) -0.2083(3) 0.0246(2)
H4 H 0.9667 -0.2806 0.0278
C6 C 0.8668(3) -0.1562(3) 0.0381(3)
H5 H 0.8034 -0.1933 0.0511
C7 C 0.8625(3) -0.0494(3) 0.0324(2)
H6 H 0.7959 -0.0145 0.0404
B1 B 1.0280(3) 0.2859(2) -0.0039(2)
B2 B 0.8845(3) 0.2908(3) -0.0045(2)
B3 B 0.9582(3) 0.3421(3) 0.07191(19)
H7 H 0.9571 0.3062 0.1266
B4 B 1.0816(3) 0.4005(3) 0.0371(2)
H8 H 1.1594 0.4022 0.0687
B5 B 1.0816(3) 0.3855(3) -0.0611(2)
H9 H 1.1594 0.3775 -0.0923
B6 B 0.9577(3) 0.3180(3) -0.08616(17)
H10 H 0.9562 0.2662 -0.1342
B7 B 0.8386(3) 0.3925(3) -0.0619(2)
H11 H 0.7608 0.3892 -0.0934
B8 B 0.8391(3) 0.4075(3) 0.0366(2)
H12 H 0.7614 0.4137 0.0681
B9 B 0.9617(3) 0.4776(3) 0.06084(19)
H13 H 0.9625 0.5310 0.1080
B10 B 1.0391(3) 0.5053(3) -0.0204(2)
H14 H 1.0899 0.5762 -0.0255
B11 B 0.9632(3) 0.4533(3) -0.09593(19)
H15 H 0.9653 0.4909 -0.1501
B12 B 0.8891(3) 0.5084(3) -0.0210(2)
H16 H 0.8428 0.5818 -0.0269
N2 N 0.7156(2) 0.2836(2) 0.28112(15)
C8 C 0.7863(4) 0.1871(3) 0.2688(2)
H17 H 0.7433 0.1368 0.2411
H18 H 0.8503 0.2062 0.2394
C9 C 0.8267(5) 0.1357(5) 0.3385(3)
H19 H 0.8645 0.0721 0.3267
H20 H 0.7644 0.1208 0.3696
H21 H 0.8769 0.1818 0.3635
C10 C 0.6153(3) 0.2602(3) 0.3276(2)
H22 H 0.5711 0.3232 0.3315
H23 H 0.6405 0.2424 0.3766
C11 C 0.5407(4) 0.1728(4) 0.3002(3)
H24 H 0.5170 0.1880 0.2511
H25 H 0.4768 0.1670 0.3315
H26 H 0.5811 0.1083 0.3007
C12 C 0.6818(3) 0.3203(3) 0.20505(18)
H27 H 0.7488 0.3318 0.1766
H28 H 0.6406 0.2646 0.1815
C13 C 0.6132(4) 0.4169(3) 0.2022(2)
H29 H 0.5948 0.4324 0.1521
H30 H 0.6545 0.4739 0.2227
H31 H 0.5462 0.4067 0.2298
C14 C 0.7782(3) 0.3675(3) 0.3214(2)
H32 H 0.7957 0.3422 0.3702
H33 H 0.7298 0.4274 0.3269
C15 C 0.8861(4) 0.4031(4) 0.2846(3)
H34 H 0.8704 0.4262 0.2357
H35 H 0.9376 0.3460 0.2830
H36 H 0.9179 0.4595 0.3122
Cl1 Cl 0.6639(2) 0.30966(18) -0.27691(13)
Cl2 Cl 0.7870(2) 0.11787(18) -0.26981(15)
C16 C 0.7157(5) 0.2153(5) -0.2197(4)
H37 H 0.6551 0.1836 -0.1926
H38 H 0.7661 0.2469 -0.1847
loop_
_geom_bond_atom_site_label_1
_geom_bond_atom_site_label_2
_geom_bond_site_symmetry_1
_geom_bond_site_symmetry_2
O1 C1 1_555 1_555
N1 H1 1_555 1_555
C1 N1 1_555 1_555
C2 C1 1_555 1_555
C3 C2 1_555 1_555
H2 C3 1_555 1_555
C4 C3 1_555 1_555
H3 C4 1_555 1_555
C5 C4 1_555 1_555
H4 C5 1_555 1_555
C6 C5 1_555 1_555
H5 C6 1_555 1_555
C7 C2 1_555 1_555
H6 C7 1_555 1_555
B1 O1 1_555 1_555
B2 N1 1_555 1_555
B3 B1 1_555 1_555
H7 B3 1_555 1_555
B4 B1 1_555 1_555
H8 B4 1_555 1_555
B5 B1 1_555 1_555
H9 B5 1_555 1_555
B6 B1 1_555 1_555
H10 B6 1_555 1_555
B7 B2 1_555 1_555
H11 B7 1_555 1_555
B8 B2 1_555 1_555
H12 B8 1_555 1_555
B9 B3 1_555 1_555
H13 B9 1_555 1_555
B10 B4 1_555 1_555
H14 B10 1_555 1_555
B11 B5 1_555 1_555
H15 B11 1_555 1_555
B12 B7 1_555 1_555
H16 B12 1_555 1_555
N2 C8 1_555 1_555
C8 H17 1_555 1_555
H18 C8 1_555 1_555
C9 C8 1_555 1_555
H19 C9 1_555 1_555
H20 C9 1_555 1_555
H21 C9 1_555 1_555
C10 N2 1_555 1_555
H22 C10 1_555 1_555
H23 C10 1_555 1_555
C11 C10 1_555 1_555
H24 C11 1_555 1_555
H25 C11 1_555 1_555
H26 C11 1_555 1_555
C12 N2 1_555 1_555
H27 C12 1_555 1_555
H28 C12 1_555 1_555
C13 C12 1_555 1_555
H29 C13 1_555 1_555
H30 C13 1_555 1_555
H31 C13 1_555 1_555
C14 N2 1_555 1_555
H32 C14 1_555 1_555
H33 C14 1_555 1_555
C15 C14 1_555 1_555
H34 C15 1_555 1_555
H35 C15 1_555 1_555
H36 C15 1_555 1_555
Cl1 C16 1_555 1_555
Cl2 C16 1_555 1_555
C16 H37 1_555 1_555
H38 C16 1_555 1_555
C6 C7 1_555 1_555
B1 B2 1_555 1_555
B2 B3 1_555 1_555
B2 B6 1_555 1_555
B3 B4 1_555 1_555
B3 B8 1_555 1_555
B4 B5 1_555 1_555
B4 B9 1_555 1_555
B5 B6 1_555 1_555
B5 B10 1_555 1_555
B6 B7 1_555 1_555
B6 B11 1_555 1_555
B7 B8 1_555 1_555
B7 B11 1_555 1_555
B8 B9 1_555 1_555
B8 B12 1_555 1_555
B9 B10 1_555 1_555
B9 B12 1_555 1_555
B10 B11 1_555 1_555
B10 B12 1_555 1_555
B11 B12 1_555 1_555

#END
