
#######################################################################
#
#                 Cambridge Crystallographic Data Centre
#                                CCDC 
#
#######################################################################
#
# If this CIF has been generated from an entry in the Cambridge 
# Structural Database, then it will include bibliographic, chemical, 
# crystal, experimental, refinement or atomic coordinate data resulting 
# from the CCDC's data processing and validation procedures.
#
#######################################################################

data_ZIPTEZ
_chemical_formula_moiety         'C16 H22 S2 Si2'
_chemical_name_systematic        
Thieno[3,2-e][1]benzothiene-2,7-diylbis(trimethylsilane)
_symmetry_cell_setting           monoclinic
_symmetry_space_group_name_H-M   'C 2/c'
_symmetry_Int_Tables_number      15
_space_group_name_Hall           '-C 2yn'
loop_
_symmetry_equiv_pos_site_id
_symmetry_equiv_pos_as_xyz
1 x,y,z
2 -x,y,1/2-z
3 1/2+x,1/2+y,z
4 1/2-x,1/2+y,1/2-z
5 -x,-y,-z
6 x,-y,1/2+z
7 1/2-x,1/2-y,-z
8 1/2+x,1/2-y,1/2+z
_cell_length_a                   32.173(3)
_cell_length_b                   6.4125(7)
_cell_length_c                   21.667(2)
_cell_angle_alpha                90
_cell_angle_beta                 121.4950(10)
_cell_angle_gamma                90
_cell_volume                     3811.59
_cell_formula_units_Z            8
loop_
_atom_site_label
_atom_site_type_symbol
_atom_site_fract_x
_atom_site_fract_y
_atom_site_fract_z
C1 C 0.33820(8) 0.6833(3) 0.28731(12)
C2 C 0.31953(7) 0.8261(3) 0.23001(10)
C3 C 0.27335(7) 0.7844(3) 0.16754(11)
C4 C 0.24959(8) 0.6000(3) 0.16581(11)
C5 C 0.26962(9) 0.4568(3) 0.22361(13)
H1 H 0.2531 0.3343 0.2204
C6 C 0.31338(9) 0.4997(4) 0.28412(14)
H2 H 0.3268 0.4080 0.3231
C7 C 0.39521(8) 0.9826(3) 0.30982(11)
C8 C 0.35270(7) 0.9939(3) 0.24475(11)
H3 H 0.3457 1.1026 0.2123
C9 C 0.24537(7) 0.9016(3) 0.10216(11)
H4 H 0.2560 1.0283 0.0945
C10 C 0.20220(8) 0.8143(3) 0.05220(11)
C11 C 0.46773(12) 1.2601(5) 0.43296(14)
H5 H 0.4421 1.3518 0.4263
H6 H 0.4975 1.3375 0.4520
H7 H 0.4720 1.1512 0.4662
C12 C 0.50090(10) 0.9653(5) 0.3574(2)
H8 H 0.5063 0.8606 0.3925
H9 H 0.5303 1.0437 0.3741
H10 H 0.4916 0.8997 0.3122
C13 C 0.43967(10) 1.3451(5) 0.27589(15)
H11 H 0.4320 1.2785 0.2315
H12 H 0.4682 1.4304 0.2930
H13 H 0.4127 1.4307 0.2676
C14 C 0.10598(10) 1.0488(5) -0.03284(16)
H14 H 0.1196 1.1616 0.0012
H15 H 0.0908 0.9507 -0.0172
H16 H 0.0821 1.1024 -0.0796
C15 C 0.12963(10) 0.6941(4) -0.10235(14)
H17 H 0.1048 0.7437 -0.1492
H18 H 0.1157 0.5951 -0.0849
H19 H 0.1551 0.6281 -0.1060
C16 C 0.18612(9) 1.1031(4) -0.06710(13)
H20 H 0.1966 1.2228 -0.0359
H21 H 0.1638 1.1461 -0.1161
H22 H 0.2139 1.0370 -0.0641
S1 S 0.39486(2) 0.76418(10) 0.35709(3)
S2 S 0.19423(2) 0.57805(9) 0.08490(3)
Si1 Si 0.45140(2) 1.14373(11) 0.34469(4)
Si2 Si 0.15529(2) 0.91648(10) -0.03859(3)
loop_
_geom_bond_atom_site_label_1
_geom_bond_atom_site_label_2
_geom_bond_site_symmetry_1
_geom_bond_site_symmetry_2
C1 C2 1_555 1_555
C2 C3 1_555 1_555
C3 C4 1_555 1_555
C4 C5 1_555 1_555
C5 H1 1_555 1_555
C6 C1 1_555 1_555
H2 C6 1_555 1_555
C7 C8 1_555 1_555
C8 C2 1_555 1_555
H3 C8 1_555 1_555
C9 C3 1_555 1_555
H4 C9 1_555 1_555
C10 C9 1_555 1_555
C11 H5 1_555 1_555
H6 C11 1_555 1_555
H7 C11 1_555 1_555
C12 H8 1_555 1_555
H9 C12 1_555 1_555
H10 C12 1_555 1_555
C13 H11 1_555 1_555
H12 C13 1_555 1_555
H13 C13 1_555 1_555
C14 H14 1_555 1_555
H15 C14 1_555 1_555
H16 C14 1_555 1_555
C15 H17 1_555 1_555
H18 C15 1_555 1_555
H19 C15 1_555 1_555
C16 H20 1_555 1_555
H21 C16 1_555 1_555
H22 C16 1_555 1_555
S1 C1 1_555 1_555
S2 C4 1_555 1_555
Si1 C7 1_555 1_555
Si2 C10 1_555 1_555
C5 C6 1_555 1_555
C7 S1 1_555 1_555
C10 S2 1_555 1_555
C11 Si1 1_555 1_555
C12 Si1 1_555 1_555
C13 Si1 1_555 1_555
C14 Si2 1_555 1_555
C15 Si2 1_555 1_555
C16 Si2 1_555 1_555

#END
