
#######################################################################
#
#                 Cambridge Crystallographic Data Centre
#                                CCDC 
#
#######################################################################
#
# If this CIF has been generated from an entry in the Cambridge 
# Structural Database, then it will include bibliographic, chemical, 
# crystal, experimental, refinement or atomic coordinate data resulting 
# from the CCDC's data processing and validation procedures.
#
#######################################################################

data_ZIQFOX
_chemical_formula_moiety         'C27 H18 N2 O3'
_chemical_name_systematic        
'methyl 12-benzoyl-5,11-dihydroindolo[3,2-b]carbazole-6-carboxylate'
_symmetry_cell_setting           monoclinic
_symmetry_space_group_name_H-M   'P 21/c'
_symmetry_Int_Tables_number      14
_space_group_name_Hall           '-P 2ybc'
loop_
_symmetry_equiv_pos_site_id
_symmetry_equiv_pos_as_xyz
1 x,y,z
2 -x,1/2+y,1/2-z
3 -x,-y,-z
4 x,1/2-y,1/2+z
_cell_length_a                   9.1847(3)
_cell_length_b                   26.5047(8)
_cell_length_c                   8.3121(2)
_cell_angle_alpha                90
_cell_angle_beta                 96.585(3)
_cell_angle_gamma                90
_cell_volume                     2010.13
_exptl_crystal_colour            'light yellow'
_exptl_crystal_description       block
_cell_formula_units_Z            4
loop_
_atom_site_label
_atom_site_type_symbol
_atom_site_fract_x
_atom_site_fract_y
_atom_site_fract_z
C1 C 0.40277(15) 0.65789(5) 0.59785(17)
C2 C 0.37687(17) 0.67671(6) 0.44078(19)
H1 H 0.4254 0.7053 0.4098
C3 C 0.27785(19) 0.65185(7) 0.3335(2)
H2 H 0.2587 0.6635 0.2276
C4 C 0.20560(19) 0.60933(7) 0.3816(2)
H3 H 0.1375 0.5933 0.3073
C5 C 0.23211(17) 0.59029(7) 0.53612(19)
H4 H 0.1827 0.5616 0.5648
C6 C 0.33381(15) 0.61418(5) 0.65061(17)
C7 C 0.39602(14) 0.60563(5) 0.81840(16)
C8 C 0.49855(15) 0.64564(5) 0.85481(16)
C9 C 0.58403(14) 0.65185(5) 1.00255(17)
C10 C 0.67809(16) 0.69761(5) 1.03996(17)
C11 C 0.83087(15) 0.69787(5) 1.00069(17)
C12 C 0.89223(17) 0.65555(7) 0.9384(2)
H5 H 0.8377 0.6261 0.9217
C13 C 1.03562(19) 0.65719(9) 0.9009(2)
H6 H 1.0773 0.6287 0.8594
C14 C 1.1161(2) 0.70083(10) 0.9250(3)
H7 H 1.2115 0.7020 0.8979
C15 C 1.0559(2) 0.74262(9) 0.9890(3)
H8 H 1.1113 0.7719 1.0064
C16 C 0.91415(19) 0.74145(7) 1.0277(2)
H9 H 0.8742 0.7698 1.0719
C17 C 0.57446(14) 0.61469(5) 1.11807(16)
C18 C 0.47534(15) 0.57392(5) 1.08558(16)
C19 C 0.59651(16) 0.56156(6) 1.33477(17)
C20 C 0.65162(19) 0.54189(7) 1.4847(2)
H10 H 0.6182 0.5112 1.5206
C21 C 0.7570(2) 0.56917(8) 1.5782(2)
H11 H 0.7931 0.5571 1.6801
C22 C 0.8106(2) 0.61421(7) 1.5242(2)
H12 H 0.8824 0.6317 1.5899
C23 C 0.75898(18) 0.63339(6) 1.37445(19)
H13 H 0.7961 0.6634 1.3382
C24 C 0.65006(15) 0.60697(6) 1.27802(17)
C25 C 0.38082(14) 0.56903(5) 0.94156(16)
C26 C 0.27379(15) 0.52742(6) 0.93518(18)
C27 C 0.07191(18) 0.48705(7) 0.7860(2)
H14 H 0.1219 0.4558 0.8127
H15 H 0.0272 0.4858 0.6758
H16 H -0.0023 0.4921 0.8568
N1 N 0.49792(13) 0.67677(4) 0.72270(14)
H17 H 0.5491 0.7038 0.7188
N2 N 0.49132(13) 0.54231(5) 1.21800(15)
H18 H 0.4433 0.5148 1.2269
O1 O 0.62620(14) 0.73343(4) 1.10374(19)
O2 O 0.27108(13) 0.49561(5) 1.03988(15)
O3 O 0.17545(12) 0.52811(4) 0.80478(14)
loop_
_geom_bond_atom_site_label_1
_geom_bond_atom_site_label_2
_geom_bond_site_symmetry_1
_geom_bond_site_symmetry_2
C1 C2 1_555 1_555
C2 H1 1_555 1_555
C3 C2 1_555 1_555
H2 C3 1_555 1_555
C4 C3 1_555 1_555
H3 C4 1_555 1_555
C5 C4 1_555 1_555
H4 C5 1_555 1_555
C6 C1 1_555 1_555
C7 C6 1_555 1_555
C8 C7 1_555 1_555
C9 C8 1_555 1_555
C10 C9 1_555 1_555
C11 C10 1_555 1_555
C12 C11 1_555 1_555
H5 C12 1_555 1_555
C13 C12 1_555 1_555
H6 C13 1_555 1_555
C14 C13 1_555 1_555
H7 C14 1_555 1_555
C15 C14 1_555 1_555
H8 C15 1_555 1_555
C16 C11 1_555 1_555
H9 C16 1_555 1_555
C17 C9 1_555 1_555
C18 C17 1_555 1_555
C19 C20 1_555 1_555
C20 H10 1_555 1_555
C21 C20 1_555 1_555
H11 C21 1_555 1_555
C22 C21 1_555 1_555
H12 C22 1_555 1_555
C23 C22 1_555 1_555
H13 C23 1_555 1_555
C24 C17 1_555 1_555
C25 C7 1_555 1_555
C26 C25 1_555 1_555
C27 H14 1_555 1_555
H15 C27 1_555 1_555
H16 C27 1_555 1_555
N1 C1 1_555 1_555
H17 N1 1_555 1_555
N2 C18 1_555 1_555
H18 N2 1_555 1_555
O1 C10 1_555 1_555
O2 C26 1_555 1_555
O3 C26 1_555 1_555
C5 C6 1_555 1_555
C8 N1 1_555 1_555
C15 C16 1_555 1_555
C18 C25 1_555 1_555
C19 C24 1_555 1_555
C19 N2 1_555 1_555
C23 C24 1_555 1_555
C27 O3 1_555 1_555

#END
