
#######################################################################
#
#                 Cambridge Crystallographic Data Centre
#                                CCDC 
#
#######################################################################
#
# If this CIF has been generated from an entry in the Cambridge 
# Structural Database, then it will include bibliographic, chemical, 
# crystal, experimental, refinement or atomic coordinate data resulting 
# from the CCDC's data processing and validation procedures.
#
#######################################################################

data_ZIQHEO
_chemical_formula_moiety         'C23 H19 N1'
_chemical_name_systematic        N-Methyl-N,3-diphenylnaphthalen-1-amine
_symmetry_cell_setting           monoclinic
_symmetry_space_group_name_H-M   'P 21/c'
_symmetry_Int_Tables_number      14
_space_group_name_Hall           '-P 2ybc'
loop_
_symmetry_equiv_pos_site_id
_symmetry_equiv_pos_as_xyz
1 x,y,z
2 -x,1/2+y,1/2-z
3 -x,-y,-z
4 x,1/2-y,1/2+z
_cell_length_a                   13.7669(9)
_cell_length_b                   10.8990(7)
_cell_length_c                   11.5442(8)
_cell_angle_alpha                90
_cell_angle_beta                 103.559(2)
_cell_angle_gamma                90
_cell_volume                     1683.88
_exptl_crystal_colour            yellow
_exptl_crystal_description       polyhedron
_cell_formula_units_Z            4
loop_
_atom_site_label
_atom_site_type_symbol
_atom_site_fract_x
_atom_site_fract_y
_atom_site_fract_z
N1 N 0.74772(11) 0.78985(14) 0.01333(13)
C1 C 0.69215(16) 0.74294(18) -0.10038(16)
H1 H 0.6675 0.6604 -0.0895
H2 H 0.7359 0.7395 -0.1562
H3 H 0.6354 0.7972 -0.1324
C2 C 0.72104(13) 0.90838(16) 0.04968(15)
C3 C 0.65046(13) 0.91799(16) 0.11446(15)
H4 H 0.6193 0.8455 0.1339
C4 C 0.62194(12) 1.03334(16) 0.15399(15)
C5 C 0.66716(13) 1.13695(16) 0.12391(16)
H5 H 0.6492 1.2145 0.1501
C6 C 0.73972(13) 1.13170(16) 0.05503(16)
C7 C 0.78341(14) 1.23914(18) 0.01978(18)
H6 H 0.7651 1.3172 0.0444
C8 C 0.85132(15) 1.2318(2) -0.04902(19)
H7 H 0.8786 1.3047 -0.0736
C9 C 0.88116(15) 1.1169(2) -0.0838(2)
H8 H 0.9294 1.1127 -0.1305
C10 C 0.84137(14) 1.0112(2) -0.05108(18)
H9 H 0.8627 0.9342 -0.0747
C11 C 0.76865(13) 1.01526(17) 0.01762(15)
C12 C 0.54546(13) 1.03777(16) 0.22588(15)
C13 C 0.46128(13) 0.96254(17) 0.19815(16)
H10 H 0.4531 0.9073 0.1329
C14 C 0.38951(14) 0.96711(18) 0.26421(17)
H11 H 0.3323 0.9158 0.2435
C15 C 0.40074(16) 1.04602(19) 0.36018(18)
H12 H 0.3514 1.0491 0.4055
C16 C 0.48431(16) 1.12038(19) 0.38985(17)
H13 H 0.4927 1.1741 0.4563
C17 C 0.55588(14) 1.11705(17) 0.32325(15)
H14 H 0.6126 1.1692 0.3439
C18 C 0.82816(13) 0.72691(16) 0.08279(15)
C19 C 0.88020(13) 0.77402(17) 0.19256(16)
H15 H 0.8610 0.8509 0.2189
C20 C 0.95882(15) 0.71060(19) 0.26302(19)
H16 H 0.9932 0.7449 0.3370
C21 C 0.98867(16) 0.5984(2) 0.2284(2)
H17 H 1.0425 0.5547 0.2778
C22 C 0.93834(16) 0.55139(19) 0.1202(2)
H18 H 0.9584 0.4744 0.0949
C23 C 0.85902(15) 0.61339(17) 0.04687(18)
H19 H 0.8258 0.5789 -0.0274
H20? H 0.6917 0.8044 -0.1625
H21? H 0.6233 0.7252 -0.0959
H22? H 0.7238 0.6675 -0.1197
loop_
_geom_bond_atom_site_label_1
_geom_bond_atom_site_label_2
_geom_bond_site_symmetry_1
_geom_bond_site_symmetry_2
N1 C1 1_555 1_555
C1 H1 1_555 1_555
H2 C1 1_555 1_555
H3 C1 1_555 1_555
C2 N1 1_555 1_555
C3 C2 1_555 1_555
H4 C3 1_555 1_555
C4 C3 1_555 1_555
C5 C4 1_555 1_555
H5 C5 1_555 1_555
C6 C5 1_555 1_555
C7 C6 1_555 1_555
H6 C7 1_555 1_555
C8 C7 1_555 1_555
H7 C8 1_555 1_555
C9 C8 1_555 1_555
H8 C9 1_555 1_555
C10 C9 1_555 1_555
H9 C10 1_555 1_555
C11 C2 1_555 1_555
C12 C4 1_555 1_555
C13 C12 1_555 1_555
H10 C13 1_555 1_555
C14 C13 1_555 1_555
H11 C14 1_555 1_555
C15 C14 1_555 1_555
H12 C15 1_555 1_555
C16 C15 1_555 1_555
H13 C16 1_555 1_555
C17 C12 1_555 1_555
H14 C17 1_555 1_555
C18 N1 1_555 1_555
C19 C18 1_555 1_555
H15 C19 1_555 1_555
C20 C19 1_555 1_555
H16 C20 1_555 1_555
C21 C20 1_555 1_555
H17 C21 1_555 1_555
C22 C21 1_555 1_555
H18 C22 1_555 1_555
C23 C18 1_555 1_555
H19 C23 1_555 1_555
C6 C11 1_555 1_555
C10 C11 1_555 1_555
C16 C17 1_555 1_555
C22 C23 1_555 1_555

#END
