
#######################################################################
#
#                 Cambridge Crystallographic Data Centre
#                                CCDC 
#
#######################################################################
#
# If this CIF has been generated from an entry in the Cambridge 
# Structural Database, then it will include bibliographic, chemical, 
# crystal, experimental, refinement or atomic coordinate data resulting 
# from the CCDC's data processing and validation procedures.
#
#######################################################################

data_ZIQHAK
_chemical_formula_moiety         'C16 H20 O1'
_chemical_name_systematic        6-Butoxy-2,3-dimethylnaphthalene
_symmetry_cell_setting           triclinic
_symmetry_space_group_name_H-M   'P -1'
_symmetry_Int_Tables_number      2
_space_group_name_Hall           '-P 1'
loop_
_symmetry_equiv_pos_site_id
_symmetry_equiv_pos_as_xyz
1 x,y,z
2 -x,-y,-z
_cell_length_a                   6.3310(8)
_cell_length_b                   7.8410(9)
_cell_length_c                   27.381(4)
_cell_angle_alpha                84.257(11)
_cell_angle_beta                 83.444(8)
_cell_angle_gamma                88.764(8)
_cell_volume                     1343.49
_exptl_crystal_colour            colorless
_exptl_crystal_description       plate
_cell_formula_units_Z            4
loop_
_atom_site_label
_atom_site_type_symbol
_atom_site_fract_x
_atom_site_fract_y
_atom_site_fract_z
O1 O 0.5359(11) 0.9620(9) 0.3085(3)
C1 C 0.7431(16) 1.0276(15) 0.3114(3)
H1 H 0.7637 1.1380 0.2906
H2 H 0.8539 0.9457 0.2996
C2 C 0.758(2) 1.0526(16) 0.3642(4)
H3 H 0.8873 1.1206 0.3655
H4 H 0.6345 1.1228 0.3759
C3 C 0.767(5) 0.8979(19) 0.3998(5)
H5 H 0.8828 0.8219 0.3868
H6 H 0.6320 0.8355 0.4014
C4 C 0.803(5) 0.930(3) 0.4517(5)
H7 H 0.8213 0.8205 0.4714
H8 H 0.6805 0.9921 0.4668
H9 H 0.9314 0.9990 0.4507
C5 C 0.3842(15) 0.6942(11) 0.0448(4)
H10 H 0.2409 0.6464 0.0520
H11 H 0.4835 0.6057 0.0330
H12 H 0.3835 0.7911 0.0192
C6 C 0.8002(15) 0.8572(11) 0.0436(3)
H13 H 0.7358 0.9345 0.0190
H14 H 0.8279 0.7452 0.0310
H15 H 0.9342 0.9055 0.0503
C7 C 0.6267(14) 0.9401(11) 0.2210(3)
H16 H 0.7602 0.9937 0.2207
C8 C 0.4942(13) 0.9209(11) 0.2633(3)
C9 C 0.2943(14) 0.8399(13) 0.2645(4)
H17 H 0.2031 0.8233 0.2946
C10 C 0.2340(13) 0.7865(11) 0.2226(3)
H18 H 0.0979 0.7369 0.2235
C11 C 0.3702(13) 0.8031(11) 0.1778(3)
C12 C 0.3179(13) 0.7396(10) 0.1337(3)
H19 H 0.1849 0.6854 0.1342
C13 C 0.4522(13) 0.7541(10) 0.0907(3)
C14 C 0.6538(12) 0.8365(9) 0.0896(3)
C15 C 0.7076(13) 0.8911(10) 0.1321(3)
H20 H 0.8448 0.9381 0.1318
C16 C 0.5695(12) 0.8814(9) 0.1770(3)
O2 O 0.0579(10) 0.4479(11) 0.3506(3)
C17 C 0.250(2) 0.368(2) 0.3648(6)
H21 H 0.3733 0.4082 0.3411
H22 H 0.2416 0.2419 0.3654
C18 C 0.275(4) 0.418(2) 0.4155(5)
H23 H 0.4088 0.3664 0.4260
H24 H 0.1563 0.3675 0.4389
C19 C 0.278(5) 0.608(2) 0.4196(7)
H25 H 0.3933 0.6590 0.3953
H26 H 0.1422 0.6588 0.4102
C20 C 0.311(6) 0.660(3) 0.4696(9)
H27 H 0.3067 0.7849 0.4687
H28 H 0.4487 0.6163 0.4786
H29 H 0.1973 0.6112 0.4941
C21 C -0.1558(15) 0.3558(11) 0.0763(3)
H30 H -0.1702 0.2385 0.0678
H31 H -0.0530 0.4175 0.0517
H32 H -0.2941 0.4146 0.0768
C22 C 0.2554(14) 0.2010(11) 0.0951(3)
H33 H 0.3812 0.1455 0.1077
H34 H 0.3000 0.2935 0.0695
H35 H 0.1744 0.1165 0.0811
C23 C 0.1303(14) 0.3527(12) 0.2681(3)
H36 H 0.2604 0.2982 0.2751
C24 C 0.0104(13) 0.4336(13) 0.3035(3)
C25 C -0.1896(14) 0.5075(13) 0.2940(4)
H37 H -0.2747 0.5604 0.3192
C26 C -0.2597(13) 0.5033(11) 0.2493(3)
H38 H -0.3927 0.5546 0.2433
C27 C -0.1353(12) 0.4224(10) 0.2113(3)
C28 C -0.2031(13) 0.4196(11) 0.1635(3)
H39 H -0.3382 0.4669 0.1575
C29 C -0.0796(12) 0.3509(9) 0.1263(3)
C30 C 0.1212(12) 0.2723(10) 0.1358(3)
C31 C 0.1830(13) 0.2721(10) 0.1815(3)
H40 H 0.3139 0.2174 0.1878
C32 C 0.0617(12) 0.3497(11) 0.2209(3)
C33? C 0.282(3) 0.425(5) 0.3544(10)
H41? H 0.3641 0.4838 0.3247
H42? H 0.3191 0.3017 0.3559
C34? C 0.342(5) 0.496(6) 0.3993(11)
H43? H 0.3539 0.6220 0.3915
H44? H 0.4859 0.4520 0.4046
C35? C 0.205(10) 0.465(8) 0.4473(13)
H45? H 0.0828 0.5461 0.4472
H46? H 0.2879 0.4902 0.4742
C36? C 0.12(4) 0.285(15) 0.458(7)
H47? H 0.0072 0.2813 0.4858
H48? H 0.2365 0.2067 0.4672
H49? H 0.0650 0.2495 0.4290
loop_
_geom_bond_atom_site_label_1
_geom_bond_atom_site_label_2
_geom_bond_site_symmetry_1
_geom_bond_site_symmetry_2
O1 C1 1_555 1_555
C1 H1 1_555 1_555
H2 C1 1_555 1_555
C2 C1 1_555 1_555
H3 C2 1_555 1_555
H4 C2 1_555 1_555
C3 C2 1_555 1_555
H5 C3 1_555 1_555
H6 C3 1_555 1_555
C4 C3 1_555 1_555
H7 C4 1_555 1_555
H8 C4 1_555 1_555
H9 C4 1_555 1_555
C5 H10 1_555 1_555
H11 C5 1_555 1_555
H12 C5 1_555 1_555
C6 H13 1_555 1_555
H14 C6 1_555 1_555
H15 C6 1_555 1_555
C7 H16 1_555 1_555
C8 O1 1_555 1_555
C9 C8 1_555 1_555
H17 C9 1_555 1_555
C10 C9 1_555 1_555
H18 C10 1_555 1_555
C11 C10 1_555 1_555
C12 C11 1_555 1_555
H19 C12 1_555 1_555
C13 C5 1_555 1_555
C14 C6 1_555 1_555
C15 C14 1_555 1_555
H20 C15 1_555 1_555
C16 C7 1_555 1_555
O2 C17 1_555 1_555
C17 H21 1_555 1_555
H22 C17 1_555 1_555
C18 C17 1_555 1_555
H23 C18 1_555 1_555
H24 C18 1_555 1_555
C19 C18 1_555 1_555
H25 C19 1_555 1_555
H26 C19 1_555 1_555
C20 C19 1_555 1_555
H27 C20 1_555 1_555
H28 C20 1_555 1_555
H29 C20 1_555 1_555
C21 H30 1_555 1_555
H31 C21 1_555 1_555
H32 C21 1_555 1_555
C22 H33 1_555 1_555
H34 C22 1_555 1_555
H35 C22 1_555 1_555
C23 H36 1_555 1_555
C24 O2 1_555 1_555
C25 C24 1_555 1_555
H37 C25 1_555 1_555
C26 C25 1_555 1_555
H38 C26 1_555 1_555
C27 C26 1_555 1_555
C28 C27 1_555 1_555
H39 C28 1_555 1_555
C29 C21 1_555 1_555
C30 C22 1_555 1_555
C31 C30 1_555 1_555
H40 C31 1_555 1_555
C32 C23 1_555 1_555
C7 C8 1_555 1_555
C11 C16 1_555 1_555
C12 C13 1_555 1_555
C13 C14 1_555 1_555
C15 C16 1_555 1_555
C23 C24 1_555 1_555
C27 C32 1_555 1_555
C28 C29 1_555 1_555
C29 C30 1_555 1_555
C31 C32 1_555 1_555

#END
