
#######################################################################
#
#                 Cambridge Crystallographic Data Centre
#                                CCDC 
#
#######################################################################
#
# If this CIF has been generated from an entry in the Cambridge 
# Structural Database, then it will include bibliographic, chemical, 
# crystal, experimental, refinement or atomic coordinate data resulting 
# from the CCDC's data processing and validation procedures.
#
#######################################################################

data_ZIQPEW
_chemical_formula_moiety         'C15 H19 O6 P1'
_chemical_name_systematic        
'(S,R)-Diethyl (hydroxy(5-oxo-2,5-dihydrofuran-2-yl)phenylmethyl)phosphonate'
_symmetry_cell_setting           orthorhombic
_symmetry_space_group_name_H-M   'P 21 21 21'
_symmetry_Int_Tables_number      19
_space_group_name_Hall           'P 2ac 2ab'
loop_
_symmetry_equiv_pos_site_id
_symmetry_equiv_pos_as_xyz
1 x,y,z
2 1/2-x,-y,1/2+z
3 1/2+x,1/2-y,-z
4 -x,1/2+y,1/2-z
_cell_length_a                   9.1629(9)
_cell_length_b                   11.1467(11)
_cell_length_c                   15.2847(15)
_cell_angle_alpha                90
_cell_angle_beta                 90
_cell_angle_gamma                90
_cell_volume                     1561.12
_exptl_crystal_colour            colorless
_exptl_crystal_description       block
_cell_formula_units_Z            4
loop_
_atom_site_label
_atom_site_type_symbol
_atom_site_fract_x
_atom_site_fract_y
_atom_site_fract_z
P1 P 0.97098(4) 0.38104(3) 0.85287(2)
O1 O 0.94428(9) 0.25277(8) 0.60587(6)
O2 O 0.90028(10) 0.32913(9) 0.93846(6)
O3 O 1.04114(11) 0.17008(8) 0.79033(6)
H1 H 1.0309 0.1138 0.7543
O4 O 0.90935(11) 0.49788(8) 0.82595(7)
O5 O 1.13938(10) 0.37884(9) 0.87122(6)
O6 O 1.03929(12) 0.16738(10) 0.48613(6)
C1 C 0.78826(13) 0.23088(12) 0.76459(8)
C2 C 0.99683(13) 0.32402(11) 0.67851(8)
H2 H 0.9555 0.4069 0.6743
C3 C 0.74279(15) 0.13248(12) 0.81440(9)
H3 H 0.8121 0.0887 0.8479
C4 C 1.15860(15) 0.32884(13) 0.66454(9)
H4 H 1.2262 0.3670 0.7026
C5 C 0.68472(14) 0.29457(13) 0.71660(9)
H5 H 0.7135 0.3625 0.6833
C6 C 0.94977(13) 0.26654(11) 0.76637(8)
C7 C 1.19375(14) 0.27190(13) 0.59105(9)
H6 H 1.2893 0.2641 0.5676
C8 C 1.05893(14) 0.22302(12) 0.55225(8)
C9 C 0.59619(16) 0.09810(13) 0.81526(10)
H7 H 0.5661 0.0316 0.8497
C10 C 0.53904(15) 0.25862(15) 0.71746(9)
H8 H 0.4693 0.3021 0.6842
C11 C 0.74763(15) 0.35511(14) 0.96105(9)
H9 H 0.6925 0.2791 0.9664
H10 H 0.7023 0.4035 0.9140
C12 C 0.49439(15) 0.16061(15) 0.76602(9)
H11 H 0.3950 0.1364 0.7656
C13 C 1.36926(16) 0.44833(15) 0.92598(11)
H12 H 1.3866 0.3704 0.9537
H13 H 1.4185 0.5113 0.9596
H14 H 1.4077 0.4471 0.8662
C14 C 0.74090(17) 0.42182(16) 1.04492(10)
H15 H 0.7903 0.3755 1.0907
H16 H 0.6387 0.4344 1.0614
H17 H 0.7893 0.4997 1.0381
C15 C 1.20782(16) 0.47320(13) 0.92360(10)
H18 H 1.1673 0.4730 0.9837
H19 H 1.1891 0.5527 0.8971
loop_
_geom_bond_atom_site_label_1
_geom_bond_atom_site_label_2
_geom_bond_site_symmetry_1
_geom_bond_site_symmetry_2
P1 O2 1_555 1_555
O1 C2 1_555 1_555
O2 C11 1_555 1_555
O3 H1 1_555 1_555
O4 P1 1_555 1_555
O5 P1 1_555 1_555
O6 C8 1_555 1_555
C1 C3 1_555 1_555
C2 H2 1_555 1_555
C3 H3 1_555 1_555
C4 C2 1_555 1_555
H4 C4 1_555 1_555
C5 C1 1_555 1_555
H5 C5 1_555 1_555
C6 P1 1_555 1_555
C7 C4 1_555 1_555
H6 C7 1_555 1_555
C8 O1 1_555 1_555
C9 C3 1_555 1_555
H7 C9 1_555 1_555
C10 C5 1_555 1_555
H8 C10 1_555 1_555
C11 H9 1_555 1_555
H10 C11 1_555 1_555
C12 C9 1_555 1_555
H11 C12 1_555 1_555
C13 H12 1_555 1_555
H13 C13 1_555 1_555
H14 C13 1_555 1_555
C14 C11 1_555 1_555
H15 C14 1_555 1_555
H16 C14 1_555 1_555
H17 C14 1_555 1_555
C15 O5 1_555 1_555
H18 C15 1_555 1_555
H19 C15 1_555 1_555
O3 C6 1_555 1_555
C1 C6 1_555 1_555
C2 C6 1_555 1_555
C7 C8 1_555 1_555
C10 C12 1_555 1_555
C13 C15 1_555 1_555

#END
