
#######################################################################
#
#                 Cambridge Crystallographic Data Centre
#                                CCDC 
#
#######################################################################
#
# If this CIF has been generated from an entry in the Cambridge 
# Structural Database, then it will include bibliographic, chemical, 
# crystal, experimental, refinement or atomic coordinate data resulting 
# from the CCDC's data processing and validation procedures.
#
#######################################################################

data_ZIQQIB
_chemical_formula_moiety         'C34 H24 Cl1 N1 O1'
_chemical_name_systematic        
4-Benzyl-6-(4-chlorophenyl)-5a-phenyl-5a,6-dihydronaphtho[3,2,1-cd]indol-5(4H)-one
_symmetry_cell_setting           triclinic
_symmetry_space_group_name_H-M   'P -1'
_symmetry_Int_Tables_number      2
_space_group_name_Hall           '-P 1'
loop_
_symmetry_equiv_pos_site_id
_symmetry_equiv_pos_as_xyz
1 x,y,z
2 -x,-y,-z
_cell_length_a                   15.2528(16)
_cell_length_b                   16.0355(18)
_cell_length_c                   16.5633(17)
_cell_angle_alpha                78.442(2)
_cell_angle_beta                 89.009(2)
_cell_angle_gamma                77.567(2)
_cell_volume                     3874.51
_cell_formula_units_Z            6
loop_
_atom_site_label
_atom_site_type_symbol
_atom_site_fract_x
_atom_site_fract_y
_atom_site_fract_z
C1 C 0.4208(2) 1.2084(2) 0.0874(2)
C2 C 0.3574(2) 1.2190(2) 0.1460(2)
H1 H 0.3354 1.2737 0.1582
C3 C 0.3266(2) 1.1479(2) 0.18662(19)
H2 H 0.2840 1.1550 0.2269
C4 C 0.3574(2) 1.0654(2) 0.16918(19)
C5 C 0.4233(2) 1.0574(2) 0.11052(19)
H3 H 0.4462 1.0028 0.0983
C6 C 0.4559(2) 1.1280(2) 0.06980(19)
H4 H 0.5006 1.1212 0.0313
C7 C 0.3160(2) 0.9912(2) 0.21296(18)
H5 H 0.2579 1.0175 0.2329
C8 C 0.2980(2) 0.9311(2) 0.15773(19)
C9 C 0.2152(2) 0.9489(2) 0.1186(2)
H6 H 0.1714 0.9963 0.1271
C10 C 0.1964(3) 0.8963(3) 0.0662(3)
H7 H 0.1403 0.9088 0.0399
C11 C 0.2606(3) 0.8266(3) 0.0538(3)
H8 H 0.2477 0.7920 0.0187
C12 C 0.3442(3) 0.8066(2) 0.0921(2)
H9 H 0.3874 0.7591 0.0830
C13 C 0.3632(3) 0.8591(2) 0.1452(2)
C14 C 0.4504(3) 0.8407(2) 0.1892(2)
C15 C 0.5328(3) 0.7953(2) 0.1672(2)
H10 H 0.5357 0.7658 0.1240
C16 C 0.6099(3) 0.7944(3) 0.2097(3)
H11 H 0.6638 0.7622 0.1949
C17 C 0.6118(3) 0.8384(3) 0.2732(3)
H12 H 0.6652 0.8386 0.2994
C18 C 0.5290(3) 0.8823(2) 0.2952(2)
C19 C 0.4512(2) 0.8794(2) 0.2564(2)
C20 C 0.3712(2) 0.9322(2) 0.28896(19)
C21 C 0.3109(2) 0.8785(2) 0.34203(19)
C22 C 0.3344(3) 0.7891(2) 0.3615(2)
H13 H 0.3889 0.7601 0.3447
C23 C 0.2768(3) 0.7418(3) 0.4064(2)
H14 H 0.2940 0.6813 0.4202
C24 C 0.1965(3) 0.7823(3) 0.4302(2)
H15 H 0.1575 0.7499 0.4582
C25 C 0.1730(3) 0.8715(3) 0.4126(2)
H16 H 0.1185 0.8999 0.4301
C26 C 0.2302(3) 0.9198(2) 0.3689(2)
H17 H 0.2139 0.9804 0.3577
C27 C 0.4156(3) 0.9784(2) 0.3461(2)
C28 C 0.5699(2) 0.9646(2) 0.4014(2)
H18 H 0.6267 0.9227 0.4045
H19 H 0.5474 0.9611 0.4568
C29 C 0.5867(2) 1.0547(3) 0.3708(2)
C30 C 0.6282(3) 1.0918(3) 0.4225(2)
H20 H 0.6460 1.0602 0.4752
C31 C 0.6442(4) 1.1739(4) 0.3991(3)
H21 H 0.6713 1.1978 0.4360
C32 C 0.6205(3) 1.2204(3) 0.3213(3)
H22 H 0.6319 1.2759 0.3045
C33 C 0.5796(3) 1.1841(3) 0.2686(3)
H23 H 0.5626 1.2152 0.2156
C34 C 0.5634(3) 1.1018(3) 0.2935(2)
H24 H 0.5360 1.0778 0.2567
Cl1 Cl 0.45904(7) 1.29941(6) 0.03610(6)
N1 N 0.5065(2) 0.93975(19) 0.35042(17)
O1 O 0.37934(16) 1.03296(15) 0.38293(14)
C35 C 0.8293(3) 0.8381(2) 0.4667(2)
C36 C 0.8363(2) 0.7649(2) 0.4344(2)
H25 H 0.8736 0.7562 0.3904
C37 C 0.7873(2) 0.7044(2) 0.4681(2)
H26 H 0.7923 0.6545 0.4463
C38 C 0.7308(2) 0.7152(2) 0.5334(2)
C39 C 0.7247(2) 0.7913(2) 0.5635(2)
H27 H 0.6866 0.8013 0.6067
C40 C 0.7738(3) 0.8521(2) 0.5308(2)
H28 H 0.7693 0.9023 0.5520
C41 C 0.6765(2) 0.6501(2) 0.57378(19)
H29 H 0.6229 0.6824 0.5963
C42 C 0.6452(2) 0.6002(2) 0.5138(2)
C43 C 0.5613(2) 0.6326(2) 0.4747(2)
H30 H 0.5254 0.6840 0.4849
C44 C 0.5310(3) 0.5889(3) 0.4207(2)
H31 H 0.4750 0.6115 0.3946
C45 C 0.5822(3) 0.5128(3) 0.4051(2)
H32 H 0.5605 0.4836 0.3694
C46 C 0.6665(2) 0.4792(2) 0.4428(2)
H33 H 0.7017 0.4280 0.4316
C47 C 0.6985(2) 0.5228(2) 0.49765(19)
C48 C 0.7879(2) 0.4900(2) 0.5392(2)
C49 C 0.8635(2) 0.4386(2) 0.5107(2)
H34 H 0.8587 0.4153 0.4642
C50 C 0.9454(2) 0.4225(2) 0.5520(2)
H35 H 0.9945 0.3862 0.5338
C51 C 0.9572(2) 0.4585(2) 0.6197(2)
H36 H 1.0132 0.4489 0.6456
C52 C 0.8818(2) 0.5094(2) 0.6466(2)
C53 C 0.7994(2) 0.5204(2) 0.6091(2)
C54 C 0.7289(2) 0.5805(2) 0.6463(2)
C55 C 0.6640(2) 0.5347(2) 0.7009(2)
C56 C 0.6693(2) 0.4464(2) 0.71250(19)
H37 H 0.7141 0.4128 0.6865
C57 C 0.6099(3) 0.4059(3) 0.7617(2)
H38 H 0.6148 0.3461 0.7682
C58 C 0.5437(3) 0.4545(3) 0.8009(2)
H39 H 0.5036 0.4279 0.8340
C59 C 0.5377(3) 0.5420(3) 0.7906(2)
H40 H 0.4931 0.5750 0.8172
C60 C 0.5970(2) 0.5828(2) 0.7410(2)
H41 H 0.5916 0.6426 0.7347
C61 C 0.7870(2) 0.6120(2) 0.7051(2)
C62 C 0.9460(2) 0.5703(2) 0.75777(19)
H42 H 0.9819 0.5128 0.7805
H43 H 0.9208 0.5960 0.8036
C63 C 1.0065(2) 0.6255(2) 0.7117(2)
C64 C 1.0924(3) 0.6143(2) 0.7436(2)
H44 H 1.1122 0.5720 0.7906
C65 C 1.1484(3) 0.6663(3) 0.7053(3)
H45 H 1.2068 0.6570 0.7259
C66 C 1.1203(3) 0.7314(3) 0.6378(3)
H46 H 1.1583 0.7671 0.6139
C67 C 1.0348(3) 0.7427(2) 0.6062(2)
H47 H 1.0151 0.7853 0.5595
C68 C 0.9783(2) 0.6907(2) 0.6438(2)
H48 H 0.9200 0.6999 0.6228
Cl2 Cl 0.89212(7) 0.91511(7) 0.42540(6)
N2 N 0.87248(18) 0.56072(18) 0.70715(16)
O2 O 0.76323(14) 0.66746(15) 0.74578(14)
C69 C -0.0061(3) 0.1189(2) 1.1793(2)
C70 C -0.0182(2) 0.0955(2) 1.1059(2)
H49 H -0.0576 0.0596 1.1013
C71 C 0.0296(2) 0.1263(2) 1.0385(2)
H50 H 0.0212 0.1116 0.9881
C72 C 0.0893(2) 0.1784(2) 1.0447(2)
C73 C 0.0985(2) 0.2015(2) 1.1203(2)
H51 H 0.1372 0.2379 1.1253
C74 C 0.0515(3) 0.1714(2) 1.1877(2)
H52 H 0.0589 0.1866 1.2381
C75 C 0.1447(2) 0.2128(2) 0.97262(19)
H53 H 0.1978 0.2254 0.9961
C76 C 0.1779(2) 0.1467(2) 0.9177(2)
C77 C 0.2586(2) 0.0877(2) 0.9385(2)
H54 H 0.2921 0.0901 0.9841
C78 C 0.2902(3) 0.0250(3) 0.8920(3)
H55 H 0.3442 -0.0148 0.9070
C79 C 0.2425(3) 0.0214(3) 0.8241(3)
H56 H 0.2639 -0.0207 0.7931
C80 C 0.1626(3) 0.0802(3) 0.8019(2)
H57 H 0.1307 0.0779 0.7554
C81 C 0.1287(2) 0.1435(2) 0.8480(2)
C82 C 0.0411(2) 0.2043(2) 0.8285(2)
C83 C -0.0310(3) 0.1947(2) 0.7832(2)
H58 H -0.0238 0.1491 0.7551
C84 C -0.1126(3) 0.2520(3) 0.7800(2)
H59 H -0.1589 0.2454 0.7476
C85 C -0.1286(2) 0.3194(2) 0.8230(2)
H60 H -0.1849 0.3561 0.8224
C86 C -0.0566(2) 0.3291(2) 0.8668(2)
C87 C 0.0266(2) 0.2754(2) 0.86488(19)
C88 C 0.0931(2) 0.2988(2) 0.91727(19)
C89 C 0.1595(2) 0.3471(2) 0.8682(2)
C90 C 0.2192(2) 0.3797(2) 0.9092(2)
H61 H 0.2184 0.3720 0.9663
C91 C 0.2799(2) 0.4234(2) 0.8662(3)
H62 H 0.3197 0.4443 0.8946
C92 C 0.2819(2) 0.4360(2) 0.7820(3)
H63 H 0.3224 0.4658 0.7531
C93 C 0.2232(2) 0.4041(2) 0.7405(2)
H64 H 0.2245 0.4119 0.6834
C94 C 0.1622(2) 0.3605(2) 0.7832(2)
H65 H 0.1224 0.3399 0.7543
C95 C 0.0309(2) 0.3639(2) 0.9625(2)
C96 C -0.1283(2) 0.4479(2) 0.9427(2)
H66 H -0.1575 0.4843 0.8924
H67 H -0.1063 0.4854 0.9732
C97 C -0.1966(2) 0.4071(2) 0.9935(2)
C98 C -0.2872(3) 0.4386(2) 0.9746(2)
H68 H -0.3053 0.4837 0.9294
C99 C -0.3509(3) 0.4040(3) 1.0220(3)
H69 H -0.4117 0.4263 1.0093
C100 C -0.3244(3) 0.3368(3) 1.0878(3)
H70 H -0.3675 0.3133 1.1196
C101 C -0.2351(3) 0.3035(3) 1.1073(2)
H71 H -0.2172 0.2578 1.1521
C102 C -0.1718(2) 0.3393(2) 1.0594(2)
H72 H -0.1111 0.3167 1.0722
Cl3 Cl -0.06534(9) 0.08082(8) 1.26501(6)
N3 N -0.05259(18) 0.38512(17) 0.92148(17)
O3 O 0.05004(14) 0.39383(14) 1.01935(14)
loop_
_geom_bond_atom_site_label_1
_geom_bond_atom_site_label_2
_geom_bond_site_symmetry_1
_geom_bond_site_symmetry_2
C1 C2 1_555 1_555
C2 H1 1_555 1_555
C3 C2 1_555 1_555
H2 C3 1_555 1_555
C4 C3 1_555 1_555
C5 C4 1_555 1_555
H3 C5 1_555 1_555
C6 C1 1_555 1_555
H4 C6 1_555 1_555
C7 C4 1_555 1_555
H5 C7 1_555 1_555
C8 C7 1_555 1_555
C9 C8 1_555 1_555
H6 C9 1_555 1_555
C10 C9 1_555 1_555
H7 C10 1_555 1_555
C11 C10 1_555 1_555
H8 C11 1_555 1_555
C12 C11 1_555 1_555
H9 C12 1_555 1_555
C13 C8 1_555 1_555
C14 C13 1_555 1_555
C15 C14 1_555 1_555
H10 C15 1_555 1_555
C16 C15 1_555 1_555
H11 C16 1_555 1_555
C17 C16 1_555 1_555
H12 C17 1_555 1_555
C18 C17 1_555 1_555
C19 C14 1_555 1_555
C20 C7 1_555 1_555
C21 C20 1_555 1_555
C22 C21 1_555 1_555
H13 C22 1_555 1_555
C23 C22 1_555 1_555
H14 C23 1_555 1_555
C24 C23 1_555 1_555
H15 C24 1_555 1_555
C25 C24 1_555 1_555
H16 C25 1_555 1_555
C26 C21 1_555 1_555
H17 C26 1_555 1_555
C27 C20 1_555 1_555
C28 H18 1_555 1_555
H19 C28 1_555 1_555
C29 C28 1_555 1_555
C30 C29 1_555 1_555
H20 C30 1_555 1_555
C31 C30 1_555 1_555
H21 C31 1_555 1_555
C32 C31 1_555 1_555
H22 C32 1_555 1_555
C33 C32 1_555 1_555
H23 C33 1_555 1_555
C34 C29 1_555 1_555
H24 C34 1_555 1_555
Cl1 C1 1_555 1_555
N1 C18 1_555 1_555
O1 C27 1_555 1_555
C35 C36 1_555 1_555
C36 H25 1_555 1_555
C37 C36 1_555 1_555
H26 C37 1_555 1_555
C38 C37 1_555 1_555
C39 C38 1_555 1_555
H27 C39 1_555 1_555
C40 C35 1_555 1_555
H28 C40 1_555 1_555
C41 C38 1_555 1_555
H29 C41 1_555 1_555
C42 C41 1_555 1_555
C43 C42 1_555 1_555
H30 C43 1_555 1_555
C44 C43 1_555 1_555
H31 C44 1_555 1_555
C45 C44 1_555 1_555
H32 C45 1_555 1_555
C46 C45 1_555 1_555
H33 C46 1_555 1_555
C47 C42 1_555 1_555
C48 C47 1_555 1_555
C49 C48 1_555 1_555
H34 C49 1_555 1_555
C50 C49 1_555 1_555
H35 C50 1_555 1_555
C51 C50 1_555 1_555
H36 C51 1_555 1_555
C52 C51 1_555 1_555
C53 C48 1_555 1_555
C54 C41 1_555 1_555
C55 C54 1_555 1_555
C56 C55 1_555 1_555
H37 C56 1_555 1_555
C57 C56 1_555 1_555
H38 C57 1_555 1_555
C58 C57 1_555 1_555
H39 C58 1_555 1_555
C59 C58 1_555 1_555
H40 C59 1_555 1_555
C60 C55 1_555 1_555
H41 C60 1_555 1_555
C61 C54 1_555 1_555
C62 H42 1_555 1_555
H43 C62 1_555 1_555
C63 C62 1_555 1_555
C64 C63 1_555 1_555
H44 C64 1_555 1_555
C65 C64 1_555 1_555
H45 C65 1_555 1_555
C66 C65 1_555 1_555
H46 C66 1_555 1_555
C67 C66 1_555 1_555
H47 C67 1_555 1_555
C68 C63 1_555 1_555
H48 C68 1_555 1_555
Cl2 C35 1_555 1_555
N2 C52 1_555 1_555
O2 C61 1_555 1_555
C69 C70 1_555 1_555
C70 H49 1_555 1_555
C71 C70 1_555 1_555
H50 C71 1_555 1_555
C72 C71 1_555 1_555
C73 C72 1_555 1_555
H51 C73 1_555 1_555
C74 C69 1_555 1_555
H52 C74 1_555 1_555
C75 C72 1_555 1_555
H53 C75 1_555 1_555
C76 C75 1_555 1_555
C77 C76 1_555 1_555
H54 C77 1_555 1_555
C78 C77 1_555 1_555
H55 C78 1_555 1_555
C79 C78 1_555 1_555
H56 C79 1_555 1_555
C80 C79 1_555 1_555
H57 C80 1_555 1_555
C81 C76 1_555 1_555
C82 C81 1_555 1_555
C83 C82 1_555 1_555
H58 C83 1_555 1_555
C84 C83 1_555 1_555
H59 C84 1_555 1_555
C85 C84 1_555 1_555
H60 C85 1_555 1_555
C86 C85 1_555 1_555
C87 C82 1_555 1_555
C88 C75 1_555 1_555
C89 C88 1_555 1_555
C90 C89 1_555 1_555
H61 C90 1_555 1_555
C91 C90 1_555 1_555
H62 C91 1_555 1_555
C92 C91 1_555 1_555
H63 C92 1_555 1_555
C93 C92 1_555 1_555
H64 C93 1_555 1_555
C94 C89 1_555 1_555
H65 C94 1_555 1_555
C95 C88 1_555 1_555
C96 H66 1_555 1_555
H67 C96 1_555 1_555
C97 C96 1_555 1_555
C98 C97 1_555 1_555
H68 C98 1_555 1_555
C99 C98 1_555 1_555
H69 C99 1_555 1_555
C100 C99 1_555 1_555
H70 C100 1_555 1_555
C101 C100 1_555 1_555
H71 C101 1_555 1_555
C102 C97 1_555 1_555
H72 C102 1_555 1_555
Cl3 C69 1_555 1_555
N3 C86 1_555 1_555
O3 C95 1_555 1_555
C5 C6 1_555 1_555
C12 C13 1_555 1_555
C18 C19 1_555 1_555
C19 C20 1_555 1_555
C25 C26 1_555 1_555
C27 N1 1_555 1_555
C28 N1 1_555 1_555
C33 C34 1_555 1_555
C39 C40 1_555 1_555
C46 C47 1_555 1_555
C52 C53 1_555 1_555
C53 C54 1_555 1_555
C59 C60 1_555 1_555
C61 N2 1_555 1_555
C62 N2 1_555 1_555
C67 C68 1_555 1_555
C73 C74 1_555 1_555
C80 C81 1_555 1_555
C86 C87 1_555 1_555
C87 C88 1_555 1_555
C93 C94 1_555 1_555
C95 N3 1_555 1_555
C96 N3 1_555 1_555
C101 C102 1_555 1_555

#END
