
#######################################################################
#
#                 Cambridge Crystallographic Data Centre
#                                CCDC 
#
#######################################################################
#
# If this CIF has been generated from an entry in the Cambridge 
# Structural Database, then it will include bibliographic, chemical, 
# crystal, experimental, refinement or atomic coordinate data resulting 
# from the CCDC's data processing and validation procedures.
#
#######################################################################

data_ZIQRAU
_chemical_formula_moiety         'C19 H19 N3 O6 S1'
_chemical_name_systematic        
7-Methoxy-5-(2-nitrophenyl)-6-(phenylsulfonyl)tetrahydro-1H,5H-pyrazolo[1,2-a]pyrazol-1-one
_symmetry_cell_setting           monoclinic
_symmetry_space_group_name_H-M   'P 21/n'
_symmetry_Int_Tables_number      14
_space_group_name_Hall           '-P 2yn'
loop_
_symmetry_equiv_pos_site_id
_symmetry_equiv_pos_as_xyz
1 x,y,z
2 1/2-x,1/2+y,1/2-z
3 -x,-y,-z
4 1/2+x,1/2-y,1/2+z
_cell_length_a                   12.217(2)
_cell_length_b                   13.022(3)
_cell_length_c                   12.722(3)
_cell_angle_alpha                90
_cell_angle_beta                 113.19(3)
_cell_angle_gamma                90
_cell_volume                     1860.41
_exptl_crystal_colour            yellow
_exptl_crystal_description       plate
_cell_formula_units_Z            4
loop_
_atom_site_label
_atom_site_type_symbol
_atom_site_fract_x
_atom_site_fract_y
_atom_site_fract_z
S1 S 0.33425(4) 0.23556(3) 0.86168(3)
O1 O 0.22546(12) 0.19624(10) 0.77658(11)
O2 O 0.43686(12) 0.16936(10) 0.90207(12)
O3 O 0.54655(15) 0.31319(14) 0.74094(15)
O4 O 0.40685(16) 0.31298(15) 0.47189(14)
O5 O 0.39191(13) 0.53926(11) 0.94444(12)
O6 O 0.28668(16) 0.65611(11) 0.98042(13)
N1 N 0.35074(13) 0.35745(12) 0.61827(12)
N2 N 0.24231(12) 0.39041(11) 0.62845(12)
N3 N 0.29605(15) 0.57565(12) 0.93512(12)
C1 C 0.30677(15) 0.27493(12) 0.98147(14)
C2 C 0.40173(17) 0.30945(14) 1.07762(15)
H1 H 0.4786 0.3176 1.0767
C3 C 0.3816(2) 0.33171(17) 1.17489(17)
H2 H 0.4451 0.3561 1.2415
C4 C 0.2699(2) 0.31863(19) 1.1756(2)
H3 H 0.2576 0.3328 1.2433
C5 C 0.1760(2) 0.28525(19) 1.0793(2)
H4 H 0.0992 0.2775 1.0806
C6 C 0.19371(17) 0.26307(15) 0.98075(17)
H5 H 0.1296 0.2402 0.9138
C7 C 0.38123(15) 0.34819(14) 0.81014(15)
H6 H 0.4496 0.3811 0.8735
C8 C 0.28640(14) 0.43062(13) 0.74551(13)
H7 H 0.3281 0.4972 0.7478
C9 C 0.18379(15) 0.45006(12) 0.78184(14)
C10 C 0.18679(16) 0.51926(13) 0.86754(14)
C11 C 0.08961(19) 0.53860(15) 0.89463(16)
H8 H 0.0954 0.5865 0.9529
C12 C -0.01585(18) 0.48734(16) 0.83584(18)
H9 H -0.0831 0.4987 0.8542
C13 C -0.02278(17) 0.41940(15) 0.74999(18)
H10 H -0.0954 0.3844 0.7090
C14 C 0.07496(15) 0.40170(13) 0.72290(15)
H11 H 0.0676 0.3555 0.6627
C15 C 0.19391(17) 0.46286(15) 0.53256(15)
H12 H 0.2349 0.5301 0.5513
H13 H 0.1072 0.4732 0.5094
C16 C 0.22130(18) 0.40636(16) 0.44038(15)
H14 H 0.1578 0.3564 0.3991
H15 H 0.2302 0.4551 0.3846
C17 C 0.33738(19) 0.35247(16) 0.50754(17)
C18 C 0.4254(2) 0.3011(2) 0.7161(2)
H16 H 0.4042 0.2266 0.7047
C19 C 0.5875(4) 0.4162(3) 0.7519(3)
H17 H 0.5533 0.4502 0.6772
H18 H 0.6746 0.4167 0.7796
H19 H 0.5629 0.4527 0.8063
C20? C 0.4480(6) 0.3448(7) 0.7371(6)
H20? H 0.4869 0.2762 0.7438
O7? O 0.5337(5) 0.4220(5) 0.7669(5)
C21? C 0.6340(9) 0.3965(8) 0.7410(9)
H21? H 0.6089 0.3909 0.6580
H22? H 0.6674 0.3308 0.7768
H23? H 0.6946 0.4503 0.7704
loop_
_geom_bond_atom_site_label_1
_geom_bond_atom_site_label_2
_geom_bond_site_symmetry_1
_geom_bond_site_symmetry_2
S1 O1 1_555 1_555
O2 S1 1_555 1_555
O3 C18 1_555 1_555
O4 C17 1_555 1_555
O5 N3 1_555 1_555
O6 N3 1_555 1_555
N1 N2 1_555 1_555
N2 C8 1_555 1_555
N3 C10 1_555 1_555
C1 S1 1_555 1_555
C2 C1 1_555 1_555
H1 C2 1_555 1_555
C3 C2 1_555 1_555
H2 C3 1_555 1_555
C4 C3 1_555 1_555
H3 C4 1_555 1_555
C5 C4 1_555 1_555
H4 C5 1_555 1_555
C6 C1 1_555 1_555
H5 C6 1_555 1_555
C7 S1 1_555 1_555
H6 C7 1_555 1_555
C8 C7 1_555 1_555
H7 C8 1_555 1_555
C9 C8 1_555 1_555
C10 C9 1_555 1_555
C11 C10 1_555 1_555
H8 C11 1_555 1_555
C12 C11 1_555 1_555
H9 C12 1_555 1_555
C13 C12 1_555 1_555
H10 C13 1_555 1_555
C14 C9 1_555 1_555
H11 C14 1_555 1_555
C15 N2 1_555 1_555
H12 C15 1_555 1_555
H13 C15 1_555 1_555
C16 C15 1_555 1_555
H14 C16 1_555 1_555
H15 C16 1_555 1_555
C17 N1 1_555 1_555
C18 N1 1_555 1_555
H16 C18 1_555 1_555
C19 O3 1_555 1_555
H17 C19 1_555 1_555
H18 C19 1_555 1_555
H19 C19 1_555 1_555
C5 C6 1_555 1_555
C7 C18 1_555 1_555
C13 C14 1_555 1_555
C16 C17 1_555 1_555

#END
