
#######################################################################
#
#                 Cambridge Crystallographic Data Centre
#                                CCDC 
#
#######################################################################
#
# If this CIF has been generated from an entry in the Cambridge 
# Structural Database, then it will include bibliographic, chemical, 
# crystal, experimental, refinement or atomic coordinate data resulting 
# from the CCDC's data processing and validation procedures.
#
#######################################################################

data_ZIRGOZ
_chemical_formula_moiety         'C35 H30 O5'
_chemical_name_systematic        
"(-)-(1'S,1''S,11R)-methyl 11-[1,3-dioxo-1-phenyl-3-(1-phenylethoxy)propan-2-yl]-9,10-dihydro-9,10-ethanoanthracene-11-carboxylate"
_symmetry_cell_setting           orthorhombic
_symmetry_space_group_name_H-M   'P 21 21 21'
_symmetry_Int_Tables_number      19
_space_group_name_Hall           'P 2ac 2ab'
loop_
_symmetry_equiv_pos_site_id
_symmetry_equiv_pos_as_xyz
1 x,y,z
2 1/2-x,-y,1/2+z
3 -x,1/2+y,1/2-z
4 1/2+x,1/2-y,-z
_cell_length_a                   11.3620(4)
_cell_length_b                   15.3627(7)
_cell_length_c                   16.0741(7)
_cell_angle_alpha                90
_cell_angle_beta                 90
_cell_angle_gamma                90
_cell_volume                     2805.75
_exptl_crystal_colour            'light colorless'
_exptl_crystal_description       block
_cell_formula_units_Z            4
loop_
_atom_site_label
_atom_site_type_symbol
_atom_site_fract_x
_atom_site_fract_y
_atom_site_fract_z
O1 O 0.41302(15) 0.66802(12) 0.63947(11)
O2 O 0.56817(16) 0.83957(12) 0.66320(11)
O3 O 0.58520(18) 0.93311(13) 0.76903(12)
O4 O 0.60403(16) 0.63931(13) 0.65646(13)
O5 O 0.35765(17) 0.82431(14) 0.76766(17)
C1 C 0.5137(2) 0.67013(18) 0.68179(18)
C2 C 0.2741(2) 0.69087(17) 0.80534(15)
C3 C 0.8038(2) 0.81039(17) 0.81671(17)
C4 C 0.5789(2) 0.86008(18) 0.74387(16)
C5 C 0.5915(2) 0.77752(16) 0.79547(15)
C6 C 0.3727(2) 0.74766(19) 0.77857(17)
C7 C 0.1686(2) 0.7309(2) 0.82737(16)
H1 H 0.161685 0.791150 0.824225
C8 C 0.72123(19) 0.74220(17) 0.78239(16)
H2 H 0.737533 0.729549 0.723751
C9 C 0.7898(2) 0.82615(18) 0.90153(17)
C10 C 0.4974(2) 0.70955(17) 0.76812(17)
H3 H 0.503171 0.661139 0.807609
C11 C 0.7332(2) 0.66214(17) 0.83607(17)
C12 C 0.7561(2) 0.57785(19) 0.8096(2)
H4 H 0.765421 0.565986 0.753268
C13 C 0.8894(2) 0.85465(18) 0.77247(19)
H5 H 0.898204 0.845272 0.715653
C14 C 0.7177(2) 0.67933(19) 0.92067(19)
C15 C 0.2817(2) 0.60133(19) 0.80859(17)
H6 H 0.351311 0.573846 0.793306
C16 C 0.5776(2) 0.79734(19) 0.88980(16)
H7 H 0.560531 0.858691 0.897368
H8 H 0.512057 0.764216 0.911932
C17 C 0.4407(2) 0.68929(19) 0.49171(17)
C18 C 0.6914(2) 0.77358(19) 0.93807(17)
H9 H 0.682702 0.784482 0.997830
C19 C 0.9621(3) 0.9134(2) 0.8138(2)
H10 H 1.019628 0.943393 0.784323
C20 C 0.0742(2) 0.6816(3) 0.85385(19)
H11 H 0.004281 0.708549 0.869308
C21 C 0.1869(3) 0.5523(2) 0.8343(2)
H12 H 0.192498 0.491921 0.836154
C22 C 0.4162(2) 0.62329(19) 0.55874(18)
H13 H 0.479742 0.580145 0.559327
C23 C 0.5459(3) 0.6868(2) 0.4489(2)
H14 H 0.600189 0.643302 0.460821
C24 C 0.7651(3) 0.5119(2) 0.8672(3)
H15 H 0.780474 0.455358 0.849598
C25 C 0.5421(3) 0.9101(2) 0.60693(19)
H16 H 0.527533 0.887219 0.552325
H17 H 0.607760 0.949374 0.604927
H18 H 0.473585 0.940722 0.626100
C26 C 0.0839(3) 0.5930(3) 0.8573(2)
H19 H 0.020259 0.559920 0.875285
C27 C 0.8635(3) 0.8839(2) 0.9414(2)
H20 H 0.855214 0.893635 0.998223
C28 C 0.3626(3) 0.7540(2) 0.47246(19)
H21 H 0.290792 0.756481 0.500149
C29 C 0.7276(3) 0.6132(2) 0.9780(2)
H22 H 0.718390 0.624544 1.034422
C30 C 0.4932(4) 0.8124(3) 0.3714(2)
H23 H 0.511010 0.854145 0.331453
C31 C 0.9495(3) 0.9272(2) 0.8971(3)
H24 H 0.999219 0.966000 0.924269
C32 C 0.3882(4) 0.8157(2) 0.4128(2)
H25 H 0.334191 0.859425 0.400768
C33 C 0.5719(3) 0.7479(3) 0.3887(2)
H26 H 0.642877 0.744991 0.359955
C34 C 0.2992(3) 0.5765(2) 0.5523(2)
H27 H 0.288631 0.539742 0.600008
H28 H 0.298045 0.541585 0.502723
H29 H 0.236630 0.618437 0.549969
C35 C 0.7516(3) 0.5290(2) 0.9504(3)
H30 H 0.758489 0.484027 0.988856
loop_
_geom_bond_atom_site_label_1
_geom_bond_atom_site_label_2
_geom_bond_site_symmetry_1
_geom_bond_site_symmetry_2
O1 C1 1_555 1_555
O2 C4 1_555 1_555
O3 C4 1_555 1_555
O4 C1 1_555 1_555
O5 C6 1_555 1_555
C1 C10 1_555 1_555
C2 C6 1_555 1_555
C3 C8 1_555 1_555
C4 C5 1_555 1_555
C5 C8 1_555 1_555
C6 C10 1_555 1_555
C7 C2 1_555 1_555
H1 C7 1_555 1_555
C8 H2 1_555 1_555
C9 C3 1_555 1_555
C10 C5 1_555 1_555
H3 C10 1_555 1_555
C11 C8 1_555 1_555
C12 C11 1_555 1_555
H4 C12 1_555 1_555
C13 C3 1_555 1_555
H5 C13 1_555 1_555
C14 C11 1_555 1_555
C15 C2 1_555 1_555
H6 C15 1_555 1_555
C16 C5 1_555 1_555
H7 C16 1_555 1_555
H8 C16 1_555 1_555
C17 C22 1_555 1_555
C18 C9 1_555 1_555
H9 C18 1_555 1_555
C19 C13 1_555 1_555
H10 C19 1_555 1_555
C20 C7 1_555 1_555
H11 C20 1_555 1_555
C21 C15 1_555 1_555
H12 C21 1_555 1_555
C22 O1 1_555 1_555
H13 C22 1_555 1_555
C23 C17 1_555 1_555
H14 C23 1_555 1_555
C24 C12 1_555 1_555
H15 C24 1_555 1_555
C25 O2 1_555 1_555
H16 C25 1_555 1_555
H17 C25 1_555 1_555
H18 C25 1_555 1_555
C26 C20 1_555 1_555
H19 C26 1_555 1_555
C27 C9 1_555 1_555
H20 C27 1_555 1_555
C28 C17 1_555 1_555
H21 C28 1_555 1_555
C29 C14 1_555 1_555
H22 C29 1_555 1_555
C30 H23 1_555 1_555
C31 C19 1_555 1_555
H24 C31 1_555 1_555
C32 C28 1_555 1_555
H25 C32 1_555 1_555
C33 C23 1_555 1_555
H26 C33 1_555 1_555
C34 C22 1_555 1_555
H27 C34 1_555 1_555
H28 C34 1_555 1_555
H29 C34 1_555 1_555
C35 C24 1_555 1_555
H30 C35 1_555 1_555
C14 C18 1_555 1_555
C16 C18 1_555 1_555
C21 C26 1_555 1_555
C27 C31 1_555 1_555
C29 C35 1_555 1_555
C30 C32 1_555 1_555
C30 C33 1_555 1_555

#END
