
#######################################################################
#
#                 Cambridge Crystallographic Data Centre
#                                CCDC 
#
#######################################################################
#
# If this CIF has been generated from an entry in the Cambridge 
# Structural Database, then it will include bibliographic, chemical, 
# crystal, experimental, refinement or atomic coordinate data resulting 
# from the CCDC's data processing and validation procedures.
#
#######################################################################

data_ZIRGUF
_chemical_formula_moiety         'C35 H30 O5'
_chemical_name_systematic        
"(-)-(1'S,1''R,11R)-methyl 11-[1,3-dioxo-1-phenyl-3-(1-phenylethoxy)propan-2-yl]-9,10-dihydro-9,10-ethanoanthracene-11-carboxylate"
_symmetry_cell_setting           monoclinic
_symmetry_space_group_name_H-M   'P 21'
_symmetry_Int_Tables_number      4
_space_group_name_Hall           'P 2yb'
loop_
_symmetry_equiv_pos_site_id
_symmetry_equiv_pos_as_xyz
1 x,y,z
2 -x,1/2+y,-z
_cell_length_a                   13.391(17)
_cell_length_b                   10.239(13)
_cell_length_c                   21.40(3)
_cell_angle_alpha                90
_cell_angle_beta                 106.18(3)
_cell_angle_gamma                90
_cell_volume                     2817.94
_exptl_crystal_colour            colorless
_exptl_crystal_description       block
_cell_formula_units_Z            4
_exptl_crystal_recrystallization_method dichloromethane/hexane
loop_
_atom_site_label
_atom_site_type_symbol
_atom_site_fract_x
_atom_site_fract_y
_atom_site_fract_z
O1 O 0.9052(3) 0.1086(4) 0.4429(2)
O2 O 0.8724(4) 0.0106(4) 0.5620(2)
O3 O 0.8292(3) -0.0871(5) 0.4131(2)
O4 O 0.7791(3) 0.1337(5) 0.6091(2)
O5 O 0.7548(4) 0.3060(5) 0.4833(3)
C1 C 0.6499(5) -0.1434(6) 0.5595(3)
C2 C 0.7858(6) 0.0734(7) 0.5634(4)
C3 C 0.4974(6) -0.0743(6) 0.4472(3)
C4 C 0.8254(6) 0.0240(8) 0.4298(3)
C5 C 0.6800(5) -0.1087(5) 0.4985(3)
H1 H 0.741039 -0.157841 0.495038
C6 C 0.6999(5) 0.0438(6) 0.5012(3)
C7 C 0.5611(5) -0.0811(6) 0.5636(3)
C8 C 0.5861(5) -0.1355(6) 0.4423(3)
C9 C 0.7015(5) -0.2311(6) 0.6056(4)
H2 H 0.762430 -0.270492 0.602390
C10 C 0.5156(5) 0.0083(6) 0.5070(3)
H3 H 0.451100 0.048983 0.510439
C11 C 0.5232(5) -0.1071(6) 0.6155(4)
H4 H 0.464267 -0.064232 0.619792
C12 C 0.5982(4) 0.1117(5) 0.5040(3)
H5 H 0.611733 0.167374 0.542132
H6 H 0.572268 0.165952 0.465763
C13 C 0.5733(6) -0.1974(7) 0.6614(4)
H7 H 0.546591 -0.215991 0.696163
C14 C 0.7296(5) 0.0896(6) 0.4400(3)
H8 H 0.671663 0.063517 0.402884
C15 C 0.5844(6) -0.2159(7) 0.3907(4)
H9 H 0.644462 -0.258127 0.387884
C16 C 0.6615(6) -0.2603(7) 0.6572(4)
H10 H 0.693978 -0.321584 0.688340
C17 C 1.0223(6) 0.0539(9) 0.3792(5)
C18 C 0.7327(5) 0.2965(9) 0.3705(5)
C19 C 0.7381(5) 0.2395(7) 0.4352(5)
C20 C 0.4899(8) -0.2330(8) 0.3423(4)
H11 H 0.487357 -0.287481 0.307140
C21 C 0.4025(7) -0.1710(8) 0.3463(4)
H12 H 0.340529 -0.182123 0.313721
C22 C 0.7369(10) 0.4123(18) 0.2570(7)
H13 H 0.741103 0.450490 0.218423
C23 C 1.0064(5) 0.0578(7) 0.4446(4)
H14 H 1.014015 -0.030386 0.463160
C24 C 0.4055(6) -0.0900(7) 0.3996(4)
H15 H 0.345704 -0.047390 0.402702
C25 C 0.9598(5) 0.0226(8) 0.6201(3)
H16 H 1.016638 -0.029715 0.615175
H17 H 0.939287 -0.006962 0.657257
H18 H 0.981073 0.112311 0.626075
C26 C 0.7048(7) 0.2269(9) 0.3143(6)
H19 H 0.685733 0.139760 0.315204
C27 C 0.9814(6) 0.1471(10) 0.3332(5)
H20 H 0.937440 0.210388 0.342100
C28 C 1.0844(5) 0.1482(7) 0.4887(3)
H21 H 1.079363 0.233318 0.469265
H22 H 1.153252 0.114360 0.494621
H23 H 1.069937 0.154142 0.530075
C29 C 0.7612(5) 0.4254(10) 0.3698(5)
H24 H 0.779394 0.472688 0.408463
C30 C 0.7046(8) 0.2847(14) 0.2553(6)
H25 H 0.683429 0.238742 0.216309
C31 C 0.7630(8) 0.4858(14) 0.3119(7)
H26 H 0.781334 0.573214 0.310875
C32 C 1.0869(6) -0.0423(9) 0.3639(5)
H27 H 1.114139 -0.110080 0.392446
C33 C 1.0036(8) 0.1495(14) 0.2742(6)
H28 H 0.974077 0.213093 0.243577
C34 C 1.0691(12) 0.058(2) 0.2607(7)
H29 H 1.085851 0.059487 0.221374
C35 C 1.1079(10) -0.0315(16) 0.3050(8)
H30 H 1.153051 -0.092363 0.295432
O6 O 0.4266(3) -0.3754(4) 0.1786(2)
O7 O 0.3175(4) -0.4130(5) 0.0362(2)
O8 O 0.1989(3) -0.3603(5) 0.15008(19)
O9 O 0.2337(4) -0.1554(5) 0.1849(2)
O10 O 0.5373(4) -0.3596(5) 0.1190(3)
C36 C 0.2379(5) -0.2414(8) 0.1485(4)
C37 C 0.2519(7) -0.3389(7) 0.0424(3)
C38 C 0.1424(7) -0.3569(8) 0.0030(3)
C39 C 0.4626(6) -0.3200(7) 0.1328(4)
C40 C 0.1182(7) -0.4657(8) -0.0368(4)
H31 H 0.170390 -0.524931 -0.037787
C41 C 0.3993(5) -0.1992(6) 0.1068(3)
C42 C 0.0179(9) -0.4879(9) -0.0750(4)
H32 H 0.003253 -0.559304 -0.102930
C43 C 0.2812(5) -0.2247(6) 0.0905(3)
H33 H 0.247191 -0.147235 0.067137
C44 C 0.4389(5) -0.0917(7) 0.1614(3)
H34 H 0.423263 -0.115218 0.202033
C45 C 0.4254(5) -0.1513(7) 0.0446(3)
H35 H 0.361846 -0.141959 0.009505
H36 H 0.469107 -0.215129 0.031371
C46 C 0.5538(6) -0.0738(7) 0.1709(4)
C47 C 0.6315(7) -0.0931(7) 0.2276(4)
H37 H 0.615936 -0.122857 0.264882
C48 C 0.3909(7) 0.0386(9) 0.1350(5)
C49 C 0.4828(7) -0.0181(11) 0.0577(4)
H38 H 0.501128 0.013802 0.019140
C50 C -0.0589(8) -0.4047(12) -0.0713(5)
H39 H -0.126897 -0.419534 -0.096125
C51 C 0.5770(7) -0.0338(8) 0.1147(4)
C52 C 0.7551(7) -0.0268(10) 0.1734(6)
H40 H 0.823889 -0.010500 0.174388
C53 C 0.3196(16) 0.271(2) 0.0813(11)
H41 H 0.294932 0.351972 0.063510
C54 C 0.4136(7) 0.0756(9) 0.0793(6)
C55 C 0.6776(9) -0.0095(10) 0.1163(4)
H42 H 0.693870 0.018626 0.079026
C56 C 0.3338(7) 0.1152(11) 0.1642(5)
H43 H 0.319138 0.088562 0.202253
C57 C 0.7322(7) -0.0677(9) 0.2284(4)
H44 H 0.785261 -0.078335 0.266748
C58 C 0.0649(8) -0.2757(9) 0.0055(5)
H45 H 0.079354 -0.202681 0.032400
C59 C 0.4802(6) -0.4951(8) 0.2072(4)
H46 H 0.482411 -0.555090 0.173131
H47 H 0.443389 -0.534290 0.235020
H48 H 0.549753 -0.474333 0.232165
C60 C 0.3763(9) 0.1977(13) 0.0498(7)
H49 H 0.389533 0.225787 0.011550
C61 C -0.0360(8) -0.2991(11) -0.0311(6)
H50 H -0.088751 -0.242256 -0.028385
C62 C 0.2978(15) 0.235(2) 0.1351(10)
H51 H 0.258514 0.289852 0.153892
C63 C 0.0332(10) -0.4034(18) 0.1684(7)
C64 C 0.0047(12) -0.5231(17) 0.1356(8)
H52 H 0.056054 -0.582765 0.133480
C65 C 0.1423(10) -0.3741(14) 0.2005(7)
H53 H 0.147857 -0.293357 0.225790
C66 C 0.1978(15) -0.4851(18) 0.2437(8)
H54 H 0.196515 -0.561945 0.217732
H55 H 0.163416 -0.502873 0.276560
H56 H 0.268662 -0.460556 0.263984
C67 C -0.0439(11) -0.3273(18) 0.1740(9)
H57 H -0.025949 -0.250907 0.197940
C68 C -0.0984(13) -0.553(2) 0.1067(8)
H58 H -0.115725 -0.631300 0.084497
C69 C -0.1731(14) -0.470(2) 0.1103(8)
H59 H -0.242182 -0.488958 0.088840
C70 C -0.1461(15) -0.351(3) 0.1480(11)
H60 H -0.196681 -0.293634 0.153793
C71? C 0.0459(17) -0.399(4) 0.1798(16)
C72? C -0.0157(18) -0.419(4) 0.1151(12)
H61? H 0.019493 -0.439878 0.084510
C73? C 0.1593(16) -0.406(2) 0.2052(11)
H62? H 0.183029 -0.347116 0.242359
C74? C 0.203(3) -0.546(3) 0.2248(19)
H63? H 0.163161 -0.608454 0.194375
H64? H 0.197720 -0.566136 0.267679
H65? H 0.274305 -0.549770 0.224572
C75? C -0.0066(19) -0.324(3) 0.2130(14)
H66? H 0.030879 -0.281452 0.250567
C76? C -0.1244(19) -0.412(4) 0.0925(15)
H67? H -0.159468 -0.438495 0.050510
C77? C -0.175(2) -0.367(5) 0.1320(19)
H68? H -0.246995 -0.371002 0.122047
C78? C -0.111(2) -0.310(3) 0.1931(16)
H69? H -0.143585 -0.262518 0.218949
loop_
_geom_bond_atom_site_label_1
_geom_bond_atom_site_label_2
_geom_bond_site_symmetry_1
_geom_bond_site_symmetry_2
O1 C4 1_555 1_555
O2 C2 1_555 1_555
O3 C4 1_555 1_555
O4 C2 1_555 1_555
O5 C19 1_555 1_555
C1 C5 1_555 1_555
C2 C6 1_555 1_555
C3 C8 1_555 1_555
C4 C14 1_555 1_555
C5 H1 1_555 1_555
C6 C5 1_555 1_555
C7 C1 1_555 1_555
C8 C5 1_555 1_555
C9 C1 1_555 1_555
H2 C9 1_555 1_555
C10 C3 1_555 1_555
H3 C10 1_555 1_555
C11 C7 1_555 1_555
H4 C11 1_555 1_555
C12 C6 1_555 1_555
H5 C12 1_555 1_555
H6 C12 1_555 1_555
C13 C11 1_555 1_555
H7 C13 1_555 1_555
C14 C6 1_555 1_555
H8 C14 1_555 1_555
C15 C8 1_555 1_555
H9 C15 1_555 1_555
C16 C9 1_555 1_555
H10 C16 1_555 1_555
C17 C23 1_555 1_555
C18 C19 1_555 1_555
C19 C14 1_555 1_555
C20 C15 1_555 1_555
H11 C20 1_555 1_555
C21 C20 1_555 1_555
H12 C21 1_555 1_555
C22 H13 1_555 1_555
C23 O1 1_555 1_555
H14 C23 1_555 1_555
C24 C3 1_555 1_555
H15 C24 1_555 1_555
C25 O2 1_555 1_555
H16 C25 1_555 1_555
H17 C25 1_555 1_555
H18 C25 1_555 1_555
C26 C18 1_555 1_555
H19 C26 1_555 1_555
C27 C17 1_555 1_555
H20 C27 1_555 1_555
C28 C23 1_555 1_555
H21 C28 1_555 1_555
H22 C28 1_555 1_555
H23 C28 1_555 1_555
C29 C18 1_555 1_555
H24 C29 1_555 1_555
C30 C22 1_555 1_555
H25 C30 1_555 1_555
C31 C22 1_555 1_555
H26 C31 1_555 1_555
C32 C17 1_555 1_555
H27 C32 1_555 1_555
C33 C27 1_555 1_555
H28 C33 1_555 1_555
C34 C33 1_555 1_555
H29 C34 1_555 1_555
C35 C32 1_555 1_555
H30 C35 1_555 1_555
O6 C39 1_555 1_555
O7 C37 1_555 1_555
O8 C36 1_555 1_555
O9 C36 1_555 1_555
O10 C39 1_555 1_555
C36 C43 1_555 1_555
C37 C38 1_555 1_555
C38 C40 1_555 1_555
C39 C41 1_555 1_555
C40 H31 1_555 1_555
C41 C43 1_555 1_555
C42 C40 1_555 1_555
H32 C42 1_555 1_555
C43 C37 1_555 1_555
H33 C43 1_555 1_555
C44 C41 1_555 1_555
H34 C44 1_555 1_555
C45 C41 1_555 1_555
H35 C45 1_555 1_555
H36 C45 1_555 1_555
C46 C44 1_555 1_555
C47 C46 1_555 1_555
H37 C47 1_555 1_555
C48 C44 1_555 1_555
C49 C45 1_555 1_555
H38 C49 1_555 1_555
C50 C42 1_555 1_555
H39 C50 1_555 1_555
C51 C46 1_555 1_555
C52 H40 1_555 1_555
C53 H41 1_555 1_555
C54 C48 1_555 1_555
C55 C51 1_555 1_555
H42 C55 1_555 1_555
C56 C48 1_555 1_555
H43 C56 1_555 1_555
C57 C47 1_555 1_555
H44 C57 1_555 1_555
C58 C38 1_555 1_555
H45 C58 1_555 1_555
C59 O6 1_555 1_555
H46 C59 1_555 1_555
H47 C59 1_555 1_555
H48 C59 1_555 1_555
C60 C53 1_555 1_555
H49 C60 1_555 1_555
C61 C50 1_555 1_555
H50 C61 1_555 1_555
C62 C53 1_555 1_555
H51 C62 1_555 1_555
C63 C64 1_555 1_555
C64 H52 1_555 1_555
C65 O8 1_555 1_555
H53 C65 1_555 1_555
C66 C65 1_555 1_555
H54 C66 1_555 1_555
H55 C66 1_555 1_555
H56 C66 1_555 1_555
C67 C63 1_555 1_555
H57 C67 1_555 1_555
C68 C64 1_555 1_555
H58 C68 1_555 1_555
C69 C68 1_555 1_555
H59 C69 1_555 1_555
C70 C67 1_555 1_555
H60 C70 1_555 1_555
C7 C10 1_555 1_555
C10 C12 1_555 1_555
C13 C16 1_555 1_555
C21 C24 1_555 1_555
C26 C30 1_555 1_555
C29 C31 1_555 1_555
C34 C35 1_555 1_555
C49 C51 1_555 1_555
C49 C54 1_555 1_555
C52 C55 1_555 1_555
C52 C57 1_555 1_555
C54 C60 1_555 1_555
C56 C62 1_555 1_555
C58 C61 1_555 1_555
C63 C65 1_555 1_555
C69 C70 1_555 1_555

#END
