
#######################################################################
#
#                 Cambridge Crystallographic Data Centre
#                                CCDC 
#
#######################################################################
#
# If this CIF has been generated from an entry in the Cambridge 
# Structural Database, then it will include bibliographic, chemical, 
# crystal, experimental, refinement or atomic coordinate data resulting 
# from the CCDC's data processing and validation procedures.
#
#######################################################################

data_ZIRJER
_chemical_formula_moiety         'C24 H28 O7 S1'
_chemical_name_systematic        
'(7-Isopropoxy-4-methoxy-2-oxo-2H-thiochromen-8-yl)methyl 4,7,7-trimethyl-3-oxo-2-oxabicyclo[2.2.1]heptane-1-carboxylate'
_symmetry_cell_setting           orthorhombic
_symmetry_space_group_name_H-M   'P 21 21 21'
_symmetry_Int_Tables_number      19
_space_group_name_Hall           'P 2ac 2ab'
loop_
_symmetry_equiv_pos_site_id
_symmetry_equiv_pos_as_xyz
1 x,y,z
2 1/2-x,-y,1/2+z
3 -x,1/2+y,1/2-z
4 1/2+x,1/2-y,-z
_cell_length_a                   11.100(4)
_cell_length_b                   14.229(5)
_cell_length_c                   28.669(10)
_cell_angle_alpha                90
_cell_angle_beta                 90
_cell_angle_gamma                90
_cell_volume                     4528.04
_exptl_crystal_colour            colorless
_exptl_crystal_description       column
_cell_formula_units_Z            8
loop_
_atom_site_label
_atom_site_type_symbol
_atom_site_fract_x
_atom_site_fract_y
_atom_site_fract_z
S1 S 0.05869(6) 0.69283(5) 0.33181(2)
C1 C -0.0633(3) 0.7026(2) 0.29263(9)
C2 C -0.0600(2) 0.7699(2) 0.25599(9)
H1 H -0.1280 0.7753 0.2372
C3 C 0.0342(2) 0.8264(2) 0.24647(8)
C4 C 0.1472(2) 0.82934(18) 0.27225(8)
C5 C 0.2369(2) 0.8916(2) 0.25952(9)
H2 H 0.2242 0.9311 0.2341
C6 C 0.3446(2) 0.8971(2) 0.28327(9)
H3 H 0.4033 0.9398 0.2740
C7 C 0.3647(2) 0.83902(19) 0.32085(8)
C8 C 0.2767(2) 0.77568(17) 0.33549(8)
C9 C 0.1670(2) 0.77159(18) 0.31136(8)
C10 C 0.3042(2) 0.71164(18) 0.37571(8)
H4 H 0.2444 0.6620 0.3772
H5 H 0.3825 0.6828 0.3712
O1 O -0.14709(19) 0.64885(18) 0.30021(8)
O2 O 0.03501(16) 0.88860(14) 0.21097(6)
C11 C -0.0657(3) 0.8916(2) 0.17932(10)
H6 H -0.0705 0.8333 0.1625
H7 H -0.0551 0.9424 0.1577
H8 H -0.1387 0.9010 0.1967
O3 O 0.46792(16) 0.83637(13) 0.34617(6)
C12 C 0.5686(2) 0.8971(2) 0.33477(10)
H9 H 0.5768 0.9020 0.3008
C13 C 0.6775(3) 0.8486(3) 0.35491(15)
H10 H 0.6662 0.8395 0.3878
H11 H 0.7476 0.8867 0.3498
H12 H 0.6880 0.7888 0.3400
C14 C 0.5496(3) 0.9908(2) 0.35485(12)
H13 H 0.4748 1.0160 0.3437
H14 H 0.6145 1.0314 0.3458
H15 H 0.5471 0.9862 0.3882
C15 C 0.3819(2) 0.80487(18) 0.49221(8)
O4 O 0.50190(15) 0.82307(13) 0.51081(6)
C16 C 0.4879(2) 0.88943(19) 0.54477(9)
C17 C 0.3565(2) 0.9119(2) 0.54792(9)
C18 C 0.3015(3) 0.8206(2) 0.56843(8)
H16 H 0.3436 0.8018 0.5966
H17 H 0.2168 0.8291 0.5756
C19 C 0.3181(3) 0.74743(19) 0.52986(8)
H18 H 0.3675 0.6953 0.5403
H19 H 0.2412 0.7237 0.5189
C20 C 0.3209(2) 0.90242(18) 0.49560(8)
O5 O 0.57233(18) 0.91907(15) 0.56610(7)
C21 C 0.3288(3) 1.0008(2) 0.57412(11)
H20 H 0.3522 0.9937 0.6062
H21 H 0.2439 1.0134 0.5725
H22 H 0.3724 1.0521 0.5605
C22 C 0.1863(3) 0.9043(2) 0.48661(10)
H23 H 0.1548 0.9649 0.4949
H24 H 0.1477 0.8568 0.5051
H25 H 0.1712 0.8926 0.4542
C23 C 0.3820(3) 0.9753(2) 0.46438(10)
H26 H 0.3585 0.9651 0.4326
H27 H 0.4678 0.9695 0.4671
H28 H 0.3579 1.0372 0.4739
C24 C 0.4000(2) 0.75509(18) 0.44650(8)
O6 O 0.48766(17) 0.71006(15) 0.43724(6)
O7 O 0.30377(14) 0.76429(12) 0.41917(5)
S2 S 0.54228(6) 0.26471(5) 0.32005(2)
C25 C 0.4195(2) 0.2500(2) 0.28145(10)
C26 C 0.4257(2) 0.1810(2) 0.24547(9)
H29 H 0.3572 0.1723 0.2273
C27 C 0.5221(2) 0.12774(19) 0.23564(8)
C28 C 0.6358(2) 0.12896(18) 0.26104(8)
C29 C 0.7291(2) 0.0694(2) 0.24836(9)
H30 H 0.7182 0.0291 0.2232
C30 C 0.8369(2) 0.0678(2) 0.27177(9)
H31 H 0.8979 0.0273 0.2623
C31 C 0.8544(2) 0.12663(19) 0.30931(9)
C32 C 0.7633(2) 0.18704(18) 0.32414(8)
C33 C 0.6541(2) 0.18810(18) 0.29986(8)
C34 C 0.7859(2) 0.24738(19) 0.36592(8)
H32 H 0.8599 0.2827 0.3618
H33 H 0.7202 0.2916 0.3700
O8 O 0.33437(19) 0.3020(2) 0.28845(9)
O9 O 0.52452(17) 0.06482(14) 0.20059(6)
C35 C 0.4210(3) 0.0566(2) 0.17018(10)
H34 H 0.3507 0.0428 0.1884
H35 H 0.4344 0.0068 0.1482
H36 H 0.4093 0.1146 0.1538
O10 O 0.95861(15) 0.13445(13) 0.33398(6)
C36 C 1.0540(2) 0.0660(2) 0.32829(10)
H37 H 1.0690 0.0551 0.2950
C37 C 1.0188(3) -0.0240(2) 0.35136(11)
H38 H 0.9987 -0.0121 0.3834
H39 H 1.0848 -0.0675 0.3499
H40 H 0.9503 -0.0503 0.3356
C38 C 1.1631(3) 0.1097(3) 0.35054(14)
H41 H 1.1864 0.1645 0.3332
H42 H 1.2282 0.0653 0.3506
H43 H 1.1445 0.1273 0.3821
C39 C 0.8852(2) 0.13710(18) 0.47599(8)
O11 O 0.99804(15) 0.14920(13) 0.50130(5)
C40 C 0.9755(2) 0.11997(19) 0.54591(9)
C41 C 0.8464(2) 0.08859(19) 0.54780(9)
C42 C 0.8472(3) -0.00258(18) 0.51884(9)
H44 H 0.7701 -0.0345 0.5208
H45 H 0.9100 -0.0449 0.5294
C43 C 0.8721(2) 0.03189(18) 0.46860(9)
H46 H 0.9453 0.0045 0.4561
H47 H 0.8053 0.0176 0.4479
C44 C 0.7897(2) 0.16087(18) 0.51332(9)
O12 O 1.05360(19) 0.12017(16) 0.57482(7)
C45 C 0.7951(3) 0.0800(2) 0.59685(10)
H48 H 0.8399 0.0338 0.6140
H49 H 0.7122 0.0613 0.5951
H50 H 0.8009 0.1396 0.6124
C46 C 0.7956(3) 0.2619(2) 0.53021(11)
H51 H 0.7449 0.2693 0.5571
H52 H 0.7686 0.3032 0.5059
H53 H 0.8772 0.2772 0.5384
C47 C 0.6608(2) 0.1371(2) 0.49910(10)
H54 H 0.6573 0.0733 0.4882
H55 H 0.6354 0.1787 0.4746
H56 H 0.6084 0.1443 0.5255
C48 C 0.8907(2) 0.20209(19) 0.43424(9)
O13 O 0.96625(19) 0.25908(15) 0.42772(7)
O14 O 0.79568(15) 0.18710(13) 0.40674(5)
loop_
_geom_bond_atom_site_label_1
_geom_bond_atom_site_label_2
_geom_bond_site_symmetry_1
_geom_bond_site_symmetry_2
S1 C1 1_555 1_555
C1 C2 1_555 1_555
C2 H1 1_555 1_555
C3 C2 1_555 1_555
C4 C3 1_555 1_555
C5 C4 1_555 1_555
H2 C5 1_555 1_555
C6 C5 1_555 1_555
H3 C6 1_555 1_555
C7 C6 1_555 1_555
C8 C7 1_555 1_555
C9 S1 1_555 1_555
C10 C8 1_555 1_555
H4 C10 1_555 1_555
H5 C10 1_555 1_555
O1 C1 1_555 1_555
O2 C3 1_555 1_555
C11 O2 1_555 1_555
H6 C11 1_555 1_555
H7 C11 1_555 1_555
H8 C11 1_555 1_555
O3 C7 1_555 1_555
C12 O3 1_555 1_555
H9 C12 1_555 1_555
C13 C12 1_555 1_555
H10 C13 1_555 1_555
H11 C13 1_555 1_555
H12 C13 1_555 1_555
C14 C12 1_555 1_555
H13 C14 1_555 1_555
H14 C14 1_555 1_555
H15 C14 1_555 1_555
C15 O4 1_555 1_555
O4 C16 1_555 1_555
C16 C17 1_555 1_555
C17 C18 1_555 1_555
C18 H16 1_555 1_555
H17 C18 1_555 1_555
C19 C15 1_555 1_555
H18 C19 1_555 1_555
H19 C19 1_555 1_555
C20 C15 1_555 1_555
O5 C16 1_555 1_555
C21 C17 1_555 1_555
H20 C21 1_555 1_555
H21 C21 1_555 1_555
H22 C21 1_555 1_555
C22 C20 1_555 1_555
H23 C22 1_555 1_555
H24 C22 1_555 1_555
H25 C22 1_555 1_555
C23 C20 1_555 1_555
H26 C23 1_555 1_555
H27 C23 1_555 1_555
H28 C23 1_555 1_555
C24 C15 1_555 1_555
O6 C24 1_555 1_555
O7 C10 1_555 1_555
S2 C25 1_555 1_555
C25 C26 1_555 1_555
C26 H29 1_555 1_555
C27 C26 1_555 1_555
C28 C27 1_555 1_555
C29 C28 1_555 1_555
H30 C29 1_555 1_555
C30 C29 1_555 1_555
H31 C30 1_555 1_555
C31 C30 1_555 1_555
C32 C31 1_555 1_555
C33 S2 1_555 1_555
C34 C32 1_555 1_555
H32 C34 1_555 1_555
H33 C34 1_555 1_555
O8 C25 1_555 1_555
O9 C27 1_555 1_555
C35 O9 1_555 1_555
H34 C35 1_555 1_555
H35 C35 1_555 1_555
H36 C35 1_555 1_555
O10 C31 1_555 1_555
C36 O10 1_555 1_555
H37 C36 1_555 1_555
C37 C36 1_555 1_555
H38 C37 1_555 1_555
H39 C37 1_555 1_555
H40 C37 1_555 1_555
C38 C36 1_555 1_555
H41 C38 1_555 1_555
H42 C38 1_555 1_555
H43 C38 1_555 1_555
C39 O11 1_555 1_555
O11 C40 1_555 1_555
C40 C41 1_555 1_555
C41 C42 1_555 1_555
C42 H44 1_555 1_555
H45 C42 1_555 1_555
C43 C39 1_555 1_555
H46 C43 1_555 1_555
H47 C43 1_555 1_555
C44 C39 1_555 1_555
O12 C40 1_555 1_555
C45 C41 1_555 1_555
H48 C45 1_555 1_555
H49 C45 1_555 1_555
H50 C45 1_555 1_555
C46 C44 1_555 1_555
H51 C46 1_555 1_555
H52 C46 1_555 1_555
H53 C46 1_555 1_555
C47 C44 1_555 1_555
H54 C47 1_555 1_555
H55 C47 1_555 1_555
H56 C47 1_555 1_555
C48 C39 1_555 1_555
O13 C48 1_555 1_555
O14 C34 1_555 1_555
C4 C9 1_555 1_555
C8 C9 1_555 1_555
C17 C20 1_555 1_555
C18 C19 1_555 1_555
C24 O7 1_555 1_555
C28 C33 1_555 1_555
C32 C33 1_555 1_555
C41 C44 1_555 1_555
C42 C43 1_555 1_555
C48 O14 1_555 1_555

#END
