
#######################################################################
#
#                 Cambridge Crystallographic Data Centre
#                                CCDC 
#
#######################################################################
#
# If this CIF has been generated from an entry in the Cambridge 
# Structural Database, then it will include bibliographic, chemical, 
# crystal, experimental, refinement or atomic coordinate data resulting 
# from the CCDC's data processing and validation procedures.
#
#######################################################################

data_ZIRKUI
_chemical_formula_moiety         'C29 H31 N3 O3 S1'
_chemical_name_systematic        
4-Methyl-N-(2-(1-((2-methylphenyl)(2-oxopyrrolidin-1-yl)methyl)-1H-indol-3-yl)ethyl)benzenesulfonamide
_symmetry_cell_setting           monoclinic
_symmetry_space_group_name_H-M   'C 2/c'
_symmetry_Int_Tables_number      15
_space_group_name_Hall           '-C 2yn'
loop_
_symmetry_equiv_pos_site_id
_symmetry_equiv_pos_as_xyz
1 x,y,z
2 -x,y,1/2-z
3 1/2+x,1/2+y,z
4 1/2-x,1/2+y,1/2-z
5 -x,-y,-z
6 x,-y,1/2+z
7 1/2-x,1/2-y,-z
8 1/2+x,1/2-y,1/2+z
_cell_length_a                   26.062(8)
_cell_length_b                   15.828(5)
_cell_length_c                   14.693(5)
_cell_angle_alpha                90
_cell_angle_beta                 120.379(7)
_cell_angle_gamma                90
_cell_volume                     5228.82
_exptl_crystal_colour            colorless
_exptl_crystal_description       block
_cell_formula_units_Z            8
loop_
_atom_site_label
_atom_site_type_symbol
_atom_site_fract_x
_atom_site_fract_y
_atom_site_fract_z
S1 S 0.56425(7) 0.23020(9) 0.49125(13)
O1 O 0.5835(2) 0.2395(3) 0.6013(4)
O2 O 0.5270(2) 0.1610(3) 0.4321(4)
O3 O 0.64619(16) -0.1604(2) 0.8146(3)
N1 N 0.6228(2) 0.2219(3) 0.4828(4)
N2 N 0.70581(16) -0.0045(3) 0.6789(3)
N3 N 0.62448(15) -0.0602(2) 0.6881(3)
C1 C 0.5264(3) 0.3232(3) 0.4268(4)
C2 C 0.5525(3) 0.4010(4) 0.4630(4)
H1 H 0.5911 0.4046 0.5200
C3 C 0.5211(3) 0.4739(4) 0.4144(5)
H2 H 0.5389 0.5260 0.4412
C4 C 0.4659(3) 0.4721(5) 0.3299(5)
C5 C 0.4404(3) 0.3946(7) 0.2946(6)
H3 H 0.4020 0.3917 0.2370
C6 C 0.4702(3) 0.3198(5) 0.3421(5)
H4 H 0.4517 0.2679 0.3161
C7 C 0.4418(7) 0.5618(8) 0.2816(9)
H5 H 0.4091 0.5764 0.2912
H6 H 0.4286 0.5610 0.2076
H7 H 0.4730 0.6028 0.3163
C8 C 0.6803(3) 0.2595(3) 0.5580(5)
H8 H 0.6804 0.2745 0.6221
H9 H 0.6861 0.3107 0.5281
C9 C 0.7313(2) 0.1976(3) 0.5844(5)
H10 H 0.7291 0.1800 0.5193
H11 H 0.7688 0.2268 0.6266
C10 C 0.7303(2) 0.1216(3) 0.6424(4)
C11 C 0.7658(2) 0.1069(3) 0.7550(4)
C12 C 0.8111(2) 0.1522(4) 0.8384(5)
H12 H 0.8237 0.2041 0.8270
C13 C 0.8365(3) 0.1181(5) 0.9375(6)
H13 H 0.8674 0.1469 0.9937
C14 C 0.8172(3) 0.0410(5) 0.9564(5)
H14 H 0.8345 0.0205 1.0250
C15 C 0.7732(2) -0.0046(4) 0.8752(4)
H15 H 0.7601 -0.0558 0.8874
C16 C 0.7489(2) 0.0282(3) 0.7742(4)
C17 C 0.6949(2) 0.0532(3) 0.6016(4)
H16 H 0.6669 0.0461 0.5305
C18 C 0.6718(2) -0.0807(3) 0.6674(4)
H17 H 0.6985 -0.1207 0.7217
C19 C 0.6496(2) -0.1224(3) 0.5606(4)
C20 C 0.6919(3) -0.1422(3) 0.5320(5)
C21 C 0.6803(7) -0.1731(7) 0.4410(10)
H18 H 0.7100 -0.1810 0.4245
C22 C 0.6201(8) -0.1941(6) 0.3686(10)
H19 H 0.6093 -0.2152 0.3022
C23 C 0.5723(3) -0.1815(4) 0.4005(5)
H20 H 0.5331 -0.1986 0.3568
C24 C 0.5905(2) -0.1440(3) 0.4963(4)
H21 H 0.5632 -0.1332 0.5180
C25 C 0.7578(3) -0.1299(5) 0.6029(7)
H22 H 0.7786 -0.1584 0.5734
H23 H 0.7700 -0.1528 0.6714
H24 H 0.7670 -0.0707 0.6091
C26 C 0.5903(2) 0.0193(3) 0.6500(4)
H25 H 0.5702 0.0233 0.5737
H26 H 0.6157 0.0682 0.6807
C27 C 0.5465(2) 0.0110(3) 0.6878(4)
H27 H 0.5374 0.0659 0.7056
H28 H 0.5098 -0.0149 0.6342
C28 C 0.5774(2) -0.0445(4) 0.7842(4)
H29 H 0.5993 -0.0108 0.8476
H30 H 0.5490 -0.0796 0.7909
C29 C 0.6180(2) -0.0963(3) 0.7656(4)
C30? C 0.4155(10) 0.5370(13) 0.2721(13)
H31? H 0.4174 0.5784 0.3215
H32? H 0.3778 0.5087 0.2406
H33? H 0.4198 0.5645 0.2181
C31? C 0.6548(11) -0.1845(9) 0.4147(15)
H34? H 0.6757 -0.1971 0.3805
C32? C 0.5952(10) -0.2029(10) 0.3626(13)
H35? H 0.5763 -0.2320 0.2989
loop_
_geom_bond_atom_site_label_1
_geom_bond_atom_site_label_2
_geom_bond_site_symmetry_1
_geom_bond_site_symmetry_2
S1 O1 1_555 1_555
O2 S1 1_555 1_555
O3 C29 1_555 1_555
N1 S1 1_555 1_555
N2 C16 1_555 1_555
N3 C18 1_555 1_555
C1 S1 1_555 1_555
C2 C1 1_555 1_555
H1 C2 1_555 1_555
C3 C2 1_555 1_555
H2 C3 1_555 1_555
C4 C3 1_555 1_555
C5 C4 1_555 1_555
H3 C5 1_555 1_555
C6 C1 1_555 1_555
H4 C6 1_555 1_555
C7 C4 1_555 1_555
H5 C7 1_555 1_555
H6 C7 1_555 1_555
H7 C7 1_555 1_555
C8 N1 1_555 1_555
H8 C8 1_555 1_555
H9 C8 1_555 1_555
C9 C8 1_555 1_555
H10 C9 1_555 1_555
H11 C9 1_555 1_555
C10 C9 1_555 1_555
C11 C10 1_555 1_555
C12 C11 1_555 1_555
H12 C12 1_555 1_555
C13 C12 1_555 1_555
H13 C13 1_555 1_555
C14 C13 1_555 1_555
H14 C14 1_555 1_555
C15 C14 1_555 1_555
H15 C15 1_555 1_555
C16 C11 1_555 1_555
C17 N2 1_555 1_555
H16 C17 1_555 1_555
C18 N2 1_555 1_555
H17 C18 1_555 1_555
C19 C18 1_555 1_555
C20 C19 1_555 1_555
C21 C20 1_555 1_555
H18 C21 1_555 1_555
C22 C21 1_555 1_555
H19 C22 1_555 1_555
C23 C22 1_555 1_555
H20 C23 1_555 1_555
C24 C19 1_555 1_555
H21 C24 1_555 1_555
C25 C20 1_555 1_555
H22 C25 1_555 1_555
H23 C25 1_555 1_555
H24 C25 1_555 1_555
C26 N3 1_555 1_555
H25 C26 1_555 1_555
H26 C26 1_555 1_555
C27 C26 1_555 1_555
H27 C27 1_555 1_555
H28 C27 1_555 1_555
C28 C27 1_555 1_555
H29 C28 1_555 1_555
H30 C28 1_555 1_555
C29 N3 1_555 1_555
C5 C6 1_555 1_555
C10 C17 1_555 1_555
C15 C16 1_555 1_555
C23 C24 1_555 1_555
C28 C29 1_555 1_555

#END
