
#######################################################################
#
#                 Cambridge Crystallographic Data Centre
#                                CCDC 
#
#######################################################################
#
# If this CIF has been generated from an entry in the Cambridge 
# Structural Database, then it will include bibliographic, chemical, 
# crystal, experimental, refinement or atomic coordinate data resulting 
# from the CCDC's data processing and validation procedures.
#
#######################################################################

data_ZIRLAQ
_chemical_formula_moiety         
'16(C23 H25 N5 O7),3(K1 1+),3(I1 1-),12(C1 D1 Cl3)'
_chemical_name_systematic        
"hexadecakis(trans-5'-methoxycinnamoyl-2',3'-isopropylideneguanosine) tri-potassium tris(iodide) deuterochloroform solvate"
_symmetry_cell_setting           orthorhombic
_symmetry_space_group_name_H-M   'P 21 21 2'
_symmetry_Int_Tables_number      18
_space_group_name_Hall           'P 2 2ab'
loop_
_symmetry_equiv_pos_site_id
_symmetry_equiv_pos_as_xyz
1 x,y,z
2 -x,-y,z
3 1/2-x,1/2+y,-z
4 1/2+x,1/2-y,-z
_cell_length_a                   29.236(9)
_cell_length_b                   29.239(9)
_cell_length_c                   25.721(8)
_cell_angle_alpha                90
_cell_angle_beta                 90
_cell_angle_gamma                90
_cell_volume                     21987.1
_exptl_crystal_colour            yellow
_exptl_crystal_description       prism
_cell_formula_units_Z            2
loop_
_atom_site_label
_atom_site_type_symbol
_atom_site_fract_x
_atom_site_fract_y
_atom_site_fract_z
O1 O 0.1140(6) 0.1207(6) 0.7099(6)
C1 C 0.1359(9) 0.1054(9) 0.6735(6)
N1 N 0.1677(7) 0.0708(7) 0.6792(6)
H1 H 0.171852 0.061025 0.711164
C2 C 0.1936(9) 0.0498(9) 0.6421(7)
N2 N 0.2205(8) 0.0165(7) 0.6555(9)
H2 H 0.233349 -0.000650 0.631410
H3 H 0.225965 0.011068 0.688539
N3 N 0.1854(8) 0.0581(7) 0.5926(6)
C3 C 0.1553(9) 0.0908(9) 0.5822(6)
C4 C 0.1287(9) 0.1140(9) 0.6184(6)
N4 N 0.1000(8) 0.1452(8) 0.5926(7)
C5 C 0.1099(10) 0.1402(10) 0.5430(7)
H4 H 0.095847 0.157585 0.516125
N5 N 0.1427(7) 0.1074(7) 0.5340(6)
C6 C 0.1591(7) 0.0940(7) 0.4827(7)
H5 H 0.148006 0.116760 0.456629
O2 O 0.1420(6) 0.0515(6) 0.4698(8)
C7 C 0.1759(7) 0.0170(6) 0.4638(11)
H6 H 0.173517 0.005586 0.427240
C8 C 0.2217(7) 0.0400(7) 0.4688(10)
H7 H 0.235703 0.028283 0.501671
C9 C 0.2098(7) 0.0903(7) 0.4784(9)
H8 H 0.226183 0.103473 0.509127
O3 O 0.2252(7) 0.1099(7) 0.4290(8)
C10 C 0.2615(7) 0.0852(8) 0.4095(8)
C11 C 0.3070(8) 0.1022(11) 0.4280(13)
H9 H 0.315169 0.130018 0.408901
H10 H 0.330274 0.078647 0.421790
H11 H 0.305399 0.108926 0.465229
C12 C 0.2573(12) 0.0865(12) 0.3517(8)
H12 H 0.226116 0.095547 0.342156
H13 H 0.263924 0.056186 0.337436
H14 H 0.279079 0.108779 0.337589
O4 O 0.2561(7) 0.0392(6) 0.4313(9)
C13 C 0.1660(8) -0.0232(7) 0.4989(11)
H15 H 0.171627 -0.015084 0.535768
H16 H 0.133900 -0.033338 0.495153
O5 O 0.1975(7) -0.0590(6) 0.4820(8)
C14 C 0.1908(11) -0.0974(8) 0.5076(11)
O6 O 0.1732(9) -0.1016(8) 0.5495(8)
C15 C 0.2235(14) -0.1358(10) 0.4835(13)
H17 H 0.235996 -0.128936 0.450298
C16 C 0.2347(13) -0.1728(10) 0.5017(13)
H18 H 0.222214 -0.182199 0.534062
C17 C 0.2706(13) -0.2066(11) 0.4715(15)
O7 O 0.1736(7) 0.0608(7) 0.7897(7)
C18 C 0.1980(9) 0.0411(10) 0.8207(7)
N6 N 0.1933(7) 0.0431(9) 0.8741(6)
H19 H 0.170206 0.059821 0.885177
C19 C 0.2188(10) 0.0232(12) 0.9121(7)
N7 N 0.2127(10) 0.0353(10) 0.9606(7)
H20 H 0.231755 0.025715 0.984744
H21 H 0.189568 0.053086 0.969118
N8 N 0.2535(8) -0.0034(9) 0.8993(6)
C20 C 0.2619(8) -0.0066(9) 0.8485(6)
C21 C 0.2345(8) 0.0092(10) 0.8081(7)
N9 N 0.2533(7) -0.0033(8) 0.7598(6)
C22 C 0.2862(9) -0.0317(9) 0.7720(7)
H22 H 0.304514 -0.047120 0.747009
N10 N 0.2917(7) -0.0371(7) 0.8249(6)
C23 C 0.3242(7) -0.0680(7) 0.8486(7)
H23 H 0.345236 -0.078874 0.820517
O8 O 0.3040(8) -0.1062(7) 0.8702(7)
C24 C 0.3102(8) -0.1095(9) 0.9248(8)
H24 H 0.326648 -0.138956 0.931358
C25 C 0.3426(8) -0.0715(9) 0.9402(8)
H25 H 0.325330 -0.049910 0.963039
C26 C 0.3528(7) -0.0466(8) 0.8893(8)
H26 H 0.347744 -0.012851 0.891934
O9 O 0.4008(6) -0.0583(9) 0.8818(7)
C27 C 0.4214(7) -0.0655(8) 0.9289(9)
C28 C 0.4548(10) -0.1044(10) 0.9269(13)
H27 H 0.439639 -0.131611 0.912888
H28 H 0.465981 -0.110922 0.962097
H29 H 0.480655 -0.096113 0.904568
C29 C 0.4442(11) -0.0213(9) 0.9429(12)
H30 H 0.476946 -0.023315 0.934992
H31 H 0.440054 -0.015316 0.980048
H32 H 0.430546 0.003631 0.922686
O10 O 0.3849(7) -0.0801(8) 0.9642(7)
C30 C 0.2646(8) -0.1132(13) 0.9519(9)
H33 H 0.247996 -0.083708 0.949862
H34 H 0.245599 -0.137126 0.935378
O11 O 0.2737(8) -0.1250(11) 1.0063(8)
C31 C 0.2360(10) -0.1291(15) 1.0335(11)
O12 O 0.1973(9) -0.1185(11) 1.0242(11)
O13 O 0.0647(7) 0.1746(7) 0.8080(7)
C32 C 0.0437(9) 0.1975(8) 0.7770(7)
N11 N 0.0468(9) 0.1931(8) 0.7239(6)
H35 H 0.063687 0.170193 0.712803
C33 C 0.0274(11) 0.2193(10) 0.6860(7)
N12 N 0.0354(9) 0.2101(9) 0.6370(6)
H36 H 0.021734 0.226015 0.612471
H37 H 0.054399 0.187951 0.628620
N13 N -0.0011(9) 0.2524(7) 0.6993(6)
C34 C -0.0065(10) 0.2596(8) 0.7500(6)
C35 C 0.0105(9) 0.2326(8) 0.7899(6)
N14 N -0.0014(8) 0.2515(7) 0.8382(6)
C36 C -0.0301(9) 0.2847(9) 0.8270(6)
H38 H -0.047987 0.300447 0.852169
N15 N -0.0313(7) 0.2940(6) 0.7743(6)
C37 C -0.0614(7) 0.3272(6) 0.7501(7)
H39 H -0.071084 0.349771 0.777164
O14 O -0.1001(6) 0.3065(7) 0.7302(7)
C38 C -0.1034(9) 0.3095(7) 0.6754(8)
H40 H -0.132073 0.327311 0.668758
C39 C -0.0649(10) 0.3401(8) 0.6569(8)
H41 H -0.043986 0.321804 0.634301
C40 C -0.0396(8) 0.3527(7) 0.7068(8)
H42 H -0.006006 0.346757 0.704392
O15 O -0.0502(9) 0.4016(6) 0.7103(7)
C41 C -0.0568(8) 0.4193(7) 0.6614(9)
C42 C -0.0132(9) 0.4329(11) 0.6352(12)
H43 H 0.002849 0.455445 0.656751
H44 H -0.020153 0.446425 0.601231
H45 H 0.006173 0.405932 0.630504
C43 C -0.0893(11) 0.4588(9) 0.6656(13)
H46 H -0.109193 0.454553 0.695917
H47 H -0.108075 0.460523 0.634083
H48 H -0.071942 0.487280 0.669568
O16 O -0.0758(8) 0.3812(7) 0.6311(7)
C44 C -0.1107(13) 0.2644(7) 0.6488(8)
H49 H -0.082651 0.245406 0.650665
H50 H -0.136219 0.247386 0.665074
O17 O -0.1215(9) 0.2761(7) 0.5947(8)
C45 C -0.1263(14) 0.2385(8) 0.5671(10)
O18 O -0.1136(9) 0.2006(7) 0.5776(9)
C46 C -0.1471(12) 0.2516(11) 0.5114(10)
H51 H -0.167461 0.276851 0.509411
C47 C -0.1383(18) 0.2308(15) 0.4712(11)
H52 H -0.122418 0.202626 0.474038
C48 C -0.152(3) 0.249(2) 0.4133(13)
O19 O 0.1250(7) 0.1131(7) 0.8891(7)
C49 C 0.1096(9) 0.1349(10) 0.9256(6)
N16 N 0.0739(8) 0.1652(8) 0.9192(7)
H53 H 0.063367 0.167800 0.887275
C50 C 0.0526(10) 0.1917(10) 0.9554(7)
N17 N 0.0243(9) 0.2228(9) 0.9398(9)
H54 H 0.012631 0.242313 0.962292
H55 H 0.016625 0.224448 0.906808
N18 N 0.0647(9) 0.1884(8) 1.0048(7)
C51 C 0.0959(11) 0.1568(11) 1.0159(7)
C52 C 0.1185(10) 0.1285(10) 0.9808(6)
N19 N 0.1545(8) 0.1052(9) 1.0069(7)
C53 C 0.1494(10) 0.1164(11) 1.0560(8)
H56 H 0.167884 0.104312 1.083144
N20 N 0.1148(8) 0.1474(8) 1.0644(6)
C54 C 0.0991(7) 0.1621(7) 1.1154(7)
H57 H 0.121130 0.150260 1.141919
O20 O 0.0563(7) 0.1455(6) 1.1274(10)
C55 C 0.0226(7) 0.1798(7) 1.1340(10)
H58 H 0.011771 0.177598 1.170785
C56 C 0.0464(7) 0.2256(7) 1.1286(10)
H59 H 0.035404 0.239838 1.095515
C57 C 0.0967(7) 0.2128(7) 1.1209(9)
H60 H 0.110972 0.229183 1.090874
O21 O 0.1154(7) 0.2273(7) 1.1708(8)
C58 C 0.0911(8) 0.2636(8) 1.1905(8)
C59 C 0.0846(12) 0.2595(12) 1.2479(8)
H61 H 0.064634 0.233399 1.255426
H62 H 0.070491 0.287575 1.261256
H63 H 0.114305 0.254906 1.264696
C60 C 0.1162(11) 0.3064(9) 1.1765(13)
H64 H 0.143244 0.309564 1.198679
H65 H 0.096057 0.332849 1.181535
H66 H 0.125712 0.304924 1.139975
O22 O 0.0458(6) 0.2596(7) 1.1669(9)
C61 C -0.0183(7) 0.1708(10) 1.0998(13)
H67 H -0.011073 0.177652 1.062985
H68 H -0.028005 0.138424 1.102482
O23 O -0.0541(7) 0.2014(9) 1.1193(10)
C62 C -0.0912(11) 0.1977(17) 1.0904(16)
O24 O -0.0964(9) 0.1769(10) 1.0507(10)
C63 C -0.1282(11) 0.2346(15) 1.1099(17)
H69 H -0.118608 0.256755 1.134523
C64 C -0.1679(11) 0.2359(13) 1.0951(15)
H70 H -0.175201 0.222254 1.062584
C65 C -0.2090(12) 0.2599(16) 1.1280(19)
C66 C -0.1986(15) 0.2788(15) 1.1732(16)
K2 K 0.000000 0.000000 0.7982(5)
O25 O 0.0954(7) -0.0122(6) 0.8032(6)
C67 C 0.1175(9) -0.0351(9) 0.7727(6)
N21 N 0.1125(7) -0.0341(7) 0.7195(6)
H71 H 0.090374 -0.016361 0.708089
C68 C 0.1366(9) -0.0564(9) 0.6817(6)
N22 N 0.1276(8) -0.0499(8) 0.6326(6)
H72 H 0.141714 -0.066314 0.608781
H73 H 0.107340 -0.029228 0.623193
N23 N 0.1670(7) -0.0876(7) 0.6949(5)
C69 C 0.1714(8) -0.0940(8) 0.7459(6)
C70 C 0.1505(9) -0.0703(9) 0.7861(6)
N24 N 0.1672(7) -0.0847(7) 0.8347(6)
C71 C 0.1965(9) -0.1173(9) 0.8226(6)
H74 H 0.212486 -0.134714 0.847885
N25 N 0.2016(7) -0.1237(7) 0.7699(6)
C72 C 0.2340(6) -0.1548(6) 0.7455(7)
H75 H 0.245091 -0.177461 0.771785
O26 O 0.2707(7) -0.1301(8) 0.7266(7)
C73 C 0.2782(9) -0.1361(7) 0.6728(8)
H76 H 0.310146 -0.148021 0.669283
C74 C 0.2470(10) -0.1745(8) 0.6550(8)
H77 H 0.229345 -0.163489 0.624133
C75 C 0.2139(7) -0.1795(7) 0.7006(9)
H78 H 0.183157 -0.166703 0.691604
O27 O 0.2115(7) -0.2287(6) 0.7077(8)
C76 C 0.2492(8) -0.2493(7) 0.6861(9)
C77 C 0.2370(11) -0.2921(8) 0.6574(12)
H79 H 0.240799 -0.318516 0.680493
H80 H 0.256978 -0.295528 0.627107
H81 H 0.205049 -0.290383 0.645894
C78 C 0.2822(10) -0.2575(11) 0.7294(11)
H82 H 0.294241 -0.228110 0.741726
H83 H 0.307547 -0.276468 0.716818
H84 H 0.266616 -0.273152 0.757957
O28 O 0.2635(8) -0.2183(7) 0.6440(7)
C79 C 0.2773(12) -0.0913(7) 0.6441(9)
H85 H 0.245690 -0.079433 0.641850
H86 H 0.296595 -0.068402 0.662038
O29 O 0.2953(9) -0.1009(7) 0.5923(8)
C80 C 0.3003(13) -0.0630(9) 0.5652(10)
O30 O 0.2785(9) -0.0287(8) 0.5716(9)
C81 C 0.3232(12) -0.0748(11) 0.5102(10)
H87 H 0.342147 -0.101092 0.508146
C82 C 0.3179(11) -0.0522(10) 0.4708(10)
H88 H 0.300735 -0.024787 0.473851
C83 C 0.3375(13) -0.0647(13) 0.4136(11)
C84 C 0.3656(10) -0.1005(12) 0.4101(16)
C85 C 0.3851(18) -0.115(2) 0.360(2)
O31 O 0.4127(14) -0.1483(16) 0.3509(17)
C86 C 0.415(2) -0.1845(19) 0.389(2)
O32 O 0.0416(6) 0.0372(6) 0.7121(5)
C87 C 0.0237(8) 0.0572(8) 0.6756(6)
N26 N -0.0089(7) 0.0910(7) 0.6820(6)
H89 H -0.015119 0.098827 0.714296
C88 C -0.0325(8) 0.1137(8) 0.6442(6)
N27 N -0.0617(8) 0.1457(7) 0.6561(9)
H90 H -0.075084 0.161562 0.631318
H91 H -0.067969 0.151534 0.688904
N28 N -0.0238(7) 0.1058(7) 0.5950(6)
C89 C 0.0061(9) 0.0732(9) 0.5843(6)
C90 C 0.0312(9) 0.0487(9) 0.6206(5)
N29 N 0.0626(7) 0.0199(8) 0.5947(6)
C91 C 0.0544(10) 0.0268(9) 0.5448(7)
H92 H 0.069121 0.010205 0.517851
N30 N 0.0224(7) 0.0601(7) 0.5358(5)
C92 C 0.0079(7) 0.0770(6) 0.4851(6)
H93 H 0.017955 0.055376 0.457286
O33 O 0.0262(6) 0.1200(6) 0.4759(8)
C93 C -0.0071(8) 0.1544(7) 0.4686(11)
H94 H -0.001641 0.167555 0.433275
C94 C -0.0532(8) 0.1312(8) 0.4665(10)
H95 H -0.072433 0.145169 0.494442
C95 C -0.0427(7) 0.0822(8) 0.4835(9)
H96 H -0.056686 0.075371 0.518133
O34 O -0.0639(7) 0.0551(6) 0.4427(8)
C96 C -0.0716(8) 0.0825(8) 0.3998(9)
C97 C -0.1142(10) 0.0694(12) 0.3713(13)
H97 H -0.107373 0.044283 0.347247
H98 H -0.125588 0.095748 0.351693
H99 H -0.137446 0.059468 0.396286
C98 C -0.0292(10) 0.0810(12) 0.3679(12)
H100 H -0.007470 0.059532 0.383684
H101 H -0.015514 0.111516 0.366496
H102 H -0.036698 0.070766 0.332651
O35 O -0.0807(7) 0.1282(6) 0.4221(9)
C99 C -0.0009(11) 0.1933(7) 0.5069(11)
H103 H -0.012115 0.184561 0.541814
H104 H 0.031652 0.202210 0.509452
O36 O -0.0284(8) 0.2306(6) 0.4851(8)
C100 C -0.0275(11) 0.2661(7) 0.5159(9)
O37 O -0.0119(8) 0.2683(7) 0.5585(7)
C101 C -0.0499(12) 0.3092(8) 0.4867(11)
H105 H -0.067252 0.303668 0.456092
C102 C -0.0459(11) 0.3488(9) 0.5015(12)
H106 H -0.027601 0.354804 0.531271
C103 C -0.0706(14) 0.3916(11) 0.4723(16)
C104 C -0.0961(13) 0.3831(13) 0.4308(14)
O38 O -0.0147(7) 0.0958(7) 0.7934(6)
C105 C -0.0345(8) 0.1194(8) 0.8251(6)
N31 N -0.0310(8) 0.1143(7) 0.8782(6)
H107 H -0.012382 0.092643 0.888971
C106 C -0.0529(10) 0.1385(10) 0.9164(6)
N32 N -0.0463(9) 0.1268(9) 0.9648(6)
H108 H -0.063271 0.138923 0.989509
H109 H -0.024952 0.106796 0.972753
N33 N -0.0851(8) 0.1687(8) 0.9047(6)
C107 C -0.0933(8) 0.1732(8) 0.8539(6)
C108 C -0.0679(8) 0.1549(8) 0.8131(6)
N34 N -0.0850(8) 0.1701(7) 0.7648(5)
C109 C -0.1139(9) 0.2025(9) 0.7775(6)
H110 H -0.128788 0.221567 0.752800
N35 N -0.1206(7) 0.2062(7) 0.8304(6)
C110 C -0.1523(7) 0.2379(7) 0.8553(7)
H111 H -0.174709 0.249221 0.828814
O39 O -0.1286(7) 0.2745(6) 0.8753(7)
C111 C -0.1354(8) 0.2816(9) 0.9291(8)
H112 H -0.149149 0.312637 0.933911
C112 C -0.1701(8) 0.2464(9) 0.9467(8)
H113 H -0.154625 0.226839 0.973281
C113 C -0.1777(7) 0.2164(7) 0.8989(8)
H114 H -0.166727 0.184535 0.905197
O40 O -0.2273(6) 0.2175(7) 0.8929(8)
C114 C -0.2453(7) 0.2525(8) 0.9225(9)
C115 C -0.2449(11) 0.2974(9) 0.8945(12)
H115 H -0.213304 0.306015 0.886528
H116 H -0.258893 0.320887 0.916530
H117 H -0.262334 0.294639 0.862073
C116 C -0.2923(8) 0.2384(11) 0.9390(13)
H118 H -0.311776 0.234973 0.908211
H119 H -0.305244 0.261874 0.961885
H120 H -0.290684 0.209246 0.957618
O41 O -0.2131(7) 0.2571(8) 0.9662(7)
C117 C -0.0895(8) 0.2810(14) 0.9566(10)
H121 H -0.076872 0.249589 0.957580
H122 H -0.067384 0.301193 0.938629
O42 O -0.0986(7) 0.2976(9) 1.0091(8)
C118 C -0.0616(10) 0.2990(14) 1.0378(11)
O43 O -0.0264(8) 0.2806(10) 1.0255(11)
O44 O 0.0376(7) 0.0421(7) 0.8845(6)
C119 C 0.0559(9) 0.0236(9) 0.9217(6)
N36 N 0.0911(7) -0.0072(7) 0.9161(6)
H123 H 0.100734 -0.011115 0.884011
C120 C 0.1134(9) -0.0325(9) 0.9526(6)
N37 N 0.1440(7) -0.0614(7) 0.9366(8)
H124 H 0.160639 -0.076532 0.959296
H125 H 0.148090 -0.065776 0.903094
N38 N 0.1061(8) -0.0248(7) 1.0025(6)
C121 C 0.0758(9) 0.0080(9) 1.0127(6)
C122 C 0.0515(10) 0.0338(10) 0.9768(6)
N39 N 0.0211(8) 0.0633(8) 1.0031(6)
C123 C 0.0304(10) 0.0573(9) 1.0527(7)
H126 H 0.017434 0.075202 1.079831
N40 N 0.0608(8) 0.0222(7) 1.0610(5)
C124 C 0.0769(7) 0.0070(7) 1.1118(6)
H127 H 0.055196 0.017571 1.139285
O45 O 0.1198(7) 0.0255(7) 1.1208(11)
C125 C 0.1552(7) -0.0069(8) 1.1280(10)
H128 H 0.167741 -0.001688 1.163654
C126 C 0.1323(7) -0.0534(7) 1.1289(10)
H129 H 0.145531 -0.071598 1.099653
C127 C 0.0823(7) -0.0434(7) 1.1150(9)
H130 H 0.073864 -0.058293 1.081347
O46 O 0.0573(6) -0.0638(7) 1.1580(9)
C128 C 0.0870(8) -0.0736(7) 1.1982(9)
C129 C 0.0937(12) -0.0337(10) 1.2333(11)
H131 H 0.092130 -0.005382 1.213016
H132 H 0.123685 -0.035924 1.250154
H133 H 0.069675 -0.033511 1.259890
C130 C 0.0691(11) -0.1151(10) 1.2256(12)
H134 H 0.041442 -0.107003 1.245096
H135 H 0.092369 -0.126659 1.249692
H136 H 0.061724 -0.138825 1.200028
O47 O 0.1316(6) -0.0817(7) 1.1727(9)
C131 C 0.1942(7) 0.0006(10) 1.0905(10)
H137 H 0.186328 -0.011162 1.055517
H138 H 0.201526 0.033607 1.087606
O48 O 0.2329(7) -0.0247(10) 1.1125(9)
C132 C 0.2700(8) -0.0202(14) 1.0839(11)
O49 O 0.2716(8) -0.0126(10) 1.0381(9)
C133 C 0.3124(10) -0.0458(15) 1.1113(12)
H139 H 0.310428 -0.052201 1.147459
C134 C 0.3469(10) -0.0575(14) 1.0880(13)
H140 H 0.343570 -0.066313 1.052635
C135 C 0.3981(12) -0.059(3) 1.113(3)
K1 K 0.0850(3) 0.0837(3) 0.7982(3)
loop_
_geom_bond_atom_site_label_1
_geom_bond_atom_site_label_2
_geom_bond_site_symmetry_1
_geom_bond_site_symmetry_2
O1 C1 1_555 1_555
C1 N1 1_555 1_555
N1 H1 1_555 1_555
C2 N1 1_555 1_555
N2 C2 1_555 1_555
H2 N2 1_555 1_555
H3 N2 1_555 1_555
N3 C2 1_555 1_555
C3 N3 1_555 1_555
C4 C1 1_555 1_555
N4 C4 1_555 1_555
C5 N4 1_555 1_555
H4 C5 1_555 1_555
N5 C3 1_555 1_555
C6 N5 1_555 1_555
H5 C6 1_555 1_555
O2 C6 1_555 1_555
C7 O2 1_555 1_555
H6 C7 1_555 1_555
C8 C7 1_555 1_555
H7 C8 1_555 1_555
C9 C6 1_555 1_555
H8 C9 1_555 1_555
O3 C9 1_555 1_555
C10 O3 1_555 1_555
C11 C10 1_555 1_555
H9 C11 1_555 1_555
H10 C11 1_555 1_555
H11 C11 1_555 1_555
C12 C10 1_555 1_555
H12 C12 1_555 1_555
H13 C12 1_555 1_555
H14 C12 1_555 1_555
O4 C8 1_555 1_555
C13 C7 1_555 1_555
H15 C13 1_555 1_555
H16 C13 1_555 1_555
O5 C13 1_555 1_555
C14 O5 1_555 1_555
O6 C14 1_555 1_555
C15 C14 1_555 1_555
H17 C15 1_555 1_555
C16 C15 1_555 1_555
H18 C16 1_555 1_555
C17 C16 1_555 1_555
O7 C18 1_555 1_555
C18 N6 1_555 1_555
N6 H19 1_555 1_555
C19 N6 1_555 1_555
N7 C19 1_555 1_555
H20 N7 1_555 1_555
H21 N7 1_555 1_555
N8 C19 1_555 1_555
C20 N8 1_555 1_555
C21 C18 1_555 1_555
N9 C21 1_555 1_555
C22 N9 1_555 1_555
H22 C22 1_555 1_555
N10 C20 1_555 1_555
C23 N10 1_555 1_555
H23 C23 1_555 1_555
O8 C23 1_555 1_555
C24 O8 1_555 1_555
H24 C24 1_555 1_555
C25 C24 1_555 1_555
H25 C25 1_555 1_555
C26 C23 1_555 1_555
H26 C26 1_555 1_555
O9 C26 1_555 1_555
C27 O9 1_555 1_555
C28 C27 1_555 1_555
H27 C28 1_555 1_555
H28 C28 1_555 1_555
H29 C28 1_555 1_555
C29 C27 1_555 1_555
H30 C29 1_555 1_555
H31 C29 1_555 1_555
H32 C29 1_555 1_555
O10 C25 1_555 1_555
C30 C24 1_555 1_555
H33 C30 1_555 1_555
H34 C30 1_555 1_555
O11 C30 1_555 1_555
C31 O11 1_555 1_555
O12 C31 1_555 1_555
O13 C32 1_555 1_555
C32 N11 1_555 1_555
N11 H35 1_555 1_555
C33 N11 1_555 1_555
N12 C33 1_555 1_555
H36 N12 1_555 1_555
H37 N12 1_555 1_555
N13 C33 1_555 1_555
C34 N13 1_555 1_555
C35 C32 1_555 1_555
N14 C35 1_555 1_555
C36 N14 1_555 1_555
H38 C36 1_555 1_555
N15 C34 1_555 1_555
C37 N15 1_555 1_555
H39 C37 1_555 1_555
O14 C37 1_555 1_555
C38 O14 1_555 1_555
H40 C38 1_555 1_555
C39 C38 1_555 1_555
H41 C39 1_555 1_555
C40 C37 1_555 1_555
H42 C40 1_555 1_555
O15 C40 1_555 1_555
C41 O15 1_555 1_555
C42 C41 1_555 1_555
H43 C42 1_555 1_555
H44 C42 1_555 1_555
H45 C42 1_555 1_555
C43 C41 1_555 1_555
H46 C43 1_555 1_555
H47 C43 1_555 1_555
H48 C43 1_555 1_555
O16 C39 1_555 1_555
C44 C38 1_555 1_555
H49 C44 1_555 1_555
H50 C44 1_555 1_555
O17 C44 1_555 1_555
C45 O17 1_555 1_555
O18 C45 1_555 1_555
C46 C45 1_555 1_555
H51 C46 1_555 1_555
C47 C46 1_555 1_555
H52 C47 1_555 1_555
C48 C47 1_555 1_555
O19 C49 1_555 1_555
C49 N16 1_555 1_555
N16 H53 1_555 1_555
C50 N16 1_555 1_555
N17 C50 1_555 1_555
H54 N17 1_555 1_555
H55 N17 1_555 1_555
N18 C50 1_555 1_555
C51 N18 1_555 1_555
C52 C49 1_555 1_555
N19 C52 1_555 1_555
C53 N19 1_555 1_555
H56 C53 1_555 1_555
N20 C51 1_555 1_555
C54 N20 1_555 1_555
H57 C54 1_555 1_555
O20 C54 1_555 1_555
C55 O20 1_555 1_555
H58 C55 1_555 1_555
C56 C55 1_555 1_555
H59 C56 1_555 1_555
C57 C54 1_555 1_555
H60 C57 1_555 1_555
O21 C57 1_555 1_555
C58 O21 1_555 1_555
C59 C58 1_555 1_555
H61 C59 1_555 1_555
H62 C59 1_555 1_555
H63 C59 1_555 1_555
C60 C58 1_555 1_555
H64 C60 1_555 1_555
H65 C60 1_555 1_555
H66 C60 1_555 1_555
O22 C56 1_555 1_555
C61 C55 1_555 1_555
H67 C61 1_555 1_555
H68 C61 1_555 1_555
O23 C61 1_555 1_555
C62 O23 1_555 1_555
O24 C62 1_555 1_555
C63 C62 1_555 1_555
H69 C63 1_555 1_555
C64 C63 1_555 1_555
H70 C64 1_555 1_555
C65 C64 1_555 1_555
C66 C65 1_555 1_555
O25 C67 1_555 1_555
C67 N21 1_555 1_555
N21 H71 1_555 1_555
C68 N21 1_555 1_555
N22 C68 1_555 1_555
H72 N22 1_555 1_555
H73 N22 1_555 1_555
N23 C68 1_555 1_555
C69 N23 1_555 1_555
C70 C67 1_555 1_555
N24 C70 1_555 1_555
C71 N24 1_555 1_555
H74 C71 1_555 1_555
N25 C69 1_555 1_555
C72 N25 1_555 1_555
H75 C72 1_555 1_555
O26 C72 1_555 1_555
C73 O26 1_555 1_555
H76 C73 1_555 1_555
C74 C73 1_555 1_555
H77 C74 1_555 1_555
C75 C72 1_555 1_555
H78 C75 1_555 1_555
O27 C75 1_555 1_555
C76 O27 1_555 1_555
C77 C76 1_555 1_555
H79 C77 1_555 1_555
H80 C77 1_555 1_555
H81 C77 1_555 1_555
C78 C76 1_555 1_555
H82 C78 1_555 1_555
H83 C78 1_555 1_555
H84 C78 1_555 1_555
O28 C74 1_555 1_555
C79 C73 1_555 1_555
H85 C79 1_555 1_555
H86 C79 1_555 1_555
O29 C79 1_555 1_555
C80 O29 1_555 1_555
O30 C80 1_555 1_555
C81 C80 1_555 1_555
H87 C81 1_555 1_555
C82 C81 1_555 1_555
H88 C82 1_555 1_555
C83 C82 1_555 1_555
C84 C83 1_555 1_555
C85 C84 1_555 1_555
O31 C85 1_555 1_555
C86 O31 1_555 1_555
O32 C87 1_555 1_555
C87 N26 1_555 1_555
N26 H89 1_555 1_555
C88 N26 1_555 1_555
N27 C88 1_555 1_555
H90 N27 1_555 1_555
H91 N27 1_555 1_555
N28 C88 1_555 1_555
C89 N28 1_555 1_555
C90 C87 1_555 1_555
N29 C90 1_555 1_555
C91 N29 1_555 1_555
H92 C91 1_555 1_555
N30 C89 1_555 1_555
C92 N30 1_555 1_555
H93 C92 1_555 1_555
O33 C92 1_555 1_555
C93 O33 1_555 1_555
H94 C93 1_555 1_555
C94 C93 1_555 1_555
H95 C94 1_555 1_555
C95 C92 1_555 1_555
H96 C95 1_555 1_555
O34 C95 1_555 1_555
C96 O34 1_555 1_555
C97 C96 1_555 1_555
H97 C97 1_555 1_555
H98 C97 1_555 1_555
H99 C97 1_555 1_555
C98 C96 1_555 1_555
H100 C98 1_555 1_555
H101 C98 1_555 1_555
H102 C98 1_555 1_555
O35 C94 1_555 1_555
C99 C93 1_555 1_555
H103 C99 1_555 1_555
H104 C99 1_555 1_555
O36 C99 1_555 1_555
C100 O36 1_555 1_555
O37 C100 1_555 1_555
C101 C100 1_555 1_555
H105 C101 1_555 1_555
C102 C101 1_555 1_555
H106 C102 1_555 1_555
C103 C102 1_555 1_555
C104 C103 1_555 1_555
O38 C105 1_555 1_555
C105 N31 1_555 1_555
N31 H107 1_555 1_555
C106 N31 1_555 1_555
N32 C106 1_555 1_555
H108 N32 1_555 1_555
H109 N32 1_555 1_555
N33 C106 1_555 1_555
C107 N33 1_555 1_555
C108 C105 1_555 1_555
N34 C108 1_555 1_555
C109 N34 1_555 1_555
H110 C109 1_555 1_555
N35 C107 1_555 1_555
C110 N35 1_555 1_555
H111 C110 1_555 1_555
O39 C110 1_555 1_555
C111 O39 1_555 1_555
H112 C111 1_555 1_555
C112 C111 1_555 1_555
H113 C112 1_555 1_555
C113 C110 1_555 1_555
H114 C113 1_555 1_555
O40 C113 1_555 1_555
C114 O40 1_555 1_555
C115 C114 1_555 1_555
H115 C115 1_555 1_555
H116 C115 1_555 1_555
H117 C115 1_555 1_555
C116 C114 1_555 1_555
H118 C116 1_555 1_555
H119 C116 1_555 1_555
H120 C116 1_555 1_555
O41 C112 1_555 1_555
C117 C111 1_555 1_555
H121 C117 1_555 1_555
H122 C117 1_555 1_555
O42 C117 1_555 1_555
C118 O42 1_555 1_555
O43 C118 1_555 1_555
O44 C119 1_555 1_555
C119 N36 1_555 1_555
N36 H123 1_555 1_555
C120 N36 1_555 1_555
N37 C120 1_555 1_555
H124 N37 1_555 1_555
H125 N37 1_555 1_555
N38 C120 1_555 1_555
C121 N38 1_555 1_555
C122 C119 1_555 1_555
N39 C122 1_555 1_555
C123 N39 1_555 1_555
H126 C123 1_555 1_555
N40 C121 1_555 1_555
C124 N40 1_555 1_555
H127 C124 1_555 1_555
O45 C124 1_555 1_555
C125 O45 1_555 1_555
H128 C125 1_555 1_555
C126 C125 1_555 1_555
H129 C126 1_555 1_555
C127 C124 1_555 1_555
H130 C127 1_555 1_555
O46 C127 1_555 1_555
C128 O46 1_555 1_555
C129 C128 1_555 1_555
H131 C129 1_555 1_555
H132 C129 1_555 1_555
H133 C129 1_555 1_555
C130 C128 1_555 1_555
H134 C130 1_555 1_555
H135 C130 1_555 1_555
H136 C130 1_555 1_555
O47 C126 1_555 1_555
C131 C125 1_555 1_555
H137 C131 1_555 1_555
H138 C131 1_555 1_555
O48 C131 1_555 1_555
C132 O48 1_555 1_555
O49 C132 1_555 1_555
C133 C132 1_555 1_555
H139 C133 1_555 1_555
C134 C133 1_555 1_555
H140 C134 1_555 1_555
C135 C134 1_555 1_555
C3 C4 1_555 1_555
C5 N5 1_555 1_555
C8 C9 1_555 1_555
C10 O4 1_555 1_555
C20 C21 1_555 1_555
C22 N10 1_555 1_555
C25 C26 1_555 1_555
C27 O10 1_555 1_555
C34 C35 1_555 1_555
C36 N15 1_555 1_555
C39 C40 1_555 1_555
C41 O16 1_555 1_555
C51 C52 1_555 1_555
C53 N20 1_555 1_555
C56 C57 1_555 1_555
C58 O22 1_555 1_555
C69 C70 1_555 1_555
C71 N25 1_555 1_555
C74 C75 1_555 1_555
C76 O28 1_555 1_555
C89 C90 1_555 1_555
C91 N30 1_555 1_555
C94 C95 1_555 1_555
C96 O35 1_555 1_555
C107 C108 1_555 1_555
C109 N35 1_555 1_555
C112 C113 1_555 1_555
C114 O41 1_555 1_555
C121 C122 1_555 1_555
C123 N40 1_555 1_555
C126 C127 1_555 1_555
C128 O47 1_555 1_555

#END
