
#######################################################################
#
#                 Cambridge Crystallographic Data Centre
#                                CCDC 
#
#######################################################################
#
# If this CIF has been generated from an entry in the Cambridge 
# Structural Database, then it will include bibliographic, chemical, 
# crystal, experimental, refinement or atomic coordinate data resulting 
# from the CCDC's data processing and validation procedures.
#
#######################################################################

data_ZIRNEW
_chemical_formula_moiety         'C11 H20 B9 N1 O1'
_chemical_name_systematic        
2,7-(iminio(phenyl)methanolato)-9,10-dimethyl-9,10-dicarba-nido-dodecaborane(10)
_symmetry_cell_setting           monoclinic
_symmetry_space_group_name_H-M   'I 2/a'
_symmetry_Int_Tables_number      15
_space_group_name_Hall           '-I 2ya'
loop_
_symmetry_equiv_pos_site_id
_symmetry_equiv_pos_as_xyz
1 x,y,z
2 1/2-x,y,-z
3 1/2+x,1/2+y,1/2+z
4 -x,1/2+y,1/2-z
5 -x,-y,-z
6 1/2+x,-y,z
7 1/2-x,1/2-y,1/2-z
8 x,1/2-y,1/2+z
_cell_length_a                   19.0490(13)
_cell_length_b                   10.6495(7)
_cell_length_c                   16.0380(9)
_cell_angle_alpha                90
_cell_angle_beta                 92.738(6)
_cell_angle_gamma                90
_cell_volume                     3249.79
_exptl_crystal_colour            'light colorless'
_exptl_crystal_description       block
_cell_formula_units_Z            8
loop_
_atom_site_label
_atom_site_type_symbol
_atom_site_fract_x
_atom_site_fract_y
_atom_site_fract_z
O1 O 0.08667(8) 0.58908(16) 0.18086(9)
N1 N 0.05539(11) 0.76306(19) 0.24596(12)
H1 H 0.0603 0.8230 0.2817
C1 C -0.06503(13) 0.7633(2) 0.03248(14)
C2 C -0.10409(12) 0.6330(2) 0.04388(14)
C3 C -0.07583(17) 0.8314(3) -0.05111(17)
H2 H -0.0558 0.7825 -0.0943
H3 H -0.0533 0.9119 -0.0477
H4 H -0.1252 0.8425 -0.0638
C4 C -0.15028(14) 0.5875(3) -0.03025(16)
H5 H -0.1872 0.6472 -0.0421
H6 H -0.1704 0.5077 -0.0172
H7 H -0.1223 0.5789 -0.0782
C5 C 0.10123(13) 0.6728(2) 0.23903(14)
C6 C 0.16656(13) 0.6568(2) 0.28969(14)
C7 C 0.20370(14) 0.5460(3) 0.28401(17)
H8 H 0.1874 0.4834 0.2477
C8 C 0.26485(15) 0.5279(3) 0.3319(2)
H9 H 0.2896 0.4530 0.3282
C9 C 0.28896(16) 0.6206(4) 0.38505(19)
H10 H 0.3297 0.6078 0.4183
C10 C 0.25350(16) 0.7323(4) 0.38961(19)
H11 H 0.2710 0.7956 0.4247
C11 C 0.19169(15) 0.7513(3) 0.34224(16)
H12 H 0.1674 0.8267 0.3457
B1 B -0.09941(16) 0.7490(3) 0.19743(18)
H13 H -0.1236 0.7859 0.2533
B2 B -0.06160(16) 0.8511(3) 0.12440(18)
H14 H -0.0635 0.9537 0.1320
B3 B -0.13611(16) 0.7631(3) 0.09424(18)
H15 H -0.1865 0.8102 0.0789
B4 B -0.13296(16) 0.6157(3) 0.14264(18)
H16 H -0.1814 0.5690 0.1610
B5 B -0.05352(15) 0.6033(3) 0.19859(17)
H17 H -0.0493 0.5449 0.2552
B6 B -0.00741(15) 0.7516(3) 0.18470(17)
B7 B -0.06109(16) 0.5326(3) 0.10051(18)
H18 H -0.0625(13) 0.432(2) 0.0877(14)
B8 B 0.01931(15) 0.6170(3) 0.13376(17)
H19 H 0.0209(15) 0.609(3) 0.0679(18)
B9 B 0.00980(16) 0.7674(3) 0.07884(18)
H20 H 0.0545(14) 0.819(3) 0.0586(16)
loop_
_geom_bond_atom_site_label_1
_geom_bond_atom_site_label_2
_geom_bond_site_symmetry_1
_geom_bond_site_symmetry_2
O1 C5 1_555 1_555
N1 H1 1_555 1_555
C1 C2 1_555 1_555
C2 C4 1_555 1_555
C3 C1 1_555 1_555
H2 C3 1_555 1_555
H3 C3 1_555 1_555
H4 C3 1_555 1_555
C4 H5 1_555 1_555
H6 C4 1_555 1_555
H7 C4 1_555 1_555
C5 N1 1_555 1_555
C6 C5 1_555 1_555
C7 C6 1_555 1_555
H8 C7 1_555 1_555
C8 C7 1_555 1_555
H9 C8 1_555 1_555
C9 C8 1_555 1_555
H10 C9 1_555 1_555
C10 C9 1_555 1_555
H11 C10 1_555 1_555
C11 C6 1_555 1_555
H12 C11 1_555 1_555
B1 H13 1_555 1_555
B2 C1 1_555 1_555
H14 B2 1_555 1_555
B3 C1 1_555 1_555
H15 B3 1_555 1_555
B4 C2 1_555 1_555
H16 B4 1_555 1_555
B5 B1 1_555 1_555
H17 B5 1_555 1_555
B6 N1 1_555 1_555
B7 C2 1_555 1_555
H18 B7 1_555 1_555
B8 O1 1_555 1_555
H19 B8 1_555 1_555
B9 C1 1_555 1_555
H20 B9 1_555 1_555
C2 B3 1_555 1_555
C10 C11 1_555 1_555
B1 B2 1_555 1_555
B1 B3 1_555 1_555
B1 B4 1_555 1_555
B1 B6 1_555 1_555
B2 B3 1_555 1_555
B2 B6 1_555 1_555
B2 B9 1_555 1_555
B3 B4 1_555 1_555
B4 B5 1_555 1_555
B4 B7 1_555 1_555
B5 B6 1_555 1_555
B5 B7 1_555 1_555
B5 B8 1_555 1_555
B6 B8 1_555 1_555
B6 B9 1_555 1_555
B7 B8 1_555 1_555
B8 B9 1_555 1_555

#END
