
#######################################################################
#
#                 Cambridge Crystallographic Data Centre
#                                CCDC 
#
#######################################################################
#
# If this CIF has been generated from an entry in the Cambridge 
# Structural Database, then it will include bibliographic, chemical, 
# crystal, experimental, refinement or atomic coordinate data resulting 
# from the CCDC's data processing and validation procedures.
#
#######################################################################

data_ZISFUF
_chemical_formula_moiety         'C24 H18 N2 O2 S1'
_chemical_name_systematic        
1-[(4-methylphenyl)sulfonyl]-9-phenyl-1H-benzo[f]indazole
_symmetry_cell_setting           monoclinic
_symmetry_space_group_name_H-M   'P 21/n'
_symmetry_Int_Tables_number      14
_space_group_name_Hall           '-P 2yn'
loop_
_symmetry_equiv_pos_site_id
_symmetry_equiv_pos_as_xyz
1 x,y,z
2 1/2-x,1/2+y,1/2-z
3 -x,-y,-z
4 1/2+x,1/2-y,1/2+z
_cell_length_a                   6.7312(13)
_cell_length_b                   17.195(3)
_cell_length_c                   17.173(3)
_cell_angle_alpha                90
_cell_angle_beta                 99.18(3)
_cell_angle_gamma                90
_cell_volume                     1962.2
_exptl_crystal_colour            colorless
_exptl_crystal_description       block
_cell_formula_units_Z            4
loop_
_atom_site_label
_atom_site_type_symbol
_atom_site_fract_x
_atom_site_fract_y
_atom_site_fract_z
S1 S 0.14327(14) 0.10587(6) 0.71615(6)
N1 N 0.1657(4) 0.01596(17) 0.75596(17)
N2 N 0.0317(5) -0.0353(2) 0.70883(19)
O1 O 0.2617(4) 0.15608(14) 0.77012(14)
O2 O -0.0662(4) 0.11925(18) 0.69570(17)
C1 C 0.8012(6) -0.1920(2) 0.8387(2)
H1 H 0.7819 -0.2422 0.8186
C2 C 0.9784(6) -0.1738(2) 0.8840(2)
H2 H 1.0798 -0.2109 0.8943
C3 C 1.0081(6) -0.0990(2) 0.9151(2)
H3 H 1.1298 -0.0864 0.9463
C4 C 0.8612(5) -0.0443(2) 0.9002(2)
H4 H 0.8834 0.0047 0.9228
C5 C 0.6753(5) -0.05972(18) 0.85128(19)
C6 C 0.6444(6) -0.1369(2) 0.8212(2)
C7 C 0.4596(6) -0.1570(2) 0.7763(2)
H5 H 0.4355 -0.2079 0.7589
C8 C 0.3151(5) -0.1015(2) 0.7585(2)
C9 C 0.3469(5) -0.02453(19) 0.78504(19)
C10 C 0.5214(5) -0.00214(18) 0.83552(19)
C11 C 0.5467(5) 0.07392(19) 0.8759(2)
C12 C 0.4230(6) 0.0918(2) 0.9310(2)
H6 H 0.3268 0.0561 0.9414
C13 C 0.4413(8) 0.1620(2) 0.9705(2)
H7 H 0.3591 0.1738 1.0075
C14 C 0.5852(9) 0.2145(2) 0.9537(3)
H8 H 0.5991 0.2621 0.9798
C15 C 0.7064(8) 0.1977(2) 0.8996(3)
H9 H 0.8013 0.2338 0.8889
C16 C 0.6893(6) 0.1278(2) 0.8610(2)
H10 H 0.7736 0.1164 0.8246
C17 C 0.1180(6) -0.1019(3) 0.7141(2)
H11 H 0.0570 -0.1466 0.6910
C18 C 0.2480(5) 0.10013(18) 0.6301(2)
C19 C 0.4485(5) 0.1171(2) 0.6325(2)
H12 H 0.5290 0.1291 0.6802
C20 C 0.5286(6) 0.1162(2) 0.5639(3)
H13 H 0.6641 0.1279 0.5658
C21 C 0.4144(7) 0.0983(2) 0.4925(2)
C22 C 0.2138(6) 0.0797(2) 0.4916(2)
H14 H 0.1335 0.0668 0.4441
C23 C 0.1321(5) 0.0802(2) 0.5598(2)
H15 H -0.0024 0.0670 0.5584
C24 C 0.5044(8) 0.0987(3) 0.4177(3)
H16 H 0.5744 0.1469 0.4138
H17 H 0.3992 0.0934 0.3732
H18 H 0.5970 0.0562 0.4185
loop_
_geom_bond_atom_site_label_1
_geom_bond_atom_site_label_2
_geom_bond_site_symmetry_1
_geom_bond_site_symmetry_2
S1 N1 1_555 1_555
N1 N2 1_555 1_555
N2 C17 1_555 1_555
O1 S1 1_555 1_555
O2 S1 1_555 1_555
C1 H1 1_555 1_555
C2 C1 1_555 1_555
H2 C2 1_555 1_555
C3 C2 1_555 1_555
H3 C3 1_555 1_555
C4 C3 1_555 1_555
H4 C4 1_555 1_555
C5 C4 1_555 1_555
C6 C1 1_555 1_555
C7 C6 1_555 1_555
H5 C7 1_555 1_555
C8 C7 1_555 1_555
C9 N1 1_555 1_555
C10 C5 1_555 1_555
C11 C10 1_555 1_555
C12 C11 1_555 1_555
H6 C12 1_555 1_555
C13 C12 1_555 1_555
H7 C13 1_555 1_555
C14 C13 1_555 1_555
H8 C14 1_555 1_555
C15 C14 1_555 1_555
H9 C15 1_555 1_555
C16 C11 1_555 1_555
H10 C16 1_555 1_555
C17 C8 1_555 1_555
H11 C17 1_555 1_555
C18 S1 1_555 1_555
C19 C18 1_555 1_555
H12 C19 1_555 1_555
C20 C19 1_555 1_555
H13 C20 1_555 1_555
C21 C20 1_555 1_555
C22 C21 1_555 1_555
H14 C22 1_555 1_555
C23 C18 1_555 1_555
H15 C23 1_555 1_555
C24 C21 1_555 1_555
H16 C24 1_555 1_555
H17 C24 1_555 1_555
H18 C24 1_555 1_555
C5 C6 1_555 1_555
C8 C9 1_555 1_555
C9 C10 1_555 1_555
C15 C16 1_555 1_555
C22 C23 1_555 1_555

#END
