
#######################################################################
#
#                 Cambridge Crystallographic Data Centre
#                                CCDC 
#
#######################################################################
#
# If this CIF has been generated from an entry in the Cambridge 
# Structural Database, then it will include bibliographic, chemical, 
# crystal, experimental, refinement or atomic coordinate data resulting 
# from the CCDC's data processing and validation procedures.
#
#######################################################################

data_ZISRAX
_chemical_formula_moiety         'C31 H30 Cl1 N1 O5 S1'
_chemical_name_systematic        
"methyl 5'-(4-chlorophenyl)-1'-[(4-methylphenyl)sulfonyl]-3-oxo-4'-phenylspiro[bicyclo[2.2.1]heptane-2,3'-pyrrolidine]-2'-carboxylate"
_symmetry_cell_setting           orthorhombic
_symmetry_space_group_name_H-M   'P 21 21 21'
_symmetry_Int_Tables_number      19
_space_group_name_Hall           'P 2ac 2ab'
loop_
_symmetry_equiv_pos_site_id
_symmetry_equiv_pos_as_xyz
1 x,y,z
2 1/2-x,-y,1/2+z
3 -x,1/2+y,1/2-z
4 1/2+x,1/2-y,-z
_cell_length_a                   9.509(3)
_cell_length_b                   10.371(3)
_cell_length_c                   27.390(7)
_cell_angle_alpha                90
_cell_angle_beta                 90
_cell_angle_gamma                90
_cell_volume                     2701.14
_exptl_crystal_colour            colorless
_exptl_crystal_description       block
_cell_formula_units_Z            4
loop_
_atom_site_label
_atom_site_type_symbol
_atom_site_fract_x
_atom_site_fract_y
_atom_site_fract_z
S1 S 0.27209(4) 0.40250(5) 0.62269(2)
N1 N 0.44350(15) 0.37026(15) 0.62259(6)
O1 O 0.25494(16) 0.51968(15) 0.65023(7)
C1 C 0.18953(18) 0.27914(18) 0.65637(7)
Cl1 Cl 0.64963(10) 0.38860(11) 0.86103(2)
H1 H 0.032(3) 0.252(3) 0.6101(12)
O2 O 0.21869(16) 0.3962(2) 0.57379(6)
C2 C 0.0623(2) 0.2309(2) 0.63942(8)
O3 O 0.62961(18) 0.15323(15) 0.62093(5)
H2 H -0.099(4) 0.116(3) 0.6570(11)
C3 C -0.0143(2) 0.1479(2) 0.66879(9)
O4 O 0.57319(17) 0.12809(14) 0.54179(5)
C4 C 0.0345(2) 0.1115(2) 0.71482(8)
O5 O 0.82339(17) 0.31108(17) 0.53933(7)
H3 H 0.195(3) 0.136(3) 0.7617(11)
C5 C 0.1624(3) 0.1597(2) 0.73046(8)
C6 C 0.2403(2) 0.2441(2) 0.70183(8)
H4 H 0.325(3) 0.280(3) 0.7123(10)
C7 C -0.0485(3) 0.0200(3) 0.74677(12)
H5 H -0.033098 0.041084 0.780472
H6 H -0.018186 -0.066907 0.740759
H7 H -0.146810 0.027583 0.739345
C8 C 0.53696(18) 0.46849(18) 0.64615(6)
H8 H 0.488(2) 0.548(2) 0.6426(8)
C9 C 0.66907(18) 0.46829(17) 0.61384(6)
H9 H 0.729(2) 0.396(2) 0.6239(8)
C10 C 0.61278(18) 0.43220(16) 0.56232(6)
C11 C 0.50597(18) 0.32327(17) 0.57693(6)
H10 H 0.430(2) 0.316(2) 0.5532(8)
C12 C 0.5651(2) 0.44244(18) 0.70001(6)
C13 C 0.4940(2) 0.5160(2) 0.73459(8)
H11 H 0.428(3) 0.574(3) 0.7245(9)
C14 C 0.5178(3) 0.4978(3) 0.78454(8)
H12 H 0.467(4) 0.550(3) 0.8083(11)
C15 C 0.6142(3) 0.4069(3) 0.79894(7)
C16 C 0.6870(3) 0.3324(2) 0.76572(8)
H13 H 0.751(4) 0.267(3) 0.7773(12)
C17 C 0.6603(3) 0.3500(2) 0.71603(7)
H14 H 0.706(3) 0.294(3) 0.6920(11)
C18 C 0.5360(2) 0.5304(2) 0.52867(7)
H15 H 0.443(3) 0.556(2) 0.5401(9)
C19 C 0.6283(3) 0.6484(2) 0.51659(8)
H16 H 0.653(3) 0.699(3) 0.5469(10)
H17 H 0.572(3) 0.708(3) 0.4980(10)
C20 C 0.7496(3) 0.5905(3) 0.48611(9)
H18 H 0.842(3) 0.596(3) 0.5036(11)
H19 H 0.755(4) 0.635(4) 0.4556(13)
C21 C 0.7049(3) 0.4476(2) 0.47889(8)
H20 H 0.744(4) 0.404(3) 0.4538(12)
C22 C 0.7305(2) 0.38339(18) 0.52762(7)
C23 C 0.5433(3) 0.4583(2) 0.47911(8)
H21 H 0.504(3) 0.512(3) 0.4522(10)
H22 H 0.500(3) 0.372(3) 0.4790(10)
C24 C 0.76027(19) 0.58813(18) 0.62019(7)
C25 C 0.7094(2) 0.7055(2) 0.63775(8)
H23 H 0.613(4) 0.716(3) 0.6451(11)
C26 C 0.7969(3) 0.8118(2) 0.64280(10)
H24 H 0.756(4) 0.893(3) 0.6550(12)
C27 C 0.9389(3) 0.8017(2) 0.63107(10)
H25 H 0.996(4) 0.877(4) 0.6354(12)
C28 C 0.9911(3) 0.6867(3) 0.61401(12)
H26 H 1.088(4) 0.675(3) 0.6043(11)
C29 C 0.9033(2) 0.5799(2) 0.60894(9)
H27 H 0.939(4) 0.499(3) 0.5964(11)
C30 C 0.57717(19) 0.19241(18) 0.58387(7)
C31 C 0.6458(4) 0.0060(3) 0.54053(11)
H28 H 0.598(5) -0.055(4) 0.5646(16)
H29 H 0.733(5) 0.017(4) 0.5498(15)
H30 H 0.644(4) -0.020(4) 0.5106(15)
loop_
_geom_bond_atom_site_label_1
_geom_bond_atom_site_label_2
_geom_bond_site_symmetry_1
_geom_bond_site_symmetry_2
S1 N1 1_555 1_555
N1 C8 1_555 1_555
O1 S1 1_555 1_555
C1 S1 1_555 1_555
Cl1 C15 1_555 1_555
H1 C2 1_555 1_555
O2 S1 1_555 1_555
C2 C1 1_555 1_555
O3 C30 1_555 1_555
H2 C3 1_555 1_555
C3 C2 1_555 1_555
O4 C30 1_555 1_555
C4 C3 1_555 1_555
O5 C22 1_555 1_555
H3 C5 1_555 1_555
C5 C4 1_555 1_555
C6 C1 1_555 1_555
H4 C6 1_555 1_555
C7 C4 1_555 1_555
H5 C7 1_555 1_555
H6 C7 1_555 1_555
H7 C7 1_555 1_555
C8 H8 1_555 1_555
C9 C8 1_555 1_555
H9 C9 1_555 1_555
C10 C9 1_555 1_555
C11 N1 1_555 1_555
H10 C11 1_555 1_555
C12 C8 1_555 1_555
C13 C12 1_555 1_555
H11 C13 1_555 1_555
C14 C13 1_555 1_555
H12 C14 1_555 1_555
C15 C14 1_555 1_555
C16 C15 1_555 1_555
H13 C16 1_555 1_555
C17 C12 1_555 1_555
H14 C17 1_555 1_555
C18 C10 1_555 1_555
H15 C18 1_555 1_555
C19 C18 1_555 1_555
H16 C19 1_555 1_555
H17 C19 1_555 1_555
C20 C19 1_555 1_555
H18 C20 1_555 1_555
H19 C20 1_555 1_555
C21 C20 1_555 1_555
H20 C21 1_555 1_555
C22 C10 1_555 1_555
C23 C18 1_555 1_555
H21 C23 1_555 1_555
H22 C23 1_555 1_555
C24 C9 1_555 1_555
C25 C24 1_555 1_555
H23 C25 1_555 1_555
C26 C25 1_555 1_555
H24 C26 1_555 1_555
C27 C26 1_555 1_555
H25 C27 1_555 1_555
C28 C27 1_555 1_555
H26 C28 1_555 1_555
C29 C24 1_555 1_555
H27 C29 1_555 1_555
C30 C11 1_555 1_555
C31 O4 1_555 1_555
H28 C31 1_555 1_555
H29 C31 1_555 1_555
H30 C31 1_555 1_555
C5 C6 1_555 1_555
C10 C11 1_555 1_555
C16 C17 1_555 1_555
C21 C22 1_555 1_555
C21 C23 1_555 1_555
C28 C29 1_555 1_555

#END
