
#######################################################################
#
#                 Cambridge Crystallographic Data Centre
#                                CCDC 
#
#######################################################################
#
# If this CIF has been generated from an entry in the Cambridge 
# Structural Database, then it will include bibliographic, chemical, 
# crystal, experimental, refinement or atomic coordinate data resulting 
# from the CCDC's data processing and validation procedures.
#
#######################################################################

data_ZISRIF
_chemical_formula_moiety         'C22 H20 N4 O2 S1'
_chemical_name_systematic        
1-(1,3-benzothiazol-2-yl)-7-(diethylamino)-3-methyl[1]benzopyrano[4,3-c]pyrazol-4(1H)-one
_symmetry_cell_setting           monoclinic
_symmetry_space_group_name_H-M   'C 2/c'
_symmetry_Int_Tables_number      15
_space_group_name_Hall           '-C 2yn'
loop_
_symmetry_equiv_pos_site_id
_symmetry_equiv_pos_as_xyz
1 x,y,z
2 -x,y,1/2-z
3 1/2+x,1/2+y,z
4 1/2-x,1/2+y,1/2-z
5 -x,-y,-z
6 x,-y,1/2+z
7 1/2-x,1/2-y,-z
8 1/2+x,1/2-y,1/2+z
_cell_length_a                   26.606(5)
_cell_length_b                   5.8142(12)
_cell_length_c                   26.906(5)
_cell_angle_alpha                90
_cell_angle_beta                 103.41(3)
_cell_angle_gamma                90
_cell_volume                     4048.68
_exptl_crystal_colour            colorless
_exptl_crystal_description       needle
_cell_formula_units_Z            8
loop_
_atom_site_label
_atom_site_type_symbol
_atom_site_fract_x
_atom_site_fract_y
_atom_site_fract_z
S1 S 0.73285(2) -0.03533(11) 0.53238(2)
O1 O 0.55183(6) 0.8010(3) 0.51895(5)
O2 O 0.51071(6) 0.6318(3) 0.44736(6)
N1 N 0.66271(7) 0.2976(3) 0.52823(7)
N2 N 0.73967(7) 0.3109(3) 0.59509(7)
N3 N 0.64058(7) 0.1658(3) 0.48530(7)
N4 N 0.61965(8) 1.1890(4) 0.67530(8)
C1 C 0.63409(8) 0.6587(4) 0.57190(8)
C2 C 0.59227(8) 0.8131(4) 0.56224(8)
C3 C 0.58934(8) 0.4645(4) 0.49280(8)
C4 C 0.63144(8) 0.4803(4) 0.53397(8)
C5 C 0.71075(8) 0.2162(4) 0.55543(8)
C6 C 0.78413(9) 0.1786(4) 0.61159(9)
C7 C 0.59637(9) 0.2665(4) 0.46432(8)
C8 C 0.54769(9) 0.6285(4) 0.48327(8)
C9 C 0.58711(9) 0.9904(4) 0.59468(8)
H1 H 0.5585 1.0921 0.5859
C10 C 0.78738(8) -0.0178(4) 0.58246(9)
C11 C 0.67151(9) 0.6965(4) 0.61724(9)
H2 H 0.7009 0.5988 0.6253
C12 C 0.62425(9) 1.0208(4) 0.64083(9)
C13 C 0.66689(10) 0.8697(4) 0.65019(9)
H3 H 0.6933 0.8891 0.6804
C14 C 0.56054(10) 0.1693(4) 0.41828(9)
H4 H 0.5757 0.0296 0.4075
H5 H 0.5549 0.2827 0.3906
H6 H 0.5275 0.1316 0.4265
C15 C 0.57719(10) 1.3528(5) 0.66569(10)
H7 H 0.5674 1.3868 0.6286
H8 H 0.5892 1.4982 0.6838
C16 C 0.82973(10) -0.1653(5) 0.59502(10)
H9 H 0.8318 -0.2986 0.5752
C17 C 0.82401(10) 0.2304(5) 0.65369(10)
H10 H 0.8224 0.3637 0.6737
C18 C 0.86599(10) 0.0836(5) 0.66580(10)
H11 H 0.8936 0.1174 0.6942
C19 C 0.86839(10) -0.1120(5) 0.63702(11)
H12 H 0.8974 -0.2115 0.6465
C20 C 0.65129(12) 1.1777(5) 0.72851(10)
H13 H 0.6305 1.2346 0.7521
H14 H 0.6603 1.0152 0.7374
C21 C 0.53041(13) 1.2702(7) 0.68243(13)
H15 H 0.5172 1.1302 0.6636
H16 H 0.5037 1.3895 0.6755
H17 H 0.5397 1.2368 0.7191
C22 C 0.69907(13) 1.3136(7) 0.73604(15)
H18 H 0.7189 1.2645 0.7114
H19 H 0.7198 1.2899 0.7708
H20 H 0.6904 1.4770 0.7309
loop_
_geom_bond_atom_site_label_1
_geom_bond_atom_site_label_2
_geom_bond_site_symmetry_1
_geom_bond_site_symmetry_2
S1 C5 1_555 1_555
O1 C2 1_555 1_555
O2 C8 1_555 1_555
N1 N3 1_555 1_555
N2 C5 1_555 1_555
N3 C7 1_555 1_555
N4 C12 1_555 1_555
C1 C2 1_555 1_555
C2 C9 1_555 1_555
C3 C4 1_555 1_555
C4 N1 1_555 1_555
C5 N1 1_555 1_555
C6 N2 1_555 1_555
C7 C3 1_555 1_555
C8 O1 1_555 1_555
C9 H1 1_555 1_555
C10 S1 1_555 1_555
C11 C1 1_555 1_555
H2 C11 1_555 1_555
C12 C9 1_555 1_555
C13 C11 1_555 1_555
H3 C13 1_555 1_555
C14 C7 1_555 1_555
H4 C14 1_555 1_555
H5 C14 1_555 1_555
H6 C14 1_555 1_555
C15 N4 1_555 1_555
H7 C15 1_555 1_555
H8 C15 1_555 1_555
C16 C10 1_555 1_555
H9 C16 1_555 1_555
C17 C6 1_555 1_555
H10 C17 1_555 1_555
C18 C17 1_555 1_555
H11 C18 1_555 1_555
C19 C16 1_555 1_555
H12 C19 1_555 1_555
C20 N4 1_555 1_555
H13 C20 1_555 1_555
H14 C20 1_555 1_555
C21 C15 1_555 1_555
H15 C21 1_555 1_555
H16 C21 1_555 1_555
H17 C21 1_555 1_555
C22 C20 1_555 1_555
H18 C22 1_555 1_555
H19 C22 1_555 1_555
H20 C22 1_555 1_555
C1 C4 1_555 1_555
C3 C8 1_555 1_555
C6 C10 1_555 1_555
C12 C13 1_555 1_555
C18 C19 1_555 1_555

#END
