
#######################################################################
#
#                 Cambridge Crystallographic Data Centre
#                                CCDC 
#
#######################################################################
#
# If this CIF has been generated from an entry in the Cambridge 
# Structural Database, then it will include bibliographic, chemical, 
# crystal, experimental, refinement or atomic coordinate data resulting 
# from the CCDC's data processing and validation procedures.
#
#######################################################################

data_ZISTUS
_chemical_formula_moiety         'C36 H36 N2'
_chemical_name_systematic        
N,N'-butane-2,3-diylidenebis(2,3-dimethyl-6-(1-phenylvinyl)aniline)
_symmetry_cell_setting           monoclinic
_symmetry_space_group_name_H-M   'P 21/c'
_symmetry_Int_Tables_number      14
_space_group_name_Hall           '-P 2ybc'
loop_
_symmetry_equiv_pos_site_id
_symmetry_equiv_pos_as_xyz
1 x,y,z
2 -x,1/2+y,1/2-z
3 -x,-y,-z
4 x,1/2-y,1/2+z
_cell_length_a                   9.613(8)
_cell_length_b                   16.285(14)
_cell_length_c                   9.639(8)
_cell_angle_alpha                90
_cell_angle_beta                 101.679(9)
_cell_angle_gamma                90
_cell_volume                     1477.72
_exptl_crystal_colour            yellow
_exptl_crystal_description       block
_cell_formula_units_Z            2
loop_
_atom_site_label
_atom_site_type_symbol
_atom_site_fract_x
_atom_site_fract_y
_atom_site_fract_z
C1 C 0.7542(5) 0.9715(4) 0.3661(7)
C2 C 0.8434(5) 1.0392(4) 0.3706(5)
C3 C 0.9406(5) 1.0398(4) 0.2810(6)
C4 C 0.9452(6) 0.9752(5) 0.1928(7)
H1 H 1.0072 0.9770 0.1303
C5 C 0.8604(7) 0.9073(5) 0.1938(8)
H2 H 0.8682 0.8633 0.1344
C6 C 0.7627(6) 0.9037(4) 0.2827(9)
C7 C 0.6752(7) 0.8283(4) 0.2878(10)
C8 C 0.7248(9) 0.7605(5) 0.3422(13)
H3 H 0.8211 0.7558 0.3819
H4 H 0.6649 0.7157 0.3421
C9 C 0.5196(6) 0.8376(4) 0.2159(9)
C10 C 0.4124(7) 0.8072(4) 0.2744(8)
H5 H 0.4340 0.7810 0.3619
C11 C 0.2722(7) 0.8147(5) 0.2058(9)
H6 H 0.2004 0.7944 0.2481
C12 C 0.2387(7) 0.8512(4) 0.0777(8)
H7 H 0.1442 0.8555 0.0313
C13 C 0.3433(7) 0.8816(5) 0.0169(7)
H8 H 0.3207 0.9069 -0.0713
C14 C 0.4836(7) 0.8750(4) 0.0858(8)
H9 H 0.5547 0.8961 0.0436
C15 C 0.8381(7) 1.1086(4) 0.4719(7)
H10 H 0.7756 1.1506 0.4254
H11 H 0.9317 1.1309 0.5026
H12 H 0.8038 1.0886 0.5524
C16 C 1.0396(6) 1.1122(4) 0.2799(7)
H13 H 1.0944 1.1040 0.2081
H14 H 1.1023 1.1168 0.3707
H15 H 0.9848 1.1617 0.2601
C17 C 0.5439(5) 1.0046(4) 0.4443(6)
C18 C 0.4816(6) 1.0561(5) 0.3171(7)
H16 H 0.5390 1.0508 0.2468
H17 H 0.4794 1.1126 0.3450
H18 H 0.3868 1.0378 0.2783
N1 N 0.6610(4) 0.9671(3) 0.4649(5)
C1B C 0.2458(5) 1.0285(4) 0.6339(7)
C2B C 0.1566(5) 0.9608(4) 0.6294(5)
C3B C 0.0594(5) 0.9602(4) 0.7190(6)
C4B C 0.0548(6) 1.0248(5) 0.8072(7)
H1B H -0.0072 1.0230 0.8697
C5B C 0.1396(7) 1.0927(5) 0.8062(8)
H2B H 0.1318 1.1367 0.8656
C6B C 0.2373(6) 1.0963(4) 0.7173(9)
C7B C 0.3248(7) 1.1717(4) 0.7122(10)
C8B C 0.2752(9) 1.2395(5) 0.6578(13)
H3B H 0.1789 1.2442 0.6181
H4B H 0.3351 1.2843 0.6579
C9B C 0.4804(6) 1.1624(4) 0.7841(9)
C10B C 0.5876(7) 1.1928(4) 0.7256(8)
H5B H 0.5660 1.2190 0.6381
C11B C 0.7278(7) 1.1853(5) 0.7942(9)
H6B H 0.7996 1.2056 0.7519
C12B C 0.7613(7) 1.1488(4) 0.9223(8)
H7B H 0.8558 1.1445 0.9687
C13B C 0.6567(7) 1.1184(5) 0.9831(7)
H8B H 0.6793 1.0931 1.0713
C14B C 0.5164(7) 1.1250(4) 0.9142(8)
H9B H 0.4453 1.1039 0.9564
C15B C 0.1619(7) 0.8914(4) 0.5281(7)
H10B H 0.2244 0.8494 0.5746
H11B H 0.0683 0.8691 0.4974
H12B H 0.1962 0.9114 0.4476
C16B C -0.0396(6) 0.8878(4) 0.7201(7)
H13B H -0.0944 0.8960 0.7919
H14B H -0.1023 0.8832 0.6293
H15B H 0.0152 0.8383 0.7399
C17B C 0.4561(5) 0.9954(4) 0.5557(6)
C18B C 0.5184(6) 0.9439(5) 0.6829(7)
H16B H 0.4610 0.9492 0.7532
H17B H 0.5206 0.8874 0.6550
H18B H 0.6132 0.9622 0.7217
N1B N 0.3390(4) 1.0329(3) 0.5351(5)
loop_
_geom_bond_atom_site_label_1
_geom_bond_atom_site_label_2
_geom_bond_site_symmetry_1
_geom_bond_site_symmetry_2
C1 C2 1_555 1_555
C2 C3 1_555 1_555
C3 C4 1_555 1_555
C4 H1 1_555 1_555
C5 C4 1_555 1_555
H2 C5 1_555 1_555
C6 C1 1_555 1_555
C7 C6 1_555 1_555
C8 C7 1_555 1_555
H3 C8 1_555 1_555
H4 C8 1_555 1_555
C9 C7 1_555 1_555
C10 C9 1_555 1_555
H5 C10 1_555 1_555
C11 C10 1_555 1_555
H6 C11 1_555 1_555
C12 C11 1_555 1_555
H7 C12 1_555 1_555
C13 C12 1_555 1_555
H8 C13 1_555 1_555
C14 C9 1_555 1_555
H9 C14 1_555 1_555
C15 C2 1_555 1_555
H10 C15 1_555 1_555
H11 C15 1_555 1_555
H12 C15 1_555 1_555
C16 C3 1_555 1_555
H13 C16 1_555 1_555
H14 C16 1_555 1_555
H15 C16 1_555 1_555
C17 C18 1_555 1_555
C18 H16 1_555 1_555
H17 C18 1_555 1_555
H18 C18 1_555 1_555
N1 C1 1_555 1_555
C1B C2B 1_555 1_555
C2B C3B 1_555 1_555
C3B C4B 1_555 1_555
C4B H1B 1_555 1_555
C5B C4B 1_555 1_555
H2B C5B 1_555 1_555
C6B C1B 1_555 1_555
C7B C6B 1_555 1_555
C8B C7B 1_555 1_555
H3B C8B 1_555 1_555
H4B C8B 1_555 1_555
C9B C7B 1_555 1_555
C10B C9B 1_555 1_555
H5B C10B 1_555 1_555
C11B C10B 1_555 1_555
H6B C11B 1_555 1_555
C12B C11B 1_555 1_555
H7B C12B 1_555 1_555
C13B C12B 1_555 1_555
H8B C13B 1_555 1_555
C14B C9B 1_555 1_555
H9B C14B 1_555 1_555
C15B C2B 1_555 1_555
H10B C15B 1_555 1_555
H11B C15B 1_555 1_555
H12B C15B 1_555 1_555
C16B C3B 1_555 1_555
H13B C16B 1_555 1_555
H14B C16B 1_555 1_555
H15B C16B 1_555 1_555
C17B C17 1_555 1_555
C18B C17B 1_555 1_555
H16B C18B 1_555 1_555
H17B C18B 1_555 1_555
H18B C18B 1_555 1_555
N1B C1B 1_555 1_555
C5 C6 1_555 1_555
C13 C14 1_555 1_555
C17 N1 1_555 1_555
C5B C6B 1_555 1_555
C13B C14B 1_555 1_555
C17B N1B 1_555 1_555

#END
