
#######################################################################
#
#                 Cambridge Crystallographic Data Centre
#                                CCDC 
#
#######################################################################
#
# If this CIF has been generated from an entry in the Cambridge 
# Structural Database, then it will include bibliographic, chemical, 
# crystal, experimental, refinement or atomic coordinate data resulting 
# from the CCDC's data processing and validation procedures.
#
#######################################################################

data_ZISTOM
_chemical_formula_moiety         'C15 H10 Cl2 N4'
_chemical_name_systematic        
2-(2-(3,4-dichlorobenzylidene)hydrazino)quinoxaline
_symmetry_cell_setting           monoclinic
_symmetry_space_group_name_H-M   'P 21/c'
_symmetry_Int_Tables_number      14
_space_group_name_Hall           '-P 2ybc'
loop_
_symmetry_equiv_pos_site_id
_symmetry_equiv_pos_as_xyz
1 x,y,z
2 -x,1/2+y,1/2-z
3 -x,-y,-z
4 x,1/2-y,1/2+z
_cell_length_a                   16.0284(11)
_cell_length_b                   6.9756(4)
_cell_length_c                   12.4127(9)
_cell_angle_alpha                90
_cell_angle_beta                 96.043(7)
_cell_angle_gamma                90
_cell_volume                     1380.12
_exptl_crystal_colour            yellow
_exptl_crystal_description       prism
_cell_formula_units_Z            4
loop_
_atom_site_label
_atom_site_type_symbol
_atom_site_fract_x
_atom_site_fract_y
_atom_site_fract_z
Cl1 Cl 0.92037(8) 0.4044(2) 0.39515(10)
Cl2 Cl 1.01377(8) 0.3943(2) 0.18221(11)
N1 N 0.6096(2) 0.6684(6) 0.0737(3)
N2 N 0.5269(2) 0.7147(6) 0.0801(3)
H1 H 0.504(3) 0.718(7) 0.145(4)
N3 N 0.3991(2) 0.8161(5) 0.0034(3)
N4 N 0.4593(2) 0.8165(6) -0.2031(3)
C1 C 0.7406(3) 0.5710(7) 0.1655(4)
C2 C 0.7839(3) 0.5206(7) 0.2653(4)
H2 H 0.7560 0.5212 0.3291
C3 C 0.8691(3) 0.4690(7) 0.2706(4)
C4 C 0.9107(3) 0.4672(7) 0.1782(4)
C5 C 0.8680(3) 0.5232(7) 0.0788(4)
H3 H 0.8963 0.5262 0.0154
C6 C 0.7837(3) 0.5744(7) 0.0738(4)
H4 H 0.7549 0.6125 0.0064
C7 C 0.6523(3) 0.6206(7) 0.1623(4)
H5 H 0.6259 0.6175 0.2273
C8 C 0.4770(3) 0.7668(6) -0.0107(3)
C9 C 0.3477(3) 0.8652(6) -0.0881(3)
C10 C 0.2636(3) 0.9113(7) -0.0786(4)
H6 H 0.2431 0.9085 -0.0095
C11 C 0.2105(3) 0.9607(7) -0.1694(4)
H7 H 0.1536 0.9921 -0.1625
C12 C 0.2405(3) 0.9648(7) -0.2726(4)
H8 H 0.2038 0.9993 -0.3347
C13 C 0.3230(3) 0.9187(7) -0.2832(3)
H9 H 0.3430 0.9218 -0.3526
C14 C 0.3777(3) 0.8671(6) -0.1917(4)
C15 C 0.5066(3) 0.7679(7) -0.1146(3)
H10 H 0.5631 0.7319 -0.1202
loop_
_geom_bond_atom_site_label_1
_geom_bond_atom_site_label_2
_geom_bond_site_symmetry_1
_geom_bond_site_symmetry_2
Cl1 C3 1_555 1_555
Cl2 C4 1_555 1_555
N1 N2 1_555 1_555
N2 H1 1_555 1_555
N3 C8 1_555 1_555
N4 C14 1_555 1_555
C1 C2 1_555 1_555
C2 H2 1_555 1_555
C3 C2 1_555 1_555
C4 C3 1_555 1_555
C5 C4 1_555 1_555
H3 C5 1_555 1_555
C6 C1 1_555 1_555
H4 C6 1_555 1_555
C7 N1 1_555 1_555
H5 C7 1_555 1_555
C8 N2 1_555 1_555
C9 N3 1_555 1_555
C10 C9 1_555 1_555
H6 C10 1_555 1_555
C11 C10 1_555 1_555
H7 C11 1_555 1_555
C12 C11 1_555 1_555
H8 C12 1_555 1_555
C13 C12 1_555 1_555
H9 C13 1_555 1_555
C14 C9 1_555 1_555
C15 N4 1_555 1_555
H10 C15 1_555 1_555
C1 C7 1_555 1_555
C5 C6 1_555 1_555
C8 C15 1_555 1_555
C13 C14 1_555 1_555

#END
