
#######################################################################
#
#                 Cambridge Crystallographic Data Centre
#                                CCDC 
#
#######################################################################
#
# If this CIF has been generated from an entry in the Cambridge 
# Structural Database, then it will include bibliographic, chemical, 
# crystal, experimental, refinement or atomic coordinate data resulting 
# from the CCDC's data processing and validation procedures.
#
#######################################################################

data_ZISXUX
_chemical_formula_moiety         'C28 H18 F2 N4 O2 S1,C2 H6 O1'
_chemical_name_systematic        
'2-(3-(4-fluorophenyl)-1-phenyl-1H-pyrazol-4-yl)-1-((4-fluorophenyl)sulfonyl)-1H-benzimidazole ethanol solvate'
_symmetry_cell_setting           triclinic
_symmetry_space_group_name_H-M   'P -1'
_symmetry_Int_Tables_number      2
_space_group_name_Hall           '-P 1'
loop_
_symmetry_equiv_pos_site_id
_symmetry_equiv_pos_as_xyz
1 x,y,z
2 -x,-y,-z
_cell_length_a                   8.2599(3)
_cell_length_b                   9.0030(3)
_cell_length_c                   19.0369(6)
_cell_angle_alpha                77.3790(10)
_cell_angle_beta                 79.4050(10)
_cell_angle_gamma                82.735(2)
_cell_volume                     1352.39
_exptl_crystal_colour            colorless
_exptl_crystal_description       block
_cell_formula_units_Z            2
loop_
_atom_site_label
_atom_site_type_symbol
_atom_site_fract_x
_atom_site_fract_y
_atom_site_fract_z
S1 S 0.81293(14) 0.44208(11) 0.32454(6)
O1 O 0.7355(4) 0.3331(3) 0.30153(19)
O2 O 0.9253(5) 0.3942(4) 0.3744(2)
F1 F 0.7436(4) 1.2970(3) 0.09700(18)
F2 F 1.0996(5) 0.8794(5) 0.0767(2)
N1 N 0.4455(4) 0.6634(4) 0.14898(17)
N2 N 0.3982(4) 0.5232(3) 0.18545(17)
N3 N 0.4506(5) 0.7335(4) 0.37443(18)
N4 N 0.6615(4) 0.5534(4) 0.36612(17)
C1 C 0.4994(4) 0.7242(4) 0.1968(2)
C2 C 0.5628(4) 0.8758(4) 0.1726(2)
C3 C 0.3274(5) 0.4301(4) 0.1502(2)
C4 C 0.6636(5) 0.6052(5) 0.4309(2)
C5 C 0.5298(5) 0.6377(4) 0.3347(2)
C6 C 0.4231(5) 0.4961(5) 0.2555(2)
H1 H 0.4009 0.4080 0.2904
C7 C 0.4868(5) 0.6214(4) 0.2661(2)
C8 C 0.6852(6) 1.1574(5) 0.1221(3)
C9 C 0.9012(5) 0.5691(5) 0.2488(2)
C10 C 0.6164(7) 0.9504(5) 0.2184(3)
H2 H 0.6107 0.9049 0.2675
C11 C 0.3350(6) 0.4672(5) 0.0752(2)
H3 H 0.3867 0.5522 0.0480
C12 C 0.5317(6) 0.7150(5) 0.4343(2)
C13 C 0.2516(6) 0.3029(5) 0.1896(3)
H4 H 0.2488 0.2758 0.2398
C14 C 0.9935(6) 0.6782(6) 0.2602(3)
H5 H 1.0090 0.6803 0.3071
C15 C 0.5734(7) 0.9458(5) 0.1001(2)
H6 H 0.5391 0.8971 0.0678
C16 C 0.7604(6) 0.5665(6) 0.4848(2)
H7 H 0.8485 0.4914 0.4827
C17 C 0.4907(7) 0.7902(6) 0.4931(2)
H8 H 0.3998 0.8621 0.4965
C18 C 0.8799(6) 0.5608(6) 0.1800(3)
H9 H 0.8207 0.4854 0.1729
C19 C 0.6789(7) 1.0915(6) 0.1935(3)
H10 H 0.7158 1.1399 0.2253
C20 C 0.6343(7) 1.0877(6) 0.0746(3)
H11 H 0.6402 1.1344 0.0256
C21 C 0.1797(8) 0.2155(6) 0.1546(3)
H12 H 0.1246 0.1322 0.1815
C22 C 0.2654(7) 0.3769(7) 0.0413(3)
H13 H 0.2701 0.4019 -0.0091
C23 C 0.7228(8) 0.6427(7) 0.5421(3)
H14 H 0.7876 0.6194 0.5789
C24 C 0.5917(8) 0.7523(7) 0.5459(3)
H15 H 0.5702 0.8022 0.5850
C25 C 0.1896(8) 0.2516(6) 0.0801(3)
H16 H 0.1448 0.1907 0.0563
C26 C 1.0610(7) 0.7820(7) 0.2022(4)
H17 H 1.1232 0.8556 0.2087
C27 C 0.9488(7) 0.6679(8) 0.1209(3)
H18 H 0.9363 0.6661 0.0735
C28 C 1.0351(7) 0.7752(7) 0.1345(4)
O3 O 0.1774(10) 0.9397(13) 0.3264(4)
H19 H 0.2449 0.8666 0.3364
C29 C -0.0826(17) 0.9725(13) 0.3895(7)
H20 H -0.1412 1.0065 0.4324
H21 H -0.1139 0.8736 0.3891
H22 H -0.1094 1.0437 0.3469
C30 C 0.0724(13) 0.964(2) 0.3897(8)
H23 H 0.0987 0.8816 0.4294
H24 H 0.0973 1.0580 0.4007
loop_
_geom_bond_atom_site_label_1
_geom_bond_atom_site_label_2
_geom_bond_site_symmetry_1
_geom_bond_site_symmetry_2
S1 O1 1_555 1_555
O2 S1 1_555 1_555
F1 C8 1_555 1_555
F2 C28 1_555 1_555
N1 N2 1_555 1_555
N2 C3 1_555 1_555
N3 C5 1_555 1_555
N4 S1 1_555 1_555
C1 N1 1_555 1_555
C2 C1 1_555 1_555
C3 C11 1_555 1_555
C4 N4 1_555 1_555
C5 N4 1_555 1_555
C6 N2 1_555 1_555
H1 C6 1_555 1_555
C7 C1 1_555 1_555
C8 C19 1_555 1_555
C9 S1 1_555 1_555
C10 C2 1_555 1_555
H2 C10 1_555 1_555
C11 H3 1_555 1_555
C12 N3 1_555 1_555
C13 C3 1_555 1_555
H4 C13 1_555 1_555
C14 C9 1_555 1_555
H5 C14 1_555 1_555
C15 C2 1_555 1_555
H6 C15 1_555 1_555
C16 C4 1_555 1_555
H7 C16 1_555 1_555
C17 C12 1_555 1_555
H8 C17 1_555 1_555
C18 C9 1_555 1_555
H9 C18 1_555 1_555
C19 C10 1_555 1_555
H10 C19 1_555 1_555
C20 C8 1_555 1_555
H11 C20 1_555 1_555
C21 C13 1_555 1_555
H12 C21 1_555 1_555
C22 C11 1_555 1_555
H13 C22 1_555 1_555
C23 C16 1_555 1_555
H14 C23 1_555 1_555
C24 C17 1_555 1_555
H15 C24 1_555 1_555
C25 C21 1_555 1_555
H16 C25 1_555 1_555
C26 C14 1_555 1_555
H17 C26 1_555 1_555
C27 C18 1_555 1_555
H18 C27 1_555 1_555
C28 C26 1_555 1_555
O3 H19 1_555 1_555
C29 H20 1_555 1_555
H21 C29 1_555 1_555
H22 C29 1_555 1_555
C30 O3 1_555 1_555
H23 C30 1_555 1_555
H24 C30 1_555 1_555
C4 C12 1_555 1_555
C5 C7 1_555 1_555
C6 C7 1_555 1_555
C15 C20 1_555 1_555
C22 C25 1_555 1_555
C23 C24 1_555 1_555
C27 C28 1_555 1_555
C29 C30 1_555 1_555

#END
