
#######################################################################
#
#                 Cambridge Crystallographic Data Centre
#                                CCDC 
#
#######################################################################
#
# If this CIF has been generated from an entry in the Cambridge 
# Structural Database, then it will include bibliographic, chemical, 
# crystal, experimental, refinement or atomic coordinate data resulting 
# from the CCDC's data processing and validation procedures.
#
#######################################################################

data_ZISZIM
_chemical_formula_moiety         'C60 H98 N6 Si6,C8 H10,C6 H4'
_chemical_name_systematic        
"1,3,7,9-Tetra-t-butyl-N,N'-bis(2,6-diisopropylphenyl)-2,8-diphenyl-N,N'-bis(trimethylsilyl)-1,3,7,9-tetraaza-4,5,6,10-tetrasiladispiro[3.1.3.1]deca-1,7-diene-5,10-diamine p-xylene benzene solvate"
_symmetry_cell_setting           triclinic
_symmetry_space_group_name_H-M   'P -1'
_symmetry_Int_Tables_number      2
_space_group_name_Hall           '-P 1'
loop_
_symmetry_equiv_pos_site_id
_symmetry_equiv_pos_as_xyz
1 x,y,z
2 -x,-y,-z
_cell_length_a                   9.990(2)
_cell_length_b                   12.885(3)
_cell_length_c                   15.725(4)
_cell_angle_alpha                73.364(11)
_cell_angle_beta                 83.758(12)
_cell_angle_gamma                72.890(12)
_cell_volume                     1852.92
_exptl_crystal_colour            brown
_exptl_crystal_description       block
_cell_formula_units_Z            1
loop_
_atom_site_label
_atom_site_type_symbol
_atom_site_fract_x
_atom_site_fract_y
_atom_site_fract_z
C1 C 0.7936(11) -0.1906(9) 0.3459(8)
C2 C 0.7958(12) -0.3082(10) 0.3949(9)
H1 H 0.7439 -0.3086 0.4516
H2 H 0.8930 -0.3537 0.4062
H3 H 0.7520 -0.3400 0.3594
C3 C 0.8612(13) -0.1888(11) 0.2572(9)
H4 H 0.9617 -0.2263 0.2638
H5 H 0.8475 -0.1105 0.2217
H6 H 0.8192 -0.2284 0.2274
C4 C 0.8717(12) -0.1411(11) 0.3973(9)
H7 H 0.8314 -0.1474 0.4576
H8 H 0.8621 -0.0616 0.3667
H9 H 0.9712 -0.1830 0.4002
C5 C 0.5369(11) -0.1111(9) 0.2923(7)
C6 C 0.5495(12) -0.1589(9) 0.2158(8)
C7 C 0.5252(13) -0.2663(11) 0.2311(8)
H10 H 0.5071 -0.3066 0.2899
C8 C 0.5275(15) -0.3128(13) 0.1622(8)
H11 H 0.5125 -0.3850 0.1732
C9 C 0.5518(15) -0.2534(14) 0.0775(10)
H12 H 0.5475 -0.2836 0.0297
C10 C 0.5826(14) -0.1507(12) 0.0588(9)
H13 H 0.6067 -0.1136 0.0003
C11 C 0.5765(12) -0.1044(11) 0.1296(8)
H14 H 0.5916 -0.0322 0.1178
C12 C 0.2812(11) 0.0027(10) 0.2851(7)
C13 C 0.2310(13) -0.0762(12) 0.2467(9)
H15 H 0.2875 -0.0876 0.1935
H16 H 0.1323 -0.0422 0.2311
H17 H 0.2410 -0.1489 0.2911
C14 C 0.1813(10) 0.0319(10) 0.3615(8)
H18 H 0.1716 -0.0378 0.4044
H19 H 0.0894 0.0778 0.3378
H20 H 0.2193 0.0742 0.3909
C15 C 0.2899(13) 0.1070(10) 0.2150(8)
H21 H 0.3184 0.1571 0.2416
H22 H 0.1980 0.1455 0.1884
H23 H 0.3590 0.0867 0.1691
C16 C 0.4837(13) 0.3123(9) 0.2884(7)
C17 C 0.5597(13) 0.3018(10) 0.2106(8)
C18 C 0.7061(14) 0.2083(11) 0.2137(8)
H24 H 0.7281 0.1664 0.2770
C19 C 0.8275(15) 0.2593(14) 0.1706(10)
H25 H 0.9165 0.1999 0.1798
H26 H 0.8305 0.3180 0.1980
H27 H 0.8125 0.2922 0.1068
C20 C 0.6920(18) 0.1277(12) 0.1649(11)
H28 H 0.6605 0.1695 0.1047
H29 H 0.6233 0.0883 0.1964
H30 H 0.7829 0.0727 0.1619
C21 C 0.5104(15) 0.3677(12) 0.1271(8)
H31 H 0.5654 0.3572 0.0754
C22 C 0.3814(18) 0.4485(13) 0.1189(10)
H32 H 0.3485 0.4956 0.0624
C23 C 0.3024(15) 0.4581(11) 0.1957(9)
H33 H 0.2120 0.5103 0.1907
C24 C 0.3487(13) 0.3961(9) 0.2780(8)
C25 C 0.2556(12) 0.4161(10) 0.3575(8)
H34 H 0.3054 0.3637 0.4119
C26 C 0.2273(17) 0.5341(12) 0.3654(12)
H35 H 0.3153 0.5552 0.3573
H36 H 0.1862 0.5380 0.4243
H37 H 0.1618 0.5861 0.3198
C27 C 0.1121(13) 0.3938(12) 0.3588(9)
H38 H 0.0549 0.4148 0.4091
H39 H 0.1256 0.3136 0.3647
H40 H 0.0645 0.4388 0.3033
C28 C 0.6655(13) 0.4322(10) 0.3479(9)
H41 H 0.6867 0.4297 0.2861
H42 H 0.7395 0.4533 0.3694
H43 H 0.5755 0.4879 0.3516
C29 C 0.8320(12) 0.1971(10) 0.4219(9)
H44 H 0.8258 0.1192 0.4402
H45 H 0.8859 0.2088 0.4651
H46 H 0.8787 0.2114 0.3633
C30 C 0.5948(12) 0.3149(10) 0.5280(8)
H47 H 0.5240 0.3877 0.5210
H48 H 0.6744 0.3138 0.5599
H49 H 0.5538 0.2544 0.5616
N1 N 0.6455(8) -0.1157(7) 0.3407(6)
N2 N 0.4231(9) -0.0570(7) 0.3277(6)
N3 N 0.5372(9) 0.2505(7) 0.3727(5)
Si1 Si 0.5188(3) -0.0419(2) 0.4182(2)
Si2 Si 0.4537(3) 0.1409(2) 0.4326(2)
Si3 Si 0.6561(3) 0.2935(3) 0.4163(2)
C1A C 0.2064(11) 0.1906(9) 0.6541(8)
C2A C 0.2042(12) 0.3082(10) 0.6051(9)
H1A H 0.2561 0.3086 0.5484
H2A H 0.1070 0.3537 0.5938
H3A H 0.2480 0.3400 0.6406
C3A C 0.1388(13) 0.1888(11) 0.7428(9)
H4A H 0.0383 0.2263 0.7362
H5A H 0.1525 0.1105 0.7783
H6A H 0.1808 0.2284 0.7726
C4A C 0.1283(12) 0.1411(11) 0.6027(9)
H7A H 0.1686 0.1474 0.5424
H8A H 0.1379 0.0616 0.6333
H9A H 0.0288 0.1830 0.5998
C5A C 0.4631(11) 0.1111(9) 0.7077(7)
C6A C 0.4505(12) 0.1589(9) 0.7842(8)
C7A C 0.4748(13) 0.2663(11) 0.7689(8)
H10A H 0.4929 0.3066 0.7101
C8A C 0.4725(15) 0.3128(13) 0.8378(8)
H11A H 0.4875 0.3850 0.8268
C9A C 0.4482(15) 0.2534(14) 0.9225(10)
H12A H 0.4525 0.2836 0.9703
C10A C 0.4174(14) 0.1507(12) 0.9412(9)
H13A H 0.3933 0.1136 0.9997
C11A C 0.4235(12) 0.1044(11) 0.8704(8)
H14A H 0.4084 0.0322 0.8822
C12A C 0.7188(11) -0.0027(10) 0.7149(7)
C13A C 0.7690(13) 0.0762(12) 0.7533(9)
H15A H 0.7125 0.0876 0.8065
H16A H 0.8677 0.0422 0.7689
H17A H 0.7590 0.1489 0.7089
C14A C 0.8187(10) -0.0319(10) 0.6385(8)
H18A H 0.8284 0.0378 0.5956
H19A H 0.9106 -0.0778 0.6622
H20A H 0.7807 -0.0742 0.6091
C15A C 0.7101(13) -0.1070(10) 0.7850(8)
H21A H 0.6816 -0.1571 0.7584
H22A H 0.8020 -0.1455 0.8116
H23A H 0.6410 -0.0867 0.8309
C16A C 0.5163(13) -0.3123(9) 0.7116(7)
C17A C 0.4403(13) -0.3018(10) 0.7894(8)
C18A C 0.2939(14) -0.2083(11) 0.7863(8)
H24A H 0.2719 -0.1664 0.7230
C19A C 0.1725(15) -0.2593(14) 0.8294(10)
H25A H 0.0835 -0.1999 0.8202
H26A H 0.1695 -0.3180 0.8020
H27A H 0.1875 -0.2922 0.8932
C20A C 0.3080(18) -0.1277(12) 0.8351(11)
H28A H 0.3395 -0.1695 0.8953
H29A H 0.3767 -0.0883 0.8036
H30A H 0.2171 -0.0727 0.8381
C21A C 0.4896(15) -0.3677(12) 0.8729(8)
H31A H 0.4346 -0.3572 0.9246
C22A C 0.6186(18) -0.4485(13) 0.8811(10)
H32A H 0.6515 -0.4956 0.9376
C23A C 0.6976(15) -0.4581(11) 0.8043(9)
H33A H 0.7880 -0.5103 0.8093
C24A C 0.6513(13) -0.3961(9) 0.7220(8)
C25A C 0.7444(12) -0.4161(10) 0.6425(8)
H34A H 0.6946 -0.3637 0.5881
C26A C 0.7727(17) -0.5341(12) 0.6346(12)
H35A H 0.6847 -0.5552 0.6427
H36A H 0.8138 -0.5380 0.5757
H37A H 0.8382 -0.5861 0.6802
C27A C 0.8879(13) -0.3938(12) 0.6412(9)
H38A H 0.9451 -0.4148 0.5909
H39A H 0.8744 -0.3136 0.6353
H40A H 0.9355 -0.4388 0.6967
C28A C 0.3345(13) -0.4322(10) 0.6521(9)
H41A H 0.3133 -0.4297 0.7139
H42A H 0.2605 -0.4533 0.6306
H43A H 0.4245 -0.4879 0.6484
C29A C 0.1680(12) -0.1971(10) 0.5781(9)
H44A H 0.1742 -0.1192 0.5598
H45A H 0.1141 -0.2088 0.5349
H46A H 0.1213 -0.2114 0.6367
C30A C 0.4052(12) -0.3149(10) 0.4720(8)
H47A H 0.4760 -0.3877 0.4790
H48A H 0.3256 -0.3138 0.4401
H49A H 0.4462 -0.2544 0.4384
N1A N 0.3545(8) 0.1157(7) 0.6593(6)
N2A N 0.5769(9) 0.0570(7) 0.6723(6)
N3A N 0.4628(9) -0.2505(7) 0.6273(5)
Si1A Si 0.4812(3) 0.0419(2) 0.5818(2)
Si2A Si 0.5463(3) -0.1409(2) 0.5674(2)
Si3A Si 0.3439(3) -0.2935(3) 0.5837(2)
C31 C 0.900(5) 0.593(3) 0.147(2)
H50 H 0.8531 0.6740 0.1272
H51 H 0.9820 0.5814 0.1814
H52 H 0.8346 0.5545 0.1851
C32 C 0.945(2) 0.5466(18) 0.0687(19)
C33 C 1.031(2) 0.4367(18) 0.0890(17)
H53 H 1.0506 0.3936 0.1485
C34 C 1.086(2) 0.393(2) 0.0166(17)
H54 H 1.1472 0.3189 0.0275
C31A C 1.100(5) 0.407(3) -0.147(2)
H50A H 1.1469 0.3260 -0.1272
H51A H 1.0180 0.4186 -0.1814
H52A H 1.1654 0.4455 -0.1851
C32A C 1.055(2) 0.4534(18) -0.0687(19)
C33A C 0.969(2) 0.5633(18) -0.0890(17)
H53A H 0.9494 0.6064 -0.1485
C34A C 0.914(2) 0.607(2) -0.0166(17)
H54A H 0.8528 0.6811 -0.0275
C35 C -0.0594(19) 0.9168(17) 0.0131(12)
H55 H -0.1013 0.8569 0.0228
C36 C 0.0797(18) 0.8887(14) 0.0365(11)
C37 C 0.141(2) 0.9764(17) 0.0226(12)
H56 H 0.2352 0.9626 0.0374
C35A C 0.0594(19) 1.0832(17) -0.0131(12)
H55A H 0.1013 1.1431 -0.0228
C36A C -0.0797(18) 1.1113(14) -0.0365(11)
C37A C -0.141(2) 1.0236(17) -0.0226(12)
H56A H -0.2352 1.0374 -0.0374
C38? C 0.157(3) 0.771(2) 0.0781(19)
H57? H 0.2537 0.7559 0.0544
H58? H 0.1114 0.7197 0.0649
H59? H 0.1576 0.7586 0.1425
loop_
_geom_bond_atom_site_label_1
_geom_bond_atom_site_label_2
_geom_bond_site_symmetry_1
_geom_bond_site_symmetry_2
C1 C2 1_555 1_555
C2 H1 1_555 1_555
H2 C2 1_555 1_555
H3 C2 1_555 1_555
C3 C1 1_555 1_555
H4 C3 1_555 1_555
H5 C3 1_555 1_555
H6 C3 1_555 1_555
C4 C1 1_555 1_555
H7 C4 1_555 1_555
H8 C4 1_555 1_555
H9 C4 1_555 1_555
C5 C6 1_555 1_555
C6 C7 1_555 1_555
C7 H10 1_555 1_555
C8 C7 1_555 1_555
H11 C8 1_555 1_555
C9 C8 1_555 1_555
H12 C9 1_555 1_555
C10 C9 1_555 1_555
H13 C10 1_555 1_555
C11 C6 1_555 1_555
H14 C11 1_555 1_555
C12 C13 1_555 1_555
C13 H15 1_555 1_555
H16 C13 1_555 1_555
H17 C13 1_555 1_555
C14 C12 1_555 1_555
H18 C14 1_555 1_555
H19 C14 1_555 1_555
H20 C14 1_555 1_555
C15 C12 1_555 1_555
H21 C15 1_555 1_555
H22 C15 1_555 1_555
H23 C15 1_555 1_555
C16 C17 1_555 1_555
C17 C18 1_555 1_555
C18 H24 1_555 1_555
C19 C18 1_555 1_555
H25 C19 1_555 1_555
H26 C19 1_555 1_555
H27 C19 1_555 1_555
C20 C18 1_555 1_555
H28 C20 1_555 1_555
H29 C20 1_555 1_555
H30 C20 1_555 1_555
C21 C17 1_555 1_555
H31 C21 1_555 1_555
C22 C21 1_555 1_555
H32 C22 1_555 1_555
C23 C22 1_555 1_555
H33 C23 1_555 1_555
C24 C16 1_555 1_555
C25 C24 1_555 1_555
H34 C25 1_555 1_555
C26 C25 1_555 1_555
H35 C26 1_555 1_555
H36 C26 1_555 1_555
H37 C26 1_555 1_555
C27 C25 1_555 1_555
H38 C27 1_555 1_555
H39 C27 1_555 1_555
H40 C27 1_555 1_555
C28 H41 1_555 1_555
H42 C28 1_555 1_555
H43 C28 1_555 1_555
C29 H44 1_555 1_555
H45 C29 1_555 1_555
H46 C29 1_555 1_555
C30 H47 1_555 1_555
H48 C30 1_555 1_555
H49 C30 1_555 1_555
N1 C1 1_555 1_555
N2 C5 1_555 1_555
N3 C16 1_555 1_555
Si1 N1 1_555 1_555
Si2 N3 1_555 1_555
Si3 C28 1_555 1_555
C31 H50 1_555 1_555
H51 C31 1_555 1_555
H52 C31 1_555 1_555
C32 C31 1_555 1_555
C33 C32 1_555 1_555
H53 C33 1_555 1_555
C34 C33 1_555 1_555
H54 C34 1_555 1_555
C35 H55 1_555 1_555
C36 C35 1_555 1_555
C37 C36 1_555 1_555
H56 C37 1_555 1_555
C1A C2A 1_555 1_555
C2A H1A 1_555 1_555
H2A C2A 1_555 1_555
H3A C2A 1_555 1_555
C3A C1A 1_555 1_555
H4A C3A 1_555 1_555
H5A C3A 1_555 1_555
H6A C3A 1_555 1_555
C4A C1A 1_555 1_555
H7A C4A 1_555 1_555
H8A C4A 1_555 1_555
H9A C4A 1_555 1_555
C5A C6A 1_555 1_555
C6A C7A 1_555 1_555
C7A H10A 1_555 1_555
C8A C7A 1_555 1_555
H11A C8A 1_555 1_555
C9A C8A 1_555 1_555
H12A C9A 1_555 1_555
C10A C9A 1_555 1_555
H13A C10A 1_555 1_555
C11A C6A 1_555 1_555
H14A C11A 1_555 1_555
C12A C13A 1_555 1_555
C13A H15A 1_555 1_555
H16A C13A 1_555 1_555
H17A C13A 1_555 1_555
C14A C12A 1_555 1_555
H18A C14A 1_555 1_555
H19A C14A 1_555 1_555
H20A C14A 1_555 1_555
C15A C12A 1_555 1_555
H21A C15A 1_555 1_555
H22A C15A 1_555 1_555
H23A C15A 1_555 1_555
C16A C17A 1_555 1_555
C17A C18A 1_555 1_555
C18A H24A 1_555 1_555
C19A C18A 1_555 1_555
H25A C19A 1_555 1_555
H26A C19A 1_555 1_555
H27A C19A 1_555 1_555
C20A C18A 1_555 1_555
H28A C20A 1_555 1_555
H29A C20A 1_555 1_555
H30A C20A 1_555 1_555
C21A C17A 1_555 1_555
H31A C21A 1_555 1_555
C22A C21A 1_555 1_555
H32A C22A 1_555 1_555
C23A C22A 1_555 1_555
H33A C23A 1_555 1_555
C24A C16A 1_555 1_555
C25A C24A 1_555 1_555
H34A C25A 1_555 1_555
C26A C25A 1_555 1_555
H35A C26A 1_555 1_555
H36A C26A 1_555 1_555
H37A C26A 1_555 1_555
C27A C25A 1_555 1_555
H38A C27A 1_555 1_555
H39A C27A 1_555 1_555
H40A C27A 1_555 1_555
C28A H41A 1_555 1_555
H42A C28A 1_555 1_555
H43A C28A 1_555 1_555
C29A H44A 1_555 1_555
H45A C29A 1_555 1_555
H46A C29A 1_555 1_555
C30A H47A 1_555 1_555
H48A C30A 1_555 1_555
H49A C30A 1_555 1_555
N1A C1A 1_555 1_555
N2A C5A 1_555 1_555
N3A C16A 1_555 1_555
Si1A Si2 1_555 1_555
Si2A Si1 1_555 1_555
Si3A C28A 1_555 1_555
C31A H50A 1_555 1_555
H51A C31A 1_555 1_555
H52A C31A 1_555 1_555
C32A C34 1_555 1_555
C33A C32A 1_555 1_555
H53A C33A 1_555 1_555
C34A C32 1_555 1_555
H54A C34A 1_555 1_555
C35A C37 1_555 1_555
H55A C35A 1_555 1_555
C36A C35A 1_555 1_555
C37A C35 1_555 1_555
H56A C37A 1_555 1_555
C5 N1 1_555 1_555
C10 C11 1_555 1_555
C12 N2 1_555 1_555
C23 C24 1_555 1_555
C29 Si3 1_555 1_555
C30 Si3 1_555 1_555
N2 Si1 1_555 1_555
N3 Si3 1_555 1_555
Si1 Si2 1_555 1_555
C5A N1A 1_555 1_555
C10A C11A 1_555 1_555
C12A N2A 1_555 1_555
C23A C24A 1_555 1_555
C29A Si3A 1_555 1_555
C30A Si3A 1_555 1_555
N1A Si1A 1_555 1_555
N2A Si1A 1_555 1_555
N3A Si2A 1_555 1_555
N3A Si3A 1_555 1_555
Si1A Si2A 1_555 1_555
C31A C32A 1_555 1_555
C33A C34A 1_555 1_555
C36A C37A 1_555 1_555

#END
