
#######################################################################
#
#                 Cambridge Crystallographic Data Centre
#                                CCDC 
#
#######################################################################
#
# If this CIF has been generated from an entry in the Cambridge 
# Structural Database, then it will include bibliographic, chemical, 
# crystal, experimental, refinement or atomic coordinate data resulting 
# from the CCDC's data processing and validation procedures.
#
#######################################################################

data_ZITBEJ
_chemical_formula_moiety         'C21 H34 Li1 N3 Si1'
_chemical_name_systematic        
(2-(\a-Trimethylsilylbenzylidene)-1H,2H-pyridine-N)-(tetramethylethylenediamine)-lithium
_symmetry_cell_setting           monoclinic
_symmetry_space_group_name_H-M   'P 21/c'
_symmetry_Int_Tables_number      14
_space_group_name_Hall           '-P 2ybc'
loop_
_symmetry_equiv_pos_site_id
_symmetry_equiv_pos_as_xyz
1 x,y,z
2 -x,1/2+y,1/2-z
3 -x,-y,-z
4 x,1/2-y,1/2+z
_cell_length_a                   19.345(4)
_cell_length_b                   11.918(2)
_cell_length_c                   21.210(4)
_cell_angle_alpha                90
_cell_angle_beta                 103.04(3)
_cell_angle_gamma                90
_cell_volume                     4763.94
_exptl_crystal_colour            orange
_cell_formula_units_Z            8
loop_
_atom_site_label
_atom_site_type_symbol
_atom_site_fract_x
_atom_site_fract_y
_atom_site_fract_z
Si1 Si 0.1937(1) 0.1837(2) 0.4466(1)
Li1 Li 0.0554(4) 0.1816(8) 0.2113(4)
N1 N 0.0203(2) 0.1751(3) 0.2919(2)
N2 N 0.0042(3) 0.2913(4) 0.1360(2)
N3 N 0.0342(3) 0.0510(4) 0.1409(2)
C1 C 0.1344(2) 0.1815(4) 0.3658(2)
C2 C 0.0612(2) 0.1761(4) 0.3542(2)
C3 C 0.0242(3) 0.1711(4) 0.4061(2)
C4 C -0.0472(3) 0.1649(4) 0.3953(2)
C5 C -0.0869(3) 0.1620(5) 0.3316(3)
C6 C -0.0506(2) 0.1688(4) 0.2840(2)
C7 C 0.1681(2) 0.1945(6) 0.3097(2)
C8 C 0.1697(3) 0.2975(7) 0.2803(3)
C9 C 0.2066(4) 0.3144(8) 0.2304(4)
C10 C 0.2394(5) 0.2235(12) 0.2129(6)
C11 C 0.2405(7) 0.1252(12) 0.2378(6)
C12 C 0.2013(4) 0.1086(7) 0.2862(3)
C13 C 0.1846(3) 0.0573(5) 0.4970(2)
C14 C 0.2881(3) 0.1858(5) 0.4399(3)
C15 C 0.1814(3) 0.3130(5) 0.4939(2)
C16 C -0.0364(4) 0.2083(6) 0.0913(3)
C17 C 0.0027(4) 0.1090(6) 0.0806(3)
C18 C 0.0539(3) 0.3508(5) 0.1061(3)
C19 C -0.0446(3) 0.3733(5) 0.1525(3)
C20 C -0.0165(4) -0.0252(5) 0.1595(3)
C21 C 0.0943(4) -0.0160(6) 0.1304(3)
H1 H 0.0518 0.1716 0.4498
H2 H -0.0703 0.1626 0.4308
H3 H -0.1377 0.1570 0.3220
H4 H -0.0783 0.1672 0.2403
H5 H 0.1454 0.3583 0.2957
H6 H 0.2055 0.3857 0.2092
H7 H 0.2670 0.2373 0.1813
H8 H 0.2652 0.0661 0.2214
H9 H 0.1990 0.0355 0.3047
H10 H 0.1366 0.0531 0.5023
H11 H 0.1956 -0.0096 0.4760
H12 H 0.2164 0.0642 0.5386
H13 H 0.2960 0.2488 0.4142
H14 H 0.3189 0.1913 0.4822
H15 H 0.2981 0.1176 0.4196
H16 H 0.1861 0.3782 0.4686
H17 H 0.1349 0.3119 0.5028
H18 H 0.2164 0.3153 0.5339
H19 H -0.0560 0.2434 0.0504
H20 H -0.0752 0.1828 0.1089
H21 H -0.0261 0.0583 0.0505
H22 H 0.0409 0.1341 0.0621
H23 H 0.0280 0.3984 0.0724
H24 H 0.0849 0.3957 0.1380
H25 H 0.0815 0.2979 0.0880
H26 H -0.0647 0.4187 0.1155
H27 H -0.0817 0.3330 0.1661
H28 H -0.0203 0.4205 0.1872
H29 H -0.0275 -0.0864 0.1294
H30 H 0.0018 -0.0542 0.2022
H31 H -0.0588 0.0172 0.1589
H32 H 0.0787 -0.0725 0.0980
H33 H 0.1271 0.0333 0.1164
H34 H 0.1173 -0.0512 0.1703
Si2 Si 0.3194(1) 0.8179(2) 0.8757(1)
Li2 Li 0.4591(4) 0.8253(7) 0.6982(3)
N4 N 0.4940(2) 0.8302(3) 0.7933(2)
N5 N 0.5066(3) 0.7111(4) 0.6451(2)
N6 N 0.4816(3) 0.9518(4) 0.6338(2)
C22 C 0.3789(2) 0.8184(4) 0.8196(2)
C23 C 0.4524(2) 0.8270(4) 0.8386(2)
C24 C 0.4892(2) 0.8338(4) 0.9059(2)
C25 C 0.5601(3) 0.8416(4) 0.9240(2)
C26 C 0.6003(3) 0.8439(4) 0.8776(3)
C27 C 0.5647(2) 0.8377(4) 0.8145(2)
C28 C 0.3451(2) 0.8091(6) 0.7494(2)
C29 C 0.3315(4) 0.7092(6) 0.7182(3)
C30 C 0.2946(4) 0.7005(8) 0.6544(4)
C31 C 0.2699(4) 0.7914(10) 0.6198(3)
C32 C 0.2853(4) 0.8884(8) 0.6477(3)
C33 C 0.3220(3) 0.9002(6) 0.7120(3)
C34 C 0.3281(3) 0.9451(5) 0.9299(3)
C35 C 0.2264(3) 0.8159(7) 0.8305(3)
C36 C 0.3306(3) 0.6918(5) 0.9295(3)
C37 C 0.5423(4) 0.7860(6) 0.6091(3)
C38 C 0.5090(4) 0.8860(6) 0.5868(3)
C39 C 0.5577(4) 0.6328(5) 0.6817(3)
C40 C 0.4538(4) 0.6453(5) 0.6010(3)
C41 C 0.4247(4) 1.0234(6) 0.5977(3)
C42 C 0.5365(4) 1.0238(6) 0.6706(3)
H35 H 0.4619 0.8323 0.9384
H36 H 0.5834 0.8462 0.9689
H37 H 0.6511 0.8484 0.8896
H38 H 0.5922 0.8411 0.7821
H39 H 0.3496 0.6431 0.7423
H40 H 0.2821 0.6288 0.6346
H41 H 0.2453 0.7868 0.5752
H42 H 0.2682 0.9551 0.6238
H43 H 0.3340 0.9721 0.7320
H44 H 0.3223 1.0130 0.9049
H45 H 0.3741 0.9446 0.9588
H46 H 0.2921 0.9411 0.9545
H47 H 0.2190 0.7538 0.8010
H48 H 0.2168 0.8848 0.8067
H49 H 0.1950 0.8094 0.8595
H50 H 0.3267 0.6260 0.9028
H51 H 0.2947 0.6901 0.9542
H52 H 0.3766 0.6937 0.9585
H53 H 0.5864 0.8062 0.6379
H54 H 0.5536 0.7455 0.5735
H55 H 0.4703 0.8668 0.5514
H56 H 0.5408 0.9333 0.5701
H57 H 0.5752 0.5832 0.6532
H58 H 0.5357 0.5896 0.7101
H59 H 0.5964 0.6752 0.7070
H60 H 0.4757 0.5922 0.5776
H61 H 0.4244 0.6956 0.5711
H62 H 0.4251 0.6060 0.6254
H63 H 0.4439 1.0741 0.5709
H64 H 0.4049 1.0656 0.6280
H65 H 0.3882 0.9786 0.5711
H66 H 0.5475 1.0811 0.6426
H67 H 0.5784 0.9809 0.6883
H68 H 0.5194 1.0580 0.7052
loop_
_geom_bond_atom_site_label_1
_geom_bond_atom_site_label_2
_geom_bond_site_symmetry_1
_geom_bond_site_symmetry_2
Si1 C1 1_555 1_555
Li1 N1 1_555 1_555
N1 C2 1_555 1_555
N2 Li1 1_555 1_555
N3 Li1 1_555 1_555
C1 C2 1_555 1_555
C2 C3 1_555 1_555
C3 C4 1_555 1_555
C4 C5 1_555 1_555
C5 C6 1_555 1_555
C6 N1 1_555 1_555
C7 C1 1_555 1_555
C8 C7 1_555 1_555
C9 C8 1_555 1_555
C10 C9 1_555 1_555
C11 C10 1_555 1_555
C12 C7 1_555 1_555
C13 Si1 1_555 1_555
C14 Si1 1_555 1_555
C15 Si1 1_555 1_555
C16 N2 1_555 1_555
C17 N3 1_555 1_555
C18 N2 1_555 1_555
C19 N2 1_555 1_555
C20 N3 1_555 1_555
C21 N3 1_555 1_555
Si2 C22 1_555 1_555
Li2 N4 1_555 1_555
N4 C23 1_555 1_555
N5 Li2 1_555 1_555
N6 Li2 1_555 1_555
C22 C23 1_555 1_555
C23 C24 1_555 1_555
C24 C25 1_555 1_555
C25 C26 1_555 1_555
C26 C27 1_555 1_555
C27 N4 1_555 1_555
C28 C22 1_555 1_555
C29 C28 1_555 1_555
C30 C29 1_555 1_555
C31 C30 1_555 1_555
C32 C31 1_555 1_555
C33 C28 1_555 1_555
C34 Si2 1_555 1_555
C35 Si2 1_555 1_555
C36 Si2 1_555 1_555
C37 N5 1_555 1_555
C38 N6 1_555 1_555
C39 N5 1_555 1_555
C40 N5 1_555 1_555
C41 N6 1_555 1_555
C42 N6 1_555 1_555
H1 C3 1_555 1_555
H2 C4 1_555 1_555
H3 C5 1_555 1_555
H4 C6 1_555 1_555
H5 C8 1_555 1_555
H6 C9 1_555 1_555
H7 C10 1_555 1_555
H8 C11 1_555 1_555
H9 C12 1_555 1_555
H10 C13 1_555 1_555
H11 C13 1_555 1_555
H12 C13 1_555 1_555
H13 C14 1_555 1_555
H14 C14 1_555 1_555
H15 C14 1_555 1_555
H16 C15 1_555 1_555
H17 C15 1_555 1_555
H18 C15 1_555 1_555
H19 C16 1_555 1_555
H20 C16 1_555 1_555
H21 C17 1_555 1_555
H22 C17 1_555 1_555
H23 C18 1_555 1_555
H24 C18 1_555 1_555
H25 C18 1_555 1_555
H26 C19 1_555 1_555
H27 C19 1_555 1_555
H28 C19 1_555 1_555
H29 C20 1_555 1_555
H30 C20 1_555 1_555
H31 C20 1_555 1_555
H32 C21 1_555 1_555
H33 C21 1_555 1_555
H34 C21 1_555 1_555
H35 C24 1_555 1_555
H36 C25 1_555 1_555
H37 C26 1_555 1_555
H38 C27 1_555 1_555
H39 C29 1_555 1_555
H40 C30 1_555 1_555
H41 C31 1_555 1_555
H42 C32 1_555 1_555
H43 C33 1_555 1_555
H44 C34 1_555 1_555
H45 C34 1_555 1_555
H46 C34 1_555 1_555
H47 C35 1_555 1_555
H48 C35 1_555 1_555
H49 C35 1_555 1_555
H50 C36 1_555 1_555
H51 C36 1_555 1_555
H52 C36 1_555 1_555
H53 C37 1_555 1_555
H54 C37 1_555 1_555
H55 C38 1_555 1_555
H56 C38 1_555 1_555
H57 C39 1_555 1_555
H58 C39 1_555 1_555
H59 C39 1_555 1_555
H60 C40 1_555 1_555
H61 C40 1_555 1_555
H62 C40 1_555 1_555
H63 C41 1_555 1_555
H64 C41 1_555 1_555
H65 C41 1_555 1_555
H66 C42 1_555 1_555
H67 C42 1_555 1_555
H68 C42 1_555 1_555
C11 C12 1_555 1_555
C16 C17 1_555 1_555
C32 C33 1_555 1_555
C37 C38 1_555 1_555

#END
