
#######################################################################
#
#                 Cambridge Crystallographic Data Centre
#                                CCDC 
#
#######################################################################
#
# If this CIF has been generated from an entry in the Cambridge 
# Structural Database, then it will include bibliographic, chemical, 
# crystal, experimental, refinement or atomic coordinate data resulting 
# from the CCDC's data processing and validation procedures.
#
#######################################################################

data_ZITCOW03
_chemical_formula_moiety         'C44 H41 F1 O2'
_chemical_name_systematic        
1,1'-(2-Fluoro-1,4-phenylene)bis(5-phenyl-3-(2-phenylethyl)pent-1-yn-3-ol)
_symmetry_cell_setting           orthorhombic
_symmetry_space_group_name_H-M   'P c a 21'
_symmetry_Int_Tables_number      29
_space_group_name_Hall           'P 2c -2ac'
loop_
_symmetry_equiv_pos_site_id
_symmetry_equiv_pos_as_xyz
1 x,y,z
2 -x,-y,1/2+z
3 1/2+x,-y,z
4 1/2-x,y,1/2+z
_cell_length_a                   21.9024(3)
_cell_length_b                   5.64920(10)
_cell_length_c                   27.5838(4)
_cell_angle_alpha                90
_cell_angle_beta                 90
_cell_angle_gamma                90
_cell_volume                     3412.97
_exptl_crystal_colour            colorless
_exptl_crystal_description       block
_cell_formula_units_Z            4
loop_
_atom_site_label
_atom_site_type_symbol
_atom_site_fract_x
_atom_site_fract_y
_atom_site_fract_z
O1 O 0.70511(5) 0.6564(2) 0.52703(4)
H1 H 0.7293 0.5686 0.5110
C1 C 0.93114(8) 1.4675(3) 0.48293(7)
O2 O 1.17780(5) 1.8533(2) 0.48769(5)
H2 H 1.1682 1.9898 0.4982
C2 C 0.94831(8) 1.0577(3) 0.53543(7)
H3 H 0.9551 0.9192 0.5528
C3 C 0.88143(8) 1.3317(3) 0.49583(7)
H4 H 0.8416 1.3796 0.4865
C4 C 0.99818(7) 1.1935(3) 0.52232(7)
H5 H 1.0372 1.1457 0.5312
C5 C 0.99037(7) 1.4011(3) 0.49586(7)
C6 C 0.88914(7) 1.1245(3) 0.52248(7)
C7 C 1.04210(7) 1.5408(3) 0.48102(7)
C8 C 1.08552(7) 1.6488(3) 0.46780(7)
C9 C 0.83719(7) 0.9857(3) 0.53667(7)
C10 C 0.79395(7) 0.8741(3) 0.54953(6)
C11 C 1.14001(7) 1.7737(3) 0.44824(6)
C12 C 1.12014(7) 1.9966(3) 0.42079(6)
H6 H 1.0970 2.1007 0.4431
H7 H 1.1569 2.0839 0.4100
C13 C 1.08045(8) 1.9401(3) 0.37667(7)
H8 H 1.1062 1.8627 0.3518
H9 H 1.0485 1.8257 0.3864
C14 C 1.05001(8) 2.1541(3) 0.35433(7)
C15 C 1.08010(8) 2.2912(3) 0.32002(7)
H10 H 1.1208 2.2529 0.3110
C16 C 1.05100(11) 2.4850(4) 0.29878(7)
H11 H 1.0718 2.5777 0.2753
C17 C 0.99170(11) 2.5420(4) 0.31203(9)
H12 H 0.9717 2.6732 0.2974
C18 C 0.96207(10) 2.4088(4) 0.34616(9)
H13 H 0.9216 2.4489 0.3555
C19 C 0.99060(9) 2.2170(4) 0.36708(8)
H14 H 0.9694 2.1260 0.3906
C20 C 1.17547(7) 1.5960(3) 0.41666(6)
H15 H 1.1867 1.4580 0.4369
H16 H 1.1482 1.5387 0.3906
C21 C 1.23362(7) 1.6961(3) 0.39348(7)
H17 H 1.2226 1.8231 0.3704
H18 H 1.2598 1.7660 0.4190
C22 C 1.26857(7) 1.5049(3) 0.36716(7)
C23 C 1.26956(11) 1.4981(4) 0.31699(9)
H19 H 1.2489 1.6168 0.2990
C24 C 1.33109(8) 1.1514(3) 0.36779(9)
H20 H 1.3524 1.0333 0.3855
C25 C 1.30068(12) 1.3184(5) 0.29266(10)
H21 H 1.3004 1.3148 0.2582
C26 C 1.33169(10) 1.1471(4) 0.31770(9)
H22 H 1.3533 1.0268 0.3009
C27 C 1.29945(8) 1.3280(3) 0.39226(8)
H23 H 1.2989 1.3279 0.4267
C28 C 0.73959(7) 0.7442(3) 0.56765(6)
C29 C 0.70095(7) 0.9166(3) 0.59781(6)
H24 H 0.7260 0.9764 0.6250
H25 H 0.6899 1.0537 0.5773
C30 C 0.64231(7) 0.8073(3) 0.61839(7)
H26 H 0.6192 0.7304 0.5919
H27 H 0.6531 0.6842 0.6425
C31 C 0.60269(7) 0.9930(3) 0.64222(6)
C32 C 0.57715(7) 1.1759(3) 0.61509(7)
H28 H 0.5841 1.1824 0.5811
C33 C 0.54151(8) 1.3494(3) 0.63721(8)
H29 H 0.5239 1.4716 0.6181
C34 C 0.53163(8) 1.3448(3) 0.68657(8)
H30 H 0.5079 1.4649 0.7016
C35 C 0.55670(9) 1.1628(4) 0.71427(8)
H31 H 0.5498 1.1576 0.7483
C36 C 0.59183(8) 0.9888(3) 0.69200(7)
H32 H 0.6087 0.8650 0.7111
C37 C 0.76042(7) 0.5263(3) 0.59655(6)
H33 H 0.7868 0.4267 0.5757
H34 H 0.7242 0.4313 0.6056
C38 C 0.79565(8) 0.5932(3) 0.64261(7)
H35 H 0.8259 0.7173 0.6346
H36 H 0.7668 0.6604 0.6666
C39 C 0.82823(8) 0.3857(3) 0.66507(7)
C40 C 0.80140(8) 0.2519(3) 0.70159(7)
H37 H 0.7614 0.2900 0.7124
C41 C 0.83231(9) 0.0633(3) 0.72254(7)
H38 H 0.8136 -0.0255 0.7477
C42 C 0.89058(9) 0.0043(3) 0.70668(7)
H39 H 0.9119 -0.1243 0.7211
C43 C 0.91737(8) 0.1334(3) 0.66992(8)
H40 H 0.9569 0.0921 0.6586
C44 C 0.88646(8) 0.3239(3) 0.64944(7)
H41 H 0.9054 0.4131 0.6244
F1 F 0.92490(9) 1.6637(4) 0.45704(9)
H42? H 0.6952 0.7688 0.5081
H43? H 0.6743 0.5708 0.5338
F2? F 0.95221(16) 0.8574(6) 0.55815(16)
F3? F 0.82639(19) 1.3798(10) 0.4866(2)
H44? H 0.9242 1.6096 0.4645
H45? H 1.1799 1.7491 0.5099
loop_
_geom_bond_atom_site_label_1
_geom_bond_atom_site_label_2
_geom_bond_site_symmetry_1
_geom_bond_site_symmetry_2
O1 H1 1_555 1_555
C1 C3 1_555 1_555
O2 H2 1_555 1_555
C2 H3 1_555 1_555
C3 H4 1_555 1_555
C4 C2 1_555 1_555
H5 C4 1_555 1_555
C5 C1 1_555 1_555
C6 C2 1_555 1_555
C7 C5 1_555 1_555
C8 C7 1_555 1_555
C9 C6 1_555 1_555
C10 C9 1_555 1_555
C11 O2 1_555 1_555
C12 C11 1_555 1_555
H6 C12 1_555 1_555
H7 C12 1_555 1_555
C13 C12 1_555 1_555
H8 C13 1_555 1_555
H9 C13 1_555 1_555
C14 C13 1_555 1_555
C15 C14 1_555 1_555
H10 C15 1_555 1_555
C16 C15 1_555 1_555
H11 C16 1_555 1_555
C17 C16 1_555 1_555
H12 C17 1_555 1_555
C18 C17 1_555 1_555
H13 C18 1_555 1_555
C19 C14 1_555 1_555
H14 C19 1_555 1_555
C20 C11 1_555 1_555
H15 C20 1_555 1_555
H16 C20 1_555 1_555
C21 C20 1_555 1_555
H17 C21 1_555 1_555
H18 C21 1_555 1_555
C22 C21 1_555 1_555
C23 C22 1_555 1_555
H19 C23 1_555 1_555
C24 H20 1_555 1_555
C25 C23 1_555 1_555
H21 C25 1_555 1_555
C26 C24 1_555 1_555
H22 C26 1_555 1_555
C27 C22 1_555 1_555
H23 C27 1_555 1_555
C28 O1 1_555 1_555
C29 C28 1_555 1_555
H24 C29 1_555 1_555
H25 C29 1_555 1_555
C30 C29 1_555 1_555
H26 C30 1_555 1_555
H27 C30 1_555 1_555
C31 C30 1_555 1_555
C32 C31 1_555 1_555
H28 C32 1_555 1_555
C33 C32 1_555 1_555
H29 C33 1_555 1_555
C34 C33 1_555 1_555
H30 C34 1_555 1_555
C35 C34 1_555 1_555
H31 C35 1_555 1_555
C36 C31 1_555 1_555
H32 C36 1_555 1_555
C37 C28 1_555 1_555
H33 C37 1_555 1_555
H34 C37 1_555 1_555
C38 C37 1_555 1_555
H35 C38 1_555 1_555
H36 C38 1_555 1_555
C39 C38 1_555 1_555
C40 C39 1_555 1_555
H37 C40 1_555 1_555
C41 C40 1_555 1_555
H38 C41 1_555 1_555
C42 C41 1_555 1_555
H39 C42 1_555 1_555
C43 C42 1_555 1_555
H40 C43 1_555 1_555
C44 C39 1_555 1_555
H41 C44 1_555 1_555
F1 C1 1_555 1_555
C3 C6 1_555 1_555
C4 C5 1_555 1_555
C8 C11 1_555 1_555
C10 C28 1_555 1_555
C18 C19 1_555 1_555
C24 C27 1_555 1_555
C25 C26 1_555 1_555
C35 C36 1_555 1_555
C43 C44 1_555 1_555

#END
