
#######################################################################
#
#                 Cambridge Crystallographic Data Centre
#                                CCDC 
#
#######################################################################
#
# If this CIF has been generated from an entry in the Cambridge 
# Structural Database, then it will include bibliographic, chemical, 
# crystal, experimental, refinement or atomic coordinate data resulting 
# from the CCDC's data processing and validation procedures.
#
#######################################################################

data_ZITLAR
_chemical_formula_moiety         'C26 H22 Br2 N2 O2'
_chemical_name_systematic        
'Methyl 3-anilino-2,3-bis(4-bromophenyl)-2-(1H-pyrrol-2-yl)propanoate'
_symmetry_cell_setting           monoclinic
_symmetry_space_group_name_H-M   'P 21/c'
_symmetry_Int_Tables_number      14
_space_group_name_Hall           '-P 2ybc'
loop_
_symmetry_equiv_pos_site_id
_symmetry_equiv_pos_as_xyz
1 x,y,z
2 -x,1/2+y,1/2-z
3 -x,-y,-z
4 x,1/2-y,1/2+z
_cell_length_a                   17.2028(7)
_cell_length_b                   8.9767(4)
_cell_length_c                   16.3989(7)
_cell_angle_alpha                90
_cell_angle_beta                 109.7480(10)
_cell_angle_gamma                90
_cell_volume                     2383.45
_exptl_crystal_colour            colorless
_exptl_crystal_description       block
_cell_formula_units_Z            4
loop_
_atom_site_label
_atom_site_type_symbol
_atom_site_fract_x
_atom_site_fract_y
_atom_site_fract_z
Br1 Br 0.41927(3) 0.59158(5) 0.35509(3)
Br2 Br 0.03661(3) -0.16058(6) 0.78616(3)
O1 O 0.1112(2) 0.4253(4) 0.4777(2)
O2 O 0.14330(17) 0.4579(3) 0.6186(2)
N1 N 0.16941(19) 0.1911(5) 0.4135(2)
H1 H 0.1549 0.2810 0.3972
N2 N 0.30476(17) 0.3572(3) 0.69857(19)
H2 H 0.2641 0.3950 0.7108
C1 C 0.1579(2) 0.1472(4) 0.6331(2)
C2 C 0.2042(2) 0.0850(5) 0.7107(3)
H3 H 0.2608 0.1026 0.7326
C3 C 0.1682(2) -0.0034(5) 0.7570(3)
H4 H 0.2001 -0.0423 0.8104
C4 C 0.0857(2) -0.0335(4) 0.7244(3)
C5 C 0.0369(2) 0.0250(4) 0.6461(2)
H5 H -0.0194 0.0043 0.6242
C6 C 0.0730(2) 0.1147(4) 0.6011(2)
H6 H 0.0405 0.1548 0.5483
C7 C 0.32188(19) 0.3559(4) 0.5552(2)
C8 C 0.3189(2) 0.5086(4) 0.5470(2)
H7 H 0.2972 0.5650 0.5818
C9 C 0.3477(2) 0.5801(4) 0.4877(3)
H8 H 0.3449 0.6832 0.4821
C10 C 0.3804(2) 0.4958(5) 0.4376(2)
C11 C 0.3850(2) 0.3452(4) 0.4441(2)
H9 H 0.4077 0.2897 0.4098
C12 C 0.35517(19) 0.2759(4) 0.5031(2)
H10 H 0.3576 0.1726 0.5077
C13 C 0.3845(2) 0.3756(4) 0.7562(2)
C14 C 0.4498(2) 0.2852(4) 0.7553(2)
H11 H 0.4417 0.2130 0.7126
C15 C 0.5269(2) 0.3025(5) 0.8179(3)
H12 H 0.5700 0.2402 0.8175
C16 C 0.5408(3) 0.4112(5) 0.8809(3)
H13 H 0.5927 0.4232 0.9226
C17 C 0.4766(3) 0.5006(5) 0.8806(3)
H14 H 0.4852 0.5740 0.9227
C18 C 0.3995(2) 0.4844(4) 0.8193(2)
H15 H 0.3569 0.5474 0.8203
C19 C 0.1783(3) 0.0819(8) 0.3610(3)
H16 H 0.1709 0.0913 0.3023
C20 C 0.2000(3) -0.0434(8) 0.4087(4)
H17 H 0.2094 -0.1362 0.3886
C21 C 0.2060(2) -0.0082(5) 0.4959(3)
H18 H 0.2202 -0.0729 0.5429
C22 C 0.1865(2) 0.1399(5) 0.4960(2)
C23 C 0.19340(19) 0.2375(4) 0.5746(2)
C24 C 0.1437(2) 0.3830(5) 0.5488(3)
C25 C 0.1012(3) 0.6007(5) 0.6043(4)
H19 H 0.1048 0.6436 0.6591
H20 H 0.0443 0.5867 0.5698
H21 H 0.1269 0.6662 0.5747
C26 C 0.28851(19) 0.2762(4) 0.6184(2)
H22 H 0.3181 0.1812 0.6330
loop_
_geom_bond_atom_site_label_1
_geom_bond_atom_site_label_2
_geom_bond_site_symmetry_1
_geom_bond_site_symmetry_2
Br1 C10 1_555 1_555
Br2 C4 1_555 1_555
O1 C24 1_555 1_555
O2 C24 1_555 1_555
N1 H1 1_555 1_555
N2 H2 1_555 1_555
C1 C2 1_555 1_555
C2 H3 1_555 1_555
C3 C2 1_555 1_555
H4 C3 1_555 1_555
C4 C3 1_555 1_555
C5 C4 1_555 1_555
H5 C5 1_555 1_555
C6 C1 1_555 1_555
H6 C6 1_555 1_555
C7 C8 1_555 1_555
C8 H7 1_555 1_555
C9 C8 1_555 1_555
H8 C9 1_555 1_555
C10 C9 1_555 1_555
C11 C10 1_555 1_555
H9 C11 1_555 1_555
C12 C7 1_555 1_555
H10 C12 1_555 1_555
C13 N2 1_555 1_555
C14 C13 1_555 1_555
H11 C14 1_555 1_555
C15 C14 1_555 1_555
H12 C15 1_555 1_555
C16 C15 1_555 1_555
H13 C16 1_555 1_555
C17 C16 1_555 1_555
H14 C17 1_555 1_555
C18 C13 1_555 1_555
H15 C18 1_555 1_555
C19 N1 1_555 1_555
H16 C19 1_555 1_555
C20 C19 1_555 1_555
H17 C20 1_555 1_555
C21 C20 1_555 1_555
H18 C21 1_555 1_555
C22 N1 1_555 1_555
C23 C1 1_555 1_555
C24 C23 1_555 1_555
C25 O2 1_555 1_555
H19 C25 1_555 1_555
H20 C25 1_555 1_555
H21 C25 1_555 1_555
C26 N2 1_555 1_555
H22 C26 1_555 1_555
C5 C6 1_555 1_555
C7 C26 1_555 1_555
C11 C12 1_555 1_555
C17 C18 1_555 1_555
C21 C22 1_555 1_555
C22 C23 1_555 1_555
C23 C26 1_555 1_555

#END
