
#######################################################################
#
#                 Cambridge Crystallographic Data Centre
#                                CCDC 
#
#######################################################################
#
# If this CIF has been generated from an entry in the Cambridge 
# Structural Database, then it will include bibliographic, chemical, 
# crystal, experimental, refinement or atomic coordinate data resulting 
# from the CCDC's data processing and validation procedures.
#
#######################################################################

data_ZITNOH
_chemical_formula_moiety         'C25 H21 N1 O4'
_chemical_name_systematic        
'1-Benzoyl-4-hydroxy-6-phenyl-1,2,3,4-tetrahydropyridin-3-yl benzoate'
_symmetry_cell_setting           monoclinic
_symmetry_space_group_name_H-M   'P 21'
_symmetry_Int_Tables_number      4
_space_group_name_Hall           'P 2yb'
loop_
_symmetry_equiv_pos_site_id
_symmetry_equiv_pos_as_xyz
1 x,y,z
2 -x,1/2+y,-z
_cell_length_a                   12.275(3)
_cell_length_b                   6.5434(13)
_cell_length_c                   13.779(3)
_cell_angle_alpha                90
_cell_angle_beta                 111.17(3)
_cell_angle_gamma                90
_cell_volume                     1032.04
_exptl_crystal_colour            colorless
_exptl_crystal_description       block
_cell_formula_units_Z            2
loop_
_atom_site_label
_atom_site_type_symbol
_atom_site_fract_x
_atom_site_fract_y
_atom_site_fract_z
O1 O 0.47490(17) -0.2247(4) 0.46482(14)
H1 H 0.5087 -0.3297 0.4595
O2 O 0.43808(15) -0.0232(3) 0.28231(11)
O3 O 0.43838(19) -0.1118(3) 0.12458(13)
O4 O 0.23405(15) 0.3979(2) 0.23661(12)
N1 N 0.20403(16) 0.0565(3) 0.23962(13)
C1 C 0.2379(2) -0.1393(3) 0.20680(17)
H2 H 0.2348 -0.1290 0.1342
H3 H 0.1829 -0.2477 0.2099
C2 C 0.3609(2) -0.1928(4) 0.27849(17)
H4 H 0.3885 -0.3193 0.2537
C3 C 0.3625(2) -0.2232(4) 0.38867(18)
H5 H 0.3271 -0.3601 0.3906
C4 C 0.2878(2) -0.0674(3) 0.41437(17)
H6 H 0.2893 -0.0639 0.4838
C5 C 0.21962(19) 0.0665(3) 0.34713(16)
C6 C 0.1475(2) 0.2190(4) 0.37735(17)
C7 C 0.1975(3) 0.3379(4) 0.46612(19)
H7 H 0.2785 0.3248 0.5059
C8 C 0.1308(3) 0.4746(4) 0.4969(2)
H8 H 0.1656 0.5546 0.5578
C9 C 0.0122(3) 0.4949(5) 0.4386(3)
H9 H -0.0339 0.5892 0.4595
C10 C -0.0385(3) 0.3775(5) 0.3499(2)
H10 H -0.1196 0.3899 0.3105
C11 C 0.0295(2) 0.2420(4) 0.31901(19)
H11 H -0.0050 0.1640 0.2573
C12 C 0.4668(2) 0.0038(4) 0.19736(17)
C13 C 0.5350(2) 0.1959(4) 0.20435(17)
C14 C 0.5579(2) 0.3295(4) 0.28780(17)
H12 H 0.5331 0.2961 0.3437
C15 C 0.6166(2) 0.5110(5) 0.2898(2)
H13 H 0.6317 0.6025 0.3467
C16 C 0.6534(2) 0.5585(5) 0.2086(2)
H14 H 0.6937 0.6830 0.2098
C17 C 0.6319(2) 0.4264(6) 0.1261(2)
H15 H 0.6583 0.4592 0.0712
C18 C 0.5714(2) 0.2446(5) 0.12274(19)
H16 H 0.5552 0.1548 0.0651
C19 C 0.20888(18) 0.2372(3) 0.18934(16)
C20 C 0.17331(18) 0.2337(3) 0.07306(16)
C21 C 0.2254(2) 0.3768(4) 0.02835(17)
H17 H 0.2852 0.4640 0.0714
C22 C 0.1894(2) 0.3911(4) -0.07927(18)
H18 H 0.2244 0.4889 -0.1099
C23 C 0.1025(2) 0.2630(4) -0.14208(18)
H19 H 0.0789 0.2720 -0.2156
C24 C 0.0497(2) 0.1216(4) -0.09802(18)
H20 H -0.0101 0.0345 -0.1412
C25 C 0.08472(19) 0.1081(3) 0.00939(17)
H21 H 0.0481 0.0126 0.0397
loop_
_geom_bond_atom_site_label_1
_geom_bond_atom_site_label_2
_geom_bond_site_symmetry_1
_geom_bond_site_symmetry_2
O1 H1 1_555 1_555
O2 C2 1_555 1_555
O3 C12 1_555 1_555
O4 C19 1_555 1_555
N1 C1 1_555 1_555
C1 H2 1_555 1_555
H3 C1 1_555 1_555
C2 C1 1_555 1_555
H4 C2 1_555 1_555
C3 O1 1_555 1_555
H5 C3 1_555 1_555
C4 C3 1_555 1_555
H6 C4 1_555 1_555
C5 N1 1_555 1_555
C6 C5 1_555 1_555
C7 C6 1_555 1_555
H7 C7 1_555 1_555
C8 C7 1_555 1_555
H8 C8 1_555 1_555
C9 C8 1_555 1_555
H9 C9 1_555 1_555
C10 C9 1_555 1_555
H10 C10 1_555 1_555
C11 C6 1_555 1_555
H11 C11 1_555 1_555
C12 O2 1_555 1_555
C13 C12 1_555 1_555
C14 C13 1_555 1_555
H12 C14 1_555 1_555
C15 C14 1_555 1_555
H13 C15 1_555 1_555
C16 C15 1_555 1_555
H14 C16 1_555 1_555
C17 C16 1_555 1_555
H15 C17 1_555 1_555
C18 C13 1_555 1_555
H16 C18 1_555 1_555
C19 N1 1_555 1_555
C20 C19 1_555 1_555
C21 C20 1_555 1_555
H17 C21 1_555 1_555
C22 C21 1_555 1_555
H18 C22 1_555 1_555
C23 C22 1_555 1_555
H19 C23 1_555 1_555
C24 C23 1_555 1_555
H20 C24 1_555 1_555
C25 C20 1_555 1_555
H21 C25 1_555 1_555
C2 C3 1_555 1_555
C4 C5 1_555 1_555
C10 C11 1_555 1_555
C17 C18 1_555 1_555
C24 C25 1_555 1_555

#END
