
#######################################################################
#
#                 Cambridge Crystallographic Data Centre
#                                CCDC 
#
#######################################################################
#
# If this CIF has been generated from an entry in the Cambridge 
# Structural Database, then it will include bibliographic, chemical, 
# crystal, experimental, refinement or atomic coordinate data resulting 
# from the CCDC's data processing and validation procedures.
#
#######################################################################

data_ZITPID
_chemical_formula_moiety         'C12 H13 Br1 N4 O3'
_chemical_name_systematic        
'Methyl 4-azido-2-(4-bromophenyl)-2-formamidobutanoate'
_symmetry_cell_setting           orthorhombic
_symmetry_space_group_name_H-M   'P 21 21 21'
_symmetry_Int_Tables_number      19
_space_group_name_Hall           'P 2ac 2ab'
loop_
_symmetry_equiv_pos_site_id
_symmetry_equiv_pos_as_xyz
1 x,y,z
2 1/2-x,-y,1/2+z
3 -x,1/2+y,1/2-z
4 1/2+x,1/2-y,-z
_cell_length_a                   6.6800(13)
_cell_length_b                   8.9210(18)
_cell_length_c                   23.376(5)
_cell_angle_alpha                90
_cell_angle_beta                 90
_cell_angle_gamma                90
_cell_volume                     1393.03
_exptl_crystal_colour            colorless
_exptl_crystal_description       prismatic
_cell_formula_units_Z            4
loop_
_atom_site_label
_atom_site_type_symbol
_atom_site_fract_x
_atom_site_fract_y
_atom_site_fract_z
Br1 Br 0.72806(8) 0.07645(5) 0.02856(2)
O1 O 0.4053(5) 0.4150(4) 0.25159(13)
O2 O 0.3678(6) 0.8554(3) 0.12887(15)
O3 O 0.2372(5) 0.6958(3) 0.06460(12)
N1 N 0.4204(6) 0.6426(4) 0.20729(15)
H1 H 0.449(9) 0.741(6) 0.211(2)
N2 N -0.0838(8) 0.8043(5) 0.1512(2)
N3 N -0.0696(7) 0.9380(5) 0.16275(18)
N4 N -0.0581(9) 1.0644(6) 0.1683(2)
C1 C 0.3066(7) 0.5974(4) 0.15689(16)
C2 C 0.4083(7) 0.4642(4) 0.12655(18)
C3 C 0.5970(7) 0.4853(5) 0.10331(19)
H2 H 0.6596 0.5804 0.1069
C4 C 0.6977(7) 0.3703(5) 0.0748(2)
H3 H 0.8267 0.3855 0.0587
C5 C 0.6017(8) 0.2333(5) 0.07090(18)
C6 C 0.4156(7) 0.2075(5) 0.0944(2)
H4 H 0.3540 0.1118 0.0914
C7 C 0.3207(7) 0.3238(5) 0.12250(19)
H5 H 0.1932 0.3072 0.1393
C8 C 0.4592(7) 0.5473(5) 0.25034(19)
H6 H 0.5333 0.5842 0.2820
C9 C 0.3086(7) 0.7327(4) 0.11562(18)
C10 C 0.2141(8) 0.8190(5) 0.0246(2)
H7 H 0.1024 0.8827 0.0368
H8 H 0.1867 0.7791 -0.0137
H9 H 0.3375 0.8783 0.0237
C11 C 0.0866(7) 0.5666(5) 0.17327(19)
H10 H 0.0138 0.5329 0.1387
H11 H 0.0832 0.4836 0.2013
C12 C -0.0231(8) 0.7006(5) 0.1986(2)
H12 H -0.1432 0.6661 0.2196
H13 H 0.0653 0.7539 0.2258
loop_
_geom_bond_atom_site_label_1
_geom_bond_atom_site_label_2
_geom_bond_site_symmetry_1
_geom_bond_site_symmetry_2
Br1 C5 1_555 1_555
O1 C8 1_555 1_555
O2 C9 1_555 1_555
O3 C9 1_555 1_555
N1 H1 1_555 1_555
N2 N3 1_555 1_555
N3 N4 1_555 1_555
C1 N1 1_555 1_555
C2 C1 1_555 1_555
C3 C2 1_555 1_555
H2 C3 1_555 1_555
C4 C3 1_555 1_555
H3 C4 1_555 1_555
C5 C4 1_555 1_555
C6 C5 1_555 1_555
H4 C6 1_555 1_555
C7 C2 1_555 1_555
H5 C7 1_555 1_555
C8 N1 1_555 1_555
H6 C8 1_555 1_555
C9 C1 1_555 1_555
C10 O3 1_555 1_555
H7 C10 1_555 1_555
H8 C10 1_555 1_555
H9 C10 1_555 1_555
C11 C1 1_555 1_555
H10 C11 1_555 1_555
H11 C11 1_555 1_555
C12 N2 1_555 1_555
H12 C12 1_555 1_555
H13 C12 1_555 1_555
C6 C7 1_555 1_555
C11 C12 1_555 1_555

#END
