
#######################################################################
#
#                 Cambridge Crystallographic Data Centre
#                                CCDC 
#
#######################################################################
#
# If this CIF has been generated from an entry in the Cambridge 
# Structural Database, then it will include bibliographic, chemical, 
# crystal, experimental, refinement or atomic coordinate data resulting 
# from the CCDC's data processing and validation procedures.
#
#######################################################################

data_ZITYUY
_chemical_formula_moiety         'C22 H18 N4 O4,H2 O1'
_chemical_name_systematic        
'5a-Hydroxy-2-methyl-4-(4-oxoquinazolin-3(4H)-yl)-4,5,5a,9c-tetrahydro-3H-2a,9b-diazacyclopenta[jk]fluorene-1,3(2H)-dione monohydrate'
_symmetry_cell_setting           monoclinic
_symmetry_space_group_name_H-M   'C 2'
_symmetry_Int_Tables_number      5
_space_group_name_Hall           'C 2y'
loop_
_symmetry_equiv_pos_site_id
_symmetry_equiv_pos_as_xyz
1 x,y,z
2 -x,y,-z
3 1/2+x,1/2+y,z
4 1/2-x,1/2+y,-z
_cell_length_a                   27.1139(17)
_cell_length_b                   8.5424(5)
_cell_length_c                   8.8326(6)
_cell_angle_alpha                90
_cell_angle_beta                 95.562(6)
_cell_angle_gamma                90
_cell_volume                     2036.16
_exptl_crystal_colour            colorless
_exptl_crystal_description       needle
_cell_formula_units_Z            4
loop_
_atom_site_label
_atom_site_type_symbol
_atom_site_fract_x
_atom_site_fract_y
_atom_site_fract_z
O1 O 0.13188(6) -1.13388(16) -0.45007(17)
N1 N 0.15446(6) -1.07618(18) -0.06226(18)
O2 O 0.11620(5) -0.88075(16) 0.05199(16)
N2 N 0.08283(6) -0.74070(18) -0.21695(19)
C1 C 0.15108(8) -0.8892(2) -0.3177(2)
C2 C 0.10744(7) -0.8913(2) -0.2224(2)
C3 C 0.16702(7) -1.0570(2) -0.3462(2)
C4 C 0.16978(7) -1.1527(2) -0.1969(2)
C5 C 0.21962(8) -1.0678(2) -0.3886(2)
C6 C 0.25042(8) -1.1381(2) -0.2732(2)
N3 N 0.22265(6) -1.18181(19) -0.1533(2)
C7 C 0.03316(8) -0.7292(2) -0.2677(3)
C8 C 0.12539(7) -0.9480(2) -0.0634(2)
C9 C 0.23430(9) -1.1647(3) -0.0016(3)
N4 N 0.09375(7) -0.47147(19) -0.1568(3)
O3 O 0.27560(6) -1.1765(2) 0.06461(18)
C10 C 0.30086(8) -1.1541(2) -0.2816(3)
C11 C 0.23935(9) -1.0108(3) -0.5152(3)
C12 C 0.01444(9) -0.5702(2) -0.2702(3)
C13 C 0.18800(8) -1.1230(3) 0.0707(3)
C14 C 0.31962(10) -1.0945(2) -0.4083(3)
C15 C 0.10970(9) -0.6130(3) -0.1609(3)
C16 C 0.28992(10) -1.0253(3) -0.5235(3)
C17 C 0.04473(9) -0.4490(3) -0.2132(3)
C18 C 0.16830(12) -1.2558(3) 0.1625(3)
C19 C -0.03388(10) -0.5381(3) -0.3336(4)
C20 C 0.02661(12) -0.2945(3) -0.2166(5)
C21 C -0.05079(12) -0.3865(4) -0.3437(5)
C22 C -0.02082(13) -0.2672(4) -0.2807(6)
O4 O 0.00939(6) -0.84608(16) -0.30916(19)
H1 H 0.1420(6) -0.8448(18) -0.4215(19)
H2 H 0.1777(7) -0.831(2) -0.262(2)
H3 H 0.3523(8) -1.103(2) -0.407(2)
H4 H 0.1375(9) -1.224(3) 0.207(2)
H5 H 0.1444(8) -0.627(2) -0.124(2)
H6 H 0.3214(7) -1.208(2) -0.201(2)
H7 H 0.0833(7) -0.9664(19) -0.2697(18)
H8 H 0.1943(11) -1.282(3) 0.252(3)
H9 H 0.1533(6) -1.248(2) -0.2096(18)
H10 H 0.3026(8) -0.991(3) -0.616(2)
H11 H 0.2187(7) -0.963(2) -0.591(2)
H12 H 0.1944(7) -1.037(2) 0.132(2)
H13 H 0.1598(9) -1.346(3) 0.094(3)
H14 H 0.1210(10) -1.080(3) -0.518(3)
H15 H -0.0545(8) -0.629(3) -0.379(2)
H16 H -0.0288(12) -0.162(4) -0.288(3)
H17 H -0.0864(12) -0.376(4) -0.393(4)
H18 H 0.0478(11) -0.202(4) -0.164(3)
O5 O -0.09087(7) -0.91891(18) -0.3472(2)
H19 H -0.0983(7) -0.917(2) -0.260(2)
H20 H -0.0613(11) -0.889(4) -0.357(4)
loop_
_geom_bond_atom_site_label_1
_geom_bond_atom_site_label_2
_geom_bond_site_symmetry_1
_geom_bond_site_symmetry_2
O1 C3 1_555 1_555
N1 C4 1_555 1_555
O2 C8 1_555 1_555
N2 C2 1_555 1_555
C1 C2 1_555 1_555
C2 C8 1_555 1_555
C3 C1 1_555 1_555
C4 C3 1_555 1_555
C5 C3 1_555 1_555
C6 C5 1_555 1_555
N3 C4 1_555 1_555
C7 N2 1_555 1_555
C8 N1 1_555 1_555
C9 N3 1_555 1_555
N4 C15 1_555 1_555
O3 C9 1_555 1_555
C10 C6 1_555 1_555
C11 C5 1_555 1_555
C12 C7 1_555 1_555
C13 N1 1_555 1_555
C14 C10 1_555 1_555
C15 N2 1_555 1_555
C16 C11 1_555 1_555
C17 N4 1_555 1_555
C18 C13 1_555 1_555
C19 C12 1_555 1_555
C20 C17 1_555 1_555
C21 C19 1_555 1_555
C22 C20 1_555 1_555
O4 C7 1_555 1_555
H1 C1 1_555 1_555
H2 C1 1_555 1_555
H3 C14 1_555 1_555
H4 C18 1_555 1_555
H5 C15 1_555 1_555
H6 C10 1_555 1_555
H7 C2 1_555 1_555
H8 C18 1_555 1_555
H9 C4 1_555 1_555
H10 C16 1_555 1_555
H11 C11 1_555 1_555
H12 C13 1_555 1_555
H13 C18 1_555 1_555
H14 O1 1_555 1_555
H15 C19 1_555 1_555
H16 C22 1_555 1_555
H17 C21 1_555 1_555
H18 C20 1_555 1_555
O5 H19 1_555 1_555
H20 O5 1_555 1_555
C6 N3 1_555 1_555
C9 C13 1_555 1_555
C12 C17 1_555 1_555
C14 C16 1_555 1_555
C21 C22 1_555 1_555

#END
