
#######################################################################
#
#                 Cambridge Crystallographic Data Centre
#                                CCDC 
#
#######################################################################
#
# If this CIF has been generated from an entry in the Cambridge 
# Structural Database, then it will include bibliographic, chemical, 
# crystal, experimental, refinement or atomic coordinate data resulting 
# from the CCDC's data processing and validation procedures.
#
#######################################################################

data_ZITYOS
_chemical_formula_moiety         'C22 H17 Br1 N4 O4,H2 O1'
_chemical_name_systematic        
'7-Bromo-5a-hydroxy-2-methyl-4-(4-oxoquinazolin-3(4H)-yl)-4,5,5a,9c-tetrahydro-3H-2a,9b-diazacyclopenta[jk]fluorene-1,3(2H)-dione monohydrate'
_symmetry_cell_setting           monoclinic
_symmetry_space_group_name_H-M   'C 2'
_symmetry_Int_Tables_number      5
_space_group_name_Hall           'C 2y'
loop_
_symmetry_equiv_pos_site_id
_symmetry_equiv_pos_as_xyz
1 x,y,z
2 -x,y,-z
3 1/2+x,1/2+y,z
4 1/2-x,1/2+y,-z
_cell_length_a                   27.292(6)
_cell_length_b                   8.981(2)
_cell_length_c                   9.344(2)
_cell_angle_alpha                90
_cell_angle_beta                 103.646(4)
_cell_angle_gamma                90
_cell_volume                     2225.65
_exptl_crystal_colour            colorless
_exptl_crystal_description       block
_cell_formula_units_Z            4
loop_
_atom_site_label
_atom_site_type_symbol
_atom_site_fract_x
_atom_site_fract_y
_atom_site_fract_z
Br1 Br 0.18865(2) 0.30000(7) 0.61726(8)
N1 N 0.40539(15) 0.8014(6) 0.1647(6)
O1 O 0.38001(12) 0.1757(4) 0.4543(4)
H1 H 0.3872 0.2339 0.5237
C1 C 0.2188(2) 0.2355(6) 0.4646(6)
N2 N 0.42097(14) 0.5496(4) 0.2297(5)
O2 O 0.49922(14) 0.4570(5) 0.3202(6)
C2 C 0.28920(17) 0.2187(5) 0.3605(5)
C3 C 0.34279(17) 0.2400(5) 0.3398(5)
C4 C 0.35532(18) 0.3999(6) 0.3119(6)
H2 H 0.3650 0.4533 0.4046
H3 H 0.3260 0.4486 0.2509
C5 C 0.39873(17) 0.4015(5) 0.2343(5)
H4 H 0.4252 0.3348 0.2880
N3 N 0.35291(16) 0.2141(5) 0.0741(4)
C6 C 0.34143(17) 0.1431(5) 0.2020(5)
H5 H 0.3628 0.0551 0.2295
N4 N 0.28891(16) 0.0973(5) 0.1461(5)
C7 C 0.3914(2) 0.6660(6) 0.1711(6)
H6 H 0.3575 0.6455 0.1316
C8 C 0.47263(19) 0.5651(6) 0.2807(6)
C9 C 0.26891(19) 0.2719(6) 0.4714(6)
H7 H 0.2877 0.3295 0.5475
C10 C 0.26023(19) 0.1385(6) 0.2466(6)
C11 C 0.3190(2) 0.1561(6) -0.0626(6)
H8 H 0.3077 0.2389 -0.1306
C12 C 0.37972(18) 0.3398(5) 0.0798(6)
C13 C 0.1896(2) 0.1574(6) 0.3502(7)
H9 H 0.1559 0.1394 0.3477
C14 C 0.4901(2) 0.7196(7) 0.2832(7)
C15 C 0.2103(2) 0.1050(7) 0.2383(7)
H10 H 0.1913 0.0496 0.1607
C16 C 0.4560(2) 0.8295(6) 0.2222(7)
C17 C 0.2747(2) 0.1006(8) -0.0032(7)
O3 O 0.23321(18) 0.0698(7) -0.0765(5)
C18 C 0.3423(3) 0.0366(8) -0.1406(7)
H11 H 0.3698 0.0784 -0.1750
H12 H 0.3173 -0.0011 -0.2227
H13 H 0.3546 -0.0432 -0.0732
O4 O 0.38574(15) 0.4035(4) -0.0311(4)
C19 C 0.5404(2) 0.7551(8) 0.3475(9)
H14 H 0.5632 0.6810 0.3885
C20 C 0.5553(3) 0.9005(10) 0.3492(14)
H15 H 0.5888 0.9248 0.3912
C21 C 0.4739(3) 0.9784(8) 0.2279(12)
H16 H 0.4520 1.0549 0.1879
C22 C 0.5226(3) 1.0096(9) 0.2911(14)
H17 H 0.5337 1.1076 0.2947
O5 O 0.40332(15) 0.3723(5) 0.6850(5)
H18 H 0.4332 0.3984 0.6840
H19 H 0.3988 0.3826 0.7714
loop_
_geom_bond_atom_site_label_1
_geom_bond_atom_site_label_2
_geom_bond_site_symmetry_1
_geom_bond_site_symmetry_2
Br1 C1 1_555 1_555
N1 C7 1_555 1_555
O1 H1 1_555 1_555
C1 C9 1_555 1_555
N2 C5 1_555 1_555
O2 C8 1_555 1_555
C2 C3 1_555 1_555
C3 O1 1_555 1_555
C4 C3 1_555 1_555
H2 C4 1_555 1_555
H3 C4 1_555 1_555
C5 C4 1_555 1_555
H4 C5 1_555 1_555
N3 C6 1_555 1_555
C6 C3 1_555 1_555
H5 C6 1_555 1_555
N4 C6 1_555 1_555
C7 N2 1_555 1_555
H6 C7 1_555 1_555
C8 N2 1_555 1_555
C9 C2 1_555 1_555
H7 C9 1_555 1_555
C10 C2 1_555 1_555
C11 N3 1_555 1_555
H8 C11 1_555 1_555
C12 C5 1_555 1_555
C13 C1 1_555 1_555
H9 C13 1_555 1_555
C14 C8 1_555 1_555
C15 C10 1_555 1_555
H10 C15 1_555 1_555
C16 N1 1_555 1_555
C17 N4 1_555 1_555
O3 C17 1_555 1_555
C18 C11 1_555 1_555
H11 C18 1_555 1_555
H12 C18 1_555 1_555
H13 C18 1_555 1_555
O4 C12 1_555 1_555
C19 C14 1_555 1_555
H14 C19 1_555 1_555
C20 C19 1_555 1_555
H15 C20 1_555 1_555
C21 C16 1_555 1_555
H16 C21 1_555 1_555
C22 C20 1_555 1_555
H17 C22 1_555 1_555
O5 H18 1_555 1_555
H19 O5 1_555 1_555
N3 C12 1_555 1_555
N4 C10 1_555 1_555
C11 C17 1_555 1_555
C13 C15 1_555 1_555
C14 C16 1_555 1_555
C21 C22 1_555 1_555

#END
