
#######################################################################
#
#                 Cambridge Crystallographic Data Centre
#                                CCDC 
#
#######################################################################
#
# If this CIF has been generated from an entry in the Cambridge 
# Structural Database, then it will include bibliographic, chemical, 
# crystal, experimental, refinement or atomic coordinate data resulting 
# from the CCDC's data processing and validation procedures.
#
#######################################################################

data_ZITZAF
_chemical_formula_moiety         'C22 H18 N4 O4'
_chemical_name_systematic        
5a-Hydroxy-2-methyl-4-(4-oxoquinazolin-3(4H)-yl)-4,5,5a,9c-tetrahydro-3H-2a,9b-diazacyclopenta[jk]fluorene-1,3(2H)-dione
_symmetry_cell_setting           orthorhombic
_symmetry_space_group_name_H-M   'P 21 21 21'
_symmetry_Int_Tables_number      19
_space_group_name_Hall           'P 2ac 2ab'
loop_
_symmetry_equiv_pos_site_id
_symmetry_equiv_pos_as_xyz
1 x,y,z
2 1/2-x,-y,1/2+z
3 -x,1/2+y,1/2-z
4 1/2+x,1/2-y,-z
_cell_length_a                   7.5547(12)
_cell_length_b                   15.716(3)
_cell_length_c                   15.716
_cell_angle_alpha                90
_cell_angle_beta                 90
_cell_angle_gamma                90
_cell_volume                     1865.96
_exptl_crystal_colour            colorless
_exptl_crystal_description       cylinder
_cell_formula_units_Z            4
loop_
_atom_site_label
_atom_site_type_symbol
_atom_site_fract_x
_atom_site_fract_y
_atom_site_fract_z
N1 N 0.00906(16) 0.68434(7) 0.17563(8)
N2 N 0.07643(15) 0.87719(7) 0.05372(7)
C1 C 0.27170(19) 0.98582(9) -0.04100(9)
O1 O 0.22083(17) 0.71944(8) 0.07965(8)
C2 C -0.3145(2) 0.69976(10) 0.42203(10)
H1 H -0.2789 0.6516 0.4518
C3 C -0.27549(17) 0.71035(9) 0.33722(9)
O2 O -0.40065(14) 0.77654(8) 0.13934(7)
H2 H -0.4805 0.8084 0.1547
O3 O 0.27311(16) 0.88175(9) 0.16282(7)
C4 C -0.12519(17) 0.84398(8) 0.17648(9)
H3 H -0.1817 0.8984 0.1661
H4 H -0.0403 0.8509 0.2222
C5 C 0.02323(19) 0.90649(8) -0.02404(8)
H5 H -0.0847 0.8868 -0.0445
N3 N -0.17666(17) 0.65525(7) 0.28445(8)
C6 C -0.03255(17) 0.81287(8) 0.09624(8)
H6 H -0.1250 0.7958 0.0560
C7 C 0.33682(18) 0.96076(9) 0.03753(10)
O4 O 0.01346(18) 0.58057(8) 0.37042(8)
C8 C 0.23170(19) 0.90486(9) 0.09190(9)
C9 C -0.26319(16) 0.77749(8) 0.20046(8)
C10 C 0.08062(19) 0.73367(8) 0.11460(8)
N4 N 0.10858(17) 0.95866(8) -0.07127(7)
C11 C -0.42480(19) 0.84461(10) 0.33146(10)
H7 H -0.4627 0.8924 0.3016
C12 C 0.3738(2) 1.03959(10) -0.09273(11)
H8 H 0.3308 1.0572 -0.1453
C13 C -0.0235(2) 0.61253(9) 0.30302(10)
C14 C -0.32822(17) 0.78189(9) 0.29149(8)
C15 C 0.0964(2) 0.61678(9) 0.22484(9)
H9 H 0.0919 0.5629 0.1936
C16 C 0.5039(2) 0.98904(11) 0.06493(13)
H10 H 0.5473 0.9727 0.1178
C17 C -0.4086(2) 0.76381(12) 0.46073(10)
H11 H -0.4357 0.7589 0.5183
C18 C -0.17618(17) 0.68828(8) 0.19803(8)
H12 H -0.2445 0.6505 0.1609
C19 C -0.4643(2) 0.83506(11) 0.41707(11)
H13 H -0.5287 0.8769 0.4452
C20 C 0.6026(2) 1.04103(12) 0.01284(14)
H14 H 0.7138 1.0594 0.0303
C21 C 0.5366(2) 1.06599(11) -0.06550(13)
H15 H 0.6042 1.1013 -0.1001
C22 C 0.2852(2) 0.63667(15) 0.25052(13)
H16 H 0.3581 0.6399 0.2006
H17 H 0.3287 0.5926 0.2873
H18 H 0.2885 0.6902 0.2800
H19? H 0.0671 0.9760 -0.1192
loop_
_geom_bond_atom_site_label_1
_geom_bond_atom_site_label_2
_geom_bond_site_symmetry_1
_geom_bond_site_symmetry_2
N1 C10 1_555 1_555
N2 C5 1_555 1_555
C1 C7 1_555 1_555
O1 C10 1_555 1_555
C2 H1 1_555 1_555
C3 C2 1_555 1_555
O2 H2 1_555 1_555
O3 C8 1_555 1_555
C4 H3 1_555 1_555
H4 C4 1_555 1_555
C5 H5 1_555 1_555
N3 C3 1_555 1_555
C6 N2 1_555 1_555
H6 C6 1_555 1_555
C7 C8 1_555 1_555
O4 C13 1_555 1_555
C8 N2 1_555 1_555
C9 O2 1_555 1_555
C10 C6 1_555 1_555
N4 C1 1_555 1_555
C11 H7 1_555 1_555
C12 C1 1_555 1_555
H8 C12 1_555 1_555
C13 N3 1_555 1_555
C14 C3 1_555 1_555
C15 N1 1_555 1_555
H9 C15 1_555 1_555
C16 C7 1_555 1_555
H10 C16 1_555 1_555
C17 C2 1_555 1_555
H11 C17 1_555 1_555
C18 N1 1_555 1_555
H12 C18 1_555 1_555
C19 C11 1_555 1_555
H13 C19 1_555 1_555
C20 C16 1_555 1_555
H14 C20 1_555 1_555
C21 C12 1_555 1_555
H15 C21 1_555 1_555
C22 C15 1_555 1_555
H16 C22 1_555 1_555
H17 C22 1_555 1_555
H18 C22 1_555 1_555
C4 C6 1_555 1_555
C4 C9 1_555 1_555
C5 N4 1_555 1_555
N3 C18 1_555 1_555
C9 C14 1_555 1_555
C9 C18 1_555 1_555
C11 C14 1_555 1_555
C13 C15 1_555 1_555
C17 C19 1_555 1_555
C20 C21 1_555 1_555

#END
