
#######################################################################
#
#                 Cambridge Crystallographic Data Centre
#                                CCDC 
#
#######################################################################
#
# If this CIF has been generated from an entry in the Cambridge 
# Structural Database, then it will include bibliographic, chemical, 
# crystal, experimental, refinement or atomic coordinate data resulting 
# from the CCDC's data processing and validation procedures.
#
#######################################################################

data_ZITZEJ
_chemical_formula_moiety         'C23 H22 N4 O5'
_chemical_name_systematic        
'Methyl 2-(4a-hydroxy-2-oxo-3-(4-oxoquinazolin-3(4H)-yl)-2,3,4,4a,9,9a-hexahydro-1H-pyrido[2,3-b]indol-1-yl)propanoate'
_symmetry_cell_setting           trigonal
_symmetry_space_group_name_H-M   'P 31'
_symmetry_Int_Tables_number      144
_space_group_name_Hall           'P 31'
loop_
_symmetry_equiv_pos_site_id
_symmetry_equiv_pos_as_xyz
1 x,y,z
2 -y,x-y,1/3+z
3 -x+y,-x,2/3+z
_cell_length_a                   10.6073(15)
_cell_length_b                   10.6073(15)
_cell_length_c                   35.206(10)
_cell_angle_alpha                90
_cell_angle_beta                 90
_cell_angle_gamma                120
_cell_volume                     3430.5
_cell_formula_units_Z            6
loop_
_atom_site_label
_atom_site_type_symbol
_atom_site_fract_x
_atom_site_fract_y
_atom_site_fract_z
O1 O -0.4341(5) -0.8603(5) -0.18656(16)
O2 O -0.9121(5) -1.1224(5) -0.18438(16)
H1 H -0.8490(5) -1.0376(5) -0.18810(16)
N1 N -0.6001(6) -1.0895(5) -0.20059(17)
C1 C -0.8479(7) -1.2003(7) -0.1699(2)
C2 C -0.7488(7) -1.2110(6) -0.1992(2)
H2 H -0.7925(7) -1.2191(6) -0.2242(2)
N2 N -0.7569(6) -1.3479(6) -0.19107(19)
H3 H -0.6911(6) -1.3709(6) -0.19542(19)
C3 C -0.5518(7) -0.9688(7) -0.1806(2)
C4 C -0.9490(6) -1.3568(7) -0.1617(2)
N3 N -0.5477(7) -0.8950(6) -0.1153(2)
C5 C -0.8932(7) -1.4356(7) -0.1747(2)
C6 C -0.5160(9) -1.0862(8) -0.2331(3)
H4 H -0.5590(9) -1.1873(8) -0.2417(3)
O3 O -0.6614(9) -0.7744(8) -0.1049(2)
C7 C -0.6439(7) -0.9706(7) -0.1471(2)
H5 H -0.6921(7) -0.9160(7) -0.1545(2)
C8 C -0.7592(7) -1.1201(7) -0.1356(2)
H6 H -0.8217(7) -1.1137(7) -0.1165(2)
H7 H -0.7145(7) -1.1724(7) -0.1247(2)
C9 C -1.0835(7) -1.4191(8) -0.1441(3)
H8 H -1.1237(7) -1.3642(8) -0.1354(3)
O4 O -0.3572(8) -1.0915(8) -0.1887(4)
N4 N -0.3490(9) -0.8586(10) -0.0786(3)
C10 C -0.4577(9) -0.7137(9) -0.0651(2)
C11 C -1.0993(10) -1.6440(9) -0.1543(3)
H9 H -1.1559(10) -1.7448(9) -0.1524(3)
C12 C -0.3665(11) -0.7585(11) -0.0607(3)
C13 C -0.9682(9) -1.5872(8) -0.1709(3)
H10 H -0.9298(9) -1.6444(8) -0.1791(3)
C14 C -0.4413(9) -0.9330(13) -0.1058(3)
H11 H -0.4369(9) -1.0079(13) -0.1183(3)
C15 C -1.1518(9) -1.5645(10) -0.1406(3)
H12 H -1.2405(9) -1.6111(10) -0.1279(3)
C16 C -0.5666(10) -0.7933(10) -0.0970(3)
C17 C -0.3651(10) -1.0399(11) -0.2232(5)
O5 O -0.2668(10) -0.9785(10) -0.2420(3)
C18 C -0.4625(14) -0.6093(13) -0.0466(3)
H13 H -0.5347(14) -0.5861(13) -0.0513(3)
C19 C -0.2641(16) -0.5735(17) -0.0149(3)
H14 H -0.1967(16) -0.5116(17) 0.0029(3)
C20 C -0.5147(13) -1.0044(10) -0.2655(3)
H15 H -0.4551(13) -1.0110(10) -0.2850(3)
H16 H -0.6122(13) -1.0429(10) -0.2748(3)
H17 H -0.4760(13) -0.9043(10) -0.2585(3)
C21 C -0.3706(15) -0.5455(19) -0.0234(4)
H18 H -0.3729(15) -0.4707(19) -0.0102(4)
C22 C -0.2409(13) -0.6795(14) -0.0285(4)
H19 H -0.1700(13) -0.7018(14) -0.0212(4)
C23 C -0.2108(15) -1.0587(19) -0.1792(6)
H20 H -0.2109(15) -1.0974(19) -0.1545(6)
H21 H -0.1776(15) -1.1018(19) -0.1978(6)
H22 H -0.1471(15) -0.9551(19) -0.1790(6)
O6 O -0.5633(5) -0.4256(6) -0.24874(15)
O7 O -0.0883(5) -0.2092(5) -0.25104(15)
H23 H -0.0392(5) -0.2017(5) -0.23226(15)
N5 N -0.3985(5) -0.4886(6) -0.23437(17)
N6 N -0.2423(6) -0.5925(6) -0.2441(2)
H24 H -0.3087(6) -0.6813(6) -0.2402(2)
C24 C -0.1530(7) -0.3527(7) -0.2653(2)
C25 C -0.0490(7) -0.4051(8) -0.2733(2)
C26 C -0.4500(7) -0.4177(7) -0.2556(2)
N7 N -0.4549(8) -0.3480(8) -0.3201(2)
C27 C -0.2510(7) -0.4613(7) -0.2350(2)
H25 H -0.2071(7) -0.4254(7) -0.2100(2)
C28 C -0.3602(7) -0.3307(8) -0.2883(2)
H26 H -0.3124(7) -0.2282(8) -0.2807(2)
C29 C -0.1082(7) -0.5455(8) -0.2601(2)
C30 C -0.4836(9) -0.5707(9) -0.2033(3)
H27 H -0.4403(9) -0.6278(9) -0.1941(3)
C31 C 0.0822(8) -0.3393(9) -0.2915(3)
H28 H 0.1182(8) -0.2466(9) -0.3016(3)
O8 O -0.6438(7) -0.7369(7) -0.2476(3)
O9 O -0.3381(9) -0.1102(9) -0.3304(2)
C32 C -0.2412(7) -0.3627(8) -0.2993(2)
H29 H -0.1789(7) -0.2935(8) -0.3184(2)
H30 H -0.2841(7) -0.4596(8) -0.3101(2)
C33 C -0.0313(9) -0.6151(9) -0.2634(3)
H31 H -0.0681(9) -0.7080(9) -0.2533(3)
N8 N -0.6520(9) -0.5100(10) -0.3570(4)
C34 C 0.0985(10) -0.5503(13) -0.2812(3)
H32 H 0.1489(10) -0.6003(13) -0.2845(3)
C35 C 0.1579(9) -0.4059(12) -0.2947(3)
H33 H 0.2498(9) -0.3586(12) -0.3058(3)
C36 C -0.4793(14) -0.4765(16) -0.1701(3)
H34 H -0.5388(14) -0.5377(16) -0.1498(3)
H35 H -0.3808(14) -0.4183(16) -0.1614(3)
H36 H -0.5154(14) -0.4140(16) -0.1782(3)
O10 O -0.7368(9) -0.7088(13) -0.1926(4)
C37 C -0.5591(8) -0.4923(12) -0.3294(3)
H37 H -0.5628(8) -0.5713(12) -0.3169(3)
C38 C -0.6354(11) -0.6761(13) -0.2136(4)
C39 C -0.4359(10) -0.2293(11) -0.3397(3)
C40 C -0.7880(13) -0.8426(14) -0.2627(6)
H38 H -0.7769(13) -0.8766(14) -0.2871(6)
H39 H -0.8353(13) -0.9235(14) -0.2456(6)
H40 H -0.8458(13) -0.7967(14) -0.2654(6)
C41 C -0.6394(8) -0.3975(7) -0.37507(19)
C42 C -0.5348(7) -0.2531(8) -0.36848(17)
C43 C -0.5372(9) -0.1427(7) -0.3892(2)
H41 H -0.4673(9) -0.0461(7) -0.3848(2)
C44 C -0.6442(12) -0.1768(12) -0.4165(2)
H42 H -0.6459(12) -0.1030(12) -0.4303(2)
C45 C -0.7488(9) -0.3213(14) -0.42307(19)
H43 H -0.8204(9) -0.3441(14) -0.44133(19)
C46 C -0.7464(7) -0.4316(10) -0.4024(2)
H44 H -0.8164(7) -0.5282(10) -0.4068(2)
H45? H -0.2795(9) -0.8744(10) -0.0726(3)
H46? H -0.7205(9) -0.5960(10) -0.3629(4)
loop_
_geom_bond_atom_site_label_1
_geom_bond_atom_site_label_2
_geom_bond_site_symmetry_1
_geom_bond_site_symmetry_2
O1 C3 1_555 1_555
O2 H1 1_555 1_555
N1 C2 1_555 1_555
C1 O2 1_555 1_555
C2 C1 1_555 1_555
H2 C2 1_555 1_555
N2 C2 1_555 1_555
H3 N2 1_555 1_555
C3 N1 1_555 1_555
C4 C1 1_555 1_555
N3 C7 1_555 1_555
C5 N2 1_555 1_555
C6 N1 1_555 1_555
H4 C6 1_555 1_555
O3 C16 1_555 1_555
C7 C3 1_555 1_555
H5 C7 1_555 1_555
C8 C1 1_555 1_555
H6 C8 1_555 1_555
H7 C8 1_555 1_555
C9 C4 1_555 1_555
H8 C9 1_555 1_555
O4 C17 1_555 1_555
N4 C12 1_555 1_555
C10 C12 1_555 1_555
C11 H9 1_555 1_555
C12 C22 1_555 1_555
C13 C5 1_555 1_555
H10 C13 1_555 1_555
C14 N3 1_555 1_555
H11 C14 1_555 1_555
C15 C9 1_555 1_555
H12 C15 1_555 1_555
C16 N3 1_555 1_555
C17 C6 1_555 1_555
O5 C17 1_555 1_555
C18 C10 1_555 1_555
H13 C18 1_555 1_555
C19 H14 1_555 1_555
C20 C6 1_555 1_555
H15 C20 1_555 1_555
H16 C20 1_555 1_555
H17 C20 1_555 1_555
C21 C18 1_555 1_555
H18 C21 1_555 1_555
C22 C19 1_555 1_555
H19 C22 1_555 1_555
C23 O4 1_555 1_555
H20 C23 1_555 1_555
H21 C23 1_555 1_555
H22 C23 1_555 1_555
O6 C26 1_555 1_555
O7 H23 1_555 1_555
N5 C26 1_555 1_555
N6 H24 1_555 1_555
C24 O7 1_555 1_555
C25 C24 1_555 1_555
C26 C28 1_555 1_555
N7 C28 1_555 1_555
C27 N5 1_555 1_555
H25 C27 1_555 1_555
C28 H26 1_555 1_555
C29 N6 1_555 1_555
C30 N5 1_555 1_555
H27 C30 1_555 1_555
C31 C25 1_555 1_555
H28 C31 1_555 1_555
O8 C38 1_555 1_555
O9 C39 1_555 1_555
C32 C24 1_555 1_555
H29 C32 1_555 1_555
H30 C32 1_555 1_555
C33 C29 1_555 1_555
H31 C33 1_555 1_555
N8 C37 1_555 1_555
C34 C33 1_555 1_555
H32 C34 1_555 1_555
C35 C31 1_555 1_555
H33 C35 1_555 1_555
C36 C30 1_555 1_555
H34 C36 1_555 1_555
H35 C36 1_555 1_555
H36 C36 1_555 1_555
O10 C38 1_555 1_555
C37 N7 1_555 1_555
H37 C37 1_555 1_555
C38 C30 1_555 1_555
C39 N7 1_555 1_555
C40 O8 1_555 1_555
H38 C40 1_555 1_555
H39 C40 1_555 1_555
H40 C40 1_555 1_555
C41 N8 1_555 1_555
C42 C39 1_555 1_555
C43 C42 1_555 1_555
H41 C43 1_555 1_555
C44 C43 1_555 1_555
H42 C44 1_555 1_555
C45 C44 1_555 1_555
H43 C45 1_555 1_555
C46 C41 1_555 1_555
H44 C46 1_555 1_555
C4 C5 1_555 1_555
C7 C8 1_555 1_555
N4 C14 1_555 1_555
C10 C16 1_555 1_555
C11 C13 1_555 1_555
C11 C15 1_555 1_555
C19 C21 1_555 1_555
N6 C27 1_555 1_555
C24 C27 1_555 1_555
C25 C29 1_555 1_555
C28 C32 1_555 1_555
C34 C35 1_555 1_555
C41 C42 1_555 1_555
C45 C46 1_555 1_555

#END
