
#######################################################################
#
#                 Cambridge Crystallographic Data Centre
#                                CCDC 
#
#######################################################################
#
# If this CIF has been generated from an entry in the Cambridge 
# Structural Database, then it will include bibliographic, chemical, 
# crystal, experimental, refinement or atomic coordinate data resulting 
# from the CCDC's data processing and validation procedures.
#
#######################################################################

data_ZIVKAQ01
_chemical_name_common            'Terbutaline hemisulfate'
_chemical_formula_moiety         '2(C12 H20 N1 O3 1+),O4 S1 2-'
_chemical_name_systematic        
'bis(t-Butyl-(2-hydroxy-2-(3,5-dihydroxyphenyl)ethyl)-ammonium) sulfate'
_symmetry_cell_setting           triclinic
_symmetry_space_group_name_H-M   'P -1'
_symmetry_Int_Tables_number      2
_space_group_name_Hall           '-P 1'
loop_
_symmetry_equiv_pos_site_id
_symmetry_equiv_pos_as_xyz
1 x,y,z
2 -x,-y,-z
_cell_length_a                   9.970(7)
_cell_length_b                   11.204(4)
_cell_length_c                   13.397(6)
_cell_angle_alpha                100.86(5)
_cell_angle_beta                 104.40(6)
_cell_angle_gamma                101.54(4)
_cell_volume                     1374.73
_exptl_crystal_colour            white
_exptl_crystal_description       'irregular prism'
_cell_formula_units_Z            2
loop_
_atom_site_label
_atom_site_type_symbol
_atom_site_fract_x
_atom_site_fract_y
_atom_site_fract_z
C1 C 0.3422(11) 0.4998(8) 0.7440(7)
H1 H 0.3659(11) 0.5769(8) 0.7934(7)
C2 C 0.2522(11) 0.3953(11) 0.7564(7)
C3 C 0.2168(9) 0.2800(9) 0.6827(9)
H2 H 0.1566(13) 0.2101(11) 0.6910(13)
C4 C 0.2715(10) 0.2693(7) 0.5965(7)
C5 C 0.3615(9) 0.3738(10) 0.5840(7)
H3 H 0.3981(14) 0.3667(14) 0.5264(8)
C6 C 0.3969(9) 0.4891(8) 0.6578(9)
C7 C 0.2250(17) 0.1492(14) 0.5153(12)
H4 H 0.2775(17) 0.1562(14) 0.4628(12)
C8 C 0.2592(15) 0.0420(13) 0.5675(11)
H5 H 0.3623(15) 0.0544(13) 0.5923(11)
H6 H 0.2231(15) 0.0445(13) 0.6286(11)
C9 C 0.2455(17) -0.1970(15) 0.5204(12)
C10 C 0.1526(17) -0.3117(15) 0.4297(12)
H7 H 0.1684(17) -0.3007(15) 0.3638(12)
H8 H 0.0533(17) -0.3196(15) 0.4246(12)
H9 H 0.1781(17) -0.3863(15) 0.4440(12)
C11 C 0.3984(15) -0.1787(14) 0.5138(12)
H10 H 0.3990(15) -0.1753(14) 0.4428(12)
H11 H 0.4345(15) -0.2478(14) 0.5312(12)
H12 H 0.4579(15) -0.1015(14) 0.5631(12)
C12 C 0.2295(16) -0.2040(14) 0.6275(12)
H13 H 0.1304(16) -0.2156(14) 0.6247(12)
H14 H 0.2856(16) -0.1273(14) 0.6792(12)
H15 H 0.2621(16) -0.2736(14) 0.6473(12)
N1 N 0.1931(12) -0.0814(11) 0.4908(9)
H16 H 0.2080(12) -0.0748(11) 0.4283(9)
H17 H 0.0978(12) -0.0986(11) 0.4804(9)
O1 O 0.0798(11) 0.1198(10) 0.4635(8)
H18 H 0.0562(11) 0.0526(10) 0.4187(8)
O2 O 0.1968(11) 0.4142(10) 0.8388(8)
H19 H 0.1455(11) 0.3475(10) 0.8395(8)
O3 O 0.4921(11) 0.5909(11) 0.6477(9)
H20 H 0.5034(11) 0.6524(11) 0.6961(9)
C13 C 0.3901(9) 0.7579(10) 0.1342(7)
H21 H 0.3290(9) 0.7419(10) 0.1753(7)
C14 C 0.4030(10) 0.6594(7) 0.0599(8)
C15 C 0.4943(11) 0.6833(8) -0.0015(7)
H22 H 0.5029(16) 0.6174(11) -0.0512(9)
C16 C 0.5725(9) 0.8056(10) 0.0115(7)
C17 C 0.5596(10) 0.9041(7) 0.0858(8)
H23 H 0.6120(14) 0.9859(8) 0.0945(12)
C18 C 0.4683(11) 0.8802(9) 0.1472(7)
C19 C 0.6655(17) 0.8300(16) -0.0555(13)
H24 H 0.7145(17) 0.9199(16) -0.0335(13)
C20 C 0.7829(16) 0.7538(15) -0.0438(12)
H25 H 0.8139(16) 0.7495(15) 0.0298(12)
H26 H 0.7391(16) 0.6685(15) -0.0872(12)
C21 C 0.9744(20) 0.7203(18) -0.1404(15)
C22 C 0.8778(20) 0.6700(17) -0.2488(15)
H27 H 0.7894(20) 0.6181(17) -0.2474(15)
H28 H 0.9216(20) 0.6206(17) -0.2911(15)
H29 H 0.8587(20) 0.7382(17) -0.2790(15)
C23 C 0.9964(17) 0.6169(15) -0.0750(13)
H30 H 1.0609(17) 0.6571(15) -0.0049(13)
H31 H 1.0358(17) 0.5567(15) -0.1111(13)
H32 H 0.9057(17) 0.5748(15) -0.0695(13)
C24 C 1.1180(18) 0.8041(15) -0.1322(13)
H33 H 1.1751(18) 0.8333(15) -0.0589(13)
H34 H 1.1035(18) 0.8749(15) -0.1602(13)
H35 H 1.1665(18) 0.7573(15) -0.1723(13)
N2 N 0.9116(13) 0.8067(11) -0.0745(10)
H36 H 0.9816(13) 0.8489(11) -0.0140(10)
H37 H 0.8899(13) 0.8640(11) -0.1105(10)
O4 O 0.5883(11) 0.7999(9) -0.1639(9)
H38 H 0.6440(11) 0.8148(9) -0.1986(9)
O5 O 0.3204(11) 0.5433(10) 0.0487(8)
H39 H 0.3337(11) 0.4927(10) 0.0017(8)
O6 O 0.4563(11) 0.9798(9) 0.2208(8)
H40 H 0.3995(11) 0.9531(9) 0.2515(8)
O7 O 0.2261(12) -0.0568(10) 0.2938(9)
O8 O 0.0246(11) -0.2267(10) 0.1807(8)
O9 O 0.1002(11) -0.0425(9) 0.1238(8)
O10 O 0.0011(11) -0.0282(11) 0.2729(9)
S1 S 0.0859(6) -0.0890(5) 0.2154(4)
loop_
_geom_bond_atom_site_label_1
_geom_bond_atom_site_label_2
_geom_bond_site_symmetry_1
_geom_bond_site_symmetry_2
C1 H1 1_555 1_555
C2 C1 1_555 1_555
C3 C2 1_555 1_555
H2 C3 1_555 1_555
C4 C3 1_555 1_555
C5 C4 1_555 1_555
H3 C5 1_555 1_555
C6 C1 1_555 1_555
C7 C4 1_555 1_555
H4 C7 1_555 1_555
C8 C7 1_555 1_555
H5 C8 1_555 1_555
H6 C8 1_555 1_555
C9 C10 1_555 1_555
C10 H7 1_555 1_555
H8 C10 1_555 1_555
H9 C10 1_555 1_555
C11 C9 1_555 1_555
H10 C11 1_555 1_555
H11 C11 1_555 1_555
H12 C11 1_555 1_555
C12 C9 1_555 1_555
H13 C12 1_555 1_555
H14 C12 1_555 1_555
H15 C12 1_555 1_555
N1 C8 1_555 1_555
H16 N1 1_555 1_555
H17 N1 1_555 1_555
O1 C7 1_555 1_555
H18 O1 1_555 1_555
O2 C2 1_555 1_555
H19 O2 1_555 1_555
O3 C6 1_555 1_555
H20 O3 1_555 1_555
C13 H21 1_555 1_555
C14 C13 1_555 1_555
C15 C14 1_555 1_555
H22 C15 1_555 1_555
C16 C15 1_555 1_555
C17 C16 1_555 1_555
H23 C17 1_555 1_555
C18 C13 1_555 1_555
C19 C16 1_555 1_555
H24 C19 1_555 1_555
C20 C19 1_555 1_555
H25 C20 1_555 1_555
H26 C20 1_555 1_555
C21 C22 1_555 1_555
C22 H27 1_555 1_555
H28 C22 1_555 1_555
H29 C22 1_555 1_555
C23 C21 1_555 1_555
H30 C23 1_555 1_555
H31 C23 1_555 1_555
H32 C23 1_555 1_555
C24 C21 1_555 1_555
H33 C24 1_555 1_555
H34 C24 1_555 1_555
H35 C24 1_555 1_555
N2 C20 1_555 1_555
H36 N2 1_555 1_555
H37 N2 1_555 1_555
O4 C19 1_555 1_555
H38 O4 1_555 1_555
O5 C14 1_555 1_555
H39 O5 1_555 1_555
O6 C18 1_555 1_555
H40 O6 1_555 1_555
O7 S1 1_555 1_555
O8 S1 1_555 1_555
O9 S1 1_555 1_555
O10 S1 1_555 1_555
C5 C6 1_555 1_555
C9 N1 1_555 1_555
C17 C18 1_555 1_555
C21 N2 1_555 1_555

#END
