
#######################################################################
#
#                 Cambridge Crystallographic Data Centre
#                                CCDC 
#
#######################################################################
#
# If this CIF has been generated from an entry in the Cambridge 
# Structural Database, then it will include bibliographic, chemical, 
# crystal, experimental, refinement or atomic coordinate data resulting 
# from the CCDC's data processing and validation procedures.
#
#######################################################################

data_ZIVWEJ
_chemical_formula_moiety         
'C36 H46 N20 Na1 O12 1+,2(C6 H5 N1 O3),Cl1 1-,9(H2 O1)'
_chemical_name_systematic        
'(1,2,3-hexamethylcucurbit[5]uril)-diaqua-sodium chloride 4-nitrophenol solvate nonahydrate'
_symmetry_cell_setting           monoclinic
_symmetry_space_group_name_H-M   'P 21/c'
_symmetry_Int_Tables_number      14
_space_group_name_Hall           '-P 2ybc'
loop_
_symmetry_equiv_pos_site_id
_symmetry_equiv_pos_as_xyz
1 x,y,z
2 -x,1/2+y,1/2-z
3 -x,-y,-z
4 x,1/2-y,1/2+z
_cell_length_a                   16.9174(7)
_cell_length_b                   17.4045(7)
_cell_length_c                   25.4771(8)
_cell_angle_alpha                90
_cell_angle_beta                 126.338(2)
_cell_angle_gamma                90
_cell_volume                     6042.68
_exptl_crystal_colour            colorless
_cell_formula_units_Z            4
loop_
_atom_site_label
_atom_site_type_symbol
_atom_site_fract_x
_atom_site_fract_y
_atom_site_fract_z
O1 O -0.0335(8) -0.2502(5) -0.3510(4)
O2 O 0.1326(7) -0.1762(7) -0.1381(4)
Na1 Na 0.0386(3) -0.2166(2) -0.24391(16)
C1 C 0.2501(5) -0.3334(4) -0.1446(3)
C2 C 0.4059(5) -0.3159(4) -0.0462(4)
C3 C 0.3436(5) -0.3684(4) -0.0337(3)
C4 C 0.3890(5) -0.2570(4) 0.0297(3)
C5 C 0.1670(6) -0.4158(4) -0.1141(4)
H1 H 0.190950 -0.462665 -0.087677
H2 H 0.128488 -0.431146 -0.159983
C6 C 0.2947(5) -0.3512(5) 0.0450(3)
H3 H 0.303791 -0.406731 0.052678
H4 H 0.329777 -0.326104 0.087674
C7 C 0.0164(5) -0.3394(4) -0.1526(3)
C8 C 0.1119(6) -0.3797(5) -0.0411(4)
C9 C 0.0167(6) -0.3323(5) -0.0601(4)
C10 C 0.1618(6) -0.2691(4) 0.0250(3)
C11 C -0.1240(6) -0.2749(5) -0.1695(4)
H5 H -0.155963 -0.289825 -0.214950
H6 H -0.166800 -0.291215 -0.157474
C12 C 0.0078(6) -0.2087(5) -0.0092(4)
H7 H -0.047452 -0.234394 -0.013738
H8 H 0.050815 -0.188731 0.035320
C13 C -0.1139(5) -0.1509(4) -0.2104(3)
C14 C -0.1207(6) -0.1438(5) -0.1205(4)
C15 C -0.1199(6) -0.0590(5) -0.1449(3)
C16 C 0.0241(5) -0.0782(5) -0.0391(4)
C17 C -0.1138(6) -0.0178(5) -0.2399(4)
H9 H -0.147676 0.028756 -0.241422
H10 H -0.147869 -0.036712 -0.284606
C18 C 0.0115(5) 0.0490(4) -0.0837(4)
H11 H -0.044490 0.083915 -0.109515
H12 H 0.048858 0.065305 -0.038025
C19 C 0.0300(6) -0.0225(4) -0.2410(4)
C20 C 0.0386(5) 0.0686(4) -0.1716(3)
H13 H 0.000283 0.116665 -0.189875
C21 C 0.1329(6) 0.0710(4) -0.1675(3)
H14 H 0.142041 0.122188 -0.180112
C22 C 0.1737(5) 0.0550(4) -0.0619(4)
C23 C 0.1829(5) -0.0027(5) -0.2285(3)
H15 H 0.212204 0.045619 -0.229095
H16 H 0.145702 -0.024377 -0.272542
C24 C 0.3116(6) 0.0611(5) -0.0700(4)
H17 H 0.345789 0.077776 -0.024656
H18 H 0.321698 0.100702 -0.092846
C25 C 0.2537(5) -0.1335(4) -0.1961(3)
C26 C 0.3544(5) -0.0339(4) -0.1253(3)
H19 H 0.389199 0.003270 -0.134415
C27 C 0.4112(5) -0.1137(4) -0.0995(3)
H20 H 0.470579 -0.113336 -0.098606
C28 C 0.4077(5) -0.0565(4) -0.0185(3)
C29 C 0.3586(5) -0.2478(4) -0.1506(4)
H21 H 0.318241 -0.264342 -0.196202
H22 H 0.427482 -0.252406 -0.134054
C30 C 0.4878(5) -0.1842(4) 0.0074(3)
H23 H 0.520550 -0.166691 0.052362
H24 H 0.538715 -0.201336 0.002940
C31 C 0.5009(6) -0.3516(5) -0.0290(4)
H25 H 0.543852 -0.362716 0.017299
H26 H 0.486059 -0.398915 -0.053383
H27 H 0.533122 -0.316036 -0.039986
C32 C 0.3829(6) -0.4502(5) -0.0096(4)
H28 H 0.384840 -0.477217 -0.042132
H29 H 0.448545 -0.447629 0.030849
H30 H 0.340156 -0.477428 -0.002318
C33 C 0.1157(8) -0.4605(5) -0.0231(5)
H31 H 0.059858 -0.487867 -0.059500
H32 H 0.175922 -0.483742 -0.011989
H33 H 0.113726 -0.463358 0.014183
C34 C -0.0494(8) -0.3751(7) -0.0505(6)
H34 H -0.076982 -0.418816 -0.079761
H35 H -0.012571 -0.393005 -0.005759
H36 H -0.101948 -0.341582 -0.059527
C35 C -0.2084(7) -0.1616(6) -0.1201(5)
H37 H -0.207762 -0.127657 -0.089614
H38 H -0.268549 -0.153849 -0.163413
H39 H -0.204798 -0.214517 -0.106943
C36 C -0.2028(6) -0.0082(5) -0.1617(4)
H40 H -0.264002 -0.029509 -0.198639
H41 H -0.205163 -0.004488 -0.124666
H42 H -0.193218 0.042622 -0.172777
N1 N 0.3414(5) -0.2991(3) -0.1144(3)
N2 N 0.2471(5) -0.3727(3) -0.0993(3)
N3 N 0.4261(4) -0.2487(3) -0.0041(3)
N4 N 0.3404(4) -0.3280(4) 0.0140(3)
N5 N 0.1026(5) -0.3749(4) -0.1027(3)
N6 N -0.0333(4) -0.3158(4) -0.1296(3)
N7 N 0.1921(4) -0.3346(4) 0.0102(3)
N8 N 0.0615(5) -0.2652(4) -0.0175(3)
N9 N -0.1164(5) -0.1924(4) -0.1652(3)
N10 N -0.1205(4) -0.0750(4) -0.2020(3)
N11 N -0.0295(5) -0.1451(4) -0.0533(3)
N12 N -0.0254(4) -0.0301(4) -0.0896(3)
N13 N -0.0146(4) 0.0018(4) -0.2148(3)
N14 N 0.1161(4) 0.0141(4) -0.2129(3)
N15 N 0.0719(5) 0.0553(4) -0.1047(3)
N16 N 0.2090(4) 0.0555(4) -0.0993(3)
N17 N 0.2628(4) -0.0564(4) -0.1834(3)
N18 N 0.3381(5) -0.1684(3) -0.1482(3)
N19 N 0.3545(4) -0.0095(4) -0.0710(3)
N20 N 0.4365(5) -0.1205(3) -0.0357(3)
O3 O 0.1812(4) -0.3281(3) -0.2028(2)
O4 O -0.0099(4) -0.3342(3) -0.2089(2)
O5 O -0.1101(4) -0.1804(3) -0.2519(2)
O6 O -0.0033(4) -0.0718(3) -0.2851(3)
O7 O 0.1820(4) -0.1656(3) -0.2443(2)
O8 O 0.4018(4) -0.2138(3) 0.0719(2)
O9 O 0.2125(4) -0.2253(3) 0.0680(2)
O10 O 0.1023(4) -0.0647(4) 0.0147(2)
O11 O 0.2223(4) 0.0565(3) -0.0037(2)
O12 O 0.4300(4) -0.0439(3) 0.0360(2)
C37 C 0.3819(8) -0.5681(8) -0.1640(4)
C38 C 0.4300(8) -0.5963(7) -0.1879(4)
H43 H 0.460765 -0.561419 -0.198634
C39 C 0.4351(8) -0.6703(8) -0.1966(4)
H44 H 0.470548 -0.687325 -0.212152
C40 C 0.3883(6) -0.7227(6) -0.1829(4)
C41 C 0.3367(6) -0.6976(7) -0.1562(4)
H45 H 0.306204 -0.732986 -0.145583
C42 C 0.3345(7) -0.6228(6) -0.1476(5)
H46 H 0.301639 -0.604632 -0.130528
N21 N 0.3869(7) -0.8048(5) -0.1968(4)
O13 O 0.3704(6) -0.4934(5) -0.1562(4)
H47 H 0.399380 -0.466419 -0.166762
O14 O 0.4255(9) -0.8232(5) -0.2221(4)
O15 O 0.3481(7) -0.8475(5) -0.1801(4)
C43 C 0.4660(8) -0.1064(11) -0.2216(6)
C44 C 0.4157(16) -0.1674(10) -0.2482(8)
H48 H 0.451531 -0.213553 -0.235156
C45 C 0.3197(14) -0.1742(14) -0.2918(7)
H49 H 0.287422 -0.221895 -0.305271
C46 C 0.2728(12) -0.1072(9) -0.3150(7)
C47 C 0.3162(16) -0.0316(13) -0.2930(10)
H50 H 0.276217 0.012017 -0.312724
C48 C 0.4209(15) -0.0215(12) -0.2408(11)
H51 H 0.454548 0.025059 -0.222360
N22 N 0.1706(12) -0.1035(12) -0.3627(7)
O16 O 0.5631(8) -0.0987(6) -0.1726(5)
H52 H 0.576848 -0.052420 -0.164279
O17 O 0.1319(11) -0.1708(9) -0.3811(5)
O18 O 0.1271(9) -0.0456(7) -0.3765(5)
Cl1 Cl -0.30669(8) -0.37807(7) -0.08318(6)
loop_
_geom_bond_atom_site_label_1
_geom_bond_atom_site_label_2
_geom_bond_site_symmetry_1
_geom_bond_site_symmetry_2
O1 Na1 1_555 1_555
O2 Na1 1_555 1_555
Na1 O3 1_555 1_555
C1 N1 1_555 1_555
C2 C3 1_555 1_555
C3 C32 1_555 1_555
C4 N3 1_555 1_555
C5 H1 1_555 1_555
H2 C5 1_555 1_555
C6 H3 1_555 1_555
H4 C6 1_555 1_555
C7 N5 1_555 1_555
C8 C9 1_555 1_555
C9 C34 1_555 1_555
C10 N7 1_555 1_555
C11 H5 1_555 1_555
H6 C11 1_555 1_555
C12 H7 1_555 1_555
H8 C12 1_555 1_555
C13 N9 1_555 1_555
C14 C15 1_555 1_555
C15 C36 1_555 1_555
C16 N11 1_555 1_555
C17 H9 1_555 1_555
H10 C17 1_555 1_555
C18 H11 1_555 1_555
H12 C18 1_555 1_555
C19 N13 1_555 1_555
C20 H13 1_555 1_555
C21 C20 1_555 1_555
H14 C21 1_555 1_555
C22 N15 1_555 1_555
C23 H15 1_555 1_555
H16 C23 1_555 1_555
C24 H17 1_555 1_555
H18 C24 1_555 1_555
C25 N17 1_555 1_555
C26 H19 1_555 1_555
C27 C26 1_555 1_555
H20 C27 1_555 1_555
C28 N19 1_555 1_555
C29 H21 1_555 1_555
H22 C29 1_555 1_555
C30 H23 1_555 1_555
H24 C30 1_555 1_555
C31 C2 1_555 1_555
H25 C31 1_555 1_555
H26 C31 1_555 1_555
H27 C31 1_555 1_555
C32 H28 1_555 1_555
H29 C32 1_555 1_555
H30 C32 1_555 1_555
C33 C8 1_555 1_555
H31 C33 1_555 1_555
H32 C33 1_555 1_555
H33 C33 1_555 1_555
C34 H34 1_555 1_555
H35 C34 1_555 1_555
H36 C34 1_555 1_555
C35 C14 1_555 1_555
H37 C35 1_555 1_555
H38 C35 1_555 1_555
H39 C35 1_555 1_555
C36 H40 1_555 1_555
H41 C36 1_555 1_555
H42 C36 1_555 1_555
N1 C2 1_555 1_555
N2 C1 1_555 1_555
N3 C2 1_555 1_555
N4 C3 1_555 1_555
N5 C5 1_555 1_555
N6 C7 1_555 1_555
N7 C6 1_555 1_555
N8 C9 1_555 1_555
N9 C11 1_555 1_555
N10 C13 1_555 1_555
N11 C12 1_555 1_555
N12 C15 1_555 1_555
N13 C17 1_555 1_555
N14 C19 1_555 1_555
N15 C18 1_555 1_555
N16 C21 1_555 1_555
N17 C23 1_555 1_555
N18 C25 1_555 1_555
N19 C24 1_555 1_555
N20 C27 1_555 1_555
O3 C1 1_555 1_555
O4 Na1 1_555 1_555
O5 Na1 1_555 1_555
O6 Na1 1_555 1_555
O7 Na1 1_555 1_555
O8 C4 1_555 1_555
O9 C10 1_555 1_555
O10 C16 1_555 1_555
O11 C22 1_555 1_555
O12 C28 1_555 1_555
C37 C38 1_555 1_555
C38 H43 1_555 1_555
C39 C38 1_555 1_555
H44 C39 1_555 1_555
C40 C39 1_555 1_555
C41 C40 1_555 1_555
H45 C41 1_555 1_555
C42 C37 1_555 1_555
H46 C42 1_555 1_555
N21 C40 1_555 1_555
O13 C37 1_555 1_555
H47 O13 1_555 1_555
O14 N21 1_555 1_555
O15 N21 1_555 1_555
C43 C44 1_555 1_555
C44 H48 1_555 1_555
C45 C44 1_555 1_555
H49 C45 1_555 1_555
C46 C45 1_555 1_555
C47 C46 1_555 1_555
H50 C47 1_555 1_555
C48 C43 1_555 1_555
H51 C48 1_555 1_555
N22 C46 1_555 1_555
O16 C43 1_555 1_555
H52 O16 1_555 1_555
O17 N22 1_555 1_555
O18 N22 1_555 1_555
C3 N2 1_555 1_555
C4 N4 1_555 1_555
C5 N2 1_555 1_555
C6 N4 1_555 1_555
C7 O4 1_555 1_555
C8 N5 1_555 1_555
C8 N7 1_555 1_555
C9 N6 1_555 1_555
C10 N8 1_555 1_555
C11 N6 1_555 1_555
C12 N8 1_555 1_555
C13 O5 1_555 1_555
C14 N9 1_555 1_555
C14 N11 1_555 1_555
C15 N10 1_555 1_555
C16 N12 1_555 1_555
C17 N10 1_555 1_555
C18 N12 1_555 1_555
C19 O6 1_555 1_555
C20 N13 1_555 1_555
C20 N15 1_555 1_555
C21 N14 1_555 1_555
C22 N16 1_555 1_555
C23 N14 1_555 1_555
C24 N16 1_555 1_555
C25 O7 1_555 1_555
C26 N17 1_555 1_555
C26 N19 1_555 1_555
C27 N18 1_555 1_555
C28 N20 1_555 1_555
C29 N1 1_555 1_555
C29 N18 1_555 1_555
C30 N3 1_555 1_555
C30 N20 1_555 1_555
C41 C42 1_555 1_555
C47 C48 1_555 1_555

#END
