
#######################################################################
#
#                 Cambridge Crystallographic Data Centre
#                                CCDC 
#
#######################################################################
#
# If this CIF has been generated from an entry in the Cambridge 
# Structural Database, then it will include bibliographic, chemical, 
# crystal, experimental, refinement or atomic coordinate data resulting 
# from the CCDC's data processing and validation procedures.
#
#######################################################################

data_ZIWDOB
_chemical_formula_moiety         'C10 H10 O2'
_chemical_name_systematic        (E)-1-(4-hydroxyphenyl)but-2-en-1-one
_symmetry_cell_setting           monoclinic
_symmetry_space_group_name_H-M   'P 21/c'
_symmetry_Int_Tables_number      14
_space_group_name_Hall           '-P 2ybc'
loop_
_symmetry_equiv_pos_site_id
_symmetry_equiv_pos_as_xyz
1 x,y,z
2 -x,1/2+y,1/2-z
3 -x,-y,-z
4 x,1/2-y,1/2+z
_cell_length_a                   3.998(4)
_cell_length_b                   17.611(18)
_cell_length_c                   11.960(13)
_cell_angle_alpha                90
_cell_angle_beta                 98.75(2)
_cell_angle_gamma                90
_cell_volume                     832.288
_exptl_crystal_colour            colorless
_exptl_crystal_description       block
_cell_formula_units_Z            4
loop_
_atom_site_label
_atom_site_type_symbol
_atom_site_fract_x
_atom_site_fract_y
_atom_site_fract_z
O1 O 0.7596(17) 0.2047(3) 0.6632(4)
H1 H 0.8210 0.2490 0.6606
O2 O 0.0011(17) 0.1508(3) 0.1658(4)
C1 C 0.412(2) 0.2037(4) 0.3639(6)
H2 H 0.4011 0.2348 0.3005
C2 C 0.582(2) 0.2284(4) 0.4658(6)
H3 H 0.6877 0.2755 0.4707
C3 C 0.5958(19) 0.1837(4) 0.5611(6)
C4 C 0.433(2) 0.1144(4) 0.5533(6)
H4 H 0.4342 0.0847 0.6177
C5 C 0.2722(18) 0.0894(4) 0.4526(6)
H5 H 0.1690 0.0420 0.4485
C6 C 0.2564(17) 0.1332(4) 0.3540(5)
C7 C 0.0843(19) 0.1072(4) 0.2440(6)
C8 C 0.005(2) 0.0250(4) 0.2273(6)
H6 H 0.0937 -0.0080 0.2849
C9 C -0.178(2) -0.0042(5) 0.1395(7)
H7 H -0.2724 0.0297 0.0838
C10 C -0.254(2) -0.0854(5) 0.1178(8)
H8 H -0.3942 -0.0910 0.0456
H9 H -0.3711 -0.1052 0.1759
H10 H -0.0468 -0.1129 0.1177
loop_
_geom_bond_atom_site_label_1
_geom_bond_atom_site_label_2
_geom_bond_site_symmetry_1
_geom_bond_site_symmetry_2
O1 H1 1_555 1_555
O2 C7 1_555 1_555
C1 H2 1_555 1_555
C2 C1 1_555 1_555
H3 C2 1_555 1_555
C3 O1 1_555 1_555
C4 C3 1_555 1_555
H4 C4 1_555 1_555
C5 C4 1_555 1_555
H5 C5 1_555 1_555
C6 C1 1_555 1_555
C7 C6 1_555 1_555
C8 C7 1_555 1_555
H6 C8 1_555 1_555
C9 C8 1_555 1_555
H7 C9 1_555 1_555
C10 C9 1_555 1_555
H8 C10 1_555 1_555
H9 C10 1_555 1_555
H10 C10 1_555 1_555
C2 C3 1_555 1_555
C5 C6 1_555 1_555

#END
