
#######################################################################
#
#                 Cambridge Crystallographic Data Centre
#                                CCDC 
#
#######################################################################
#
# If this CIF has been generated from an entry in the Cambridge 
# Structural Database, then it will include bibliographic, chemical, 
# crystal, experimental, refinement or atomic coordinate data resulting 
# from the CCDC's data processing and validation procedures.
#
#######################################################################

data_ZIWFET
_chemical_formula_moiety         'C19 H22 N2'
_chemical_name_systematic        
1-(2-cyclopropyl-5-methyl-1H-indol-1-yl)cyclohexane-1-carbonitrile
_symmetry_cell_setting           monoclinic
_symmetry_space_group_name_H-M   'C c'
_symmetry_Int_Tables_number      9
_space_group_name_Hall           'C -2yc'
loop_
_symmetry_equiv_pos_site_id
_symmetry_equiv_pos_as_xyz
1 x,y,z
2 x,-y,1/2+z
3 1/2+x,1/2+y,z
4 1/2+x,1/2-y,1/2+z
_cell_length_a                   17.0119(13)
_cell_length_b                   7.8242(4)
_cell_length_c                   11.9241(8)
_cell_angle_alpha                90
_cell_angle_beta                 106.965(3)
_cell_angle_gamma                90
_cell_volume                     1518.08
_exptl_crystal_colour            colorless
_exptl_crystal_description       parallelepiped
_cell_formula_units_Z            4
loop_
_atom_site_label
_atom_site_type_symbol
_atom_site_fract_x
_atom_site_fract_y
_atom_site_fract_z
N1 N 0.36158(13) 0.0861(3) 0.70595(19)
N2 N 0.19354(17) 0.2275(4) 0.4972(2)
C1 C 0.36335(16) 0.2307(3) 0.7755(2)
C2 C 0.30002(17) 0.3403(4) 0.7843(2)
H1 H 0.2445 0.3202 0.7402
C3 C 0.32117(17) 0.4784(4) 0.8594(2)
H2 H 0.2788 0.5525 0.8671
C4 C 0.40263(17) 0.5139(4) 0.9248(2)
C5 C 0.46458(16) 0.4059(4) 0.9137(2)
H3 H 0.5200 0.4282 0.9570
C6 C 0.44569(15) 0.2643(3) 0.8393(2)
C7 C 0.49424(16) 0.1358(3) 0.8055(2)
H4 H 0.5523 0.1253 0.8347
C8 C 0.44389(16) 0.0311(3) 0.7248(2)
C9 C 0.42075(19) 0.6696(4) 1.0023(3)
H5 H 0.3693 0.7289 0.9984
H6 H 0.4477 0.6347 1.0834
H7 H 0.4571 0.7465 0.9757
C10 C 0.46961(16) -0.1093(4) 0.6607(2)
H8 H 0.4425 -0.1114 0.5742
C11 C 0.55795(18) -0.1657(4) 0.6993(3)
H9 H 0.5952 -0.1098 0.7693
H10 H 0.5838 -0.1968 0.6377
C12 C 0.4930(2) -0.2819(4) 0.7175(3)
H11 H 0.4901 -0.2975 0.7986
H12 H 0.4787 -0.3844 0.6670
C13 C 0.28235(15) 0.0020(3) 0.6453(2)
C14 C 0.28835(17) -0.1551(4) 0.5700(3)
H13 H 0.3133 -0.1208 0.5082
H14 H 0.3243 -0.2422 0.6199
C15 C 0.20327(19) -0.2325(4) 0.5132(3)
H15 H 0.1689 -0.1483 0.4585
H16 H 0.2091 -0.3346 0.4672
C16 C 0.16036(19) -0.2836(4) 0.6040(3)
H17 H 0.1045 -0.3261 0.5636
H18 H 0.1914 -0.3773 0.6533
C17 C 0.15450(17) -0.1329(4) 0.6812(3)
H19 H 0.1309 -0.1716 0.7436
H20 H 0.1172 -0.0457 0.6336
C18 C 0.23895(17) -0.0533(4) 0.7370(2)
H21 H 0.2741 -0.1371 0.7914
H22 H 0.2325 0.0477 0.7836
C19 C 0.23212(16) 0.1318(4) 0.5629(2)
loop_
_geom_bond_atom_site_label_1
_geom_bond_atom_site_label_2
_geom_bond_site_symmetry_1
_geom_bond_site_symmetry_2
N1 C1 1_555 1_555
N2 C19 1_555 1_555
C1 C2 1_555 1_555
C2 H1 1_555 1_555
C3 C2 1_555 1_555
H2 C3 1_555 1_555
C4 C3 1_555 1_555
C5 C4 1_555 1_555
H3 C5 1_555 1_555
C6 C1 1_555 1_555
C7 C6 1_555 1_555
H4 C7 1_555 1_555
C8 N1 1_555 1_555
C9 C4 1_555 1_555
H5 C9 1_555 1_555
H6 C9 1_555 1_555
H7 C9 1_555 1_555
C10 C8 1_555 1_555
H8 C10 1_555 1_555
C11 C10 1_555 1_555
H9 C11 1_555 1_555
H10 C11 1_555 1_555
C12 C10 1_555 1_555
H11 C12 1_555 1_555
H12 C12 1_555 1_555
C13 N1 1_555 1_555
C14 C13 1_555 1_555
H13 C14 1_555 1_555
H14 C14 1_555 1_555
C15 C14 1_555 1_555
H15 C15 1_555 1_555
H16 C15 1_555 1_555
C16 C15 1_555 1_555
H17 C16 1_555 1_555
H18 C16 1_555 1_555
C17 C16 1_555 1_555
H19 C17 1_555 1_555
H20 C17 1_555 1_555
C18 C13 1_555 1_555
H21 C18 1_555 1_555
H22 C18 1_555 1_555
C19 C13 1_555 1_555
C5 C6 1_555 1_555
C7 C8 1_555 1_555
C11 C12 1_555 1_555
C17 C18 1_555 1_555

#END
