
#######################################################################
#
#                 Cambridge Crystallographic Data Centre
#                                CCDC 
#
#######################################################################
#
# If this CIF has been generated from an entry in the Cambridge 
# Structural Database, then it will include bibliographic, chemical, 
# crystal, experimental, refinement or atomic coordinate data resulting 
# from the CCDC's data processing and validation procedures.
#
#######################################################################

data_ZIWFOD
_chemical_formula_moiety         'C19 H18 N2 S1'
_chemical_name_systematic        
(spiro[cyclohexane-1,2'-indol]-3'(1'H)-ylidene)(thiophen-2-yl)acetonitrile
_symmetry_cell_setting           orthorhombic
_symmetry_space_group_name_H-M   'P 21 21 21'
_symmetry_Int_Tables_number      19
_space_group_name_Hall           'P 2ac 2ab'
loop_
_symmetry_equiv_pos_site_id
_symmetry_equiv_pos_as_xyz
1 x,y,z
2 1/2-x,-y,1/2+z
3 -x,1/2+y,1/2-z
4 1/2+x,1/2-y,-z
_cell_length_a                   7.7175(3)
_cell_length_b                   11.0436(5)
_cell_length_c                   18.5564(9)
_cell_angle_alpha                90
_cell_angle_beta                 90
_cell_angle_gamma                90
_cell_volume                     1581.54
_exptl_crystal_colour            yellow
_exptl_crystal_description       parallelepiped
_cell_formula_units_Z            4
loop_
_atom_site_label
_atom_site_type_symbol
_atom_site_fract_x
_atom_site_fract_y
_atom_site_fract_z
S1 S 0.9992(2) 0.76847(12) 0.09738(9)
C1 C 1.0917(18) 0.5453(15) 0.1058(8)
H1 H 1.1011 0.4631 0.1204
N1 N 0.4596(3) 0.39272(17) 0.18793(11)
H2 H 0.350(4) 0.375(2) 0.2012(15)
N2 N 0.8673(3) 0.7279(2) 0.29981(12)
C2 C 0.5059(3) 0.39055(18) 0.11661(12)
C3 C 0.4239(4) 0.3253(2) 0.06139(13)
H3 H 0.3281 0.2739 0.0713
C4 C 0.4868(4) 0.3383(2) -0.00774(13)
H4 H 0.4329 0.2957 -0.0461
C5 C 0.6286(4) 0.4130(2) -0.02218(14)
H5 H 0.6683 0.4214 -0.0704
C6 C 0.7119(3) 0.4749(2) 0.03217(13)
H6 H 0.8099 0.5240 0.0219
C7 C 0.6495(3) 0.46415(19) 0.10314(13)
C8 C 0.6948(3) 0.5240(2) 0.17072(12)
C9 C 0.5567(3) 0.4881(2) 0.22629(12)
C10 C 0.6315(3) 0.4350(2) 0.29615(13)
H7 H 0.6975 0.3606 0.2848
H8 H 0.7127 0.4941 0.3179
C11 C 0.4885(4) 0.4048(2) 0.35053(13)
H9 H 0.4152 0.3390 0.3310
H10 H 0.5418 0.3756 0.3958
C12 C 0.3759(4) 0.5150(2) 0.36658(14)
H11 H 0.2820 0.4917 0.4002
H12 H 0.4470 0.5781 0.3902
C13 C 0.2971(3) 0.5660(2) 0.29780(14)
H13 H 0.2301 0.6400 0.3094
H14 H 0.2162 0.5059 0.2769
C14 C 0.4366(3) 0.5968(2) 0.24255(13)
H15 H 0.5072 0.6650 0.2608
H16 H 0.3804 0.6234 0.1973
C15 C 0.8295(3) 0.6004(2) 0.18370(13)
C16 C 0.9691(3) 0.6257(2) 0.13135(13)
C17 C 1.2058(4) 0.6043(2) 0.05264(14)
H17 H 1.2965 0.5651 0.0270
C18 C 1.1631(4) 0.7212(2) 0.04579(14)
H18 H 1.2290 0.7763 0.0166
C19 C 0.8465(3) 0.6674(2) 0.25006(14)
S2? S 1.0997(9) 0.5179(10) 0.1020(5)
C20? C 0.999(3) 0.7341(18) 0.0974(12)
H19? H 0.9322 0.8057 0.1036
loop_
_geom_bond_atom_site_label_1
_geom_bond_atom_site_label_2
_geom_bond_site_symmetry_1
_geom_bond_site_symmetry_2
S1 C16 1_555 1_555
C1 H1 1_555 1_555
N1 H2 1_555 1_555
N2 C19 1_555 1_555
C2 N1 1_555 1_555
C3 C2 1_555 1_555
H3 C3 1_555 1_555
C4 C3 1_555 1_555
H4 C4 1_555 1_555
C5 C4 1_555 1_555
H5 C5 1_555 1_555
C6 C5 1_555 1_555
H6 C6 1_555 1_555
C7 C2 1_555 1_555
C8 C7 1_555 1_555
C9 N1 1_555 1_555
C10 C9 1_555 1_555
H7 C10 1_555 1_555
H8 C10 1_555 1_555
C11 C10 1_555 1_555
H9 C11 1_555 1_555
H10 C11 1_555 1_555
C12 C11 1_555 1_555
H11 C12 1_555 1_555
H12 C12 1_555 1_555
C13 C12 1_555 1_555
H13 C13 1_555 1_555
H14 C13 1_555 1_555
C14 C9 1_555 1_555
H15 C14 1_555 1_555
H16 C14 1_555 1_555
C15 C8 1_555 1_555
C16 C1 1_555 1_555
C17 C1 1_555 1_555
H17 C17 1_555 1_555
C18 S1 1_555 1_555
H18 C18 1_555 1_555
C19 C15 1_555 1_555
C6 C7 1_555 1_555
C8 C9 1_555 1_555
C13 C14 1_555 1_555
C15 C16 1_555 1_555
C17 C18 1_555 1_555

#END
