
#######################################################################
#
#                 Cambridge Crystallographic Data Centre
#                                CCDC 
#
#######################################################################
#
# If this CIF has been generated from an entry in the Cambridge 
# Structural Database, then it will include bibliographic, chemical, 
# crystal, experimental, refinement or atomic coordinate data resulting 
# from the CCDC's data processing and validation procedures.
#
#######################################################################

data_ZIWNUR
_chemical_formula_moiety         'C21 H17 Cl1 N2 O3'
_chemical_name_systematic        
1a-(2-chlorobenzene-1-carbonyl)-7a-(4-methylphenyl)-1a,4,5,7a-tetrahydrooxireno[3,4]pyrrolo[1,2-a]pyrimidin-7(3H)-one
_symmetry_cell_setting           triclinic
_symmetry_space_group_name_H-M   'P -1'
_symmetry_Int_Tables_number      2
_space_group_name_Hall           '-P 1'
loop_
_symmetry_equiv_pos_site_id
_symmetry_equiv_pos_as_xyz
1 x,y,z
2 -x,-y,-z
_cell_length_a                   8.527(3)
_cell_length_b                   10.675(4)
_cell_length_c                   11.374(4)
_cell_angle_alpha                113.461(4)
_cell_angle_beta                 90.747(4)
_cell_angle_gamma                104.856(4)
_cell_volume                     910.222
_exptl_crystal_colour            colorless
_exptl_crystal_description       block
_cell_formula_units_Z            2
loop_
_atom_site_label
_atom_site_type_symbol
_atom_site_fract_x
_atom_site_fract_y
_atom_site_fract_z
Cl1 Cl 0.08981(9) 0.38405(7) 0.41973(6)
O1 O -0.0832(2) 0.66733(18) 0.28395(18)
C1 C 0.1271(3) 0.1662(2) 0.2026(2)
N1 N -0.2016(2) 0.4276(2) 0.22182(19)
C2 C 0.1111(3) 0.2136(2) 0.3331(2)
C3 C 0.1313(3) 0.2503(2) 0.1233(2)
O2 O 0.2297(2) 0.2493(2) 0.04792(19)
C4 C 0.2316(3) 0.5912(2) 0.2057(2)
C5 C 0.0628(3) 0.4925(2) 0.1725(2)
C6 C -0.1583(3) 0.2997(3) 0.1695(2)
C7 C 0.1536(3) 0.0330(2) 0.1405(2)
H1 H 0.1670 -0.0005 0.0534
N2 N -0.2460(2) 0.1771(2) 0.1507(2)
C8 C 0.0111(3) 0.3354(2) 0.1344(2)
C9 C -0.0782(3) 0.5451(3) 0.2331(2)
C10 C 0.3309(3) 0.5927(3) 0.1101(2)
H2 H 0.2950 0.5269 0.0249
C11 C 0.2897(3) 0.6885(3) 0.3322(2)
H3 H 0.2251 0.6881 0.3974
C12 C 0.5406(3) 0.7913(3) 0.2668(3)
C13 C 0.1209(3) 0.1333(3) 0.4006(3)
H4 H 0.1120 0.1679 0.4886
C14 C 0.1601(3) -0.0496(3) 0.2067(3)
H5 H 0.1753 -0.1392 0.1637
C15 C -0.3635(3) 0.4297(3) 0.2612(3)
H6 H -0.4369 0.4219 0.1911
H7 H -0.3567 0.5181 0.3353
C16 C 0.4827(3) 0.6916(3) 0.1412(3)
H8 H 0.5478 0.6912 0.0761
C17 C 0.4427(3) 0.7860(3) 0.3624(3)
H9 H 0.4807 0.8491 0.4480
C18 C -0.4119(3) 0.1685(3) 0.1883(3)
H10 H -0.4449 0.0912 0.2155
H11 H -0.4872 0.1456 0.1132
C19 C 0.1441(3) 0.0004(3) 0.3360(3)
H12 H 0.1489 -0.0555 0.3804
C20 C 0.7059(3) 0.9001(3) 0.2977(3)
H13 H 0.7899 0.8583 0.3067
H14 H 0.7094 0.9806 0.3770
H15 H 0.7235 0.9307 0.2289
C21 C -0.4260(3) 0.3037(3) 0.2958(3)
H16 H -0.3629 0.3206 0.3750
H17 H -0.5395 0.2935 0.3105
O3 O 0.01104(19) 0.39257(16) 0.03933(14)
loop_
_geom_bond_atom_site_label_1
_geom_bond_atom_site_label_2
_geom_bond_site_symmetry_1
_geom_bond_site_symmetry_2
Cl1 C2 1_555 1_555
O1 C9 1_555 1_555
C1 C2 1_555 1_555
N1 C6 1_555 1_555
C2 C13 1_555 1_555
C3 C1 1_555 1_555
O2 C3 1_555 1_555
C4 C5 1_555 1_555
C5 C8 1_555 1_555
C6 N2 1_555 1_555
C7 C1 1_555 1_555
H1 C7 1_555 1_555
N2 C18 1_555 1_555
C8 C3 1_555 1_555
C9 N1 1_555 1_555
C10 C4 1_555 1_555
H2 C10 1_555 1_555
C11 C4 1_555 1_555
H3 C11 1_555 1_555
C12 C16 1_555 1_555
C13 H4 1_555 1_555
C14 C7 1_555 1_555
H5 C14 1_555 1_555
C15 N1 1_555 1_555
H6 C15 1_555 1_555
H7 C15 1_555 1_555
C16 C10 1_555 1_555
H8 C16 1_555 1_555
C17 C11 1_555 1_555
H9 C17 1_555 1_555
C18 H10 1_555 1_555
H11 C18 1_555 1_555
C19 C13 1_555 1_555
H12 C19 1_555 1_555
C20 C12 1_555 1_555
H13 C20 1_555 1_555
H14 C20 1_555 1_555
H15 C20 1_555 1_555
C21 C15 1_555 1_555
H16 C21 1_555 1_555
H17 C21 1_555 1_555
O3 C5 1_555 1_555
C5 C9 1_555 1_555
C6 C8 1_555 1_555
C8 O3 1_555 1_555
C12 C17 1_555 1_555
C14 C19 1_555 1_555
C18 C21 1_555 1_555

#END
