
#######################################################################
#
#                 Cambridge Crystallographic Data Centre
#                                CCDC 
#
#######################################################################
#
# If this CIF has been generated from an entry in the Cambridge 
# Structural Database, then it will include bibliographic, chemical, 
# crystal, experimental, refinement or atomic coordinate data resulting 
# from the CCDC's data processing and validation procedures.
#
#######################################################################

data_ZIWPAZ
_chemical_formula_moiety         'C20 H15 F1 N2 O2'
_chemical_name_systematic        
8-(4-fluorobenzene-1-carbonyl)-7-phenyl-3,4-dihydropyrrolo[1,2-a]pyrimidin-6(2H)-one
_symmetry_cell_setting           orthorhombic
_symmetry_space_group_name_H-M   'P n a 21'
_symmetry_Int_Tables_number      33
_space_group_name_Hall           'P 2c -2n'
loop_
_symmetry_equiv_pos_site_id
_symmetry_equiv_pos_as_xyz
1 x,y,z
2 -x,-y,1/2+z
3 1/2-x,1/2+y,1/2+z
4 1/2+x,1/2-y,z
_cell_length_a                   9.4992(18)
_cell_length_b                   22.797(4)
_cell_length_c                   7.8840(15)
_cell_angle_alpha                90
_cell_angle_beta                 90
_cell_angle_gamma                90
_cell_volume                     1707.31
_exptl_crystal_colour            colorless
_exptl_crystal_description       block
_cell_formula_units_Z            4
loop_
_atom_site_label
_atom_site_type_symbol
_atom_site_fract_x
_atom_site_fract_y
_atom_site_fract_z
O1 O 0.4718(4) 0.45699(17) 1.1497(6)
O2 O 0.0856(3) 0.64688(13) 1.1278(5)
F1 F 0.3371(4) 0.75579(14) 0.4632(5)
N1 N 0.2355(5) 0.46874(14) 1.0892(5)
N2 N 0.0190(5) 0.51232(16) 1.0112(6)
C1 C 0.7247(6) 0.6656(3) 1.1501(8)
H1 H 0.8019 0.6906 1.1566
C2 C 0.7401(5) 0.6092(4) 1.0928(7)
H2 H 0.8290 0.5954 1.0636
C3 C 0.6247(5) 0.5726(3) 1.0780(6)
H3 H 0.6374 0.5346 1.0383
C4 C 0.4902(4) 0.5913(2) 1.1208(6)
C5 C 0.4777(5) 0.6481(2) 1.1817(5)
H4 H 0.3894 0.6622 1.2126
C6 C 0.5935(5) 0.6844(3) 1.1976(6)
H5 H 0.5823 0.7221 1.2411
C7 C 0.3681(4) 0.55377(18) 1.1011(5)
C8 C 0.2334(4) 0.56838(16) 1.0607(5)
C9 C 0.1473(5) 0.51546(16) 1.0516(5)
C10 C 0.3713(7) 0.4879(2) 1.1169(7)
C11 C 0.1870(9) 0.4085(2) 1.0898(8)
H6 H 0.2363 0.3864 1.0033
H7 H 0.2068 0.3907 1.1990
C12 C 0.0458(9) 0.4071(3) 1.059(2)
H8 H 0.0043 0.3912 1.1619
H9 H 0.0334 0.3772 0.9730
C13 C -0.0430(8) 0.4528(2) 1.0110(10)
H10 H -0.1237 0.4529 1.0864
H11 H -0.0775 0.4446 0.8976
C14 C 0.1717(4) 0.62740(15) 1.0284(6)
C15 C 0.2133(3) 0.66051(15) 0.8758(5)
C16 C 0.1542(5) 0.71512(18) 0.8442(7)
H12 H 0.0863 0.7302 0.9171
C17 C 0.1965(6) 0.7470(2) 0.7037(8)
H13 H 0.1583 0.7837 0.6815
C18 C 0.2941(6) 0.7237(2) 0.5998(6)
C19 C 0.3536(5) 0.67054(19) 0.6241(6)
H14 H 0.4208 0.6562 0.5490
C20 C 0.3123(4) 0.63806(16) 0.7628(5)
H15 H 0.3506 0.6010 0.7810
loop_
_geom_bond_atom_site_label_1
_geom_bond_atom_site_label_2
_geom_bond_site_symmetry_1
_geom_bond_site_symmetry_2
O1 C10 1_555 1_555
O2 C14 1_555 1_555
F1 C18 1_555 1_555
N1 C9 1_555 1_555
N2 C9 1_555 1_555
C1 H1 1_555 1_555
C2 C1 1_555 1_555
H2 C2 1_555 1_555
C3 C2 1_555 1_555
H3 C3 1_555 1_555
C4 C3 1_555 1_555
C5 C4 1_555 1_555
H4 C5 1_555 1_555
C6 C1 1_555 1_555
H5 C6 1_555 1_555
C7 C4 1_555 1_555
C8 C7 1_555 1_555
C9 C8 1_555 1_555
C10 N1 1_555 1_555
C11 N1 1_555 1_555
H6 C11 1_555 1_555
H7 C11 1_555 1_555
C12 C11 1_555 1_555
H8 C12 1_555 1_555
H9 C12 1_555 1_555
C13 N2 1_555 1_555
H10 C13 1_555 1_555
H11 C13 1_555 1_555
C14 C8 1_555 1_555
C15 C14 1_555 1_555
C16 C15 1_555 1_555
H12 C16 1_555 1_555
C17 C16 1_555 1_555
H13 C17 1_555 1_555
C18 C17 1_555 1_555
C19 C18 1_555 1_555
H14 C19 1_555 1_555
C20 C15 1_555 1_555
H15 C20 1_555 1_555
C5 C6 1_555 1_555
C7 C10 1_555 1_555
C12 C13 1_555 1_555
C19 C20 1_555 1_555

#END
