
#######################################################################
#
#                 Cambridge Crystallographic Data Centre
#                                CCDC 
#
#######################################################################
#
# If this CIF has been generated from an entry in the Cambridge 
# Structural Database, then it will include bibliographic, chemical, 
# crystal, experimental, refinement or atomic coordinate data resulting 
# from the CCDC's data processing and validation procedures.
#
#######################################################################

data_ZIWPIH
_chemical_formula_moiety         'C14 H13 N3 O1'
_chemical_name_systematic        
3a,5-dimethyl-4-oxo-3,3a,4,5-tetrahydro-2H-pyrrolo[3,2-c]quinoline-2-carbonitrile
_symmetry_cell_setting           monoclinic
_symmetry_space_group_name_H-M   'P 21/c'
_symmetry_Int_Tables_number      14
_space_group_name_Hall           '-P 2ybc'
loop_
_symmetry_equiv_pos_site_id
_symmetry_equiv_pos_as_xyz
1 x,y,z
2 -x,1/2+y,1/2-z
3 -x,-y,-z
4 x,1/2-y,1/2+z
_cell_length_a                   7.7776(12)
_cell_length_b                   8.3179(13)
_cell_length_c                   18.597(3)
_cell_angle_alpha                90
_cell_angle_beta                 94.015(14)
_cell_angle_gamma                90
_cell_volume                     1200.15
_exptl_crystal_colour            'light colorless'
_exptl_crystal_description       block
_cell_formula_units_Z            4
loop_
_atom_site_label
_atom_site_type_symbol
_atom_site_fract_x
_atom_site_fract_y
_atom_site_fract_z
O1 O 0.6322(2) 0.8743(2) 0.29898(9)
N1 N 0.6094(2) 0.7811(2) 0.41308(10)
N2 N 0.1534(2) 1.0138(2) 0.40787(8)
N3 N 0.0581(3) 1.3677(3) 0.32337(12)
C1 C 0.5125(2) 0.7627(2) 0.47471(11)
C2 C 0.5819(3) 0.6833(3) 0.53601(12)
H1 H 0.6907 0.6370 0.5360
C3 C 0.4906(3) 0.6730(3) 0.59666(12)
H2 H 0.5386 0.6194 0.6371
C4 C 0.3300(3) 0.7402(3) 0.59842(12)
H3 H 0.2699 0.7325 0.6398
C5 C 0.2583(3) 0.8194(3) 0.53846(11)
H4 H 0.1495 0.8654 0.5395
C6 C 0.3479(2) 0.8308(2) 0.47635(10)
C7 C 0.2771(2) 0.9122(2) 0.41144(10)
C8 C 0.3496(3) 0.8688(3) 0.34096(10)
C9 C 0.5424(3) 0.8460(3) 0.34899(12)
C10 C 0.7920(3) 0.7368(4) 0.41858(16)
H5 H 0.8487 0.7879 0.4600
H6 H 0.8445 0.7713 0.3760
H7 H 0.8027 0.6223 0.4233
C11 C 0.2695(3) 0.7074(3) 0.31523(13)
H8 H 0.2884 0.6284 0.3526
H9 H 0.3223 0.6722 0.2728
H10 H 0.1479 0.7210 0.3043
C12 C 0.2873(3) 1.0099(3) 0.29356(11)
H11 H 0.2585 0.9762 0.2442
H12 H 0.3725 1.0950 0.2940
C13 C 0.1262(3) 1.0624(3) 0.33081(11)
H13 H 0.0263 1.0039 0.3089
C14 C 0.0900(3) 1.2346(3) 0.32657(12)
loop_
_geom_bond_atom_site_label_1
_geom_bond_atom_site_label_2
_geom_bond_site_symmetry_1
_geom_bond_site_symmetry_2
O1 C9 1_555 1_555
N1 C1 1_555 1_555
N2 C7 1_555 1_555
N3 C14 1_555 1_555
C1 C2 1_555 1_555
C2 H1 1_555 1_555
C3 C2 1_555 1_555
H2 C3 1_555 1_555
C4 C3 1_555 1_555
H3 C4 1_555 1_555
C5 C4 1_555 1_555
H4 C5 1_555 1_555
C6 C1 1_555 1_555
C7 C6 1_555 1_555
C8 C7 1_555 1_555
C9 N1 1_555 1_555
C10 N1 1_555 1_555
H5 C10 1_555 1_555
H6 C10 1_555 1_555
H7 C10 1_555 1_555
C11 C8 1_555 1_555
H8 C11 1_555 1_555
H9 C11 1_555 1_555
H10 C11 1_555 1_555
C12 C8 1_555 1_555
H11 C12 1_555 1_555
H12 C12 1_555 1_555
C13 N2 1_555 1_555
H13 C13 1_555 1_555
C14 C13 1_555 1_555
C5 C6 1_555 1_555
C8 C9 1_555 1_555
C12 C13 1_555 1_555

#END
