
#######################################################################
#
#                 Cambridge Crystallographic Data Centre
#                                CCDC 
#
#######################################################################
#
# If this CIF has been generated from an entry in the Cambridge 
# Structural Database, then it will include bibliographic, chemical, 
# crystal, experimental, refinement or atomic coordinate data resulting 
# from the CCDC's data processing and validation procedures.
#
#######################################################################

data_ZIWQIF
_chemical_name_common            
'bis(closo-1-Tetramethylethylenediamine-1-magnesium-2,3-bis(trimethylsilyl)-2,3-dicarbaheptaborane(4)) benzene solvate'
_chemical_formula_moiety         'C28 H76 B8 Mg2 N4 Si4,C6 H6'
_chemical_name_systematic        
'bis(closo-1-Tetramethylethylenediamine-1-magnesa-2,3-bis(trimethylsilyl)-2,3-dicarbaheptaborane(4)) benzene solvate'
_symmetry_cell_setting           triclinic
_symmetry_space_group_name_H-M   'P -1'
_symmetry_Int_Tables_number      2
_space_group_name_Hall           '-P 1'
loop_
_symmetry_equiv_pos_site_id
_symmetry_equiv_pos_as_xyz
1 x,y,z
2 -x,-y,-z
_cell_length_a                   13.609(2)
_cell_length_b                   14.391(2)
_cell_length_c                   15.021(2)
_cell_angle_alpha                89.44(1)
_cell_angle_beta                 63.49(1)
_cell_angle_gamma                81.28(1)
_cell_volume                     2596.5
_exptl_crystal_colour            colorless
_cell_formula_units_Z            2
loop_
_atom_site_label
_atom_site_type_symbol
_atom_site_fract_x
_atom_site_fract_y
_atom_site_fract_z
Mg1 Mg 0.0817(1) 0.2958(1) 0.2658(1)
Mg2 Mg 0.2887(1) 0.1686(1) 0.3086(1)
Si1 Si 0.0074(1) 0.2096(1) 0.0314(1)
Si2 Si 0.2704(1) 0.3274(1) -0.0424(1)
Si3 Si 0.3893(1) 0.2691(1) 0.5162(1)
Si4 Si 0.4793(1) 0.3851(1) 0.2616(1)
C1 C 0.0890(2) 0.2175(2) 0.1036(2)
C2 C 0.1924(2) 0.2634(2) 0.0707(2)
B1 B 0.2628(3) 0.2239(2) 0.1257(2)
B2 B 0.1957(3) 0.1455(2) 0.1989(3)
B3 B 0.0819(3) 0.1468(2) 0.1852(3)
B4 B 0.2100(3) 0.1433(2) 0.0754(3)
C3 C 0.3238(2) 0.2740(2) 0.4294(2)
C4 C 0.3608(2) 0.3193(2) 0.3312(2)
B5 B 0.2640(3) 0.3426(2) 0.3011(2)
B6 B 0.1552(3) 0.3070(2) 0.3932(3)
B7 B 0.1989(3) 0.2599(3) 0.4712(2)
B8 B 0.2367(3) 0.3699(2) 0.4263(2)
C5 C -0.0939(3) 0.1254(3) 0.0868(3)
C6 C 0.0983(3) 0.1641(3) -0.1009(2)
C7 C -0.0799(3) 0.3245(2) 0.0338(3)
C8 C 0.1901(3) 0.3951(2) -0.1031(2)
C9 C 0.3842(3) 0.2426(2) -0.1404(2)
C10 C 0.3378(3) 0.4164(2) -0.0094(3)
C11 C 0.5182(3) 0.1784(3) 0.4736(3)
C12 C 0.2927(3) 0.2349(3) 0.6410(3)
C13 C 0.4224(3) 0.3846(3) 0.5408(3)
C14 C 0.4336(3) 0.5137(2) 0.2997(3)
C15 C 0.5222(3) 0.3699(3) 0.1251(2)
C16 C 0.6098(3) 0.3481(3) 0.2756(3)
N1 N -0.1032(2) 0.2914(2) 0.3766(2)
N2 N 0.0076(2) 0.4483(2) 0.2736(2)
C17 C -0.1501(3) 0.3905(2) 0.4107(2)
C18 C -0.1147(3) 0.4521(2) 0.3238(3)
C19 C -0.1662(3) 0.2531(3) 0.3315(3)
C20 C -0.1147(3) 0.2356(3) 0.4625(3)
C21 C 0.0395(3) 0.4843(2) 0.1733(3)
C22 C 0.0373(3) 0.5126(2) 0.3309(3)
N3 N 0.2541(2) 0.0337(2) 0.3965(2)
N4 N 0.4536(2) 0.0743(2) 0.2203(2)
C23 C 0.3392(3) -0.0402(2) 0.3258(3)
C24 C 0.4516(3) -0.0090(2) 0.2804(3)
C25 C 0.2637(3) 0.0346(2) 0.4909(2)
C26 C 0.1410(3) 0.0149(3) 0.4213(3)
C27 C 0.4705(3) 0.0417(2) 0.1206(2)
C28 C 0.5496(3) 0.1191(3) 0.2061(3)
H1 H 0.3510(20) 0.2394(17) 0.0964(18)
H2 H 0.2294(20) 0.0934(17) 0.2344(18)
H3 H 0.0207(21) 0.0967(18) 0.2073(18)
H4 H 0.2516(21) 0.0941(18) 0.0110(18)
H5 H 0.2721(21) 0.3890(17) 0.2380(18)
H6 H 0.0702(21) 0.3262(18) 0.4067(18)
H7 H 0.1559(21) 0.2460(17) 0.5453(18)
H8 H 0.2266(20) 0.4326(17) 0.4636(18)
H9 H -0.0540 0.0647 0.0879
H10 H -0.1467 0.1480 0.1537
H11 H -0.1324 0.1202 0.0474
H12 H 0.1430 0.1054 -0.1015
H13 H 0.0531 0.1541 -0.1329
H14 H 0.1458 0.2086 -0.1359
H15 H -0.1267 0.3480 0.1016
H16 H -0.0327 0.3692 -0.0011
H17 H -0.1254 0.3148 0.0020
H18 H 0.1530 0.3531 -0.1218
H19 H 0.1358 0.4443 -0.0569
H20 H 0.2399 0.4222 -0.1614
H21 H 0.4277 0.2069 -0.1121
H22 H 0.3526 0.2006 -0.1656
H23 H 0.4311 0.2767 -0.1938
H24 H 0.3809 0.3861 0.0220
H25 H 0.3856 0.4432 -0.0689
H26 H 0.2816 0.4653 0.0355
H27 H 0.5021 0.1186 0.4611
H28 H 0.5757 0.1965 0.4135
H29 H 0.5429 0.1734 0.5245
H30 H 0.2732 0.1754 0.6322
H31 H 0.3283 0.2288 0.6839
H32 H 0.2265 0.2814 0.6706
H33 H 0.3570 0.4318 0.5627
H34 H 0.4473 0.3792 0.5915
H35 H 0.4801 0.4022 0.4806
H36 H 0.4115 0.5240 0.3695
H37 H 0.4945 0.5462 0.2620
H38 H 0.3719 0.5370 0.2862
H39 H 0.4583 0.3879 0.1133
H40 H 0.5774 0.4083 0.0888
H41 H 0.5525 0.3049 0.1033
H42 H 0.5934 0.3552 0.3446
H43 H 0.6389 0.2833 0.2519
H44 H 0.6639 0.3867 0.2373
H45 H -0.1230 0.4103 0.4553
H46 H -0.2298 0.3976 0.4460
H47 H -0.1374 0.4296 0.2772
H48 H -0.1507 0.5162 0.3451
H49 H -0.2411 0.2532 0.3818
H50 H -0.1671 0.2924 0.2797
H51 H -0.1323 0.1900 0.3037
H52 H -0.1921 0.2356 0.5059
H53 H -0.0776 0.1720 0.4396
H54 H -0.0815 0.2633 0.4981
H55 H 0.0066 0.5493 0.1797
H56 H 0.1190 0.4784 0.1374
H57 H 0.0129 0.4481 0.1378
H58 H 0.0030 0.5759 0.3305
H59 H 0.0106 0.4944 0.3984
H60 H 0.1166 0.5091 0.3014
H61 H 0.3200 -0.0513 0.2730
H62 H 0.3413 -0.0976 0.3583
H63 H 0.4670 0.0076 0.3341
H64 H 0.5086 -0.0596 0.2395
H65 H 0.2481 -0.0237 0.5216
H66 H 0.3379 0.0425 0.4772
H67 H 0.2114 0.0860 0.5351
H68 H 0.1277 -0.0408 0.4578
H69 H 0.0875 0.0677 0.4615
H70 H 0.1342 0.0063 0.3612
H71 H 0.5418 0.0020 0.0871
H72 H 0.4130 0.0067 0.1275
H73 H 0.4681 0.0951 0.0824
H74 H 0.6173 0.0761 0.1684
H75 H 0.5492 0.1750 0.1707
H76 H 0.5446 0.1356 0.2699
C29 C 0.3031(5) 0.7320(4) 0.1660(5)
C30 C 0.2080(5) 0.7207(4) 0.2423(4)
C31 C 0.1158(5) 0.7838(5) 0.2682(4)
C32 C 0.1201(7) 0.8616(5) 0.2146(7)
C33 C 0.2190(9) 0.8727(4) 0.1364(6)
C34 C 0.3088(6) 0.8070(5) 0.1144(4)
H77 H 0.3690 0.6865 0.1499
H78 H 0.2052 0.6663 0.2804
H79 H 0.0469 0.7742 0.3229
H80 H 0.0542 0.9068 0.2302
H81 H 0.2255 0.9282 0.0995
H82 H 0.3778 0.8128 0.0578
loop_
_geom_bond_atom_site_label_1
_geom_bond_atom_site_label_2
_geom_bond_site_symmetry_1
_geom_bond_site_symmetry_2
Mg1 C1 1_555 1_555
Mg2 C3 1_555 1_555
Si1 C1 1_555 1_555
Si2 C2 1_555 1_555
Si3 C3 1_555 1_555
Si4 C4 1_555 1_555
C1 C2 1_555 1_555
C2 Mg1 1_555 1_555
B1 Mg1 1_555 1_555
B2 Mg1 1_555 1_555
B3 Mg1 1_555 1_555
B4 C1 1_555 1_555
C3 C4 1_555 1_555
C4 Mg2 1_555 1_555
B5 Mg2 1_555 1_555
B6 Mg2 1_555 1_555
B7 Mg2 1_555 1_555
B8 C3 1_555 1_555
C5 Si1 1_555 1_555
C6 Si1 1_555 1_555
C7 Si1 1_555 1_555
C8 Si2 1_555 1_555
C9 Si2 1_555 1_555
C10 Si2 1_555 1_555
C11 Si3 1_555 1_555
C12 Si3 1_555 1_555
C13 Si3 1_555 1_555
C14 Si4 1_555 1_555
C15 Si4 1_555 1_555
C16 Si4 1_555 1_555
N1 Mg1 1_555 1_555
N2 Mg1 1_555 1_555
C17 N1 1_555 1_555
C18 N2 1_555 1_555
C19 N1 1_555 1_555
C20 N1 1_555 1_555
C21 N2 1_555 1_555
C22 N2 1_555 1_555
N3 Mg2 1_555 1_555
N4 Mg2 1_555 1_555
C23 N3 1_555 1_555
C24 N4 1_555 1_555
C25 N3 1_555 1_555
C26 N3 1_555 1_555
C27 N4 1_555 1_555
C28 N4 1_555 1_555
H1 B1 1_555 1_555
H2 Mg2 1_555 1_555
H3 B3 1_555 1_555
H4 B4 1_555 1_555
H5 B5 1_555 1_555
H6 Mg1 1_555 1_555
H7 B7 1_555 1_555
H8 B8 1_555 1_555
H9 C5 1_555 1_555
H10 C5 1_555 1_555
H11 C5 1_555 1_555
H12 C6 1_555 1_555
H13 C6 1_555 1_555
H14 C6 1_555 1_555
H15 C7 1_555 1_555
H16 C7 1_555 1_555
H17 C7 1_555 1_555
H18 C8 1_555 1_555
H19 C8 1_555 1_555
H20 C8 1_555 1_555
H21 C9 1_555 1_555
H22 C9 1_555 1_555
H23 C9 1_555 1_555
H24 C10 1_555 1_555
H25 C10 1_555 1_555
H26 C10 1_555 1_555
H27 C11 1_555 1_555
H28 C11 1_555 1_555
H29 C11 1_555 1_555
H30 C12 1_555 1_555
H31 C12 1_555 1_555
H32 C12 1_555 1_555
H33 C13 1_555 1_555
H34 C13 1_555 1_555
H35 C13 1_555 1_555
H36 C14 1_555 1_555
H37 C14 1_555 1_555
H38 C14 1_555 1_555
H39 C15 1_555 1_555
H40 C15 1_555 1_555
H41 C15 1_555 1_555
H42 C16 1_555 1_555
H43 C16 1_555 1_555
H44 C16 1_555 1_555
H45 C17 1_555 1_555
H46 C17 1_555 1_555
H47 C18 1_555 1_555
H48 C18 1_555 1_555
H49 C19 1_555 1_555
H50 C19 1_555 1_555
H51 C19 1_555 1_555
H52 C20 1_555 1_555
H53 C20 1_555 1_555
H54 C20 1_555 1_555
H55 C21 1_555 1_555
H56 C21 1_555 1_555
H57 C21 1_555 1_555
H58 C22 1_555 1_555
H59 C22 1_555 1_555
H60 C22 1_555 1_555
H61 C23 1_555 1_555
H62 C23 1_555 1_555
H63 C24 1_555 1_555
H64 C24 1_555 1_555
H65 C25 1_555 1_555
H66 C25 1_555 1_555
H67 C25 1_555 1_555
H68 C26 1_555 1_555
H69 C26 1_555 1_555
H70 C26 1_555 1_555
H71 C27 1_555 1_555
H72 C27 1_555 1_555
H73 C27 1_555 1_555
H74 C28 1_555 1_555
H75 C28 1_555 1_555
H76 C28 1_555 1_555
C29 C30 1_555 1_555
C30 C31 1_555 1_555
C31 C32 1_555 1_555
C32 C33 1_555 1_555
C33 C34 1_555 1_555
C34 C29 1_555 1_555
H77 C29 1_555 1_555
H78 C30 1_555 1_555
H79 C31 1_555 1_555
H80 C32 1_555 1_555
H81 C33 1_555 1_555
H82 C34 1_555 1_555
C1 B3 1_555 1_555
C2 B1 1_555 1_555
C2 B4 1_555 1_555
B1 B2 1_555 1_555
B1 B4 1_555 1_555
B2 B3 1_555 1_555
B2 B4 1_555 1_555
B2 H2 1_555 1_555
B3 B4 1_555 1_555
C3 B7 1_555 1_555
C4 B5 1_555 1_555
C4 B8 1_555 1_555
B5 B6 1_555 1_555
B5 B8 1_555 1_555
B6 B7 1_555 1_555
B6 B8 1_555 1_555
B6 H6 1_555 1_555
B7 B8 1_555 1_555
C17 C18 1_555 1_555
C23 C24 1_555 1_555

#END
