
#######################################################################
#
#                 Cambridge Crystallographic Data Centre
#                                CCDC 
#
#######################################################################
#
# If this CIF has been generated from an entry in the Cambridge 
# Structural Database, then it will include bibliographic, chemical, 
# crystal, experimental, refinement or atomic coordinate data resulting 
# from the CCDC's data processing and validation procedures.
#
#######################################################################

data_ZIWREF
_chemical_formula_moiety         'C14 H15 Br1 O3'
_chemical_name_systematic        
6-bromo-6'-methylspiro[1-benzopyran-2,2'-oxan]-4(3H)-one
_symmetry_cell_setting           triclinic
_symmetry_space_group_name_H-M   'P -1'
_symmetry_Int_Tables_number      2
_space_group_name_Hall           '-P 1'
loop_
_symmetry_equiv_pos_site_id
_symmetry_equiv_pos_as_xyz
1 x,y,z
2 -x,-y,-z
_cell_length_a                   7.0855(4)
_cell_length_b                   8.4578(7)
_cell_length_c                   12.5300(5)
_cell_angle_alpha                100.628(5)
_cell_angle_beta                 98.860(4)
_cell_angle_gamma                110.055(7)
_cell_volume                     673.793
_exptl_crystal_colour            'light colorless'
_exptl_crystal_description       block
_cell_formula_units_Z            2
loop_
_atom_site_label
_atom_site_type_symbol
_atom_site_fract_x
_atom_site_fract_y
_atom_site_fract_z
Br1 Br 0.25349(11) 0.75370(9) 0.60316(5)
O1 O 0.6597(4) 0.7153(3) 0.1474(2)
O2 O 0.8161(4) 0.6576(3) 0.3053(2)
O3 O 0.2028(5) 0.3498(4) 0.1949(3)
C1 C 0.6816(6) 0.6744(4) 0.3689(3)
C2 C 0.7648(7) 0.7922(5) 0.4741(3)
H1 H 0.9066 0.8557 0.4976
C3 C 0.6381(8) 0.8144(6) 0.5428(4)
H2 H 0.6938 0.8921 0.6131
C4 C 0.4258(7) 0.7204(6) 0.5071(4)
C5 C 0.3413(6) 0.6020(5) 0.4044(3)
H3 H 0.1995 0.5385 0.3819
C6 C 0.4686(5) 0.5780(4) 0.3347(3)
C7 C 0.3855(6) 0.4456(5) 0.2266(3)
C8 C 0.5384(6) 0.4276(4) 0.1600(3)
H4 H 0.4725 0.3949 0.0811
H5 H 0.5802 0.3348 0.1758
C9 C 0.7296(6) 0.5942(5) 0.1855(3)
C10 C 0.9031(7) 0.5728(6) 0.1360(4)
H6 H 0.8511 0.5188 0.0565
H7 H 0.9543 0.4967 0.1700
C11 C 1.0800(7) 0.7483(7) 0.1548(5)
H8 H 1.1468 0.7945 0.2337
H9 H 1.1819 0.7336 0.1147
C12 C 0.9955(7) 0.8737(6) 0.1138(4)
H10 H 1.1055 0.9880 0.1324
H11 H 0.9468 0.8350 0.0332
C13 C 0.8204(6) 0.8866(4) 0.1650(3)
H12 H 0.8741 0.9398 0.2454
C14 C 0.7109(8) 0.9911(5) 0.1144(4)
H13 H 0.6625 0.9423 0.0351
H14 H 0.8054 1.1098 0.1294
H15 H 0.5955 0.9873 0.1467
loop_
_geom_bond_atom_site_label_1
_geom_bond_atom_site_label_2
_geom_bond_site_symmetry_1
_geom_bond_site_symmetry_2
Br1 C4 1_555 1_555
O1 C9 1_555 1_555
O2 C1 1_555 1_555
O3 C7 1_555 1_555
C1 C2 1_555 1_555
C2 H1 1_555 1_555
C3 C2 1_555 1_555
H2 C3 1_555 1_555
C4 C3 1_555 1_555
C5 C4 1_555 1_555
H3 C5 1_555 1_555
C6 C1 1_555 1_555
C7 C6 1_555 1_555
C8 C7 1_555 1_555
H4 C8 1_555 1_555
H5 C8 1_555 1_555
C9 O2 1_555 1_555
C10 C9 1_555 1_555
H6 C10 1_555 1_555
H7 C10 1_555 1_555
C11 C10 1_555 1_555
H8 C11 1_555 1_555
H9 C11 1_555 1_555
C12 C11 1_555 1_555
H10 C12 1_555 1_555
H11 C12 1_555 1_555
C13 O1 1_555 1_555
H12 C13 1_555 1_555
C14 C13 1_555 1_555
H13 C14 1_555 1_555
H14 C14 1_555 1_555
H15 C14 1_555 1_555
C5 C6 1_555 1_555
C8 C9 1_555 1_555
C12 C13 1_555 1_555

#END
