
#######################################################################
#
#                 Cambridge Crystallographic Data Centre
#                                CCDC 
#
#######################################################################
#
# If this CIF has been generated from an entry in the Cambridge 
# Structural Database, then it will include bibliographic, chemical, 
# crystal, experimental, refinement or atomic coordinate data resulting 
# from the CCDC's data processing and validation procedures.
#
#######################################################################

data_ZIWTOR
_chemical_formula_moiety         'C20 H14 N4 S3'
_chemical_name_systematic        
2,2'-(3,5-dipropylbisthieno[3,2-b:2',3'-d]thiene-2,6-diylidene)dipropanedinitrile
_symmetry_cell_setting           orthorhombic
_symmetry_space_group_name_H-M   'P b c a'
_symmetry_Int_Tables_number      61
_space_group_name_Hall           '-P 2ac 2ab'
loop_
_symmetry_equiv_pos_site_id
_symmetry_equiv_pos_as_xyz
1 x,y,z
2 1/2+x,1/2-y,-z
3 -x,1/2+y,1/2-z
4 1/2-x,-y,1/2+z
5 -x,-y,-z
6 1/2-x,1/2+y,z
7 x,1/2-y,1/2+z
8 1/2+x,y,1/2-z
_cell_length_a                   14.5992(7)
_cell_length_b                   10.4541(4)
_cell_length_c                   25.5360(11)
_cell_angle_alpha                90
_cell_angle_beta                 90
_cell_angle_gamma                90
_cell_volume                     3897.34
_exptl_crystal_colour            black
_exptl_crystal_description       Block
_cell_formula_units_Z            8
loop_
_atom_site_label
_atom_site_type_symbol
_atom_site_fract_x
_atom_site_fract_y
_atom_site_fract_z
S1 S 0.93695(5) 0.07170(8) 0.37803(3)
S2 S 1.22544(5) 0.08437(7) 0.38286(3)
S3 S 1.10271(5) -0.16936(7) 0.47018(3)
N1 N 1.2131(2) 0.4615(3) 0.25086(12)
N2 N 0.8089(2) -0.3767(3) 0.54759(10)
N3 N 1.0993(2) -0.4356(3) 0.55549(12)
N4 N 1.4200(2) 0.2493(3) 0.33174(12)
C1 C 0.8032(3) -0.2377(4) 0.36174(15)
H1 H 0.7756 -0.1588 0.3508
H2 H 0.7753 -0.3076 0.3433
H3 H 0.8676 -0.2357 0.3542
C2 C 0.7893(2) -0.2550(3) 0.41893(13)
H4 H 0.8216 -0.3313 0.4301
H5 H 0.7246 -0.2681 0.4257
C3 C 0.82254(19) -0.1417(3) 0.45135(12)
H6 H 0.7961 -0.0638 0.4373
H7 H 0.8007 -0.1514 0.4870
C4 C 0.92470(19) -0.1287(3) 0.45210(11)
C5 C 0.97335(19) -0.0442(3) 0.42257(11)
C6 C 1.05059(19) 0.1132(3) 0.36639(11)
C7 C 1.0874(2) 0.2006(3) 0.33322(11)
C8 C 1.0322(2) 0.2836(3) 0.29714(12)
H8 H 1.0656 0.2942 0.2646
H9 H 0.9752 0.2402 0.2890
C9 C 1.0103(2) 0.4135(3) 0.31890(13)
H10 H 1.0669 0.4567 0.3281
H11 H 0.9744 0.4038 0.3506
C10 C 0.9579(3) 0.4942(4) 0.28026(16)
H12 H 0.9923 0.5015 0.2484
H13 H 0.9480 0.5778 0.2948
H14 H 0.8999 0.4546 0.2730
C11 C 1.2266(2) 0.3769(3) 0.27792(12)
C12 C 1.2492(2) 0.2759(3) 0.31300(11)
C13 C 1.1857(2) 0.2005(3) 0.33793(10)
C14 C 1.11408(19) 0.0390(2) 0.39678(10)
C15 C 1.07095(18) -0.0489(2) 0.42730(10)
C16 C 0.98695(18) -0.2078(3) 0.48154(10)
C17 C 0.96778(19) -0.3043(3) 0.51616(11)
C18 C 0.8780(2) -0.3429(3) 0.53245(11)
C19 C 1.0404(2) -0.3767(3) 0.53840(12)
C20 C 1.3443(3) 0.2598(3) 0.32320(12)
loop_
_geom_bond_atom_site_label_1
_geom_bond_atom_site_label_2
_geom_bond_site_symmetry_1
_geom_bond_site_symmetry_2
S1 C5 1_555 1_555
S2 C13 1_555 1_555
S3 C15 1_555 1_555
N1 C11 1_555 1_555
N2 C18 1_555 1_555
N3 C19 1_555 1_555
N4 C20 1_555 1_555
C1 H1 1_555 1_555
H2 C1 1_555 1_555
H3 C1 1_555 1_555
C2 C1 1_555 1_555
H4 C2 1_555 1_555
H5 C2 1_555 1_555
C3 C2 1_555 1_555
H6 C3 1_555 1_555
H7 C3 1_555 1_555
C4 C3 1_555 1_555
C5 C4 1_555 1_555
C6 S1 1_555 1_555
C7 C6 1_555 1_555
C8 C7 1_555 1_555
H8 C8 1_555 1_555
H9 C8 1_555 1_555
C9 C8 1_555 1_555
H10 C9 1_555 1_555
H11 C9 1_555 1_555
C10 C9 1_555 1_555
H12 C10 1_555 1_555
H13 C10 1_555 1_555
H14 C10 1_555 1_555
C11 C12 1_555 1_555
C12 C13 1_555 1_555
C13 C7 1_555 1_555
C14 S2 1_555 1_555
C15 C5 1_555 1_555
C16 S3 1_555 1_555
C17 C16 1_555 1_555
C18 C17 1_555 1_555
C19 C17 1_555 1_555
C20 C12 1_555 1_555
C4 C16 1_555 1_555
C6 C14 1_555 1_555
C14 C15 1_555 1_555

#END
