
#######################################################################
#
#                 Cambridge Crystallographic Data Centre
#                                CCDC 
#
#######################################################################
#
# If this CIF has been generated from an entry in the Cambridge 
# Structural Database, then it will include bibliographic, chemical, 
# crystal, experimental, refinement or atomic coordinate data resulting 
# from the CCDC's data processing and validation procedures.
#
#######################################################################

data_ZIXDAL
_chemical_formula_moiety         'C29 H28 F6 N1 O1 1+,Cl1 1-'
_chemical_name_systematic        
'(2S,3S)-2-(Diphenylmethyl)-3-((3,5-bis(trifluoromethyl)benzyl) oxy)-1-azoniabicyclo(2.2.2)octane chloride'
_chemical_properties_biological  'agent which reduces antagonist binding'
_symmetry_cell_setting           triclinic
_symmetry_space_group_name_H-M   'P -1'
_symmetry_Int_Tables_number      2
_space_group_name_Hall           '-P 1'
loop_
_symmetry_equiv_pos_site_id
_symmetry_equiv_pos_as_xyz
1 x,y,z
2 -x,-y,-z
_cell_length_a                   10.158(2)
_cell_length_b                   15.448(2)
_cell_length_c                   8.764(1)
_cell_angle_alpha                91.84(1)
_cell_angle_beta                 100.80(1)
_cell_angle_gamma                89.42(1)
_cell_volume                     1350.19
_exptl_crystal_colour            colorless
_chemical_melting_point          'above 250 deg.C'
_cell_formula_units_Z            2
loop_
_atom_site_label
_atom_site_type_symbol
_atom_site_fract_x
_atom_site_fract_y
_atom_site_fract_z
Cl1 Cl 0.3290(2) 0.0998(1) 0.8624(2)
O1 O -0.0587(3) 0.2194(2) 1.0224(4)
N1 N -0.3636(4) 0.1328(3) 0.9190(5)
C1 C -0.2592(5) 0.2002(3) 1.1810(6)
C2 C -0.3872(5) 0.1987(4) 1.2481(6)
C3 C -0.4556(7) 0.2758(5) 1.2601(9)
C4 C -0.5626(8) 0.2805(7) 1.339(1)
C5 C -0.6011(7) 0.2075(7) 1.403(1)
C6 C -0.5347(7) 0.1316(6) 1.3903(8)
C7 C -0.4281(6) 0.1264(4) 1.3129(7)
C8 C -0.1382(5) 0.1965(3) 1.3154(6)
C9 C -0.0750(5) 0.1194(4) 1.3623(7)
C10 C 0.0339(6) 0.1198(5) 1.4848(7)
C11 C 0.0811(6) 0.1964(5) 1.5599(7)
C12 C 0.0151(6) 0.2720(5) 1.5171(7)
C13 C -0.0932(6) 0.2726(4) 1.3944(7)
C14 C -0.2491(5) 0.1303(3) 1.0565(6)
C15 C -0.1172(5) 0.1353(3) 0.9910(6)
C16 C -0.1460(6) 0.1145(5) 0.8190(7)
C17 C -0.2271(6) 0.0298(5) 0.7914(9)
C18 C -0.3659(6) 0.0491(4) 0.8268(7)
C19 C -0.3499(7) 0.2058(4) 0.8159(7)
C20 C -0.2297(7) 0.1866(5) 0.7351(8)
C21 C 0.0850(6) 0.2152(4) 1.0540(1)
C22 C 0.1395(6) 0.3048(4) 1.0474(8)
C23 C 0.1123(7) 0.3696(4) 1.1492(9)
C24 C 0.1664(7) 0.4522(5) 1.1448(8)
C25 C 0.2445(7) 0.4688(4) 1.0373(9)
C26 C 0.2717(7) 0.4044(4) 0.9359(8)
C27 C 0.2194(6) 0.3222(4) 0.9420(8)
C28 C 0.1395(9) 0.5186(6) 1.259(1)
C29 C 0.3588(9) 0.4214(5) 0.8170(1)
F1 F 0.122(1) 0.5984(6) 1.196(1)
F2 F 0.231(1) 0.5270(7) 1.380(1)
F3 F 0.022(1) 0.5086(7) 1.306(1)
F4 F 0.335(1) 0.3678(6) 0.695(1)
F5 F 0.350(1) 0.5025(6) 0.774(1)
F6 F 0.4865(8) 0.4011(6) 0.880(1)
H1 H -0.2564(5) 0.2563(3) 1.1327(6)
H2 H -0.4298(7) 0.3250(5) 1.2150(9)
H3 H -0.6074(8) 0.3327(7) 1.347(1)
H4 H -0.6728(7) 0.2099(7) 1.455(1)
H5 H -0.5613(7) 0.0824(6) 1.4345(8)
H6 H -0.3840(6) 0.0739(4) 1.3048(7)
H7 H -0.1053(5) 0.0675(4) 1.3120(7)
H8 H 0.0755(6) 0.0678(5) 1.5167(7)
H9 H 0.1567(6) 0.1966(5) 1.6384(7)
H10 H 0.0431(6) 0.3235(5) 1.5707(7)
H11 H -0.1360(6) 0.3246(4) 1.3651(7)
H12 H -0.2508(5) 0.0738(3) 1.1040(6)
H13 H -0.0538(5) 0.0923(3) 1.0422(6)
H14 H -0.0620(6) 0.1075(5) 0.7803(7)
H15 H -0.2342(6) 0.0093(5) 0.6844(9)
H16 H -0.1830(6) -0.0146(5) 0.8589(9)
H17 H -0.4303(6) 0.0531(4) 0.7304(7)
H18 H -0.3932(6) 0.0024(4) 0.8853(7)
H19 H -0.3354(7) 0.2596(4) 0.8767(7)
H20 H -0.4312(7) 0.2117(4) 0.7387(7)
H21 H -0.2615(7) 0.1692(5) 0.6273(8)
H22 H -0.1756(7) 0.2382(5) 0.7379(8)
H23 H 0.1158(6) 0.1773(4) 0.977(1)
H24 H 0.1165(6) 0.1919(4) 1.155(1)
H25 H 0.0581(7) 0.3584(4) 1.2208(9)
H26 H 0.2792(7) 0.5239(4) 1.0331(9)
H27 H 0.2387(6) 0.2785(4) 0.8741(8)
H28 H -0.4421(4) 0.1389(3) 0.9542(5)
F7? F 0.240(1) 0.578(1) 0.292(2)
F8? F 0.136(2) 0.492(1) 1.400(1)
F9? F 0.032(2) 0.564(1) 1.216(2)
F10? F 0.286(1) 0.413(1) 0.673(1)
F11? F 0.417(1) 0.4970(7) 0.839(2)
F12? F 0.457(2) 0.364(1) 0.817(3)
loop_
_geom_bond_atom_site_label_1
_geom_bond_atom_site_label_2
_geom_bond_site_symmetry_1
_geom_bond_site_symmetry_2
O1 C15 1_555 1_555
N1 C14 1_555 1_555
C1 C2 1_555 1_555
C2 C3 1_555 1_555
C3 C4 1_555 1_555
C4 C5 1_555 1_555
C5 C6 1_555 1_555
C6 C7 1_555 1_555
C7 C2 1_555 1_555
C8 C1 1_555 1_555
C9 C8 1_555 1_555
C10 C9 1_555 1_555
C11 C10 1_555 1_555
C12 C11 1_555 1_555
C13 C8 1_555 1_555
C14 C1 1_555 1_555
C15 C14 1_555 1_555
C16 C15 1_555 1_555
C17 C16 1_555 1_555
C18 N1 1_555 1_555
C19 N1 1_555 1_555
C20 C16 1_555 1_555
C21 O1 1_555 1_555
C22 C21 1_555 1_555
C23 C22 1_555 1_555
C24 C23 1_555 1_555
C25 C24 1_555 1_555
C26 C25 1_555 1_555
C27 C22 1_555 1_555
C28 C24 1_555 1_555
C29 C26 1_555 1_555
F1 C28 1_555 1_555
F2 C28 1_555 1_555
F3 C28 1_555 1_555
F4 C29 1_555 1_555
F5 C29 1_555 1_555
F6 C29 1_555 1_555
H1 C1 1_555 1_555
H2 C3 1_555 1_555
H3 C4 1_555 1_555
H4 C5 1_555 1_555
H5 C6 1_555 1_555
H6 C7 1_555 1_555
H7 C9 1_555 1_555
H8 C10 1_555 1_555
H9 C11 1_555 1_555
H10 C12 1_555 1_555
H11 C13 1_555 1_555
H12 C14 1_555 1_555
H13 C15 1_555 1_555
H14 C16 1_555 1_555
H15 C17 1_555 1_555
H16 C17 1_555 1_555
H17 C18 1_555 1_555
H18 C18 1_555 1_555
H19 C19 1_555 1_555
H20 C19 1_555 1_555
H21 C20 1_555 1_555
H22 C20 1_555 1_555
H23 C21 1_555 1_555
H24 C21 1_555 1_555
H25 C23 1_555 1_555
H26 C25 1_555 1_555
H27 C27 1_555 1_555
H28 N1 1_555 1_555
C12 C13 1_555 1_555
C17 C18 1_555 1_555
C19 C20 1_555 1_555
C26 C27 1_555 1_555

#END
