
#######################################################################
#
#                 Cambridge Crystallographic Data Centre
#                                CCDC 
#
#######################################################################
#
# If this CIF has been generated from an entry in the Cambridge 
# Structural Database, then it will include bibliographic, chemical, 
# crystal, experimental, refinement or atomic coordinate data resulting 
# from the CCDC's data processing and validation procedures.
#
#######################################################################

data_ZIXJUO
_chemical_formula_moiety         'C16 H15 N1 O4'
_chemical_name_systematic        
'methyl 3-oxo-2-(2-oxopyridin-1(2H)-yl)-2-phenylbutanoate'
_symmetry_cell_setting           triclinic
_symmetry_space_group_name_H-M   'P -1'
_symmetry_Int_Tables_number      2
_space_group_name_Hall           '-P 1'
loop_
_symmetry_equiv_pos_site_id
_symmetry_equiv_pos_as_xyz
1 x,y,z
2 -x,-y,-z
_cell_length_a                   7.4575(5)
_cell_length_b                   9.0511(7)
_cell_length_c                   11.1957(8)
_cell_angle_alpha                98.798(2)
_cell_angle_beta                 97.600(2)
_cell_angle_gamma                109.696(2)
_cell_volume                     689.253
_cell_formula_units_Z            2
loop_
_atom_site_label
_atom_site_type_symbol
_atom_site_fract_x
_atom_site_fract_y
_atom_site_fract_z
C1 C 0.17214(17) 0.17397(15) 0.82504(11)
C2 C 0.23903(19) 0.05217(16) 0.85823(13)
H1 H 0.157508 -0.029621 0.891917
C3 C 0.4161(2) 0.05048(16) 0.84282(13)
H2 H 0.455385 -0.033132 0.864250
C4 C 0.54229(19) 0.17222(16) 0.79515(12)
H3 H 0.664569 0.169590 0.782045
C5 C 0.48555(17) 0.29253(15) 0.76854(11)
H4 H 0.570732 0.376305 0.738409
C6 C 0.24006(17) 0.42640(14) 0.75813(11)
C7 C 0.39616(17) 0.56402(14) 0.72273(11)
C8 C 0.38205(19) 0.59224(16) 0.60373(12)
H5 H 0.276533 0.522223 0.540385
C9 C 0.5227(2) 0.72316(17) 0.57750(13)
H6 H 0.512629 0.741646 0.496033
C10 C 0.6767(2) 0.82648(16) 0.66878(13)
H7 H 0.771001 0.916512 0.650565
C11 C 0.69256(19) 0.79762(16) 0.78730(13)
H8 H 0.799220 0.867378 0.850016
C12 C 0.55392(18) 0.66780(15) 0.81473(12)
H9 H 0.565769 0.649050 0.896093
C13 C 0.19828(17) 0.50532(14) 0.88154(11)
C14 C 0.0889(2) 0.61660(16) 0.87707(12)
H10 H -0.050787 0.554784 0.863699
H11 H 0.116316 0.672389 0.809338
H12 H 0.129431 0.695478 0.955241
C15 C 0.05668(17) 0.35502(14) 0.65475(11)
C16 C -0.0996(2) 0.16215(18) 0.47168(13)
H13 H -0.221797 0.134299 0.501818
H14 H -0.092049 0.065248 0.423451
H15 H -0.094539 0.240565 0.419548
N1 N 0.30724(14) 0.29609(12) 0.78418(9)
O1 O 0.00795(12) 0.17793(11) 0.82826(9)
O2 O 0.06270(13) 0.23075(11) 0.57568(8)
O3 O -0.06904(13) 0.40934(12) 0.64203(9)
O4 O 0.26973(13) 0.48429(11) 0.97746(8)
loop_
_geom_bond_atom_site_label_1
_geom_bond_atom_site_label_2
_geom_bond_site_symmetry_1
_geom_bond_site_symmetry_2
C1 C2 1_555 1_555
C2 H1 1_555 1_555
C3 C2 1_555 1_555
H2 C3 1_555 1_555
C4 C3 1_555 1_555
H3 C4 1_555 1_555
C5 C4 1_555 1_555
H4 C5 1_555 1_555
C6 C7 1_555 1_555
C7 C8 1_555 1_555
C8 H5 1_555 1_555
C9 C8 1_555 1_555
H6 C9 1_555 1_555
C10 C9 1_555 1_555
H7 C10 1_555 1_555
C11 C10 1_555 1_555
H8 C11 1_555 1_555
C12 C7 1_555 1_555
H9 C12 1_555 1_555
C13 C6 1_555 1_555
C14 C13 1_555 1_555
H10 C14 1_555 1_555
H11 C14 1_555 1_555
H12 C14 1_555 1_555
C15 C6 1_555 1_555
C16 H13 1_555 1_555
H14 C16 1_555 1_555
H15 C16 1_555 1_555
N1 C1 1_555 1_555
O1 C1 1_555 1_555
O2 C15 1_555 1_555
O3 C15 1_555 1_555
O4 C13 1_555 1_555
C5 N1 1_555 1_555
C6 N1 1_555 1_555
C11 C12 1_555 1_555
C16 O2 1_555 1_555

#END
