
#######################################################################
#
#                 Cambridge Crystallographic Data Centre
#                                CCDC 
#
#######################################################################
#
# If this CIF has been generated from an entry in the Cambridge 
# Structural Database, then it will include bibliographic, chemical, 
# crystal, experimental, refinement or atomic coordinate data resulting 
# from the CCDC's data processing and validation procedures.
#
#######################################################################

data_ZIXWEL
_chemical_formula_moiety         'C33 H37 N1 O4'
_chemical_name_systematic        
4-(3,5-di-t-butyl-4-hydroxyphenyl)-3'-methyl-2-(4-methylphenyl)-2H,4H,5'H-spiro[1-benzopyran-3,4'-[1,2]oxazol]-5'-one
_symmetry_cell_setting           monoclinic
_symmetry_space_group_name_H-M   'P 21/c'
_symmetry_Int_Tables_number      14
_space_group_name_Hall           '-P 2ybc'
loop_
_symmetry_equiv_pos_site_id
_symmetry_equiv_pos_as_xyz
1 x,y,z
2 -x,1/2+y,1/2-z
3 -x,-y,-z
4 x,1/2-y,1/2+z
_cell_length_a                   9.2722(3)
_cell_length_b                   15.0984(4)
_cell_length_c                   20.4707(6)
_cell_angle_alpha                90
_cell_angle_beta                 95.028(3)
_cell_angle_gamma                90
_cell_volume                     2854.78
_exptl_crystal_colour            colorless
_exptl_crystal_description       prism
_cell_formula_units_Z            4
loop_
_atom_site_label
_atom_site_type_symbol
_atom_site_fract_x
_atom_site_fract_y
_atom_site_fract_z
C1 C 1.1611(2) 0.33506(13) 0.19934(9)
H1 H 1.1180 0.2984 0.2285
C2 C 1.2945(2) 0.31218(15) 0.17983(10)
H2 H 1.3393 0.2601 0.1950
C3 C 1.3616(2) 0.36690(15) 0.13773(10)
H3 H 1.4532 0.3528 0.1256
C4 C 1.2924(2) 0.44254(14) 0.11368(10)
H4 H 1.3364 0.4791 0.0847
C5 C 1.15688(18) 0.46380(12) 0.13283(8)
C6 C 1.08851(17) 0.41164(12) 0.17670(8)
C7 C 0.94770(18) 0.44100(11) 0.20303(8)
H5 H 0.9763 0.4698 0.2451
C8 C 0.87193(18) 0.51481(11) 0.15875(8)
C9 C 0.99110(18) 0.58177(11) 0.14155(8)
H6 H 1.0428 0.6013 0.1828
C10 C 0.7662(2) 0.56501(13) 0.19700(10)
C11 C 0.77251(19) 0.48364(12) 0.10222(9)
C12 C 0.8099(3) 0.42801(14) 0.04613(10)
H7 H 0.7227 0.4083 0.0217
H8 H 0.8650 0.3776 0.0624
H9 H 0.8663 0.4622 0.0181
C13 C 0.93912(18) 0.66346(11) 0.10402(8)
C14 C 0.8856(3) 0.66140(13) 0.03898(10)
H10 H 0.8754 0.6073 0.0173
C15 C 0.8467(3) 0.73870(14) 0.00545(11)
H11 H 0.8098 0.7355 -0.0382
C16 C 0.8616(2) 0.82041(13) 0.03561(11)
C17 C 0.9158(2) 0.82213(13) 0.10070(11)
H12 H 0.9264 0.8762 0.1223
C18 C 0.9544(2) 0.74510(12) 0.13425(9)
H13 H 0.9913 0.7483 0.1779
C19 C 0.8188(3) 0.90396(16) -0.00188(15)
H14 H 0.7282 0.9252 0.0114
H15 H 0.8088 0.8914 -0.0480
H16 H 0.8920 0.9483 0.0072
C20 C 0.84642(17) 0.36610(11) 0.21900(8)
C21 C 0.77404(17) 0.37022(11) 0.27526(8)
H17 H 0.7864 0.4200 0.3020
C22 C 0.68339(17) 0.30262(11) 0.29335(8)
C23 C 0.66386(18) 0.22964(11) 0.25088(9)
C24 C 0.73421(18) 0.22292(11) 0.19290(8)
C25 C 0.82622(18) 0.29186(11) 0.17926(8)
H18 H 0.8763 0.2881 0.1420
C26 C 0.6110(2) 0.30823(13) 0.35874(9)
C27 C 0.6579(3) 0.22976(16) 0.40409(11)
H19 H 0.6342 0.1751 0.3818
H20 H 0.6082 0.2329 0.4432
H21 H 0.7605 0.2325 0.4154
C28 C 0.4447(2) 0.31055(18) 0.34590(11)
H22 H 0.4166 0.3603 0.3185
H23 H 0.4023 0.3159 0.3868
H24 H 0.4117 0.2569 0.3243
C29 C 0.6554(3) 0.39269(16) 0.39677(10)
H25 H 0.7584 0.3929 0.4072
H26 H 0.6079 0.3946 0.4366
H27 H 0.6279 0.4435 0.3704
C30 C 0.7140(2) 0.14295(12) 0.14633(9)
C31 C 0.8053(3) 0.15261(17) 0.08747(12)
H28 H 0.7775 0.2056 0.0637
H29 H 0.7895 0.1023 0.0591
H30 H 0.9060 0.1560 0.1029
C32 C 0.7615(3) 0.05732(14) 0.18191(12)
H31 H 0.8628 0.0607 0.1962
H32 H 0.7447 0.0080 0.1526
H33 H 0.7069 0.0495 0.2192
C33 C 0.5564(3) 0.13519(18) 0.11820(14)
H34 H 0.4959 0.1251 0.1532
H35 H 0.5468 0.0865 0.0879
H36 H 0.5274 0.1890 0.0958
N1 N 0.64312(19) 0.51001(15) 0.10385(10)
O1 O 1.09288(13) 0.53888(9) 0.10433(6)
O2 O 0.7862(2) 0.60333(11) 0.24775(8)
O3 O 0.63402(17) 0.56308(13) 0.16232(9)
O4 O 0.57596(17) 0.16019(9) 0.26257(8)
H37 H 0.5429 0.1500 0.2968
loop_
_geom_bond_atom_site_label_1
_geom_bond_atom_site_label_2
_geom_bond_site_symmetry_1
_geom_bond_site_symmetry_2
C1 H1 1_555 1_555
C2 C1 1_555 1_555
H2 C2 1_555 1_555
C3 C2 1_555 1_555
H3 C3 1_555 1_555
C4 C3 1_555 1_555
H4 C4 1_555 1_555
C5 C4 1_555 1_555
C6 C1 1_555 1_555
C7 C6 1_555 1_555
H5 C7 1_555 1_555
C8 C7 1_555 1_555
C9 C8 1_555 1_555
H6 C9 1_555 1_555
C10 C8 1_555 1_555
C11 C8 1_555 1_555
C12 C11 1_555 1_555
H7 C12 1_555 1_555
H8 C12 1_555 1_555
H9 C12 1_555 1_555
C13 C9 1_555 1_555
C14 C13 1_555 1_555
H10 C14 1_555 1_555
C15 C14 1_555 1_555
H11 C15 1_555 1_555
C16 C15 1_555 1_555
C17 C16 1_555 1_555
H12 C17 1_555 1_555
C18 C13 1_555 1_555
H13 C18 1_555 1_555
C19 C16 1_555 1_555
H14 C19 1_555 1_555
H15 C19 1_555 1_555
H16 C19 1_555 1_555
C20 C7 1_555 1_555
C21 C20 1_555 1_555
H17 C21 1_555 1_555
C22 C21 1_555 1_555
C23 C22 1_555 1_555
C24 C23 1_555 1_555
C25 C20 1_555 1_555
H18 C25 1_555 1_555
C26 C22 1_555 1_555
C27 C26 1_555 1_555
H19 C27 1_555 1_555
H20 C27 1_555 1_555
H21 C27 1_555 1_555
C28 C26 1_555 1_555
H22 C28 1_555 1_555
H23 C28 1_555 1_555
H24 C28 1_555 1_555
C29 C26 1_555 1_555
H25 C29 1_555 1_555
H26 C29 1_555 1_555
H27 C29 1_555 1_555
C30 C24 1_555 1_555
C31 C30 1_555 1_555
H28 C31 1_555 1_555
H29 C31 1_555 1_555
H30 C31 1_555 1_555
C32 C30 1_555 1_555
H31 C32 1_555 1_555
H32 C32 1_555 1_555
H33 C32 1_555 1_555
C33 C30 1_555 1_555
H34 C33 1_555 1_555
H35 C33 1_555 1_555
H36 C33 1_555 1_555
N1 C11 1_555 1_555
O1 C5 1_555 1_555
O2 C10 1_555 1_555
O3 C10 1_555 1_555
O4 C23 1_555 1_555
H37 O4 1_555 1_555
C5 C6 1_555 1_555
C9 O1 1_555 1_555
C17 C18 1_555 1_555
C24 C25 1_555 1_555
N1 O3 1_555 1_555

#END
