
#######################################################################
#
#                 Cambridge Crystallographic Data Centre
#                                CCDC 
#
#######################################################################
#
# If this CIF has been generated from an entry in the Cambridge 
# Structural Database, then it will include bibliographic, chemical, 
# crystal, experimental, refinement or atomic coordinate data resulting 
# from the CCDC's data processing and validation procedures.
#
#######################################################################

data_ZIYGAR02
_chemical_formula_moiety         'C28 H20 S1'
_chemical_name_systematic        tetraphenylthiophene
_symmetry_cell_setting           monoclinic
_symmetry_space_group_name_H-M   'I 2'
_symmetry_Int_Tables_number      5
_space_group_name_Hall           'I 2y'
loop_
_symmetry_equiv_pos_site_id
_symmetry_equiv_pos_as_xyz
1 x,y,z
2 -x,y,-z
3 1/2+x,1/2+y,1/2+z
4 1/2-x,1/2+y,1/2-z
_cell_length_a                   15.4615(11)
_cell_length_b                   6.0637(4)
_cell_length_c                   22.1430(18)
_cell_angle_alpha                90
_cell_angle_beta                 102.423(8)
_cell_angle_gamma                90
_cell_volume                     2027.39
_exptl_crystal_colour            colorless
_exptl_crystal_description       block
_cell_formula_units_Z            4
loop_
_atom_site_label
_atom_site_type_symbol
_atom_site_fract_x
_atom_site_fract_y
_atom_site_fract_z
S1 S 0.44105(5) 0.27742(13) 0.06849(3)
C1 C 0.34558(17) 0.2742(5) 0.01142(11)
C2 C 0.34275(19) 0.4187(5) -0.04297(13)
C3 C 0.25732(18) -0.1083(5) 0.11714(12)
C4 C 0.19317(19) 0.0979(5) -0.01392(12)
C5 C 0.50431(19) -0.2419(6) 0.25492(12)
H1 H 0.4993 -0.3809 0.2716
C6 C 0.45510(19) 0.0257(5) 0.17372(12)
C7 C 0.13236(18) 0.2693(6) -0.02334(12)
H2 H 0.1482 0.4061 -0.0054
C8 C 0.28354(18) 0.1321(5) 0.02584(12)
C9 C 0.31383(19) 0.0296(5) 0.08542(12)
C10 C 0.1793(2) -0.1471(6) 0.20014(14)
H3 H 0.1628 -0.0894 0.2349
C11 C 0.2320(2) -0.3204(5) 0.09835(14)
H4 H 0.2508 -0.3809 0.0647
C12 C 0.5655(2) -0.0946(6) 0.28607(13)
H5 H 0.6023 -0.1341 0.3235
C13 C 0.44963(18) -0.1840(5) 0.19847(12)
H6 H 0.4093 -0.2858 0.1772
C14 C 0.1687(2) -0.1020(5) -0.04232(13)
H7 H 0.2092 -0.2174 -0.0374
C15 C 0.30283(19) 0.3513(5) -0.10270(13)
H8 H 0.2750 0.2147 -0.1090
C16 C 0.23031(18) -0.0250(5) 0.16870(13)
H9 H 0.2472 0.1170 0.1822
C17 C 0.39906(19) 0.0919(5) 0.11385(12)
C18 C 0.3831(2) 0.6266(5) -0.03515(14)
H10 H 0.4092 0.6757 0.0044
C19 C 0.51735(19) 0.1719(5) 0.20625(13)
H11 H 0.5222 0.3125 0.1905
C20 C 0.0482(2) 0.2383(6) -0.05927(13)
H12 H 0.0083 0.3552 -0.0654
C21 C 0.3047(2) 0.4872(7) -0.15240(15)
H13 H 0.2781 0.4411 -0.1921
C22 C 0.0838(2) -0.1325(6) -0.07821(14)
H14 H 0.0680 -0.2681 -0.0970
C23 C 0.3846(2) 0.7584(6) -0.08529(16)
H15 H 0.4124 0.8951 -0.0796
C24 C 0.5722(2) 0.1115(6) 0.26159(14)
H16 H 0.6139 0.2109 0.2824
C25 C 0.0228(2) 0.0376(6) -0.08602(14)
H17 H -0.0345 0.0164 -0.1090
C26 C 0.1794(2) -0.4442(6) 0.12860(15)
H18 H 0.1619 -0.5855 0.1148
C27 C 0.3452(2) 0.6897(6) -0.14392(17)
H19 H 0.3460 0.7801 -0.1777
C28 C 0.1529(2) -0.3576(6) 0.17941(15)
H20 H 0.1172 -0.4404 0.1997
loop_
_geom_bond_atom_site_label_1
_geom_bond_atom_site_label_2
_geom_bond_site_symmetry_1
_geom_bond_site_symmetry_2
S1 C1 1_555 1_555
C1 C2 1_555 1_555
C2 C15 1_555 1_555
C3 C9 1_555 1_555
C4 C7 1_555 1_555
C5 H1 1_555 1_555
C6 C13 1_555 1_555
C7 H2 1_555 1_555
C8 C1 1_555 1_555
C9 C8 1_555 1_555
C10 H3 1_555 1_555
C11 C3 1_555 1_555
H4 C11 1_555 1_555
C12 C5 1_555 1_555
H5 C12 1_555 1_555
C13 C5 1_555 1_555
H6 C13 1_555 1_555
C14 C4 1_555 1_555
H7 C14 1_555 1_555
C15 H8 1_555 1_555
C16 C3 1_555 1_555
H9 C16 1_555 1_555
C17 S1 1_555 1_555
C18 C2 1_555 1_555
H10 C18 1_555 1_555
C19 C6 1_555 1_555
H11 C19 1_555 1_555
C20 C7 1_555 1_555
H12 C20 1_555 1_555
C21 C15 1_555 1_555
H13 C21 1_555 1_555
C22 C14 1_555 1_555
H14 C22 1_555 1_555
C23 C18 1_555 1_555
H15 C23 1_555 1_555
C24 C12 1_555 1_555
H16 C24 1_555 1_555
C25 C20 1_555 1_555
H17 C25 1_555 1_555
C26 C11 1_555 1_555
H18 C26 1_555 1_555
C27 C21 1_555 1_555
H19 C27 1_555 1_555
C28 C10 1_555 1_555
H20 C28 1_555 1_555
C4 C8 1_555 1_555
C6 C17 1_555 1_555
C9 C17 1_555 1_555
C10 C16 1_555 1_555
C19 C24 1_555 1_555
C22 C25 1_555 1_555
C23 C27 1_555 1_555
C26 C28 1_555 1_555

#END
