
#######################################################################
#
#                 Cambridge Crystallographic Data Centre
#                                CCDC 
#
#######################################################################
#
# If this CIF has been generated from an entry in the Cambridge 
# Structural Database, then it will include bibliographic, chemical, 
# crystal, experimental, refinement or atomic coordinate data resulting 
# from the CCDC's data processing and validation procedures.
#
#######################################################################

data_ZIYGAR01
_chemical_formula_moiety         'C28 H20 S1'
_chemical_name_systematic        2,3,4,5-tetraphenylthiophene
_symmetry_cell_setting           monoclinic
_symmetry_space_group_name_H-M   'I 2'
_symmetry_Int_Tables_number      5
_space_group_name_Hall           'I 2y'
loop_
_symmetry_equiv_pos_site_id
_symmetry_equiv_pos_as_xyz
1 x,y,z
2 -x,y,-z
3 1/2+x,1/2+y,1/2+z
4 1/2-x,1/2+y,1/2-z
_cell_length_a                   15.4081(5)
_cell_length_b                   6.0485(2)
_cell_length_c                   22.1271(7)
_cell_angle_alpha                90
_cell_angle_beta                 102.299(3)
_cell_angle_gamma                90
_cell_volume                     2014.83
_exptl_crystal_colour            colorless
_exptl_crystal_description       needle
_cell_formula_units_Z            4
_exptl_crystal_preparation       ', Luminescent'
loop_
_atom_site_label
_atom_site_type_symbol
_atom_site_fract_x
_atom_site_fract_y
_atom_site_fract_z
S1 S 0.44153(3) 0.16561(9) 0.56889(2)
C1 C 0.39936(15) 0.3518(4) 0.61430(10)
C2 C 0.31393(14) 0.4142(4) 0.58569(10)
C3 C 0.28408(14) 0.3122(4) 0.52606(10)
C4 C 0.34613(13) 0.1681(4) 0.51154(9)
C5 C 0.45511(14) 0.4188(4) 0.67409(10)
C6 C 0.51814(15) 0.2708(4) 0.70660(11)
H1 H 0.5232 0.1270 0.6904
C7 C 0.57329(17) 0.3325(5) 0.76229(12)
H2 H 0.6162 0.2312 0.7836
C8 C 0.56618(15) 0.5396(5) 0.78688(10)
H3 H 0.6031 0.5800 0.8254
C9 C 0.50473(15) 0.6881(5) 0.75491(10)
H4 H 0.4999 0.8313 0.7715
C10 C 0.44994(14) 0.6295(4) 0.69871(10)
H5 H 0.4087 0.7338 0.6769
C11 C 0.25704(14) 0.5533(4) 0.61737(10)
C12 C 0.23053(14) 0.4682(4) 0.66911(10)
H6 H 0.2478 0.3230 0.6832
C13 C 0.17887(16) 0.5956(5) 0.70018(11)
H7 H 0.1616 0.5373 0.7357
C14 C 0.15224(16) 0.8065(5) 0.67991(12)
H8 H 0.1160 0.8920 0.7008
C15 C 0.17930(16) 0.8909(4) 0.62872(12)
H9 H 0.1617 1.0357 0.6146
C16 C 0.23182(16) 0.7664(4) 0.59785(11)
H10 H 0.2506 0.8273 0.5632
C17 C 0.19326(15) 0.3454(4) 0.48614(10)
C18 C 0.16901(16) 0.5480(4) 0.45779(11)
H11 H 0.2106 0.6660 0.4631
C19 C 0.08390(17) 0.5789(5) 0.42166(12)
H12 H 0.0678 0.7176 0.4024
C20 C 0.02284(16) 0.4075(5) 0.41384(11)
H13 H -0.0357 0.4300 0.3903
C21 C 0.04722(15) 0.2038(5) 0.44036(11)
H14 H 0.0062 0.0844 0.4339
C22 C 0.13226(13) 0.1742(5) 0.47669(9)
H15 H 0.1485 0.0343 0.4952
C23 C 0.34311(14) 0.0240(4) 0.45747(10)
C24 C 0.30332(15) 0.0919(4) 0.39746(11)
H16 H 0.2753 0.2324 0.3908
C25 C 0.30500(16) -0.0476(5) 0.34765(12)
H17 H 0.2776 -0.0013 0.3070
C26 C 0.34557(18) -0.2508(5) 0.35617(13)
H18 H 0.3465 -0.3436 0.3217
C27 C 0.38502(15) -0.3197(5) 0.41517(13)
H19 H 0.4133 -0.4600 0.4212
C28 C 0.38351(15) -0.1850(4) 0.46558(12)
H20 H 0.4101 -0.2346 0.5060
loop_
_geom_bond_atom_site_label_1
_geom_bond_atom_site_label_2
_geom_bond_site_symmetry_1
_geom_bond_site_symmetry_2
S1 C1 1_555 1_555
C1 C2 1_555 1_555
C2 C3 1_555 1_555
C3 C4 1_555 1_555
C4 S1 1_555 1_555
C5 C1 1_555 1_555
C6 C5 1_555 1_555
H1 C6 1_555 1_555
C7 C6 1_555 1_555
H2 C7 1_555 1_555
C8 C7 1_555 1_555
H3 C8 1_555 1_555
C9 C8 1_555 1_555
H4 C9 1_555 1_555
C10 C5 1_555 1_555
H5 C10 1_555 1_555
C11 C2 1_555 1_555
C12 C11 1_555 1_555
H6 C12 1_555 1_555
C13 C12 1_555 1_555
H7 C13 1_555 1_555
C14 C13 1_555 1_555
H8 C14 1_555 1_555
C15 C14 1_555 1_555
H9 C15 1_555 1_555
C16 C11 1_555 1_555
H10 C16 1_555 1_555
C17 C3 1_555 1_555
C18 C17 1_555 1_555
H11 C18 1_555 1_555
C19 C18 1_555 1_555
H12 C19 1_555 1_555
C20 C19 1_555 1_555
H13 C20 1_555 1_555
C21 C20 1_555 1_555
H14 C21 1_555 1_555
C22 C17 1_555 1_555
H15 C22 1_555 1_555
C23 C4 1_555 1_555
C24 C23 1_555 1_555
H16 C24 1_555 1_555
C25 C24 1_555 1_555
H17 C25 1_555 1_555
C26 C25 1_555 1_555
H18 C26 1_555 1_555
C27 C26 1_555 1_555
H19 C27 1_555 1_555
C28 C23 1_555 1_555
H20 C28 1_555 1_555
C9 C10 1_555 1_555
C15 C16 1_555 1_555
C21 C22 1_555 1_555
C27 C28 1_555 1_555

#END
