
#######################################################################
#
#                 Cambridge Crystallographic Data Centre
#                                CCDC 
#
#######################################################################
#
# If this CIF has been generated from an entry in the Cambridge 
# Structural Database, then it will include bibliographic, chemical, 
# crystal, experimental, refinement or atomic coordinate data resulting 
# from the CCDC's data processing and validation procedures.
#
#######################################################################

data_ZIYKOK
_chemical_compound_source        'leaves of Rhododendron micranthum Turcz.'
_chemical_name_common            'micranthanoside C methanol solvate trihydrate'
_chemical_formula_moiety         'C26 H42 O8,0.5(C1 H4 O1),3(H2 O1)'
_chemical_name_systematic        
'2-((3,5-dihydroxygrayanotox-10-en-16-yl)oxy)-6-(hydroxymethyl)oxane-3,4,5-triol methanol solvate trihydrate'
_symmetry_cell_setting           monoclinic
_symmetry_space_group_name_H-M   'P 21'
_symmetry_Int_Tables_number      4
_space_group_name_Hall           'P 2yb'
loop_
_symmetry_equiv_pos_site_id
_symmetry_equiv_pos_as_xyz
1 x,y,z
2 -x,1/2+y,-z
_cell_length_a                   6.3352(3)
_cell_length_b                   39.6779(16)
_cell_length_c                   11.4316(5)
_cell_angle_alpha                90
_cell_angle_beta                 90.621(2)
_cell_angle_gamma                90
_cell_volume                     2873.36
_exptl_crystal_colour            colorless
_exptl_crystal_description       block
_chemical_melting_point          '149-150 deg.C'
_cell_formula_units_Z            4
loop_
_atom_site_label
_atom_site_type_symbol
_atom_site_fract_x
_atom_site_fract_y
_atom_site_fract_z
C1 C 0.1228(5) 0.28620(8) 0.3725(3)
H1 H 0.2741 0.2830 0.3596
C2 C 0.0101(8) 0.25907(10) 0.3018(4)
H2 H -0.1252 0.2538 0.3362
H3 H 0.0944 0.2387 0.2994
C3 C -0.0206(7) 0.27341(9) 0.1785(3)
H4 H -0.1724 0.2765 0.1650
C4 C 0.0828(6) 0.30834(10) 0.1781(3)
C5 C 0.0616(6) 0.31869(9) 0.3087(3)
C6 C 0.1434(16) 0.35237(19) 0.3551(7)
H5 H 0.0311 0.3631 0.3985
H6 H 0.1746 0.3667 0.2888
C7 C 0.3443(10) 0.35069(14) 0.4357(4)
H7 H 0.4123 0.3726 0.4352
H8 H 0.4422 0.3346 0.4026
C8 C 0.3019(6) 0.34050(9) 0.5657(3)
C9 C 0.2832(5) 0.30129(8) 0.5699(3)
H9 H 0.4077 0.2926 0.5296
C10 C 0.0942(5) 0.28749(7) 0.5035(3)
C11 C 0.3035(7) 0.28906(9) 0.6969(3)
H10 H 0.2474 0.2663 0.7012
H11 H 0.4522 0.2879 0.7175
C12 C 0.1927(8) 0.31057(10) 0.7876(3)
H12 H 0.2500 0.3053 0.8645
H13 H 0.0438 0.3049 0.7875
C13 C 0.2169(6) 0.34831(9) 0.7652(3)
H14 H 0.1384 0.3613 0.8232
C14 C 0.1339(6) 0.35579(9) 0.6410(4)
H15 H -0.0021 0.3452 0.6270
H16 H 0.1213 0.3798 0.6275
C15 C 0.5063(5) 0.35122(9) 0.6329(3)
H17 H 0.6069 0.3328 0.6342
H18 H 0.5710 0.3704 0.5946
C16 C 0.4435(5) 0.36068(8) 0.7585(3)
C17 C 0.5902(8) 0.34794(10) 0.8550(4)
H19 H 0.7258 0.3585 0.8478
H20 H 0.6056 0.3239 0.8482
H21 H 0.5318 0.3533 0.9298
C18 C -0.0277(9) 0.33193(12) 0.0906(4)
H22 H -0.0294 0.3217 0.0145
H23 H 0.0471 0.3529 0.0874
H24 H -0.1699 0.3359 0.1151
C19 C 0.3174(7) 0.30616(15) 0.1440(4)
H25 H 0.3285 0.2965 0.0674
H26 H 0.3919 0.2923 0.1995
H27 H 0.3777 0.3284 0.1440
C20 C -0.0834(6) 0.27708(10) 0.5534(3)
H28 H -0.1936 0.2688 0.5073
H29 H -0.0972 0.2781 0.6342
O1 O 0.0549(6) 0.25096(9) 0.0915(3)
H30 H -0.0271 0.2509 0.0355
O2 O -0.1619(5) 0.32400(8) 0.3252(2)
H31 H -0.2068 0.3433 0.3197
O3 O 0.4193(3) 0.39704(5) 0.7690(2)
C21 C 0.5991(5) 0.41678(8) 0.7638(3)
H32 H 0.7130 0.4045 0.7252
C22 C 0.5465(6) 0.44900(9) 0.6965(3)
H33 H 0.4250 0.4597 0.7335
C23 C 0.7324(6) 0.47345(9) 0.7024(3)
H34 H 0.8497 0.4639 0.6581
C24 C 0.8054(6) 0.47906(9) 0.8284(3)
H35 H 0.6940 0.4909 0.8706
C25 C 0.8466(6) 0.44526(9) 0.8882(3)
H36 H 0.9626 0.4336 0.8492
C26 C 0.9001(7) 0.44955(10) 1.0177(4)
H37 H 1.0088 0.4666 1.0263
H38 H 0.7757 0.4574 1.0582
O4 O 0.6591(4) 0.42509(6) 0.88115(19)
O5 O 0.9913(6) 0.49876(8) 0.8324(3)
H39 H 1.0133 0.5067 0.7675
O6 O 0.6719(5) 0.50469(8) 0.6502(3)
H40 H 0.6666 0.5025 0.5790
O7 O 0.4900(5) 0.44102(8) 0.5795(2)
H41 H 0.5924 0.4437 0.5372
O8 O 0.9704(5) 0.41967(9) 1.0698(3)
H42 H 1.0770 0.4131 1.0368
C29 C 0.6056(6) 0.68162(8) 0.7044(3)
H47 H 0.7548 0.6868 0.7194
C30 C 0.4784(9) 0.70762(10) 0.7718(4)
H48 H 0.3351 0.7088 0.7413
H49 H 0.5426 0.7297 0.7654
C31 C 0.4793(7) 0.69589(10) 0.8993(3)
H50 H 0.3318 0.6924 0.9214
C32 C 0.5879(7) 0.66116(10) 0.9021(3)
C33 C 0.5570(6) 0.64938(9) 0.7724(3)
C34 C 0.638(2) 0.6149(3) 0.7221(10)
H51 H 0.6680 0.5999 0.7871
H52 H 0.5259 0.6049 0.6757
C35 C 0.8344(14) 0.61730(19) 0.6472(6)
H53 H 0.9088 0.5960 0.6510
H54 H 0.9270 0.6344 0.6798
C36 C 0.7876(6) 0.62596(9) 0.5160(3)
C37 C 0.7710(6) 0.66502(9) 0.5127(3)
H55 H 0.8934 0.6733 0.5573
C38 C 0.5786(5) 0.67956(8) 0.5735(3)
C39 C 0.8015(7) 0.67775(9) 0.3877(3)
H56 H 0.7483 0.7006 0.3827
H57 H 0.9517 0.6785 0.3721
C40 C 0.6942(8) 0.65677(10) 0.2922(3)
H58 H 0.5462 0.6629 0.2875
H59 H 0.7575 0.6621 0.2176
C41 C 0.7114(6) 0.61901(9) 0.3135(3)
H60 H 0.6363 0.6064 0.2522
C42 C 0.6206(6) 0.61137(9) 0.4335(4)
H61 H 0.6041 0.5873 0.4452
H62 H 0.4852 0.6223 0.4438
C43 C 0.9926(6) 0.61502(10) 0.4562(3)
H63 H 1.0521 0.5955 0.4956
H64 H 1.0954 0.6331 0.4594
C44 C 0.9387(5) 0.60631(8) 0.3277(3)
C45 C 1.0915(7) 0.61890(10) 0.2367(4)
H65 H 1.2263 0.6083 0.2485
H66 H 1.1069 0.6429 0.2439
H67 H 1.0383 0.6135 0.1600
C46 C 0.4824(10) 0.63814(12) 0.9907(4)
H68 H 0.5062 0.6468 1.0682
H69 H 0.5410 0.6159 0.9851
H70 H 0.3334 0.6372 0.9747
C47 C 0.8218(8) 0.66382(17) 0.9345(4)
H71 H 0.8960 0.6748 0.8723
H72 H 0.8787 0.6417 0.9465
H73 H 0.8377 0.6767 1.0051
C48 C 0.4076(7) 0.69058(10) 0.5186(3)
H74 H 0.2980 0.7001 0.5609
H75 H 0.3968 0.6889 0.4376
O9 O 0.5677(6) 0.71984(9) 0.9800(3)
H76 H 0.6786 0.7272 0.9539
O10 O 0.3368(5) 0.64256(9) 0.7555(3)
H77 H 0.3051 0.6254 0.7912
O11 O 0.9126(3) 0.56966(5) 0.3150(2)
C49 C 1.0935(5) 0.55027(8) 0.3243(3)
H78 H 1.2051 0.5627 0.3658
C50 C 1.0418(6) 0.51762(9) 0.3888(3)
H79 H 0.9237 0.5065 0.3484
C51 C 1.2330(6) 0.49401(9) 0.3874(3)
H80 H 1.3464 0.5041 0.4348
C52 C 1.3124(6) 0.48908(9) 0.2630(3)
H81 H 1.2060 0.4766 0.2178
C53 C 1.3493(6) 0.52313(9) 0.2044(3)
H82 H 1.4607 0.5353 0.2470
C54 C 1.4105(7) 0.51954(11) 0.0777(4)
H83 H 1.5245 0.5033 0.0718
H84 H 1.2909 0.5109 0.0332
O12 O 1.1582(4) 0.54228(6) 0.2077(2)
O13 O 1.5032(6) 0.47070(9) 0.2635(3)
H85 H 1.5093 0.4588 0.3221
O14 O 1.1753(6) 0.46256(8) 0.4382(3)
H86 H 1.2684 0.4564 0.4838
O15 O 0.9808(5) 0.52510(9) 0.5046(3)
H87 H 1.0840 0.5316 0.5423
O16 O 1.4752(5) 0.55026(9) 0.0287(3)
H88 H 1.6045 0.5512 0.0293
C57 C 0.1917(11) 0.72400(15) 0.1724(4)
H93 H 0.3073 0.7213 0.2266
H94 H 0.1683 0.7033 0.1310
H95 H 0.0667 0.7300 0.2143
O17 O 0.2391(6) 0.74928(9) 0.0933(3)
H96 H 0.3407 0.7436 0.0542
O18 O 0.7973(7) 0.42970(15) 0.4319(5)
H97 H 0.7399 0.4208 0.3719
H98 H 0.8921 0.4431 0.4076
O19 O 0.2148(6) 0.57614(9) 0.8526(3)
H99 H 0.2870 0.5835 0.9103
H100 H 0.0858 0.5807 0.8649
O20 O 0.9003(6) 0.55249(11) 0.0007(3)
H101 H 0.9353 0.5514 0.0726
H102 H 0.9488 0.5351 -0.0329
O21 O 0.3978(6) 0.41445(13) 0.0843(3)
H103 H 0.4207 0.4333 0.0513
H104 H 0.4343 0.3991 0.0366
O22 O 0.7081(6) 0.39174(8) 0.2372(3)
H105 H 0.7925 0.3947 0.1808
H106 H 0.5843 0.3959 0.2117
O23 O 0.2779(7) 0.53228(15) 0.6721(5)
H107 H 0.3925 0.5409 0.6482
H108 H 0.2323 0.5449 0.7263
C27? C 0.240(2) 0.3472(3) 0.3427(12)
H43? H 0.3787 0.3367 0.3409
H44? H 0.2376 0.3647 0.2835
C28? C 0.214(2) 0.3620(2) 0.4520(9)
H45? H 0.0641 0.3662 0.4626
H46? H 0.2836 0.3838 0.4517
C55? C 0.735(3) 0.6227(3) 0.7462(9)
H89? H 0.8709 0.6339 0.7453
H90? H 0.7383 0.6060 0.8082
C56? C 0.6972(18) 0.60513(18) 0.6289(6)
H91? H 0.5467 0.6017 0.6180
H92? H 0.7638 0.5831 0.6315
loop_
_geom_bond_atom_site_label_1
_geom_bond_atom_site_label_2
_geom_bond_site_symmetry_1
_geom_bond_site_symmetry_2
C1 H1 1_555 1_555
C2 C1 1_555 1_555
H2 C2 1_555 1_555
H3 C2 1_555 1_555
C3 C2 1_555 1_555
H4 C3 1_555 1_555
C4 C3 1_555 1_555
C5 C1 1_555 1_555
C6 C5 1_555 1_555
H5 C6 1_555 1_555
H6 C6 1_555 1_555
C7 C6 1_555 1_555
H7 C7 1_555 1_555
H8 C7 1_555 1_555
C8 C7 1_555 1_555
C9 C8 1_555 1_555
H9 C9 1_555 1_555
C10 C1 1_555 1_555
C11 C9 1_555 1_555
H10 C11 1_555 1_555
H11 C11 1_555 1_555
C12 C11 1_555 1_555
H12 C12 1_555 1_555
H13 C12 1_555 1_555
C13 C12 1_555 1_555
H14 C13 1_555 1_555
C14 C8 1_555 1_555
H15 C14 1_555 1_555
H16 C14 1_555 1_555
C15 C8 1_555 1_555
H17 C15 1_555 1_555
H18 C15 1_555 1_555
C16 C13 1_555 1_555
C17 C16 1_555 1_555
H19 C17 1_555 1_555
H20 C17 1_555 1_555
H21 C17 1_555 1_555
C18 C4 1_555 1_555
H22 C18 1_555 1_555
H23 C18 1_555 1_555
H24 C18 1_555 1_555
C19 C4 1_555 1_555
H25 C19 1_555 1_555
H26 C19 1_555 1_555
H27 C19 1_555 1_555
C20 C10 1_555 1_555
H28 C20 1_555 1_555
H29 C20 1_555 1_555
O1 C3 1_555 1_555
H30 O1 1_555 1_555
O2 C5 1_555 1_555
H31 O2 1_555 1_555
O3 C16 1_555 1_555
C21 O3 1_555 1_555
H32 C21 1_555 1_555
C22 C21 1_555 1_555
H33 C22 1_555 1_555
C23 C22 1_555 1_555
H34 C23 1_555 1_555
C24 C23 1_555 1_555
H35 C24 1_555 1_555
C25 C24 1_555 1_555
H36 C25 1_555 1_555
C26 C25 1_555 1_555
H37 C26 1_555 1_555
H38 C26 1_555 1_555
O4 C21 1_555 1_555
O5 C24 1_555 1_555
H39 O5 1_555 1_555
O6 C23 1_555 1_555
H40 O6 1_555 1_555
O7 C22 1_555 1_555
H41 O7 1_555 1_555
O8 C26 1_555 1_555
H42 O8 1_555 1_555
C29 H47 1_555 1_555
C30 C29 1_555 1_555
H48 C30 1_555 1_555
H49 C30 1_555 1_555
C31 C30 1_555 1_555
H50 C31 1_555 1_555
C32 C31 1_555 1_555
C33 C29 1_555 1_555
C34 C33 1_555 1_555
H51 C34 1_555 1_555
H52 C34 1_555 1_555
C35 C34 1_555 1_555
H53 C35 1_555 1_555
H54 C35 1_555 1_555
C36 C35 1_555 1_555
C37 C36 1_555 1_555
H55 C37 1_555 1_555
C38 C29 1_555 1_555
C39 C37 1_555 1_555
H56 C39 1_555 1_555
H57 C39 1_555 1_555
C40 C39 1_555 1_555
H58 C40 1_555 1_555
H59 C40 1_555 1_555
C41 C40 1_555 1_555
H60 C41 1_555 1_555
C42 C36 1_555 1_555
H61 C42 1_555 1_555
H62 C42 1_555 1_555
C43 C36 1_555 1_555
H63 C43 1_555 1_555
H64 C43 1_555 1_555
C44 C41 1_555 1_555
C45 C44 1_555 1_555
H65 C45 1_555 1_555
H66 C45 1_555 1_555
H67 C45 1_555 1_555
C46 C32 1_555 1_555
H68 C46 1_555 1_555
H69 C46 1_555 1_555
H70 C46 1_555 1_555
C47 C32 1_555 1_555
H71 C47 1_555 1_555
H72 C47 1_555 1_555
H73 C47 1_555 1_555
C48 C38 1_555 1_555
H74 C48 1_555 1_555
H75 C48 1_555 1_555
O9 C31 1_555 1_555
H76 O9 1_555 1_555
O10 C33 1_555 1_555
H77 O10 1_555 1_555
O11 C44 1_555 1_555
C49 O11 1_555 1_555
H78 C49 1_555 1_555
C50 C49 1_555 1_555
H79 C50 1_555 1_555
C51 C50 1_555 1_555
H80 C51 1_555 1_555
C52 C51 1_555 1_555
H81 C52 1_555 1_555
C53 C52 1_555 1_555
H82 C53 1_555 1_555
C54 C53 1_555 1_555
H83 C54 1_555 1_555
H84 C54 1_555 1_555
O12 C49 1_555 1_555
O13 C52 1_555 1_555
H85 O13 1_555 1_555
O14 C51 1_555 1_555
H86 O14 1_555 1_555
O15 C50 1_555 1_555
H87 O15 1_555 1_555
O16 C54 1_555 1_555
H88 O16 1_555 1_555
C57 H93 1_555 1_555
H94 C57 1_555 1_555
H95 C57 1_555 1_555
O17 C57 1_555 1_555
H96 O17 1_555 1_555
O18 H97 1_555 1_555
H98 O18 1_555 1_555
O19 H99 1_555 1_555
H100 O19 1_555 1_555
O20 H101 1_555 1_555
H102 O20 1_555 1_555
O21 H103 1_555 1_555
H104 O21 1_555 1_555
O22 H105 1_555 1_555
H106 O22 1_555 1_555
O23 H107 1_555 1_555
H108 O23 1_555 1_555
C4 C5 1_555 1_555
C9 C10 1_555 1_555
C13 C14 1_555 1_555
C15 C16 1_555 1_555
C25 O4 1_555 1_555
C32 C33 1_555 1_555
C37 C38 1_555 1_555
C41 C42 1_555 1_555
C43 C44 1_555 1_555
C53 O12 1_555 1_555

#END
