
#######################################################################
#
#                 Cambridge Crystallographic Data Centre
#                                CCDC 
#
#######################################################################
#
# If this CIF has been generated from an entry in the Cambridge 
# Structural Database, then it will include bibliographic, chemical, 
# crystal, experimental, refinement or atomic coordinate data resulting 
# from the CCDC's data processing and validation procedures.
#
#######################################################################

data_ZIYTEG
_chemical_formula_moiety         'C28 H17 N1 O4,C4 H8 O1'
_chemical_name_systematic        
"2,2'-((4-Quinolylium)methylene)bis(1H-indene-1,3(2H)-dione) 2-butanone clathrate"
_symmetry_cell_setting           monoclinic
_symmetry_space_group_name_H-M   'P 21/c'
_symmetry_Int_Tables_number      14
_space_group_name_Hall           '-P 2ybc'
loop_
_symmetry_equiv_pos_site_id
_symmetry_equiv_pos_as_xyz
1 x,y,z
2 -x,1/2+y,1/2-z
3 -x,-y,-z
4 x,1/2-y,1/2+z
_cell_length_a                   10.965(3)
_cell_length_b                   8.891(2)
_cell_length_c                   25.118(6)
_cell_angle_alpha                90
_cell_angle_beta                 101.74(2)
_cell_angle_gamma                90
_cell_volume                     2397.52
_exptl_crystal_colour            red
_chemical_melting_point          147-149deg.C
_cell_formula_units_Z            4
loop_
_atom_site_label
_atom_site_type_symbol
_atom_site_fract_x
_atom_site_fract_y
_atom_site_fract_z
C2 C 0.0082(8) 0.332(4) 0.270(1)
C3 C 0.056(2) 0.547(2) 0.2644(9)
C4 C 0.147(1) 0.559(1) 0.2453(4)
C5 C 0.4317(3) 0.5264(3) 0.39364(10)
C6 C 0.5595(3) 0.5419(3) 0.39273(9)
C7 C 0.6132(3) 0.6398(3) 0.43492(10)
C8 C 0.5133(3) 0.6886(3) 0.46403(10)
C9 C 0.5160(3) 0.7892(3) 0.50601(11)
C10 C 0.4051(4) 0.8181(3) 0.52256(12)
C11 C 0.2960(3) 0.7498(3) 0.49801(12)
C12 C 0.2940(3) 0.6470(3) 0.45546(11)
C13 C 0.4031(3) 0.6189(3) 0.43926(10)
O1 O 0.3484(2) 0.4560(2) 0.36165(7)
O2 O 0.7232(2) 0.6900(2) 0.44795(7)
C14 C 0.7330(3) 0.2131(3) 0.36419(10)
C15 C 0.7344(2) 0.3756(3) 0.37172(9)
C16 C 0.8495(3) 0.4134(3) 0.40097(10)
C17 C 0.9295(3) 0.2775(3) 0.41288(10)
C18 C 1.0483(3) 0.2580(4) 0.44250(12)
C19 C 1.0954(3) 0.1119(4) 0.44856(14)
C20 C 1.0249(3) -0.0094(4) 0.42613(14)
C21 C 0.9034(3) 0.0111(3) 0.39707(13)
C22 C 0.8579(3) 0.1544(3) 0.39075(11)
O3 O 0.6452(2) 0.1371(2) 0.34025(8)
O4 O 0.8931(2) 0.5444(2) 0.42026(8)
C23 C 0.6205(2) 0.4704(3) 0.35023(9)
C24 C 0.6415(2) 0.5809(3) 0.30632(9)
C25 C 0.6435(3) 0.7339(3) 0.31496(10)
C26 C 0.6533(3) 0.8333(3) 0.27381(11)
N1 N 0.6614(2) 0.7855(3) 0.22494(9)
C27 C 0.6635(2) 0.6350(3) 0.21299(10)
C28 C 0.6540(2) 0.5287(3) 0.25369(10)
C29 C 0.6744(3) 0.5920(3) 0.16078(10)
C30 C 0.6789(3) 0.4437(3) 0.14874(12)
C31 C 0.6694(3) 0.3361(3) 0.18785(12)
C32 C 0.6568(3) 0.3758(3) 0.23905(11)
C1 C 0.011(2) 0.222(6) 0.205(1)
loop_
_geom_bond_atom_site_label_1
_geom_bond_atom_site_label_2
_geom_bond_site_symmetry_1
_geom_bond_site_symmetry_2
C3 C4 1_555 1_555
C5 C6 1_555 1_555
C6 C7 1_555 1_555
C7 C8 1_555 1_555
C8 C9 1_555 1_555
C9 C10 1_555 1_555
C10 C11 1_555 1_555
C11 C12 1_555 1_555
C12 C13 1_555 1_555
C13 C5 1_555 1_555
O1 C5 1_555 1_555
O2 C7 1_555 1_555
C14 C15 1_555 1_555
C15 C16 1_555 1_555
C16 C17 1_555 1_555
C17 C18 1_555 1_555
C18 C19 1_555 1_555
C19 C20 1_555 1_555
C20 C21 1_555 1_555
C21 C22 1_555 1_555
C22 C14 1_555 1_555
O3 C14 1_555 1_555
O4 C16 1_555 1_555
C23 C6 1_555 1_555
C24 C23 1_555 1_555
C25 C24 1_555 1_555
C26 C25 1_555 1_555
N1 C26 1_555 1_555
C27 N1 1_555 1_555
C28 C24 1_555 1_555
C29 C27 1_555 1_555
C30 C29 1_555 1_555
C31 C30 1_555 1_555
C32 C28 1_555 1_555
C8 C13 1_555 1_555
C15 C23 1_555 1_555
C17 C22 1_555 1_555
C27 C28 1_555 1_555
C31 C32 1_555 1_555

#END
