
#######################################################################
#
#                 Cambridge Crystallographic Data Centre
#                                CCDC 
#
#######################################################################
#
# If this CIF has been generated from an entry in the Cambridge 
# Structural Database, then it will include bibliographic, chemical, 
# crystal, experimental, refinement or atomic coordinate data resulting 
# from the CCDC's data processing and validation procedures.
#
#######################################################################

data_ZIYWOT
_chemical_name_common            'trans-Norpinic acid'
_chemical_formula_moiety         'C8 H12 O4'
_chemical_name_systematic        
'2,2-Dimethyl-trans-1,3-cyclobutanedicarboxylic acid'
_symmetry_cell_setting           monoclinic
_symmetry_space_group_name_H-M   'I 2/a'
_symmetry_Int_Tables_number      15
_space_group_name_Hall           '-I 2ya'
loop_
_symmetry_equiv_pos_site_id
_symmetry_equiv_pos_as_xyz
1 x,y,z
2 1/2-x,y,-z
3 1/2+x,1/2+y,1/2+z
4 -x,1/2+y,1/2-z
5 -x,-y,-z
6 1/2+x,-y,z
7 1/2-x,1/2-y,1/2-z
8 x,1/2-y,1/2+z
_cell_length_a                   13.297(6)
_cell_length_b                   10.653(4)
_cell_length_c                   12.994(6)
_cell_angle_alpha                90
_cell_angle_beta                 102.38(3)
_cell_angle_gamma                90
_cell_volume                     1797.84
_exptl_crystal_colour            colorless
_exptl_crystal_description       irregular
_chemical_melting_point          '453 K'
_cell_formula_units_Z            8
loop_
_atom_site_label
_atom_site_type_symbol
_atom_site_fract_x
_atom_site_fract_y
_atom_site_fract_z
O1 O 0.9941(2) 0.0878(2) 0.1064(1)
O2 O 0.9995(2) -0.1200(2) 0.0950(2)
O3 O 0.8748(1) 0.1454(2) 0.4848(1)
O4 O 0.7300(2) 0.1516(2) 0.3632(2)
C1 C 0.9774(2) -0.0358(2) 0.2551(2)
C2 C 0.8613(2) -0.0308(2) 0.2606(2)
C3 C 0.8804(2) 0.1062(2) 0.3051(2)
C4 C 0.9972(2) 0.0800(2) 0.3277(2)
C5 C 0.9928(2) -0.0165(2) 0.1460(2)
C6 C 0.8279(2) 0.1385(2) 0.3920(2)
C7 C 0.7812(3) -0.0412(4) 0.1581(3)
C8 C 0.8414(3) -0.1250(3) 0.3425(3)
H1 H 1.016(2) -0.114(2) 0.288(2)
H2 H 0.861(2) 0.161(2) 0.257(2)
H3 H 1.042(2) 0.141(2) 0.303(2)
H4 H 1.023(2) 0.049(2) 0.405(2)
H5 H 0.788(2) 0.028(3) 0.110(3)
H6 H 0.717(3) 0.000(3) 0.176(2)
H7 H 0.777(2) -0.118(3) 0.125(3)
H8 H 0.894(2) -0.115(3) 0.401(2)
H9 H 0.778(2) -0.104(3) 0.350(2)
H10 H 0.856(2) -0.214(3) 0.322(2)
H11 H 1.000(2) -0.102(3) 0.028(3)
H12 H 0.696(3) 0.149(3) 0.405(3)
loop_
_geom_bond_atom_site_label_1
_geom_bond_atom_site_label_2
_geom_bond_site_symmetry_1
_geom_bond_site_symmetry_2
O1 C5 1_555 1_555
O2 C5 1_555 1_555
O3 C6 1_555 1_555
O4 C6 1_555 1_555
C1 C2 1_555 1_555
C2 C3 1_555 1_555
C3 C4 1_555 1_555
C4 C1 1_555 1_555
C5 C1 1_555 1_555
C6 C3 1_555 1_555
C7 C2 1_555 1_555
C8 C2 1_555 1_555
H1 C1 1_555 1_555
H2 C3 1_555 1_555
H3 C4 1_555 1_555
H4 C4 1_555 1_555
H5 C7 1_555 1_555
H6 C7 1_555 1_555
H7 C7 1_555 1_555
H8 C8 1_555 1_555
H9 C8 1_555 1_555
H10 C8 1_555 1_555
H11 O2 1_555 1_555
H12 O4 1_555 1_555

#END
