
#######################################################################
#
#                 Cambridge Crystallographic Data Centre
#                                CCDC 
#
#######################################################################
#
# If this CIF has been generated from an entry in the Cambridge 
# Structural Database, then it will include bibliographic, chemical, 
# crystal, experimental, refinement or atomic coordinate data resulting 
# from the CCDC's data processing and validation procedures.
#
#######################################################################

data_ZIYZAK
_chemical_formula_moiety         'C18 H20 N2 O8,C10 H10 N2'
_chemical_name_systematic        
'2,6-bis(2-(2-hydroxyethoxy)ethyl)pyrrolo[3,4-f]isoindole-1,3,5,7(2H,6H)-tetrone naphthalene-1,5-diamine'
_symmetry_cell_setting           triclinic
_symmetry_space_group_name_H-M   'P 1'
_symmetry_Int_Tables_number      1
_space_group_name_Hall           'P 1'
loop_
_symmetry_equiv_pos_site_id
_symmetry_equiv_pos_as_xyz
1 x,y,z
_cell_length_a                   9.5063(4)
_cell_length_b                   12.1715(6)
_cell_length_c                   12.8872(6)
_cell_angle_alpha                61.896(3)
_cell_angle_beta                 89.095(3)
_cell_angle_gamma                76.689(3)
_cell_volume                     1272.5
_exptl_crystal_colour            red
_exptl_crystal_description       needle
_cell_formula_units_Z            2
loop_
_atom_site_label
_atom_site_type_symbol
_atom_site_fract_x
_atom_site_fract_y
_atom_site_fract_z
C1 C 0.8778(8) 0.7760(7) 0.2393(5)
H1 H 0.9304 0.7472 0.3133
C2 C 0.8390(7) 0.9064(7) 0.0219(6)
C3 C 0.6343(7) 0.9060(7) -0.0892(6)
C4 C 0.6729(8) 0.7741(7) 0.1334(6)
H2 H 0.5891 0.7439 0.1340
C5 C 0.7148(7) 0.8596(6) 0.0251(5)
C6 C 0.7533(8) 0.7349(7) 0.2376(6)
H3 H 0.7235 0.6785 0.3102
C7 C 0.9280(8) 0.8583(7) 0.1355(7)
C8 C 0.7958(8) 1.0384(8) -0.1912(6)
H4 H 0.8201 1.1000 -0.2638
C9 C 0.6764(8) 0.9917(7) -0.1901(5)
H5 H 0.6213 1.0207 -0.2631
C10 C 0.8814(8) 0.9947(8) -0.0847(7)
H6 H 0.9658 1.0239 -0.0844
N1 N 1.0548(7) 0.8919(7) 0.1352(6)
H7 H 1.106(6) 0.867(4) 0.210(3)
H8 H 1.065(6) 0.971(3) 0.069(3)
N2 N 0.5047(7) 0.8689(7) -0.0910(5)
H9 H 0.459(6) 0.888(5) -0.166(3)
H10 H 0.476(5) 0.799(3) -0.026(4)
C11 C 0.2979(8) 0.3477(7) 0.0753(6)
C12 C 0.2612(8) 0.4716(7) -0.1371(6)
H11 H 0.2918 0.5268 -0.2098
C13 C 0.0886(8) 0.3505(8) -0.0356(6)
C14 C 0.3376(8) 0.2132(7) 0.2922(6)
H12 H 0.3882 0.1824 0.3675
C15 C 0.1366(8) 0.4312(7) -0.1384(6)
H13 H 0.0831 0.4600 -0.2121
C16 C 0.1341(8) 0.2139(7) 0.1835(6)
H14 H 0.0511 0.1825 0.1848
C17 C 0.3862(8) 0.3031(8) 0.1844(6)
C18 C 0.1706(8) 0.3038(8) 0.0756(6)
C19 C 0.3401(8) 0.4339(8) -0.0340(6)
H15 H 0.4233 0.4648 -0.0347
C20 C 0.2143(8) 0.1737(7) 0.2817(6)
H16 H 0.1864 0.1121 0.3523
N3 N 0.5057(6) 0.3397(6) 0.1915(5)
H17 H 0.563(6) 0.292(4) 0.268(3)
H18 H 0.507(5) 0.425(3) 0.131(4)
N4 N -0.0413(7) 0.3171(6) -0.0371(6)
H19 H -0.091(6) 0.373(4) -0.116(3)
H20 H -0.077(5) 0.265(4) 0.037(3)
C21 C 0.0913(7) 0.6692(7) -0.0438(5)
H21 H 0.1482 0.7119 -0.1041
C22 C -0.1187(8) 0.6861(7) -0.1808(6)
C23 C 0.0539(7) 0.5607(7) 0.1645(5)
C24 C 0.1298(7) 0.5209(7) 0.2815(5)
C25 C -0.1220(7) 0.5843(7) 0.0244(6)
C26 C -0.0358(7) 0.6499(6) -0.0674(5)
C27 C -0.0810(7) 0.5394(7) 0.1416(5)
H22 H -0.1376 0.4975 0.2025
C28 C 0.2667(7) 0.6263(6) 0.1305(5)
C29 C -0.2543(7) 0.5833(6) -0.0350(6)
C30 C 0.1334(7) 0.6211(7) 0.0771(6)
C31 C -0.3603(8) 0.6697(8) -0.2411(6)
H23 H -0.3412 0.7317 -0.3205
H24 H -0.4532 0.7104 -0.2231
C32 C 0.3738(7) 0.5364(7) 0.3426(6)
H25 H 0.4673 0.4973 0.3239
H26 H 0.3552 0.4732 0.4216
C33 C 0.2227(9) 0.6613(8) 0.4844(6)
H27 H 0.3091 0.5979 0.5389
H28 H 0.1473 0.6159 0.4879
C34 C -0.3764(8) 0.5502(8) -0.2440(6)
H29 H -0.4038 0.4910 -0.1667
H30 H -0.4560 0.5749 -0.3054
C35 C 0.3863(8) 0.6566(7) 0.3462(6)
H31 H 0.4648 0.6317 0.4086
H32 H 0.4157 0.7151 0.2696
C36 C -0.2049(8) 0.5437(8) -0.3880(6)
H33 H -0.1280 0.5879 -0.3919
H34 H -0.2904 0.6084 -0.4429
C37 C 0.1658(8) 0.7660(9) 0.5170(7)
H35 H 0.0903 0.8354 0.4540
H36 H 0.1195 0.7303 0.5912
C38 C -0.1514(9) 0.4429(9) -0.4226(7)
H37 H -0.1073 0.4793 -0.4979
H38 H -0.0756 0.3719 -0.3611
N5 N 0.2579(6) 0.5636(6) 0.2552(5)
N6 N -0.2437(6) 0.6440(6) -0.1542(5)
O1 O 0.2754(8) 0.8184(7) 0.5324(5)
O2 O 0.2598(5) 0.7244(5) 0.3678(4)
O3 O 0.3655(5) 0.6710(5) 0.0875(4)
O4 O 0.0970(5) 0.4637(5) 0.3815(4)
O5 O -0.0840(5) 0.7438(5) -0.2803(4)
O6 O -0.3553(5) 0.5377(5) 0.0123(4)
O7 O -0.2447(5) 0.4836(5) -0.2684(4)
O8 O -0.2692(8) 0.3938(7) -0.4369(6)
H39 H -0.298(6) 0.352(5) -0.354(5)
H40 H 0.350(5) 0.818(4) 0.487(4)
C39 C 0.4605(8) 0.2521(7) -0.2017(5)
C40 C 0.6181(7) 0.0999(7) 0.1159(6)
C41 C 0.3972(7) 0.1132(6) -0.0232(5)
C42 C 0.5474(6) -0.0427(6) 0.2968(6)
C43 C 0.2873(8) 0.1401(7) -0.1186(6)
C44 C 0.4979(7) 0.1774(6) -0.0678(6)
C45 C 0.5088(7) 0.0284(6) 0.1694(6)
C46 C 0.6176(7) 0.1723(7) 0.0007(6)
H41 H 0.6904 0.2168 -0.0333
C47 C 0.3997(7) 0.0327(6) 0.1025(5)
H42 H 0.3286 -0.0141 0.1355
C48 C 0.8370(7) 0.2737(7) 0.3717(6)
H43 H 0.9298 0.2872 0.3913
H44 H 0.8428 0.2710 0.2962
C49 C 0.2648(8) 0.2802(7) -0.3422(6)
H45 H 0.2675 0.3717 -0.3874
H46 H 0.1616 0.2773 -0.3356
C50 C 0.6805(8) -0.0013(7) 0.5061(6)
H47 H 0.5783 -0.0069 0.5143
H48 H 0.7328 -0.0442 0.5864
C51 C 0.1917(8) 0.0586(8) -0.3686(6)
H49 H 0.1846 0.0582 -0.4450
H50 H 0.1122 0.1292 -0.3717
C52 C 0.7225(7) 0.0689(7) 0.2180(6)
C53 C 0.3340(8) 0.2090(7) -0.4091(6)
H51 H 0.2801 0.2499 -0.4887
H52 H 0.4357 0.2155 -0.4192
C54 C 0.8194(7) 0.1492(6) 0.4656(6)
H53 H 0.8981 0.0788 0.4676
H54 H 0.8278 0.1467 0.5432
C55 C 0.7497(7) -0.0699(6) 0.4389(6)
H55 H 0.8526 -0.0660 0.4326
H56 H 0.7481 -0.1616 0.4836
C56 C 0.1804(7) -0.0702(6) -0.2671(6)
H57 H 0.1836 -0.0666 -0.1921
H58 H 0.0854 -0.0851 -0.2794
N7 N 0.6756(6) -0.0137(5) 0.3224(5)
N8 N 0.3412(7) 0.2227(6) -0.2229(5)
O9 O 0.7199(5) 0.3809(5) 0.3562(4)
H59 H 0.710(6) 0.389(5) 0.430(5)
O10 O 0.6842(5) 0.1297(5) 0.4469(4)
O11 O 0.3319(5) 0.0762(5) -0.3463(4)
O12 O 0.2916(5) -0.1736(5) -0.2571(4)
H60 H 0.273(5) -0.162(5) -0.326(6)
O13 O 0.8345(6) 0.1041(5) 0.2130(4)
O14 O 0.4898(6) -0.1190(5) 0.3750(4)
O15 O 0.1806(6) 0.1037(5) -0.1146(4)
O16 O 0.5229(5) 0.3253(5) -0.2757(4)
loop_
_geom_bond_atom_site_label_1
_geom_bond_atom_site_label_2
_geom_bond_site_symmetry_1
_geom_bond_site_symmetry_2
C1 H1 1_555 1_555
C2 C5 1_555 1_555
C3 C5 1_555 1_555
C4 H2 1_555 1_555
C5 C4 1_555 1_555
C6 C1 1_555 1_555
H3 C6 1_555 1_555
C7 C1 1_555 1_555
C8 H4 1_555 1_555
C9 C3 1_555 1_555
H5 C9 1_555 1_555
C10 C2 1_555 1_555
H6 C10 1_555 1_555
N1 C7 1_555 1_555
H7 N1 1_555 1_555
H8 N1 1_555 1_555
N2 C3 1_555 1_555
H9 N2 1_555 1_555
H10 N2 1_555 1_555
C11 C17 1_555 1_555
C12 H11 1_555 1_555
C13 C15 1_555 1_555
C14 H12 1_555 1_555
C15 C12 1_555 1_555
H13 C15 1_555 1_555
C16 H14 1_555 1_555
C17 C14 1_555 1_555
C18 C11 1_555 1_555
C19 C11 1_555 1_555
H15 C19 1_555 1_555
C20 C14 1_555 1_555
H16 C20 1_555 1_555
N3 C17 1_555 1_555
H17 N3 1_555 1_555
H18 N3 1_555 1_555
N4 C13 1_555 1_555
H19 N4 1_555 1_555
H20 N4 1_555 1_555
C21 H21 1_555 1_555
C22 C26 1_555 1_555
C23 C24 1_555 1_555
C24 N5 1_555 1_555
C25 C26 1_555 1_555
C26 C21 1_555 1_555
C27 C23 1_555 1_555
H22 C27 1_555 1_555
C28 C30 1_555 1_555
C29 C25 1_555 1_555
C30 C21 1_555 1_555
C31 H23 1_555 1_555
H24 C31 1_555 1_555
C32 H25 1_555 1_555
H26 C32 1_555 1_555
C33 H27 1_555 1_555
H28 C33 1_555 1_555
C34 C31 1_555 1_555
H29 C34 1_555 1_555
H30 C34 1_555 1_555
C35 C32 1_555 1_555
H31 C35 1_555 1_555
H32 C35 1_555 1_555
C36 H33 1_555 1_555
H34 C36 1_555 1_555
C37 C33 1_555 1_555
H35 C37 1_555 1_555
H36 C37 1_555 1_555
C38 C36 1_555 1_555
H37 C38 1_555 1_555
H38 C38 1_555 1_555
N5 C28 1_555 1_555
N6 C22 1_555 1_555
O1 C37 1_555 1_555
O2 C33 1_555 1_555
O3 C28 1_555 1_555
O4 C24 1_555 1_555
O5 C22 1_555 1_555
O6 C29 1_555 1_555
O7 C34 1_555 1_555
O8 C38 1_555 1_555
H39 O8 1_555 1_555
H40 O1 1_555 1_555
C39 C44 1_555 1_555
C40 C45 1_555 1_555
C41 C43 1_555 1_555
C42 C45 1_555 1_555
C43 N8 1_555 1_555
C44 C41 1_555 1_555
C45 C47 1_555 1_555
C46 C40 1_555 1_555
H41 C46 1_555 1_555
C47 C41 1_555 1_555
H42 C47 1_555 1_555
C48 H43 1_555 1_555
H44 C48 1_555 1_555
C49 H45 1_555 1_555
H46 C49 1_555 1_555
C50 H47 1_555 1_555
H48 C50 1_555 1_555
C51 H49 1_555 1_555
H50 C51 1_555 1_555
C52 C40 1_555 1_555
C53 C49 1_555 1_555
H51 C53 1_555 1_555
H52 C53 1_555 1_555
C54 C48 1_555 1_555
H53 C54 1_555 1_555
H54 C54 1_555 1_555
C55 C50 1_555 1_555
H55 C55 1_555 1_555
H56 C55 1_555 1_555
C56 C51 1_555 1_555
H57 C56 1_555 1_555
H58 C56 1_555 1_555
N7 C42 1_555 1_555
N8 C39 1_555 1_555
O9 C48 1_555 1_555
H59 O9 1_555 1_555
O10 C50 1_555 1_555
O11 C51 1_555 1_555
O12 C56 1_555 1_555
H60 O12 1_555 1_555
O13 C52 1_555 1_555
O14 C42 1_555 1_555
O15 C43 1_555 1_555
O16 C39 1_555 1_555
C2 C7 1_555 1_555
C4 C6 1_555 1_555
C8 C9 1_555 1_555
C8 C10 1_555 1_555
C12 C19 1_555 1_555
C13 C18 1_555 1_555
C16 C18 1_555 1_555
C16 C20 1_555 1_555
C23 C30 1_555 1_555
C25 C27 1_555 1_555
C29 N6 1_555 1_555
C31 N6 1_555 1_555
C32 N5 1_555 1_555
C35 O2 1_555 1_555
C36 O7 1_555 1_555
C44 C46 1_555 1_555
C49 N8 1_555 1_555
C52 N7 1_555 1_555
C53 O11 1_555 1_555
C54 O10 1_555 1_555
C55 N7 1_555 1_555

#END
