
#######################################################################
#
#                 Cambridge Crystallographic Data Centre
#                                CCDC 
#
#######################################################################
#
# If this CIF has been generated from an entry in the Cambridge 
# Structural Database, then it will include bibliographic, chemical, 
# crystal, experimental, refinement or atomic coordinate data resulting 
# from the CCDC's data processing and validation procedures.
#
#######################################################################

data_ZIZLIG
_chemical_formula_moiety         'C12 H9 N1 O2 S2'
_chemical_name_systematic        
'S-(4-methylphenyl) oxo(1,3-thiazol-2-yl)ethanethioate'
_symmetry_cell_setting           orthorhombic
_symmetry_space_group_name_H-M   'C 2 2 21'
_symmetry_Int_Tables_number      20
_space_group_name_Hall           'C 2n 2'
loop_
_symmetry_equiv_pos_site_id
_symmetry_equiv_pos_as_xyz
1 x,y,z
2 -x,-y,1/2+z
3 -x,y,1/2-z
4 x,-y,-z
5 1/2+x,1/2+y,z
6 1/2-x,1/2-y,1/2+z
7 1/2-x,1/2+y,1/2-z
8 1/2+x,1/2-y,-z
_cell_length_a                   9.663(3)
_cell_length_b                   14.733(4)
_cell_length_c                   17.972(5)
_cell_angle_alpha                90
_cell_angle_beta                 90
_cell_angle_gamma                90
_cell_volume                     2558.58
_exptl_crystal_colour            colorless
_exptl_crystal_description       block
_cell_formula_units_Z            8
loop_
_atom_site_label
_atom_site_type_symbol
_atom_site_fract_x
_atom_site_fract_y
_atom_site_fract_z
S1 S 0.64112(16) 0.23682(7) 0.14880(6)
S2 S 0.6937(3) 0.58627(16) 0.23783(14)
O1 O 0.5383(3) 0.37007(17) 0.06878(14)
O2 O 0.6714(3) 0.38515(17) 0.24752(14)
N1 N 0.577(2) 0.5569(16) 0.1059(9)
C1 C 0.5922(3) 0.3482(2) 0.12594(17)
C2 C 0.6319(3) 0.4164(2) 0.18838(15)
C3 C 0.6255(3) 0.5123(2) 0.17204(15)
C4 C 0.6531(4) 0.6746(3) 0.1856(2)
H1 H 0.6706 0.7337 0.2013
C5 C 0.5936(4) 0.6574(3) 0.1193(2)
H2 H 0.5661 0.7020 0.0858
C6 C 0.6018(4) 0.1809(2) 0.0635(2)
C7 C 0.4672(4) 0.1627(3) 0.0435(2)
H3 H 0.3945 0.1789 0.0747
C8 C 0.4409(4) 0.1196(3) -0.0238(2)
H4 H 0.3499 0.1068 -0.0370
C9 C 0.5465(4) 0.0954(2) -0.07143(19)
C10 C 0.6800(4) 0.1130(2) -0.0503(2)
H5 H 0.7524 0.0960 -0.0814
C11 C 0.7092(4) 0.1558(2) 0.0167(2)
H6 H 0.8004 0.1675 0.0301
C12 C 0.5166(5) 0.0522(3) -0.1463(2)
H7 H 0.4538 0.0023 -0.1398
H8 H 0.6013 0.0305 -0.1677
H9 H 0.4757 0.0964 -0.1788
H10? H 0.6771 0.7305 0.2059
H11? H 0.5732 0.7059 0.0880
S3? S 0.556(2) 0.5548(13) 0.0916(8)
N2? N 0.672(3) 0.5769(16) 0.2205(12)
loop_
_geom_bond_atom_site_label_1
_geom_bond_atom_site_label_2
_geom_bond_site_symmetry_1
_geom_bond_site_symmetry_2
S1 C1 1_555 1_555
S2 C3 1_555 1_555
O1 C1 1_555 1_555
O2 C2 1_555 1_555
N1 C3 1_555 1_555
C1 C2 1_555 1_555
C2 C3 1_555 1_555
C4 S2 1_555 1_555
H1 C4 1_555 1_555
C5 N1 1_555 1_555
H2 C5 1_555 1_555
C6 S1 1_555 1_555
C7 C6 1_555 1_555
H3 C7 1_555 1_555
C8 C7 1_555 1_555
H4 C8 1_555 1_555
C9 C8 1_555 1_555
C10 C9 1_555 1_555
H5 C10 1_555 1_555
C11 C6 1_555 1_555
H6 C11 1_555 1_555
C12 C9 1_555 1_555
H7 C12 1_555 1_555
H8 C12 1_555 1_555
H9 C12 1_555 1_555
C4 C5 1_555 1_555
C10 C11 1_555 1_555

#END
