
#######################################################################
#
#                 Cambridge Crystallographic Data Centre
#                                CCDC 
#
#######################################################################
#
# If this CIF has been generated from an entry in the Cambridge 
# Structural Database, then it will include bibliographic, chemical, 
# crystal, experimental, refinement or atomic coordinate data resulting 
# from the CCDC's data processing and validation procedures.
#
#######################################################################

data_ZIZMOK
_chemical_formula_moiety         'C14 H12 O4 S8 1+,C14 H12 O4 S8,I3 1-'
_chemical_name_systematic        
"bis((Z),(Z)-4,5;4',5'-bis(1,4-Dioxanediyl-2,3-dithio)tetrathiafulvalene) tri-iodide"
_symmetry_cell_setting           monoclinic
_symmetry_space_group_name_H-M   'P 21/c'
_symmetry_Int_Tables_number      14
_space_group_name_Hall           '-P 2ybc'
loop_
_symmetry_equiv_pos_site_id
_symmetry_equiv_pos_as_xyz
1 x,y,z
2 -x,1/2+y,1/2-z
3 -x,-y,-z
4 x,1/2-y,1/2+z
_cell_length_a                   5.2219(2)
_cell_length_b                   19.4999(10)
_cell_length_c                   21.1138(7)
_cell_angle_alpha                90
_cell_angle_beta                 91.222(2)
_cell_angle_gamma                90
_cell_volume                     2149.46
_cell_formula_units_Z            2
loop_
_atom_site_label
_atom_site_type_symbol
_atom_site_fract_x
_atom_site_fract_y
_atom_site_fract_z
S1 S 0.006(3) 0.4352(5) 0.2086(5)
S2 S 0.029(2) 0.4375(5) 0.0692(5)
S3 S 0.471(2) 0.5445(6) 0.2144(5)
S4 S 0.470(2) 0.5512(6) 0.0756(5)
S5 S -0.400(2) 0.3329(6) 0.2131(5)
S6 S -0.377(3) 0.3369(6) 0.0512(5)
S7 S 0.889(2) 0.6484(6) 0.2327(5)
S8 S 0.895(2) 0.6524(6) 0.0695(6)
O1 O -0.177(5) 0.2275(14) 0.1559(12)
O2 O -0.572(6) 0.2089(14) 0.0645(12)
O3 O 0.663(6) 0.7571(15) 0.1777(13)
O4 O 1.065(6) 0.777(2) 0.0928(13)
C1 C 0.150(8) 0.471(2) 0.141(2)
C2 C 0.337(7) 0.520(2) 0.143(2)
C3 C -0.205(7) 0.386(2) 0.164(2)
C4 C -0.192(7) 0.386(2) 0.104(2)
C5 C 0.711(7) 0.599(2) 0.176(2)
C6 C 0.674(7) 0.603(2) 0.115(2)
C7 C -0.418(8) 0.258(2) 0.169(2)
C8 C -0.570(9) 0.275(2) 0.103(2)
C9 C 0.931(8) 0.728(2) 0.184(2)
C10 C 1.056(8) 0.717(2) 0.129(2)
C11 C -0.218(8) 0.160(2) 0.124(2)
C12 C -0.334(9) 0.178(2) 0.055(2)
C13 C 0.695(9) 0.824(3) 0.150(2)
C14 C 0.821(9) 0.812(2) 0.088(2)
I1 I 0.0000 0.0000 0.00000
I3 I 0.2360(8) -0.0076(2) 0.12670(15)
I3B I -0.2360(8) 0.0076(2) -0.12670(15)
I2? I 0.5000 0.0000 0.00000
loop_
_geom_bond_atom_site_label_1
_geom_bond_atom_site_label_2
_geom_bond_site_symmetry_1
_geom_bond_site_symmetry_2
I1 I3 1_555 1_555
S1 C1 1_555 1_555
S2 C1 1_555 1_555
S3 C2 1_555 1_555
S4 C2 1_555 1_555
S5 C3 1_555 1_555
S6 C4 1_555 1_555
S7 C5 1_555 1_555
S8 C6 1_555 1_555
O1 C7 1_555 1_555
O2 C8 1_555 1_555
O3 C9 1_555 1_555
O4 C10 1_555 1_555
C1 C2 1_555 1_555
C3 S1 1_555 1_555
C4 S2 1_555 1_555
C5 S3 1_555 1_555
C6 S4 1_555 1_555
C7 S5 1_555 1_555
C8 S6 1_555 1_555
C9 S7 1_555 1_555
C10 S8 1_555 1_555
C11 O1 1_555 1_555
C12 O2 1_555 1_555
C13 O3 1_555 1_555
C14 O4 1_555 1_555
I3B I1 1_555 1_555
C3 C4 1_555 1_555
C5 C6 1_555 1_555
C7 C8 1_555 1_555
C9 C10 1_555 1_555
C11 C12 1_555 1_555
C13 C14 1_555 1_555

#END
