
#######################################################################
#
#                 Cambridge Crystallographic Data Centre
#                                CCDC 
#
#######################################################################
#
# If this CIF has been generated from an entry in the Cambridge 
# Structural Database, then it will include bibliographic, chemical, 
# crystal, experimental, refinement or atomic coordinate data resulting 
# from the CCDC's data processing and validation procedures.
#
#######################################################################

data_ZIZRAD01
_chemical_formula_moiety         'C4 H3 N5 O6'
_chemical_name_systematic        1-methyl-3,4,5-trinitro-1H-pyrazole
_symmetry_cell_setting           orthorhombic
_symmetry_space_group_name_H-M   'P n a 21'
_symmetry_Int_Tables_number      33
_space_group_name_Hall           'P 2c -2n'
loop_
_symmetry_equiv_pos_site_id
_symmetry_equiv_pos_as_xyz
1 x,y,z
2 -x,-y,1/2+z
3 1/2-x,1/2+y,1/2+z
4 1/2+x,1/2-y,z
_cell_length_a                   11.9211(5)
_cell_length_b                   8.3391(4)
_cell_length_c                   8.4760(4)
_cell_angle_alpha                90
_cell_angle_beta                 90
_cell_angle_gamma                90
_cell_volume                     842.61
_exptl_crystal_colour            colorless
_exptl_crystal_description       block
_cell_formula_units_Z            4
loop_
_atom_site_label
_atom_site_type_symbol
_atom_site_fract_x
_atom_site_fract_y
_atom_site_fract_z
N1 N 0.6413(2) 0.2445(3) 0.5355(3)
N2 N 0.7241(2) 0.3352(3) 0.4796(3)
N3 N 0.7800(2) 0.6114(4) 0.4966(4)
O1 O 0.4482(2) 0.1292(3) 0.6830(4)
C1 C 0.7060(2) 0.4803(3) 0.5356(4)
C2 C 0.6100(2) 0.4856(3) 0.6293(4)
C3 C 0.5703(2) 0.3318(4) 0.6252(4)
O2 O 0.7663(2) 0.7341(3) 0.5703(5)
N4 N 0.5614(3) 0.6241(4) 0.7082(5)
N5 N 0.4669(2) 0.2723(4) 0.6905(4)
O3 O 0.8494(2) 0.5909(4) 0.3948(4)
O4 O 0.4051(3) 0.3730(4) 0.7464(4)
O5 O 0.5186(2) 0.7273(4) 0.6264(6)
O6 O 0.5703(3) 0.6250(4) 0.8511(4)
C4 C 0.6380(4) 0.0738(4) 0.4925(6)
H1 H 0.5705 0.0520 0.4344
H2 H 0.6393 0.0096 0.5865
H3 H 0.7019 0.0483 0.4284
loop_
_geom_bond_atom_site_label_1
_geom_bond_atom_site_label_2
_geom_bond_site_symmetry_1
_geom_bond_site_symmetry_2
N1 N2 1_555 1_555
N2 C1 1_555 1_555
N3 C1 1_555 1_555
O1 N5 1_555 1_555
C1 C2 1_555 1_555
C2 C3 1_555 1_555
C3 N1 1_555 1_555
O2 N3 1_555 1_555
N4 C2 1_555 1_555
N5 C3 1_555 1_555
O3 N3 1_555 1_555
O4 N5 1_555 1_555
O5 N4 1_555 1_555
O6 N4 1_555 1_555
C4 N1 1_555 1_555
H1 C4 1_555 1_555
H2 C4 1_555 1_555
H3 C4 1_555 1_555

#END
