
#######################################################################
#
#                 Cambridge Crystallographic Data Centre
#                                CCDC 
#
#######################################################################
#
# If this CIF has been generated from an entry in the Cambridge 
# Structural Database, then it will include bibliographic, chemical, 
# crystal, experimental, refinement or atomic coordinate data resulting 
# from the CCDC's data processing and validation procedures.
#
#######################################################################

data_ZIZXUD
_chemical_formula_moiety         'C16 H23 N1 O4 S1'
_chemical_name_systematic        
"5-Methoxy-1,3,6-trimethyl-5,6,6a,7,10,11-hexahydro-11bH-benzo[2',3']cyclopropa[1',2':2,3]cyclopenta[1,2-d][1,2,3]oxathiazepine 8,8-dioxide"
_symmetry_cell_setting           monoclinic
_symmetry_space_group_name_H-M   'P 21'
_symmetry_Int_Tables_number      4
_space_group_name_Hall           'P 2yb'
loop_
_symmetry_equiv_pos_site_id
_symmetry_equiv_pos_as_xyz
1 x,y,z
2 -x,1/2+y,-z
_cell_length_a                   7.8564(2)
_cell_length_b                   10.2682(3)
_cell_length_c                   10.0915(3)
_cell_angle_alpha                90
_cell_angle_beta                 103.9550(10)
_cell_angle_gamma                90
_cell_volume                     790.065
_exptl_crystal_colour            colorless
_exptl_crystal_description       block
_cell_formula_units_Z            2
loop_
_atom_site_label
_atom_site_type_symbol
_atom_site_fract_x
_atom_site_fract_y
_atom_site_fract_z
S1 S 0.48321(5) 0.42162(3) 0.07990(4)
O1 O 0.50025(13) 0.43688(12) 0.23824(11)
C1 C 1.2841(2) 0.51096(18) 0.66658(18)
H1 H 1.3916 0.4944 0.6362
H2 H 1.2499 0.4317 0.7077
H3 H 1.3050 0.5812 0.7343
C2 C 1.1394(2) 0.55022(16) 0.54595(17)
C3 C 1.1609(2) 0.56173(16) 0.41893(17)
H4 H 1.2735 0.5449 0.4035
C4 C 1.0179(2) 0.59929(15) 0.30221(17)
C5 C 0.85132(19) 0.51669(15) 0.25578(16)
C6 C 0.7977(2) 0.52782(16) 0.10057(16)
H5 H 0.8481 0.4518 0.0612
N1 N 0.60651(17) 0.53175(13) 0.03853(14)
H6 H 0.5612 0.5934 -0.0200
O2 O 0.30672(15) 0.45495(11) 0.01779(13)
O3 O 0.55122(16) 0.29651(12) 0.05738(13)
C7 C 0.8843(2) 0.65160(16) 0.06398(16)
H7 H 0.8086 0.7274 0.0740
C8 C 0.9105(2) 0.6527(2) -0.08018(18)
H8 H 0.9672 0.7343 -0.0959
H9 H 0.7964 0.6455 -0.1457
H10 H 0.9846 0.5790 -0.0920
C9 C 1.0551(2) 0.66148(16) 0.17486(17)
H11 H 1.1494 0.6115 0.1462
C10 C 0.8431(2) 0.64114(15) 0.33482(16)
H12 H 0.7808 0.7162 0.2810
C11 C 0.8367(2) 0.63515(16) 0.47969(17)
C12 C 0.9719(2) 0.58609(16) 0.57438(17)
H13 H 0.9578 0.5741 0.6645
C13 C 0.6761(2) 0.68984(19) 0.51507(18)
H14 H 0.6824 0.6743 0.6120
H15 H 0.5715 0.6472 0.4594
H16 H 0.6695 0.7837 0.4970
C14 C 0.8240(2) 0.38573(15) 0.31532(16)
H17 H 0.9115 0.3745 0.4033
H18 H 0.8442 0.3164 0.2526
C15 C 0.6409(2) 0.37008(18) 0.33877(17)
H19 H 0.6128 0.2760 0.3377
H20 H 0.6417 0.4036 0.4309
O4 O 1.10112(15) 0.79601(12) 0.18772(12)
C16 C 1.2781(2) 0.81965(19) 0.25491(19)
H21 H 1.2975 0.7959 0.3515
H22 H 1.3048 0.9122 0.2474
H23 H 1.3548 0.7672 0.2125
loop_
_geom_bond_atom_site_label_1
_geom_bond_atom_site_label_2
_geom_bond_site_symmetry_1
_geom_bond_site_symmetry_2
S1 O1 1_555 1_555
O1 C15 1_555 1_555
C1 H1 1_555 1_555
H2 C1 1_555 1_555
H3 C1 1_555 1_555
C2 C1 1_555 1_555
C3 C2 1_555 1_555
H4 C3 1_555 1_555
C4 C3 1_555 1_555
C5 C4 1_555 1_555
C6 C5 1_555 1_555
H5 C6 1_555 1_555
N1 S1 1_555 1_555
H6 N1 1_555 1_555
O2 S1 1_555 1_555
O3 S1 1_555 1_555
C7 C6 1_555 1_555
H7 C7 1_555 1_555
C8 C7 1_555 1_555
H8 C8 1_555 1_555
H9 C8 1_555 1_555
H10 C8 1_555 1_555
C9 C4 1_555 1_555
H11 C9 1_555 1_555
C10 C4 1_555 1_555
H12 C10 1_555 1_555
C11 C10 1_555 1_555
C12 C2 1_555 1_555
H13 C12 1_555 1_555
C13 C11 1_555 1_555
H14 C13 1_555 1_555
H15 C13 1_555 1_555
H16 C13 1_555 1_555
C14 C5 1_555 1_555
H17 C14 1_555 1_555
H18 C14 1_555 1_555
C15 C14 1_555 1_555
H19 C15 1_555 1_555
H20 C15 1_555 1_555
O4 C9 1_555 1_555
C16 O4 1_555 1_555
H21 C16 1_555 1_555
H22 C16 1_555 1_555
H23 C16 1_555 1_555
C5 C10 1_555 1_555
C6 N1 1_555 1_555
C7 C9 1_555 1_555
C11 C12 1_555 1_555

#END
