
#######################################################################
#
#                 Cambridge Crystallographic Data Centre
#                                CCDC 
#
#######################################################################
#
# If this CIF has been generated from an entry in the Cambridge 
# Structural Database, then it will include bibliographic, chemical, 
# crystal, experimental, refinement or atomic coordinate data resulting 
# from the CCDC's data processing and validation procedures.
#
#######################################################################

data_ZIZXEO
_chemical_formula_moiety         'C15 H8 Br2 N2'
_chemical_name_systematic        
2,3-bis(4-bromophenyl)-2H-azirene-2-carbonitrile
_symmetry_cell_setting           triclinic
_symmetry_space_group_name_H-M   'P -1'
_symmetry_Int_Tables_number      2
_space_group_name_Hall           '-P 1'
loop_
_symmetry_equiv_pos_site_id
_symmetry_equiv_pos_as_xyz
1 x,y,z
2 -x,-y,-z
_cell_length_a                   7.1796(6)
_cell_length_b                   7.6864(6)
_cell_length_c                   14.4003(10)
_cell_angle_alpha                101.655(6)
_cell_angle_beta                 95.515(6)
_cell_angle_gamma                113.279(8)
_cell_volume                     701.133
_exptl_crystal_colour            colorless
_exptl_crystal_description       prism
_cell_formula_units_Z            2
loop_
_atom_site_label
_atom_site_type_symbol
_atom_site_fract_x
_atom_site_fract_y
_atom_site_fract_z
Br1 Br -0.50537(9) 0.28468(7) 0.36602(4)
Br2 Br 0.38720(8) 0.86418(7) 1.14021(4)
C1 C 0.0241(8) -0.0166(8) 0.7828(3)
C2 C 0.1123(7) 0.1840(6) 0.7735(3)
C3 C 0.0764(8) 0.2102(6) 0.6767(3)
C4 C -0.0607(7) 0.2321(6) 0.6038(3)
C5 C -0.0148(7) 0.2349(6) 0.5124(3)
H1 H 0.1056 0.2259 0.4989
C6 C -0.1458(8) 0.2509(6) 0.4416(3)
H2 H -0.1146 0.2530 0.3805
C7 C -0.3240(7) 0.2638(6) 0.4628(3)
C8 C -0.3707(8) 0.2645(6) 0.5528(3)
H3 H -0.4903 0.2756 0.5662
C9 C -0.2390(8) 0.2485(6) 0.6232(3)
H4 H -0.2702 0.2486 0.6844
C10 C 0.1776(6) 0.3451(6) 0.8631(3)
C11 C 0.1918(7) 0.3135(7) 0.9542(3)
H5 H 0.1596 0.1868 0.9598
C12 C 0.2521(7) 0.4636(7) 1.0365(3)
H6 H 0.2610 0.4393 1.0971
C13 C 0.2994(6) 0.6509(7) 1.0282(3)
C14 C 0.2835(8) 0.6878(7) 0.9388(3)
H7 H 0.3138 0.8146 0.9339
C15 C 0.2221(7) 0.5347(7) 0.8564(3)
H8 H 0.2106 0.5589 0.7958
N1 N -0.0432(7) -0.1740(6) 0.7889(3)
N2 N 0.2515(6) 0.2118(6) 0.6948(3)
loop_
_geom_bond_atom_site_label_1
_geom_bond_atom_site_label_2
_geom_bond_site_symmetry_1
_geom_bond_site_symmetry_2
Br1 C7 1_555 1_555
Br2 C13 1_555 1_555
C1 C2 1_555 1_555
C2 C3 1_555 1_555
C3 C4 1_555 1_555
C4 C5 1_555 1_555
C5 H1 1_555 1_555
C6 C5 1_555 1_555
H2 C6 1_555 1_555
C7 C6 1_555 1_555
C8 C7 1_555 1_555
H3 C8 1_555 1_555
C9 C4 1_555 1_555
H4 C9 1_555 1_555
C10 C2 1_555 1_555
C11 C10 1_555 1_555
H5 C11 1_555 1_555
C12 C11 1_555 1_555
H6 C12 1_555 1_555
C13 C12 1_555 1_555
C14 C13 1_555 1_555
H7 C14 1_555 1_555
C15 C10 1_555 1_555
H8 C15 1_555 1_555
N1 C1 1_555 1_555
N2 C2 1_555 1_555
C3 N2 1_555 1_555
C8 C9 1_555 1_555
C14 C15 1_555 1_555

#END
