
#######################################################################
#
#                 Cambridge Crystallographic Data Centre
#                                CCDC 
#
#######################################################################
#
# If this CIF has been generated from an entry in the Cambridge 
# Structural Database, then it will include bibliographic, chemical, 
# crystal, experimental, refinement or atomic coordinate data resulting 
# from the CCDC's data processing and validation procedures.
#
#######################################################################

data_ZOBCOL
_chemical_formula_moiety         'C27 H22 N2 O3 S2'
_chemical_name_systematic        
N,4-dimethyl-N-[(4-phenyl-2H-1,3-benzoxazin-2-ylidene)(thiophen-2-yl)methyl]benzene-1-sulfonamide
_symmetry_cell_setting           triclinic
_symmetry_space_group_name_H-M   'P -1'
_symmetry_Int_Tables_number      2
_space_group_name_Hall           '-P 1'
loop_
_symmetry_equiv_pos_site_id
_symmetry_equiv_pos_as_xyz
1 x,y,z
2 -x,-y,-z
_cell_length_a                   10.6183(3)
_cell_length_b                   11.3107(3)
_cell_length_c                   11.6094(3)
_cell_angle_alpha                104.9560(10)
_cell_angle_beta                 111.8620(10)
_cell_angle_gamma                104.1460(10)
_cell_volume                     1156.54
_exptl_crystal_colour            red
_exptl_crystal_description       prismatic
_cell_formula_units_Z            2
loop_
_atom_site_label
_atom_site_type_symbol
_atom_site_fract_x
_atom_site_fract_y
_atom_site_fract_z
S1 S 0.30759(6) -0.02420(5) 0.30134(5)
S2 S 0.32899(5) 0.34580(4) 0.68296(4)
O1 O 0.65870(13) 0.32938(13) 0.69095(12)
O2 O 0.22876(14) 0.32696(13) 0.55058(13)
O3 O 0.28147(14) 0.34886(14) 0.78401(14)
N1 N 0.58037(16) 0.19295(15) 0.46145(15)
N2 N 0.38814(16) 0.22476(15) 0.66716(14)
C1 C 0.79428(19) 0.39299(17) 0.70356(18)
C2 C 0.8968(2) 0.49152(19) 0.82769(19)
H1 H 0.8736 0.5128 0.9000
C3 C 1.0344(2) 0.5585(2) 0.8438(2)
H2 H 1.1064 0.6262 0.9284
C4 C 1.0681(2) 0.5280(2) 0.7385(2)
H3 H 1.1623 0.5757 0.7506
C5 C 0.9652(2) 0.4286(2) 0.6158(2)
H4 H 0.9889 0.4081 0.5438
C6 C 0.82598(19) 0.35759(18) 0.59644(18)
C7 C 0.70906(19) 0.24882(18) 0.47216(18)
C8 C 0.55158(19) 0.23421(17) 0.56706(17)
C9 C 0.72901(19) 0.20022(18) 0.35107(19)
C10 C 0.8504(2) 0.1697(2) 0.3579(2)
H5 H 0.9248 0.1820 0.4423
C11 C 0.8630(2) 0.1215(2) 0.2420(2)
H6 H 0.9446 0.0985 0.2469
C12 C 0.7575(2) 0.1065(2) 0.1194(2)
H7 H 0.7669 0.0741 0.0403
C13 C 0.6379(2) 0.13891(19) 0.1121(2)
H8 H 0.5666 0.1306 0.0280
C14 C 0.6219(2) 0.18347(18) 0.22681(19)
H9 H 0.5379 0.2026 0.2207
C15 C 0.41584(18) 0.17947(17) 0.55481(17)
C16 C 0.29520(19) 0.06551(17) 0.43919(17)
C17 C 0.15403(19) 0.00687(17) 0.43088(18)
H10 H 0.1242 0.0393 0.4962
C18 C 0.0651(2) -0.1089(2) 0.3077(2)
H11 H -0.0328 -0.1619 0.2820
C19 C 0.1329(2) -0.1355(2) 0.2321(2)
H12 H 0.0876 -0.2089 0.1486
C20 C 0.47982(19) 0.49473(17) 0.74656(18)
C21 C 0.5770(2) 0.5549(2) 0.88339(19)
H13 H 0.5599 0.5184 0.9438
C22 C 0.6983(2) 0.6677(2) 0.93082(19)
H14 H 0.7630 0.7102 1.0248
C23 C 0.7280(2) 0.72072(18) 0.84389(19)
C24 C 0.6294(2) 0.65949(18) 0.70722(19)
H15 H 0.6478 0.6947 0.6465
C25 C 0.5048(2) 0.54787(18) 0.65824(18)
H16 H 0.4370 0.5081 0.5650
C26 C 0.8655(2) 0.8389(2) 0.8962(2)
H17 H 0.8947 0.8940 0.9893
H18 H 0.8475 0.8906 0.8401
H19 H 0.9441 0.8093 0.8934
C27 C 0.4552(2) 0.1917(2) 0.7840(2)
H20 H 0.5597 0.2482 0.8365
H21 H 0.4440 0.0987 0.7529
H22 H 0.4066 0.2059 0.8405
loop_
_geom_bond_atom_site_label_1
_geom_bond_atom_site_label_2
_geom_bond_site_symmetry_1
_geom_bond_site_symmetry_2
S1 C16 1_555 1_555
S2 O2 1_555 1_555
O1 C1 1_555 1_555
O3 S2 1_555 1_555
N1 C7 1_555 1_555
N2 S2 1_555 1_555
C1 C2 1_555 1_555
C2 H1 1_555 1_555
C3 C2 1_555 1_555
H2 C3 1_555 1_555
C4 C3 1_555 1_555
H3 C4 1_555 1_555
C5 C4 1_555 1_555
H4 C5 1_555 1_555
C6 C1 1_555 1_555
C7 C6 1_555 1_555
C8 O1 1_555 1_555
C9 C7 1_555 1_555
C10 C9 1_555 1_555
H5 C10 1_555 1_555
C11 C10 1_555 1_555
H6 C11 1_555 1_555
C12 C11 1_555 1_555
H7 C12 1_555 1_555
C13 C12 1_555 1_555
H8 C13 1_555 1_555
C14 C9 1_555 1_555
H9 C14 1_555 1_555
C15 N2 1_555 1_555
C16 C15 1_555 1_555
C17 C16 1_555 1_555
H10 C17 1_555 1_555
C18 C17 1_555 1_555
H11 C18 1_555 1_555
C19 S1 1_555 1_555
H12 C19 1_555 1_555
C20 S2 1_555 1_555
C21 C20 1_555 1_555
H13 C21 1_555 1_555
C22 C21 1_555 1_555
H14 C22 1_555 1_555
C23 C22 1_555 1_555
C24 C23 1_555 1_555
H15 C24 1_555 1_555
C25 C20 1_555 1_555
H16 C25 1_555 1_555
C26 C23 1_555 1_555
H17 C26 1_555 1_555
H18 C26 1_555 1_555
H19 C26 1_555 1_555
C27 N2 1_555 1_555
H20 C27 1_555 1_555
H21 C27 1_555 1_555
H22 C27 1_555 1_555
N1 C8 1_555 1_555
C5 C6 1_555 1_555
C8 C15 1_555 1_555
C13 C14 1_555 1_555
C18 C19 1_555 1_555
C24 C25 1_555 1_555

#END
