
#######################################################################
#
#                 Cambridge Crystallographic Data Centre
#                                CCDC 
#
#######################################################################
#
# If this CIF has been generated from an entry in the Cambridge 
# Structural Database, then it will include bibliographic, chemical, 
# crystal, experimental, refinement or atomic coordinate data resulting 
# from the CCDC's data processing and validation procedures.
#
#######################################################################

data_ZOBCIF
_chemical_formula_moiety         'C30 H26 N2 O3 S1'
_chemical_name_systematic        
N,4-dimethyl-N-[(8-methyl-4-phenyl-2H-1,3-benzoxazin-2-ylidene)(phenyl)methyl]benzene-1-sulfonamide
_symmetry_cell_setting           triclinic
_symmetry_space_group_name_H-M   'P 1'
_symmetry_Int_Tables_number      1
_space_group_name_Hall           'P 1'
loop_
_symmetry_equiv_pos_site_id
_symmetry_equiv_pos_as_xyz
1 x,y,z
_cell_length_a                   7.5699(15)
_cell_length_b                   8.2998(15)
_cell_length_c                   11.079(2)
_cell_angle_alpha                71.037(6)
_cell_angle_beta                 72.442(6)
_cell_angle_gamma                68.706(6)
_cell_volume                     599.888
_exptl_crystal_colour            red
_exptl_crystal_description       prismatic
_cell_formula_units_Z            1
loop_
_atom_site_label
_atom_site_type_symbol
_atom_site_fract_x
_atom_site_fract_y
_atom_site_fract_z
N1 N 0.4965(8) 0.3874(8) 0.5575(5)
N2 N 0.5821(8) 0.5753(7) 0.2991(5)
O1 O 0.5974(7) 0.1226(6) 0.4842(4)
O2 O 0.4123(8) 0.8043(7) 0.1246(5)
O3 O 0.2427(7) 0.6065(6) 0.3065(5)
S1 S 0.3783(2) 0.7106(2) 0.26114(16)
C1 C 0.6334(10) 0.0200(9) 0.6063(7)
C2 C 0.7180(10) -0.1625(9) 0.6166(7)
C3 C 0.7626(11) -0.2632(10) 0.7371(7)
H1 H 0.8227 -0.3880 0.7492
C4 C 0.7222(11) -0.1873(10) 0.8388(8)
H2 H 0.7589 -0.2600 0.9186
C5 C 0.6290(11) -0.0069(10) 0.8282(7)
H3 H 0.5985 0.0438 0.9002
C6 C 0.5807(11) 0.0995(9) 0.7075(7)
C7 C 0.4878(10) 0.2944(9) 0.6784(7)
C8 C 0.3844(10) 0.3891(10) 0.7822(7)
C9 C 0.2735(11) 0.3141(10) 0.8995(7)
H4 H 0.2630 0.1986 0.9130
C10 C 0.1803(11) 0.4069(11) 0.9949(8)
H5 H 0.1013 0.3575 1.0724
C11 C 0.2014(12) 0.5726(11) 0.9780(8)
H6 H 0.1435 0.6331 1.0463
C12 C 0.3073(11) 0.6501(11) 0.8615(8)
H7 H 0.3170 0.7658 0.8484
C13 C 0.3974(11) 0.5589(9) 0.7656(7)
H8 H 0.4702 0.6122 0.6863
C14 C 0.5765(10) 0.3035(8) 0.4591(7)
C15 C 0.6237(10) 0.3845(9) 0.3305(7)
C16 C 0.7081(10) 0.2933(9) 0.2249(6)
C17 C 0.8523(10) 0.1306(9) 0.2342(7)
H9 H 0.8986 0.0758 0.3130
C18 C 0.9294(11) 0.0472(9) 0.1356(7)
H10 H 1.0277 -0.0639 0.1462
C19 C 0.8654(12) 0.1234(11) 0.0186(8)
H11 H 0.9181 0.0641 -0.0504
C20 C 0.7246(11) 0.2858(10) 0.0042(8)
H12 H 0.6804 0.3399 -0.0753
C21 C 0.6482(11) 0.3698(10) 0.1051(7)
H13 H 0.5525 0.4825 0.0935
C22 C 0.7540(10) 0.6412(9) 0.2350(7)
H14 H 0.8060 0.6172 0.1481
H15 H 0.8534 0.5800 0.2877
H16 H 0.7160 0.7698 0.2268
C23 C 0.7588(12) -0.2426(10) 0.5044(8)
H17 H 0.6573 -0.1775 0.4536
H18 H 0.7608 -0.3679 0.5375
H19 H 0.8849 -0.2348 0.4485
C24 C 0.3013(10) 0.8685(9) 0.3531(7)
C25 C 0.2149(11) 0.8265(10) 0.4839(7)
H20 H 0.2066 0.7090 0.5253
C26 C 0.1414(11) 0.9540(10) 0.5535(8)
H21 H 0.0792 0.9244 0.6426
C27 C 0.1560(11) 1.1280(10) 0.4961(8)
C28 C 0.2441(11) 1.1665(10) 0.3658(8)
H22 H 0.2530 1.2839 0.3246
C29 C 0.3197(11) 1.0402(9) 0.2933(8)
H23 H 0.3832 1.0692 0.2045
C30 C 0.0705(13) 1.2640(11) 0.5753(10)
H24 H -0.0705 1.3070 0.5837
H25 H 0.1248 1.3641 0.5321
H26 H 0.1011 1.2100 0.6622
loop_
_geom_bond_atom_site_label_1
_geom_bond_atom_site_label_2
_geom_bond_site_symmetry_1
_geom_bond_site_symmetry_2
N1 C7 1_555 1_555
N2 S1 1_555 1_555
O1 C1 1_555 1_555
O2 S1 1_555 1_555
O3 S1 1_555 1_555
S1 C24 1_555 1_555
C1 C2 1_555 1_555
C2 C3 1_555 1_555
C3 H1 1_555 1_555
C4 C3 1_555 1_555
H2 C4 1_555 1_555
C5 C4 1_555 1_555
H3 C5 1_555 1_555
C6 C1 1_555 1_555
C7 C6 1_555 1_555
C8 C7 1_555 1_555
C9 C8 1_555 1_555
H4 C9 1_555 1_555
C10 C9 1_555 1_555
H5 C10 1_555 1_555
C11 C10 1_555 1_555
H6 C11 1_555 1_555
C12 C11 1_555 1_555
H7 C12 1_555 1_555
C13 C8 1_555 1_555
H8 C13 1_555 1_555
C14 N1 1_555 1_555
C15 N2 1_555 1_555
C16 C15 1_555 1_555
C17 C16 1_555 1_555
H9 C17 1_555 1_555
C18 C17 1_555 1_555
H10 C18 1_555 1_555
C19 C18 1_555 1_555
H11 C19 1_555 1_555
C20 C19 1_555 1_555
H12 C20 1_555 1_555
C21 C16 1_555 1_555
H13 C21 1_555 1_555
C22 N2 1_555 1_555
H14 C22 1_555 1_555
H15 C22 1_555 1_555
H16 C22 1_555 1_555
C23 C2 1_555 1_555
H17 C23 1_555 1_555
H18 C23 1_555 1_555
H19 C23 1_555 1_555
C24 C25 1_555 1_555
C25 H20 1_555 1_555
C26 C25 1_555 1_555
H21 C26 1_555 1_555
C27 C26 1_555 1_555
C28 C27 1_555 1_555
H22 C28 1_555 1_555
C29 C24 1_555 1_555
H23 C29 1_555 1_555
C30 C27 1_555 1_555
H24 C30 1_555 1_555
H25 C30 1_555 1_555
H26 C30 1_555 1_555
O1 C14 1_555 1_555
C5 C6 1_555 1_555
C12 C13 1_555 1_555
C14 C15 1_555 1_555
C20 C21 1_555 1_555
C28 C29 1_555 1_555

#END
