
#######################################################################
#
#                 Cambridge Crystallographic Data Centre
#                                CCDC 
#
#######################################################################
#
# If this CIF has been generated from an entry in the Cambridge 
# Structural Database, then it will include bibliographic, chemical, 
# crystal, experimental, refinement or atomic coordinate data resulting 
# from the CCDC's data processing and validation procedures.
#
#######################################################################

data_ZOBMUA
_chemical_formula_moiety         'C28 H22 F1 N1 O2 S1'
_chemical_name_systematic        
6-Fluoro-4-((4-methylphenyl)ethynyl)-2-((4-methylphenyl)sulfonyl)-2,3-dihydro-1H-benzo[f]isoindole
_symmetry_cell_setting           monoclinic
_symmetry_space_group_name_H-M   'C 2/c'
_symmetry_Int_Tables_number      15
_space_group_name_Hall           '-C 2yn'
loop_
_symmetry_equiv_pos_site_id
_symmetry_equiv_pos_as_xyz
1 x,y,z
2 -x,y,1/2-z
3 1/2+x,1/2+y,z
4 1/2-x,1/2+y,1/2-z
5 -x,-y,-z
6 x,-y,1/2+z
7 1/2-x,1/2-y,-z
8 1/2+x,1/2-y,1/2+z
_cell_length_a                   20.825(6)
_cell_length_b                   7.511(2)
_cell_length_c                   29.279(9)
_cell_angle_alpha                90
_cell_angle_beta                 96.089(4)
_cell_angle_gamma                90
_cell_volume                     4553.88
_exptl_crystal_colour            colorless
_exptl_crystal_description       block
_cell_formula_units_Z            8
loop_
_atom_site_label
_atom_site_type_symbol
_atom_site_fract_x
_atom_site_fract_y
_atom_site_fract_z
C1 C 0.07580(15) 1.0473(4) 0.20955(11)
H1 H 0.0800 1.1386 0.1871
H2 H 0.0972 1.0844 0.2386
H3 H 0.0309 1.0270 0.2124
F1 F 0.50513(8) 0.7990(3) -0.05078(6)
N1 N 0.25326(9) 0.3955(3) 0.12516(6)
O1 O 0.14554(8) 0.2656(3) 0.12276(6)
S1 S 0.19301(3) 0.35335(8) 0.15365(2)
C2 C 0.10614(12) 0.8777(4) 0.19460(9)
O2 O 0.21892(8) 0.2700(3) 0.19550(6)
C3 C 0.15925(12) 0.8042(4) 0.22060(8)
H4 H 0.1773 0.8635 0.2468
C4 C 0.18575(11) 0.6452(4) 0.20842(8)
H5 H 0.2209 0.5970 0.2265
C5 C 0.15964(10) 0.5576(3) 0.16908(7)
C6 C 0.10766(11) 0.6309(4) 0.14194(8)
H6 H 0.0905 0.5737 0.1152
C7 C 0.08159(12) 0.7899(4) 0.15495(9)
H7 H 0.0468 0.8390 0.1367
C8 C 0.31594(10) 0.4523(3) 0.14837(7)
H8 H 0.3382 0.3542 0.1647
H9 H 0.3108 0.5487 0.1697
C9 C 0.35118(10) 0.5131(3) 0.10921(7)
C10 C 0.41341(10) 0.5710(3) 0.11001(7)
H10 H 0.4402 0.5731 0.1375
C11 C 0.43698(10) 0.6276(3) 0.06884(7)
C12 C 0.50068(11) 0.6932(3) 0.06865(9)
H11 H 0.5278 0.6972 0.0960
C13 C 0.52305(12) 0.7509(4) 0.02895(9)
H12 H 0.5648 0.7946 0.0291
C14 C 0.48187(13) 0.7425(3) -0.01148(9)
C15 C 0.42032(12) 0.6815(3) -0.01398(8)
H13 H 0.3945 0.6790 -0.0419
C16 C 0.39607(10) 0.6217(3) 0.02666(7)
C17 C 0.33093(10) 0.5576(3) 0.02666(7)
C18 C 0.31011(9) 0.5077(3) 0.06785(7)
C19 C 0.24369(10) 0.4465(3) 0.07624(7)
H14 H 0.2123 0.5418 0.0710
H15 H 0.2299 0.3458 0.0569
C20 C 0.28806(10) 0.5488(3) -0.01479(7)
C21 C 0.25103(11) 0.5385(3) -0.04875(7)
C22 C 0.20475(10) 0.5275(3) -0.08890(7)
C23 C 0.22212(11) 0.5716(3) -0.13227(7)
H16 H 0.2642 0.6063 -0.1356
C24 C 0.17685(12) 0.5636(3) -0.17018(8)
H17 H 0.1889 0.5938 -0.1989
C25 C 0.11372(12) 0.5114(3) -0.16638(8)
C26 C 0.09735(12) 0.4647(3) -0.12319(8)
H18 H 0.0554 0.4275 -0.1201
C27 C 0.14171(11) 0.4721(3) -0.08496(8)
H19 H 0.1296 0.4402 -0.0564
C28 C 0.06353(15) 0.5061(5) -0.20754(10)
H20 H 0.0433 0.3910 -0.2095
H21 H 0.0838 0.5279 -0.2349
H22 H 0.0315 0.5958 -0.2044
loop_
_geom_bond_atom_site_label_1
_geom_bond_atom_site_label_2
_geom_bond_site_symmetry_1
_geom_bond_site_symmetry_2
C1 H1 1_555 1_555
H2 C1 1_555 1_555
H3 C1 1_555 1_555
F1 C14 1_555 1_555
N1 S1 1_555 1_555
O1 S1 1_555 1_555
S1 O2 1_555 1_555
C2 C1 1_555 1_555
C3 C2 1_555 1_555
H4 C3 1_555 1_555
C4 C3 1_555 1_555
H5 C4 1_555 1_555
C5 S1 1_555 1_555
C6 C5 1_555 1_555
H6 C6 1_555 1_555
C7 C2 1_555 1_555
H7 C7 1_555 1_555
C8 N1 1_555 1_555
H8 C8 1_555 1_555
H9 C8 1_555 1_555
C9 C8 1_555 1_555
C10 C9 1_555 1_555
H10 C10 1_555 1_555
C11 C10 1_555 1_555
C12 C11 1_555 1_555
H11 C12 1_555 1_555
C13 C12 1_555 1_555
H12 C13 1_555 1_555
C14 C13 1_555 1_555
C15 C14 1_555 1_555
H13 C15 1_555 1_555
C16 C11 1_555 1_555
C17 C16 1_555 1_555
C18 C9 1_555 1_555
C19 N1 1_555 1_555
H14 C19 1_555 1_555
H15 C19 1_555 1_555
C20 C17 1_555 1_555
C21 C20 1_555 1_555
C22 C21 1_555 1_555
C23 C22 1_555 1_555
H16 C23 1_555 1_555
C24 C23 1_555 1_555
H17 C24 1_555 1_555
C25 C24 1_555 1_555
C26 C25 1_555 1_555
H18 C26 1_555 1_555
C27 C22 1_555 1_555
H19 C27 1_555 1_555
C28 C25 1_555 1_555
H20 C28 1_555 1_555
H21 C28 1_555 1_555
H22 C28 1_555 1_555
C4 C5 1_555 1_555
C6 C7 1_555 1_555
C15 C16 1_555 1_555
C17 C18 1_555 1_555
C18 C19 1_555 1_555
C26 C27 1_555 1_555

#END
