
#######################################################################
#
#                 Cambridge Crystallographic Data Centre
#                                CCDC 
#
#######################################################################
#
# If this CIF has been generated from an entry in the Cambridge 
# Structural Database, then it will include bibliographic, chemical, 
# crystal, experimental, refinement or atomic coordinate data resulting 
# from the CCDC's data processing and validation procedures.
#
#######################################################################

data_ZOBSUE01
_chemical_name_common            2-(Benzoylketene)-1,3-oxathiolane
_chemical_formula_moiety         'C11 H10 O2 S1'
_chemical_name_systematic        2-(Benzoylmethylidene)-1,3-oxathiolane
_symmetry_cell_setting           orthorhombic
_symmetry_space_group_name_H-M   'P 21 21 21'
_symmetry_Int_Tables_number      19
_space_group_name_Hall           'P 2ac 2ab'
loop_
_symmetry_equiv_pos_site_id
_symmetry_equiv_pos_as_xyz
1 x,y,z
2 1/2-x,-y,1/2+z
3 1/2+x,1/2-y,-z
4 -x,1/2+y,1/2-z
_cell_length_a                   5.653(1)
_cell_length_b                   8.326(1)
_cell_length_c                   21.402(4)
_cell_angle_alpha                90
_cell_angle_beta                 90
_cell_angle_gamma                90
_cell_volume                     1007.33
_chemical_melting_point          105-106deg.C
_cell_formula_units_Z            4
loop_
_atom_site_label
_atom_site_type_symbol
_atom_site_fract_x
_atom_site_fract_y
_atom_site_fract_z
S1 S 0.1847(30) 0.3407(2) 0.7861(1)
C1 C 0.3684(11) 0.5312(7) 0.8806(3)
C2 C 0.1953(11) 0.6495(7) 0.8691(2)
O1 O 0.0431(9) 0.6345(5) 0.8288(2)
C3 C 0.3374(12) 0.1536(9) 0.7745(3)
C4 C 0.5479(13) 0.1601(9) 0.8120(3)
O2 O 0.5461(10) 0.2865(5) 0.8542(2)
C5 C 0.3753(10) 0.3911(7) 0.8446(2)
C6 C 0.1996(10) 0.8038(7) 0.9081(2)
C7 C 0.3752(11) 0.8356(8) 0.9497(2)
C8 C 0.3645(12) 0.9813(8) 0.9817(3)
C9 C 0.1814(15) 1.0899(7) 0.9719(3)
C10 C 0.0137(13) 1.0517(8) 0.9319(3)
C11 C 0.0180(12) 0.9131(7) 0.8997(3)
H1 H 0.4992 0.5186 0.9088
H2 H 0.3774 0.1410 0.7312
H3 H 0.2388 0.0659 0.7875
H4 H 0.6819 0.1728 0.7849
H5 H 0.5620 0.0610 0.8346
H6 H 0.5139 0.7801 0.9639
H7 H 0.5029 0.9800 1.0077
H8 H 0.2129 1.1798 0.9987
H9 H -0.1273 1.1044 0.9176
H10 H -0.0814 0.8632 0.8690
loop_
_geom_bond_atom_site_label_1
_geom_bond_atom_site_label_2
_geom_bond_site_symmetry_1
_geom_bond_site_symmetry_2
S1 C3 1_555 1_555
C1 C2 1_555 1_555
C2 O1 1_555 1_555
C3 C4 1_555 1_555
C4 O2 1_555 1_555
O2 C5 1_555 1_555
C5 S1 1_555 1_555
C6 C2 1_555 1_555
C7 C6 1_555 1_555
C8 C7 1_555 1_555
C9 C8 1_555 1_555
C10 C9 1_555 1_555
C11 C6 1_555 1_555
H1 C1 1_555 1_555
H2 C3 1_555 1_555
H3 C3 1_555 1_555
H4 C4 1_555 1_555
H5 C4 1_555 1_555
H6 C7 1_555 1_555
H7 C8 1_555 1_555
H8 C9 1_555 1_555
H9 C10 1_555 1_555
H10 C11 1_555 1_555
C1 C5 1_555 1_555
C10 C11 1_555 1_555

#END
