
#######################################################################
#
#                 Cambridge Crystallographic Data Centre
#                                CCDC 
#
#######################################################################
#
# If this CIF has been generated from an entry in the Cambridge 
# Structural Database, then it will include bibliographic, chemical, 
# crystal, experimental, refinement or atomic coordinate data resulting 
# from the CCDC's data processing and validation procedures.
#
#######################################################################

data_ZOBYEW
_chemical_formula_moiety         'C15 H19 N1 O1'
_chemical_name_systematic        
1-(4-((3-methylcyclohex-2-en-1-yl)amino)phenyl)ethanone
_symmetry_cell_setting           orthorhombic
_symmetry_space_group_name_H-M   'P 21 21 21'
_symmetry_Int_Tables_number      19
_space_group_name_Hall           'P 2ac 2ab'
loop_
_symmetry_equiv_pos_site_id
_symmetry_equiv_pos_as_xyz
1 x,y,z
2 1/2-x,-y,1/2+z
3 1/2+x,1/2-y,-z
4 -x,1/2+y,1/2-z
_cell_length_a                   7.9717(7)
_cell_length_b                   11.1704(9)
_cell_length_c                   14.2796(10)
_cell_angle_alpha                90
_cell_angle_beta                 90
_cell_angle_gamma                90
_cell_volume                     1271.56
_exptl_crystal_colour            colorless
_exptl_crystal_description       block
_cell_formula_units_Z            4
loop_
_atom_site_label
_atom_site_type_symbol
_atom_site_fract_x
_atom_site_fract_y
_atom_site_fract_z
O1 O 0.2772(4) 0.9846(2) 0.59356(18)
N1 N 0.3504(5) 0.7796(3) 0.1817(2)
H1 H 0.3045 0.8313 0.1452
C1 C 0.3558(5) 0.8975(3) 0.5671(2)
C2 C 0.3639(4) 0.8653(3) 0.4671(2)
C3 C 0.4481(5) 0.7653(3) 0.4339(2)
H2 H 0.5063 0.7171 0.4759
C4 C 0.3597(5) 0.8064(3) 0.2749(2)
C5 C 0.2777(5) 0.9097(3) 0.3091(2)
H3 H 0.2214 0.9596 0.2676
C6 C 0.2802(5) 0.9371(3) 0.4021(2)
H4 H 0.2247 1.0054 0.4228
C7 C 0.4478(5) 0.7357(3) 0.3399(2)
H5 H 0.5062 0.6685 0.3195
C8 C 0.4126(5) 0.6697(3) 0.1402(3)
H6 H 0.5285 0.6579 0.1612
C9 C 0.3182(5) 0.6237(3) -0.0248(3)
C10 C 0.4445(6) 0.8196(4) 0.6380(3)
H7 H 0.4444 0.8588 0.6978
H8 H 0.5580 0.8062 0.6182
H9 H 0.3873 0.7442 0.6430
C11 C 0.1940(6) 0.5334(4) 0.0083(3)
H10 H 0.2378 0.4537 -0.0027
H11 H 0.0910 0.5418 -0.0272
C12 C 0.3102(6) 0.5599(4) 0.1690(3)
H12 H 0.3782 0.4885 0.1614
H13 H 0.2801 0.5664 0.2346
C13 C 0.3329(7) 0.6404(4) -0.1287(3)
H14 H 0.4092 0.7049 -0.1417
H15 H 0.2247 0.6591 -0.1543
H16 H 0.3743 0.5681 -0.1567
C14 C 0.1561(6) 0.5484(4) 0.1123(3)
H17 H 0.0873 0.6191 0.1211
H18 H 0.0925 0.4797 0.1340
C15 C 0.4140(6) 0.6856(4) 0.0346(3)
H19 H 0.4866 0.7424 0.0096
loop_
_geom_bond_atom_site_label_1
_geom_bond_atom_site_label_2
_geom_bond_site_symmetry_1
_geom_bond_site_symmetry_2
O1 C1 1_555 1_555
N1 H1 1_555 1_555
C1 C2 1_555 1_555
C2 C3 1_555 1_555
C3 H2 1_555 1_555
C4 N1 1_555 1_555
C5 C4 1_555 1_555
H3 C5 1_555 1_555
C6 C2 1_555 1_555
H4 C6 1_555 1_555
C7 C3 1_555 1_555
H5 C7 1_555 1_555
C8 N1 1_555 1_555
H6 C8 1_555 1_555
C9 C11 1_555 1_555
C10 C1 1_555 1_555
H7 C10 1_555 1_555
H8 C10 1_555 1_555
H9 C10 1_555 1_555
C11 H10 1_555 1_555
H11 C11 1_555 1_555
C12 C8 1_555 1_555
H12 C12 1_555 1_555
H13 C12 1_555 1_555
C13 C9 1_555 1_555
H14 C13 1_555 1_555
H15 C13 1_555 1_555
H16 C13 1_555 1_555
C14 C11 1_555 1_555
H17 C14 1_555 1_555
H18 C14 1_555 1_555
C15 C8 1_555 1_555
H19 C15 1_555 1_555
C4 C7 1_555 1_555
C5 C6 1_555 1_555
C9 C15 1_555 1_555
C12 C14 1_555 1_555

#END
