
#######################################################################
#
#                 Cambridge Crystallographic Data Centre
#                                CCDC 
#
#######################################################################
#
# If this CIF has been generated from an entry in the Cambridge 
# Structural Database, then it will include bibliographic, chemical, 
# crystal, experimental, refinement or atomic coordinate data resulting 
# from the CCDC's data processing and validation procedures.
#
#######################################################################

data_ZOCJUY
_chemical_formula_moiety         'C26 H21 N5 O3'
_chemical_name_systematic        
'1-Benzoyl-6-(3,5-dimethyl-1H-pyrazol-1-yl)-4-methyl-1H-pyrazolo[3,4-b]pyridin-3-yl benzoate'
_symmetry_cell_setting           monoclinic
_symmetry_space_group_name_H-M   'C 2/c'
_symmetry_Int_Tables_number      15
_space_group_name_Hall           '-C 2yn'
loop_
_symmetry_equiv_pos_site_id
_symmetry_equiv_pos_as_xyz
1 x,y,z
2 -x,y,1/2-z
3 1/2+x,1/2+y,z
4 1/2-x,1/2+y,1/2-z
5 -x,-y,-z
6 x,-y,1/2+z
7 1/2-x,1/2-y,-z
8 1/2+x,1/2-y,1/2+z
_cell_length_a                   26.154(3)
_cell_length_b                   9.5303(10)
_cell_length_c                   21.558(2)
_cell_angle_alpha                90
_cell_angle_beta                 122.445(5)
_cell_angle_gamma                90
_cell_volume                     4534.69
_cell_formula_units_Z            8
loop_
_atom_site_label
_atom_site_type_symbol
_atom_site_fract_x
_atom_site_fract_y
_atom_site_fract_z
N1 N 0.10503(8) 0.32820(18) -0.14665(8)
N2 N 0.14666(7) 0.36651(17) -0.07498(8)
N3 N 0.17145(6) 0.37484(17) 0.04542(8)
N4 N 0.18627(6) 0.37516(18) 0.16689(8)
N5 N 0.15025(7) 0.35708(18) 0.19576(8)
O1 O 0.05012(8) 0.09022(18) 0.13379(11)
O2 O 0.04855(6) 0.32191(15) 0.14993(7)
O3 O 0.27536(6) 0.44944(19) 0.18481(8)
C1 C 0.15147(7) 0.36422(19) 0.09063(9)
C2 C 0.12845(8) 0.3574(2) -0.02442(9)
C3 C -0.02602(7) 0.1832(2) 0.15095(9)
C4 C 0.09207(8) 0.3371(2) 0.07090(10)
C5 C 0.09594(8) 0.3354(2) 0.13918(10)
C6 C 0.06701(8) 0.3302(2) -0.05110(10)
H1 H 0.0395 0.3197 -0.1014
C7 C 0.24847(8) 0.4061(2) 0.21230(10)
C8 C -0.05346(9) 0.3029(2) 0.15640(11)
H2 H -0.0384 0.3912 0.1561
C9 C 0.27859(8) 0.3839(2) 0.29269(10)
C10 C -0.04884(9) 0.0526(2) 0.15189(11)
H3 H -0.0308 -0.0282 0.1481
C11 C 0.13425(11) 0.3405(2) -0.18054(11)
C12 C 0.04729(8) 0.3189(2) -0.00383(10)
C13 C 0.19363(10) 0.3861(2) -0.13289(11)
H4 H 0.2224 0.4022 -0.1448
C14 C 0.20151(9) 0.4026(2) -0.06527(10)
C15 C 0.26580(9) 0.2713(2) 0.32273(11)
H5 H 0.2345 0.2101 0.2921
C16 C 0.32497(8) 0.4741(2) 0.33860(11)
H6 H 0.3349 0.5481 0.3188
C17 C -0.12526(9) 0.1602(3) 0.16340(12)
H7 H -0.1587 0.1527 0.1676
C18 C 0.35663(9) 0.4550(3) 0.41371(12)
H8 H 0.3870 0.5179 0.4445
C19 C -0.10336(9) 0.2899(3) 0.16220(13)
H9 H -0.1222 0.3699 0.1653
C20 C 0.25579(10) 0.4514(3) 0.00416(12)
H10 H 0.2474 0.5403 0.0177
H11 H 0.2890 0.4614 -0.0026
H12 H 0.2661 0.3842 0.0423
C21 C -0.09844(9) 0.0424(2) 0.15843(12)
H13 H -0.1135 -0.0453 0.1594
C22 C 0.34359(9) 0.3432(3) 0.44331(12)
H14 H 0.3648 0.3310 0.4940
C23 C 0.29878(10) 0.2490(3) 0.39721(12)
H15 H 0.2910 0.1708 0.4167
C24 C -0.01771(9) 0.2878(3) -0.03042(12)
H16 H -0.0426 0.3040 -0.0824
H17 H -0.0306 0.3479 -0.0056
H18 H -0.0214 0.1916 -0.0202
C25 C 0.10269(13) 0.3068(3) -0.26074(12)
H19 H 0.0601 0.3248 -0.2841
H20 H 0.1089 0.2096 -0.2667
H21 H 0.1189 0.3642 -0.2828
C26 C 0.02713(8) 0.1879(2) 0.14413(10)
loop_
_geom_bond_atom_site_label_1
_geom_bond_atom_site_label_2
_geom_bond_site_symmetry_1
_geom_bond_site_symmetry_2
N1 N2 1_555 1_555
N2 C2 1_555 1_555
N3 C1 1_555 1_555
N4 N5 1_555 1_555
N5 C5 1_555 1_555
O1 C26 1_555 1_555
O2 C5 1_555 1_555
O3 C7 1_555 1_555
C1 N4 1_555 1_555
C2 N3 1_555 1_555
C3 C8 1_555 1_555
C4 C1 1_555 1_555
C5 C4 1_555 1_555
C6 C2 1_555 1_555
H1 C6 1_555 1_555
C7 N4 1_555 1_555
C8 H2 1_555 1_555
C9 C7 1_555 1_555
C10 C3 1_555 1_555
H3 C10 1_555 1_555
C11 N1 1_555 1_555
C12 C4 1_555 1_555
C13 C11 1_555 1_555
H4 C13 1_555 1_555
C14 N2 1_555 1_555
C15 C9 1_555 1_555
H5 C15 1_555 1_555
C16 C9 1_555 1_555
H6 C16 1_555 1_555
C17 H7 1_555 1_555
C18 C16 1_555 1_555
H8 C18 1_555 1_555
C19 C8 1_555 1_555
H9 C19 1_555 1_555
C20 C14 1_555 1_555
H10 C20 1_555 1_555
H11 C20 1_555 1_555
H12 C20 1_555 1_555
C21 C10 1_555 1_555
H13 C21 1_555 1_555
C22 C18 1_555 1_555
H14 C22 1_555 1_555
C23 C15 1_555 1_555
H15 C23 1_555 1_555
C24 C12 1_555 1_555
H16 C24 1_555 1_555
H17 C24 1_555 1_555
H18 C24 1_555 1_555
C25 C11 1_555 1_555
H19 C25 1_555 1_555
H20 C25 1_555 1_555
H21 C25 1_555 1_555
C26 O2 1_555 1_555
C3 C26 1_555 1_555
C6 C12 1_555 1_555
C13 C14 1_555 1_555
C17 C19 1_555 1_555
C17 C21 1_555 1_555
C22 C23 1_555 1_555

#END
