
#######################################################################
#
#                 Cambridge Crystallographic Data Centre
#                                CCDC 
#
#######################################################################
#
# If this CIF has been generated from an entry in the Cambridge 
# Structural Database, then it will include bibliographic, chemical, 
# crystal, experimental, refinement or atomic coordinate data resulting 
# from the CCDC's data processing and validation procedures.
#
#######################################################################

data_ZOCROA
_chemical_formula_moiety         'C13 H8 Cl2 F3 N5'
_chemical_name_systematic        
N-(3,5-Dichlorophenyl)-5-methyl-2-(trifluoromethyl)[1,2,4]triazolo[1,5-a]pyrimidin-7-amine
_symmetry_cell_setting           triclinic
_symmetry_space_group_name_H-M   'P -1'
_symmetry_Int_Tables_number      2
_space_group_name_Hall           '-P 1'
loop_
_symmetry_equiv_pos_site_id
_symmetry_equiv_pos_as_xyz
1 x,y,z
2 -x,-y,-z
_cell_length_a                   11.9793(4)
_cell_length_b                   12.4585(4)
_cell_length_c                   12.5696(4)
_cell_angle_alpha                106.447(2)
_cell_angle_beta                 103.959(2)
_cell_angle_gamma                115.156(2)
_cell_volume                     1480.55
_exptl_crystal_colour            colorless
_cell_formula_units_Z            4
loop_
_atom_site_label
_atom_site_type_symbol
_atom_site_fract_x
_atom_site_fract_y
_atom_site_fract_z
Cl1 Cl 0.31335(6) 0.67669(6) 0.02688(5)
Cl2 Cl -0.05782(6) 0.19507(5) -0.04027(5)
N1 N 0.18279(18) 0.76663(17) 0.58338(16)
N2 N 0.05771(17) 0.66149(16) 0.49705(15)
F1 F 0.20342(15) 0.96725(15) 0.86186(13)
C1 C 0.1237(2) 0.4411(2) 0.00173(19)
H1 H 0.1216 0.4033 -0.0746
N3 N -0.17177(18) 0.55270(17) 0.47511(16)
F2 F 0.35099(16) 1.01627(16) 0.78943(15)
N4 N 0.13220(19) 0.61832(18) 0.34593(16)
H2 H 0.198(3) 0.698(3) 0.388(2)
N5 N 0.01872(18) 0.74072(17) 0.65556(16)
C2 C 0.0460(2) 0.4185(2) 0.16043(19)
H3 H -0.0051 0.3644 0.1898
C3 C 0.0267(2) 0.58526(19) 0.37821(19)
C4 C 0.2057(2) 0.5762(2) 0.0751(2)
C5 C 0.1250(2) 0.5553(2) 0.22936(18)
C6 C 0.2067(2) 0.6345(2) 0.18675(19)
H4 H 0.2612 0.7256 0.2331
C7 C -0.0409(2) 0.6466(2) 0.54051(19)
C8 C 0.0453(2) 0.3651(2) 0.04714(19)
C9 C -0.2038(2) 0.4746(2) 0.3604(2)
C10 C -0.1087(2) 0.4876(2) 0.30979(19)
H5 H -0.1373 0.4298 0.2296
F3 F 0.3165(2) 0.87422(18) 0.86158(15)
C11 C 0.1498(2) 0.8071(2) 0.67387(19)
C12 C 0.2564(2) 0.9176(2) 0.7971(2)
C13 C -0.3513(2) 0.3705(2) 0.2850(2)
H6 H -0.3695 0.2902 0.2912
H7 H -0.3736 0.3551 0.2012
H8 H -0.4053 0.3996 0.3141
Cl3 Cl 0.47518(6) 0.66342(5) 0.41897(6)
Cl4 Cl 0.36178(7) 0.31023(6) -0.01689(6)
F4 F -0.18128(14) -0.20671(15) 0.45355(13)
N6 N 0.10460(17) -0.00746(16) 0.32054(16)
N7 N 0.02919(19) -0.17440(18) 0.36861(18)
N8 N -0.02095(18) -0.03379(17) 0.31350(17)
N9 N 0.25060(18) -0.08819(18) 0.36621(17)
F5 F -0.26959(15) -0.32884(15) 0.26298(14)
N10 N 0.1535(2) 0.16624(18) 0.26721(18)
H9 H 0.090(3) 0.170(3) 0.280(2)
C14 C 0.2417(2) 0.2711(2) 0.2462(2)
F6 F -0.26345(18) -0.1473(2) 0.3247(2)
C15 C 0.3357(2) 0.0020(2) 0.3408(2)
C16 C 0.1915(2) 0.08775(19) 0.29713(18)
C17 C 0.3102(2) 0.0897(2) 0.30596(19)
H10 H 0.3732 0.1496 0.2887
C18 C 0.3899(2) 0.5008(2) 0.3097(2)
C19 C 0.1343(2) -0.0920(2) 0.35387(19)
C20 C 0.2569(2) 0.2415(2) 0.1373(2)
H11 H 0.2120 0.1545 0.0790
C21 C 0.3407(2) 0.3447(2) 0.1178(2)
C22 C 0.4075(2) 0.4755(2) 0.2023(2)
H12 H 0.4622 0.5439 0.1874
C23 C 0.3088(2) 0.4008(2) 0.3341(2)
H13 H 0.2994 0.4199 0.4073
C24 C -0.0578(2) -0.1337(2) 0.3433(2)
C25 C -0.1932(2) -0.2021(2) 0.3472(2)
C26 C 0.4646(2) 0.0062(2) 0.3478(2)
H14 H 0.4762 -0.0471 0.3864
H15 H 0.5402 0.0956 0.3946
H16 H 0.4598 -0.0274 0.2670
loop_
_geom_bond_atom_site_label_1
_geom_bond_atom_site_label_2
_geom_bond_site_symmetry_1
_geom_bond_site_symmetry_2
Cl1 C4 1_555 1_555
Cl2 C8 1_555 1_555
N1 N2 1_555 1_555
N2 C3 1_555 1_555
F1 C12 1_555 1_555
C1 H1 1_555 1_555
N3 C7 1_555 1_555
F2 C12 1_555 1_555
N4 H2 1_555 1_555
N5 C7 1_555 1_555
C2 H3 1_555 1_555
C3 N4 1_555 1_555
C4 C1 1_555 1_555
C5 N4 1_555 1_555
C6 C4 1_555 1_555
H4 C6 1_555 1_555
C7 N2 1_555 1_555
C8 C1 1_555 1_555
C9 N3 1_555 1_555
C10 C3 1_555 1_555
H5 C10 1_555 1_555
F3 C12 1_555 1_555
C11 N1 1_555 1_555
C12 C11 1_555 1_555
C13 C9 1_555 1_555
H6 C13 1_555 1_555
H7 C13 1_555 1_555
H8 C13 1_555 1_555
Cl3 C18 1_555 1_555
Cl4 C21 1_555 1_555
F4 C25 1_555 1_555
N6 N8 1_555 1_555
N7 C19 1_555 1_555
N8 C24 1_555 1_555
N9 C15 1_555 1_555
F5 C25 1_555 1_555
N10 H9 1_555 1_555
C14 N10 1_555 1_555
F6 C25 1_555 1_555
C15 C17 1_555 1_555
C16 N6 1_555 1_555
C17 C16 1_555 1_555
H10 C17 1_555 1_555
C18 C22 1_555 1_555
C19 N6 1_555 1_555
C20 C14 1_555 1_555
H11 C20 1_555 1_555
C21 C20 1_555 1_555
C22 C21 1_555 1_555
H12 C22 1_555 1_555
C23 C14 1_555 1_555
H13 C23 1_555 1_555
C24 N7 1_555 1_555
C25 C24 1_555 1_555
C26 C15 1_555 1_555
H14 C26 1_555 1_555
H15 C26 1_555 1_555
H16 C26 1_555 1_555
N5 C11 1_555 1_555
C2 C5 1_555 1_555
C2 C8 1_555 1_555
C5 C6 1_555 1_555
C9 C10 1_555 1_555
N9 C19 1_555 1_555
N10 C16 1_555 1_555
C18 C23 1_555 1_555

#END
