
#######################################################################
#
#                 Cambridge Crystallographic Data Centre
#                                CCDC 
#
#######################################################################
#
# If this CIF has been generated from an entry in the Cambridge 
# Structural Database, then it will include bibliographic, chemical, 
# crystal, experimental, refinement or atomic coordinate data resulting 
# from the CCDC's data processing and validation procedures.
#
#######################################################################

data_ZODBOL
_chemical_formula_moiety         'C24 H18 O2'
_chemical_name_systematic        2,11-dimethoxypicene
_symmetry_cell_setting           orthorhombic
_symmetry_space_group_name_H-M   'P 21 21 21'
_symmetry_Int_Tables_number      19
_space_group_name_Hall           'P 2ac 2ab'
loop_
_symmetry_equiv_pos_site_id
_symmetry_equiv_pos_as_xyz
1 x,y,z
2 1/2+x,1/2-y,-z
3 -x,1/2+y,1/2-z
4 1/2-x,-y,1/2+z
_cell_length_a                   6.993(3)
_cell_length_b                   8.884(4)
_cell_length_c                   26.801(7)
_cell_angle_alpha                90
_cell_angle_beta                 90
_cell_angle_gamma                90
_cell_volume                     1665.03
_exptl_crystal_colour            colorless
_exptl_crystal_description       prism
_cell_formula_units_Z            4
_exptl_crystal_recrystallization_method toluene
loop_
_atom_site_label
_atom_site_type_symbol
_atom_site_fract_x
_atom_site_fract_y
_atom_site_fract_z
O1 O 0.96057(19) 0.07895(16) 0.78812(4)
O2 O 0.90877(18) 0.75133(14) 0.42086(4)
C1 C 0.8086(2) 0.17258(18) 0.71241(5)
C2 C 0.8130(2) 0.08352(18) 0.75438(5)
C3 C 0.6609(3) -0.01336(19) 0.76587(6)
C4 C 0.5051(3) -0.01620(18) 0.73566(6)
C5 C 0.4925(2) 0.07543(16) 0.69267(5)
C6 C 0.3266(2) 0.07678(19) 0.66219(6)
C7 C 0.3138(2) 0.16396(19) 0.62111(5)
C8 C 0.4686(2) 0.25814(15) 0.60587(5)
C9 C 0.45608(19) 0.34790(15) 0.56110(5)
C10 C 0.2849(2) 0.35213(19) 0.53177(5)
C11 C 0.2735(2) 0.43648(19) 0.48999(5)
C12 C 0.4305(2) 0.52283(16) 0.47259(5)
C13 C 0.4183(2) 0.60907(19) 0.42870(5)
C14 C 0.5716(3) 0.68856(19) 0.41100(5)
C15 C 0.7452(2) 0.68326(17) 0.43704(5)
C16 C 0.7596(2) 0.60394(17) 0.48100(5)
C17 C 0.6041(2) 0.52200(15) 0.50009(5)
C18 C 0.6144(2) 0.43485(15) 0.54571(5)
C19 C 0.7805(2) 0.43427(17) 0.57604(5)
C20 C 0.7907(2) 0.35249(17) 0.61894(5)
C21 C 0.6362(2) 0.26072(16) 0.63531(5)
C22 C 0.6482(2) 0.16996(17) 0.68017(5)
C23 C 1.1035(3) 0.1915(3) 0.78423(7)
C24 C 0.9033(4) 0.8270(2) 0.37405(6)
H1 H 0.912(3) 0.237(2) 0.7064(6)
H2 H 0.669(3) -0.069(2) 0.7960(6)
H3 H 0.399(3) -0.082(2) 0.7430(6)
H4 H 0.222(3) 0.012(2) 0.6715(6)
H5 H 0.199(3) 0.161(2) 0.6011(6)
H6 H 0.174(2) 0.2943(18) 0.5418(5)
H7 H 0.152(3) 0.441(2) 0.4700(6)
H8 H 0.298(3) 0.610(2) 0.4108(6)
H9 H 0.560(3) 0.7460(19) 0.3808(6)
H10 H 0.880(2) 0.6063(17) 0.4988(5)
H11 H 0.890(2) 0.4932(19) 0.5658(6)
H12 H 0.905(2) 0.3596(17) 0.6392(5)
H13 H 1.191(3) 0.174(3) 0.8141(7)
H14 H 1.170(3) 0.182(2) 0.7521(7)
H15 H 1.047(3) 0.293(3) 0.7880(7)
H16 H 0.799(4) 0.911(3) 0.3754(8)
H17 H 0.869(3) 0.755(2) 0.3464(7)
H18 H 1.027(3) 0.871(3) 0.3690(8)
loop_
_geom_bond_atom_site_label_1
_geom_bond_atom_site_label_2
_geom_bond_site_symmetry_1
_geom_bond_site_symmetry_2
O1 C2 1_555 1_555
O2 C15 1_555 1_555
C1 C2 1_555 1_555
C2 C3 1_555 1_555
C3 C4 1_555 1_555
C4 C5 1_555 1_555
C5 C6 1_555 1_555
C6 C7 1_555 1_555
C7 C8 1_555 1_555
C8 C9 1_555 1_555
C9 C10 1_555 1_555
C10 C11 1_555 1_555
C11 C12 1_555 1_555
C12 C13 1_555 1_555
C13 C14 1_555 1_555
C14 C15 1_555 1_555
C15 C16 1_555 1_555
C16 C17 1_555 1_555
C17 C12 1_555 1_555
C18 C9 1_555 1_555
C19 C18 1_555 1_555
C20 C19 1_555 1_555
C21 C8 1_555 1_555
C22 C1 1_555 1_555
C23 O1 1_555 1_555
C24 O2 1_555 1_555
H1 C1 1_555 1_555
H2 C3 1_555 1_555
H3 C4 1_555 1_555
H4 C6 1_555 1_555
H5 C7 1_555 1_555
H6 C10 1_555 1_555
H7 C11 1_555 1_555
H8 C13 1_555 1_555
H9 C14 1_555 1_555
H10 C16 1_555 1_555
H11 C19 1_555 1_555
H12 C20 1_555 1_555
H13 C23 1_555 1_555
H14 C23 1_555 1_555
H15 C23 1_555 1_555
H16 C24 1_555 1_555
H17 C24 1_555 1_555
H18 C24 1_555 1_555
C5 C22 1_555 1_555
C17 C18 1_555 1_555
C20 C21 1_555 1_555
C21 C22 1_555 1_555

#END
