
#######################################################################
#
#                 Cambridge Crystallographic Data Centre
#                                CCDC 
#
#######################################################################
#
# If this CIF has been generated from an entry in the Cambridge 
# Structural Database, then it will include bibliographic, chemical, 
# crystal, experimental, refinement or atomic coordinate data resulting 
# from the CCDC's data processing and validation procedures.
#
#######################################################################

data_ZODFEF
_chemical_formula_moiety         'C71 H88 N6 O15'
_chemical_name_systematic        
26,28,40,42-tetramethoxy-5,13,21,33,35-pentakis(3-methylbutoxy)-2,9,17,24,30,38-hexaazaheptacyclo[37.3.1.1^4,8^.1^11,15^.1^18,22^.1^25,29^.1^32,36^]octatetraconta-1(43),4(48),5,7,11(47),12,14,18(46),19,21,25(45),26,28,32(44),33,35,39,41-octadecaene-3,10,16,23,31,37-hexone
_symmetry_cell_setting           triclinic
_symmetry_space_group_name_H-M   'P -1'
_symmetry_Int_Tables_number      2
_space_group_name_Hall           '-P 1'
loop_
_symmetry_equiv_pos_site_id
_symmetry_equiv_pos_as_xyz
1 x,y,z
2 -x,-y,-z
_cell_length_a                   15.0617(6)
_cell_length_b                   15.8532(5)
_cell_length_c                   20.3366(6)
_cell_angle_alpha                86.099(3)
_cell_angle_beta                 78.810(3)
_cell_angle_gamma                67.459(4)
_cell_volume                     4399.56
_exptl_crystal_colour            colorless
_exptl_crystal_description       block
_cell_formula_units_Z            2
loop_
_atom_site_label
_atom_site_type_symbol
_atom_site_fract_x
_atom_site_fract_y
_atom_site_fract_z
O1 O 0.1247(2) 0.4029(3) 0.32059(14)
O2 O 0.49649(18) 0.1628(2) 0.43404(13)
O3 O 0.78979(16) -0.00350(16) 0.41739(10)
O4 O 0.94748(15) -0.04922(15) 0.24707(10)
O5 O 0.81003(15) 0.12182(15) 0.07783(11)
O6 O 0.5575(2) 0.2513(2) 0.09646(17)
O7 O 0.07582(15) 0.27182(15) 0.55406(10)
O8 O 0.80420(15) -0.08337(14) 0.61619(9)
O9 O 1.05315(15) -0.14264(14) 0.54049(10)
O10 O 1.25549(15) -0.14714(15) 0.32145(10)
O11 O 1.22598(14) -0.07584(14) 0.15095(10)
O12 O 1.08052(14) 0.10310(13) -0.03047(10)
O13 O 0.90676(14) 0.23512(13) -0.13888(9)
O14 O 0.55754(15) 0.42190(15) -0.10699(10)
O15 O 0.34109(15) 0.46029(14) 0.01936(10)
N1 N 0.28410(19) 0.33781(19) 0.28165(13)
H1 H 0.3400 0.3016 0.2928
N2 N 0.53424(18) 0.36345(16) 0.01830(11)
H2 H 0.4907 0.4119 0.0032
N3 N 0.88493(17) 0.17604(15) -0.01318(11)
H3 H 0.9420 0.1716 -0.0369
N4 N 0.44634(18) 0.11858(17) 0.53766(12)
H4 H 0.3944 0.1218 0.5676
N5 N 0.89397(17) -0.06403(15) 0.48995(11)
H5 H 0.8974 -0.0778 0.5323
N6 N 1.09836(17) -0.07157(15) 0.26639(11)
H6 H 1.1570 -0.0748 0.2468
C1 C 0.2058(2) 0.3518(2) 0.32887(15)
C2 C 0.2224(2) 0.3054(2) 0.39447(14)
C3 C 0.1397(2) 0.3102(2) 0.44188(14)
H7 H 0.0762 0.3420 0.4318
C4 C 0.1505(2) 0.2685(2) 0.50316(14)
C5 C 0.2447(2) 0.2191(2) 0.51776(15)
H8 H 0.2522 0.1894 0.5597
C6 C 0.3260(2) 0.2143(2) 0.47040(15)
C7 C 0.3140(2) 0.2578(2) 0.40933(14)
H9 H 0.3701 0.2546 0.3771
C8 C 0.4298(2) 0.1632(2) 0.47976(16)
C9 C 0.5384(2) 0.0670(2) 0.55546(14)
C10 C 0.5396(2) 0.0333(2) 0.62051(15)
H10 H 0.4798 0.0452 0.6512
C11 C 0.6274(2) -0.0172(2) 0.64065(15)
H11 H 0.6269 -0.0403 0.6850
C12 C 0.7161(2) -0.03506(19) 0.59767(14)
C13 C 0.7157(2) -0.00522(19) 0.53082(14)
C14 C 0.6268(2) 0.04636(19) 0.51163(14)
H12 H 0.6267 0.0682 0.4670
C15 C 0.8029(2) -0.02516(19) 0.47558(14)
C16 C 0.9838(2) -0.08520(19) 0.44571(14)
C17 C 1.0684(2) -0.12544(19) 0.47275(14)
C18 C 1.1601(2) -0.14608(19) 0.43342(15)
H13 H 1.2171 -0.1717 0.4529
C19 C 1.1678(2) -0.12880(19) 0.36472(14)
C20 C 1.0848(2) -0.08989(18) 0.33631(13)
C21 C 0.9923(2) -0.06751(18) 0.37676(14)
H14 H 0.9352 -0.0403 0.3575
C22 C 1.0292(2) -0.04950(19) 0.22664(14)
C23 C 1.0549(2) -0.01821(18) 0.15691(13)
C24 C 1.1483(2) -0.02799(18) 0.12115(14)
C25 C 1.1579(2) 0.01080(18) 0.05772(14)
H15 H 1.2211 0.0022 0.0330
C26 C 1.0759(2) 0.06180(18) 0.03037(13)
C27 C 0.9818(2) 0.07142(18) 0.06451(13)
C28 C 0.9753(2) 0.03051(18) 0.12642(13)
H16 H 0.9122 0.0360 0.1497
C29 C 0.8854(2) 0.12471(18) 0.04338(14)
C30 C 0.8014(2) 0.23529(17) -0.03683(13)
C31 C 0.8136(2) 0.26740(18) -0.10323(14)
C32 C 0.7328(2) 0.32883(19) -0.12782(14)
H17 H 0.7407 0.3495 -0.1727
C33 C 0.6412(2) 0.35997(19) -0.08739(14)
C34 C 0.6292(2) 0.3288(2) -0.02100(14)
C35 C 0.7092(2) 0.26737(18) 0.00265(14)
H18 H 0.7009 0.2464 0.0474
C36 C 0.5048(3) 0.3290(3) 0.07634(19)
C37 C 0.4008(2) 0.3718(2) 0.11105(16)
C38 C 0.3218(2) 0.4327(2) 0.08522(14)
C39 C 0.2291(2) 0.4635(2) 0.12434(15)
H19 H 0.1758 0.5061 0.1062
C40 C 0.2128(2) 0.4333(2) 0.18898(15)
H20 H 0.1485 0.4540 0.2148
C41 C 0.2905(2) 0.3726(2) 0.21635(15)
C42 C 0.3829(2) 0.3431(3) 0.17680(17)
H21 H 0.4364 0.3014 0.1953
C43 C -0.0204(2) 0.3311(2) 0.54412(15)
H22 H -0.0408 0.3053 0.5093
H23 H -0.0210 0.3920 0.5293
C44 C -0.0894(2) 0.3388(2) 0.61033(14)
H24 H -0.0855 0.2769 0.6252
H25 H -0.0679 0.3648 0.6443
C45 C -0.1941(3) 0.3975(4) 0.6069(2)
H26 H -0.1887 0.4586 0.6050
C46 C -0.2593(3) 0.4069(4) 0.6766(2)
H27 H -0.2601 0.3470 0.6913
H28 H -0.3260 0.4493 0.6741
H29 H -0.2334 0.4304 0.7086
C47 C -0.2404(6) 0.4075(6) 0.5551(4)
H30 H -0.2020 0.4226 0.5147
H31 H -0.3050 0.4568 0.5651
H32 H -0.2479 0.3504 0.5477
C48 C 0.8052(2) -0.1089(2) 0.68517(14)
H33 H 0.7715 -0.1519 0.6977
H34 H 0.7710 -0.0542 0.7144
C49 C 0.9102(2) -0.1534(2) 0.69335(15)
H35 H 0.9451 -0.1132 0.6740
H36 H 0.9410 -0.2116 0.6678
C50 C 0.9227(3) -0.1728(2) 0.76622(16)
H37 H 0.8848 -0.1151 0.7926
C51 C 0.8839(3) -0.2457(3) 0.7967(2)
H38 H 0.8132 -0.2232 0.7981
H39 H 0.8975 -0.2593 0.8423
H40 H 0.9163 -0.3014 0.7693
C52 C 1.0292(3) -0.2018(2) 0.77106(18)
H41 H 1.0673 -0.2592 0.7463
H42 H 1.0362 -0.2106 0.8182
H43 H 1.0530 -0.1544 0.7518
C53 C 1.1371(2) -0.1822(2) 0.57115(16)
H44 H 1.1800 -0.2406 0.5493
H45 H 1.1167 -0.1922 0.6188
H46 H 1.1724 -0.1408 0.5665
C54 C 1.3425(2) -0.1968(2) 0.34746(17)
H47 H 1.3996 -0.2076 0.3116
H48 H 1.3410 -0.2554 0.3650
H49 H 1.3467 -0.1613 0.3836
C55 C 1.3234(2) -0.0985(2) 0.11373(15)
H50 H 1.3356 -0.0423 0.0994
H51 H 1.3334 -0.1349 0.0734
C56 C 1.3912(2) -0.1531(2) 0.16015(17)
H52 H 1.3801 -0.2105 0.1714
H53 H 1.3741 -0.1180 0.2023
C57 C 1.4984(3) -0.1769(3) 0.1323(2)
H54 H 1.5091 -0.1188 0.1206
C58 C 1.5602(3) -0.2268(4) 0.1857(2)
H55 H 1.5389 -0.1882 0.2259
H56 H 1.6293 -0.2391 0.1679
H57 H 1.5516 -0.2845 0.1972
C59 C 1.5344(3) -0.2359(3) 0.0702(2)
H58 H 1.5247 -0.2934 0.0806
H59 H 1.6041 -0.2488 0.0545
H60 H 1.4977 -0.2039 0.0351
C60 C 1.1716(2) 0.1063(2) -0.06626(18)
H61 H 1.2240 0.0455 -0.0638
H62 H 1.1666 0.1188 -0.1140
C61 C 1.1994(4) 0.1724(3) -0.0424(3)
H63 H 1.2555 0.1768 -0.0750
H64 H 1.2225 0.1502 0.0003
C62 C 1.1172(4) 0.2723(3) -0.0300(4)
H65 H 1.0621 0.2660 0.0037
C63 C 1.0765(5) 0.3164(6) -0.0869(4)
H66 H 1.0344 0.3801 -0.0755
H67 H 1.0377 0.2849 -0.0999
H68 H 1.1293 0.3142 -0.1242
C64 C 1.1562(4) 0.3232(4) 0.0014(3)
H69 H 1.1905 0.2860 0.0360
H70 H 1.1031 0.3782 0.0220
H71 H 1.2022 0.3408 -0.0320
C65 C 0.9217(2) 0.2684(2) -0.20529(14)
H72 H 0.8790 0.2568 -0.2311
H73 H 0.9901 0.2372 -0.2267
H74 H 0.9063 0.3343 -0.2037
C66 C 0.5642(3) 0.4452(3) -0.17623(16)
H75 H 0.5850 0.3898 -0.2033
H76 H 0.6120 0.4742 -0.1887
H77 H 0.5002 0.4878 -0.1843
C67 C 0.2600(2) 0.5192(2) -0.01017(15)
H78 H 0.2287 0.5790 0.0133
H79 H 0.2106 0.4915 -0.0071
C68 C 0.3001(2) 0.5313(2) -0.08245(16)
H80 H 0.3291 0.4711 -0.1052
H81 H 0.3529 0.5545 -0.0843
C69 C 0.2231(3) 0.5969(3) -0.12028(18)
H82 H 0.1986 0.6579 -0.0979
C70 C 0.1364(4) 0.5722(4) -0.1179(3)
H83 H 0.1584 0.5070 -0.1283
H84 H 0.0978 0.6083 -0.1509
H85 H 0.0961 0.5849 -0.0730
C71 C 0.2723(4) 0.6073(4) -0.1914(2)
H86 H 0.3333 0.6154 -0.1903
H87 H 0.2286 0.6607 -0.2121
H88 H 0.2867 0.5525 -0.2176
O16? O 0.5678(6) 0.3284(7) 0.1212(4)
H89? H -0.2145 0.3577 0.5821
C72? C -0.2187(6) 0.4773(6) 0.5708(4)
H90? H -0.2067 0.5235 0.5934
H91? H -0.2880 0.4992 0.5676
H92? H -0.1788 0.4658 0.5257
loop_
_geom_bond_atom_site_label_1
_geom_bond_atom_site_label_2
_geom_bond_site_symmetry_1
_geom_bond_site_symmetry_2
O1 C1 1_555 1_555
O2 C8 1_555 1_555
O3 C15 1_555 1_555
O4 C22 1_555 1_555
O5 C29 1_555 1_555
O6 C36 1_555 1_555
O7 C4 1_555 1_555
O8 C12 1_555 1_555
O9 C17 1_555 1_555
O10 C19 1_555 1_555
O11 C24 1_555 1_555
O12 C26 1_555 1_555
O13 C31 1_555 1_555
O14 C33 1_555 1_555
O15 C38 1_555 1_555
N1 H1 1_555 1_555
N2 H2 1_555 1_555
N3 H3 1_555 1_555
N4 H4 1_555 1_555
N5 H5 1_555 1_555
N6 H6 1_555 1_555
C1 N1 1_555 1_555
C2 C1 1_555 1_555
C3 C2 1_555 1_555
H7 C3 1_555 1_555
C4 C3 1_555 1_555
C5 C4 1_555 1_555
H8 C5 1_555 1_555
C6 C5 1_555 1_555
C7 C2 1_555 1_555
H9 C7 1_555 1_555
C8 N4 1_555 1_555
C9 N4 1_555 1_555
C10 C9 1_555 1_555
H10 C10 1_555 1_555
C11 C10 1_555 1_555
H11 C11 1_555 1_555
C12 C11 1_555 1_555
C13 C12 1_555 1_555
C14 C9 1_555 1_555
H12 C14 1_555 1_555
C15 N5 1_555 1_555
C16 N5 1_555 1_555
C17 C16 1_555 1_555
C18 C17 1_555 1_555
H13 C18 1_555 1_555
C19 C18 1_555 1_555
C20 N6 1_555 1_555
C21 C16 1_555 1_555
H14 C21 1_555 1_555
C22 N6 1_555 1_555
C23 C22 1_555 1_555
C24 C23 1_555 1_555
C25 C24 1_555 1_555
H15 C25 1_555 1_555
C26 C25 1_555 1_555
C27 C26 1_555 1_555
C28 C23 1_555 1_555
H16 C28 1_555 1_555
C29 N3 1_555 1_555
C30 N3 1_555 1_555
C31 C30 1_555 1_555
C32 C31 1_555 1_555
H17 C32 1_555 1_555
C33 C32 1_555 1_555
C34 N2 1_555 1_555
C35 C30 1_555 1_555
H18 C35 1_555 1_555
C36 N2 1_555 1_555
C37 C36 1_555 1_555
C38 C37 1_555 1_555
C39 C38 1_555 1_555
H19 C39 1_555 1_555
C40 C39 1_555 1_555
H20 C40 1_555 1_555
C41 N1 1_555 1_555
C42 C37 1_555 1_555
H21 C42 1_555 1_555
C43 O7 1_555 1_555
H22 C43 1_555 1_555
H23 C43 1_555 1_555
C44 C43 1_555 1_555
H24 C44 1_555 1_555
H25 C44 1_555 1_555
C45 C44 1_555 1_555
H26 C45 1_555 1_555
C46 C45 1_555 1_555
H27 C46 1_555 1_555
H28 C46 1_555 1_555
H29 C46 1_555 1_555
C47 C45 1_555 1_555
H30 C47 1_555 1_555
H31 C47 1_555 1_555
H32 C47 1_555 1_555
C48 O8 1_555 1_555
H33 C48 1_555 1_555
H34 C48 1_555 1_555
C49 C48 1_555 1_555
H35 C49 1_555 1_555
H36 C49 1_555 1_555
C50 C49 1_555 1_555
H37 C50 1_555 1_555
C51 C50 1_555 1_555
H38 C51 1_555 1_555
H39 C51 1_555 1_555
H40 C51 1_555 1_555
C52 C50 1_555 1_555
H41 C52 1_555 1_555
H42 C52 1_555 1_555
H43 C52 1_555 1_555
C53 O9 1_555 1_555
H44 C53 1_555 1_555
H45 C53 1_555 1_555
H46 C53 1_555 1_555
C54 O10 1_555 1_555
H47 C54 1_555 1_555
H48 C54 1_555 1_555
H49 C54 1_555 1_555
C55 O11 1_555 1_555
H50 C55 1_555 1_555
H51 C55 1_555 1_555
C56 C55 1_555 1_555
H52 C56 1_555 1_555
H53 C56 1_555 1_555
C57 C56 1_555 1_555
H54 C57 1_555 1_555
C58 C57 1_555 1_555
H55 C58 1_555 1_555
H56 C58 1_555 1_555
H57 C58 1_555 1_555
C59 C57 1_555 1_555
H58 C59 1_555 1_555
H59 C59 1_555 1_555
H60 C59 1_555 1_555
C60 O12 1_555 1_555
H61 C60 1_555 1_555
H62 C60 1_555 1_555
C61 C60 1_555 1_555
H63 C61 1_555 1_555
H64 C61 1_555 1_555
C62 C61 1_555 1_555
H65 C62 1_555 1_555
C63 C62 1_555 1_555
H66 C63 1_555 1_555
H67 C63 1_555 1_555
H68 C63 1_555 1_555
C64 C62 1_555 1_555
H69 C64 1_555 1_555
H70 C64 1_555 1_555
H71 C64 1_555 1_555
C65 O13 1_555 1_555
H72 C65 1_555 1_555
H73 C65 1_555 1_555
H74 C65 1_555 1_555
C66 O14 1_555 1_555
H75 C66 1_555 1_555
H76 C66 1_555 1_555
H77 C66 1_555 1_555
C67 O15 1_555 1_555
H78 C67 1_555 1_555
H79 C67 1_555 1_555
C68 C67 1_555 1_555
H80 C68 1_555 1_555
H81 C68 1_555 1_555
C69 C68 1_555 1_555
H82 C69 1_555 1_555
C70 C69 1_555 1_555
H83 C70 1_555 1_555
H84 C70 1_555 1_555
H85 C70 1_555 1_555
C71 C69 1_555 1_555
H86 C71 1_555 1_555
H87 C71 1_555 1_555
H88 C71 1_555 1_555
C6 C7 1_555 1_555
C6 C8 1_555 1_555
C13 C14 1_555 1_555
C13 C15 1_555 1_555
C19 C20 1_555 1_555
C20 C21 1_555 1_555
C27 C28 1_555 1_555
C27 C29 1_555 1_555
C33 C34 1_555 1_555
C34 C35 1_555 1_555
C40 C41 1_555 1_555
C41 C42 1_555 1_555

#END
