
#######################################################################
#
#                 Cambridge Crystallographic Data Centre
#                                CCDC 
#
#######################################################################
#
# If this CIF has been generated from an entry in the Cambridge 
# Structural Database, then it will include bibliographic, chemical, 
# crystal, experimental, refinement or atomic coordinate data resulting 
# from the CCDC's data processing and validation procedures.
#
#######################################################################

data_ZODLUB
_chemical_formula_moiety         
'C71 H88 N6 O15,C8 H20 N1 1+,H2 O1,Cl1 1-,2(C1 H2 Cl2)'
_chemical_name_systematic        
'Di-n-butylammonium 26,28,40,42-tetramethoxy-5,13,21,33,35-pentakis(3-methylbutoxy)-2,9,17,24,30,38-hexa-azaheptacyclo[37.3.1.1^4,8^.1^11,15^.1^18,22^.1^25,29^.1^32,36^]octatetraconta-1(43),4(48),5,7,11(47),12,14,18(46),19,21,25(45),26,28,32(44),33,35,39,41-octadecaene-3,10,16,23,31,37-hexone chloride dichloromethane solvate monohydrate'
_symmetry_cell_setting           monoclinic
_symmetry_space_group_name_H-M   'P 21/n'
_symmetry_Int_Tables_number      14
_space_group_name_Hall           '-P 2yn'
loop_
_symmetry_equiv_pos_site_id
_symmetry_equiv_pos_as_xyz
1 x,y,z
2 1/2-x,1/2+y,1/2-z
3 -x,-y,-z
4 1/2+x,1/2-y,1/2+z
_cell_length_a                   15.3283(4)
_cell_length_b                   24.6571(4)
_cell_length_c                   23.0091(5)
_cell_angle_alpha                90
_cell_angle_beta                 107.044(2)
_cell_angle_gamma                90
_cell_volume                     8314.38
_cell_formula_units_Z            4
loop_
_atom_site_label
_atom_site_type_symbol
_atom_site_fract_x
_atom_site_fract_y
_atom_site_fract_z
Cl1 Cl 0.35280(6) 0.60840(3) 0.34043(3)
Cl2 Cl 0.55312(8) 0.10852(4) 0.42400(5)
Cl3 Cl 0.65111(11) 0.01635(5) 0.48989(6)
C1 C 0.6167(5) 0.08152(18) 0.4935(2)
H1 H 0.6714 0.1045 0.5102
H2 H 0.5797 0.0832 0.5222
Cl4 Cl 0.75020(9) 0.54008(5) 0.34505(9)
Cl5 Cl 0.89883(9) 0.47069(6) 0.39839(13)
C2 C 0.7825(3) 0.47437(15) 0.37021(18)
H3 H 0.7543 0.4643 0.4023
H4 H 0.7607 0.4486 0.3361
O1 O 0.33667(17) 0.80478(8) 0.44894(9)
O2 O 0.40319(13) 0.72299(7) 0.65540(8)
O3 O 0.38322(18) 0.54177(8) 0.57883(10)
O4 O 0.38097(14) 0.31492(7) 0.44211(8)
O5 O 0.38385(19) 0.42483(8) 0.30532(9)
O6 O 0.35495(13) 0.22972(7) 0.31747(8)
O7 O 0.37000(14) 0.23754(7) 0.10886(8)
O8 O 0.49507(14) 0.40940(7) 0.16801(8)
O9 O 0.38540(14) 0.34768(7) -0.00224(8)
O10 O 0.34230(13) 0.53031(7) -0.08195(8)
O11 O 0.43916(16) 0.58399(7) 0.09800(8)
O12 O 0.38366(14) 0.67526(7) -0.09335(8)
O13 O 0.36074(15) 0.83349(7) 0.02921(8)
O14 O 0.37974(16) 0.69404(7) 0.18249(9)
O15 O 0.35465(13) 0.86311(7) 0.17836(8)
N1 N 0.36249(15) 0.74086(8) 0.38470(9)
H5 H 0.3713 0.7059 0.3808
N2 N 0.38641(15) 0.53961(8) 0.48096(10)
H6 H 0.3876 0.5597 0.4496
N3 N 0.38097(15) 0.33590(8) 0.32901(9)
H7 H 0.3801 0.3135 0.3586
N4 N 0.39670(16) 0.34363(8) 0.11913(10)
H8 H 0.3683 0.3303 0.0831
N5 N 0.39339(15) 0.61136(8) -0.00047(9)
H9 H 0.3818 0.6000 -0.0382
N6 N 0.36981(15) 0.76952(8) 0.12387(10)
H10 H 0.3644 0.8050 0.1238
C3 C 0.37427(18) 0.66079(10) 0.48285(11)
H11 H 0.3689 0.6456 0.4440
C4 C 0.37181(17) 0.71678(10) 0.49008(11)
C5 C 0.38212(18) 0.73931(10) 0.54755(11)
H12 H 0.3811 0.7776 0.5524
C6 C 0.39384(17) 0.70550(10) 0.59738(11)
C7 C 0.39389(18) 0.64969(10) 0.59000(12)
H13 H 0.4002 0.6267 0.6241
C8 C 0.38483(17) 0.62713(10) 0.53356(11)
C9 C 0.38478(18) 0.56584(10) 0.53252(12)
C10 C 0.38639(18) 0.48209(10) 0.47357(12)
C11 C 0.3885(2) 0.44577(11) 0.52061(12)
H14 H 0.3908 0.4590 0.5598
C12 C 0.3872(2) 0.39050(11) 0.50999(13)
H15 H 0.3888 0.3662 0.5423
C13 C 0.38358(18) 0.36963(10) 0.45351(12)
C14 C 0.38377(17) 0.40543(10) 0.40577(11)
C15 C 0.38533(17) 0.46115(10) 0.41737(11)
H16 H 0.3857 0.4856 0.3855
C16 C 0.38294(18) 0.38947(10) 0.34222(12)
C17 C 0.38010(17) 0.31194(10) 0.27324(11)
C18 C 0.36531(17) 0.25567(10) 0.26715(11)
C19 C 0.36157(17) 0.22938(10) 0.21292(12)
H17 H 0.3506 0.1914 0.2091
C20 C 0.37386(17) 0.25883(10) 0.16460(11)
C21 C 0.39005(18) 0.31443(10) 0.17064(11)
C22 C 0.39257(18) 0.34058(10) 0.22443(11)
H18 H 0.4030 0.3786 0.2279
C23 C 0.44329(18) 0.39040(10) 0.12100(12)
C24 C 0.42235(18) 0.42246(10) 0.06316(11)
C25 C 0.39005(18) 0.40254(10) 0.00392(12)
C26 C 0.36531(18) 0.43809(10) -0.04523(12)
H19 H 0.3450 0.4242 -0.0855
C27 C 0.37017(18) 0.49406(10) -0.03566(11)
C28 C 0.40457(17) 0.51499(10) 0.02350(11)
C29 C 0.43051(18) 0.47770(10) 0.07053(12)
H20 H 0.4557 0.4913 0.1106
C30 C 0.41366(18) 0.57314(10) 0.04350(11)
C31 C 0.38902(17) 0.66792(9) 0.00853(11)
C32 C 0.38245(17) 0.70150(10) -0.04120(11)
C33 C 0.37299(18) 0.75728(10) -0.03567(11)
H21 H 0.3686 0.7803 -0.0695
C34 C 0.36989(18) 0.77926(10) 0.01951(12)
C35 C 0.37515(17) 0.74548(10) 0.06915(11)
C36 C 0.38561(18) 0.69014(10) 0.06319(11)
H22 H 0.3905 0.6671 0.0971
C37 C 0.37216(18) 0.74370(10) 0.17649(12)
C38 C 0.36470(17) 0.77760(10) 0.22888(11)
C39 C 0.35556(17) 0.83441(10) 0.22946(11)
C40 C 0.34614(19) 0.85909(10) 0.28134(12)
H23 H 0.3395 0.8974 0.2817
C41 C 0.34611(19) 0.82998(10) 0.33277(12)
H24 H 0.3383 0.8481 0.3673
C42 C 0.35764(17) 0.77374(10) 0.33344(11)
C43 C 0.36624(17) 0.74900(10) 0.28140(11)
H25 H 0.3735 0.7107 0.2815
C44 C 0.35490(19) 0.75773(10) 0.43949(12)
C45 C 0.40411(19) 0.78022(10) 0.66638(11)
H26 H 0.3531 0.7981 0.6357
H27 H 0.4622 0.7963 0.6640
C46 C 0.39416(19) 0.78774(10) 0.72934(11)
H28 H 0.4405 0.7652 0.7583
H29 H 0.3333 0.7744 0.7294
C47 C 0.40486(19) 0.84669(10) 0.75170(12)
H30 H 0.4675 0.8591 0.7529
C48 C 0.3363(2) 0.88488(12) 0.70984(14)
H31 H 0.3458 0.8850 0.6695
H32 H 0.3449 0.9216 0.7267
H33 H 0.2742 0.8726 0.7063
C49 C 0.3966(2) 0.85032(11) 0.81626(13)
H34 H 0.3342 0.8412 0.8157
H35 H 0.4111 0.8873 0.8318
H36 H 0.4393 0.8248 0.8426
C50 C 0.3781(2) 0.27872(10) 0.49038(12)
H37 H 0.3260 0.2880 0.5058
H38 H 0.4350 0.2818 0.5244
C51 C 0.3674(2) 0.22161(10) 0.46517(13)
H39 H 0.4224 0.2119 0.4531
H40 H 0.3143 0.2204 0.4282
C52 C 0.3539(2) 0.17947(11) 0.51095(13)
H41 H 0.3022 0.1918 0.5260
C53 C 0.3278(2) 0.12424(11) 0.47890(15)
H42 H 0.2725 0.1284 0.4446
H43 H 0.3166 0.0979 0.5078
H44 H 0.3779 0.1114 0.4640
C54 C 0.4381(2) 0.17310(13) 0.56533(15)
H45 H 0.4902 0.1626 0.5513
H46 H 0.4270 0.1450 0.5925
H47 H 0.4514 0.2076 0.5873
C55 C 0.3349(2) 0.17285(10) 0.31143(13)
H48 H 0.2782 0.1671 0.2787
H49 H 0.3279 0.1589 0.3497
H50 H 0.3850 0.1537 0.3018
C56 C 0.3545(2) 0.18053(10) 0.10094(13)
H51 H 0.3503 0.1706 0.0590
H52 H 0.2974 0.1711 0.1095
H53 H 0.4053 0.1609 0.1289
C57 C 0.36187(19) 0.32406(10) -0.06198(12)
H54 H 0.4027 0.3378 -0.0849
H55 H 0.2981 0.3330 -0.0849
C58 C 0.3731(2) 0.26341(10) -0.05267(13)
H56 H 0.3411 0.2519 -0.0231
H57 H 0.4388 0.2552 -0.0348
C59 C 0.3367(2) 0.23039(11) -0.11085(13)
H58 H 0.2691 0.2358 -0.1257
C60 C 0.3542(3) 0.17048(13) -0.09749(18)
H59 H 0.4201 0.1637 -0.0843
H60 H 0.3259 0.1494 -0.1343
H61 H 0.3280 0.1596 -0.0652
C61 C 0.3766(2) 0.24849(14) -0.16143(15)
H62 H 0.3596 0.2863 -0.1722
H63 H 0.3524 0.2254 -0.1972
H64 H 0.4432 0.2453 -0.1473
C62 C 0.3062(2) 0.51050(11) -0.14357(12)
H65 H 0.2582 0.4831 -0.1457
H66 H 0.3553 0.4935 -0.1572
C63 C 0.2667(2) 0.55836(12) -0.18355(13)
H67 H 0.2496 0.5464 -0.2265
H68 H 0.3150 0.5862 -0.1783
C64 C 0.1834(2) 0.58477(12) -0.17152(14)
H69 H 0.2020 0.5986 -0.1288
C65 C 0.1049(3) 0.54595(15) -0.1785(2)
H70 H 0.0892 0.5293 -0.2189
H71 H 0.0520 0.5657 -0.1736
H72 H 0.1227 0.5176 -0.1474
C66 C 0.1523(3) 0.63293(15) -0.21384(19)
H73 H 0.2031 0.6584 -0.2086
H74 H 0.1015 0.6512 -0.2041
H75 H 0.1322 0.6202 -0.2560
C67 C 0.3893(2) 0.70766(11) -0.14359(12)
H76 H 0.3923 0.6840 -0.1772
H77 H 0.4442 0.7303 -0.1312
H78 H 0.3352 0.7309 -0.1569
C68 C 0.3578(3) 0.86969(11) -0.01966(15)
H79 H 0.3067 0.8599 -0.0550
H80 H 0.4151 0.8671 -0.0303
H81 H 0.3496 0.9069 -0.0072
C69 C 0.3540(2) 0.92140(10) 0.18260(12)
H82 H 0.4064 0.9338 0.2165
H83 H 0.2971 0.9336 0.1906
C70 C 0.3601(2) 0.94510(11) 0.12374(13)
H84 H 0.3124 0.9286 0.0896
H85 H 0.4202 0.9360 0.1185
C71 C 0.3480(2) 1.00693(11) 0.12135(14)
H86 H 0.2858 1.0150 0.1248
C72 C 0.4176(3) 1.03606(13) 0.17406(17)
H87 H 0.4069 1.0259 0.2126
H88 H 0.4106 1.0754 0.1684
H89 H 0.4795 1.0255 0.1748
C73 C 0.3522(2) 1.02856(12) 0.06007(15)
H90 H 0.4138 1.0233 0.0565
H91 H 0.3373 1.0673 0.0571
H92 H 0.3081 1.0089 0.0273
O16 O 0.4081(3) 0.55535(16) 0.71560(17)
H93 H 0.3869 0.5224 0.7118
H94 H 0.4423 0.5599 0.6918
N7 N 0.42883(17) 0.58409(9) 0.23130(11)
H95 H 0.4128 0.6007 0.2660
H96 H 0.4091 0.6093 0.1964
C74 C 0.3782(2) 0.53201(11) 0.21511(13)
H97 H 0.3877 0.5096 0.2522
H98 H 0.4027 0.5117 0.1862
C75 C 0.2777(2) 0.54149(12) 0.18693(15)
H99 H 0.2683 0.5659 0.1515
H100 H 0.2523 0.5595 0.2169
C76 C 0.2277(3) 0.48867(14) 0.16671(19)
H101 H 0.2426 0.4630 0.2013
H102 H 0.2493 0.4726 0.1340
C77 C 0.1249(3) 0.49599(17) 0.14372(19)
H103 H 0.1096 0.5204 0.1085
H104 H 0.1030 0.5116 0.1760
H105 H 0.0957 0.4607 0.1318
C78 C 0.5298(2) 0.57746(13) 0.24787(15)
H106 H 0.5458 0.5588 0.2143
H107 H 0.5503 0.5543 0.2845
C79 C 0.5794(2) 0.63085(13) 0.26026(14)
H108 H 0.5481 0.6569 0.2281
H109 H 0.6420 0.6256 0.2573
C80 C 0.5857(2) 0.65585(14) 0.32177(16)
H110 H 0.5235 0.6596 0.3258
H111 H 0.6203 0.6311 0.3542
C81 C 0.6316(3) 0.71074(16) 0.3307(2)
H112 H 0.5936 0.7367 0.3020
H113 H 0.6914 0.7079 0.3236
H114 H 0.6395 0.7232 0.3724
loop_
_geom_bond_atom_site_label_1
_geom_bond_atom_site_label_2
_geom_bond_site_symmetry_1
_geom_bond_site_symmetry_2
Cl2 C1 1_555 1_555
Cl3 C1 1_555 1_555
C1 H1 1_555 1_555
H2 C1 1_555 1_555
Cl4 C2 1_555 1_555
Cl5 C2 1_555 1_555
C2 H3 1_555 1_555
H4 C2 1_555 1_555
O1 C44 1_555 1_555
O2 C6 1_555 1_555
O3 C9 1_555 1_555
O4 C13 1_555 1_555
O5 C16 1_555 1_555
O6 C18 1_555 1_555
O7 C20 1_555 1_555
O8 C23 1_555 1_555
O9 C25 1_555 1_555
O10 C27 1_555 1_555
O11 C30 1_555 1_555
O12 C32 1_555 1_555
O13 C34 1_555 1_555
O14 C37 1_555 1_555
O15 C39 1_555 1_555
N1 H5 1_555 1_555
N2 H6 1_555 1_555
N3 H7 1_555 1_555
N4 H8 1_555 1_555
N5 H9 1_555 1_555
N6 H10 1_555 1_555
C3 H11 1_555 1_555
C4 C3 1_555 1_555
C5 C4 1_555 1_555
H12 C5 1_555 1_555
C6 C5 1_555 1_555
C7 C6 1_555 1_555
H13 C7 1_555 1_555
C8 C3 1_555 1_555
C9 N2 1_555 1_555
C10 N2 1_555 1_555
C11 C10 1_555 1_555
H14 C11 1_555 1_555
C12 C11 1_555 1_555
H15 C12 1_555 1_555
C13 C12 1_555 1_555
C14 C13 1_555 1_555
C15 C10 1_555 1_555
H16 C15 1_555 1_555
C16 N3 1_555 1_555
C17 N3 1_555 1_555
C18 C17 1_555 1_555
C19 C18 1_555 1_555
H17 C19 1_555 1_555
C20 C19 1_555 1_555
C21 N4 1_555 1_555
C22 C17 1_555 1_555
H18 C22 1_555 1_555
C23 N4 1_555 1_555
C24 C23 1_555 1_555
C25 C24 1_555 1_555
C26 C25 1_555 1_555
H19 C26 1_555 1_555
C27 C26 1_555 1_555
C28 C27 1_555 1_555
C29 C24 1_555 1_555
H20 C29 1_555 1_555
C30 N5 1_555 1_555
C31 N5 1_555 1_555
C32 C31 1_555 1_555
C33 C32 1_555 1_555
H21 C33 1_555 1_555
C34 C33 1_555 1_555
C35 N6 1_555 1_555
C36 C31 1_555 1_555
H22 C36 1_555 1_555
C37 N6 1_555 1_555
C38 C37 1_555 1_555
C39 C38 1_555 1_555
C40 C39 1_555 1_555
H23 C40 1_555 1_555
C41 C40 1_555 1_555
H24 C41 1_555 1_555
C42 N1 1_555 1_555
C43 C38 1_555 1_555
H25 C43 1_555 1_555
C44 N1 1_555 1_555
C45 O2 1_555 1_555
H26 C45 1_555 1_555
H27 C45 1_555 1_555
C46 C45 1_555 1_555
H28 C46 1_555 1_555
H29 C46 1_555 1_555
C47 C46 1_555 1_555
H30 C47 1_555 1_555
C48 C47 1_555 1_555
H31 C48 1_555 1_555
H32 C48 1_555 1_555
H33 C48 1_555 1_555
C49 C47 1_555 1_555
H34 C49 1_555 1_555
H35 C49 1_555 1_555
H36 C49 1_555 1_555
C50 O4 1_555 1_555
H37 C50 1_555 1_555
H38 C50 1_555 1_555
C51 C50 1_555 1_555
H39 C51 1_555 1_555
H40 C51 1_555 1_555
C52 C51 1_555 1_555
H41 C52 1_555 1_555
C53 C52 1_555 1_555
H42 C53 1_555 1_555
H43 C53 1_555 1_555
H44 C53 1_555 1_555
C54 C52 1_555 1_555
H45 C54 1_555 1_555
H46 C54 1_555 1_555
H47 C54 1_555 1_555
C55 O6 1_555 1_555
H48 C55 1_555 1_555
H49 C55 1_555 1_555
H50 C55 1_555 1_555
C56 O7 1_555 1_555
H51 C56 1_555 1_555
H52 C56 1_555 1_555
H53 C56 1_555 1_555
C57 O9 1_555 1_555
H54 C57 1_555 1_555
H55 C57 1_555 1_555
C58 C57 1_555 1_555
H56 C58 1_555 1_555
H57 C58 1_555 1_555
C59 C58 1_555 1_555
H58 C59 1_555 1_555
C60 C59 1_555 1_555
H59 C60 1_555 1_555
H60 C60 1_555 1_555
H61 C60 1_555 1_555
C61 C59 1_555 1_555
H62 C61 1_555 1_555
H63 C61 1_555 1_555
H64 C61 1_555 1_555
C62 O10 1_555 1_555
H65 C62 1_555 1_555
H66 C62 1_555 1_555
C63 C62 1_555 1_555
H67 C63 1_555 1_555
H68 C63 1_555 1_555
C64 C63 1_555 1_555
H69 C64 1_555 1_555
C65 C64 1_555 1_555
H70 C65 1_555 1_555
H71 C65 1_555 1_555
H72 C65 1_555 1_555
C66 C64 1_555 1_555
H73 C66 1_555 1_555
H74 C66 1_555 1_555
H75 C66 1_555 1_555
C67 O12 1_555 1_555
H76 C67 1_555 1_555
H77 C67 1_555 1_555
H78 C67 1_555 1_555
C68 O13 1_555 1_555
H79 C68 1_555 1_555
H80 C68 1_555 1_555
H81 C68 1_555 1_555
C69 O15 1_555 1_555
H82 C69 1_555 1_555
H83 C69 1_555 1_555
C70 C69 1_555 1_555
H84 C70 1_555 1_555
H85 C70 1_555 1_555
C71 C70 1_555 1_555
H86 C71 1_555 1_555
C72 C71 1_555 1_555
H87 C72 1_555 1_555
H88 C72 1_555 1_555
H89 C72 1_555 1_555
C73 C71 1_555 1_555
H90 C73 1_555 1_555
H91 C73 1_555 1_555
H92 C73 1_555 1_555
O16 H93 1_555 1_555
H94 O16 1_555 1_555
N7 H95 1_555 1_555
H96 N7 1_555 1_555
C74 N7 1_555 1_555
H97 C74 1_555 1_555
H98 C74 1_555 1_555
C75 C74 1_555 1_555
H99 C75 1_555 1_555
H100 C75 1_555 1_555
C76 C75 1_555 1_555
H101 C76 1_555 1_555
H102 C76 1_555 1_555
C77 C76 1_555 1_555
H103 C77 1_555 1_555
H104 C77 1_555 1_555
H105 C77 1_555 1_555
C78 N7 1_555 1_555
H106 C78 1_555 1_555
H107 C78 1_555 1_555
C79 C78 1_555 1_555
H108 C79 1_555 1_555
H109 C79 1_555 1_555
C80 C79 1_555 1_555
H110 C80 1_555 1_555
H111 C80 1_555 1_555
C81 C80 1_555 1_555
H112 C81 1_555 1_555
H113 C81 1_555 1_555
H114 C81 1_555 1_555
C4 C44 1_555 1_555
C7 C8 1_555 1_555
C8 C9 1_555 1_555
C14 C15 1_555 1_555
C14 C16 1_555 1_555
C20 C21 1_555 1_555
C21 C22 1_555 1_555
C28 C29 1_555 1_555
C28 C30 1_555 1_555
C34 C35 1_555 1_555
C35 C36 1_555 1_555
C41 C42 1_555 1_555
C42 C43 1_555 1_555

#END
