
#######################################################################
#
#                 Cambridge Crystallographic Data Centre
#                                CCDC 
#
#######################################################################
#
# If this CIF has been generated from an entry in the Cambridge 
# Structural Database, then it will include bibliographic, chemical, 
# crystal, experimental, refinement or atomic coordinate data resulting 
# from the CCDC's data processing and validation procedures.
#
#######################################################################

data_ZODTET
_chemical_formula_moiety         'C23 H19 N1'
_chemical_name_systematic        1-methyl-2-phenyl-3-(1-phenylvinyl)-1H-indole
_symmetry_cell_setting           triclinic
_symmetry_space_group_name_H-M   'P -1'
_symmetry_Int_Tables_number      2
_space_group_name_Hall           '-P 1'
loop_
_symmetry_equiv_pos_site_id
_symmetry_equiv_pos_as_xyz
1 x,y,z
2 -x,-y,-z
_cell_length_a                   9.2869(19)
_cell_length_b                   9.636(2)
_cell_length_c                   11.202(2)
_cell_angle_alpha                84.187(3)
_cell_angle_beta                 72.065(3)
_cell_angle_gamma                64.104(3)
_cell_volume                     857.326
_exptl_crystal_colour            yellow
_exptl_crystal_description       block
_cell_formula_units_Z            2
loop_
_atom_site_label
_atom_site_type_symbol
_atom_site_fract_x
_atom_site_fract_y
_atom_site_fract_z
C1 C 0.52225(17) 0.23036(16) 1.00438(13)
C2 C 0.60494(17) 0.19791(16) 0.87783(12)
C3 C 0.48164(17) 0.21525(16) 0.81769(13)
C4 C 0.4851(2) 0.20248(18) 0.69263(14)
H1 H 0.5847 0.1753 0.6278
C5 C 0.3378(2) 0.23101(19) 0.66799(16)
H2 H 0.3390 0.2237 0.5855
C6 C 0.1870(2) 0.2706(2) 0.76445(17)
H3 H 0.0900 0.2895 0.7447
C7 C 0.17934(19) 0.28234(19) 0.88800(16)
H4 H 0.0793 0.3074 0.9521
C8 C 0.32786(18) 0.25504(17) 0.91345(13)
C9 C 0.2209(2) 0.3123(2) 1.14506(15)
H5 H 0.1218 0.3937 1.1309
H6 H 0.2555 0.3488 1.2029
H7 H 0.1974 0.2264 1.1795
C10 C 0.58475(17) 0.24203(16) 1.10818(13)
C11 C 0.56927(19) 0.15543(18) 1.21492(14)
H8 H 0.5238 0.0853 1.2198
C12 C 0.6210(2) 0.1728(2) 1.31382(15)
H9 H 0.6091 0.1151 1.3849
C13 C 0.6899(2) 0.2752(2) 1.30731(18)
H10 H 0.7228 0.2877 1.3744
C14 C 0.7100(2) 0.3589(2) 1.20120(19)
H11 H 0.7588 0.4264 1.1961
C15 C 0.65775(19) 0.34298(17) 1.10191(16)
H12 H 0.6715 0.4001 1.0307
C16 C 0.78783(17) 0.14580(16) 0.81668(13)
C17 C 0.8997(2) 0.0411(2) 0.86856(16)
H13 H 0.8640 -0.0006 0.9442
H14 H 1.0136 0.0098 0.8291
C18 C 0.84032(16) 0.21724(16) 0.69665(13)
C19 C 0.74503(19) 0.37085(18) 0.67578(14)
H15 H 0.6455 0.4284 0.7364
C20 C 0.7960(2) 0.4391(2) 0.56642(16)
H16 H 0.7310 0.5420 0.5547
C21 C 0.9419(2) 0.3565(2) 0.47462(16)
H17 H 0.9756 0.4031 0.4012
C22 C 1.0376(2) 0.2037(2) 0.49259(15)
H18 H 1.1364 0.1469 0.4310
C23 C 0.98697(19) 0.13462(19) 0.60212(14)
H19 H 1.0520 0.0313 0.6127
N1 N 0.35423(14) 0.26346(14) 1.02650(11)
loop_
_geom_bond_atom_site_label_1
_geom_bond_atom_site_label_2
_geom_bond_site_symmetry_1
_geom_bond_site_symmetry_2
C1 C2 1_555 1_555
C2 C3 1_555 1_555
C3 C4 1_555 1_555
C4 H1 1_555 1_555
C5 C4 1_555 1_555
H2 C5 1_555 1_555
C6 C5 1_555 1_555
H3 C6 1_555 1_555
C7 C6 1_555 1_555
H4 C7 1_555 1_555
C8 C3 1_555 1_555
C9 H5 1_555 1_555
H6 C9 1_555 1_555
H7 C9 1_555 1_555
C10 C1 1_555 1_555
C11 C10 1_555 1_555
H8 C11 1_555 1_555
C12 C11 1_555 1_555
H9 C12 1_555 1_555
C13 C12 1_555 1_555
H10 C13 1_555 1_555
C14 C13 1_555 1_555
H11 C14 1_555 1_555
C15 C10 1_555 1_555
H12 C15 1_555 1_555
C16 C2 1_555 1_555
C17 C16 1_555 1_555
H13 C17 1_555 1_555
H14 C17 1_555 1_555
C18 C16 1_555 1_555
C19 C18 1_555 1_555
H15 C19 1_555 1_555
C20 C19 1_555 1_555
H16 C20 1_555 1_555
C21 C20 1_555 1_555
H17 C21 1_555 1_555
C22 C21 1_555 1_555
H18 C22 1_555 1_555
C23 C18 1_555 1_555
H19 C23 1_555 1_555
N1 C1 1_555 1_555
C7 C8 1_555 1_555
C8 N1 1_555 1_555
C9 N1 1_555 1_555
C14 C15 1_555 1_555
C22 C23 1_555 1_555

#END
