
#######################################################################
#
#                 Cambridge Crystallographic Data Centre
#                                CCDC 
#
#######################################################################
#
# If this CIF has been generated from an entry in the Cambridge 
# Structural Database, then it will include bibliographic, chemical, 
# crystal, experimental, refinement or atomic coordinate data resulting 
# from the CCDC's data processing and validation procedures.
#
#######################################################################

data_ZOFCII
_chemical_formula_moiety         'C37 H31 N3 O4 S2'
_chemical_name_systematic        
5,5'-(((9-Anthrylmethyl)imino)bis(ethane-2,1-diylsulfanediyl))bis(2-methyl-1H-isoindole-1,3(2H)-dione)
_symmetry_cell_setting           triclinic
_symmetry_space_group_name_H-M   'P -1'
_symmetry_Int_Tables_number      2
_space_group_name_Hall           '-P 1'
loop_
_symmetry_equiv_pos_site_id
_symmetry_equiv_pos_as_xyz
1 x,y,z
2 -x,-y,-z
_cell_length_a                   7.328(3)
_cell_length_b                   15.407(5)
_cell_length_c                   15.958(6)
_cell_angle_alpha                64.70(3)
_cell_angle_beta                 85.48(3)
_cell_angle_gamma                77.49(3)
_cell_volume                     1590.02
_exptl_crystal_colour            yellow
_exptl_crystal_description       needle
_cell_formula_units_Z            2
loop_
_atom_site_label
_atom_site_type_symbol
_atom_site_fract_x
_atom_site_fract_y
_atom_site_fract_z
C1 C 0.6810(17) -0.0135(9) 0.6707(8)
H1 H 0.6658 -0.0187 0.6158
C2 C 0.7609(19) -0.0925(10) 0.7459(11)
H2 H 0.8013 -0.1512 0.7402
C3 C 0.788(2) -0.0929(10) 0.8319(12)
H3 H 0.8385 -0.1507 0.8819
C4 C 0.7379(16) -0.0069(10) 0.8410(8)
H4 H 0.7599 -0.0036 0.8960
C5 C 0.6503(17) 0.0784(9) 0.7628(10)
C6 C 0.5971(17) 0.1659(11) 0.7725(8)
H5 H 0.6147 0.1660 0.8295
C7 C 0.5192(17) 0.2527(10) 0.6999(10)
C8 C 0.4596(19) 0.3458(12) 0.7062(10)
H6 H 0.4749 0.3484 0.7623
C9 C 0.384(2) 0.4282(11) 0.6342(13)
H7 H 0.3499 0.4869 0.6403
C10 C 0.355(2) 0.4257(12) 0.5515(11)
H8 H 0.2989 0.4835 0.5030
C11 C 0.4031(14) 0.3466(9) 0.5371(8)
H9 H 0.3846 0.3496 0.4789
C12 C 0.4875(15) 0.2513(9) 0.6139(8)
C13 C 0.5367(15) 0.1640(9) 0.6042(8)
C14 C 0.6179(17) 0.0815(10) 0.6767(9)
C15 C 0.4916(16) 0.1638(8) 0.5125(8)
H10 H 0.5007 0.0965 0.5219
H11 H 0.3633 0.1979 0.4948
C16 C 0.5400(17) 0.2192(7) 0.3503(8)
H12 H 0.4109 0.2539 0.3438
H13 H 0.5390 0.1539 0.3566
C17 C 0.6374(16) 0.2705(7) 0.2605(7)
H14 H 0.5760 0.2699 0.2092
H15 H 0.7665 0.2365 0.2639
C18 C 0.6864(16) 0.4512(8) 0.1261(8)
C19 C 0.7357(13) 0.4013(8) 0.0674(8)
H16 H 0.7427 0.3340 0.0917
C20 C 0.7727(17) 0.4517(9) -0.0240(10)
C21 C 0.7794(15) 0.5517(9) -0.0587(10)
C22 C 0.7390(15) 0.6015(9) -0.0032(9)
H17 H 0.7406 0.6680 -0.0270
C23 C 0.6956(14) 0.5501(8) 0.0896(9)
H18 H 0.6722 0.5827 0.1280
C24 C 0.8162(18) 0.4224(12) -0.0990(10)
C25 C 0.8300(18) 0.5878(11) -0.1593(12)
C26 C 0.8949(18) 0.5054(9) -0.2676(9)
H19 H 0.8518 0.5701 -0.3149
H20 H 0.8327 0.4602 -0.2748
H21 H 1.0274 0.4859 -0.2727
C27 C 0.8058(16) 0.1531(8) 0.4554(7)
H22 H 0.8252 0.1099 0.4243
H23 H 0.8195 0.1121 0.5214
C28 C 0.9608(13) 0.2130(8) 0.4260(7)
H24 H 0.9577 0.2487 0.3590
H25 H 1.0813 0.1685 0.4438
C29 C 1.0032(16) 0.2246(10) 0.5925(9)
C30 C 0.9827(13) 0.2758(8) 0.6478(8)
H26 H 0.9295 0.3423 0.6201
C31 C 1.0358(15) 0.2352(8) 0.7423(8)
H27 H 1.0222 0.2728 0.7759
C32 C 1.1099(18) 0.1349(10) 0.7814(8)
C33 C 1.1365(15) 0.0839(9) 0.7290(8)
C34 C 1.0872(13) 0.1258(8) 0.6343(8)
H28 H 1.1103 0.0882 0.6005
C35 C 1.1833(19) 0.0635(12) 0.8765(9)
C36 C 1.2160(18) -0.0207(11) 0.7821(10)
C37 C 1.3171(18) -0.1162(8) 0.9526(8)
H29 H 1.2164 -0.1397 0.9923
H30 H 1.4011 -0.1014 0.9855
H31 H 1.3833 -0.1658 0.9338
N1 N 0.6129(13) 0.2094(6) 0.4364(7)
N2 N 0.8540(13) 0.5054(9) -0.1771(8)
N3 N 1.2423(14) -0.0284(8) 0.8714(9)
O1 O 0.8238(14) 0.3413(7) -0.0971(6)
O2 O 0.8519(10) 0.6648(6) -0.2140(6)
O3 O 1.1863(16) 0.0796(8) 0.9428(6)
O4 O 1.2522(13) -0.0920(6) 0.7674(7)
S1 S 0.6284(5) 0.3967(2) 0.2421(2)
S2 S 0.9370(5) 0.2988(2) 0.4777(2)
loop_
_geom_bond_atom_site_label_1
_geom_bond_atom_site_label_2
_geom_bond_site_symmetry_1
_geom_bond_site_symmetry_2
C1 H1 1_555 1_555
C2 C1 1_555 1_555
H2 C2 1_555 1_555
C3 C2 1_555 1_555
H3 C3 1_555 1_555
C4 C3 1_555 1_555
H4 C4 1_555 1_555
C5 C4 1_555 1_555
C6 C5 1_555 1_555
H5 C6 1_555 1_555
C7 C6 1_555 1_555
C8 C7 1_555 1_555
H6 C8 1_555 1_555
C9 C8 1_555 1_555
H7 C9 1_555 1_555
C10 C9 1_555 1_555
H8 C10 1_555 1_555
C11 C10 1_555 1_555
H9 C11 1_555 1_555
C12 C7 1_555 1_555
C13 C12 1_555 1_555
C14 C1 1_555 1_555
C15 C13 1_555 1_555
H10 C15 1_555 1_555
H11 C15 1_555 1_555
C16 H12 1_555 1_555
H13 C16 1_555 1_555
C17 C16 1_555 1_555
H14 C17 1_555 1_555
H15 C17 1_555 1_555
C18 C19 1_555 1_555
C19 H16 1_555 1_555
C20 C19 1_555 1_555
C21 C20 1_555 1_555
C22 C21 1_555 1_555
H17 C22 1_555 1_555
C23 C18 1_555 1_555
H18 C23 1_555 1_555
C24 C20 1_555 1_555
C25 C21 1_555 1_555
C26 H19 1_555 1_555
H20 C26 1_555 1_555
H21 C26 1_555 1_555
C27 H22 1_555 1_555
H23 C27 1_555 1_555
C28 C27 1_555 1_555
H24 C28 1_555 1_555
H25 C28 1_555 1_555
C29 C30 1_555 1_555
C30 H26 1_555 1_555
C31 C30 1_555 1_555
H27 C31 1_555 1_555
C32 C31 1_555 1_555
C33 C32 1_555 1_555
C34 C29 1_555 1_555
H28 C34 1_555 1_555
C35 C32 1_555 1_555
C36 C33 1_555 1_555
C37 H29 1_555 1_555
H30 C37 1_555 1_555
H31 C37 1_555 1_555
N1 C15 1_555 1_555
N2 C24 1_555 1_555
N3 C35 1_555 1_555
O1 C24 1_555 1_555
O2 C25 1_555 1_555
O3 C35 1_555 1_555
O4 C36 1_555 1_555
S1 C17 1_555 1_555
S2 C28 1_555 1_555
C5 C14 1_555 1_555
C11 C12 1_555 1_555
C13 C14 1_555 1_555
C16 N1 1_555 1_555
C18 S1 1_555 1_555
C22 C23 1_555 1_555
C25 N2 1_555 1_555
C26 N2 1_555 1_555
C27 N1 1_555 1_555
C29 S2 1_555 1_555
C33 C34 1_555 1_555
C36 N3 1_555 1_555
C37 N3 1_555 1_555

#END
