
#######################################################################
#
#                 Cambridge Crystallographic Data Centre
#                                CCDC 
#
#######################################################################
#
# If this CIF has been generated from an entry in the Cambridge 
# Structural Database, then it will include bibliographic, chemical, 
# crystal, experimental, refinement or atomic coordinate data resulting 
# from the CCDC's data processing and validation procedures.
#
#######################################################################

data_ZOFRAP
_chemical_formula_moiety         'C22 H30 O4'
_chemical_name_systematic        
9',14',20'-Trioxaspiro[cyclohexane-1,4'-tricyclo[13.3.1.1^2,6^]icosane]-1'(19'),15',17'-trien-8'-one
_symmetry_cell_setting           triclinic
_symmetry_space_group_name_H-M   'P -1'
_symmetry_Int_Tables_number      2
_space_group_name_Hall           '-P 1'
loop_
_symmetry_equiv_pos_site_id
_symmetry_equiv_pos_as_xyz
1 x,y,z
2 -x,-y,-z
_cell_length_a                   9.5245(9)
_cell_length_b                   14.0166(14)
_cell_length_c                   14.7340(15)
_cell_angle_alpha                95.169(2)
_cell_angle_beta                 91.059(2)
_cell_angle_gamma                104.225(2)
_cell_volume                     1897.26
_exptl_crystal_colour            colorless
_exptl_crystal_description       needle
_cell_formula_units_Z            4
loop_
_atom_site_label
_atom_site_type_symbol
_atom_site_fract_x
_atom_site_fract_y
_atom_site_fract_z
O1 O 0.03807(9) 0.20921(6) 0.28604(6)
O2 O 0.12759(9) 0.43378(6) 0.34834(6)
O3 O -0.03807(10) 0.37302(7) 0.44886(7)
O4 O -0.08674(10) 0.38756(6) 0.04185(6)
C1 C 0.07080(13) 0.19341(9) 0.37773(8)
H1 H -0.0211 0.1718 0.4103
C2 C 0.15644(13) 0.11505(9) 0.37796(8)
H2 H 0.1750 0.1031 0.4418
H3 H 0.2513 0.1400 0.3510
C3 C 0.07676(12) 0.01648(9) 0.32412(8)
C4 C 0.03279(13) 0.04013(9) 0.22872(8)
H4 H 0.1210 0.0604 0.1935
H5 H -0.0301 -0.0204 0.1958
C5 C -0.04760(12) 0.12233(8) 0.23372(8)
H6 H -0.1409 0.0991 0.2644
C6 C 0.15720(13) 0.29486(9) 0.42114(8)
H7 H 0.1770 0.2916 0.4868
H8 H 0.2512 0.3143 0.3916
C7 C 0.07094(13) 0.37031(9) 0.40937(8)
C8 C 0.04601(14) 0.50618(10) 0.33009(9)
H9 H 0.0540 0.5554 0.3837
H10 H -0.0577 0.4728 0.3175
C9 C 0.10877(14) 0.55702(9) 0.24790(9)
H11 H 0.2134 0.5869 0.2612
H12 H 0.0621 0.6116 0.2397
C10 C 0.09118(13) 0.49037(9) 0.15779(9)
H13 H 0.1503 0.5269 0.1115
H14 H 0.1280 0.4316 0.1670
C11 C -0.06632(14) 0.45651(9) 0.12230(9)
H15 H -0.1265 0.4252 0.1708
H16 H -0.1004 0.5151 0.1084
C12 C -0.09667(12) 0.28973(9) 0.05334(8)
C13 C -0.06779(12) 0.25599(9) 0.13583(8)
H17 H -0.0394 0.3016 0.1885
C14 C -0.08021(12) 0.15536(9) 0.14173(8)
C15 C -0.12483(13) 0.08869(9) 0.06469(8)
H18 H -0.1343 0.0200 0.0680
C16 C -0.15562(13) 0.12318(9) -0.01744(8)
H19 H -0.1871 0.0775 -0.0697
C17 C -0.14093(13) 0.22328(9) -0.02382(8)
H20 H -0.1609 0.2462 -0.0802
C18 C 0.18282(13) -0.05078(9) 0.31648(9)
H21 H 0.2634 -0.0212 0.2782
H22 H 0.2246 -0.0531 0.3780
C19 C 0.11318(13) -0.15642(9) 0.27564(9)
H23 H 0.0822 -0.1554 0.2113
H24 H 0.1858 -0.1962 0.2765
C20 C -0.01778(14) -0.20489(9) 0.32832(9)
H25 H -0.0646 -0.2711 0.2974
H26 H 0.0145 -0.2135 0.3906
C21 C -0.12687(13) -0.14113(9) 0.33383(8)
H27 H -0.2080 -0.1712 0.3715
H28 H -0.1670 -0.1386 0.2719
C22 C -0.05514(13) -0.03610(9) 0.37564(8)
H29 H -0.0249 -0.0387 0.4370
H30 H -0.1250 0.0020 0.3767
O5 O 0.50049(9) 0.27803(6) 0.21713(6)
O6 O 0.69458(10) 0.50302(7) 0.31521(6)
O7 O 0.52585(9) 0.41304(6) 0.39902(6)
O8 O 0.62569(10) 0.10584(7) 0.46435(6)
C23 C 0.48667(13) 0.36178(8) 0.17267(8)
H31 H 0.5805 0.3923 0.1453
C24 C 0.36672(12) 0.33154(9) 0.09862(8)
H32 H 0.3616 0.3901 0.0670
H33 H 0.2728 0.3078 0.1271
C25 C 0.39105(12) 0.24955(8) 0.02813(8)
C26 C 0.41658(13) 0.16495(9) 0.08140(8)
H34 H 0.3246 0.1322 0.1081
H35 H 0.4450 0.1152 0.0384
C27 C 0.53386(13) 0.20056(9) 0.15765(8)
H36 H 0.6289 0.2270 0.1299
C28 C 0.45406(13) 0.43335(9) 0.24889(8)
H37 H 0.4479 0.4956 0.2242
H38 H 0.3597 0.4040 0.2746
C29 C 0.57257(13) 0.45492(9) 0.32294(8)
C30 C 0.63399(13) 0.42651(9) 0.47366(8)
H39 H 0.6612 0.4964 0.4999
H40 H 0.7223 0.4084 0.4513
C31 C 0.56640(14) 0.35981(9) 0.54513(9)
H41 H 0.4772 0.3784 0.5651
H42 H 0.6347 0.3719 0.5988
C32 C 0.52758(14) 0.24891(9) 0.51325(9)
H43 H 0.4671 0.2125 0.5591
H44 H 0.4694 0.2373 0.4551
C33 C 0.66076(14) 0.20836(9) 0.49941(9)
H45 H 0.7242 0.2476 0.4566
H46 H 0.7157 0.2163 0.5585
C34 C 0.59572(13) 0.08311(9) 0.37239(9)
C35 C 0.58363(13) 0.15179(9) 0.31186(9)
H47 H 0.5982 0.2195 0.3338
C36 C 0.55033(12) 0.12218(9) 0.21920(9)
C37 C 0.53442(13) 0.02346(9) 0.18691(9)
H48 H 0.5143 0.0027 0.1238
C38 C 0.54825(14) -0.04473(9) 0.24779(9)
H49 H 0.5381 -0.1120 0.2256
C39 C 0.57660(13) -0.01591(9) 0.34009(9)
H50 H 0.5830 -0.0634 0.3811
C40 C 0.52033(13) 0.28715(9) -0.03183(8)
H51 H 0.6073 0.3178 0.0082
H52 H 0.5403 0.2300 -0.0692
C41 C 0.49491(13) 0.36259(9) -0.09527(9)
H53 H 0.4891 0.4239 -0.0582
H54 H 0.5783 0.3794 -0.1351
C42 C 0.35570(14) 0.32319(10) -0.15453(9)
H55 H 0.3673 0.2684 -0.1987
H56 H 0.3377 0.3764 -0.1895
C43 C 0.22587(13) 0.28615(9) -0.09620(9)
H57 H 0.1390 0.2560 -0.1365
H58 H 0.2062 0.3427 -0.0578
C44 C 0.25444(13) 0.20970(9) -0.03505(8)
H59 H 0.2655 0.1508 -0.0739
H60 H 0.1695 0.1886 0.0027
loop_
_geom_bond_atom_site_label_1
_geom_bond_atom_site_label_2
_geom_bond_site_symmetry_1
_geom_bond_site_symmetry_2
O1 C1 1_555 1_555
O2 C7 1_555 1_555
O3 C7 1_555 1_555
O4 C11 1_555 1_555
C1 H1 1_555 1_555
C2 C1 1_555 1_555
H2 C2 1_555 1_555
H3 C2 1_555 1_555
C3 C2 1_555 1_555
C4 C3 1_555 1_555
H4 C4 1_555 1_555
H5 C4 1_555 1_555
C5 O1 1_555 1_555
H6 C5 1_555 1_555
C6 C1 1_555 1_555
H7 C6 1_555 1_555
H8 C6 1_555 1_555
C7 C6 1_555 1_555
C8 O2 1_555 1_555
H9 C8 1_555 1_555
H10 C8 1_555 1_555
C9 C8 1_555 1_555
H11 C9 1_555 1_555
H12 C9 1_555 1_555
C10 C9 1_555 1_555
H13 C10 1_555 1_555
H14 C10 1_555 1_555
C11 C10 1_555 1_555
H15 C11 1_555 1_555
H16 C11 1_555 1_555
C12 O4 1_555 1_555
C13 C12 1_555 1_555
H17 C13 1_555 1_555
C14 C5 1_555 1_555
C15 C14 1_555 1_555
H18 C15 1_555 1_555
C16 C15 1_555 1_555
H19 C16 1_555 1_555
C17 C12 1_555 1_555
H20 C17 1_555 1_555
C18 C3 1_555 1_555
H21 C18 1_555 1_555
H22 C18 1_555 1_555
C19 C18 1_555 1_555
H23 C19 1_555 1_555
H24 C19 1_555 1_555
C20 C19 1_555 1_555
H25 C20 1_555 1_555
H26 C20 1_555 1_555
C21 C20 1_555 1_555
H27 C21 1_555 1_555
H28 C21 1_555 1_555
C22 C3 1_555 1_555
H29 C22 1_555 1_555
H30 C22 1_555 1_555
O5 C23 1_555 1_555
O6 C29 1_555 1_555
O7 C29 1_555 1_555
O8 C33 1_555 1_555
C23 H31 1_555 1_555
C24 C23 1_555 1_555
H32 C24 1_555 1_555
H33 C24 1_555 1_555
C25 C24 1_555 1_555
C26 C25 1_555 1_555
H34 C26 1_555 1_555
H35 C26 1_555 1_555
C27 O5 1_555 1_555
H36 C27 1_555 1_555
C28 C23 1_555 1_555
H37 C28 1_555 1_555
H38 C28 1_555 1_555
C29 C28 1_555 1_555
C30 O7 1_555 1_555
H39 C30 1_555 1_555
H40 C30 1_555 1_555
C31 C30 1_555 1_555
H41 C31 1_555 1_555
H42 C31 1_555 1_555
C32 C31 1_555 1_555
H43 C32 1_555 1_555
H44 C32 1_555 1_555
C33 C32 1_555 1_555
H45 C33 1_555 1_555
H46 C33 1_555 1_555
C34 O8 1_555 1_555
C35 C34 1_555 1_555
H47 C35 1_555 1_555
C36 C27 1_555 1_555
C37 C36 1_555 1_555
H48 C37 1_555 1_555
C38 C37 1_555 1_555
H49 C38 1_555 1_555
C39 C34 1_555 1_555
H50 C39 1_555 1_555
C40 C25 1_555 1_555
H51 C40 1_555 1_555
H52 C40 1_555 1_555
C41 C40 1_555 1_555
H53 C41 1_555 1_555
H54 C41 1_555 1_555
C42 C41 1_555 1_555
H55 C42 1_555 1_555
H56 C42 1_555 1_555
C43 C42 1_555 1_555
H57 C43 1_555 1_555
H58 C43 1_555 1_555
C44 C25 1_555 1_555
H59 C44 1_555 1_555
H60 C44 1_555 1_555
C4 C5 1_555 1_555
C13 C14 1_555 1_555
C16 C17 1_555 1_555
C21 C22 1_555 1_555
C26 C27 1_555 1_555
C35 C36 1_555 1_555
C38 C39 1_555 1_555
C43 C44 1_555 1_555

#END
