
#######################################################################
#
#                 Cambridge Crystallographic Data Centre
#                                CCDC 
#
#######################################################################
#
# If this CIF has been generated from an entry in the Cambridge 
# Structural Database, then it will include bibliographic, chemical, 
# crystal, experimental, refinement or atomic coordinate data resulting 
# from the CCDC's data processing and validation procedures.
#
#######################################################################

data_ZOFWOG
_chemical_name_common            Methyl-didecalino-14-crown-4
_chemical_formula_moiety         'C27 H46 O4'
_chemical_name_systematic        
6-Methyl-didecalino(4a,8a-b:4a',8a'-i)-1,4,8,11-tetraoxacyclotetradecane
_symmetry_cell_setting           monoclinic
_symmetry_space_group_name_H-M   'C 2/c'
_symmetry_Int_Tables_number      15
_space_group_name_Hall           '-C 2yn'
loop_
_symmetry_equiv_pos_site_id
_symmetry_equiv_pos_as_xyz
1 x,y,z
2 -x,y,1/2-z
3 1/2+x,1/2+y,z
4 1/2-x,1/2+y,1/2-z
5 -x,-y,-z
6 x,-y,1/2+z
7 1/2-x,1/2-y,-z
8 1/2+x,1/2-y,1/2+z
_cell_length_a                   21.417(8)
_cell_length_b                   10.121(2)
_cell_length_c                   12.692(5)
_cell_angle_alpha                90
_cell_angle_beta                 116.54(2)
_cell_angle_gamma                90
_cell_volume                     2461.23
_cell_formula_units_Z            4
loop_
_atom_site_label
_atom_site_type_symbol
_atom_site_fract_x
_atom_site_fract_y
_atom_site_fract_z
O1 O 0.3948(2) 0.5671(3) -0.0940(3)
O2 O 0.4817(2) 0.7810(3) -0.0266(3)
C1 C 0.3638(2) 0.6905(5) -0.0907(4)
C2 C 0.4099(2) 0.7910(5) -0.1144(4)
C3 C 0.5262(2) 0.6854(5) -0.0340(4)
C4 C 0.5821(4) 0.6506(9) 0.0508(7)
C5 C 0.3754(4) 0.460(1) -0.0342(8)
C6 C 0.5913(4) 0.6755(9) 0.1156(8)
C7 C 0.3637(5) 0.443(1) -0.1066(9)
C8 C 0.2893(2) 0.6967(6) -0.1849(4)
C9 C 0.2832(3) 0.6757(6) -0.3088(5)
C10 C 0.3268(3) 0.7784(6) -0.3336(5)
C11 C 0.4026(3) 0.7736(6) -0.2393(4)
C12 C 0.3682(3) 0.7157(6) 0.0334(5)
C13 C 0.3522(3) 0.8579(7) 0.0512(5)
C14 C 0.3977(3) 0.9533(7) 0.0268(5)
C15 C 0.3916(3) 0.9317(5) -0.0959(5)
C16 C 0.5931(7) 0.693(1) 0.1741(9)
C5D C 0.6246(4) 0.540(1) 0.0342(8)
O1D O 0.6052(2) 0.4329(3) 0.0940(3)
C1D C 0.6362(2) 0.3095(5) 0.0907(4)
C2D C 0.5901(2) 0.2090(5) 0.1144(4)
O2D O 0.5183(2) 0.2190(3) 0.0266(3)
C3D C 0.4738(2) 0.3146(5) 0.0340(4)
C4D C 0.4179(4) 0.3494(9) -0.0508(7)
C6D C 0.4087(4) 0.3245(9) -0.1156(8)
C16D C 0.4069(7) 0.307(1) -0.1741(9)
C11D C 0.5974(3) 0.2264(6) 0.2393(4)
C10D C 0.6732(3) 0.2216(6) 0.3336(5)
C9D C 0.7168(3) 0.3243(6) 0.3088(5)
C8D C 0.7107(2) 0.3033(6) 0.1849(4)
C12D C 0.6318(3) 0.2843(6) -0.0334(5)
C13D C 0.6478(3) 0.1421(7) -0.0512(5)
C14D C 0.6023(3) 0.0467(7) -0.0268(5)
C15D C 0.6084(3) 0.0683(5) 0.0959(5)
C7D C 0.6363(5) 0.557(1) 0.1066(9)
loop_
_geom_bond_atom_site_label_1
_geom_bond_atom_site_label_2
_geom_bond_site_symmetry_1
_geom_bond_site_symmetry_2
O1 C1 1_555 1_555
O2 C2 1_555 1_555
C1 C2 1_555 1_555
C2 C11 1_555 1_555
C3 O2 1_555 1_555
C4 C3 1_555 1_555
C5 O1 1_555 1_555
C6 C4 1_555 1_555
C7 O1 1_555 1_555
C8 C1 1_555 1_555
C9 C8 1_555 1_555
C10 C9 1_555 1_555
C11 C10 1_555 1_555
C12 C1 1_555 1_555
C13 C12 1_555 1_555
C14 C13 1_555 1_555
C15 C2 1_555 1_555
C16 C4 1_555 1_555
C5D C4 1_555 1_555
O1D C5D 1_555 1_555
C1D O1D 1_555 1_555
C2D C1D 1_555 1_555
O2D C2D 1_555 1_555
C3D O2D 1_555 1_555
C4D C5 1_555 1_555
C6D C7 1_555 1_555
C16D C4D 1_555 1_555
C11D C2D 1_555 1_555
C10D C11D 1_555 1_555
C9D C10D 1_555 1_555
C8D C1D 1_555 1_555
C12D C1D 1_555 1_555
C13D C12D 1_555 1_555
C14D C13D 1_555 1_555
C15D C2D 1_555 1_555
C7D C4 1_555 1_555
C5 C7 1_555 1_555
C6 C16 1_555 1_555
C6 C7D 1_555 1_555
C7 C4D 1_555 1_555
C14 C15 1_555 1_555
C5D C7D 1_555 1_555
O1D C7D 1_555 1_555
C3D C4D 1_555 1_555
C4D C6D 1_555 1_555
C6D C16D 1_555 1_555
C9D C8D 1_555 1_555
C14D C15D 1_555 1_555

#END
