
#######################################################################
#
#                 Cambridge Crystallographic Data Centre
#                                CCDC 
#
#######################################################################
#
# If this CIF has been generated from an entry in the Cambridge 
# Structural Database, then it will include bibliographic, chemical, 
# crystal, experimental, refinement or atomic coordinate data resulting 
# from the CCDC's data processing and validation procedures.
#
#######################################################################

data_ZOFWIA
_chemical_name_common            Methyleno-didecalino-14-crown-4
_chemical_formula_moiety         'C27 H44 O4'
_chemical_name_systematic        
6-Methylene-didecalino(4a,8a-b:4a',8a'-i)-1,4,8,11-tetraoxacyclotetradecane
_symmetry_cell_setting           monoclinic
_symmetry_space_group_name_H-M   'P 21/c'
_symmetry_Int_Tables_number      14
_space_group_name_Hall           '-P 2ybc'
loop_
_symmetry_equiv_pos_site_id
_symmetry_equiv_pos_as_xyz
1 x,y,z
2 -x,1/2+y,1/2-z
3 -x,-y,-z
4 x,1/2-y,1/2+z
_cell_length_a                   12.413(2)
_cell_length_b                   14.314(2)
_cell_length_c                   14.397(3)
_cell_angle_alpha                90
_cell_angle_beta                 110.26(1)
_cell_angle_gamma                90
_cell_volume                     2399.79
_cell_formula_units_Z            4
loop_
_atom_site_label
_atom_site_type_symbol
_atom_site_fract_x
_atom_site_fract_y
_atom_site_fract_z
O1 O 0.1427(1) 0.1753(1) 0.0270(1)
O2 O 0.1051(1) 0.1843(1) 0.2067(1)
O3 O 0.4142(1) 0.1509(1) 0.25412(9)
O4 O 0.4519(1) 0.1577(1) 0.0737(1)
C1 C 0.0581(2) 0.2414(2) 0.0353(2)
C2 C 0.0122(2) 0.1962(2) 0.1129(2)
C3 C 0.1689(2) 0.0989(2) 0.2268(2)
C4 C 0.2701(2) 0.1131(2) 0.3194(1)
C5 C 0.3559(2) 0.1851(2) 0.3171(2)
C6 C 0.5103(2) 0.2053(2) 0.2487(2)
C7 C 0.5451(2) 0.1553(2) 0.1676(2)
C8 C 0.3680(2) 0.0849(2) 0.0476(2)
C9 C 0.2730(2) 0.1164(2) -0.0459(2)
C10 C 0.2085(2) 0.2013(2) -0.0330(2)
C11 C 0.1132(2) 0.3362(2) 0.0718(2)
C12 C 0.0333(2) 0.4033(2) 0.0997(2)
C13 C -0.0099(2) 0.3590(2) 0.1759(2)
C14 C -0.0671(2) 0.2652(2) 0.1396(2)
C15 C -0.0392(2) 0.2498(2) -0.0657(2)
C16 C -0.0958(2) 0.1558(2) -0.1019(2)
C17 C -0.1436(2) 0.1132(2) -0.0274(2)
C18 C -0.0493(2) 0.1044(2) 0.0743(2)
C19 C 0.6091(2) 0.2003(2) 0.3490(2)
C20 C 0.6475(2) 0.1003(2) 0.3795(2)
C21 C 0.6813(2) 0.0511(2) 0.3008(2)
C22 C 0.5852(2) 0.0557(2) 0.1991(2)
C23 C 0.4746(2) 0.3060(2) 0.21932(2)
C24 C 0.5672(2) 0.3622(2) 0.1957(2)
C25 C 0.6035(2) 0.3130(2) 0.1176(2)
C26 C 0.6393(2) 0.2126(2) 0.1464(2)
C27 C 0.2832(2) 0.0637(2) 0.4003(2)
loop_
_geom_bond_atom_site_label_1
_geom_bond_atom_site_label_2
_geom_bond_site_symmetry_1
_geom_bond_site_symmetry_2
O1 C1 1_555 1_555
O2 C2 1_555 1_555
O3 C5 1_555 1_555
O4 C7 1_555 1_555
C1 C2 1_555 1_555
C2 C14 1_555 1_555
C3 O2 1_555 1_555
C4 C3 1_555 1_555
C5 C4 1_555 1_555
C6 O3 1_555 1_555
C7 C6 1_555 1_555
C8 O4 1_555 1_555
C9 C8 1_555 1_555
C10 O1 1_555 1_555
C11 C1 1_555 1_555
C12 C11 1_555 1_555
C13 C12 1_555 1_555
C14 C13 1_555 1_555
C15 C1 1_555 1_555
C16 C15 1_555 1_555
C17 C16 1_555 1_555
C18 C2 1_555 1_555
C19 C6 1_555 1_555
C20 C19 1_555 1_555
C21 C20 1_555 1_555
C22 C7 1_555 1_555
C23 C6 1_555 1_555
C24 C23 1_555 1_555
C25 C24 1_555 1_555
C26 C7 1_555 1_555
C27 C4 1_555 1_555
C9 C10 1_555 1_555
C17 C18 1_555 1_555
C21 C22 1_555 1_555
C25 C26 1_555 1_555

#END
