
#######################################################################
#
#                 Cambridge Crystallographic Data Centre
#                                CCDC 
#
#######################################################################
#
# If this CIF has been generated from an entry in the Cambridge 
# Structural Database, then it will include bibliographic, chemical, 
# crystal, experimental, refinement or atomic coordinate data resulting 
# from the CCDC's data processing and validation procedures.
#
#######################################################################

data_ZOFXUP
_chemical_formula_moiety         'C15 H18 N2 O3'
_chemical_name_systematic        
syn-N-(3-Methyl-6-nitro-5-phenylcyclohex-2-en-1-yl)acetamide
_symmetry_cell_setting           monoclinic
_symmetry_space_group_name_H-M   'P 21/c'
_symmetry_Int_Tables_number      14
_space_group_name_Hall           '-P 2ybc'
loop_
_symmetry_equiv_pos_site_id
_symmetry_equiv_pos_as_xyz
1 x,y,z
2 -x,1/2+y,1/2-z
3 -x,-y,-z
4 x,1/2-y,1/2+z
_cell_length_a                   19.3984(10)
_cell_length_b                   9.6352(5)
_cell_length_c                   16.2688(9)
_cell_angle_alpha                90
_cell_angle_beta                 108.737(2)
_cell_angle_gamma                90
_cell_volume                     2879.61
_exptl_crystal_colour            colorless
_exptl_crystal_description       needle
_cell_formula_units_Z            8
loop_
_atom_site_label
_atom_site_type_symbol
_atom_site_fract_x
_atom_site_fract_y
_atom_site_fract_z
O1 O 0.14977(13) -0.6794(3) 0.44394(15)
O2 O 0.12064(15) -0.8779(3) 0.38183(16)
O3 O 0.29159(13) -0.8910(2) 0.32886(18)
N1 N 0.12768(14) -0.7522(3) 0.37941(17)
N2 N 0.24585(13) -0.6751(3) 0.32430(16)
H1 H 0.2535 -0.5910 0.3362
C1 C 0.11007(16) -0.6868(3) 0.2904(2)
H2 H 0.0678 -0.7379 0.2501
C2 C 0.17595(16) -0.7092(3) 0.2591(2)
H3 H 0.1772 -0.8098 0.2446
C3 C 0.29959(17) -0.7689(3) 0.3530(2)
C4 C 0.36954(17) -0.7176(4) 0.4152(2)
H4 H 0.3765 -0.7576 0.4726
H5 H 0.3681 -0.6162 0.4187
H6 H 0.4099 -0.7453 0.3949
C5 C 0.16566(18) -0.6280(3) 0.1772(2)
H7 H 0.1953 -0.6519 0.1428
C6 C 0.11835(18) -0.5254(4) 0.1493(2)
C7 C 0.06798(19) -0.4824(4) 0.1972(2)
H8 H 0.0184 -0.5157 0.1648
H9 H 0.0663 -0.3797 0.1983
C8 C 0.08853(18) -0.5361(3) 0.2914(2)
H10 H 0.1319 -0.4830 0.3277
C9 C 0.02674(17) -0.5116(3) 0.3273(2)
C10 C -0.03889(17) -0.5811(4) 0.2959(2)
H11 H -0.0448 -0.6490 0.2518
C11 C -0.09627(19) -0.5548(4) 0.3268(2)
H12 H -0.1405 -0.6050 0.3045
C12 C -0.08885(19) -0.4553(4) 0.3902(2)
H13 H -0.1280 -0.4367 0.4117
C13 C -0.0246(2) -0.3834(4) 0.4221(2)
H14 H -0.0194 -0.3145 0.4655
C14 C 0.03282(18) -0.4116(4) 0.3910(2)
H15 H 0.0771 -0.3616 0.4136
C15 C 0.11072(19) -0.4469(4) 0.0666(2)
H16 H 0.1432 -0.4875 0.0377
H17 H 0.1237 -0.3494 0.0803
H18 H 0.0603 -0.4529 0.0280
O4 O 0.44503(14) -0.4218(3) 0.38121(17)
O5 O 0.43791(13) -0.2195(3) 0.43505(15)
O6 O 0.24900(13) -0.3826(2) 0.35301(15)
N3 N 0.43160(14) -0.2973(3) 0.37399(18)
N4 N 0.28853(13) -0.1829(3) 0.31193(16)
H19 H 0.2846 -0.0911 0.3142
C16 C 0.40408(16) -0.2388(3) 0.28328(19)
H20 H 0.4225 -0.2985 0.2445
C17 C 0.32019(16) -0.2458(3) 0.2517(2)
H21 H 0.3051 -0.3454 0.2437
C18 C 0.25329(16) -0.2553(3) 0.35652(19)
C19 C 0.21847(17) -0.1712(3) 0.4104(2)
H22 H 0.1655 -0.1816 0.3873
H23 H 0.2314 -0.0732 0.4085
H24 H 0.2359 -0.2041 0.4706
C20 C 0.29143(17) -0.1734(4) 0.1655(2)
H25 H 0.2434 -0.1952 0.1298
C21 C 0.32797(18) -0.0822(4) 0.1360(2)
C22 C 0.40612(18) -0.0472(4) 0.1834(2)
H26 H 0.4129 0.0543 0.1800
H27 H 0.4374 -0.0935 0.1540
C23 C 0.43106(15) -0.0914(3) 0.2797(2)
H28 H 0.4067 -0.0295 0.3113
C24 C 0.51294(16) -0.0753(3) 0.3209(2)
C25 C 0.56130(17) -0.1484(4) 0.2907(2)
H29 H 0.5429 -0.2107 0.2434
C26 C 0.63578(18) -0.1329(4) 0.3276(2)
H30 H 0.6680 -0.1843 0.3059
C27 C 0.66304(19) -0.0420(4) 0.3964(2)
H31 H 0.7141 -0.0299 0.4218
C28 C 0.61583(18) 0.0306(4) 0.4277(2)
H32 H 0.6345 0.0924 0.4752
C29 C 0.54138(18) 0.0144(3) 0.3907(2)
H33 H 0.5094 0.0650 0.4131
C30 C 0.2954(2) -0.0067(4) 0.0510(2)
H34 H 0.2444 -0.0346 0.0248
H35 H 0.3226 -0.0300 0.0116
H36 H 0.2979 0.0936 0.0615
loop_
_geom_bond_atom_site_label_1
_geom_bond_atom_site_label_2
_geom_bond_site_symmetry_1
_geom_bond_site_symmetry_2
O1 N1 1_555 1_555
O2 N1 1_555 1_555
O3 C3 1_555 1_555
N1 C1 1_555 1_555
N2 H1 1_555 1_555
C1 H2 1_555 1_555
C2 N2 1_555 1_555
H3 C2 1_555 1_555
C3 N2 1_555 1_555
C4 C3 1_555 1_555
H4 C4 1_555 1_555
H5 C4 1_555 1_555
H6 C4 1_555 1_555
C5 C2 1_555 1_555
H7 C5 1_555 1_555
C6 C5 1_555 1_555
C7 C6 1_555 1_555
H8 C7 1_555 1_555
H9 C7 1_555 1_555
C8 C1 1_555 1_555
H10 C8 1_555 1_555
C9 C8 1_555 1_555
C10 C9 1_555 1_555
H11 C10 1_555 1_555
C11 C10 1_555 1_555
H12 C11 1_555 1_555
C12 C11 1_555 1_555
H13 C12 1_555 1_555
C13 C12 1_555 1_555
H14 C13 1_555 1_555
C14 C9 1_555 1_555
H15 C14 1_555 1_555
C15 C6 1_555 1_555
H16 C15 1_555 1_555
H17 C15 1_555 1_555
H18 C15 1_555 1_555
O4 N3 1_555 1_555
O5 N3 1_555 1_555
O6 C18 1_555 1_555
N3 C16 1_555 1_555
N4 H19 1_555 1_555
C16 H20 1_555 1_555
C17 N4 1_555 1_555
H21 C17 1_555 1_555
C18 N4 1_555 1_555
C19 C18 1_555 1_555
H22 C19 1_555 1_555
H23 C19 1_555 1_555
H24 C19 1_555 1_555
C20 C17 1_555 1_555
H25 C20 1_555 1_555
C21 C20 1_555 1_555
C22 C21 1_555 1_555
H26 C22 1_555 1_555
H27 C22 1_555 1_555
C23 C16 1_555 1_555
H28 C23 1_555 1_555
C24 C23 1_555 1_555
C25 C24 1_555 1_555
H29 C25 1_555 1_555
C26 C25 1_555 1_555
H30 C26 1_555 1_555
C27 C26 1_555 1_555
H31 C27 1_555 1_555
C28 C27 1_555 1_555
H32 C28 1_555 1_555
C29 C24 1_555 1_555
H33 C29 1_555 1_555
C30 C21 1_555 1_555
H34 C30 1_555 1_555
H35 C30 1_555 1_555
H36 C30 1_555 1_555
C1 C2 1_555 1_555
C7 C8 1_555 1_555
C13 C14 1_555 1_555
C16 C17 1_555 1_555
C22 C23 1_555 1_555
C28 C29 1_555 1_555

#END
