
#######################################################################
#
#                 Cambridge Crystallographic Data Centre
#                                CCDC 
#
#######################################################################
#
# If this CIF has been generated from an entry in the Cambridge 
# Structural Database, then it will include bibliographic, chemical, 
# crystal, experimental, refinement or atomic coordinate data resulting 
# from the CCDC's data processing and validation procedures.
#
#######################################################################

data_ZOFYAW
_chemical_formula_moiety         'C15 H18 N2 O3'
_chemical_name_systematic        
trans-N-(3-Methyl-6-nitro-5-phenylcyclohex-2-en-1-yl)acetamide
_symmetry_cell_setting           monoclinic
_symmetry_space_group_name_H-M   'C 2/c'
_symmetry_Int_Tables_number      15
_space_group_name_Hall           '-C 2yn'
loop_
_symmetry_equiv_pos_site_id
_symmetry_equiv_pos_as_xyz
1 x,y,z
2 -x,y,1/2-z
3 1/2+x,1/2+y,z
4 1/2-x,1/2+y,1/2-z
5 -x,-y,-z
6 x,-y,1/2+z
7 1/2-x,1/2-y,-z
8 1/2+x,1/2-y,1/2+z
_cell_length_a                   19.0719(12)
_cell_length_b                   5.2738(3)
_cell_length_c                   27.2994(14)
_cell_angle_alpha                90
_cell_angle_beta                 90.632(4)
_cell_angle_gamma                90
_cell_volume                     2745.64
_exptl_crystal_colour            colorless
_exptl_crystal_description       prism
_cell_formula_units_Z            8
loop_
_atom_site_label
_atom_site_type_symbol
_atom_site_fract_x
_atom_site_fract_y
_atom_site_fract_z
O1 O 0.16795(9) 1.2672(3) 0.13160(5)
O2 O 0.23949(8) 0.9603(3) 0.11791(6)
O3 O 0.13969(8) 1.2996(3) 0.01176(5)
N1 N 0.18035(9) 1.0443(3) 0.12277(6)
N2 N 0.12442(9) 0.8825(4) 0.02754(6)
C1 C 0.12052(11) 0.8611(4) 0.11767(7)
H1 H 0.1398 0.6851 0.1155
C2 C 0.08011(11) 0.9222(4) 0.06974(7)
H2 H 0.0652 1.1039 0.0705
C3 C 0.15088(11) 1.0768(4) 0.00080(7)
C4 C 0.19345(11) 1.0031(5) -0.04269(7)
H3 H 0.1710 1.0684 -0.0726
H4 H 0.1965 0.8178 -0.0446
H5 H 0.2407 1.0746 -0.0394
C5 C 0.01599(11) 0.7580(4) 0.06701(7)
H6 H -0.0063 0.7392 0.0359
C6 C -0.01224(11) 0.6364(4) 0.10478(7)
C7 C 0.01776(11) 0.6638(4) 0.15594(7)
H7 H 0.0400 0.5016 0.1657
H8 H -0.0211 0.6970 0.1788
C8 C 0.07195(11) 0.8766(4) 0.16097(7)
H9 H 0.0458 1.0401 0.1578
C9 C 0.10858(11) 0.8812(4) 0.21058(7)
C10 C 0.09463(12) 1.0765(4) 0.24305(8)
H10 H 0.0624 1.2059 0.2338
C11 C 0.12696(13) 1.0859(5) 0.28872(8)
H11 H 0.1166 1.2210 0.3105
C12 C 0.17390(12) 0.9010(4) 0.30269(7)
H12 H 0.1959 0.9078 0.3340
C13 C 0.18876(12) 0.7058(5) 0.27094(8)
H13 H 0.2212 0.5776 0.2804
C14 C 0.15663(12) 0.6956(4) 0.22512(8)
H14 H 0.1675 0.5607 0.2034
C15 C -0.07414(11) 0.4639(5) 0.09893(7)
H15 H -0.0905 0.4672 0.0648
H16 H -0.1119 0.5210 0.1203
H17 H -0.0605 0.2906 0.1078
H18 H 0.1326(11) 0.733(5) 0.0189(7)
loop_
_geom_bond_atom_site_label_1
_geom_bond_atom_site_label_2
_geom_bond_site_symmetry_1
_geom_bond_site_symmetry_2
O1 N1 1_555 1_555
O2 N1 1_555 1_555
O3 C3 1_555 1_555
N1 C1 1_555 1_555
N2 C2 1_555 1_555
C1 H1 1_555 1_555
C2 C1 1_555 1_555
H2 C2 1_555 1_555
C3 N2 1_555 1_555
C4 C3 1_555 1_555
H3 C4 1_555 1_555
H4 C4 1_555 1_555
H5 C4 1_555 1_555
C5 C2 1_555 1_555
H6 C5 1_555 1_555
C6 C5 1_555 1_555
C7 C6 1_555 1_555
H7 C7 1_555 1_555
H8 C7 1_555 1_555
C8 C1 1_555 1_555
H9 C8 1_555 1_555
C9 C8 1_555 1_555
C10 C9 1_555 1_555
H10 C10 1_555 1_555
C11 C10 1_555 1_555
H11 C11 1_555 1_555
C12 C11 1_555 1_555
H12 C12 1_555 1_555
C13 C12 1_555 1_555
H13 C13 1_555 1_555
C14 C9 1_555 1_555
H14 C14 1_555 1_555
C15 C6 1_555 1_555
H15 C15 1_555 1_555
H16 C15 1_555 1_555
H17 C15 1_555 1_555
H18 N2 1_555 1_555
C7 C8 1_555 1_555
C13 C14 1_555 1_555

#END
