
#######################################################################
#
#                 Cambridge Crystallographic Data Centre
#                                CCDC 
#
#######################################################################
#
# If this CIF has been generated from an entry in the Cambridge 
# Structural Database, then it will include bibliographic, chemical, 
# crystal, experimental, refinement or atomic coordinate data resulting 
# from the CCDC's data processing and validation procedures.
#
#######################################################################

data_ZOFYOK
_chemical_formula_moiety         'C17 H24 O7'
_chemical_name_systematic        
'10,10-bis(methoxycarbonyl)-3,3-dimethyl-11-oxatricyclo[6.2.1.0^1,5^]undecane-5-carboxylic acid'
_symmetry_cell_setting           monoclinic
_symmetry_space_group_name_H-M   'P 21/n'
_symmetry_Int_Tables_number      14
_space_group_name_Hall           '-P 2yn'
loop_
_symmetry_equiv_pos_site_id
_symmetry_equiv_pos_as_xyz
1 x,y,z
2 1/2-x,1/2+y,1/2-z
3 -x,-y,-z
4 1/2+x,1/2-y,1/2+z
_cell_length_a                   10.9441(5)
_cell_length_b                   13.9862(7)
_cell_length_c                   11.3875(5)
_cell_angle_alpha                90
_cell_angle_beta                 99.729(5)
_cell_angle_gamma                90
_cell_volume                     1717.97
_exptl_crystal_colour            'light colorless'
_exptl_crystal_description       block
_cell_formula_units_Z            4
loop_
_atom_site_label
_atom_site_type_symbol
_atom_site_fract_x
_atom_site_fract_y
_atom_site_fract_z
O1 O 0.71077(15) 0.72641(12) 0.24017(14)
O2 O 0.40953(19) 0.70297(16) -0.11132(16)
H1 H 0.3447 0.7229 -0.1503
O3 O 0.36888(18) 0.81407(16) 0.01581(15)
O4 O 0.34329(17) 0.85992(16) 0.25297(16)
O5 O 0.49391(18) 0.80624(16) 0.47788(16)
O6 O 0.6334(2) 0.88815(18) 0.39845(17)
O7 O 0.3066(2) 0.70361(18) 0.2222(2)
C1 C 0.5963(2) 0.77277(18) 0.1847(2)
C2 C 0.6296(2) 0.87273(18) 0.1470(2)
H2 H 0.6889 0.9024 0.2092
H3 H 0.5561 0.9126 0.1313
C3 C 0.6868(2) 0.8599(2) 0.0316(2)
C4 C 0.5575(2) 0.71850(18) 0.0628(2)
C5 C 0.4351(2) 0.7517(2) -0.0090(2)
C6 C 0.5515(3) 0.60928(19) 0.0739(2)
H4 H 0.4714 0.5916 0.0930
H5 H 0.5583 0.5808 -0.0024
C7 C 0.6619(2) 0.75393(19) -0.0031(2)
H6 H 0.7364 0.7162 0.0204
H7 H 0.6362 0.7481 -0.0886
C8 C 0.6535(3) 0.5684(2) 0.1692(2)
H8 H 0.6303 0.5049 0.1918
H9 H 0.7302 0.5632 0.1375
C9 C 0.6725(3) 0.63308(19) 0.2772(2)
H10 H 0.7364 0.6066 0.3394
C10 C 0.5174(2) 0.7579(2) 0.2857(2)
C11 C 0.5566(3) 0.8270(2) 0.3907(2)
C12 C 0.3769(3) 0.7688(2) 0.2482(2)
C13 C 0.5549(3) 0.6545(2) 0.3280(2)
H11 H 0.5709 0.6510 0.4143
H12 H 0.4898 0.6094 0.2978
C14 C 0.8260(3) 0.8803(2) 0.0563(3)
H13 H 0.8395 0.9473 0.0713
H14 H 0.8619 0.8619 -0.0116
H15 H 0.8640 0.8444 0.1247
C15 C 0.6252(3) 0.9270(2) -0.0674(2)
H16 H 0.5379 0.9140 -0.0847
H17 H 0.6610 0.9170 -0.1378
H18 H 0.6382 0.9922 -0.0418
C16 C 0.2141(3) 0.8815(3) 0.2126(3)
H19 H 0.1946 0.8726 0.1279
H20 H 0.1981 0.9467 0.2317
H21 H 0.1638 0.8397 0.2512
C17 C 0.5190(3) 0.8653(3) 0.5841(2)
H22 H 0.4864 0.9283 0.5661
H23 H 0.6069 0.8690 0.6108
H24 H 0.4803 0.8375 0.6456
loop_
_geom_bond_atom_site_label_1
_geom_bond_atom_site_label_2
_geom_bond_site_symmetry_1
_geom_bond_site_symmetry_2
O1 C1 1_555 1_555
O2 H1 1_555 1_555
O3 C5 1_555 1_555
O4 C12 1_555 1_555
O5 C11 1_555 1_555
O6 C11 1_555 1_555
O7 C12 1_555 1_555
C1 C2 1_555 1_555
C2 H2 1_555 1_555
H3 C2 1_555 1_555
C3 C2 1_555 1_555
C4 C1 1_555 1_555
C5 O2 1_555 1_555
C6 C4 1_555 1_555
H4 C6 1_555 1_555
H5 C6 1_555 1_555
C7 C3 1_555 1_555
H6 C7 1_555 1_555
H7 C7 1_555 1_555
C8 C6 1_555 1_555
H8 C8 1_555 1_555
H9 C8 1_555 1_555
C9 O1 1_555 1_555
H10 C9 1_555 1_555
C10 C1 1_555 1_555
C11 C10 1_555 1_555
C12 C10 1_555 1_555
C13 C9 1_555 1_555
H11 C13 1_555 1_555
H12 C13 1_555 1_555
C14 C3 1_555 1_555
H13 C14 1_555 1_555
H14 C14 1_555 1_555
H15 C14 1_555 1_555
C15 C3 1_555 1_555
H16 C15 1_555 1_555
H17 C15 1_555 1_555
H18 C15 1_555 1_555
C16 O4 1_555 1_555
H19 C16 1_555 1_555
H20 C16 1_555 1_555
H21 C16 1_555 1_555
C17 O5 1_555 1_555
H22 C17 1_555 1_555
H23 C17 1_555 1_555
H24 C17 1_555 1_555
C4 C5 1_555 1_555
C4 C7 1_555 1_555
C8 C9 1_555 1_555
C10 C13 1_555 1_555

#END
