
#######################################################################
#
#                 Cambridge Crystallographic Data Centre
#                                CCDC 
#
#######################################################################
#
# If this CIF has been generated from an entry in the Cambridge 
# Structural Database, then it will include bibliographic, chemical, 
# crystal, experimental, refinement or atomic coordinate data resulting 
# from the CCDC's data processing and validation procedures.
#
#######################################################################

data_ZOGGAF
_chemical_formula_moiety         'C47 H55 Cl3 N8 O8'
_chemical_name_systematic        
"diisobutyl 3,3'-((2-chloro-5-(isobutoxycarbonyl)-1,3-phenylene)bis(1H-1,2,3-triazole-4,1-diyl))bis(4-chloro-5-((2,2-dimethylpropanoyl)amino)benzoate) unknown solvate"
_symmetry_cell_setting           monoclinic
_symmetry_space_group_name_H-M   'C 2/c'
_symmetry_Int_Tables_number      15
_space_group_name_Hall           '-C 2yn'
loop_
_symmetry_equiv_pos_site_id
_symmetry_equiv_pos_as_xyz
1 x,y,z
2 -x,y,1/2-z
3 1/2+x,1/2+y,z
4 1/2-x,1/2+y,1/2-z
5 -x,-y,-z
6 x,-y,1/2+z
7 1/2-x,1/2-y,-z
8 1/2+x,1/2-y,1/2+z
_cell_length_a                   47.727(9)
_cell_length_b                   14.350(3)
_cell_length_c                   17.940(4)
_cell_angle_alpha                90
_cell_angle_beta                 102.50(3)
_cell_angle_gamma                90
_cell_volume                     11995.5
_exptl_crystal_colour            colorless
_exptl_crystal_description       plate
_cell_formula_units_Z            8
loop_
_atom_site_label
_atom_site_type_symbol
_atom_site_fract_x
_atom_site_fract_y
_atom_site_fract_z
Cl1 Cl 0.16627(3) 0.30686(11) 0.21872(9)
Cl2 Cl 0.27383(3) 0.25838(11) 0.21424(9)
Cl3 Cl 0.33892(3) 0.46021(11) 0.18626(9)
O1 O 0.08619(8) 0.1402(3) -0.1047(2)
O2 O 0.11644(9) 0.0209(3) -0.0752(3)
O3 O 0.09050(14) 0.4237(4) 0.0113(3)
O4 O 0.28580(9) -0.1465(3) 0.4070(2)
O5 O 0.32009(8) -0.0601(3) 0.4829(2)
O6 O 0.44433(9) 0.5092(3) 0.5002(3)
O7 O 0.45272(10) 0.6270(4) 0.4269(3)
O8 O 0.39486(9) 0.7646(3) 0.2332(3)
N1 N 0.10990(10) 0.3545(3) 0.1224(3)
H1 H 0.1126 0.3594 0.1723
N2 N 0.18838(10) 0.1322(4) 0.1580(3)
N3 N 0.18922(10) 0.0355(4) 0.1718(3)
N4 N 0.21468(10) 0.0190(3) 0.2117(3)
N5 N 0.35877(9) 0.1991(3) 0.3550(3)
N6 N 0.37635(10) 0.2693(3) 0.3545(3)
N7 N 0.35992(9) 0.3459(3) 0.3309(3)
N8 N 0.37605(10) 0.6243(3) 0.1890(3)
H2 H 0.3659 0.5965 0.1482
C1 C 0.03222(16) 0.0932(6) -0.2873(5)
H3 H 0.0436 0.0883 -0.3265
H4 H 0.0139 0.1239 -0.3090
H5 H 0.0285 0.0307 -0.2697
C2 C 0.04897(15) 0.1513(5) -0.2190(5)
H6 H 0.0352 0.1695 -0.1868
C3 C 0.0617(2) 0.2389(7) -0.2435(5)
H7 H 0.0750 0.2662 -0.1997
H8 H 0.0463 0.2835 -0.2631
H9 H 0.0719 0.2242 -0.2837
C4 C 0.07102(15) 0.0890(5) -0.1725(4)
H10 H 0.0617 0.0330 -0.1566
H11 H 0.0848 0.0685 -0.2032
C5 C 0.10866(12) 0.0964(5) -0.0624(4)
C6 C 0.12250(12) 0.1503(4) 0.0056(4)
C7 C 0.14870(11) 0.1212(4) 0.0487(3)
H12 H 0.1573 0.0667 0.0333
C8 C 0.16275(11) 0.1675(4) 0.1125(3)
C9 C 0.14998(11) 0.2468(4) 0.1376(3)
C10 C 0.12363(12) 0.2791(4) 0.0949(4)
C11 C 0.10997(12) 0.2310(4) 0.0283(3)
H13 H 0.0923 0.2533 -0.0012
C12 C 0.09313(14) 0.4202(5) 0.0815(4)
C13 C 0.07771(14) 0.4877(5) 0.1248(4)
C14 C 0.05024(17) 0.4397(6) 0.1327(6)
H14 H 0.0389 0.4241 0.0820
H15 H 0.0392 0.4815 0.1587
H16 H 0.0549 0.3825 0.1627
C15 C 0.06967(18) 0.5741(5) 0.0774(4)
H17 H 0.0583 0.5566 0.0271
H18 H 0.0871 0.6063 0.0712
H19 H 0.0584 0.6155 0.1029
C16 C 0.09654(16) 0.5137(5) 0.2017(4)
H20 H 0.0871 0.5624 0.2256
H21 H 0.1151 0.5368 0.1943
H22 H 0.0996 0.4586 0.2347
C17 C 0.21416(11) 0.1708(4) 0.1905(3)
H23 H 0.2196 0.2343 0.1895
C18 C 0.23066(12) 0.0973(4) 0.2253(4)
C19 C 0.26000(12) 0.0954(4) 0.2723(3)
C20 C 0.28082(13) 0.1628(4) 0.2761(3)
C21 C 0.30805(12) 0.1614(4) 0.3277(3)
C22 C 0.31353(12) 0.0834(4) 0.3766(3)
H24 H 0.3312 0.0786 0.4128
C23 C 0.29286(12) 0.0130(4) 0.3718(3)
C24 C 0.26728(12) 0.0170(4) 0.3214(3)
H25 H 0.2540 -0.0330 0.3189
C25 C 0.29942(12) -0.0736(4) 0.4222(4)
C26 C 0.32806(14) -0.1398(4) 0.5335(4)
H26 H 0.3394 -0.1844 0.5100
H27 H 0.3105 -0.1720 0.5409
C27 C 0.34528(13) -0.1085(5) 0.6088(4)
H28 H 0.3621 -0.0722 0.5999
C28 C 0.35620(16) -0.1929(5) 0.6565(4)
H29 H 0.3399 -0.2312 0.6631
H30 H 0.3671 -0.1727 0.7067
H31 H 0.3687 -0.2294 0.6309
C29 C 0.32792(16) -0.0463(5) 0.6509(4)
H32 H 0.3181 0.0018 0.6160
H33 H 0.3408 -0.0166 0.6943
H34 H 0.3137 -0.0841 0.6693
C30 C 0.33091(11) 0.2273(4) 0.3322(3)
C31 C 0.33115(12) 0.3219(4) 0.3163(3)
H35 H 0.3151 0.3615 0.2992
C32 C 0.37418(11) 0.4302(4) 0.3265(3)
C33 C 0.36657(12) 0.4920(4) 0.2619(3)
C34 C 0.38208(12) 0.5697(4) 0.2577(3)
C35 C 0.40534(11) 0.5922(4) 0.3165(3)
H36 H 0.4161 0.6470 0.3127
C36 C 0.41301(12) 0.5354(4) 0.3808(3)
C37 C 0.39659(11) 0.4541(4) 0.3845(3)
H37 H 0.4013 0.4153 0.4283
C38 C 0.43775(13) 0.5545(5) 0.4426(4)
C39 C 0.47922(17) 0.6486(6) 0.4845(5)
H38 H 0.4890 0.5904 0.5052
H39 H 0.4746 0.6848 0.5272
C40 C 0.49840(16) 0.7058(6) 0.4436(5)
H40 H 0.4888 0.7668 0.4279
C41 C 0.50620(18) 0.6639(7) 0.3777(5)
H41 H 0.5134 0.6007 0.3906
H42 H 0.5212 0.7015 0.3624
H43 H 0.4893 0.6611 0.3356
C42 C 0.52494(17) 0.7239(7) 0.5063(5)
H44 H 0.5209 0.7741 0.5395
H45 H 0.5409 0.7422 0.4832
H46 H 0.5300 0.6670 0.5365
C43 C 0.38415(12) 0.7143(4) 0.1791(3)
C44 C 0.37856(13) 0.7487(4) 0.0961(3)
C45 C 0.40494(15) 0.7208(5) 0.0653(4)
H47 H 0.4060 0.6527 0.0624
H48 H 0.4223 0.7444 0.0996
H49 H 0.4034 0.7474 0.0143
C46 C 0.35157(14) 0.7046(5) 0.0459(4)
H50 H 0.3549 0.6380 0.0394
H51 H 0.3473 0.7351 -0.0041
H52 H 0.3353 0.7125 0.0705
C47 C 0.37543(19) 0.8561(5) 0.0948(5)
H53 H 0.3756 0.8795 0.0436
H54 H 0.3914 0.8837 0.1318
H55 H 0.3573 0.8732 0.1083
loop_
_geom_bond_atom_site_label_1
_geom_bond_atom_site_label_2
_geom_bond_site_symmetry_1
_geom_bond_site_symmetry_2
Cl1 C9 1_555 1_555
Cl2 C20 1_555 1_555
Cl3 C33 1_555 1_555
O1 C4 1_555 1_555
O2 C5 1_555 1_555
O3 C12 1_555 1_555
O4 C25 1_555 1_555
O5 C25 1_555 1_555
O6 C38 1_555 1_555
O7 C38 1_555 1_555
O8 C43 1_555 1_555
N1 H1 1_555 1_555
N2 N3 1_555 1_555
N3 N4 1_555 1_555
N4 C18 1_555 1_555
N5 N6 1_555 1_555
N6 N7 1_555 1_555
N7 C31 1_555 1_555
N8 H2 1_555 1_555
C1 H3 1_555 1_555
H4 C1 1_555 1_555
H5 C1 1_555 1_555
C2 C1 1_555 1_555
H6 C2 1_555 1_555
C3 C2 1_555 1_555
H7 C3 1_555 1_555
H8 C3 1_555 1_555
H9 C3 1_555 1_555
C4 C2 1_555 1_555
H10 C4 1_555 1_555
H11 C4 1_555 1_555
C5 O1 1_555 1_555
C6 C5 1_555 1_555
C7 C6 1_555 1_555
H12 C7 1_555 1_555
C8 N2 1_555 1_555
C9 C8 1_555 1_555
C10 N1 1_555 1_555
C11 C6 1_555 1_555
H13 C11 1_555 1_555
C12 N1 1_555 1_555
C13 C12 1_555 1_555
C14 C13 1_555 1_555
H14 C14 1_555 1_555
H15 C14 1_555 1_555
H16 C14 1_555 1_555
C15 C13 1_555 1_555
H17 C15 1_555 1_555
H18 C15 1_555 1_555
H19 C15 1_555 1_555
C16 C13 1_555 1_555
H20 C16 1_555 1_555
H21 C16 1_555 1_555
H22 C16 1_555 1_555
C17 N2 1_555 1_555
H23 C17 1_555 1_555
C18 C17 1_555 1_555
C19 C18 1_555 1_555
C20 C19 1_555 1_555
C21 C20 1_555 1_555
C22 C21 1_555 1_555
H24 C22 1_555 1_555
C23 C22 1_555 1_555
C24 C19 1_555 1_555
H25 C24 1_555 1_555
C25 C23 1_555 1_555
C26 O5 1_555 1_555
H26 C26 1_555 1_555
H27 C26 1_555 1_555
C27 C26 1_555 1_555
H28 C27 1_555 1_555
C28 C27 1_555 1_555
H29 C28 1_555 1_555
H30 C28 1_555 1_555
H31 C28 1_555 1_555
C29 C27 1_555 1_555
H32 C29 1_555 1_555
H33 C29 1_555 1_555
H34 C29 1_555 1_555
C30 N5 1_555 1_555
C31 C30 1_555 1_555
H35 C31 1_555 1_555
C32 N7 1_555 1_555
C33 C32 1_555 1_555
C34 N8 1_555 1_555
C35 C34 1_555 1_555
H36 C35 1_555 1_555
C36 C35 1_555 1_555
C37 C32 1_555 1_555
H37 C37 1_555 1_555
C38 C36 1_555 1_555
C39 O7 1_555 1_555
H38 C39 1_555 1_555
H39 C39 1_555 1_555
C40 C39 1_555 1_555
H40 C40 1_555 1_555
C41 C40 1_555 1_555
H41 C41 1_555 1_555
H42 C41 1_555 1_555
H43 C41 1_555 1_555
C42 C40 1_555 1_555
H44 C42 1_555 1_555
H45 C42 1_555 1_555
H46 C42 1_555 1_555
C43 N8 1_555 1_555
C44 C43 1_555 1_555
C45 C44 1_555 1_555
H47 C45 1_555 1_555
H48 C45 1_555 1_555
H49 C45 1_555 1_555
C46 C44 1_555 1_555
H50 C46 1_555 1_555
H51 C46 1_555 1_555
H52 C46 1_555 1_555
C47 C44 1_555 1_555
H53 C47 1_555 1_555
H54 C47 1_555 1_555
H55 C47 1_555 1_555
C7 C8 1_555 1_555
C9 C10 1_555 1_555
C10 C11 1_555 1_555
C21 C30 1_555 1_555
C23 C24 1_555 1_555
C33 C34 1_555 1_555
C36 C37 1_555 1_555

#END
