
#######################################################################
#
#                 Cambridge Crystallographic Data Centre
#                                CCDC 
#
#######################################################################
#
# If this CIF has been generated from an entry in the Cambridge 
# Structural Database, then it will include bibliographic, chemical, 
# crystal, experimental, refinement or atomic coordinate data resulting 
# from the CCDC's data processing and validation procedures.
#
#######################################################################

data_ZOGKAJ
_chemical_formula_moiety         'C27 H23 N3 O4'
_chemical_name_systematic        
N-(1-ethyl-1'-formyl-2,5'-dioxo-3'-phenyl-1,2-dihydrospiro[indole-3,2'-pyrrolidin]-4'-yl)benzamide
_symmetry_cell_setting           monoclinic
_symmetry_space_group_name_H-M   'P 21/n'
_symmetry_Int_Tables_number      14
_space_group_name_Hall           '-P 2yn'
loop_
_symmetry_equiv_pos_site_id
_symmetry_equiv_pos_as_xyz
1 x,y,z
2 1/2-x,1/2+y,1/2-z
3 -x,-y,-z
4 1/2+x,1/2-y,1/2+z
_cell_length_a                   9.48520(10)
_cell_length_b                   16.6744(2)
_cell_length_c                   15.2017(2)
_cell_angle_alpha                90
_cell_angle_beta                 94.9420(10)
_cell_angle_gamma                90
_cell_volume                     2395.36
_exptl_crystal_colour            colorless
_exptl_crystal_description       block
_cell_formula_units_Z            4
loop_
_atom_site_label
_atom_site_type_symbol
_atom_site_fract_x
_atom_site_fract_y
_atom_site_fract_z
N1 N 0.56274(13) 0.18065(7) 0.66725(8)
O1 O 0.92021(12) 0.11665(7) 0.29165(8)
N2 N 0.78038(13) 0.03534(7) 0.58112(8)
O2 O 0.48427(12) 0.05474(6) 0.62734(8)
O3 O 0.87460(12) -0.05676(6) 0.48858(9)
C1 C 0.81901(15) 0.00703(8) 0.49986(11)
N3 N 0.74883(14) 0.04221(8) 0.34451(9)
H1 H 0.6846 0.0064 0.3334
O4 O 0.78284(17) 0.02508(8) 0.73014(9)
C2 C 0.77407(15) 0.18572(8) 0.60449(9)
C3 C 0.77491(16) 0.07139(8) 0.43289(10)
H2 H 0.8498 0.1120 0.4341
C4 C 0.69934(14) 0.10998(8) 0.57285(9)
C5 C 0.68480(15) 0.22739(8) 0.65597(9)
C6 C 0.90376(17) 0.21735(10) 0.58937(12)
H3 H 0.9657 0.1894 0.5564
C7 C 0.57004(15) 0.10939(8) 0.62669(10)
C8 C 0.58240(18) 0.18362(9) 0.43382(10)
C9 C 0.71847(18) 0.30200(9) 0.69058(11)
H4 H 0.6567 0.3298 0.7238
C10 C 0.3735(3) 0.26385(19) 0.40132(18)
H5 H 0.2767 0.2713 0.4039
C11 C 0.64639(15) 0.10771(8) 0.47273(9)
H6 H 0.5717 0.0670 0.4664
C12 C 0.77851(19) 0.03782(10) 0.18820(11)
C13 C 0.93980(19) 0.29267(10) 0.62502(13)
H7 H 1.0269 0.3152 0.6156
C14 C 0.4513(4) 0.32087(16) 0.36340(16)
H8 H 0.4078 0.3670 0.3397
C15 C 0.8152(2) -0.00166(10) 0.66099(12)
H9 H 0.8659 -0.0494 0.6616
C16 C 0.44661(18) 0.20292(11) 0.71984(12)
H10 H 0.4749 0.2488 0.7565
H11 H 0.4272 0.1588 0.7585
C17 C 0.82159(16) 0.06904(9) 0.27817(11)
C18 C 0.5929(4) 0.31023(14) 0.36023(17)
H12 H 0.6457 0.3492 0.3341
C19 C 0.8483(2) 0.33370(10) 0.67376(12)
H13 H 0.8741 0.3840 0.6960
C20 C 0.6593(3) 0.24212(11) 0.39550(14)
H14 H 0.7564 0.2358 0.3933
C21 C 0.8655(3) 0.05321(16) 0.12174(14)
H15 H 0.9485 0.0822 0.1342
C22 C 0.6558(2) -0.00483(13) 0.16761(13)
H16 H 0.5943 -0.0144 0.2108
C23 C 0.4375(2) 0.19464(13) 0.43617(13)
H17 H 0.3834 0.1556 0.4611
C24 C 0.6239(4) -0.0334(2) 0.08297(19)
H18 H 0.5417 -0.0630 0.0698
C25 C 0.8302(4) 0.0260(2) 0.03716(18)
H19 H 0.8881 0.0381 -0.0074
C26 C 0.7121(5) -0.0183(2) 0.01842(19)
H20 H 0.6909 -0.0384 -0.0382
C27 C 0.3144(2) 0.22324(19) 0.66270(19)
H21 H 0.2812 0.1765 0.6304
H22 H 0.3345 0.2649 0.6220
H23 H 0.2429 0.2413 0.6991
loop_
_geom_bond_atom_site_label_1
_geom_bond_atom_site_label_2
_geom_bond_site_symmetry_1
_geom_bond_site_symmetry_2
N1 C5 1_555 1_555
O1 C17 1_555 1_555
N2 C1 1_555 1_555
O2 C7 1_555 1_555
O3 C1 1_555 1_555
C1 C3 1_555 1_555
N3 H1 1_555 1_555
O4 C15 1_555 1_555
C2 C4 1_555 1_555
C3 N3 1_555 1_555
H2 C3 1_555 1_555
C4 N2 1_555 1_555
C5 C2 1_555 1_555
C6 C2 1_555 1_555
H3 C6 1_555 1_555
C7 N1 1_555 1_555
C8 C11 1_555 1_555
C9 C5 1_555 1_555
H4 C9 1_555 1_555
C10 H5 1_555 1_555
C11 C3 1_555 1_555
H6 C11 1_555 1_555
C12 C17 1_555 1_555
C13 C6 1_555 1_555
H7 C13 1_555 1_555
C14 C10 1_555 1_555
H8 C14 1_555 1_555
C15 N2 1_555 1_555
H9 C15 1_555 1_555
C16 N1 1_555 1_555
H10 C16 1_555 1_555
H11 C16 1_555 1_555
C17 N3 1_555 1_555
C18 C14 1_555 1_555
H12 C18 1_555 1_555
C19 C9 1_555 1_555
H13 C19 1_555 1_555
C20 C8 1_555 1_555
H14 C20 1_555 1_555
C21 C12 1_555 1_555
H15 C21 1_555 1_555
C22 C12 1_555 1_555
H16 C22 1_555 1_555
C23 C8 1_555 1_555
H17 C23 1_555 1_555
C24 C22 1_555 1_555
H18 C24 1_555 1_555
C25 C21 1_555 1_555
H19 C25 1_555 1_555
C26 C24 1_555 1_555
H20 C26 1_555 1_555
C27 C16 1_555 1_555
H21 C27 1_555 1_555
H22 C27 1_555 1_555
H23 C27 1_555 1_555
C4 C7 1_555 1_555
C4 C11 1_555 1_555
C10 C23 1_555 1_555
C13 C19 1_555 1_555
C18 C20 1_555 1_555
C25 C26 1_555 1_555

#END
