
#######################################################################
#
#                 Cambridge Crystallographic Data Centre
#                                CCDC 
#
#######################################################################
#
# If this CIF has been generated from an entry in the Cambridge 
# Structural Database, then it will include bibliographic, chemical, 
# crystal, experimental, refinement or atomic coordinate data resulting 
# from the CCDC's data processing and validation procedures.
#
#######################################################################

data_ZOGMEN
_chemical_compound_source        'lichen Simonyella variegata Steiner'
_chemical_name_common            'Simonyellin tetra-acetate'
_chemical_formula_moiety         'C22 H20 O11'
_chemical_name_systematic        
3,5,6,9-Tetra-acetoxy-4-methoxy-7-methyl-1H,3H-naphtho(1,8-cd)pyran-1-one
_symmetry_cell_setting           triclinic
_symmetry_space_group_name_H-M   'P -1'
_symmetry_Int_Tables_number      2
_space_group_name_Hall           '-P 1'
loop_
_symmetry_equiv_pos_site_id
_symmetry_equiv_pos_as_xyz
1 x,y,z
2 -x,-y,-z
_cell_length_a                   10.974(2)
_cell_length_b                   11.282(3)
_cell_length_c                   20.634(3)
_cell_angle_alpha                92.23(2)
_cell_angle_beta                 100.03(1)
_cell_angle_gamma                117.80(2)
_cell_volume                     2204.01
_exptl_crystal_colour            colorless
_cell_formula_units_Z            4
loop_
_atom_site_label
_atom_site_type_symbol
_atom_site_fract_x
_atom_site_fract_y
_atom_site_fract_z
O1 O 0.8881(4) 0.4429(4) 0.7998(2)
O2 O 0.9293(4) 0.2766(4) 0.7745(2)
O3 O 0.7847(4) 0.0321(4) 0.8161(2)
O4 O 0.9786(4) 0.1533(4) 0.8967(2)
O5 O 0.3356(4) 0.1699(4) 0.9213(2)
O6 O 0.4627(4) 0.2264(4) 1.0273(2)
O7 O 0.4230(4) 0.4329(4) 0.9241(2)
O8 O 0.2834(6) 0.3928(6) 0.8262(2)
O9 O 0.6606(4) 0.5997(4) 0.8773(2)
O10 O 0.9385(4) 0.5479(4) 0.9050(2)
O11 O 1.0271(5) 0.7650(4) 0.8894(2)
C1 C 0.7471(5) 0.2259(5) 0.8342(2)
C2 C 0.7125(6) 0.0935(6) 0.8389(2)
C3 C 0.5924(6) 0.0062(5) 0.8608(3)
C4 C 0.5028(6) 0.0477(5) 0.8792(3)
C5 C 0.4598(6) 0.2465(6) 0.8994(3)
C6 C 0.4971(6) 0.3792(6) 0.8968(3)
C7 C 0.6174(6) 0.4633(6) 0.8738(3)
C8 C 0.6980(5) 0.4120(5) 0.8547(2)
C9 C 0.6599(5) 0.2743(5) 0.8556(2)
C10 C 0.5374(5) 0.1861(5) 0.8786(2)
C11 C 0.8619(6) 0.3131(6) 0.8019(3)
C12 C 0.9242(7) 0.0792(6) 0.8462(3)
C13 C 0.9873(6) 0.0170(6) 0.8065(3)
C14 C 0.3732(6) -0.0576(6) 0.8993(3)
C15 C 0.3521(7) 0.1763(6) 0.9898(3)
C16 C 0.2087(6) 0.1070(6) 1.0063(3)
C17 C 0.3125(7) 0.4313(7) 0.8827(4)
C18 C 0.2389(6) 0.4835(6) 0.9197(3)
C19 C 0.6130(7) 0.6430(6) 0.8203(3)
C20 C 0.8394(6) 0.5048(5) 0.8416(3)
C21 C 1.0272(6) 0.6819(7) 0.9235(3)
C22 C 1.1197(6) 0.7079(6) 0.9896(3)
H1 H 0.5720 -0.0850 0.8630
H2 H 0.9399 -0.0783 0.8058
H3 H 0.9775 0.0378 0.7623
H4 H 1.0846 0.0524 0.8262
H5 H 0.2914 -0.0600 0.8732
H6 H 0.3679 -0.1438 0.8923
H7 H 0.3784 -0.0354 0.9449
H8 H 0.2189 0.1133 1.0531
H9 H 0.1555 0.1494 0.9886
H10 H 0.1611 0.0145 0.9874
H11 H 0.3038 0.5723 0.9416
H12 H 0.1641 0.4855 0.8896
H13 H 0.2017 0.4260 0.9517
H14 H 0.6473 0.7378 0.8284
H15 H 0.6467 0.6230 0.7842
H16 H 0.5128 0.5976 0.8097
H17 H 0.8384 0.5809 0.8240
H18 H 1.1061 0.7654 1.0191
H19 H 1.0969 0.6247 1.0065
H20 H 1.2155 0.7504 0.9858
O12 O 0.3131(5) 1.0306(4) 0.3321(2)
O13 O 0.4837(5) 1.1945(4) 0.2986(2)
O14 O 0.6992(5) 1.1642(5) 0.2695(2)
O15 O 0.8048(5) 1.2812(5) 0.3713(2)
O16 O 0.4999(4) 0.5675(4) 0.3582(2)
O17 O 0.5990(5) 0.6459(5) 0.4662(2)
O18 O 0.2574(5) 0.4887(4) 0.3986(2)
O19 O 0.1754(6) 0.3773(5) 0.2945(2)
O20 O 0.1273(4) 0.6525(4) 0.3911(2)
O21 O 0.2762(4) 0.9529(4) 0.4318(2)
O22 O 0.0619(5) 0.9388(5) 0.4139(2)
C23 C 0.5115(7) 1.0003(6) 0.3162(3)
C24 C 0.6357(8) 1.0426(7) 0.2955(3)
C25 C 0.7003(7) 0.9615(8) 0.2934(3)
C26 C 0.6454(7) 0.8359(8) 0.3130(3)
C27 C 0.4443(7) 0.6569(6) 0.3561(3)
C28 C 0.3196(7) 0.6134(6) 0.3749(3)
C29 C 0.2557(7) 0.6954(6) 0.3756(3)
C30 C 0.3215(6) 0.8223(6) 0.3574(3)
C31 C 0.4486(6) 0.8673(6) 0.3363(3)
C32 C 0.5156(6) 0.7849(6) 0.3347(3)
C33 C 0.4413(8) 1.0832(7) 0.3152(3)
C34 C 0.7778(8) 1.2809(8) 0.3134(4)
C35 C 0.8250(8) 1.4001(7) 0.2763(4)
C36 C 0.7268(7) 0.7577(7) 0.3109(3)
C37 C 0.5750(8) 0.5687(8) 0.4199(4)
C38 C 0.6153(9) 0.4595(8) 0.4164(4)
C39 C 0.1886(8) 0.3742(7) 0.3525(4)
C40 C 0.1358(8) 0.2516(7) 0.3870(4)
C41 C 0.1177(8) 0.6238(7) 0.4574(4)
C42 C 0.2561(6) 0.9111(6) 0.3628(3)
C43 C 0.1677(8) 0.9614(7) 0.4514(4)
C44 C 0.2053(8) 1.0037(7) 0.5246(3)
H21 H 0.7854 0.9948 0.2778
H22 H 0.8772 1.4810 0.3070
H23 H 0.8829 1.3949 0.2483
H24 H 0.7448 1.4003 0.2501
H25 H 0.6632 0.6666 0.2917
H26 H 0.7725 0.7594 0.3548
H27 H 0.7954 0.7983 0.2849
H28 H 0.5324 0.3740 0.4051
H29 H 0.6695 0.4724 0.3836
H30 H 0.6696 0.4628 0.4584
H31 H 0.0719 0.2532 0.4123
H32 H 0.0888 0.1727 0.3550
H33 H 0.2131 0.2509 0.4157
H34 H 0.0240 0.5950 0.4625
H35 H 0.1416 0.5542 0.4658
H36 H 0.1811 0.7031 0.4878
H37 H 0.1577 0.8600 0.3443
H38 H 0.2223 0.9389 0.5469
H39 H 0.2879 1.0895 0.5356
H40 H 0.1296 1.0096 0.5382
loop_
_geom_bond_atom_site_label_1
_geom_bond_atom_site_label_2
_geom_bond_site_symmetry_1
_geom_bond_site_symmetry_2
O1 C11 1_555 1_555
O2 C11 1_555 1_555
O3 C2 1_555 1_555
O4 C12 1_555 1_555
O5 C5 1_555 1_555
O6 C15 1_555 1_555
O7 C6 1_555 1_555
O8 C17 1_555 1_555
O9 C7 1_555 1_555
O10 C20 1_555 1_555
O11 C21 1_555 1_555
C1 C2 1_555 1_555
C2 C3 1_555 1_555
C3 C4 1_555 1_555
C4 C10 1_555 1_555
C5 C6 1_555 1_555
C6 C7 1_555 1_555
C7 C8 1_555 1_555
C8 C9 1_555 1_555
C9 C1 1_555 1_555
C10 C5 1_555 1_555
C11 C1 1_555 1_555
C12 O3 1_555 1_555
C13 C12 1_555 1_555
C14 C4 1_555 1_555
C15 O5 1_555 1_555
C16 C15 1_555 1_555
C17 O7 1_555 1_555
C18 C17 1_555 1_555
C19 O9 1_555 1_555
C20 O1 1_555 1_555
C21 O10 1_555 1_555
C22 C21 1_555 1_555
H1 C3 1_555 1_555
H2 C13 1_555 1_555
H3 C13 1_555 1_555
H4 C13 1_555 1_555
H5 C14 1_555 1_555
H6 C14 1_555 1_555
H7 C14 1_555 1_555
H8 C16 1_555 1_555
H9 C16 1_555 1_555
H10 C16 1_555 1_555
H11 C18 1_555 1_555
H12 C18 1_555 1_555
H13 C18 1_555 1_555
H14 C19 1_555 1_555
H15 C19 1_555 1_555
H16 C19 1_555 1_555
H17 C20 1_555 1_555
H18 C22 1_555 1_555
H19 C22 1_555 1_555
H20 C22 1_555 1_555
O12 C33 1_555 1_555
O13 C33 1_555 1_555
O14 C24 1_555 1_555
O15 C34 1_555 1_555
O16 C27 1_555 1_555
O17 C37 1_555 1_555
O18 C28 1_555 1_555
O19 C39 1_555 1_555
O20 C29 1_555 1_555
O21 C42 1_555 1_555
O22 C43 1_555 1_555
C23 C24 1_555 1_555
C24 C25 1_555 1_555
C25 C26 1_555 1_555
C26 C32 1_555 1_555
C27 C28 1_555 1_555
C28 C29 1_555 1_555
C29 C30 1_555 1_555
C30 C31 1_555 1_555
C31 C23 1_555 1_555
C32 C27 1_555 1_555
C33 C23 1_555 1_555
C34 O14 1_555 1_555
C35 C34 1_555 1_555
C36 C26 1_555 1_555
C37 O16 1_555 1_555
C38 C37 1_555 1_555
C39 O18 1_555 1_555
C40 C39 1_555 1_555
C41 O20 1_555 1_555
C42 O12 1_555 1_555
C43 O21 1_555 1_555
C44 C43 1_555 1_555
H21 C25 1_555 1_555
H22 C35 1_555 1_555
H23 C35 1_555 1_555
H24 C35 1_555 1_555
H25 C36 1_555 1_555
H26 C36 1_555 1_555
H27 C36 1_555 1_555
H28 C38 1_555 1_555
H29 C38 1_555 1_555
H30 C38 1_555 1_555
H31 C40 1_555 1_555
H32 C40 1_555 1_555
H33 C40 1_555 1_555
H34 C41 1_555 1_555
H35 C41 1_555 1_555
H36 C41 1_555 1_555
H37 C42 1_555 1_555
H38 C44 1_555 1_555
H39 C44 1_555 1_555
H40 C44 1_555 1_555
C8 C20 1_555 1_555
C9 C10 1_555 1_555
C30 C42 1_555 1_555
C31 C32 1_555 1_555

#END
