
#######################################################################
#
#                 Cambridge Crystallographic Data Centre
#                                CCDC 
#
#######################################################################
#
# If this CIF has been generated from an entry in the Cambridge 
# Structural Database, then it will include bibliographic, chemical, 
# crystal, experimental, refinement or atomic coordinate data resulting 
# from the CCDC's data processing and validation procedures.
#
#######################################################################

data_ZOGRUK
_chemical_formula_moiety         'C72 H52 Si1'
_chemical_name_systematic        diphenyl-bis(2,3,4,5-tetraphenylphenyl)silane
_symmetry_cell_setting           triclinic
_symmetry_space_group_name_H-M   'P -1'
_symmetry_Int_Tables_number      2
_space_group_name_Hall           '-P 1'
loop_
_symmetry_equiv_pos_site_id
_symmetry_equiv_pos_as_xyz
1 x,y,z
2 -x,-y,-z
_cell_length_a                   11.607(4)
_cell_length_b                   12.911(4)
_cell_length_c                   19.928(7)
_cell_angle_alpha                84.703(6)
_cell_angle_beta                 79.983(6)
_cell_angle_gamma                64.604(6)
_cell_volume                     2656.13
_cell_formula_units_Z            2
loop_
_atom_site_label
_atom_site_type_symbol
_atom_site_fract_x
_atom_site_fract_y
_atom_site_fract_z
Si1 Si 0.297100(13) 0.839570(12) 0.233891(7)
C1 C 0.24951(4) 0.80941(4) 0.15328(3)
C2 C 0.21726(5) 0.76984(4) 0.02070(3)
C3 C 0.17463(4) 0.84071(4) 0.31008(3)
C4 C 0.24209(4) 0.88706(4) 0.09896(3)
H1 H 0.2476 0.9545 0.1071
C5 C 0.22065(4) 0.68988(4) 0.07452(3)
C6 C 0.32074(5) 0.70374(4) 0.39092(3)
C7 C 0.22705(4) 0.87089(4) 0.03333(3)
C8 C 0.08137(5) 0.79890(4) 0.42348(3)
C9 C -0.04289(5) 0.87184(4) 0.41013(3)
C10 C 0.22172(5) 0.96412(4) -0.01868(3)
C11 C 0.19093(4) 0.78397(4) 0.37436(3)
C12 C 0.21136(5) 0.58179(4) 0.06075(3)
C13 C 0.47364(5) 0.74419(4) 0.23299(3)
C14 C 0.04817(5) 0.91158(4) 0.29907(3)
H2 H 0.0362 0.9489 0.2569
C15 C 0.23480(4) 0.70983(4) 0.14027(3)
C16 C 0.23068(5) 0.62360(4) 0.19595(3)
C17 C 0.28894(4) 0.98986(4) 0.22317(3)
C18 C -0.06016(5) 0.92954(4) 0.34691(3)
C19 C 0.19984(5) 0.74921(4) -0.04900(3)
C20 C 0.38180(5) 1.00871(4) 0.17519(3)
H3 H 0.4498 0.9461 0.1533
C21 C -0.19184(5) 1.00311(5) 0.32883(3)
C22 C 0.09434(5) 0.72854(5) 0.48868(3)
C23 C 0.12968(5) 1.00799(5) -0.06225(3)
H4 H 0.0719 0.9755 -0.0620
C24 C 0.11958(5) 0.64678(5) 0.24202(3)
H5 H 0.0495 0.7176 0.2404
C25 C 0.30750(5) 1.01438(5) -0.02110(3)
H6 H 0.3708 0.9862 0.0071
C26 C -0.27229(6) 1.10680(5) 0.35823(3)
H7 H -0.2448 1.1348 0.3907
C27 C 0.19444(5) 1.08611(5) 0.25696(3)
H8 H 0.1328 1.0774 0.2907
C28 C 0.37598(6) 1.11721(5) 0.15917(3)
H9 H 0.4383 1.1269 0.1263
C29 C 0.54275(5) 0.76055(5) 0.27864(3)
H10 H 0.4994 0.8162 0.3117
C30 C -0.39441(6) 1.17039(5) 0.34009(4)
H11 H -0.4472 1.2409 0.3600
C31 C 0.09991(5) 0.56630(5) 0.08289(3)
H12 H 0.0290 0.6239 0.1071
C32 C 0.54464(5) 0.66182(5) 0.18377(3)
H13 H 0.5023 0.6497 0.1518
C33 C 0.27811(6) 1.21028(5) 0.19182(3)
H14 H 0.2718 1.2837 0.1801
C34 C 0.08242(5) 0.75595(5) -0.06043(3)
H15 H 0.0166 0.7672 -0.0239
C35 C 0.09135(6) 0.77168(6) 0.55007(3)
H16 H 0.0875 0.8449 0.5516
C36 C 0.29924(6) 1.10577(5) -0.06512(3)
H17 H 0.3563 1.1392 -0.0659
C37 C 0.74064(6) 0.61390(5) 0.22734(4)
H18 H 0.8288 0.5698 0.2260
C38 C 0.18936(6) 1.19479(5) 0.24192(4)
H19 H 0.1256 1.2574 0.2659
C39 C 0.20761(7) 1.14753(5) -0.10769(3)
H20 H 0.2030 1.2084 -0.1376
C40 C 0.33418(6) 0.51667(5) 0.19956(3)
H21 H 0.4096 0.4990 0.1687
C41 C 0.37276(5) 0.72604(6) 0.44211(3)
H22 H 0.3280 0.7938 0.4661
C42 C -0.23657(6) 0.96681(6) 0.28029(4)
H23 H -0.1832 0.8982 0.2584
C43 C 0.67607(6) 0.59729(5) 0.18067(4)
H24 H 0.7207 0.5428 0.1471
C44 C 0.11180(6) 0.56512(5) 0.29073(4)
H25 H 0.0361 0.5813 0.3212
C45 C 0.67417(5) 0.69591(6) 0.27581(4)
H26 H 0.7178 0.7082 0.3070
C46 C 0.10121(6) 0.61943(5) 0.48870(4)
H27 H 0.1049 0.5880 0.4478
C47 C 0.29768(6) 0.72900(5) -0.10329(3)
H28 H 0.3778 0.7223 -0.0965
C48 C 0.12292(7) 1.09875(5) -0.10581(3)
H29 H 0.0601 1.1274 -0.1343
C49 C 0.06176(7) 0.74621(6) -0.12532(3)
H30 H -0.0180 0.7522 -0.1324
C50 C -0.43660(6) 1.12988(5) 0.29357(4)
H31 H -0.5193 1.1714 0.2827
C51 C 0.31359(7) 0.49391(5) 0.02547(4)
H32 H 0.3896 0.5020 0.0096
C52 C 0.39000(6) 0.60188(5) 0.35686(4)
H33 H 0.3559 0.5853 0.3225
C53 C 0.09409(7) 0.70633(7) 0.60950(4)
H34 H 0.0924 0.7362 0.6506
C54 C 0.21440(7) 0.46113(5) 0.29437(4)
H35 H 0.2092 0.4070 0.3275
C55 C 0.32508(7) 0.43728(5) 0.24866(4)
H36 H 0.3949 0.3664 0.2509
C56 C -0.35852(6) 1.02932(7) 0.26313(4)
H37 H -0.3867 1.0021 0.2306
C57 C 0.09922(6) 0.60021(6) 0.60878(4)
H38 H 0.1004 0.5576 0.6491
C58 C 0.15829(8) 0.72779(6) -0.17896(4)
H39 H 0.1441 0.7215 -0.2226
C59 C 0.19438(7) 0.37997(5) 0.03557(4)
H40 H 0.1888 0.3125 0.0277
C60 C 0.27601(8) 0.71852(6) -0.16881(4)
H41 H 0.3418 0.7052 -0.2055
C61 C 0.49226(6) 0.64706(7) 0.45791(4)
H42 H 0.5272 0.6624 0.4923
C62 C 0.09268(6) 0.46586(5) 0.06946(4)
H43 H 0.0164 0.4577 0.0841
C63 C 0.10273(7) 0.55563(6) 0.54886(4)
H44 H 0.1061 0.4824 0.5482
C64 C 0.50854(7) 0.52402(6) 0.37240(5)
H45 H 0.5542 0.4562 0.3485
C65 C 0.55777(7) 0.54785(7) 0.42324(4)
H46 H 0.6372 0.4955 0.4343
C66 C 0.30530(8) 0.39261(6) 0.01301(4)
H47 H 0.3756 0.3339 -0.0107
C67 C -0.16321(11) 0.88615(11) 0.46348(7)
C68 C -0.18076(6) 0.96189(6) 0.51732(4)
H48 H -0.1283 1.0026 0.5173
C69 C -0.28296(6) 0.97793(6) 0.56951(4)
H49 H -0.3011 1.0297 0.6055
C70 C -0.35893(6) 0.91898(6) 0.56958(4)
H50 H -0.4295 0.9301 0.6056
C71 C -0.33269(6) 0.84398(6) 0.51747(4)
H51 H -0.3852 0.8033 0.5175
C72 C -0.23049(6) 0.82794(6) 0.46527(4)
H52 H -0.2124 0.7762 0.4293
C73? C -0.15390(11) 0.88192(11) 0.45952(7)
C74? C -0.20262(6) 0.93783(6) 0.51985(4)
H53? H -0.1521 0.9709 0.5352
C75? C -0.31738(6) 0.94630(6) 0.55935(4)
H54? H -0.3461 0.9852 0.6019
C76? C -0.39055(6) 0.89836(6) 0.53715(4)
H55? H -0.4698 0.9042 0.5644
C77? C -0.34896(6) 0.84196(6) 0.47546(4)
H56? H -0.3995 0.8089 0.4601
C78? C -0.23420(6) 0.83352(6) 0.43596(4)
H57? H -0.2055 0.7946 0.3934
loop_
_geom_bond_atom_site_label_1
_geom_bond_atom_site_label_2
_geom_bond_site_symmetry_1
_geom_bond_site_symmetry_2
Si1 C1 1_555 1_555
C1 C4 1_555 1_555
C2 C5 1_555 1_555
C3 Si1 1_555 1_555
C4 H1 1_555 1_555
C5 C12 1_555 1_555
C6 C11 1_555 1_555
C7 C2 1_555 1_555
C8 C9 1_555 1_555
C9 C18 1_555 1_555
C10 C7 1_555 1_555
C11 C3 1_555 1_555
C12 C31 1_555 1_555
C13 Si1 1_555 1_555
C14 C3 1_555 1_555
H2 C14 1_555 1_555
C15 C1 1_555 1_555
C16 C15 1_555 1_555
C17 Si1 1_555 1_555
C18 C14 1_555 1_555
C19 C2 1_555 1_555
C20 C17 1_555 1_555
H3 C20 1_555 1_555
C21 C18 1_555 1_555
C22 C8 1_555 1_555
C23 C10 1_555 1_555
H4 C23 1_555 1_555
C24 C16 1_555 1_555
H5 C24 1_555 1_555
C25 C10 1_555 1_555
H6 C25 1_555 1_555
C26 C21 1_555 1_555
H7 C26 1_555 1_555
C27 C17 1_555 1_555
H8 C27 1_555 1_555
C28 C20 1_555 1_555
H9 C28 1_555 1_555
C29 C13 1_555 1_555
H10 C29 1_555 1_555
C30 C26 1_555 1_555
H11 C30 1_555 1_555
C31 H12 1_555 1_555
C32 C13 1_555 1_555
H13 C32 1_555 1_555
C33 C28 1_555 1_555
H14 C33 1_555 1_555
C34 C19 1_555 1_555
H15 C34 1_555 1_555
C35 C22 1_555 1_555
H16 C35 1_555 1_555
C36 C25 1_555 1_555
H17 C36 1_555 1_555
C37 H18 1_555 1_555
C38 C27 1_555 1_555
H19 C38 1_555 1_555
C39 C36 1_555 1_555
H20 C39 1_555 1_555
C40 C16 1_555 1_555
H21 C40 1_555 1_555
C41 C6 1_555 1_555
H22 C41 1_555 1_555
C42 C21 1_555 1_555
H23 C42 1_555 1_555
C43 C32 1_555 1_555
H24 C43 1_555 1_555
C44 C24 1_555 1_555
H25 C44 1_555 1_555
C45 C29 1_555 1_555
H26 C45 1_555 1_555
C46 C22 1_555 1_555
H27 C46 1_555 1_555
C47 C19 1_555 1_555
H28 C47 1_555 1_555
C48 C23 1_555 1_555
H29 C48 1_555 1_555
C49 C34 1_555 1_555
H30 C49 1_555 1_555
C50 C30 1_555 1_555
H31 C50 1_555 1_555
C51 C12 1_555 1_555
H32 C51 1_555 1_555
C52 C6 1_555 1_555
H33 C52 1_555 1_555
C53 C35 1_555 1_555
H34 C53 1_555 1_555
C54 C44 1_555 1_555
H35 C54 1_555 1_555
C55 C40 1_555 1_555
H36 C55 1_555 1_555
C56 C42 1_555 1_555
H37 C56 1_555 1_555
C57 C53 1_555 1_555
H38 C57 1_555 1_555
C58 C49 1_555 1_555
H39 C58 1_555 1_555
C59 H40 1_555 1_555
C60 C47 1_555 1_555
H41 C60 1_555 1_555
C61 C41 1_555 1_555
H42 C61 1_555 1_555
C62 C31 1_555 1_555
H43 C62 1_555 1_555
C63 C46 1_555 1_555
H44 C63 1_555 1_555
C64 C52 1_555 1_555
H45 C64 1_555 1_555
C65 C61 1_555 1_555
H46 C65 1_555 1_555
C66 C51 1_555 1_555
H47 C66 1_555 1_555
C67 C9 1_555 1_555
C68 C67 1_555 1_555
H48 C68 1_555 1_555
C69 C68 1_555 1_555
H49 C69 1_555 1_555
C70 C69 1_555 1_555
H50 C70 1_555 1_555
C71 C70 1_555 1_555
H51 C71 1_555 1_555
C72 C67 1_555 1_555
H52 C72 1_555 1_555
C4 C7 1_555 1_555
C5 C15 1_555 1_555
C8 C11 1_555 1_555
C33 C38 1_555 1_555
C37 C43 1_555 1_555
C37 C45 1_555 1_555
C39 C48 1_555 1_555
C50 C56 1_555 1_555
C54 C55 1_555 1_555
C57 C63 1_555 1_555
C58 C60 1_555 1_555
C59 C62 1_555 1_555
C59 C66 1_555 1_555
C64 C65 1_555 1_555
C71 C72 1_555 1_555

#END
