
#######################################################################
#
#                 Cambridge Crystallographic Data Centre
#                                CCDC 
#
#######################################################################
#
# If this CIF has been generated from an entry in the Cambridge 
# Structural Database, then it will include bibliographic, chemical, 
# crystal, experimental, refinement or atomic coordinate data resulting 
# from the CCDC's data processing and validation procedures.
#
#######################################################################

data_ZOGVEW
_chemical_formula_moiety         'C43 H30 O4 P2'
_chemical_name_systematic        
2,6-bis(Triphenylphosphonium)-spiro(3.3)heptan-1,3,5,7-tetraone-2,6-di-ide
_symmetry_cell_setting           triclinic
_symmetry_space_group_name_H-M   'P -1'
_symmetry_Int_Tables_number      2
_space_group_name_Hall           '-P 1'
loop_
_symmetry_equiv_pos_site_id
_symmetry_equiv_pos_as_xyz
1 x,y,z
2 -x,-y,-z
_cell_length_a                   14.988(4)
_cell_length_b                   18.946(6)
_cell_length_c                   12.905(3)
_cell_angle_alpha                102.21(1)
_cell_angle_beta                 90.4(1)
_cell_angle_gamma                75.4(1)
_cell_volume                     3461.83
_exptl_crystal_colour            cream-white
_chemical_melting_point          245-250deg.C(dec.)
_cell_formula_units_Z            4
loop_
_atom_site_label
_atom_site_type_symbol
_atom_site_fract_x
_atom_site_fract_y
_atom_site_fract_z
P1 P 1.00747(9) 0.12026(7) 0.2285(1)
P2 P 0.97976(8) 0.38274(7) 0.7821(1)
O1 O 0.8702(2) 0.3007(2) 0.3623(3)
O2 O 1.1083(2) 0.1421(2) 0.4770(3)
O3 O 0.8787(3) 0.2404(2) 0.6379(3)
O4 O 1.0723(2) 0.3578(2) 0.5191(3)
C1 C 0.9807(3) 0.2610(2) 0.4986(4)
C2 C 0.9347(3) 0.2579(3) 0.3917(4)
C3 C 0.9980(3) 0.1859(3) 0.3470(4)
C4 C 1.0446(3) 0.1843(3) 0.4442(4)
C5 C 0.9316(3) 0.2715(3) 0.6088(4)
C6 C 0.9769(3) 0.3296(2) 0.6555(3)
C7 C 1.0221(3) 0.3260(3) 0.5538(4)
C8 C 0.9176(3) 0.2208(2) 0.1134(3)
C9 C 0.8465(3) 0.2514(2) 0.0530(3)
C10 C 0.7761(3) 0.2160(2) 0.0245(3)
C11 C 0.7767(3) 0.1500(2) 0.0564(3)
C12 C 0.8478(3) 0.1193(2) 0.1167(3)
C13 C 0.9183(3) 0.1547(2) 0.1452(3)
C14 C 0.9439(3) 0.0356(2) 0.3460(3)
C15 C 0.9297(3) -0.0302(2) 0.3668(3)
C16 C 0.9657(3) -0.0981(2) 0.2958(3)
C17 C 1.0159(3) -0.1003(2) 0.2040(3)
C18 C 1.0301(3) -0.0346(2) 0.1832(3)
C19 C 0.9941(3) 0.0334(2) 0.2542(3)
C20 C 1.1276(2) 0.0736(2) 0.0503(3)
C21 C 1.2141(2) 0.0580(2) -0.0012(3)
C22 C 1.2895(2) 0.0712(2) 0.0566(3)
C23 C 1.2783(2) 0.1000(2) 0.1658(3)
C24 C 1.1918(2) 0.1156(2) 0.2173(3)
C25 C 1.1165(2) 0.1024(2) 0.1596(3)
C26 C 0.8131(3) 0.3722(2) 0.8510(3)
C27 C 0.7272(3) 0.3987(2) 0.9056(3)
C28 C 0.6949(3) 0.4744(2) 0.9526(3)
C29 C 0.7486(3) 0.5237(2) 0.9451(3)
C30 C 0.8346(3) 0.4972(2) 0.8905(3)
C31 C 0.8669(3) 0.4215(2) 0.8435(3)
C32 C 1.1113(2) 0.4647(2) 0.8259(3)
C33 C 1.1508(2) 0.5223(2) 0.8160(3)
C34 C 1.1113(2) 0.5717(2) 0.7521(3)
C35 C 1.0323(2) 0.5635(2) 0.6982(3)
C36 C 0.9928(2) 0.5058(2) 0.7081(3)
C37 C 1.0323(2) 0.4564(2) 0.7720(3)
C38 C 1.1141(2) 0.2632(2) 0.8225(2)
C39 C 1.1727(2) 0.2248(2) 0.8881(2)
C40 C 1.1637(2) 0.2512(2) 0.9979(2)
C41 C 1.0962(2) 0.3160(2) 1.0422(2)
C42 C 1.0376(2) 0.3545(2) 0.9766(2)
C43 C 1.0465(2) 0.3281(2) 0.8668(2)
H1 H 0.972160 0.248090 0.135290
H2 H 0.846060 0.302530 0.028280
H3 H 0.721020 0.239820 -0.022160
H4 H 0.722090 0.122680 0.034420
H5 H 0.848190 0.068240 0.141430
H6 H 0.915970 0.088290 0.400790
H7 H 0.890750 -0.028370 0.437790
H8 H 0.954630 -0.148990 0.311990
H9 H 1.043740 -0.152960 0.149180
H10 H 1.068960 -0.036300 0.112180
H11 H 1.069200 0.063470 0.005550
H12 H 1.222660 0.035860 -0.085870
H13 H 1.356410 0.059200 0.016600
H14 H 1.336710 0.110150 0.210490
H15 H 1.183250 0.137770 0.301910
H16 H 0.838100 0.313690 0.814750
H17 H 0.685540 0.360700 0.911570
H18 H 0.628310 0.495040 0.994920
H19 H 0.723640 0.582360 0.981460
H20 H 0.876200 0.535350 0.884650
H21 H 1.141900 0.426420 0.875450
H22 H 1.211950 0.528720 0.857860
H23 H 1.141890 0.616380 0.744540
H24 H 1.001780 0.601740 0.648800
H25 H 0.931730 0.499440 0.666390
H26 H 1.121030 0.242730 0.737500
H27 H 1.225020 0.174540 0.853860
H28 H 1.209130 0.221430 1.048700
H29 H 1.089230 0.336510 1.127180
H30 H 0.985230 0.404700 1.010820
P3 P 1.47337(9) 0.13294(7) 0.7331(1)
P4 P 1.47797(9) 0.39124(7) 1.2838(1)
O5 O 1.3350(2) 0.3137(2) 0.8902(3)
O6 O 1.5694(3) 0.1372(2) 0.9752(3)
O7 O 1.3659(3) 0.2513(3) 1.1687(3)
O8 O 1.5607(3) 0.3485(2) 1.0113(3)
C44 C 1.4547(3) 0.2635(3) 1.0124(4)
C45 C 1.3999(3) 0.2660(3) 0.9109(4)
C46 C 1.4564(3) 0.1941(3) 0.8569(4)
C47 C 1.5076(4) 0.1854(3) 0.9508(4)
C48 C 1.4149(4) 0.2792(3) 1.1272(4)
C49 C 1.4643(3) 0.3367(3) 1.1614(4)
C50 C 1.5070(3) 0.3243(3) 1.0552(4)
C51 C 1.4497(2) 0.1487(2) 0.5267(3)
C52 C 1.4001(2) 0.1758(2) 0.4452(3)
C53 C 1.3144(2) 0.2276(2) 0.4683(3)
C54 C 1.2784(2) 0.2523(2) 0.5728(3)
C55 C 1.3280(2) 0.2252(2) 0.6542(3)
C56 C 1.4137(2) 0.1734(2) 0.6312(3)
C57 C 1.4755(2) 0.0103(2) 0.8158(3)
C58 C 1.4486(2) -0.0535(2) 0.8253(3)
C59 C 1.3838(2) -0.0778(2) 0.7583(3)
C60 C 1.3460(2) -0.0383(2) 0.6819(3)
C61 C 1.3729(2) 0.0255(2) 0.6723(3)
C62 C 1.4376(2) 0.0498(2) 0.7393(3)
C63 C 1.6360(3) 0.0335(2) 0.6407(3)
C64 C 1.7297(3) 0.0140(2) 0.6104(3)
C65 C 1.7816(3) 0.0662(2) 0.6382(3)
C66 C 1.7398(3) 0.1379(2) 0.6963(3)
C67 C 1.6461(3) 0.1574(2) 0.7265(3)
C68 C 1.5942(3) 0.1052(2) 0.6987(3)
C69 C 1.3081(3) 0.3975(2) 1.3689(3)
C70 C 1.2234(3) 0.4331(2) 1.4235(3)
C71 C 1.1993(3) 0.5105(2) 1.4607(3)
C72 C 1.2601(3) 0.5522(2) 1.4432(3)
C73 C 1.3448(3) 0.5166(2) 1.3885(3)
C74 C 1.3689(3) 0.4392(2) 1.3514(3)
C75 C 1.6077(2) 0.4745(2) 1.3284(3)
C76 C 1.6451(2) 0.5336(2) 1.3201(3)
C77 C 1.6098(2) 0.5790(2) 1.2495(3)
C78 C 1.5370(2) 0.5653(2) 1.1871(3)
C79 C 1.4996(2) 0.5063(2) 1.1954(3)
C80 C 1.5349(2) 0.4609(2) 1.2660(3)
C81 C 1.5244(2) 0.3412(2) 1.4707(3)
C82 C 1.5842(2) 0.2991(2) 1.5313(3)
C83 C 1.6669(2) 0.2503(2) 1.4852(3)
C84 C 1.6899(2) 0.2437(2) 1.3784(3)
C85 C 1.6301(2) 0.2858(2) 1.3177(3)
C86 C 1.5474(2) 0.3345(2) 1.3639(3)
H31 H 1.516070 0.108800 0.508940
H32 H 1.428050 0.156720 0.364320
H33 H 1.275980 0.248460 0.405100
H34 H 1.211930 0.292260 0.590490
H35 H 1.299940 0.244330 0.735100
H36 H 1.525730 0.029110 0.867560
H37 H 1.477990 -0.084000 0.884540
H38 H 1.363040 -0.127080 0.765810
H39 H 1.295820 -0.057050 0.630110
H40 H 1.343560 0.056060 0.613130
H41 H 1.595740 -0.006880 0.618970
H42 H 1.761980 -0.041520 0.565360
H43 H 1.854130 0.051040 0.614760
H44 H 1.780050 0.178230 0.717790
H45 H 1.613800 0.212870 0.771400
H46 H 1.326640 0.337660 1.340190
H47 H 1.176230 0.400930 1.437070
H48 H 1.133720 0.538150 1.502950
H49 H 1.241610 0.612090 1.471930
H50 H 1.392010 0.548820 1.375050
H51 H 1.635040 0.439350 1.382950
H52 H 1.701470 0.544130 1.368350
H53 H 1.638790 0.624730 1.243100
H54 H 1.509670 0.600540 1.132450
H55 H 1.443240 0.495750 1.147060
H56 H 1.460300 0.378880 1.506480
H57 H 1.566410 0.304140 1.614030
H58 H 1.713210 0.217690 1.532080
H59 H 1.753910 0.205990 1.342570
H60 H 1.647800 0.280730 1.235020
loop_
_geom_bond_atom_site_label_1
_geom_bond_atom_site_label_2
_geom_bond_site_symmetry_1
_geom_bond_site_symmetry_2
P1 C3 1_555 1_555
P2 C6 1_555 1_555
O1 C2 1_555 1_555
O2 C4 1_555 1_555
O3 C5 1_555 1_555
O4 C7 1_555 1_555
C1 C2 1_555 1_555
C2 C3 1_555 1_555
C3 C4 1_555 1_555
C4 C1 1_555 1_555
C5 C1 1_555 1_555
C6 C5 1_555 1_555
C7 C1 1_555 1_555
C8 C9 1_555 1_555
C9 C10 1_555 1_555
C10 C11 1_555 1_555
C11 C12 1_555 1_555
C12 C13 1_555 1_555
C13 P1 1_555 1_555
C14 C15 1_555 1_555
C15 C16 1_555 1_555
C16 C17 1_555 1_555
C17 C18 1_555 1_555
C18 C19 1_555 1_555
C19 P1 1_555 1_555
C20 C21 1_555 1_555
C21 C22 1_555 1_555
C22 C23 1_555 1_555
C23 C24 1_555 1_555
C24 C25 1_555 1_555
C25 P1 1_555 1_555
C26 C27 1_555 1_555
C27 C28 1_555 1_555
C28 C29 1_555 1_555
C29 C30 1_555 1_555
C30 C31 1_555 1_555
C31 P2 1_555 1_555
C32 C33 1_555 1_555
C33 C34 1_555 1_555
C34 C35 1_555 1_555
C35 C36 1_555 1_555
C36 C37 1_555 1_555
C37 P2 1_555 1_555
C38 C39 1_555 1_555
C39 C40 1_555 1_555
C40 C41 1_555 1_555
C41 C42 1_555 1_555
C42 C43 1_555 1_555
C43 P2 1_555 1_555
P3 C46 1_555 1_555
P4 C49 1_555 1_555
O5 C45 1_555 1_555
O6 C47 1_555 1_555
O7 C48 1_555 1_555
O8 C50 1_555 1_555
C44 C45 1_555 1_555
C45 C46 1_555 1_555
C46 C47 1_555 1_555
C47 C44 1_555 1_555
C48 C44 1_555 1_555
C49 C48 1_555 1_555
C50 C44 1_555 1_555
C51 C52 1_555 1_555
C52 C53 1_555 1_555
C53 C54 1_555 1_555
C54 C55 1_555 1_555
C55 C56 1_555 1_555
C56 P3 1_555 1_555
C57 C58 1_555 1_555
C58 C59 1_555 1_555
C59 C60 1_555 1_555
C60 C61 1_555 1_555
C61 C62 1_555 1_555
C62 P3 1_555 1_555
C63 C64 1_555 1_555
C64 C65 1_555 1_555
C65 C66 1_555 1_555
C66 C67 1_555 1_555
C67 C68 1_555 1_555
C68 P3 1_555 1_555
C69 C70 1_555 1_555
C70 C71 1_555 1_555
C71 C72 1_555 1_555
C72 C73 1_555 1_555
C73 C74 1_555 1_555
C74 P4 1_555 1_555
C75 C76 1_555 1_555
C76 C77 1_555 1_555
C77 C78 1_555 1_555
C78 C79 1_555 1_555
C79 C80 1_555 1_555
C80 P4 1_555 1_555
C81 C82 1_555 1_555
C82 C83 1_555 1_555
C83 C84 1_555 1_555
C84 C85 1_555 1_555
C85 C86 1_555 1_555
C86 P4 1_555 1_555
H1 C8 1_555 1_555
H2 C9 1_555 1_555
H3 C10 1_555 1_555
H4 C11 1_555 1_555
H5 C12 1_555 1_555
H6 C14 1_555 1_555
H7 C15 1_555 1_555
H8 C16 1_555 1_555
H9 C17 1_555 1_555
H10 C18 1_555 1_555
H11 C20 1_555 1_555
H12 C21 1_555 1_555
H13 C22 1_555 1_555
H14 C23 1_555 1_555
H15 C24 1_555 1_555
H16 C26 1_555 1_555
H17 C27 1_555 1_555
H18 C28 1_555 1_555
H19 C29 1_555 1_555
H20 C30 1_555 1_555
H21 C32 1_555 1_555
H22 C33 1_555 1_555
H23 C34 1_555 1_555
H24 C35 1_555 1_555
H25 C36 1_555 1_555
H26 C38 1_555 1_555
H27 C39 1_555 1_555
H28 C40 1_555 1_555
H29 C41 1_555 1_555
H30 C42 1_555 1_555
H31 C51 1_555 1_555
H32 C52 1_555 1_555
H33 C53 1_555 1_555
H34 C54 1_555 1_555
H35 C55 1_555 1_555
H36 C57 1_555 1_555
H37 C58 1_555 1_555
H38 C59 1_555 1_555
H39 C60 1_555 1_555
H40 C61 1_555 1_555
H41 C63 1_555 1_555
H42 C64 1_555 1_555
H43 C65 1_555 1_555
H44 C66 1_555 1_555
H45 C67 1_555 1_555
H46 C69 1_555 1_555
H47 C70 1_555 1_555
H48 C71 1_555 1_555
H49 C72 1_555 1_555
H50 C73 1_555 1_555
H51 C75 1_555 1_555
H52 C76 1_555 1_555
H53 C77 1_555 1_555
H54 C78 1_555 1_555
H55 C79 1_555 1_555
H56 C81 1_555 1_555
H57 C82 1_555 1_555
H58 C83 1_555 1_555
H59 C84 1_555 1_555
H60 C85 1_555 1_555
C6 C7 1_555 1_555
C8 C13 1_555 1_555
C14 C19 1_555 1_555
C20 C25 1_555 1_555
C26 C31 1_555 1_555
C32 C37 1_555 1_555
C38 C43 1_555 1_555
C49 C50 1_555 1_555
C51 C56 1_555 1_555
C57 C62 1_555 1_555
C63 C68 1_555 1_555
C69 C74 1_555 1_555
C75 C80 1_555 1_555
C81 C86 1_555 1_555

#END
