
#######################################################################
#
#                 Cambridge Crystallographic Data Centre
#                                CCDC 
#
#######################################################################
#
# If this CIF has been generated from an entry in the Cambridge 
# Structural Database, then it will include bibliographic, chemical, 
# crystal, experimental, refinement or atomic coordinate data resulting 
# from the CCDC's data processing and validation procedures.
#
#######################################################################

data_ZOHTOH
_chemical_formula_moiety         'C6 H5 Cl2 N1,C6 H3 Cl3 O1'
_chemical_name_systematic        '3,4,5-trichlorophenol 2,5-dichloroaniline'
_symmetry_cell_setting           monoclinic
_symmetry_space_group_name_H-M   'P 21'
_symmetry_Int_Tables_number      4
_space_group_name_Hall           'P 2yb'
loop_
_symmetry_equiv_pos_site_id
_symmetry_equiv_pos_as_xyz
1 x,y,z
2 -x,1/2+y,-z
_cell_length_a                   7.0572(6)
_cell_length_b                   15.4665(13)
_cell_length_c                   13.2112(11)
_cell_angle_alpha                90
_cell_angle_beta                 98.980(7)
_cell_angle_gamma                90
_cell_volume                     1424.33
_cell_formula_units_Z            4
loop_
_atom_site_label
_atom_site_type_symbol
_atom_site_fract_x
_atom_site_fract_y
_atom_site_fract_z
H1 H -0.790(4) 0.6482(18) 0.077(2)
H2 H -0.902(4) 0.6730(17) 0.1488(18)
Cl1 Cl -0.14020(7) 0.53302(3) 0.23536(4)
Cl2 Cl -0.86753(8) 0.71523(3) 0.34275(4)
N1 N -0.7986(3) 0.67400(13) 0.13019(15)
C1 C -0.3543(3) 0.60266(14) 0.36698(16)
H3 H -0.2536 0.5887 0.4185
C2 C -0.6643(3) 0.66388(13) 0.31244(15)
C3 C -0.6541(3) 0.64636(12) 0.20982(15)
C4 C -0.5176(3) 0.64228(14) 0.38990(16)
H4 H -0.5286 0.6544 0.4577
C5 C -0.3441(3) 0.58429(13) 0.26604(16)
C6 C -0.4908(3) 0.60528(13) 0.18724(15)
H5 H -0.4799 0.5919 0.1198
H6 H 0.845(3) 0.3095(16) 0.1180(19)
H7 H 0.944(4) 0.285(2) 0.214(2)
Cl3 Cl 0.17446(8) 0.42597(4) 0.11905(5)
Cl4 Cl 0.89857(11) 0.29635(5) 0.40595(5)
N2 N 0.8364(3) 0.28576(13) 0.17706(15)
C7 C 0.5224(3) 0.35229(13) 0.15740(16)
H8 H 0.5133 0.3491 0.0865
C8 C 0.3773(4) 0.39078(16) 0.30534(19)
H9 H 0.2741 0.4130 0.3330
C9 C 0.6911(4) 0.32839(15) 0.32645(17)
C10 C 0.6861(3) 0.32261(13) 0.22005(16)
C11 C 0.3728(3) 0.38670(14) 0.20101(17)
C12 C 0.5382(4) 0.36114(16) 0.36756(18)
H10 H 0.5441 0.3632 0.4383
H11 H 0.209(4) -0.197(2) 0.077(2)
Cl5 Cl 0.23666(8) 0.16589(3) 0.04147(4)
Cl6 Cl 0.29897(8) -0.01657(4) 0.39458(4)
Cl7 Cl 0.29478(8) 0.16329(3) 0.28225(4)
O1 O 0.2104(2) -0.15902(11) 0.04406(12)
C13 C 0.2676(3) 0.06808(13) 0.21328(15)
C14 C 0.2514(3) -0.08872(13) 0.20845(15)
H12 H 0.2544 -0.1413 0.2428
C15 C 0.2245(3) -0.00767(13) 0.05134(15)
H13 H 0.2096 -0.0060 -0.0198
C16 C 0.2433(3) 0.06827(13) 0.10715(15)
C17 C 0.2702(3) -0.01175(13) 0.26251(13)
C18 C 0.2279(3) -0.08614(13) 0.10172(15)
H14 H 0.797(4) 0.161(2) 0.131(2)
Cl8 Cl 0.69544(9) -0.19777(4) 0.15903(5)
Cl9 Cl 0.82810(8) 0.02746(4) 0.47583(4)
Cl10 Cl 0.73955(8) -0.16320(4) 0.39542(4)
O2 O 0.7657(3) 0.12012(12) 0.10219(13)
C19 C 0.7362(3) -0.02742(14) 0.13807(16)
H15 H 0.7189 -0.0388 0.0681
C20 C 0.7576(3) -0.07927(13) 0.31157(16)
C21 C 0.7895(3) 0.00541(13) 0.34575(14)
C22 C 0.7654(3) 0.05717(14) 0.17340(16)
C23 C 0.7946(3) 0.07324(13) 0.27838(16)
H16 H 0.8173 0.1293 0.3029
C24 C 0.7331(3) -0.09350(13) 0.20637(16)
loop_
_geom_bond_atom_site_label_1
_geom_bond_atom_site_label_2
_geom_bond_site_symmetry_1
_geom_bond_site_symmetry_2
H1 N1 1_555 1_555
H2 N1 1_555 1_555
Cl1 C5 1_555 1_555
Cl2 C2 1_555 1_555
N1 C3 1_555 1_555
C1 H3 1_555 1_555
C2 C3 1_555 1_555
C3 C6 1_555 1_555
C4 C1 1_555 1_555
H4 C4 1_555 1_555
C5 C1 1_555 1_555
C6 C5 1_555 1_555
H5 C6 1_555 1_555
H6 N2 1_555 1_555
H7 N2 1_555 1_555
Cl3 C11 1_555 1_555
Cl4 C9 1_555 1_555
N2 C10 1_555 1_555
C7 H8 1_555 1_555
C8 H9 1_555 1_555
C9 C10 1_555 1_555
C10 C7 1_555 1_555
C11 C7 1_555 1_555
C12 C8 1_555 1_555
H10 C12 1_555 1_555
H11 O1 1_555 1_555
Cl5 C16 1_555 1_555
Cl6 C17 1_555 1_555
Cl7 C13 1_555 1_555
O1 C18 1_555 1_555
C13 C16 1_555 1_555
C14 H12 1_555 1_555
C15 H13 1_555 1_555
C16 C15 1_555 1_555
C17 C13 1_555 1_555
C18 C14 1_555 1_555
H14 O2 1_555 1_555
Cl8 C24 1_555 1_555
Cl9 C21 1_555 1_555
Cl10 C20 1_555 1_555
O2 C22 1_555 1_555
C19 H15 1_555 1_555
C20 C21 1_555 1_555
C21 C23 1_555 1_555
C22 C19 1_555 1_555
C23 C22 1_555 1_555
H16 C23 1_555 1_555
C24 C19 1_555 1_555
C2 C4 1_555 1_555
C8 C11 1_555 1_555
C9 C12 1_555 1_555
C14 C17 1_555 1_555
C15 C18 1_555 1_555
C20 C24 1_555 1_555

#END
