
#######################################################################
#
#                 Cambridge Crystallographic Data Centre
#                                CCDC 
#
#######################################################################
#
# If this CIF has been generated from an entry in the Cambridge 
# Structural Database, then it will include bibliographic, chemical, 
# crystal, experimental, refinement or atomic coordinate data resulting 
# from the CCDC's data processing and validation procedures.
#
#######################################################################

data_ZOHTEX
_chemical_formula_moiety         'C6 H6 Cl1 N1,C6 H3 Cl3 O1'
_chemical_name_systematic        '3,4,5-trichlorophenol 4-chloroaniline'
_symmetry_cell_setting           triclinic
_symmetry_space_group_name_H-M   'P -1'
_symmetry_Int_Tables_number      2
_space_group_name_Hall           '-P 1'
loop_
_symmetry_equiv_pos_site_id
_symmetry_equiv_pos_as_xyz
1 x,y,z
2 -x,-y,-z
_cell_length_a                   7.0243(14)
_cell_length_b                   9.4152(18)
_cell_length_c                   10.928(2)
_cell_angle_alpha                82.750(6)
_cell_angle_beta                 79.147(6)
_cell_angle_gamma                76.703(5)
_cell_volume                     688.167
_cell_formula_units_Z            2
loop_
_atom_site_label
_atom_site_type_symbol
_atom_site_fract_x
_atom_site_fract_y
_atom_site_fract_z
H1 H -0.002(4) 1.327(3) 0.538(2)
Cl1 Cl 0.46442(7) 0.68283(5) 0.49717(5)
Cl2 Cl 0.25550(8) 0.83391(5) 0.74496(5)
Cl3 Cl 0.44791(8) 0.87407(6) 0.23894(5)
O1 O 0.05506(19) 1.30340(13) 0.47157(12)
C1 C 0.1557(2) 1.07825(18) 0.59699(16)
H2 H 0.0964 1.1209 0.6709
C2 C 0.3358(2) 0.95040(19) 0.37796(17)
C3 C 0.2394(2) 1.09626(19) 0.37203(16)
H3 H 0.2356 1.1509 0.2951
C4 C 0.3440(2) 0.86558(18) 0.49145(18)
C5 C 0.1482(2) 1.16040(17) 0.48193(16)
C6 C 0.2526(3) 0.93224(19) 0.59986(17)
H4 H -0.248(3) 1.390(2) 0.718(2)
H5 H -0.172(3) 1.507(2) 0.6634(19)
Cl4 Cl 0.39502(8) 1.30305(6) 1.06286(5)
N1 N -0.1507(3) 1.4197(2) 0.69092(16)
C7 C 0.2280(3) 1.3406(2) 0.95682(16)
C8 C 0.1121(3) 1.47989(19) 0.77659(17)
H6 H 0.1212 1.5543 0.7125
C9 C -0.0291(3) 1.39656(19) 0.78544(16)
C10 C -0.0410(3) 1.2849(2) 0.88099(17)
H7 H -0.1363 1.2290 0.8875
C11 C 0.2404(3) 1.4527(2) 0.86321(17)
H8 H 0.3341 1.5097 0.8582
C12 C 0.0889(3) 1.2565(2) 0.96680(17)
H9 H 0.0818 1.1814 1.0304
loop_
_geom_bond_atom_site_label_1
_geom_bond_atom_site_label_2
_geom_bond_site_symmetry_1
_geom_bond_site_symmetry_2
H1 O1 1_555 1_555
Cl1 C4 1_555 1_555
Cl2 C6 1_555 1_555
Cl3 C2 1_555 1_555
O1 C5 1_555 1_555
C1 H2 1_555 1_555
C2 C3 1_555 1_555
C3 H3 1_555 1_555
C4 C2 1_555 1_555
C5 C1 1_555 1_555
C6 C1 1_555 1_555
H4 N1 1_555 1_555
H5 N1 1_555 1_555
Cl4 C7 1_555 1_555
N1 C9 1_555 1_555
C7 C11 1_555 1_555
C8 H6 1_555 1_555
C9 C8 1_555 1_555
C10 C9 1_555 1_555
H7 C10 1_555 1_555
C11 C8 1_555 1_555
H8 C11 1_555 1_555
C12 C7 1_555 1_555
H9 C12 1_555 1_555
C3 C5 1_555 1_555
C4 C6 1_555 1_555
C10 C12 1_555 1_555

#END
