
#######################################################################
#
#                 Cambridge Crystallographic Data Centre
#                                CCDC 
#
#######################################################################
#
# If this CIF has been generated from an entry in the Cambridge 
# Structural Database, then it will include bibliographic, chemical, 
# crystal, experimental, refinement or atomic coordinate data resulting 
# from the CCDC's data processing and validation procedures.
#
#######################################################################

data_ZOHVID
_chemical_formula_moiety         'C6 H6 I1 N1,C6 H3 Cl3 O1'
_chemical_name_systematic        '3,4,5-trichlorophenol 4-iodoaniline'
_symmetry_cell_setting           triclinic
_symmetry_space_group_name_H-M   'P -1'
_symmetry_Int_Tables_number      2
_space_group_name_Hall           '-P 1'
loop_
_symmetry_equiv_pos_site_id
_symmetry_equiv_pos_as_xyz
1 x,y,z
2 -x,-y,-z
_cell_length_a                   7.083(3)
_cell_length_b                   9.354(4)
_cell_length_c                   11.456(5)
_cell_angle_alpha                84.118(7)
_cell_angle_beta                 79.555(7)
_cell_angle_gamma                76.553(7)
_cell_volume                     724.525
_cell_formula_units_Z            2
loop_
_atom_site_label
_atom_site_type_symbol
_atom_site_fract_x
_atom_site_fract_y
_atom_site_fract_z
C1 C 0.6466(4) 1.1554(3) -0.0111(3)
C2 C 0.7447(4) 1.0845(3) -0.1130(3)
H1 H 0.7456 1.1348 -0.1874
C3 C 0.8410(4) 0.9382(3) -0.1022(3)
C4 C 0.8409(4) 0.8593(3) 0.0074(3)
C5 C 0.7416(4) 0.9327(3) 0.1072(3)
C6 C 0.6457(4) 1.0797(3) 0.0998(3)
H2 H 0.5815 1.1270 0.1682
Cl1 Cl 0.96210(13) 0.85307(10) -0.23056(8)
Cl2 Cl 0.95991(12) 0.67672(8) 0.01919(9)
Cl3 Cl 0.73172(14) 0.84277(9) 0.24748(8)
O1 O 0.5534(3) 1.2988(2) -0.02595(19)
H3 H 0.4884 1.3268 0.0376
C7 C 0.4596(4) 0.4029(3) 0.2715(3)
C8 C 0.6048(5) 0.4814(3) 0.2703(3)
H4 H 0.6193 0.5570 0.2122
C9 C 0.7271(5) 0.4474(4) 0.3549(3)
H5 H 0.8243 0.4998 0.3535
C10 C 0.7055(5) 0.3358(4) 0.4417(3)
C11 C 0.5604(5) 0.2571(4) 0.4449(3)
H6 H 0.5466 0.1814 0.5029
C12 C 0.4364(5) 0.2931(4) 0.3605(3)
H7 H 0.3364 0.2429 0.3637
I1 I 0.90135(3) 0.27572(3) 0.564201(19)
N1 N 0.3459(4) 0.4307(3) 0.1790(3)
H8 H 0.328(6) 0.515(5) 0.147(3)
H9 H 0.243(6) 0.401(4) 0.195(3)
loop_
_geom_bond_atom_site_label_1
_geom_bond_atom_site_label_2
_geom_bond_site_symmetry_1
_geom_bond_site_symmetry_2
C1 C2 1_555 1_555
C2 H1 1_555 1_555
C3 C2 1_555 1_555
C4 C3 1_555 1_555
C5 C4 1_555 1_555
C6 C1 1_555 1_555
H2 C6 1_555 1_555
Cl1 C3 1_555 1_555
Cl2 C4 1_555 1_555
Cl3 C5 1_555 1_555
O1 C1 1_555 1_555
H3 O1 1_555 1_555
C7 C8 1_555 1_555
C8 H4 1_555 1_555
C9 C8 1_555 1_555
H5 C9 1_555 1_555
C10 C9 1_555 1_555
C11 C10 1_555 1_555
H6 C11 1_555 1_555
C12 C7 1_555 1_555
H7 C12 1_555 1_555
I1 C10 1_555 1_555
N1 C7 1_555 1_555
H8 N1 1_555 1_555
H9 N1 1_555 1_555
C5 C6 1_555 1_555
C11 C12 1_555 1_555

#END
