
#######################################################################
#
#                 Cambridge Crystallographic Data Centre
#                                CCDC 
#
#######################################################################
#
# If this CIF has been generated from an entry in the Cambridge 
# Structural Database, then it will include bibliographic, chemical, 
# crystal, experimental, refinement or atomic coordinate data resulting 
# from the CCDC's data processing and validation procedures.
#
#######################################################################

data_ZOHVUP
_chemical_formula_moiety         'C6 H6 Cl1 N1,C6 H3 Cl3 O1'
_chemical_name_systematic        '2,3,4-trichlorophenol 4-chloroaniline'
_symmetry_cell_setting           monoclinic
_symmetry_space_group_name_H-M   'P 21/c'
_symmetry_Int_Tables_number      14
_space_group_name_Hall           '-P 2ybc'
loop_
_symmetry_equiv_pos_site_id
_symmetry_equiv_pos_as_xyz
1 x,y,z
2 -x,1/2+y,1/2-z
3 -x,-y,-z
4 x,1/2-y,1/2+z
_cell_length_a                   7.851(5)
_cell_length_b                   11.865(7)
_cell_length_c                   14.891(8)
_cell_angle_alpha                90
_cell_angle_beta                 106.79(3)
_cell_angle_gamma                90
_cell_volume                     1327.99
_cell_formula_units_Z            4
loop_
_atom_site_label
_atom_site_type_symbol
_atom_site_fract_x
_atom_site_fract_y
_atom_site_fract_z
Cl1 Cl 0.80413(7) -0.33847(4) 0.02255(3)
Cl2 Cl 0.49563(7) -0.47342(4) -0.33598(3)
Cl3 Cl 0.59367(7) -0.52098(4) -0.11800(3)
O1 O 0.87627(19) -0.13477(12) -0.06494(10)
H1 H 0.9250 -0.0825 -0.0778
C1 C 0.7878(2) -0.21061(16) -0.12872(13)
C2 C 0.7412(3) -0.19133(16) -0.22498(13)
H2 H 0.7707 -0.1231 -0.2474
C3 C 0.6517(2) -0.27218(17) -0.28749(13)
H3 H 0.6228 -0.2585 -0.3516
C4 C 0.6050(2) -0.37335(16) -0.25525(13)
C5 C 0.6479(2) -0.39438(15) -0.15920(13)
C6 C 0.7396(2) -0.31274(16) -0.09657(13)
Cl4 Cl 0.34428(7) -0.20566(5) -0.03592(4)
N1 N -0.0477(2) -0.46511(15) -0.37280(12)
H4 H -0.1364 -0.4961 -0.3727
H5 H -0.0826 -0.4275 -0.4273
C7 C 0.0448(2) -0.40235(17) -0.29246(13)
C8 C 0.0453(3) -0.43822(17) -0.20308(14)
H6 H -0.0173 -0.5027 -0.1964
C9 C 0.1383(3) -0.37849(18) -0.12416(13)
H7 H 0.1380 -0.4023 -0.0647
C10 C 0.2316(3) -0.28310(17) -0.13490(13)
C11 C 0.2369(3) -0.24761(18) -0.22285(14)
H8 H 0.3024 -0.1843 -0.2290
C12 C 0.1430(3) -0.30787(17) -0.30155(14)
H9 H 0.1459 -0.2848 -0.3608
loop_
_geom_bond_atom_site_label_1
_geom_bond_atom_site_label_2
_geom_bond_site_symmetry_1
_geom_bond_site_symmetry_2
Cl1 C6 1_555 1_555
Cl2 C4 1_555 1_555
Cl3 C5 1_555 1_555
O1 H1 1_555 1_555
C1 O1 1_555 1_555
C2 C1 1_555 1_555
H2 C2 1_555 1_555
C3 C2 1_555 1_555
H3 C3 1_555 1_555
C4 C3 1_555 1_555
C5 C4 1_555 1_555
C6 C1 1_555 1_555
Cl4 C10 1_555 1_555
N1 H4 1_555 1_555
H5 N1 1_555 1_555
C7 N1 1_555 1_555
C8 C7 1_555 1_555
H6 C8 1_555 1_555
C9 C8 1_555 1_555
H7 C9 1_555 1_555
C10 C9 1_555 1_555
C11 C10 1_555 1_555
H8 C11 1_555 1_555
C12 C7 1_555 1_555
H9 C12 1_555 1_555
C5 C6 1_555 1_555
C11 C12 1_555 1_555

#END
