
#######################################################################
#
#                 Cambridge Crystallographic Data Centre
#                                CCDC 
#
#######################################################################
#
# If this CIF has been generated from an entry in the Cambridge 
# Structural Database, then it will include bibliographic, chemical, 
# crystal, experimental, refinement or atomic coordinate data resulting 
# from the CCDC's data processing and validation procedures.
#
#######################################################################

data_ZOHVOJ
_chemical_formula_moiety         'C6 H4 Cl2 I1 N1,C6 H3 Cl3 O1'
_chemical_name_systematic        
'3,4,5-trichlorophenol 2-chloro-7\l^3^-chlora-8\l^3^-iodabicyclo[4.2.0]octa-1,3,5-trien-4-amine'
_symmetry_cell_setting           triclinic
_symmetry_space_group_name_H-M   'P -1'
_symmetry_Int_Tables_number      2
_space_group_name_Hall           '-P 1'
loop_
_symmetry_equiv_pos_site_id
_symmetry_equiv_pos_as_xyz
1 x,y,z
2 -x,-y,-z
_cell_length_a                   7.107(2)
_cell_length_b                   9.498(3)
_cell_length_c                   11.827(3)
_cell_angle_alpha                85.425(6)
_cell_angle_beta                 81.804(6)
_cell_angle_gamma                71.851(5)
_cell_volume                     750.352
_cell_formula_units_Z            2
loop_
_atom_site_label
_atom_site_type_symbol
_atom_site_fract_x
_atom_site_fract_y
_atom_site_fract_z
C1 C 0.0478(9) 0.7585(7) 0.4339(4)
C2 C 0.1956(9) 0.8232(6) 0.4415(4)
C3 C -0.0516(6) 0.9123(5) 0.2678(4)
C4 C -0.0739(8) 0.8023(6) 0.3494(4)
H1 H -0.1729 0.7582 0.3464
C5 C 0.2145(7) 0.9344(6) 0.3621(4)
C6 C 0.0938(7) 0.9789(5) 0.2751(4)
H2 H 0.1105 1.0531 0.2221
Cl1 Cl 0.0426(4) 0.6367(3) 0.5358(2)
H3 H -0.177(9) 1.042(8) 0.141(6)
H4 H -0.264(10) 0.942(8) 0.186(6)
Cl2 Cl 0.3820(3) 1.0050(2) 0.37402(17)
N1 N -0.1658(7) 0.9488(5) 0.1758(3)
I1 I 0.3726(2) 0.72527(18) 0.56697(5)
C7 C -0.3545(6) 1.6353(4) 0.0128(5)
C8 C -0.1354(5) 1.3366(4) 0.0168(3)
C9 C -0.2313(6) 1.4048(4) 0.1180(4)
H5 H -0.2224 1.3513 0.1875
C10 C -0.3398(6) 1.5529(5) 0.1137(4)
C11 C -0.1475(6) 1.4163(4) -0.0864(4)
H6 H -0.0832 1.3709 -0.1541
C12 C -0.2574(6) 1.5655(5) -0.0868(4)
Cl3 Cl -0.49031(19) 1.82135(12) 0.01099(16)
Cl4 Cl -0.2662(2) 1.66233(15) -0.21655(13)
Cl5 Cl -0.4604(2) 1.63364(15) 0.24184(13)
O1 O -0.0298(4) 1.1907(3) 0.0256(2)
H7 H 0.0197 1.1603 -0.0382
I2? I 0.42335(19) 0.7807(3) 0.55954(8)
loop_
_geom_bond_atom_site_label_1
_geom_bond_atom_site_label_2
_geom_bond_site_symmetry_1
_geom_bond_site_symmetry_2
C1 C2 1_555 1_555
C2 C5 1_555 1_555
C3 C4 1_555 1_555
C4 C1 1_555 1_555
H1 C4 1_555 1_555
C5 C6 1_555 1_555
C6 C3 1_555 1_555
H2 C6 1_555 1_555
Cl1 C1 1_555 1_555
H3 N1 1_555 1_555
H4 N1 1_555 1_555
Cl2 C5 1_555 1_555
N1 C3 1_555 1_555
I1 C2 1_555 1_555
C7 C10 1_555 1_555
C8 C9 1_555 1_555
C9 H5 1_555 1_555
C10 C9 1_555 1_555
C11 C8 1_555 1_555
H6 C11 1_555 1_555
C12 C7 1_555 1_555
Cl3 C7 1_555 1_555
Cl4 C12 1_555 1_555
Cl5 C10 1_555 1_555
O1 C8 1_555 1_555
H7 O1 1_555 1_555
Cl1 I1 1_555 1_555
C11 C12 1_555 1_555

#END
