
#######################################################################
#
#                 Cambridge Crystallographic Data Centre
#                                CCDC 
#
#######################################################################
#
# If this CIF has been generated from an entry in the Cambridge 
# Structural Database, then it will include bibliographic, chemical, 
# crystal, experimental, refinement or atomic coordinate data resulting 
# from the CCDC's data processing and validation procedures.
#
#######################################################################

data_ZOHVEX
_chemical_formula_moiety         'C17 H22 O6 S2'
_chemical_name_systematic        
'Methyl 2-(6-phenylsulfanyl-4-methyl-2,2-dioxo-3,7-dioxa-2-thiabicyclo(4.3.0)non-8-yl)propanoate'
_symmetry_cell_setting           monoclinic
_symmetry_space_group_name_H-M   'P 21/n'
_symmetry_Int_Tables_number      14
_space_group_name_Hall           '-P 2yn'
loop_
_symmetry_equiv_pos_site_id
_symmetry_equiv_pos_as_xyz
1 x,y,z
2 1/2-x,1/2+y,1/2-z
3 -x,-y,-z
4 1/2+x,1/2-y,1/2+z
_cell_length_a                   13.393(2)
_cell_length_b                   9.320(2)
_cell_length_c                   15.195(2)
_cell_angle_alpha                90
_cell_angle_beta                 100.75(1)
_cell_angle_gamma                90
_cell_volume                     1863.4
_exptl_crystal_colour            colorless
_cell_formula_units_Z            4
loop_
_atom_site_label
_atom_site_type_symbol
_atom_site_fract_x
_atom_site_fract_y
_atom_site_fract_z
C1 C 0.4320(2) 0.1649(3) 0.6027(2)
H1 H 0.4307(2) 0.0591(3) 0.6084(2)
C2 C 0.3700(2) 0.2354(3) 0.6672(2)
S1 S 0.38913(6) 0.11372(8) 0.76673(5)
C3 C 0.3181(2) 0.2016(3) 0.8389(2)
C4 C 0.2202(2) 0.1575(3) 0.8409(2)
H2 H 0.1898(2) 0.0852(3) 0.8018(2)
C5 C 0.1671(3) 0.2199(4) 0.9007(3)
H3 H 0.1010(3) 0.1882(4) 0.9032(3)
C6 C 0.2106(3) 0.3282(4) 0.9565(2)
H4 H 0.1738(3) 0.3714(4) 0.9964(2)
C7 C 0.3083(3) 0.3736(4) 0.9538(2)
H5 H 0.3379(3) 0.4476(4) 0.9920(2)
C8 C 0.3623(2) 0.3103(3) 0.8951(2)
H6 H 0.4288(2) 0.3409(3) 0.8934(2)
O1 O 0.41527(13) 0.3702(2) 0.68792(12)
C9 C 0.5197(2) 0.3718(3) 0.6747(2)
H7 H 0.5269(2) 0.4447(3) 0.6289(2)
C10 C 0.5918(2) 0.4093(3) 0.7624(2)
H8 H 0.5888(2) 0.3311(3) 0.8060(2)
C11 C 0.5583(2) 0.5471(4) 0.8008(2)
O2 O 0.5230(2) 0.5556(3) 0.8671(2)
O3 O 0.5734(2) 0.6608(3) 0.7517(2)
C12 C 0.5437(3) 0.7973(4) 0.7826(3)
H9 H 0.5630(20) 0.8730(5) 0.7453(12)
H10 H 0.5774(17) 0.8122(14) 0.8442(7)
H11 H 0.4706(4) 0.7990(12) 0.7791(18)
C13 C 0.7008(2) 0.4197(4) 0.7460(3)
H12 H 0.7032(5) 0.4864(24) 0.6974(13)
H13 H 0.7233(8) 0.3258(7) 0.7302(19)
H14 H 0.7450(4) 0.4535(29) 0.7999(7)
C14 C 0.5386(2) 0.2223(3) 0.6384(2)
H15 H 0.5782(2) 0.2288(3) 0.5905(2)
H16 H 0.5747(2) 0.1606(3) 0.6862(2)
C15 C 0.2567(2) 0.2565(3) 0.6327(2)
H17 H 0.2225(2) 0.1633(3) 0.6314(2)
H18 H 0.2291(2) 0.3185(3) 0.6745(2)
C16 C 0.2332(2) 0.3224(3) 0.5400(2)
H19 H 0.2674(2) 0.4165(3) 0.5397(2)
C17 C 0.1207(3) 0.3377(5) 0.5043(2)
H20 H 0.0918(5) 0.4055(24) 0.5410(12)
H21 H 0.0879(4) 0.2452(8) 0.5058(18)
H22 H 0.1102(3) 0.3723(29) 0.4430(7)
O4 O 0.27199(15) 0.2202(2) 0.47814(13)
S2 S 0.39027(5) 0.21719(8) 0.48811(5)
O5 O 0.4268(2) 0.3576(2) 0.47541(14)
O6 O 0.4116(2) 0.1035(3) 0.43136(14)
loop_
_geom_bond_atom_site_label_1
_geom_bond_atom_site_label_2
_geom_bond_site_symmetry_1
_geom_bond_site_symmetry_2
C1 H1 1_555 1_555
C2 C1 1_555 1_555
S1 C2 1_555 1_555
C3 S1 1_555 1_555
C4 C3 1_555 1_555
H2 C4 1_555 1_555
C5 C4 1_555 1_555
H3 C5 1_555 1_555
C6 C5 1_555 1_555
H4 C6 1_555 1_555
C7 C6 1_555 1_555
H5 C7 1_555 1_555
C8 C3 1_555 1_555
H6 C8 1_555 1_555
O1 C2 1_555 1_555
C9 O1 1_555 1_555
H7 C9 1_555 1_555
C10 C9 1_555 1_555
H8 C10 1_555 1_555
C11 C10 1_555 1_555
O2 C11 1_555 1_555
O3 C11 1_555 1_555
C12 O3 1_555 1_555
H9 C12 1_555 1_555
H10 C12 1_555 1_555
H11 C12 1_555 1_555
C13 C10 1_555 1_555
H12 C13 1_555 1_555
H13 C13 1_555 1_555
H14 C13 1_555 1_555
C14 C1 1_555 1_555
H15 C14 1_555 1_555
H16 C14 1_555 1_555
C15 C2 1_555 1_555
H17 C15 1_555 1_555
H18 C15 1_555 1_555
C16 C15 1_555 1_555
H19 C16 1_555 1_555
C17 C16 1_555 1_555
H20 C17 1_555 1_555
H21 C17 1_555 1_555
H22 C17 1_555 1_555
O4 C16 1_555 1_555
S2 C1 1_555 1_555
O5 S2 1_555 1_555
O6 S2 1_555 1_555
C7 C8 1_555 1_555
C9 C14 1_555 1_555
O4 S2 1_555 1_555

#END
