
#######################################################################
#
#                 Cambridge Crystallographic Data Centre
#                                CCDC 
#
#######################################################################
#
# If this CIF has been generated from an entry in the Cambridge 
# Structural Database, then it will include bibliographic, chemical, 
# crystal, experimental, refinement or atomic coordinate data resulting 
# from the CCDC's data processing and validation procedures.
#
#######################################################################

data_ZOHWOK
_chemical_formula_moiety         'C7 H8 N2 O1,C7 H6 O3'
_chemical_name_systematic        '4-hydroxybenzoic acid 3-aminobenzamide'
_symmetry_cell_setting           monoclinic
_symmetry_space_group_name_H-M   'C 2/c'
_symmetry_Int_Tables_number      15
_space_group_name_Hall           '-C 2yn'
loop_
_symmetry_equiv_pos_site_id
_symmetry_equiv_pos_as_xyz
1 x,y,z
2 -x,y,1/2-z
3 1/2+x,1/2+y,z
4 1/2-x,1/2+y,1/2-z
5 -x,-y,-z
6 x,-y,1/2+z
7 1/2-x,1/2-y,-z
8 1/2+x,1/2-y,1/2+z
_cell_length_a                   24.698(2)
_cell_length_b                   5.1072(5)
_cell_length_c                   20.6682(19)
_cell_angle_alpha                90
_cell_angle_beta                 99.673(12)
_cell_angle_gamma                90
_cell_volume                     2569.97
_cell_formula_units_Z            8
loop_
_atom_site_label
_atom_site_type_symbol
_atom_site_fract_x
_atom_site_fract_y
_atom_site_fract_z
C1 C 0.45088(5) 1.1446(3) 0.09912(6)
C2 C 0.39455(5) 1.1515(3) 0.10112(6)
H1 H 0.3722 1.2765 0.0772
C3 C 0.37234(5) 0.9699(3) 0.13922(6)
H2 H 0.3350 0.9750 0.1410
C4 C 0.40522(5) 0.7802(2) 0.17479(6)
C5 C 0.46132(5) 0.7741(3) 0.17188(6)
H3 H 0.4835 0.6465 0.1949
C6 C 0.48396(5) 0.9566(3) 0.13493(6)
H4 H 0.5215 0.9537 0.1340
C7 C 0.38037(5) 0.5890(2) 0.21521(6)
O1 O 0.47578(4) 1.3140(2) 0.06279(5)
O2 O 0.33057(4) 0.56511(19) 0.21281(5)
O3 O 0.41681(4) 0.44658(19) 0.25387(5)
H5 H 0.4517(8) 1.432(4) 0.0404(10)
H6 H 0.4005(8) 0.319(4) 0.2746(10)
C8 C 0.33328(5) 1.0227(2) 0.32768(6)
C9 C 0.32422(5) 0.8114(2) 0.37531(6)
C10 C 0.27339(5) 0.7660(3) 0.39413(6)
H7 H 0.2427 0.8633 0.3760
C11 C 0.26932(5) 0.5729(3) 0.44047(7)
H8 H 0.2356 0.5419 0.4535
C12 C 0.31450(6) 0.4261(3) 0.46758(7)
H9 H 0.3110 0.2981 0.4986
C13 C 0.36536(5) 0.4691(2) 0.44852(6)
C14 C 0.36963(5) 0.6627(2) 0.40213(6)
H10 H 0.4033 0.6928 0.3890
N1 N 0.41256(5) 0.3348(2) 0.47945(6)
N2 N 0.29025(4) 1.1577(2) 0.29704(6)
O4 O 0.38075(4) 1.06761(19) 0.31828(5)
H11 H 0.4074(8) 0.181(4) 0.5004(10)
H12 H 0.4406(8) 0.314(4) 0.4554(9)
H13 H 0.2566(7) 1.136(4) 0.3048(8)
H14 H 0.2970(7) 1.293(4) 0.2705(9)
loop_
_geom_bond_atom_site_label_1
_geom_bond_atom_site_label_2
_geom_bond_site_symmetry_1
_geom_bond_site_symmetry_2
C1 C2 1_555 1_555
C2 H1 1_555 1_555
C3 C2 1_555 1_555
H2 C3 1_555 1_555
C4 C3 1_555 1_555
C5 C4 1_555 1_555
H3 C5 1_555 1_555
C6 C1 1_555 1_555
H4 C6 1_555 1_555
C7 C4 1_555 1_555
O1 C1 1_555 1_555
O2 C7 1_555 1_555
O3 C7 1_555 1_555
H5 O1 1_555 1_555
H6 O3 1_555 1_555
C8 C9 1_555 1_555
C9 C10 1_555 1_555
C10 H7 1_555 1_555
C11 C10 1_555 1_555
H8 C11 1_555 1_555
C12 C11 1_555 1_555
H9 C12 1_555 1_555
C13 C12 1_555 1_555
C14 C9 1_555 1_555
H10 C14 1_555 1_555
N1 C13 1_555 1_555
N2 C8 1_555 1_555
O4 C8 1_555 1_555
H11 N1 1_555 1_555
H12 N1 1_555 1_555
H13 N2 1_555 1_555
H14 N2 1_555 1_555
C5 C6 1_555 1_555
C13 C14 1_555 1_555

#END
