
#######################################################################
#
#                 Cambridge Crystallographic Data Centre
#                                CCDC 
#
#######################################################################
#
# If this CIF has been generated from an entry in the Cambridge 
# Structural Database, then it will include bibliographic, chemical, 
# crystal, experimental, refinement or atomic coordinate data resulting 
# from the CCDC's data processing and validation procedures.
#
#######################################################################

data_ZOJLER
_chemical_formula_moiety         'C15 H8 F5 N1'
_chemical_name_systematic        6-(pentafluoroethyl)phenanthridine
_symmetry_cell_setting           triclinic
_symmetry_space_group_name_H-M   'P -1'
_symmetry_Int_Tables_number      2
_space_group_name_Hall           '-P 1'
loop_
_symmetry_equiv_pos_site_id
_symmetry_equiv_pos_as_xyz
1 x,y,z
2 -x,-y,-z
_cell_length_a                   7.6258(18)
_cell_length_b                   10.074(2)
_cell_length_c                   10.128(2)
_cell_angle_alpha                98.049(3)
_cell_angle_beta                 110.204(3)
_cell_angle_gamma                111.418(3)
_cell_volume                     647.45
_cell_formula_units_Z            2
loop_
_atom_site_label
_atom_site_type_symbol
_atom_site_fract_x
_atom_site_fract_y
_atom_site_fract_z
C1 C 0.3898(10) 0.6626(8) 0.4948(9)
F1 F 0.636(2) 0.682(2) 0.9618(10)
C2 C 0.4656(13) 0.7681(10) 0.4260(15)
H1 H 0.5599 0.8659 0.4847
F2 F 0.384(2) 0.7543(17) 0.9296(11)
C3 C 0.408(2) 0.7342(16) 0.2802(18)
H2 H 0.4603 0.8060 0.2375
F3 F 0.5488(17) 0.9536(7) 0.8100(19)
C4 C 0.271(2) 0.5907(17) 0.1976(13)
H3 H 0.2307 0.5663 0.0962
F4 F 0.7971(12) 0.8857(9) 0.8341(17)
C5 C 0.1841(13) 0.4760(11) 0.2535(8)
H4 H 0.063(13) 0.361(9) 0.215(9)
F5 F 0.7441(13) 0.9548(11) 1.0494(9)
C6 C 0.2481(9) 0.5153(7) 0.4108(7)
C7 C 0.1689(9) 0.4091(6) 0.4829(6)
C8 C 0.0246(11) 0.2577(7) 0.4066(9)
H5 H -0.0229 0.2210 0.3050
C9 C -0.0441(13) 0.1662(9) 0.4819(14)
H6 H -0.1401 0.0667 0.4308
C10 C 0.0251(17) 0.2171(15) 0.6344(17)
H7 H -0.0245 0.1526 0.6843
C11 C 0.1649(14) 0.3609(12) 0.7084(10)
H8 H 0.2142 0.3952 0.8104
C12 C 0.2372(10) 0.4600(8) 0.6329(7)
C13 C 0.3781(14) 0.6046(12) 0.7129(9)
N1 N 0.4538(12) 0.7050(10) 0.6464(11)
C14 C 0.476(4) 0.7000(19) 0.8619(18)
C15 C 0.6473(17) 0.8662(14) 0.9283(12)
loop_
_geom_bond_atom_site_label_1
_geom_bond_atom_site_label_2
_geom_bond_site_symmetry_1
_geom_bond_site_symmetry_2
C1 C2 1_555 1_555
F1 C14 1_555 1_555
C2 H1 1_555 1_555
F2 C14 1_555 1_555
C3 C2 1_555 1_555
H2 C3 1_555 1_555
F3 C15 1_555 1_555
C4 C3 1_555 1_555
H3 C4 1_555 1_555
F4 C15 1_555 1_555
C5 C4 1_555 1_555
H4 C5 1_555 1_555
F5 C15 1_555 1_555
C6 C1 1_555 1_555
C7 C6 1_555 1_555
C8 C7 1_555 1_555
H5 C8 1_555 1_555
C9 C8 1_555 1_555
H6 C9 1_555 1_555
C10 C9 1_555 1_555
H7 C10 1_555 1_555
C11 C10 1_555 1_555
H8 C11 1_555 1_555
C12 C7 1_555 1_555
C13 C12 1_555 1_555
N1 C1 1_555 1_555
C14 C13 1_555 1_555
C15 C14 1_555 1_555
C5 C6 1_555 1_555
C11 C12 1_555 1_555
C13 N1 1_555 1_555

#END
