
#######################################################################
#
#                 Cambridge Crystallographic Data Centre
#                                CCDC 
#
#######################################################################
#
# If this CIF has been generated from an entry in the Cambridge 
# Structural Database, then it will include bibliographic, chemical, 
# crystal, experimental, refinement or atomic coordinate data resulting 
# from the CCDC's data processing and validation procedures.
#
#######################################################################

data_ZOJPAR
_chemical_formula_moiety         'C12 H9 I1 N1 O1 1+,I3 1-,0.5(I2)'
_chemical_name_systematic        
'(E)-3-(iodomethylene)-2,3-dihydro-[1,4]oxazino[2,3,4-ij]quinolin-4-ium triiodide diiodo'
_symmetry_cell_setting           triclinic
_symmetry_space_group_name_H-M   'P -1'
_symmetry_Int_Tables_number      2
_space_group_name_Hall           '-P 1'
loop_
_symmetry_equiv_pos_site_id
_symmetry_equiv_pos_as_xyz
1 x,y,z
2 -x,-y,-z
_cell_length_a                   8.6099(5)
_cell_length_b                   9.7325(3)
_cell_length_c                   12.2098(6)
_cell_angle_alpha                108.972(4)
_cell_angle_beta                 101.112(4)
_cell_angle_gamma                104.315(4)
_cell_volume                     894.9
_exptl_crystal_colour            'dark purple'
_exptl_crystal_description       rhombohedral
_cell_formula_units_Z            2
loop_
_atom_site_label
_atom_site_type_symbol
_atom_site_fract_x
_atom_site_fract_y
_atom_site_fract_z
C1 C 0.0459(6) 0.2161(5) 0.3184(4)
H1 H -0.0079 0.2562 0.3738
C2 C 0.1381(6) 0.1236(5) 0.3394(5)
H2 H 0.1447 0.1011 0.4083
C3 C 0.2190(6) 0.0656(5) 0.2588(5)
H3 H 0.2784 0.0018 0.2723
C4 C 0.2135(6) 0.1014(5) 0.1557(4)
C5 C 0.2920(6) 0.0438(5) 0.0692(4)
H4 H 0.3536 -0.0196 0.0796
C6 C 0.2783(6) 0.0810(5) -0.0310(4)
H5 H 0.3287 0.0403 -0.0888
C7 C 0.1893(6) 0.1793(5) -0.0470(4)
H6 H 0.1840 0.2054 -0.1141
C8 C 0.1105(6) 0.2370(5) 0.0351(4)
C9 C 0.1201(5) 0.1969(5) 0.1367(4)
C10 C -0.0006(6) 0.4276(5) 0.1239(4)
H7 H -0.0765 0.4799 0.1023
H8 H 0.1067 0.5053 0.1752
C11 C -0.0696(6) 0.3379(5) 0.1921(4)
C12 C -0.2053(6) 0.3329(5) 0.2286(4)
H9 H -0.2358 0.2660 0.2665
I1 I -0.35420(4) 0.46650(3) 0.20579(3)
N1 N 0.0338(5) 0.2485(4) 0.2179(3)
O1 O 0.0211(4) 0.3289(3) 0.0158(3)
I2 I 0.41583(4) 0.70685(3) 0.15375(3)
I3 I 0.64511(4) 0.96417(3) 0.36655(3)
I4 I 0.88032(4) 1.23235(3) 0.58326(3)
I5 I 0.39552(4) 0.57862(3) 0.47375(3)
I5A I 0.60448(4) 0.42138(3) 0.52625(3)
loop_
_geom_bond_atom_site_label_1
_geom_bond_atom_site_label_2
_geom_bond_site_symmetry_1
_geom_bond_site_symmetry_2
C1 H1 1_555 1_555
C2 C1 1_555 1_555
H2 C2 1_555 1_555
C3 C2 1_555 1_555
H3 C3 1_555 1_555
C4 C3 1_555 1_555
C5 C4 1_555 1_555
H4 C5 1_555 1_555
C6 C5 1_555 1_555
H5 C6 1_555 1_555
C7 C6 1_555 1_555
H6 C7 1_555 1_555
C8 C7 1_555 1_555
C9 C4 1_555 1_555
C10 H7 1_555 1_555
H8 C10 1_555 1_555
C11 C10 1_555 1_555
C12 C11 1_555 1_555
H9 C12 1_555 1_555
I1 C12 1_555 1_555
N1 C1 1_555 1_555
O1 C8 1_555 1_555
I2 I3 1_555 1_555
I3 I4 1_555 1_555
I5 I5A 1_555 1_555
C8 C9 1_555 1_555
C9 N1 1_555 1_555
C10 O1 1_555 1_555
C11 N1 1_555 1_555

#END
