
#######################################################################
#
#                 Cambridge Crystallographic Data Centre
#                                CCDC 
#
#######################################################################
#
# If this CIF has been generated from an entry in the Cambridge 
# Structural Database, then it will include bibliographic, chemical, 
# crystal, experimental, refinement or atomic coordinate data resulting 
# from the CCDC's data processing and validation procedures.
#
#######################################################################

data_ZOJQUM
_chemical_formula_moiety         'C45 H74 B1 Li1 N2 O3'
_chemical_name_systematic        
(\m~2~-1,3-bis(2,6-Di-isopropylphenyl)imidazol-4-yl-2-ylidene)-triethyl-tris(tetrahydrofuran)-boron-lithium
_symmetry_cell_setting           orthorhombic
_symmetry_space_group_name_H-M   'P c a 21'
_symmetry_Int_Tables_number      29
_space_group_name_Hall           'P 2c -2ac'
loop_
_symmetry_equiv_pos_site_id
_symmetry_equiv_pos_as_xyz
1 x,y,z
2 -x,-y,1/2+z
3 1/2+x,-y,z
4 1/2-x,y,1/2+z
_cell_length_a                   23.735(2)
_cell_length_b                   10.4695(10)
_cell_length_c                   18.5654(17)
_cell_angle_alpha                90
_cell_angle_beta                 90
_cell_angle_gamma                90
_cell_volume                     4613.38
_exptl_crystal_colour            colorless
_exptl_crystal_description       plate
_cell_formula_units_Z            4
_chemical_properties_physical    Air-sensitive
_exptl_crystal_recrystallization_method THF/hexane
loop_
_atom_site_label
_atom_site_type_symbol
_atom_site_fract_x
_atom_site_fract_y
_atom_site_fract_z
B1 B 0.1556(2) 0.7036(5) 0.1985(3)
Li1 Li -0.0893(3) 0.6776(11) 0.2951(6)
N1 N 0.09240(14) 0.6405(3) 0.31592(19)
N2 N 0.04089(16) 0.6978(3) 0.22816(19)
C1 C 0.09643(18) 0.6806(4) 0.2461(2)
C2 C 0.03615(19) 0.6360(5) 0.3373(3)
H1 H 0.0242 0.6112 0.3829
C3 C 0.00087(19) 0.6724(5) 0.2831(3)
C4 C 0.0197(2) 0.7395(5) 0.1587(3)
C5 C 0.0126(2) 0.8702(5) 0.1466(3)
C6 C -0.0092(3) 0.9052(6) 0.0805(4)
H2 H -0.0143 0.9914 0.0703
C7 C -0.0235(4) 0.8159(8) 0.0296(4)
H3 H -0.0374 0.8424 -0.0149
C8 C -0.0176(4) 0.6871(7) 0.0437(4)
H4 H -0.0284 0.6273 0.0093
C9 C 0.0042(3) 0.6470(5) 0.1086(3)
C10 C 0.0096(3) 0.5046(5) 0.1230(3)
H5 H 0.0368 0.4932 0.1622
C11 C 0.0310(3) 0.4310(6) 0.0583(3)
H6 H 0.0348 0.3424 0.0707
H7 H 0.0670 0.4643 0.0440
H8 H 0.0048 0.4396 0.0193
C12 C -0.0465(3) 0.4465(7) 0.1473(5)
H9 H -0.0415 0.3570 0.1566
H10 H -0.0741 0.4578 0.1101
H11 H -0.0590 0.4883 0.1905
C13 C 0.0262(2) 0.9703(5) 0.2021(3)
H12 H 0.0537 0.9333 0.2356
C14 C 0.0530(3) 1.0897(6) 0.1689(4)
H13 H 0.0620 1.1496 0.2063
H14 H 0.0270 1.1281 0.1357
H15 H 0.0868 1.0662 0.1438
C15 C -0.0252(3) 1.0073(7) 0.2451(5)
H16 H -0.0151 1.0706 0.2802
H17 H -0.0399 0.9333 0.2691
H18 H -0.0533 1.0415 0.2133
C16 C 0.13493(19) 0.6032(4) 0.3672(2)
C17 C 0.1527(2) 0.6933(5) 0.4182(3)
C18 C 0.1876(3) 0.6520(7) 0.4734(4)
H19 H 0.1996 0.7098 0.5082
C19 C 0.2044(3) 0.5280(8) 0.4773(4)
H20 H 0.2284 0.5024 0.5140
C20 C 0.1863(3) 0.4404(6) 0.4278(3)
H21 H 0.1982 0.3560 0.4314
C21 C 0.1504(2) 0.4756(4) 0.3722(3)
C22 C 0.1282(2) 0.3750(5) 0.3219(3)
H22 H 0.1133 0.4181 0.2791
C23 C 0.0803(3) 0.3034(6) 0.3572(4)
H23 H 0.0656 0.2411 0.3242
H24 H 0.0510 0.3624 0.3702
H25 H 0.0939 0.2611 0.3997
C24 C 0.1738(3) 0.2813(5) 0.2972(4)
H26 H 0.1578 0.2210 0.2641
H27 H 0.1887 0.2368 0.3382
H28 H 0.2036 0.3275 0.2738
C25 C 0.1327(3) 0.8298(5) 0.4192(4)
H29 H 0.1169 0.8489 0.3717
C26 C 0.0861(3) 0.8482(7) 0.4747(5)
H30 H 0.0734 0.9352 0.4736
H31 H 0.1003 0.8285 0.5218
H32 H 0.0552 0.7924 0.4636
C27 C 0.1811(3) 0.9241(7) 0.4327(5)
H33 H 0.1667 1.0098 0.4320
H34 H 0.2091 0.9145 0.3958
H35 H 0.1978 0.9069 0.4788
C28 C 0.1913(3) 0.5692(6) 0.1941(4)
H36 H 0.2295 0.5890 0.1792
H37 H 0.1934 0.5331 0.2422
C29 C 0.1675(10) 0.4652(11) 0.1425(9)
H38 H 0.1919 0.3921 0.1430
H39 H 0.1654 0.4990 0.0945
H40 H 0.1305 0.4405 0.1582
C30 C 0.1966(3) 0.8014(6) 0.2466(4)
H41 H 0.1971 0.7702 0.2958
H42 H 0.2347 0.7941 0.2281
C31 C 0.1817(6) 0.9419(7) 0.2488(6)
H43 H 0.2088 0.9867 0.2776
H44 H 0.1449 0.9523 0.2694
H45 H 0.1819 0.9758 0.2008
C32 C 0.1433(3) 0.7631(7) 0.1201(4)
H46 H 0.1197 0.7044 0.0933
H47 H 0.1226 0.8424 0.1258
C33 C 0.1980(4) 0.7898(9) 0.0762(4)
H48 H 0.1882 0.8251 0.0301
H49 H 0.2182 0.7113 0.0693
H50 H 0.2212 0.8493 0.1019
O1 O -0.1188(12) 0.499(4) 0.321(3)
C34 C -0.0823(8) 0.405(2) 0.3477(14)
H51 H -0.0644 0.4352 0.3914
H52 H -0.0530 0.3875 0.3125
C35 C -0.1113(11) 0.293(2) 0.3622(17)
H53 H -0.0903 0.2199 0.3452
H54 H -0.1174 0.2845 0.4136
C36 C -0.1583(13) 0.302(2) 0.329(2)
H55 H -0.1888 0.2860 0.3628
H56 H -0.1600 0.2372 0.2919
C37 C -0.1663(7) 0.426(2) 0.2968(12)
H57 H -0.1667 0.4195 0.2447
H58 H -0.2013 0.4641 0.3128
O2 O -0.1114(6) 0.7652(15) 0.3900(9)
C38 C -0.0833(7) 0.851(2) 0.4319(12)
H59 H -0.0661 0.9168 0.4026
H60 H -0.0541 0.8085 0.4597
C39 C -0.1251(10) 0.903(3) 0.4781(14)
H61 H -0.1119 0.8995 0.5275
H62 H -0.1306 0.9927 0.4659
C40 C -0.1733(8) 0.844(2) 0.4733(12)
H63 H -0.1850 0.8122 0.5201
H64 H -0.2023 0.9006 0.4549
C41 C -0.1638(6) 0.7454(18) 0.4267(9)
H65 H -0.1942 0.7406 0.3919
H66 H -0.1625 0.6654 0.4530
O3 O -0.1452(5) 0.7368(11) 0.2229(7)
C42 C -0.1674(9) 0.8654(19) 0.2293(10)
H67 H -0.1400 0.9214 0.2517
H68 H -0.2016 0.8657 0.2580
C43 C -0.1800(8) 0.9092(14) 0.1516(9)
H69 H -0.2139 0.9608 0.1492
H70 H -0.1487 0.9566 0.1312
C44 C -0.1879(9) 0.7801(18) 0.1144(10)
H71 H -0.1657 0.7763 0.0706
H72 H -0.2272 0.7672 0.1021
C45 C -0.1687(8) 0.6803(13) 0.1667(9)
H73 H -0.2005 0.6293 0.1823
H74 H -0.1416 0.6241 0.1437
C46? C 0.1544(13) 0.619(2) 0.1190(11)
H75? H 0.1171 0.6254 0.0979
H76? H 0.1809 0.6568 0.0856
C47? C 0.169(3) 0.477(3) 0.128(3)
H77? H 0.1662 0.4349 0.0822
H78? H 0.1432 0.4385 0.1614
H79? H 0.2068 0.4692 0.1460
C48? C 0.1569(11) 0.8466(19) 0.1598(14)
H80? H 0.1836 0.8439 0.1203
H81? H 0.1200 0.8630 0.1392
C49? C 0.172(3) 0.959(2) 0.209(2)
H82? H 0.1710 1.0371 0.1817
H83? H 0.2096 0.9470 0.2275
H84? H 0.1460 0.9638 0.2480
C50? C 0.2157(7) 0.663(3) 0.2343(13)
H85? H 0.2192 0.7062 0.2801
H86? H 0.2143 0.5717 0.2444
C51? C 0.2694(7) 0.689(3) 0.1910(16)
H87? H 0.3016 0.6638 0.2189
H88? H 0.2717 0.7780 0.1800
H89? H 0.2685 0.6403 0.1471
O4? O -0.1203(16) 0.516(4) 0.324(4)
C52? C -0.0931(11) 0.448(3) 0.3789(18)
H90? H -0.0876 0.5033 0.4202
H91? H -0.0562 0.4213 0.3620
C53? C -0.1233(15) 0.341(3) 0.4001(17)
H92? H -0.1051 0.2644 0.3819
H93? H -0.1241 0.3359 0.4523
C54? C -0.1729(12) 0.348(3) 0.3760(19)
H94? H -0.2002 0.3460 0.4150
H95? H -0.1807 0.2775 0.3434
C55? C -0.1745(10) 0.467(3) 0.339(2)
H96? H -0.1947 0.4565 0.2939
H97? H -0.1951 0.5286 0.3679
O5? O -0.1174(13) 0.808(4) 0.3673(18)
C56? C -0.0838(14) 0.884(5) 0.409(3)
H98? H -0.0598 0.9357 0.3787
H99? H -0.0601 0.8312 0.4396
C57? C -0.1182(18) 0.961(4) 0.451(3)
H100? H -0.1093 0.9491 0.5017
H101? H -0.1116 1.0504 0.4393
C58? C -0.1713(16) 0.932(5) 0.439(3)
H102? H -0.1882 0.8979 0.4827
H103? H -0.1921 1.0077 0.4252
C59? C -0.1736(12) 0.844(5) 0.386(2)
H104? H -0.1926 0.8793 0.3443
H105? H -0.1946 0.7697 0.4021
O6? O -0.1414(15) 0.774(4) 0.2147(18)
C60? C -0.1872(18) 0.870(5) 0.217(2)
H106? H -0.1729 0.9562 0.2125
H107? H -0.2094 0.8626 0.2607
C61? C -0.2205(13) 0.829(4) 0.151(2)
H108? H -0.2377 0.7453 0.1560
H109? H -0.2485 0.8912 0.1363
C62? C -0.1683(19) 0.827(5) 0.100(2)
H110? H -0.1764 0.7870 0.0543
H111? H -0.1534 0.9125 0.0920
C63? C -0.1297(16) 0.748(5) 0.146(2)
H112? H -0.1356 0.6582 0.1359
H113? H -0.0908 0.7689 0.1350
loop_
_geom_bond_atom_site_label_1
_geom_bond_atom_site_label_2
_geom_bond_site_symmetry_1
_geom_bond_site_symmetry_2
B1 C1 1_555 1_555
Li1 C3 1_555 1_555
N1 C1 1_555 1_555
N2 C1 1_555 1_555
C2 N1 1_555 1_555
H1 C2 1_555 1_555
C3 N2 1_555 1_555
C4 N2 1_555 1_555
C5 C4 1_555 1_555
C6 C5 1_555 1_555
H2 C6 1_555 1_555
C7 C6 1_555 1_555
H3 C7 1_555 1_555
C8 C7 1_555 1_555
H4 C8 1_555 1_555
C9 C4 1_555 1_555
C10 C9 1_555 1_555
H5 C10 1_555 1_555
C11 C10 1_555 1_555
H6 C11 1_555 1_555
H7 C11 1_555 1_555
H8 C11 1_555 1_555
C12 C10 1_555 1_555
H9 C12 1_555 1_555
H10 C12 1_555 1_555
H11 C12 1_555 1_555
C13 C5 1_555 1_555
H12 C13 1_555 1_555
C14 C13 1_555 1_555
H13 C14 1_555 1_555
H14 C14 1_555 1_555
H15 C14 1_555 1_555
C15 C13 1_555 1_555
H16 C15 1_555 1_555
H17 C15 1_555 1_555
H18 C15 1_555 1_555
C16 N1 1_555 1_555
C17 C16 1_555 1_555
C18 C17 1_555 1_555
H19 C18 1_555 1_555
C19 C18 1_555 1_555
H20 C19 1_555 1_555
C20 C19 1_555 1_555
H21 C20 1_555 1_555
C21 C16 1_555 1_555
C22 C21 1_555 1_555
H22 C22 1_555 1_555
C23 C22 1_555 1_555
H23 C23 1_555 1_555
H24 C23 1_555 1_555
H25 C23 1_555 1_555
C24 C22 1_555 1_555
H26 C24 1_555 1_555
H27 C24 1_555 1_555
H28 C24 1_555 1_555
C25 C17 1_555 1_555
H29 C25 1_555 1_555
C26 C25 1_555 1_555
H30 C26 1_555 1_555
H31 C26 1_555 1_555
H32 C26 1_555 1_555
C27 C25 1_555 1_555
H33 C27 1_555 1_555
H34 C27 1_555 1_555
H35 C27 1_555 1_555
C28 B1 1_555 1_555
H36 C28 1_555 1_555
H37 C28 1_555 1_555
C29 C28 1_555 1_555
H38 C29 1_555 1_555
H39 C29 1_555 1_555
H40 C29 1_555 1_555
C30 B1 1_555 1_555
H41 C30 1_555 1_555
H42 C30 1_555 1_555
C31 C30 1_555 1_555
H43 C31 1_555 1_555
H44 C31 1_555 1_555
H45 C31 1_555 1_555
C32 B1 1_555 1_555
H46 C32 1_555 1_555
H47 C32 1_555 1_555
C33 C32 1_555 1_555
H48 C33 1_555 1_555
H49 C33 1_555 1_555
H50 C33 1_555 1_555
O1 Li1 1_555 1_555
C34 O1 1_555 1_555
H51 C34 1_555 1_555
H52 C34 1_555 1_555
C35 C34 1_555 1_555
H53 C35 1_555 1_555
H54 C35 1_555 1_555
C36 C35 1_555 1_555
H55 C36 1_555 1_555
H56 C36 1_555 1_555
C37 O1 1_555 1_555
H57 C37 1_555 1_555
H58 C37 1_555 1_555
O2 Li1 1_555 1_555
C38 O2 1_555 1_555
H59 C38 1_555 1_555
H60 C38 1_555 1_555
C39 C38 1_555 1_555
H61 C39 1_555 1_555
H62 C39 1_555 1_555
C40 C39 1_555 1_555
H63 C40 1_555 1_555
H64 C40 1_555 1_555
C41 O2 1_555 1_555
H65 C41 1_555 1_555
H66 C41 1_555 1_555
O3 Li1 1_555 1_555
C42 O3 1_555 1_555
H67 C42 1_555 1_555
H68 C42 1_555 1_555
C43 C42 1_555 1_555
H69 C43 1_555 1_555
H70 C43 1_555 1_555
C44 C43 1_555 1_555
H71 C44 1_555 1_555
H72 C44 1_555 1_555
C45 O3 1_555 1_555
H73 C45 1_555 1_555
H74 C45 1_555 1_555
C2 C3 1_555 1_555
C8 C9 1_555 1_555
C20 C21 1_555 1_555
C36 C37 1_555 1_555
C40 C41 1_555 1_555
C44 C45 1_555 1_555

#END
