
#######################################################################
#
#                 Cambridge Crystallographic Data Centre
#                                CCDC 
#
#######################################################################
#
# If this CIF has been generated from an entry in the Cambridge 
# Structural Database, then it will include bibliographic, chemical, 
# crystal, experimental, refinement or atomic coordinate data resulting 
# from the CCDC's data processing and validation procedures.
#
#######################################################################

data_ZOJVEB
_chemical_formula_moiety         'C21 H22 N2 O4'
_chemical_name_systematic        
3,3'-methylenebis(4-benzyl-1,3-oxazolidin-2-one)
_symmetry_cell_setting           trigonal
_symmetry_space_group_name_H-M   'P 32 2 1'
_symmetry_Int_Tables_number      154
_space_group_name_Hall           'P 32 2"'
loop_
_symmetry_equiv_pos_site_id
_symmetry_equiv_pos_as_xyz
1 x,y,z
2 -y,x-y,2/3+z
3 -x+y,-x,1/3+z
4 y,x,-z
5 x-y,-y,1/3-z
6 -x,-x+y,2/3-z
_cell_length_a                   10.0068(4)
_cell_length_b                   10.0068(4)
_cell_length_c                   16.3846(11)
_cell_angle_alpha                90
_cell_angle_beta                 90
_cell_angle_gamma                120
_cell_volume                     1420.88
_exptl_crystal_colour            colorless
_exptl_crystal_description       block
_cell_formula_units_Z            3
loop_
_atom_site_label
_atom_site_type_symbol
_atom_site_fract_x
_atom_site_fract_y
_atom_site_fract_z
C1 C 1.0944(4) 0.2010(4) 1.12919(17)
C2 C 0.8605(4) 0.1590(4) 1.09096(17)
H1 H 0.8116 0.2214 1.0954
H2 H 0.7809 0.0511 1.0900
C3 C 0.9583(3) 0.2005(3) 1.01459(15)
H3 H 0.9068 0.1205 0.9729
C4 C 1.2239(5) 0.2239(5) 1.0000
H4 H 1.2515 0.3104 0.9636
C5 C 1.0043(3) 0.3591(4) 0.9795(2)
H5 H 1.0682 0.4373 1.0191
H6 H 1.0662 0.3757 0.9310
C6 C 0.8695(3) 0.3796(3) 0.95784(17)
C7 C 0.8480(4) 0.4871(4) 0.9988(2)
H7 H 0.9160 0.5444 1.0403
C8 C 0.7300(6) 0.5118(5) 0.9802(3)
H8 H 0.7194 0.5869 1.0082
C9 C 0.6284(5) 0.4286(6) 0.9216(3)
H9 H 0.5468 0.4450 0.9097
C10 C 0.6450(4) 0.3184(5) 0.8790(2)
H10 H 0.5748 0.2606 0.8384
C11 C 0.7669(4) 0.2947(4) 0.89719(18)
H11 H 0.7792 0.2215 0.8684
N1 N 1.0914(3) 0.1963(3) 1.04749(12)
O1 O 1.1978(3) 0.2161(3) 1.17371(13)
O2 O 0.9633(3) 0.1888(3) 1.15794(11)
H4C H 1.3104 0.2515 1.0364
C1C C 1.2010(4) 0.0944(4) 0.87081(17)
C2C C 1.1590(4) -0.1395(4) 0.90904(17)
H1C H 1.2214 -0.1884 0.9046
H2C H 1.0511 -0.2191 0.9100
C3C C 1.2005(3) -0.0417(3) 0.98541(15)
H3C H 1.1205 -0.0932 1.0271
C5C C 1.3591(4) 0.0043(3) 1.0205(2)
H5C H 1.4373 0.0682 0.9809
H6C H 1.3757 0.0662 1.0690
C6C C 1.3796(3) -0.1305(3) 1.04216(17)
C7C C 1.4871(4) -0.1520(4) 1.0012(2)
H7C H 1.5444 -0.0840 0.9597
C8C C 1.5118(5) -0.2700(6) 1.0198(3)
H8C H 1.5869 -0.2806 0.9918
C9C C 1.4286(6) -0.3716(5) 1.0784(3)
H9C H 1.4450 -0.4532 1.0903
C10C C 1.3184(5) -0.3550(4) 1.1210(2)
H10C H 1.2606 -0.4252 1.1616
C11C C 1.2947(4) -0.2331(4) 1.10281(18)
H11C H 1.2215 -0.2208 1.1316
N1C N 1.1963(3) 0.0914(3) 0.95251(12)
O1C O 1.2161(3) 0.1978(3) 0.82629(13)
O2C O 1.1888(3) -0.0367(3) 0.84206(11)
H12? H 1.2515 0.3104 0.9636
loop_
_geom_bond_atom_site_label_1
_geom_bond_atom_site_label_2
_geom_bond_site_symmetry_1
_geom_bond_site_symmetry_2
C1 N1 1_555 1_555
C2 H1 1_555 1_555
H2 C2 1_555 1_555
C3 C2 1_555 1_555
H3 C3 1_555 1_555
C4 H4 1_555 1_555
C5 C3 1_555 1_555
H5 C5 1_555 1_555
H6 C5 1_555 1_555
C6 C5 1_555 1_555
C7 C6 1_555 1_555
H7 C7 1_555 1_555
C8 C7 1_555 1_555
H8 C8 1_555 1_555
C9 C8 1_555 1_555
H9 C9 1_555 1_555
C10 C9 1_555 1_555
H10 C10 1_555 1_555
C11 C6 1_555 1_555
H11 C11 1_555 1_555
N1 C3 1_555 1_555
O1 C1 1_555 1_555
O2 C1 1_555 1_555
H4C C4 1_555 1_555
C1C N1C 1_555 1_555
C2C H1C 1_555 1_555
H2C C2C 1_555 1_555
C3C C2C 1_555 1_555
H3C C3C 1_555 1_555
C5C C3C 1_555 1_555
H5C C5C 1_555 1_555
H6C C5C 1_555 1_555
C6C C5C 1_555 1_555
C7C C6C 1_555 1_555
H7C C7C 1_555 1_555
C8C C7C 1_555 1_555
H8C C8C 1_555 1_555
C9C C8C 1_555 1_555
H9C C9C 1_555 1_555
C10C C9C 1_555 1_555
H10C C10C 1_555 1_555
C11C C6C 1_555 1_555
H11C C11C 1_555 1_555
N1C C4 1_555 1_555
O1C C1C 1_555 1_555
O2C C1C 1_555 1_555
C2 O2 1_555 1_555
C4 N1 1_555 1_555
C10 C11 1_555 1_555
C2C O2C 1_555 1_555
C3C N1C 1_555 1_555
C10C C11C 1_555 1_555

#END
