
#######################################################################
#
#                 Cambridge Crystallographic Data Centre
#                                CCDC 
#
#######################################################################
#
# If this CIF has been generated from an entry in the Cambridge 
# Structural Database, then it will include bibliographic, chemical, 
# crystal, experimental, refinement or atomic coordinate data resulting 
# from the CCDC's data processing and validation procedures.
#
#######################################################################

data_ZOKCEJ
_chemical_formula_moiety         'C19 H16 F2 P1 1+,Br1 1-'
_chemical_name_systematic        
'(difluoromethyl)(triphenyl)phosphonium bromide'
_symmetry_cell_setting           monoclinic
_symmetry_space_group_name_H-M   'P 21/c'
_symmetry_Int_Tables_number      14
_space_group_name_Hall           '-P 2ybc'
loop_
_symmetry_equiv_pos_site_id
_symmetry_equiv_pos_as_xyz
1 x,y,z
2 -x,1/2+y,1/2-z
3 -x,-y,-z
4 x,1/2-y,1/2+z
_cell_length_a                   10.944(3)
_cell_length_b                   13.760(3)
_cell_length_c                   12.593(3)
_cell_angle_alpha                90
_cell_angle_beta                 106.880(4)
_cell_angle_gamma                90
_cell_volume                     1814.67
_exptl_crystal_colour            colorless
_exptl_crystal_description       prismatic
_cell_formula_units_Z            4
loop_
_atom_site_label
_atom_site_type_symbol
_atom_site_fract_x
_atom_site_fract_y
_atom_site_fract_z
Br1 Br 0.24160(5) 0.03157(4) 0.38549(4)
P1 P 0.24802(9) 0.12819(7) 0.04262(8)
F1 F 0.1405(3) -0.03884(17) 0.0584(2)
F2 F 0.3471(3) -0.04358(18) 0.0930(3)
C1 C 0.2492(4) 0.0078(3) 0.1104(3)
H1 H 0.2588 0.0149 0.1898
C2 C 0.3936(4) 0.1876(3) 0.1139(4)
C3 C 0.4644(5) 0.1572(4) 0.2181(5)
H2 H 0.4355 0.1065 0.2534
C4 C 0.5790(6) 0.2032(5) 0.2694(6)
H3 H 0.6281 0.1832 0.3393
C5 C 0.6191(6) 0.2773(5) 0.2173(6)
H4 H 0.6973 0.3063 0.2520
C6 C 0.5497(5) 0.3110(4) 0.1165(6)
H5 H 0.5784 0.3636 0.0838
C7 C 0.4340(5) 0.2651(4) 0.0627(5)
H6 H 0.3849 0.2864 -0.0066
C8 C 0.1074(4) 0.1914(3) 0.0502(3)
C9 C 0.0490(4) 0.1686(3) 0.1306(4)
H7 H 0.0840 0.1215 0.1837
C10 C -0.0609(5) 0.2162(4) 0.1318(4)
H8 H -0.1014 0.2007 0.1851
C11 C -0.1111(5) 0.2866(4) 0.0540(5)
H9 H -0.1862 0.3181 0.0541
C12 C -0.0522(5) 0.3101(3) -0.0218(5)
H10 H -0.0860 0.3593 -0.0723
C13 C 0.0569(4) 0.2634(3) -0.0272(4)
H11 H 0.0959 0.2797 -0.0813
C14 C 0.2387(4) 0.1030(3) -0.0978(3)
C15 C 0.1223(4) 0.0781(3) -0.1709(3)
H12 H 0.0489 0.0800 -0.1481
C16 C 0.1150(5) 0.0504(3) -0.2786(4)
H13 H 0.0370 0.0322 -0.3275
C17 C 0.2226(6) 0.0498(3) -0.3125(4)
H14 H 0.2172 0.0339 -0.3854
C18 C 0.3382(5) 0.0726(4) -0.2397(4)
H15 H 0.4111 0.0705 -0.2633
C19 C 0.3483(4) 0.0984(3) -0.1325(4)
H16 H 0.4276 0.1127 -0.0833
loop_
_geom_bond_atom_site_label_1
_geom_bond_atom_site_label_2
_geom_bond_site_symmetry_1
_geom_bond_site_symmetry_2
P1 C1 1_555 1_555
F1 C1 1_555 1_555
F2 C1 1_555 1_555
C1 H1 1_555 1_555
C2 P1 1_555 1_555
C3 C2 1_555 1_555
H2 C3 1_555 1_555
C4 C3 1_555 1_555
H3 C4 1_555 1_555
C5 C4 1_555 1_555
H4 C5 1_555 1_555
C6 C5 1_555 1_555
H5 C6 1_555 1_555
C7 C2 1_555 1_555
H6 C7 1_555 1_555
C8 P1 1_555 1_555
C9 C8 1_555 1_555
H7 C9 1_555 1_555
C10 C9 1_555 1_555
H8 C10 1_555 1_555
C11 C10 1_555 1_555
H9 C11 1_555 1_555
C12 C11 1_555 1_555
H10 C12 1_555 1_555
C13 C8 1_555 1_555
H11 C13 1_555 1_555
C14 P1 1_555 1_555
C15 C14 1_555 1_555
H12 C15 1_555 1_555
C16 C15 1_555 1_555
H13 C16 1_555 1_555
C17 C16 1_555 1_555
H14 C17 1_555 1_555
C18 C17 1_555 1_555
H15 C18 1_555 1_555
C19 C14 1_555 1_555
H16 C19 1_555 1_555
C6 C7 1_555 1_555
C12 C13 1_555 1_555
C18 C19 1_555 1_555

#END
