
#######################################################################
#
#                 Cambridge Crystallographic Data Centre
#                                CCDC 
#
#######################################################################
#
# If this CIF has been generated from an entry in the Cambridge 
# Structural Database, then it will include bibliographic, chemical, 
# crystal, experimental, refinement or atomic coordinate data resulting 
# from the CCDC's data processing and validation procedures.
#
#######################################################################

data_ZOKCOT
_chemical_formula_moiety         'C23 H21 Br1 N2 O3 S1'
_chemical_name_systematic        
9-bromo-2-methoxy-10b-methyl-5-((4-methylphenyl)sulfonyl)-5,5a,6,10b-tetrahydroindolo[2,3-b]indole
_symmetry_cell_setting           triclinic
_symmetry_space_group_name_H-M   'P -1'
_symmetry_Int_Tables_number      2
_space_group_name_Hall           '-P 1'
loop_
_symmetry_equiv_pos_site_id
_symmetry_equiv_pos_as_xyz
1 x,y,z
2 -x,-y,-z
_cell_length_a                   9.0872(4)
_cell_length_b                   10.6606(4)
_cell_length_c                   11.1102(5)
_cell_angle_alpha                87.728(5)
_cell_angle_beta                 81.405(4)
_cell_angle_gamma                81.279(4)
_cell_volume                     1051.75
_cell_formula_units_Z            2
loop_
_atom_site_label
_atom_site_type_symbol
_atom_site_fract_x
_atom_site_fract_y
_atom_site_fract_z
Br1 Br 0.20112(7) 0.98251(6) 0.02384(6)
S1 S 0.47127(14) 0.24594(12) 0.30959(13)
O1 O 0.5945(4) 0.2832(4) 0.3595(4)
O2 O 0.4976(5) 0.1774(4) 0.1989(4)
N1 N 0.3650(5) 0.3809(4) 0.2856(4)
N2 N 0.4905(5) 0.5604(4) 0.3249(4)
O3 O -0.2068(4) 0.4848(4) 0.1569(4)
C1 C -0.0091(6) 0.5331(5) 0.2512(5)
H1 H -0.0689 0.6088 0.2763
C2 C 0.4416(5) 0.6574(5) 0.2473(5)
C3 C 0.2220(5) 0.3896(5) 0.2452(5)
C4 C 0.2128(5) 0.7777(4) 0.1947(4)
H2 H 0.1083 0.7934 0.2033
C5 C 0.1326(6) 0.5027(4) 0.2824(4)
C6 C 0.0277(6) 0.3369(5) 0.1431(5)
H3 H -0.0086 0.2812 0.0965
C7 C 0.2858(5) 0.6812(4) 0.2590(4)
C8 C 0.3682(6) 0.1583(5) 0.4211(5)
C9 C 0.2208(5) 0.5833(5) 0.3464(4)
C10 C 0.4555(6) 0.8288(5) 0.1009(5)
H4 H 0.5113 0.8787 0.0469
C11 C 0.5277(6) 0.7312(5) 0.1668(5)
H5 H 0.6322 0.7151 0.1576
C12 C 0.3671(6) 0.4912(5) 0.3646(5)
H6 H 0.3655 0.4642 0.4500
C13 C 0.3005(6) 0.8513(5) 0.1160(5)
C14 C 0.2948(7) 0.0665(5) 0.3845(5)
H7 H 0.2988 0.0507 0.3022
C15 C 0.1348(7) 0.6420(6) 0.4650(5)
H8 H 0.0504 0.7019 0.4472
H9 H 0.2004 0.6846 0.5038
H10 H 0.0997 0.5763 0.5183
C16 C 0.1719(6) 0.3070(5) 0.1741(5)
H11 H 0.2333 0.2326 0.1471
C17 C 0.2811(8) 0.1107(6) 0.6297(5)
H12 H 0.2766 0.1263 0.7120
C18 C -0.0622(6) 0.4489(5) 0.1812(5)
C19 C 0.2062(6) 0.0188(5) 0.5948(5)
C20 C 0.2141(7) -0.0026(6) 0.4730(6)
H13 H 0.1642 -0.0652 0.4489
C21 C -0.2565(7) 0.4157(7) 0.0667(6)
H14 H -0.1898 0.4190 -0.0086
H15 H -0.3565 0.4529 0.0548
H16 H -0.2567 0.3290 0.0932
C22 C 0.3638(8) 0.1811(6) 0.5433(6)
H17 H 0.4153 0.2425 0.5676
C23 C 0.1190(7) -0.0570(6) 0.6898(6)
H18 H 0.0292 -0.0044 0.7257
H19 H 0.1798 -0.0864 0.7517
H20 H 0.0925 -0.1284 0.6524
H21 H 0.575(6) 0.521(5) 0.305(4)
loop_
_geom_bond_atom_site_label_1
_geom_bond_atom_site_label_2
_geom_bond_site_symmetry_1
_geom_bond_site_symmetry_2
Br1 C13 1_555 1_555
S1 O1 1_555 1_555
O2 S1 1_555 1_555
N1 S1 1_555 1_555
N2 C2 1_555 1_555
O3 C18 1_555 1_555
C1 H1 1_555 1_555
C2 C7 1_555 1_555
C3 N1 1_555 1_555
C4 H2 1_555 1_555
C5 C1 1_555 1_555
C6 H3 1_555 1_555
C7 C4 1_555 1_555
C8 S1 1_555 1_555
C9 C5 1_555 1_555
C10 H4 1_555 1_555
C11 C2 1_555 1_555
H5 C11 1_555 1_555
C12 N1 1_555 1_555
H6 C12 1_555 1_555
C13 C4 1_555 1_555
C14 C8 1_555 1_555
H7 C14 1_555 1_555
C15 C9 1_555 1_555
H8 C15 1_555 1_555
H9 C15 1_555 1_555
H10 C15 1_555 1_555
C16 C3 1_555 1_555
H11 C16 1_555 1_555
C17 H12 1_555 1_555
C18 C1 1_555 1_555
C19 C17 1_555 1_555
C20 C14 1_555 1_555
H13 C20 1_555 1_555
C21 O3 1_555 1_555
H14 C21 1_555 1_555
H15 C21 1_555 1_555
H16 C21 1_555 1_555
C22 C8 1_555 1_555
H17 C22 1_555 1_555
C23 C19 1_555 1_555
H18 C23 1_555 1_555
H19 C23 1_555 1_555
H20 C23 1_555 1_555
H21 N2 1_555 1_555
N2 C12 1_555 1_555
C3 C5 1_555 1_555
C6 C16 1_555 1_555
C6 C18 1_555 1_555
C7 C9 1_555 1_555
C9 C12 1_555 1_555
C10 C11 1_555 1_555
C10 C13 1_555 1_555
C17 C22 1_555 1_555
C19 C20 1_555 1_555

#END
