
#######################################################################
#
#                 Cambridge Crystallographic Data Centre
#                                CCDC 
#
#######################################################################
#
# If this CIF has been generated from an entry in the Cambridge 
# Structural Database, then it will include bibliographic, chemical, 
# crystal, experimental, refinement or atomic coordinate data resulting 
# from the CCDC's data processing and validation procedures.
#
#######################################################################

data_ZOKYUV
_chemical_formula_moiety         'C6 H14 N2 O2,C6 H14 N2'
_chemical_name_systematic        
'2-(isopropyldiazenyl)propan-2-yl hydroperoxide 1-isopropyl-2-isopropylidenehydrazine'
_symmetry_cell_setting           triclinic
_symmetry_space_group_name_H-M   'P -1'
_symmetry_Int_Tables_number      2
_space_group_name_Hall           '-P 1'
loop_
_symmetry_equiv_pos_site_id
_symmetry_equiv_pos_as_xyz
1 x,y,z
2 -x,-y,-z
_cell_length_a                   8.3803(6)
_cell_length_b                   10.3708(6)
_cell_length_c                   11.0004(3)
_cell_angle_alpha                115.652(4)
_cell_angle_beta                 99.615(4)
_cell_angle_gamma                101.009(6)
_cell_volume                     811.58
_exptl_crystal_colour            colorless
_exptl_crystal_description       prism
_cell_formula_units_Z            2
loop_
_atom_site_label
_atom_site_type_symbol
_atom_site_fract_x
_atom_site_fract_y
_atom_site_fract_z
O1 O 0.14502(6) 0.35258(5) 0.48352(5)
O2 O 0.04624(7) 0.19498(6) 0.42383(6)
H1 H 0.1271(17) 0.1535(15) 0.4396(14)
N1 N 0.28387(7) 0.29982(6) 0.30674(6)
N2 N 0.29960(8) 0.30539(7) 0.19891(6)
C1 C 0.16462(8) 0.38178(7) 0.37002(7)
C2 C 0.25416(10) 0.54955(8) 0.44341(8)
H2 H 0.1819 0.6043 0.4929
H3 H 0.2767 0.5797 0.3734
H4 H 0.3615 0.5725 0.5110
C3 C -0.00406(9) 0.33676(8) 0.26315(8)
H5 H -0.0580 0.2289 0.2217
H6 H 0.0153 0.3609 0.1889
H7 H -0.0781 0.3915 0.3100
C4 C 0.42226(9) 0.22989(8) 0.13765(7)
H8 H 0.4754 0.1917 0.1985
C5 C 0.55773(10) 0.34589(10) 0.13050(10)
H9 H 0.5037 0.3877 0.0761
H10 H 0.6370 0.2980 0.0849
H11 H 0.6195 0.4264 0.2259
C6 C 0.32388(11) 0.09956(9) -0.00780(8)
H12 H 0.2363 0.0293 0.0011
H13 H 0.4017 0.0479 -0.0518
H14 H 0.2705 0.1377 -0.0661
N3 N 0.23572(7) 0.02092(6) 0.46845(6)
N4 N 0.16471(7) -0.13580(6) 0.38156(6)
H15 H 0.1167(13) -0.1756(12) 0.4302(11)
C7 C 0.34125(8) 0.06450(7) 0.58814(7)
C8 C 0.38745(9) -0.04148(8) 0.63773(7)
H16 H 0.2920 -0.0849 0.6627
H17 H 0.4867 0.0131 0.7203
H18 H 0.4137 -0.1217 0.5625
C9 C 0.42393(10) 0.22968(8) 0.68166(8)
H19 H 0.3848 0.2843 0.6348
H20 H 0.5472 0.2512 0.7009
H21 H 0.3937 0.2613 0.7703
C10 C 0.03518(8) -0.17192(8) 0.25345(7)
H22 H -0.0486 -0.1155 0.2804
C11 C 0.11967(10) -0.12760(9) 0.15886(8)
H23 H 0.1801 -0.0202 0.2102
H24 H 0.0331 -0.1497 0.0750
H25 H 0.2001 -0.1844 0.1307
C12 C -0.05481(10) -0.33987(9) 0.18046(9)
H26 H 0.0272 -0.3953 0.1539
H27 H -0.1440 -0.3673 0.0960
H28 H -0.1054 -0.3648 0.2446
loop_
_geom_bond_atom_site_label_1
_geom_bond_atom_site_label_2
_geom_bond_site_symmetry_1
_geom_bond_site_symmetry_2
O1 O2 1_555 1_555
O2 H1 1_555 1_555
N1 N2 1_555 1_555
N2 C4 1_555 1_555
C1 O1 1_555 1_555
C2 C1 1_555 1_555
H2 C2 1_555 1_555
H3 C2 1_555 1_555
H4 C2 1_555 1_555
C3 C1 1_555 1_555
H5 C3 1_555 1_555
H6 C3 1_555 1_555
H7 C3 1_555 1_555
C4 H8 1_555 1_555
C5 C4 1_555 1_555
H9 C5 1_555 1_555
H10 C5 1_555 1_555
H11 C5 1_555 1_555
C6 C4 1_555 1_555
H12 C6 1_555 1_555
H13 C6 1_555 1_555
H14 C6 1_555 1_555
N3 N4 1_555 1_555
N4 H15 1_555 1_555
C7 N3 1_555 1_555
C8 C7 1_555 1_555
H16 C8 1_555 1_555
H17 C8 1_555 1_555
H18 C8 1_555 1_555
C9 C7 1_555 1_555
H19 C9 1_555 1_555
H20 C9 1_555 1_555
H21 C9 1_555 1_555
C10 N4 1_555 1_555
H22 C10 1_555 1_555
C11 C10 1_555 1_555
H23 C11 1_555 1_555
H24 C11 1_555 1_555
H25 C11 1_555 1_555
C12 C10 1_555 1_555
H26 C12 1_555 1_555
H27 C12 1_555 1_555
H28 C12 1_555 1_555
N1 C1 1_555 1_555

#END
