
#######################################################################
#
#                 Cambridge Crystallographic Data Centre
#                                CCDC 
#
#######################################################################
#
# If this CIF has been generated from an entry in the Cambridge 
# Structural Database, then it will include bibliographic, chemical, 
# crystal, experimental, refinement or atomic coordinate data resulting 
# from the CCDC's data processing and validation procedures.
#
#######################################################################

data_ZOLMES
_chemical_formula_moiety         'C36 H28 N4 O2 P4'
_chemical_name_systematic        
1,3:5,7-Dibenzoperhydro-2,4,6,8-tetraphenyl-2,4,6,8-tetraphospha-1,3,5,7-tetrazaocine-4,7-dione
_symmetry_cell_setting           monoclinic
_symmetry_space_group_name_H-M   'C 2/c'
_symmetry_Int_Tables_number      15
_space_group_name_Hall           '-C 2yn'
loop_
_symmetry_equiv_pos_site_id
_symmetry_equiv_pos_as_xyz
1 x,y,z
2 -x,y,1/2-z
3 1/2+x,1/2+y,z
4 1/2-x,1/2+y,1/2-z
5 -x,-y,-z
6 x,-y,1/2+z
7 1/2-x,1/2-y,-z
8 1/2+x,1/2-y,1/2+z
_cell_length_a                   19.154(8)
_cell_length_b                   9.081(4)
_cell_length_c                   18.832(9)
_cell_angle_alpha                90
_cell_angle_beta                 103.09(4)
_cell_angle_gamma                90
_cell_volume                     3190.48
_exptl_crystal_colour            colorless
_cell_formula_units_Z            4
loop_
_atom_site_label
_atom_site_type_symbol
_atom_site_fract_x
_atom_site_fract_y
_atom_site_fract_z
P1 P -0.0779(1) 0.0014(1) 0.6912(1)
P2 P -0.0584(1) 0.1205(1) 0.8403(1)
O1 O -0.0831(1) 0.2376(2) 0.8821(1)
N1 N -0.1043(1) 0.1236(2) 0.7516(1)
N2 N -0.0300(1) 0.1372(2) 0.6570(1)
C1 C -0.1593(1) -0.0054(2) 0.6188(1)
C2 C -0.1693(1) 0.0666(3) 0.5528(1)
C3 C -0.2311(1) 0.0416(4) 0.4992(1)
C4 C -0.2817(1) -0.0544(3) 0.5112(1)
C5 C -0.2730(1) -0.1277(3) 0.5766(2)
C6 C -0.2114(1) -0.1031(3) 0.6301(1)
C7 C -0.0686(1) -0.0631(2) 0.8703(1)
C8 C -0.1338(1) -0.1360(3) 0.8470(1)
C9 C -0.1436(2) -0.2734(3) 0.8739(2)
C10 C -0.0888(2) -0.3394(3) 0.9250(2)
C11 C -0.0259(1) -0.2658(3) 0.9501(1)
C12 C -0.0155(1) -0.1282(3) 0.9236(1)
C13 C -0.1035(1) 0.2688(2) 0.7197(1)
C14 C -0.0598(1) 0.2780(2) 0.6701(1)
C15 C -0.0477(1) 0.4123(2) 0.6405(1)
C16 C -0.0810(2) 0.5353(3) 0.6603(1)
C17 C -0.1263(2) 0.5251(3) 0.7080(2)
C18 C -0.1387(1) 0.3911(3) 0.7379(1)
H1 H -0.1335 0.1341 0.5444
H2 H -0.2388 0.0936 0.4538
H3 H -0.3237 -0.0732 0.4734
H4 H -0.3091 -0.1945 0.5849
H5 H -0.2047 -0.1539 0.6758
H6 H -0.1712 -0.0905 0.8111
H7 H -0.1885 -0.3238 0.8582
H8 H -0.0954 -0.4364 0.9427
H9 H 0.0112 -0.3117 0.9862
H10 H 0.0289 -0.0767 0.9414
H11 H -0.0160 0.4189 0.6077
H12 H -0.0727 0.6297 0.6408
H13 H -0.1494 0.6121 0.7204
H14 H -0.1716 0.3821 0.7693
N2A N 0.0300(1) 0.1372(2) 0.8430(1)
P1A P 0.0779(1) 0.0014(1) 0.8088(1)
N1A N 0.1043(1) 0.1236(2) 0.7484(1)
P2A P 0.0584(1) 0.1205(1) 0.6597(1)
O1A O 0.0831(1) 0.2376(2) 0.6179(1)
C7A C 0.0686(1) -0.0631(2) 0.6297(1)
C8A C 0.1338(1) -0.1360(3) 0.6530(1)
C9A C 0.1436(2) -0.2734(3) 0.6261(2)
C10A C 0.0888(2) -0.3394(3) 0.5750(2)
C11A C 0.0259(1) -0.2658(3) 0.5499(1)
C12A C 0.0155(1) -0.1282(3) 0.5764(1)
H10A H -0.0289 -0.0767 0.5586
H9A H -0.0112 -0.3117 0.5138
H8A H 0.0954 -0.4364 0.5573
H7A H 0.1885 -0.3238 0.6418
H6A H 0.1712 -0.0905 0.6889
C13A C 0.1035(1) 0.2688(2) 0.7803(1)
C14A C 0.0598(1) 0.2780(2) 0.8299(1)
C15A C 0.0477(1) 0.4123(2) 0.8595(1)
C16A C 0.0810(2) 0.5353(3) 0.8397(1)
C17A C 0.1263(2) 0.5251(3) 0.7920(2)
C18A C 0.1387(1) 0.3911(3) 0.7621(1)
H14A H 0.1716 0.3821 0.7307
H13A H 0.1494 0.6121 0.7796
H12A H 0.0727 0.6297 0.8592
H11A H 0.0160 0.4189 0.8923
C1A C 0.1593(1) -0.0054(2) 0.8812(1)
C2A C 0.1693(1) 0.0666(3) 0.9472(1)
C3A C 0.2311(1) 0.0416(4) 1.0008(1)
C4A C 0.2817(1) -0.0544(3) 0.9888(1)
C5A C 0.2730(1) -0.1277(3) 0.9234(2)
C6A C 0.2114(1) -0.1031(3) 0.8699(1)
H5A H 0.2047 -0.1539 0.8242
H4A H 0.3091 -0.1945 0.9151
H3A H 0.3237 -0.0732 1.0266
H2A H 0.2388 0.0936 1.0462
H1A H 0.1335 0.1341 0.9556
loop_
_geom_bond_atom_site_label_1
_geom_bond_atom_site_label_2
_geom_bond_site_symmetry_1
_geom_bond_site_symmetry_2
P1 N1 1_555 1_555
P2 O1 1_555 1_555
N1 P2 1_555 1_555
N2 P1 1_555 1_555
C1 P1 1_555 1_555
C2 C1 1_555 1_555
C3 C2 1_555 1_555
C4 C3 1_555 1_555
C5 C4 1_555 1_555
C6 C1 1_555 1_555
C7 P2 1_555 1_555
C8 C7 1_555 1_555
C9 C8 1_555 1_555
C10 C9 1_555 1_555
C11 C10 1_555 1_555
C12 C7 1_555 1_555
C13 N1 1_555 1_555
C14 N2 1_555 1_555
C15 C14 1_555 1_555
C16 C15 1_555 1_555
C17 C16 1_555 1_555
C18 C13 1_555 1_555
H1 C2 1_555 1_555
H2 C3 1_555 1_555
H3 C4 1_555 1_555
H4 C5 1_555 1_555
H5 C6 1_555 1_555
H6 C8 1_555 1_555
H7 C9 1_555 1_555
H8 C10 1_555 1_555
H9 C11 1_555 1_555
H10 C12 1_555 1_555
H11 C15 1_555 1_555
H12 C16 1_555 1_555
H13 C17 1_555 1_555
H14 C18 1_555 1_555
N2A P2 1_555 1_555
P1A N2A 1_555 1_555
N1A P1A 1_555 1_555
P2A N2 1_555 1_555
O1A P2A 1_555 1_555
C7A P2A 1_555 1_555
C8A C7A 1_555 1_555
C9A C8A 1_555 1_555
C10A C9A 1_555 1_555
C11A C10A 1_555 1_555
C12A C7A 1_555 1_555
H10A C12A 1_555 1_555
H9A C11A 1_555 1_555
H8A C10A 1_555 1_555
H7A C9A 1_555 1_555
H6A C8A 1_555 1_555
C13A N1A 1_555 1_555
C14A N2A 1_555 1_555
C15A C14A 1_555 1_555
C16A C15A 1_555 1_555
C17A C16A 1_555 1_555
C18A C13A 1_555 1_555
H14A C18A 1_555 1_555
H13A C17A 1_555 1_555
H12A C16A 1_555 1_555
H11A C15A 1_555 1_555
C1A P1A 1_555 1_555
C2A C1A 1_555 1_555
C3A C2A 1_555 1_555
C4A C3A 1_555 1_555
C5A C4A 1_555 1_555
C6A C1A 1_555 1_555
H5A C6A 1_555 1_555
H4A C5A 1_555 1_555
H3A C4A 1_555 1_555
H2A C3A 1_555 1_555
H1A C2A 1_555 1_555
C5 C6 1_555 1_555
C11 C12 1_555 1_555
C13 C14 1_555 1_555
C17 C18 1_555 1_555
N1A P2A 1_555 1_555
C11A C12A 1_555 1_555
C13A C14A 1_555 1_555
C17A C18A 1_555 1_555
C5A C6A 1_555 1_555

#END
