
#######################################################################
#
#                 Cambridge Crystallographic Data Centre
#                                CCDC 
#
#######################################################################
#
# If this CIF has been generated from an entry in the Cambridge 
# Structural Database, then it will include bibliographic, chemical, 
# crystal, experimental, refinement or atomic coordinate data resulting 
# from the CCDC's data processing and validation procedures.
#
#######################################################################

data_ZOLRUP
_chemical_formula_moiety         'C10 H16 B10 S2'
_chemical_name_systematic        
9,12-(1-phenylethene-1,2-diyl)-dithio-1,2-dicarba-closo-dodecaborane
_symmetry_cell_setting           orthorhombic
_symmetry_space_group_name_H-M   'P 21 21 2'
_symmetry_Int_Tables_number      18
_space_group_name_Hall           'P 2 2ab'
loop_
_symmetry_equiv_pos_site_id
_symmetry_equiv_pos_as_xyz
1 x,y,z
2 -x,-y,z
3 1/2-x,1/2+y,-z
4 1/2+x,1/2-y,-z
_cell_length_a                   13.4987(12)
_cell_length_b                   15.7269(14)
_cell_length_c                   7.9422(7)
_cell_angle_alpha                90
_cell_angle_beta                 90
_cell_angle_gamma                90
_cell_volume                     1686.07
_cell_formula_units_Z            4
loop_
_atom_site_label
_atom_site_type_symbol
_atom_site_fract_x
_atom_site_fract_y
_atom_site_fract_z
B1 B 0.53409(13) 0.20857(14) 0.0552(3)
B2 B 0.5400(2) 0.35679(16) 0.2635(4)
H1 H 0.5005 0.4063 0.3345
B3 B 0.66572(15) 0.20514(17) 0.0532(3)
H2 H 0.7076 0.1564 -0.0161
B4 B 0.49701(18) 0.31748(16) 0.0658(3)
H3 H 0.4287 0.3411 0.0066
B5 B 0.60194(16) 0.18142(15) 0.2424(3)
H4 H 0.6014 0.1172 0.2972
B6 B 0.6043(2) 0.27334(17) 0.3686(3)
H5 H 0.6057 0.2694 0.5069
B7 B 0.6038(2) 0.38009(18) 0.0741(4)
H6 H 0.6072 0.4448 0.0216
B8 B 0.49638(18) 0.25044(14) 0.2481(3)
B9 B 0.60101(18) 0.28878(19) -0.0546(3)
H7 H 0.6015 0.2939 -0.1927
B10 B 0.7084(2) 0.2457(2) 0.2477(4)
H8 H 0.7784 0.2251 0.3055
C1 C 0.69882(16) 0.30744(17) 0.0721(3)
H9 H 0.7686 0.3270 0.0119
C2 C 0.6638(2) 0.34664(17) 0.2518(3)
H10 H 0.7090 0.3943 0.3179
C3 C 0.39898(11) 0.07619(12) 0.1217(2)
H11 H 0.3867 0.0185 0.1065
C4 C 0.36907(12) 0.10691(11) 0.2689(2)
C5 C 0.32150(12) 0.04924(11) 0.3931(2)
C6 C 0.36531(13) 0.03260(12) 0.5474(3)
H12 H 0.4228 0.0614 0.5775
C7 C 0.32521(17) -0.02579(13) 0.6569(3)
H13 H 0.3571 -0.0377 0.7580
C8 C 0.23780(17) -0.06671(15) 0.6173(3)
H14 H 0.2100 -0.1056 0.6919
C9 C 0.19243(16) -0.04949(16) 0.4670(3)
H15 H 0.1333 -0.0767 0.4402
C10 C 0.23289(15) 0.00740(14) 0.3551(3)
H16 H 0.2011 0.0182 0.2534
S1 S 0.45805(3) 0.12624(3) -0.05018(6)
S2 S 0.37883(4) 0.21265(3) 0.34291(9)
loop_
_geom_bond_atom_site_label_1
_geom_bond_atom_site_label_2
_geom_bond_site_symmetry_1
_geom_bond_site_symmetry_2
B1 B3 1_555 1_555
B2 H1 1_555 1_555
B3 H2 1_555 1_555
B4 B1 1_555 1_555
H3 B4 1_555 1_555
B5 B1 1_555 1_555
H4 B5 1_555 1_555
B6 B2 1_555 1_555
H5 B6 1_555 1_555
B7 B2 1_555 1_555
H6 B7 1_555 1_555
B8 B1 1_555 1_555
B9 B1 1_555 1_555
H7 B9 1_555 1_555
B10 B3 1_555 1_555
H8 B10 1_555 1_555
C1 B3 1_555 1_555
H9 C1 1_555 1_555
C2 B2 1_555 1_555
H10 C2 1_555 1_555
C3 H11 1_555 1_555
C4 C3 1_555 1_555
C5 C4 1_555 1_555
C6 C5 1_555 1_555
H12 C6 1_555 1_555
C7 C6 1_555 1_555
H13 C7 1_555 1_555
C8 C7 1_555 1_555
H14 C8 1_555 1_555
C9 C8 1_555 1_555
H15 C9 1_555 1_555
C10 C5 1_555 1_555
H16 C10 1_555 1_555
S1 B1 1_555 1_555
S2 B8 1_555 1_555
B2 B4 1_555 1_555
B2 B8 1_555 1_555
B3 B5 1_555 1_555
B3 B9 1_555 1_555
B4 B7 1_555 1_555
B4 B8 1_555 1_555
B4 B9 1_555 1_555
B5 B6 1_555 1_555
B5 B8 1_555 1_555
B5 B10 1_555 1_555
B6 B8 1_555 1_555
B6 B10 1_555 1_555
B6 C2 1_555 1_555
B7 B9 1_555 1_555
B7 C1 1_555 1_555
B7 C2 1_555 1_555
B9 C1 1_555 1_555
B10 C1 1_555 1_555
B10 C2 1_555 1_555
C1 C2 1_555 1_555
C3 S1 1_555 1_555
C4 S2 1_555 1_555
C9 C10 1_555 1_555

#END
