
#######################################################################
#
#                 Cambridge Crystallographic Data Centre
#                                CCDC 
#
#######################################################################
#
# If this CIF has been generated from an entry in the Cambridge 
# Structural Database, then it will include bibliographic, chemical, 
# crystal, experimental, refinement or atomic coordinate data resulting 
# from the CCDC's data processing and validation procedures.
#
#######################################################################

data_ZOLSUQ
_chemical_formula_moiety         'C6 H14 B10 O1 S2'
_chemical_name_systematic        
9,12-(3-oxobut-1-ene-1,2-diyl)-dithio-1,2-dicarba-closo-dodecaborane
_symmetry_cell_setting           orthorhombic
_symmetry_space_group_name_H-M   'P b c a'
_symmetry_Int_Tables_number      61
_space_group_name_Hall           '-P 2ac 2ab'
loop_
_symmetry_equiv_pos_site_id
_symmetry_equiv_pos_as_xyz
1 x,y,z
2 1/2-x,-y,1/2+z
3 -x,1/2+y,1/2-z
4 1/2+x,1/2-y,-z
5 -x,-y,-z
6 1/2+x,y,1/2-z
7 x,1/2-y,1/2+z
8 1/2-x,1/2+y,z
_cell_length_a                   8.991(2)
_cell_length_b                   16.224(4)
_cell_length_c                   19.026(5)
_cell_angle_alpha                90
_cell_angle_beta                 90
_cell_angle_gamma                90
_cell_volume                     2775.32
_cell_formula_units_Z            8
loop_
_atom_site_label
_atom_site_type_symbol
_atom_site_fract_x
_atom_site_fract_y
_atom_site_fract_z
O1 O 0.40595(13) 0.44035(7) 0.34395(7)
S1 S 0.35311(4) 0.12760(2) 0.39198(2)
S2 S 0.58855(4) 0.31277(2) 0.39426(2)
C1 C 0.33604(17) 0.37633(9) 0.33941(8)
C2 C 0.40355(15) 0.29759(9) 0.36428(8)
C3 C 0.91635(18) 0.10959(10) 0.38780(8)
H1 H 1.0385 0.1056 0.3868
B1 B 0.66952(18) 0.20780(10) 0.39254(8)
B2 B 0.83522(18) 0.18809(10) 0.34358(9)
H2 H 0.8949 0.2364 0.3144
B3 B 0.8380(2) 0.18501(10) 0.43789(10)
H3 H 0.8991 0.2312 0.4688
B4 B 0.5597(2) 0.11912(10) 0.39117(8)
B5 B 0.66343(18) 0.14687(10) 0.31392(8)
H4 H 0.6101 0.1686 0.2653
B6 B 0.66818(19) 0.14086(10) 0.46771(9)
H5 H 0.6181 0.1584 0.5183
C4 C 0.81244(18) 0.02700(9) 0.38613(8)
H6 H 0.8622 -0.0349 0.3840
B7 B 0.65651(19) 0.03850(10) 0.43480(9)
H7 H 0.5996 -0.0110 0.4637
C5 C 0.32001(16) 0.22840(9) 0.36531(8)
H8 H 0.2243 0.2364 0.3480
B8 B 0.82494(19) 0.08522(10) 0.31144(9)
H9 H 0.8790 0.0658 0.2623
C6 C 0.18045(19) 0.37754(10) 0.30974(10)
H10 H 0.1524 0.4333 0.2992
H11 H 0.1126 0.3549 0.3436
H12 H 0.1773 0.3452 0.2675
B9 B 0.8295(2) 0.07973(11) 0.46405(10)
H13 H 0.8865 0.0569 0.5113
B10 B 0.65336(18) 0.04246(10) 0.34041(9)
H14 H 0.5941 -0.0042 0.3092
loop_
_geom_bond_atom_site_label_1
_geom_bond_atom_site_label_2
_geom_bond_site_symmetry_1
_geom_bond_site_symmetry_2
O1 C1 1_555 1_555
S1 B4 1_555 1_555
S2 C2 1_555 1_555
C1 C2 1_555 1_555
C2 C5 1_555 1_555
C3 H1 1_555 1_555
B1 S2 1_555 1_555
B2 C3 1_555 1_555
H2 B2 1_555 1_555
B3 C3 1_555 1_555
H3 B3 1_555 1_555
B4 B1 1_555 1_555
B5 B1 1_555 1_555
H4 B5 1_555 1_555
B6 B1 1_555 1_555
H5 B6 1_555 1_555
C4 C3 1_555 1_555
H6 C4 1_555 1_555
B7 B4 1_555 1_555
H7 B7 1_555 1_555
C5 S1 1_555 1_555
H8 C5 1_555 1_555
B8 C3 1_555 1_555
H9 B8 1_555 1_555
C6 C1 1_555 1_555
H10 C6 1_555 1_555
H11 C6 1_555 1_555
H12 C6 1_555 1_555
B9 C3 1_555 1_555
H13 B9 1_555 1_555
B10 B4 1_555 1_555
H14 B10 1_555 1_555
B1 B2 1_555 1_555
B1 B3 1_555 1_555
B2 B3 1_555 1_555
B2 B5 1_555 1_555
B2 B8 1_555 1_555
B3 B6 1_555 1_555
B3 B9 1_555 1_555
B4 B5 1_555 1_555
B4 B6 1_555 1_555
B5 B8 1_555 1_555
B5 B10 1_555 1_555
B6 B7 1_555 1_555
B6 B9 1_555 1_555
C4 B7 1_555 1_555
C4 B8 1_555 1_555
C4 B9 1_555 1_555
C4 B10 1_555 1_555
B7 B9 1_555 1_555
B7 B10 1_555 1_555
B8 B10 1_555 1_555

#END
