
#######################################################################
#
#                 Cambridge Crystallographic Data Centre
#                                CCDC 
#
#######################################################################
#
# If this CIF has been generated from an entry in the Cambridge 
# Structural Database, then it will include bibliographic, chemical, 
# crystal, experimental, refinement or atomic coordinate data resulting 
# from the CCDC's data processing and validation procedures.
#
#######################################################################

data_ZOLSEA
_chemical_formula_moiety         'C6 H14 B10 O2 S2'
_chemical_name_systematic        
9,12-(3-methoxy-3-oxoprop-1-ene-1,2-diyl)-dithio-1,2-dicarba-closo-dodecaborane
_symmetry_cell_setting           monoclinic
_symmetry_space_group_name_H-M   'P 21/n'
_symmetry_Int_Tables_number      14
_space_group_name_Hall           '-P 2yn'
loop_
_symmetry_equiv_pos_site_id
_symmetry_equiv_pos_as_xyz
1 x,y,z
2 1/2-x,1/2+y,1/2-z
3 -x,-y,-z
4 1/2+x,1/2-y,1/2+z
_cell_length_a                   7.386(3)
_cell_length_b                   17.219(6)
_cell_length_c                   11.397(4)
_cell_angle_alpha                90
_cell_angle_beta                 95.628(5)
_cell_angle_gamma                90
_cell_volume                     1442.48
_cell_formula_units_Z            4
loop_
_atom_site_label
_atom_site_type_symbol
_atom_site_fract_x
_atom_site_fract_y
_atom_site_fract_z
S1 S 0.49032(12) 0.14619(4) 0.28413(7)
S2 S 0.79595(11) -0.01056(4) 0.20210(6)
O1 O 0.3055(3) -0.05254(11) 0.38227(18)
B1 B 0.7917(4) 0.08577(17) 0.1285(2)
B2 B 0.6442(4) 0.15911(16) 0.1674(3)
O2 O 0.2433(3) 0.07034(12) 0.42370(19)
C1 C 0.5985(4) -0.01085(15) 0.2745(2)
C2 C 0.3313(4) 0.02380(16) 0.3755(2)
C3 C 0.4844(4) 0.04443(15) 0.3055(2)
C4 C 0.1623(5) -0.07801(18) 0.4505(3)
H1 H 0.1803 -0.0558 0.5281
H2 H 0.1644 -0.1336 0.4564
H3 H 0.0469 -0.0615 0.4126
B3 B 0.6003(5) 0.11212(19) 0.0267(3)
H4 H 0.4834 0.0733 0.0054
C5 C 0.7664(5) 0.25165(17) -0.0013(3)
H5 H 0.7578 0.3084 -0.0459
B4 B 0.5719(5) 0.21362(19) 0.0379(3)
H6 H 0.4375 0.2414 0.0232
B5 B 0.9884(5) 0.1298(2) 0.0811(3)
H7 H 1.1236 0.1024 0.0931
C6 C 0.9064(5) 0.18307(19) -0.0375(3)
H8 H 0.9967 0.1921 -0.1075
B6 B 0.7469(5) 0.25015(19) 0.1454(3)
H9 H 0.7249 0.3013 0.2002
B7 B 0.8841(5) 0.17121(19) 0.1992(3)
H10 H 0.9518 0.1707 0.2896
B8 B 0.8121(5) 0.09355(19) -0.0248(3)
H11 H 0.8344 0.0429 -0.0805
B9 B 0.6790(6) 0.1728(2) -0.0790(3)
H12 H 0.6171 0.1746 -0.1708
B10 B 0.9588(6) 0.2323(2) 0.0909(4)
H13 H 1.0745 0.2723 0.1077
H14 H 0.559(4) -0.0647(11) 0.297(2)
loop_
_geom_bond_atom_site_label_1
_geom_bond_atom_site_label_2
_geom_bond_site_symmetry_1
_geom_bond_site_symmetry_2
S1 B2 1_555 1_555
S2 B1 1_555 1_555
O1 C2 1_555 1_555
B1 B2 1_555 1_555
B2 B3 1_555 1_555
O2 C2 1_555 1_555
C1 S2 1_555 1_555
C2 C3 1_555 1_555
C3 S1 1_555 1_555
C4 O1 1_555 1_555
H1 C4 1_555 1_555
H2 C4 1_555 1_555
H3 C4 1_555 1_555
B3 B1 1_555 1_555
H4 B3 1_555 1_555
C5 H5 1_555 1_555
B4 B2 1_555 1_555
H6 B4 1_555 1_555
B5 B1 1_555 1_555
H7 B5 1_555 1_555
C6 C5 1_555 1_555
H8 C6 1_555 1_555
B6 B2 1_555 1_555
H9 B6 1_555 1_555
B7 B1 1_555 1_555
H10 B7 1_555 1_555
B8 B1 1_555 1_555
H11 B8 1_555 1_555
B9 B3 1_555 1_555
H12 B9 1_555 1_555
B10 C5 1_555 1_555
H13 B10 1_555 1_555
H14 C1 1_555 1_555
B2 B7 1_555 1_555
C1 C3 1_555 1_555
B3 B4 1_555 1_555
B3 B8 1_555 1_555
C5 B4 1_555 1_555
C5 B6 1_555 1_555
C5 B9 1_555 1_555
B4 B6 1_555 1_555
B4 B9 1_555 1_555
B5 C6 1_555 1_555
B5 B7 1_555 1_555
B5 B8 1_555 1_555
B5 B10 1_555 1_555
C6 B8 1_555 1_555
C6 B9 1_555 1_555
C6 B10 1_555 1_555
B6 B7 1_555 1_555
B6 B10 1_555 1_555
B7 B10 1_555 1_555
B8 B9 1_555 1_555

#END
