
#######################################################################
#
#                 Cambridge Crystallographic Data Centre
#                                CCDC 
#
#######################################################################
#
# If this CIF has been generated from an entry in the Cambridge 
# Structural Database, then it will include bibliographic, chemical, 
# crystal, experimental, refinement or atomic coordinate data resulting 
# from the CCDC's data processing and validation procedures.
#
#######################################################################

data_ZOLTOL
_chemical_formula_moiety         'C10 H15 B10 F1 S2'
_chemical_name_systematic        
9,12-(1-(4-fluorophenyl)ethene-1,2-diyl)-dithio-1,2-dicarba-closo-dodecaborane
_symmetry_cell_setting           orthorhombic
_symmetry_space_group_name_H-M   'P 21 21 21'
_symmetry_Int_Tables_number      19
_space_group_name_Hall           'P 2ac 2ab'
loop_
_symmetry_equiv_pos_site_id
_symmetry_equiv_pos_as_xyz
1 x,y,z
2 1/2-x,-y,1/2+z
3 -x,1/2+y,1/2-z
4 1/2+x,1/2-y,-z
_cell_length_a                   7.1833(14)
_cell_length_b                   11.771(2)
_cell_length_c                   19.299(4)
_cell_angle_alpha                90
_cell_angle_beta                 90
_cell_angle_gamma                90
_cell_volume                     1631.82
_cell_formula_units_Z            4
loop_
_atom_site_label
_atom_site_type_symbol
_atom_site_fract_x
_atom_site_fract_y
_atom_site_fract_z
S1 S 0.62472(14) 0.90568(9) 0.09421(6)
S2 S 0.83287(17) 0.76025(11) 0.24342(6)
B1 B 0.5563(6) 0.7591(4) 0.1186(3)
C1 C 1.1112(9) 1.2339(5) 0.0770(3)
C2 C 0.9284(7) 1.0386(4) 0.1167(2)
B2 B 0.6554(7) 0.6879(4) 0.1895(3)
C3 C 0.8303(6) 0.9334(4) 0.1418(3)
F1 F 1.2007(7) 1.3311(3) 0.0595(2)
B3 B 0.7076(7) 0.6401(4) 0.1024(3)
H1 H 0.8455 0.6498 0.0783
C4 C 0.9195(9) 1.2359(4) 0.0833(3)
H2 H 0.8516 1.3014 0.0740
B4 B 0.3205(7) 0.7108(4) 0.1093(3)
H3 H 0.2085 0.7653 0.0891
C5 C 0.3443(7) 0.5699(4) 0.0936(3)
H4 H 0.2377 0.5292 0.0610
B5 B 0.4995(7) 0.6561(4) 0.0541(3)
H5 H 0.5013 0.6758 -0.0016
C6 C 0.8330(8) 1.1369(4) 0.1039(3)
H6 H 0.7043 1.1370 0.1092
C7 C 0.9000(7) 0.8790(4) 0.1954(3)
H7 H 1.0103 0.9112 0.2113
C8 C 0.4400(7) 0.5031(4) 0.1603(3)
H8 H 0.3999 0.4160 0.1745
B6 B 0.6660(8) 0.5393(5) 0.1690(3)
H9 H 0.7769 0.4830 0.1881
C9 C 1.1224(7) 1.0410(5) 0.1090(3)
H10 H 1.1905 0.9753 0.1175
B7 B 0.4879(7) 0.5936(5) 0.2256(3)
H11 H 0.4849 0.5719 0.2810
B8 B 0.5677(8) 0.5207(4) 0.0863(3)
H12 H 0.6110 0.4510 0.0519
C10 C 1.2144(7) 1.1376(5) 0.0894(3)
H13 H 1.3432 1.1381 0.0846
B9 B 0.4156(7) 0.7284(5) 0.1938(3)
H14 H 0.3647 0.7952 0.2289
B10 B 0.2802(8) 0.6083(5) 0.1760(4)
H15 H 0.1414 0.5946 0.1987
loop_
_geom_bond_atom_site_label_1
_geom_bond_atom_site_label_2
_geom_bond_site_symmetry_1
_geom_bond_site_symmetry_2
S1 B1 1_555 1_555
S2 B2 1_555 1_555
B1 B2 1_555 1_555
C1 F1 1_555 1_555
C2 C3 1_555 1_555
B2 B3 1_555 1_555
C3 S1 1_555 1_555
B3 B1 1_555 1_555
H1 B3 1_555 1_555
C4 C1 1_555 1_555
H2 C4 1_555 1_555
B4 B1 1_555 1_555
H3 B4 1_555 1_555
C5 B4 1_555 1_555
H4 C5 1_555 1_555
B5 B1 1_555 1_555
H5 B5 1_555 1_555
C6 C2 1_555 1_555
H6 C6 1_555 1_555
C7 S2 1_555 1_555
H7 C7 1_555 1_555
C8 C5 1_555 1_555
H8 C8 1_555 1_555
B6 B2 1_555 1_555
H9 B6 1_555 1_555
C9 C2 1_555 1_555
H10 C9 1_555 1_555
B7 B2 1_555 1_555
H11 B7 1_555 1_555
B8 B3 1_555 1_555
H12 B8 1_555 1_555
C10 C1 1_555 1_555
H13 C10 1_555 1_555
B9 B1 1_555 1_555
H14 B9 1_555 1_555
B10 B4 1_555 1_555
H15 B10 1_555 1_555
B2 B9 1_555 1_555
C3 C7 1_555 1_555
B3 B5 1_555 1_555
B3 B6 1_555 1_555
C4 C6 1_555 1_555
B4 B5 1_555 1_555
B4 B9 1_555 1_555
C5 B5 1_555 1_555
C5 B8 1_555 1_555
C5 B10 1_555 1_555
B5 B8 1_555 1_555
C8 B6 1_555 1_555
C8 B7 1_555 1_555
C8 B8 1_555 1_555
C8 B10 1_555 1_555
B6 B7 1_555 1_555
B6 B8 1_555 1_555
C9 C10 1_555 1_555
B7 B9 1_555 1_555
B7 B10 1_555 1_555
B9 B10 1_555 1_555

#END
