
#######################################################################
#
#                 Cambridge Crystallographic Data Centre
#                                CCDC 
#
#######################################################################
#
# If this CIF has been generated from an entry in the Cambridge 
# Structural Database, then it will include bibliographic, chemical, 
# crystal, experimental, refinement or atomic coordinate data resulting 
# from the CCDC's data processing and validation procedures.
#
#######################################################################

data_ZOLTIF
_chemical_formula_moiety         'C10 H15 B10 F1 S2'
_chemical_name_systematic        
9,12-(1-(2-fluorophenyl)ethene-1,2-diyl)-dithio-1,2-dicarba-closo-dodecaborane
_symmetry_cell_setting           monoclinic
_symmetry_space_group_name_H-M   'P 21/c'
_symmetry_Int_Tables_number      14
_space_group_name_Hall           '-P 2ybc'
loop_
_symmetry_equiv_pos_site_id
_symmetry_equiv_pos_as_xyz
1 x,y,z
2 -x,1/2+y,1/2-z
3 -x,-y,-z
4 x,1/2-y,1/2+z
_cell_length_a                   7.3896(12)
_cell_length_b                   12.286(2)
_cell_length_c                   19.193(3)
_cell_angle_alpha                90
_cell_angle_beta                 107.397(6)
_cell_angle_gamma                90
_cell_volume                     1662.8
_cell_formula_units_Z            4
loop_
_atom_site_label
_atom_site_type_symbol
_atom_site_fract_x
_atom_site_fract_y
_atom_site_fract_z
S1 S 1.12036(17) 0.97248(10) 0.88886(7)
S2 S 0.61469(18) 0.96869(12) 0.86462(9)
F1 F 0.9235(7) 0.6601(3) 0.9370(3)
C1 C 0.8999(8) 1.2211(5) 0.7191(3)
H1 H 0.9637 1.2762 0.6878
C2 C 0.6714(8) 1.2195(4) 0.7078(3)
H2 H 0.5728 1.2736 0.6686
C3 C 0.9787(8) 0.8919(4) 0.9242(3)
H3 H 1.0483 0.8419 0.9580
C4 C 0.8017(7) 0.8846(4) 0.9151(3)
C5 C 0.7270(7) 0.7974(4) 0.9587(3)
C6 C 0.5860(7) 0.8211(4) 0.9885(3)
H4 H 0.5377 0.8916 0.9832
C7 C 0.5107(8) 0.7475(5) 1.0260(3)
H5 H 0.4118 0.7678 1.0439
C8 C 0.5827(9) 0.6430(5) 1.0370(3)
H6 H 0.5366 0.5925 1.0636
C9 C 0.7264(10) 0.6156(5) 1.0069(4)
H7 H 0.7778 0.5459 1.0126
C10 C 0.7915(8) 0.6939(5) 0.9683(3)
B1 B 0.8167(9) 1.2779(5) 0.7840(4)
H8 H 0.8209 1.3655 0.7960
B2 B 1.0231(8) 1.1980(4) 0.8075(3)
H9 H 1.1622 1.2327 0.8367
B3 B 0.9961(9) 1.0968(5) 0.7373(3)
H10 H 1.1178 1.0659 0.7214
B4 B 0.7703(10) 1.1173(6) 0.6729(3)
H11 H 0.7437 1.1039 0.6141
B5 B 0.5959(8) 1.0927(5) 0.7162(3)
H12 H 0.4565 1.0590 0.6862
B6 B 0.8041(8) 1.0132(5) 0.7377(3)
H13 H 0.7996 0.9271 0.7217
B7 B 0.9580(6) 1.0644(4) 0.8222(3)
B8 B 0.8481(8) 1.1770(4) 0.8510(3)
H14 H 0.8716 1.1985 0.9087
B9 B 0.6234(8) 1.1934(5) 0.7870(3)
H15 H 0.5005 1.2245 0.8020
B10 B 0.7157(7) 1.0601(4) 0.8094(3)
loop_
_geom_bond_atom_site_label_1
_geom_bond_atom_site_label_2
_geom_bond_site_symmetry_1
_geom_bond_site_symmetry_2
S1 C3 1_555 1_555
S2 C4 1_555 1_555
F1 C10 1_555 1_555
C1 H1 1_555 1_555
C2 C1 1_555 1_555
H2 C2 1_555 1_555
C3 H3 1_555 1_555
C4 C3 1_555 1_555
C5 C4 1_555 1_555
C6 C5 1_555 1_555
H4 C6 1_555 1_555
C7 C6 1_555 1_555
H5 C7 1_555 1_555
C8 C7 1_555 1_555
H6 C8 1_555 1_555
C9 C8 1_555 1_555
H7 C9 1_555 1_555
C10 C5 1_555 1_555
B1 C1 1_555 1_555
H8 B1 1_555 1_555
B2 C1 1_555 1_555
H9 B2 1_555 1_555
B3 C1 1_555 1_555
H10 B3 1_555 1_555
B4 C1 1_555 1_555
H11 B4 1_555 1_555
B5 C2 1_555 1_555
H12 B5 1_555 1_555
B6 B3 1_555 1_555
H13 B6 1_555 1_555
B7 S1 1_555 1_555
B8 B1 1_555 1_555
H14 B8 1_555 1_555
B9 C2 1_555 1_555
H15 B9 1_555 1_555
B10 S2 1_555 1_555
C2 B1 1_555 1_555
C2 B4 1_555 1_555
C9 C10 1_555 1_555
B1 B2 1_555 1_555
B1 B9 1_555 1_555
B2 B3 1_555 1_555
B2 B7 1_555 1_555
B2 B8 1_555 1_555
B3 B4 1_555 1_555
B3 B7 1_555 1_555
B4 B5 1_555 1_555
B4 B6 1_555 1_555
B5 B6 1_555 1_555
B5 B9 1_555 1_555
B5 B10 1_555 1_555
B6 B7 1_555 1_555
B6 B10 1_555 1_555
B7 B8 1_555 1_555
B7 B10 1_555 1_555
B8 B9 1_555 1_555
B8 B10 1_555 1_555
B9 B10 1_555 1_555

#END
