
#######################################################################
#
#                 Cambridge Crystallographic Data Centre
#                                CCDC 
#
#######################################################################
#
# If this CIF has been generated from an entry in the Cambridge 
# Structural Database, then it will include bibliographic, chemical, 
# crystal, experimental, refinement or atomic coordinate data resulting 
# from the CCDC's data processing and validation procedures.
#
#######################################################################

data_ZOLTAX
_chemical_formula_moiety         'C9 H14 B10 O2 S2'
_chemical_name_systematic        
9,12-(3-(furan-2-yl)-3-oxoprop-1-ene-1,2-diyll)-dithio-1,2-dicarba-closo-dodecaborane
_symmetry_cell_setting           orthorhombic
_symmetry_space_group_name_H-M   'P c a 21'
_symmetry_Int_Tables_number      29
_space_group_name_Hall           'P 2c -2ac'
loop_
_symmetry_equiv_pos_site_id
_symmetry_equiv_pos_as_xyz
1 x,y,z
2 -x,-y,1/2+z
3 1/2+x,-y,z
4 1/2-x,y,1/2+z
_cell_length_a                   21.296(3)
_cell_length_b                   7.2966(11)
_cell_length_c                   20.159(3)
_cell_angle_alpha                90
_cell_angle_beta                 90
_cell_angle_gamma                90
_cell_volume                     3132.47
_cell_formula_units_Z            8
loop_
_atom_site_label
_atom_site_type_symbol
_atom_site_fract_x
_atom_site_fract_y
_atom_site_fract_z
S1 S 0.48751(5) 0.46367(15) 0.22890(5)
S2 S 0.48898(4) 0.75785(13) 0.37316(6)
O1 O 0.67481(14) 0.6160(4) 0.47199(15)
O2 O 0.65933(14) 0.6002(5) 0.34212(16)
B1 B 0.4151(2) 0.4997(6) 0.2776(2)
B2 B 0.40706(19) 0.3968(6) 0.3581(2)
H1 H 0.4438 0.3109 0.3805
C1 C 0.54839(18) 0.6152(5) 0.3402(2)
C2 C 0.54702(18) 0.5120(5) 0.28525(19)
H2 H 0.5851 0.4556 0.2754
C3 C 0.61457(19) 0.6214(5) 0.4468(2)
C4 C 0.61123(18) 0.6150(5) 0.3750(2)
C5 C 0.29222(18) 0.5597(5) 0.36588(19)
H3 H 0.2496 0.5801 0.3959
B3 B 0.3392(2) 0.5095(7) 0.2406(2)
H4 H 0.3313 0.4942 0.1870
C6 C 0.29149(19) 0.4270(6) 0.3005(2)
H5 H 0.2487 0.3547 0.2847
B4 B 0.3402(2) 0.7422(6) 0.3562(2)
H6 H 0.3331 0.8785 0.3782
B5 B 0.41560(19) 0.6408(5) 0.3475(2)
C7 C 0.5727(2) 0.6162(6) 0.4970(2)
H7 H 0.5291 0.6178 0.4932
B6 B 0.3615(2) 0.5486(6) 0.4062(2)
H8 H 0.3681 0.5617 0.4601
B7 B 0.2935(2) 0.6617(6) 0.2895(2)
H9 H 0.2553 0.7446 0.2683
B8 B 0.3727(2) 0.7111(6) 0.2752(2)
H10 H 0.3870 0.8275 0.2440
C8 C 0.6684(2) 0.6079(6) 0.5389(2)
H11 H 0.7017 0.6030 0.5688
C9 C 0.6074(2) 0.6078(7) 0.5563(2)
H12 H 0.5913 0.6031 0.5992
B9 B 0.3271(2) 0.3491(6) 0.3709(2)
H13 H 0.3102 0.2340 0.4014
B10 B 0.3606(2) 0.3172(6) 0.2912(2)
H14 H 0.3668 0.1796 0.2698
S3 S 0.77007(5) 0.90148(15) 0.69327(5)
S4 S 0.77720(4) 1.21444(14) 0.55202(6)
C10 C 0.65094(18) 1.1198(5) 0.5541(2)
O3 O 0.60312(14) 1.1353(5) 0.58722(17)
O4 O 0.58830(14) 1.1532(4) 0.45579(16)
B11 B 0.8462(2) 1.0751(6) 0.5764(2)
C11 C 0.96780(17) 0.9684(5) 0.5566(2)
H15 H 1.0107 0.9827 0.5267
B12 B 0.8984(2) 0.9790(6) 0.5168(2)
H16 H 0.8925 1.0007 0.4631
B13 B 0.8432(2) 0.9268(6) 0.6442(2)
B14 B 0.8913(2) 1.1276(6) 0.6493(2)
H17 H 0.8804 1.2441 0.6819
C12 C 0.71354(18) 1.0932(5) 0.5871(2)
C13 C 0.96443(17) 0.8287(5) 0.6200(2)
H18 H 1.0051 0.7449 0.6345
B15 B 0.9184(2) 0.9150(6) 0.6817(2)
H19 H 0.9252 0.8924 0.7351
B16 B 0.8482(2) 0.8319(6) 0.5621(2)
H20 H 0.8094 0.7575 0.5383
C14 C 0.71201(18) 0.9851(5) 0.6409(2)
H21 H 0.6718 0.9475 0.6526
B17 B 0.9690(2) 1.0599(6) 0.6347(2)
H22 H 1.0095 1.1299 0.6572
C15 C 0.6500(3) 1.0783(6) 0.3722(3)
H23 H 0.6641 1.0544 0.3294
C16 C 0.6465(2) 1.1183(5) 0.4815(2)
B18 B 0.92432(19) 1.1596(6) 0.5698(2)
H24 H 0.9351 1.2968 0.5502
B19 B 0.9272(2) 0.7672(6) 0.5490(2)
H25 H 0.9409 0.6517 0.5171
B20 B 0.8926(2) 0.7343(6) 0.6286(2)
H26 H 0.8828 0.5966 0.6483
C17 C 0.5926(2) 1.1267(6) 0.3891(2)
H27 H 0.5595 1.1409 0.3595
C18 C 0.6866(2) 1.0692(6) 0.4318(2)
H28 H 0.7287 1.0367 0.4358
loop_
_geom_bond_atom_site_label_1
_geom_bond_atom_site_label_2
_geom_bond_site_symmetry_1
_geom_bond_site_symmetry_2
S1 B1 1_555 1_555
S2 C1 1_555 1_555
O1 C3 1_555 1_555
O2 C4 1_555 1_555
B1 B2 1_555 1_555
B2 H1 1_555 1_555
C1 C2 1_555 1_555
C2 S1 1_555 1_555
H2 C2 1_555 1_555
C3 C4 1_555 1_555
C4 C1 1_555 1_555
C5 H3 1_555 1_555
B3 B1 1_555 1_555
H4 B3 1_555 1_555
C6 C5 1_555 1_555
H5 C6 1_555 1_555
B4 C5 1_555 1_555
H6 B4 1_555 1_555
B5 S2 1_555 1_555
C7 C3 1_555 1_555
H7 C7 1_555 1_555
B6 B2 1_555 1_555
H8 B6 1_555 1_555
B7 C5 1_555 1_555
H9 B7 1_555 1_555
B8 B1 1_555 1_555
H10 B8 1_555 1_555
C8 O1 1_555 1_555
H11 C8 1_555 1_555
C9 C7 1_555 1_555
H12 C9 1_555 1_555
B9 B2 1_555 1_555
H13 B9 1_555 1_555
B10 B1 1_555 1_555
H14 B10 1_555 1_555
S3 B13 1_555 1_555
S4 B11 1_555 1_555
C10 O3 1_555 1_555
O4 C16 1_555 1_555
B11 B12 1_555 1_555
C11 H15 1_555 1_555
B12 C11 1_555 1_555
H16 B12 1_555 1_555
B13 B11 1_555 1_555
B14 B11 1_555 1_555
H17 B14 1_555 1_555
C12 S4 1_555 1_555
C13 C11 1_555 1_555
H18 C13 1_555 1_555
B15 B13 1_555 1_555
H19 B15 1_555 1_555
B16 B11 1_555 1_555
H20 B16 1_555 1_555
C14 S3 1_555 1_555
H21 C14 1_555 1_555
B17 C11 1_555 1_555
H22 B17 1_555 1_555
C15 H23 1_555 1_555
C16 C10 1_555 1_555
B18 B11 1_555 1_555
H24 B18 1_555 1_555
B19 C11 1_555 1_555
H25 B19 1_555 1_555
B20 B13 1_555 1_555
H26 B20 1_555 1_555
C17 O4 1_555 1_555
H27 C17 1_555 1_555
C18 C15 1_555 1_555
H28 C18 1_555 1_555
B1 B5 1_555 1_555
B2 B5 1_555 1_555
B2 B10 1_555 1_555
C5 B6 1_555 1_555
C5 B9 1_555 1_555
B3 C6 1_555 1_555
B3 B7 1_555 1_555
B3 B8 1_555 1_555
B3 B10 1_555 1_555
C6 B7 1_555 1_555
C6 B9 1_555 1_555
C6 B10 1_555 1_555
B4 B5 1_555 1_555
B4 B6 1_555 1_555
B4 B7 1_555 1_555
B4 B8 1_555 1_555
B5 B6 1_555 1_555
B5 B8 1_555 1_555
B6 B9 1_555 1_555
B7 B8 1_555 1_555
C8 C9 1_555 1_555
B9 B10 1_555 1_555
C10 C12 1_555 1_555
C11 B18 1_555 1_555
B12 B16 1_555 1_555
B12 B18 1_555 1_555
B12 B19 1_555 1_555
B13 B14 1_555 1_555
B13 B16 1_555 1_555
B14 B15 1_555 1_555
B14 B17 1_555 1_555
B14 B18 1_555 1_555
C12 C14 1_555 1_555
C13 B15 1_555 1_555
C13 B17 1_555 1_555
C13 B19 1_555 1_555
C13 B20 1_555 1_555
B15 B17 1_555 1_555
B15 B20 1_555 1_555
B16 B19 1_555 1_555
B16 B20 1_555 1_555
B17 B18 1_555 1_555
C15 C17 1_555 1_555
C16 C18 1_555 1_555
B19 B20 1_555 1_555

#END
