
#######################################################################
#
#                 Cambridge Crystallographic Data Centre
#                                CCDC 
#
#######################################################################
#
# If this CIF has been generated from an entry in the Cambridge 
# Structural Database, then it will include bibliographic, chemical, 
# crystal, experimental, refinement or atomic coordinate data resulting 
# from the CCDC's data processing and validation procedures.
#
#######################################################################

data_ZOMCIN
_chemical_formula_moiety         'C20 H26 N2 O1 S1'
_chemical_name_systematic        
(-)-3-((S)-((2R,5S)-4-Allyl-2,5-dimethyl-1-piperazinyl)(3-thienyl)methyl)phenol
_symmetry_cell_setting           monoclinic
_symmetry_space_group_name_H-M   'P 21'
_symmetry_Int_Tables_number      4
_space_group_name_Hall           'P 2yb'
loop_
_symmetry_equiv_pos_site_id
_symmetry_equiv_pos_as_xyz
1 x,y,z
2 -x,1/2+y,-z
_cell_length_a                   7.066(1)
_cell_length_b                   16.508(4)
_cell_length_c                   8.667(2)
_cell_angle_alpha                90
_cell_angle_beta                 109.59(1)
_cell_angle_gamma                90
_cell_volume                     952.448
_exptl_crystal_colour            colorless
_chemical_melting_point          193-194deg.C
_cell_formula_units_Z            2
loop_
_atom_site_label
_atom_site_type_symbol
_atom_site_fract_x
_atom_site_fract_y
_atom_site_fract_z
S1 S 0.9042(2) 0.5657 0.0697(2)
O1 O -0.1903(4) 0.3009(2) -0.3568(3)
N1 N 0.4632(3) 0.3366(2) 0.0740(2)
N2 N 0.4906(3) 0.2553(2) 0.3740(2)
C1 C 0.7866(5) 0.4819(2) -0.0123(4)
C2 C 0.7412 0.5966 0.1649
C3 C 0.5746(5) 0.5320(2) 0.1128(4)
C4 C 0.6093(4) 0.4690(2) 0.0167(3)
C5 C 0.4771(4) 0.3956(2) -0.0494(3)
C6 C 0.2645(4) 0.4153(2) -0.1649(3)
C7 C 0.2111(5) 0.4902(5) -0.2370(4)
C8 C 0.0223(5) 0.5010(2) -0.3547(4)
C9 C -0.1140(4) 0.4396(2) -0.3997(4)
C10 C -0.0645(4) 0.3652(2) -0.3251(3)
C11 C 0.1244(4) 0.3537(2) -0.2088(3)
C12 C 0.3743(4) 0.3699(2) 0.1894(3)
C13 C 0.3118(4) 0.3035(2) 0.2832(3)
C14 C 0.5888(4) 0.2253(2) 0.2590(3)
C15 C 0.6450(4) 0.2910(2) 0.1618(3)
C16 C 0.7438(5) 0.2523(2) 0.0481(4)
C17 C 0.2104(5) 0.3403(2) 0.3953(4)
C18 C 0.4295(5) 0.1851(2) 0.4546(4)
C19 C 0.6017(6) 0.1351(2) 0.5556(4)
C20 C 0.6204(6) 0.0583(3) 0.5364(6)
S2? S 0.7412(4) 0.5966(2) 0.1649(3)
C21? C 0.9042 0.5657 0.0697
loop_
_geom_bond_atom_site_label_1
_geom_bond_atom_site_label_2
_geom_bond_site_symmetry_1
_geom_bond_site_symmetry_2
S1 C1 1_555 1_555
O1 C10 1_555 1_555
N1 C5 1_555 1_555
N2 C13 1_555 1_555
C1 C4 1_555 1_555
C2 S1 1_555 1_555
C3 C2 1_555 1_555
C4 C3 1_555 1_555
C5 C4 1_555 1_555
C6 C5 1_555 1_555
C7 C6 1_555 1_555
C8 C7 1_555 1_555
C9 C8 1_555 1_555
C10 C9 1_555 1_555
C11 C6 1_555 1_555
C12 N1 1_555 1_555
C13 C12 1_555 1_555
C14 N2 1_555 1_555
C15 N1 1_555 1_555
C16 C15 1_555 1_555
C17 C13 1_555 1_555
C18 N2 1_555 1_555
C19 C18 1_555 1_555
C20 C19 1_555 1_555
C10 C11 1_555 1_555
C14 C15 1_555 1_555

#END
