
#######################################################################
#
#                 Cambridge Crystallographic Data Centre
#                                CCDC 
#
#######################################################################
#
# If this CIF has been generated from an entry in the Cambridge 
# Structural Database, then it will include bibliographic, chemical, 
# crystal, experimental, refinement or atomic coordinate data resulting 
# from the CCDC's data processing and validation procedures.
#
#######################################################################

data_ZOMDEM
_chemical_formula_moiety         'C76 H104 Si2,3(C4 H8 O1)'
_chemical_name_systematic        1,2-bis(1-naphthyl)disilene
_symmetry_cell_setting           tetragonal
_symmetry_space_group_name_H-M   'P 4/n c c'
_symmetry_Int_Tables_number      130
_space_group_name_Hall           '-P 4a 2ac'
loop_
_symmetry_equiv_pos_site_id
_symmetry_equiv_pos_as_xyz
1 x,y,z
2 1/2-y,x,z
3 1/2-x,1/2-y,z
4 y,1/2-x,z
5 1/2+x,-y,1/2-z
6 -y,-x,1/2-z
7 -x,1/2+y,1/2-z
8 1/2+y,1/2+x,1/2-z
9 -x,-y,-z
10 1/2+y,-x,-z
11 1/2+x,1/2+y,-z
12 -y,1/2+x,-z
13 1/2-x,y,1/2+z
14 y,x,1/2+z
15 x,1/2-y,1/2+z
16 1/2-y,1/2-x,1/2+z
_cell_length_a                   21.2938(2)
_cell_length_b                   21.2938(2)
_cell_length_c                   33.2603(3)
_cell_angle_alpha                90
_cell_angle_beta                 90
_cell_angle_gamma                90
_cell_volume                     15081.1
_exptl_crystal_colour            red
_exptl_crystal_description       block
_cell_formula_units_Z            8
loop_
_atom_site_label
_atom_site_type_symbol
_atom_site_fract_x
_atom_site_fract_y
_atom_site_fract_z
Si1 Si 0.412307(18) 0.538446(18) 0.273790(11)
C1 C 0.42493(6) 0.55218(6) 0.32951(4)
C2 C 0.46535(6) 0.51246(6) 0.35228(4)
C3 C 0.51273(7) 0.46281(7) 0.33751(4)
C4 C 0.53596(7) 0.43148(7) 0.37738(4)
H1 H 0.5230 0.3868 0.3779
H2 H 0.5824 0.4332 0.3787
C5 C 0.50745(7) 0.46650(7) 0.41400(4)
C6 C 0.46485(7) 0.51457(7) 0.39447(4)
C7 C 0.42614(7) 0.55596(7) 0.41502(4)
H3 H 0.4255 0.5563 0.4436
C8 C 0.38825(7) 0.59692(7) 0.39333(4)
C9 C 0.34313(7) 0.64391(7) 0.41166(4)
C10 C 0.31058(7) 0.67269(7) 0.37416(4)
H4 H 0.3150 0.7190 0.3746
H5 H 0.2652 0.6625 0.3746
C11 C 0.34119(6) 0.64579(6) 0.33519(4)
C12 C 0.38741(6) 0.59595(6) 0.35125(4)
C13 C 0.56758(7) 0.49389(7) 0.31434(4)
H6 H 0.5961 0.4603 0.3048
H7 H 0.5501 0.5150 0.2903
C14 C 0.60641(8) 0.54167(8) 0.33782(5)
H8 H 0.6361 0.5624 0.3196
H9 H 0.6296 0.5202 0.3592
H10 H 0.5784 0.5731 0.3497
C15 C 0.48074(7) 0.41318(7) 0.31072(4)
H11 H 0.4448 0.3951 0.3257
H12 H 0.4636 0.4345 0.2866
C16 C 0.52308(8) 0.35942(7) 0.29686(5)
H13 H 0.4977 0.3276 0.2831
H14 H 0.5438 0.3405 0.3202
H15 H 0.5549 0.3757 0.2783
C17 C 0.55712(8) 0.50018(8) 0.43991(5)
H16 H 0.5800 0.5303 0.4226
H17 H 0.5351 0.5248 0.4608
C18 C 0.60524(9) 0.45783(10) 0.46061(6)
H18 H 0.6362 0.4838 0.4747
H19 H 0.6266 0.4320 0.4404
H20 H 0.5838 0.4305 0.4800
C19 C 0.46910(8) 0.42187(8) 0.44144(5)
H21 H 0.4974 0.3883 0.4512
H22 H 0.4548 0.4459 0.4652
C20 C 0.41221(9) 0.39121(9) 0.42208(6)
H23 H 0.3908 0.3646 0.4419
H24 H 0.4258 0.3654 0.3993
H25 H 0.3833 0.4238 0.4126
C21 C 0.38065(7) 0.69291(7) 0.43616(4)
H26 H 0.4025 0.6709 0.4583
H27 H 0.4133 0.7113 0.4185
C22 C 0.34182(8) 0.74650(8) 0.45408(5)
H28 H 0.3698 0.7763 0.4676
H29 H 0.3118 0.7294 0.4735
H30 H 0.3190 0.7681 0.4326
C23 C 0.29534(7) 0.61104(7) 0.43961(4)
H31 H 0.3178 0.5964 0.4639
H32 H 0.2639 0.6425 0.4484
C24 C 0.26047(9) 0.55518(8) 0.42125(5)
H33 H 0.2295 0.5393 0.4405
H34 H 0.2906 0.5218 0.4148
H35 H 0.2390 0.5686 0.3966
C25 C 0.37606(7) 0.69731(7) 0.31111(4)
H36 H 0.3981 0.6769 0.2884
H37 H 0.3443 0.7261 0.2995
C26 C 0.42375(7) 0.73663(7) 0.33437(5)
H38 H 0.4468 0.7636 0.3156
H39 H 0.4533 0.7088 0.3483
H40 H 0.4018 0.7627 0.3541
C27 C 0.29004(6) 0.61548(7) 0.30855(4)
H41 H 0.3105 0.5977 0.2844
H42 H 0.2712 0.5801 0.3236
C28 C 0.23727(7) 0.65900(7) 0.29485(5)
H43 H 0.2081 0.6357 0.2776
H44 H 0.2551 0.6943 0.2797
H45 H 0.2147 0.6750 0.3184
C29 C 0.35122(6) 0.47892(6) 0.25883(4)
C30 C 0.34640(7) 0.46798(7) 0.21797(4)
H46 H 0.3743 0.4895 0.2004
C31 C 0.30199(8) 0.42640(7) 0.20111(5)
H47 H 0.3007 0.4202 0.1728
C32 C 0.26107(7) 0.39517(7) 0.22539(5)
H48 H 0.2308 0.3676 0.2140
C33 C 0.26346(7) 0.40357(7) 0.26761(5)
C34 C 0.22191(7) 0.36985(8) 0.29302(6)
H49 H 0.1916 0.3427 0.2813
C35 C 0.22435(8) 0.37549(8) 0.33364(6)
H50 H 0.1963 0.3522 0.3501
C36 C 0.26854(8) 0.41600(7) 0.35112(5)
H51 H 0.2701 0.4202 0.3795
C37 C 0.30965(7) 0.44975(7) 0.32766(5)
H52 H 0.3392 0.4768 0.3402
C38 C 0.30890(6) 0.44511(6) 0.28502(4)
Si1E Si 0.461554(18) 0.587693(18) 0.226210(11)
C1E C 0.44782(6) 0.57507(6) 0.17049(4)
C2E C 0.48754(6) 0.53465(6) 0.14772(4)
C3E C 0.53719(7) 0.48727(7) 0.16249(4)
C4E C 0.56852(7) 0.46404(7) 0.12262(4)
H1E H 0.6132 0.4770 0.1221
H2E H 0.5668 0.4176 0.1213
C5E C 0.53350(7) 0.49255(7) 0.08600(4)
C6E C 0.48543(7) 0.53515(7) 0.10553(4)
C7E C 0.44404(7) 0.57386(7) 0.08498(4)
H3E H 0.4437 0.5745 0.0564
C8E C 0.40308(7) 0.61175(7) 0.10667(4)
C9E C 0.35609(7) 0.65687(7) 0.08834(4)
C10E C 0.32731(7) 0.68942(7) 0.12584(4)
H4E H 0.2810 0.6850 0.1254
H5E H 0.3375 0.7348 0.1254
C11E C 0.35421(6) 0.65881(6) 0.16481(4)
C12E C 0.40405(6) 0.61259(6) 0.14875(4)
C13E C 0.50611(7) 0.43242(7) 0.18566(4)
H6E H 0.5397 0.4039 0.1952
H7E H 0.4850 0.4499 0.2097
C14E C 0.45833(8) 0.39359(8) 0.16218(5)
H8E H 0.4376 0.3639 0.1804
H9E H 0.4798 0.3704 0.1408
H10E H 0.4269 0.4216 0.1503
C15E C 0.58682(7) 0.51926(7) 0.18928(4)
H11E H 0.6049 0.5552 0.1743
H12E H 0.5655 0.5364 0.2134
C16E C 0.64058(7) 0.47692(8) 0.20314(5)
H13E H 0.6724 0.5023 0.2169
H14E H 0.6595 0.4562 0.1798
H15E H 0.6243 0.4451 0.2217
C17E C 0.49982(8) 0.44288(8) 0.06009(5)
H16E H 0.4697 0.4200 0.0774
H17E H 0.4752 0.4649 0.0392
C18E C 0.54217(10) 0.39476(9) 0.03939(6)
H18E H 0.5162 0.3638 0.0253
H19E H 0.5680 0.3734 0.0596
H20E H 0.5695 0.4162 0.0200
C19E C 0.57813(8) 0.53090(8) 0.05856(5)
H21E H 0.6117 0.5026 0.0488
H22E H 0.5541 0.5452 0.0348
C20E C 0.60879(9) 0.58779(9) 0.07792(6)
H23E H 0.6354 0.6092 0.0581
H24E H 0.6346 0.5742 0.1007
H25E H 0.5762 0.6167 0.0874
C21E C 0.30709(7) 0.61935(7) 0.06384(4)
H26E H 0.3291 0.5975 0.0417
H27E H 0.2887 0.5867 0.0815
C22E C 0.25350(8) 0.65818(8) 0.04592(5)
H28E H 0.2237 0.6302 0.0324
H29E H 0.2706 0.6882 0.0265
H30E H 0.2319 0.6810 0.0674
C23E C 0.38896(7) 0.70466(7) 0.06039(4)
H31E H 0.4036 0.6822 0.0361
H32E H 0.3575 0.7361 0.0516
C24E C 0.44482(8) 0.73953(9) 0.07875(5)
H33E H 0.4607 0.7705 0.0595
H34E H 0.4782 0.7094 0.0852
H35E H 0.4314 0.7610 0.1034
C25E C 0.30269(7) 0.62394(7) 0.18889(4)
H36E H 0.3231 0.6019 0.2116
H37E H 0.2739 0.6557 0.2005
C26E C 0.26337(7) 0.57625(7) 0.16563(5)
H38E H 0.2364 0.5532 0.1844
H39E H 0.2912 0.5467 0.1517
H40E H 0.2373 0.5982 0.1459
C27E C 0.38452(7) 0.70996(6) 0.19145(4)
H41E H 0.4023 0.6895 0.2156
H42E H 0.4199 0.7288 0.1764
C28E C 0.34100(7) 0.76273(7) 0.20515(5)
H43E H 0.3643 0.7919 0.2224
H44E H 0.3057 0.7449 0.2203
H45E H 0.3250 0.7853 0.1816
C29E C 0.52108(6) 0.64878(6) 0.24117(4)
C30E C 0.53202(7) 0.65360(7) 0.28203(4)
H46E H 0.5105 0.6257 0.2996
C31E C 0.57360(7) 0.69801(8) 0.29889(5)
H47E H 0.5798 0.6993 0.3272
C32E C 0.60483(7) 0.73893(7) 0.27461(5)
H48E H 0.6324 0.7692 0.2860
C33E C 0.59643(7) 0.73654(7) 0.23239(5)
C34E C 0.63015(8) 0.77809(7) 0.20698(6)
H49E H 0.6573 0.8084 0.2187
C35E C 0.62451(8) 0.77565(8) 0.16636(6)
H50E H 0.6478 0.8037 0.1499
C36E C 0.58400(7) 0.73146(8) 0.14888(5)
H51E H 0.5798 0.7299 0.1205
C37E C 0.55025(7) 0.69035(7) 0.17234(5)
H52E H 0.5232 0.6608 0.1598
C38E C 0.55489(6) 0.69110(6) 0.21498(4)
O1 O 0.58127(9) 0.78081(8) 0.45552(5)
C39 C 0.55562(14) 0.73793(12) 0.48391(7)
H53 H 0.5107 0.7473 0.4887
H54 H 0.5784 0.7408 0.5098
C40 C 0.56315(12) 0.67308(10) 0.46580(6)
H55 H 0.5275 0.6456 0.4732
H56 H 0.6028 0.6532 0.4748
C41 C 0.56423(12) 0.68575(10) 0.42049(6)
H57 H 0.5281 0.6656 0.4069
H58 H 0.6037 0.6704 0.4082
C42 C 0.55977(13) 0.75763(11) 0.41810(7)
H59 H 0.5863 0.7738 0.3959
H60 H 0.5158 0.7708 0.4133
O2? O 0.2500 0.2500 0.41584(15)
C43? C 0.2529(3) 0.30411(16) 0.44072(12)
H61? H 0.2236 0.3368 0.4309
H62? H 0.2959 0.3216 0.4410
C44? C 0.2339(6) 0.2821(3) 0.48247(15)
H63? H 0.2703 0.2861 0.5008
H64? H 0.2000 0.3095 0.4928
O3? O 0.7500 0.7500 0.3451(2)
C45? C 0.7020(3) 0.7219(5) 0.36864(11)
H65? H 0.7025 0.6757 0.3653
H66? H 0.6603 0.7379 0.3604
C46? C 0.7157(2) 0.7395(6) 0.41207(11)
H67? H 0.6904 0.7318 0.3876
H68? H 0.6904 0.7318 0.4366
loop_
_geom_bond_atom_site_label_1
_geom_bond_atom_site_label_2
_geom_bond_site_symmetry_1
_geom_bond_site_symmetry_2
Si1 C1 1_555 1_555
C1 C2 1_555 1_555
C2 C3 1_555 1_555
C3 C4 1_555 1_555
C4 H1 1_555 1_555
H2 C4 1_555 1_555
C5 C4 1_555 1_555
C6 C2 1_555 1_555
C7 C6 1_555 1_555
H3 C7 1_555 1_555
C8 C7 1_555 1_555
C9 C8 1_555 1_555
C10 C9 1_555 1_555
H4 C10 1_555 1_555
H5 C10 1_555 1_555
C11 C10 1_555 1_555
C12 C1 1_555 1_555
C13 C3 1_555 1_555
H6 C13 1_555 1_555
H7 C13 1_555 1_555
C14 C13 1_555 1_555
H8 C14 1_555 1_555
H9 C14 1_555 1_555
H10 C14 1_555 1_555
C15 C3 1_555 1_555
H11 C15 1_555 1_555
H12 C15 1_555 1_555
C16 C15 1_555 1_555
H13 C16 1_555 1_555
H14 C16 1_555 1_555
H15 C16 1_555 1_555
C17 C5 1_555 1_555
H16 C17 1_555 1_555
H17 C17 1_555 1_555
C18 C17 1_555 1_555
H18 C18 1_555 1_555
H19 C18 1_555 1_555
H20 C18 1_555 1_555
C19 C5 1_555 1_555
H21 C19 1_555 1_555
H22 C19 1_555 1_555
C20 C19 1_555 1_555
H23 C20 1_555 1_555
H24 C20 1_555 1_555
H25 C20 1_555 1_555
C21 C9 1_555 1_555
H26 C21 1_555 1_555
H27 C21 1_555 1_555
C22 C21 1_555 1_555
H28 C22 1_555 1_555
H29 C22 1_555 1_555
H30 C22 1_555 1_555
C23 C9 1_555 1_555
H31 C23 1_555 1_555
H32 C23 1_555 1_555
C24 C23 1_555 1_555
H33 C24 1_555 1_555
H34 C24 1_555 1_555
H35 C24 1_555 1_555
C25 C11 1_555 1_555
H36 C25 1_555 1_555
H37 C25 1_555 1_555
C26 C25 1_555 1_555
H38 C26 1_555 1_555
H39 C26 1_555 1_555
H40 C26 1_555 1_555
C27 C11 1_555 1_555
H41 C27 1_555 1_555
H42 C27 1_555 1_555
C28 C27 1_555 1_555
H43 C28 1_555 1_555
H44 C28 1_555 1_555
H45 C28 1_555 1_555
C29 Si1 1_555 1_555
C30 C29 1_555 1_555
H46 C30 1_555 1_555
C31 C30 1_555 1_555
H47 C31 1_555 1_555
C32 C31 1_555 1_555
H48 C32 1_555 1_555
C33 C32 1_555 1_555
C34 C33 1_555 1_555
H49 C34 1_555 1_555
C35 C34 1_555 1_555
H50 C35 1_555 1_555
C36 C35 1_555 1_555
H51 C36 1_555 1_555
C37 C36 1_555 1_555
H52 C37 1_555 1_555
C38 C29 1_555 1_555
O1 C39 1_555 1_555
C39 H53 1_555 1_555
H54 C39 1_555 1_555
C40 C39 1_555 1_555
H55 C40 1_555 1_555
H56 C40 1_555 1_555
C41 C40 1_555 1_555
H57 C41 1_555 1_555
H58 C41 1_555 1_555
C42 O1 1_555 1_555
H59 C42 1_555 1_555
H60 C42 1_555 1_555
Si1E Si1 1_555 1_555
C1E Si1E 1_555 1_555
C2E C1E 1_555 1_555
C3E C2E 1_555 1_555
C4E C3E 1_555 1_555
H1E C4E 1_555 1_555
H2E C4E 1_555 1_555
C5E C4E 1_555 1_555
C6E C2E 1_555 1_555
C7E C6E 1_555 1_555
H3E C7E 1_555 1_555
C8E C7E 1_555 1_555
C9E C8E 1_555 1_555
C10E C9E 1_555 1_555
H4E C10E 1_555 1_555
H5E C10E 1_555 1_555
C11E C10E 1_555 1_555
C12E C1E 1_555 1_555
C13E C3E 1_555 1_555
H6E C13E 1_555 1_555
H7E C13E 1_555 1_555
C14E C13E 1_555 1_555
H8E C14E 1_555 1_555
H9E C14E 1_555 1_555
H10E C14E 1_555 1_555
C15E C3E 1_555 1_555
H11E C15E 1_555 1_555
H12E C15E 1_555 1_555
C16E C15E 1_555 1_555
H13E C16E 1_555 1_555
H14E C16E 1_555 1_555
H15E C16E 1_555 1_555
C17E C5E 1_555 1_555
H16E C17E 1_555 1_555
H17E C17E 1_555 1_555
C18E C17E 1_555 1_555
H18E C18E 1_555 1_555
H19E C18E 1_555 1_555
H20E C18E 1_555 1_555
C19E C5E 1_555 1_555
H21E C19E 1_555 1_555
H22E C19E 1_555 1_555
C20E C19E 1_555 1_555
H23E C20E 1_555 1_555
H24E C20E 1_555 1_555
H25E C20E 1_555 1_555
C21E C9E 1_555 1_555
H26E C21E 1_555 1_555
H27E C21E 1_555 1_555
C22E C21E 1_555 1_555
H28E C22E 1_555 1_555
H29E C22E 1_555 1_555
H30E C22E 1_555 1_555
C23E C9E 1_555 1_555
H31E C23E 1_555 1_555
H32E C23E 1_555 1_555
C24E C23E 1_555 1_555
H33E C24E 1_555 1_555
H34E C24E 1_555 1_555
H35E C24E 1_555 1_555
C25E C11E 1_555 1_555
H36E C25E 1_555 1_555
H37E C25E 1_555 1_555
C26E C25E 1_555 1_555
H38E C26E 1_555 1_555
H39E C26E 1_555 1_555
H40E C26E 1_555 1_555
C27E C11E 1_555 1_555
H41E C27E 1_555 1_555
H42E C27E 1_555 1_555
C28E C27E 1_555 1_555
H43E C28E 1_555 1_555
H44E C28E 1_555 1_555
H45E C28E 1_555 1_555
C29E Si1E 1_555 1_555
C30E C29E 1_555 1_555
H46E C30E 1_555 1_555
C31E C30E 1_555 1_555
H47E C31E 1_555 1_555
C32E C31E 1_555 1_555
H48E C32E 1_555 1_555
C33E C32E 1_555 1_555
C34E C33E 1_555 1_555
H49E C34E 1_555 1_555
C35E C34E 1_555 1_555
H50E C35E 1_555 1_555
C36E C35E 1_555 1_555
H51E C36E 1_555 1_555
C37E C36E 1_555 1_555
H52E C37E 1_555 1_555
C38E C29E 1_555 1_555
C5 C6 1_555 1_555
C8 C12 1_555 1_555
C11 C12 1_555 1_555
C33 C38 1_555 1_555
C37 C38 1_555 1_555
C41 C42 1_555 1_555
C5E C6E 1_555 1_555
C8E C12E 1_555 1_555
C11E C12E 1_555 1_555
C33E C38E 1_555 1_555
C37E C38E 1_555 1_555

#END
