
#######################################################################
#
#                 Cambridge Crystallographic Data Centre
#                                CCDC 
#
#######################################################################
#
# If this CIF has been generated from an entry in the Cambridge 
# Structural Database, then it will include bibliographic, chemical, 
# crystal, experimental, refinement or atomic coordinate data resulting 
# from the CCDC's data processing and validation procedures.
#
#######################################################################

data_ZOMLEU
_chemical_formula_moiety         'C7 H7 N1 O5 S1,0.5(H2 O1)'
_chemical_name_systematic        
'3-ammonio-4-carboxybenzenesulfonate hemihydrate'
_symmetry_cell_setting           triclinic
_symmetry_space_group_name_H-M   'P -1'
_symmetry_Int_Tables_number      2
_space_group_name_Hall           '-P 1'
loop_
_symmetry_equiv_pos_site_id
_symmetry_equiv_pos_as_xyz
1 x,y,z
2 -x,-y,-z
_cell_length_a                   6.2881(12)
_cell_length_b                   8.0961(14)
_cell_length_c                   8.6404(14)
_cell_angle_alpha                93.554(5)
_cell_angle_beta                 97.654(6)
_cell_angle_gamma                102.178(6)
_cell_volume                     424.299
_exptl_crystal_colour            yellow
_exptl_crystal_description       block
_cell_formula_units_Z            2
loop_
_atom_site_label
_atom_site_type_symbol
_atom_site_fract_x
_atom_site_fract_y
_atom_site_fract_z
C1 C 0.2192(3) 0.2832(2) 0.1568(2)
C2 C 0.0001(3) 0.2108(2) 0.1678(2)
C3 C -0.1588(3) 0.1726(2) 0.0358(2)
H1 H -0.3040 0.1241 0.0446
C4 C -0.0995(3) 0.2072(2) -0.1091(2)
C5 C 0.1169(4) 0.2783(3) -0.1237(2)
H2 H 0.1561 0.3012 -0.2215
C6 C 0.2737(4) 0.3146(3) 0.0095(3)
H3 H 0.4192 0.3612 -0.0001
C7 C 0.4048(3) 0.3253(2) 0.2921(2)
N1 N -0.0697(3) 0.1665(3) 0.31747(19)
H4 H -0.2111 0.1138 0.3014
H5 H -0.0510 0.2606 0.3814
H6 H 0.0106 0.0983 0.3607
O1 O 0.3405(2) 0.3080(2) 0.43029(16)
H7 H 0.4481 0.3149 0.4974
O2 O 0.5939(2) 0.3719(2) 0.27298(19)
O3 O -0.4841(3) 0.0362(2) -0.23777(17)
O4 O -0.3511(3) 0.3122(2) -0.32488(18)
O5 O -0.1905(3) 0.0788(2) -0.39607(17)
S1 S -0.30013(8) 0.15279(6) -0.28101(5)
O6 O 0.0000 0.5000 0.5000
H8 H 0.0469 0.5383 0.4171
H8A H -0.0469 0.4617 0.5829
H9? H 0.1155 0.5003 0.5662
loop_
_geom_bond_atom_site_label_1
_geom_bond_atom_site_label_2
_geom_bond_site_symmetry_1
_geom_bond_site_symmetry_2
C1 C2 1_555 1_555
C2 C3 1_555 1_555
C3 H1 1_555 1_555
C4 C3 1_555 1_555
C5 C4 1_555 1_555
H2 C5 1_555 1_555
C6 C1 1_555 1_555
H3 C6 1_555 1_555
C7 C1 1_555 1_555
N1 C2 1_555 1_555
H4 N1 1_555 1_555
H5 N1 1_555 1_555
H6 N1 1_555 1_555
O1 C7 1_555 1_555
H7 O1 1_555 1_555
O2 C7 1_555 1_555
O3 S1 1_555 1_555
O4 S1 1_555 1_555
O5 S1 1_555 1_555
S1 C4 1_555 1_555
O6 H8 1_555 1_555
H8A O6 1_555 1_555
C5 C6 1_555 1_555

#END
