
#######################################################################
#
#                 Cambridge Crystallographic Data Centre
#                                CCDC 
#
#######################################################################
#
# If this CIF has been generated from an entry in the Cambridge 
# Structural Database, then it will include bibliographic, chemical, 
# crystal, experimental, refinement or atomic coordinate data resulting 
# from the CCDC's data processing and validation procedures.
#
#######################################################################

data_ZOMPIC
_chemical_formula_moiety         'C30 H33 N7 O9'
_chemical_name_systematic        
"trimethyl 6,6',6''-(nitrilotris(ethane-2,1-diylcarbamoyl))trinicotinate"
_symmetry_cell_setting           monoclinic
_symmetry_space_group_name_H-M   'P 21/n'
_symmetry_Int_Tables_number      14
_space_group_name_Hall           '-P 2yn'
loop_
_symmetry_equiv_pos_site_id
_symmetry_equiv_pos_as_xyz
1 x,y,z
2 1/2-x,1/2+y,1/2-z
3 -x,-y,-z
4 1/2+x,1/2-y,1/2+z
_cell_length_a                   5.9605(6)
_cell_length_b                   41.573(5)
_cell_length_c                   12.0127(11)
_cell_angle_alpha                90
_cell_angle_beta                 102.063(10)
_cell_angle_gamma                90
_cell_volume                     2910.97
_exptl_crystal_colour            colorless
_exptl_crystal_description       block
_cell_formula_units_Z            4
loop_
_atom_site_label
_atom_site_type_symbol
_atom_site_fract_x
_atom_site_fract_y
_atom_site_fract_z
O1 O 0.7610(3) 0.20255(6) 0.30390(17)
O2 O 0.3275(4) 0.05777(7) 0.08698(19)
O3 O 0.6826(4) 0.03684(7) 0.1090(2)
O4 O 0.5981(3) 0.18103(6) 0.76550(16)
O5 O 0.1449(4) 0.05156(7) 0.43148(18)
O6 O 0.4731(4) 0.04650(7) 0.3691(2)
O7 O 0.6258(3) 0.31226(6) 0.58153(17)
O8 O 0.0400(4) 0.44236(7) 0.28900(19)
O9 O 0.3457(4) 0.45173(8) 0.2145(2)
N1 N 1.0862(4) 0.22940(7) 0.5295(2)
N2 N 1.1218(4) 0.18234(7) 0.3451(2)
H1 H 1.2052 0.1648 0.3617
N3 N 0.9539(4) 0.12328(8) 0.2625(2)
N4 N 0.8461(4) 0.18880(8) 0.6493(2)
H2 H 0.9050 0.1808 0.5939
N5 N 0.7209(4) 0.13043(8) 0.5472(2)
N6 N 0.8738(4) 0.31493(7) 0.4611(2)
H3 H 0.9024 0.3239 0.3992
N7 N 0.6706(4) 0.37014(8) 0.3707(2)
C1 C 1.2896(5) 0.22604(9) 0.4796(3)
H4 H 1.3988 0.2111 0.5270
H5 H 1.3659 0.2472 0.4810
C2 C 1.2344(5) 0.21368(9) 0.3582(3)
H6 H 1.1339 0.2295 0.3100
H7 H 1.3787 0.2122 0.3300
C3 C 0.8938(5) 0.17959(10) 0.3082(2)
C4 C 0.8040(5) 0.14729(9) 0.2666(2)
C5 C 0.5695(5) 0.14419(9) 0.2257(2)
H8 H 0.4698 0.1618 0.2288
C6 C 0.4834(5) 0.11520(9) 0.1807(3)
H9 H 0.3229 0.1124 0.1543
C7 C 0.6339(5) 0.09022(9) 0.1743(3)
C8 C 0.8668(5) 0.09549(9) 0.2165(3)
H10 H 0.9700 0.0783 0.2124
C9 C 0.5557(5) 0.05888(10) 0.1215(3)
C10 C 0.2324(6) 0.02870(10) 0.0309(3)
H11 H 0.0650 0.0306 0.0096
H12 H 0.2732 0.0104 0.0827
H13 H 0.2942 0.0253 -0.0376
C11 C 1.1426(5) 0.22881(9) 0.6549(2)
H14 H 1.1952 0.2504 0.6841
H15 H 1.2687 0.2134 0.6814
C12 C 0.9356(5) 0.21918(10) 0.7006(3)
H16 H 0.9788 0.2168 0.7844
H17 H 0.8162 0.2360 0.6827
C13 C 0.6797(5) 0.17272(9) 0.6825(3)
C14 C 0.5889(5) 0.14384(9) 0.6138(3)
C15 C 0.3738(5) 0.13214(10) 0.6194(3)
H18 H 0.2852 0.1423 0.6664
C16 C 0.2909(5) 0.10563(10) 0.5560(3)
H19 H 0.1426 0.0975 0.5575
C17 C 0.4256(5) 0.09070(10) 0.4897(3)
C18 C 0.6389(5) 0.10424(10) 0.4889(3)
H20 H 0.7320 0.0941 0.4439
C19 C 0.3560(5) 0.06111(10) 0.4232(3)
C20 C 0.0623(6) 0.02206(11) 0.3725(3)
H21 H -0.0923 0.0173 0.3841
H22 H 0.1655 0.0043 0.4026
H23 H 0.0578 0.0246 0.2910
C21 C 0.9362(5) 0.25618(9) 0.4814(3)
H24 H 0.7862 0.2534 0.5032
H25 H 0.9091 0.2548 0.3973
C22 C 1.0263(5) 0.28971(9) 0.5177(3)
H26 H 1.0434 0.2919 0.6011
H27 H 1.1797 0.2925 0.4996
C23 C 0.6907(5) 0.32475(9) 0.5011(3)
C24 C 0.5666(5) 0.35371(9) 0.4429(2)
C25 C 0.3586(5) 0.36293(9) 0.4648(3)
H28 H 0.2923 0.3510 0.5171
C26 C 0.2465(5) 0.38928(9) 0.4115(3)
H29 H 0.1004 0.3954 0.4244
C27 C 0.3520(5) 0.40696(9) 0.3380(3)
C28 C 0.5637(5) 0.39606(10) 0.3213(3)
H30 H 0.6363 0.4080 0.2713
C29 C 0.2511(5) 0.43593(10) 0.2745(3)
C30 C -0.0747(5) 0.46961(10) 0.2257(3)
H31 H -0.2277 0.4722 0.2425
H32 H -0.0891 0.4659 0.1439
H33 H 0.0153 0.4892 0.2479
loop_
_geom_bond_atom_site_label_1
_geom_bond_atom_site_label_2
_geom_bond_site_symmetry_1
_geom_bond_site_symmetry_2
O1 C3 1_555 1_555
O2 C9 1_555 1_555
O3 C9 1_555 1_555
O4 C13 1_555 1_555
O5 C19 1_555 1_555
O6 C19 1_555 1_555
O7 C23 1_555 1_555
O8 C29 1_555 1_555
O9 C29 1_555 1_555
N1 C1 1_555 1_555
N2 H1 1_555 1_555
N3 C4 1_555 1_555
N4 H2 1_555 1_555
N5 C14 1_555 1_555
N6 H3 1_555 1_555
N7 C24 1_555 1_555
C1 H4 1_555 1_555
H5 C1 1_555 1_555
C2 N2 1_555 1_555
H6 C2 1_555 1_555
H7 C2 1_555 1_555
C3 N2 1_555 1_555
C4 C3 1_555 1_555
C5 C4 1_555 1_555
H8 C5 1_555 1_555
C6 C5 1_555 1_555
H9 C6 1_555 1_555
C7 C6 1_555 1_555
C8 N3 1_555 1_555
H10 C8 1_555 1_555
C9 C7 1_555 1_555
C10 O2 1_555 1_555
H11 C10 1_555 1_555
H12 C10 1_555 1_555
H13 C10 1_555 1_555
C11 N1 1_555 1_555
H14 C11 1_555 1_555
H15 C11 1_555 1_555
C12 N4 1_555 1_555
H16 C12 1_555 1_555
H17 C12 1_555 1_555
C13 N4 1_555 1_555
C14 C13 1_555 1_555
C15 C14 1_555 1_555
H18 C15 1_555 1_555
C16 C15 1_555 1_555
H19 C16 1_555 1_555
C17 C16 1_555 1_555
C18 N5 1_555 1_555
H20 C18 1_555 1_555
C19 C17 1_555 1_555
C20 O5 1_555 1_555
H21 C20 1_555 1_555
H22 C20 1_555 1_555
H23 C20 1_555 1_555
C21 N1 1_555 1_555
H24 C21 1_555 1_555
H25 C21 1_555 1_555
C22 N6 1_555 1_555
H26 C22 1_555 1_555
H27 C22 1_555 1_555
C23 N6 1_555 1_555
C24 C23 1_555 1_555
C25 C24 1_555 1_555
H28 C25 1_555 1_555
C26 C25 1_555 1_555
H29 C26 1_555 1_555
C27 C26 1_555 1_555
C28 N7 1_555 1_555
H30 C28 1_555 1_555
C29 C27 1_555 1_555
C30 O8 1_555 1_555
H31 C30 1_555 1_555
H32 C30 1_555 1_555
H33 C30 1_555 1_555
C1 C2 1_555 1_555
C7 C8 1_555 1_555
C11 C12 1_555 1_555
C17 C18 1_555 1_555
C21 C22 1_555 1_555
C27 C28 1_555 1_555

#END
