
#######################################################################
#
#                 Cambridge Crystallographic Data Centre
#                                CCDC 
#
#######################################################################
#
# If this CIF has been generated from an entry in the Cambridge 
# Structural Database, then it will include bibliographic, chemical, 
# crystal, experimental, refinement or atomic coordinate data resulting 
# from the CCDC's data processing and validation procedures.
#
#######################################################################

data_ZOMQOJ
_chemical_formula_moiety         'C19 H16 F6 O1 S1'
_chemical_name_systematic        
4,4,5,5,6,6-hexafluoro-2,7,10a,10b-tetramethyl-4,5,6,10,10a,10b-hexahydro-9H-cyclopenta[3,4]naphtho[1,2-b]thiophen-9-one
_symmetry_cell_setting           monoclinic
_symmetry_space_group_name_H-M   'P 21/c'
_symmetry_Int_Tables_number      14
_space_group_name_Hall           '-P 2ybc'
loop_
_symmetry_equiv_pos_site_id
_symmetry_equiv_pos_as_xyz
1 x,y,z
2 -x,1/2+y,1/2-z
3 -x,-y,-z
4 x,1/2-y,1/2+z
_cell_length_a                   14.4193(11)
_cell_length_b                   8.4844(6)
_cell_length_c                   18.7275(16)
_cell_angle_alpha                90
_cell_angle_beta                 133.0140(10)
_cell_angle_gamma                90
_cell_volume                     1675.23
_exptl_crystal_colour            red
_exptl_crystal_description       block
_cell_formula_units_Z            4
loop_
_atom_site_label
_atom_site_type_symbol
_atom_site_fract_x
_atom_site_fract_y
_atom_site_fract_z
C1 C 0.28872(13) 0.82218(17) 1.03311(10)
C2 C 0.29556(13) 0.85788(17) 0.95534(10)
C3 C 0.33279(13) 1.01864(18) 0.95495(11)
C4 C 0.36961(14) 1.12265(18) 1.02493(11)
H1 H 0.3837 1.2285 1.0178
C5 C 0.38938(14) 1.08483(18) 1.11060(11)
C6 C 0.39130(15) 0.91231(17) 1.12883(11)
H2 H 0.3771 0.8977 1.1732
H3 H 0.4757 0.8684 1.1613
C7 C 0.24721(13) 0.74392(17) 0.88605(10)
C8 C 0.23238(13) 0.73956(18) 0.79788(10)
C9 C 0.18193(14) 0.57269(19) 0.75412(11)
C10 C 0.11555(13) 0.51969(18) 0.78795(10)
C11 C 0.19099(13) 0.59960(18) 0.88406(10)
C12 C 0.30582(13) 0.64281(18) 1.05467(10)
C13 C 0.20761(13) 0.55140(18) 0.96120(10)
C14 C 0.15139(14) 0.42646(18) 0.97122(11)
H4 H 0.0992 0.3479 0.9228
C15 C 0.17953(14) 0.43046(18) 1.05643(11)
C16 C 0.15654(14) 0.87928(18) 0.98904(11)
H5 H 0.1494 0.8649 1.0371
H6 H 0.0904 0.8179 0.9303
H7 H 0.1463 0.9911 0.9719
C17 C 0.32325(16) 1.08072(19) 0.87474(12)
H8 H 0.2343 1.0800 0.8128
H9 H 0.3733 1.0138 0.8690
H10 H 0.3560 1.1888 0.8903
C18 C 0.43767(14) 0.57936(18) 1.10254(11)
H11 H 0.4405 0.4652 1.1119
H12 H 0.5029 0.6306 1.1660
H13 H 0.4532 0.6020 1.0601
C19 C 0.13446(16) 0.3184(2) 1.08873(12)
H14 H 0.0749 0.2431 1.0362
H15 H 0.0918 0.3772 1.1044
H16 H 0.2071 0.2613 1.1468
F1 F 0.34217(8) 0.76275(11) 0.81928(6)
F2 F 0.14627(8) 0.84495(11) 0.72716(6)
F3 F 0.28049(8) 0.47506(11) 0.79315(7)
F4 F 0.10706(9) 0.57027(12) 0.65651(6)
F5 F 0.11047(8) 0.36088(10) 0.79031(6)
F6 F -0.00777(8) 0.57016(11) 0.72096(6)
O1 O 0.40790(11) 1.18743(13) 1.16503(8)
S1 S 0.27852(4) 0.58451(4) 1.13396(3)
loop_
_geom_bond_atom_site_label_1
_geom_bond_atom_site_label_2
_geom_bond_site_symmetry_1
_geom_bond_site_symmetry_2
C1 C2 1_555 1_555
C2 C3 1_555 1_555
C3 C4 1_555 1_555
C4 H1 1_555 1_555
C5 C4 1_555 1_555
C6 C1 1_555 1_555
H2 C6 1_555 1_555
H3 C6 1_555 1_555
C7 C2 1_555 1_555
C8 C7 1_555 1_555
C9 C8 1_555 1_555
C10 C9 1_555 1_555
C11 C7 1_555 1_555
C12 C1 1_555 1_555
C13 C11 1_555 1_555
C14 C13 1_555 1_555
H4 C14 1_555 1_555
C15 C14 1_555 1_555
C16 C1 1_555 1_555
H5 C16 1_555 1_555
H6 C16 1_555 1_555
H7 C16 1_555 1_555
C17 C3 1_555 1_555
H8 C17 1_555 1_555
H9 C17 1_555 1_555
H10 C17 1_555 1_555
C18 C12 1_555 1_555
H11 C18 1_555 1_555
H12 C18 1_555 1_555
H13 C18 1_555 1_555
C19 C15 1_555 1_555
H14 C19 1_555 1_555
H15 C19 1_555 1_555
H16 C19 1_555 1_555
F1 C8 1_555 1_555
F2 C8 1_555 1_555
F3 C9 1_555 1_555
F4 C9 1_555 1_555
F5 C10 1_555 1_555
F6 C10 1_555 1_555
O1 C5 1_555 1_555
S1 C12 1_555 1_555
C5 C6 1_555 1_555
C10 C11 1_555 1_555
C12 C13 1_555 1_555
C15 S1 1_555 1_555

#END
