
#######################################################################
#
#                 Cambridge Crystallographic Data Centre
#                                CCDC 
#
#######################################################################
#
# If this CIF has been generated from an entry in the Cambridge 
# Structural Database, then it will include bibliographic, chemical, 
# crystal, experimental, refinement or atomic coordinate data resulting 
# from the CCDC's data processing and validation procedures.
#
#######################################################################

data_ZOMQUP
_chemical_formula_moiety         'C19 H14 F6 O2 S1'
_chemical_name_systematic        
4-(3,3,4,4,5,5-hexafluoro-2-(4-hydroxy-2,6-dimethylphenyl)cyclopent-1-en-1-yl)-5-methylthiophene-2-carbaldehyde
_symmetry_cell_setting           monoclinic
_symmetry_space_group_name_H-M   'P 21/c'
_symmetry_Int_Tables_number      14
_space_group_name_Hall           '-P 2ybc'
loop_
_symmetry_equiv_pos_site_id
_symmetry_equiv_pos_as_xyz
1 x,y,z
2 -x,1/2+y,1/2-z
3 -x,-y,-z
4 x,1/2-y,1/2+z
_cell_length_a                   11.6653(7)
_cell_length_b                   19.1879(11)
_cell_length_c                   8.2994(5)
_cell_angle_alpha                90
_cell_angle_beta                 91.1500(10)
_cell_angle_gamma                90
_cell_volume                     1857.3
_exptl_crystal_colour            colorless
_exptl_crystal_description       block
_cell_formula_units_Z            4
loop_
_atom_site_label
_atom_site_type_symbol
_atom_site_fract_x
_atom_site_fract_y
_atom_site_fract_z
C1 C 0.63594(14) 0.91515(8) 0.48512(19)
C2 C 0.69052(14) 0.86662(8) 0.58923(18)
C3 C 0.62852(14) 0.81019(8) 0.64980(19)
C4 C 0.51307(14) 0.80300(8) 0.6090(2)
H1 H 0.4705 0.7654 0.6522
C5 C 0.45934(14) 0.85016(9) 0.5058(2)
C6 C 0.52109(14) 0.90573(9) 0.4446(2)
H2 H 0.4840 0.9378 0.3738
C7 C 0.81297(14) 0.87661(8) 0.63461(19)
C8 C 0.90704(15) 0.83354(9) 0.5620(2)
C9 C 1.01449(15) 0.85066(10) 0.6639(2)
C10 C 0.98712(15) 0.92182(10) 0.7369(2)
C11 C 0.85866(14) 0.92692(9) 0.72820(19)
C12 C 0.71420(15) 0.97741(9) 0.9192(2)
C13 C 0.80110(14) 0.98464(9) 0.81069(19)
C14 C 0.83184(15) 1.05528(9) 0.7866(2)
H3 H 0.8908 1.0696 0.7165
C15 C 0.76802(15) 1.10041(9) 0.8743(2)
C16 C 0.69977(15) 0.97609(9) 0.4156(2)
H4 H 0.6491 1.0016 0.3407
H5 H 0.7667 0.9591 0.3579
H6 H 0.7250 1.0072 0.5029
C17 C 0.68243(15) 0.75622(9) 0.7602(2)
H7 H 0.6275 0.7427 0.8423
H8 H 0.7512 0.7758 0.8127
H9 H 0.7036 0.7152 0.6972
C18 C 0.66037(19) 0.91226(10) 0.9802(2)
H10 H 0.5973 0.8984 0.9073
H11 H 0.6307 0.9205 1.0882
H12 H 0.7178 0.8750 0.9853
C19 C 0.77665(17) 1.17551(10) 0.8773(2)
H13 H 0.8297 1.1972 0.8078
F1 F 0.92345(9) 0.85303(6) 0.40608(12)
F2 F 0.88717(9) 0.76407(5) 0.55775(13)
F3 F 1.11074(9) 0.85020(7) 0.57840(15)
F4 F 1.02687(10) 0.80290(6) 0.78240(14)
F5 F 1.03788(10) 0.97262(6) 0.64931(17)
F6 F 1.02934(10) 0.92792(7) 0.88835(15)
O1 O 0.34737(10) 0.84478(7) 0.46103(16)
H14 H 0.3207 0.8071 0.4957
O2 O 0.71981(12) 1.21258(7) 0.96370(18)
S1 S 0.67041(4) 1.05715(2) 0.98983(6)
loop_
_geom_bond_atom_site_label_1
_geom_bond_atom_site_label_2
_geom_bond_site_symmetry_1
_geom_bond_site_symmetry_2
C1 C2 1_555 1_555
C2 C3 1_555 1_555
C3 C4 1_555 1_555
C4 H1 1_555 1_555
C5 C4 1_555 1_555
C6 C1 1_555 1_555
H2 C6 1_555 1_555
C7 C2 1_555 1_555
C8 C7 1_555 1_555
C9 C8 1_555 1_555
C10 C9 1_555 1_555
C11 C7 1_555 1_555
C12 C13 1_555 1_555
C13 C11 1_555 1_555
C14 C13 1_555 1_555
H3 C14 1_555 1_555
C15 C14 1_555 1_555
C16 C1 1_555 1_555
H4 C16 1_555 1_555
H5 C16 1_555 1_555
H6 C16 1_555 1_555
C17 C3 1_555 1_555
H7 C17 1_555 1_555
H8 C17 1_555 1_555
H9 C17 1_555 1_555
C18 C12 1_555 1_555
H10 C18 1_555 1_555
H11 C18 1_555 1_555
H12 C18 1_555 1_555
C19 C15 1_555 1_555
H13 C19 1_555 1_555
F1 C8 1_555 1_555
F2 C8 1_555 1_555
F3 C9 1_555 1_555
F4 C9 1_555 1_555
F5 C10 1_555 1_555
F6 C10 1_555 1_555
O1 C5 1_555 1_555
H14 O1 1_555 1_555
O2 C19 1_555 1_555
S1 C12 1_555 1_555
C5 C6 1_555 1_555
C10 C11 1_555 1_555
C15 S1 1_555 1_555

#END
