
#######################################################################
#
#                 Cambridge Crystallographic Data Centre
#                                CCDC 
#
#######################################################################
#
# If this CIF has been generated from an entry in the Cambridge 
# Structural Database, then it will include bibliographic, chemical, 
# crystal, experimental, refinement or atomic coordinate data resulting 
# from the CCDC's data processing and validation procedures.
#
#######################################################################

data_ZOMQID
_chemical_formula_moiety         'C19 H16 F4 O2 S1'
_chemical_name_systematic        
3-(2,5-dimethyl-3-thienyl)-4,4,5,5-tetrafluoro-2-(4-hydroxy-2,6-dimethylphenyl)cyclopent-2-en-1-one
_symmetry_cell_setting           triclinic
_symmetry_space_group_name_H-M   'P -1'
_symmetry_Int_Tables_number      2
_space_group_name_Hall           '-P 1'
loop_
_symmetry_equiv_pos_site_id
_symmetry_equiv_pos_as_xyz
1 x,y,z
2 -x,-y,-z
_cell_length_a                   8.4707(13)
_cell_length_b                   10.2521(15)
_cell_length_c                   11.9775(18)
_cell_angle_alpha                100.581(2)
_cell_angle_beta                 109.560(2)
_cell_angle_gamma                108.378(2)
_cell_volume                     880.162
_exptl_crystal_colour            orange
_exptl_crystal_description       block
_cell_formula_units_Z            2
loop_
_atom_site_label
_atom_site_type_symbol
_atom_site_fract_x
_atom_site_fract_y
_atom_site_fract_z
C1 C 1.0460(3) 0.9047(2) 0.6427(2)
C2 C 0.8575(3) 0.8126(2) 0.5875(2)
C3 C 0.7678(3) 0.7357(2) 0.4591(2)
C4 C 0.8678(3) 0.7448(2) 0.3872(2)
H1 H 0.8083 0.6908 0.3004
C5 C 1.0538(3) 0.8324(2) 0.4419(2)
C6 C 1.1406(3) 0.9123(2) 0.5675(2)
H2 H 1.2676 0.9738 0.6033
C7 C 0.7557(3) 0.7962(2) 0.66705(19)
C8 C 0.6022(3) 0.8415(2) 0.6483(2)
C9 C 0.5204(3) 0.7975(2) 0.7387(2)
C10 C 0.6722(3) 0.7745(2) 0.8351(2)
C11 C 0.7913(3) 0.7508(2) 0.7699(2)
C12 C 0.9815(3) 0.6058(2) 0.7616(2)
C13 C 0.9266(3) 0.6961(2) 0.8265(2)
C14 C 1.0189(3) 0.7312(2) 0.9597(2)
H3 H 0.9946 0.7897 1.0175
C15 C 1.1438(3) 0.6737(2) 0.9956(2)
C16 C 1.1451(3) 0.9976(2) 0.7780(2)
H4 H 1.1735 0.9378 0.8304
H5 H 1.0673 1.0404 0.8008
H6 H 1.2593 1.0753 0.7911
C17 C 0.5657(3) 0.6394(2) 0.3965(2)
H7 H 0.4955 0.6997 0.3917
H8 H 0.5360 0.5761 0.4452
H9 H 0.5341 0.5799 0.3118
C18 C 0.9150(3) 0.5343(2) 0.6245(2)
H10 H 0.7883 0.5227 0.5808
H11 H 0.9199 0.4388 0.6099
H12 H 0.9931 0.5947 0.5928
C19 C 1.2672(3) 0.6886(3) 1.1245(2)
H13 H 1.2373 0.7410 1.1859
H14 H 1.3951 0.7426 1.1404
H15 H 1.2503 0.5919 1.1317
F1 F 0.60651(17) 0.66458(14) 0.87665(12)
F2 F 0.76970(18) 0.89700(14) 0.93722(12)
F3 F 0.36871(16) 0.67107(15) 0.67671(12)
F4 F 0.47085(19) 0.89697(16) 0.79017(13)
O1 O 0.5456(2) 0.90352(17) 0.57748(16)
O2 O 1.1451(2) 0.83607(17) 0.36625(15)
H16 H 1.2512 0.9024 0.4051
S1 S 1.14556(7) 0.56924(6) 0.86534(5)
loop_
_geom_bond_atom_site_label_1
_geom_bond_atom_site_label_2
_geom_bond_site_symmetry_1
_geom_bond_site_symmetry_2
C1 C2 1_555 1_555
C2 C3 1_555 1_555
C3 C4 1_555 1_555
C4 H1 1_555 1_555
C5 C4 1_555 1_555
C6 C1 1_555 1_555
H2 C6 1_555 1_555
C7 C2 1_555 1_555
C8 C7 1_555 1_555
C9 C8 1_555 1_555
C10 C9 1_555 1_555
C11 C7 1_555 1_555
C12 C13 1_555 1_555
C13 C11 1_555 1_555
C14 C13 1_555 1_555
H3 C14 1_555 1_555
C15 C14 1_555 1_555
C16 C1 1_555 1_555
H4 C16 1_555 1_555
H5 C16 1_555 1_555
H6 C16 1_555 1_555
C17 C3 1_555 1_555
H7 C17 1_555 1_555
H8 C17 1_555 1_555
H9 C17 1_555 1_555
C18 C12 1_555 1_555
H10 C18 1_555 1_555
H11 C18 1_555 1_555
H12 C18 1_555 1_555
C19 C15 1_555 1_555
H13 C19 1_555 1_555
H14 C19 1_555 1_555
H15 C19 1_555 1_555
F1 C10 1_555 1_555
F2 C10 1_555 1_555
F3 C9 1_555 1_555
F4 C9 1_555 1_555
O1 C8 1_555 1_555
O2 C5 1_555 1_555
H16 O2 1_555 1_555
S1 C12 1_555 1_555
C5 C6 1_555 1_555
C10 C11 1_555 1_555
C15 S1 1_555 1_555

#END
