
#######################################################################
#
#                 Cambridge Crystallographic Data Centre
#                                CCDC 
#
#######################################################################
#
# If this CIF has been generated from an entry in the Cambridge 
# Structural Database, then it will include bibliographic, chemical, 
# crystal, experimental, refinement or atomic coordinate data resulting 
# from the CCDC's data processing and validation procedures.
#
#######################################################################

data_ZONBIP
_chemical_formula_moiety         'C4 H15 N3 2+,C7 H2 N2 O7 2-,H2 O1'
_chemical_name_systematic        
"2,2'-Iminodiethanaminium 3,5-dinitro-2-oxidobenzoate monohydrate"
_symmetry_cell_setting           monoclinic
_symmetry_space_group_name_H-M   'P 21/c'
_symmetry_Int_Tables_number      14
_space_group_name_Hall           '-P 2ybc'
loop_
_symmetry_equiv_pos_site_id
_symmetry_equiv_pos_as_xyz
1 x,y,z
2 -x,1/2+y,1/2-z
3 -x,-y,-z
4 x,1/2-y,1/2+z
_cell_length_a                   10.8722(7)
_cell_length_b                   20.5909(19)
_cell_length_c                   6.9758(4)
_cell_angle_alpha                90
_cell_angle_beta                 94.5090(10)
_cell_angle_gamma                90
_cell_volume                     1556.83
_exptl_crystal_colour            colorless
_exptl_crystal_description       block
_cell_formula_units_Z            4
loop_
_atom_site_label
_atom_site_type_symbol
_atom_site_fract_x
_atom_site_fract_y
_atom_site_fract_z
N1 N 0.2563(6) 0.3956(3) 0.9452(13)
H1 H 0.2905 0.3929 1.0667
N2 N 0.1501(5) 0.5195(3) 0.8316(10)
H2 H 0.1437 0.5214 0.7037
H3 H 0.1223 0.5563 0.8791
H4 H 0.1057 0.4863 0.8699
N3 N 0.0604(5) 0.3128(3) 1.0155(9)
H5 H 0.0715 0.3431 1.1062
H6 H 0.0142 0.2809 1.0573
H7 H 0.0226 0.3302 0.9100
C1 C 0.3263(7) 0.4453(4) 0.8412(14)
H8 H 0.4142 0.4409 0.8747
H9 H 0.3109 0.4399 0.7033
C2 C 0.2821(7) 0.5102(4) 0.9020(14)
H10 H 0.2908 0.5134 1.0411
H11 H 0.3320 0.5441 0.8502
C3 C 0.2553(8) 0.3337(4) 0.8650(14)
H12 H 0.3396 0.3184 0.8634
H13 H 0.2205 0.3363 0.7328
C4 C 0.1836(7) 0.2860(4) 0.9699(12)
H14 H 0.2305 0.2740 1.0887
H15 H 0.1709 0.2471 0.8924
N4 N 0.2748(6) 0.8002(3) 0.4206(9)
N5 N 0.5465(6) 0.6216(3) 0.5987(10)
O1 O 0.1328(4) 0.5131(3) 0.4174(8)
O2 O 0.0531(5) 0.5763(2) 0.1811(8)
O3 O 0.0726(4) 0.7034(2) 0.3640(8)
O4 O 0.1761(5) 0.8240(3) 0.3547(10)
O5 O 0.3634(6) 0.8364(3) 0.4741(10)
O6 O 0.6299(5) 0.6627(3) 0.6313(11)
O7 O 0.5604(5) 0.5646(3) 0.6402(10)
C5 C 0.1259(6) 0.5661(4) 0.3237(12)
C6 C 0.2196(6) 0.6178(3) 0.3918(10)
C7 C 0.1852(6) 0.6859(3) 0.3900(10)
C8 C 0.2876(6) 0.7311(3) 0.4312(11)
C9 C 0.4049(6) 0.7086(3) 0.4949(11)
H16 H 0.4678 0.7381 0.5270
C10 C 0.4281(6) 0.6439(4) 0.5107(10)
C11 C 0.3358(6) 0.5982(3) 0.4558(11)
H17 H 0.3541 0.5541 0.4631
O8 O 0.0688(5) 0.3843(3) 0.3604(9)
H18 H 0.0830 0.4234 0.3941
H19 H 0.0301 0.3657 0.4463
loop_
_geom_bond_atom_site_label_1
_geom_bond_atom_site_label_2
_geom_bond_site_symmetry_1
_geom_bond_site_symmetry_2
N1 H1 1_555 1_555
N2 H2 1_555 1_555
H3 N2 1_555 1_555
H4 N2 1_555 1_555
N3 H5 1_555 1_555
H6 N3 1_555 1_555
H7 N3 1_555 1_555
C1 N1 1_555 1_555
H8 C1 1_555 1_555
H9 C1 1_555 1_555
C2 N2 1_555 1_555
H10 C2 1_555 1_555
H11 C2 1_555 1_555
C3 N1 1_555 1_555
H12 C3 1_555 1_555
H13 C3 1_555 1_555
C4 N3 1_555 1_555
H14 C4 1_555 1_555
H15 C4 1_555 1_555
N4 O4 1_555 1_555
N5 O6 1_555 1_555
O1 C5 1_555 1_555
O2 C5 1_555 1_555
O3 C7 1_555 1_555
O5 N4 1_555 1_555
O7 N5 1_555 1_555
C5 C6 1_555 1_555
C6 C7 1_555 1_555
C7 C8 1_555 1_555
C8 N4 1_555 1_555
C9 C8 1_555 1_555
H16 C9 1_555 1_555
C10 N5 1_555 1_555
C11 C6 1_555 1_555
H17 C11 1_555 1_555
O8 H18 1_555 1_555
H19 O8 1_555 1_555
C1 C2 1_555 1_555
C3 C4 1_555 1_555
C9 C10 1_555 1_555
C10 C11 1_555 1_555

#END
