
#######################################################################
#
#                 Cambridge Crystallographic Data Centre
#                                CCDC 
#
#######################################################################
#
# If this CIF has been generated from an entry in the Cambridge 
# Structural Database, then it will include bibliographic, chemical, 
# crystal, experimental, refinement or atomic coordinate data resulting 
# from the CCDC's data processing and validation procedures.
#
#######################################################################

data_ZONDAJ
_chemical_formula_moiety         'C23 H28 N2 O1'
_chemical_name_systematic        
2-(4-n-Butoxyphenyl)-3-(4-(diethylamino)phenyl)acrylonitrile
_symmetry_cell_setting           triclinic
_symmetry_space_group_name_H-M   'P -1'
_symmetry_Int_Tables_number      2
_space_group_name_Hall           '-P 1'
loop_
_symmetry_equiv_pos_site_id
_symmetry_equiv_pos_as_xyz
1 x,y,z
2 -x,-y,-z
_cell_length_a                   12.860(5)
_cell_length_b                   13.327(5)
_cell_length_c                   15.016(5)
_cell_angle_alpha                72.650(5)
_cell_angle_beta                 66.969(5)
_cell_angle_gamma                62.897(5)
_cell_volume                     2085.59
_cell_formula_units_Z            4
loop_
_atom_site_label
_atom_site_type_symbol
_atom_site_fract_x
_atom_site_fract_y
_atom_site_fract_z
N1 N 0.3639(3) 0.3963(3) 0.6691(2)
N2 N -0.0143(2) 0.2850(2) 1.14353(18)
C1 C 0.7812(14) 1.0630(14) 0.4112(18)
H1 H 0.7901 1.0907 0.4589
H2 H 0.7460 1.1262 0.3664
H3 H 0.8602 1.0136 0.3760
C2 C 0.6962(10) 0.9957(7) 0.4636(9)
H4 H 0.6701 0.9956 0.5336
H5 H 0.6239 1.0332 0.4418
C3 C 0.7589(10) 0.8790(7) 0.4432(7)
H6 H 0.8193 0.8371 0.4782
H7 H 0.8020 0.8792 0.3738
C4 C 0.6736(10) 0.8182(9) 0.4719(7)
H8 H 0.6109 0.8606 0.4391
H9 H 0.7190 0.7430 0.4521
O1 O 0.6156(2) 0.8077(2) 0.5794(2)
C5 C 0.5564(3) 0.7341(3) 0.6215(2)
C6 C 0.5131(3) 0.7202(3) 0.7217(2)
H10 H 0.5259 0.7594 0.7558
C7 C 0.5377(3) 0.6749(3) 0.5731(2)
H11 H 0.5668 0.6825 0.5051
C8 C 0.4509(3) 0.6488(3) 0.7729(2)
H12 H 0.4219 0.6417 0.8408
C9 C 0.4755(3) 0.6034(3) 0.6249(2)
H13 H 0.4633 0.5643 0.5904
C10 C 0.4306(2) 0.5879(2) 0.7258(2)
C11 C 0.3620(2) 0.5129(2) 0.7794(2)
C12 C 0.3612(3) 0.4467(3) 0.7202(2)
C13 C 0.3015(2) 0.5048(2) 0.8769(2)
H14 H 0.3101 0.5490 0.9092
C14 C 0.2266(2) 0.4414(2) 0.94062(19)
C15 C 0.1839(2) 0.4469(2) 1.0407(2)
H15 H 0.2080 0.4884 1.0631
C16 C 0.1856(3) 0.3785(2) 0.9122(2)
H16 H 0.2111 0.3720 0.8463
C17 C 0.1082(3) 0.3944(2) 1.1078(2)
H17 H 0.0846 0.3995 1.1738
C18 C 0.1094(3) 0.3262(2) 0.9777(2)
H18 H 0.0856 0.2846 0.9551
C19 C 0.0661(2) 0.3333(2) 1.0781(2)
C20 C -0.0555(3) 0.2889(3) 1.2485(2)
H19 H -0.1326 0.2788 1.2775
H20 H -0.0703 0.3637 1.2580
C21 C 0.0348(3) 0.1993(3) 1.3018(2)
H21 H 0.0504 0.1249 1.2926
H22 H 0.0009 0.2053 1.3703
H23 H 0.1100 0.2112 1.2761
C22 C -0.0622(3) 0.2242(3) 1.1122(2)
H24 H -0.0717 0.2608 1.0480
H25 H -0.1426 0.2305 1.1572
C23 C 0.0173(3) 0.1019(3) 1.1080(3)
H26 H 0.0974 0.0947 1.0641
H27 H -0.0174 0.0680 1.0849
H28 H 0.0232 0.0639 1.1721
N3 N 1.0611(2) 0.1442(2) 0.8468(2)
N4 N 0.5157(2) 0.0761(2) 1.1425(2)
C28 C 1.3009(5) 0.8404(5) 0.2808(4)
H38 H 1.2473 0.8664 0.2416
H39 H 1.3835 0.8255 0.2390
H40 H 1.2767 0.8981 0.3190
C29 C 1.2935(5) 0.7322(4) 0.3482(4)
H41 H 1.3357 0.6698 0.3103
H42 H 1.3350 0.7146 0.3961
C30 C 1.1706(4) 0.7414(4) 0.3979(3)
H43 H 1.1310 0.7531 0.3504
H44 H 1.1265 0.8074 0.4318
C31 C 1.1637(4) 0.6347(3) 0.4722(3)
H45 H 1.2082 0.5675 0.4397
H46 H 1.1991 0.6240 0.5224
O2 O 1.0387(2) 0.65272(19) 0.51373(17)
C32 C 1.0078(4) 0.5713(3) 0.5860(2)
C33 C 0.8858(3) 0.5917(3) 0.6255(2)
H47 H 0.8291 0.6593 0.6036
C34 C 1.0909(3) 0.4719(3) 0.6208(2)
H48 H 1.1743 0.4566 0.5953
C35 C 0.8460(3) 0.5149(3) 0.6962(2)
H49 H 0.7625 0.5306 0.7207
C36 C 1.0486(3) 0.3949(3) 0.6944(2)
H50 H 1.1049 0.3285 0.7182
C37 C 0.9258(3) 0.4139(2) 0.73309(19)
C38 C 0.8835(2) 0.3295(2) 0.80981(19)
C39 C 0.9801(3) 0.2248(3) 0.8326(2)
C40 C 0.7644(2) 0.3452(2) 0.8572(2)
H51 H 0.7095 0.4157 0.8373
C41 C 0.7061(2) 0.2739(2) 0.9324(2)
C42 C 0.5788(2) 0.3074(2) 0.9553(2)
H52 H 0.5352 0.3760 0.9232
C43 C 0.7647(2) 0.1715(2) 0.9850(2)
H53 H 0.8488 0.1458 0.9730
C44 C 0.5167(2) 0.2432(2) 1.0229(2)
H54 H 0.4327 0.2686 1.0346
C45 C 0.7035(2) 0.1072(2) 1.0536(2)
H55 H 0.7468 0.0398 1.0872
C46 C 0.5764(2) 0.1407(2) 1.0746(2)
C47 C 0.5909(8) -0.0560(10) 1.1639(6)
H56 H 0.5451 -0.0993 1.1682
H57 H 0.6686 -0.0799 1.1130
C48 C 0.6093(9) -0.0713(13) 1.2551(7)
H58 H 0.6582 -0.0309 1.2484
H59 H 0.6506 -0.1510 1.2753
H60 H 0.5315 -0.0423 1.3033
C49 C 0.3843(3) 0.1098(3) 1.1645(2)
H61 H 0.3442 0.1914 1.1653
H62 H 0.3535 0.0729 1.2296
C50 C 0.3500(3) 0.0811(3) 1.0940(3)
H63 H 0.3771 0.1197 1.0298
H64 H 0.2626 0.1047 1.1136
H65 H 0.3882 0.0003 1.0933
C24? C 0.837(2) 1.0197(16) 0.438(2)
H29? H 0.8515 1.0325 0.3681
H30? H 0.9120 0.9963 0.4513
H31? H 0.7786 1.0889 0.4639
C25? C 0.7847(13) 0.9251(14) 0.4853(11)
H32? H 0.8518 0.8519 0.4743
H33? H 0.7517 0.9260 0.5554
C26? C 0.6897(14) 0.9340(16) 0.4502(12)
H34? H 0.7222 0.9336 0.3801
H35? H 0.6220 1.0066 0.4619
C27? C 0.642(2) 0.8406(17) 0.4969(18)
H36? H 0.5693 0.8643 0.4774
H37? H 0.7023 0.7746 0.4652
C51? C 0.5665(8) -0.0024(8) 1.2232(9)
H66? H 0.5014 -0.0022 1.2843
H67? H 0.6238 0.0196 1.2318
C52? C 0.6337(11) -0.1241(10) 1.1889(12)
H68? H 0.5757 -0.1438 1.1800
H69? H 0.6689 -0.1798 1.2377
H70? H 0.6973 -0.1223 1.1282
loop_
_geom_bond_atom_site_label_1
_geom_bond_atom_site_label_2
_geom_bond_site_symmetry_1
_geom_bond_site_symmetry_2
N1 C12 1_555 1_555
N2 C19 1_555 1_555
C1 H1 1_555 1_555
H2 C1 1_555 1_555
H3 C1 1_555 1_555
C2 C1 1_555 1_555
H4 C2 1_555 1_555
H5 C2 1_555 1_555
C3 C2 1_555 1_555
H6 C3 1_555 1_555
H7 C3 1_555 1_555
C4 C3 1_555 1_555
H8 C4 1_555 1_555
H9 C4 1_555 1_555
O1 C4 1_555 1_555
C5 O1 1_555 1_555
C6 C5 1_555 1_555
H10 C6 1_555 1_555
C7 C5 1_555 1_555
H11 C7 1_555 1_555
C8 C6 1_555 1_555
H12 C8 1_555 1_555
C9 C7 1_555 1_555
H13 C9 1_555 1_555
C10 C8 1_555 1_555
C11 C10 1_555 1_555
C12 C11 1_555 1_555
C13 C11 1_555 1_555
H14 C13 1_555 1_555
C14 C13 1_555 1_555
C15 C14 1_555 1_555
H15 C15 1_555 1_555
C16 C14 1_555 1_555
H16 C16 1_555 1_555
C17 C15 1_555 1_555
H17 C17 1_555 1_555
C18 C16 1_555 1_555
H18 C18 1_555 1_555
C19 C17 1_555 1_555
C20 N2 1_555 1_555
H19 C20 1_555 1_555
H20 C20 1_555 1_555
C21 C20 1_555 1_555
H21 C21 1_555 1_555
H22 C21 1_555 1_555
H23 C21 1_555 1_555
C22 N2 1_555 1_555
H24 C22 1_555 1_555
H25 C22 1_555 1_555
C23 C22 1_555 1_555
H26 C23 1_555 1_555
H27 C23 1_555 1_555
H28 C23 1_555 1_555
N3 C39 1_555 1_555
N4 C46 1_555 1_555
C28 H38 1_555 1_555
H39 C28 1_555 1_555
H40 C28 1_555 1_555
C29 C28 1_555 1_555
H41 C29 1_555 1_555
H42 C29 1_555 1_555
C30 C29 1_555 1_555
H43 C30 1_555 1_555
H44 C30 1_555 1_555
C31 C30 1_555 1_555
H45 C31 1_555 1_555
H46 C31 1_555 1_555
O2 C31 1_555 1_555
C32 O2 1_555 1_555
C33 C32 1_555 1_555
H47 C33 1_555 1_555
C34 C32 1_555 1_555
H48 C34 1_555 1_555
C35 C33 1_555 1_555
H49 C35 1_555 1_555
C36 C34 1_555 1_555
H50 C36 1_555 1_555
C37 C35 1_555 1_555
C38 C37 1_555 1_555
C39 C38 1_555 1_555
C40 C38 1_555 1_555
H51 C40 1_555 1_555
C41 C40 1_555 1_555
C42 C41 1_555 1_555
H52 C42 1_555 1_555
C43 C41 1_555 1_555
H53 C43 1_555 1_555
C44 C42 1_555 1_555
H54 C44 1_555 1_555
C45 C43 1_555 1_555
H55 C45 1_555 1_555
C46 C44 1_555 1_555
C47 N4 1_555 1_555
H56 C47 1_555 1_555
H57 C47 1_555 1_555
C48 C47 1_555 1_555
H58 C48 1_555 1_555
H59 C48 1_555 1_555
H60 C48 1_555 1_555
C49 N4 1_555 1_555
H61 C49 1_555 1_555
H62 C49 1_555 1_555
C50 C49 1_555 1_555
H63 C50 1_555 1_555
H64 C50 1_555 1_555
H65 C50 1_555 1_555
C9 C10 1_555 1_555
C18 C19 1_555 1_555
C36 C37 1_555 1_555
C45 C46 1_555 1_555

#END
