
#######################################################################
#
#                 Cambridge Crystallographic Data Centre
#                                CCDC 
#
#######################################################################
#
# If this CIF has been generated from an entry in the Cambridge 
# Structural Database, then it will include bibliographic, chemical, 
# crystal, experimental, refinement or atomic coordinate data resulting 
# from the CCDC's data processing and validation procedures.
#
#######################################################################

data_ZONNUN
_chemical_formula_moiety         'C38 H29 N1'
_chemical_name_systematic        
8-t-butyl-1,2-diphenylbenzo[7,8]indolizino[6,5,4,3-def]phenanthridine
_symmetry_cell_setting           orthorhombic
_symmetry_space_group_name_H-M   'P b c a'
_symmetry_Int_Tables_number      61
_space_group_name_Hall           '-P 2ac 2ab'
loop_
_symmetry_equiv_pos_site_id
_symmetry_equiv_pos_as_xyz
1 x,y,z
2 1/2-x,-y,1/2+z
3 1/2+x,1/2-y,-z
4 -x,1/2+y,1/2-z
5 -x,-y,-z
6 1/2+x,y,1/2-z
7 1/2-x,1/2+y,z
8 x,1/2-y,1/2+z
_cell_length_a                   8.784(2)
_cell_length_b                   20.520(5)
_cell_length_c                   29.114(7)
_cell_angle_alpha                90
_cell_angle_beta                 90
_cell_angle_gamma                90
_cell_volume                     5247.73
_exptl_crystal_colour            yellow
_exptl_crystal_description       block
_cell_formula_units_Z            8
_exptl_crystal_recrystallization_method dichloromethane
loop_
_atom_site_label
_atom_site_type_symbol
_atom_site_fract_x
_atom_site_fract_y
_atom_site_fract_z
N1 N 0.61572(19) -0.05274(8) 0.37872(6)
C1 C 0.6246(2) 0.04706(10) 0.33355(7)
C2 C 1.0160(2) -0.12599(10) 0.31995(7)
C3 C 0.4228(2) 0.01411(9) 0.39622(7)
C4 C 0.5698(3) 0.10959(10) 0.32220(7)
H1 H 0.4844 0.1267 0.3382
C5 C 0.4098(2) -0.04292(10) 0.42400(7)
C6 C 0.7466(2) -0.07766(10) 0.35840(6)
C7 C 0.7157(2) -0.17481(10) 0.40811(7)
C8 C 0.8200(3) 0.06074(10) 0.27546(7)
H2 H 0.9052 0.0443 0.2591
C9 C 0.7648(3) -0.23663(10) 0.42398(7)
H3 H 0.8524 -0.2561 0.4107
C10 C 0.3387(3) 0.12421(10) 0.42391(7)
H4 H 0.4222 0.1247 0.4447
C11 C 0.8207(2) -0.04062(10) 0.32432(7)
C12 C 0.1436(3) -0.07862(10) 0.44279(7)
H5 H 0.1287 -0.0878 0.4111
C13 C 0.5515(2) 0.00740(9) 0.36837(7)
C14 C 0.5313(2) -0.08395(9) 0.41270(7)
C15 C 0.7998(2) -0.13904(10) 0.37255(7)
C16 C 0.0442(2) -0.07480(10) 0.51951(7)
H6 H -0.0379 -0.0809 0.5403
C17 C 0.1846(3) -0.05138(10) 0.53519(7)
H7 H 0.1992 -0.0424 0.5669
C18 C 0.0918(3) 0.12309(11) 0.36448(8)
H8 H 0.0073 0.1227 0.3441
C19 C 0.9556(2) -0.06625(10) 0.30588(7)
H9 H 1.0078 -0.0421 0.2829
C20 C 1.1688(2) -0.14965(10) 0.30020(7)
C21 C 0.7624(3) 0.12140(10) 0.26420(7)
H10 H 0.8073 0.1460 0.2401
C22 C 0.1881(2) 0.06950(10) 0.36664(7)
H11 H 0.1682 0.0324 0.3481
C23 C 0.2843(2) -0.05472(9) 0.45749(7)
C24 C 0.7551(2) 0.02295(10) 0.31064(7)
C25 C 0.5577(3) -0.24159(10) 0.47791(7)
H12 H 0.5048 -0.2641 0.5016
C26 C 0.6881(3) -0.26895(10) 0.45823(7)
H13 H 0.7238 -0.3101 0.4686
C27 C 0.6382(3) 0.14631(10) 0.28825(8)
H14 H 0.6005 0.1886 0.2813
C28 C 0.5064(3) -0.18185(10) 0.46282(7)
H15 H 0.4172 -0.1636 0.4761
C29 C 0.2426(3) 0.17724(10) 0.42162(7)
H16 H 0.2612 0.2142 0.4405
C30 C 0.1181(3) 0.17699(10) 0.39180(7)
H17 H 0.0520 0.2136 0.3903
C31 C 0.9353(2) -0.16172(10) 0.35264(7)
H18 H 0.9735 -0.2030 0.3618
C32 C 0.3144(2) 0.06970(10) 0.39595(7)
C33 C 0.3015(3) -0.04146(10) 0.50437(7)
H19 H 0.3961 -0.0252 0.5152
C34 C 1.2870(3) -0.09502(11) 0.30470(8)
H20 H 1.3856 -0.1104 0.2932
H21 H 1.2969 -0.0825 0.3370
H22 H 1.2542 -0.0572 0.2867
C35 C 1.1505(3) -0.16828(11) 0.24950(8)
H23 H 1.2476 -0.1848 0.2377
H24 H 1.1197 -0.1298 0.2318
H25 H 1.0725 -0.2022 0.2466
C36 C 0.5832(2) -0.14726(9) 0.42814(7)
C37 C 0.0267(3) -0.08904(10) 0.47297(8)
H26 H -0.0672 -0.1061 0.4621
C38 C 1.2300(3) -0.20920(12) 0.32572(8)
H27 H 1.1594 -0.2458 0.3218
H28 H 1.2398 -0.1990 0.3585
H29 H 1.3299 -0.2210 0.3133
loop_
_geom_bond_atom_site_label_1
_geom_bond_atom_site_label_2
_geom_bond_site_symmetry_1
_geom_bond_site_symmetry_2
N1 C6 1_555 1_555
C1 C4 1_555 1_555
C2 C19 1_555 1_555
C3 C5 1_555 1_555
C4 H1 1_555 1_555
C5 C14 1_555 1_555
C6 C11 1_555 1_555
C7 C9 1_555 1_555
C8 H2 1_555 1_555
C9 H3 1_555 1_555
C10 H4 1_555 1_555
C11 C19 1_555 1_555
C12 H5 1_555 1_555
C13 N1 1_555 1_555
C14 N1 1_555 1_555
C15 C6 1_555 1_555
C16 H6 1_555 1_555
C17 C16 1_555 1_555
H7 C17 1_555 1_555
C18 H8 1_555 1_555
C19 H9 1_555 1_555
C20 C2 1_555 1_555
C21 C8 1_555 1_555
H10 C21 1_555 1_555
C22 C18 1_555 1_555
H11 C22 1_555 1_555
C23 C5 1_555 1_555
C24 C1 1_555 1_555
C25 H12 1_555 1_555
C26 C9 1_555 1_555
H13 C26 1_555 1_555
C27 C4 1_555 1_555
H14 C27 1_555 1_555
C28 C25 1_555 1_555
H15 C28 1_555 1_555
C29 C10 1_555 1_555
H16 C29 1_555 1_555
C30 C18 1_555 1_555
H17 C30 1_555 1_555
C31 C2 1_555 1_555
H18 C31 1_555 1_555
C32 C3 1_555 1_555
C33 C17 1_555 1_555
H19 C33 1_555 1_555
C34 C20 1_555 1_555
H20 C34 1_555 1_555
H21 C34 1_555 1_555
H22 C34 1_555 1_555
C35 C20 1_555 1_555
H23 C35 1_555 1_555
H24 C35 1_555 1_555
H25 C35 1_555 1_555
C36 C7 1_555 1_555
C37 C12 1_555 1_555
H26 C37 1_555 1_555
C38 C20 1_555 1_555
H27 C38 1_555 1_555
H28 C38 1_555 1_555
H29 C38 1_555 1_555
C1 C13 1_555 1_555
C3 C13 1_555 1_555
C7 C15 1_555 1_555
C8 C24 1_555 1_555
C10 C32 1_555 1_555
C11 C24 1_555 1_555
C12 C23 1_555 1_555
C14 C36 1_555 1_555
C15 C31 1_555 1_555
C16 C37 1_555 1_555
C21 C27 1_555 1_555
C22 C32 1_555 1_555
C23 C33 1_555 1_555
C25 C26 1_555 1_555
C28 C36 1_555 1_555
C29 C30 1_555 1_555

#END
