
#######################################################################
#
#                 Cambridge Crystallographic Data Centre
#                                CCDC 
#
#######################################################################
#
# If this CIF has been generated from an entry in the Cambridge 
# Structural Database, then it will include bibliographic, chemical, 
# crystal, experimental, refinement or atomic coordinate data resulting 
# from the CCDC's data processing and validation procedures.
#
#######################################################################

data_ZONPAV
_chemical_formula_moiety         'C42 H33 N1 O4'
_chemical_name_systematic        
"dimethyl 4,4'-(8-t-butylbenzo[7,8]indolizino[6,5,4,3-def]phenanthridine-1,2-diyl)dibenzoate"
_symmetry_cell_setting           orthorhombic
_symmetry_space_group_name_H-M   'P b c a'
_symmetry_Int_Tables_number      61
_space_group_name_Hall           '-P 2ac 2ab'
loop_
_symmetry_equiv_pos_site_id
_symmetry_equiv_pos_as_xyz
1 x,y,z
2 1/2-x,-y,1/2+z
3 1/2+x,1/2-y,-z
4 -x,1/2+y,1/2-z
5 -x,-y,-z
6 1/2+x,y,1/2-z
7 1/2-x,1/2+y,z
8 x,1/2-y,1/2+z
_cell_length_a                   9.666(3)
_cell_length_b                   22.449(6)
_cell_length_c                   29.445(8)
_cell_angle_alpha                90
_cell_angle_beta                 90
_cell_angle_gamma                90
_cell_volume                     6389.33
_exptl_crystal_colour            colorless
_exptl_crystal_description       block
_cell_formula_units_Z            8
_exptl_crystal_recrystallization_method dichloromethane
loop_
_atom_site_label
_atom_site_type_symbol
_atom_site_fract_x
_atom_site_fract_y
_atom_site_fract_z
O1 O 0.4770(2) 0.09850(9) 0.00932(6)
C1 C 0.5982(3) -0.09752(12) 0.17721(9)
H1 H 0.5062 -0.0829 0.1794
O2 O 0.7003(2) -0.23922(9) 0.08961(7)
O3 O 0.9212(2) -0.23337(9) 0.11290(7)
O4 O 0.6578(2) 0.03769(9) -0.00385(7)
C2 C 0.6679(3) -0.04166(12) 0.36345(9)
C3 C 0.5690(3) 0.10207(12) 0.42504(9)
C4 C 0.6071(3) 0.04468(12) 0.16716(9)
C5 C 0.5365(3) 0.13749(13) 0.38759(9)
H2 H 0.5042 0.1769 0.3927
C6 C 0.8669(3) -0.13937(13) 0.16995(10)
H3 H 0.9594 -0.1532 0.1671
N1 N 0.6158(2) 0.03786(10) 0.29244(7)
C7 C 0.5970(3) 0.05866(12) 0.33665(9)
C8 C 0.7286(3) -0.11965(12) 0.30951(10)
H4 H 0.7434 -0.1322 0.2791
C9 C 0.6668(3) -0.02153(12) 0.23428(9)
C10 C 0.6873(3) -0.08362(13) 0.39849(9)
H5 H 0.6736 -0.0718 0.4291
C11 C 0.6641(3) -0.01856(12) 0.28136(9)
C12 C 0.6037(3) 0.08426(13) 0.51006(9)
H6 H 0.5376 0.0512 0.5097
H7 H 0.6015 0.1037 0.5398
H8 H 0.6970 0.0690 0.5042
C13 C 0.6278(3) -0.14327(12) 0.14726(9)
H9 H 0.5563 -0.1600 0.1292
C14 C 0.7019(3) -0.07247(12) 0.20437(9)
C15 C 0.7257(3) -0.14165(13) 0.38924(10)
H10 H 0.7376 -0.1692 0.4134
C16 C 0.8361(3) -0.09389(12) 0.20022(10)
H11 H 0.9077 -0.0772 0.2183
C17 C 0.5647(3) 0.12956(13) 0.47310(9)
C18 C 0.7626(3) -0.16475(12) 0.14367(9)
C19 C 0.5893(3) 0.07081(12) 0.25354(10)
C20 C 0.4694(3) 0.06403(12) 0.10012(10)
H12 H 0.3829 0.0740 0.0868
C21 C 0.5206(3) 0.15507(13) 0.30280(10)
C22 C 0.6691(3) 0.18159(14) 0.47453(10)
H13 H 0.7619 0.1667 0.4674
H14 H 0.6694 0.1993 0.5050
H15 H 0.6424 0.2118 0.4522
C23 C 0.4800(3) 0.05768(12) 0.14696(9)
H16 H 0.4001 0.0622 0.1654
C24 C 0.7119(3) 0.04143(12) 0.09251(10)
H17 H 0.7907 0.0348 0.0739
C25 C 0.6882(3) -0.06064(12) 0.31797(9)
C26 C 0.5852(3) 0.05576(12) 0.07271(9)
C27 C 0.6243(3) 0.01996(12) 0.37322(9)
C28 C 0.6109(3) 0.04331(12) 0.41732(9)
H18 H 0.6310 0.0185 0.4426
C29 C 0.7887(3) -0.21556(13) 0.11247(10)
C30 C 0.5494(3) 0.11758(13) 0.34300(9)
C31 C 0.5789(3) 0.06186(12) 0.02248(10)
C32 C 0.7472(3) -0.15977(13) 0.34448(9)
H19 H 0.7745 -0.1996 0.3381
C33 C 0.7229(3) 0.03687(13) 0.13948(10)
H20 H 0.8101 0.0284 0.1529
C34 C 0.5235(4) 0.16932(14) 0.22103(10)
H21 H 0.5428 0.1546 0.1914
C35 C 0.4189(3) 0.15322(13) 0.48363(10)
H22 H 0.3922 0.1824 0.4605
H23 H 0.4188 0.1722 0.5136
H24 H 0.3530 0.1201 0.4835
C36 C 0.5439(3) 0.13207(13) 0.25875(9)
C37 C 0.4649(3) 0.10804(15) -0.03940(10)
H25 H 0.5552 0.1196 -0.0517
H26 H 0.3976 0.1398 -0.0452
H27 H 0.4339 0.0712 -0.0540
C38 C 0.4760(4) 0.22656(15) 0.22613(11)
H28 H 0.4622 0.2510 0.2002
C39 C 0.4481(4) 0.24884(15) 0.26923(11)
H29 H 0.4136 0.2882 0.2728
C40 C 0.6188(3) 0.03374(12) 0.21681(9)
C41 C 0.4709(4) 0.21341(14) 0.30694(11)
H30 H 0.4524 0.2290 0.3363
C42 C 0.9514(4) -0.28608(15) 0.08608(12)
H31 H 0.8928 -0.3191 0.0963
H32 H 1.0489 -0.2969 0.0899
H33 H 0.9327 -0.2778 0.0540
loop_
_geom_bond_atom_site_label_1
_geom_bond_atom_site_label_2
_geom_bond_site_symmetry_1
_geom_bond_site_symmetry_2
O1 C31 1_555 1_555
C1 H1 1_555 1_555
O2 C29 1_555 1_555
O3 C29 1_555 1_555
O4 C31 1_555 1_555
C2 C10 1_555 1_555
C3 C5 1_555 1_555
C4 C23 1_555 1_555
C5 H2 1_555 1_555
C6 H3 1_555 1_555
N1 C7 1_555 1_555
C7 C27 1_555 1_555
C8 H4 1_555 1_555
C9 C11 1_555 1_555
C10 H5 1_555 1_555
C11 N1 1_555 1_555
C12 H6 1_555 1_555
H7 C12 1_555 1_555
H8 C12 1_555 1_555
C13 C1 1_555 1_555
H9 C13 1_555 1_555
C14 C1 1_555 1_555
C15 C10 1_555 1_555
H10 C15 1_555 1_555
C16 C6 1_555 1_555
H11 C16 1_555 1_555
C17 C3 1_555 1_555
C18 C6 1_555 1_555
C19 N1 1_555 1_555
C20 H12 1_555 1_555
C21 C30 1_555 1_555
C22 C17 1_555 1_555
H13 C22 1_555 1_555
H14 C22 1_555 1_555
H15 C22 1_555 1_555
C23 C20 1_555 1_555
H16 C23 1_555 1_555
C24 H17 1_555 1_555
C25 C2 1_555 1_555
C26 C20 1_555 1_555
C27 C2 1_555 1_555
C28 C3 1_555 1_555
H18 C28 1_555 1_555
C29 C18 1_555 1_555
C30 C5 1_555 1_555
C31 C26 1_555 1_555
C32 C8 1_555 1_555
H19 C32 1_555 1_555
C33 C4 1_555 1_555
H20 C33 1_555 1_555
C34 H21 1_555 1_555
C35 C17 1_555 1_555
H22 C35 1_555 1_555
H23 C35 1_555 1_555
H24 C35 1_555 1_555
C36 C19 1_555 1_555
C37 O1 1_555 1_555
H25 C37 1_555 1_555
H26 C37 1_555 1_555
H27 C37 1_555 1_555
C38 C34 1_555 1_555
H28 C38 1_555 1_555
C39 C38 1_555 1_555
H29 C39 1_555 1_555
C40 C4 1_555 1_555
C41 C21 1_555 1_555
H30 C41 1_555 1_555
C42 O3 1_555 1_555
H31 C42 1_555 1_555
H32 C42 1_555 1_555
H33 C42 1_555 1_555
C7 C30 1_555 1_555
C8 C25 1_555 1_555
C9 C14 1_555 1_555
C9 C40 1_555 1_555
C11 C25 1_555 1_555
C12 C17 1_555 1_555
C13 C18 1_555 1_555
C14 C16 1_555 1_555
C15 C32 1_555 1_555
C19 C40 1_555 1_555
C21 C36 1_555 1_555
C24 C26 1_555 1_555
C24 C33 1_555 1_555
C27 C28 1_555 1_555
C34 C36 1_555 1_555
C39 C41 1_555 1_555

#END
