
#######################################################################
#
#                 Cambridge Crystallographic Data Centre
#                                CCDC 
#
#######################################################################
#
# If this CIF has been generated from an entry in the Cambridge 
# Structural Database, then it will include bibliographic, chemical, 
# crystal, experimental, refinement or atomic coordinate data resulting 
# from the CCDC's data processing and validation procedures.
#
#######################################################################

data_ZONREB
_chemical_formula_moiety         'C18 H12 O6,0.25(C4 H10 O1)'
_chemical_name_systematic        
"1,1'-Dioxo-1,1',4,4'-tetrahydro-3,3'-spirobi[isochromene]-4-carboxylic acid diethyl ether solvate"
_symmetry_cell_setting           monoclinic
_symmetry_space_group_name_H-M   'P 21/n'
_symmetry_Int_Tables_number      14
_space_group_name_Hall           '-P 2yn'
loop_
_symmetry_equiv_pos_site_id
_symmetry_equiv_pos_as_xyz
1 x,y,z
2 1/2-x,1/2+y,1/2-z
3 -x,-y,-z
4 1/2+x,1/2-y,1/2+z
_cell_length_a                   13.8813(19)
_cell_length_b                   5.4910(8)
_cell_length_c                   21.550(3)
_cell_angle_alpha                90
_cell_angle_beta                 99.568(4)
_cell_angle_gamma                90
_cell_volume                     1619.74
_exptl_crystal_colour            colorless
_exptl_crystal_description       rod
_cell_formula_units_Z            4
_exptl_crystal_recrystallization_method 'diethyl ether'
loop_
_atom_site_label
_atom_site_type_symbol
_atom_site_fract_x
_atom_site_fract_y
_atom_site_fract_z
O1 O 0.35023(17) 0.4782(4) -0.03208(10)
C1 C 0.37170(19) 0.6800(5) -0.04485(13)
O2 O 0.42417(16) 0.7393(4) -0.08864(10)
C2 C 0.33537(19) 0.9086(5) -0.01482(13)
H1 H 0.4394 0.6124 -0.1065
C3 C 0.34444(19) 0.8896(5) 0.05620(13)
H2 H 0.3735 1.0528 -0.0255
C4 C 0.2290(2) 0.9408(5) -0.04410(13)
O3 O 0.27713(14) 0.7155(4) 0.07565(9)
O4 O 0.43797(14) 0.7824(4) 0.07875(9)
C5 C 0.3333(2) 1.1326(5) 0.08725(13)
C6 C 0.2009(2) 1.0770(6) -0.09838(15)
C7 C 0.1588(2) 0.8152(5) -0.01738(14)
C8 C 0.1873(2) 0.6732(6) 0.04094(14)
C9 C 0.4703(2) 0.7718(6) 0.14151(14)
H3 H 0.3765 1.2540 0.0720
H4 H 0.2650 1.1900 0.0758
C10 C 0.35894(19) 1.1103(5) 0.15753(13)
H5 H 0.2482 1.1649 -0.1165
C11 C 0.1033(2) 1.0838(7) -0.12596(16)
C12 C 0.0610(2) 0.8205(6) -0.04578(15)
O5 O 0.13622(15) 0.5263(4) 0.06135(10)
O6 O 0.53643(16) 0.6329(4) 0.16006(10)
C13 C 0.4243(2) 0.9321(5) 0.18347(13)
C14 C 0.3198(2) 1.2660(6) 0.19770(14)
H6 H 0.0840 1.1767 -0.1631
C15 C 0.0335(2) 0.9566(7) -0.09986(16)
H7 H 0.0135 0.7313 -0.0281
C16 C 0.4490(2) 0.9036(6) 0.24833(14)
H8 H 0.2760 1.3915 0.1808
C17 C 0.3444(2) 1.2384(6) 0.26244(14)
H9 H -0.0332 0.9629 -0.1191
C18 C 0.4084(2) 1.0561(6) 0.28791(14)
H10 H 0.4936 0.7799 0.2653
H11 H 0.3172 1.3452 0.2896
H12 H 0.4241 1.0365 0.3322
C19? C 0.2443(15) -0.293(4) 0.7660(10)
H13? H 0.2740 -0.4291 0.7464
H14? H 0.1730 -0.3074 0.7566
H15? H 0.2658 -0.2978 0.8116
C20? C 0.2753(19) -0.057(4) 0.7403(12)
H16? H 0.3475 -0.0468 0.7482
H17? H 0.2533 -0.0530 0.6942
O7? O 0.2364(10) 0.151(3) 0.7679(6)
C21? C 0.234(2) 0.389(4) 0.7387(9)
H18? H 0.1797 0.3950 0.7028
H19? H 0.2960 0.4134 0.7219
C22? C 0.2228(15) 0.590(4) 0.7836(10)
H20? H 0.2241 0.7474 0.7622
H21? H 0.2764 0.5837 0.8195
H22? H 0.1603 0.5719 0.7986
loop_
_geom_bond_atom_site_label_1
_geom_bond_atom_site_label_2
_geom_bond_site_symmetry_1
_geom_bond_site_symmetry_2
O1 C1 1_555 1_555
C1 O2 1_555 1_555
O2 H1 1_555 1_555
C2 C1 1_555 1_555
C3 C2 1_555 1_555
H2 C2 1_555 1_555
C4 C2 1_555 1_555
O3 C3 1_555 1_555
O4 C3 1_555 1_555
C5 C3 1_555 1_555
C6 C4 1_555 1_555
C7 C4 1_555 1_555
C8 O3 1_555 1_555
C9 O4 1_555 1_555
H3 C5 1_555 1_555
H4 C5 1_555 1_555
C10 C5 1_555 1_555
H5 C6 1_555 1_555
C11 C6 1_555 1_555
C12 C7 1_555 1_555
O5 C8 1_555 1_555
O6 C9 1_555 1_555
C13 C9 1_555 1_555
C14 C10 1_555 1_555
H6 C11 1_555 1_555
C15 C11 1_555 1_555
H7 C12 1_555 1_555
C16 C13 1_555 1_555
H8 C14 1_555 1_555
C17 C14 1_555 1_555
H9 C15 1_555 1_555
C18 C16 1_555 1_555
H10 C16 1_555 1_555
H11 C17 1_555 1_555
H12 C18 1_555 1_555
C7 C8 1_555 1_555
C10 C13 1_555 1_555
C12 C15 1_555 1_555
C17 C18 1_555 1_555

#END
