
#######################################################################
#
#                 Cambridge Crystallographic Data Centre
#                                CCDC 
#
#######################################################################
#
# If this CIF has been generated from an entry in the Cambridge 
# Structural Database, then it will include bibliographic, chemical, 
# crystal, experimental, refinement or atomic coordinate data resulting 
# from the CCDC's data processing and validation procedures.
#
#######################################################################

data_ZONTAZ
_chemical_formula_moiety         'C17 H13 Cl1 O2'
_chemical_name_systematic        
(E)-1-(4-Chlorophenyl)-4-(p-tolyl)but-2-ene-1,4-dione
_symmetry_cell_setting           monoclinic
_symmetry_space_group_name_H-M   'P 21/c'
_symmetry_Int_Tables_number      14
_space_group_name_Hall           '-P 2ybc'
loop_
_symmetry_equiv_pos_site_id
_symmetry_equiv_pos_as_xyz
1 x,y,z
2 -x,1/2+y,1/2-z
3 -x,-y,-z
4 x,1/2-y,1/2+z
_cell_length_a                   16.7660(10)
_cell_length_b                   7.1666(5)
_cell_length_c                   5.8863(4)
_cell_angle_alpha                90
_cell_angle_beta                 90.799(6)
_cell_angle_gamma                90
_cell_volume                     707.201
_exptl_crystal_colour            yellow
_exptl_crystal_description       plate
_cell_formula_units_Z            2
_exptl_crystal_recrystallization_method 'ethyl acetate'
loop_
_atom_site_label
_atom_site_type_symbol
_atom_site_fract_x
_atom_site_fract_y
_atom_site_fract_z
Cl1 Cl 0.43270(12) 0.4540(6) 0.2142(6)
C1 C 0.4222(5) 0.461(3) 0.228(3)
H1 H 0.4603 0.5112 0.3345
H2 H 0.4250 0.5293 0.0874
H3 H 0.4339 0.3321 0.2002
O1 O 0.10175(11) 0.5710(4) 0.8046(3)
C2 C 0.10775(15) 0.5394(4) 0.6007(4)
C3 C 0.18764(14) 0.5208(3) 0.4980(4)
C4 C 0.32985(14) 0.5585(4) 0.5349(4)
H4 H 0.3740 0.5989 0.6188
C5 C 0.25427(14) 0.5776(3) 0.6213(4)
H5 H 0.2479 0.6295 0.7647
C6 C 0.27415(15) 0.4217(4) 0.1997(4)
H6 H 0.2807 0.3680 0.0573
C7 C 0.03523(14) 0.5153(4) 0.4576(5)
H7 H 0.0400 0.5222 0.3005
C8 C 0.19855(15) 0.4430(4) 0.2841(4)
H8 H 0.1546 0.4051 0.1979
C9 C 0.33987(15) 0.4786(4) 0.3220(4)
Cl1B Cl -0.43270(12) 0.5460(6) 0.7858(6)
C1B C -0.4222(5) 0.539(3) 0.772(3)
H1B H -0.4603 0.4888 0.6655
H2B H -0.4250 0.4707 0.9126
H3B H -0.4339 0.6679 0.7998
O1B O -0.10175(11) 0.4290(4) 0.1954(3)
C2B C -0.10775(15) 0.4606(4) 0.3993(4)
C3B C -0.18764(14) 0.4792(3) 0.5020(4)
C4B C -0.32985(14) 0.4415(4) 0.4651(4)
H4B H -0.3740 0.4011 0.3812
C5B C -0.25427(14) 0.4224(3) 0.3787(4)
H5B H -0.2479 0.3705 0.2353
C6B C -0.27415(15) 0.5783(4) 0.8003(4)
H6B H -0.2807 0.6320 0.9427
C7B C -0.03523(14) 0.4847(4) 0.5424(5)
H7B H -0.0400 0.4778 0.6995
C8B C -0.19855(15) 0.5570(4) 0.7159(4)
H8B H -0.1546 0.5949 0.8021
C9B C -0.33987(15) 0.5214(4) 0.6780(4)
loop_
_geom_bond_atom_site_label_1
_geom_bond_atom_site_label_2
_geom_bond_site_symmetry_1
_geom_bond_site_symmetry_2
Cl1 H1 1_555 1_555
C1 H1 1_555 1_555
H2 Cl1 1_555 1_555
H3 Cl1 1_555 1_555
O1 C2 1_555 1_555
C2 C3 1_555 1_555
C3 C5 1_555 1_555
C4 H4 1_555 1_555
C5 C4 1_555 1_555
H5 C5 1_555 1_555
C6 H6 1_555 1_555
C7 C2 1_555 1_555
H7 C7 1_555 1_555
C8 C3 1_555 1_555
H8 C8 1_555 1_555
C9 Cl1 1_555 1_555
Cl1B H1B 1_555 1_555
C1B H1B 1_555 1_555
H2B Cl1B 1_555 1_555
H3B Cl1B 1_555 1_555
O1B C2B 1_555 1_555
C2B C3B 1_555 1_555
C3B C5B 1_555 1_555
C4B H4B 1_555 1_555
C5B C4B 1_555 1_555
H5B C5B 1_555 1_555
C6B H6B 1_555 1_555
C7B C7 1_555 1_555
H7B C7B 1_555 1_555
C8B C3B 1_555 1_555
H8B C8B 1_555 1_555
C9B Cl1B 1_555 1_555
C1 H2 1_555 1_555
C1 H3 1_555 1_555
C1 C9 1_555 1_555
C4 C9 1_555 1_555
C6 C8 1_555 1_555
C6 C9 1_555 1_555
C1B H2B 1_555 1_555
C1B H3B 1_555 1_555
C1B C9B 1_555 1_555
C2B C7B 1_555 1_555
C4B C9B 1_555 1_555
C6B C8B 1_555 1_555
C6B C9B 1_555 1_555

#END
