
#######################################################################
#
#                 Cambridge Crystallographic Data Centre
#                                CCDC 
#
#######################################################################
#
# If this CIF has been generated from an entry in the Cambridge 
# Structural Database, then it will include bibliographic, chemical, 
# crystal, experimental, refinement or atomic coordinate data resulting 
# from the CCDC's data processing and validation procedures.
#
#######################################################################

data_ZONYIK
_chemical_name_common            
'Teaching Subset: Fundamental Chemistry, Symmetry'
_chemical_formula_moiety         'C6 H4 I1 N1 O2'
_chemical_name_systematic        4-Iodonitrobenzene
_symmetry_cell_setting           triclinic
_symmetry_space_group_name_H-M   'P -1'
_symmetry_Int_Tables_number      2
_space_group_name_Hall           '-P 1'
loop_
_symmetry_equiv_pos_site_id
_symmetry_equiv_pos_as_xyz
1 x,y,z
2 -x,-y,-z
_cell_length_a                   7.545(2)
_cell_length_b                   7.802(2)
_cell_length_c                   6.599(1)
_cell_angle_alpha                91.43(3)
_cell_angle_beta                 92.03(3)
_cell_angle_gamma                66.00(3)
_cell_volume                     354.627
_cell_formula_units_Z            2
loop_
_atom_site_label
_atom_site_type_symbol
_atom_site_fract_x
_atom_site_fract_y
_atom_site_fract_z
I1 I 0.2440(1) 0.1451(1) -0.8446(1)
O1 O 0.2188(3) 0.9352(2) -0.3075(3)
O2 O 0.3230(3) 0.7336(3) -0.0659(3)
C1 C 0.2453(3) 0.3555(3) -0.6412(3)
N1 N 0.2685(3) 0.7755(2) -0.2414(3)
C2 C 0.2604(3) 0.6285(2) -0.3810(3)
C3 C 0.1844(3) 0.6794(3) -0.5752(3)
C4 C 0.3281(3) 0.4466(3) -0.3119(3)
C5 C 0.3204(3) 0.3072(3) -0.4444(3)
C6 C 0.1771(3) 0.5396(3) -0.7075(3)
H1 H 0.3722(58) 0.1768(56) -0.4036(61)
H2 H 0.3811(58) 0.4202(55) -0.1798(61)
H3 H 0.1437(56) 0.8075(55) -0.6193(60)
H4 H 0.1275(58) 0.5726(55) -0.8408(62)
loop_
_geom_bond_atom_site_label_1
_geom_bond_atom_site_label_2
_geom_bond_site_symmetry_1
_geom_bond_site_symmetry_2
I1 C1 1_555 1_555
O1 N1 1_555 1_555
O2 N1 1_555 1_555
C1 C5 1_555 1_555
N1 C2 1_555 1_555
C2 C3 1_555 1_555
C3 C6 1_555 1_555
C4 C2 1_555 1_555
C5 C4 1_555 1_555
C6 C1 1_555 1_555
H1 C5 1_555 1_555
H2 C4 1_555 1_555
H3 C3 1_555 1_555
H4 C6 1_555 1_555

#END
