
#######################################################################
#
#                 Cambridge Crystallographic Data Centre
#                                CCDC 
#
#######################################################################
#
# If this CIF has been generated from an entry in the Cambridge 
# Structural Database, then it will include bibliographic, chemical, 
# crystal, experimental, refinement or atomic coordinate data resulting 
# from the CCDC's data processing and validation procedures.
#
#######################################################################

data_ZONYOQ
_chemical_formula_moiety         'C6 H4 N2 O4,2(C9 H7 I1 O2)'
_chemical_name_systematic        '1,4-Dinitrobenzene bis(4-iodocinnamic acid)'
_symmetry_cell_setting           triclinic
_symmetry_space_group_name_H-M   'P -1'
_symmetry_Int_Tables_number      2
_space_group_name_Hall           '-P 1'
loop_
_symmetry_equiv_pos_site_id
_symmetry_equiv_pos_as_xyz
1 x,y,z
2 -x,-y,-z
_cell_length_a                   7.719(2)
_cell_length_b                   9.246(2)
_cell_length_c                   9.988(2)
_cell_angle_alpha                111.43(3)
_cell_angle_beta                 107.76(3)
_cell_angle_gamma                94.03(3)
_cell_volume                     618.516
_cell_formula_units_Z            1
loop_
_atom_site_label
_atom_site_type_symbol
_atom_site_fract_x
_atom_site_fract_y
_atom_site_fract_z
I1 I 0.0764(1) 0.3866(1) 0.3019(1)
O1 O 0.9664(4) 0.8922(4) 0.1039(4)
O2 O 0.7641(4) 0.9852(4) -0.0403(4)
C1 C 0.2711(5) 0.5044(5) 0.2495(4)
C2 C 0.2168(6) 0.5966(5) 0.1682(5)
C3 C 0.4551(6) 0.4909(6) 0.2976(6)
C4 C 0.5321(6) 0.6616(5) 0.1817(4)
C5 C 0.8028(6) 0.9081(5) 0.0427(5)
C6 C 0.6490(6) 0.8347(5) 0.0707(5)
C7 C 0.3473(6) 0.6735(5) 0.1336(5)
C8 C 0.5834(6) 0.5703(5) 0.2638(5)
C9 C 0.6747(6) 0.7443(5) 0.1499(5)
H1 H 1.0387(14) 0.9369(66) 0.0789(60)
H2 H 0.7049(62) 0.5640(49) 0.2979(47)
H3 H 0.0798(57) 0.6041(46) 0.1349(44)
H4 H 0.5311(70) 0.8432(56) 0.0188(54)
H5 H 0.4903(55) 0.4336(48) 0.3463(45)
H6 H 0.7952(68) 0.7388(55) 0.1996(53)
H7 H 0.3082(60) 0.7406(52) 0.0826(49)
N1 N 0.2330(6) 0.8434(5) 0.5688(5)
O3 O 0.2863(5) 0.7857(5) 0.6615(5)
O4 O 0.0697(5) 0.8373(5) 0.5023(5)
C10 C 0.3148(6) 1.0101(5) 0.4449(5)
C11 C 0.5544(6) 0.9140(5) 0.5886(5)
C12 C 0.3714(6) 0.9251(5) 0.5324(5)
H8 H 0.5903(59) 0.8586(52) 0.6509(49)
H9 H 0.1924(69) 1.0149(55) 0.4080(53)
C11A C 0.4456(6) 1.0860(5) 0.4114(5)
C12A C 0.6286(6) 1.0749(5) 0.4676(5)
N1A N 0.7670(6) 1.1566(5) 0.4312(5)
O3A O 0.7137(5) 1.2143(5) 0.3385(5)
O4A O 0.9303(5) 1.1627(5) 0.4977(5)
C10A C 0.6852(6) 0.9899(5) 0.5551(5)
H9A H 0.8076(69) 0.9851(55) 0.5920(53)
H8A H 0.4097(59) 1.1414(52) 0.3491(49)
loop_
_geom_bond_atom_site_label_1
_geom_bond_atom_site_label_2
_geom_bond_site_symmetry_1
_geom_bond_site_symmetry_2
I1 C1 1_555 1_555
O1 C5 1_555 1_555
O2 C5 1_555 1_555
C1 C2 1_555 1_555
C2 C7 1_555 1_555
C3 C1 1_555 1_555
C4 C7 1_555 1_555
C5 C6 1_555 1_555
C6 C9 1_555 1_555
C7 H7 1_555 1_555
C8 C3 1_555 1_555
C9 C4 1_555 1_555
H1 O1 1_555 1_555
H2 C8 1_555 1_555
H3 C2 1_555 1_555
H4 C6 1_555 1_555
H5 C3 1_555 1_555
H6 C9 1_555 1_555
N1 O3 1_555 1_555
O4 N1 1_555 1_555
C10 C12 1_555 1_555
C11 C12 1_555 1_555
C12 N1 1_555 1_555
H8 C11 1_555 1_555
H9 C10 1_555 1_555
C11A C10 1_555 1_555
C12A C11A 1_555 1_555
N1A C12A 1_555 1_555
O3A N1A 1_555 1_555
O4A N1A 1_555 1_555
C10A C11 1_555 1_555
H9A C10A 1_555 1_555
H8A C11A 1_555 1_555
C4 C8 1_555 1_555
C12A C10A 1_555 1_555

#END
