
#######################################################################
#
#                 Cambridge Crystallographic Data Centre
#                                CCDC 
#
#######################################################################
#
# If this CIF has been generated from an entry in the Cambridge 
# Structural Database, then it will include bibliographic, chemical, 
# crystal, experimental, refinement or atomic coordinate data resulting 
# from the CCDC's data processing and validation procedures.
#
#######################################################################

data_ZONZUZ
_chemical_formula_moiety         'C26 H23 N5'
_chemical_name_systematic        
'(1-(4-(dicyanomethylene)cyclohexa-2,5-dien-1-ylidene)-1-(4-(dimethylamino)phenyl)-3,3-dimethylbutan-2-ylidene)malononitrile unknown solvate'
_symmetry_cell_setting           triclinic
_symmetry_space_group_name_H-M   'P -1'
_symmetry_Int_Tables_number      2
_space_group_name_Hall           '-P 1'
loop_
_symmetry_equiv_pos_site_id
_symmetry_equiv_pos_as_xyz
1 x,y,z
2 -x,-y,-z
_cell_length_a                   12.5333(15)
_cell_length_b                   13.0443(16)
_cell_length_c                   16.579(2)
_cell_angle_alpha                69.680(2)
_cell_angle_beta                 83.260(3)
_cell_angle_gamma                78.410(3)
_cell_volume                     2486.62
_exptl_crystal_colour            black
_exptl_crystal_description       rod
_cell_formula_units_Z            4
loop_
_atom_site_label
_atom_site_type_symbol
_atom_site_fract_x
_atom_site_fract_y
_atom_site_fract_z
N1 N -0.17371(16) -0.04568(15) 1.00720(12)
N2 N 0.20145(14) 0.63088(14) 0.38759(11)
N3 N 0.24831(15) 0.28031(15) 0.42024(12)
N4 N 0.00194(19) 0.64685(17) 0.92770(13)
N5 N 0.20036(16) 0.37705(16) 0.86591(12)
C1 C -0.1953(3) -0.1191(2) 0.96460(18)
H1 H -0.2077 -0.1897 1.0079
H2 H -0.1326 -0.1325 0.9261
H3 H -0.2603 -0.0845 0.9310
C2 C -0.15088(17) 0.05607(17) 0.96023(14)
C3 C -0.12070(17) 0.12640(18) 0.99874(13)
H4 H -0.1188 0.1033 1.0596
C4 C -0.09406(16) 0.22786(17) 0.94932(13)
H5 H -0.0753 0.2740 0.9770
C5 C -0.09393(16) 0.26497(16) 0.85892(13)
C6 C -0.05699(16) 0.36722(16) 0.80689(12)
C7 C -0.00018(15) 0.38270(16) 0.72744(12)
C8 C 0.04825(16) 0.29174(16) 0.69702(12)
H6 H 0.0412 0.2182 0.7322
C9 C 0.10330(16) 0.30857(16) 0.61988(12)
H7 H 0.1340 0.2466 0.6021
C10 C 0.11648(15) 0.41742(16) 0.56428(12)
C11 C 0.17410(15) 0.43497(16) 0.48506(12)
C12 C 0.18968(15) 0.54338(16) 0.43127(12)
C13 C 0.21535(16) 0.34808(16) 0.45035(12)
C14 C -0.08036(17) 0.46184(16) 0.84103(12)
C15 C -0.19822(17) 0.52326(18) 0.84386(13)
C16 C -0.2416(2) 0.5000(2) 0.93852(15)
H8 H -0.1960 0.5263 0.9687
H9 H -0.2394 0.4200 0.9667
H10 H -0.3169 0.5388 0.9403
C17 C -0.2714(2) 0.4862(2) 0.79612(17)
H11 H -0.2755 0.4077 0.8259
H12 H -0.2411 0.4965 0.7371
H13 H -0.3446 0.5306 0.7946
C18 C -0.2031(2) 0.6494(2) 0.79924(16)
H14 H -0.2793 0.6868 0.7970
H15 H -0.1704 0.6638 0.7406
H16 H -0.1627 0.6776 0.8318
C19 C 0.00538(17) 0.48868(16) 0.86672(12)
C20 C 0.00045(18) 0.57759(18) 0.90035(13)
C21 C 0.11337(18) 0.42564(17) 0.86508(13)
C22 C -0.1652(2) -0.0875(2) 1.10000(14)
H17 H -0.0940 -0.0796 1.1139
H18 H -0.1725 -0.1660 1.1222
H19 H -0.2232 -0.0451 1.1265
C23 C -0.15817(18) 0.09698(18) 0.86890(14)
H20 H -0.1828 0.0539 0.8413
C24 C -0.13022(17) 0.19735(17) 0.82072(13)
H21 H -0.1353 0.2224 0.7600
C25 C 0.01621(15) 0.49160(16) 0.67164(12)
H22 H -0.0119 0.5536 0.6901
C26 C 0.07028(15) 0.50835(15) 0.59393(12)
H23 H 0.0777 0.5817 0.5584
N6 N 0.46022(15) 0.29660(16) 0.69517(16)
N7 N -0.05174(17) 0.97360(16) 0.28070(14)
N8 N -0.02017(17) 1.25011(16) 0.35696(15)
N9 N 0.55661(16) 0.88212(16) 0.46087(13)
N10 N 0.63110(17) 0.92502(18) 0.69426(15)
C27 C 0.3739(2) 0.2325(2) 0.70576(19)
H24 H 0.4038 0.1531 0.7286
H25 H 0.3435 0.2492 0.6499
H26 H 0.3162 0.2519 0.7459
C28 C 0.43564(17) 0.40934(17) 0.67349(15)
C29 C 0.51700(17) 0.47500(18) 0.66034(16)
H27 H 0.5913 0.4402 0.6649
C30 C 0.49134(17) 0.58790(18) 0.64107(14)
H28 H 0.5480 0.6292 0.6349
C31 C 0.38288(16) 0.64390(17) 0.63024(13)
C32 C 0.35607(16) 0.76445(16) 0.60905(13)
C33 C 0.28198(16) 0.83357(16) 0.55007(13)
C34 C 0.23554(16) 0.79534(17) 0.49237(14)
H29 H 0.2573 0.7204 0.4945
C35 C 0.16199(17) 0.86316(16) 0.43537(13)
H30 H 0.1331 0.8347 0.3987
C36 C 0.12645(16) 0.97704(16) 0.42887(13)
C37 C 0.04765(16) 1.04493(16) 0.37278(13)
C38 C -0.00593(17) 1.00464(17) 0.32132(14)
C39 C 0.01145(17) 1.15889(18) 0.36454(15)
C40 C 0.24949(16) 0.95007(17) 0.54018(14)
H31 H 0.2808 0.9798 0.5748
C41 C 0.17582(16) 1.01764(17) 0.48296(14)
H32 H 0.1563 1.0936 0.4785
C42 C 0.41337(17) 0.80967(16) 0.66010(14)
C43 C 0.50206(17) 0.85548(16) 0.62158(14)
C44 C 0.53273(17) 0.86831(17) 0.53221(15)
C45 C 0.57290(18) 0.89430(18) 0.66293(15)
C46 C 0.37247(18) 0.79488(19) 0.75375(15)
C47 C 0.4575(2) 0.7124(3) 0.81528(17)
H33 H 0.4316 0.7042 0.8749
H34 H 0.5268 0.7403 0.8032
H35 H 0.4684 0.6402 0.8069
C48 C 0.3526(2) 0.9079(2) 0.76840(19)
H36 H 0.4206 0.9381 0.7557
H37 H 0.3277 0.8980 0.8285
H38 H 0.2968 0.9595 0.7303
C49 C 0.2652(2) 0.7508(2) 0.77576(17)
H39 H 0.2403 0.7455 0.8351
H40 H 0.2760 0.6771 0.7699
H41 H 0.2102 0.8013 0.7364
C50 C 0.5710(2) 0.2434(2) 0.6836(3)
H42 H 0.6182 0.2575 0.7203
H43 H 0.5964 0.2733 0.6232
H44 H 0.5736 0.1632 0.6995
C51 C 0.32640(16) 0.46542(17) 0.66570(13)
H45 H 0.2691 0.4239 0.6757
C52 C 0.30172(16) 0.57890(17) 0.64385(13)
H46 H 0.2276 0.6143 0.6378
loop_
_geom_bond_atom_site_label_1
_geom_bond_atom_site_label_2
_geom_bond_site_symmetry_1
_geom_bond_site_symmetry_2
N1 C1 1_555 1_555
N2 C12 1_555 1_555
N3 C13 1_555 1_555
N4 C20 1_555 1_555
N5 C21 1_555 1_555
C1 H1 1_555 1_555
H2 C1 1_555 1_555
H3 C1 1_555 1_555
C2 N1 1_555 1_555
C3 C2 1_555 1_555
H4 C3 1_555 1_555
C4 C3 1_555 1_555
H5 C4 1_555 1_555
C5 C4 1_555 1_555
C6 C5 1_555 1_555
C7 C6 1_555 1_555
C8 C7 1_555 1_555
H6 C8 1_555 1_555
C9 C8 1_555 1_555
H7 C9 1_555 1_555
C10 C9 1_555 1_555
C11 C10 1_555 1_555
C12 C11 1_555 1_555
C13 C11 1_555 1_555
C14 C6 1_555 1_555
C15 C14 1_555 1_555
C16 C15 1_555 1_555
H8 C16 1_555 1_555
H9 C16 1_555 1_555
H10 C16 1_555 1_555
C17 C15 1_555 1_555
H11 C17 1_555 1_555
H12 C17 1_555 1_555
H13 C17 1_555 1_555
C18 C15 1_555 1_555
H14 C18 1_555 1_555
H15 C18 1_555 1_555
H16 C18 1_555 1_555
C19 C14 1_555 1_555
C20 C19 1_555 1_555
C21 C19 1_555 1_555
C22 N1 1_555 1_555
H17 C22 1_555 1_555
H18 C22 1_555 1_555
H19 C22 1_555 1_555
C23 C2 1_555 1_555
H20 C23 1_555 1_555
C24 C5 1_555 1_555
H21 C24 1_555 1_555
C25 C7 1_555 1_555
H22 C25 1_555 1_555
C26 C10 1_555 1_555
H23 C26 1_555 1_555
N6 C27 1_555 1_555
N7 C38 1_555 1_555
N8 C39 1_555 1_555
N9 C44 1_555 1_555
N10 C45 1_555 1_555
C27 H24 1_555 1_555
H25 C27 1_555 1_555
H26 C27 1_555 1_555
C28 N6 1_555 1_555
C29 C28 1_555 1_555
H27 C29 1_555 1_555
C30 C29 1_555 1_555
H28 C30 1_555 1_555
C31 C30 1_555 1_555
C32 C31 1_555 1_555
C33 C32 1_555 1_555
C34 C33 1_555 1_555
H29 C34 1_555 1_555
C35 C34 1_555 1_555
H30 C35 1_555 1_555
C36 C35 1_555 1_555
C37 C36 1_555 1_555
C38 C37 1_555 1_555
C39 C37 1_555 1_555
C40 C33 1_555 1_555
H31 C40 1_555 1_555
C41 C36 1_555 1_555
H32 C41 1_555 1_555
C42 C32 1_555 1_555
C43 C42 1_555 1_555
C44 C43 1_555 1_555
C45 C43 1_555 1_555
C46 C42 1_555 1_555
C47 C46 1_555 1_555
H33 C47 1_555 1_555
H34 C47 1_555 1_555
H35 C47 1_555 1_555
C48 C46 1_555 1_555
H36 C48 1_555 1_555
H37 C48 1_555 1_555
H38 C48 1_555 1_555
C49 C46 1_555 1_555
H39 C49 1_555 1_555
H40 C49 1_555 1_555
H41 C49 1_555 1_555
C50 N6 1_555 1_555
H42 C50 1_555 1_555
H43 C50 1_555 1_555
H44 C50 1_555 1_555
C51 C28 1_555 1_555
H45 C51 1_555 1_555
C52 C31 1_555 1_555
H46 C52 1_555 1_555
C23 C24 1_555 1_555
C25 C26 1_555 1_555
C40 C41 1_555 1_555
C51 C52 1_555 1_555

#END
