
#######################################################################
#
#                 Cambridge Crystallographic Data Centre
#                                CCDC 
#
#######################################################################
#
# If this CIF has been generated from an entry in the Cambridge 
# Structural Database, then it will include bibliographic, chemical, 
# crystal, experimental, refinement or atomic coordinate data resulting 
# from the CCDC's data processing and validation procedures.
#
#######################################################################

data_ZOPBIR
_chemical_name_common            
'(3E)-2-[4-(Dimethylamino)phenyl]-3-(3,3-dimethylbut-1-yn-1-yl)-4-[4-(trifluoromethyl)phenyl]buta-1,3-diene-1,1,4-tricarbonitrile dichloromethane solvate'
_chemical_formula_moiety         '2(C28 H23 F3 N4),C1 H2 Cl2'
_chemical_name_systematic        
'2-(4-(dimethylamino)phenyl)-3-(3,3-dimethylbut-1-yn-1-yl)-4-(4-(trifluoromethyl)phenyl)buta-1,3-diene-1,1,4-tricarbonitrile dichloromethane solvate'
_symmetry_cell_setting           monoclinic
_symmetry_space_group_name_H-M   'P 21/n'
_symmetry_Int_Tables_number      14
_space_group_name_Hall           '-P 2yn'
loop_
_symmetry_equiv_pos_site_id
_symmetry_equiv_pos_as_xyz
1 x,y,z
2 1/2-x,1/2+y,1/2-z
3 -x,-y,-z
4 1/2+x,1/2-y,1/2+z
_cell_length_a                   11.7178(4)
_cell_length_b                   20.2563(7)
_cell_length_c                   22.3901(7)
_cell_angle_alpha                90
_cell_angle_beta                 91.404(2)
_cell_angle_gamma                90
_cell_volume                     5312.9
_exptl_crystal_colour            orange
_exptl_crystal_description       needle
_cell_formula_units_Z            4
_exptl_crystal_recrystallization_method 'dichloromethane/pentane mixture'
loop_
_atom_site_label
_atom_site_type_symbol
_atom_site_fract_x
_atom_site_fract_y
_atom_site_fract_z
Cl1 Cl 0.5819(4) 0.80916(16) 0.27427(19)
Cl2 Cl 0.4087(3) 0.73440(15) 0.33269(14)
C1 C 0.4615(11) 0.7602(5) 0.2651(4)
H1 H 0.4017 0.7854 0.2430
H2 H 0.4807 0.7210 0.2409
F1 F 0.1740(9) 0.6946(5) 0.4645(4)
F2 F 0.0570(10) 0.6156(5) 0.4742(4)
F3 F 0.0006(9) 0.7150(5) 0.4755(4)
N1 N -0.1470(6) 0.4917(3) 0.2036(3)
N2 N 0.1773(7) 0.4039(4) 0.2344(3)
N3 N -0.1475(6) 0.7486(4) 0.1531(3)
N4 N 0.5716(6) 0.6236(3) 0.1194(3)
C2 C 0.0698(7) 0.5059(4) 0.1946(3)
C3 C 0.1154(6) 0.5621(4) 0.1703(3)
C4 C 0.0297(7) 0.6156(4) 0.1545(3)
C5 C -0.0107(7) 0.6589(4) 0.1955(3)
C6 C -0.0491(7) 0.4982(4) 0.2002(3)
C7 C 0.1317(7) 0.4498(4) 0.2154(4)
C8 C -0.0884(7) 0.7071(4) 0.1720(4)
C9 C 0.0132(7) 0.6629(4) 0.2597(3)
C10 C 0.1193(7) 0.6460(4) 0.2853(3)
H3 H 0.1793 0.6318 0.2606
C11 C 0.1371(7) 0.6499(4) 0.3459(3)
H4 H 0.2095 0.6385 0.3630
C12 C 0.0501(7) 0.6705(4) 0.3826(4)
C13 C -0.0538(7) 0.6884(4) 0.3580(4)
H5 H -0.1129 0.7032 0.3831
C14 C -0.0726(7) 0.6849(4) 0.2968(3)
H6 H -0.1445 0.6977 0.2800
C15 C 0.0697(8) 0.6715(5) 0.4472(4)
C16 C 0.2335(6) 0.5750(4) 0.1566(3)
C17 C 0.3196(7) 0.5267(4) 0.1547(3)
H7 H 0.3005 0.4820 0.1625
C18 C 0.4296(7) 0.5422(4) 0.1421(3)
H8 H 0.4852 0.5081 0.1405
C19 C 0.4620(6) 0.6080(4) 0.1314(3)
C20 C 0.3755(7) 0.6560(4) 0.1322(3)
H9 H 0.3944 0.7007 0.1245
C21 C 0.2661(7) 0.6403(4) 0.1435(3)
H10 H 0.2098 0.6740 0.1426
C22 C 0.6043(7) 0.6924(4) 0.1100(4)
H11 H 0.5881 0.7182 0.1458
H12 H 0.5606 0.7104 0.0758
H13 H 0.6860 0.6948 0.1020
C23 C 0.6605(7) 0.5736(4) 0.1193(4)
H14 H 0.6447 0.5421 0.0869
H15 H 0.6622 0.5503 0.1576
H16 H 0.7345 0.5947 0.1132
C24 C -0.0055(7) 0.6161(4) 0.0938(4)
C25 C -0.0381(7) 0.6145(4) 0.0436(3)
C26 C -0.0812(8) 0.6137(4) -0.0203(4)
C27 C 0.0219(8) 0.6190(4) -0.0616(4)
H17 H -0.0048 0.6177 -0.1034
H18 H 0.0739 0.5819 -0.0538
H19 H 0.0622 0.6606 -0.0537
C28 C -0.1623(8) 0.6726(4) -0.0302(4)
H20 H -0.1885 0.6737 -0.0721
H21 H -0.1219 0.7137 -0.0204
H22 H -0.2282 0.6679 -0.0045
C29 C -0.1462(8) 0.5495(4) -0.0324(4)
H23 H -0.2074 0.5449 -0.0036
H24 H -0.0937 0.5120 -0.0283
H25 H -0.1792 0.5503 -0.0730
F7 F 0.6677(5) 0.4214(3) 0.0275(2)
F8 F 0.6590(6) 0.3178(3) 0.0295(2)
F9 F 0.5104(5) 0.3721(3) 0.0071(2)
N5 N 0.6582(6) 0.6362(4) 0.2660(3)
N6 N 0.3411(6) 0.5453(3) 0.2953(3)
N7 N 0.3398(6) 0.2890(3) 0.3204(3)
N8 N 1.0716(6) 0.4227(3) 0.3830(3)
C30 C 0.5599(7) 0.5306(4) 0.3031(3)
C31 C 0.6092(7) 0.4746(4) 0.3257(3)
C32 C 0.5271(7) 0.4188(4) 0.3354(3)
C33 C 0.4874(7) 0.3786(4) 0.2914(3)
C34 C 0.6188(7) 0.5892(4) 0.2844(4)
C35 C 0.4389(7) 0.5366(4) 0.2987(3)
C36 C 0.4050(7) 0.3294(4) 0.3088(3)
C37 C 0.5183(6) 0.3778(4) 0.2277(3)
C38 C 0.4358(7) 0.3574(4) 0.1850(3)
H26 H 0.3619 0.3445 0.1971
C39 C 0.4630(7) 0.3562(4) 0.1251(4)
H27 H 0.4070 0.3432 0.0961
C40 C 0.5700(7) 0.3737(4) 0.1073(4)
C41 C 0.6514(8) 0.3925(4) 0.1503(4)
H28 H 0.7259 0.4042 0.1382
C42 C 0.6262(7) 0.3947(4) 0.2094(3)
H29 H 0.6830 0.4078 0.2380
C43 C 0.6003(9) 0.3723(5) 0.0432(4)
C44 C 0.7262(7) 0.4637(4) 0.3429(3)
C45 C 0.8120(7) 0.5135(4) 0.3449(3)
H30 H 0.7904 0.5576 0.3355
C46 C 0.9230(7) 0.5013(4) 0.3596(3)
H31 H 0.9765 0.5365 0.3613
C47 C 0.9590(7) 0.4361(4) 0.3724(3)
C48 C 0.8750(7) 0.3862(4) 0.3718(3)
H32 H 0.8961 0.3421 0.3815
C49 C 0.7651(7) 0.4004(4) 0.3577(3)
H33 H 0.7112 0.3654 0.3578
C50 C 1.1576(8) 0.4741(4) 0.3825(4)
H34 H 1.1418 0.5066 0.4137
H35 H 1.1561 0.4959 0.3435
H36 H 1.2331 0.4546 0.3901
C51 C 1.1114(8) 0.3542(4) 0.3893(4)
H37 H 1.1946 0.3538 0.3953
H38 H 1.0910 0.3294 0.3529
H39 H 1.0754 0.3336 0.4237
C52 C 0.4935(7) 0.4092(4) 0.3960(4)
C53 C 0.4668(7) 0.3997(4) 0.4450(4)
C54 C 0.4370(8) 0.3812(4) 0.5085(4)
C55 C 0.5423(9) 0.3889(5) 0.5478(4)
H40 H 0.5225 0.3817 0.5896
H41 H 0.5732 0.4335 0.5432
H42 H 0.5997 0.3564 0.5363
C56 C 0.3962(9) 0.3097(5) 0.5079(4)
H43 H 0.3270 0.3059 0.4826
H44 H 0.3793 0.2959 0.5486
H45 H 0.4560 0.2813 0.4920
C57 C 0.3415(8) 0.4249(5) 0.5301(4)
H46 H 0.2755 0.4213 0.5026
H47 H 0.3676 0.4708 0.5316
H48 H 0.3197 0.4108 0.5701
F4? F 0.1047(14) 0.7272(7) 0.4701(6)
F5? F 0.1516(14) 0.6287(7) 0.4695(6)
F6? F -0.0136(14) 0.6412(7) 0.4781(6)
loop_
_geom_bond_atom_site_label_1
_geom_bond_atom_site_label_2
_geom_bond_site_symmetry_1
_geom_bond_site_symmetry_2
Cl1 C1 1_555 1_555
Cl2 C1 1_555 1_555
C1 H1 1_555 1_555
H2 C1 1_555 1_555
F1 C15 1_555 1_555
F2 C15 1_555 1_555
F3 C15 1_555 1_555
N1 C6 1_555 1_555
N2 C7 1_555 1_555
N3 C8 1_555 1_555
N4 C19 1_555 1_555
C2 C3 1_555 1_555
C3 C4 1_555 1_555
C4 C5 1_555 1_555
C5 C8 1_555 1_555
C6 C2 1_555 1_555
C7 C2 1_555 1_555
C9 C5 1_555 1_555
C10 C9 1_555 1_555
H3 C10 1_555 1_555
C11 C10 1_555 1_555
H4 C11 1_555 1_555
C12 C11 1_555 1_555
C13 C12 1_555 1_555
H5 C13 1_555 1_555
C14 C9 1_555 1_555
H6 C14 1_555 1_555
C15 C12 1_555 1_555
C16 C3 1_555 1_555
C17 C16 1_555 1_555
H7 C17 1_555 1_555
C18 C17 1_555 1_555
H8 C18 1_555 1_555
C19 C18 1_555 1_555
C20 C19 1_555 1_555
H9 C20 1_555 1_555
C21 C16 1_555 1_555
H10 C21 1_555 1_555
C22 N4 1_555 1_555
H11 C22 1_555 1_555
H12 C22 1_555 1_555
H13 C22 1_555 1_555
C23 N4 1_555 1_555
H14 C23 1_555 1_555
H15 C23 1_555 1_555
H16 C23 1_555 1_555
C24 C4 1_555 1_555
C25 C24 1_555 1_555
C26 C25 1_555 1_555
C27 C26 1_555 1_555
H17 C27 1_555 1_555
H18 C27 1_555 1_555
H19 C27 1_555 1_555
C28 C26 1_555 1_555
H20 C28 1_555 1_555
H21 C28 1_555 1_555
H22 C28 1_555 1_555
C29 C26 1_555 1_555
H23 C29 1_555 1_555
H24 C29 1_555 1_555
H25 C29 1_555 1_555
F7 C43 1_555 1_555
F8 C43 1_555 1_555
F9 C43 1_555 1_555
N5 C34 1_555 1_555
N6 C35 1_555 1_555
N7 C36 1_555 1_555
N8 C47 1_555 1_555
C30 C31 1_555 1_555
C31 C32 1_555 1_555
C32 C33 1_555 1_555
C33 C36 1_555 1_555
C34 C30 1_555 1_555
C35 C30 1_555 1_555
C37 C33 1_555 1_555
C38 C37 1_555 1_555
H26 C38 1_555 1_555
C39 C38 1_555 1_555
H27 C39 1_555 1_555
C40 C39 1_555 1_555
C41 C40 1_555 1_555
H28 C41 1_555 1_555
C42 C37 1_555 1_555
H29 C42 1_555 1_555
C43 C40 1_555 1_555
C44 C31 1_555 1_555
C45 C44 1_555 1_555
H30 C45 1_555 1_555
C46 C45 1_555 1_555
H31 C46 1_555 1_555
C47 C46 1_555 1_555
C48 C47 1_555 1_555
H32 C48 1_555 1_555
C49 C44 1_555 1_555
H33 C49 1_555 1_555
C50 N8 1_555 1_555
H34 C50 1_555 1_555
H35 C50 1_555 1_555
H36 C50 1_555 1_555
C51 N8 1_555 1_555
H37 C51 1_555 1_555
H38 C51 1_555 1_555
H39 C51 1_555 1_555
C52 C32 1_555 1_555
C53 C52 1_555 1_555
C54 C53 1_555 1_555
C55 C54 1_555 1_555
H40 C55 1_555 1_555
H41 C55 1_555 1_555
H42 C55 1_555 1_555
C56 C54 1_555 1_555
H43 C56 1_555 1_555
H44 C56 1_555 1_555
H45 C56 1_555 1_555
C57 C54 1_555 1_555
H46 C57 1_555 1_555
H47 C57 1_555 1_555
H48 C57 1_555 1_555
C13 C14 1_555 1_555
C20 C21 1_555 1_555
C41 C42 1_555 1_555
C48 C49 1_555 1_555

#END
