
#######################################################################
#
#                 Cambridge Crystallographic Data Centre
#                                CCDC 
#
#######################################################################
#
# If this CIF has been generated from an entry in the Cambridge 
# Structural Database, then it will include bibliographic, chemical, 
# crystal, experimental, refinement or atomic coordinate data resulting 
# from the CCDC's data processing and validation procedures.
#
#######################################################################

data_ZOPBEN
_chemical_formula_moiety         'C28 H23 F3 N4'
_chemical_name_systematic        
(3Z)-2-[4-(Dimethylamino)phenyl]-3-(3,3-dimethylbut-1-yn-1-yl)-4-[4-(trifluoromethyl)phenyl]buta-1,3-diene-1,1,4-tricarbonitrile
_symmetry_cell_setting           monoclinic
_symmetry_space_group_name_H-M   'P 21/n'
_symmetry_Int_Tables_number      14
_space_group_name_Hall           '-P 2yn'
loop_
_symmetry_equiv_pos_site_id
_symmetry_equiv_pos_as_xyz
1 x,y,z
2 1/2-x,1/2+y,1/2-z
3 -x,-y,-z
4 1/2+x,1/2-y,1/2+z
_cell_length_a                   13.825(3)
_cell_length_b                   11.7685(19)
_cell_length_c                   15.634(3)
_cell_angle_alpha                90
_cell_angle_beta                 95.860(4)
_cell_angle_gamma                90
_cell_volume                     2530.35
_exptl_crystal_colour            orange
_exptl_crystal_description       needle
_cell_formula_units_Z            4
_exptl_crystal_recrystallization_method 'dichloromethane/pentane mixture'
loop_
_atom_site_label
_atom_site_type_symbol
_atom_site_fract_x
_atom_site_fract_y
_atom_site_fract_z
N1 N 0.23611(16) 0.9223(2) -0.04863(16)
N2 N 0.24645(17) 0.7112(2) 0.16940(17)
N3 N 0.36591(16) 0.50706(19) -0.01003(15)
N4 N 0.70984(16) 0.9550(2) -0.16273(14)
C1 C 0.34678(18) 0.7957(2) 0.05408(17)
C2 C 0.44508(17) 0.7744(2) 0.05317(17)
C3 C 0.48719(17) 0.6996(2) 0.12616(17)
C4 C 0.46613(17) 0.5864(2) 0.12661(17)
C5 C 0.28797(19) 0.8673(2) -0.00418(18)
C6 C 0.29294(19) 0.7468(2) 0.11875(19)
C7 C 0.40971(19) 0.5435(2) 0.04996(18)
C8 C 0.48851(17) 0.5017(2) 0.19599(17)
C9 C 0.55055(19) 0.5234(2) 0.27044(17)
H1 H 0.5846 0.5936 0.2761
C10 C 0.56297(19) 0.4449(2) 0.33557(19)
H2 H 0.6050 0.4614 0.3859
C11 C 0.51444(18) 0.3413(2) 0.32836(17)
C12 C 0.4549(2) 0.3164(2) 0.25457(18)
H3 H 0.4227 0.2451 0.2487
C13 C 0.44237(19) 0.3959(2) 0.18886(18)
H4 H 0.4016 0.3781 0.1380
C14 C 0.5353(6) 0.2560(7) 0.3985(5)
C15 C 0.50994(18) 0.8186(2) -0.00483(17)
C16 C 0.60905(18) 0.7874(2) 0.00471(18)
H5 H 0.6309 0.7344 0.0483
C17 C 0.67476(19) 0.8306(2) -0.04630(17)
H6 H 0.7410 0.8081 -0.0368
C18 C 0.64569(18) 0.9080(2) -0.11288(17)
C19 C 0.54590(19) 0.9368(2) -0.12521(18)
H7 H 0.5233 0.9866 -0.1707
C20 C 0.48156(19) 0.8941(2) -0.07273(18)
H8 H 0.4152 0.9161 -0.0824
C21 C 0.6764(2) 1.0178(2) -0.24091(18)
H9 H 0.6394 0.9668 -0.2816
H10 H 0.7327 1.0476 -0.2670
H11 H 0.6348 1.0809 -0.2265
C22 C 0.8133(2) 0.9281(3) -0.14768(19)
H12 H 0.8354 0.9382 -0.0866
H13 H 0.8501 0.9789 -0.1821
H14 H 0.8239 0.8491 -0.1643
C23 C 0.54567(19) 0.7596(2) 0.19197(17)
C24 C 0.59777(19) 0.8165(2) 0.24048(18)
C25 C 0.66827(19) 0.8757(2) 0.30290(18)
C26 C 0.76541(19) 0.8114(2) 0.30592(19)
H15 H 0.7561 0.7328 0.3242
H16 H 0.8137 0.8487 0.3468
H17 H 0.7883 0.8116 0.2486
C27 C 0.6300(2) 0.8747(3) 0.39144(19)
H18 H 0.5677 0.9149 0.3882
H19 H 0.6769 0.9125 0.4333
H20 H 0.6208 0.7960 0.4094
C28 C 0.6830(2) 0.9991(2) 0.27403(19)
H21 H 0.7063 0.9992 0.2169
H22 H 0.7310 1.0366 0.3151
H23 H 0.6211 1.0401 0.2717
F1 F 0.4764(3) 0.1662(3) 0.3920(2)
F2 F 0.6297(2) 0.2235(3) 0.4122(2)
F3 F 0.5155(3) 0.3014(3) 0.4760(2)
F4? F 0.6111(3) 0.2512(4) 0.4363(3)
F5? F 0.4698(5) 0.2970(4) 0.4661(3)
F6? F 0.4976(3) 0.1508(4) 0.3754(3)
C29? C 0.5174(8) 0.2646(9) 0.4046(8)
loop_
_geom_bond_atom_site_label_1
_geom_bond_atom_site_label_2
_geom_bond_site_symmetry_1
_geom_bond_site_symmetry_2
N1 C5 1_555 1_555
N2 C6 1_555 1_555
N3 C7 1_555 1_555
N4 C18 1_555 1_555
C1 C2 1_555 1_555
C2 C3 1_555 1_555
C3 C4 1_555 1_555
C4 C7 1_555 1_555
C5 C1 1_555 1_555
C6 C1 1_555 1_555
C8 C4 1_555 1_555
C9 C8 1_555 1_555
H1 C9 1_555 1_555
C10 C9 1_555 1_555
H2 C10 1_555 1_555
C11 C10 1_555 1_555
C12 C11 1_555 1_555
H3 C12 1_555 1_555
C13 C8 1_555 1_555
H4 C13 1_555 1_555
C14 C11 1_555 1_555
C15 C2 1_555 1_555
C16 C15 1_555 1_555
H5 C16 1_555 1_555
C17 C16 1_555 1_555
H6 C17 1_555 1_555
C18 C17 1_555 1_555
C19 C18 1_555 1_555
H7 C19 1_555 1_555
C20 C15 1_555 1_555
H8 C20 1_555 1_555
C21 N4 1_555 1_555
H9 C21 1_555 1_555
H10 C21 1_555 1_555
H11 C21 1_555 1_555
C22 N4 1_555 1_555
H12 C22 1_555 1_555
H13 C22 1_555 1_555
H14 C22 1_555 1_555
C23 C3 1_555 1_555
C24 C23 1_555 1_555
C25 C24 1_555 1_555
C26 C25 1_555 1_555
H15 C26 1_555 1_555
H16 C26 1_555 1_555
H17 C26 1_555 1_555
C27 C25 1_555 1_555
H18 C27 1_555 1_555
H19 C27 1_555 1_555
H20 C27 1_555 1_555
C28 C25 1_555 1_555
H21 C28 1_555 1_555
H22 C28 1_555 1_555
H23 C28 1_555 1_555
F1 C14 1_555 1_555
F2 C14 1_555 1_555
F3 C14 1_555 1_555
C12 C13 1_555 1_555
C19 C20 1_555 1_555

#END
