
#######################################################################
#
#                 Cambridge Crystallographic Data Centre
#                                CCDC 
#
#######################################################################
#
# If this CIF has been generated from an entry in the Cambridge 
# Structural Database, then it will include bibliographic, chemical, 
# crystal, experimental, refinement or atomic coordinate data resulting 
# from the CCDC's data processing and validation procedures.
#
#######################################################################

data_ZOPCIQ
_chemical_formula_moiety         '2(C51 H75 N3 O7),10(H2 O1)'
_chemical_name_systematic        
"3',17-(3-(2-Ethylcarbamoyl)benzamido)-3,17'-(2-ethylcarbamoyl)-bis(7,12-dihydroxy-10-methylestrane) decahydrate"
_symmetry_cell_setting           monoclinic
_symmetry_space_group_name_H-M   'P 21'
_symmetry_Int_Tables_number      4
_space_group_name_Hall           'P 2yb'
loop_
_symmetry_equiv_pos_site_id
_symmetry_equiv_pos_as_xyz
1 x,y,z
2 -x,1/2+y,-z
_cell_length_a                   15.283(7)
_cell_length_b                   17.243(5)
_cell_length_c                   21.056(6)
_cell_angle_alpha                90
_cell_angle_beta                 91.28(1)
_cell_angle_gamma                90
_cell_volume                     5547.39
_cell_formula_units_Z            2
loop_
_atom_site_label
_atom_site_type_symbol
_atom_site_fract_x
_atom_site_fract_y
_atom_site_fract_z
C1 C 0.0875(6) 1.1230(5) 0.6214(4)
C2 C 0.1753(6) 1.1371(5) 0.6530(4)
C3 C 0.2383(5) 1.1774(4) 0.6070(3)
C4 C 0.2412(5) 1.1337(4) 0.5435(3)
C5 C 0.1504(5) 1.1150(4) 0.5143(4)
C6 C 0.1563(6) 1.0683(5) 0.4525(4)
C7 C 0.1873(5) 0.9843(4) 0.4603(3)
O1 O 0.2800(3) 0.9820(3) 0.4741(2)
C8 C 0.1378(5) 0.9435(4) 0.5125(3)
C9 C 0.1283(4) 0.9907(4) 0.5755(3)
C10 C 0.0907(5) 1.0733(4) 0.5622(3)
C11 C 0.0792(5) 0.9456(4) 0.6239(3)
C12 C 0.1140(4) 0.8652(4) 0.6389(3)
O2 O 0.1945(3) 0.8718(3) 0.6738(2)
C13 C 0.1211(4) 0.8178(4) 0.5777(3)
C14 C 0.1776(4) 0.8639(4) 0.5306(3)
C15 C 0.1979(5) 0.8060(4) 0.4785(3)
C16 C 0.2101(5) 0.7305(5) 0.5151(4)
C17 C 0.1764(4) 0.7426(4) 0.5839(3)
C18 C -0.0039(6) 1.0677(6) 0.5342(4)
C19 C 0.0296(5) 0.8002(5) 0.5504(4)
C20 C 0.7583(5) 0.8359(5) 0.7158(3)
C21 C 0.6798(5) 0.7826(4) 0.7221(3)
C22 C 0.6767(5) 0.7247(5) 0.6696(4)
C23 C 0.6774(5) 0.7659(4) 0.6048(3)
C24 C 0.7549(4) 0.8214(5) 0.5980(3)
C25 C 0.7533(5) 0.8607(5) 0.5325(3)
C26 C 0.6805(5) 0.9212(5) 0.5245(3)
O3 O 0.5969(3) 0.8857(3) 0.5163(2)
C27 C 0.6768(5) 0.9790(4) 0.5799(3)
C28 C 0.6813(5) 0.9375(4) 0.6455(3)
C29 C 0.7607(4) 0.8814(5) 0.6525(3)
C30 C 0.6821(6) 0.9987(5) 0.6991(3)
C31 C 0.6040(5) 1.0543(5) 0.6937(3)
O4 O 0.5239(4) 1.0112(4) 0.7067(3)
C32 C 0.5960(5) 1.0938(4) 0.6291(3)
C33 C 0.5983(5) 1.0301(4) 0.5769(3)
C34 C 0.5748(5) 1.0735(4) 0.5159(3)
C35 C 0.5089(7) 1.1340(5) 0.5364(3)
C36 C 0.5070(5) 1.1305(4) 0.6109(3)
C37 C 0.8478(5) 0.9232(6) 0.6514(4)
C38 C 0.6696(6) 1.1528(5) 0.6242(4)
C39 C 0.1334(5) 0.6683(4) 0.6104(3)
C40 C 0.0917(6) 0.6769(5) 0.6752(4)
C41 C 0.1991(5) 0.6016(4) 0.6120(3)
O5 O 0.1818(4) 0.5387(3) 0.5897(4)
N1 N 0.2757(4) 0.6149(3) 0.6425(3)
C42 C 0.3505(5) 0.5692(4) 0.6457(3)
C43 C 0.3489(5) 0.4875(4) 0.6453(3)
C44 C 0.4231(6) 0.4462(4) 0.6491(4)
C45 C 0.5055(6) 0.4835(4) 0.6532(4)
C46 C 0.5079(5) 0.5631(4) 0.6537(3)
C47 C 0.4312(5) 0.6061(4) 0.6502(3)
C48 C 0.5955(5) 0.6015(4) 0.6533(3)
O6 O 0.6606(4) 0.5647(3) 0.6387(3)
N2 N 0.5995(4) 0.6762(4) 0.6718(3)
C49 C 0.4789(6) 1.2094(4) 0.6399(4)
C50 C 0.4862(7) 1.2114(6) 0.7135(4)
C51 C 0.3863(6) 1.2273(4) 0.6168(3)
O7 O 0.3705(4) 1.2809(3) 0.5796(3)
N3 N 0.3253(5) 1.1812(4) 0.6352(3)
H1 H 0.0616 1.1727 0.6103
H2 H 0.0497 1.0981 0.6517
H3 H 0.2003 1.0880 0.6667
H4 H 0.1681 1.1693 0.6903
H5 H 0.2173 1.2303 0.5990
H6 H 0.2730 1.0855 0.5501
H7 H 0.2735 1.1646 0.5135
H8 H 0.1224 1.1646 0.5035
H9 H 0.0990 1.0679 0.4318
H10 H 0.1959 1.0949 0.4245
H11 H 0.1759 0.9568 0.4203
H12 H 0.3062 1.0041 0.4458
H13 H 0.0785 0.9337 0.4958
H14 H 0.0189 0.9408 0.6091
H15 H 0.0791 0.9754 0.6630
H16 H 0.0718 0.8392 0.6661
H17 H 0.2135 0.8284 0.6820
H18 H 0.2333 0.8748 0.5528
H19 H 0.1499 0.8022 0.4478
H20 H 0.2508 0.8202 0.4567
H21 H 0.2715 0.7162 0.5166
H22 H 0.1774 0.6892 0.4942
H23 H 0.2274 0.7545 0.6113
H24 H -0.0040 1.0364 0.4965
H25 H -0.0250 1.1187 0.5240
H26 H -0.0412 1.0444 0.5650
H27 H 0.0345 0.7705 0.5121
H28 H -0.0003 0.8480 0.5412
H29 H -0.0028 0.7711 0.5808
H30 H 0.8112 0.8051 0.7199
H31 H 0.7585 0.8728 0.7506
H32 H 0.6835 0.7558 0.7626
H33 H 0.6265 0.8131 0.7211
H34 H 0.7286 0.6915 0.6733
H35 H 0.6795 0.7271 0.5714
H36 H 0.6234 0.7947 0.5990
H37 H 0.8082 0.7900 0.6007
H38 H 0.8093 0.8856 0.5261
H39 H 0.7457 0.8213 0.5000
H40 H 0.6921 0.9508 0.4858
H41 H 0.5593 0.9193 0.5121
H42 H 0.7285 1.0125 0.5774
H43 H 0.6279 0.9066 0.6494
H44 H 0.6810 0.9725 0.7399
H45 H 0.7360 1.0283 0.6976
H46 H 0.6114 1.0945 0.7262
H47 H 0.5287 0.9901 0.7415
H48 H 0.5483 0.9961 0.5849
H49 H 0.6261 1.0979 0.4984
H50 H 0.5492 1.0388 0.4844
H51 H 0.4514 1.1225 0.5183
H52 H 0.5264 1.1851 0.5224
H53 H 0.4620 1.0927 0.6219
H54 H 0.8517 0.9522 0.6126
H55 H 0.8945 0.8860 0.6538
H56 H 0.8525 0.9579 0.6870
H57 H 0.6656 1.1784 0.5837
H58 H 0.7250 1.1269 0.6284
H59 H 0.6646 1.1906 0.6575
H60 H 0.0866 0.6536 0.5803
H61 H 0.0505 0.7189 0.6738
H62 H 0.1363 0.6875 0.7068
H63 H 0.0620 0.6297 0.6858
H64 H 0.2789 0.6580 0.6631
H65 H 0.2954 0.4618 0.6423
H66 H 0.4204 0.3923 0.6490
H67 H 0.5570 0.4548 0.6556
H68 H 0.4338 0.6600 0.6509
H69 H 0.5526 0.6967 0.6859
H70 H 0.5175 1.2497 0.6234
H71 H 0.5453 1.2000 0.7268
H72 H 0.4475 1.1735 0.7308
H73 H 0.4704 1.2620 0.7284
H74 H 0.3373 1.1507 0.6665
C52 C -0.4474(6) 0.1540(5) 0.8978(4)
C53 C -0.3628(7) 0.1309(5) 0.8676(4)
C54 C -0.2992(6) 0.0951(4) 0.9137(4)
C55 C -0.2919(6) 0.1391(5) 0.9757(4)
C56 C -0.3777(5) 0.1663(5) 1.0037(4)
C57 C -0.3604(6) 0.2160(5) 1.0641(4)
C58 C -0.3241(5) 0.2945(5) 1.0516(3)
O8 O -0.2313(3) 0.2917(3) 1.0382(3)
C59 C -0.3716(5) 0.3369(4) 0.9960(3)
C60 C -0.3889(4) 0.2853(4) 0.9383(3)
C61 C -0.4349(5) 0.2079(4) 0.9554(3)
C62 C -0.4358(5) 0.3288(4) 0.8845(3)
C63 C -0.3935(4) 0.4060(4) 0.8663(3)
O9 O -0.3152(4) 0.3912(3) 0.8340(2)
C64 C -0.3796(4) 0.4575(4) 0.9248(3)
C65 C -0.3253(5) 0.4111(4) 0.9750(3)
C66 C -0.3018(6) 0.4718(5) 1.0242(4)
C67 C -0.2803(6) 0.5446(5) 0.9832(4)
C68 C -0.3166(5) 0.5285(4) 0.9169(3)
C69 C -0.5279(5) 0.2225(6) 0.9813(4)
C70 C -0.4684(5) 0.4834(5) 0.9501(4)
C71 C 0.2347(5) 0.4099(5) 0.7751(3)
C72 C 0.1642(5) 0.4706(4) 0.7711(3)
C73 C 0.1775(5) 0.5284(4) 0.8241(4)
C74 C 0.1833(5) 0.4876(5) 0.8888(4)
C75 C 0.2538(4) 0.4230(5) 0.8918(3)
C76 C 0.2555(5) 0.3832(6) 0.9564(4)
C77 C 0.1770(5) 0.3301(5) 0.9698(3)
O10 O 0.0984(3) 0.3749(3) 0.9814(2)
C78 C 0.1594(5) 0.2748(4) 0.9146(3)
C79 C 0.1579(4) 0.3155(4) 0.8489(3)
C80 C 0.2411(5) 0.3646(5) 0.8374(3)
C81 C 0.1383(6) 0.2553(5) 0.7964(3)
C82 C 0.0544(5) 0.2080(5) 0.8065(3)
O11 O -0.0196(4) 0.2555(4) 0.7991(3)
C83 C 0.0571(5) 0.1678(4) 0.8706(3)
C84 C 0.0749(5) 0.2305(4) 0.9220(3)
C85 C 0.0579(6) 0.1879(5) 0.9843(3)
C86 C -0.0135(6) 0.1316(5) 0.9675(3)
C87 C -0.0273(5) 0.1338(4) 0.8947(3)
C88 C 0.3228(5) 0.3132(6) 0.8320(5)
C89 C 0.1285(7) 0.1046(5) 0.8704(4)
C90 C -0.3575(5) 0.6031(4) 0.8867(3)
C91 C -0.3986(6) 0.5945(5) 0.8201(4)
C92 C -0.2915(5) 0.6682(4) 0.8859(3)
O12 O -0.3062(4) 0.7320(3) 0.9074(3)
N4 N -0.2145(4) 0.6508(4) 0.8583(3)
C93 C -0.1369(5) 0.6977(4) 0.8551(3)
C94 C -0.1379(5) 0.7789(4) 0.8566(3)
C95 C -0.0596(5) 0.8165(4) 0.8532(4)
C96 C 0.0185(5) 0.7775(4) 0.8480(4)
C97 C 0.0185(5) 0.6986(4) 0.8456(3)
C98 C -0.0600(5) 0.6581(4) 0.8492(3)
C99 C 0.1038(5) 0.6573(4) 0.8421(3)
O13 O 0.1737(4) 0.6910(3) 0.8533(3)
N5 N 0.1017(4) 0.5828(4) 0.8247(3)
C100 C -0.0623(6) 0.0568(5) 0.8668(4)
C101 C -0.0701(7) 0.0516(6) 0.7957(4)
C102 C -0.1529(6) 0.0379(4) 0.8956(3)
O14 O -0.1693(4) -0.0239(3) 0.9211(3)
N6 N -0.2153(6) 0.0897(4) 0.8861(4)
H75 H -0.4776 0.1075 0.9112
H76 H -0.4843 0.1798 0.8663
H77 H -0.3753 0.0943 0.8336
H78 H -0.3363 0.1765 0.8490
H79 H -0.3193 0.0424 0.9230
H80 H -0.2552 0.1841 0.9692
H81 H -0.2622 0.1062 1.0067
H82 H -0.4095 0.1199 1.0169
H83 H -0.4149 0.2218 1.0863
H84 H -0.3198 0.1883 1.0920
H85 H -0.3313 0.3257 1.0900
H86 H -0.2134 0.3357 1.0315
H87 H -0.4289 0.3526 1.0116
H88 H -0.3314 0.2711 0.9223
H89 H -0.4956 0.3388 0.8968
H90 H -0.4382 0.2956 0.8473
H91 H -0.4337 0.4330 0.8369
H92 H -0.2743 0.4132 0.8523
H93 H -0.2708 0.3953 0.9550
H94 H -0.2514 0.4560 1.0499
H95 H -0.3505 0.4819 1.0518
H96 H -0.3073 0.5905 1.0007
H97 H -0.2175 0.5528 0.9823
H98 H -0.2680 0.5120 0.8904
H99 H -0.5629 0.2490 0.9497
H100 H -0.5235 0.2538 1.0190
H101 H -0.5547 0.1738 0.9913
H102 H -0.4592 0.5157 0.9868
H103 H -0.5018 0.4386 0.9616
H104 H -0.4997 0.5120 0.9178
H105 H 0.2906 0.4349 0.7684
H106 H 0.2252 0.3733 0.7407
H107 H 0.1072 0.4462 0.7744
H108 H 0.1662 0.4969 0.7304
H109 H 0.2315 0.5577 0.8174
H110 H 0.1268 0.4650 0.8979
H111 H 0.1965 0.5257 0.9215
H112 H 0.3109 0.4478 0.8865
H113 H 0.2586 0.4229 0.9890
H114 H 0.3086 0.3525 0.9601
H115 H 0.1909 0.2993 1.0078
H116 H 0.1076 0.4047 1.0111
H117 H 0.2071 0.2368 0.9146
H118 H 0.1084 0.3517 0.8487
H119 H 0.1332 0.2819 0.7559
H120 H 0.1874 0.2198 0.7941
H121 H 0.0511 0.1678 0.7735
H122 H -0.0192 0.2763 0.7642
H123 H 0.0278 0.2687 0.9170
H124 H 0.1101 0.1611 0.9994
H125 H 0.0393 0.2238 1.0168
H126 H -0.0671 0.1461 0.9884
H127 H 0.0030 0.0798 0.9812
H128 H -0.0728 0.1727 0.8861
H129 H 0.3303 0.2830 0.8701
H130 H 0.3733 0.3454 0.8264
H131 H 0.3158 0.2792 0.7962
H132 H 0.1819 0.1262 0.8551
H133 H 0.1100 0.0628 0.8432
H134 H 0.1380 0.0855 0.9128
H135 H -0.4044 0.6197 0.9147
H136 H -0.4407 0.5532 0.8201
H137 H -0.3537 0.5829 0.7904
H138 H -0.4271 0.6421 0.8081
H139 H -0.2118 0.6060 0.8405
H140 H -0.1901 0.8062 0.8597
H141 H -0.0589 0.8704 0.8546
H142 H 0.0708 0.8048 0.8461
H143 H -0.0602 0.6042 0.8476
H144 H 0.0518 0.5644 0.8125
H145 H -0.0217 0.0159 0.8808
H146 H -0.0924 0.0015 0.7839
H147 H -0.0135 0.0589 0.7777
H148 H -0.1094 0.0910 0.7802
H149 H -0.2036 0.1255 0.8592
O15 O 0.2793(5) 0.7496(6) 0.7491(4)
O16 O 0.4147(6) 0.8892(7) 0.5316(5)
O17 O -0.0876(6) 0.3770(8) 0.9795(5)
O18 O 0.5084(6) 0.9113(7) 0.8117(4)
O19 O -0.3369(6) 0.8897(5) 0.8861(4)
O20 O 0.4535(6) 0.7836(6) 0.7319(5)
O21 O -0.0281(11) 0.3523(11) 0.6890(8)
O22 O -0.2030(10) 0.2513(10) 0.8099(8)
O23 O 0.0895(11) 0.4016(11) 0.5999(8)
O24 O -0.2379(12) 0.4943(13) 0.7417(9)
O25 O -0.0619(12) 0.4837(13) 0.7672(9)
O26 O 0.3553(15) 1.0049(16) 0.6847(11)
O28 O -0.2032(18) 0.3173(18) 0.6816(13)
O29 O 0.3702(18) 0.8922(17) 0.6479(12)
O27? O -0.1776(12) 0.2834(11) 0.8651(9)
loop_
_geom_bond_atom_site_label_1
_geom_bond_atom_site_label_2
_geom_bond_site_symmetry_1
_geom_bond_site_symmetry_2
C1 C2 1_555 1_555
C2 C3 1_555 1_555
C3 C4 1_555 1_555
C4 C5 1_555 1_555
C5 C6 1_555 1_555
C6 C7 1_555 1_555
C7 O1 1_555 1_555
O1 H12 1_555 1_555
C8 C7 1_555 1_555
C9 C8 1_555 1_555
C10 C1 1_555 1_555
C11 C9 1_555 1_555
C12 C11 1_555 1_555
O2 C12 1_555 1_555
C13 C12 1_555 1_555
C14 C8 1_555 1_555
C15 C14 1_555 1_555
C16 C15 1_555 1_555
C17 C13 1_555 1_555
C18 C10 1_555 1_555
C19 C13 1_555 1_555
C20 C21 1_555 1_555
C21 C22 1_555 1_555
C22 C23 1_555 1_555
C23 C24 1_555 1_555
C24 C25 1_555 1_555
C25 C26 1_555 1_555
C26 O3 1_555 1_555
O3 H41 1_555 1_555
C27 C26 1_555 1_555
C28 C27 1_555 1_555
C29 C20 1_555 1_555
C30 C28 1_555 1_555
C31 C30 1_555 1_555
O4 C31 1_555 1_555
C32 C31 1_555 1_555
C33 C27 1_555 1_555
C34 C33 1_555 1_555
C35 C34 1_555 1_555
C36 C32 1_555 1_555
C37 C29 1_555 1_555
C38 C32 1_555 1_555
C39 C17 1_555 1_555
C40 C39 1_555 1_555
C41 C39 1_555 1_555
O5 C41 1_555 1_555
N1 C41 1_555 1_555
C42 N1 1_555 1_555
C43 C42 1_555 1_555
C44 C43 1_555 1_555
C45 C44 1_555 1_555
C46 C45 1_555 1_555
C47 C42 1_555 1_555
C48 C46 1_555 1_555
O6 C48 1_555 1_555
N2 C22 1_555 1_555
C49 C36 1_555 1_555
C50 C49 1_555 1_555
C51 C49 1_555 1_555
O7 C51 1_555 1_555
N3 C3 1_555 1_555
C52 C53 1_555 1_555
C53 C54 1_555 1_555
C54 C55 1_555 1_555
C55 C56 1_555 1_555
C56 C57 1_555 1_555
C57 C58 1_555 1_555
C58 O8 1_555 1_555
O8 H86 1_555 1_555
C59 C58 1_555 1_555
C60 C59 1_555 1_555
C61 C52 1_555 1_555
C62 C60 1_555 1_555
C63 C62 1_555 1_555
O9 C63 1_555 1_555
C64 C63 1_555 1_555
C65 C59 1_555 1_555
C66 C65 1_555 1_555
C67 C66 1_555 1_555
C68 C64 1_555 1_555
C69 C61 1_555 1_555
C70 C64 1_555 1_555
C71 C72 1_555 1_555
C72 C73 1_555 1_555
C73 C74 1_555 1_555
C74 C75 1_555 1_555
C75 C76 1_555 1_555
C76 C77 1_555 1_555
C77 O10 1_555 1_555
O10 H116 1_555 1_555
C78 C77 1_555 1_555
C79 C78 1_555 1_555
C80 C71 1_555 1_555
C81 C79 1_555 1_555
C82 C81 1_555 1_555
O11 C82 1_555 1_555
C83 C82 1_555 1_555
C84 C78 1_555 1_555
C85 C84 1_555 1_555
C86 C85 1_555 1_555
C87 C83 1_555 1_555
C88 C80 1_555 1_555
C89 C83 1_555 1_555
C90 C68 1_555 1_555
C91 C90 1_555 1_555
C92 C90 1_555 1_555
O12 C92 1_555 1_555
N4 C92 1_555 1_555
C93 N4 1_555 1_555
C94 C93 1_555 1_555
C95 C94 1_555 1_555
C96 C95 1_555 1_555
C97 C96 1_555 1_555
C98 C93 1_555 1_555
C99 C97 1_555 1_555
O13 C99 1_555 1_555
N5 C73 1_555 1_555
C100 C87 1_555 1_555
C101 C100 1_555 1_555
C102 C100 1_555 1_555
O14 C102 1_555 1_555
N6 C54 1_555 1_555
H1 C1 1_555 1_555
H2 C1 1_555 1_555
H3 C2 1_555 1_555
H4 C2 1_555 1_555
H5 C3 1_555 1_555
H6 C4 1_555 1_555
H7 C4 1_555 1_555
H8 C5 1_555 1_555
H9 C6 1_555 1_555
H10 C6 1_555 1_555
H11 C7 1_555 1_555
H13 C8 1_555 1_555
H14 C11 1_555 1_555
H15 C11 1_555 1_555
H16 C12 1_555 1_555
H17 O2 1_555 1_555
H18 C14 1_555 1_555
H19 C15 1_555 1_555
H20 C15 1_555 1_555
H21 C16 1_555 1_555
H22 C16 1_555 1_555
H23 C17 1_555 1_555
H24 C18 1_555 1_555
H25 C18 1_555 1_555
H26 C18 1_555 1_555
H27 C19 1_555 1_555
H28 C19 1_555 1_555
H29 C19 1_555 1_555
H30 C20 1_555 1_555
H31 C20 1_555 1_555
H32 C21 1_555 1_555
H33 C21 1_555 1_555
H34 C22 1_555 1_555
H35 C23 1_555 1_555
H36 C23 1_555 1_555
H37 C24 1_555 1_555
H38 C25 1_555 1_555
H39 C25 1_555 1_555
H40 C26 1_555 1_555
H42 C27 1_555 1_555
H43 C28 1_555 1_555
H44 C30 1_555 1_555
H45 C30 1_555 1_555
H46 C31 1_555 1_555
H47 O4 1_555 1_555
H48 C33 1_555 1_555
H49 C34 1_555 1_555
H50 C34 1_555 1_555
H51 C35 1_555 1_555
H52 C35 1_555 1_555
H53 C36 1_555 1_555
H54 C37 1_555 1_555
H55 C37 1_555 1_555
H56 C37 1_555 1_555
H57 C38 1_555 1_555
H58 C38 1_555 1_555
H59 C38 1_555 1_555
H60 C39 1_555 1_555
H61 C40 1_555 1_555
H62 C40 1_555 1_555
H63 C40 1_555 1_555
H64 N1 1_555 1_555
H65 C43 1_555 1_555
H66 C44 1_555 1_555
H67 C45 1_555 1_555
H68 C47 1_555 1_555
H69 N2 1_555 1_555
H70 C49 1_555 1_555
H71 C50 1_555 1_555
H72 C50 1_555 1_555
H73 C50 1_555 1_555
H74 N3 1_555 1_555
H75 C52 1_555 1_555
H76 C52 1_555 1_555
H77 C53 1_555 1_555
H78 C53 1_555 1_555
H79 C54 1_555 1_555
H80 C55 1_555 1_555
H81 C55 1_555 1_555
H82 C56 1_555 1_555
H83 C57 1_555 1_555
H84 C57 1_555 1_555
H85 C58 1_555 1_555
H87 C59 1_555 1_555
H88 C60 1_555 1_555
H89 C62 1_555 1_555
H90 C62 1_555 1_555
H91 C63 1_555 1_555
H92 O9 1_555 1_555
H93 C65 1_555 1_555
H94 C66 1_555 1_555
H95 C66 1_555 1_555
H96 C67 1_555 1_555
H97 C67 1_555 1_555
H98 C68 1_555 1_555
H99 C69 1_555 1_555
H100 C69 1_555 1_555
H101 C69 1_555 1_555
H102 C70 1_555 1_555
H103 C70 1_555 1_555
H104 C70 1_555 1_555
H105 C71 1_555 1_555
H106 C71 1_555 1_555
H107 C72 1_555 1_555
H108 C72 1_555 1_555
H109 C73 1_555 1_555
H110 C74 1_555 1_555
H111 C74 1_555 1_555
H112 C75 1_555 1_555
H113 C76 1_555 1_555
H114 C76 1_555 1_555
H115 C77 1_555 1_555
H117 C78 1_555 1_555
H118 C79 1_555 1_555
H119 C81 1_555 1_555
H120 C81 1_555 1_555
H121 C82 1_555 1_555
H122 O11 1_555 1_555
H123 C84 1_555 1_555
H124 C85 1_555 1_555
H125 C85 1_555 1_555
H126 C86 1_555 1_555
H127 C86 1_555 1_555
H128 C87 1_555 1_555
H129 C88 1_555 1_555
H130 C88 1_555 1_555
H131 C88 1_555 1_555
H132 C89 1_555 1_555
H133 C89 1_555 1_555
H134 C89 1_555 1_555
H135 C90 1_555 1_555
H136 C91 1_555 1_555
H137 C91 1_555 1_555
H138 C91 1_555 1_555
H139 N4 1_555 1_555
H140 C94 1_555 1_555
H141 C95 1_555 1_555
H142 C96 1_555 1_555
H143 C98 1_555 1_555
H144 N5 1_555 1_555
H145 C100 1_555 1_555
H146 C101 1_555 1_555
H147 C101 1_555 1_555
H148 C101 1_555 1_555
H149 N6 1_555 1_555
C5 C10 1_555 1_555
C9 C10 1_555 1_555
C13 C14 1_555 1_555
C16 C17 1_555 1_555
C24 C29 1_555 1_555
C28 C29 1_555 1_555
C32 C33 1_555 1_555
C35 C36 1_555 1_555
C46 C47 1_555 1_555
C48 N2 1_555 1_555
C51 N3 1_555 1_555
C56 C61 1_555 1_555
C60 C61 1_555 1_555
C64 C65 1_555 1_555
C67 C68 1_555 1_555
C75 C80 1_555 1_555
C79 C80 1_555 1_555
C83 C84 1_555 1_555
C86 C87 1_555 1_555
C97 C98 1_555 1_555
C99 N5 1_555 1_555
C102 N6 1_555 1_555

#END
