
#######################################################################
#
#                 Cambridge Crystallographic Data Centre
#                                CCDC 
#
#######################################################################
#
# If this CIF has been generated from an entry in the Cambridge 
# Structural Database, then it will include bibliographic, chemical, 
# crystal, experimental, refinement or atomic coordinate data resulting 
# from the CCDC's data processing and validation procedures.
#
#######################################################################

data_ZOPKAQ
_chemical_formula_moiety         'C46 H32 O1,C1 H1 Cl3'
_chemical_name_systematic        
'5,8-Epoxy-5,8-dihydro-1,2,3,4,5,8-hexaphenylnaphthalene chloroform solvate'
_symmetry_cell_setting           monoclinic
_symmetry_space_group_name_H-M   'P 21/n'
_symmetry_Int_Tables_number      14
_space_group_name_Hall           '-P 2yn'
loop_
_symmetry_equiv_pos_site_id
_symmetry_equiv_pos_as_xyz
1 x,y,z
2 1/2-x,1/2+y,1/2-z
3 -x,-y,-z
4 1/2+x,1/2-y,1/2+z
_cell_length_a                   15.454(4)
_cell_length_b                   11.549(3)
_cell_length_c                   21.362(5)
_cell_angle_alpha                90
_cell_angle_beta                 92.333(14)
_cell_angle_gamma                90
_cell_volume                     3809.49
_exptl_crystal_colour            colorless
_cell_formula_units_Z            4
loop_
_atom_site_label
_atom_site_type_symbol
_atom_site_fract_x
_atom_site_fract_y
_atom_site_fract_z
O1 O 0.9630(4) 0.3257(6) 0.1201(4)
C1 C 1.0138(6) 0.2881(10) 0.1770(4)
C2 C 0.9989(6) 0.1581(10) 0.1706(6)
C3 C 0.9928(6) 0.1347(10) 0.1098(5)
C4 C 1.0013(6) 0.2481(10) 0.0757(5)
C5 C 1.0981(6) 0.2797(9) 0.0874(5)
C6 C 1.1675(6) 0.2774(9) 0.0515(5)
C7 C 1.2505(6) 0.3111(9) 0.0813(5)
C8 C 1.2571(6) 0.3414(9) 0.1424(5)
C9 C 1.1828(6) 0.3375(8) 0.1798(4)
C10 C 1.1036(6) 0.3088(9) 0.1524(5)
C11 C 0.9818(7) 0.3480(13) 0.2326(6)
C12 C 0.9932(8) 0.4668(13) 0.2418(6)
C13 C 0.9666(7) 0.5211(13) 0.2942(7)
C14 C 0.9202(8) 0.4656(16) 0.3370(6)
C15 C 0.9030(8) 0.3456(15) 0.3285(7)
C16 C 0.9341(7) 0.2932(11) 0.2768(5)
C17 C 0.9596(7) 0.2623(12) 0.0106(5)
C18 C 0.9465(7) 0.1759(11) -0.0286(6)
C19 C 0.9113(8) 0.1898(13) -0.0910(6)
C20 C 0.8848(8) 0.2930(14) -0.1079(6)
C21 C 0.8934(7) 0.3872(12) -0.0672(6)
C22 C 0.9329(7) 0.3729(12) -0.0070(6)
C23 C 1.1662(7) 0.2373(11) -0.0152(5)
C24 C 1.1839(7) 0.1209(14) -0.0269(6)
C25 C 1.1841(7) 0.0818(15) -0.0862(9)
C26 C 1.1649(8) 0.1535(20) -0.1389(8)
C27 C 1.1467(8) 0.2661(16) -0.1256(8)
C28 C 1.1467(7) 0.3079(11) -0.0638(7)
C29 C 1.3297(6) 0.3093(12) 0.0432(5)
C30 C 1.3443(7) 0.3930(13) 0.0001(5)
C31 C 1.4194(9) 0.3922(14) -0.0323(6)
C32 C 1.4774(10) 0.3080(19) -0.0250(7)
C33 C 1.4672(9) 0.2194(14) 0.0172(8)
C34 C 1.3906(8) 0.2221(11) 0.0518(6)
C35 C 1.3441(6) 0.3736(10) 0.1708(5)
C36 C 1.3888(7) 0.4688(11) 0.1519(5)
C37 C 1.4719(8) 0.4954(12) 0.1752(5)
C38 C 1.5095(9) 0.4229(16) 0.2186(8)
C39 C 1.4694(7) 0.3329(13) 0.2396(6)
C40 C 1.3837(8) 0.3011(9) 0.2161(5)
C41 C 1.1916(6) 0.3652(11) 0.2475(4)
C42 C 1.2216(6) 0.4749(10) 0.2710(6)
C43 C 1.2272(7) 0.4964(12) 0.3352(6)
C44 C 1.1975(8) 0.4195(15) 0.3767(6)
C45 C 1.1715(8) 0.3148(13) 0.3539(7)
C46 C 1.1651(6) 0.2882(11) 0.2940(7)
H1 H 0.9949(6) 0.1052(10) 0.2032(6)
H2 H 0.9847(6) 0.0621(10) 0.0917(5)
H3 H 1.0196(8) 0.5100(13) 0.2112(6)
H4 H 0.9810(7) 0.5985(13) 0.3007(7)
H5 H 0.8998(8) 0.5050(16) 0.3713(6)
H6 H 0.8717(8) 0.3042(15) 0.3573(7)
H7 H 0.9221(7) 0.2150(11) 0.2709(5)
H8 H 0.9609(7) 0.1016(11) -0.0150(6)
H9 H 0.9074(8) 0.1275(13) -0.1186(6)
H10 H 0.8597(8) 0.3039(14) -0.1478(6)
H11 H 0.8731(7) 0.4597(12) -0.0797(6)
H12 H 0.9409(7) 0.4355(12) 0.0200(6)
H13 H 1.1954(7) 0.0703(14) 0.0063(6)
H14 H 1.1974(7) 0.0044(15) -0.0930(9)
H15 H 1.1648(8) 0.1256(20) -0.1797(8)
H16 H 1.1339(8) 0.3169(16) -0.1584(8)
H17 H 1.1330(7) 0.3851(11) -0.0564(7)
H18 H 1.3034(7) 0.4509(13) -0.0075(5)
H19 H 1.4299(9) 0.4522(14) -0.0600(6)
H20 H 1.5262(10) 0.3088(19) -0.0490(7)
H21 H 1.5082(9) 0.1609(14) 0.0227(8)
H22 H 1.3811(8) 0.1640(11) 0.0809(6)
H23 H 1.3626(7) 0.5177(11) 0.1222(5)
H24 H 1.5008(8) 0.5607(12) 0.1615(5)
H25 H 1.5656(9) 0.4384(16) 0.2337(8)
H26 H 1.4966(7) 0.2876(13) 0.2705(6)
H27 H 1.3560(8) 0.2353(9) 0.2305(5)
H28 H 1.2374(6) 0.5323(10) 0.2432(6)
H29 H 1.2520(7) 0.5652(12) 0.3498(6)
H30 H 1.1950(8) 0.4374(15) 0.4191(6)
H31 H 1.1572(8) 0.2581(13) 0.3826(7)
H32 H 1.1425(6) 0.2165(11) 0.2821(7)
C47 C 0.7625(9) 0.3057(16) 0.1369(5)
Cl1 Cl 0.7070(4) 0.2814(6) 0.0670(3)
Cl2 Cl 0.7257(3) 0.2098(4) 0.1926(2)
Cl3 Cl 0.7443(3) 0.4458(5) 0.1642(3)
H33 H 0.8246(9) 0.2939(16) 0.1318(5)
loop_
_geom_bond_atom_site_label_1
_geom_bond_atom_site_label_2
_geom_bond_site_symmetry_1
_geom_bond_site_symmetry_2
O1 C1 1_555 1_555
C1 C2 1_555 1_555
C2 C3 1_555 1_555
C3 C4 1_555 1_555
C4 O1 1_555 1_555
C5 C4 1_555 1_555
C6 C5 1_555 1_555
C7 C6 1_555 1_555
C8 C7 1_555 1_555
C9 C8 1_555 1_555
C10 C1 1_555 1_555
C11 C1 1_555 1_555
C12 C11 1_555 1_555
C13 C12 1_555 1_555
C14 C13 1_555 1_555
C15 C14 1_555 1_555
C16 C11 1_555 1_555
C17 C4 1_555 1_555
C18 C17 1_555 1_555
C19 C18 1_555 1_555
C20 C19 1_555 1_555
C21 C20 1_555 1_555
C22 C17 1_555 1_555
C23 C6 1_555 1_555
C24 C23 1_555 1_555
C25 C24 1_555 1_555
C26 C25 1_555 1_555
C27 C26 1_555 1_555
C28 C23 1_555 1_555
C29 C7 1_555 1_555
C30 C29 1_555 1_555
C31 C30 1_555 1_555
C32 C31 1_555 1_555
C33 C32 1_555 1_555
C34 C29 1_555 1_555
C35 C8 1_555 1_555
C36 C35 1_555 1_555
C37 C36 1_555 1_555
C38 C37 1_555 1_555
C39 C38 1_555 1_555
C40 C35 1_555 1_555
C41 C9 1_555 1_555
C42 C41 1_555 1_555
C43 C42 1_555 1_555
C44 C43 1_555 1_555
C45 C44 1_555 1_555
C46 C41 1_555 1_555
C47 Cl1 1_555 1_555
Cl2 C47 1_555 1_555
Cl3 C47 1_555 1_555
H1 C2 1_555 1_555
H2 C3 1_555 1_555
H3 C12 1_555 1_555
H4 C13 1_555 1_555
H5 C14 1_555 1_555
H6 C15 1_555 1_555
H7 C16 1_555 1_555
H8 C18 1_555 1_555
H9 C19 1_555 1_555
H10 C20 1_555 1_555
H11 C21 1_555 1_555
H12 C22 1_555 1_555
H13 C24 1_555 1_555
H14 C25 1_555 1_555
H15 C26 1_555 1_555
H16 C27 1_555 1_555
H17 C28 1_555 1_555
H18 C30 1_555 1_555
H19 C31 1_555 1_555
H20 C32 1_555 1_555
H21 C33 1_555 1_555
H22 C34 1_555 1_555
H23 C36 1_555 1_555
H24 C37 1_555 1_555
H25 C38 1_555 1_555
H26 C39 1_555 1_555
H27 C40 1_555 1_555
H28 C42 1_555 1_555
H29 C43 1_555 1_555
H30 C44 1_555 1_555
H31 C45 1_555 1_555
H32 C46 1_555 1_555
H33 C47 1_555 1_555
C5 C10 1_555 1_555
C9 C10 1_555 1_555
C15 C16 1_555 1_555
C21 C22 1_555 1_555
C27 C28 1_555 1_555
C33 C34 1_555 1_555
C39 C40 1_555 1_555
C45 C46 1_555 1_555

#END
