
#######################################################################
#
#                 Cambridge Crystallographic Data Centre
#                                CCDC 
#
#######################################################################
#
# If this CIF has been generated from an entry in the Cambridge 
# Structural Database, then it will include bibliographic, chemical, 
# crystal, experimental, refinement or atomic coordinate data resulting 
# from the CCDC's data processing and validation procedures.
#
#######################################################################

data_ZOQCUF
_chemical_formula_moiety         'C11 H10 N2 O2'
_chemical_name_systematic        2-Cyano-3-(3-methoxyphenyl)acrylamide
_symmetry_cell_setting           monoclinic
_symmetry_space_group_name_H-M   'P 21/c'
_symmetry_Int_Tables_number      14
_space_group_name_Hall           '-P 2ybc'
loop_
_symmetry_equiv_pos_site_id
_symmetry_equiv_pos_as_xyz
1 x,y,z
2 -x,1/2+y,1/2-z
3 -x,-y,-z
4 x,1/2-y,1/2+z
_cell_length_a                   15.6778(10)
_cell_length_b                   3.9598(3)
_cell_length_c                   17.4076(14)
_cell_angle_alpha                90
_cell_angle_beta                 108.928(8)
_cell_angle_gamma                90
_cell_volume                     1022.24
_exptl_crystal_colour            'light yellow'
_exptl_crystal_description       block
_cell_formula_units_Z            4
loop_
_atom_site_label
_atom_site_type_symbol
_atom_site_fract_x
_atom_site_fract_y
_atom_site_fract_z
O1 O 0.38606(10) 0.4715(4) 0.24164(8)
O2 O 0.14133(11) 0.4535(5) 0.55633(9)
N1 N 0.48935(11) 0.7562(5) 0.34116(10)
H1 H 0.5246 0.7831 0.3127
H2 H 0.5042 0.8357 0.3897
N2 N 0.41351(13) 0.8423(5) 0.50450(11)
C1 C 0.41214(13) 0.5923(5) 0.31019(12)
C2 C 0.38630(13) 0.7111(5) 0.44273(12)
C3 C 0.35436(12) 0.5590(5) 0.36412(11)
C4 C 0.27515(13) 0.3959(5) 0.33592(11)
H3 H 0.2631 0.3072 0.2840
C5 C 0.20479(12) 0.3330(5) 0.37196(12)
C6 C 0.21188(13) 0.4212(5) 0.45171(12)
H4 H 0.2653 0.5136 0.4859
C7 C 0.12526(14) 0.1869(5) 0.32282(13)
H5 H 0.1199 0.1213 0.2702
C8 C 0.06074(14) 0.2329(6) 0.42933(15)
H6 H 0.0120 0.2036 0.4481
C9 C 0.14044(13) 0.3722(5) 0.47972(13)
C10 C 0.22056(17) 0.6074(7) 0.60995(14)
H7 H 0.2346 0.8067 0.5850
H8 H 0.2700 0.4515 0.6212
H9 H 0.2105 0.6675 0.6597
C11 C 0.05402(14) 0.1387(6) 0.35199(15)
H10 H 0.0009 0.0412 0.3187
loop_
_geom_bond_atom_site_label_1
_geom_bond_atom_site_label_2
_geom_bond_site_symmetry_1
_geom_bond_site_symmetry_2
O1 C1 1_555 1_555
O2 C9 1_555 1_555
N1 H1 1_555 1_555
H2 N1 1_555 1_555
N2 C2 1_555 1_555
C1 N1 1_555 1_555
C2 C3 1_555 1_555
C3 C1 1_555 1_555
C4 C3 1_555 1_555
H3 C4 1_555 1_555
C5 C4 1_555 1_555
C6 C5 1_555 1_555
H4 C6 1_555 1_555
C7 C5 1_555 1_555
H5 C7 1_555 1_555
C8 H6 1_555 1_555
C9 C6 1_555 1_555
C10 O2 1_555 1_555
H7 C10 1_555 1_555
H8 C10 1_555 1_555
H9 C10 1_555 1_555
C11 C7 1_555 1_555
H10 C11 1_555 1_555
C8 C9 1_555 1_555
C8 C11 1_555 1_555

#END
