
#######################################################################
#
#                 Cambridge Crystallographic Data Centre
#                                CCDC 
#
#######################################################################
#
# If this CIF has been generated from an entry in the Cambridge 
# Structural Database, then it will include bibliographic, chemical, 
# crystal, experimental, refinement or atomic coordinate data resulting 
# from the CCDC's data processing and validation procedures.
#
#######################################################################

data_ZOQNUQ
_chemical_formula_moiety         'C54 H40,C7 H8'
_chemical_name_systematic        
"1,1'-ethene-1,2-diylbis(4-(triphenylvinyl)benzene) toluene solvate"
_symmetry_cell_setting           triclinic
_symmetry_space_group_name_H-M   'P -1'
_symmetry_Int_Tables_number      2
_space_group_name_Hall           '-P 1'
loop_
_symmetry_equiv_pos_site_id
_symmetry_equiv_pos_as_xyz
1 x,y,z
2 -x,-y,-z
_cell_length_a                   9.6852(14)
_cell_length_b                   11.1199(16)
_cell_length_c                   21.963(3)
_cell_angle_alpha                93.231(2)
_cell_angle_beta                 95.749(2)
_cell_angle_gamma                112.722(2)
_cell_volume                     2159.15
_exptl_crystal_colour            yellow
_exptl_crystal_description       block
_cell_formula_units_Z            2
loop_
_atom_site_label
_atom_site_type_symbol
_atom_site_fract_x
_atom_site_fract_y
_atom_site_fract_z
C1 C 0.26982(16) 0.59789(13) 0.28940(6)
C2 C 0.40090(16) 0.62983(14) 0.26567(7)
C3 C 0.41840(16) 0.64416(14) 0.19955(7)
C4 C 0.36322(17) 0.72284(15) 0.16618(7)
H1 H 0.3023 0.7604 0.1844
C5 C 0.39538(18) 0.74729(15) 0.10716(7)
H2 H 0.3569 0.8020 0.0857
C6 C 0.48363(16) 0.69309(14) 0.07823(7)
C7 C 0.53758(17) 0.61341(15) 0.11141(7)
H3 H 0.5968 0.5744 0.0929
C8 C 0.50648(17) 0.59002(15) 0.17085(7)
H4 H 0.5458 0.5361 0.1925
C9 C 0.52085(17) 0.71715(15) 0.01578(7)
H5 H 0.5887 0.6825 0.0015
C10 C 0.46890(17) 0.78281(15) -0.02286(7)
H6 H 0.4015 0.8177 -0.0083
C11 C 0.50495(16) 0.80681(14) -0.08550(7)
C12 C 0.44869(17) 0.88510(15) -0.11865(7)
H7 H 0.3913 0.9253 -0.0995
C13 C 0.47455(17) 0.90553(15) -0.17873(7)
H8 H 0.4336 0.9586 -0.2002
C14 C 0.55975(16) 0.84961(14) -0.20837(6)
C15 C 0.61810(17) 0.77286(15) -0.17489(7)
H9 H 0.6774 0.7343 -0.1937
C16 C 0.59152(17) 0.75175(15) -0.11514(7)
H10 H 0.6327 0.6989 -0.0936
C17 C 0.57307(17) 0.86171(14) -0.27498(7)
C18 C 0.70404(17) 0.89174(14) -0.29896(7)
C19 C 0.11946(16) 0.55572(14) 0.25116(6)
C20 C 0.06813(17) 0.44912(15) 0.20663(7)
H11 H 0.1319 0.4049 0.1985
C21 C -0.07528(18) 0.40642(16) 0.17378(7)
H12 H -0.1093 0.3327 0.1438
C22 C -0.16894(17) 0.47072(15) 0.18455(7)
H13 H -0.2669 0.4416 0.1619
C23 C -0.11911(17) 0.57765(16) 0.22858(7)
H14 H -0.1822 0.6230 0.2358
C24 C 0.02269(17) 0.61820(15) 0.26195(7)
H15 H 0.0550 0.6901 0.2929
C25 C 0.26456(16) 0.60587(14) 0.35739(7)
C26 C 0.29407(19) 0.72494(16) 0.39040(7)
H16 H 0.3230 0.8024 0.3700
C27 C 0.2821(2) 0.73288(17) 0.45261(8)
H17 H 0.3026 0.8154 0.4745
C28 C 0.2407(2) 0.62203(18) 0.48302(7)
H18 H 0.2320 0.6275 0.5257
C29 C 0.21206(18) 0.50298(17) 0.45100(7)
H19 H 0.1847 0.4261 0.4718
C30 C 0.22296(17) 0.49500(15) 0.38860(7)
H20 H 0.2016 0.4122 0.3669
C31 C 0.54674(16) 0.65951(14) 0.30578(6)
C32 C 0.57149(18) 0.56705(16) 0.34003(7)
H21 H 0.4923 0.4833 0.3398
C33 C 0.71002(18) 0.59515(16) 0.37452(7)
H22 H 0.7251 0.5309 0.3979
C34 C 0.82592(18) 0.71582(16) 0.37499(7)
H23 H 0.9212 0.7350 0.3984
C35 C 0.80257(18) 0.80870(16) 0.34118(7)
H24 H 0.8818 0.8926 0.3418
C36 C 0.66456(17) 0.78074(15) 0.30631(7)
H25 H 0.6504 0.8449 0.2826
C37 C 0.71093(16) 0.88272(15) -0.36647(7)
C38 C 0.62344(18) 0.76885(15) -0.40501(7)
H26 H 0.5524 0.6969 -0.3885
C39 C 0.6384(2) 0.75896(16) -0.46673(7)
H27 H 0.5784 0.6803 -0.4922
C40 C 0.7400(2) 0.86294(17) -0.49162(7)
H28 H 0.7506 0.8559 -0.5341
C41 C 0.82602(19) 0.97710(17) -0.45445(7)
H29 H 0.8952 1.0495 -0.4714
C42 C 0.81172(17) 0.98630(16) -0.39252(7)
H30 H 0.8722 1.0652 -0.3673
C43 C 0.85449(16) 0.93626(14) -0.26031(6)
C44 C 0.95123(17) 0.87286(15) -0.26952(7)
H31 H 0.9190 0.7991 -0.2994
C45 C 1.09296(18) 0.91530(16) -0.23595(7)
H32 H 1.1562 0.8696 -0.2422
C46 C 1.14269(18) 1.02430(16) -0.19325(7)
H33 H 1.2405 1.0544 -0.1704
C47 C 1.04913(18) 1.08914(16) -0.18406(7)
H34 H 1.0832 1.1645 -0.1550
C48 C 0.90591(17) 1.04527(15) -0.21693(7)
H35 H 0.8422 1.0901 -0.2098
C49 C 0.42687(16) 0.83362(14) -0.31413(6)
C50 C 0.30319(17) 0.71745(15) -0.31123(7)
H36 H 0.3130 0.6563 -0.2844
C51 C 0.16625(18) 0.68974(16) -0.34679(7)
H37 H 0.0836 0.6090 -0.3450
C52 C 0.14964(18) 0.77938(16) -0.38483(7)
H38 H 0.0554 0.7608 -0.4090
C53 C 0.27036(18) 0.89610(16) -0.38754(7)
H39 H 0.2590 0.9583 -0.4134
C54 C 0.40794(18) 0.92271(15) -0.35271(7)
H40 H 0.4907 1.0029 -0.3551
C55 C 0.8451(5) 0.0261(5) 0.02066(18)
H41 H 0.8667 0.0153 0.0641
H42 H 0.8658 -0.0381 -0.0052
H43 H 0.7387 0.0125 0.0113
C56 C 0.9430(2) 0.1616(2) 0.00826(9)
C57 C 1.0423(3) 0.2507(2) 0.05551(7)
H44 H 1.0500 0.2252 0.0958
C58 C 1.1302(2) 0.3773(2) 0.04375(10)
H45 H 1.1981 0.4383 0.0760
C59 C 1.1190(3) 0.4147(2) -0.01526(12)
H46 H 1.1791 0.5012 -0.0233
C60 C 1.0197(3) 0.3255(3) -0.06252(8)
H47 H 1.0120 0.3511 -0.1028
C61 C 0.9318(2) 0.1990(2) -0.05076(8)
H48 H 0.8639 0.1380 -0.0831
C62? C 1.1472(9) 0.4578(8) -0.0183(3)
H49? H 1.2126 0.5076 0.0192
H50? H 1.0814 0.5016 -0.0329
H51? H 1.2094 0.4531 -0.0501
C63? C 1.0539(4) 0.3244(4) -0.00503(17)
C64? C 1.0684(5) 0.2880(4) 0.05403(15)
H52? H 1.1384 0.3492 0.0857
C65? C 0.9806(6) 0.1622(5) 0.06672(17)
H53? H 0.9905 0.1373 0.1071
C66? C 0.8783(5) 0.0726(4) 0.0203(3)
H54? H 0.8183 -0.0134 0.0290
C67? C 0.8638(5) 0.1089(4) -0.0387(2)
H55? H 0.7939 0.0477 -0.0704
C68? C 0.9516(5) 0.2348(5) -0.05141(13)
H56? H 0.9417 0.2596 -0.0918
loop_
_geom_bond_atom_site_label_1
_geom_bond_atom_site_label_2
_geom_bond_site_symmetry_1
_geom_bond_site_symmetry_2
C1 C2 1_555 1_555
C2 C3 1_555 1_555
C3 C4 1_555 1_555
C4 H1 1_555 1_555
C5 C4 1_555 1_555
H2 C5 1_555 1_555
C6 C5 1_555 1_555
C7 C6 1_555 1_555
H3 C7 1_555 1_555
C8 C3 1_555 1_555
H4 C8 1_555 1_555
C9 C6 1_555 1_555
H5 C9 1_555 1_555
C10 C9 1_555 1_555
H6 C10 1_555 1_555
C11 C10 1_555 1_555
C12 C11 1_555 1_555
H7 C12 1_555 1_555
C13 C12 1_555 1_555
H8 C13 1_555 1_555
C14 C13 1_555 1_555
C15 C14 1_555 1_555
H9 C15 1_555 1_555
C16 C11 1_555 1_555
H10 C16 1_555 1_555
C17 C14 1_555 1_555
C18 C17 1_555 1_555
C19 C1 1_555 1_555
C20 C19 1_555 1_555
H11 C20 1_555 1_555
C21 C20 1_555 1_555
H12 C21 1_555 1_555
C22 C21 1_555 1_555
H13 C22 1_555 1_555
C23 C22 1_555 1_555
H14 C23 1_555 1_555
C24 C19 1_555 1_555
H15 C24 1_555 1_555
C25 C1 1_555 1_555
C26 C25 1_555 1_555
H16 C26 1_555 1_555
C27 C26 1_555 1_555
H17 C27 1_555 1_555
C28 C27 1_555 1_555
H18 C28 1_555 1_555
C29 C28 1_555 1_555
H19 C29 1_555 1_555
C30 C25 1_555 1_555
H20 C30 1_555 1_555
C31 C2 1_555 1_555
C32 C31 1_555 1_555
H21 C32 1_555 1_555
C33 C32 1_555 1_555
H22 C33 1_555 1_555
C34 C33 1_555 1_555
H23 C34 1_555 1_555
C35 C34 1_555 1_555
H24 C35 1_555 1_555
C36 C31 1_555 1_555
H25 C36 1_555 1_555
C37 C18 1_555 1_555
C38 C37 1_555 1_555
H26 C38 1_555 1_555
C39 C38 1_555 1_555
H27 C39 1_555 1_555
C40 C39 1_555 1_555
H28 C40 1_555 1_555
C41 C40 1_555 1_555
H29 C41 1_555 1_555
C42 C37 1_555 1_555
H30 C42 1_555 1_555
C43 C18 1_555 1_555
C44 C43 1_555 1_555
H31 C44 1_555 1_555
C45 C44 1_555 1_555
H32 C45 1_555 1_555
C46 C45 1_555 1_555
H33 C46 1_555 1_555
C47 C46 1_555 1_555
H34 C47 1_555 1_555
C48 C43 1_555 1_555
H35 C48 1_555 1_555
C49 C17 1_555 1_555
C50 C49 1_555 1_555
H36 C50 1_555 1_555
C51 C50 1_555 1_555
H37 C51 1_555 1_555
C52 C51 1_555 1_555
H38 C52 1_555 1_555
C53 C52 1_555 1_555
H39 C53 1_555 1_555
C54 C49 1_555 1_555
H40 C54 1_555 1_555
C55 H41 1_555 1_555
H42 C55 1_555 1_555
H43 C55 1_555 1_555
C56 C55 1_555 1_555
C57 C56 1_555 1_555
H44 C57 1_555 1_555
C58 C57 1_555 1_555
H45 C58 1_555 1_555
C59 C58 1_555 1_555
H46 C59 1_555 1_555
C60 C59 1_555 1_555
H47 C60 1_555 1_555
C61 C56 1_555 1_555
H48 C61 1_555 1_555
C7 C8 1_555 1_555
C15 C16 1_555 1_555
C23 C24 1_555 1_555
C29 C30 1_555 1_555
C35 C36 1_555 1_555
C41 C42 1_555 1_555
C47 C48 1_555 1_555
C53 C54 1_555 1_555
C60 C61 1_555 1_555

#END
