
#######################################################################
#
#                 Cambridge Crystallographic Data Centre
#                                CCDC 
#
#######################################################################
#
# If this CIF has been generated from an entry in the Cambridge 
# Structural Database, then it will include bibliographic, chemical, 
# crystal, experimental, refinement or atomic coordinate data resulting 
# from the CCDC's data processing and validation procedures.
#
#######################################################################

data_ZOQNEA
_chemical_formula_moiety         'C15 H15 Cl1 N2'
_chemical_name_systematic        
6-chloro-3-methyl-2-phenyl-1,2,3,4-tetrahydroquinoxaline
_symmetry_cell_setting           monoclinic
_symmetry_space_group_name_H-M   'P 21'
_symmetry_Int_Tables_number      4
_space_group_name_Hall           'P 2yb'
loop_
_symmetry_equiv_pos_site_id
_symmetry_equiv_pos_as_xyz
1 x,y,z
2 -x,1/2+y,-z
_cell_length_a                   8.746(3)
_cell_length_b                   5.6811(19)
_cell_length_c                   13.076(5)
_cell_angle_alpha                90
_cell_angle_beta                 92.073(5)
_cell_angle_gamma                90
_cell_volume                     649.281
_exptl_crystal_colour            colorless
_exptl_crystal_description       plate
_cell_formula_units_Z            2
loop_
_atom_site_label
_atom_site_type_symbol
_atom_site_fract_x
_atom_site_fract_y
_atom_site_fract_z
Cl1 Cl 0.37176(6) 0.69785(12) 1.19442(4)
N1 N 0.0615(2) 0.6954(4) 0.85359(12)
N2 N 0.1704(3) 0.2552(3) 0.80266(15)
C1 C 0.1552(2) 0.5751(3) 0.92407(14)
C2 C 0.2013(2) 0.6751(4) 1.01746(13)
H1 H 0.1627 0.8207 1.0364
C3 C 0.3044(2) 0.5578(4) 1.08200(14)
C4 C 0.3601(2) 0.3385(4) 1.05791(16)
H2 H 0.4268 0.2593 1.1029
C5 C 0.3141(2) 0.2385(4) 0.96471(16)
H3 H 0.3512 0.0907 0.9477
C6 C 0.2143(2) 0.3536(3) 0.89636(15)
C7 C 0.0938(2) 0.3941(4) 0.72315(16)
H4 H 0.0334 0.2844 0.6803
C8 C -0.0207(2) 0.5571(4) 0.77508(15)
H5 H -0.0964 0.4590 0.8085
C9 C -0.1049(2) 0.7223(6) 0.70110(15)
H6 H -0.1811 0.8081 0.7368
H7 H -0.1534 0.6326 0.6468
H8 H -0.0335 0.8308 0.6729
C10 C 0.1983(2) 0.5251(4) 0.65283(14)
C11 C 0.1669(2) 0.5206(4) 0.54786(16)
H9 H 0.0860 0.4297 0.5218
C12 C 0.2541(3) 0.6495(5) 0.48133(16)
H10 H 0.2312 0.6451 0.4113
C13 C 0.3746(3) 0.7838(5) 0.51866(19)
H11 H 0.4324 0.8719 0.4742
C14 C 0.4092(3) 0.7867(5) 0.62289(19)
H12 H 0.4914 0.8757 0.6483
C15 C 0.3224(2) 0.6584(4) 0.68939(16)
H13 H 0.3471 0.6610 0.7592
H14 H 0.011(3) 0.813(6) 0.875(2)
H15 H 0.221(3) 0.129(6) 0.785(2)
loop_
_geom_bond_atom_site_label_1
_geom_bond_atom_site_label_2
_geom_bond_site_symmetry_1
_geom_bond_site_symmetry_2
Cl1 C3 1_555 1_555
N1 C1 1_555 1_555
N2 C6 1_555 1_555
C1 C2 1_555 1_555
C2 H1 1_555 1_555
C3 C2 1_555 1_555
C4 C3 1_555 1_555
H2 C4 1_555 1_555
C5 C4 1_555 1_555
H3 C5 1_555 1_555
C6 C1 1_555 1_555
C7 N2 1_555 1_555
H4 C7 1_555 1_555
C8 N1 1_555 1_555
H5 C8 1_555 1_555
C9 C8 1_555 1_555
H6 C9 1_555 1_555
H7 C9 1_555 1_555
H8 C9 1_555 1_555
C10 C7 1_555 1_555
C11 C10 1_555 1_555
H9 C11 1_555 1_555
C12 C11 1_555 1_555
H10 C12 1_555 1_555
C13 C12 1_555 1_555
H11 C13 1_555 1_555
C14 C13 1_555 1_555
H12 C14 1_555 1_555
C15 C10 1_555 1_555
H13 C15 1_555 1_555
H14 N1 1_555 1_555
H15 N2 1_555 1_555
C5 C6 1_555 1_555
C7 C8 1_555 1_555
C14 C15 1_555 1_555

#END
