
#######################################################################
#
#                 Cambridge Crystallographic Data Centre
#                                CCDC 
#
#######################################################################
#
# If this CIF has been generated from an entry in the Cambridge 
# Structural Database, then it will include bibliographic, chemical, 
# crystal, experimental, refinement or atomic coordinate data resulting 
# from the CCDC's data processing and validation procedures.
#
#######################################################################

data_ZOQPUS
_chemical_formula_moiety         'C52 H52 N4 O4,C2 H6 O1,Cs1 1+,F1 1-'
_chemical_name_systematic        
'cesium fluoride 1,30,35,35,44,44-hexamethyl-7,10,21,24-tetraoxa-49,50,51,52-tetraazadecacyclo[28.9.9.1^2,6^.1^25,29^.1^31,34^.1^36,39^.1^40,43^.1^45,48^.0^11,20^.0^13,18^]tetrapentaconta-2(54),3,5,11,13,15,17,19,25(53),26,28,31,33,36,38,40,42,45,47-nonadecaene ethanol solvate'
_symmetry_cell_setting           monoclinic
_symmetry_space_group_name_H-M   'P 21/n'
_symmetry_Int_Tables_number      14
_space_group_name_Hall           '-P 2yn'
loop_
_symmetry_equiv_pos_site_id
_symmetry_equiv_pos_as_xyz
1 x,y,z
2 1/2-x,1/2+y,1/2-z
3 -x,-y,-z
4 1/2+x,1/2-y,1/2+z
_cell_length_a                   9.877(2)
_cell_length_b                   26.901(4)
_cell_length_c                   18.032(3)
_cell_angle_alpha                90
_cell_angle_beta                 104.835(3)
_cell_angle_gamma                90
_cell_volume                     4631.42
_exptl_crystal_colour            colorless
_exptl_crystal_description       prisms
_cell_formula_units_Z            4
loop_
_atom_site_label
_atom_site_type_symbol
_atom_site_fract_x
_atom_site_fract_y
_atom_site_fract_z
C1 C -0.2564(3) 0.02084(11) 0.67639(15)
C2 C -0.3886(3) 0.01688(13) 0.62802(18)
H1 H -0.4573 -0.0070 0.6318
C3 C -0.4044(3) 0.05467(13) 0.57161(18)
H2 H -0.4853 0.0604 0.5308
C4 C -0.2821(3) 0.08166(12) 0.58626(15)
C5 C -0.2384(3) 0.12332(11) 0.54070(15)
C6 C -0.2235(3) 0.17290(11) 0.58292(15)
C7 C -0.2789(3) 0.21850(12) 0.55739(16)
H3 H -0.3402 0.2253 0.5085
C8 C -0.2287(3) 0.25386(11) 0.61679(16)
H4 H -0.2508 0.2883 0.6150
C9 C -0.1417(3) 0.22882(10) 0.67766(16)
C10 C -0.0468(3) 0.24965(10) 0.75050(15)
C11 C -0.0628(3) 0.22469(10) 0.82320(15)
C12 C -0.1020(3) 0.24377(11) 0.88523(16)
H5 H -0.1375 0.2762 0.8891
C13 C -0.0801(3) 0.20633(11) 0.94248(16)
H6 H -0.0988 0.2092 0.9914
C14 C -0.0272(3) 0.16521(10) 0.91483(14)
C15 C 0.0214(3) 0.11547(10) 0.95147(14)
C16 C -0.0788(3) 0.07512(10) 0.91264(14)
C17 C -0.1791(3) 0.04895(10) 0.93660(15)
H7 H -0.2034 0.0532 0.9839
C18 C -0.2404(3) 0.01423(11) 0.87805(15)
H8 H -0.3129 -0.0087 0.8791
C19 C -0.1753(3) 0.01999(10) 0.81953(14)
C20 C -0.1858(3) -0.00953(10) 0.74628(15)
C21 C -0.3531(3) 0.13012(13) 0.46500(16)
H9 H -0.3659 0.0989 0.4361
H10 H -0.3247 0.1563 0.4343
H11 H -0.4414 0.1395 0.4766
C22 C -0.0763(4) 0.30566(11) 0.75532(18)
H12 H -0.0623 0.3224 0.7096
H13 H -0.0122 0.3197 0.8012
H14 H -0.1732 0.3105 0.7582
C23 C 0.1058(3) 0.24308(12) 0.74598(17)
H15 H 0.1259 0.2076 0.7422
H16 H 0.1693 0.2570 0.7922
H17 H 0.1193 0.2605 0.7007
C24 C 0.0226(3) 0.11709(11) 1.03736(14)
H18 H -0.0716 0.1249 1.0423
H19 H 0.0884 0.1427 1.0634
H20 H 0.0518 0.0847 1.0608
C25 C -0.2730(4) -0.05677(11) 0.74896(17)
H21 H -0.3667 -0.0473 0.7529
H22 H -0.2268 -0.0768 0.7936
H23 H -0.2808 -0.0762 0.7021
C26 C -0.0375(3) -0.02542(12) 0.74353(17)
H24 H -0.0435 -0.0474 0.6994
H25 H 0.0078 -0.0431 0.7909
H26 H 0.0176 0.0041 0.7385
C27 C -0.1014(3) 0.10904(11) 0.51894(14)
C28 C 0.0159(3) 0.13976(10) 0.53597(15)
H27 H 0.0152 0.1697 0.5637
C29 C 0.1349(3) 0.12637(11) 0.51213(15)
C30 C 0.1361(3) 0.08357(11) 0.46913(15)
H28 H 0.2154 0.0754 0.4509
C31 C 0.0194(3) 0.05314(12) 0.45347(16)
H29 H 0.0192 0.0236 0.4245
C32 C -0.0971(3) 0.06492(12) 0.47936(16)
H30 H -0.1745 0.0428 0.4700
C33 C 0.2793(3) 0.18336(11) 0.59777(16)
H31 H 0.2629 0.1633 0.6407
H32 H 0.2160 0.2125 0.5898
C34 C 0.4314(3) 0.19984(11) 0.61470(15)
H33 H 0.4907 0.1710 0.6099
H34 H 0.4415 0.2250 0.5764
C35 C 0.4276(3) 0.26579(10) 0.70433(15)
C36 C 0.3440(3) 0.29581(10) 0.65086(15)
H35 H 0.3249 0.2869 0.5982
C37 C 0.2846(3) 0.34006(10) 0.67185(15)
C38 C 0.1864(3) 0.36868(11) 0.61787(16)
H36 H 0.1641 0.3598 0.5651
C39 C 0.1228(3) 0.40910(12) 0.64080(18)
H37 H 0.0556 0.4277 0.6041
C40 C 0.1568(3) 0.42302(11) 0.71818(18)
H38 H 0.1127 0.4512 0.7336
C41 C 0.2530(3) 0.39651(11) 0.77189(17)
H39 H 0.2761 0.4067 0.8240
C42 C 0.3183(3) 0.35399(10) 0.75022(16)
C43 C 0.4117(3) 0.32365(11) 0.80523(15)
H40 H 0.4380 0.3336 0.8575
C44 C 0.4637(3) 0.28054(10) 0.78374(15)
C45 C 0.5649(3) 0.25114(11) 0.91261(15)
H41 H 0.5559 0.2864 0.9265
H42 H 0.6590 0.2394 0.9408
C46 C 0.4547(3) 0.22057(11) 0.93594(16)
H43 H 0.4515 0.2289 0.9889
H44 H 0.3613 0.2270 0.9010
C47 C 0.3995(3) 0.13318(10) 0.93924(15)
C48 C 0.2647(3) 0.14329(10) 0.94443(14)
H45 H 0.2350 0.1767 0.9466
C49 C 0.1719(3) 0.10414(10) 0.94655(14)
C50 C 0.2194(3) 0.05544(10) 0.94723(15)
H46 H 0.1581 0.0286 0.9496
C51 C 0.3564(3) 0.04592(11) 0.94452(16)
H47 H 0.3886 0.0126 0.9461
C52 C 0.4460(3) 0.08428(11) 0.93963(15)
H48 H 0.5388 0.0775 0.9365
N1 N -0.1928(2) 0.06066(9) 0.65032(13)
N2 N -0.1412(2) 0.17966(9) 0.65670(13)
N3 N -0.0189(2) 0.17651(8) 0.84159(12)
N4 N -0.0795(2) 0.05761(8) 0.84110(12)
O1 O 0.2561(2) 0.15420(8) 0.52943(11)
O2 O 0.4788(2) 0.22054(7) 0.69029(10)
O3 O 0.5512(2) 0.24749(7) 0.83142(10)
O4 O 0.49389(19) 0.16936(7) 0.93127(11)
H49 H 0.014(3) 0.1562(12) 0.8166(18)
H50 H -0.118(3) 0.0728(11) 0.6755(17)
H51 H -0.029(3) 0.0668(12) 0.8173(18)
H52 H -0.092(3) 0.1591(13) 0.6807(18)
Cs1 Cs -0.360079(18) 0.138512(7) 0.792094(11)
C53 C -0.6693(3) 0.05337(12) 0.74038(17)
H53 H -0.7171 0.0362 0.7751
H54 H -0.5700 0.0428 0.7543
C54 C -0.7364(4) 0.03832(13) 0.65886(17)
H55 H -0.8348 0.0487 0.6449
H56 H -0.7311 0.0021 0.6541
H57 H -0.6871 0.0543 0.6245
O5 O -0.6766(2) 0.10568(8) 0.75073(12)
H58 H -0.769(4) 0.1116(14) 0.748(2)
F1 F 0.04545(15) 0.10968(6) 0.74158(8)
loop_
_geom_bond_atom_site_label_1
_geom_bond_atom_site_label_2
_geom_bond_site_symmetry_1
_geom_bond_site_symmetry_2
C1 C2 1_555 1_555
C2 H1 1_555 1_555
C3 C2 1_555 1_555
H2 C3 1_555 1_555
C4 C3 1_555 1_555
C5 C4 1_555 1_555
C6 C5 1_555 1_555
C7 C6 1_555 1_555
H3 C7 1_555 1_555
C8 C7 1_555 1_555
H4 C8 1_555 1_555
C9 C8 1_555 1_555
C10 C9 1_555 1_555
C11 C10 1_555 1_555
C12 C11 1_555 1_555
H5 C12 1_555 1_555
C13 C12 1_555 1_555
H6 C13 1_555 1_555
C14 C13 1_555 1_555
C15 C14 1_555 1_555
C16 C15 1_555 1_555
C17 C16 1_555 1_555
H7 C17 1_555 1_555
C18 C17 1_555 1_555
H8 C18 1_555 1_555
C19 C18 1_555 1_555
C20 C1 1_555 1_555
C21 C5 1_555 1_555
H9 C21 1_555 1_555
H10 C21 1_555 1_555
H11 C21 1_555 1_555
C22 C10 1_555 1_555
H12 C22 1_555 1_555
H13 C22 1_555 1_555
H14 C22 1_555 1_555
C23 C10 1_555 1_555
H15 C23 1_555 1_555
H16 C23 1_555 1_555
H17 C23 1_555 1_555
C24 C15 1_555 1_555
H18 C24 1_555 1_555
H19 C24 1_555 1_555
H20 C24 1_555 1_555
C25 C20 1_555 1_555
H21 C25 1_555 1_555
H22 C25 1_555 1_555
H23 C25 1_555 1_555
C26 C20 1_555 1_555
H24 C26 1_555 1_555
H25 C26 1_555 1_555
H26 C26 1_555 1_555
C27 C5 1_555 1_555
C28 C27 1_555 1_555
H27 C28 1_555 1_555
C29 C28 1_555 1_555
C30 C29 1_555 1_555
H28 C30 1_555 1_555
C31 C30 1_555 1_555
H29 C31 1_555 1_555
C32 C27 1_555 1_555
H30 C32 1_555 1_555
C33 H31 1_555 1_555
H32 C33 1_555 1_555
C34 C33 1_555 1_555
H33 C34 1_555 1_555
H34 C34 1_555 1_555
C35 C36 1_555 1_555
C36 H35 1_555 1_555
C37 C36 1_555 1_555
C38 C37 1_555 1_555
H36 C38 1_555 1_555
C39 C38 1_555 1_555
H37 C39 1_555 1_555
C40 C39 1_555 1_555
H38 C40 1_555 1_555
C41 C40 1_555 1_555
H39 C41 1_555 1_555
C42 C37 1_555 1_555
C43 C42 1_555 1_555
H40 C43 1_555 1_555
C44 C35 1_555 1_555
C45 H41 1_555 1_555
H42 C45 1_555 1_555
C46 C45 1_555 1_555
H43 C46 1_555 1_555
H44 C46 1_555 1_555
C47 C48 1_555 1_555
C48 H45 1_555 1_555
C49 C15 1_555 1_555
C50 C49 1_555 1_555
H46 C50 1_555 1_555
C51 C50 1_555 1_555
H47 C51 1_555 1_555
C52 C47 1_555 1_555
H48 C52 1_555 1_555
N1 C1 1_555 1_555
N2 C6 1_555 1_555
N3 C11 1_555 1_555
N4 C16 1_555 1_555
O1 C29 1_555 1_555
O2 C34 1_555 1_555
O3 C44 1_555 1_555
O4 C46 1_555 1_555
H49 N3 1_555 1_555
H50 N1 1_555 1_555
H51 N4 1_555 1_555
H52 N2 1_555 1_555
C53 H53 1_555 1_555
H54 C53 1_555 1_555
C54 C53 1_555 1_555
H55 C54 1_555 1_555
H56 C54 1_555 1_555
H57 C54 1_555 1_555
O5 C53 1_555 1_555
H58 O5 1_555 1_555
C4 N1 1_555 1_555
C9 N2 1_555 1_555
C14 N3 1_555 1_555
C19 C20 1_555 1_555
C19 N4 1_555 1_555
C31 C32 1_555 1_555
C33 O1 1_555 1_555
C35 O2 1_555 1_555
C41 C42 1_555 1_555
C43 C44 1_555 1_555
C45 O3 1_555 1_555
C47 O4 1_555 1_555
C48 C49 1_555 1_555
C51 C52 1_555 1_555

#END
