
#######################################################################
#
#                 Cambridge Crystallographic Data Centre
#                                CCDC 
#
#######################################################################
#
# If this CIF has been generated from an entry in the Cambridge 
# Structural Database, then it will include bibliographic, chemical, 
# crystal, experimental, refinement or atomic coordinate data resulting 
# from the CCDC's data processing and validation procedures.
#
#######################################################################

data_ZOQQIH
_chemical_formula_moiety         
'C52 H52 N4 O4,Cs1 1+,Cl1 1-,2.5(C1 H1 Cl3),C1 H4 O1'
_chemical_name_systematic        
'cesium chloride 1,28,33,33,42,42-hexamethyl-6,9,20,23-tetraoxa-47,48,49,50-tetraazadecacyclo[26.9.9.2^2,5^.2^24,27^.1^29,32^.1^34,37^.1^38,41^.1^43,46^.0^10,19^.0^12,17^]tetrapentaconta-2,4,10,12,14,16,18,24,26,29,31,34,36,38,40,43,45,51,53-nonadecaene methanol chloroform solvate'
_symmetry_cell_setting           monoclinic
_symmetry_space_group_name_H-M   'P 21/n'
_symmetry_Int_Tables_number      14
_space_group_name_Hall           '-P 2yn'
loop_
_symmetry_equiv_pos_site_id
_symmetry_equiv_pos_as_xyz
1 x,y,z
2 1/2-x,1/2+y,1/2-z
3 -x,-y,-z
4 1/2+x,1/2-y,1/2+z
_cell_length_a                   17.146(2)
_cell_length_b                   19.796(3)
_cell_length_c                   34.585(4)
_cell_angle_alpha                90
_cell_angle_beta                 103.188(4)
_cell_angle_gamma                90
_cell_volume                     11429.3
_exptl_crystal_colour            colorless
_exptl_crystal_description       prisms
_cell_formula_units_Z            8
loop_
_atom_site_label
_atom_site_type_symbol
_atom_site_fract_x
_atom_site_fract_y
_atom_site_fract_z
Cs1 Cs 0.51746(2) 0.237818(16) 0.266998(10)
O1 O 0.0682(2) 0.24595(16) 0.07847(10)
O2 O 0.0382(2) 0.13875(19) 0.01860(10)
O3 O 0.1360(2) 0.04676(19) 0.00410(10)
O4 O 0.3039(2) 0.03192(16) 0.03749(9)
N1 N 0.4514(2) 0.09119(16) 0.21224(10)
H1 H 0.4113 0.1012 0.1923
N2 N 0.3178(2) 0.19313(17) 0.23911(10)
H2 H 0.3196 0.1863 0.2142
N3 N 0.3821(2) 0.31906(18) 0.18903(11)
H3 H 0.3632 0.2842 0.1740
N4 N 0.5136(2) 0.22066(18) 0.16426(11)
H4 H 0.4647 0.2120 0.1668
C1 C 0.5300(3) 0.0868(2) 0.20969(12)
C2 C 0.5746(3) 0.0725(2) 0.24739(12)
H5 H 0.6311 0.0675 0.2550
C3 C 0.5210(3) 0.0669(2) 0.27252(13)
H6 H 0.5353 0.0572 0.3001
C4 C 0.4439(3) 0.0777(2) 0.25037(12)
C5 C 0.3635(3) 0.0750(2) 0.26100(12)
C6 C 0.3372(3) 0.1457(2) 0.26880(13)
C7 C 0.3268(3) 0.1766(3) 0.30255(14)
H7 H 0.3360 0.1565 0.3281
C8 C 0.3005(3) 0.2432(3) 0.29334(14)
H8 H 0.2887 0.2755 0.3115
C9 C 0.2949(3) 0.2531(2) 0.25390(13)
C10 C 0.2742(3) 0.3146(2) 0.22782(14)
C11 C 0.3503(3) 0.3442(2) 0.21904(13)
C12 C 0.3975(3) 0.3962(2) 0.23580(15)
H9 H 0.3903 0.4229 0.2575
C13 C 0.4597(3) 0.4038(2) 0.21505(16)
H10 H 0.5017 0.4362 0.2206
C14 C 0.4481(3) 0.3564(2) 0.18589(14)
C15 C 0.4893(3) 0.3454(2) 0.15230(15)
C16 C 0.5417(3) 0.2837(2) 0.15751(13)
C17 C 0.6202(3) 0.2750(3) 0.15680(14)
H11 H 0.6558 0.3099 0.1531
C18 C 0.6402(3) 0.2059(2) 0.16248(13)
H12 H 0.6912 0.1863 0.1634
C19 C 0.5735(3) 0.1727(2) 0.16638(13)
C20 C 0.5564(3) 0.0984(2) 0.17100(13)
C21 C 0.3709(3) 0.0322(2) 0.29848(13)
H13 H 0.3930 -0.0122 0.2943
H14 H 0.3179 0.0264 0.3042
H15 H 0.4066 0.0548 0.3209
C22 C 0.3007(3) 0.0418(2) 0.22712(13)
H16 H 0.2933 0.0697 0.2032
H17 H 0.2496 0.0378 0.2351
H18 H 0.3192 -0.0033 0.2216
C23 C 0.2359(3) 0.3677(2) 0.25030(15)
H19 H 0.2753 0.3824 0.2740
H20 H 0.1895 0.3479 0.2582
H21 H 0.2186 0.4066 0.2330
C24 C 0.5399(4) 0.4086(3) 0.14842(18)
H22 H 0.5834 0.4130 0.1722
H23 H 0.5058 0.4489 0.1456
H24 H 0.5625 0.4041 0.1250
C25 C 0.4268(3) 0.3386(3) 0.11248(15)
H25 H 0.4540 0.3400 0.0905
H26 H 0.3884 0.3759 0.1098
H27 H 0.3984 0.2955 0.1120
C26 C 0.6334(3) 0.0572(2) 0.17252(14)
H28 H 0.6762 0.0740 0.1942
H29 H 0.6497 0.0622 0.1473
H30 H 0.6233 0.0095 0.1770
C27 C 0.2131(3) 0.2979(2) 0.18877(14)
C28 C 0.1596(3) 0.2444(2) 0.18588(14)
H31 H 0.1582 0.2194 0.2091
C29 C 0.1085(3) 0.2264(2) 0.15050(13)
H32 H 0.0726 0.1895 0.1495
C30 C 0.1102(3) 0.2626(2) 0.11662(14)
C31 C 0.1575(3) 0.3191(3) 0.11862(15)
H33 H 0.1557 0.3459 0.0957
C32 C 0.2084(3) 0.3366(2) 0.15507(15)
H34 H 0.2405 0.3761 0.1566
C33 C 0.0099(3) 0.1932(3) 0.07499(15)
H35 H -0.0347 0.2077 0.0869
H36 H 0.0345 0.1522 0.0890
C34 C -0.0207(3) 0.1788(3) 0.03144(16)
H37 H -0.0722 0.1540 0.0270
H38 H -0.0297 0.2216 0.0163
C35 C 0.0140(3) 0.1065(3) -0.01717(14)
C36 C -0.0555(3) 0.1193(3) -0.04424(14)
H39 H -0.0896 0.1546 -0.0394
C37 C -0.0775(3) 0.0807(3) -0.07964(14)
C38 C -0.1505(3) 0.0930(3) -0.10752(15)
H40 H -0.1850 0.1285 -0.1033
C39 C -0.1711(4) 0.0524(4) -0.14107(16)
H41 H -0.2204 0.0600 -0.1597
C40 C -0.1215(4) 0.0016(4) -0.14773(16)
H42 H -0.1371 -0.0258 -0.1707
C41 C -0.0498(4) -0.0102(3) -0.12173(16)
H43 H -0.0153 -0.0448 -0.1269
C42 C -0.0274(4) 0.0298(3) -0.08687(15)
C43 C 0.0464(3) 0.0168(3) -0.05874(14)
H44 H 0.0813 -0.0179 -0.0636
C44 C 0.0663(3) 0.0548(3) -0.02469(14)
C45 C 0.1817(3) -0.0135(3) 0.00232(15)
H45 H 0.2065 -0.0117 -0.0209
H46 H 0.1465 -0.0537 -0.0004
C46 C 0.2457(3) -0.0178(3) 0.04013(15)
H47 H 0.2225 -0.0089 0.0634
H48 H 0.2702 -0.0633 0.0430
C47 C 0.3675(3) 0.0405(2) 0.06984(13)
C48 C 0.4202(3) 0.0914(2) 0.06620(13)
H49 H 0.4149 0.1146 0.0417
C49 C 0.4811(3) 0.1085(2) 0.09874(13)
H50 H 0.5161 0.1446 0.0962
C50 C 0.4925(3) 0.0748(2) 0.13450(13)
C51 C 0.4425(3) 0.0197(2) 0.13599(13)
H51 H 0.4522 -0.0072 0.1593
C52 C 0.3792(3) 0.0027(2) 0.10464(13)
H52 H 0.3447 -0.0339 0.1069
O5 O 0.99725(19) 0.10225(16) 0.50618(10)
O6 O 1.10936(18) 0.21833(14) 0.52594(9)
O7 O 1.08216(18) 0.34620(14) 0.51316(9)
O8 O 0.93346(18) 0.41543(15) 0.46947(9)
N5 N 0.6495(2) 0.11358(19) 0.39928(11)
H53 H 0.6891 0.1429 0.4035
N6 N 0.7692(2) 0.10633(18) 0.33874(11)
H54 H 0.7669 0.1389 0.3558
N7 N 0.7446(2) 0.27009(18) 0.32015(11)
H55 H 0.7612 0.2563 0.3449
N8 N 0.6181(2) 0.27594(19) 0.37699(12)
H56 H 0.6660 0.2582 0.3854
C53 C 0.5729(3) 0.1274(3) 0.40257(14)
C54 C 0.5300(3) 0.0689(3) 0.39263(15)
H57 H 0.4747 0.0632 0.3918
C55 C 0.5813(3) 0.0194(3) 0.38401(15)
H58 H 0.5666 -0.0258 0.3764
C56 C 0.6557(3) 0.0464(2) 0.38828(14)
C57 C 0.7329(3) 0.0162(2) 0.38267(15)
C58 C 0.7504(3) 0.0403(2) 0.34396(14)
C59 C 0.7587(3) 0.0061(2) 0.31117(16)
H59 H 0.7484 -0.0406 0.3062
C60 C 0.7858(3) 0.0525(3) 0.28545(15)
H60 H 0.7974 0.0421 0.2605
C61 C 0.7921(3) 0.1154(3) 0.30333(14)
C62 C 0.8232(3) 0.1814(3) 0.29172(14)
C63 C 0.7631(3) 0.2387(2) 0.28807(14)
C64 C 0.7235(3) 0.2744(3) 0.25554(15)
H61 H 0.7231 0.2639 0.2287
C65 C 0.6835(3) 0.3292(3) 0.26823(15)
H62 H 0.6528 0.3625 0.2517
C66 C 0.6970(3) 0.3257(2) 0.30894(13)
C67 C 0.6677(3) 0.3689(2) 0.33883(14)
C68 C 0.6023(3) 0.3317(2) 0.35315(14)
C69 C 0.5200(3) 0.3405(3) 0.34652(17)
H63 H 0.4905 0.3754 0.3309
C70 C 0.4872(3) 0.2902(3) 0.36632(16)
H64 H 0.4320 0.2844 0.3660
C71 C 0.5486(3) 0.2508(3) 0.38619(16)
C72 C 0.5481(3) 0.1954(3) 0.41635(16)
C73 C 0.4645(3) 0.1891(3) 0.4235(2)
H65 H 0.4467 0.2332 0.4310
H66 H 0.4650 0.1566 0.4450
H67 H 0.4277 0.1733 0.3992
C74 C 0.6063(3) 0.2158(3) 0.45581(15)
H68 H 0.6610 0.2179 0.4519
H69 H 0.6036 0.1823 0.4763
H70 H 0.5910 0.2602 0.4642
C75 C 0.7249(3) -0.0618(2) 0.38174(18)
H71 H 0.6839 -0.0754 0.3584
H72 H 0.7094 -0.0773 0.4058
H73 H 0.7763 -0.0821 0.3804
C76 C 0.8458(4) 0.1738(3) 0.25123(16)
H74 H 0.8790 0.1334 0.2516
H75 H 0.8757 0.2137 0.2462
H76 H 0.7969 0.1694 0.2302
C77 C 0.9001(3) 0.1999(3) 0.32362(15)
H77 H 0.8872 0.2023 0.3498
H78 H 0.9203 0.2438 0.3172
H79 H 0.9411 0.1653 0.3240
C78 C 0.6321(4) 0.4357(2) 0.31919(17)
H80 H 0.6734 0.4605 0.3096
H81 H 0.6132 0.4633 0.3387
H82 H 0.5871 0.4257 0.2968
C79 C 0.8051(3) 0.0348(2) 0.41700(15)
C80 C 0.7980(3) 0.0499(2) 0.45492(15)
H83 H 0.7472 0.0457 0.4613
C81 C 0.8625(3) 0.0710(2) 0.48389(15)
H84 H 0.8553 0.0819 0.5096
C82 C 0.9368(3) 0.0763(2) 0.47612(15)
C83 C 0.9468(3) 0.0561(2) 0.43936(16)
H85 H 0.9989 0.0553 0.4341
C84 C 0.8813(3) 0.0370(2) 0.41014(16)
H86 H 0.8888 0.0251 0.3846
C85 C 1.0741(3) 0.1087(2) 0.49827(15)
H87 H 1.0700 0.1329 0.4728
H88 H 1.0967 0.0633 0.4958
C86 C 1.1279(3) 0.1465(2) 0.53083(15)
H89 H 1.1201 0.1308 0.5568
H90 H 1.1845 0.1386 0.5300
C87 C 1.1618(3) 0.2605(2) 0.55057(13)
C88 C 1.2255(3) 0.2404(2) 0.57903(13)
H91 H 1.2361 0.1935 0.5830
C89 C 1.2771(3) 0.2882(2) 0.60335(12)
C90 C 1.3419(3) 0.2671(2) 0.63408(13)
H92 H 1.3529 0.2203 0.6382
C91 C 1.3888(3) 0.3133(2) 0.65784(13)
H93 H 1.4314 0.2987 0.6789
C92 C 1.3736(3) 0.3828(3) 0.65107(14)
H94 H 1.4068 0.4150 0.6674
C93 C 1.3116(3) 0.4044(2) 0.62128(14)
H95 H 1.3019 0.4514 0.6171
C94 C 1.2620(3) 0.3569(2) 0.59667(13)
C95 C 1.1947(3) 0.3772(2) 0.56633(13)
H96 H 1.1835 0.4240 0.5620
C96 C 1.1465(3) 0.3311(2) 0.54353(13)
C97 C 1.0714(3) 0.4155(2) 0.50220(14)
H97 H 1.1233 0.4355 0.5003
H98 H 1.0512 0.4407 0.5226
C98 C 1.0121(3) 0.4208(2) 0.46256(13)
H99 H 1.0185 0.4647 0.4499
H100 H 1.0215 0.3842 0.4447
C99 C 0.8716(3) 0.4104(2) 0.43644(13)
C100 C 0.7953(3) 0.4046(2) 0.44393(15)
H101 H 0.7882 0.4082 0.4703
C101 C 0.7295(3) 0.3935(2) 0.41248(14)
H102 H 0.6774 0.3906 0.4175
C102 C 0.7394(3) 0.3865(2) 0.37398(14)
C103 C 0.8151(3) 0.3961(2) 0.36726(13)
H103 H 0.8220 0.3941 0.3408
C104 C 0.8805(3) 0.4083(2) 0.39774(14)
H104 H 0.9317 0.4153 0.3922
Cs2 Cs 0.22139(2) 0.177230(18) 0.052885(9)
Cl1 Cl 0.32272(7) 0.17514(5) 0.14634(3)
O9 O 0.3182(3) 0.2464(2) 0.00294(12)
C105 C 0.4025(4) 0.2491(3) 0.01486(18)
Cl2 Cl 0.80074(7) 0.21916(5) 0.41273(3)
Cl3 Cl 0.03733(11) 0.38519(11) 0.28493(7)
Cl4 Cl -0.12752(10) 0.36566(10) 0.24710(7)
Cl5 Cl -0.00709(11) 0.36083(9) 0.20060(6)
C106 C -0.0363(3) 0.3989(3) 0.24076(16)
Cl6 Cl 0.07525(11) 0.21232(9) 0.27695(6)
Cl7 Cl 0.12216(19) 0.08647(14) 0.31783(7)
Cl8 Cl 0.06851(11) 0.08847(9) 0.23310(6)
C107 C 0.1220(4) 0.1339(2) 0.27521(13)
loop_
_geom_bond_atom_site_label_1
_geom_bond_atom_site_label_2
_geom_bond_site_symmetry_1
_geom_bond_site_symmetry_2
O1 C30 1_555 1_555
O2 C34 1_555 1_555
O3 C44 1_555 1_555
O4 C46 1_555 1_555
N1 H1 1_555 1_555
N2 H2 1_555 1_555
N3 H3 1_555 1_555
N4 H4 1_555 1_555
C1 N1 1_555 1_555
C2 C1 1_555 1_555
H5 C2 1_555 1_555
C3 C2 1_555 1_555
H6 C3 1_555 1_555
C4 N1 1_555 1_555
C5 C4 1_555 1_555
C6 N2 1_555 1_555
C7 C6 1_555 1_555
H7 C7 1_555 1_555
C8 C7 1_555 1_555
H8 C8 1_555 1_555
C9 N2 1_555 1_555
C10 C9 1_555 1_555
C11 N3 1_555 1_555
C12 C11 1_555 1_555
H9 C12 1_555 1_555
C13 C12 1_555 1_555
H10 C13 1_555 1_555
C14 N3 1_555 1_555
C15 C14 1_555 1_555
C16 N4 1_555 1_555
C17 C16 1_555 1_555
H11 C17 1_555 1_555
C18 C17 1_555 1_555
H12 C18 1_555 1_555
C19 N4 1_555 1_555
C20 C1 1_555 1_555
C21 C5 1_555 1_555
H13 C21 1_555 1_555
H14 C21 1_555 1_555
H15 C21 1_555 1_555
C22 C5 1_555 1_555
H16 C22 1_555 1_555
H17 C22 1_555 1_555
H18 C22 1_555 1_555
C23 C10 1_555 1_555
H19 C23 1_555 1_555
H20 C23 1_555 1_555
H21 C23 1_555 1_555
C24 C15 1_555 1_555
H22 C24 1_555 1_555
H23 C24 1_555 1_555
H24 C24 1_555 1_555
C25 C15 1_555 1_555
H25 C25 1_555 1_555
H26 C25 1_555 1_555
H27 C25 1_555 1_555
C26 C20 1_555 1_555
H28 C26 1_555 1_555
H29 C26 1_555 1_555
H30 C26 1_555 1_555
C27 C10 1_555 1_555
C28 C27 1_555 1_555
H31 C28 1_555 1_555
C29 C28 1_555 1_555
H32 C29 1_555 1_555
C30 C29 1_555 1_555
C31 C30 1_555 1_555
H33 C31 1_555 1_555
C32 C27 1_555 1_555
H34 C32 1_555 1_555
C33 O1 1_555 1_555
H35 C33 1_555 1_555
H36 C33 1_555 1_555
C34 C33 1_555 1_555
H37 C34 1_555 1_555
H38 C34 1_555 1_555
C35 O2 1_555 1_555
C36 C35 1_555 1_555
H39 C36 1_555 1_555
C37 C36 1_555 1_555
C38 C37 1_555 1_555
H40 C38 1_555 1_555
C39 C38 1_555 1_555
H41 C39 1_555 1_555
C40 C39 1_555 1_555
H42 C40 1_555 1_555
C41 C40 1_555 1_555
H43 C41 1_555 1_555
C42 C37 1_555 1_555
C43 C42 1_555 1_555
H44 C43 1_555 1_555
C44 C35 1_555 1_555
C45 O3 1_555 1_555
H45 C45 1_555 1_555
H46 C45 1_555 1_555
C46 C45 1_555 1_555
H47 C46 1_555 1_555
H48 C46 1_555 1_555
C47 O4 1_555 1_555
C48 C47 1_555 1_555
H49 C48 1_555 1_555
C49 C48 1_555 1_555
H50 C49 1_555 1_555
C50 C20 1_555 1_555
C51 C50 1_555 1_555
H51 C51 1_555 1_555
C52 C47 1_555 1_555
H52 C52 1_555 1_555
O5 C82 1_555 1_555
O6 C86 1_555 1_555
O7 C96 1_555 1_555
O8 C98 1_555 1_555
N5 H53 1_555 1_555
N6 H54 1_555 1_555
N7 H55 1_555 1_555
N8 H56 1_555 1_555
C53 N5 1_555 1_555
C54 C53 1_555 1_555
H57 C54 1_555 1_555
C55 C54 1_555 1_555
H58 C55 1_555 1_555
C56 N5 1_555 1_555
C57 C56 1_555 1_555
C58 N6 1_555 1_555
C59 C58 1_555 1_555
H59 C59 1_555 1_555
C60 C59 1_555 1_555
H60 C60 1_555 1_555
C61 N6 1_555 1_555
C62 C61 1_555 1_555
C63 N7 1_555 1_555
C64 C63 1_555 1_555
H61 C64 1_555 1_555
C65 C64 1_555 1_555
H62 C65 1_555 1_555
C66 N7 1_555 1_555
C67 C66 1_555 1_555
C68 N8 1_555 1_555
C69 C68 1_555 1_555
H63 C69 1_555 1_555
C70 C69 1_555 1_555
H64 C70 1_555 1_555
C71 N8 1_555 1_555
C72 C53 1_555 1_555
C73 C72 1_555 1_555
H65 C73 1_555 1_555
H66 C73 1_555 1_555
H67 C73 1_555 1_555
C74 C72 1_555 1_555
H68 C74 1_555 1_555
H69 C74 1_555 1_555
H70 C74 1_555 1_555
C75 C57 1_555 1_555
H71 C75 1_555 1_555
H72 C75 1_555 1_555
H73 C75 1_555 1_555
C76 C62 1_555 1_555
H74 C76 1_555 1_555
H75 C76 1_555 1_555
H76 C76 1_555 1_555
C77 C62 1_555 1_555
H77 C77 1_555 1_555
H78 C77 1_555 1_555
H79 C77 1_555 1_555
C78 C67 1_555 1_555
H80 C78 1_555 1_555
H81 C78 1_555 1_555
H82 C78 1_555 1_555
C79 C57 1_555 1_555
C80 C79 1_555 1_555
H83 C80 1_555 1_555
C81 C80 1_555 1_555
H84 C81 1_555 1_555
C82 C81 1_555 1_555
C83 C82 1_555 1_555
H85 C83 1_555 1_555
C84 C79 1_555 1_555
H86 C84 1_555 1_555
C85 O5 1_555 1_555
H87 C85 1_555 1_555
H88 C85 1_555 1_555
C86 C85 1_555 1_555
H89 C86 1_555 1_555
H90 C86 1_555 1_555
C87 O6 1_555 1_555
C88 C87 1_555 1_555
H91 C88 1_555 1_555
C89 C88 1_555 1_555
C90 C89 1_555 1_555
H92 C90 1_555 1_555
C91 C90 1_555 1_555
H93 C91 1_555 1_555
C92 C91 1_555 1_555
H94 C92 1_555 1_555
C93 C92 1_555 1_555
H95 C93 1_555 1_555
C94 C89 1_555 1_555
C95 C94 1_555 1_555
H96 C95 1_555 1_555
C96 C87 1_555 1_555
C97 O7 1_555 1_555
H97 C97 1_555 1_555
H98 C97 1_555 1_555
C98 C97 1_555 1_555
H99 C98 1_555 1_555
H100 C98 1_555 1_555
C99 O8 1_555 1_555
C100 C99 1_555 1_555
H101 C100 1_555 1_555
C101 C100 1_555 1_555
H102 C101 1_555 1_555
C102 C67 1_555 1_555
C103 C102 1_555 1_555
H103 C103 1_555 1_555
C104 C99 1_555 1_555
H104 C104 1_555 1_555
O9 C105 1_555 1_555
Cl3 C106 1_555 1_555
Cl4 C106 1_555 1_555
Cl5 C106 1_555 1_555
Cl6 C107 1_555 1_555
Cl7 C107 1_555 1_555
Cl8 C107 1_555 1_555
C3 C4 1_555 1_555
C5 C6 1_555 1_555
C8 C9 1_555 1_555
C10 C11 1_555 1_555
C13 C14 1_555 1_555
C15 C16 1_555 1_555
C18 C19 1_555 1_555
C19 C20 1_555 1_555
C31 C32 1_555 1_555
C41 C42 1_555 1_555
C43 C44 1_555 1_555
C49 C50 1_555 1_555
C51 C52 1_555 1_555
C55 C56 1_555 1_555
C57 C58 1_555 1_555
C60 C61 1_555 1_555
C62 C63 1_555 1_555
C65 C66 1_555 1_555
C67 C68 1_555 1_555
C70 C71 1_555 1_555
C71 C72 1_555 1_555
C83 C84 1_555 1_555
C93 C94 1_555 1_555
C95 C96 1_555 1_555
C101 C102 1_555 1_555
C103 C104 1_555 1_555

#END
