
#######################################################################
#
#                 Cambridge Crystallographic Data Centre
#                                CCDC 
#
#######################################################################
#
# If this CIF has been generated from an entry in the Cambridge 
# Structural Database, then it will include bibliographic, chemical, 
# crystal, experimental, refinement or atomic coordinate data resulting 
# from the CCDC's data processing and validation procedures.
#
#######################################################################

data_ZOQQON
_chemical_formula_moiety         'C52 H52 N4 O4,5(C1 H4 O1),Cs1 1+,F1 1-'
_chemical_name_systematic        
'cesium fluoride 1,28,33,33,42,42-hexamethyl-6,9,20,23-tetraoxa-47,48,49,50-tetraazadecacyclo[26.9.9.2^2,5^.2^24,27^.1^29,32^.1^34,37^.1^38,41^.1^43,46^.0^10,19^.0^12,17^]tetrapentaconta-2,4,10,12,14,16,18,24,26,29,31,34,36,38,40,43,45,51,53-nonadecaene methanol solvate'
_symmetry_cell_setting           rhombohedral
_symmetry_space_group_name_H-M   'R -3'
_symmetry_Int_Tables_number      148
_space_group_name_Hall           '-R 3'
loop_
_symmetry_equiv_pos_site_id
_symmetry_equiv_pos_as_xyz
1 x,y,z
2 -y,x-y,z
3 -x+y,-x,z
4 2/3+x,1/3+y,1/3+z
5 2/3-y,1/3+x-y,1/3+z
6 2/3-x+y,1/3-x,1/3+z
7 1/3+x,2/3+y,2/3+z
8 1/3-y,2/3+x-y,2/3+z
9 1/3-x+y,2/3-x,2/3+z
10 -x,-y,-z
11 y,-x+y,-z
12 x-y,x,-z
13 1/3-x,2/3-y,2/3-z
14 1/3+y,2/3-x+y,2/3-z
15 1/3+x-y,2/3+x,2/3-z
16 2/3-x,1/3-y,1/3-z
17 2/3+y,1/3-x+y,1/3-z
18 2/3+x-y,1/3+x,1/3-z
_cell_length_a                   50.254(3)
_cell_length_b                   50.254(3)
_cell_length_c                   10.6393(9)
_cell_angle_alpha                90
_cell_angle_beta                 90
_cell_angle_gamma                120
_cell_volume                     23269.4
_exptl_crystal_colour            colorless
_exptl_crystal_description       plates
_cell_formula_units_Z            18
loop_
_atom_site_label
_atom_site_type_symbol
_atom_site_fract_x
_atom_site_fract_y
_atom_site_fract_z
C1 C 0.44886(12) 0.14090(14) 1.1168(4)
C2 C 0.45119(14) 0.16010(14) 1.2147(4)
H1 H 0.4358 0.1557 1.2761
C3 C 0.48003(13) 0.18724(15) 1.2088(4)
H2 H 0.4874 0.2042 1.2645
C4 C 0.49565(12) 0.18457(14) 1.1069(4)
C5 C 0.52837(13) 0.20317(16) 1.0670(4)
C6 C 0.53236(14) 0.22127(17) 0.9454(4)
C7 C 0.54836(14) 0.25143(17) 0.9177(5)
H3 H 0.5596 0.2676 0.9757
C8 C 0.54542(14) 0.25484(15) 0.7860(5)
H4 H 0.5541 0.2737 0.7409
C9 C 0.52792(14) 0.22630(15) 0.7371(4)
C10 C 0.51722(14) 0.21517(14) 0.6031(4)
C11 C 0.48290(14) 0.20015(14) 0.5962(4)
C12 C 0.46329(16) 0.20907(16) 0.5448(4)
H5 H 0.4692 0.2286 0.5098
C13 C 0.43314(17) 0.18418(17) 0.5534(4)
H6 H 0.4152 0.1842 0.5255
C14 C 0.43390(14) 0.15960(15) 0.6093(4)
C15 C 0.40998(14) 0.12603(15) 0.6253(4)
C16 C 0.40092(13) 0.11764(14) 0.7620(4)
C17 C 0.37304(14) 0.10566(15) 0.8196(5)
H7 H 0.3542 0.1013 0.7810
C18 C 0.37719(15) 0.10080(16) 0.9474(5)
H8 H 0.3616 0.0927 1.0097
C19 C 0.40731(13) 0.10973(14) 0.9660(4)
C20 C 0.42467(13) 0.10897(14) 1.0815(4)
C21 C 0.54207(15) 0.18173(19) 1.0470(5)
H9 H 0.5404 0.1707 1.1252
H10 H 0.5637 0.1941 1.0229
H11 H 0.5307 0.1669 0.9802
C22 C 0.54741(14) 0.22778(18) 1.1703(5)
H12 H 0.5390 0.2415 1.1816
H13 H 0.5689 0.2398 1.1439
H14 H 0.5461 0.2174 1.2499
C23 C 0.53173(15) 0.24298(13) 0.5143(4)
H15 H 0.5257 0.2360 0.4276
H16 H 0.5542 0.2534 0.5215
H17 H 0.5246 0.2573 0.5373
C24 C 0.38139(14) 0.11896(16) 0.5493(5)
H18 H 0.3659 0.0972 0.5591
H19 H 0.3869 0.1234 0.4603
H20 H 0.3730 0.1317 0.5797
C25 C 0.42282(14) 0.10583(15) 0.5741(5)
H21 H 0.4414 0.1103 0.6206
H22 H 0.4278 0.1103 0.4847
H23 H 0.4074 0.0841 0.5845
C26 C 0.40154(13) 0.09413(14) 1.1907(4)
H24 H 0.3908 0.1056 1.2047
H25 H 0.4126 0.0946 1.2673
H26 H 0.3866 0.0728 1.1693
C27 C 0.52706(12) 0.19197(12) 0.5621(4)
C28 C 0.51091(13) 0.17040(13) 0.4705(4)
H27 H 0.4943 0.1708 0.4296
C29 C 0.51824(11) 0.14791(12) 0.4361(4)
H28 H 0.5065 0.1329 0.3742
C30 C 0.54318(11) 0.14793(11) 0.4946(4)
C31 C 0.56125(12) 0.17088(12) 0.5792(4)
H29 H 0.5791 0.1717 0.6141
C32 C 0.55318(12) 0.19279(12) 0.6130(4)
H30 H 0.5656 0.2085 0.6713
C33 C 0.52906(10) 0.09908(11) 0.4039(4)
H31 H 0.5286 0.1053 0.3160
H32 H 0.5082 0.0907 0.4400
C34 C 0.53843(10) 0.07524(11) 0.4071(4)
H33 H 0.5260 0.0587 0.3464
H34 H 0.5603 0.0845 0.3832
C35 C 0.53713(9) 0.03743(10) 0.5461(4)
C36 C 0.54487(10) 0.02394(10) 0.4529(4)
H35 H 0.5479 0.0318 0.3698
C37 C 0.54852(10) -0.00170(11) 0.4787(4)
C38 C 0.55840(14) -0.01497(13) 0.3861(5)
H36 H 0.5609 -0.0079 0.3018
C39 C 0.56440(15) -0.03817(14) 0.4169(5)
H37 H 0.5718 -0.0463 0.3542
C40 C 0.55974(13) -0.04976(13) 0.5397(5)
H38 H 0.5636 -0.0659 0.5600
C41 C 0.54947(11) -0.03753(11) 0.6309(4)
H39 H 0.5464 -0.0453 0.7142
C42 C 0.54350(9) -0.01363(10) 0.6020(4)
C43 C 0.53406(9) -0.00005(10) 0.6969(4)
H40 H 0.5297 -0.0084 0.7793
C44 C 0.53121(9) 0.02468(10) 0.6698(4)
C45 C 0.51906(12) 0.02897(12) 0.8822(4)
H41 H 0.5383 0.0308 0.9153
H42 H 0.5029 0.0070 0.8840
C46 C 0.50954(11) 0.04768(11) 0.9619(4)
H43 H 0.5146 0.0469 1.0513
H44 H 0.5205 0.0694 0.9342
C47 C 0.46516(11) 0.05256(11) 0.9910(4)
C48 C 0.48113(13) 0.07806(13) 1.0688(4)
H45 H 0.5010 0.0835 1.0996
C49 C 0.46738(13) 0.09557(13) 1.1009(4)
H46 H 0.4779 0.1126 1.1558
C50 C 0.43909(13) 0.08843(13) 1.0544(4)
C51 C 0.42301(13) 0.06236(13) 0.9813(4)
H47 H 0.4031 0.0569 0.9518
C52 C 0.43561(12) 0.04411(12) 0.9505(4)
H48 H 0.4241 0.0260 0.9020
N1 N 0.47620(10) 0.15671(11) 1.0507(3)
H49 H 0.4806 0.1499 0.9821
N2 N 0.51913(10) 0.20521(12) 0.8344(3)
H50 H 0.5073 0.1852 0.8275
N3 N 0.46476(11) 0.17063(12) 0.6383(3)
H51 H 0.4717 0.1600 0.6784
N4 N 0.42181(10) 0.12008(10) 0.8519(3)
H52 H 0.4415 0.1272 0.8383
O1 O 0.55075(7) 0.12520(7) 0.4756(3)
O2 O 0.53387(7) 0.06283(7) 0.5314(3)
O3 O 0.52362(7) 0.04046(7) 0.7562(2)
O4 O 0.47697(7) 0.03463(8) 0.9466(3)
Cs1 Cs 0.448664(7) 0.201671(10) 0.92282(3)
O5 O 0.51867(10) 0.11401(11) 0.7867(4)
C53 C 0.49628(18) 0.0926(2) 0.7162(6)
F1 F 0.48463(7) 0.14248(8) 0.8112(2)
loop_
_geom_bond_atom_site_label_1
_geom_bond_atom_site_label_2
_geom_bond_site_symmetry_1
_geom_bond_site_symmetry_2
C1 C2 1_555 1_555
C2 H1 1_555 1_555
C3 C2 1_555 1_555
H2 C3 1_555 1_555
C4 C3 1_555 1_555
C5 C4 1_555 1_555
C6 C5 1_555 1_555
C7 C6 1_555 1_555
H3 C7 1_555 1_555
C8 C7 1_555 1_555
H4 C8 1_555 1_555
C9 C8 1_555 1_555
C10 C9 1_555 1_555
C11 C10 1_555 1_555
C12 C11 1_555 1_555
H5 C12 1_555 1_555
C13 C12 1_555 1_555
H6 C13 1_555 1_555
C14 C13 1_555 1_555
C15 C14 1_555 1_555
C16 C15 1_555 1_555
C17 C16 1_555 1_555
H7 C17 1_555 1_555
C18 C17 1_555 1_555
H8 C18 1_555 1_555
C19 C18 1_555 1_555
C20 C1 1_555 1_555
C21 C5 1_555 1_555
H9 C21 1_555 1_555
H10 C21 1_555 1_555
H11 C21 1_555 1_555
C22 C5 1_555 1_555
H12 C22 1_555 1_555
H13 C22 1_555 1_555
H14 C22 1_555 1_555
C23 C10 1_555 1_555
H15 C23 1_555 1_555
H16 C23 1_555 1_555
H17 C23 1_555 1_555
C24 C15 1_555 1_555
H18 C24 1_555 1_555
H19 C24 1_555 1_555
H20 C24 1_555 1_555
C25 C15 1_555 1_555
H21 C25 1_555 1_555
H22 C25 1_555 1_555
H23 C25 1_555 1_555
C26 C20 1_555 1_555
H24 C26 1_555 1_555
H25 C26 1_555 1_555
H26 C26 1_555 1_555
C27 C10 1_555 1_555
C28 C27 1_555 1_555
H27 C28 1_555 1_555
C29 C28 1_555 1_555
H28 C29 1_555 1_555
C30 C29 1_555 1_555
C31 C30 1_555 1_555
H29 C31 1_555 1_555
C32 C27 1_555 1_555
H30 C32 1_555 1_555
C33 H31 1_555 1_555
H32 C33 1_555 1_555
C34 C33 1_555 1_555
H33 C34 1_555 1_555
H34 C34 1_555 1_555
C35 C36 1_555 1_555
C36 H35 1_555 1_555
C37 C36 1_555 1_555
C38 C37 1_555 1_555
H36 C38 1_555 1_555
C39 C38 1_555 1_555
H37 C39 1_555 1_555
C40 C39 1_555 1_555
H38 C40 1_555 1_555
C41 C40 1_555 1_555
H39 C41 1_555 1_555
C42 C37 1_555 1_555
C43 C42 1_555 1_555
H40 C43 1_555 1_555
C44 C35 1_555 1_555
C45 H41 1_555 1_555
H42 C45 1_555 1_555
C46 C45 1_555 1_555
H43 C46 1_555 1_555
H44 C46 1_555 1_555
C47 C48 1_555 1_555
C48 H45 1_555 1_555
C49 C48 1_555 1_555
H46 C49 1_555 1_555
C50 C20 1_555 1_555
C51 C50 1_555 1_555
H47 C51 1_555 1_555
C52 C47 1_555 1_555
H48 C52 1_555 1_555
N1 C1 1_555 1_555
H49 N1 1_555 1_555
N2 C6 1_555 1_555
H50 N2 1_555 1_555
N3 C11 1_555 1_555
H51 N3 1_555 1_555
N4 C16 1_555 1_555
H52 N4 1_555 1_555
O1 C30 1_555 1_555
O2 C34 1_555 1_555
O3 C44 1_555 1_555
O4 C46 1_555 1_555
O5 C53 1_555 1_555
C4 N1 1_555 1_555
C9 N2 1_555 1_555
C14 N3 1_555 1_555
C19 C20 1_555 1_555
C19 N4 1_555 1_555
C31 C32 1_555 1_555
C33 O1 1_555 1_555
C35 O2 1_555 1_555
C41 C42 1_555 1_555
C43 C44 1_555 1_555
C45 O3 1_555 1_555
C47 O4 1_555 1_555
C49 C50 1_555 1_555
C51 C52 1_555 1_555

#END
