
#######################################################################
#
#                 Cambridge Crystallographic Data Centre
#                                CCDC 
#
#######################################################################
#
# If this CIF has been generated from an entry in the Cambridge 
# Structural Database, then it will include bibliographic, chemical, 
# crystal, experimental, refinement or atomic coordinate data resulting 
# from the CCDC's data processing and validation procedures.
#
#######################################################################

data_ZOQREE
_chemical_formula_moiety         'C52 H52 N4 O4'
_chemical_name_systematic        
1,28,33,33,42,42-hexamethyl-6,9,20,23-tetraoxa-47,48,49,50-tetraazadecacyclo[26.9.9.2^2,5^.2^24,27^.1^29,32^.1^34,37^.1^38,41^.1^43,46^.0^10,19^.0^12,17^]tetrapentaconta-2,4,10,12,14,16,18,24,26,29,31,34,36,38,40,43,45,51,53-nonadecaene
_symmetry_cell_setting           triclinic
_symmetry_space_group_name_H-M   'P -1'
_symmetry_Int_Tables_number      2
_space_group_name_Hall           '-P 1'
loop_
_symmetry_equiv_pos_site_id
_symmetry_equiv_pos_as_xyz
1 x,y,z
2 -x,-y,-z
_cell_length_a                   10.0921(4)
_cell_length_b                   20.0178(8)
_cell_length_c                   23.2702(10)
_cell_angle_alpha                67.7200(10)
_cell_angle_beta                 83.2010(10)
_cell_angle_gamma                89.3950(10)
_cell_volume                     4316.5
_exptl_crystal_colour            colorless
_exptl_crystal_description       needle
_cell_formula_units_Z            4
loop_
_atom_site_label
_atom_site_type_symbol
_atom_site_fract_x
_atom_site_fract_y
_atom_site_fract_z
C1 C 0.5366(3) 0.41705(16) 0.18606(14)
C2 C 0.5850(3) 0.47834(17) 0.13746(14)
H1 H 0.5881 0.5253 0.1384
C3 C 0.6304(3) 0.46024(17) 0.08491(14)
H2 H 0.6682 0.4928 0.0447
C4 C 0.6094(3) 0.38692(17) 0.10321(14)
C5 C 0.6444(3) 0.33451(17) 0.07133(14)
C6 C 0.5396(3) 0.27353(17) 0.09591(14)
C7 C 0.5449(3) 0.20089(18) 0.12876(16)
H3 H 0.6236 0.1748 0.1391
C8 C 0.4118(3) 0.17092(18) 0.14491(16)
H4 H 0.3864 0.1214 0.1673
C9 C 0.3273(3) 0.22590(16) 0.12253(14)
C10 C 0.1777(3) 0.22794(16) 0.11806(14)
C11 C 0.1345(3) 0.30513(16) 0.10206(14)
C12 C 0.1417(3) 0.36347(16) 0.04604(14)
H5 H 0.1683 0.3626 0.0058
C13 C 0.1020(3) 0.42536(17) 0.05895(14)
H6 H 0.0975 0.4730 0.0288
C14 C 0.0716(3) 0.40430(16) 0.12231(14)
C15 C 0.0216(3) 0.44499(16) 0.16293(14)
C16 C 0.1249(3) 0.44942(15) 0.20369(14)
C17 C 0.1193(3) 0.47789(16) 0.24886(14)
H7 H 0.0448 0.5003 0.2620
C18 C 0.2450(3) 0.46798(15) 0.27277(14)
H8 H 0.2689 0.4825 0.3047
C19 C 0.3245(3) 0.43403(15) 0.24176(13)
C20 C 0.4633(3) 0.40536(15) 0.25015(13)
C21 C 0.6507(3) 0.37507(19) -0.00002(15)
H9 H 0.5631 0.3944 -0.0103
H10 H 0.6753 0.3417 -0.0210
H11 H 0.7176 0.4149 -0.0141
C22 C 0.7821(3) 0.3038(2) 0.08678(17)
H12 H 0.8501 0.3432 0.0706
H13 H 0.8036 0.2687 0.0673
H14 H 0.7802 0.2799 0.1322
C23 C 0.1549(3) 0.20447(17) 0.06396(14)
H15 H 0.0618 0.2117 0.0557
H16 H 0.1745 0.1533 0.0755
H17 H 0.2141 0.2335 0.0263
C24 C -0.0136(3) 0.52218(16) 0.12068(15)
H18 H 0.0669 0.5480 0.0939
H19 H -0.0495 0.5482 0.1469
H20 H -0.0807 0.5192 0.0945
C25 C -0.1065(3) 0.40617(17) 0.20588(15)
H21 H -0.1737 0.4020 0.1802
H22 H -0.1416 0.4341 0.2306
H23 H -0.0852 0.3578 0.2341
C26 C 0.5370(3) 0.44833(16) 0.28033(14)
H24 H 0.5394 0.4999 0.2539
H25 H 0.6284 0.4318 0.2845
H26 H 0.4899 0.4405 0.3218
C27 C 0.0944(3) 0.17951(16) 0.17953(14)
C28 C -0.0333(3) 0.15472(16) 0.17763(14)
H27 H -0.0627 0.1635 0.1382
C29 C -0.1184(3) 0.11760(16) 0.23189(14)
H28 H -0.2048 0.1014 0.2293
C30 C -0.0773(3) 0.10419(15) 0.28989(13)
C31 C 0.0497(3) 0.12595(16) 0.29377(14)
H29 H 0.0799 0.1152 0.3334
C32 C 0.1333(3) 0.16408(16) 0.23848(14)
H30 H 0.2197 0.1800 0.2413
C33 C -0.1581(3) 0.06178(16) 0.40190(14)
H31 H -0.2441 0.0735 0.4205
H32 H -0.0895 0.0980 0.3997
C34 C -0.1196(3) -0.01213(16) 0.44294(14)
H33 H -0.1446 -0.0200 0.4875
H34 H -0.1671 -0.0495 0.4340
C35 C 0.0735(3) -0.08242(15) 0.46465(14)
C36 C 0.0001(3) -0.14216(16) 0.50352(14)
H35 H -0.0946 -0.1407 0.5077
C37 C 0.0611(3) -0.20700(16) 0.53820(14)
C38 C -0.0128(3) -0.26914(16) 0.57984(14)
H36 H -0.1076 -0.2689 0.5843
C39 C 0.0492(3) -0.33016(17) 0.61409(15)
H37 H -0.0021 -0.3715 0.6426
C40 C 0.1898(3) -0.33098(17) 0.60663(15)
H38 H 0.2328 -0.3734 0.6300
C41 C 0.2651(3) -0.27191(16) 0.56648(14)
H39 H 0.3597 -0.2736 0.5621
C42 C 0.2031(3) -0.20826(16) 0.53143(14)
C43 C 0.2781(3) -0.14494(16) 0.49048(14)
H40 H 0.3728 -0.1456 0.4853
C44 C 0.2166(3) -0.08317(16) 0.45847(14)
C45 C 0.4233(3) -0.01673(16) 0.41507(15)
H41 H 0.4594 -0.0520 0.3973
H42 H 0.4533 -0.0292 0.4568
C46 C 0.4714(3) 0.05808(16) 0.37291(15)
H43 H 0.5682 0.0587 0.3590
H44 H 0.4236 0.0749 0.3355
C47 C 0.4528(3) 0.17758(16) 0.36800(14)
C48 C 0.5732(3) 0.21412(17) 0.33999(15)
H45 H 0.6545 0.1894 0.3461
C49 C 0.5746(3) 0.28678(16) 0.30299(14)
H46 H 0.6578 0.3118 0.2842
C50 C 0.4570(3) 0.32449(16) 0.29237(14)
C51 C 0.3376(3) 0.28609(16) 0.32051(15)
H47 H 0.2559 0.3102 0.3138
C52 C 0.3349(3) 0.21331(17) 0.35824(15)
H48 H 0.2520 0.1881 0.3773
N1 N 0.5516(2) 0.36163(13) 0.16457(11)
H49 H 0.5275 0.3162 0.1871
N2 N 0.4059(2) 0.28787(13) 0.09218(11)
H50 H 0.3752 0.3309 0.0729
N3 N 0.0930(2) 0.33112(13) 0.14798(11)
H51 H 0.0816 0.3046 0.1883
N4 N 0.2507(2) 0.42300(13) 0.19983(11)
H52 H 0.2800 0.4019 0.1740
O1 O -0.1704(2) 0.06566(11) 0.33998(9)
O2 O 0.02253(19) -0.01733(11) 0.43044(9)
O3 O 0.27957(19) -0.01860(10) 0.42038(9)
O4 O 0.4468(2) 0.10458(11) 0.40689(10)
C53 C 0.1777(3) 0.75972(16) 0.10948(13)
C54 C 0.1589(3) 0.68794(17) 0.14689(15)
H53 H 0.0756 0.6617 0.1602
C55 C 0.2858(3) 0.65924(17) 0.16245(15)
H54 H 0.3021 0.6107 0.1875
C56 C 0.3793(3) 0.71443(15) 0.13473(14)
C57 C 0.5316(3) 0.71789(15) 0.12790(13)
C58 C 0.5793(3) 0.79544(16) 0.10992(14)
C59 C 0.6002(3) 0.85220(16) 0.05326(14)
H55 H 0.5944 0.8500 0.0136
C60 C 0.6322(3) 0.91504(16) 0.06425(14)
H56 H 0.6510 0.9621 0.0331
C61 C 0.6313(3) 0.89606(16) 0.12765(14)
C62 C 0.6587(3) 0.93846(16) 0.16666(14)
C63 C 0.5317(3) 0.94736(15) 0.20490(14)
C64 C 0.5111(3) 0.98095(16) 0.24657(14)
H57 H 0.5775 1.0046 0.2586
C65 C 0.3725(3) 0.97397(16) 0.26861(14)
H58 H 0.3299 0.9924 0.2979
C66 C 0.3112(3) 0.93623(16) 0.24061(14)
C67 C 0.1689(3) 0.90763(15) 0.24914(14)
C68 C 0.1314(3) 0.91486(15) 0.18591(14)
C69 C 0.1116(3) 0.97419(17) 0.13411(15)
H59 H 0.1108 1.0228 0.1313
C70 C 0.0922(3) 0.95059(16) 0.08501(15)
H60 H 0.0758 0.9804 0.0439
C71 C 0.1016(3) 0.87682(16) 0.10808(14)
C72 C 0.0847(3) 0.81946(16) 0.08151(14)
C73 C 0.1189(3) 0.85250(18) 0.01014(14)
H61 H 0.2109 0.8724 -0.0006
H62 H 0.0576 0.8911 -0.0077
H63 H 0.1101 0.8151 -0.0068
C74 C -0.0603(3) 0.78902(17) 0.09795(15)
H64 H -0.0700 0.7520 0.0805
H65 H -0.1208 0.8281 0.0803
H66 H -0.0825 0.7675 0.1435
C75 C 0.5797(3) 0.69388(17) 0.07322(14)
H67 H 0.5431 0.7253 0.0354
H68 H 0.5489 0.6438 0.0840
H69 H 0.6774 0.6973 0.0657
C76 C 0.7177(3) 1.01330(17) 0.12312(16)
H70 H 0.8003 1.0079 0.0988
H71 H 0.7372 1.0410 0.1481
H72 H 0.6533 1.0388 0.0946
C77 C 0.7605(3) 0.89895(18) 0.21153(15)
H73 H 0.7237 0.8509 0.2393
H74 H 0.7790 0.9268 0.2366
H75 H 0.8435 0.8941 0.1872
C78 C 0.0771(3) 0.95313(17) 0.27652(15)
H76 H 0.1017 0.9480 0.3174
H77 H -0.0160 0.9363 0.2814
H78 H 0.0871 1.0040 0.2482
C79 C 0.5861(3) 0.66972(15) 0.18862(13)
C80 C 0.5186(3) 0.65725(16) 0.24780(14)
H79 H 0.4319 0.6755 0.2508
C81 C 0.5735(3) 0.61896(16) 0.30264(14)
H80 H 0.5241 0.6106 0.3423
C82 C 0.7010(3) 0.59324(16) 0.29882(13)
C83 C 0.7699(3) 0.60475(16) 0.24054(14)
H81 H 0.8571 0.5869 0.2377
C84 C 0.7134(3) 0.64185(16) 0.18659(14)
H82 H 0.7621 0.6486 0.1472
C85 C 0.7228(3) 0.55124(16) 0.41014(13)
H83 H 0.6583 0.5896 0.4075
H84 H 0.7994 0.5601 0.4295
C86 C 0.6572(3) 0.47918(16) 0.45043(14)
H85 H 0.7089 0.4402 0.4431
H86 H 0.6544 0.4717 0.4951
C87 C 0.4511(3) 0.41363(15) 0.46777(13)
C88 C 0.5000(3) 0.35177(16) 0.50740(14)
H87 H 0.5917 0.3507 0.5131
C89 C 0.4170(3) 0.28879(16) 0.54037(14)
C90 C 0.4649(3) 0.22516(16) 0.58299(14)
H88 H 0.5564 0.2233 0.5893
C91 C 0.3818(3) 0.16621(17) 0.61527(15)
H89 H 0.4152 0.1242 0.6448
C92 C 0.2471(3) 0.16721(17) 0.60512(15)
H90 H 0.1903 0.1256 0.6273
C93 C 0.1976(3) 0.22792(16) 0.56345(14)
H91 H 0.1065 0.2282 0.5568
C94 C 0.2809(3) 0.29013(15) 0.53026(14)
C95 C 0.2315(3) 0.35508(16) 0.48860(14)
H92 H 0.1404 0.3566 0.4816
C96 C 0.3127(3) 0.41517(16) 0.45853(13)
C97 C 0.1316(3) 0.48621(16) 0.41440(14)
H93 H 0.0796 0.4742 0.4561
H94 H 0.1034 0.4521 0.3962
C98 C 0.1083(3) 0.56212(15) 0.37270(14)
H95 H 0.1762 0.5782 0.3353
H96 H 0.0189 0.5651 0.3586
C99 C 0.1283(3) 0.68051(16) 0.36965(14)
C100 C 0.2508(3) 0.71603(17) 0.35787(15)
H97 H 0.3257 0.6908 0.3755
C101 C 0.2640(3) 0.78946(17) 0.31989(15)
H98 H 0.3486 0.8138 0.3116
C102 C 0.1557(3) 0.82747(16) 0.29411(14)
C103 C 0.0331(3) 0.78987(16) 0.30756(14)
H99 H -0.0425 0.8148 0.2905
C104 C 0.0186(3) 0.71701(17) 0.34518(15)
H100 H -0.0659 0.6925 0.3540
N5 N 0.3131(2) 0.77490(13) 0.10258(11)
H101 H 0.3519 0.8176 0.0805
N6 N 0.5975(2) 0.82296(13) 0.15469(12)
H102 H 0.5888 0.7973 0.1952
N7 N 0.4093(2) 0.92075(13) 0.20137(12)
H103 H 0.3954 0.8971 0.1774
N8 N 0.1253(2) 0.85616(13) 0.16939(11)
H104 H 0.1352 0.8113 0.1946
O5 O 0.76848(19) 0.55458(11) 0.34842(9)
O6 O 0.52324(19) 0.47696(10) 0.43512(9)
O7 O 0.27214(19) 0.48104(10) 0.42001(9)
O8 O 0.1174(2) 0.60738(11) 0.40770(10)
loop_
_geom_bond_atom_site_label_1
_geom_bond_atom_site_label_2
_geom_bond_site_symmetry_1
_geom_bond_site_symmetry_2
C1 C2 1_555 1_555
C2 H1 1_555 1_555
C3 C2 1_555 1_555
H2 C3 1_555 1_555
C4 C3 1_555 1_555
C5 C4 1_555 1_555
C6 C5 1_555 1_555
C7 C6 1_555 1_555
H3 C7 1_555 1_555
C8 C7 1_555 1_555
H4 C8 1_555 1_555
C9 C8 1_555 1_555
C10 C9 1_555 1_555
C11 C10 1_555 1_555
C12 C11 1_555 1_555
H5 C12 1_555 1_555
C13 C12 1_555 1_555
H6 C13 1_555 1_555
C14 C13 1_555 1_555
C15 C14 1_555 1_555
C16 C15 1_555 1_555
C17 C16 1_555 1_555
H7 C17 1_555 1_555
C18 C17 1_555 1_555
H8 C18 1_555 1_555
C19 C18 1_555 1_555
C20 C1 1_555 1_555
C21 C5 1_555 1_555
H9 C21 1_555 1_555
H10 C21 1_555 1_555
H11 C21 1_555 1_555
C22 C5 1_555 1_555
H12 C22 1_555 1_555
H13 C22 1_555 1_555
H14 C22 1_555 1_555
C23 C10 1_555 1_555
H15 C23 1_555 1_555
H16 C23 1_555 1_555
H17 C23 1_555 1_555
C24 C15 1_555 1_555
H18 C24 1_555 1_555
H19 C24 1_555 1_555
H20 C24 1_555 1_555
C25 C15 1_555 1_555
H21 C25 1_555 1_555
H22 C25 1_555 1_555
H23 C25 1_555 1_555
C26 C20 1_555 1_555
H24 C26 1_555 1_555
H25 C26 1_555 1_555
H26 C26 1_555 1_555
C27 C10 1_555 1_555
C28 C27 1_555 1_555
H27 C28 1_555 1_555
C29 C28 1_555 1_555
H28 C29 1_555 1_555
C30 C29 1_555 1_555
C31 C30 1_555 1_555
H29 C31 1_555 1_555
C32 C27 1_555 1_555
H30 C32 1_555 1_555
C33 H31 1_555 1_555
H32 C33 1_555 1_555
C34 C33 1_555 1_555
H33 C34 1_555 1_555
H34 C34 1_555 1_555
C35 C36 1_555 1_555
C36 H35 1_555 1_555
C37 C36 1_555 1_555
C38 C37 1_555 1_555
H36 C38 1_555 1_555
C39 C38 1_555 1_555
H37 C39 1_555 1_555
C40 C39 1_555 1_555
H38 C40 1_555 1_555
C41 C40 1_555 1_555
H39 C41 1_555 1_555
C42 C37 1_555 1_555
C43 C42 1_555 1_555
H40 C43 1_555 1_555
C44 C35 1_555 1_555
C45 H41 1_555 1_555
H42 C45 1_555 1_555
C46 C45 1_555 1_555
H43 C46 1_555 1_555
H44 C46 1_555 1_555
C47 C48 1_555 1_555
C48 H45 1_555 1_555
C49 C48 1_555 1_555
H46 C49 1_555 1_555
C50 C20 1_555 1_555
C51 C50 1_555 1_555
H47 C51 1_555 1_555
C52 C47 1_555 1_555
H48 C52 1_555 1_555
N1 C1 1_555 1_555
H49 N1 1_555 1_555
N2 C6 1_555 1_555
H50 N2 1_555 1_555
N3 C11 1_555 1_555
H51 N3 1_555 1_555
N4 C16 1_555 1_555
H52 N4 1_555 1_555
O1 C30 1_555 1_555
O2 C34 1_555 1_555
O3 C44 1_555 1_555
O4 C46 1_555 1_555
C53 C54 1_555 1_555
C54 H53 1_555 1_555
C55 C54 1_555 1_555
H54 C55 1_555 1_555
C56 C55 1_555 1_555
C57 C56 1_555 1_555
C58 C57 1_555 1_555
C59 C58 1_555 1_555
H55 C59 1_555 1_555
C60 C59 1_555 1_555
H56 C60 1_555 1_555
C61 C60 1_555 1_555
C62 C61 1_555 1_555
C63 C62 1_555 1_555
C64 C63 1_555 1_555
H57 C64 1_555 1_555
C65 C64 1_555 1_555
H58 C65 1_555 1_555
C66 C65 1_555 1_555
C67 C66 1_555 1_555
C68 C67 1_555 1_555
C69 C68 1_555 1_555
H59 C69 1_555 1_555
C70 C69 1_555 1_555
H60 C70 1_555 1_555
C71 C70 1_555 1_555
C72 C53 1_555 1_555
C73 C72 1_555 1_555
H61 C73 1_555 1_555
H62 C73 1_555 1_555
H63 C73 1_555 1_555
C74 C72 1_555 1_555
H64 C74 1_555 1_555
H65 C74 1_555 1_555
H66 C74 1_555 1_555
C75 C57 1_555 1_555
H67 C75 1_555 1_555
H68 C75 1_555 1_555
H69 C75 1_555 1_555
C76 C62 1_555 1_555
H70 C76 1_555 1_555
H71 C76 1_555 1_555
H72 C76 1_555 1_555
C77 C62 1_555 1_555
H73 C77 1_555 1_555
H74 C77 1_555 1_555
H75 C77 1_555 1_555
C78 C67 1_555 1_555
H76 C78 1_555 1_555
H77 C78 1_555 1_555
H78 C78 1_555 1_555
C79 C57 1_555 1_555
C80 C79 1_555 1_555
H79 C80 1_555 1_555
C81 C80 1_555 1_555
H80 C81 1_555 1_555
C82 C81 1_555 1_555
C83 C82 1_555 1_555
H81 C83 1_555 1_555
C84 C79 1_555 1_555
H82 C84 1_555 1_555
C85 H83 1_555 1_555
H84 C85 1_555 1_555
C86 C85 1_555 1_555
H85 C86 1_555 1_555
H86 C86 1_555 1_555
C87 C88 1_555 1_555
C88 H87 1_555 1_555
C89 C88 1_555 1_555
C90 C89 1_555 1_555
H88 C90 1_555 1_555
C91 C90 1_555 1_555
H89 C91 1_555 1_555
C92 C91 1_555 1_555
H90 C92 1_555 1_555
C93 C92 1_555 1_555
H91 C93 1_555 1_555
C94 C89 1_555 1_555
C95 C94 1_555 1_555
H92 C95 1_555 1_555
C96 C87 1_555 1_555
C97 H93 1_555 1_555
H94 C97 1_555 1_555
C98 C97 1_555 1_555
H95 C98 1_555 1_555
H96 C98 1_555 1_555
C99 C100 1_555 1_555
C100 H97 1_555 1_555
C101 C100 1_555 1_555
H98 C101 1_555 1_555
C102 C67 1_555 1_555
C103 C102 1_555 1_555
H99 C103 1_555 1_555
C104 C99 1_555 1_555
H100 C104 1_555 1_555
N5 C53 1_555 1_555
H101 N5 1_555 1_555
N6 C58 1_555 1_555
H102 N6 1_555 1_555
N7 C63 1_555 1_555
H103 N7 1_555 1_555
N8 C68 1_555 1_555
H104 N8 1_555 1_555
O5 C82 1_555 1_555
O6 C86 1_555 1_555
O7 C96 1_555 1_555
O8 C98 1_555 1_555
C4 N1 1_555 1_555
C9 N2 1_555 1_555
C14 N3 1_555 1_555
C19 C20 1_555 1_555
C19 N4 1_555 1_555
C31 C32 1_555 1_555
C33 O1 1_555 1_555
C35 O2 1_555 1_555
C41 C42 1_555 1_555
C43 C44 1_555 1_555
C45 O3 1_555 1_555
C47 O4 1_555 1_555
C49 C50 1_555 1_555
C51 C52 1_555 1_555
C56 N5 1_555 1_555
C61 N6 1_555 1_555
C66 N7 1_555 1_555
C71 C72 1_555 1_555
C71 N8 1_555 1_555
C83 C84 1_555 1_555
C85 O5 1_555 1_555
C87 O6 1_555 1_555
C93 C94 1_555 1_555
C95 C96 1_555 1_555
C97 O7 1_555 1_555
C99 O8 1_555 1_555
C101 C102 1_555 1_555
C103 C104 1_555 1_555

#END
