
#######################################################################
#
#                 Cambridge Crystallographic Data Centre
#                                CCDC 
#
#######################################################################
#
# If this CIF has been generated from an entry in the Cambridge 
# Structural Database, then it will include bibliographic, chemical, 
# crystal, experimental, refinement or atomic coordinate data resulting 
# from the CCDC's data processing and validation procedures.
#
#######################################################################

data_ZOSWAH
_chemical_formula_moiety         'C10 H9 Cl2 N2 1+,I1 1-'
_chemical_name_systematic        
'1-(2,4-dichlorophenyl)-3-methyl-1H-imidazolium iodide'
_symmetry_cell_setting           triclinic
_symmetry_space_group_name_H-M   'P -1'
_symmetry_Int_Tables_number      2
_space_group_name_Hall           '-P 1'
loop_
_symmetry_equiv_pos_site_id
_symmetry_equiv_pos_as_xyz
1 x,y,z
2 -x,-y,-z
_cell_length_a                   7.8792(4)
_cell_length_b                   8.0025(3)
_cell_length_c                   11.2111(5)
_cell_angle_alpha                108.128(4)
_cell_angle_beta                 90.188(4)
_cell_angle_gamma                112.214(4)
_cell_volume                     616.045
_exptl_crystal_colour            colorless
_exptl_crystal_description       block
_cell_formula_units_Z            2
loop_
_atom_site_label
_atom_site_type_symbol
_atom_site_fract_x
_atom_site_fract_y
_atom_site_fract_z
Cl1 Cl 0.29685(9) -0.15793(8) 0.59406(5)
Cl2 Cl 0.23698(8) 0.38689(7) 0.43740(5)
N1 N 0.2078(2) 0.0562(2) 0.84442(16)
N2 N 0.2942(2) 0.0585(2) 1.02768(16)
C1 C 0.3198(3) 0.1644(3) 0.95343(19)
H1 H 0.4035 0.2945 0.9743
C2 C 0.1060(3) -0.1240(3) 0.8509(2)
H2 H 0.0151 -0.2289 0.7866
C3 C 0.1601(3) -0.1225(3) 0.9649(2)
H3 H 0.1147 -0.2262 0.9965
C4 C 0.2011(3) 0.1253(3) 0.74175(19)
C5 C 0.1595(3) 0.2842(3) 0.7628(2)
H4 H 0.1256 0.3389 0.8421
C6 C 0.1669(3) 0.3640(3) 0.6684(2)
H5 H 0.1386 0.4733 0.6823
C7 C 0.2164(3) 0.2816(3) 0.55398(19)
C8 C 0.2530(3) 0.1189(3) 0.52956(19)
H6 H 0.2831 0.0621 0.4492
C9 C 0.2451(3) 0.0408(3) 0.6241(2)
C10 C 0.3915(4) 0.1271(3) 1.1564(2)
H7 H 0.5238 0.1983 1.1570
H8 H 0.3738 0.0174 1.1838
H9 H 0.3417 0.2115 1.2143
I1 I 0.26963(2) 0.59150(2) 0.16683(2)
loop_
_geom_bond_atom_site_label_1
_geom_bond_atom_site_label_2
_geom_bond_site_symmetry_1
_geom_bond_site_symmetry_2
Cl1 C9 1_555 1_555
Cl2 C7 1_555 1_555
N1 C1 1_555 1_555
N2 C1 1_555 1_555
C1 H1 1_555 1_555
C2 N1 1_555 1_555
H2 C2 1_555 1_555
C3 N2 1_555 1_555
H3 C3 1_555 1_555
C4 N1 1_555 1_555
C5 C4 1_555 1_555
H4 C5 1_555 1_555
C6 C5 1_555 1_555
H5 C6 1_555 1_555
C7 C6 1_555 1_555
C8 C7 1_555 1_555
H6 C8 1_555 1_555
C9 C4 1_555 1_555
C10 N2 1_555 1_555
H7 C10 1_555 1_555
H8 C10 1_555 1_555
H9 C10 1_555 1_555
C2 C3 1_555 1_555
C8 C9 1_555 1_555

#END
