
#######################################################################
#
#                 Cambridge Crystallographic Data Centre
#                                CCDC 
#
#######################################################################
#
# If this CIF has been generated from an entry in the Cambridge 
# Structural Database, then it will include bibliographic, chemical, 
# crystal, experimental, refinement or atomic coordinate data resulting 
# from the CCDC's data processing and validation procedures.
#
#######################################################################

data_ZOTMIG
_chemical_formula_moiety         '2(C13 H15 N2 1+),C7 H4 O6 S1 2-'
_chemical_name_systematic        
'bis(4-(4-aminobenzyl)anilinium) 2-hydroxy-5-sulfonatobenzoate'
_symmetry_cell_setting           monoclinic
_symmetry_space_group_name_H-M   'P 21/c'
_symmetry_Int_Tables_number      14
_space_group_name_Hall           '-P 2ybc'
loop_
_symmetry_equiv_pos_site_id
_symmetry_equiv_pos_as_xyz
1 x,y,z
2 -x,1/2+y,1/2-z
3 -x,-y,-z
4 x,1/2-y,1/2+z
_cell_length_a                   13.692(13)
_cell_length_b                   10.075(10)
_cell_length_c                   22.69(2)
_cell_angle_alpha                90
_cell_angle_beta                 102.745(11)
_cell_angle_gamma                90
_cell_volume                     3052.9
_exptl_crystal_colour            colorless
_exptl_crystal_description       block
_cell_formula_units_Z            4
loop_
_atom_site_label
_atom_site_type_symbol
_atom_site_fract_x
_atom_site_fract_y
_atom_site_fract_z
S1 S 0.00794(3) 0.41255(4) 0.196995(16)
O1 O -0.11909(9) -0.00128(11) 0.01289(5)
H1 H -0.1160 0.0267 -0.0206
O2 O -0.08214(9) 0.15510(12) -0.06483(5)
O3 O -0.00131(9) 0.34466(12) -0.03798(5)
O4 O 0.02010(9) 0.35276(12) 0.25649(5)
O5 O 0.09882(10) 0.47700(13) 0.18936(6)
O6 O -0.07834(11) 0.49946(13) 0.18326(6)
C1 C -0.01691(11) 0.28194(14) 0.14357(6)
C2 C -0.01040(10) 0.30566(14) 0.08419(6)
H2 H 0.0158 0.3857 0.0743
C3 C -0.04259(10) 0.21114(14) 0.03942(6)
C4 C -0.08164(11) 0.09074(14) 0.05527(7)
C5 C -0.08257(13) 0.06443(16) 0.11565(7)
H3 H -0.1043 -0.0177 0.1264
C6 C -0.05155(13) 0.15958(16) 0.15917(7)
H4 H -0.0537 0.1423 0.1991
C7 C -0.04007(11) 0.24043(16) -0.02525(7)
N1 N -0.82944(10) 0.07797(15) -0.56449(7)
N2 N -0.21852(14) -0.2405(2) -0.30493(12)
C8 C -0.77661(10) -0.03656(16) -0.53274(7)
C9 C -0.73552(11) -0.12991(17) -0.56445(8)
H5 H -0.7418 -0.1215 -0.6059
C10 C -0.68468(12) -0.23650(17) -0.53337(8)
H6 H -0.6567 -0.2997 -0.5546
C11 C -0.67433(12) -0.25156(18) -0.47152(8)
C12 C -0.71859(13) -0.1565(2) -0.44133(8)
H7 H -0.7137 -0.1653 -0.4000
C13 C -0.76942(12) -0.04966(19) -0.47125(8)
H8 H -0.7986 0.0129 -0.4504
C14 C -0.61588(15) -0.36507(19) -0.43735(10)
H9 H -0.6115 -0.4356 -0.4657
H10 H -0.6528 -0.3993 -0.4087
C15 C -0.51041(13) -0.33004(16) -0.40319(8)
C16 C -0.47763(13) -0.20079(17) -0.39091(8)
H11 H -0.5212 -0.1312 -0.4049
C17 C -0.38188(13) -0.17213(18) -0.35838(8)
H12 H -0.3627 -0.0840 -0.3510
C18 C -0.31418(13) -0.2722(2) -0.33670(8)
C19 C -0.34601(14) -0.4024(2) -0.34948(9)
H13 H -0.3020 -0.4719 -0.3361
C20 C -0.44161(14) -0.42981(17) -0.38156(8)
H14 H -0.4607 -0.5179 -0.3890
H15 H -0.7926 0.1545 -0.5585
H16 H -0.8497 0.0640 -0.6052
H17 H -0.8833 0.0941 -0.5501
H18 H -0.1963 -0.1462 -0.3007
H19 H -0.1743 -0.3031 -0.2871
N3 N -0.11335(10) 0.24522(14) -0.17863(6)
N4 N -0.71605(11) 0.30991(15) -0.51724(6)
C21 C -0.21683(12) 0.21045(16) -0.20652(6)
C22 C -0.24897(14) 0.08228(17) -0.20326(8)
H20 H -0.2049 0.0173 -0.1842
C23 C -0.34796(14) 0.05059(18) -0.22863(8)
H21 H -0.3695 -0.0363 -0.2259
C24 C -0.41538(12) 0.14387(16) -0.25771(7)
C25 C -0.38024(13) 0.27211(17) -0.26066(8)
H22 H -0.4237 0.3371 -0.2804
C26 C -0.28218(13) 0.30588(17) -0.23507(8)
H23 H -0.2605 0.3929 -0.2372
C27 C -0.52370(13) 0.1076(2) -0.28279(8)
H24 H -0.5621 0.1334 -0.2535
H25 H -0.5282 0.0118 -0.2868
C28 C -0.57306(12) 0.16869(16) -0.34352(7)
C29 C -0.66816(13) 0.22330(17) -0.35401(8)
H26 H -0.7017 0.2267 -0.3226
C30 C -0.71476(12) 0.27311(17) -0.41035(8)
H27 H -0.7786 0.3095 -0.4160
C31 C -0.66677(11) 0.26885(15) -0.45812(7)
C32 C -0.57112(12) 0.21571(16) -0.44813(7)
H28 H -0.5374 0.2129 -0.4795
C33 C -0.52547(11) 0.16667(16) -0.39155(7)
H29 H -0.4612 0.1315 -0.3857
H30 H -0.1022 0.3386 -0.1793
H31 H -0.0704 0.2049 -0.1995
H32 H -0.1005 0.2176 -0.1429
H33 H -0.7649 0.3754 -0.5179
H34 H -0.6679 0.3364 -0.5380
loop_
_geom_bond_atom_site_label_1
_geom_bond_atom_site_label_2
_geom_bond_site_symmetry_1
_geom_bond_site_symmetry_2
S1 O4 1_555 1_555
O1 H1 1_555 1_555
O2 C7 1_555 1_555
O3 C7 1_555 1_555
O5 S1 1_555 1_555
O6 S1 1_555 1_555
C1 S1 1_555 1_555
C2 C1 1_555 1_555
H2 C2 1_555 1_555
C3 C2 1_555 1_555
C4 O1 1_555 1_555
C5 C4 1_555 1_555
H3 C5 1_555 1_555
C6 C1 1_555 1_555
H4 C6 1_555 1_555
C7 C3 1_555 1_555
N1 C8 1_555 1_555
N2 C18 1_555 1_555
C8 C9 1_555 1_555
C9 H5 1_555 1_555
C10 C9 1_555 1_555
H6 C10 1_555 1_555
C11 C10 1_555 1_555
C12 C11 1_555 1_555
H7 C12 1_555 1_555
C13 C8 1_555 1_555
H8 C13 1_555 1_555
C14 C11 1_555 1_555
H9 C14 1_555 1_555
H10 C14 1_555 1_555
C15 C14 1_555 1_555
C16 C15 1_555 1_555
H11 C16 1_555 1_555
C17 C16 1_555 1_555
H12 C17 1_555 1_555
C18 C17 1_555 1_555
C19 C18 1_555 1_555
H13 C19 1_555 1_555
C20 C15 1_555 1_555
H14 C20 1_555 1_555
H15 N1 1_555 1_555
H16 N1 1_555 1_555
H17 N1 1_555 1_555
H18 N2 1_555 1_555
H19 N2 1_555 1_555
N3 C21 1_555 1_555
N4 C31 1_555 1_555
C21 C22 1_555 1_555
C22 H20 1_555 1_555
C23 C22 1_555 1_555
H21 C23 1_555 1_555
C24 C23 1_555 1_555
C25 C24 1_555 1_555
H22 C25 1_555 1_555
C26 C21 1_555 1_555
H23 C26 1_555 1_555
C27 C24 1_555 1_555
H24 C27 1_555 1_555
H25 C27 1_555 1_555
C28 C27 1_555 1_555
C29 C28 1_555 1_555
H26 C29 1_555 1_555
C30 C29 1_555 1_555
H27 C30 1_555 1_555
C31 C30 1_555 1_555
C32 C31 1_555 1_555
H28 C32 1_555 1_555
C33 C28 1_555 1_555
H29 C33 1_555 1_555
H30 N3 1_555 1_555
H31 N3 1_555 1_555
H32 N3 1_555 1_555
H33 N4 1_555 1_555
H34 N4 1_555 1_555
C3 C4 1_555 1_555
C5 C6 1_555 1_555
C12 C13 1_555 1_555
C19 C20 1_555 1_555
C25 C26 1_555 1_555
C32 C33 1_555 1_555

#END
