
#######################################################################
#
#                 Cambridge Crystallographic Data Centre
#                                CCDC 
#
#######################################################################
#
# If this CIF has been generated from an entry in the Cambridge 
# Structural Database, then it will include bibliographic, chemical, 
# crystal, experimental, refinement or atomic coordinate data resulting 
# from the CCDC's data processing and validation procedures.
#
#######################################################################

data_ZOTVUB
_chemical_formula_moiety         'C23 H20 O1'
_chemical_name_systematic        
1-(2,2-Diphenylvinyl)-3,4-dihydro-1H-isochromene
_symmetry_cell_setting           monoclinic
_symmetry_space_group_name_H-M   'P 21/c'
_symmetry_Int_Tables_number      14
_space_group_name_Hall           '-P 2ybc'
loop_
_symmetry_equiv_pos_site_id
_symmetry_equiv_pos_as_xyz
1 x,y,z
2 -x,1/2+y,1/2-z
3 -x,-y,-z
4 x,1/2-y,1/2+z
_cell_length_a                   11.5349(9)
_cell_length_b                   7.8770(6)
_cell_length_c                   20.0789(18)
_cell_angle_alpha                90
_cell_angle_beta                 105.551(9)
_cell_angle_gamma                90
_cell_volume                     1757.59
_exptl_crystal_colour            colorless
_exptl_crystal_description       block
_cell_formula_units_Z            4
loop_
_atom_site_label
_atom_site_type_symbol
_atom_site_fract_x
_atom_site_fract_y
_atom_site_fract_z
O1 O 0.53944(18) 0.2916(3) 0.40563(12)
C1 C 0.6475(2) 0.1849(4) 0.51764(15)
C2 C 0.7548(3) 0.1318(5) 0.56459(17)
H1 H 0.8181 0.0928 0.5482
C3 C 0.7673(4) 0.1367(5) 0.6349(2)
H2 H 0.8382 0.0996 0.6656
C4 C 0.6753(4) 0.1963(5) 0.6592(2)
H3 H 0.6842 0.2023 0.7065
C5 C 0.5706(4) 0.2469(5) 0.6142(2)
H4 H 0.5089 0.2878 0.6316
C6 C 0.5530(3) 0.2394(4) 0.54296(17)
C7 C 0.4347(3) 0.2881(4) 0.4940(2)
H5 H 0.3703 0.2286 0.5068
H6 H 0.4218 0.4090 0.4980
C8 C 0.4299(3) 0.2472(5) 0.42088(19)
H7 H 0.4151 0.1268 0.4129
H8 H 0.3639 0.3086 0.3902
C9 C 0.6340(2) 0.1819(4) 0.44102(15)
H9 H 0.6155 0.0658 0.4239
C10 C 0.7453(3) 0.2405(4) 0.42327(15)
H10 H 0.7737 0.3476 0.4392
C11 C 0.8082(2) 0.1573(4) 0.38748(14)
C12 C 0.7674(3) -0.0076(4) 0.35357(15)
C13 C 0.6613(3) -0.0163(5) 0.30125(17)
H11 H 0.6151 0.0813 0.2893
C14 C 0.6221(5) -0.1649(8) 0.2664(2)
H12 H 0.5517 -0.1669 0.2305
C15 C 0.6859(7) -0.3038(8) 0.2846(4)
H13 H 0.6576 -0.4040 0.2614
C16 C 0.7893(6) -0.3089(7) 0.3347(4)
H14 H 0.8319 -0.4098 0.3461
C17 C 0.8330(4) -0.1524(5) 0.3707(3)
H15 H 0.9052 -0.1510 0.4052
C18 C 0.9200(2) 0.2310(4) 0.37620(16)
C19 C 0.9469(3) 0.2130(5) 0.31383(17)
H16 H 0.8980 0.1451 0.2798
C20 C 1.0450(3) 0.2933(6) 0.3005(2)
H17 H 1.0607 0.2795 0.2577
C21 C 1.1182(3) 0.3921(6) 0.3493(3)
H18 H 1.1824 0.4495 0.3398
C22 C 1.0968(3) 0.4062(7) 0.4122(3)
H19 H 1.1485 0.4704 0.4465
C23 C 0.9988(3) 0.3262(6) 0.4261(2)
H20 H 0.9860 0.3369 0.4697
loop_
_geom_bond_atom_site_label_1
_geom_bond_atom_site_label_2
_geom_bond_site_symmetry_1
_geom_bond_site_symmetry_2
O1 C8 1_555 1_555
C1 C2 1_555 1_555
C2 H1 1_555 1_555
C3 C2 1_555 1_555
H2 C3 1_555 1_555
C4 C3 1_555 1_555
H3 C4 1_555 1_555
C5 C4 1_555 1_555
H4 C5 1_555 1_555
C6 C1 1_555 1_555
C7 C6 1_555 1_555
H5 C7 1_555 1_555
H6 C7 1_555 1_555
C8 C7 1_555 1_555
H7 C8 1_555 1_555
H8 C8 1_555 1_555
C9 O1 1_555 1_555
H9 C9 1_555 1_555
C10 C9 1_555 1_555
H10 C10 1_555 1_555
C11 C10 1_555 1_555
C12 C11 1_555 1_555
C13 C12 1_555 1_555
H11 C13 1_555 1_555
C14 C13 1_555 1_555
H12 C14 1_555 1_555
C15 C14 1_555 1_555
H13 C15 1_555 1_555
C16 C15 1_555 1_555
H14 C16 1_555 1_555
C17 C12 1_555 1_555
H15 C17 1_555 1_555
C18 C11 1_555 1_555
C19 C18 1_555 1_555
H16 C19 1_555 1_555
C20 C19 1_555 1_555
H17 C20 1_555 1_555
C21 C20 1_555 1_555
H18 C21 1_555 1_555
C22 C21 1_555 1_555
H19 C22 1_555 1_555
C23 C18 1_555 1_555
H20 C23 1_555 1_555
C1 C9 1_555 1_555
C5 C6 1_555 1_555
C16 C17 1_555 1_555
C22 C23 1_555 1_555

#END
