
#######################################################################
#
#                 Cambridge Crystallographic Data Centre
#                                CCDC 
#
#######################################################################
#
# If this CIF has been generated from an entry in the Cambridge 
# Structural Database, then it will include bibliographic, chemical, 
# crystal, experimental, refinement or atomic coordinate data resulting 
# from the CCDC's data processing and validation procedures.
#
#######################################################################

data_ZOVCIW
_chemical_name_common            
trans,trans-2,5,7,10-Tetrathia-1,6(2,6)-ditetrathiafulvalenacyclodecaphane
_chemical_formula_moiety         'C16 H12 S12'
_chemical_name_systematic        
trans-trans-2,5,7,10-Tetrathia-1,6(2,6)-ditetrathiafulvalena-cyclodecaphane
_symmetry_cell_setting           monoclinic
_symmetry_space_group_name_H-M   'P 2/a'
_symmetry_Int_Tables_number      13
_space_group_name_Hall           '-P 2ya'
loop_
_symmetry_equiv_pos_site_id
_symmetry_equiv_pos_as_xyz
1 x,y,z
2 1/2-x,y,-z
3 -x,-y,-z
4 1/2+x,-y,z
_cell_length_a                   17.173(2)
_cell_length_b                   7.977(1)
_cell_length_c                   17.719(3)
_cell_angle_alpha                90
_cell_angle_beta                 106.21(1)
_cell_angle_gamma                90
_cell_volume                     2330.81
_exptl_crystal_colour            orange
_exptl_crystal_description       prisms
_chemical_melting_point          245-255deg.C(dec.)
_cell_formula_units_Z            4
_exptl_crystal_recrystallization_method 'carbon disulfide'
loop_
_atom_site_label
_atom_site_type_symbol
_atom_site_fract_x
_atom_site_fract_y
_atom_site_fract_z
S1 S 0.3897(1) 0.8474(4) 0.8858(1)
C1 C 0.4095(5) 0.8823(11) 0.7958(5)
S2 S 0.5124(1) 0.8655(4) 0.7988(1)
C2 C 0.5463(4) 0.8490(11) 0.9017(5)
C3 C 0.4919(5) 0.8398(12) 0.9400(5)
S3 S 0.3706(2) 0.9453(4) 0.6382(1)
C4 C 0.3523(5) 0.9149(12) 0.7298(5)
S4 S 0.2480(1) 0.9293(4) 0.7254(1)
C5 C 0.2134(5) 0.9834(11) 0.6245(5)
C6 C 0.2701(6) 0.9934(15) 0.5879(5)
S5 S 0.4695(1) 0.3990(4) 0.6945(1)
C7 C 0.4049(4) 0.3930(12) 0.7560(5)
S6 S 0.4549(1) 0.3513(4) 0.8545(1)
C8 C 0.5518(4) 0.3425(10) 0.8416(4)
C9 C 0.5573(5) 0.3674(12) 0.7691(5)
S7 S 0.2606(1) 0.4197(4) 0.7918(1)
C10 C 0.3255(5) 0.4219(12) 0.7307(5)
S8 S 0.2755(1) 0.4566(4) 0.6313(1)
C11 C 0.1779(4) 0.4625(11) 0.6433(5)
C12 C 0.1719(5) 0.4476(12) 0.7163(6)
S9 S 0.6512(1) 0.8491(4) 0.9469(2)
C13 C 0.6746(5) 0.6365(12) 0.9233(6)
C14 C 0.6420(5) 0.5099(13) 0.9706(5)
S10 S 0.6341(1) 0.3026(3) 0.9241(1)
S11 S 0.1108(2) 1.0200(3) 0.5838(1)
C15 C 0.0729(4) 0.8071(12) 0.5885(5)
C16 C 0.1033(5) 0.6971(11) 0.5339(5)
S12 S 0.0951(1) 0.4760(3) 0.5592(2)
loop_
_geom_bond_atom_site_label_1
_geom_bond_atom_site_label_2
_geom_bond_site_symmetry_1
_geom_bond_site_symmetry_2
S1 C1 1_555 1_555
C1 S2 1_555 1_555
S2 C2 1_555 1_555
C2 C3 1_555 1_555
C3 S1 1_555 1_555
S3 C4 1_555 1_555
C4 C1 1_555 1_555
S4 C4 1_555 1_555
C5 S4 1_555 1_555
C6 S3 1_555 1_555
S5 C7 1_555 1_555
C7 S6 1_555 1_555
S6 C8 1_555 1_555
C8 C9 1_555 1_555
C9 S5 1_555 1_555
S7 C10 1_555 1_555
C10 C7 1_555 1_555
S8 C10 1_555 1_555
C11 S8 1_555 1_555
C12 S7 1_555 1_555
S9 C2 1_555 1_555
C13 S9 1_555 1_555
C14 C13 1_555 1_555
S10 C8 1_555 1_555
S11 C5 1_555 1_555
C15 S11 1_555 1_555
C16 C15 1_555 1_555
S12 C11 1_555 1_555
C5 C6 1_555 1_555
C11 C12 1_555 1_555
C14 S10 1_555 1_555
C16 S12 1_555 1_555

#END
