
#######################################################################
#
#                 Cambridge Crystallographic Data Centre
#                                CCDC 
#
#######################################################################
#
# If this CIF has been generated from an entry in the Cambridge 
# Structural Database, then it will include bibliographic, chemical, 
# crystal, experimental, refinement or atomic coordinate data resulting 
# from the CCDC's data processing and validation procedures.
#
#######################################################################

data_ZOVDET
_chemical_formula_moiety         'C45 H38 As2 O6'
_chemical_name_systematic        
'Dimethyl 2,6-bis(triphenylarsorane)-3,5-dioxopimelate'
_symmetry_cell_setting           monoclinic
_symmetry_space_group_name_H-M   'C 2/c'
_symmetry_Int_Tables_number      15
_space_group_name_Hall           '-C 2yn'
loop_
_symmetry_equiv_pos_site_id
_symmetry_equiv_pos_as_xyz
1 x,y,z
2 -x,y,1/2-z
3 1/2+x,1/2+y,z
4 1/2-x,1/2+y,1/2-z
5 -x,-y,-z
6 x,-y,1/2+z
7 1/2-x,1/2-y,-z
8 1/2+x,1/2-y,1/2+z
_cell_length_a                   19.296(8)
_cell_length_b                   10.179(5)
_cell_length_c                   19.743(8)
_cell_angle_alpha                90
_cell_angle_beta                 97.3(1)
_cell_angle_gamma                90
_cell_volume                     3846.37
_exptl_crystal_colour            white-yellow
_chemical_melting_point          200-202deg.C(dec.)
_cell_formula_units_Z            4
loop_
_atom_site_label
_atom_site_type_symbol
_atom_site_fract_x
_atom_site_fract_y
_atom_site_fract_z
As1 As 0.85914(3) 0.00884(6) 0.61124(3)
O1 O 0.9139(2) 0.0394(4) 0.7423(2)
O2 O 1.0010(3) 0.2971(5) 0.6045(3)
O3 O 0.9003(3) 0.2595(5) 0.5401(2)
C1 C 0.9205(3) 0.1446(5) 0.6427(3)
C2 C 0.9428(3) 0.1303(6) 0.7133(3)
C3 C 1.0000 0.2178(9) 0.7500
C4 C 0.9457(3) 0.2385(5) 0.5965(3)
C5 C 0.9245(7) 0.331(1) 0.4843(5)
C6 C 0.8350(2) 0.0102(4) 0.5146(2)
C7 C 0.7755(2) 0.0761(4) 0.4846(2)
C8 C 0.7626(2) 0.0884(4) 0.4138(2)
C9 C 0.8093(2) 0.0348(4) 0.3729(2)
C10 C 0.8688(2) -0.0311(4) 0.4028(2)
C11 C 0.8817(2) -0.0434(4) 0.4737(2)
C12 C 0.7730(2) 0.0093(4) 0.6493(2)
C13 C 0.7614(2) 0.1048(4) 0.6973(2)
C14 C 0.7006(2) 0.1012(4) 0.7287(2)
C15 C 0.6515(2) 0.0020(4) 0.7122(2)
C16 C 0.6630(2) -0.0935(4) 0.6642(2)
C17 C 0.7238(2) -0.0898(4) 0.6328(2)
C18 C 0.9046(2) -0.1573(3) 0.6277(2)
C19 C 0.8702(2) -0.2734(3) 0.6062(2)
C20 C 0.9051(2) -0.3934(3) 0.6150(2)
C21 C 0.9744(2) -0.3973(3) 0.6453(2)
C22 C 1.0089(2) -0.2812(3) 0.6668(2)
C23 C 0.9740(2) -0.1612(3) 0.6580(2)
H1 H 1.025(4) 0.276(7) 0.714(4)
H2 H 0.888(5) 0.33(1) 0.451(5)
H3 H 0.966(5) 0.308(9) 0.485(5)
H4 H 0.946(6) 0.42(1) 0.508(5)
H5 H 0.750(4) 0.112(6) 0.514(3)
H6 H 0.719(5) 0.126(9) 0.398(4)
H7 H 0.797(4) 0.052(8) 0.325(4)
H8 H 0.884(6) -0.05(1) 0.378(6)
H9 H 0.917(3) -0.098(5) 0.497(3)
H10 H 0.794(3) 0.178(5) 0.705(3)
H11 H 0.693(5) 0.171(9) 0.765(5)
H12 H 0.620(7) 0.00(1) 0.736(7)
H13 H 0.639(6) -0.14(1) 0.644(6)
H14 H 0.726(4) -0.154(7) 0.594(4)
H15 H 0.829(3) -0.263(6) 0.584(3)
H16 H 0.881(5) -0.474(9) 0.614(5)
H17 H 0.997(7) -0.49(1) 0.643(6)
H18 H 1.069(7) -0.28(1) 0.688(7)
H19 H 0.995(3) -0.082(6) 0.669(3)
C2A C 1.0572(3) 0.1303(6) 0.7867(3)
O1A O 1.0861(2) 0.0394(4) 0.7577(2)
C1A C 1.0795(3) 0.1446(5) 0.8573(3)
As1A As 1.14086(3) 0.00884(6) 0.88876(3)
C6A C 1.1650(2) 0.0102(4) 0.9854(2)
C7A C 1.2245(2) 0.0761(4) 1.0154(2)
C8A C 1.2374(2) 0.0884(4) 1.0862(2)
C9A C 1.1907(2) 0.0348(4) 1.1271(2)
C10A C 1.1312(2) -0.0311(4) 1.0972(2)
C11A C 1.1183(2) -0.0434(4) 1.0263(2)
H9A H 1.083(3) -0.098(5) 1.003(3)
H8A H 1.116(6) -0.05(1) 1.122(6)
H7A H 1.203(4) 0.052(8) 1.175(4)
H6A H 1.281(5) 0.126(9) 1.102(4)
H5A H 1.250(4) 0.112(6) 0.986(3)
C12A C 1.2270(2) 0.0093(4) 0.8507(2)
C13A C 1.2386(2) 0.1048(4) 0.8027(2)
C14A C 1.2994(2) 0.1012(4) 0.7713(2)
C15A C 1.3485(2) 0.0020(4) 0.7878(2)
C16A C 1.3370(2) -0.0935(4) 0.8358(2)
C17A C 1.2762(2) -0.0898(4) 0.8672(2)
H14A H 1.274(4) -0.154(7) 0.906(4)
H13A H 1.361(6) -0.14(1) 0.856(6)
H12A H 1.380(7) 0.00(1) 0.764(7)
H11A H 1.307(5) 0.171(9) 0.735(5)
H10A H 1.206(3) 0.178(5) 0.795(3)
C18A C 1.0954(2) -0.1573(3) 0.8723(2)
C19A C 1.1298(2) -0.2734(3) 0.8938(2)
C20A C 1.0949(2) -0.3934(3) 0.8850(2)
C21A C 1.0256(2) -0.3973(3) 0.8547(2)
C22A C 0.9911(2) -0.2812(3) 0.8332(2)
C23A C 1.0260(2) -0.1612(3) 0.8420(2)
H19A H 1.005(3) -0.082(6) 0.831(3)
H18A H 0.931(7) -0.28(1) 0.812(7)
H17A H 1.003(7) -0.49(1) 0.857(6)
H16A H 1.119(5) -0.474(9) 0.886(5)
H15A H 1.171(3) -0.263(6) 0.916(3)
C4A C 1.0543(3) 0.2385(5) 0.9035(3)
O2A O 0.9990(3) 0.2971(5) 0.8955(3)
O3A O 1.0997(3) 0.2595(5) 0.9599(2)
C5A C 1.0755(7) 0.331(1) 1.0157(5)
H2A H 1.112(5) 0.33(1) 1.049(5)
H3A H 1.034(5) 0.308(9) 1.015(5)
H4A H 1.054(6) 0.42(1) 0.992(5)
H1A H 0.975(4) 0.276(7) 0.786(4)
loop_
_geom_bond_atom_site_label_1
_geom_bond_atom_site_label_2
_geom_bond_site_symmetry_1
_geom_bond_site_symmetry_2
As1 C1 1_555 1_555
O1 C2 1_555 1_555
O2 C4 1_555 1_555
O3 C4 1_555 1_555
C1 C2 1_555 1_555
C2 C3 1_555 1_555
C3 H1 1_555 1_555
C4 C1 1_555 1_555
C5 O3 1_555 1_555
C6 As1 1_555 1_555
C7 C6 1_555 1_555
C8 C7 1_555 1_555
C9 C8 1_555 1_555
C10 C9 1_555 1_555
C11 C6 1_555 1_555
C12 As1 1_555 1_555
C13 C12 1_555 1_555
C14 C13 1_555 1_555
C15 C14 1_555 1_555
C16 C15 1_555 1_555
C17 C12 1_555 1_555
C18 As1 1_555 1_555
C19 C18 1_555 1_555
C20 C19 1_555 1_555
C21 C20 1_555 1_555
C22 C21 1_555 1_555
C23 C18 1_555 1_555
H2 C5 1_555 1_555
H3 C5 1_555 1_555
H4 C5 1_555 1_555
H5 C7 1_555 1_555
H6 C8 1_555 1_555
H7 C9 1_555 1_555
H8 C10 1_555 1_555
H9 C11 1_555 1_555
H10 C13 1_555 1_555
H11 C14 1_555 1_555
H12 C15 1_555 1_555
H13 C16 1_555 1_555
H14 C17 1_555 1_555
H15 C19 1_555 1_555
H16 C20 1_555 1_555
H17 C21 1_555 1_555
H18 C22 1_555 1_555
H19 C23 1_555 1_555
C2A C3 1_555 1_555
O1A C2A 1_555 1_555
C1A C2A 1_555 1_555
As1A C1A 1_555 1_555
C6A As1A 1_555 1_555
C7A C6A 1_555 1_555
C8A C7A 1_555 1_555
C9A C8A 1_555 1_555
C10A C9A 1_555 1_555
C11A C6A 1_555 1_555
H9A C11A 1_555 1_555
H8A C10A 1_555 1_555
H7A C9A 1_555 1_555
H6A C8A 1_555 1_555
H5A C7A 1_555 1_555
C12A As1A 1_555 1_555
C13A C12A 1_555 1_555
C14A C13A 1_555 1_555
C15A C14A 1_555 1_555
C16A C15A 1_555 1_555
C17A C12A 1_555 1_555
H14A C17A 1_555 1_555
H13A C16A 1_555 1_555
H12A C15A 1_555 1_555
H11A C14A 1_555 1_555
H10A C13A 1_555 1_555
C18A As1A 1_555 1_555
C19A C18A 1_555 1_555
C20A C19A 1_555 1_555
C21A C20A 1_555 1_555
C22A C21A 1_555 1_555
C23A C18A 1_555 1_555
H19A C23A 1_555 1_555
H18A C22A 1_555 1_555
H17A C21A 1_555 1_555
H16A C20A 1_555 1_555
H15A C19A 1_555 1_555
C4A C1A 1_555 1_555
O2A C4A 1_555 1_555
O3A C4A 1_555 1_555
C5A O3A 1_555 1_555
H2A C5A 1_555 1_555
H3A C5A 1_555 1_555
H4A C5A 1_555 1_555
H1A C3 1_555 1_555
C10 C11 1_555 1_555
C16 C17 1_555 1_555
C22 C23 1_555 1_555
C10A C11A 1_555 1_555
C16A C17A 1_555 1_555
C22A C23A 1_555 1_555

#END
