
#######################################################################
#
#                 Cambridge Crystallographic Data Centre
#                                CCDC 
#
#######################################################################
#
# If this CIF has been generated from an entry in the Cambridge 
# Structural Database, then it will include bibliographic, chemical, 
# crystal, experimental, refinement or atomic coordinate data resulting 
# from the CCDC's data processing and validation procedures.
#
#######################################################################

data_ZOVREJ
_chemical_formula_moiety         'C40 H74 Ca1 N8 P4'
_chemical_name_systematic        
bis(\h^2^-3,5-di-t-butyl-1,2,4-diazaphosphol-1-ide)-bis(3,5-di-t-butyl-1,2,4-diazaphosphole)-calcium
_symmetry_cell_setting           monoclinic
_symmetry_space_group_name_H-M   'C 2/c'
_symmetry_Int_Tables_number      15
_space_group_name_Hall           '-C 2yn'
loop_
_symmetry_equiv_pos_site_id
_symmetry_equiv_pos_as_xyz
1 x,y,z
2 -x,y,1/2-z
3 1/2+x,1/2+y,z
4 1/2-x,1/2+y,1/2-z
5 -x,-y,-z
6 x,-y,1/2+z
7 1/2-x,1/2-y,-z
8 1/2+x,1/2-y,1/2+z
_cell_length_a                   13.7274(12)
_cell_length_b                   19.7191(15)
_cell_length_c                   20.0531(18)
_cell_angle_alpha                90
_cell_angle_beta                 106.717(9)
_cell_angle_gamma                90
_cell_volume                     5198.8
_exptl_crystal_colour            colorless
_exptl_crystal_description       prismatic
_cell_formula_units_Z            4
loop_
_atom_site_label
_atom_site_type_symbol
_atom_site_fract_x
_atom_site_fract_y
_atom_site_fract_z
Ca1 Ca 0.0000 0.53258(4) 0.2500
P1 P 0.24464(7) 0.69398(5) 0.41272(5)
P2 P 0.25083(8) 0.36814(5) 0.24543(5)
N1 N 0.11692(19) 0.60224(12) 0.34537(13)
N2 N 0.2135(2) 0.58180(15) 0.35021(15)
N3 N 0.12967(18) 0.45000(11) 0.28376(12)
N4 N 0.14261(18) 0.47838(11) 0.22391(12)
C1 C 0.1210(2) 0.66153(14) 0.37631(14)
C2 C 0.2897(2) 0.62194(16) 0.38274(15)
C3 C 0.3982(3) 0.60308(19) 0.38583(19)
C4 C 0.4097(6) 0.5273(4) 0.3716(6)
H1 H 0.4774 0.5188 0.3690
H2 H 0.3615 0.5150 0.3283
H3 H 0.3975 0.5009 0.4086
C5 C 0.4231(6) 0.6427(5) 0.3238(4)
H4 H 0.4890 0.6294 0.3208
H5 H 0.4227 0.6906 0.3321
H6 H 0.3727 0.6320 0.2808
C6 C 0.4699(6) 0.6228(5) 0.4567(4)
H7 H 0.4539 0.5966 0.4924
H8 H 0.4621 0.6701 0.4649
H9 H 0.5389 0.6140 0.4571
C7 C 0.0234(2) 0.69576(15) 0.38000(15)
C8 C 0.0323(3) 0.77241(17) 0.3689(2)
H10 H 0.0881 0.7904 0.4052
H11 H -0.0295 0.7944 0.3701
H12 H 0.0439 0.7803 0.3246
C9 C 0.0109(3) 0.68444(19) 0.45266(18)
H13 H 0.0057 0.6367 0.4606
H14 H -0.0497 0.7068 0.4559
H15 H 0.0688 0.7027 0.4871
C10 C -0.0693(3) 0.66868(18) 0.32539(18)
H16 H -0.0619 0.6765 0.2799
H17 H -0.1291 0.6915 0.3295
H18 H -0.0757 0.6209 0.3323
C11 C 0.1804(2) 0.39239(16) 0.30168(16)
C12 C 0.2040(2) 0.44171(16) 0.19720(16)
C13 C 0.2239(3) 0.46614(19) 0.12973(18)
C14 C 0.274(2) 0.4112(12) 0.0934(9)
H19 H 0.3363 0.3954 0.1257
H20 H 0.2892 0.4309 0.0536
H21 H 0.2285 0.3738 0.0788
C15 C 0.2788(4) 0.5342(2) 0.1421(2)
H22 H 0.3447 0.5286 0.1749
H23 H 0.2399 0.5660 0.1603
H24 H 0.2864 0.5510 0.0989
C16 C 0.1231(4) 0.4782(3) 0.0744(2)
H25 H 0.1358 0.4964 0.0333
H26 H 0.0829 0.5097 0.0917
H27 H 0.0871 0.4360 0.0633
C17 C 0.1692(3) 0.35472(18) 0.36579(18)
C18 C 0.1805(9) 0.4064(4) 0.4281(4)
H28 H 0.1280 0.4401 0.4150
H29 H 0.2458 0.4280 0.4387
H30 H 0.1745 0.3823 0.4684
C19 C 0.0606(10) 0.3267(6) 0.3512(6)
H31 H 0.0511 0.3090 0.3934
H32 H 0.0504 0.2912 0.3171
H33 H 0.0125 0.3625 0.3338
C20 C 0.2472(9) 0.3016(6) 0.3914(6)
H34 H 0.2374 0.2808 0.4323
H35 H 0.3137 0.3216 0.4026
H36 H 0.2411 0.2678 0.3560
H37 H 0.215(3) 0.5407(11) 0.341(2)
P1A P -0.24464(7) 0.69398(5) 0.08728(5)
P2A P -0.25083(8) 0.36814(5) 0.25457(5)
N1A N -0.11692(19) 0.60224(12) 0.15463(13)
N2A N -0.2135(2) 0.58180(15) 0.14979(15)
N3A N -0.12967(18) 0.45000(11) 0.21624(12)
N4A N -0.14261(18) 0.47838(11) 0.27609(12)
C1A C -0.1210(2) 0.66153(14) 0.12369(14)
C2A C -0.2897(2) 0.62194(16) 0.11726(15)
C3A C -0.3982(3) 0.60308(19) 0.11417(19)
C4A C -0.4097(6) 0.5273(4) 0.1284(6)
H1A H -0.4774 0.5188 0.1310
H2A H -0.3615 0.5150 0.1717
H3A H -0.3975 0.5009 0.0914
C5A C -0.4231(6) 0.6427(5) 0.1762(4)
H4A H -0.4890 0.6294 0.1792
H5A H -0.4227 0.6906 0.1679
H6A H -0.3727 0.6320 0.2192
C6A C -0.4699(6) 0.6228(5) 0.0433(4)
H7A H -0.4539 0.5966 0.0076
H8A H -0.4621 0.6701 0.0351
H9A H -0.5389 0.6140 0.0429
C7A C -0.0234(2) 0.69576(15) 0.12000(15)
C8A C -0.0323(3) 0.77241(17) 0.1311(2)
H10A H -0.0881 0.7904 0.0948
H11A H 0.0295 0.7944 0.1299
H12A H -0.0439 0.7803 0.1754
C9A C -0.0109(3) 0.68444(19) 0.04734(18)
H13A H -0.0057 0.6367 0.0394
H14A H 0.0497 0.7068 0.0441
H15A H -0.0688 0.7027 0.0129
C10A C 0.0693(3) 0.66868(18) 0.17461(18)
H16A H 0.0619 0.6765 0.2201
H17A H 0.1291 0.6915 0.1705
H18A H 0.0757 0.6209 0.1677
C11A C -0.1804(2) 0.39239(16) 0.19832(16)
C12A C -0.2040(2) 0.44171(16) 0.30280(16)
C13A C -0.2239(3) 0.46614(19) 0.37027(18)
C14A C -0.274(2) 0.4112(12) 0.4066(9)
H19A H -0.3363 0.3954 0.3743
H20A H -0.2892 0.4309 0.4464
H21A H -0.2285 0.3738 0.4212
C15A C -0.2788(4) 0.5342(2) 0.3579(2)
H22A H -0.3447 0.5286 0.3251
H23A H -0.2399 0.5660 0.3397
H24A H -0.2864 0.5510 0.4011
C16A C -0.1231(4) 0.4782(3) 0.4256(2)
H25A H -0.1358 0.4964 0.4667
H26A H -0.0829 0.5097 0.4083
H27A H -0.0871 0.4360 0.4367
C17A C -0.1692(3) 0.35472(18) 0.13421(18)
C18A C -0.1805(9) 0.4064(4) 0.0719(4)
H28A H -0.1280 0.4401 0.0850
H29A H -0.2458 0.4280 0.0613
H30A H -0.1745 0.3823 0.0316
C19A C -0.0606(10) 0.3267(6) 0.1488(6)
H31A H -0.0511 0.3090 0.1066
H32A H -0.0504 0.2912 0.1829
H33A H -0.0125 0.3625 0.1662
C20A C -0.2472(9) 0.3016(6) 0.1086(6)
H34A H -0.2374 0.2808 0.0677
H35A H -0.3137 0.3216 0.0974
H36A H -0.2411 0.2678 0.1440
H37A H -0.215(3) 0.5407(11) 0.159(2)
C21? C 0.4154(19) 0.5883(13) 0.3235(11)
H38? H 0.4856 0.5764 0.3312
H39? H 0.3994 0.6271 0.2935
H40? H 0.3732 0.5508 0.3020
C22? C 0.4723(15) 0.6556(10) 0.4247(10)
H41? H 0.4627 0.6628 0.4697
H42? H 0.4610 0.6974 0.3991
H43? H 0.5405 0.6403 0.4301
C23? C 0.419(2) 0.5352(12) 0.4121(12)
H44? H 0.3632 0.5062 0.3890
H45? H 0.4270 0.5349 0.4613
H46? H 0.4801 0.5191 0.4035
C24? C 0.303(3) 0.4215(18) 0.1185(13)
H47? H 0.3648 0.4278 0.1553
H48? H 0.3143 0.4321 0.0746
H49? H 0.2813 0.3751 0.1181
C25? C 0.2610(13) 0.3697(8) 0.4245(7)
H50? H 0.3203 0.3683 0.4082
H51? H 0.2674 0.3365 0.4605
H52? H 0.2547 0.4140 0.4427
C26? C 0.0714(15) 0.3683(9) 0.3768(9)
H53? H 0.0203 0.3712 0.3327
H54? H 0.0744 0.4104 0.4013
H55? H 0.0546 0.3323 0.4038
C27? C 0.1713(14) 0.2745(7) 0.3486(8)
H56? H 0.1123 0.2631 0.3110
H57? H 0.1711 0.2486 0.3891
H58? H 0.2315 0.2642 0.3354
loop_
_geom_bond_atom_site_label_1
_geom_bond_atom_site_label_2
_geom_bond_site_symmetry_1
_geom_bond_site_symmetry_2
Ca1 N1 1_555 1_555
P1 C1 1_555 1_555
P2 C11 1_555 1_555
N1 N2 1_555 1_555
N2 C2 1_555 1_555
N3 Ca1 1_555 1_555
N4 Ca1 1_555 1_555
C1 N1 1_555 1_555
C2 P1 1_555 1_555
C3 C2 1_555 1_555
C4 C3 1_555 1_555
H1 C4 1_555 1_555
H2 C4 1_555 1_555
H3 C4 1_555 1_555
C5 C3 1_555 1_555
H4 C5 1_555 1_555
H5 C5 1_555 1_555
H6 C5 1_555 1_555
C6 C3 1_555 1_555
H7 C6 1_555 1_555
H8 C6 1_555 1_555
H9 C6 1_555 1_555
C7 C1 1_555 1_555
C8 C7 1_555 1_555
H10 C8 1_555 1_555
H11 C8 1_555 1_555
H12 C8 1_555 1_555
C9 C7 1_555 1_555
H13 C9 1_555 1_555
H14 C9 1_555 1_555
H15 C9 1_555 1_555
C10 C7 1_555 1_555
H16 C10 1_555 1_555
H17 C10 1_555 1_555
H18 C10 1_555 1_555
C11 N3 1_555 1_555
C12 P2 1_555 1_555
C13 C12 1_555 1_555
C14 C13 1_555 1_555
H19 C14 1_555 1_555
H20 C14 1_555 1_555
H21 C14 1_555 1_555
C15 C13 1_555 1_555
H22 C15 1_555 1_555
H23 C15 1_555 1_555
H24 C15 1_555 1_555
C16 C13 1_555 1_555
H25 C16 1_555 1_555
H26 C16 1_555 1_555
H27 C16 1_555 1_555
C17 C11 1_555 1_555
C18 C17 1_555 1_555
H28 C18 1_555 1_555
H29 C18 1_555 1_555
H30 C18 1_555 1_555
C19 C17 1_555 1_555
H31 C19 1_555 1_555
H32 C19 1_555 1_555
H33 C19 1_555 1_555
C20 C17 1_555 1_555
H34 C20 1_555 1_555
H35 C20 1_555 1_555
H36 C20 1_555 1_555
H37 N2 1_555 1_555
P1A C1A 1_555 1_555
P2A C11A 1_555 1_555
N1A Ca1 1_555 1_555
N2A N1A 1_555 1_555
N3A Ca1 1_555 1_555
N4A Ca1 1_555 1_555
C1A N1A 1_555 1_555
C2A P1A 1_555 1_555
C3A C2A 1_555 1_555
C4A C3A 1_555 1_555
H1A C4A 1_555 1_555
H2A C4A 1_555 1_555
H3A C4A 1_555 1_555
C5A C3A 1_555 1_555
H4A C5A 1_555 1_555
H5A C5A 1_555 1_555
H6A C5A 1_555 1_555
C6A C3A 1_555 1_555
H7A C6A 1_555 1_555
H8A C6A 1_555 1_555
H9A C6A 1_555 1_555
C7A C1A 1_555 1_555
C8A C7A 1_555 1_555
H10A C8A 1_555 1_555
H11A C8A 1_555 1_555
H12A C8A 1_555 1_555
C9A C7A 1_555 1_555
H13A C9A 1_555 1_555
H14A C9A 1_555 1_555
H15A C9A 1_555 1_555
C10A C7A 1_555 1_555
H16A C10A 1_555 1_555
H17A C10A 1_555 1_555
H18A C10A 1_555 1_555
C11A N3A 1_555 1_555
C12A P2A 1_555 1_555
C13A C12A 1_555 1_555
C14A C13A 1_555 1_555
H19A C14A 1_555 1_555
H20A C14A 1_555 1_555
H21A C14A 1_555 1_555
C15A C13A 1_555 1_555
H22A C15A 1_555 1_555
H23A C15A 1_555 1_555
H24A C15A 1_555 1_555
C16A C13A 1_555 1_555
H25A C16A 1_555 1_555
H26A C16A 1_555 1_555
H27A C16A 1_555 1_555
C17A C11A 1_555 1_555
C18A C17A 1_555 1_555
H28A C18A 1_555 1_555
H29A C18A 1_555 1_555
H30A C18A 1_555 1_555
C19A C17A 1_555 1_555
H31A C19A 1_555 1_555
H32A C19A 1_555 1_555
H33A C19A 1_555 1_555
C20A C17A 1_555 1_555
H34A C20A 1_555 1_555
H35A C20A 1_555 1_555
H36A C20A 1_555 1_555
H37A N2A 1_555 1_555
N3 N4 1_555 1_555
N4 C12 1_555 1_555
N2A C2A 1_555 1_555
N3A N4A 1_555 1_555
N4A C12A 1_555 1_555

#END
