
#######################################################################
#
#                 Cambridge Crystallographic Data Centre
#                                CCDC 
#
#######################################################################
#
# If this CIF has been generated from an entry in the Cambridge 
# Structural Database, then it will include bibliographic, chemical, 
# crystal, experimental, refinement or atomic coordinate data resulting 
# from the CCDC's data processing and validation procedures.
#
#######################################################################

data_ZOVRAF
_chemical_formula_moiety         'C60 H108 Ca3 N12 P6'
_chemical_name_systematic        
bis(\m~2~-\h^5^,\h^2^-3,5-di-t-butyl-1,2,4-diazaphosphol-1-ide)-bis(\m~2~-\h^2^-3,5-di-t-butyl-1,2,4-diazaphosphol-1-ide)-bis(\h^2^-3,5-di-t-butyl-1,2,4-diazaphosphol-1-ide)-tri-calcium
_symmetry_cell_setting           monoclinic
_symmetry_space_group_name_H-M   'P 21/c'
_symmetry_Int_Tables_number      14
_space_group_name_Hall           '-P 2ybc'
loop_
_symmetry_equiv_pos_site_id
_symmetry_equiv_pos_as_xyz
1 x,y,z
2 -x,1/2+y,1/2-z
3 -x,-y,-z
4 x,1/2-y,1/2+z
_cell_length_a                   16.638(6)
_cell_length_b                   22.436(9)
_cell_length_c                   21.756(8)
_cell_angle_alpha                90
_cell_angle_beta                 104.926(6)
_cell_angle_gamma                90
_cell_volume                     7847.28
_exptl_crystal_colour            colorless
_exptl_crystal_description       prismatic
_cell_formula_units_Z            4
loop_
_atom_site_label
_atom_site_type_symbol
_atom_site_fract_x
_atom_site_fract_y
_atom_site_fract_z
Ca1 Ca 0.22324(5) 0.68167(3) 0.24627(4)
Ca2 Ca 0.45708(5) 0.66002(3) 0.32256(4)
Ca3 Ca -0.00565(5) 0.65137(3) 0.16512(4)
P1 P 0.68153(8) 0.63587(6) 0.50127(6)
P2 P 0.38028(10) 0.85762(5) 0.34736(8)
P3 P 0.05371(9) 0.85364(5) 0.14946(7)
P4 P -0.23249(8) 0.63910(6) -0.01335(6)
P5 P 0.02949(8) 0.51612(5) 0.22439(6)
P6 P 0.42858(8) 0.52508(4) 0.26410(6)
N1 N 0.5406(2) 0.66333(13) 0.42474(16)
N2 N 0.5801(2) 0.62770(13) 0.38971(16)
N3 N 0.3999(2) 0.75554(13) 0.29800(16)
N4 N 0.3264(2) 0.75043(13) 0.31625(16)
N5 N 0.1155(2) 0.74763(13) 0.17639(15)
N6 N 0.0416(2) 0.74828(13) 0.19438(15)
N7 N -0.0892(2) 0.65978(14) 0.06305(17)
N8 N -0.1279(2) 0.62137(14) 0.09576(17)
N9 N 0.10971(19) 0.61435(12) 0.26249(15)
N10 N 0.13139(18) 0.59818(12) 0.20722(14)
N11 N 0.34110(18) 0.62086(12) 0.22851(14)
N12 N 0.32216(18) 0.60263(12) 0.28417(14)
C1 C 0.5861(3) 0.67229(17) 0.4837(2)
C2 C 0.5524(3) 0.7125(2) 0.5272(2)
C3 C 0.6167(4) 0.7191(3) 0.5913(3)
H1 H 0.6668 0.7361 0.5848
H2 H 0.6286 0.6807 0.6109
H3 H 0.5949 0.7448 0.6184
C4 C 0.4752(4) 0.6866(3) 0.5386(3)
H4 H 0.4343 0.6820 0.4987
H5 H 0.4541 0.7127 0.5657
H6 H 0.4875 0.6484 0.5586
C5 C 0.5340(4) 0.7729(2) 0.4969(3)
H7 H 0.4924 0.7692 0.4572
H8 H 0.5839 0.7893 0.4892
H9 H 0.5140 0.7988 0.5248
C6 C 0.6538(3) 0.60941(17) 0.4239(2)
C7 C 0.7042(3) 0.5691(2) 0.3926(3)
C8 C 0.7922(13) 0.5647(8) 0.4386(12)
H10 H 0.8249 0.5366 0.4223
H11 H 0.7877 0.5518 0.4797
H12 H 0.8185 0.6031 0.4425
C9 C 0.6996(10) 0.5851(7) 0.3281(8)
H13 H 0.7375 0.5609 0.3123
H14 H 0.7142 0.6264 0.3262
H15 H 0.6440 0.5789 0.3024
C10 C 0.6612(9) 0.5059(5) 0.3936(6)
H16 H 0.6032 0.5087 0.3723
H17 H 0.6673 0.4937 0.4369
H18 H 0.6872 0.4770 0.3724
C11 C 0.4347(3) 0.80931(17) 0.3117(2)
C12 C 0.5156(3) 0.8227(2) 0.2939(2)
C13 C 0.5718(3) 0.7679(2) 0.3005(3)
H19 H 0.5839 0.7535 0.3434
H20 H 0.6226 0.7786 0.2902
H21 H 0.5440 0.7374 0.2720
C14 C 0.4974(4) 0.8453(3) 0.2254(3)
H22 H 0.4619 0.8796 0.2206
H23 H 0.4702 0.8145 0.1969
H24 H 0.5487 0.8559 0.2156
C15 C 0.5643(3) 0.8712(2) 0.3373(3)
H25 H 0.5779 0.8576 0.3806
H26 H 0.5311 0.9067 0.3334
H27 H 0.6146 0.8797 0.3251
C16 C 0.3089(3) 0.80006(17) 0.3437(2)
C17 C 0.2348(3) 0.8030(2) 0.3715(2)
C18 C 0.2637(4) 0.8144(4) 0.4415(3)
H28 H 0.2970 0.7814 0.4618
H29 H 0.2164 0.8188 0.4587
H30 H 0.2964 0.8502 0.4489
C19 C 0.1774(4) 0.8558(3) 0.3400(4)
H31 H 0.1302 0.8580 0.3575
H32 H 0.1589 0.8494 0.2949
H33 H 0.2080 0.8925 0.3482
C20 C 0.1799(4) 0.7499(2) 0.3570(3)
H34 H 0.2098 0.7153 0.3767
H35 H 0.1624 0.7441 0.3118
H36 H 0.1320 0.7558 0.3732
C21 C 0.1290(3) 0.79973(17) 0.1507(2)
C22 C 0.2025(3) 0.8080(2) 0.1231(2)
C23 C 0.2571(10) 0.7532(6) 0.1286(7)
H37 H 0.2232 0.7190 0.1131
H38 H 0.2861 0.7470 0.1723
H39 H 0.2967 0.7588 0.1038
C24 C 0.2382(13) 0.8681(9) 0.1335(9)
H40 H 0.2466 0.8787 0.1775
H41 H 0.2007 0.8960 0.1074
H42 H 0.2905 0.8688 0.1226
C25 C 0.1725(11) 0.7967(6) 0.0486(8)
H43 H 0.2165 0.8070 0.0293
H44 H 0.1246 0.8208 0.0307
H45 H 0.1584 0.7554 0.0408
C26 C 0.0025(3) 0.80059(16) 0.18318(19)
C27 C -0.0791(3) 0.8088(2) 0.2015(2)
C28 C -0.0602(4) 0.8283(2) 0.2708(3)
H46 H -0.0283 0.8644 0.2763
H47 H -0.0290 0.7977 0.2974
H48 H -0.1114 0.8350 0.2823
C29 C -0.1293(4) 0.8584(2) 0.1612(3)
H49 H -0.0974 0.8946 0.1676
H50 H -0.1801 0.8644 0.1735
H51 H -0.1419 0.8474 0.1171
C30 C -0.1299(3) 0.7525(2) 0.1915(3)
H52 H -0.1414 0.7409 0.1476
H53 H -0.1813 0.7594 0.2026
H54 H -0.0995 0.7214 0.2178
C31 C -0.1359(3) 0.67352(18) 0.0051(2)
C32 C -0.1028(3) 0.7167(2) -0.0350(2)
C33 C -0.0202(3) 0.6955(2) -0.0448(3)
H55 H 0.0189 0.6903 -0.0042
H56 H 0.0006 0.7247 -0.0691
H57 H -0.0281 0.6583 -0.0672
C34 C -0.0887(4) 0.7772(2) -0.0012(3)
H58 H -0.0494 0.7728 0.0395
H59 H -0.1404 0.7918 0.0048
H60 H -0.0674 0.8051 -0.0266
C35 C -0.1650(4) 0.7247(3) -0.0991(2)
H61 H -0.1744 0.6870 -0.1208
H62 H -0.1434 0.7526 -0.1242
H63 H -0.2165 0.7394 -0.0929
C36 C -0.2035(3) 0.60629(17) 0.0617(2)
C37 C -0.2543(3) 0.5648(2) 0.0908(3)
C38 C -0.2862(8) 0.6031(5) 0.1422(6)
H64 H -0.3151 0.5775 0.1647
H65 H -0.3233 0.6338 0.1208
H66 H -0.2395 0.6209 0.1718
C39 C -0.2202(8) 0.5014(4) 0.0814(7)
H67 H -0.1637 0.4980 0.1064
H68 H -0.2223 0.4956 0.0373
H69 H -0.2536 0.4717 0.0948
C40 C -0.3457(6) 0.5645(5) 0.0473(6)
H70 H -0.3776 0.5347 0.0622
H71 H -0.3449 0.5558 0.0043
H72 H -0.3706 0.6029 0.0489
C41 C 0.0569(2) 0.57516(16) 0.27764(19)
C42 C 0.0250(3) 0.5853(2) 0.3364(2)
C43 C 0.0951(2) 0.54770(15) 0.18220(18)
C44 C 0.1152(3) 0.52236(17) 0.1235(2)
C45 C 0.1222(3) 0.5712(2) 0.0773(2)
H73 H 0.0700 0.5918 0.0639
H74 H 0.1361 0.5540 0.0410
H75 H 0.1648 0.5987 0.0978
C46 C 0.1978(3) 0.4888(2) 0.1454(2)
H76 H 0.2408 0.5159 0.1661
H77 H 0.2119 0.4715 0.1091
H78 H 0.1925 0.4578 0.1745
C47 C 0.0477(3) 0.4785(2) 0.0901(2)
H79 H -0.0045 0.4990 0.0763
H80 H 0.0429 0.4472 0.1191
H81 H 0.0623 0.4616 0.0539
C48 C 0.3953(2) 0.58467(16) 0.21175(18)
C49 C 0.4251(3) 0.5976(2) 0.1534(2)
C50 C 0.4752(7) 0.6557(4) 0.1665(5)
H82 H 0.4404 0.6871 0.1751
H83 H 0.4946 0.6660 0.1300
H84 H 0.5220 0.6504 0.2027
C51 C 0.4833(6) 0.5471(4) 0.1427(5)
H85 H 0.5247 0.5394 0.1816
H86 H 0.5100 0.5589 0.1104
H87 H 0.4513 0.5116 0.1293
C52 C 0.3518(6) 0.6024(4) 0.0943(4)
H88 H 0.3212 0.5656 0.0884
H89 H 0.3723 0.6101 0.0577
H90 H 0.3160 0.6343 0.0998
C53 C 0.3635(2) 0.55338(15) 0.30819(18)
C54 C 0.3480(3) 0.52623(17) 0.3681(2)
C55 C 0.3293(4) 0.5740(2) 0.4112(2)
H91 H 0.2806 0.5957 0.3893
H92 H 0.3756 0.6008 0.4232
H93 H 0.3197 0.5559 0.4487
C56 C 0.4253(3) 0.4924(3) 0.4048(3)
H94 H 0.4385 0.4617 0.3783
H95 H 0.4147 0.4748 0.4422
H96 H 0.4713 0.5195 0.4171
C57 C 0.2753(3) 0.4839(2) 0.3483(2)
H97 H 0.2269 0.5054 0.3255
H98 H 0.2646 0.4658 0.3854
H99 H 0.2882 0.4534 0.3213
C58 C -0.0280(6) 0.5326(3) 0.3455(4)
H100 H -0.0484 0.5390 0.3824
H101 H 0.0050 0.4969 0.3511
H102 H -0.0741 0.5284 0.3087
C59 C -0.0277(6) 0.6412(3) 0.3259(4)
H103 H 0.0037 0.6735 0.3148
H104 H -0.0434 0.6509 0.3642
H105 H -0.0767 0.6346 0.2920
C60 C 0.0971(5) 0.5927(5) 0.3947(4)
H106 H 0.1301 0.6263 0.3889
H107 H 0.1307 0.5574 0.4008
H108 H 0.0761 0.5992 0.4313
C61? C 0.7796(14) 0.5413(8) 0.4342(12)
H109? H 0.8108 0.5220 0.4084
H110? H 0.7635 0.5124 0.4613
H111? H 0.8133 0.5715 0.4597
C62? C 0.7346(9) 0.6110(6) 0.3416(7)
H112? H 0.7650 0.5873 0.3185
H113? H 0.7698 0.6423 0.3638
H114? H 0.6870 0.6282 0.3124
C63? C 0.6558(9) 0.5195(6) 0.3510(7)
H115? H 0.6870 0.5053 0.3225
H116? H 0.6031 0.5347 0.3269
H117? H 0.6467 0.4873 0.3775
C64? C 0.2753(13) 0.7685(8) 0.1512(9)
H118? H 0.2591 0.7276 0.1433
H119? H 0.2935 0.7752 0.1962
H120? H 0.3198 0.7774 0.1321
C65? C 0.2610(10) 0.8612(7) 0.1648(7)
H121? H 0.2853 0.8473 0.2072
H122? H 0.2273 0.8956 0.1663
H123? H 0.3044 0.8716 0.1449
C66? C 0.1728(10) 0.8341(6) 0.0582(7)
H124? H 0.2180 0.8358 0.0383
H125? H 0.1521 0.8737 0.0613
H126? H 0.1290 0.8098 0.0331
C67? C -0.2009(9) 0.5231(8) 0.1461(9)
H127? H -0.1678 0.5475 0.1794
H128? H -0.1651 0.4980 0.1292
H129? H -0.2377 0.4988 0.1630
C68? C -0.3135(15) 0.5297(9) 0.0520(12)
H130? H -0.3437 0.5526 0.0163
H131? H -0.3512 0.5152 0.0754
H132? H -0.2871 0.4965 0.0373
C69? C -0.2398(13) 0.5688(10) 0.1567(10)
H133? H -0.2833 0.5486 0.1699
H134? H -0.2386 0.6099 0.1690
H135? H -0.1873 0.5506 0.1766
C70? C 0.5092(14) 0.6226(10) 0.1704(11)
H136? H 0.5083 0.6611 0.1895
H137? H 0.5289 0.6265 0.1328
H138? H 0.5456 0.5967 0.2000
C71? C 0.4301(14) 0.5425(10) 0.1169(10)
H139? H 0.4500 0.5103 0.1459
H140? H 0.4676 0.5487 0.0906
H141? H 0.3758 0.5329 0.0906
C72? C 0.3750(13) 0.6428(8) 0.1093(10)
H142? H 0.3169 0.6364 0.1058
H143? H 0.3855 0.6390 0.0682
H144? H 0.3903 0.6821 0.1257
C73? C -0.0667(16) 0.5831(14) 0.3229(13)
H145? H -0.0836 0.5951 0.3600
H146? H -0.0855 0.5432 0.3114
H147? H -0.0905 0.6097 0.2884
C74? C 0.0639(15) 0.5356(9) 0.3864(10)
H148? H 0.1227 0.5420 0.4017
H149? H 0.0540 0.4971 0.3665
H150? H 0.0387 0.5373 0.4214
C75? C 0.0590(16) 0.6424(9) 0.3748(11)
H151? H 0.0429 0.6768 0.3482
H152? H 0.1186 0.6403 0.3887
H153? H 0.0365 0.6453 0.4111
loop_
_geom_bond_atom_site_label_1
_geom_bond_atom_site_label_2
_geom_bond_site_symmetry_1
_geom_bond_site_symmetry_2
Ca1 N4 1_555 1_555
Ca2 P6 1_555 1_555
Ca3 P5 1_555 1_555
P1 C1 1_555 1_555
P2 C11 1_555 1_555
P3 C21 1_555 1_555
P4 C31 1_555 1_555
P5 C41 1_555 1_555
P6 C48 1_555 1_555
N1 Ca2 1_555 1_555
N2 Ca2 1_555 1_555
N3 Ca2 1_555 1_555
N4 Ca2 1_555 1_555
N5 Ca1 1_555 1_555
N6 Ca3 1_555 1_555
N7 Ca3 1_555 1_555
N8 Ca3 1_555 1_555
N9 Ca1 1_555 1_555
N10 Ca1 1_555 1_555
N11 Ca1 1_555 1_555
N12 Ca1 1_555 1_555
C1 N1 1_555 1_555
C2 C1 1_555 1_555
C3 C2 1_555 1_555
H1 C3 1_555 1_555
H2 C3 1_555 1_555
H3 C3 1_555 1_555
C4 C2 1_555 1_555
H4 C4 1_555 1_555
H5 C4 1_555 1_555
H6 C4 1_555 1_555
C5 C2 1_555 1_555
H7 C5 1_555 1_555
H8 C5 1_555 1_555
H9 C5 1_555 1_555
C6 P1 1_555 1_555
C7 C6 1_555 1_555
C8 C7 1_555 1_555
H10 C8 1_555 1_555
H11 C8 1_555 1_555
H12 C8 1_555 1_555
C9 C7 1_555 1_555
H13 C9 1_555 1_555
H14 C9 1_555 1_555
H15 C9 1_555 1_555
C10 C7 1_555 1_555
H16 C10 1_555 1_555
H17 C10 1_555 1_555
H18 C10 1_555 1_555
C11 N3 1_555 1_555
C12 C11 1_555 1_555
C13 C12 1_555 1_555
H19 C13 1_555 1_555
H20 C13 1_555 1_555
H21 C13 1_555 1_555
C14 C12 1_555 1_555
H22 C14 1_555 1_555
H23 C14 1_555 1_555
H24 C14 1_555 1_555
C15 C12 1_555 1_555
H25 C15 1_555 1_555
H26 C15 1_555 1_555
H27 C15 1_555 1_555
C16 P2 1_555 1_555
C17 C16 1_555 1_555
C18 C17 1_555 1_555
H28 C18 1_555 1_555
H29 C18 1_555 1_555
H30 C18 1_555 1_555
C19 C17 1_555 1_555
H31 C19 1_555 1_555
H32 C19 1_555 1_555
H33 C19 1_555 1_555
C20 C17 1_555 1_555
H34 C20 1_555 1_555
H35 C20 1_555 1_555
H36 C20 1_555 1_555
C21 N5 1_555 1_555
C22 C21 1_555 1_555
C23 C22 1_555 1_555
H37 C23 1_555 1_555
H38 C23 1_555 1_555
H39 C23 1_555 1_555
C24 C22 1_555 1_555
H40 C24 1_555 1_555
H41 C24 1_555 1_555
H42 C24 1_555 1_555
C25 C22 1_555 1_555
H43 C25 1_555 1_555
H44 C25 1_555 1_555
H45 C25 1_555 1_555
C26 P3 1_555 1_555
C27 C26 1_555 1_555
C28 C27 1_555 1_555
H46 C28 1_555 1_555
H47 C28 1_555 1_555
H48 C28 1_555 1_555
C29 C27 1_555 1_555
H49 C29 1_555 1_555
H50 C29 1_555 1_555
H51 C29 1_555 1_555
C30 C27 1_555 1_555
H52 C30 1_555 1_555
H53 C30 1_555 1_555
H54 C30 1_555 1_555
C31 N7 1_555 1_555
C32 C31 1_555 1_555
C33 C32 1_555 1_555
H55 C33 1_555 1_555
H56 C33 1_555 1_555
H57 C33 1_555 1_555
C34 C32 1_555 1_555
H58 C34 1_555 1_555
H59 C34 1_555 1_555
H60 C34 1_555 1_555
C35 C32 1_555 1_555
H61 C35 1_555 1_555
H62 C35 1_555 1_555
H63 C35 1_555 1_555
C36 P4 1_555 1_555
C37 C36 1_555 1_555
C38 C37 1_555 1_555
H64 C38 1_555 1_555
H65 C38 1_555 1_555
H66 C38 1_555 1_555
C39 C37 1_555 1_555
H67 C39 1_555 1_555
H68 C39 1_555 1_555
H69 C39 1_555 1_555
C40 C37 1_555 1_555
H70 C40 1_555 1_555
H71 C40 1_555 1_555
H72 C40 1_555 1_555
C41 Ca3 1_555 1_555
C42 C41 1_555 1_555
C43 Ca3 1_555 1_555
C44 C43 1_555 1_555
C45 C44 1_555 1_555
H73 C45 1_555 1_555
H74 C45 1_555 1_555
H75 C45 1_555 1_555
C46 C44 1_555 1_555
H76 C46 1_555 1_555
H77 C46 1_555 1_555
H78 C46 1_555 1_555
C47 C44 1_555 1_555
H79 C47 1_555 1_555
H80 C47 1_555 1_555
H81 C47 1_555 1_555
C48 Ca2 1_555 1_555
C49 C48 1_555 1_555
C50 C49 1_555 1_555
H82 C50 1_555 1_555
H83 C50 1_555 1_555
H84 C50 1_555 1_555
C51 C49 1_555 1_555
H85 C51 1_555 1_555
H86 C51 1_555 1_555
H87 C51 1_555 1_555
C52 C49 1_555 1_555
H88 C52 1_555 1_555
H89 C52 1_555 1_555
H90 C52 1_555 1_555
C53 Ca2 1_555 1_555
C54 C53 1_555 1_555
C55 C54 1_555 1_555
H91 C55 1_555 1_555
H92 C55 1_555 1_555
H93 C55 1_555 1_555
C56 C54 1_555 1_555
H94 C56 1_555 1_555
H95 C56 1_555 1_555
H96 C56 1_555 1_555
C57 C54 1_555 1_555
H97 C57 1_555 1_555
H98 C57 1_555 1_555
H99 C57 1_555 1_555
C58 C42 1_555 1_555
H100 C58 1_555 1_555
H101 C58 1_555 1_555
H102 C58 1_555 1_555
C59 C42 1_555 1_555
H103 C59 1_555 1_555
H104 C59 1_555 1_555
H105 C59 1_555 1_555
C60 C42 1_555 1_555
H106 C60 1_555 1_555
H107 C60 1_555 1_555
H108 C60 1_555 1_555
Ca2 N11 1_555 1_555
Ca2 N12 1_555 1_555
Ca3 N5 1_555 1_555
Ca3 N9 1_555 1_555
Ca3 N10 1_555 1_555
P5 C43 1_555 1_555
P6 C53 1_555 1_555
N1 N2 1_555 1_555
N2 C6 1_555 1_555
N3 N4 1_555 1_555
N4 C16 1_555 1_555
N5 N6 1_555 1_555
N6 C26 1_555 1_555
N7 N8 1_555 1_555
N8 C36 1_555 1_555
N9 N10 1_555 1_555
N9 C41 1_555 1_555
N10 C43 1_555 1_555
N11 N12 1_555 1_555
N11 C48 1_555 1_555
N12 C53 1_555 1_555

#END
