
#######################################################################
#
#                 Cambridge Crystallographic Data Centre
#                                CCDC 
#
#######################################################################
#
# If this CIF has been generated from an entry in the Cambridge 
# Structural Database, then it will include bibliographic, chemical, 
# crystal, experimental, refinement or atomic coordinate data resulting 
# from the CCDC's data processing and validation procedures.
#
#######################################################################

data_ZOWJAW01
_chemical_formula_moiety         'C6 H12 O5'
_chemical_name_systematic        'Methyl \b-D-ribofuranoside'
_symmetry_cell_setting           orthorhombic
_symmetry_space_group_name_H-M   'P 21 21 21'
_symmetry_Int_Tables_number      19
_space_group_name_Hall           'P 2ac 2ab'
loop_
_symmetry_equiv_pos_site_id
_symmetry_equiv_pos_as_xyz
1 x,y,z
2 1/2-x,-y,1/2+z
3 1/2+x,1/2-y,-z
4 -x,1/2+y,1/2-z
_cell_length_a                   4.818(1)
_cell_length_b                   12.769(2)
_cell_length_c                   24.199(3)
_cell_angle_alpha                90
_cell_angle_beta                 90
_cell_angle_gamma                90
_cell_volume                     1488.75
_exptl_crystal_colour            colorless
_exptl_crystal_description       prism
_chemical_melting_point          353K
_cell_formula_units_Z            8
_exptl_crystal_recrystallization_method 'ethyl acetate'
loop_
_atom_site_label
_atom_site_type_symbol
_atom_site_fract_x
_atom_site_fract_y
_atom_site_fract_z
O1 O -0.1312(21) -0.0578(7) -0.0103(4)
O2 O -0.3873(22) 0.2051(7) -0.0138(4)
H1 H -0.1959(41) 0.2277(13) -0.0081(7)
O3 O -0.3101(21) -0.0667(7) 0.1043(4)
H2 H -0.4385(46) -0.0914(15) 0.1310(8)
O4 O -0.0165(21) 0.1173(7) -0.0875(4)
H3 H 0.0315(43) 0.1132(16) -0.1255(8)
O5 O -0.4554(22) -0.1113(7) -0.0771(4)
C1 C -0.4016(18) 0.0959(6) -0.0239(3)
H4 H -0.6258(40) 0.0773(13) -0.0253(7)
C2 C -0.2058(18) -0.0532(6) -0.0664(3)
H5 H -0.0275(36) -0.0892(12) -0.0891(6)
C3 C -0.4522(19) -0.0076(6) 0.0634(3)
H6 H -0.6090(38) -0.0571(13) 0.0437(6)
H7 H -0.5479(42) 0.0603(14) 0.0825(7)
C4 C -0.2691(18) 0.0608(6) -0.0789(3)
H8 H -0.4087(43) 0.0719(14) -0.1130(7)
C5 C -0.2506(20) 0.0294(6) 0.0193(3)
H9 H -0.0884(41) 0.0748(13) 0.0393(7)
C6 C -0.4243(22) -0.2203(7) -0.0646(4)
H10 H -0.6244(43) -0.2606(15) -0.0755(8)
H11 H -0.2530(47) -0.2521(16) -0.0881(8)
H12 H -0.4012(49) -0.2299(15) -0.0177(8)
O6 O -0.3193(22) -0.4449(8) -0.1620(4)
H13 H -0.4814(39) -0.4444(14) -0.1398(7)
O7 O -0.4507(21) -0.2393(7) -0.3000(4)
O8 O -0.1193(21) -0.3737(7) -0.2992(4)
O9 O 0.0379(21) -0.2895(7) -0.1888(4)
H14 H 0.1103(46) -0.2214(17) -0.1872(8)
O10 O -0.2517(22) -0.5928(7) -0.3275(4)
H15 H -0.3542(42) -0.5949(14) -0.3609(8)
C7 C -0.2222(17) -0.2861(6) -0.2166(3)
H16 H -0.3630(39) -0.2250(15) -0.1996(7)
C8 C -0.3554(17) -0.3955(6) -0.2130(3)
H17 H -0.5760(35) -0.3883(12) -0.2219(6)
C9 C -0.3936(17) -0.5343(6) -0.2862(3)
H18 H -0.5779(51) -0.4928(16) -0.3037(8)
H19 H -0.4595(43) -0.5862(14) -0.2533(8)
C10 C -0.2027(17) -0.4536(6) -0.2598(3)
H20 H -0.0110(34) -0.4907(11) -0.2431(6)
C11 C -0.1907(19) -0.2713(6) -0.2786(3)
H21 H -0.0197(41) -0.2204(15) -0.2924(8)
C12 C -0.4305(21) -0.2009(6) -0.3557(3)
H22 H -0.6513(52) -0.1820(18) -0.3675(9)
H23 H -0.2999(57) -0.1324(19) -0.3560(10)
H24 H -0.3434(45) -0.2604(16) -0.3841(8)
loop_
_geom_bond_atom_site_label_1
_geom_bond_atom_site_label_2
_geom_bond_site_symmetry_1
_geom_bond_site_symmetry_2
O1 C2 1_555 1_555
O2 H1 1_555 1_555
O3 H2 1_555 1_555
O4 H3 1_555 1_555
O5 C2 1_555 1_555
C1 O2 1_555 1_555
H4 C1 1_555 1_555
C2 H5 1_555 1_555
C3 O3 1_555 1_555
H6 C3 1_555 1_555
H7 C3 1_555 1_555
C4 O4 1_555 1_555
H8 C4 1_555 1_555
C5 O1 1_555 1_555
H9 C5 1_555 1_555
C6 O5 1_555 1_555
H10 C6 1_555 1_555
H11 C6 1_555 1_555
H12 C6 1_555 1_555
O6 H13 1_555 1_555
O7 C11 1_555 1_555
O8 C10 1_555 1_555
O9 H14 1_555 1_555
O10 H15 1_555 1_555
C7 O9 1_555 1_555
H16 C7 1_555 1_555
C8 O6 1_555 1_555
H17 C8 1_555 1_555
C9 O10 1_555 1_555
H18 C9 1_555 1_555
H19 C9 1_555 1_555
C10 C8 1_555 1_555
H20 C10 1_555 1_555
C11 O8 1_555 1_555
H21 C11 1_555 1_555
C12 O7 1_555 1_555
H22 C12 1_555 1_555
H23 C12 1_555 1_555
H24 C12 1_555 1_555
C1 C4 1_555 1_555
C1 C5 1_555 1_555
C2 C4 1_555 1_555
C3 C5 1_555 1_555
C7 C8 1_555 1_555
C7 C11 1_555 1_555
C9 C10 1_555 1_555

#END
