
#######################################################################
#
#                 Cambridge Crystallographic Data Centre
#                                CCDC 
#
#######################################################################
#
# If this CIF has been generated from an entry in the Cambridge 
# Structural Database, then it will include bibliographic, chemical, 
# crystal, experimental, refinement or atomic coordinate data resulting 
# from the CCDC's data processing and validation procedures.
#
#######################################################################

data_ZOWKEB
_chemical_formula_moiety         'C96 H88 Ca2 Cl4 N16 O16,6(C4 H8 O1)'
_chemical_name_systematic        
"bis((\m~2~-Chloro)-chloro-(cyclo-tris(m-phenylenediamine-N,N'-isophthaloyl))-bis(dimethylformamide-O)-calcium) tetrahydrofuran solvate"
_symmetry_cell_setting           monoclinic
_symmetry_space_group_name_H-M   'C 2/m'
_symmetry_Int_Tables_number      12
_space_group_name_Hall           '-C 2y'
loop_
_symmetry_equiv_pos_site_id
_symmetry_equiv_pos_as_xyz
1 x,y,z
2 -x,y,-z
3 1/2+x,1/2+y,z
4 1/2-x,1/2+y,-z
5 -x,-y,-z
6 x,-y,z
7 1/2-x,1/2-y,-z
8 1/2+x,1/2-y,z
_cell_length_a                   13.984(1)
_cell_length_b                   32.014(1)
_cell_length_c                   13.533(1)
_cell_angle_alpha                90
_cell_angle_beta                 95.709(2)
_cell_angle_gamma                90
_cell_volume                     6028.45
_exptl_crystal_colour            colorless
_cell_formula_units_Z            2
loop_
_atom_site_label
_atom_site_type_symbol
_atom_site_fract_x
_atom_site_fract_y
_atom_site_fract_z
Ca1 Ca 0.1527(1) 0.5000 0.0062(1)
Cl1 Cl 0.0941(2) 0.5000 -0.2014(1)
Cl2 Cl 0.0000 0.4412(1) 0.0000
O1 O 0.2577(3) 0.4487(1) -0.0450(3)
O2 O 0.1949(3) 0.4554(1) 0.1536(3)
O3 O 0.1064(5) 0.2844(2) 0.1325(4)
O4 O -0.2902(3) 0.3898(2) 0.4043(4)
N1 N 0.3817(3) 0.4244(2) -0.1244(3)
N2 N 0.0557(4) 0.3518(2) 0.1351(3)
N3 N -0.1749(3) 0.4203(2) 0.3192(3)
N4 N 0.1804(4) 0.4377(2) 0.3137(4)
C1 C 0.3008(4) 0.4191(2) -0.0798(4)
C2 C 0.2634(4) 0.3760(2) -0.0713(4)
C3 C 0.2033(4) 0.3690(2) 0.0029(4)
C4 C 0.1652(5) 0.3298(2) 0.0166(5)
C5 C 0.1869(5) 0.2976(2) -0.0459(6)
C6 C 0.2450(6) 0.3046(3) -0.1213(6)
C7 C 0.2829(5) 0.3435(2) -0.1349(5)
C8 C 0.1070(5) 0.3194(3) 0.0984(5)
C9 C 0.0015(4) 0.3502(2) 0.2181(4)
C10 C -0.0603(4) 0.3837(2) 0.2293(4)
C11 C -0.1156(4) 0.3851(2) 0.3096(4)
C12 C -0.1072(5) 0.3521(2) 0.3783(5)
C13 C -0.2559(5) 0.4210(3) 0.3677(4)
C14 C -0.3038(4) 0.4625(2) 0.3727(4)
C15 C -0.0450(6) 0.3200(3) 0.3636(5)
C16 C 0.0087(5) 0.3174(2) 0.2856(5)
C17 C -0.4016(4) 0.4629(3) 0.3830(4)
C18 C -0.4500(7) 0.5000 0.3880(7)
C19 C -0.2559(6) 0.5000 0.3682(6)
C20 C 0.4317(4) 0.4627(2) -0.1316(4)
C21 C 0.3812(6) 0.5000 -0.1368(6)
C22 C 0.5302(4) 0.4623(2) -0.1332(4)
C23 C 0.5778(7) 0.5000 -0.1355(7)
C24 C 0.1485(4) 0.4502(2) 0.2249(5)
C25 C 0.2788(8) 0.4284(6) 0.3370(7)
C26 C 0.1181(6) 0.4340(3) 0.3930(5)
H1 H 0.4090 0.4005 -0.1558
H2 H 0.1889 0.3916 0.0450
H3 H 0.1601 0.2705 -0.0375
H4 H 0.2580 0.2823 -0.1642
H5 H 0.3226 0.3484 -0.1868
H6 H 0.0622 0.3769 0.0892
H7 H -0.0653 0.4056 0.1818
H8 H -0.1432 0.4498 0.2710
H9 H -0.1444 0.3514 0.4335
H10 H -0.0392 0.2977 0.4105
H11 H -0.4354 0.4373 0.3866
H12 H 0.0505 0.2946 0.2775
H13 H -0.5152 0.5000 0.3941
H14 H -0.1905 0.5000 0.3637
H15 H 0.3144 0.5000 -0.1458
H16 H 0.5636 0.4366 -0.1327
H17 H 0.6431 0.5000 -0.1370
H18 H 0.0790 0.4561 0.2149
H19 H 0.3012 0.4205 0.4023
H20 H 0.2999 0.4108 0.2898
H21 H 0.3148 0.4530 0.3197
H22 H 0.0540 0.4395 0.3676
H23 H 0.1382 0.4535 0.4438
H24 H 0.1231 0.4064 0.4090
Ca1A Ca -0.1527(1) 0.5000 -0.0062(1)
Cl1A Cl -0.0941(2) 0.5000 0.2014(1)
Cl2E Cl 0.0000 0.5588(1) 0.0000
C20E C 0.4317(4) 0.5373(2) -0.1316(4)
N1E N 0.3817(3) 0.5756(2) -0.1244(3)
C1E C 0.3008(4) 0.5809(2) -0.0798(4)
O1E O 0.2577(3) 0.5513(1) -0.0450(3)
O2E O 0.1949(3) 0.5446(1) 0.1536(3)
C24E C 0.1485(4) 0.5498(2) 0.2249(5)
N4E N 0.1804(4) 0.5623(2) 0.3137(4)
C25E C 0.2788(8) 0.5716(6) 0.3370(7)
H19E H 0.3012 0.5795 0.4023
H20E H 0.2999 0.5892 0.2898
H21E H 0.3148 0.5470 0.3197
C26E C 0.1181(6) 0.5660(3) 0.3930(5)
H22E H 0.0540 0.5605 0.3676
H23E H 0.1382 0.5465 0.4438
H24E H 0.1231 0.5936 0.4090
H18E H 0.0790 0.5439 0.2149
C2E C 0.2634(4) 0.6240(2) -0.0713(4)
C3E C 0.2033(4) 0.6310(2) 0.0029(4)
C4E C 0.1652(5) 0.6702(2) 0.0166(5)
C5E C 0.1869(5) 0.7024(2) -0.0459(6)
C6E C 0.2450(6) 0.6954(3) -0.1213(6)
C7E C 0.2829(5) 0.6565(2) -0.1349(5)
H5E H 0.3226 0.6516 -0.1868
H4E H 0.2580 0.7177 -0.1642
H3E H 0.1601 0.7295 -0.0375
C8E C 0.1070(5) 0.6806(3) 0.0984(5)
O3E O 0.1064(5) 0.7156(2) 0.1325(4)
N2E N 0.0557(4) 0.6482(2) 0.1351(3)
C9E C 0.0015(4) 0.6498(2) 0.2181(4)
C10E C -0.0603(4) 0.6163(2) 0.2293(4)
C11E C -0.1156(4) 0.6149(2) 0.3096(4)
N3E N -0.1749(3) 0.5797(2) 0.3192(3)
C13E C -0.2559(5) 0.5790(3) 0.3677(4)
O4E O -0.2902(3) 0.6102(2) 0.4043(4)
C14E C -0.3038(4) 0.5375(2) 0.3727(4)
C17E C -0.4016(4) 0.5371(3) 0.3830(4)
H11E H -0.4354 0.5627 0.3866
H8E H -0.1432 0.5502 0.2710
C12E C -0.1072(5) 0.6479(2) 0.3783(5)
C15E C -0.0450(6) 0.6800(3) 0.3636(5)
C16E C 0.0087(5) 0.6826(2) 0.2856(5)
H12E H 0.0505 0.7054 0.2775
H10E H -0.0392 0.7023 0.4105
H9E H -0.1444 0.6486 0.4335
H7E H -0.0653 0.5944 0.1818
H6E H 0.0622 0.6231 0.0892
H2E H 0.1889 0.6084 0.0450
H1E H 0.4090 0.5995 -0.1558
C22E C 0.5302(4) 0.5377(2) -0.1332(4)
H16E H 0.5636 0.5634 -0.1327
O1A O -0.2577(3) 0.4487(1) 0.0450(3)
C1A C -0.3008(4) 0.4191(2) 0.0798(4)
N1A N -0.3817(3) 0.4244(2) 0.1244(3)
C20A C -0.4317(4) 0.4627(2) 0.1316(4)
C21A C -0.3812(6) 0.5000 0.1368(6)
C22A C -0.5302(4) 0.4623(2) 0.1332(4)
C23A C -0.5778(7) 0.5000 0.1355(7)
C22D C -0.5302(4) 0.5377(2) 0.1332(4)
C20D C -0.4317(4) 0.5373(2) 0.1316(4)
N1D N -0.3817(3) 0.5756(2) 0.1244(3)
C1D C -0.3008(4) 0.5809(2) 0.0798(4)
O1D O -0.2577(3) 0.5513(1) 0.0450(3)
C2D C -0.2634(4) 0.6240(2) 0.0713(4)
C3D C -0.2033(4) 0.6310(2) -0.0029(4)
C4D C -0.1652(5) 0.6702(2) -0.0166(5)
C5D C -0.1869(5) 0.7024(2) 0.0459(6)
C6D C -0.2450(6) 0.6954(3) 0.1213(6)
C7D C -0.2829(5) 0.6565(2) 0.1349(5)
H5D H -0.3226 0.6516 0.1868
H4D H -0.2580 0.7177 0.1642
H3D H -0.1601 0.7295 0.0375
C8D C -0.1070(5) 0.6806(3) -0.0984(5)
O3D O -0.1064(5) 0.7156(2) -0.1325(4)
N2D N -0.0557(4) 0.6482(2) -0.1351(3)
C9D C -0.0015(4) 0.6498(2) -0.2181(4)
C10D C 0.0603(4) 0.6163(2) -0.2293(4)
C11D C 0.1156(4) 0.6149(2) -0.3096(4)
N3D N 0.1749(3) 0.5797(2) -0.3192(3)
C13D C 0.2559(5) 0.5790(3) -0.3677(4)
O4D O 0.2902(3) 0.6102(2) -0.4043(4)
C14D C 0.3038(4) 0.5375(2) -0.3727(4)
C17D C 0.4016(4) 0.5371(3) -0.3830(4)
C18D C 0.4500(7) 0.5000 -0.3880(7)
H11D H 0.4354 0.5627 -0.3866
C19D C 0.2559(6) 0.5000 -0.3682(6)
C14A C 0.3038(4) 0.4625(2) -0.3727(4)
C13A C 0.2559(5) 0.4210(3) -0.3677(4)
O4A O 0.2902(3) 0.3898(2) -0.4043(4)
N3A N 0.1749(3) 0.4203(2) -0.3192(3)
C11A C 0.1156(4) 0.3851(2) -0.3096(4)
C10A C 0.0603(4) 0.3837(2) -0.2293(4)
C9A C -0.0015(4) 0.3502(2) -0.2181(4)
N2A N -0.0557(4) 0.3518(2) -0.1351(3)
C8A C -0.1070(5) 0.3194(3) -0.0984(5)
O3A O -0.1064(5) 0.2844(2) -0.1325(4)
C4A C -0.1652(5) 0.3298(2) -0.0166(5)
C3A C -0.2033(4) 0.3690(2) -0.0029(4)
C2A C -0.2634(4) 0.3760(2) 0.0713(4)
C7A C -0.2829(5) 0.3435(2) 0.1349(5)
C6A C -0.2450(6) 0.3046(3) 0.1213(6)
C5A C -0.1869(5) 0.2976(2) 0.0459(6)
H3A H -0.1601 0.2705 0.0375
H4A H -0.2580 0.2823 0.1642
H5A H -0.3226 0.3484 0.1868
H2A H -0.1889 0.3916 -0.0450
H6A H -0.0622 0.3769 -0.0892
C16A C -0.0087(5) 0.3174(2) -0.2856(5)
C15A C 0.0450(6) 0.3200(3) -0.3636(5)
C12A C 0.1072(5) 0.3521(2) -0.3783(5)
H9A H 0.1444 0.3514 -0.4335
H10A H 0.0392 0.2977 -0.4105
H12A H -0.0505 0.2946 -0.2775
H7A H 0.0653 0.4056 -0.1818
H8A H 0.1432 0.4498 -0.2710
C17A C 0.4016(4) 0.4629(3) -0.3830(4)
H13D H 0.5152 0.5000 -0.3941
H11A H 0.4354 0.4373 -0.3866
H14D H 0.1905 0.5000 -0.3637
H8D H 0.1432 0.5502 -0.2710
C12D C 0.1072(5) 0.6479(2) -0.3783(5)
C15D C 0.0450(6) 0.6800(3) -0.3636(5)
C16D C -0.0087(5) 0.6826(2) -0.2856(5)
H12D H -0.0505 0.7054 -0.2775
H10D H 0.0392 0.7023 -0.4105
H9D H 0.1444 0.6486 -0.4335
H7D H 0.0653 0.5944 -0.1818
H6D H -0.0622 0.6231 -0.0892
H2D H -0.1889 0.6084 -0.0450
H1D H -0.4090 0.5995 0.1558
H15A H -0.3144 0.5000 0.1458
H16D H -0.5636 0.5634 0.1327
H17A H -0.6431 0.5000 0.1370
H16A H -0.5636 0.4366 0.1327
H1A H -0.4090 0.4005 0.1558
O2A O -0.1949(3) 0.4554(1) -0.1536(3)
C24A C -0.1485(4) 0.4502(2) -0.2249(5)
N4A N -0.1804(4) 0.4377(2) -0.3137(4)
C25A C -0.2788(8) 0.4284(6) -0.3370(7)
H19A H -0.3012 0.4205 -0.4023
H20A H -0.2999 0.4108 -0.2898
H21A H -0.3148 0.4530 -0.3197
C26A C -0.1181(6) 0.4340(3) -0.3930(5)
H22A H -0.0540 0.4395 -0.3676
H23A H -0.1382 0.4535 -0.4438
H24A H -0.1231 0.4064 -0.4090
H18A H -0.0790 0.4561 -0.2149
O2D O -0.1949(3) 0.5446(1) -0.1536(3)
C24D C -0.1485(4) 0.5498(2) -0.2249(5)
N4D N -0.1804(4) 0.5623(2) -0.3137(4)
C25D C -0.2788(8) 0.5716(6) -0.3370(7)
H19D H -0.3012 0.5795 -0.4023
H20D H -0.2999 0.5892 -0.2898
H21D H -0.3148 0.5470 -0.3197
C26D C -0.1181(6) 0.5660(3) -0.3930(5)
H22D H -0.0540 0.5605 -0.3676
H23D H -0.1382 0.5465 -0.4438
H24D H -0.1231 0.5936 -0.4090
H18D H -0.0790 0.5439 -0.2149
O5 O -0.0077(5) 0.1412(2) 0.1924(9)
C27 C -0.0561(11) 0.1747(10) 0.1328(11)
C28 C -0.0974(16) 0.2023(6) 0.2033(19)
C29 C -0.0415(25) 0.1948(9) 0.2913(22)
C30 C -0.0072(11) 0.1558(7) 0.2891(11)
H25 H -0.1106 0.1594 0.0951
H26 H -0.0155 0.1846 0.0913
H27 H -0.1604 0.2016 0.1957
H28 H -0.0667 0.2299 0.1830
H29 H -0.1009 0.1896 0.3317
H30 H -0.0125 0.2121 0.3162
H31 H 0.0579 0.1603 0.3167
H32 H -0.0379 0.1360 0.3278
C31? C 0.2654(33) 0.2360(19) 0.5763(21)
C32? C 0.3193(22) 0.2724(12) 0.5166(44)
loop_
_geom_bond_atom_site_label_1
_geom_bond_atom_site_label_2
_geom_bond_site_symmetry_1
_geom_bond_site_symmetry_2
Ca1 Cl1 1_555 1_555
Cl2 Ca1 1_555 1_555
O1 Ca1 1_555 1_555
O2 Ca1 1_555 1_555
O3 C8 1_555 1_555
O4 C13 1_555 1_555
O5 C27 1_555 1_555
N1 C1 1_555 1_555
N2 C8 1_555 1_555
N3 C11 1_555 1_555
N4 C24 1_555 1_555
C1 O1 1_555 1_555
C2 C1 1_555 1_555
C3 C2 1_555 1_555
C4 C3 1_555 1_555
C5 C4 1_555 1_555
C6 C5 1_555 1_555
C7 C2 1_555 1_555
C8 C4 1_555 1_555
C9 N2 1_555 1_555
C10 C9 1_555 1_555
C11 C10 1_555 1_555
C12 C11 1_555 1_555
C13 N3 1_555 1_555
C14 C13 1_555 1_555
C15 C12 1_555 1_555
C16 C9 1_555 1_555
C17 C14 1_555 1_555
C18 C17 1_555 1_555
C19 C14 1_555 1_555
C20 N1 1_555 1_555
C21 C20 1_555 1_555
C22 C20 1_555 1_555
C23 C22 1_555 1_555
C24 O2 1_555 1_555
C25 N4 1_555 1_555
C26 N4 1_555 1_555
C27 C28 1_555 1_555
C28 C29 1_555 1_555
C29 C30 1_555 1_555
C30 O5 1_555 1_555
H1 N1 1_555 1_555
H2 C3 1_555 1_555
H3 C5 1_555 1_555
H4 C6 1_555 1_555
H5 C7 1_555 1_555
H6 N2 1_555 1_555
H7 C10 1_555 1_555
H8 N3 1_555 1_555
H9 C12 1_555 1_555
H10 C15 1_555 1_555
H11 C17 1_555 1_555
H12 C16 1_555 1_555
H13 C18 1_555 1_555
H14 C19 1_555 1_555
H15 C21 1_555 1_555
H16 C22 1_555 1_555
H17 C23 1_555 1_555
H18 C24 1_555 1_555
H19 C25 1_555 1_555
H20 C25 1_555 1_555
H21 C25 1_555 1_555
H22 C26 1_555 1_555
H23 C26 1_555 1_555
H24 C26 1_555 1_555
H25 C27 1_555 1_555
H26 C27 1_555 1_555
H27 C28 1_555 1_555
H28 C28 1_555 1_555
H29 C29 1_555 1_555
H30 C29 1_555 1_555
H31 C30 1_555 1_555
H32 C30 1_555 1_555
Ca1A Cl2 1_555 1_555
Cl1A Ca1A 1_555 1_555
Cl2E Ca1 1_555 1_555
C20E C21 1_555 1_555
N1E C20E 1_555 1_555
C1E N1E 1_555 1_555
O1E Ca1 1_555 1_555
O2E Ca1 1_555 1_555
C24E O2E 1_555 1_555
N4E C24E 1_555 1_555
C25E N4E 1_555 1_555
H19E C25E 1_555 1_555
H20E C25E 1_555 1_555
H21E C25E 1_555 1_555
C26E N4E 1_555 1_555
H22E C26E 1_555 1_555
H23E C26E 1_555 1_555
H24E C26E 1_555 1_555
H18E C24E 1_555 1_555
C2E C1E 1_555 1_555
C3E C2E 1_555 1_555
C4E C3E 1_555 1_555
C5E C4E 1_555 1_555
C6E C5E 1_555 1_555
C7E C2E 1_555 1_555
H5E C7E 1_555 1_555
H4E C6E 1_555 1_555
H3E C5E 1_555 1_555
C8E C4E 1_555 1_555
O3E C8E 1_555 1_555
N2E C8E 1_555 1_555
C9E N2E 1_555 1_555
C10E C9E 1_555 1_555
C11E C10E 1_555 1_555
N3E C11E 1_555 1_555
C13E N3E 1_555 1_555
O4E C13E 1_555 1_555
C14E C19 1_555 1_555
C17E C18 1_555 1_555
H11E C17E 1_555 1_555
H8E N3E 1_555 1_555
C12E C11E 1_555 1_555
C15E C12E 1_555 1_555
C16E C9E 1_555 1_555
H12E C16E 1_555 1_555
H10E C15E 1_555 1_555
H9E C12E 1_555 1_555
H7E C10E 1_555 1_555
H6E N2E 1_555 1_555
H2E C3E 1_555 1_555
H1E N1E 1_555 1_555
C22E C23 1_555 1_555
H16E C22E 1_555 1_555
O1A Ca1A 1_555 1_555
C1A O1A 1_555 1_555
N1A C1A 1_555 1_555
C20A N1A 1_555 1_555
C21A C20A 1_555 1_555
C22A C20A 1_555 1_555
C23A C22A 1_555 1_555
C22D C23A 1_555 1_555
C20D C21A 1_555 1_555
N1D C20D 1_555 1_555
C1D N1D 1_555 1_555
O1D Ca1A 1_555 1_555
C2D C1D 1_555 1_555
C3D C2D 1_555 1_555
C4D C3D 1_555 1_555
C5D C4D 1_555 1_555
C6D C5D 1_555 1_555
C7D C2D 1_555 1_555
H5D C7D 1_555 1_555
H4D C6D 1_555 1_555
H3D C5D 1_555 1_555
C8D C4D 1_555 1_555
O3D C8D 1_555 1_555
N2D C8D 1_555 1_555
C9D N2D 1_555 1_555
C10D C9D 1_555 1_555
C11D C10D 1_555 1_555
N3D C11D 1_555 1_555
C13D N3D 1_555 1_555
O4D C13D 1_555 1_555
C14D C13D 1_555 1_555
C17D C14D 1_555 1_555
C18D C17D 1_555 1_555
H11D C17D 1_555 1_555
C19D C14D 1_555 1_555
C14A C19D 1_555 1_555
C13A C14A 1_555 1_555
O4A C13A 1_555 1_555
N3A C13A 1_555 1_555
C11A N3A 1_555 1_555
C10A C11A 1_555 1_555
C9A C10A 1_555 1_555
N2A C9A 1_555 1_555
C8A N2A 1_555 1_555
O3A C8A 1_555 1_555
C4A C8A 1_555 1_555
C3A C4A 1_555 1_555
C2A C1A 1_555 1_555
C7A C2A 1_555 1_555
C6A C7A 1_555 1_555
C5A C4A 1_555 1_555
H3A C5A 1_555 1_555
H4A C6A 1_555 1_555
H5A C7A 1_555 1_555
H2A C3A 1_555 1_555
H6A N2A 1_555 1_555
C16A C9A 1_555 1_555
C15A C16A 1_555 1_555
C12A C11A 1_555 1_555
H9A C12A 1_555 1_555
H10A C15A 1_555 1_555
H12A C16A 1_555 1_555
H7A C10A 1_555 1_555
H8A N3A 1_555 1_555
C17A C18D 1_555 1_555
H13D C18D 1_555 1_555
H11A C17A 1_555 1_555
H14D C19D 1_555 1_555
H8D N3D 1_555 1_555
C12D C11D 1_555 1_555
C15D C12D 1_555 1_555
C16D C9D 1_555 1_555
H12D C16D 1_555 1_555
H10D C15D 1_555 1_555
H9D C12D 1_555 1_555
H7D C10D 1_555 1_555
H6D N2D 1_555 1_555
H2D C3D 1_555 1_555
H1D N1D 1_555 1_555
H15A C21A 1_555 1_555
H16D C22D 1_555 1_555
H17A C23A 1_555 1_555
H16A C22A 1_555 1_555
H1A N1A 1_555 1_555
O2A Ca1A 1_555 1_555
C24A O2A 1_555 1_555
N4A C24A 1_555 1_555
C25A N4A 1_555 1_555
H19A C25A 1_555 1_555
H20A C25A 1_555 1_555
H21A C25A 1_555 1_555
C26A N4A 1_555 1_555
H22A C26A 1_555 1_555
H23A C26A 1_555 1_555
H24A C26A 1_555 1_555
H18A C24A 1_555 1_555
O2D Ca1A 1_555 1_555
C24D O2D 1_555 1_555
N4D C24D 1_555 1_555
C25D N4D 1_555 1_555
H19D C25D 1_555 1_555
H20D C25D 1_555 1_555
H21D C25D 1_555 1_555
C26D N4D 1_555 1_555
H22D C26D 1_555 1_555
H23D C26D 1_555 1_555
H24D C26D 1_555 1_555
H18D C24D 1_555 1_555
C6 C7 1_555 1_555
C15 C16 1_555 1_555
Ca1A Cl2E 1_555 1_555
C20E C22E 1_555 1_555
C1E O1E 1_555 1_555
C6E C7E 1_555 1_555
C13E C14E 1_555 1_555
C14E C17E 1_555 1_555
C15E C16E 1_555 1_555
C22D C20D 1_555 1_555
C1D O1D 1_555 1_555
C6D C7D 1_555 1_555
C14A C17A 1_555 1_555
C3A C2A 1_555 1_555
C6A C5A 1_555 1_555
C15A C12A 1_555 1_555
C15D C16D 1_555 1_555

#END
