
#######################################################################
#
#                 Cambridge Crystallographic Data Centre
#                                CCDC 
#
#######################################################################
#
# If this CIF has been generated from an entry in the Cambridge 
# Structural Database, then it will include bibliographic, chemical, 
# crystal, experimental, refinement or atomic coordinate data resulting 
# from the CCDC's data processing and validation procedures.
#
#######################################################################

data_ZOWKAX
_chemical_formula_moiety         
'C100 H96 Ca1 N16 O16 2+,2(C12 H27 Ca1 Cl3 N3 O3 1-)'
_chemical_name_systematic        
"bis(Cyclo-tris(m-phenylenediamine-N,N'-isophthaloyl))-tetrakis(dimethylacetamide-O)-calcium bis(tris(dimethylacetamide)-trichloro-calcium)"
_symmetry_cell_setting           triclinic
_symmetry_space_group_name_H-M   'P -1'
_symmetry_Int_Tables_number      2
_space_group_name_Hall           '-P 1'
loop_
_symmetry_equiv_pos_site_id
_symmetry_equiv_pos_as_xyz
1 x,y,z
2 -x,-y,-z
_cell_length_a                   12.498(2)
_cell_length_b                   22.729(3)
_cell_length_c                   12.342(2)
_cell_angle_alpha                99.457(6)
_cell_angle_beta                 105.796(11)
_cell_angle_gamma                75.345(9)
_cell_volume                     3246.61
_exptl_crystal_colour            colorless
_cell_formula_units_Z            1
loop_
_atom_site_label
_atom_site_type_symbol
_atom_site_fract_x
_atom_site_fract_y
_atom_site_fract_z
Ca1 Ca 0.5000 0.5000 0.5000
O1 O 0.3802(4) 0.5755(2) 0.5894(4)
O2 O 0.4260(5) 0.5399(2) 0.3325(5)
O3 O 0.3676(5) 0.4406(3) 0.4527(5)
O7 O 0.0771(5) 0.8116(2) 0.2486(5)
O8 O -0.5343(5) 0.9322(3) 0.2082(5)
O9 O -0.7416(5) 0.9175(3) 0.6770(5)
O10 O -0.4391(5) 0.6711(3) 1.0571(5)
O11 O 0.1351(5) 0.5406(3) 1.0654(5)
N1 N 0.2108(5) 0.6233(2) 0.6284(5)
N2 N 0.4086(6) 0.5733(3) 0.1666(6)
N3 N 0.2178(8) 0.4087(5) 0.4559(8)
N7 N -0.0224(5) 0.7798(3) 0.3464(5)
N8 N -0.4201(5) 0.8630(3) 0.3291(5)
N9 N -0.5790(5) 0.8467(3) 0.6604(5)
N10 N -0.3799(5) 0.6930(3) 0.9117(5)
N11 N 0.0385(5) 0.5919(3) 0.9123(5)
C1 C 0.2948(7) 0.6189(3) 0.5792(6)
C2 C 0.2867(6) 0.6703(3) 0.5129(6)
C3 C 0.3905(6) 0.6868(3) 0.5200(6)
C4 C 0.3857(7) 0.7353(4) 0.4625(7)
C5 C 0.2836(7) 0.7661(4) 0.4017(7)
C6 C 0.1830(6) 0.7498(3) 0.3960(6)
C7 C 0.1869(6) 0.7007(3) 0.4521(6)
C8 C 0.0771(7) 0.7833(4) 0.3235(7)
C9 C -0.1359(7) 0.7996(3) 0.2772(7)
C10 C -0.2228(6) 0.8214(3) 0.3325(6)
C11 C -0.3341(7) 0.8387(3) 0.2686(7)
C12 C -0.3583(7) 0.8322(4) 0.1517(7)
C13 C -0.2676(8) 0.8105(4) 0.1014(7)
C14 C -0.1566(7) 0.7938(3) 0.1607(7)
C15 C -0.5089(7) 0.9111(4) 0.2995(7)
C16 C -0.5730(7) 0.9385(4) 0.3878(7)
C17 C -0.6226(7) 1.0008(4) 0.3928(8)
C18 C -0.6795(7) 1.0288(4) 0.4742(8)
C19 C -0.6878(7) 0.9954(4) 0.5547(7)
C20 C -0.6409(6) 0.9333(4) 0.5507(7)
C21 C -0.5843(7) 0.9047(3) 0.4681(7)
C22 C -0.6586(7) 0.8987(4) 0.6356(7)
C23 C -0.5855(6) 0.8035(3) 0.7288(7)
C24 C -0.6905(6) 0.7907(3) 0.7269(7)
C25 C -0.6879(7) 0.7441(4) 0.7866(7)
C26 C -0.5892(7) 0.7109(4) 0.8489(7)
C27 C -0.4860(7) 0.7245(3) 0.8503(6)
C28 C -0.4840(6) 0.7698(3) 0.7888(7)
C29 C -0.3623(7) 0.6721(4) 1.0142(8)
C30 C -0.2393(7) 0.6510(3) 1.0739(7)
C31 C -0.1556(7) 0.6229(3) 1.0152(6)
C32 C -0.0414(7) 0.6076(3) 1.0766(7)
C33 C -0.0154(7) 0.6179(4) 1.1926(7)
C34 C -0.0998(8) 0.6439(4) 1.2490(7)
C35 C -0.2105(7) 0.6599(3) 1.1896(7)
C36 C 0.0516(7) 0.5766(4) 1.0178(7)
C37 C 0.1157(6) 0.5669(4) 0.8436(6)
C38 C 0.1739(7) 0.5066(4) 0.8410(7)
C39 C 0.2477(7) 0.4854(3) 0.7722(7)
C40 C 0.2636(7) 0.5224(3) 0.7019(6)
C41 C 0.2038(6) 0.5824(3) 0.7013(6)
C42 C 0.1306(6) 0.6052(3) 0.7727(7)
C43 C 0.4122(7) 0.5298(4) 0.2278(8)
C44 C 0.4012(8) 0.4681(4) 0.1668(8)
C45 C 0.3897(9) 0.5685(4) 0.0457(7)
C46 C 0.4164(10) 0.6338(5) 0.2245(8)
C47 C 0.2597(13) 0.4437(6) 0.4314(9)
C48 C 0.1737(9) 0.4988(5) 0.3703(9)
C49 C 0.0938(8) 0.4136(5) 0.4430(10)
C50 C 0.2973(9) 0.3543(5) 0.5116(9)
H1 H 0.1460 0.6559 0.6112
H2 H 0.4607 0.6652 0.5620
H3 H 0.4538 0.7473 0.4647
H4 H 0.2810 0.7997 0.3630
H5 H 0.1174 0.6895 0.4482
H6 H -0.0184 0.7643 0.4149
H7 H -0.2055 0.8231 0.4126
H8 H -0.4346 0.8427 0.1083
H9 H -0.2846 0.8074 0.0205
H10 H -0.0965 0.7787 0.1222
H11 H -0.4154 0.8444 0.3943
H12 H -0.6181 1.0239 0.3375
H13 H -0.7118 1.0716 0.4764
H14 H -0.7270 1.0148 0.6114
H15 H -0.5539 0.8618 0.4642
H16 H -0.5132 0.8375 0.6306
H17 H -0.7599 0.8129 0.6840
H18 H -0.7581 0.7345 0.7848
H19 H -0.5908 0.6798 0.8913
H20 H -0.4131 0.7763 0.7852
H21 H -0.3161 0.6873 0.8804
H22 H -0.1751 0.6149 0.9352
H23 H 0.0610 0.6059 1.2347
H24 H -0.0812 0.6521 1.3290
H25 H -0.2696 0.6775 1.2291
H26 H -0.0274 0.6218 0.8823
H27 H 0.1616 0.4807 0.8870
H28 H 0.2885 0.4442 0.7728
H29 H 0.3160 0.5068 0.6556
H30 H 0.0890 0.6461 0.7719
H31 H 0.4735 0.4433 0.1608
H32 H 0.3509 0.4725 0.0946
H33 H 0.3704 0.4484 0.2098
H34 H 0.3132 0.5646 0.0104
H35 H 0.4412 0.5339 0.0201
H36 H 0.4004 0.6044 0.0236
H37 H 0.4477 0.6550 0.1855
H38 H 0.4617 0.6304 0.3002
H39 H 0.3421 0.6568 0.2282
H40 H 0.2145 0.5229 0.3483
H41 H 0.1306 0.5235 0.4203
H42 H 0.1237 0.4834 0.3042
H43 H 0.0761 0.4242 0.5155
H44 H 0.0774 0.3749 0.4114
H45 H 0.0511 0.4429 0.3923
H46 H 0.3451 0.3681 0.5815
H47 H 0.3420 0.3312 0.4625
H48 H 0.2539 0.3294 0.5276
O1A O 0.6198(4) 0.4245(2) 0.4106(4)
C1A C 0.7052(7) 0.3811(3) 0.4208(6)
N1A N 0.7892(5) 0.3767(2) 0.3716(5)
C41A C 0.7962(6) 0.4176(3) 0.2987(6)
C40A C 0.7364(7) 0.4776(3) 0.2981(6)
C39A C 0.7523(7) 0.5146(3) 0.2278(7)
C38A C 0.8261(7) 0.4934(4) 0.1590(7)
C37A C 0.8843(6) 0.4331(4) 0.1564(6)
N11A N 0.9615(5) 0.4081(3) 0.0877(5)
C36A C 0.9484(7) 0.4234(4) -0.0178(7)
O11A O 0.8649(5) 0.4594(3) -0.0654(5)
C32A C 1.0414(7) 0.3924(3) -0.0766(7)
C31A C 1.1556(7) 0.3771(3) -0.0152(6)
C30A C 1.2393(7) 0.3490(3) -0.0739(7)
C29A C 1.3623(7) 0.3279(4) -0.0142(8)
O10A O 1.4391(5) 0.3289(3) -0.0571(5)
N10A N 1.3799(5) 0.3070(3) 0.0883(5)
C27A C 1.4860(7) 0.2755(3) 0.1497(6)
C26A C 1.5892(7) 0.2891(4) 0.1511(7)
C25A C 1.6879(7) 0.2559(4) 0.2134(7)
C24A C 1.6905(6) 0.2093(3) 0.2731(7)
C23A C 1.5855(6) 0.1965(3) 0.2712(7)
N9A N 1.5790(5) 0.1533(3) 0.3396(5)
C22A C 1.6586(7) 0.1013(4) 0.3644(7)
O9A O 1.7416(5) 0.0825(3) 0.3230(5)
C20A C 1.6409(6) 0.0667(4) 0.4493(7)
C19A C 1.6878(7) 0.0046(4) 0.4453(7)
C18A C 1.6795(7) -0.0288(4) 0.5258(8)
C17A C 1.6226(7) -0.0008(4) 0.6072(8)
C16A C 1.5730(7) 0.0615(4) 0.6122(7)
C15A C 1.5089(7) 0.0889(4) 0.7005(7)
O8A O 1.5343(5) 0.0678(3) 0.7918(5)
N8A N 1.4201(5) 0.1370(3) 0.6709(5)
C11A C 1.3341(7) 0.1613(3) 0.7314(7)
C10A C 1.2228(6) 0.1786(3) 0.6675(6)
C9A C 1.1359(7) 0.2004(3) 0.7228(7)
N7A N 1.0224(5) 0.2202(3) 0.6536(5)
C8A C 0.9229(7) 0.2167(4) 0.6765(7)
O7A O 0.9229(5) 0.1884(2) 0.7514(5)
C6A C 0.8170(6) 0.2502(3) 0.6040(6)
C5A C 0.7164(7) 0.2339(4) 0.5983(7)
C4A C 0.6143(7) 0.2647(4) 0.5375(7)
C3A C 0.6095(6) 0.3132(3) 0.4800(6)
C2A C 0.7133(6) 0.3297(3) 0.4871(6)
C7A C 0.8131(6) 0.2993(3) 0.5479(6)
H5A H 0.8826 0.3105 0.5518
H2A H 0.5393 0.3348 0.4380
H3A H 0.5462 0.2527 0.5353
H4A H 0.7190 0.2003 0.6370
H6A H 1.0184 0.2357 0.5851
C14A C 1.1566(7) 0.2062(3) 0.8393(7)
C13A C 1.2676(8) 0.1895(4) 0.8986(7)
C12A C 1.3583(7) 0.1678(4) 0.8483(7)
H8A H 1.4346 0.1573 0.8917
H9A H 1.2846 0.1926 0.9795
H10A H 1.0965 0.2213 0.8778
H7A H 1.2055 0.1769 0.5874
H11A H 1.4154 0.1556 0.6057
C21A C 1.5843(7) 0.0953(3) 0.5319(7)
H15A H 1.5539 0.1382 0.5358
H12A H 1.6181 -0.0239 0.6625
H13A H 1.7118 -0.0716 0.5236
H14A H 1.7270 -0.0148 0.3886
H16A H 1.5132 0.1625 0.3694
C28A C 1.4840(6) 0.2302(3) 0.2112(7)
H20A H 1.4131 0.2237 0.2148
H17A H 1.7599 0.1871 0.3160
H18A H 1.7581 0.2655 0.2152
H19A H 1.5908 0.3202 0.1087
H21A H 1.3161 0.3127 0.1196
C35A C 1.2105(7) 0.3401(3) -0.1896(7)
C34A C 1.0998(8) 0.3561(4) -0.2490(7)
C33A C 1.0154(7) 0.3821(4) -0.1926(7)
H23A H 0.9390 0.3941 -0.2347
H24A H 1.0812 0.3479 -0.3290
H25A H 1.2696 0.3225 -0.2291
H22A H 1.1751 0.3851 0.0648
H26A H 1.0274 0.3782 0.1177
C42A C 0.8694(6) 0.3948(3) 0.2273(7)
H30A H 0.9110 0.3539 0.2281
H27A H 0.8384 0.5193 0.1130
H28A H 0.7115 0.5558 0.2272
H29A H 0.6840 0.4932 0.3444
H1A H 0.8540 0.3441 0.3888
O2A O 0.5740(5) 0.4601(2) 0.6675(5)
C43A C 0.5878(7) 0.4702(4) 0.7722(8)
N2A N 0.5914(6) 0.4267(3) 0.8334(6)
C45A C 0.6103(9) 0.4315(4) 0.9543(7)
H34A H 0.6868 0.4354 0.9896
H35A H 0.5588 0.4661 0.9799
H36A H 0.5996 0.3956 0.9764
C46A C 0.5836(10) 0.3662(5) 0.7755(8)
H37A H 0.5523 0.3450 0.8145
H38A H 0.5383 0.3696 0.6998
H39A H 0.6579 0.3432 0.7718
C44A C 0.5988(8) 0.5319(4) 0.8332(8)
H31A H 0.5265 0.5567 0.8392
H32A H 0.6491 0.5275 0.9054
H33A H 0.6296 0.5516 0.7902
O3A O 0.6324(5) 0.5594(3) 0.5473(5)
C47A C 0.7403(13) 0.5563(6) 0.5686(9)
N3A N 0.7822(8) 0.5913(5) 0.5441(8)
C49A C 0.9062(8) 0.5864(5) 0.5570(10)
H43A H 0.9239 0.5758 0.4845
H44A H 0.9226 0.6251 0.5886
H45A H 0.9489 0.5571 0.6077
C50A C 0.7027(9) 0.6457(5) 0.4884(9)
H46A H 0.6549 0.6319 0.4185
H47A H 0.6580 0.6688 0.5375
H48A H 0.7461 0.6706 0.4724
C48A C 0.8263(9) 0.5012(5) 0.6297(9)
H40A H 0.7855 0.4771 0.6517
H41A H 0.8694 0.4765 0.5797
H42A H 0.8763 0.5166 0.6958
Ca2 Ca -0.1299(1) 0.8066(1) 0.7501(1)
Cl1 Cl -0.3326(2) 0.8184(1) 0.5885(2)
Cl2 Cl -0.0129(2) 0.7382(1) 0.5961(2)
Cl3 Cl -0.1639(2) 0.7058(1) 0.8150(2)
O4 O -0.1023(5) 0.8989(3) 0.7213(5)
O5 O 0.0422(6) 0.8043(3) 0.8792(6)
O6 O -0.2187(5) 0.8682(3) 0.8806(5)
N4 N -0.0758(6) 0.9901(4) 0.7081(6)
N5 N 0.1961(8) 0.8269(4) 0.9970(7)
N6 N -0.2501(12) 0.9402(5) 1.0142(10)
C51 C -0.0661(7) 0.9319(4) 0.6747(8)
C52 C -0.0133(7) 0.9060(4) 0.5773(8)
C53 C -0.0456(10) 1.0312(5) 0.6491(9)
C54 C -0.1332(8) 1.0162(4) 0.8005(8)
C55 C 0.1252(10) 0.7925(5) 0.9608(10)
C56 C 0.1494(9) 0.7351(5) 1.0166(8)
C57 C 0.3037(9) 0.8127(6) 1.0894(10)
C58 C 0.1795(10) 0.8821(5) 0.9400(10)
C59 C -0.2697(14) 0.9099(6) 0.9347(11)
C60 C -0.4092(9) 0.9257(5) 0.8877(11)
C61 C -0.3097(12) 0.9845(5) 1.0875(11)
C62 C -0.1126(12) 0.9221(6) 1.0600(11)
H49 H -0.0140 0.9378 0.5356
H50 H -0.0543 0.8780 0.5282
H51 H 0.0632 0.8852 0.6048
H52 H -0.0893 1.0315 0.5729
H53 H 0.0330 1.0166 0.6468
H54 H -0.0546 1.0713 0.6865
H55 H -0.0988 0.9931 0.8639
H56 H -0.2111 1.0141 0.7746
H57 H -0.1284 1.0575 0.8204
H58 H 0.1297 0.7034 0.9597
H59 H 0.1057 0.7406 1.0710
H60 H 0.2286 0.7242 1.0501
H61 H 0.3501 0.7749 1.0669
H62 H 0.2844 0.8117 1.1581
H63 H 0.3422 0.8448 1.0975
H64 H 0.1724 0.9163 0.9938
H65 H 0.1106 0.8849 0.8812
H66 H 0.2435 0.8783 0.9100
H67 H -0.4410 0.8998 0.9177
H68 H -0.4264 0.9177 0.8072
H69 H -0.4387 0.9675 0.9072
H70 H -0.3399 0.9639 1.1289
H71 H -0.3696 1.0126 1.0412
H72 H -0.2583 1.0063 1.1374
H73 H -0.0923 0.8934 1.1131
H74 H -0.0868 0.9589 1.0931
H75 H -0.0806 0.9063 0.9968
loop_
_geom_bond_atom_site_label_1
_geom_bond_atom_site_label_2
_geom_bond_site_symmetry_1
_geom_bond_site_symmetry_2
Ca1 O1 1_555 1_555
Ca2 Cl1 1_555 1_555
Cl2 Ca2 1_555 1_555
Cl3 Ca2 1_555 1_555
O1 C1 1_555 1_555
O2 Ca1 1_555 1_555
O3 Ca1 1_555 1_555
O4 Ca2 1_555 1_555
O5 Ca2 1_555 1_555
O6 Ca2 1_555 1_555
O7 C8 1_555 1_555
O8 C15 1_555 1_555
O9 C22 1_555 1_555
O10 C29 1_555 1_555
O11 C36 1_555 1_555
N1 C1 1_555 1_555
N2 C43 1_555 1_555
N3 C47 1_555 1_555
N4 C51 1_555 1_555
N5 C55 1_555 1_555
N6 C59 1_555 1_555
N7 C8 1_555 1_555
N8 C11 1_555 1_555
N9 C22 1_555 1_555
N10 C27 1_555 1_555
N11 C36 1_555 1_555
C1 C2 1_555 1_555
C2 C3 1_555 1_555
C3 C4 1_555 1_555
C4 C5 1_555 1_555
C5 C6 1_555 1_555
C6 C7 1_555 1_555
C7 C2 1_555 1_555
C8 C6 1_555 1_555
C9 N7 1_555 1_555
C10 C9 1_555 1_555
C11 C10 1_555 1_555
C12 C11 1_555 1_555
C13 C12 1_555 1_555
C14 C9 1_555 1_555
C15 N8 1_555 1_555
C16 C15 1_555 1_555
C17 C16 1_555 1_555
C18 C17 1_555 1_555
C19 C18 1_555 1_555
C20 C19 1_555 1_555
C21 C16 1_555 1_555
C22 C20 1_555 1_555
C23 N9 1_555 1_555
C24 C23 1_555 1_555
C25 C24 1_555 1_555
C26 C25 1_555 1_555
C27 C26 1_555 1_555
C28 C23 1_555 1_555
C29 N10 1_555 1_555
C30 C29 1_555 1_555
C31 C30 1_555 1_555
C32 C31 1_555 1_555
C33 C32 1_555 1_555
C34 C33 1_555 1_555
C35 C30 1_555 1_555
C36 C32 1_555 1_555
C37 N11 1_555 1_555
C38 C37 1_555 1_555
C39 C38 1_555 1_555
C40 C39 1_555 1_555
C41 N1 1_555 1_555
C42 C37 1_555 1_555
C43 O2 1_555 1_555
C44 C43 1_555 1_555
C45 N2 1_555 1_555
C46 N2 1_555 1_555
C47 O3 1_555 1_555
C48 C47 1_555 1_555
C49 N3 1_555 1_555
C50 N3 1_555 1_555
C51 O4 1_555 1_555
C52 C51 1_555 1_555
C53 N4 1_555 1_555
C54 N4 1_555 1_555
C55 O5 1_555 1_555
C56 C55 1_555 1_555
C57 N5 1_555 1_555
C58 N5 1_555 1_555
C59 O6 1_555 1_555
C60 C59 1_555 1_555
C61 N6 1_555 1_555
C62 N6 1_555 1_555
H1 N1 1_555 1_555
H2 C3 1_555 1_555
H3 C4 1_555 1_555
H4 C5 1_555 1_555
H5 C7 1_555 1_555
H6 N7 1_555 1_555
H7 C10 1_555 1_555
H8 C12 1_555 1_555
H9 C13 1_555 1_555
H10 C14 1_555 1_555
H11 N8 1_555 1_555
H12 C17 1_555 1_555
H13 C18 1_555 1_555
H14 C19 1_555 1_555
H15 C21 1_555 1_555
H16 N9 1_555 1_555
H17 C24 1_555 1_555
H18 C25 1_555 1_555
H19 C26 1_555 1_555
H20 C28 1_555 1_555
H21 N10 1_555 1_555
H22 C31 1_555 1_555
H23 C33 1_555 1_555
H24 C34 1_555 1_555
H25 C35 1_555 1_555
H26 N11 1_555 1_555
H27 C38 1_555 1_555
H28 C39 1_555 1_555
H29 C40 1_555 1_555
H30 C42 1_555 1_555
H31 C44 1_555 1_555
H32 C44 1_555 1_555
H33 C44 1_555 1_555
H34 C45 1_555 1_555
H35 C45 1_555 1_555
H36 C45 1_555 1_555
H37 C46 1_555 1_555
H38 C46 1_555 1_555
H39 C46 1_555 1_555
H40 C48 1_555 1_555
H41 C48 1_555 1_555
H42 C48 1_555 1_555
H43 C49 1_555 1_555
H44 C49 1_555 1_555
H45 C49 1_555 1_555
H46 C50 1_555 1_555
H47 C50 1_555 1_555
H48 C50 1_555 1_555
H49 C52 1_555 1_555
H50 C52 1_555 1_555
H51 C52 1_555 1_555
H52 C53 1_555 1_555
H53 C53 1_555 1_555
H54 C53 1_555 1_555
H55 C54 1_555 1_555
H56 C54 1_555 1_555
H57 C54 1_555 1_555
H58 C56 1_555 1_555
H59 C56 1_555 1_555
H60 C56 1_555 1_555
H61 C57 1_555 1_555
H62 C57 1_555 1_555
H63 C57 1_555 1_555
H64 C58 1_555 1_555
H65 C58 1_555 1_555
H66 C58 1_555 1_555
H67 C60 1_555 1_555
H68 C60 1_555 1_555
H69 C60 1_555 1_555
H70 C61 1_555 1_555
H71 C61 1_555 1_555
H72 C61 1_555 1_555
H73 C62 1_555 1_555
H74 C62 1_555 1_555
H75 C62 1_555 1_555
O1A Ca1 1_555 1_555
C1A O1A 1_555 1_555
N1A C1A 1_555 1_555
C41A N1A 1_555 1_555
C40A C41A 1_555 1_555
C39A C40A 1_555 1_555
C38A C39A 1_555 1_555
C37A C38A 1_555 1_555
N11A C37A 1_555 1_555
C36A N11A 1_555 1_555
O11A C36A 1_555 1_555
C32A C36A 1_555 1_555
C31A C32A 1_555 1_555
C30A C31A 1_555 1_555
C29A C30A 1_555 1_555
O10A C29A 1_555 1_555
N10A C29A 1_555 1_555
C27A N10A 1_555 1_555
C26A C27A 1_555 1_555
C25A C26A 1_555 1_555
C24A C25A 1_555 1_555
C23A C24A 1_555 1_555
N9A C23A 1_555 1_555
C22A N9A 1_555 1_555
O9A C22A 1_555 1_555
C20A C22A 1_555 1_555
C19A C20A 1_555 1_555
C18A C19A 1_555 1_555
C17A C18A 1_555 1_555
C16A C17A 1_555 1_555
C15A C16A 1_555 1_555
O8A C15A 1_555 1_555
N8A C15A 1_555 1_555
C11A N8A 1_555 1_555
C10A C11A 1_555 1_555
C9A C10A 1_555 1_555
N7A C9A 1_555 1_555
C8A N7A 1_555 1_555
O7A C8A 1_555 1_555
C6A C8A 1_555 1_555
C5A C6A 1_555 1_555
C4A C5A 1_555 1_555
C3A C4A 1_555 1_555
C2A C1A 1_555 1_555
C7A C6A 1_555 1_555
H5A C7A 1_555 1_555
H2A C3A 1_555 1_555
H3A C4A 1_555 1_555
H4A C5A 1_555 1_555
H6A N7A 1_555 1_555
C14A C9A 1_555 1_555
C13A C14A 1_555 1_555
C12A C11A 1_555 1_555
H8A C12A 1_555 1_555
H9A C13A 1_555 1_555
H10A C14A 1_555 1_555
H7A C10A 1_555 1_555
H11A N8A 1_555 1_555
C21A C20A 1_555 1_555
H15A C21A 1_555 1_555
H12A C17A 1_555 1_555
H13A C18A 1_555 1_555
H14A C19A 1_555 1_555
H16A N9A 1_555 1_555
C28A C27A 1_555 1_555
H20A C28A 1_555 1_555
H17A C24A 1_555 1_555
H18A C25A 1_555 1_555
H19A C26A 1_555 1_555
H21A N10A 1_555 1_555
C35A C30A 1_555 1_555
C34A C35A 1_555 1_555
C33A C32A 1_555 1_555
H23A C33A 1_555 1_555
H24A C34A 1_555 1_555
H25A C35A 1_555 1_555
H22A C31A 1_555 1_555
H26A N11A 1_555 1_555
C42A C41A 1_555 1_555
H30A C42A 1_555 1_555
H27A C38A 1_555 1_555
H28A C39A 1_555 1_555
H29A C40A 1_555 1_555
H1A N1A 1_555 1_555
O2A Ca1 1_555 1_555
C43A O2A 1_555 1_555
N2A C43A 1_555 1_555
C45A N2A 1_555 1_555
H34A C45A 1_555 1_555
H35A C45A 1_555 1_555
H36A C45A 1_555 1_555
C46A N2A 1_555 1_555
H37A C46A 1_555 1_555
H38A C46A 1_555 1_555
H39A C46A 1_555 1_555
C44A C43A 1_555 1_555
H31A C44A 1_555 1_555
H32A C44A 1_555 1_555
H33A C44A 1_555 1_555
O3A Ca1 1_555 1_555
C47A O3A 1_555 1_555
N3A C47A 1_555 1_555
C49A N3A 1_555 1_555
H43A C49A 1_555 1_555
H44A C49A 1_555 1_555
H45A C49A 1_555 1_555
C50A N3A 1_555 1_555
H46A C50A 1_555 1_555
H47A C50A 1_555 1_555
H48A C50A 1_555 1_555
C48A C47A 1_555 1_555
H40A C48A 1_555 1_555
H41A C48A 1_555 1_555
H42A C48A 1_555 1_555
C13 C14 1_555 1_555
C20 C21 1_555 1_555
C27 C28 1_555 1_555
C34 C35 1_555 1_555
C40 C41 1_555 1_555
C41 C42 1_555 1_555
C37A C42A 1_555 1_555
C23A C28A 1_555 1_555
C16A C21A 1_555 1_555
C3A C2A 1_555 1_555
C2A C7A 1_555 1_555
C13A C12A 1_555 1_555
C34A C33A 1_555 1_555

#END
