
#######################################################################
#
#                 Cambridge Crystallographic Data Centre
#                                CCDC 
#
#######################################################################
#
# If this CIF has been generated from an entry in the Cambridge 
# Structural Database, then it will include bibliographic, chemical, 
# crystal, experimental, refinement or atomic coordinate data resulting 
# from the CCDC's data processing and validation procedures.
#
#######################################################################

data_ZOWVIS
_chemical_formula_moiety         'C22 H22 Cl1 N3 O5'
_chemical_name_systematic        
'2-((isopropylideneamino)oxy)ethyl 2-(4-((6-chloroquinoxalin-2-yl)oxy)phenoxy)propanoate'
_symmetry_cell_setting           monoclinic
_symmetry_space_group_name_H-M   'P 21'
_symmetry_Int_Tables_number      4
_space_group_name_Hall           'P 2yb'
loop_
_symmetry_equiv_pos_site_id
_symmetry_equiv_pos_as_xyz
1 x,y,z
2 -x,1/2+y,-z
_cell_length_a                   4.6205(2)
_cell_length_b                   21.9423(10)
_cell_length_c                   21.1737(10)
_cell_angle_alpha                90
_cell_angle_beta                 93.263(2)
_cell_angle_gamma                90
_cell_volume                     2143.2
_exptl_crystal_colour            colorless
_exptl_crystal_description       Needle
_cell_formula_units_Z            4
loop_
_atom_site_label
_atom_site_type_symbol
_atom_site_fract_x
_atom_site_fract_y
_atom_site_fract_z
Cl1 Cl 0.8646(2) 0.58056(5) -0.01482(4)
O1 O -0.0906(5) 0.62880(10) 0.75631(10)
O2 O 0.1079(5) 0.64050(10) 0.62762(10)
O3 O -0.2656(5) 0.63233(11) 0.55516(10)
O4 O -0.0116(6) 0.53477(11) 0.49904(10)
O5 O -0.0140(6) 0.67388(11) 0.28083(10)
N1 N -0.0042(7) 0.67417(13) 0.80229(13)
N2 N 0.2541(6) 0.60906(13) 0.22060(12)
N3 N 0.2624(7) 0.70563(13) 0.13081(13)
C1 C 0.2912(9) 0.58894(17) 0.84480(18)
H1 H 0.1313 0.5597 0.8463
H2 H 0.4244 0.5834 0.8821
H3 H 0.3954 0.5821 0.8064
C2 C 0.1739(8) 0.65195(16) 0.84430(16)
C3 C 0.2718(9) 0.69528(17) 0.89626(16)
H4 H 0.1748 0.7346 0.8894
H5 H 0.4821 0.7009 0.8960
H6 H 0.2222 0.6785 0.9372
C4 C -0.2490(8) 0.65898(18) 0.70522(16)
H7 H -0.3731 0.6910 0.7226
H8 H -0.3770 0.6292 0.6823
C5 C -0.0510(8) 0.68746(16) 0.65971(16)
H9 H -0.1664 0.7120 0.6281
H10 H 0.0873 0.7150 0.6829
C6 C -0.0370(8) 0.61396(16) 0.57733(15)
C7 C 0.1219(8) 0.55835(15) 0.55631(15)
H11 H 0.3296 0.5684 0.5504
C8 C 0.1005(10) 0.50749(17) 0.60594(16)
H12 H -0.1038 0.4994 0.6129
H13 H 0.2005 0.5203 0.6458
H14 H 0.1912 0.4703 0.5907
C9 C 0.0115(8) 0.56995(15) 0.44475(15)
C10 C -0.1660(8) 0.55205(16) 0.39339(16)
H15 H -0.2871 0.5173 0.3964
C11 C -0.1670(8) 0.58495(17) 0.33742(16)
H16 H -0.2895 0.5732 0.3019
C12 C 0.0091(8) 0.63397(16) 0.33417(15)
C13 C 0.1930(8) 0.65152(18) 0.38381(16)
H17 H 0.3166 0.6858 0.3799
C14 C 0.1968(8) 0.61839(16) 0.44033(16)
H18 H 0.3257 0.6293 0.4751
C15 C 0.1284(8) 0.66053(16) 0.22798(15)
C16 C 0.3954(7) 0.60351(15) 0.16469(15)
C17 C 0.5290(8) 0.54843(15) 0.15090(16)
H19 H 0.5228 0.5155 0.1800
C18 C 0.6692(8) 0.54103(17) 0.09599(16)
H20 H 0.7572 0.5032 0.0866
C19 C 0.6801(8) 0.59032(17) 0.05409(15)
C20 C 0.5540(8) 0.64459(17) 0.06578(16)
H21 H 0.5678 0.6775 0.0369
C21 C 0.4019(7) 0.65187(16) 0.12123(15)
C22 C 0.1234(8) 0.70974(17) 0.18315(15)
H22 H 0.0181 0.7458 0.1915
Cl2 Cl -0.2992(2) 0.91749(4) -0.39805(4)
O6 O 0.6212(6) 0.84357(11) 0.39165(11)
O7 O 0.3833(5) 0.83763(10) 0.25968(10)
O8 O 0.7468(5) 0.84570(11) 0.19415(10)
O9 O 0.4940(5) 0.94441(10) 0.13532(10)
O10 O 0.6648(5) 0.82773(10) -0.09140(10)
N4 N 0.5470(7) 0.79627(13) 0.43496(13)
N5 N 0.3225(6) 0.88493(13) -0.14960(12)
N6 N 0.4407(7) 0.80739(13) -0.25283(14)
C23 C 0.2920(10) 0.77216(18) 0.52389(18)
H23 H 0.3871 0.7331 0.5164
H24 H 0.0812 0.7666 0.5207
H25 H 0.3522 0.7871 0.5662
C24 C 0.3764(8) 0.81741(17) 0.47554(17)
C25 C 0.2581(9) 0.88020(18) 0.47602(18)
H26 H 0.4160 0.9095 0.4721
H27 H 0.1652 0.8873 0.5158
H28 H 0.1149 0.8853 0.4405
C26 C 0.7593(8) 0.81513(19) 0.34125(16)
H29 H 0.8859 0.7819 0.3583
H30 H 0.8828 0.8453 0.3207
C27 C 0.5417(8) 0.78956(17) 0.29305(16)
H31 H 0.6428 0.7643 0.2624
H32 H 0.4042 0.7630 0.3144
C28 C 0.5173(7) 0.86318(16) 0.21119(15)
C29 C 0.3410(7) 0.91649(16) 0.18402(14)
H33 H 0.1471 0.9020 0.1668
C30 C 0.3044(9) 0.96437(17) 0.23452(17)
H34 H 0.4955 0.9787 0.2506
H35 H 0.2015 0.9466 0.2693
H36 H 0.1926 0.9987 0.2163
C31 C 0.5158(8) 0.91335(16) 0.07887(15)
C32 C 0.6921(9) 0.93993(17) 0.03696(16)
H37 H 0.7851 0.9774 0.0477
C33 C 0.7369(9) 0.91307(18) -0.02070(16)
H38 H 0.8607 0.9316 -0.0495
C34 C 0.6009(8) 0.85980(16) -0.03539(15)
C35 C 0.4212(9) 0.83233(18) 0.00528(17)
H39 H 0.3267 0.7952 -0.0062
C36 C 0.3778(9) 0.85927(18) 0.06367(17)
H40 H 0.2550 0.8406 0.0925
C37 C 0.5101(8) 0.84137(16) -0.14593(15)
C38 C 0.1798(7) 0.89193(15) -0.20807(15)
C39 C -0.0240(8) 0.93925(15) -0.21804(15)
H41 H -0.0634 0.9656 -0.1840
C40 C -0.1663(8) 0.94788(16) -0.27590(16)
H42 H -0.2995 0.9806 -0.2825
C41 C -0.1115(7) 0.90744(16) -0.32525(14)
C42 C 0.0835(8) 0.86119(15) -0.31783(15)
H43 H 0.1156 0.8344 -0.3520
C43 C 0.2374(7) 0.85328(14) -0.25905(15)
C44 C 0.5739(8) 0.80277(16) -0.19749(16)
H44 H 0.7195 0.7725 -0.1910
loop_
_geom_bond_atom_site_label_1
_geom_bond_atom_site_label_2
_geom_bond_site_symmetry_1
_geom_bond_site_symmetry_2
Cl1 C19 1_555 1_555
O1 N1 1_555 1_555
O2 C5 1_555 1_555
O3 C6 1_555 1_555
O4 C7 1_555 1_555
O5 C12 1_555 1_555
N1 C2 1_555 1_555
N2 C15 1_555 1_555
N3 C21 1_555 1_555
C1 H1 1_555 1_555
H2 C1 1_555 1_555
H3 C1 1_555 1_555
C2 C1 1_555 1_555
C3 C2 1_555 1_555
H4 C3 1_555 1_555
H5 C3 1_555 1_555
H6 C3 1_555 1_555
C4 O1 1_555 1_555
H7 C4 1_555 1_555
H8 C4 1_555 1_555
C5 C4 1_555 1_555
H9 C5 1_555 1_555
H10 C5 1_555 1_555
C6 O2 1_555 1_555
C7 C6 1_555 1_555
H11 C7 1_555 1_555
C8 C7 1_555 1_555
H12 C8 1_555 1_555
H13 C8 1_555 1_555
H14 C8 1_555 1_555
C9 O4 1_555 1_555
C10 C9 1_555 1_555
H15 C10 1_555 1_555
C11 C10 1_555 1_555
H16 C11 1_555 1_555
C12 C11 1_555 1_555
C13 C12 1_555 1_555
H17 C13 1_555 1_555
C14 C9 1_555 1_555
H18 C14 1_555 1_555
C15 O5 1_555 1_555
C16 N2 1_555 1_555
C17 C16 1_555 1_555
H19 C17 1_555 1_555
C18 C17 1_555 1_555
H20 C18 1_555 1_555
C19 C18 1_555 1_555
C20 C19 1_555 1_555
H21 C20 1_555 1_555
C21 C16 1_555 1_555
C22 N3 1_555 1_555
H22 C22 1_555 1_555
Cl2 C41 1_555 1_555
O6 N4 1_555 1_555
O7 C27 1_555 1_555
O8 C28 1_555 1_555
O9 C29 1_555 1_555
O10 C34 1_555 1_555
N4 C24 1_555 1_555
N5 C37 1_555 1_555
N6 C43 1_555 1_555
C23 H23 1_555 1_555
H24 C23 1_555 1_555
H25 C23 1_555 1_555
C24 C23 1_555 1_555
C25 C24 1_555 1_555
H26 C25 1_555 1_555
H27 C25 1_555 1_555
H28 C25 1_555 1_555
C26 O6 1_555 1_555
H29 C26 1_555 1_555
H30 C26 1_555 1_555
C27 C26 1_555 1_555
H31 C27 1_555 1_555
H32 C27 1_555 1_555
C28 O7 1_555 1_555
C29 C28 1_555 1_555
H33 C29 1_555 1_555
C30 C29 1_555 1_555
H34 C30 1_555 1_555
H35 C30 1_555 1_555
H36 C30 1_555 1_555
C31 O9 1_555 1_555
C32 C31 1_555 1_555
H37 C32 1_555 1_555
C33 C32 1_555 1_555
H38 C33 1_555 1_555
C34 C33 1_555 1_555
C35 C34 1_555 1_555
H39 C35 1_555 1_555
C36 C31 1_555 1_555
H40 C36 1_555 1_555
C37 O10 1_555 1_555
C38 N5 1_555 1_555
C39 C38 1_555 1_555
H41 C39 1_555 1_555
C40 C39 1_555 1_555
H42 C40 1_555 1_555
C41 C40 1_555 1_555
C42 C41 1_555 1_555
H43 C42 1_555 1_555
C43 C38 1_555 1_555
C44 N6 1_555 1_555
H44 C44 1_555 1_555
C13 C14 1_555 1_555
C15 C22 1_555 1_555
C20 C21 1_555 1_555
C35 C36 1_555 1_555
C37 C44 1_555 1_555
C42 C43 1_555 1_555

#END
