
#######################################################################
#
#                 Cambridge Crystallographic Data Centre
#                                CCDC 
#
#######################################################################
#
# If this CIF has been generated from an entry in the Cambridge 
# Structural Database, then it will include bibliographic, chemical, 
# crystal, experimental, refinement or atomic coordinate data resulting 
# from the CCDC's data processing and validation procedures.
#
#######################################################################

data_ZOWYOB
_chemical_formula_moiety         'C29 H57 N1 S2 Si5'
_chemical_name_systematic        
N-(2,6-diisopropylphenyl)-5,5,8,8-tetrakis(trimethylsilyl)-1,3-dithia-4-silaspiro[3.4]octan-2-imine
_symmetry_cell_setting           triclinic
_symmetry_space_group_name_H-M   'P -1'
_symmetry_Int_Tables_number      2
_space_group_name_Hall           '-P 1'
loop_
_symmetry_equiv_pos_site_id
_symmetry_equiv_pos_as_xyz
1 x,y,z
2 -x,-y,-z
_cell_length_a                   11.323(2)
_cell_length_b                   11.883(2)
_cell_length_c                   15.335(3)
_cell_angle_alpha                77.249(3)
_cell_angle_beta                 68.794(3)
_cell_angle_gamma                74.553(3)
_cell_volume                     1836.29
_exptl_crystal_colour            colorless
_exptl_crystal_description       block
_cell_formula_units_Z            2
loop_
_atom_site_label
_atom_site_type_symbol
_atom_site_fract_x
_atom_site_fract_y
_atom_site_fract_z
S1 S 0.14713(6) 0.49553(5) 0.38192(4)
S2 S 0.29128(6) 0.53568(5) 0.18166(4)
Si1 Si 0.25261(6) 0.37581(6) 0.27789(5)
Si2 Si 0.01795(7) 0.24467(7) 0.37565(5)
Si3 Si 0.08242(8) 0.34330(7) 0.16231(6)
Si4 Si 0.45741(8) 0.27035(7) 0.39038(6)
Si5 Si 0.54741(7) 0.27469(7) 0.17245(6)
N1 N 0.1847(2) 0.70991(19) 0.29514(15)
C1 C 0.2048(2) 0.6035(2) 0.28612(17)
C2 C 0.2316(3) 0.7930(2) 0.21682(18)
C3 C 0.3526(3) 0.8199(2) 0.20091(19)
C4 C 0.3903(3) 0.9088(3) 0.1289(2)
H1 H 0.4708 0.9293 0.1172
C5 C 0.3153(4) 0.9683(3) 0.0738(2)
H2 H 0.3439 1.0295 0.0250
C6 C 0.1972(4) 0.9397(3) 0.0889(2)
H3 H 0.1458 0.9812 0.0502
C7 C 0.1539(3) 0.8501(2) 0.16096(19)
C8 C 0.4318(3) 0.7539(3) 0.2645(2)
H4 H 0.4229 0.6699 0.2767
C9 C 0.3792(4) 0.7976(4) 0.3590(2)
H5 H 0.3868 0.8799 0.3504
H6 H 0.4286 0.7492 0.3999
H7 H 0.2879 0.7921 0.3883
C10 C 0.5780(4) 0.7535(5) 0.2216(3)
H8 H 0.6102 0.7333 0.1573
H9 H 0.6243 0.6952 0.2605
H10 H 0.5925 0.8319 0.2197
C11 C 0.0251(3) 0.8178(3) 0.1787(2)
H11 H 0.0346 0.7318 0.2035
C12 C -0.0821(4) 0.8821(4) 0.2544(3)
H12 H -0.0970 0.9668 0.2318
H13 H -0.0571 0.8677 0.3114
H14 H -0.1616 0.8534 0.2690
C13 C -0.0121(5) 0.8348(5) 0.0917(3)
H15 H -0.0929 0.8077 0.1078
H16 H 0.0566 0.7893 0.0447
H17 H -0.0245 0.9186 0.0658
C14 C 0.1555(2) 0.2815(2) 0.26173(17)
C15 C 0.2634(3) 0.1666(2) 0.24080(19)
H18 H 0.2223 0.0975 0.2571
H19 H 0.3135 0.1733 0.1726
C16 C 0.3542(3) 0.1485(2) 0.29801(19)
H20 H 0.4297 0.0846 0.2761
H21 H 0.3085 0.1246 0.3655
C17 C 0.4021(2) 0.2661(2) 0.28670(18)
C18 C 0.0532(3) 0.2293(3) 0.48814(19)
H22 H -0.0220 0.2112 0.5418
H23 H 0.0716 0.3032 0.4931
H24 H 0.1285 0.1653 0.4885
C19 C -0.1367(3) 0.3584(3) 0.3881(3)
H25 H -0.1982 0.3434 0.4514
H26 H -0.1741 0.3539 0.3407
H27 H -0.1185 0.4371 0.3785
C20 C -0.0134(4) 0.0969(3) 0.3772(3)
H28 H 0.0569 0.0348 0.3905
H29 H -0.0181 0.0922 0.3155
H30 H -0.0956 0.0867 0.4263
C21 C -0.0182(3) 0.2442(3) 0.1572(2)
H31 H -0.0512 0.2754 0.1038
H32 H -0.0910 0.2403 0.2160
H33 H 0.0351 0.1650 0.1489
C22 C -0.0167(3) 0.4956(3) 0.1735(3)
H34 H 0.0194 0.5493 0.1172
H35 H -0.0156 0.5214 0.2296
H36 H -0.1060 0.4961 0.1795
C23 C 0.2051(4) 0.3504(4) 0.0428(2)
H37 H 0.1614 0.3723 -0.0051
H38 H 0.2632 0.2731 0.0348
H39 H 0.2553 0.4094 0.0355
C24 C 0.6161(3) 0.1643(3) 0.3853(3)
H40 H 0.6347 0.1590 0.4439
H41 H 0.6855 0.1925 0.3315
H42 H 0.6104 0.0862 0.3779
C25 C 0.4763(3) 0.4198(3) 0.3944(3)
H43 H 0.4156 0.4478 0.4533
H44 H 0.4580 0.4742 0.3405
H45 H 0.5651 0.4160 0.3916
C26 C 0.3454(3) 0.2240(4) 0.5071(2)
H46 H 0.3822 0.2223 0.5564
H47 H 0.3324 0.1452 0.5087
H48 H 0.2621 0.2800 0.5183
C27 C 0.5119(3) 0.3105(3) 0.0585(2)
H49 H 0.4594 0.3904 0.0540
H50 H 0.4644 0.2540 0.0560
H51 H 0.5934 0.3059 0.0058
C28 C 0.6392(3) 0.3881(3) 0.1647(3)
H52 H 0.7114 0.3886 0.1052
H53 H 0.6730 0.3692 0.2179
H54 H 0.5815 0.4659 0.1669
C29 C 0.6595(3) 0.1257(3) 0.1634(2)
H55 H 0.6253 0.0750 0.1401
H56 H 0.6662 0.0897 0.2259
H57 H 0.7454 0.1348 0.1196
loop_
_geom_bond_atom_site_label_1
_geom_bond_atom_site_label_2
_geom_bond_site_symmetry_1
_geom_bond_site_symmetry_2
S1 Si1 1_555 1_555
S2 Si1 1_555 1_555
Si1 C14 1_555 1_555
Si2 C14 1_555 1_555
Si3 C14 1_555 1_555
Si4 C17 1_555 1_555
Si5 C17 1_555 1_555
N1 C1 1_555 1_555
C1 S1 1_555 1_555
C2 N1 1_555 1_555
C3 C2 1_555 1_555
C4 C3 1_555 1_555
H1 C4 1_555 1_555
C5 C4 1_555 1_555
H2 C5 1_555 1_555
C6 C5 1_555 1_555
H3 C6 1_555 1_555
C7 C2 1_555 1_555
C8 C3 1_555 1_555
H4 C8 1_555 1_555
C9 C8 1_555 1_555
H5 C9 1_555 1_555
H6 C9 1_555 1_555
H7 C9 1_555 1_555
C10 C8 1_555 1_555
H8 C10 1_555 1_555
H9 C10 1_555 1_555
H10 C10 1_555 1_555
C11 C7 1_555 1_555
H11 C11 1_555 1_555
C12 C11 1_555 1_555
H12 C12 1_555 1_555
H13 C12 1_555 1_555
H14 C12 1_555 1_555
C13 C11 1_555 1_555
H15 C13 1_555 1_555
H16 C13 1_555 1_555
H17 C13 1_555 1_555
C14 C15 1_555 1_555
C15 H18 1_555 1_555
H19 C15 1_555 1_555
C16 C15 1_555 1_555
H20 C16 1_555 1_555
H21 C16 1_555 1_555
C17 Si1 1_555 1_555
C18 Si2 1_555 1_555
H22 C18 1_555 1_555
H23 C18 1_555 1_555
H24 C18 1_555 1_555
C19 Si2 1_555 1_555
H25 C19 1_555 1_555
H26 C19 1_555 1_555
H27 C19 1_555 1_555
C20 Si2 1_555 1_555
H28 C20 1_555 1_555
H29 C20 1_555 1_555
H30 C20 1_555 1_555
C21 Si3 1_555 1_555
H31 C21 1_555 1_555
H32 C21 1_555 1_555
H33 C21 1_555 1_555
C22 Si3 1_555 1_555
H34 C22 1_555 1_555
H35 C22 1_555 1_555
H36 C22 1_555 1_555
C23 Si3 1_555 1_555
H37 C23 1_555 1_555
H38 C23 1_555 1_555
H39 C23 1_555 1_555
C24 Si4 1_555 1_555
H40 C24 1_555 1_555
H41 C24 1_555 1_555
H42 C24 1_555 1_555
C25 Si4 1_555 1_555
H43 C25 1_555 1_555
H44 C25 1_555 1_555
H45 C25 1_555 1_555
C26 Si4 1_555 1_555
H46 C26 1_555 1_555
H47 C26 1_555 1_555
H48 C26 1_555 1_555
C27 Si5 1_555 1_555
H49 C27 1_555 1_555
H50 C27 1_555 1_555
H51 C27 1_555 1_555
C28 Si5 1_555 1_555
H52 C28 1_555 1_555
H53 C28 1_555 1_555
H54 C28 1_555 1_555
C29 Si5 1_555 1_555
H55 C29 1_555 1_555
H56 C29 1_555 1_555
H57 C29 1_555 1_555
S2 C1 1_555 1_555
C6 C7 1_555 1_555
C16 C17 1_555 1_555

#END
