
#######################################################################
#
#                 Cambridge Crystallographic Data Centre
#                                CCDC 
#
#######################################################################
#
# If this CIF has been generated from an entry in the Cambridge 
# Structural Database, then it will include bibliographic, chemical, 
# crystal, experimental, refinement or atomic coordinate data resulting 
# from the CCDC's data processing and validation procedures.
#
#######################################################################

data_ZOWZAO
_chemical_formula_moiety         'C27 H32 B1 N1 S1'
_chemical_name_systematic        
3-(dimesitylboryl)-2,2-dimethyl-2,3-dihydro-1,3-benzothiazole
_symmetry_cell_setting           monoclinic
_symmetry_space_group_name_H-M   'P 21/n'
_symmetry_Int_Tables_number      14
_space_group_name_Hall           '-P 2yn'
loop_
_symmetry_equiv_pos_site_id
_symmetry_equiv_pos_as_xyz
1 x,y,z
2 1/2-x,1/2+y,1/2-z
3 -x,-y,-z
4 1/2+x,1/2-y,1/2+z
_cell_length_a                   8.26470(10)
_cell_length_b                   22.7678(3)
_cell_length_c                   12.2313(2)
_cell_angle_alpha                90
_cell_angle_beta                 92.4440(10)
_cell_angle_gamma                90
_cell_volume                     2299.46
_exptl_crystal_colour            colorless
_exptl_crystal_description       block
_cell_formula_units_Z            4
loop_
_atom_site_label
_atom_site_type_symbol
_atom_site_fract_x
_atom_site_fract_y
_atom_site_fract_z
S1 S 1.07789(6) 0.10666(2) 0.46419(3)
N1 N 1.00026(15) 0.13923(6) 0.26207(10)
B1 B 0.8927(2) 0.16878(8) 0.18597(14)
C1 C 1.09075(19) 0.16523(7) 0.35956(13)
C2 C 1.02920(18) 0.07767(7) 0.25977(13)
C3 C 1.02368(19) 0.04242(8) 0.16763(14)
H1 H 0.9977 0.0588 0.0977
C4 C 1.0564(2) -0.01704(8) 0.17824(16)
H2 H 1.0508 -0.0415 0.1152
C5 C 1.0971(2) -0.04130(8) 0.27933(16)
H3 H 1.1174 -0.0823 0.2856
C6 C 1.1083(2) -0.00579(8) 0.37191(16)
H4 H 1.1390 -0.0219 0.4414
C7 C 1.0740(2) 0.05341(8) 0.36106(13)
C8 C 1.2683(2) 0.17558(9) 0.33749(15)
H5 H 1.2778 0.2093 0.2885
H6 H 1.3129 0.1406 0.3031
H7 H 1.3285 0.1835 0.4067
C9 C 1.0143(2) 0.21933(8) 0.40772(14)
H8 H 1.0291 0.2529 0.3591
H9 H 1.0659 0.2277 0.4797
H10 H 0.8983 0.2124 0.4156
C10 C 0.75225(18) 0.13341(7) 0.12180(12)
C11 C 0.63569(19) 0.10162(7) 0.17926(13)
C12 C 0.4995(2) 0.07875(8) 0.12359(14)
H11 H 0.4214 0.0584 0.1640
C13 C 0.4735(2) 0.08463(8) 0.01143(14)
C14 C 0.5900(2) 0.11378(7) -0.04557(14)
H12 H 0.5762 0.1173 -0.1228
C15 C 0.72726(19) 0.13822(7) 0.00678(13)
C16 C 0.8486(2) 0.16795(8) -0.06308(13)
H13 H 0.8106 0.1663 -0.1400
H14 H 0.9532 0.1479 -0.0542
H15 H 0.8610 0.2091 -0.0405
C17 C 0.3230(2) 0.06079(9) -0.04701(17)
H16 H 0.3482 0.0494 -0.1216
H17 H 0.2387 0.0911 -0.0498
H18 H 0.2843 0.0264 -0.0076
C18 C 0.6511(2) 0.09142(8) 0.30170(14)
H19 H 0.5475 0.0774 0.3277
H20 H 0.6806 0.1283 0.3387
H21 H 0.7353 0.0620 0.3179
C19 C 0.91063(19) 0.23734(7) 0.16828(13)
C20 C 0.7870(2) 0.27684(7) 0.19582(13)
C21 C 0.8085(2) 0.33686(8) 0.18308(15)
H22 H 0.7253 0.3628 0.2042
C22 C 0.9475(2) 0.36022(8) 0.14044(15)
C23 C 1.0667(2) 0.32157(9) 0.10998(15)
H23 H 1.1620 0.3368 0.0796
C24 C 1.0511(2) 0.26083(8) 0.12265(14)
C25 C 1.1834(2) 0.22240(9) 0.07944(15)
H24 H 1.2894 0.2384 0.1028
H25 H 1.1738 0.2214 -0.0007
H26 H 1.1727 0.1825 0.1082
C26 C 0.9660(3) 0.42573(9) 0.1264(2)
H27 H 1.0238 0.4337 0.0597
H28 H 1.0274 0.4419 0.1898
H29 H 0.8587 0.4441 0.1207
C27 C 0.6312(2) 0.25494(8) 0.24120(15)
H30 H 0.5579 0.2881 0.2513
H31 H 0.6545 0.2357 0.3118
H32 H 0.5801 0.2267 0.1900
loop_
_geom_bond_atom_site_label_1
_geom_bond_atom_site_label_2
_geom_bond_site_symmetry_1
_geom_bond_site_symmetry_2
S1 C1 1_555 1_555
N1 B1 1_555 1_555
B1 C10 1_555 1_555
C1 N1 1_555 1_555
C2 N1 1_555 1_555
C3 C2 1_555 1_555
H1 C3 1_555 1_555
C4 C3 1_555 1_555
H2 C4 1_555 1_555
C5 C4 1_555 1_555
H3 C5 1_555 1_555
C6 C5 1_555 1_555
H4 C6 1_555 1_555
C7 S1 1_555 1_555
C8 C1 1_555 1_555
H5 C8 1_555 1_555
H6 C8 1_555 1_555
H7 C8 1_555 1_555
C9 C1 1_555 1_555
H8 C9 1_555 1_555
H9 C9 1_555 1_555
H10 C9 1_555 1_555
C10 C11 1_555 1_555
C11 C12 1_555 1_555
C12 H11 1_555 1_555
C13 C12 1_555 1_555
C14 C13 1_555 1_555
H12 C14 1_555 1_555
C15 C10 1_555 1_555
C16 C15 1_555 1_555
H13 C16 1_555 1_555
H14 C16 1_555 1_555
H15 C16 1_555 1_555
C17 C13 1_555 1_555
H16 C17 1_555 1_555
H17 C17 1_555 1_555
H18 C17 1_555 1_555
C18 C11 1_555 1_555
H19 C18 1_555 1_555
H20 C18 1_555 1_555
H21 C18 1_555 1_555
C19 B1 1_555 1_555
C20 C19 1_555 1_555
C21 C20 1_555 1_555
H22 C21 1_555 1_555
C22 C21 1_555 1_555
C23 C22 1_555 1_555
H23 C23 1_555 1_555
C24 C19 1_555 1_555
C25 C24 1_555 1_555
H24 C25 1_555 1_555
H25 C25 1_555 1_555
H26 C25 1_555 1_555
C26 C22 1_555 1_555
H27 C26 1_555 1_555
H28 C26 1_555 1_555
H29 C26 1_555 1_555
C27 C20 1_555 1_555
H30 C27 1_555 1_555
H31 C27 1_555 1_555
H32 C27 1_555 1_555
C2 C7 1_555 1_555
C6 C7 1_555 1_555
C14 C15 1_555 1_555
C23 C24 1_555 1_555

#END
