
#######################################################################
#
#                 Cambridge Crystallographic Data Centre
#                                CCDC 
#
#######################################################################
#
# If this CIF has been generated from an entry in the Cambridge 
# Structural Database, then it will include bibliographic, chemical, 
# crystal, experimental, refinement or atomic coordinate data resulting 
# from the CCDC's data processing and validation procedures.
#
#######################################################################

data_ZOXMUW
_chemical_formula_moiety         'C19 H20 N4 O2'
_chemical_name_systematic        
3-amino-15,15-dimethyl-5,13-dioxo-4-azatetracyclo[10.4.0.0^2,7^.0^6,11^]hexadeca-1(12),3-diene-2,6-dicarbonitrile
_symmetry_cell_setting           monoclinic
_symmetry_space_group_name_H-M   'P 21/c'
_symmetry_Int_Tables_number      14
_space_group_name_Hall           '-P 2ybc'
loop_
_symmetry_equiv_pos_site_id
_symmetry_equiv_pos_as_xyz
1 x,y,z
2 -x,1/2+y,1/2-z
3 -x,-y,-z
4 x,1/2-y,1/2+z
_cell_length_a                   7.7983(8)
_cell_length_b                   15.7822(14)
_cell_length_c                   14.3700(13)
_cell_angle_alpha                90
_cell_angle_beta                 98.5090(10)
_cell_angle_gamma                90
_cell_volume                     1749.11
_exptl_crystal_description       block
_cell_formula_units_Z            4
loop_
_atom_site_label
_atom_site_type_symbol
_atom_site_fract_x
_atom_site_fract_y
_atom_site_fract_z
N1 N 0.1272(3) 0.53053(12) 0.61014(16)
N2 N 0.1853(3) 0.55860(12) 0.46224(16)
H1 H 0.0922 0.5325 0.4386
H2 H 0.2511 0.5809 0.4258
N3 N 0.5959(3) 0.63329(13) 0.46852(18)
N4 N 0.4472(4) 0.43967(15) 0.8778(2)
O1 O 0.0644(2) 0.52315(11) 0.75897(14)
O2 O 0.2376(3) 0.80707(12) 0.83280(15)
C1 C 0.2271(4) 0.56445(15) 0.55404(19)
C2 C 0.1712(4) 0.53613(15) 0.7060(2)
C3 C 0.3601(4) 0.55690(15) 0.75015(19)
C4 C 0.3664(4) 0.64684(15) 0.7958(2)
H3 H 0.2879 0.6482 0.8430
C5 C 0.3053(3) 0.71022(16) 0.71923(19)
C6 C 0.3218(3) 0.69925(15) 0.6289(2)
C7 C 0.3899(3) 0.61456(15) 0.59553(18)
C8 C 0.4831(4) 0.55773(15) 0.67591(19)
H4 H 0.4882 0.5000 0.6512
C9 C 0.6678(4) 0.58429(16) 0.7166(2)
H5 H 0.7203 0.5396 0.7576
H6 H 0.7352 0.5901 0.6654
C10 C 0.6785(4) 0.66699(17) 0.7719(2)
H7 H 0.6524 0.7140 0.7286
H8 H 0.7957 0.6745 0.8044
C11 C 0.5516(4) 0.66754(17) 0.8435(2)
H9 H 0.5528 0.7229 0.8730
H10 H 0.5880 0.6261 0.8923
C12 C 0.2327(4) 0.79189(17) 0.7486(2)
C13 C 0.1624(4) 0.85418(16) 0.6751(2)
H11 H 0.2497 0.8972 0.6709
H12 H 0.0629 0.8820 0.6949
C14 C 0.1074(4) 0.81669(15) 0.5772(2)
C15 C 0.2603(4) 0.76324(15) 0.55341(19)
H13 H 0.2251 0.7338 0.4944
H14 H 0.3557 0.8006 0.5451
C16 C 0.5056(4) 0.62715(15) 0.5240(2)
C17 C 0.4109(4) 0.49152(18) 0.8229(2)
C18 C 0.0686(4) 0.88794(16) 0.5051(2)
H15 H -0.0237 0.9225 0.5214
H16 H 0.0347 0.8640 0.4437
H17 H 0.1705 0.9220 0.5049
C19 C -0.0554(4) 0.76173(17) 0.5750(2)
H18 H -0.1491 0.7959 0.5905
H19 H -0.0324 0.7166 0.6199
H20 H -0.0867 0.7383 0.5132
loop_
_geom_bond_atom_site_label_1
_geom_bond_atom_site_label_2
_geom_bond_site_symmetry_1
_geom_bond_site_symmetry_2
N1 C1 1_555 1_555
N2 H1 1_555 1_555
H2 N2 1_555 1_555
N3 C16 1_555 1_555
N4 C17 1_555 1_555
O1 C2 1_555 1_555
O2 C12 1_555 1_555
C1 N2 1_555 1_555
C2 N1 1_555 1_555
C3 C2 1_555 1_555
C4 C3 1_555 1_555
H3 C4 1_555 1_555
C5 C4 1_555 1_555
C6 C5 1_555 1_555
C7 C1 1_555 1_555
C8 C3 1_555 1_555
H4 C8 1_555 1_555
C9 C8 1_555 1_555
H5 C9 1_555 1_555
H6 C9 1_555 1_555
C10 C9 1_555 1_555
H7 C10 1_555 1_555
H8 C10 1_555 1_555
C11 C4 1_555 1_555
H9 C11 1_555 1_555
H10 C11 1_555 1_555
C12 C5 1_555 1_555
C13 C12 1_555 1_555
H11 C13 1_555 1_555
H12 C13 1_555 1_555
C14 C13 1_555 1_555
C15 C6 1_555 1_555
H13 C15 1_555 1_555
H14 C15 1_555 1_555
C16 C7 1_555 1_555
C17 C3 1_555 1_555
C18 C14 1_555 1_555
H15 C18 1_555 1_555
H16 C18 1_555 1_555
H17 C18 1_555 1_555
C19 C14 1_555 1_555
H18 C19 1_555 1_555
H19 C19 1_555 1_555
H20 C19 1_555 1_555
C6 C7 1_555 1_555
C7 C8 1_555 1_555
C10 C11 1_555 1_555
C14 C15 1_555 1_555

#END
