
#######################################################################
#
#                 Cambridge Crystallographic Data Centre
#                                CCDC 
#
#######################################################################
#
# If this CIF has been generated from an entry in the Cambridge 
# Structural Database, then it will include bibliographic, chemical, 
# crystal, experimental, refinement or atomic coordinate data resulting 
# from the CCDC's data processing and validation procedures.
#
#######################################################################

data_ZOXPOT
_chemical_formula_moiety         'C42 H56 Mg2 N4'
_chemical_name_systematic        
bis(\m-N,N'-diisopropyl-2-phenylethanamidinato)-dibenzyl-di-magnesium
_symmetry_cell_setting           monoclinic
_symmetry_space_group_name_H-M   'P 21/c'
_symmetry_Int_Tables_number      14
_space_group_name_Hall           '-P 2ybc'
loop_
_symmetry_equiv_pos_site_id
_symmetry_equiv_pos_as_xyz
1 x,y,z
2 -x,1/2+y,1/2-z
3 -x,-y,-z
4 x,1/2-y,1/2+z
_cell_length_a                   12.896(5)
_cell_length_b                   16.810(5)
_cell_length_c                   18.609(5)
_cell_angle_alpha                90
_cell_angle_beta                 105.741(5)
_cell_angle_gamma                90
_cell_volume                     3882.8
_exptl_crystal_colour            colorless
_exptl_crystal_description       block
_cell_formula_units_Z            4
loop_
_atom_site_label
_atom_site_type_symbol
_atom_site_fract_x
_atom_site_fract_y
_atom_site_fract_z
Mg1 Mg 0.10209(3) 0.45764(2) 0.532978(19)
N1 N 0.17159(7) 0.56924(5) 0.52608(5)
N2 N 0.03824(6) 0.52376(5) 0.42880(4)
C1 C 0.11953(7) 0.57839(6) 0.45575(5)
C2 C 0.01478(8) 0.50274(7) 0.34839(5)
H1 H 0.0655 0.5315 0.3270
C3 C 0.03261(11) 0.41349(8) 0.34134(7)
H2 H 0.1070 0.4010 0.3638
H3 H 0.0136 0.3989 0.2895
H4 H -0.0116 0.3845 0.3663
C4 C -0.09943(9) 0.52559(7) 0.30509(6)
H5 H -0.1502 0.4964 0.3242
H6 H -0.1103 0.5132 0.2532
H7 H -0.1098 0.5816 0.3106
C5 C 0.26095(9) 0.62151(7) 0.56417(6)
H8 H 0.2791 0.6562 0.5270
C6 C 0.23000(11) 0.67299(8) 0.62215(7)
H9 H 0.1681 0.7045 0.5984
H10 H 0.2890 0.7074 0.6453
H11 H 0.2133 0.6396 0.6594
C7 C 0.35802(10) 0.56871(8) 0.59909(8)
H12 H 0.3396 0.5320 0.6332
H13 H 0.4173 0.6013 0.6255
H14 H 0.3781 0.5397 0.5605
C8 C 0.14181(8) 0.64488(6) 0.40661(6)
H15 H 0.0781 0.6521 0.3651
H16 H 0.1527 0.6937 0.4354
C9 C 0.23779(8) 0.63305(6) 0.37525(5)
C10 C 0.29691(9) 0.56302(7) 0.38400(7)
H17 H 0.2783 0.5210 0.4106
C11 C 0.38406(10) 0.55492(8) 0.35334(8)
H18 H 0.4228 0.5076 0.3593
C12 C 0.41250(10) 0.61722(8) 0.31418(7)
H19 H 0.4707 0.6120 0.2940
C13 C 0.35406(10) 0.68763(8) 0.30502(7)
H20 H 0.3731 0.7296 0.2786
C14 C 0.26732(8) 0.69551(6) 0.33523(6)
H21 H 0.2284 0.7428 0.3288
C15 C 0.18685(10) 0.34603(7) 0.54930(8)
H22 H 0.2005 0.3297 0.5027
H23 H 0.2558 0.3529 0.5860
C16 C 0.12511(9) 0.28301(6) 0.57495(6)
C17 C 0.04309(10) 0.24000(7) 0.52490(7)
H24 H 0.0287 0.2504 0.4741
C18 C -0.01727(11) 0.18240(7) 0.54894(8)
H25 H -0.0707 0.1549 0.5142
C19 C 0.00157(11) 0.16562(7) 0.62435(8)
H26 H -0.0392 0.1275 0.6406
C20 C 0.08232(10) 0.20686(7) 0.67498(7)
H27 H 0.0961 0.1960 0.7257
C21 C 0.14295(9) 0.26425(6) 0.65100(6)
H28 H 0.1968 0.2910 0.6862
Mg1B Mg -0.10209(3) 0.54236(2) 0.467022(19)
N1B N -0.17159(7) 0.43076(5) 0.47392(5)
N2B N -0.03824(6) 0.47624(5) 0.57120(4)
C1B C -0.11953(7) 0.42161(6) 0.54425(5)
C2B C -0.01478(8) 0.49726(7) 0.65161(5)
H1B H -0.0655 0.4685 0.6730
C3B C -0.03261(11) 0.58651(8) 0.65866(7)
H2B H -0.1070 0.5990 0.6362
H3B H -0.0136 0.6011 0.7105
H4B H 0.0116 0.6155 0.6337
C4B C 0.09943(9) 0.47441(7) 0.69491(6)
H5B H 0.1502 0.5036 0.6758
H6B H 0.1103 0.4868 0.7468
H7B H 0.1098 0.4184 0.6894
C5B C -0.26095(9) 0.37849(7) 0.43583(6)
H8B H -0.2791 0.3438 0.4730
C6B C -0.23000(11) 0.32701(8) 0.37785(7)
H9B H -0.1681 0.2955 0.4016
H10B H -0.2890 0.2926 0.3547
H11B H -0.2133 0.3604 0.3406
C7B C -0.35802(10) 0.43129(8) 0.40091(8)
H12B H -0.3396 0.4680 0.3668
H13B H -0.4173 0.3987 0.3745
H14B H -0.3781 0.4603 0.4395
C8B C -0.14181(8) 0.35512(6) 0.59339(6)
H15B H -0.0781 0.3479 0.6349
H16B H -0.1527 0.3063 0.5646
C9B C -0.23779(8) 0.36695(6) 0.62475(5)
C10B C -0.29691(9) 0.43698(7) 0.61600(7)
H17B H -0.2783 0.4790 0.5894
C11B C -0.38406(10) 0.44508(8) 0.64666(8)
H18B H -0.4228 0.4924 0.6407
C12B C -0.41250(10) 0.38278(8) 0.68582(7)
H19B H -0.4707 0.3880 0.7060
C13B C -0.35406(10) 0.31237(8) 0.69498(7)
H20B H -0.3731 0.2704 0.7214
C14B C -0.26732(8) 0.30449(6) 0.66477(6)
H21B H -0.2284 0.2572 0.6712
C15B C -0.18685(10) 0.65397(7) 0.45070(8)
H22B H -0.2005 0.6703 0.4973
H23B H -0.2558 0.6471 0.4140
C16B C -0.12511(9) 0.71699(6) 0.42505(6)
C17B C -0.04309(10) 0.76000(7) 0.47510(7)
H24B H -0.0287 0.7496 0.5259
C18B C 0.01727(11) 0.81760(7) 0.45106(8)
H25B H 0.0707 0.8451 0.4858
C19B C -0.00157(11) 0.83438(7) 0.37565(8)
H26B H 0.0392 0.8725 0.3594
C20B C -0.08232(10) 0.79314(7) 0.32502(7)
H27B H -0.0961 0.8040 0.2743
C21B C -0.14295(9) 0.73575(6) 0.34900(6)
H28B H -0.1968 0.7090 0.3138
Mg2 Mg 0.56108(3) 0.04779(2) 0.457872(19)
N3 N 0.60681(6) -0.02415(5) 0.55946(4)
N4 N 0.63816(7) -0.06026(5) 0.44995(5)
C22 C 0.65842(7) -0.07464(6) 0.52140(5)
C23 C 0.72770(8) -0.14314(6) 0.56094(6)
H29 H 0.6970 -0.1627 0.5998
H30 H 0.7232 -0.1859 0.5253
C24 C 0.84595(8) -0.12486(6) 0.59611(5)
C25 C 0.90437(9) -0.17673(6) 0.65090(6)
H31 H 0.8696 -0.2198 0.6655
C26 C 1.01332(9) -0.16501(7) 0.68382(6)
H32 H 1.0511 -0.2003 0.7200
C27 C 1.06614(9) -0.10071(8) 0.66291(7)
H33 H 1.1392 -0.0927 0.6850
C28 C 1.00906(9) -0.04850(7) 0.60874(7)
H34 H 1.0440 -0.0053 0.5946
C29 C 0.89927(8) -0.06067(6) 0.57534(6)
H35 H 0.8616 -0.0255 0.5389
C30 C 0.66406(8) -0.00630(6) 0.63844(5)
H36 H 0.7287 -0.0397 0.6530
C31 C 0.59419(10) -0.02441(8) 0.69048(6)
H37 H 0.5729 -0.0793 0.6855
H38 H 0.5312 0.0087 0.6777
H39 H 0.6344 -0.0141 0.7411
C32 C 0.69921(10) 0.08072(7) 0.64481(7)
H40 H 0.6371 0.1142 0.6276
H41 H 0.7480 0.0897 0.6148
H42 H 0.7346 0.0930 0.6960
C33 C 0.68251(8) -0.11011(6) 0.40033(6)
H43 H 0.7494 -0.1348 0.4299
C34 C 0.70876(9) -0.05620(7) 0.34164(7)
H44 H 0.7537 -0.0132 0.3659
H45 H 0.6432 -0.0352 0.3096
H46 H 0.7459 -0.0863 0.3125
C35 C 0.60323(9) -0.17572(7) 0.36485(6)
H47 H 0.5393 -0.1523 0.3329
H48 H 0.5847 -0.2060 0.4033
H49 H 0.6358 -0.2101 0.3360
C36 C 0.62031(9) 0.16065(7) 0.43204(7)
H50 H 0.6817 0.1763 0.4726
H51 H 0.6446 0.1554 0.3873
C37 C 0.53666(8) 0.22349(6) 0.42025(6)
C38 C 0.46989(9) 0.24250(6) 0.34913(6)
H52 H 0.4812 0.2172 0.3075
C39 C 0.38724(9) 0.29815(7) 0.33928(7)
H53 H 0.3438 0.3088 0.2915
C40 C 0.36906(9) 0.33785(7) 0.40003(8)
H54 H 0.3134 0.3746 0.3935
C41 C 0.43549(10) 0.32174(7) 0.47065(7)
H55 H 0.4251 0.3488 0.5118
C42 C 0.51710(9) 0.26581(7) 0.48068(6)
H56 H 0.5602 0.2559 0.5287
Mg2B Mg 0.43892(3) -0.04779(2) 0.542128(19)
N3B N 0.39319(6) 0.02415(5) 0.44054(4)
N4B N 0.36184(7) 0.06026(5) 0.55005(5)
C22B C 0.34158(7) 0.07464(6) 0.47860(5)
C23B C 0.27230(8) 0.14314(6) 0.43906(6)
H29B H 0.3030 0.1627 0.4002
H30B H 0.2768 0.1859 0.4747
C24B C 0.15405(8) 0.12486(6) 0.40389(5)
C25B C 0.09563(9) 0.17673(6) 0.34910(6)
H31B H 0.1304 0.2198 0.3345
C26B C -0.01332(9) 0.16501(7) 0.31618(6)
H32B H -0.0511 0.2003 0.2800
C27B C -0.06614(9) 0.10071(8) 0.33709(7)
H33B H -0.1392 0.0927 0.3150
C28B C -0.00906(9) 0.04850(7) 0.39126(7)
H34B H -0.0440 0.0053 0.4054
C29B C 0.10073(8) 0.06067(6) 0.42466(6)
H35B H 0.1384 0.0255 0.4611
C30B C 0.33594(8) 0.00630(6) 0.36156(5)
H36B H 0.2713 0.0397 0.3470
C31B C 0.40581(10) 0.02441(8) 0.30952(6)
H37B H 0.4271 0.0793 0.3145
H38B H 0.4688 -0.0087 0.3223
H39B H 0.3656 0.0141 0.2589
C32B C 0.30079(10) -0.08072(7) 0.35519(7)
H40B H 0.3629 -0.1142 0.3724
H41B H 0.2520 -0.0897 0.3852
H42B H 0.2654 -0.0930 0.3040
C33B C 0.31749(8) 0.11011(6) 0.59967(6)
H43B H 0.2506 0.1348 0.5701
C34B C 0.29124(9) 0.05620(7) 0.65836(7)
H44B H 0.2463 0.0132 0.6341
H45B H 0.3568 0.0352 0.6904
H46B H 0.2541 0.0863 0.6875
C35B C 0.39677(9) 0.17572(7) 0.63515(6)
H47B H 0.4607 0.1523 0.6671
H48B H 0.4153 0.2060 0.5967
H49B H 0.3642 0.2101 0.6640
C36B C 0.37969(9) -0.16065(7) 0.56796(7)
H50B H 0.3183 -0.1763 0.5274
H51B H 0.3554 -0.1554 0.6127
C37B C 0.46334(8) -0.22349(6) 0.57975(6)
C38B C 0.53011(9) -0.24250(6) 0.65087(6)
H52B H 0.5188 -0.2172 0.6925
C39B C 0.61276(9) -0.29815(7) 0.66072(7)
H53B H 0.6562 -0.3088 0.7085
C40B C 0.63094(9) -0.33785(7) 0.59997(8)
H54B H 0.6866 -0.3746 0.6065
C41B C 0.56451(10) -0.32174(7) 0.52935(7)
H55B H 0.5749 -0.3488 0.4882
C42B C 0.48290(9) -0.26581(7) 0.51932(6)
H56B H 0.4398 -0.2559 0.4713
loop_
_geom_bond_atom_site_label_1
_geom_bond_atom_site_label_2
_geom_bond_site_symmetry_1
_geom_bond_site_symmetry_2
Mg1 N1 1_555 1_555
N1 C1 1_555 1_555
N2 Mg1 1_555 1_555
C1 N2 1_555 1_555
C2 N2 1_555 1_555
H1 C2 1_555 1_555
C3 C2 1_555 1_555
H2 C3 1_555 1_555
H3 C3 1_555 1_555
H4 C3 1_555 1_555
C4 C2 1_555 1_555
H5 C4 1_555 1_555
H6 C4 1_555 1_555
H7 C4 1_555 1_555
C5 N1 1_555 1_555
H8 C5 1_555 1_555
C6 C5 1_555 1_555
H9 C6 1_555 1_555
H10 C6 1_555 1_555
H11 C6 1_555 1_555
C7 C5 1_555 1_555
H12 C7 1_555 1_555
H13 C7 1_555 1_555
H14 C7 1_555 1_555
C8 C1 1_555 1_555
H15 C8 1_555 1_555
H16 C8 1_555 1_555
C9 C8 1_555 1_555
C10 C9 1_555 1_555
H17 C10 1_555 1_555
C11 C10 1_555 1_555
H18 C11 1_555 1_555
C12 C11 1_555 1_555
H19 C12 1_555 1_555
C13 C12 1_555 1_555
H20 C13 1_555 1_555
C14 C9 1_555 1_555
H21 C14 1_555 1_555
C15 Mg1 1_555 1_555
H22 C15 1_555 1_555
H23 C15 1_555 1_555
C16 C15 1_555 1_555
C17 C16 1_555 1_555
H24 C17 1_555 1_555
C18 C17 1_555 1_555
H25 C18 1_555 1_555
C19 C18 1_555 1_555
H26 C19 1_555 1_555
C20 C19 1_555 1_555
H27 C20 1_555 1_555
C21 C16 1_555 1_555
H28 C21 1_555 1_555
Mg2 N3 1_555 1_555
N3 C22 1_555 1_555
N4 Mg2 1_555 1_555
C22 N4 1_555 1_555
C23 C22 1_555 1_555
H29 C23 1_555 1_555
H30 C23 1_555 1_555
C24 C23 1_555 1_555
C25 C24 1_555 1_555
H31 C25 1_555 1_555
C26 C25 1_555 1_555
H32 C26 1_555 1_555
C27 C26 1_555 1_555
H33 C27 1_555 1_555
C28 C27 1_555 1_555
H34 C28 1_555 1_555
C29 C24 1_555 1_555
H35 C29 1_555 1_555
C30 N3 1_555 1_555
H36 C30 1_555 1_555
C31 C30 1_555 1_555
H37 C31 1_555 1_555
H38 C31 1_555 1_555
H39 C31 1_555 1_555
C32 C30 1_555 1_555
H40 C32 1_555 1_555
H41 C32 1_555 1_555
H42 C32 1_555 1_555
C33 N4 1_555 1_555
H43 C33 1_555 1_555
C34 C33 1_555 1_555
H44 C34 1_555 1_555
H45 C34 1_555 1_555
H46 C34 1_555 1_555
C35 C33 1_555 1_555
H47 C35 1_555 1_555
H48 C35 1_555 1_555
H49 C35 1_555 1_555
C36 Mg2 1_555 1_555
H50 C36 1_555 1_555
H51 C36 1_555 1_555
C37 C36 1_555 1_555
C38 C37 1_555 1_555
H52 C38 1_555 1_555
C39 C38 1_555 1_555
H53 C39 1_555 1_555
C40 C39 1_555 1_555
H54 C40 1_555 1_555
C41 C40 1_555 1_555
H55 C41 1_555 1_555
C42 C37 1_555 1_555
H56 C42 1_555 1_555
Mg1B N2 1_555 1_555
N1B Mg1B 1_555 1_555
N2B Mg1 1_555 1_555
C1B N1B 1_555 1_555
C2B N2B 1_555 1_555
H1B C2B 1_555 1_555
C3B C2B 1_555 1_555
H2B C3B 1_555 1_555
H3B C3B 1_555 1_555
H4B C3B 1_555 1_555
C4B C2B 1_555 1_555
H5B C4B 1_555 1_555
H6B C4B 1_555 1_555
H7B C4B 1_555 1_555
C5B N1B 1_555 1_555
H8B C5B 1_555 1_555
C6B C5B 1_555 1_555
H9B C6B 1_555 1_555
H10B C6B 1_555 1_555
H11B C6B 1_555 1_555
C7B C5B 1_555 1_555
H12B C7B 1_555 1_555
H13B C7B 1_555 1_555
H14B C7B 1_555 1_555
C8B C1B 1_555 1_555
H15B C8B 1_555 1_555
H16B C8B 1_555 1_555
C9B C8B 1_555 1_555
C10B C9B 1_555 1_555
H17B C10B 1_555 1_555
C11B C10B 1_555 1_555
H18B C11B 1_555 1_555
C12B C11B 1_555 1_555
H19B C12B 1_555 1_555
C13B C12B 1_555 1_555
H20B C13B 1_555 1_555
C14B C9B 1_555 1_555
H21B C14B 1_555 1_555
C15B Mg1B 1_555 1_555
H22B C15B 1_555 1_555
H23B C15B 1_555 1_555
C16B C15B 1_555 1_555
C17B C16B 1_555 1_555
H24B C17B 1_555 1_555
C18B C17B 1_555 1_555
H25B C18B 1_555 1_555
C19B C18B 1_555 1_555
H26B C19B 1_555 1_555
C20B C19B 1_555 1_555
H27B C20B 1_555 1_555
C21B C16B 1_555 1_555
H28B C21B 1_555 1_555
Mg2B N3 1_555 1_555
N3B Mg2 1_555 1_555
N4B Mg2B 1_555 1_555
C22B N3B 1_555 1_555
C23B C22B 1_555 1_555
H29B C23B 1_555 1_555
H30B C23B 1_555 1_555
C24B C23B 1_555 1_555
C25B C24B 1_555 1_555
H31B C25B 1_555 1_555
C26B C25B 1_555 1_555
H32B C26B 1_555 1_555
C27B C26B 1_555 1_555
H33B C27B 1_555 1_555
C28B C27B 1_555 1_555
H34B C28B 1_555 1_555
C29B C24B 1_555 1_555
H35B C29B 1_555 1_555
C30B N3B 1_555 1_555
H36B C30B 1_555 1_555
C31B C30B 1_555 1_555
H37B C31B 1_555 1_555
H38B C31B 1_555 1_555
H39B C31B 1_555 1_555
C32B C30B 1_555 1_555
H40B C32B 1_555 1_555
H41B C32B 1_555 1_555
H42B C32B 1_555 1_555
C33B N4B 1_555 1_555
H43B C33B 1_555 1_555
C34B C33B 1_555 1_555
H44B C34B 1_555 1_555
H45B C34B 1_555 1_555
H46B C34B 1_555 1_555
C35B C33B 1_555 1_555
H47B C35B 1_555 1_555
H48B C35B 1_555 1_555
H49B C35B 1_555 1_555
C36B Mg2B 1_555 1_555
H50B C36B 1_555 1_555
H51B C36B 1_555 1_555
C37B C36B 1_555 1_555
C38B C37B 1_555 1_555
H52B C38B 1_555 1_555
C39B C38B 1_555 1_555
H53B C39B 1_555 1_555
C40B C39B 1_555 1_555
H54B C40B 1_555 1_555
C41B C40B 1_555 1_555
H55B C41B 1_555 1_555
C42B C37B 1_555 1_555
H56B C42B 1_555 1_555
C13 C14 1_555 1_555
C20 C21 1_555 1_555
C28 C29 1_555 1_555
C41 C42 1_555 1_555
Mg1B N2B 1_555 1_555
N2B C1B 1_555 1_555
C13B C14B 1_555 1_555
C20B C21B 1_555 1_555
Mg2B N3B 1_555 1_555
N4B C22B 1_555 1_555
C28B C29B 1_555 1_555
C41B C42B 1_555 1_555

#END
