
#######################################################################
#
#                 Cambridge Crystallographic Data Centre
#                                CCDC 
#
#######################################################################
#
# If this CIF has been generated from an entry in the Cambridge 
# Structural Database, then it will include bibliographic, chemical, 
# crystal, experimental, refinement or atomic coordinate data resulting 
# from the CCDC's data processing and validation procedures.
#
#######################################################################

data_ZOXXAN
_chemical_formula_moiety         'C14 H18 N2 O5'
_chemical_name_systematic        
2,2-dimethyl-5-(4-(1-methyl-1H-imidazol-2-yl)-4-oxobutan-2-yl)-1,3-dioxane-4,6-dione
_symmetry_cell_setting           orthorhombic
_symmetry_space_group_name_H-M   'P 21 21 21'
_symmetry_Int_Tables_number      19
_space_group_name_Hall           'P 2ac 2ab'
loop_
_symmetry_equiv_pos_site_id
_symmetry_equiv_pos_as_xyz
1 x,y,z
2 1/2+x,1/2-y,-z
3 -x,1/2+y,1/2-z
4 1/2-x,-y,1/2+z
_cell_length_a                   5.4571(2)
_cell_length_b                   15.3289(6)
_cell_length_c                   17.4084(9)
_cell_angle_alpha                90
_cell_angle_beta                 90
_cell_angle_gamma                90
_cell_volume                     1456.24
_exptl_crystal_colour            colorless
_exptl_crystal_description       Needle
_cell_formula_units_Z            4
loop_
_atom_site_label
_atom_site_type_symbol
_atom_site_fract_x
_atom_site_fract_y
_atom_site_fract_z
C1 C 0.8650(4) 0.44471(13) 0.44074(11)
C2 C 0.7628(4) 0.40594(13) 0.51374(11)
H1 H 0.8910 0.4083 0.5539
H2 H 0.7243 0.3437 0.5044
C3 C 0.5332(4) 0.45112(13) 0.54396(11)
H3 H 0.4157 0.4548 0.5000
C4 C 0.4095(4) 0.39540(13) 0.60593(12)
H4 H 0.2667 0.4265 0.6263
H5 H 0.5260 0.3842 0.6476
H6 H 0.3567 0.3398 0.5835
C5 C 1.0745(4) 0.39691(13) 0.40693(11)
C6 C 1.3982(4) 0.36787(13) 0.33707(12)
H7 H 1.5284 0.3711 0.3010
C7 C 1.3512(4) 0.30125(13) 0.38729(12)
H8 H 1.4459 0.2494 0.3912
C8 C 1.2085(4) 0.51382(13) 0.31185(12)
H9 H 1.3417 0.5187 0.2743
H10 H 1.2253 0.5599 0.3505
H11 H 1.0507 0.5200 0.2856
C9 C 0.5822(4) 0.54524(12) 0.57049(11)
H12 H 0.6876 0.5721 0.5299
C10 C 0.7250(4) 0.55347(12) 0.64473(11)
C11 C 0.5853(4) 0.70400(13) 0.64554(12)
C12 C 0.3500(4) 0.59880(13) 0.57233(11)
C13 C 0.7422(4) 0.74769(13) 0.58537(13)
H13 H 0.6545 0.7980 0.5642
H14 H 0.7780 0.7061 0.5441
H15 H 0.8960 0.7673 0.6088
C14 C 0.5160(5) 0.76403(15) 0.71055(14)
H16 H 0.4210 0.8132 0.6904
H17 H 0.6649 0.7859 0.7354
H18 H 0.4172 0.7320 0.7481
N1 N 1.2201(3) 0.42861(10) 0.34942(9)
N2 N 1.1499(3) 0.31928(10) 0.43096(10)
O1 O 0.7853(3) 0.51138(8) 0.41140(8)
O2 O 0.8432(3) 0.49683(9) 0.67424(8)
O3 O 0.7110(3) 0.63175(8) 0.68082(8)
O4 O 0.3564(3) 0.67425(9) 0.61291(8)
O5 O 0.1627(3) 0.57962(9) 0.54018(8)
loop_
_geom_bond_atom_site_label_1
_geom_bond_atom_site_label_2
_geom_bond_site_symmetry_1
_geom_bond_site_symmetry_2
C1 C2 1_555 1_555
C2 H1 1_555 1_555
H2 C2 1_555 1_555
C3 C2 1_555 1_555
H3 C3 1_555 1_555
C4 C3 1_555 1_555
H4 C4 1_555 1_555
H5 C4 1_555 1_555
H6 C4 1_555 1_555
C5 C1 1_555 1_555
C6 H7 1_555 1_555
C7 C6 1_555 1_555
H8 C7 1_555 1_555
C8 H9 1_555 1_555
H10 C8 1_555 1_555
H11 C8 1_555 1_555
C9 C3 1_555 1_555
H12 C9 1_555 1_555
C10 C9 1_555 1_555
C11 C13 1_555 1_555
C12 C9 1_555 1_555
C13 H13 1_555 1_555
H14 C13 1_555 1_555
H15 C13 1_555 1_555
C14 C11 1_555 1_555
H16 C14 1_555 1_555
H17 C14 1_555 1_555
H18 C14 1_555 1_555
N1 C5 1_555 1_555
N2 C5 1_555 1_555
O1 C1 1_555 1_555
O2 C10 1_555 1_555
O3 C10 1_555 1_555
O4 C11 1_555 1_555
O5 C12 1_555 1_555
C6 N1 1_555 1_555
C7 N2 1_555 1_555
C8 N1 1_555 1_555
C11 O3 1_555 1_555
C12 O4 1_555 1_555

#END
