
#######################################################################
#
#                 Cambridge Crystallographic Data Centre
#                                CCDC 
#
#######################################################################
#
# If this CIF has been generated from an entry in the Cambridge 
# Structural Database, then it will include bibliographic, chemical, 
# crystal, experimental, refinement or atomic coordinate data resulting 
# from the CCDC's data processing and validation procedures.
#
#######################################################################

data_ZOYDUM
_chemical_formula_moiety         'C17 H15 N3 O1'
_chemical_name_systematic        
4-Methoxybenzaldehyde-((4-cyanophenyl)ethylidene)hydrazone
_symmetry_cell_setting           triclinic
_symmetry_space_group_name_H-M   'P -1'
_symmetry_Int_Tables_number      2
_space_group_name_Hall           '-P 1'
loop_
_symmetry_equiv_pos_site_id
_symmetry_equiv_pos_as_xyz
1 x,y,z
2 -x,-y,-z
_cell_length_a                   9.263(1)
_cell_length_b                   9.576(1)
_cell_length_c                   17.213(4)
_cell_angle_alpha                94.55(1)
_cell_angle_beta                 96.21(2)
_cell_angle_gamma                101.94(1)
_cell_volume                     1476.9
_exptl_crystal_colour            yellow
_cell_formula_units_Z            4
loop_
_atom_site_label
_atom_site_type_symbol
_atom_site_fract_x
_atom_site_fract_y
_atom_site_fract_z
O1 O 0.2503(1) 1.0717(1) -0.17112(6)
N1 N 0.2892(1) 0.5069(1) -0.00158(7)
N2 N 0.2454(1) 0.3679(1) 0.01941(7)
N3 N 0.1197(2) -0.3446(1) 0.17832(9)
C1 C 0.3847(2) 1.1779(2) -0.1573(1)
C2 C 0.2467(2) 0.9445(1) -0.14044(7)
C3 C 0.3666(2) 0.9096(1) -0.09626(8)
C4 C 0.3484(1) 0.7781(1) -0.06683(7)
C5 C 0.2128(1) 0.6787(1) -0.08114(7)
C6 C 0.0950(2) 0.7150(1) -0.12719(8)
C7 C 0.1111(2) 0.8467(1) -0.15593(8)
C8 C 0.1903(2) 0.5406(1) -0.04927(8)
C9 C 0.4159(2) 0.4599(2) 0.13999(9)
C10 C 0.3090(1) 0.3468(1) 0.08618(7)
C11 C 0.2690(1) 0.1978(1) 0.10775(7)
C12 C 0.3027(2) 0.1654(1) 0.18446(7)
C13 C 0.2649(2) 0.0268(1) 0.20392(7)
C14 C 0.1927(2) -0.0833(1) 0.14609(8)
C15 C 0.1583(2) -0.0525(1) 0.06954(8)
C16 C 0.1963(2) 0.0862(1) 0.05113(7)
C17 C 0.1526(2) -0.2286(2) 0.16459(9)
H1 H 0.467(2) 1.142(2) -0.181(1)
H2 H 0.412(2) 1.215(2) -0.095(1)
H3 H 0.358(2) 1.258(2) -0.192(1)
H4 H 0.471(2) 0.969(2) -0.0909(9)
H5 H 0.433(2) 0.753(2) -0.0359(8)
H6 H 0.003(2) 0.650(2) -0.1401(8)
H7 H 0.028(2) 0.877(2) -0.1876(9)
H8 H 0.102(2) 0.467(2) -0.0686(9)
H9 H 0.470(3) 0.440(2) 0.186(1)
H10 H 0.469(2) 0.529(2) 0.106(1)
H11 H 0.370(2) 0.515(2) 0.171(1)
H12 H 0.350(2) 0.242(1) 0.2264(8)
H13 H 0.290(2) 0.007(1) 0.2583(8)
H14 H 0.109(2) -0.135(2) 0.0275(8)
H15 H 0.173(2) 0.101(2) -0.0037(8)
O2 O 0.7157(1) 0.2342(1) 0.39822(6)
N4 N 1.0055(2) 0.8917(1) 0.39185(7)
N5 N 1.0568(2) 1.0285(1) 0.36900(7)
N6 N 1.4136(2) 1.7951(2) 0.3324(1)
C18 C 0.6675(2) 0.1197(2) 0.3374(1)
C19 C 0.7634(1) 0.3689(2) 0.37782(8)
C20 C 0.8245(2) 0.4736(2) 0.44063(8)
C21 C 0.8778(2) 0.6127(2) 0.42751(8)
C22 C 0.8703(2) 0.6541(1) 0.35101(8)
C23 C 0.8079(2) 0.5487(2) 0.28943(8)
C24 C 0.7549(2) 0.4070(2) 0.30160(8)
C25 C 0.9320(2) 0.8009(2) 0.33653(8)
C26 C 1.2635(2) 1.0440(2) 0.4748(1)
C27 C 1.1773(2) 1.0998(2) 0.40978(8)
C28 C 1.2303(2) 1.2481(1) 0.39051(7)
C29 C 1.3766(2) 1.3219(2) 0.41281(9)
C30 C 1.4247(2) 1.4614(2) 0.39595(9)
C31 C 1.3247(2) 1.5307(2) 0.35716(8)
C32 C 1.1783(2) 1.4579(2) 0.33363(8)
C33 C 1.1328(2) 1.3190(2) 0.34996(8)
C34 C 1.3737(2) 1.6783(2) 0.3430(1)
H16 H 0.758(2) 0.117(2) 0.308(1)
H17 H 0.590(2) 0.136(2) 0.300(1)
H18 H 0.631(2) 0.033(2) 0.363(1)
H19 H 0.825(2) 0.447(1) 0.4959(8)
H20 H 0.919(2) 0.688(2) 0.4747(8)
H21 H 0.805(2) 0.574(1) 0.2384(8)
H22 H 0.717(2) 0.337(1) 0.2596(8)
H23 H 0.920(2) 0.823(2) 0.281(1)
H24 H 1.202(2) 0.967(2) 0.494(1)
H25 H 1.314(2) 1.123(2) 0.520(1)
H26 H 1.335(2) 1.005(2) 0.448(1)
H27 H 1.444(2) 1.275(2) 0.4411(9)
H28 H 1.529(2) 1.514(2) 0.4067(9)
H29 H 1.104(2) 1.505(2) 0.3040(9)
H30 H 1.023(2) 1.268(2) 0.3329(9)
loop_
_geom_bond_atom_site_label_1
_geom_bond_atom_site_label_2
_geom_bond_site_symmetry_1
_geom_bond_site_symmetry_2
O1 C1 1_555 1_555
N1 N2 1_555 1_555
N2 C10 1_555 1_555
N3 C17 1_555 1_555
C1 H1 1_555 1_555
C2 O1 1_555 1_555
C3 C2 1_555 1_555
C4 C3 1_555 1_555
C5 C4 1_555 1_555
C6 C5 1_555 1_555
C7 C2 1_555 1_555
C8 N1 1_555 1_555
C9 C10 1_555 1_555
C10 C11 1_555 1_555
C11 C12 1_555 1_555
C12 C13 1_555 1_555
C13 C14 1_555 1_555
C14 C15 1_555 1_555
C15 C16 1_555 1_555
C16 C11 1_555 1_555
C17 C14 1_555 1_555
H2 C1 1_555 1_555
H3 C1 1_555 1_555
H4 C3 1_555 1_555
H5 C4 1_555 1_555
H6 C6 1_555 1_555
H7 C7 1_555 1_555
H8 C8 1_555 1_555
H9 C9 1_555 1_555
H10 C9 1_555 1_555
H11 C9 1_555 1_555
H12 C12 1_555 1_555
H13 C13 1_555 1_555
H14 C15 1_555 1_555
H15 C16 1_555 1_555
O2 C18 1_555 1_555
N4 N5 1_555 1_555
N5 C27 1_555 1_555
N6 C34 1_555 1_555
C18 H16 1_555 1_555
C19 O2 1_555 1_555
C20 C19 1_555 1_555
C21 C20 1_555 1_555
C22 C21 1_555 1_555
C23 C22 1_555 1_555
C24 C19 1_555 1_555
C25 N4 1_555 1_555
C26 C27 1_555 1_555
C27 C28 1_555 1_555
C28 C29 1_555 1_555
C29 C30 1_555 1_555
C30 C31 1_555 1_555
C31 C32 1_555 1_555
C32 C33 1_555 1_555
C33 C28 1_555 1_555
C34 C31 1_555 1_555
H17 C18 1_555 1_555
H18 C18 1_555 1_555
H19 C20 1_555 1_555
H20 C21 1_555 1_555
H21 C23 1_555 1_555
H22 C24 1_555 1_555
H23 C25 1_555 1_555
H24 C26 1_555 1_555
H25 C26 1_555 1_555
H26 C26 1_555 1_555
H27 C29 1_555 1_555
H28 C30 1_555 1_555
H29 C32 1_555 1_555
H30 C33 1_555 1_555
C5 C8 1_555 1_555
C6 C7 1_555 1_555
C22 C25 1_555 1_555
C23 C24 1_555 1_555

#END
