
#######################################################################
#
#                 Cambridge Crystallographic Data Centre
#                                CCDC 
#
#######################################################################
#
# If this CIF has been generated from an entry in the Cambridge 
# Structural Database, then it will include bibliographic, chemical, 
# crystal, experimental, refinement or atomic coordinate data resulting 
# from the CCDC's data processing and validation procedures.
#
#######################################################################

data_ZOYGOL
_chemical_formula_moiety         'C29 H23 Cl1 O4 S1'
_chemical_name_systematic        
2-(2-((4-chlorophenyl)sulfonyl)-2-phenylethyl)-1,3-diphenylpropane-1,3-dione
_symmetry_cell_setting           triclinic
_symmetry_space_group_name_H-M   'P 1'
_symmetry_Int_Tables_number      1
_space_group_name_Hall           'P 1'
loop_
_symmetry_equiv_pos_site_id
_symmetry_equiv_pos_as_xyz
1 x,y,z
_cell_length_a                   5.8727(3)
_cell_length_b                   10.0139(6)
_cell_length_c                   11.4201(8)
_cell_angle_alpha                64.643(6)
_cell_angle_beta                 83.921(5)
_cell_angle_gamma                83.632(5)
_cell_volume                     601.875
_exptl_crystal_colour            'light colorless'
_cell_formula_units_Z            1
loop_
_atom_site_label
_atom_site_type_symbol
_atom_site_fract_x
_atom_site_fract_y
_atom_site_fract_z
S1 S 0.76758(13) 0.50565(9) 0.76739(8)
Cl1 Cl 0.6850(3) -0.16222(14) 0.90514(13)
O1 O 0.3745(6) 0.4045(4) 0.5394(3)
O2 O 0.2572(5) 0.7744(3) 0.3833(3)
O3 O 0.6458(7) 0.5320(4) 0.8715(3)
O4 O 1.0069(6) 0.5306(4) 0.7412(4)
C1 C 0.6122(6) 0.7744(4) 0.5961(4)
C2 C 0.1182(8) 0.3973(5) 0.3519(5)
H1 H 0.0878 0.3317 0.4379
C3 C 0.5853(7) 0.8977(4) 0.2700(3)
C4 C 0.4584(6) 0.7636(4) 0.3508(3)
C5 C 0.6175(6) 0.6131(4) 0.6201(3)
H2 H 0.4592 0.5841 0.6356
C6 C 0.7034(9) 0.0254(5) 0.8646(4)
C7 C 0.5844(6) 0.6104(4) 0.3965(3)
H3 H 0.6865 0.6083 0.3235
C8 C 0.4091(7) 0.4959(4) 0.4282(4)
C9 C 0.5326(8) 0.2566(5) 0.8533(4)
H4 H 0.4065 0.3139 0.8677
C10 C 0.4119(8) 0.8455(5) 0.6239(4)
H5 H 0.2811 0.7939 0.6598
C11 C 0.8048(7) 0.8541(5) 0.5450(4)
H6 H 0.9410 0.8076 0.5267
C12 C 0.7357(6) 0.5747(4) 0.5110(3)
H7 H 0.7837 0.4698 0.5474
H8 H 0.8729 0.6286 0.4776
C13 C 0.5179(8) 0.1079(5) 0.8850(5)
H9 H 0.3801 0.0645 0.9203
C14 C 0.2866(7) 0.4951(5) 0.3209(4)
C15 C 0.9266(7) 0.2351(5) 0.7770(4)
H10 H 1.0640 0.2781 0.7395
C16 C 0.9177(11) 1.0162(7) 0.1465(5)
H11 H 1.0670 1.0101 0.1118
C17 C 0.9071(9) 0.0859(5) 0.8110(4)
H12 H 1.0322 0.0275 0.7973
C18 C 0.7398(7) 0.3180(4) 0.7997(3)
C19 C 0.4792(9) 1.0358(5) 0.2509(4)
H13 H 0.3306 1.0426 0.2863
C20 C 0.8070(8) 0.8882(5) 0.2169(4)
H14 H 0.8801 0.7965 0.2285
C21 C 0.4082(10) 0.9949(7) 0.5977(5)
H15 H 0.2733 1.0430 0.6153
C22 C 0.3333(9) 0.5890(5) 0.1908(4)
H16 H 0.4481 0.6543 0.1680
C23 C -0.0054(9) 0.3963(6) 0.2558(6)
H17 H -0.1199 0.3309 0.2777
C24 C 0.7961(9) 1.0027(5) 0.5208(5)
H18 H 0.9268 1.0548 0.4867
C25 C 0.5912(14) 1.1627(6) 0.1802(6)
H19 H 0.5197 1.2549 0.1682
C26 C 0.8119(14) 1.1513(7) 0.1272(5)
H20 H 0.8882 1.2365 0.0781
C27 C 0.0400(11) 0.4915(7) 0.1279(6)
H21 H -0.0453 0.4917 0.0637
C28 C 0.6001(11) 1.0722(6) 0.5463(6)
H22 H 0.5951 1.1720 0.5291
C29 C 0.2111(11) 0.5861(6) 0.0955(5)
H23 H 0.2449 0.6486 0.0089
loop_
_geom_bond_atom_site_label_1
_geom_bond_atom_site_label_2
_geom_bond_site_symmetry_1
_geom_bond_site_symmetry_2
S1 O3 1_555 1_555
Cl1 C6 1_555 1_555
O1 C8 1_555 1_555
O2 C4 1_555 1_555
O4 S1 1_555 1_555
C1 C5 1_555 1_555
C2 H1 1_555 1_555
C3 C4 1_555 1_555
C4 C7 1_555 1_555
C5 S1 1_555 1_555
H2 C5 1_555 1_555
C6 C13 1_555 1_555
C7 H3 1_555 1_555
C8 C7 1_555 1_555
C9 H4 1_555 1_555
C10 C1 1_555 1_555
H5 C10 1_555 1_555
C11 C1 1_555 1_555
H6 C11 1_555 1_555
C12 C5 1_555 1_555
H7 C12 1_555 1_555
H8 C12 1_555 1_555
C13 C9 1_555 1_555
H9 C13 1_555 1_555
C14 C2 1_555 1_555
C15 H10 1_555 1_555
C16 H11 1_555 1_555
C17 C6 1_555 1_555
H12 C17 1_555 1_555
C18 S1 1_555 1_555
C19 C3 1_555 1_555
H13 C19 1_555 1_555
C20 C3 1_555 1_555
H14 C20 1_555 1_555
C21 C10 1_555 1_555
H15 C21 1_555 1_555
C22 C14 1_555 1_555
H16 C22 1_555 1_555
C23 C2 1_555 1_555
H17 C23 1_555 1_555
C24 C11 1_555 1_555
H18 C24 1_555 1_555
C25 C19 1_555 1_555
H19 C25 1_555 1_555
C26 C16 1_555 1_555
H20 C26 1_555 1_555
C27 C23 1_555 1_555
H21 C27 1_555 1_555
C28 C21 1_555 1_555
H22 C28 1_555 1_555
C29 C22 1_555 1_555
H23 C29 1_555 1_555
C7 C12 1_555 1_555
C8 C14 1_555 1_555
C9 C18 1_555 1_555
C15 C17 1_555 1_555
C15 C18 1_555 1_555
C16 C20 1_555 1_555
C24 C28 1_555 1_555
C25 C26 1_555 1_555
C27 C29 1_555 1_555

#END
