
#######################################################################
#
#                 Cambridge Crystallographic Data Centre
#                                CCDC 
#
#######################################################################
#
# If this CIF has been generated from an entry in the Cambridge 
# Structural Database, then it will include bibliographic, chemical, 
# crystal, experimental, refinement or atomic coordinate data resulting 
# from the CCDC's data processing and validation procedures.
#
#######################################################################

data_ZOYHOM
_chemical_formula_moiety         'C23 H24 N4 O8'
_chemical_name_systematic        
'Dimethyl 2-(2-((2,4-dinitrophenyl)hydrazono)-2-phenylethyl)cyclopentane-1,1-dicarboxylate'
_symmetry_cell_setting           monoclinic
_symmetry_space_group_name_H-M   'P 21'
_symmetry_Int_Tables_number      4
_space_group_name_Hall           'P 2yb'
loop_
_symmetry_equiv_pos_site_id
_symmetry_equiv_pos_as_xyz
1 x,y,z
2 -x,1/2+y,-z
_cell_length_a                   12.185(2)
_cell_length_b                   7.1012(14)
_cell_length_c                   13.398(3)
_cell_angle_alpha                90
_cell_angle_beta                 95.02(3)
_cell_angle_gamma                90
_cell_volume                     1154.86
_exptl_crystal_colour            red
_exptl_crystal_description       column
_cell_formula_units_Z            2
loop_
_atom_site_label
_atom_site_type_symbol
_atom_site_fract_x
_atom_site_fract_y
_atom_site_fract_z
O1 O 0.5180(2) 0.3787(3) 0.87297(11)
O2 O 0.50739(12) 0.6700(2) 0.81700(9)
O3 O 0.51114(12) 0.6674(2) 0.56951(11)
O4 O 0.65943(10) 0.5670(2) 0.66440(11)
O5 O 0.21267(14) 0.4716(4) 1.11672(11)
O6 O 0.26762(14) 0.4884(5) 0.97088(13)
O7 O -0.15797(15) 0.4457(3) 1.17828(12)
O8 O -0.28339(17) 0.4786(7) 1.06054(17)
N1 N 0.09788(12) 0.5278(2) 0.71179(11)
N2 N 0.12835(13) 0.5035(3) 0.81222(11)
N3 N 0.19406(14) 0.4785(4) 1.02661(12)
N4 N -0.18856(16) 0.4632(3) 1.09032(14)
C1 C 0.36539(14) 0.4224(2) 0.66158(12)
H1 H 0.3587 0.4137 0.5883
C2 C 0.48998(14) 0.4308(2) 0.69584(11)
C3 C 0.52825(17) 0.2247(3) 0.68128(15)
H2 H 0.5586 0.2108 0.6171
H3 H 0.5843 0.1899 0.7339
C4 C 0.42616(19) 0.1007(3) 0.6856(2)
H4 H 0.4117 0.0310 0.6236
H5 H 0.4368 0.0117 0.7405
C5 C 0.33043(17) 0.2328(3) 0.70139(18)
H6 H 0.2632 0.1891 0.6646
H7 H 0.3185 0.2415 0.7719
C6 C 0.29570(14) 0.5912(3) 0.68937(13)
H8 H 0.3037 0.6083 0.7615
H9 H 0.3226 0.7042 0.6589
C7 C 0.17530(13) 0.5647(2) 0.65507(12)
C8 C 0.13955(13) 0.5798(3) 0.54643(12)
C9 C 0.20420(15) 0.6695(3) 0.47963(14)
H10 H 0.2721 0.7199 0.5030
C10 C 0.16870(17) 0.6840(3) 0.37965(14)
H11 H 0.2126 0.7450 0.3363
C11 C 0.06938(18) 0.6097(3) 0.34324(14)
H12 H 0.0459 0.6201 0.2755
C12 C 0.00470(18) 0.5197(3) 0.40747(15)
H13 H -0.0628 0.4690 0.3831
C13 C 0.03927(16) 0.5040(3) 0.50802(14)
H14 H -0.0050 0.4420 0.5506
C14 C 0.05208(15) 0.4918(3) 0.87883(12)
C15 C 0.08074(15) 0.4769(3) 0.98363(13)
C16 C 0.00118(16) 0.4664(3) 1.05100(13)
H15 H 0.0217 0.4561 1.1193
C17 C -0.10699(16) 0.4713(3) 1.01679(14)
C18 C -0.13924(16) 0.4849(3) 0.91463(15)
H16 H -0.2137 0.4873 0.8922
C19 C -0.06165(15) 0.4947(3) 0.84781(13)
H17 H -0.0841 0.5035 0.7798
C20 C 0.50827(14) 0.4865(3) 0.80600(12)
C21 C 0.5177(2) 0.7425(4) 0.91907(17)
H18 H 0.5162 0.8776 0.9175
H19 H 0.5861 0.7007 0.9528
H20 H 0.4576 0.6969 0.9541
C22 C 0.55149(14) 0.5694(3) 0.63502(13)
C23 C 0.7268(2) 0.7017(5) 0.6171(3)
H21 H 0.8023 0.6870 0.6430
H22 H 0.7025 0.8270 0.6308
H23 H 0.7205 0.6808 0.5461
H24 H 0.198(2) 0.512(4) 0.8325(19)
loop_
_geom_bond_atom_site_label_1
_geom_bond_atom_site_label_2
_geom_bond_site_symmetry_1
_geom_bond_site_symmetry_2
O1 C20 1_555 1_555
O2 C20 1_555 1_555
O3 C22 1_555 1_555
O4 C22 1_555 1_555
O5 N3 1_555 1_555
O6 N3 1_555 1_555
O7 N4 1_555 1_555
O8 N4 1_555 1_555
N1 N2 1_555 1_555
N2 C14 1_555 1_555
N3 C15 1_555 1_555
N4 C17 1_555 1_555
C1 H1 1_555 1_555
C2 C1 1_555 1_555
C3 C2 1_555 1_555
H2 C3 1_555 1_555
H3 C3 1_555 1_555
C4 C3 1_555 1_555
H4 C4 1_555 1_555
H5 C4 1_555 1_555
C5 C1 1_555 1_555
H6 C5 1_555 1_555
H7 C5 1_555 1_555
C6 C1 1_555 1_555
H8 C6 1_555 1_555
H9 C6 1_555 1_555
C7 N1 1_555 1_555
C8 C7 1_555 1_555
C9 C8 1_555 1_555
H10 C9 1_555 1_555
C10 C9 1_555 1_555
H11 C10 1_555 1_555
C11 C10 1_555 1_555
H12 C11 1_555 1_555
C12 C11 1_555 1_555
H13 C12 1_555 1_555
C13 C8 1_555 1_555
H14 C13 1_555 1_555
C14 C15 1_555 1_555
C15 C16 1_555 1_555
C16 H15 1_555 1_555
C17 C16 1_555 1_555
C18 C17 1_555 1_555
H16 C18 1_555 1_555
C19 C14 1_555 1_555
H17 C19 1_555 1_555
C20 C2 1_555 1_555
C21 O2 1_555 1_555
H18 C21 1_555 1_555
H19 C21 1_555 1_555
H20 C21 1_555 1_555
C22 C2 1_555 1_555
C23 O4 1_555 1_555
H21 C23 1_555 1_555
H22 C23 1_555 1_555
H23 C23 1_555 1_555
H24 N2 1_555 1_555
C4 C5 1_555 1_555
C6 C7 1_555 1_555
C12 C13 1_555 1_555
C18 C19 1_555 1_555

#END
