
#######################################################################
#
#                 Cambridge Crystallographic Data Centre
#                                CCDC 
#
#######################################################################
#
# If this CIF has been generated from an entry in the Cambridge 
# Structural Database, then it will include bibliographic, chemical, 
# crystal, experimental, refinement or atomic coordinate data resulting 
# from the CCDC's data processing and validation procedures.
#
#######################################################################

data_ZOYHAW
_chemical_formula_moiety         'C10 H20 I1 N3 P1 1+,I1 1-'
_chemical_name_systematic        
'1-Iodo-n-butyl-1-azonia-3,5-diaza-7-phospha-adamantane iodide'
_symmetry_cell_setting           trigonal
_symmetry_space_group_name_H-M   'P -3'
_symmetry_Int_Tables_number      147
_space_group_name_Hall           '-P 3'
loop_
_symmetry_equiv_pos_site_id
_symmetry_equiv_pos_as_xyz
1 x,y,z
2 -y,x-y,z
3 -x+y,-x,z
4 -x,-y,-z
5 y,-x+y,-z
6 x-y,x,-z
_cell_length_a                   12.740(1)
_cell_length_b                   12.740(1)
_cell_length_c                   16.864(3)
_cell_angle_alpha                90
_cell_angle_beta                 90
_cell_angle_gamma                120
_cell_volume                     2370.45
_exptl_crystal_colour            colorless
_exptl_crystal_description       block
_cell_formula_units_Z            6
loop_
_atom_site_label
_atom_site_type_symbol
_atom_site_fract_x
_atom_site_fract_y
_atom_site_fract_z
I1 I 0.6412(2) 0.04509(15) 0.40114(9)
P1 P 0.8599(5) -0.3381(5) 0.1546(4)
N1 N 0.7279(15) -0.2455(13) 0.0830(9)
N2 N 0.6591(14) -0.3316(13) 0.2131(9)
N3 N 0.6239(14) -0.4639(13) 0.0975(9)
C1 C 0.7724(20) -0.3263(18) 0.2347(12)
H1 H 0.8223(20) -0.2507(18) 0.2617(12)
H2 H 0.7541(20) -0.3907(18) 0.2717(12)
C2 C 0.8468(20) -0.2266(18) 0.0892(11)
H3 H 0.8749(20) -0.2308(18) 0.0371(11)
H4 H 0.8989(20) -0.1461(18) 0.1094(11)
C3 C 0.7374(20) -0.4702(19) 0.1090(13)
H5 H 0.7177(20) -0.5397(19) 0.1414(13)
H6 H 0.7638(20) -0.4827(19) 0.0584(13)
C4 C 0.5706(16) -0.4583(16) 0.1699(12)
H7 H 0.4928(16) -0.4656(16) 0.1601(12)
H8 H 0.5591(16) -0.5246(16) 0.2031(12)
C5 C 0.6471(20) -0.3632(19) 0.0463(13)
H9 H 0.6817(20) -0.3696(19) -0.0027(13)
H10 H 0.5709(20) -0.3677(19) 0.0349(13)
C6 C 0.6828(16) -0.2319(15) 0.1542(10)
H11 H 0.6082(16) -0.2320(15) 0.1446(10)
H12 H 0.7400(16) -0.1546(15) 0.1766(10)
C7 C 0.5776(24) -0.3352(19) 0.2805(16)
H13 H 0.5563(24) -0.4044(19) 0.3137(16)
H14 H 0.5043(24) -0.3430(19) 0.2587(16)
C8 C 0.6351(24) -0.2231(25) 0.3296(14)
H15 H 0.6559(24) -0.1538(25) 0.2966(14)
H16 H 0.7086(24) -0.2150(25) 0.3513(14)
C9 C 0.5585(23) -0.2216(24) 0.3989(12)
H17 H 0.5303(23) -0.2970(24) 0.4266(12)
H18 H 0.4889(23) -0.2228(24) 0.3758(12)
C10 C 0.6184(26) -0.1158(22) 0.4574(12)
H19 H 0.5654(26) -0.1337(22) 0.5021(12)
H20 H 0.6947(26) -0.1049(22) 0.4758(12)
I2 I 0.3333 0.6667 0.6786(2)
I3 I 0.6667 0.3333 0.8872(2)
I4 I 1.0000 0.0000 0.2741(3)
loop_
_geom_bond_atom_site_label_1
_geom_bond_atom_site_label_2
_geom_bond_site_symmetry_1
_geom_bond_site_symmetry_2
I1 C10 1_555 1_555
P1 C1 1_555 1_555
N1 C2 1_555 1_555
N2 C1 1_555 1_555
N3 C3 1_555 1_555
C1 H1 1_555 1_555
H2 C1 1_555 1_555
C2 P1 1_555 1_555
H3 C2 1_555 1_555
H4 C2 1_555 1_555
C3 P1 1_555 1_555
H5 C3 1_555 1_555
H6 C3 1_555 1_555
C4 N2 1_555 1_555
H7 C4 1_555 1_555
H8 C4 1_555 1_555
C5 N1 1_555 1_555
H9 C5 1_555 1_555
H10 C5 1_555 1_555
C6 N1 1_555 1_555
H11 C6 1_555 1_555
H12 C6 1_555 1_555
C7 N2 1_555 1_555
H13 C7 1_555 1_555
H14 C7 1_555 1_555
C8 C7 1_555 1_555
H15 C8 1_555 1_555
H16 C8 1_555 1_555
C9 C8 1_555 1_555
H17 C9 1_555 1_555
H18 C9 1_555 1_555
C10 C9 1_555 1_555
H19 C10 1_555 1_555
H20 C10 1_555 1_555
N2 C6 1_555 1_555
N3 C4 1_555 1_555
N3 C5 1_555 1_555

#END
