
#######################################################################
#
#                 Cambridge Crystallographic Data Centre
#                                CCDC 
#
#######################################################################
#
# If this CIF has been generated from an entry in the Cambridge 
# Structural Database, then it will include bibliographic, chemical, 
# crystal, experimental, refinement or atomic coordinate data resulting 
# from the CCDC's data processing and validation procedures.
#
#######################################################################

data_ZOYQUB
_chemical_formula_moiety         'C26 H26 F4 N2 O1 S1'
_chemical_name_systematic        
(S)-N-((2S,3R)-3-((Diphenylmethylene)amino)-1,1,1-trifluoro-3-(4-fluorophenyl)propan-2-yl)-2-methylpropane-2-sulfinamide
_symmetry_cell_setting           orthorhombic
_symmetry_space_group_name_H-M   'P 21 21 21'
_symmetry_Int_Tables_number      19
_space_group_name_Hall           'P 2ac 2ab'
loop_
_symmetry_equiv_pos_site_id
_symmetry_equiv_pos_as_xyz
1 x,y,z
2 1/2-x,-y,1/2+z
3 -x,1/2+y,1/2-z
4 1/2+x,1/2-y,-z
_cell_length_a                   10.1347(14)
_cell_length_b                   14.7618(19)
_cell_length_c                   17.050(2)
_cell_angle_alpha                90
_cell_angle_beta                 90
_cell_angle_gamma                90
_cell_volume                     2550.79
_chemical_melting_point          '159-160 deg.C'
_cell_formula_units_Z            4
loop_
_atom_site_label
_atom_site_type_symbol
_atom_site_fract_x
_atom_site_fract_y
_atom_site_fract_z
C1 C 0.7206(4) 0.8677(3) 0.8274(2)
H1 H 0.7092 0.9214 0.7942
C2 C 0.6830(4) 0.7844(2) 0.7770(2)
H2 H 0.5867 0.7808 0.7729
C3 C 0.6562(3) 0.6363(2) 0.8313(2)
C4 C 1.1089(4) 0.9093(2) 0.8498(2)
C5 C 1.1209(6) 0.8628(4) 0.7705(3)
H3 H 1.2115 0.8475 0.7609
H4 H 1.0902 0.9030 0.7301
H5 H 1.0684 0.8087 0.7704
C6 C 1.1349(6) 0.8445(4) 0.9170(3)
H6 H 1.0801 0.7919 0.9114
H7 H 1.1151 0.8740 0.9658
H8 H 1.2260 0.8267 0.9165
C7 C 1.2028(5) 0.9907(4) 0.8534(4)
H9 H 1.1868 1.0242 0.9007
H10 H 1.1878 1.0292 0.8089
H11 H 1.2924 0.9697 0.8529
C8 C 0.6307(6) 0.8793(4) 0.8977(4)
C9 C 0.7418(4) 0.7911(2) 0.6953(2)
C10 C 0.8464(5) 0.7383(3) 0.6707(2)
H12 H 0.8832 0.6968 0.7055
C11 C 0.8980(6) 0.7452(3) 0.5959(3)
H13 H 0.9680 0.7090 0.5798
C12 C 0.8416(6) 0.8075(3) 0.5463(3)
C13 C 0.7393(7) 0.8615(4) 0.5668(3)
H14 H 0.7032 0.9027 0.5315
C14 C 0.6902(6) 0.8532(4) 0.6424(3)
H15 H 0.6208 0.8902 0.6580
C15 C 0.7149(4) 0.5569(2) 0.87166(19)
C16 C 0.6465(5) 0.4770(3) 0.8792(3)
H16 H 0.5613 0.4731 0.8591
C17 C 0.7014(6) 0.4020(4) 0.9161(4)
H17 H 0.6539 0.3482 0.9192
C18 C 0.8234(6) 0.4070(3) 0.9474(3)
H18 H 0.8587 0.3576 0.9739
C19 C 0.8947(6) 0.4847(4) 0.9401(3)
H19 H 0.9798 0.4876 0.9604
C20 C 0.8414(5) 0.5598(3) 0.9025(3)
H20 H 0.8911 0.6125 0.8979
C21 C 0.5127(3) 0.6308(2) 0.8099(2)
C22 C 0.4716(5) 0.6307(3) 0.7324(2)
H21 H 0.5334 0.6347 0.6922
C23 C 0.3373(5) 0.6247(3) 0.7146(3)
H22 H 0.3098 0.6245 0.6625
C24 C 0.2448(5) 0.6192(3) 0.7745(3)
H23 H 0.1553 0.6162 0.7627
C25 C 0.2858(4) 0.6182(3) 0.8506(3)
H24 H 0.2238 0.6136 0.8906
C26 C 0.4184(4) 0.6239(3) 0.8692(2)
H25 H 0.4448 0.6232 0.9214
F1 F 0.6465(5) 0.8145(3) 0.9512(2)
F2 F 0.6490(4) 0.9573(2) 0.9348(2)
F3 F 0.5038(4) 0.8764(4) 0.8765(3)
F4 F 0.8944(5) 0.8147(3) 0.47198(16)
N1 N 0.8575(3) 0.86475(19) 0.8502(2)
H26 H 0.872(5) 0.816(2) 0.875(2)
N2 N 0.7318(3) 0.7038(2) 0.8169(2)
O1 O 0.9378(4) 0.9950(4) 0.9406(3)
S1 S 0.94382(10) 0.95901(6) 0.85905(7)
loop_
_geom_bond_atom_site_label_1
_geom_bond_atom_site_label_2
_geom_bond_site_symmetry_1
_geom_bond_site_symmetry_2
C1 H1 1_555 1_555
C2 C1 1_555 1_555
H2 C2 1_555 1_555
C3 C15 1_555 1_555
C4 C5 1_555 1_555
C5 H3 1_555 1_555
H4 C5 1_555 1_555
H5 C5 1_555 1_555
C6 C4 1_555 1_555
H6 C6 1_555 1_555
H7 C6 1_555 1_555
H8 C6 1_555 1_555
C7 C4 1_555 1_555
H9 C7 1_555 1_555
H10 C7 1_555 1_555
H11 C7 1_555 1_555
C8 C1 1_555 1_555
C9 C2 1_555 1_555
C10 C9 1_555 1_555
H12 C10 1_555 1_555
C11 C10 1_555 1_555
H13 C11 1_555 1_555
C12 C11 1_555 1_555
C13 C12 1_555 1_555
H14 C13 1_555 1_555
C14 C9 1_555 1_555
H15 C14 1_555 1_555
C15 C16 1_555 1_555
C16 H16 1_555 1_555
C17 C16 1_555 1_555
H17 C17 1_555 1_555
C18 C17 1_555 1_555
H18 C18 1_555 1_555
C19 C18 1_555 1_555
H19 C19 1_555 1_555
C20 C15 1_555 1_555
H20 C20 1_555 1_555
C21 C3 1_555 1_555
C22 C21 1_555 1_555
H21 C22 1_555 1_555
C23 C22 1_555 1_555
H22 C23 1_555 1_555
C24 C23 1_555 1_555
H23 C24 1_555 1_555
C25 C24 1_555 1_555
H24 C25 1_555 1_555
C26 C21 1_555 1_555
H25 C26 1_555 1_555
F1 C8 1_555 1_555
F2 C8 1_555 1_555
F3 C8 1_555 1_555
F4 C12 1_555 1_555
N1 C1 1_555 1_555
H26 N1 1_555 1_555
N2 C2 1_555 1_555
O1 S1 1_555 1_555
S1 C4 1_555 1_555
C3 N2 1_555 1_555
C13 C14 1_555 1_555
C19 C20 1_555 1_555
C25 C26 1_555 1_555
N1 S1 1_555 1_555

#END
