
#######################################################################
#
#                 Cambridge Crystallographic Data Centre
#                                CCDC 
#
#######################################################################
#
# If this CIF has been generated from an entry in the Cambridge 
# Structural Database, then it will include bibliographic, chemical, 
# crystal, experimental, refinement or atomic coordinate data resulting 
# from the CCDC's data processing and validation procedures.
#
#######################################################################

data_ZOYQOV
_chemical_formula_moiety         'C26 H27 F3 N2 O1 S1'
_chemical_name_systematic        
(S)-N-((2S,3S)-3-((Diphenylmethylene)amino)-1,1,1-trifluoro-3-phenylpropan-2-yl)-2-methylpropane-2-sulfinamide
_symmetry_cell_setting           orthorhombic
_symmetry_space_group_name_H-M   'P 21 21 21'
_symmetry_Int_Tables_number      19
_space_group_name_Hall           'P 2ac 2ab'
loop_
_symmetry_equiv_pos_site_id
_symmetry_equiv_pos_as_xyz
1 x,y,z
2 1/2-x,-y,1/2+z
3 -x,1/2+y,1/2-z
4 1/2+x,1/2-y,-z
_cell_length_a                   8.844(2)
_cell_length_b                   11.236(3)
_cell_length_c                   24.871(7)
_cell_angle_alpha                90
_cell_angle_beta                 90
_cell_angle_gamma                90
_cell_volume                     2471.46
_chemical_melting_point          '133-134 deg.C'
_cell_formula_units_Z            4
loop_
_atom_site_label
_atom_site_type_symbol
_atom_site_fract_x
_atom_site_fract_y
_atom_site_fract_z
C1 C 0.5620(4) 0.8740(2) 0.40412(12)
C2 C 0.6403(4) 0.7881(3) 0.32050(11)
H1 H 0.5924 0.7171 0.3358
C3 C 0.8072(4) 0.7611(3) 0.30703(12)
H2 H 0.8539 0.8344 0.2936
C4 C 0.8696(5) 0.6187(3) 0.16217(13)
C5 C 0.5440(4) 0.9824(3) 0.43820(11)
C6 C 0.4713(5) 0.9778(3) 0.48782(12)
H3 H 0.4348 0.9057 0.5008
C7 C 0.4532(6) 1.0808(4) 0.51782(14)
H4 H 0.4045 1.0773 0.5509
C8 C 0.5060(6) 1.1869(4) 0.49942(16)
H5 H 0.4942 1.2554 0.5200
C9 C 0.5763(6) 1.1926(3) 0.45061(16)
H6 H 0.6121 1.2651 0.4379
C10 C 0.5944(5) 1.0914(3) 0.42033(13)
H7 H 0.6417 1.0966 0.3870
C11 C 0.5008(4) 0.7589(3) 0.42573(11)
C12 C 0.3626(4) 0.7154(3) 0.40959(13)
H8 H 0.3056 0.7582 0.3848
C13 C 0.3072(5) 0.6096(3) 0.42942(15)
H9 H 0.2139 0.5810 0.4180
C14 C 0.3915(6) 0.5465(4) 0.46640(18)
H10 H 0.3550 0.4751 0.4802
C15 C 0.5289(6) 0.5891(4) 0.48278(16)
H11 H 0.5855 0.5463 0.5076
C16 C 0.5841(5) 0.6950(3) 0.46283(13)
H12 H 0.6774 0.7234 0.4743
C17 C 0.5553(4) 0.8268(2) 0.27069(11)
C18 C 0.6024(4) 0.9237(3) 0.24057(12)
H13 H 0.6865 0.9671 0.2514
C19 C 0.5257(5) 0.9560(3) 0.19483(14)
H14 H 0.5607 1.0194 0.1743
C20 C 0.3985(5) 0.8960(4) 0.17908(15)
H15 H 0.3465 0.9194 0.1484
C21 C 0.3486(5) 0.8018(4) 0.20861(16)
H16 H 0.2618 0.7610 0.1983
C22 C 0.4272(4) 0.7672(3) 0.25397(13)
H17 H 0.3931 0.7022 0.2737
C23 C 0.8978(5) 0.7183(4) 0.35498(15)
C24 C 0.7756(5) 0.5075(3) 0.16925(16)
H18 H 0.7432 0.4793 0.1347
H19 H 0.6888 0.5253 0.1910
H20 H 0.8352 0.4473 0.1866
C25 C 0.7775(5) 0.7243(3) 0.14359(14)
H21 H 0.8386 0.7949 0.1450
H22 H 0.6912 0.7339 0.1666
H23 H 0.7442 0.7114 0.1073
C26 C 1.0015(5) 0.5966(3) 0.12386(13)
H24 H 1.0605 0.5308 0.1367
H25 H 1.0637 0.6665 0.1221
H26 H 0.9631 0.5786 0.0887
F1 F 1.0415(3) 0.6967(2) 0.34215(8)
F2 F 0.9012(3) 0.79547(19) 0.39578(8)
F3 F 0.8434(3) 0.61650(19) 0.37539(8)
N1 N 0.6301(3) 0.8872(2) 0.35898(9)
N2 N 0.8104(3) 0.6732(2) 0.26418(11)
H27 H 0.761(3) 0.612(2) 0.2713(12)
O1 O 1.0522(3) 0.5547(2) 0.24042(10)
S1 S 0.96259(11) 0.66000(8) 0.22528(4)
loop_
_geom_bond_atom_site_label_1
_geom_bond_atom_site_label_2
_geom_bond_site_symmetry_1
_geom_bond_site_symmetry_2
C1 C5 1_555 1_555
C2 H1 1_555 1_555
C3 C2 1_555 1_555
H2 C3 1_555 1_555
C4 C24 1_555 1_555
C5 C6 1_555 1_555
C6 H3 1_555 1_555
C7 C6 1_555 1_555
H4 C7 1_555 1_555
C8 C7 1_555 1_555
H5 C8 1_555 1_555
C9 C8 1_555 1_555
H6 C9 1_555 1_555
C10 C5 1_555 1_555
H7 C10 1_555 1_555
C11 C1 1_555 1_555
C12 C11 1_555 1_555
H8 C12 1_555 1_555
C13 C12 1_555 1_555
H9 C13 1_555 1_555
C14 C13 1_555 1_555
H10 C14 1_555 1_555
C15 C14 1_555 1_555
H11 C15 1_555 1_555
C16 C11 1_555 1_555
H12 C16 1_555 1_555
C17 C2 1_555 1_555
C18 C17 1_555 1_555
H13 C18 1_555 1_555
C19 C18 1_555 1_555
H14 C19 1_555 1_555
C20 C19 1_555 1_555
H15 C20 1_555 1_555
C21 C20 1_555 1_555
H16 C21 1_555 1_555
C22 C17 1_555 1_555
H17 C22 1_555 1_555
C23 C3 1_555 1_555
C24 H18 1_555 1_555
H19 C24 1_555 1_555
H20 C24 1_555 1_555
C25 C4 1_555 1_555
H21 C25 1_555 1_555
H22 C25 1_555 1_555
H23 C25 1_555 1_555
C26 C4 1_555 1_555
H24 C26 1_555 1_555
H25 C26 1_555 1_555
H26 C26 1_555 1_555
F1 C23 1_555 1_555
F2 C23 1_555 1_555
F3 C23 1_555 1_555
N1 C1 1_555 1_555
N2 C3 1_555 1_555
H27 N2 1_555 1_555
O1 S1 1_555 1_555
S1 C4 1_555 1_555
C2 N1 1_555 1_555
C9 C10 1_555 1_555
C15 C16 1_555 1_555
C21 C22 1_555 1_555
N2 S1 1_555 1_555

#END
