
#######################################################################
#
#                 Cambridge Crystallographic Data Centre
#                                CCDC 
#
#######################################################################
#
# If this CIF has been generated from an entry in the Cambridge 
# Structural Database, then it will include bibliographic, chemical, 
# crystal, experimental, refinement or atomic coordinate data resulting 
# from the CCDC's data processing and validation procedures.
#
#######################################################################

data_ZOZBUN
_chemical_formula_moiety         'C31 H21 B1 N2 O1'
_chemical_name_systematic        
12-Phenyl-6H,12H-spiro[3,1-benzimidazo[1,2-c][1,3,2]benzoxazaborinine-6,5'-dibenzo[b,d]borole]
_symmetry_cell_setting           monoclinic
_symmetry_space_group_name_H-M   'P 21/c'
_symmetry_Int_Tables_number      14
_space_group_name_Hall           '-P 2ybc'
loop_
_symmetry_equiv_pos_site_id
_symmetry_equiv_pos_as_xyz
1 x,y,z
2 -x,1/2+y,1/2-z
3 -x,-y,-z
4 x,1/2-y,1/2+z
_cell_length_a                   10.564(2)
_cell_length_b                   15.403(3)
_cell_length_c                   15.147(3)
_cell_angle_alpha                90
_cell_angle_beta                 107.49(3)
_cell_angle_gamma                90
_cell_volume                     2350.74
_exptl_crystal_colour            colorless
_exptl_crystal_description       block
_cell_formula_units_Z            4
loop_
_atom_site_label
_atom_site_type_symbol
_atom_site_fract_x
_atom_site_fract_y
_atom_site_fract_z
B1 B 0.35840(14) 0.19440(10) 0.50186(10)
O1 O 0.41973(9) 0.13559(6) 0.58033(6)
N1 N 0.22652(10) 0.22924(7) 0.51990(7)
N2 N 0.04591(11) 0.22328(7) 0.56404(7)
C1 C 0.34555(13) 0.08109(9) 0.61347(9)
C2 C 0.40127(15) 0.00332(10) 0.65355(10)
H1 H 0.4876 -0.0109 0.6554
C3 C 0.32914(18) -0.05286(11) 0.69063(12)
H2 H 0.3672 -0.1048 0.7171
C4 C 0.20071(19) -0.03281(11) 0.68891(13)
H3 H 0.1530 -0.0711 0.7142
C5 C 0.14392(16) 0.04356(10) 0.64990(12)
H4 H 0.0575 0.0567 0.6487
C6 C 0.21509(13) 0.10212(9) 0.61171(9)
C7 C 0.16250(12) 0.18340(8) 0.56802(8)
C8 C 0.14906(13) 0.30053(8) 0.48155(8)
C9 C 0.16710(15) 0.36793(9) 0.42494(9)
H5 H 0.2425 0.3714 0.4055
C10 C 0.06779(16) 0.42902(10) 0.39937(10)
H6 H 0.0766 0.4748 0.3616
C11 C -0.04546(17) 0.42457(11) 0.42811(11)
H7 H -0.1100 0.4673 0.4089
C12 C -0.06458(15) 0.35861(10) 0.48420(10)
H8 H -0.1398 0.3556 0.5039
C13 C 0.03518(13) 0.29709(9) 0.50944(9)
C14 C -0.04973(13) 0.20490(9) 0.61220(10)
C15 C -0.02701(18) 0.23516(11) 0.70066(11)
H9 H 0.0516 0.2635 0.7314
C16 C -0.1257(2) 0.22208(15) 0.74291(16)
H10 H -0.1132 0.2414 0.8031
C17 C -0.2422(2) 0.18032(16) 0.6956(2)
H11 H -0.3079 0.1720 0.7241
C18 C -0.26176(19) 0.15124(14) 0.6076(2)
H12 H -0.3404 0.1231 0.5766
C19 C -0.16599(15) 0.16330(12) 0.56446(14)
H13 H -0.1791 0.1438 0.5043
C20 C 0.31915(13) 0.15247(9) 0.39928(9)
C21 C 0.24156(16) 0.08201(10) 0.35984(10)
H14 H 0.2025 0.0483 0.3955
C22 C 0.22148(19) 0.06128(12) 0.26748(11)
H15 H 0.1704 0.0132 0.2418
C23 C 0.27719(19) 0.11189(12) 0.21332(11)
H16 H 0.2630 0.0977 0.1514
C24 C 0.35334(17) 0.18306(11) 0.25039(10)
H17 H 0.3897 0.2174 0.2137
C25 C 0.37540(13) 0.20325(9) 0.34329(9)
C26 C 0.45441(13) 0.27517(9) 0.39698(10)
C27 C 0.51954(16) 0.34138(11) 0.36573(13)
H18 H 0.5187 0.3431 0.3042
C28 C 0.58549(17) 0.40457(11) 0.42710(16)
H19 H 0.6285 0.4493 0.4065
C29 C 0.58816(16) 0.40205(11) 0.51841(15)
H20 H 0.6343 0.4443 0.5594
C30 C 0.52200(14) 0.33640(10) 0.54948(11)
H21 H 0.5239 0.3352 0.6112
C31 C 0.45343(12) 0.27282(9) 0.48975(9)
loop_
_geom_bond_atom_site_label_1
_geom_bond_atom_site_label_2
_geom_bond_site_symmetry_1
_geom_bond_site_symmetry_2
B1 O1 1_555 1_555
O1 C1 1_555 1_555
N1 B1 1_555 1_555
N2 C7 1_555 1_555
C1 C2 1_555 1_555
C2 H1 1_555 1_555
C3 C2 1_555 1_555
H2 C3 1_555 1_555
C4 C3 1_555 1_555
H3 C4 1_555 1_555
C5 C4 1_555 1_555
H4 C5 1_555 1_555
C6 C1 1_555 1_555
C7 N1 1_555 1_555
C8 N1 1_555 1_555
C9 C8 1_555 1_555
H5 C9 1_555 1_555
C10 C9 1_555 1_555
H6 C10 1_555 1_555
C11 C10 1_555 1_555
H7 C11 1_555 1_555
C12 C11 1_555 1_555
H8 C12 1_555 1_555
C13 N2 1_555 1_555
C14 N2 1_555 1_555
C15 C14 1_555 1_555
H9 C15 1_555 1_555
C16 C15 1_555 1_555
H10 C16 1_555 1_555
C17 C16 1_555 1_555
H11 C17 1_555 1_555
C18 C17 1_555 1_555
H12 C18 1_555 1_555
C19 C14 1_555 1_555
H13 C19 1_555 1_555
C20 B1 1_555 1_555
C21 C20 1_555 1_555
H14 C21 1_555 1_555
C22 C21 1_555 1_555
H15 C22 1_555 1_555
C23 C22 1_555 1_555
H16 C23 1_555 1_555
C24 C23 1_555 1_555
H17 C24 1_555 1_555
C25 C20 1_555 1_555
C26 C25 1_555 1_555
C27 C26 1_555 1_555
H18 C27 1_555 1_555
C28 C27 1_555 1_555
H19 C28 1_555 1_555
C29 C28 1_555 1_555
H20 C29 1_555 1_555
C30 C29 1_555 1_555
H21 C30 1_555 1_555
C31 B1 1_555 1_555
C5 C6 1_555 1_555
C6 C7 1_555 1_555
C8 C13 1_555 1_555
C12 C13 1_555 1_555
C18 C19 1_555 1_555
C24 C25 1_555 1_555
C26 C31 1_555 1_555
C30 C31 1_555 1_555

#END
