
#######################################################################
#
#                 Cambridge Crystallographic Data Centre
#                                CCDC 
#
#######################################################################
#
# If this CIF has been generated from an entry in the Cambridge 
# Structural Database, then it will include bibliographic, chemical, 
# crystal, experimental, refinement or atomic coordinate data resulting 
# from the CCDC's data processing and validation procedures.
#
#######################################################################

data_ZOZSIQ
_chemical_formula_moiety         'C8 H15 O4 P1'
_chemical_name_systematic        'Diethyl (1-hydroxy-2-butynyl)phosphonate'
_symmetry_cell_setting           triclinic
_symmetry_space_group_name_H-M   'P -1'
_symmetry_Int_Tables_number      2
_space_group_name_Hall           '-P 1'
loop_
_symmetry_equiv_pos_site_id
_symmetry_equiv_pos_as_xyz
1 x,y,z
2 -x,-y,-z
_cell_length_a                   7.668(2)
_cell_length_b                   8.997(1)
_cell_length_c                   9.010(2)
_cell_angle_alpha                115.75(2)
_cell_angle_beta                 91.32(2)
_cell_angle_gamma                97.45(2)
_cell_volume                     552.943
_exptl_crystal_colour            colorless
_cell_formula_units_Z            2
loop_
_atom_site_label
_atom_site_type_symbol
_atom_site_fract_x
_atom_site_fract_y
_atom_site_fract_z
P1 P 0.4651(3) 0.6214(2) 0.3010(2)
O1 O 0.5066(7) 0.7741(6) 0.2619(6)
O2 O 0.3297(8) 0.4952(6) 0.1525(5)
O3 O 0.6477(7) 0.3754(5) 0.2545(5)
O4 O 0.4061(7) 0.6544(6) 0.4638(5)
C1 C 0.6712(11) 0.5381(9) 0.2628(8)
C2 C 0.8148(11) 0.6577(10) 0.3849(9)
C3 C 0.9219(11) 0.7466(10) 0.4847(10)
C4 C 1.0608(10) 0.8626(10) 0.6133(10)
C5 C 0.2039(15) 0.3711(12) 0.1679(12)
C6 C 0.0892(16) 0.2810(13) 0.0353(12)
C7 C 0.3750(14) 0.8789(12) 0.2718(12)
C8 C 0.4043(14) 0.9587(11) 0.1714(12)
H1 H 0.6310 0.3846 0.3509
H2 H 0.7000 0.5255 0.1553
H3 H 1.0372 0.8652 0.7185
H4 H 1.0640 0.9725 0.6203
H5 H 1.1726 0.8261 0.5838
H6 H 0.1367 0.4259 0.2595
H7 H 0.2653 0.2964 0.1917
H8 H 0.0069 0.2005 0.0513
H9 H 0.0261 0.3552 0.0123
H10 H 0.1560 0.2245 -0.0561
H11 H 0.3731 0.9605 0.3842
H12 H 0.2607 0.8110 0.2359
H13 H 0.3162 1.0273 0.1776
H14 H 0.5182 1.0272 0.2084
H15 H 0.4049 0.8766 0.0590
loop_
_geom_bond_atom_site_label_1
_geom_bond_atom_site_label_2
_geom_bond_site_symmetry_1
_geom_bond_site_symmetry_2
P1 O1 1_555 1_555
O1 C7 1_555 1_555
O2 P1 1_555 1_555
O3 C1 1_555 1_555
O4 P1 1_555 1_555
C1 P1 1_555 1_555
C2 C1 1_555 1_555
C3 C2 1_555 1_555
C4 C3 1_555 1_555
C5 O2 1_555 1_555
C6 C5 1_555 1_555
C7 C8 1_555 1_555
C8 H13 1_555 1_555
H1 O3 1_555 1_555
H2 C1 1_555 1_555
H3 C4 1_555 1_555
H4 C4 1_555 1_555
H5 C4 1_555 1_555
H6 C5 1_555 1_555
H7 C5 1_555 1_555
H8 C6 1_555 1_555
H9 C6 1_555 1_555
H10 C6 1_555 1_555
H11 C7 1_555 1_555
H12 C7 1_555 1_555
H14 C8 1_555 1_555
H15 C8 1_555 1_555

#END
