
#######################################################################
#
#                 Cambridge Crystallographic Data Centre
#                                CCDC 
#
#######################################################################
#
# If this CIF has been generated from an entry in the Cambridge 
# Structural Database, then it will include bibliographic, chemical, 
# crystal, experimental, refinement or atomic coordinate data resulting 
# from the CCDC's data processing and validation procedures.
#
#######################################################################

data_ZOZWIU
_chemical_formula_moiety         'C25 H24 N2 O3'
_chemical_name_systematic        
6'-Diethylamino-2'-methylaminospiro(isobenzofuran-1(3H),9'-(9H)xanthen)-3-one
_symmetry_cell_setting           monoclinic
_symmetry_space_group_name_H-M   'C 2/c'
_symmetry_Int_Tables_number      15
_space_group_name_Hall           '-C 2yn'
loop_
_symmetry_equiv_pos_site_id
_symmetry_equiv_pos_as_xyz
1 x,y,z
2 -x,y,1/2-z
3 1/2+x,1/2+y,z
4 1/2-x,1/2+y,1/2-z
5 -x,-y,-z
6 x,-y,1/2+z
7 1/2-x,1/2-y,-z
8 1/2+x,1/2-y,1/2+z
_cell_length_a                   30.973(8)
_cell_length_b                   8.040(5)
_cell_length_c                   21.268(6)
_cell_angle_alpha                90
_cell_angle_beta                 127.04(4)
_cell_angle_gamma                90
_cell_volume                     4227.52
_exptl_crystal_colour            'light yellow'
_cell_formula_units_Z            8
loop_
_atom_site_label
_atom_site_type_symbol
_atom_site_fract_x
_atom_site_fract_y
_atom_site_fract_z
O1 O 0.7401(1) -0.1397(6) 0.2266(2)
O2 O 0.6016(1) -0.1107(5) 0.0294(2)
O3 O 0.5218(1) -0.1076(6) -0.0897(2)
N1 N 0.8343(2) -0.0484(8) 0.1179(2)
N2 N 0.5710(2) -0.0506(8) 0.2461(2)
C1 C 0.6405(2) 0.0148(8) 0.0928(3)
C2 C 0.5571(2) -0.0268(8) -0.0323(3)
C3 C 0.5767(2) -0.077(1) 0.3175(3)
C4 C 0.8366(2) 0.0112(9) 0.0556(3)
C5 C 0.8113(2) -0.107(1) -0.0133(3)
C6 C 0.8797(2) -0.148(1) 0.1798(4)
C7 C 0.9193(3) -0.055(1) 0.2532(5)
C8 C 0.7378(2) -0.0757(8) 0.1639(3)
C9 C 0.6920(2) 0.0019(8) 0.1010(3)
C10 C 0.6961(2) 0.0623(8) 0.0431(3)
C11 C 0.7417(2) 0.0455(8) 0.0475(3)
C12 C 0.7876(2) -0.0345(8) 0.1123(3)
C13 C 0.7846(2) -0.0959(9) 0.1709(3)
C14 C 0.6969(2) -0.1108(8) 0.2283(3)
C15 C 0.6490(2) -0.0383(8) 0.1676(3)
C16 C 0.6078(2) -0.0164(8) 0.1747(3)
C17 C 0.6140(2) -0.0685(9) 0.2424(3)
C18 C 0.6631(2) -0.1404(9) 0.3033(3)
C19 C 0.7039(2) -0.1602(9) 0.2958(3)
C20 C 0.6106(2) 0.1728(8) 0.0579(2)
C21 C 0.5620(2) 0.1447(8) -0.0149(3)
C22 C 0.5271(2) 0.2791(9) -0.0597(3)
C23 C 0.5421(2) 0.437(1) -0.0282(3)
C24 C 0.5906(2) 0.4652(9) 0.0454(3)
C25 C 0.6255(2) 0.3340(9) 0.0896(3)
H1 H 0.536 0.009 0.195
H2 H 0.545 -0.061 0.312
H3 H 0.590 -0.189 0.338
H4 H 0.604 -0.002 0.359
H5 H 0.874 0.031 0.076
H6 H 0.818 0.117 0.036
H7 H 0.814 -0.065 -0.055
H8 H 0.830 -0.213 0.003
H9 H 0.774 -0.127 -0.038
H10 H 0.898 -0.199 0.160
H11 H 0.866 -0.244 0.192
H12 H 0.949 -0.115 0.295
H13 H 0.933 0.041 0.242
H14 H 0.901 -0.004 0.274
H15 H 0.665 0.120 -0.002
H16 H 0.742 0.089 0.006
H17 H 0.816 -0.152 0.218
H18 H 0.574 0.035 0.133
H19 H 0.668 -0.178 0.351
H20 H 0.738 -0.210 0.338
H21 H 0.493 0.260 -0.111
H22 H 0.518 0.531 -0.057
H23 H 0.600 0.578 0.067
H24 H 0.660 0.353 0.141
loop_
_geom_bond_atom_site_label_1
_geom_bond_atom_site_label_2
_geom_bond_site_symmetry_1
_geom_bond_site_symmetry_2
O1 C8 1_555 1_555
O2 C1 1_555 1_555
O3 C2 1_555 1_555
N1 C4 1_555 1_555
N2 C3 1_555 1_555
C1 C9 1_555 1_555
C2 O2 1_555 1_555
C3 H2 1_555 1_555
C4 C5 1_555 1_555
C5 H7 1_555 1_555
C6 N1 1_555 1_555
C7 C6 1_555 1_555
C8 C9 1_555 1_555
C9 C10 1_555 1_555
C10 C11 1_555 1_555
C11 C12 1_555 1_555
C12 N1 1_555 1_555
C13 C8 1_555 1_555
C14 O1 1_555 1_555
C15 C1 1_555 1_555
C16 C15 1_555 1_555
C17 N2 1_555 1_555
C18 C17 1_555 1_555
C19 C14 1_555 1_555
C20 C1 1_555 1_555
C21 C2 1_555 1_555
C22 C21 1_555 1_555
C23 C22 1_555 1_555
C24 C23 1_555 1_555
C25 C20 1_555 1_555
H1 N2 1_555 1_555
H3 C3 1_555 1_555
H4 C3 1_555 1_555
H5 C4 1_555 1_555
H6 C4 1_555 1_555
H8 C5 1_555 1_555
H9 C5 1_555 1_555
H10 C6 1_555 1_555
H11 C6 1_555 1_555
H12 C7 1_555 1_555
H13 C7 1_555 1_555
H14 C7 1_555 1_555
H15 C10 1_555 1_555
H16 C11 1_555 1_555
H17 C13 1_555 1_555
H18 C16 1_555 1_555
H19 C18 1_555 1_555
H20 C19 1_555 1_555
H21 C22 1_555 1_555
H22 C23 1_555 1_555
H23 C24 1_555 1_555
H24 C25 1_555 1_555
C12 C13 1_555 1_555
C14 C15 1_555 1_555
C16 C17 1_555 1_555
C18 C19 1_555 1_555
C20 C21 1_555 1_555
C24 C25 1_555 1_555

#END
