
#######################################################################
#
#                 Cambridge Crystallographic Data Centre
#                                CCDC 
#
#######################################################################
#
# If this CIF has been generated from an entry in the Cambridge 
# Structural Database, then it will include bibliographic, chemical, 
# crystal, experimental, refinement or atomic coordinate data resulting 
# from the CCDC's data processing and validation procedures.
#
#######################################################################

data_ZOZWES
_chemical_formula_moiety         'C15 H18 N2 O1'
_chemical_name_systematic        
3-(1,3-dimethyl-2-oxo-2,3-dihydro-1H-indol-3-yl)-2,2-dimethylpropanenitrile
_symmetry_cell_setting           orthorhombic
_symmetry_space_group_name_H-M   'P 21 21 21'
_symmetry_Int_Tables_number      19
_space_group_name_Hall           'P 2ac 2ab'
loop_
_symmetry_equiv_pos_site_id
_symmetry_equiv_pos_as_xyz
1 x,y,z
2 1/2-x,-y,1/2+z
3 1/2+x,1/2-y,-z
4 -x,1/2+y,1/2-z
_cell_length_a                   10.0794(16)
_cell_length_b                   11.3346(18)
_cell_length_c                   12.2346(19)
_cell_angle_alpha                90
_cell_angle_beta                 90
_cell_angle_gamma                90
_cell_volume                     1397.75
_cell_formula_units_Z            4
loop_
_atom_site_label
_atom_site_type_symbol
_atom_site_fract_x
_atom_site_fract_y
_atom_site_fract_z
O1 O -0.13965(14) -0.46180(12) -0.67700(13)
N1 N 0.04956(19) -0.30071(16) -0.50432(17)
C1 C 0.14008(16) -0.55868(14) -0.64375(12)
H1 H 0.1251 -0.5196 -0.7132
H2 H 0.2036 -0.6213 -0.6573
N2 N -0.15622(13) -0.53139(12) -0.50108(13)
C2 C 0.11682(18) -0.37487(15) -0.53367(14)
C3 C 0.20910(15) -0.46821(14) -0.56832(12)
C4 C 0.31910(18) -0.40843(19) -0.63556(18)
H3 H 0.3803 -0.4671 -0.6612
H4 H 0.3652 -0.3525 -0.5905
H5 H 0.2804 -0.3684 -0.6969
C5 C 0.2720(2) -0.5231(2) -0.46641(18)
H6 H 0.2034 -0.5513 -0.4186
H7 H 0.3241 -0.4648 -0.4291
H8 H 0.3279 -0.5878 -0.4876
C6 C 0.00822(14) -0.61852(12) -0.61147(12)
C7 C -0.0285(2) -0.70820(17) -0.70096(15)
H9 H -0.0336 -0.6687 -0.7703
H10 H -0.1128 -0.7431 -0.6842
H11 H 0.0381 -0.7687 -0.7043
C8 C 0.00334(14) -0.67316(13) -0.49924(12)
C9 C 0.07450(17) -0.76561(15) -0.45498(17)
H12 H 0.1389 -0.8038 -0.4964
C10 C 0.0498(2) -0.8012(2) -0.34922(19)
H13 H 0.0979 -0.8631 -0.3190
C11 C -0.0453(3) -0.7456(2) -0.28884(16)
H14 H -0.0606 -0.7706 -0.2176
C12 C -0.1200(2) -0.65286(19) -0.33033(15)
H15 H -0.1844 -0.6155 -0.2883
C13 C -0.09421(15) -0.61808(14) -0.43793(12)
C14 C -0.2558(2) -0.44925(18) -0.4608(3)
H16 H -0.3270 -0.4925 -0.4273
H17 H -0.2899 -0.4036 -0.5207
H18 H -0.2164 -0.3975 -0.4079
C15 C -0.10348(16) -0.52672(14) -0.60365(14)
loop_
_geom_bond_atom_site_label_1
_geom_bond_atom_site_label_2
_geom_bond_site_symmetry_1
_geom_bond_site_symmetry_2
O1 C15 1_555 1_555
N1 C2 1_555 1_555
C1 H1 1_555 1_555
H2 C1 1_555 1_555
N2 C13 1_555 1_555
C2 C3 1_555 1_555
C3 C1 1_555 1_555
C4 C3 1_555 1_555
H3 C4 1_555 1_555
H4 C4 1_555 1_555
H5 C4 1_555 1_555
C5 C3 1_555 1_555
H6 C5 1_555 1_555
H7 C5 1_555 1_555
H8 C5 1_555 1_555
C6 C1 1_555 1_555
C7 C6 1_555 1_555
H9 C7 1_555 1_555
H10 C7 1_555 1_555
H11 C7 1_555 1_555
C8 C6 1_555 1_555
C9 C8 1_555 1_555
H12 C9 1_555 1_555
C10 C9 1_555 1_555
H13 C10 1_555 1_555
C11 C10 1_555 1_555
H14 C11 1_555 1_555
C12 C11 1_555 1_555
H15 C12 1_555 1_555
C13 C8 1_555 1_555
C14 N2 1_555 1_555
H16 C14 1_555 1_555
H17 C14 1_555 1_555
H18 C14 1_555 1_555
C15 N2 1_555 1_555
C6 C15 1_555 1_555
C12 C13 1_555 1_555

#END
