
#######################################################################
#
#                 Cambridge Crystallographic Data Centre
#                                CCDC 
#
#######################################################################
#
# If this CIF has been generated from an entry in the Cambridge 
# Structural Database, then it will include bibliographic, chemical, 
# crystal, experimental, refinement or atomic coordinate data resulting 
# from the CCDC's data processing and validation procedures.
#
#######################################################################

data_ZOZXOB
_chemical_formula_moiety         'C10 H12 N4 O4'
_chemical_name_systematic        7-(2'-Deoxy-\a-D-ribofuranosyl)hypoxanthine
_symmetry_cell_setting           monoclinic
_symmetry_space_group_name_H-M   'P 21'
_symmetry_Int_Tables_number      4
_space_group_name_Hall           'P 2yb'
loop_
_symmetry_equiv_pos_site_id
_symmetry_equiv_pos_as_xyz
1 x,y,z
2 -x,1/2+y,-z
_cell_length_a                   4.972(1)
_cell_length_b                   9.379(2)
_cell_length_c                   11.326(2)
_cell_angle_alpha                90
_cell_angle_beta                 92.18(1)
_cell_angle_gamma                90
_cell_volume                     527.776
_exptl_crystal_colour            colorless
_cell_formula_units_Z            2
loop_
_atom_site_label
_atom_site_type_symbol
_atom_site_fract_x
_atom_site_fract_y
_atom_site_fract_z
C1 C 0.7848(2) 0.5044(2) 0.72070(9)
H1 H 0.861(3) 0.499(2) 0.641(2)
C2 C 1.0132(2) 0.5280(2) 0.81190(9)
H2 H 1.088(4) 0.440(3) 0.847(2)
H3 H 1.159(3) 0.587(2) 0.776(2)
C3 C 0.8871(2) 0.6201(2) 0.90610(9)
H4 H 1.018(3) 0.686(2) 0.946(2)
O1 O 0.7772(2) 0.5282(1) 0.99150(7)
H5 H 0.713(4) 0.569(3) 1.041(2)
C4 C 0.6707(2) 0.7046(2) 0.83510(9)
H6 H 0.497(3) 0.705(2) 0.876(2)
O2 O 0.6164(2) 0.6250 0.72680(7)
C5 C 0.7461(2) 0.8552(2) 0.8031(1)
H7 H 0.604(3) 0.900(2) 0.758(2)
H8 H 0.771(3) 0.912(2) 0.876(2)
O3 O 0.9893(2) 0.8517(1) 0.73900(8)
H9 H 1.035(4) 0.940(3) 0.721(2)
O4 O 0.4705(2) 0.4529(1) 0.47850(7)
N1 N 0.1515(2) 0.2772(1) 0.49650(8)
H10 H 0.097(4) 0.289(3) 0.426(2)
C6 C 0.0326(2) 0.1713(2) 0.5577(1)
H11 H -0.115(3) 0.130(2) 0.520(2)
N2 N 0.1015(2) 0.1318(1) 0.66530(8)
H12 H 0.711(3) 0.317(2) 0.909(2)
C7 C 0.3093(2) 0.2098(2) 0.71410(9)
C8 C 0.4381(2) 0.3197(2) 0.65790(9)
C9 C 0.3688(2) 0.3599(2) 0.53890(9)
N3 N 0.6267(2) 0.3735(1) 0.73900(7)
C10 C 0.6011(2) 0.2944(2) 0.83840(9)
N4 N 0.4139(2) 0.1940(1) 0.82730(8)
loop_
_geom_bond_atom_site_label_1
_geom_bond_atom_site_label_2
_geom_bond_site_symmetry_1
_geom_bond_site_symmetry_2
C1 H1 1_555 1_555
C2 C1 1_555 1_555
H2 C2 1_555 1_555
H3 C2 1_555 1_555
C3 C2 1_555 1_555
H4 C3 1_555 1_555
O1 C3 1_555 1_555
H5 O1 1_555 1_555
C4 C3 1_555 1_555
H6 C4 1_555 1_555
O2 C1 1_555 1_555
C5 C4 1_555 1_555
H7 C5 1_555 1_555
H8 C5 1_555 1_555
O3 C5 1_555 1_555
H9 O3 1_555 1_555
O4 C9 1_555 1_555
N1 H10 1_555 1_555
C6 N1 1_555 1_555
H11 C6 1_555 1_555
N2 C6 1_555 1_555
H12 C10 1_555 1_555
C7 N2 1_555 1_555
C8 C7 1_555 1_555
C9 N1 1_555 1_555
N3 C1 1_555 1_555
C10 N3 1_555 1_555
N4 C7 1_555 1_555
C4 O2 1_555 1_555
C8 C9 1_555 1_555
C8 N3 1_555 1_555
C10 N4 1_555 1_555

#END
