
#######################################################################
#
#                 Cambridge Crystallographic Data Centre
#                                CCDC 
#
#######################################################################
#
# If this CIF has been generated from an entry in the Cambridge 
# Structural Database, then it will include bibliographic, chemical, 
# crystal, experimental, refinement or atomic coordinate data resulting 
# from the CCDC's data processing and validation procedures.
#
#######################################################################

data_ZUBDAB
_chemical_formula_moiety         'C35 H32 N1 O5 P1'
_chemical_name_systematic        
'Ethyl 5-methyl-3-oxo-4(S)-phthalimido-2-triphenylphosphoranylidenehexanoate'
_symmetry_cell_setting           triclinic
_symmetry_space_group_name_H-M   'P 1'
_symmetry_Int_Tables_number      1
_space_group_name_Hall           'P 1'
loop_
_symmetry_equiv_pos_site_id
_symmetry_equiv_pos_as_xyz
1 x,y,z
_cell_length_a                   13.428(7)
_cell_length_b                   12.200(6)
_cell_length_c                   11.650(7)
_cell_angle_alpha                118.51(5)
_cell_angle_beta                 115.70(5)
_cell_angle_gamma                75.79(4)
_cell_volume                     1509.39
_exptl_crystal_colour            colorless
_chemical_melting_point          172-173deg.C
_cell_formula_units_Z            2
loop_
_atom_site_label
_atom_site_type_symbol
_atom_site_fract_x
_atom_site_fract_y
_atom_site_fract_z
P1 P 0.8736 0.2976 0.7776
O1 O 1.0410(4) 0.5289(6) 0.7930(5)
O2 O 1.0040(5) 0.5312(5) 0.9594(4)
O3 O 0.7718(3) 0.2899(3) 0.5186(4)
O4 O 1.0395(3) 0.2560(4) 0.4326(5)
O5 O 0.6656(3) 0.3250(3) 0.2415(4)
N1 N 0.8554(3) 0.3238(3) 0.3679(4)
C1 C 1.0655(8) 0.7025(9) 1.1721(10)
C2 C 1.1046(8) 0.6025(9) 1.0692(9)
C3 C 0.9914(4) 0.4874(5) 0.8242(6)
C4 C 0.9048(4) 0.3980(4) 0.7313(5)
C5 C 0.8452(4) 0.3681(4) 0.5878(5)
C6 C 0.8672(4) 0.4243(4) 0.5082(5)
C7 C 0.7913(4) 0.5396(4) 0.5003(5)
C8 C 0.8079(6) 0.5838(5) 0.4075(7)
C9 C 0.8118(6) 0.6475(5) 0.6462(6)
C10 C 0.7567(4) 0.2791(4) 0.2515(5)
C11 C 0.7910(4) 0.1649(4) 0.1454(5)
C12 C 0.9038(4) 0.1432(5) 0.2025(6)
C13 C 0.9464(4) 0.2432(4) 0.3461(5)
C14 C 0.7267(5) 0.0872(5) 0.0082(5)
C15 C 0.7813(5) -0.0122(5) -0.0657(6)
C16 C 0.8941(5) -0.0344(6) -0.0091(7)
C17 C 0.9569(5) 0.0431(6) 0.1263(7)
C18 C 0.6677(3) 0.4202(4) 0.7482(5)
C19 C 0.5631(3) 0.4463(4) 0.7559(5)
C20 C 0.5264(3) 0.3751(4) 0.7933(5)
C21 C 0.5942(3) 0.2777(4) 0.8229(5)
C22 C 0.6989(3) 0.2517(4) 0.8151(5)
C23 C 0.7356(3) 0.3229(4) 0.7778(5)
C24 C 0.9303(2) 0.3867(4) 1.0659(4)
C25 C 1.0036(2) 0.4031(4) 1.2013(4)
C26 C 1.1101(2) 0.3473(4) 1.2226(4)
C27 C 1.1434(2) 0.2752(4) 1.1085(4)
C28 C 1.0701(2) 0.2587(4) 0.9731(4)
C29 C 0.9635(2) 0.3145(4) 0.9518(4)
C30 C 0.8626(3) 0.0367(4) 0.6531(5)
C31 C 0.8971(3) -0.0847(4) 0.5788(5)
C32 C 0.9731(3) -0.1048(4) 0.5178(5)
C33 C 1.0145(3) -0.0034(4) 0.5310(5)
C34 C 0.9800(3) 0.1181(4) 0.6053(5)
C35 C 0.9041(3) 0.1381(4) 0.6663(5)
P2 P 0.4196(1) 0.9076(1) 0.8558(1)
O6 O 0.2516(4) 0.6761(6) 0.4721(4)
O7 O 0.2891(5) 0.6746(5) 0.6727(4)
O8 O 0.5217(3) 0.9154(3) 0.7062(3)
O9 O 0.2541(3) 0.9493(4) 0.3874(5)
O10 O 0.6274(3) 0.8796(4) 0.4989(5)
N2 N 0.4382(3) 0.8812(3) 0.4377(4)
C36 C 0.2279(9) 0.5014(10) 0.6510(13)
C37 C 0.1886(8) 0.6036(8) 0.6135(9)
C38 C 0.3019(4) 0.7173(5) 0.5955(5)
C39 C 0.3877(4) 0.8068(4) 0.6775(5)
C40 C 0.4478(4) 0.8375(4) 0.6243(5)
C41 C 0.4266(4) 0.7802(4) 0.4646(5)
C42 C 0.5023(5) 0.6646(5) 0.4179(5)
C43 C 0.4864(6) 0.6222(5) 0.2660(6)
C44 C 0.4823(6) 0.5577(5) 0.4365(7)
C45 C 0.5363(4) 0.9254(4) 0.4651(5)
C46 C 0.5031(4) 1.0404(4) 0.4380(5)
C47 C 0.3894(4) 1.0611(4) 0.4044(5)
C48 C 0.3459(4) 0.9628(4) 0.4061(5)
C49 C 0.5656(4) 1.1176(5) 0.4437(5)
C50 C 0.5111(5) 1.2180(5) 0.4140(6)
C51 C 0.3985(6) 1.2391(6) 0.3799(8)
C52 C 0.3358(5) 1.1624(6) 0.3755(7)
C53 C 0.6256(3) 0.7846(4) 0.9093(3)
C54 C 0.7303(3) 0.7586(4) 0.9955(3)
C55 C 0.7671(3) 0.8298(4) 1.1408(3)
C56 C 0.6991(3) 0.9270(4) 1.1999(3)
C57 C 0.5945(3) 0.9530(4) 1.1136(3)
C58 C 0.5577(3) 0.8818(4) 0.9683(3)
C59 C 0.4299(4) 1.1683(4) 1.0025(3)
C60 C 0.3956(4) 1.2898(4) 1.0154(3)
C61 C 0.3198(4) 1.3100(4) 0.8985(3)
C62 C 0.2783(4) 1.2087(4) 0.7688(3)
C63 C 0.3125(4) 1.0872(4) 0.7560(3)
C64 C 0.3883(4) 1.0670(4) 0.8729(3)
C65 C 0.3625(2) 0.8176(4) 0.9977(4)
C66 C 0.2891(2) 0.8014(4) 1.0434(4)
C67 C 0.1828(2) 0.8578(4) 1.0146(4)
C68 C 0.1499(2) 0.9304(4) 0.9399(4)
C69 C 0.2232(2) 0.9466(4) 0.8942(4)
C70 C 0.3295(2) 0.8902(4) 0.9230(4)
H1 H 0.2839(4) 1.0175(4) 0.6668(3)
H2 H 0.4356(2) 0.7788(4) 1.0175(4)
H3 H 0.3118(2) 0.7514(4) 1.0948(4)
H4 H 0.1323(2) 0.8466(4) 1.0461(4)
H5 H 0.0767(2) 0.9692(4) 0.9201(4)
H6 H 0.2005(2) 0.9966(4) 0.8428(4)
loop_
_geom_bond_atom_site_label_1
_geom_bond_atom_site_label_2
_geom_bond_site_symmetry_1
_geom_bond_site_symmetry_2
P1 C4 1_555 1_555
O1 C3 1_555 1_555
O2 C2 1_555 1_555
O3 C5 1_555 1_555
O4 C13 1_555 1_555
O5 C10 1_555 1_555
N1 C6 1_555 1_555
C1 C2 1_555 1_555
C3 O2 1_555 1_555
C4 C3 1_555 1_555
C5 C4 1_555 1_555
C6 C5 1_555 1_555
C7 C6 1_555 1_555
C8 C7 1_555 1_555
C9 C7 1_555 1_555
C10 N1 1_555 1_555
C11 C10 1_555 1_555
C12 C11 1_555 1_555
C13 N1 1_555 1_555
C14 C11 1_555 1_555
C15 C14 1_555 1_555
C16 C15 1_555 1_555
C17 C12 1_555 1_555
C18 C19 1_555 1_555
C19 C20 1_555 1_555
C20 C21 1_555 1_555
C21 C22 1_555 1_555
C22 C23 1_555 1_555
C23 P1 1_555 1_555
C24 C25 1_555 1_555
C25 C26 1_555 1_555
C26 C27 1_555 1_555
C27 C28 1_555 1_555
C28 C29 1_555 1_555
C29 P1 1_555 1_555
C30 C31 1_555 1_555
C31 C32 1_555 1_555
C32 C33 1_555 1_555
C33 C34 1_555 1_555
C34 C35 1_555 1_555
C35 P1 1_555 1_555
P2 C39 1_555 1_555
O6 C38 1_555 1_555
O7 C37 1_555 1_555
O8 C40 1_555 1_555
O9 C48 1_555 1_555
O10 C45 1_555 1_555
N2 C41 1_555 1_555
C36 C37 1_555 1_555
C38 O7 1_555 1_555
C39 C38 1_555 1_555
C40 C39 1_555 1_555
C41 C40 1_555 1_555
C42 C41 1_555 1_555
C43 C42 1_555 1_555
C44 C42 1_555 1_555
C45 N2 1_555 1_555
C46 C45 1_555 1_555
C47 C46 1_555 1_555
C48 N2 1_555 1_555
C49 C46 1_555 1_555
C50 C49 1_555 1_555
C51 C50 1_555 1_555
C52 C47 1_555 1_555
C53 C54 1_555 1_555
C54 C55 1_555 1_555
C55 C56 1_555 1_555
C56 C57 1_555 1_555
C57 C58 1_555 1_555
C58 P2 1_555 1_555
C59 C60 1_555 1_555
C60 C61 1_555 1_555
C61 C62 1_555 1_555
C62 C63 1_555 1_555
C63 C64 1_555 1_555
C64 P2 1_555 1_555
C65 C66 1_555 1_555
C66 C67 1_555 1_555
C67 C68 1_555 1_555
C68 C69 1_555 1_555
C69 C70 1_555 1_555
C70 P2 1_555 1_555
H1 C63 1_555 1_555
H2 C65 1_555 1_555
H3 C66 1_555 1_555
H4 C67 1_555 1_555
H5 C68 1_555 1_555
H6 C69 1_555 1_555
C12 C13 1_555 1_555
C16 C17 1_555 1_555
C18 C23 1_555 1_555
C24 C29 1_555 1_555
C30 C35 1_555 1_555
C47 C48 1_555 1_555
C51 C52 1_555 1_555
C53 C58 1_555 1_555
C59 C64 1_555 1_555
C65 C70 1_555 1_555

#END
