
#######################################################################
#
#                 Cambridge Crystallographic Data Centre
#                                CCDC 
#
#######################################################################
#
# If this CIF has been generated from an entry in the Cambridge 
# Structural Database, then it will include bibliographic, chemical, 
# crystal, experimental, refinement or atomic coordinate data resulting 
# from the CCDC's data processing and validation procedures.
#
#######################################################################

data_ZUBHAH
_chemical_formula_moiety         'C16 H14 N2'
_chemical_name_systematic        
3-((4-methylphenyl)amino)-2-phenylacrylonitrile
_symmetry_cell_setting           triclinic
_symmetry_space_group_name_H-M   'P -1'
_symmetry_Int_Tables_number      2
_space_group_name_Hall           '-P 1'
loop_
_symmetry_equiv_pos_site_id
_symmetry_equiv_pos_as_xyz
1 x,y,z
2 -x,-y,-z
_cell_length_a                   9.8863(8)
_cell_length_b                   9.9838(8)
_cell_length_c                   13.0825(10)
_cell_angle_alpha                90.483(2)
_cell_angle_beta                 91.317(2)
_cell_angle_gamma                99.600(2)
_cell_volume                     1272.76
_exptl_crystal_colour            colorless
_exptl_crystal_description       Block
_cell_formula_units_Z            4
loop_
_atom_site_label
_atom_site_type_symbol
_atom_site_fract_x
_atom_site_fract_y
_atom_site_fract_z
N1 N 0.4417(2) 0.0952(2) 0.85743(19)
H1 H 0.4013 0.0824 0.9166
C1 C 0.2723(3) -0.0792(3) 0.7770(2)
C2 C 0.5560(3) 0.2006(3) 0.8518(2)
C3 C 0.3904(3) 0.0135(3) 0.7795(2)
H2 H 0.4421 0.0209 0.7190
C4 C 0.2279(3) -0.1666(3) 0.6870(2)
C5 C 0.0456(3) -0.2966(3) 0.5831(2)
H3 H -0.0496 -0.3282 0.5714
C6 C 0.7794(3) 0.4161(3) 0.8497(2)
C7 C 0.1854(3) -0.0918(3) 0.8635(2)
C8 C 0.5983(3) 0.2611(3) 0.7612(3)
H4 H 0.5514 0.2306 0.6990
C9 C 0.7350(3) 0.3510(3) 0.9391(2)
H5 H 0.7813 0.3804 1.0018
C10 C 0.6266(3) 0.2457(3) 0.9402(2)
H6 H 0.6001 0.2035 1.0031
C11 C 0.0900(3) -0.2161(3) 0.6678(2)
H7 H 0.0242 -0.1941 0.7141
C12 C 0.3218(3) -0.2028(3) 0.6176(2)
H8 H 0.4172 -0.1718 0.6288
C13 C 0.7102(3) 0.3674(3) 0.7604(3)
H9 H 0.7391 0.4070 0.6972
N2 N 0.1175(3) -0.1013(3) 0.9336(2)
C14 C 0.2770(3) -0.2832(3) 0.5330(2)
H10 H 0.3420 -0.3057 0.4861
C15 C 0.1399(3) -0.3312(3) 0.5157(2)
H11 H 0.1101 -0.3875 0.4579
C16 C 0.8956(3) 0.5339(3) 0.8514(3)
H12 H 0.8632 0.6152 0.8771
H13 H 0.9294 0.5501 0.7821
H14 H 0.9700 0.5133 0.8963
N3 N 0.0541(3) 0.8728(2) 0.16987(19)
H15 H 0.0917 0.8904 0.1101
C17 C -0.0613(3) 0.7676(3) 0.1745(2)
C18 C 0.2158(3) 1.0507(3) 0.2508(2)
C19 C -0.2607(3) 0.6439(3) 0.0926(2)
H16 H -0.3203 0.6307 0.0341
C20 C 0.2603(3) 1.1321(3) 0.3436(2)
C21 C 0.2835(3) 1.0892(3) 0.1580(2)
C22 C -0.2906(3) 0.5602(3) 0.1762(2)
C23 C 0.1084(3) 0.9459(3) 0.2497(2)
H17 H 0.0679 0.9227 0.3137
C24 C -0.0870(3) 0.6856(3) 0.2597(2)
H18 H -0.0267 0.6999 0.3178
C25 C -0.1483(3) 0.7449(3) 0.0915(2)
H19 H -0.1310 0.7993 0.0325
N4 N 0.3385(3) 1.1173(3) 0.0828(2)
C26 C 0.3622(3) 1.3460(3) 0.4230(3)
H20 H 0.4050 1.4379 0.4160
C27 C -0.2008(3) 0.5828(3) 0.2599(2)
H21 H -0.2174 0.5273 0.3184
C28 C 0.3213(3) 1.2669(3) 0.3363(2)
H22 H 0.3356 1.3060 0.2707
C29 C -0.4145(3) 0.4510(3) 0.1757(3)
H23 H -0.4813 0.4713 0.1241
H24 H -0.4558 0.4468 0.2432
H25 H -0.3873 0.3634 0.1594
C30 C 0.2411(4) 1.0791(4) 0.4424(3)
H26 H 0.2016 0.9865 0.4505
C31 C 0.3410(3) 1.2924(4) 0.5182(3)
H27 H 0.3692 1.3467 0.5773
C32 C 0.2791(4) 1.1603(4) 0.5278(3)
H28 H 0.2621 1.1239 0.5940
loop_
_geom_bond_atom_site_label_1
_geom_bond_atom_site_label_2
_geom_bond_site_symmetry_1
_geom_bond_site_symmetry_2
N1 H1 1_555 1_555
C1 C3 1_555 1_555
C2 N1 1_555 1_555
C3 N1 1_555 1_555
H2 C3 1_555 1_555
C4 C1 1_555 1_555
C5 H3 1_555 1_555
C6 C9 1_555 1_555
C7 C1 1_555 1_555
C8 C2 1_555 1_555
H4 C8 1_555 1_555
C9 H5 1_555 1_555
C10 C2 1_555 1_555
H6 C10 1_555 1_555
C11 C4 1_555 1_555
H7 C11 1_555 1_555
C12 C4 1_555 1_555
H8 C12 1_555 1_555
C13 C6 1_555 1_555
H9 C13 1_555 1_555
N2 C7 1_555 1_555
C14 C12 1_555 1_555
H10 C14 1_555 1_555
C15 C5 1_555 1_555
H11 C15 1_555 1_555
C16 C6 1_555 1_555
H12 C16 1_555 1_555
H13 C16 1_555 1_555
H14 C16 1_555 1_555
N3 H15 1_555 1_555
C17 N3 1_555 1_555
C18 C20 1_555 1_555
C19 H16 1_555 1_555
C20 C28 1_555 1_555
C21 C18 1_555 1_555
C22 C19 1_555 1_555
C23 N3 1_555 1_555
H17 C23 1_555 1_555
C24 C17 1_555 1_555
H18 C24 1_555 1_555
C25 C17 1_555 1_555
H19 C25 1_555 1_555
N4 C21 1_555 1_555
C26 H20 1_555 1_555
C27 C22 1_555 1_555
H21 C27 1_555 1_555
C28 C26 1_555 1_555
H22 C28 1_555 1_555
C29 C22 1_555 1_555
H23 C29 1_555 1_555
H24 C29 1_555 1_555
H25 C29 1_555 1_555
C30 C20 1_555 1_555
H26 C30 1_555 1_555
C31 C26 1_555 1_555
H27 C31 1_555 1_555
C32 C30 1_555 1_555
H28 C32 1_555 1_555
C5 C11 1_555 1_555
C8 C13 1_555 1_555
C9 C10 1_555 1_555
C14 C15 1_555 1_555
C18 C23 1_555 1_555
C19 C25 1_555 1_555
C24 C27 1_555 1_555
C31 C32 1_555 1_555

#END
