
#######################################################################
#
#                 Cambridge Crystallographic Data Centre
#                                CCDC 
#
#######################################################################
#
# If this CIF has been generated from an entry in the Cambridge 
# Structural Database, then it will include bibliographic, chemical, 
# crystal, experimental, refinement or atomic coordinate data resulting 
# from the CCDC's data processing and validation procedures.
#
#######################################################################

data_ZUBHEL
_chemical_formula_moiety         'C21 H13 F3 O3'
_chemical_name_systematic        
4-hydroxy-2-(2-naphthyl)-4-(trifluoromethyl)-4H-chromene-3-carbaldehyde
_symmetry_cell_setting           tetragonal
_symmetry_space_group_name_H-M   'P 41'
_symmetry_Int_Tables_number      76
_space_group_name_Hall           'P 4w'
loop_
_symmetry_equiv_pos_site_id
_symmetry_equiv_pos_as_xyz
1 x,y,z
2 -x,-y,1/2+z
3 -y,x,1/4+z
4 y,-x,3/4+z
_cell_length_a                   8.297
_cell_length_b                   8.297
_cell_length_c                   50.876
_cell_angle_alpha                90
_cell_angle_beta                 90
_cell_angle_gamma                90
_cell_volume                     3502.31
_cell_formula_units_Z            8
loop_
_atom_site_label
_atom_site_type_symbol
_atom_site_fract_x
_atom_site_fract_y
_atom_site_fract_z
O1 O 0.3220(5) 0.6956(6) 0.66958(8)
F1 F 0.8361(6) 0.7626(9) 0.70140(12)
F2 F 0.6887(6) 0.8592(7) 0.67087(12)
O2 O 0.7312(7) 0.4569(8) 0.69394(11)
O3 O 0.7537(9) 0.3607(11) 0.64411(15)
C1 C 0.3306(8) 0.6103(8) 0.62579(12)
C2 C 0.3671(9) 0.6908(11) 0.69593(14)
C3 C 0.4066(8) 0.6573(9) 0.60409(14)
F3 F 0.8696(6) 0.6887(9) 0.66135(12)
C4 C 0.5547(7) 0.5455(8) 0.65808(12)
C5 C 0.1581(9) 0.6341(9) 0.57862(14)
C6 C 0.4102(7) 0.6131(7) 0.65185(12)
C7 C 0.1632(8) 0.5713(9) 0.62514(13)
C8 C 0.5145(8) 0.6384(9) 0.70375(13)
C9 C 0.0801(9) 0.5815(11) 0.60149(15)
C10 C 0.6237(11) 0.4343(11) 0.63983(17)
C11 C 0.6382(8) 0.5886(9) 0.68359(12)
C12 C 0.3277(9) 0.6649(9) 0.57955(14)
C13 C 0.4372(12) 0.6869(15) 0.74933(18)
C14 C 0.0774(11) 0.6496(12) 0.55455(16)
C15 C 0.1537(15) 0.7003(15) 0.53329(19)
C16 C 0.5530(11) 0.6391(11) 0.73096(14)
C17 C 0.7580(8) 0.7254(11) 0.67913(15)
C18 C 0.2838(11) 0.7404(15) 0.73944(15)
C19 C 0.3224(15) 0.7324(17) 0.53404(19)
C20 C 0.4046(13) 0.7200(17) 0.55564(19)
C21 C 0.2470(9) 0.7430(12) 0.71330(17)
O4 O 0.1776(5) 0.1985(7) 0.57207(9)
F4 F -0.3381(6) 0.2676(9) 0.54040(11)
F5 F -0.1872(6) 0.3596(7) 0.56962(12)
F6 F -0.3714(6) 0.1906(9) 0.58022(11)
C22 C 0.1709(7) 0.1114(8) 0.61507(13)
C23 C 0.0865(8) 0.1118(8) 0.58965(11)
C24 C 0.3397(9) 0.1289(9) 0.66256(14)
C25 C 0.0918(9) 0.1532(10) 0.63718(14)
O5 O -0.2279(7) -0.0468(8) 0.54759(11)
C26 C 0.1317(8) 0.1908(10) 0.54541(12)
O6 O -0.2578(9) -0.1327(11) 0.59776(14)
C27 C -0.0148(9) 0.1420(9) 0.53762(13)
C28 C 0.3377(8) 0.0711(9) 0.61614(14)
C29 C 0.4178(8) 0.0813(10) 0.63863(15)
C30 C 0.3426(15) 0.2084(16) 0.70835(18)
C31 C -0.1392(8) 0.0860(10) 0.55783(14)
C32 C 0.1736(9) 0.1669(10) 0.66161(15)
C33 C -0.1310(11) -0.0630(11) 0.60245(17)
C34 C 0.4228(10) 0.1532(13) 0.68674(16)
C35 C -0.0568(8) 0.0488(9) 0.58368(12)
C36 C -0.0438(10) 0.1361(11) 0.51080(16)
C37 C -0.2596(8) 0.2313(12) 0.56195(14)
C38 C 0.2122(14) 0.2379(18) 0.50104(19)
C39 C 0.0686(13) 0.1882(14) 0.49339(15)
C40 C 0.2550(11) 0.2446(12) 0.52842(15)
C41 C 0.0951(12) 0.2193(16) 0.68460(18)
C42 C 0.1805(15) 0.2436(16) 0.70709(18)
loop_
_geom_bond_atom_site_label_1
_geom_bond_atom_site_label_2
_geom_bond_site_symmetry_1
_geom_bond_site_symmetry_2
O1 C2 1_555 1_555
F1 C17 1_555 1_555
F2 C17 1_555 1_555
O2 C11 1_555 1_555
O3 C10 1_555 1_555
C1 C3 1_555 1_555
C2 C8 1_555 1_555
C3 C12 1_555 1_555
F3 C17 1_555 1_555
C4 C6 1_555 1_555
C5 C9 1_555 1_555
C6 O1 1_555 1_555
C7 C1 1_555 1_555
C8 C11 1_555 1_555
C9 C7 1_555 1_555
C10 C4 1_555 1_555
C11 C4 1_555 1_555
C12 C5 1_555 1_555
C13 C16 1_555 1_555
C14 C5 1_555 1_555
C15 C14 1_555 1_555
C16 C8 1_555 1_555
C17 C11 1_555 1_555
C18 C13 1_555 1_555
C19 C15 1_555 1_555
C20 C12 1_555 1_555
C21 C2 1_555 1_555
O4 C23 1_555 1_555
F4 C37 1_555 1_555
F5 C37 1_555 1_555
F6 C37 1_555 1_555
C22 C23 1_555 1_555
C23 C35 1_555 1_555
C24 C29 1_555 1_555
C25 C22 1_555 1_555
O5 C31 1_555 1_555
C26 O4 1_555 1_555
O6 C33 1_555 1_555
C27 C26 1_555 1_555
C28 C22 1_555 1_555
C29 C28 1_555 1_555
C30 C34 1_555 1_555
C31 C27 1_555 1_555
C32 C24 1_555 1_555
C33 C35 1_555 1_555
C34 C24 1_555 1_555
C35 C31 1_555 1_555
C36 C27 1_555 1_555
C37 C31 1_555 1_555
C38 C39 1_555 1_555
C39 C36 1_555 1_555
C40 C26 1_555 1_555
C41 C32 1_555 1_555
C42 C30 1_555 1_555
C1 C6 1_555 1_555
C18 C21 1_555 1_555
C19 C20 1_555 1_555
C25 C32 1_555 1_555
C38 C40 1_555 1_555
C41 C42 1_555 1_555

#END
