
#######################################################################
#
#                 Cambridge Crystallographic Data Centre
#                                CCDC 
#
#######################################################################
#
# If this CIF has been generated from an entry in the Cambridge 
# Structural Database, then it will include bibliographic, chemical, 
# crystal, experimental, refinement or atomic coordinate data resulting 
# from the CCDC's data processing and validation procedures.
#
#######################################################################

data_ZUBKIS
_chemical_formula_moiety         'C26 H25 Cl1 N2 O6'
_chemical_name_systematic        
"ethyl 5-(2-chlorophenyl)-4-cyano-3-(2-ethoxy-2-oxoethyl)-1'-methyl-2'-oxo-1',2',4,5-tetrahydro-3H-spiro[furan-2,3'-indole]-4-carboxylate"
_symmetry_cell_setting           monoclinic
_symmetry_space_group_name_H-M   'P 21/c'
_symmetry_Int_Tables_number      14
_space_group_name_Hall           '-P 2ybc'
loop_
_symmetry_equiv_pos_site_id
_symmetry_equiv_pos_as_xyz
1 x,y,z
2 -x,1/2+y,1/2-z
3 -x,-y,-z
4 x,1/2-y,1/2+z
_cell_length_a                   11.9606(11)
_cell_length_b                   21.1995(17)
_cell_length_c                   10.6937(8)
_cell_angle_alpha                90
_cell_angle_beta                 109.815(5)
_cell_angle_gamma                90
_cell_volume                     2550.94
_cell_formula_units_Z            4
loop_
_atom_site_label
_atom_site_type_symbol
_atom_site_fract_x
_atom_site_fract_y
_atom_site_fract_z
Cl1 Cl 0.46068(7) 0.57816(4) 0.35874(8)
O1 O 0.80369(15) 0.54793(8) 0.67269(14)
O2 O 0.68544(17) 0.65454(10) 0.28868(16)
C1 C 0.8736(2) 0.59725(12) 0.4536(2)
O3 O 0.9680(2) 0.73897(11) 0.8562(2)
N1 N 0.9453(2) 0.57746(11) 0.4168(2)
C2 C 0.6733(2) 0.51700(13) 0.4590(2)
C3 C 0.7872(2) 0.62401(11) 0.5096(2)
C4 C 0.7179(2) 0.57087(12) 0.5532(2)
H1 H 0.6513 0.5896 0.5739
C5 C 0.8706(2) 0.60029(12) 0.7474(2)
C6 C 0.7452(3) 0.46592(13) 0.4616(2)
H2 H 0.8232 0.4658 0.5200
N2 N 0.9058(3) 0.61029(12) 0.97629(19)
C7 C 0.8525(2) 0.65535(12) 0.6460(2)
H3 H 0.7972 0.6854 0.6633
O4 O 0.7170(2) 0.63538(12) 0.8375(2)
C8 C 0.9942(3) 0.57961(12) 0.8269(2)
C9 C 0.7016(2) 0.66957(14) 0.4122(2)
C10 C 1.0099(3) 0.58753(14) 0.9619(2)
O5 O 0.6535(2) 0.71147(12) 0.4478(2)
C11 C 0.9623(3) 0.69169(13) 0.6501(2)
H4 H 0.9417 0.7215 0.5770
H5 H 1.0206 0.6626 0.6383
C12 C 0.8184(3) 0.61857(14) 0.8570(3)
C13 C 0.5565(3) 0.51528(14) 0.3691(2)
C14 C 1.0165(3) 0.72695(14) 0.7795(3)
O6 O 1.1261(2) 0.74344(13) 0.7918(3)
C15 C 0.7029(3) 0.41478(15) 0.3784(3)
H6 H 0.7527 0.3810 0.3793
C16 C 1.0840(3) 0.55476(14) 0.7882(3)
H7 H 1.0727 0.5486 0.6986
C17 C 0.5857(4) 0.41438(19) 0.2937(3)
H8 H 0.5565 0.3795 0.2398
C18 C 1.1170(4) 0.57117(19) 1.0591(3)
H9 H 1.1280 0.5759 1.1489
C19 C 0.5130(3) 0.46435(19) 0.2885(3)
H10 H 0.4347 0.4640 0.2309
C20 C 1.1916(3) 0.53900(18) 0.8850(4)
H11 H 1.2534 0.5227 0.8606
C21 C 0.5503(4) 0.6507(3) 0.0668(4)
H12 H 0.4928 0.6741 -0.0025
H13 H 0.5130 0.6142 0.0883
H14 H 0.6140 0.6378 0.0371
C22 C 0.5976(4) 0.6907(2) 0.1854(3)
H15 H 0.6342 0.7281 0.1641
H16 H 0.5338 0.7039 0.2163
C23 C 0.8896(4) 0.62527(18) 1.1030(3)
H17 H 0.8105 0.6408 1.0864
H18 H 0.9461 0.6569 1.1489
H19 H 0.9017 0.5879 1.1566
C24 C 1.2061(4) 0.5477(2) 1.0178(5)
H20 H 1.2786 0.5374 1.0816
C25 C 1.1900(4) 0.7788(3) 0.9116(5)
H21 H 1.1776 0.8237 0.8943
H22 H 1.1596 0.7678 0.9821
C26 C 1.2949(8) 0.7671(5) 0.9462(13)
H23 H 1.3362 0.7908 1.0248
H24 H 1.3248 0.7784 0.8765
H25 H 1.3070 0.7229 0.9648
loop_
_geom_bond_atom_site_label_1
_geom_bond_atom_site_label_2
_geom_bond_site_symmetry_1
_geom_bond_site_symmetry_2
Cl1 C13 1_555 1_555
O1 C4 1_555 1_555
O2 C9 1_555 1_555
C1 N1 1_555 1_555
O3 C14 1_555 1_555
C2 C4 1_555 1_555
C3 C1 1_555 1_555
C4 C3 1_555 1_555
H1 C4 1_555 1_555
C5 O1 1_555 1_555
C6 C2 1_555 1_555
H2 C6 1_555 1_555
N2 C10 1_555 1_555
C7 C3 1_555 1_555
H3 C7 1_555 1_555
O4 C12 1_555 1_555
C8 C5 1_555 1_555
C9 C3 1_555 1_555
C10 C8 1_555 1_555
O5 C9 1_555 1_555
C11 C7 1_555 1_555
H4 C11 1_555 1_555
H5 C11 1_555 1_555
C12 C5 1_555 1_555
C13 C2 1_555 1_555
C14 C11 1_555 1_555
O6 C14 1_555 1_555
C15 C6 1_555 1_555
H6 C15 1_555 1_555
C16 C8 1_555 1_555
H7 C16 1_555 1_555
C17 C15 1_555 1_555
H8 C17 1_555 1_555
C18 C10 1_555 1_555
H9 C18 1_555 1_555
C19 C13 1_555 1_555
H10 C19 1_555 1_555
C20 C16 1_555 1_555
H11 C20 1_555 1_555
C21 H12 1_555 1_555
H13 C21 1_555 1_555
H14 C21 1_555 1_555
C22 O2 1_555 1_555
H15 C22 1_555 1_555
H16 C22 1_555 1_555
C23 N2 1_555 1_555
H17 C23 1_555 1_555
H18 C23 1_555 1_555
H19 C23 1_555 1_555
C24 C18 1_555 1_555
H20 C24 1_555 1_555
C25 O6 1_555 1_555
H21 C25 1_555 1_555
H22 C25 1_555 1_555
C26 C25 1_555 1_555
H23 C26 1_555 1_555
H24 C26 1_555 1_555
H25 C26 1_555 1_555
C5 C7 1_555 1_555
N2 C12 1_555 1_555
C17 C19 1_555 1_555
C20 C24 1_555 1_555
C21 C22 1_555 1_555

#END
