
#######################################################################
#
#                 Cambridge Crystallographic Data Centre
#                                CCDC 
#
#######################################################################
#
# If this CIF has been generated from an entry in the Cambridge 
# Structural Database, then it will include bibliographic, chemical, 
# crystal, experimental, refinement or atomic coordinate data resulting 
# from the CCDC's data processing and validation procedures.
#
#######################################################################

data_ZUBNUH
_chemical_formula_moiety         'C4 H2 N6 O4,2(C2 H4 N4)'
_chemical_name_systematic        
'4H-1,2,4-Triazol-4-amine 3,6-dinitro-1,4-dihydropyrazolo[4,3-c]pyrazole'
_symmetry_cell_setting           triclinic
_symmetry_space_group_name_H-M   'P -1'
_symmetry_Int_Tables_number      2
_space_group_name_Hall           '-P 1'
loop_
_symmetry_equiv_pos_site_id
_symmetry_equiv_pos_as_xyz
1 x,y,z
2 -x,-y,-z
_cell_length_a                   5.4207(13)
_cell_length_b                   6.797(2)
_cell_length_c                   10.530(3)
_cell_angle_alpha                82.822(5)
_cell_angle_beta                 77.868(3)
_cell_angle_gamma                71.330(3)
_cell_volume                     358.65
_exptl_crystal_colour            colorless
_exptl_crystal_description       prism
_cell_formula_units_Z            1
loop_
_atom_site_label
_atom_site_type_symbol
_atom_site_fract_x
_atom_site_fract_y
_atom_site_fract_z
N1 N 1.1687(2) 0.03072(18) 0.34633(11)
H1 H 1.1642 0.0923 0.2678
N2 N 1.3844(2) -0.10702(18) 0.38459(11)
C1 C 1.3091(3) -0.1632(2) 0.50895(13)
C2 C 1.0412(3) -0.0611(2) 0.55366(12)
N3 N 1.4931(2) -0.30783(18) 0.58092(11)
O1 O 1.7217(2) -0.38708(17) 0.52592(11)
O2 O 1.4066(2) -0.34327(18) 0.69641(10)
N1A N 0.8313(2) -0.03072(18) 0.65367(11)
H1A H 0.8358 -0.0923 0.7322
N2A N 0.6156(2) 0.10702(18) 0.61541(11)
C1A C 0.6909(3) 0.1632(2) 0.49105(13)
C2A C 0.9588(3) 0.0611(2) 0.44634(12)
N3A N 0.5069(2) 0.30783(18) 0.41908(11)
O1A O 0.2783(2) 0.38708(17) 0.47408(11)
O2A O 0.5934(2) 0.34327(18) 0.30359(10)
N4 N 0.4222(2) 0.24647(19) 1.03269(11)
N5 N 0.1900(2) 0.20955(18) 1.10045(11)
C3 C 0.0323(3) 0.2337(2) 1.01721(13)
H2 H -0.1394 0.2171 1.0379
N6 N 0.1507(2) 0.28571(18) 0.89786(11)
C4 C 0.3915(3) 0.2927(2) 0.91202(13)
H3 H 0.5192 0.3265 0.8436
N7 N 0.0353(3) 0.3225(2) 0.78502(12)
H4 H 0.165(4) 0.274(3) 0.7183(18)
H5 H -0.020(3) 0.459(3) 0.7697(17)
loop_
_geom_bond_atom_site_label_1
_geom_bond_atom_site_label_2
_geom_bond_site_symmetry_1
_geom_bond_site_symmetry_2
N1 H1 1_555 1_555
N2 N1 1_555 1_555
C1 N2 1_555 1_555
C2 C1 1_555 1_555
N3 C1 1_555 1_555
O1 N3 1_555 1_555
O2 N3 1_555 1_555
N4 N5 1_555 1_555
N5 C3 1_555 1_555
C3 H2 1_555 1_555
N6 C3 1_555 1_555
C4 N4 1_555 1_555
H3 C4 1_555 1_555
N7 N6 1_555 1_555
H4 N7 1_555 1_555
H5 N7 1_555 1_555
N1A C2 1_555 1_555
H1A N1A 1_555 1_555
N2A N1A 1_555 1_555
C1A N2A 1_555 1_555
C2A N1 1_555 1_555
N3A C1A 1_555 1_555
O1A N3A 1_555 1_555
O2A N3A 1_555 1_555
C2 C2A 1_555 1_555
N6 C4 1_555 1_555
C1A C2A 1_555 1_555

#END
