
#######################################################################
#
#                 Cambridge Crystallographic Data Centre
#                                CCDC 
#
#######################################################################
#
# If this CIF has been generated from an entry in the Cambridge 
# Structural Database, then it will include bibliographic, chemical, 
# crystal, experimental, refinement or atomic coordinate data resulting 
# from the CCDC's data processing and validation procedures.
#
#######################################################################

data_ZUBZED
_chemical_formula_moiety         'C41 H29 N3'
_chemical_name_systematic        
4'-(4-(triphenylvinyl)phenyl)-2,2':6',2''-terpyridine
_symmetry_cell_setting           monoclinic
_symmetry_space_group_name_H-M   'P 21/c'
_symmetry_Int_Tables_number      14
_space_group_name_Hall           '-P 2ybc'
loop_
_symmetry_equiv_pos_site_id
_symmetry_equiv_pos_as_xyz
1 x,y,z
2 -x,1/2+y,1/2-z
3 -x,-y,-z
4 x,1/2-y,1/2+z
_cell_length_a                   9.2740(3)
_cell_length_b                   17.9959(5)
_cell_length_c                   18.3236(4)
_cell_angle_alpha                90
_cell_angle_beta                 102.983(3)
_cell_angle_gamma                90
_cell_volume                     2979.92
_exptl_crystal_colour            white
_exptl_crystal_description       block
_cell_formula_units_Z            4
loop_
_atom_site_label
_atom_site_type_symbol
_atom_site_fract_x
_atom_site_fract_y
_atom_site_fract_z
N1 N 0.3587(3) 0.78329(14) 0.15474(13)
C1 C 0.3109(3) 0.65262(17) 0.15298(16)
C2 C 0.4921(3) 0.84825(17) 0.26307(16)
H1 H 0.5290 0.8929 0.2852
C3 C 0.3796(3) 0.71941(17) 0.19400(16)
C4 C 0.4585(3) 0.71741(17) 0.26832(16)
H2 H 0.4738 0.6724 0.2938
C5 C 0.4142(3) 0.84635(17) 0.18854(16)
C6 C 0.5138(3) 0.78236(17) 0.30400(16)
C7 C 0.5933(3) 0.78224(17) 0.38412(16)
C8 C 0.2451(4) 0.65616(19) 0.07702(17)
H3 H 0.2429 0.7008 0.0512
C9 C 0.3902(3) 0.91370(17) 0.14121(17)
C10 C 0.7129(4) 0.82886(18) 0.41098(16)
H4 H 0.7445 0.8615 0.3785
C11 C 0.2510(4) 0.52258(16) 0.15232(17)
H5 H 0.2536 0.4775 0.1773
C12 C 0.5475(4) 0.73467(18) 0.43458(17)
H6 H 0.4667 0.7036 0.4179
C13 C 0.7414(4) 0.77906(19) 0.53594(17)
C14 C 0.6203(4) 0.73324(19) 0.50859(17)
H7 H 0.5880 0.7009 0.5412
C15 C 0.1890(4) 0.5280(2) 0.0799(2)
H8 H 0.1475 0.4856 0.0546
C16 C 0.1830(4) 0.59324(19) 0.04026(19)
H9 H 0.1379 0.5948 -0.0105
C17 C 0.7855(4) 0.82703(18) 0.48577(16)
H10 H 0.8654 0.8586 0.5027
C18 C 0.8227(4) 0.7676(2) 0.6157(2)
C19 C 0.3513(4) 0.90816(19) 0.06339(18)
H11 H 0.3398 0.8618 0.0405
C20 C 0.3478(4) 1.0395(2) 0.0565(2)
H12 H 0.3334 1.0823 0.0272
N2 N 0.3095(4) 0.5839(2) 0.18825(19)
C21 C 0.3845(4) 1.04707(16) 0.13035(17)
H13 H 0.3966 1.0938 0.1526
C22 C 0.8645(4) 0.8388(2) 0.80189(18)
H14 H 0.7758 0.8648 0.7891
C23 C 0.8658(4) 0.68813(19) 0.63620(17)
C24 C 0.8451(4) 0.8238(2) 0.6658(2)
C25 C 0.7854(4) 0.90005(19) 0.64537(17)
N3 N 0.4035(4) 0.9851(2) 0.17159(19)
C26 C 0.9518(4) 0.6519(2) 0.59453(18)
H15 H 0.9914 0.6778 0.5597
C27 C 0.3299(4) 0.9716(2) 0.02081(19)
H16 H 0.3038 0.9688 -0.0312
C28 C 0.8796(4) 0.9594(2) 0.66862(19)
H17 H 0.9777 0.9508 0.6927
C29 C 0.6411(4) 0.9162(2) 0.61021(18)
H18 H 0.5754 0.8773 0.5946
C30 C 1.1272(4) 0.7622(2) 0.8409(2)
H19 H 1.2158 0.7361 0.8542
C31 C 1.0584(4) 0.7708(2) 0.7665(2)
H20 H 1.1013 0.7505 0.7297
C32 C 0.9326(5) 0.8301(2) 0.87585(19)
H21 H 0.8895 0.8498 0.9128
C33 C 1.0646(5) 0.7923(2) 0.89552(19)
H22 H 1.1115 0.7872 0.9457
C34 C 0.9259(4) 0.8093(2) 0.74578(18)
C35 C 0.5921(5) 0.9876(3) 0.5977(2)
H23 H 0.4939 0.9964 0.5741
C36 C 0.8085(4) 0.6477(2) 0.68685(19)
H24 H 0.7500 0.6718 0.7146
C37 C 0.9787(5) 0.5749(3) 0.6059(2)
H25 H 1.0362 0.5492 0.5787
C38 C 0.8267(6) 1.0333(2) 0.6557(2)
H26 H 0.8890 1.0733 0.6720
C39 C 0.6832(5) 1.0448(3) 0.6190(2)
H27 H 0.6486 1.0930 0.6087
C40 C 0.9169(5) 0.5384(2) 0.6588(2)
H28 H 0.9342 0.4878 0.6670
C41 C 0.8341(5) 0.5742(3) 0.6976(2)
H29 H 0.7935 0.5487 0.7323
C42? C 0.792(2) 0.8136(14) 0.6188(13)
C43? C 0.856(2) 0.7631(12) 0.6695(11)
loop_
_geom_bond_atom_site_label_1
_geom_bond_atom_site_label_2
_geom_bond_site_symmetry_1
_geom_bond_site_symmetry_2
N1 C3 1_555 1_555
C1 C3 1_555 1_555
C2 H1 1_555 1_555
C3 C4 1_555 1_555
C4 H2 1_555 1_555
C5 N1 1_555 1_555
C6 C2 1_555 1_555
C7 C6 1_555 1_555
C8 C1 1_555 1_555
H3 C8 1_555 1_555
C9 C5 1_555 1_555
C10 C7 1_555 1_555
H4 C10 1_555 1_555
C11 H5 1_555 1_555
C12 C7 1_555 1_555
H6 C12 1_555 1_555
C13 C14 1_555 1_555
C14 C12 1_555 1_555
H7 C14 1_555 1_555
C15 C11 1_555 1_555
H8 C15 1_555 1_555
C16 C8 1_555 1_555
H9 C16 1_555 1_555
C17 C10 1_555 1_555
H10 C17 1_555 1_555
C18 C13 1_555 1_555
C19 C9 1_555 1_555
H11 C19 1_555 1_555
C20 H12 1_555 1_555
N2 C1 1_555 1_555
C21 C20 1_555 1_555
H13 C21 1_555 1_555
C22 H14 1_555 1_555
C23 C18 1_555 1_555
C24 C18 1_555 1_555
C25 C24 1_555 1_555
N3 C9 1_555 1_555
C26 C23 1_555 1_555
H15 C26 1_555 1_555
C27 C19 1_555 1_555
H16 C27 1_555 1_555
C28 C25 1_555 1_555
H17 C28 1_555 1_555
C29 C25 1_555 1_555
H18 C29 1_555 1_555
C30 H19 1_555 1_555
C31 C30 1_555 1_555
H20 C31 1_555 1_555
C32 C22 1_555 1_555
H21 C32 1_555 1_555
C33 C30 1_555 1_555
H22 C33 1_555 1_555
C34 C22 1_555 1_555
C35 C29 1_555 1_555
H23 C35 1_555 1_555
C36 C23 1_555 1_555
H24 C36 1_555 1_555
C37 C26 1_555 1_555
H25 C37 1_555 1_555
C38 C28 1_555 1_555
H26 C38 1_555 1_555
C39 C35 1_555 1_555
H27 C39 1_555 1_555
C40 C37 1_555 1_555
H28 C40 1_555 1_555
C41 C36 1_555 1_555
H29 C41 1_555 1_555
C2 C5 1_555 1_555
C4 C6 1_555 1_555
C11 N2 1_555 1_555
C13 C17 1_555 1_555
C15 C16 1_555 1_555
C20 C27 1_555 1_555
C21 N3 1_555 1_555
C24 C34 1_555 1_555
C31 C34 1_555 1_555
C32 C33 1_555 1_555
C38 C39 1_555 1_555
C40 C41 1_555 1_555

#END
