
#######################################################################
#
#                 Cambridge Crystallographic Data Centre
#                                CCDC 
#
#######################################################################
#
# If this CIF has been generated from an entry in the Cambridge 
# Structural Database, then it will include bibliographic, chemical, 
# crystal, experimental, refinement or atomic coordinate data resulting 
# from the CCDC's data processing and validation procedures.
#
#######################################################################

data_ZUCFOU
_chemical_formula_moiety         'C16 H19 N3 O4 S1,0.5(H2 O1)'
_chemical_name_systematic        
'3-hydroxy-6-(hydroxymethyl)-3-(1H-indol-3-ylmethyl)-1-methyl-6-(methylsulfanyl)piperazine-2,5-dione hemihydrate'
_symmetry_cell_setting           monoclinic
_symmetry_space_group_name_H-M   'P 21'
_symmetry_Int_Tables_number      4
_space_group_name_Hall           'P 2yb'
loop_
_symmetry_equiv_pos_site_id
_symmetry_equiv_pos_as_xyz
1 x,y,z
2 -x,1/2+y,-z
_cell_length_a                   8.8404(2)
_cell_length_b                   14.4203(3)
_cell_length_c                   13.5625(2)
_cell_angle_alpha                90
_cell_angle_beta                 92.8240(10)
_cell_angle_gamma                90
_cell_volume                     1726.86
_exptl_crystal_colour            colorless
_exptl_crystal_description       block
_cell_formula_units_Z            4
loop_
_atom_site_label
_atom_site_type_symbol
_atom_site_fract_x
_atom_site_fract_y
_atom_site_fract_z
S1 S 0.84590(5) 0.18750(3) 0.85923(3)
O1 O 0.64270(16) 0.28980(10) 0.60913(11)
H1 H 0.5936 0.2551 0.5719
O2 O 0.82072(13) 0.39960(8) 0.78721(9)
N1 N 1.01951(16) 0.35335(10) 0.70361(12)
H2 H 1.0623 0.4056 0.7174
O3 O 1.12645(18) 0.34012(13) 0.55073(11)
H3 H 1.0493 0.3676 0.5316
C1 C 1.2328(2) 0.03871(18) 0.73229(16)
H4 H 1.2478 0.0464 0.6654
C2 C 1.2090(3) -0.04789(19) 0.77048(19)
H5 H 1.2069 -0.0990 0.7286
C3 C 1.00938(18) 0.20456(13) 0.61475(11)
N2 N 0.89407(15) 0.17998(10) 0.66884(9)
C4 C 0.65234(18) 0.25137(13) 0.70496(13)
H6 H 0.6033 0.1912 0.7048
H7 H 0.6020 0.2915 0.7505
O4 O 1.04844(17) 0.15599(12) 0.54549(10)
C5 C 0.81906(16) 0.24141(10) 0.73698(10)
C6 C 0.6980(5) 0.2363(3) 0.9282(2)
H8 H 0.7017 0.3027 0.9241
H9 H 0.7112 0.2176 0.9961
H10 H 0.6017 0.2147 0.9016
C7 C 1.2174(2) 0.10064(17) 0.89728(15)
C8 C 1.0998(2) 0.29243(14) 0.63942(13)
C9 C 1.2341(2) 0.11593(16) 0.79616(15)
N3 N 1.22530(19) 0.18575(16) 0.94267(12)
H11 H 1.2214 0.1951 1.0051
C10 C 1.24765(19) 0.21424(16) 0.78199(15)
C11 C 1.2555(2) 0.26555(16) 0.68705(16)
H12 H 1.3084 0.2275 0.6409
H13 H 1.3145 0.3215 0.6986
C12 C 0.8258(3) 0.08786(14) 0.65033(18)
H14 H 0.7467 0.0928 0.5995
H15 H 0.7844 0.0652 0.7098
H16 H 0.9020 0.0457 0.6296
C13 C 1.1878(3) -0.0608(2) 0.8707(2)
H17 H 1.1696 -0.1201 0.8942
C14 C 1.2403(2) 0.25290(18) 0.87356(17)
H18 H 1.2449 0.3162 0.8867
C15 C 1.1933(3) 0.0128(2) 0.93566(17)
H19 H 1.1814 0.0040 1.0028
C16 C 0.88752(16) 0.33828(11) 0.74382(10)
S2 S 0.35523(6) 0.32189(4) 0.17229(3)
O5 O 0.15226(15) 0.15261(11) 0.15179(10)
O6 O 0.03445(17) 0.24156(12) 0.34776(11)
H20 H 0.0590 0.2490 0.4063
C17 C 0.5809(2) -0.02880(15) 0.04443(15)
H21 H 0.5181 -0.0540 -0.0057
N4 N 0.27519(15) 0.08521(10) 0.27968(10)
H22 H 0.2592 0.0325 0.2513
N5 N 0.36953(16) 0.25305(10) 0.35945(10)
C18 C 0.62334(17) 0.01691(11) 0.21352(13)
C19 C 0.60811(18) 0.03642(12) 0.31642(13)
O7 O 0.24526(18) 0.05006(9) 0.44615(10)
H23 H 0.1928 0.0934 0.4637
C20 C 0.7257(3) 0.00220(15) 0.02289(17)
H24 H 0.7581 -0.0040 -0.0410
C21 C 0.40676(19) 0.17710(13) 0.41071(11)
C22 C 0.23016(16) 0.15890(12) 0.22877(11)
C23 C 0.7390(2) 0.07900(17) 0.34759(17)
H25 H 0.7597 0.1007 0.4114
C24 C 0.1190(2) 0.30087(15) 0.29071(15)
H26 H 0.1372 0.3588 0.3257
H27 H 0.0631 0.3145 0.2291
C25 C 0.4791(2) 0.01207(12) 0.37935(13)
H28 H 0.5182 0.0056 0.4471
H29 H 0.4393 -0.0478 0.3583
C26 C 0.52964(19) -0.02267(12) 0.13867(13)
H30 H 0.4340 -0.0446 0.1523
C27 C 0.76781(18) 0.04922(13) 0.18831(15)
N6 N 0.83569(19) 0.08568(16) 0.27264(16)
H31 H 0.9252 0.1091 0.2775
O8 O 0.48448(19) 0.17895(11) 0.48858(9)
C28 C 0.4246(2) 0.34206(13) 0.40010(15)
H32 H 0.3857 0.3512 0.4642
H33 H 0.3907 0.3915 0.3571
H34 H 0.5333 0.3415 0.4055
C29 C 0.27048(18) 0.25521(12) 0.26933(11)
C30 C 0.8202(2) 0.04134(16) 0.09400(18)
H35 H 0.9163 0.0620 0.0796
C31 C 0.5211(3) 0.2540(2) 0.1557(2)
H36 H 0.5785 0.2490 0.2174
H37 H 0.5818 0.2832 0.1079
H38 H 0.4921 0.1932 0.1330
C32 C 0.34792(19) 0.08221(11) 0.37695(12)
O9 O 0.8405(2) 0.37818(14) 0.48260(13)
H39 H 0.8230 0.4371 0.5026
H40 H 0.7685 0.3452 0.5295
loop_
_geom_bond_atom_site_label_1
_geom_bond_atom_site_label_2
_geom_bond_site_symmetry_1
_geom_bond_site_symmetry_2
S1 C5 1_555 1_555
O1 H1 1_555 1_555
O2 C16 1_555 1_555
N1 H2 1_555 1_555
O3 H3 1_555 1_555
C1 H4 1_555 1_555
C2 C1 1_555 1_555
H5 C2 1_555 1_555
C3 N2 1_555 1_555
N2 C5 1_555 1_555
C4 O1 1_555 1_555
H6 C4 1_555 1_555
H7 C4 1_555 1_555
O4 C3 1_555 1_555
C5 C4 1_555 1_555
C6 S1 1_555 1_555
H8 C6 1_555 1_555
H9 C6 1_555 1_555
H10 C6 1_555 1_555
C7 C9 1_555 1_555
C8 N1 1_555 1_555
C9 C1 1_555 1_555
N3 C7 1_555 1_555
H11 N3 1_555 1_555
C10 C9 1_555 1_555
C11 C8 1_555 1_555
H12 C11 1_555 1_555
H13 C11 1_555 1_555
C12 N2 1_555 1_555
H14 C12 1_555 1_555
H15 C12 1_555 1_555
H16 C12 1_555 1_555
C13 C2 1_555 1_555
H17 C13 1_555 1_555
C14 N3 1_555 1_555
H18 C14 1_555 1_555
C15 C7 1_555 1_555
H19 C15 1_555 1_555
C16 N1 1_555 1_555
S2 C29 1_555 1_555
O5 C22 1_555 1_555
O6 H20 1_555 1_555
C17 H21 1_555 1_555
N4 H22 1_555 1_555
N5 C21 1_555 1_555
C18 C19 1_555 1_555
C19 C23 1_555 1_555
O7 H23 1_555 1_555
C20 C17 1_555 1_555
H24 C20 1_555 1_555
C21 O8 1_555 1_555
C22 N4 1_555 1_555
C23 H25 1_555 1_555
C24 O6 1_555 1_555
H26 C24 1_555 1_555
H27 C24 1_555 1_555
C25 C19 1_555 1_555
H28 C25 1_555 1_555
H29 C25 1_555 1_555
C26 C17 1_555 1_555
H30 C26 1_555 1_555
C27 C18 1_555 1_555
N6 C23 1_555 1_555
H31 N6 1_555 1_555
C28 N5 1_555 1_555
H32 C28 1_555 1_555
H33 C28 1_555 1_555
H34 C28 1_555 1_555
C29 N5 1_555 1_555
C30 C20 1_555 1_555
H35 C30 1_555 1_555
C31 S2 1_555 1_555
H36 C31 1_555 1_555
H37 C31 1_555 1_555
H38 C31 1_555 1_555
C32 N4 1_555 1_555
O9 H39 1_555 1_555
H40 O9 1_555 1_555
O3 C8 1_555 1_555
C3 C8 1_555 1_555
C5 C16 1_555 1_555
C10 C11 1_555 1_555
C10 C14 1_555 1_555
C13 C15 1_555 1_555
C18 C26 1_555 1_555
O7 C32 1_555 1_555
C21 C32 1_555 1_555
C22 C29 1_555 1_555
C24 C29 1_555 1_555
C25 C32 1_555 1_555
C27 N6 1_555 1_555
C27 C30 1_555 1_555

#END
