
#######################################################################
#
#                 Cambridge Crystallographic Data Centre
#                                CCDC 
#
#######################################################################
#
# If this CIF has been generated from an entry in the Cambridge 
# Structural Database, then it will include bibliographic, chemical, 
# crystal, experimental, refinement or atomic coordinate data resulting 
# from the CCDC's data processing and validation procedures.
#
#######################################################################

data_ZUCHEM
_chemical_formula_moiety         'C2 H7 N6 S1 1+,Cl1 O4 1-'
_chemical_name_systematic        
'(4-Amino-5-thioxo-4,5-dihydro-1H-1,2,4-triazol-3-yl)hydrazinium perchlorate'
_symmetry_cell_setting           orthorhombic
_symmetry_space_group_name_H-M   'P n a 21'
_symmetry_Int_Tables_number      33
_space_group_name_Hall           'P 2c -2n'
loop_
_symmetry_equiv_pos_site_id
_symmetry_equiv_pos_as_xyz
1 x,y,z
2 -x,-y,1/2+z
3 1/2+x,1/2-y,z
4 1/2-x,1/2+y,1/2+z
_cell_length_a                   8.687(3)
_cell_length_b                   8.159(3)
_cell_length_c                   11.664(4)
_cell_angle_alpha                90
_cell_angle_beta                 90
_cell_angle_gamma                90
_cell_volume                     826.712
_exptl_crystal_colour            colorless
_exptl_crystal_description       Block
_cell_formula_units_Z            4
loop_
_atom_site_label
_atom_site_type_symbol
_atom_site_fract_x
_atom_site_fract_y
_atom_site_fract_z
S1 S 0.38105(4) 0.22848(5) 0.58636(3)
N1 N 0.20171(14) 0.46133(16) 0.68506(10)
N2 N 0.20863(14) 0.60502(16) 0.74791(11)
N3 N 0.44038(14) 0.51196(16) 0.70608(10)
N4 N 0.60037(14) 0.5164(2) 0.69068(13)
N5 N 0.42242(15) 0.75266(17) 0.82256(12)
N6 N 0.31330(15) 0.86901(17) 0.86476(11)
H1 H 0.2452 0.8945 0.8082
H2 H 0.3634 0.9614 0.8876
H3 H 0.2618 0.8252 0.9254
C1 C 0.33915(17) 0.4013(2) 0.65828(11)
C2 C 0.35584(17) 0.63028(19) 0.75952(12)
H4 H 0.622(2) 0.560(3) 0.624(2)
H5 H 0.109(2) 0.416(3) 0.6667(18)
H6 H 0.503(2) 0.808(2) 0.7939(16)
H7 H 0.625(3) 0.421(4) 0.677(2)
Cl1 Cl 0.39158(4) -0.20179(4) 0.46249(3)
O1 O 0.37118(15) -0.37503(16) 0.44717(12)
O2 O 0.49299(14) -0.14070(16) 0.37298(10)
O3 O 0.24663(13) -0.11818(15) 0.45583(12)
O4 O 0.46299(17) -0.17201(16) 0.57213(10)
loop_
_geom_bond_atom_site_label_1
_geom_bond_atom_site_label_2
_geom_bond_site_symmetry_1
_geom_bond_site_symmetry_2
S1 C1 1_555 1_555
N1 N2 1_555 1_555
N2 C2 1_555 1_555
N3 N4 1_555 1_555
N4 H4 1_555 1_555
N5 N6 1_555 1_555
N6 H1 1_555 1_555
H2 N6 1_555 1_555
H3 N6 1_555 1_555
C1 N1 1_555 1_555
C2 N3 1_555 1_555
H5 N1 1_555 1_555
H6 N5 1_555 1_555
H7 N4 1_555 1_555
Cl1 O1 1_555 1_555
O2 Cl1 1_555 1_555
O3 Cl1 1_555 1_555
O4 Cl1 1_555 1_555
N3 C1 1_555 1_555
N5 C2 1_555 1_555

#END
