
#######################################################################
#
#                 Cambridge Crystallographic Data Centre
#                                CCDC 
#
#######################################################################
#
# If this CIF has been generated from an entry in the Cambridge 
# Structural Database, then it will include bibliographic, chemical, 
# crystal, experimental, refinement or atomic coordinate data resulting 
# from the CCDC's data processing and validation procedures.
#
#######################################################################

data_ZUCHIQ
_chemical_formula_moiety         'C2 H7 N6 S1 1+,N1 O3 1-'
_chemical_name_systematic        
'(4-Amino-5-thioxo-4,5-dihydro-1H-1,2,4-triazol-3-yl)hydrazinium nitrate'
_symmetry_cell_setting           monoclinic
_symmetry_space_group_name_H-M   'P 21/c'
_symmetry_Int_Tables_number      14
_space_group_name_Hall           '-P 2ybc'
loop_
_symmetry_equiv_pos_site_id
_symmetry_equiv_pos_as_xyz
1 x,y,z
2 -x,1/2+y,1/2-z
3 -x,-y,-z
4 x,1/2-y,1/2+z
_cell_length_a                   7.9500(16)
_cell_length_b                   8.3190(16)
_cell_length_c                   11.657(2)
_cell_angle_alpha                90
_cell_angle_beta                 92.976(3)
_cell_angle_gamma                90
_cell_volume                     769.908
_exptl_crystal_colour            colorless
_cell_formula_units_Z            4
loop_
_atom_site_label
_atom_site_type_symbol
_atom_site_fract_x
_atom_site_fract_y
_atom_site_fract_z
S1 S 0.35752(4) 0.61102(3) 0.74933(2)
N1 N 0.74522(13) 0.48887(12) 0.95298(9)
N2 N 0.62539(13) 0.46683(12) 0.86284(9)
N3 N 0.57693(12) 0.69959(12) 0.92888(8)
N4 N 0.51508(14) 0.85074(12) 0.95608(9)
N5 N 0.77856(13) 0.70612(12) 1.08649(9)
N6 N 0.92919(14) 0.63153(13) 1.13154(9)
C1 C 0.70914(14) 0.63199(14) 0.99033(10)
C2 C 0.52180(15) 0.59142(13) 0.84561(10)
H1 H 0.622(2) 0.376(2) 0.8238(15)
H2 H 0.405(2) 0.842(2) 0.9698(15)
H3 H 0.530(2) 0.918(2) 0.8961(16)
H4 H 0.787(2) 0.811(2) 1.0829(14)
H5 H 1.012(2) 0.646(2) 1.0858(17)
H6 H 0.952(2) 0.672(2) 1.2038(17)
H7 H 0.913(2) 0.525(2) 1.1409(15)
O1 O 0.12718(12) 0.52092(11) 0.33480(8)
O2 O 0.12764(12) 0.63856(11) 0.50133(7)
O3 O -0.01626(12) 0.74060(11) 0.35494(8)
N7 N 0.07983(13) 0.63197(12) 0.39801(9)
loop_
_geom_bond_atom_site_label_1
_geom_bond_atom_site_label_2
_geom_bond_site_symmetry_1
_geom_bond_site_symmetry_2
S1 C2 1_555 1_555
N1 N2 1_555 1_555
N2 C2 1_555 1_555
N3 N4 1_555 1_555
N4 H2 1_555 1_555
N5 N6 1_555 1_555
N6 H5 1_555 1_555
C1 N1 1_555 1_555
C2 N3 1_555 1_555
H1 N2 1_555 1_555
H3 N4 1_555 1_555
H4 N5 1_555 1_555
H6 N6 1_555 1_555
H7 N6 1_555 1_555
O1 N7 1_555 1_555
O2 N7 1_555 1_555
O3 N7 1_555 1_555
N3 C1 1_555 1_555
N5 C1 1_555 1_555

#END
