
#######################################################################
#
#                 Cambridge Crystallographic Data Centre
#                                CCDC 
#
#######################################################################
#
# If this CIF has been generated from an entry in the Cambridge 
# Structural Database, then it will include bibliographic, chemical, 
# crystal, experimental, refinement or atomic coordinate data resulting 
# from the CCDC's data processing and validation procedures.
#
#######################################################################

data_ZUCNAO
_chemical_name_common            4-benzyl-voglibose
_chemical_formula_moiety         'C17 H28 N1 O7 1+,H2 O1,Cl1 1-'
_chemical_name_systematic        
'2-(Benzyloxy)-N-(1,3-dihydroxypropan-2-yl)-3,4,5-trihydroxy-5-(hydroxymethyl)cyclohexanaminium chloride monohydrate'
_chemical_properties_biological  'Digestive enzyme inhibitor byproduct'
_symmetry_cell_setting           orthorhombic
_symmetry_space_group_name_H-M   'P 21 21 21'
_symmetry_Int_Tables_number      19
_space_group_name_Hall           'P 2ac 2ab'
loop_
_symmetry_equiv_pos_site_id
_symmetry_equiv_pos_as_xyz
1 x,y,z
2 1/2-x,-y,1/2+z
3 1/2+x,1/2-y,-z
4 -x,1/2+y,1/2-z
_cell_length_a                   7.6341(2)
_cell_length_b                   9.8212(3)
_cell_length_c                   26.1037(8)
_cell_angle_alpha                90
_cell_angle_beta                 90
_cell_angle_gamma                90
_cell_volume                     1957.15
_cell_formula_units_Z            4
loop_
_atom_site_label
_atom_site_type_symbol
_atom_site_fract_x
_atom_site_fract_y
_atom_site_fract_z
Cl1 Cl 0.94548(13) 0.58956(9) 0.41053(4)
O1 O 0.6276(3) 0.4665(2) 0.52842(9)
H1 H 0.621(5) 0.424(4) 0.5043(14)
O2 O 0.5259(3) 0.1937(3) 0.53339(10)
H2 H 0.494(6) 0.129(5) 0.5368(17)
O3 O 0.7737(3) 0.1110(2) 0.61247(12)
H3 H 0.6883 0.0637 0.6056
O4 O 0.9424(3) 0.3171(3) 0.66358(8)
O5 O 1.1080(5) 0.8353(4) 0.65114(14)
H4 H 1.1392 0.8775 0.6256
O6 O 1.0435(5) 0.6776(4) 0.52292(13)
H5 H 1.0209 0.6891 0.4925
O7 O 0.1978(3) 0.4020(2) 0.58646(10)
H6 H 0.1806 0.3196 0.5856
N1 N 0.8691(4) 0.5406(3) 0.59858(11)
H7 H 0.958(5) 0.499(3) 0.6010(11)
H8 H 0.826(5) 0.528(4) 0.5707(14)
C1 C 0.5125(3) 0.4180(3) 0.56787(11)
C2 C 0.5510(4) 0.2684(3) 0.57957(11)
H9 H 0.4679 0.2357 0.6054
C3 C 0.7377(4) 0.2490(3) 0.59956(13)
H10 H 0.8199 0.2776 0.5728
C4 C 0.7675(4) 0.3370(3) 0.64676(11)
H11 H 0.6877 0.3069 0.6739
C5 C 0.7343(4) 0.4869(3) 0.63607(11)
H12 H 0.7444 0.5378 0.6682
C6 C 0.5499(4) 0.5070(3) 0.61449(11)
H13 H 0.4650 0.4864 0.6410
H14 H 0.5352 0.6018 0.6050
C7 C 0.3244(4) 0.4376(3) 0.54905(13)
H15 H 0.3079 0.5321 0.5394
H16 H 0.3062 0.3823 0.5187
C8 C 0.9689(8) 0.3320(9) 0.7179(2)
H17 H 0.8792 0.2826 0.7365
H18 H 0.9618 0.4273 0.7274
C9 C 1.149(2) 0.276(2) 0.7310(11)
C10 C 1.2096(13) 0.1641(11) 0.7069(4)
H19 H 1.1419 0.1212 0.6821
C11 C 1.3726(14) 0.1143(10) 0.7194(3)
H20 H 1.4155 0.0391 0.7017
C12 C 1.4728(8) 0.1712(9) 0.7566(3)
H21 H 1.5816 0.1347 0.7648
C13 C 1.4089(11) 0.2863(9) 0.7825(3)
H22 H 1.4747 0.3262 0.8084
C14 C 1.2486(13) 0.3400(8) 0.7692(3)
H23 H 1.2067 0.4179 0.7854
C15 C 0.9094(4) 0.6904(3) 0.60408(13)
H24 H 0.8114 0.7356 0.6213
C16 C 1.0747(6) 0.7012(4) 0.63798(16)
H25 H 1.0582 0.6477 0.6688
H26 H 1.1745 0.6643 0.6196
C17 C 0.9322(7) 0.7505(4) 0.55155(15)
H27 H 0.8193 0.7544 0.5346
H28 H 0.9759 0.8429 0.5547
H39 H 0.6971 0.4403 0.4156
H40 H 0.5321 0.4105 0.4149
O9 O 0.6249(3) 0.3829(2) 0.42585(9)
O8? O 0.8470(17) 0.7205(16) 0.5098(4)
H29? H 0.8349 0.6377 0.5078
C18? C 0.967(2) 0.207(2) 0.6997(6)
H30? H 0.9797 0.1201 0.6824
H31? H 0.8705 0.2015 0.7239
C19? C 1.135(6) 0.250(6) 0.726(4)
C20? C 1.261(4) 0.149(4) 0.7158(13)
H32? H 1.2332 0.0774 0.6941
C21? C 1.425(3) 0.156(3) 0.7377(10)
H33? H 1.5118 0.0940 0.7282
C22? C 1.459(3) 0.255(3) 0.7737(9)
H34? H 1.5659 0.2569 0.7908
C23? C 1.330(3) 0.352(3) 0.7843(8)
H35? H 1.3480 0.4256 0.8063
C24? C 1.171(3) 0.330(3) 0.7592(10)
H36? H 1.0793 0.3860 0.7696
H37? H 0.9170 0.8479 0.5560
H38? H 1.0548 0.7373 0.5432
loop_
_geom_bond_atom_site_label_1
_geom_bond_atom_site_label_2
_geom_bond_site_symmetry_1
_geom_bond_site_symmetry_2
O1 H1 1_555 1_555
O2 H2 1_555 1_555
O3 H3 1_555 1_555
O4 C4 1_555 1_555
O5 H4 1_555 1_555
O6 H5 1_555 1_555
O7 H6 1_555 1_555
N1 H7 1_555 1_555
H8 N1 1_555 1_555
C1 O1 1_555 1_555
C2 O2 1_555 1_555
H9 C2 1_555 1_555
C3 O3 1_555 1_555
H10 C3 1_555 1_555
C4 C3 1_555 1_555
H11 C4 1_555 1_555
C5 N1 1_555 1_555
H12 C5 1_555 1_555
C6 C1 1_555 1_555
H13 C6 1_555 1_555
H14 C6 1_555 1_555
C7 O7 1_555 1_555
H15 C7 1_555 1_555
H16 C7 1_555 1_555
C8 O4 1_555 1_555
H17 C8 1_555 1_555
H18 C8 1_555 1_555
C9 C8 1_555 1_555
C10 C9 1_555 1_555
H19 C10 1_555 1_555
C11 C10 1_555 1_555
H20 C11 1_555 1_555
C12 C11 1_555 1_555
H21 C12 1_555 1_555
C13 C12 1_555 1_555
H22 C13 1_555 1_555
C14 C9 1_555 1_555
H23 C14 1_555 1_555
C15 N1 1_555 1_555
H24 C15 1_555 1_555
C16 O5 1_555 1_555
H25 C16 1_555 1_555
H26 C16 1_555 1_555
C17 O6 1_555 1_555
H27 C17 1_555 1_555
H28 C17 1_555 1_555
H39 O9 1_555 1_555
H40 O9 1_555 1_555
C1 C2 1_555 1_555
C1 C7 1_555 1_555
C2 C3 1_555 1_555
C4 C5 1_555 1_555
C5 C6 1_555 1_555
C13 C14 1_555 1_555
C15 C16 1_555 1_555
C15 C17 1_555 1_555

#END
