
#######################################################################
#
#                 Cambridge Crystallographic Data Centre
#                                CCDC 
#
#######################################################################
#
# If this CIF has been generated from an entry in the Cambridge 
# Structural Database, then it will include bibliographic, chemical, 
# crystal, experimental, refinement or atomic coordinate data resulting 
# from the CCDC's data processing and validation procedures.
#
#######################################################################

data_ZUCQEV
_chemical_name_common            
'2,3,6,7,10,11,14,15,18,19,22,23,26,27,30,31-hexadecaethylcyclo[8]pyrrole bis(perchlorate)'
_chemical_formula_moiety         'C64 H88 N8 2+,2(Cl1 O4 1-)'
_chemical_name_systematic        
'3,4,7,8,11,12,15,16,19,20,23,24,27,28,31,32-hexadecaethyl-35,36,37,38,39,40-hexaaza-33,34-diazonianonacyclo[28.2.1.1^2,5^.1^6,9^.1^10,13^.1^14,17^.1^18,21^.1^22,25^.1^26,29^]tetraconta-1,3,5,7,9,11,13,15,17,19,21,23,25,27,29(34),30(33),31-heptadecaene diperchlorate'
_symmetry_cell_setting           monoclinic
_symmetry_space_group_name_H-M   'C 2/c'
_symmetry_Int_Tables_number      15
_space_group_name_Hall           '-C 2yn'
loop_
_symmetry_equiv_pos_site_id
_symmetry_equiv_pos_as_xyz
1 x,y,z
2 -x,y,1/2-z
3 1/2+x,1/2+y,z
4 1/2-x,1/2+y,1/2-z
5 -x,-y,-z
6 x,-y,1/2+z
7 1/2-x,1/2-y,-z
8 1/2+x,1/2-y,1/2+z
_cell_length_a                   13.6846(2)
_cell_length_b                   17.8141(2)
_cell_length_c                   24.7499(3)
_cell_angle_alpha                90
_cell_angle_beta                 93.9670(10)
_cell_angle_gamma                90
_cell_volume                     6019.05
_exptl_crystal_colour            'dark brown'
_exptl_crystal_description       'square based prisms'
_cell_formula_units_Z            4
loop_
_atom_site_label
_atom_site_type_symbol
_atom_site_fract_x
_atom_site_fract_y
_atom_site_fract_z
N1 N 0.5433(2) 0.64307(16) 0.19640(11)
N2 N 0.6279(2) 0.53077(16) 0.13266(12)
N3 N 0.6038(2) 0.36419(16) 0.12451(11)
N4 N 0.5507(2) 0.24729(15) 0.20032(11)
C1 C 0.5303(2) 0.70572(18) 0.22785(13)
C2 C 0.5868(2) 0.76463(18) 0.20717(14)
C3 C 0.6277(2) 0.73741(18) 0.16087(14)
C4 C 0.5989(2) 0.66096(18) 0.15387(13)
C5 C 0.6226(2) 0.60485(18) 0.11663(13)
C6 C 0.6446(2) 0.60593(19) 0.06129(14)
C7 C 0.6675(2) 0.53313(19) 0.04645(13)
C8 C 0.6581(2) 0.48662(18) 0.09180(13)
C9 C 0.6682(2) 0.40699(18) 0.09766(12)
C10 C 0.7368(2) 0.35767(19) 0.07709(12)
C11 C 0.7092(2) 0.28415(19) 0.08957(13)
C12 C 0.6253(2) 0.28858(17) 0.11938(12)
C13 C 0.5743(2) 0.23323(18) 0.14819(13)
C14 C 0.5440(2) 0.15984(18) 0.13539(14)
C15 C 0.5056(3) 0.12888(18) 0.18163(14)
C16 C 0.5132(2) 0.18393(17) 0.22242(13)
C17 C 0.6178(3) 0.8341(2) 0.23719(15)
H1 H 0.5717 0.8455 0.2636
H2 H 0.6179 0.8752 0.2121
C18 C 0.7188(3) 0.8257(2) 0.26554(16)
H3 H 0.7372 0.8714 0.2842
H4 H 0.7185 0.7852 0.2911
H5 H 0.7651 0.8151 0.2391
C19 C 0.6979(3) 0.7816(2) 0.12874(16)
H6 H 0.7050 0.8311 0.1440
H7 H 0.6695 0.7866 0.0923
C20 C 0.7985(3) 0.7461(2) 0.12665(19)
H8 H 0.8393 0.7766 0.1055
H9 H 0.8277 0.7420 0.1629
H10 H 0.7919 0.6971 0.1108
C21 C 0.6307(3) 0.6703(2) 0.02220(16)
H11 H 0.6472 0.6539 -0.0130
H12 H 0.6749 0.7100 0.0336
C22 C 0.5278(4) 0.7024(3) 0.01861(19)
H13 H 0.5227 0.7432 -0.0067
H14 H 0.4835 0.6631 0.0065
H15 H 0.5114 0.7197 0.0536
C23 C 0.6827(3) 0.5075(2) -0.01035(14)
H16 H 0.6253 0.5169 -0.0339
C24 C 0.7749(7) 0.5367(5) -0.0351(3)
H17 H 0.7790 0.5172 -0.0710
H18 H 0.7712 0.5905 -0.0365
H19 H 0.8319 0.5219 -0.0128
C25 C 0.8337(3) 0.3801(2) 0.05693(15)
H20 H 0.8291 0.4306 0.0434
H21 H 0.8474 0.3478 0.0274
C26 C 0.9173(3) 0.3747(2) 0.09988(16)
H22 H 0.9776 0.3892 0.0851
H23 H 0.9042 0.4077 0.1292
H24 H 0.9227 0.3241 0.1130
C27 C 0.7658(3) 0.2143(2) 0.07782(14)
H25 H 0.8146 0.2273 0.0534
H26 H 0.7218 0.1792 0.0595
C28 C 0.8166(3) 0.1755(2) 0.12564(16)
H27 H 0.8507 0.1318 0.1142
H28 H 0.8624 0.2095 0.1438
H29 H 0.7684 0.1608 0.1500
C29 C 0.5427(3) 0.1228(2) 0.08082(15)
H30 H 0.4765 0.1115 0.0680
C30 C 0.6043(6) 0.0501(5) 0.0831(4)
H31 H 0.6138 0.0318 0.1196
H32 H 0.6655 0.0606 0.0680
H33 H 0.5705 0.0141 0.0597
C31 C 0.4580(4) 0.0532(2) 0.18464(17)
H34 H 0.4988 0.0225 0.2087
H35 H 0.4559 0.0306 0.1493
C32 C 0.3560(3) 0.0531(3) 0.2034(2)
H36 H 0.3308 0.0029 0.2045
H37 H 0.3578 0.0746 0.2390
H38 H 0.3145 0.0828 0.1790
H39 H 0.515(3) 0.602(2) 0.1956(15)
H40 H 0.631(2) 0.5187(19) 0.1629(14)
H41 H 0.559(3) 0.377(2) 0.1354(14)
H42 H 0.568(3) 0.286(2) 0.2192(14)
H43 H 0.579(3) 0.157(2) 0.0548(18)
H44 H 0.697(2) 0.459(2) -0.0091(14)
N1A N 0.4567(2) 0.64307(16) 0.30360(11)
N2A N 0.3721(2) 0.53077(16) 0.36734(12)
N3A N 0.3962(2) 0.36419(16) 0.37549(11)
N4A N 0.4493(2) 0.24729(15) 0.29968(11)
C1A C 0.4697(2) 0.70572(18) 0.27215(13)
C2A C 0.4132(2) 0.76463(18) 0.29283(14)
C3A C 0.3723(2) 0.73741(18) 0.33913(14)
C4A C 0.4011(2) 0.66096(18) 0.34613(13)
C5A C 0.3774(2) 0.60485(18) 0.38337(13)
C6A C 0.3554(2) 0.60593(19) 0.43871(14)
C7A C 0.3325(2) 0.53313(19) 0.45355(13)
C8A C 0.3419(2) 0.48662(18) 0.40820(13)
C9A C 0.3318(2) 0.40699(18) 0.40234(12)
C10A C 0.2632(2) 0.35767(19) 0.42291(12)
C11A C 0.2908(2) 0.28415(19) 0.41043(13)
C12A C 0.3747(2) 0.28858(17) 0.38062(12)
C13A C 0.4257(2) 0.23323(18) 0.35181(13)
C14A C 0.4560(2) 0.15984(18) 0.36461(14)
C15A C 0.4944(3) 0.12888(18) 0.31837(14)
C16A C 0.4868(2) 0.18393(17) 0.27758(13)
C17A C 0.3822(3) 0.8341(2) 0.26281(15)
H1A H 0.4283 0.8455 0.2364
H2A H 0.3821 0.8752 0.2879
C18A C 0.2812(3) 0.8257(2) 0.23446(16)
H3A H 0.2628 0.8714 0.2158
H4A H 0.2815 0.7852 0.2089
H5A H 0.2349 0.8151 0.2609
C19A C 0.3021(3) 0.7816(2) 0.37126(16)
H6A H 0.2950 0.8311 0.3560
H7A H 0.3305 0.7866 0.4077
C20A C 0.2015(3) 0.7461(2) 0.37335(19)
H8A H 0.1607 0.7766 0.3945
H9A H 0.1723 0.7420 0.3371
H10A H 0.2081 0.6971 0.3892
C21A C 0.3693(3) 0.6703(2) 0.47780(16)
H11A H 0.3528 0.6539 0.5130
H12A H 0.3251 0.7100 0.4664
C22A C 0.4722(4) 0.7024(3) 0.48139(19)
H13A H 0.4773 0.7432 0.5067
H14A H 0.5165 0.6631 0.4935
H15A H 0.4886 0.7197 0.4464
C23A C 0.3173(3) 0.5075(2) 0.51035(14)
H16A H 0.3747 0.5169 0.5339
C24A C 0.2251(7) 0.5367(5) 0.5351(3)
H17A H 0.2210 0.5172 0.5710
H18A H 0.2288 0.5905 0.5365
H19A H 0.1681 0.5219 0.5128
C25A C 0.1663(3) 0.3801(2) 0.44307(15)
H20A H 0.1709 0.4306 0.4566
H21A H 0.1526 0.3478 0.4726
C26A C 0.0827(3) 0.3747(2) 0.40012(16)
H22A H 0.0224 0.3892 0.4149
H23A H 0.0958 0.4077 0.3708
H24A H 0.0773 0.3241 0.3870
C27A C 0.2342(3) 0.2143(2) 0.42218(14)
H25A H 0.1854 0.2273 0.4466
H26A H 0.2782 0.1792 0.4405
C28A C 0.1834(3) 0.1755(2) 0.37436(16)
H27A H 0.1493 0.1318 0.3858
H28A H 0.1376 0.2095 0.3562
H29A H 0.2316 0.1608 0.3500
C29A C 0.4573(3) 0.1228(2) 0.41918(15)
H30A H 0.5235 0.1115 0.4320
C30A C 0.3957(6) 0.0501(5) 0.4169(4)
H31A H 0.3862 0.0318 0.3804
H32A H 0.3345 0.0606 0.4320
H33A H 0.4295 0.0141 0.4403
C31A C 0.5420(4) 0.0532(2) 0.31536(17)
H34A H 0.5012 0.0225 0.2913
H35A H 0.5441 0.0306 0.3507
C32A C 0.6440(3) 0.0531(3) 0.2966(2)
H36A H 0.6692 0.0029 0.2955
H37A H 0.6422 0.0746 0.2610
H38A H 0.6855 0.0828 0.3210
H39A H 0.485(3) 0.602(2) 0.3044(15)
H40A H 0.369(2) 0.5187(19) 0.3371(14)
H41A H 0.441(3) 0.377(2) 0.3646(14)
H42A H 0.432(3) 0.286(2) 0.2808(14)
H43A H 0.421(3) 0.157(2) 0.4452(18)
H44A H 0.303(2) 0.459(2) 0.5091(14)
Cl1 Cl 0.37333(6) 0.45800(5) 0.20030(3)
O1 O 0.27369(18) 0.45687(15) 0.17967(11)
O2 O 0.4196(3) 0.3891(2) 0.18823(19)
O3 O 0.3779(3) 0.4679(3) 0.25775(13)
O4 O 0.4233(3) 0.5182(3) 0.1764(2)
H45? H 0.7361 0.5331 -0.0256
C33? C 0.5877(7) 0.5149(5) -0.0438(3)
H46? H 0.5352 0.4936 -0.0251
H47? H 0.5754 0.5674 -0.0500
H48? H 0.5920 0.4898 -0.0779
H49? H 0.5781 0.0762 0.0835
C34? C 0.4428(7) 0.1113(5) 0.0512(3)
H50? H 0.4074 0.1578 0.0502
H51? H 0.4493 0.0939 0.0149
H52? H 0.4080 0.0746 0.0708
O5? O 0.4079(7) 0.3843(4) 0.2123(5)
O6? O 0.3851(8) 0.5040(7) 0.2468(4)
O7? O 0.4312(7) 0.4887(8) 0.1591(4)
loop_
_geom_bond_atom_site_label_1
_geom_bond_atom_site_label_2
_geom_bond_site_symmetry_1
_geom_bond_site_symmetry_2
N1 C1 1_555 1_555
N2 C5 1_555 1_555
N3 C9 1_555 1_555
N4 C13 1_555 1_555
C1 C2 1_555 1_555
C2 C3 1_555 1_555
C3 C4 1_555 1_555
C4 N1 1_555 1_555
C5 C4 1_555 1_555
C6 C5 1_555 1_555
C7 C6 1_555 1_555
C8 N2 1_555 1_555
C9 C8 1_555 1_555
C10 C9 1_555 1_555
C11 C10 1_555 1_555
C12 N3 1_555 1_555
C13 C12 1_555 1_555
C14 C13 1_555 1_555
C15 C14 1_555 1_555
C16 N4 1_555 1_555
C17 C2 1_555 1_555
H1 C17 1_555 1_555
H2 C17 1_555 1_555
C18 C17 1_555 1_555
H3 C18 1_555 1_555
H4 C18 1_555 1_555
H5 C18 1_555 1_555
C19 C3 1_555 1_555
H6 C19 1_555 1_555
H7 C19 1_555 1_555
C20 C19 1_555 1_555
H8 C20 1_555 1_555
H9 C20 1_555 1_555
H10 C20 1_555 1_555
C21 C6 1_555 1_555
H11 C21 1_555 1_555
H12 C21 1_555 1_555
C22 C21 1_555 1_555
H13 C22 1_555 1_555
H14 C22 1_555 1_555
H15 C22 1_555 1_555
C23 C7 1_555 1_555
H16 C23 1_555 1_555
C24 C23 1_555 1_555
H17 C24 1_555 1_555
H18 C24 1_555 1_555
H19 C24 1_555 1_555
C25 C10 1_555 1_555
H20 C25 1_555 1_555
H21 C25 1_555 1_555
C26 C25 1_555 1_555
H22 C26 1_555 1_555
H23 C26 1_555 1_555
H24 C26 1_555 1_555
C27 C11 1_555 1_555
H25 C27 1_555 1_555
H26 C27 1_555 1_555
C28 C27 1_555 1_555
H27 C28 1_555 1_555
H28 C28 1_555 1_555
H29 C28 1_555 1_555
C29 C14 1_555 1_555
H30 C29 1_555 1_555
C30 C29 1_555 1_555
H31 C30 1_555 1_555
H32 C30 1_555 1_555
H33 C30 1_555 1_555
C31 C15 1_555 1_555
H34 C31 1_555 1_555
H35 C31 1_555 1_555
C32 C31 1_555 1_555
H36 C32 1_555 1_555
H37 C32 1_555 1_555
H38 C32 1_555 1_555
H39 N1 1_555 1_555
H40 N2 1_555 1_555
H41 N3 1_555 1_555
H42 N4 1_555 1_555
H43 C29 1_555 1_555
H44 C23 1_555 1_555
Cl1 O1 1_555 1_555
O2 Cl1 1_555 1_555
O3 Cl1 1_555 1_555
O4 Cl1 1_555 1_555
N1A C1A 1_555 1_555
N2A C5A 1_555 1_555
N3A C9A 1_555 1_555
N4A C13A 1_555 1_555
C1A C1 1_555 1_555
C2A C1A 1_555 1_555
C3A C2A 1_555 1_555
C4A N1A 1_555 1_555
C5A C4A 1_555 1_555
C6A C5A 1_555 1_555
C7A C6A 1_555 1_555
C8A N2A 1_555 1_555
C9A C8A 1_555 1_555
C10A C9A 1_555 1_555
C11A C10A 1_555 1_555
C12A N3A 1_555 1_555
C13A C12A 1_555 1_555
C14A C13A 1_555 1_555
C15A C14A 1_555 1_555
C16A C16 1_555 1_555
C17A C2A 1_555 1_555
H1A C17A 1_555 1_555
H2A C17A 1_555 1_555
C18A C17A 1_555 1_555
H3A C18A 1_555 1_555
H4A C18A 1_555 1_555
H5A C18A 1_555 1_555
C19A C3A 1_555 1_555
H6A C19A 1_555 1_555
H7A C19A 1_555 1_555
C20A C19A 1_555 1_555
H8A C20A 1_555 1_555
H9A C20A 1_555 1_555
H10A C20A 1_555 1_555
C21A C6A 1_555 1_555
H11A C21A 1_555 1_555
H12A C21A 1_555 1_555
C22A C21A 1_555 1_555
H13A C22A 1_555 1_555
H14A C22A 1_555 1_555
H15A C22A 1_555 1_555
C23A C7A 1_555 1_555
H16A C23A 1_555 1_555
C24A C23A 1_555 1_555
H17A C24A 1_555 1_555
H18A C24A 1_555 1_555
H19A C24A 1_555 1_555
C25A C10A 1_555 1_555
H20A C25A 1_555 1_555
H21A C25A 1_555 1_555
C26A C25A 1_555 1_555
H22A C26A 1_555 1_555
H23A C26A 1_555 1_555
H24A C26A 1_555 1_555
C27A C11A 1_555 1_555
H25A C27A 1_555 1_555
H26A C27A 1_555 1_555
C28A C27A 1_555 1_555
H27A C28A 1_555 1_555
H28A C28A 1_555 1_555
H29A C28A 1_555 1_555
C29A C14A 1_555 1_555
H30A C29A 1_555 1_555
C30A C29A 1_555 1_555
H31A C30A 1_555 1_555
H32A C30A 1_555 1_555
H33A C30A 1_555 1_555
C31A C15A 1_555 1_555
H34A C31A 1_555 1_555
H35A C31A 1_555 1_555
C32A C31A 1_555 1_555
H36A C32A 1_555 1_555
H37A C32A 1_555 1_555
H38A C32A 1_555 1_555
H39A N1A 1_555 1_555
H40A N2A 1_555 1_555
H41A N3A 1_555 1_555
H42A N4A 1_555 1_555
H43A C29A 1_555 1_555
H44A C23A 1_555 1_555
C7 C8 1_555 1_555
C11 C12 1_555 1_555
C15 C16 1_555 1_555
N4A C16A 1_555 1_555
C3A C4A 1_555 1_555
C7A C8A 1_555 1_555
C11A C12A 1_555 1_555
C15A C16A 1_555 1_555

#END
