
#######################################################################
#
#                 Cambridge Crystallographic Data Centre
#                                CCDC 
#
#######################################################################
#
# If this CIF has been generated from an entry in the Cambridge 
# Structural Database, then it will include bibliographic, chemical, 
# crystal, experimental, refinement or atomic coordinate data resulting 
# from the CCDC's data processing and validation procedures.
#
#######################################################################

data_ZUCQIZ
_chemical_formula_moiety         'C64 H88 N8 2+,C6 H12,I3 1-,I1 1-'
_chemical_name_systematic        
'3,4,7,8,11,12,15,16,19,20,23,24,27,28,31,32-hexadecaethyl-35,36,37,38,39,40-hexaaza-33,34-diazonianonacyclo[28.2.1.1^2,5^.1^6,9^.1^10,13^.1^14,17^.1^18,21^.1^22,25^.1^26,29^]tetraconta-1,3,5,7,9,11,13,15,17,19,21,23,25,27,29(34),30(33),31-heptadecaene triiodide iodide cyclohexane solvate'
_symmetry_cell_setting           triclinic
_symmetry_space_group_name_H-M   'P -1'
_symmetry_Int_Tables_number      2
_space_group_name_Hall           '-P 1'
loop_
_symmetry_equiv_pos_site_id
_symmetry_equiv_pos_as_xyz
1 x,y,z
2 -x,-y,-z
_cell_length_a                   10.8475(5)
_cell_length_b                   11.3013(6)
_cell_length_c                   29.623(2)
_cell_angle_alpha                89.551(2)
_cell_angle_beta                 82.301(2)
_cell_angle_gamma                76.234(2)
_cell_volume                     3494.31
_exptl_crystal_colour            black
_exptl_crystal_description       prisms
_cell_formula_units_Z            2
_exptl_crystal_preparation       Luminescent
loop_
_atom_site_label
_atom_site_type_symbol
_atom_site_fract_x
_atom_site_fract_y
_atom_site_fract_z
I1 I 0.66236(13) 0.32160(14) 0.24437(5)
I2 I 0.50014(12) 0.71746(14) 0.28613(5)
I3 I 0.45963(12) 0.57030(13) 0.36722(5)
I4 I 0.41171(12) 0.42095(14) 0.44501(5)
N1 N 0.4640(11) 0.4070(12) 0.1434(4)
H1 H 0.5236 0.3822 0.1611
N2 N 0.3657(10) 0.2322(12) 0.2096(4)
H2 H 0.3930 0.2834 0.2257
N3 N 0.4430(10) 0.1190(11) 0.2945(4)
H3 H 0.5040 0.1527 0.2817
N4 N 0.5893(11) 0.1810(11) 0.3622(4)
H4 H 0.5713 0.2426 0.3439
N5 N 0.7833(10) 0.3241(11) 0.3596(4)
H5 H 0.7641 0.3186 0.3318
N6 N 0.8424(11) 0.5256(11) 0.3052(4)
H6 H 0.7712 0.5101 0.2983
N7 N 0.8042(10) 0.6088(12) 0.2123(4)
H7 H 0.7917 0.5348 0.2152
N8 N 0.6089(11) 0.5895(11) 0.1544(5)
H8 H 0.5856 0.5650 0.1818
C1 C 0.4572(15) 0.5033(16) 0.1173(5)
C2 C 0.3467(14) 0.5161(15) 0.0975(5)
C3 C 0.2934(13) 0.4214(15) 0.1114(5)
C4 C 0.3638(15) 0.3490(16) 0.1395(5)
C5 C 0.3496(13) 0.2450(15) 0.1650(6)
C6 C 0.3163(14) 0.1369(16) 0.1518(6)
C7 C 0.3047(14) 0.0678(15) 0.1897(6)
C8 C 0.3337(14) 0.1295(16) 0.2258(6)
C9 C 0.3440(15) 0.1000(14) 0.2730(6)
C10 C 0.2657(13) 0.0510(14) 0.3056(5)
C11 C 0.3220(14) 0.0358(14) 0.3457(5)
C12 C 0.4342(13) 0.0795(14) 0.3374(5)
C13 C 0.5317(14) 0.0863(14) 0.3661(5)
C14 C 0.5877(13) 0.0042(14) 0.3975(5)
C15 C 0.6803(14) 0.0564(15) 0.4121(5)
C16 C 0.6787(14) 0.1657(16) 0.3909(5)
C17 C 0.7501(14) 0.2582(15) 0.3960(6)
C18 C 0.7909(13) 0.2989(14) 0.4357(5)
C19 C 0.8520(13) 0.3901(14) 0.4202(5)
C20 C 0.8525(13) 0.4011(15) 0.3742(6)
C21 C 0.8991(14) 0.4794(15) 0.3420(5)
C22 C 1.0180(14) 0.5210(14) 0.3378(5)
C23 C 1.0205(14) 0.5898(14) 0.3019(5)
C24 C 0.9095(14) 0.6004(14) 0.2795(5)
C25 C 0.8630(14) 0.6624(16) 0.2419(6)
C26 C 0.8603(13) 0.7812(16) 0.2263(5)
C27 C 0.8001(12) 0.7957(14) 0.1881(5)
C28 C 0.7675(13) 0.6848(14) 0.1781(5)
C29 C 0.7026(14) 0.6552(15) 0.1428(6)
C30 C 0.7160(14) 0.6684(15) 0.0960(5)
C31 C 0.6248(14) 0.6180(14) 0.0795(6)
C32 C 0.5593(14) 0.5698(16) 0.1148(6)
C33 C 0.2913(14) 0.6267(16) 0.0718(5)
H9 H 0.3625 0.6606 0.0571
H10 H 0.2488 0.6011 0.0473
C34 C 0.199(2) 0.723(2) 0.0994(7)
H11 H 0.1152 0.7033 0.1042
H12 H 0.1916 0.8007 0.0836
H13 H 0.2282 0.7310 0.1289
C35 C 0.1618(14) 0.4103(16) 0.1006(5)
H14 H 0.1652 0.3236 0.0941
H15 H 0.1418 0.4566 0.0729
C36 C 0.0543(16) 0.4587(18) 0.1402(6)
H16 H 0.0764 0.4168 0.1681
H17 H -0.0263 0.4435 0.1330
H18 H 0.0444 0.5465 0.1446
C37 C 0.3094(16) 0.1004(17) 0.1023(6)
H19 H 0.2841 0.1745 0.0844
H20 H 0.2438 0.0527 0.1020
C38 C 0.4421(19) 0.023(2) 0.0802(7)
H21 H 0.5052 0.0725 0.0779
H22 H 0.4350 -0.0057 0.0497
H23 H 0.4697 -0.0477 0.0991
C39 C 0.2825(15) -0.0619(16) 0.1899(6)
H24 H 0.3412 -0.1135 0.1653
H25 H 0.2963 -0.1005 0.2195
C40 C 0.145(2) -0.045(2) 0.1819(9)
H26 H 0.0890 0.0044 0.2071
H27 H 0.1251 -0.1244 0.1804
H28 H 0.1330 -0.0031 0.1532
C41 C 0.1381(14) 0.0212(16) 0.2998(5)
H29 H 0.1480 -0.0285 0.2715
H30 H 0.1108 -0.0261 0.3259
C42 C 0.0423(17) 0.1349(18) 0.2973(7)
H31 H 0.0710 0.1821 0.2718
H32 H 0.0307 0.1821 0.3258
H33 H -0.0392 0.1170 0.2925
C43 C 0.2614(15) 0.0030(16) 0.3912(6)
H34 H 0.1975 -0.0433 0.3860
H35 H 0.3284 -0.0519 0.4063
C44 C 0.1982(17) 0.1056(18) 0.4224(6)
H36 H 0.2570 0.1582 0.4249
H37 H 0.1738 0.0750 0.4525
H38 H 0.1214 0.1524 0.4106
C45 C 0.5703(14) -0.1240(14) 0.4061(5)
H39 H 0.6544 -0.1828 0.3991
H40 H 0.5131 -0.1427 0.3852
C46 C 0.5134(14) -0.1409(15) 0.4555(5)
H41 H 0.4348 -0.0772 0.4638
H42 H 0.5756 -0.1351 0.4761
H43 H 0.4936 -0.2210 0.4581
C47 C 0.7850(14) -0.0144(15) 0.4380(5)
H44 H 0.7960 0.0387 0.4629
H45 H 0.7571 -0.0849 0.4522
C48 C 0.9088(16) -0.0586(18) 0.4099(6)
H46 H 0.9145 -0.1404 0.3977
H47 H 0.9778 -0.0616 0.4284
H48 H 0.9172 -0.0034 0.3846
C49 C 0.7536(14) 0.2679(14) 0.4833(5)
H49 H 0.6960 0.2119 0.4832
H50 H 0.7036 0.3434 0.4999
C50 C 0.8599(14) 0.2107(15) 0.5093(5)
H51 H 0.9140 0.1385 0.4923
H52 H 0.8243 0.1865 0.5391
H53 H 0.9114 0.2692 0.5134
C51 C 0.8884(14) 0.4714(15) 0.4538(5)
H54 H 0.8520 0.4544 0.4849
H55 H 0.9829 0.4506 0.4523
C52 C 0.8444(17) 0.6026(17) 0.4457(6)
H56 H 0.8936 0.6237 0.4179
H57 H 0.8571 0.6496 0.4717
H58 H 0.7532 0.6218 0.4423
C53 C 1.1257(13) 0.4695(15) 0.3654(5)
H59 H 1.1617 0.5362 0.3754
H60 H 1.0920 0.4309 0.3930
C54 C 1.2294(16) 0.3766(17) 0.3371(6)
H61 H 1.1903 0.3246 0.3201
H62 H 1.2846 0.3263 0.3571
H63 H 1.2806 0.4184 0.3157
C55 C 1.1318(13) 0.6482(15) 0.2845(5)
H64 H 1.0994 0.7378 0.2848
H65 H 1.1972 0.6289 0.3055
C56 C 1.1937(18) 0.6050(19) 0.2373(7)
H66 H 1.2331 0.5175 0.2373
H67 H 1.2596 0.6491 0.2271
H68 H 1.1287 0.6202 0.2165
C57 C 0.8907(13) 0.8827(14) 0.2524(5)
H69 H 0.9780 0.8554 0.2610
H70 H 0.8890 0.9541 0.2327
C58 C 0.7982(17) 0.9183(18) 0.2935(6)
H71 H 0.7132 0.9537 0.2849
H72 H 0.8243 0.9786 0.3113
H73 H 0.7949 0.8464 0.3119
C59 C 0.7632(15) 0.9074(15) 0.1626(5)
H74 H 0.7494 0.8854 0.1316
H75 H 0.8342 0.9493 0.1592
C60 C 0.6449(17) 0.9923(18) 0.1851(6)
H76 H 0.5803 0.9466 0.1952
H77 H 0.6117 1.0540 0.1636
H78 H 0.6648 1.0323 0.2116
C61 C 0.8220(14) 0.7194(15) 0.0697(5)
H79 H 0.7824 0.7954 0.0550
H80 H 0.8755 0.7406 0.0915
C62 C 0.9080(14) 0.6317(15) 0.0333(5)
H81 H 0.9268 0.5492 0.0453
H82 H 0.9881 0.6571 0.0249
H83 H 0.8642 0.6324 0.0064
C63 C 0.6085(14) 0.6060(15) 0.0304(5)
H84 H 0.6897 0.5561 0.0141
H85 H 0.5417 0.5604 0.0287
C64 C 0.5727(15) 0.7222(15) 0.0053(5)
H86 H 0.4946 0.7747 0.0217
H87 H 0.5576 0.7038 -0.0254
H88 H 0.6426 0.7641 0.0034
C65 C -0.216(2) 0.164(2) 0.0277(8)
H89 H -0.1613 0.1955 0.0034
H90 H -0.2869 0.1440 0.0136
C66 C -0.2695(18) 0.2575(19) 0.0605(7)
H91 H -0.3322 0.2300 0.0830
H92 H -0.3166 0.3295 0.0454
C67 C -0.177(2) 0.294(2) 0.0842(8)
H93 H -0.2224 0.3565 0.1077
H94 H -0.1208 0.3308 0.0624
C68 C -0.098(2) 0.194(2) 0.1062(8)
H95 H -0.1511 0.1648 0.1316
H96 H -0.0304 0.2232 0.1190
C69 C -0.036(2) 0.091(2) 0.0733(8)
H97 H 0.0047 0.0194 0.0901
H98 H 0.0311 0.1144 0.0518
C70 C -0.141(2) 0.053(2) 0.0446(9)
H99 H -0.0964 -0.0031 0.0189
H100 H -0.1973 0.0114 0.0646
loop_
_geom_bond_atom_site_label_1
_geom_bond_atom_site_label_2
_geom_bond_site_symmetry_1
_geom_bond_site_symmetry_2
I2 I3 1_555 1_555
I3 I4 1_555 1_555
N1 H1 1_555 1_555
N2 H2 1_555 1_555
N3 H3 1_555 1_555
N4 H4 1_555 1_555
N5 H5 1_555 1_555
N6 H6 1_555 1_555
N7 H7 1_555 1_555
N8 H8 1_555 1_555
C1 N1 1_555 1_555
C2 C1 1_555 1_555
C3 C2 1_555 1_555
C4 N1 1_555 1_555
C5 N2 1_555 1_555
C6 C5 1_555 1_555
C7 C6 1_555 1_555
C8 N2 1_555 1_555
C9 N3 1_555 1_555
C10 C9 1_555 1_555
C11 C10 1_555 1_555
C12 N3 1_555 1_555
C13 N4 1_555 1_555
C14 C13 1_555 1_555
C15 C14 1_555 1_555
C16 N4 1_555 1_555
C17 N5 1_555 1_555
C18 C17 1_555 1_555
C19 C18 1_555 1_555
C20 N5 1_555 1_555
C21 N6 1_555 1_555
C22 C21 1_555 1_555
C23 C22 1_555 1_555
C24 N6 1_555 1_555
C25 N7 1_555 1_555
C26 C25 1_555 1_555
C27 C26 1_555 1_555
C28 N7 1_555 1_555
C29 N8 1_555 1_555
C30 C29 1_555 1_555
C31 C30 1_555 1_555
C32 N8 1_555 1_555
C33 C2 1_555 1_555
H9 C33 1_555 1_555
H10 C33 1_555 1_555
C34 C33 1_555 1_555
H11 C34 1_555 1_555
H12 C34 1_555 1_555
H13 C34 1_555 1_555
C35 C3 1_555 1_555
H14 C35 1_555 1_555
H15 C35 1_555 1_555
C36 C35 1_555 1_555
H16 C36 1_555 1_555
H17 C36 1_555 1_555
H18 C36 1_555 1_555
C37 C6 1_555 1_555
H19 C37 1_555 1_555
H20 C37 1_555 1_555
C38 C37 1_555 1_555
H21 C38 1_555 1_555
H22 C38 1_555 1_555
H23 C38 1_555 1_555
C39 C7 1_555 1_555
H24 C39 1_555 1_555
H25 C39 1_555 1_555
C40 C39 1_555 1_555
H26 C40 1_555 1_555
H27 C40 1_555 1_555
H28 C40 1_555 1_555
C41 C10 1_555 1_555
H29 C41 1_555 1_555
H30 C41 1_555 1_555
C42 C41 1_555 1_555
H31 C42 1_555 1_555
H32 C42 1_555 1_555
H33 C42 1_555 1_555
C43 C11 1_555 1_555
H34 C43 1_555 1_555
H35 C43 1_555 1_555
C44 C43 1_555 1_555
H36 C44 1_555 1_555
H37 C44 1_555 1_555
H38 C44 1_555 1_555
C45 C14 1_555 1_555
H39 C45 1_555 1_555
H40 C45 1_555 1_555
C46 C45 1_555 1_555
H41 C46 1_555 1_555
H42 C46 1_555 1_555
H43 C46 1_555 1_555
C47 C15 1_555 1_555
H44 C47 1_555 1_555
H45 C47 1_555 1_555
C48 C47 1_555 1_555
H46 C48 1_555 1_555
H47 C48 1_555 1_555
H48 C48 1_555 1_555
C49 C18 1_555 1_555
H49 C49 1_555 1_555
H50 C49 1_555 1_555
C50 C49 1_555 1_555
H51 C50 1_555 1_555
H52 C50 1_555 1_555
H53 C50 1_555 1_555
C51 C19 1_555 1_555
H54 C51 1_555 1_555
H55 C51 1_555 1_555
C52 C51 1_555 1_555
H56 C52 1_555 1_555
H57 C52 1_555 1_555
H58 C52 1_555 1_555
C53 C22 1_555 1_555
H59 C53 1_555 1_555
H60 C53 1_555 1_555
C54 C53 1_555 1_555
H61 C54 1_555 1_555
H62 C54 1_555 1_555
H63 C54 1_555 1_555
C55 C23 1_555 1_555
H64 C55 1_555 1_555
H65 C55 1_555 1_555
C56 C55 1_555 1_555
H66 C56 1_555 1_555
H67 C56 1_555 1_555
H68 C56 1_555 1_555
C57 C26 1_555 1_555
H69 C57 1_555 1_555
H70 C57 1_555 1_555
C58 C57 1_555 1_555
H71 C58 1_555 1_555
H72 C58 1_555 1_555
H73 C58 1_555 1_555
C59 C27 1_555 1_555
H74 C59 1_555 1_555
H75 C59 1_555 1_555
C60 C59 1_555 1_555
H76 C60 1_555 1_555
H77 C60 1_555 1_555
H78 C60 1_555 1_555
C61 C30 1_555 1_555
H79 C61 1_555 1_555
H80 C61 1_555 1_555
C62 C61 1_555 1_555
H81 C62 1_555 1_555
H82 C62 1_555 1_555
H83 C62 1_555 1_555
C63 C31 1_555 1_555
H84 C63 1_555 1_555
H85 C63 1_555 1_555
C64 C63 1_555 1_555
H86 C64 1_555 1_555
H87 C64 1_555 1_555
H88 C64 1_555 1_555
C65 H89 1_555 1_555
H90 C65 1_555 1_555
C66 C65 1_555 1_555
H91 C66 1_555 1_555
H92 C66 1_555 1_555
C67 C66 1_555 1_555
H93 C67 1_555 1_555
H94 C67 1_555 1_555
C68 C67 1_555 1_555
H95 C68 1_555 1_555
H96 C68 1_555 1_555
C69 C68 1_555 1_555
H97 C69 1_555 1_555
H98 C69 1_555 1_555
C70 C65 1_555 1_555
H99 C70 1_555 1_555
H100 C70 1_555 1_555
C1 C32 1_555 1_555
C3 C4 1_555 1_555
C4 C5 1_555 1_555
C7 C8 1_555 1_555
C8 C9 1_555 1_555
C11 C12 1_555 1_555
C12 C13 1_555 1_555
C15 C16 1_555 1_555
C16 C17 1_555 1_555
C19 C20 1_555 1_555
C20 C21 1_555 1_555
C23 C24 1_555 1_555
C24 C25 1_555 1_555
C27 C28 1_555 1_555
C28 C29 1_555 1_555
C31 C32 1_555 1_555
C69 C70 1_555 1_555

#END
