
#######################################################################
#
#                 Cambridge Crystallographic Data Centre
#                                CCDC 
#
#######################################################################
#
# If this CIF has been generated from an entry in the Cambridge 
# Structural Database, then it will include bibliographic, chemical, 
# crystal, experimental, refinement or atomic coordinate data resulting 
# from the CCDC's data processing and validation procedures.
#
#######################################################################

data_ZUCYED
_chemical_formula_moiety         
'C9 H24 N2 2+,2.67(C1 H4 N2 S1),0.33(H2 O1),2(Br1 1-)'
_chemical_name_systematic        
"N,N,N,N',N',N'-hexamethylpropane-1,3-diaminium dibromide thiourea hydrate"
_symmetry_cell_setting           monoclinic
_symmetry_space_group_name_H-M   'P 21/n'
_symmetry_Int_Tables_number      14
_space_group_name_Hall           '-P 2yn'
loop_
_symmetry_equiv_pos_site_id
_symmetry_equiv_pos_as_xyz
1 x,y,z
2 1/2-x,1/2+y,1/2-z
3 -x,-y,-z
4 1/2+x,1/2-y,1/2+z
_cell_length_a                   11.7362(8)
_cell_length_b                   22.2462(15)
_cell_length_c                   26.9669(18)
_cell_angle_alpha                90
_cell_angle_beta                 92.2900(10)
_cell_angle_gamma                90
_cell_volume                     7035.05
_exptl_crystal_colour            colorless
_exptl_crystal_description       block
_cell_formula_units_Z            12
loop_
_atom_site_label
_atom_site_type_symbol
_atom_site_fract_x
_atom_site_fract_y
_atom_site_fract_z
Br1 Br 0.44739(3) 0.785927(14) 0.432384(12)
Br2 Br -0.05439(3) 0.789612(15) 0.430755(12)
Br3 Br 0.46551(3) 1.467795(16) 0.428343(13)
Br4 Br -0.02919(3) 1.470251(15) 0.428153(12)
Br5 Br 0.32884(3) 1.095120(16) 0.309367(13)
Br6 Br -0.17802(3) 1.112104(17) 0.267618(14)
C1 C 0.2205(3) 0.88947(14) 0.49806(11)
N1 N 0.2024(2) 0.83048(11) 0.49343(10)
H1 H 0.2561 0.8074 0.4839
H2 H 0.1371 0.8156 0.5000
N2 N 0.3219(2) 0.91098(12) 0.48772(10)
H3 H 0.3743 0.8871 0.4783
H4 H 0.3353 0.9489 0.4905
S1 S 0.11525(7) 0.93579(4) 0.51830(3)
C2 C 0.2929(3) 0.62816(14) 0.49322(11)
N3 N 0.2731(2) 0.57221(12) 0.50896(10)
H5 H 0.3290 0.5477 0.5142
H6 H 0.2045 0.5607 0.5139
N4 N 0.4009(2) 0.64293(12) 0.48640(10)
H7 H 0.4541 0.6170 0.4921
H8 H 0.4175 0.6784 0.4763
S2 S 0.18515(7) 0.67757(4) 0.48153(3)
C3 C 0.2065(3) 0.80607(13) 0.32387(12)
N5 N 0.1917(2) 0.77965(12) 0.36758(10)
H9 H 0.2489 0.7745 0.3881
H10 H 0.1250 0.7677 0.3752
N6 N 0.3116(2) 0.82350(12) 0.31419(10)
H11 H 0.3666 0.8176 0.3357
H12 H 0.3247 0.8407 0.2864
S3 S 0.09514(7) 0.81555(4) 0.28250(3)
C4 C 0.7186(3) 0.89307(14) 0.49958(11)
N7 N 0.8268(2) 0.91176(12) 0.49978(9)
H13 H 0.8799 0.8872 0.4922
H14 H 0.8432 0.9483 0.5075
N8 N 0.6985(2) 0.83627(11) 0.48733(10)
H15 H 0.7541 0.8131 0.4799
H16 H 0.6300 0.8225 0.4868
S4 S 0.61111(7) 0.93988(4) 0.51549(3)
C5 C 0.2053(3) 1.36866(14) 0.50813(11)
N9 N 0.2234(2) 1.42393(12) 0.49129(10)
H17 H 0.1666 1.4468 0.4832
H18 H 0.2920 1.4368 0.4885
N10 N 0.0968(2) 1.35161(12) 0.51157(10)
H19 H 0.0426 1.3760 0.5031
H20 H 0.0811 1.3163 0.5223
S5 S 0.31427(7) 1.32130(4) 0.52367(3)
C6 C 0.7042(3) 0.79496(14) 0.31895(13)
N11 N 0.8101(2) 0.80838(12) 0.30703(10)
H21 H 0.8664 0.7999 0.3272
H22 H 0.8222 0.8255 0.2791
N12 N 0.6913(2) 0.76853(12) 0.36255(10)
H23 H 0.7499 0.7609 0.3816
H24 H 0.6242 0.7591 0.3717
S6 S 0.59047(7) 0.81136(4) 0.28047(3)
C7 C 0.2270(3) 1.42596(14) 0.32233(13)
N13 N 0.2141(2) 1.45557(12) 0.36414(10)
H25 H 0.2728 1.4648 0.3827
H26 H 0.1470 1.4656 0.3728
N14 N 0.3334(2) 1.41150(11) 0.31070(10)
H27 H 0.3901 1.4215 0.3302
H28 H 0.3451 1.3922 0.2837
S7 S 0.11326(7) 1.40628(4) 0.28469(3)
C8 C -0.2273(3) 0.92174(15) 0.17521(12)
N15 N -0.3323(2) 0.90495(12) 0.18439(10)
H29 H -0.3885 0.9170 0.1655
H30 H -0.3445 0.8819 0.2092
N16 N -0.2136(2) 0.95723(14) 0.13641(11)
H31 H -0.2719 0.9684 0.1184
H32 H -0.1465 0.9691 0.1293
S8 S -0.11317(7) 0.89951(4) 0.21182(3)
C9 C 0.5473(3) 1.19260(17) 0.41768(14)
H33 H 0.5406 1.2061 0.4513
H34 H 0.6188 1.1722 0.4146
H35 H 0.4859 1.1655 0.4091
C10 C 0.6428(3) 1.28610(18) 0.39615(15)
H36 H 0.6376 1.3004 0.4296
H37 H 0.6424 1.3197 0.3738
H38 H 0.7123 1.2638 0.3932
C11 C 0.5524(3) 1.22402(18) 0.33091(13)
H39 H 0.4893 1.1982 0.3221
H40 H 0.6225 1.2022 0.3283
H41 H 0.5521 1.2579 0.3088
C12 C 0.4346(3) 1.28082(15) 0.38935(14)
H42 H 0.4333 1.3141 0.3661
H43 H 0.4358 1.2976 0.4226
C13 C 0.3267(3) 1.24503(16) 0.38125(15)
H44 H 0.3257 1.2267 0.3486
H45 H 0.3244 1.2132 0.4057
C14 C 0.2241(3) 1.28483(15) 0.38542(14)
H46 H 0.2275 1.3163 0.3606
H47 H 0.2279 1.3040 0.4178
C15 C 0.0953(3) 1.22639(17) 0.32823(12)
H48 H 0.0231 1.2062 0.3250
H49 H 0.1556 1.1982 0.3232
H50 H 0.0981 1.2578 0.3039
C16 C 0.0991(3) 1.20487(16) 0.41723(14)
H51 H 0.0268 1.1850 0.4125
H52 H 0.1043 1.2226 0.4497
H53 H 0.1595 1.1762 0.4140
C17 C 0.0161(3) 1.29776(17) 0.38550(14)
H54 H -0.0565 1.2781 0.3816
H55 H 0.0212 1.3289 0.3610
H56 H 0.0238 1.3151 0.4181
N17 N 0.5419(2) 1.24570(12) 0.38332(10)
N18 N 0.1093(2) 1.25295(12) 0.37893(10)
C18 C 0.0582(3) 1.05222(14) 0.36982(14)
H57 H 0.1263 1.0704 0.3582
H58 H 0.0569 1.0562 0.4052
H59 H -0.0073 1.0719 0.3548
C19 C 0.1585(3) 0.95760(17) 0.38044(14)
H60 H 0.1590 0.9155 0.3726
H61 H 0.1563 0.9627 0.4157
H62 H 0.2262 0.9761 0.3687
C20 C 0.0654(3) 0.98145(16) 0.30117(12)
H63 H 0.0644 0.9398 0.2917
H64 H 0.1356 0.9994 0.2916
H65 H 0.0024 1.0019 0.2849
C21 C -0.0491(3) 0.95580(14) 0.37335(12)
H66 H -0.0509 0.9597 0.4091
H67 H -0.0444 0.9133 0.3657
C22 C -0.1599(3) 0.98044(15) 0.35044(12)
H68 H -0.1623 0.9733 0.3149
H69 H -0.1631 1.0235 0.3558
C23 C -0.2625(3) 0.95082(14) 0.37302(12)
H70 H -0.2633 0.9086 0.3640
H71 H -0.2534 0.9532 0.4089
C24 C -0.3871(3) 1.04042(16) 0.37767(15)
H72 H -0.4600 1.0568 0.3674
H73 H -0.3276 1.0653 0.3654
H74 H -0.3808 1.0391 0.4133
C25 C -0.4684(3) 0.93937(17) 0.37678(14)
H75 H -0.5414 0.9563 0.3674
H76 H -0.4602 0.9373 0.4123
H77 H -0.4628 0.8997 0.3631
C26 C -0.3914(3) 0.98009(17) 0.30197(12)
H78 H -0.4639 0.9978 0.2930
H79 H -0.3884 0.9400 0.2889
H80 H -0.3316 1.0038 0.2885
N19 N 0.0560(2) 0.98639(11) 0.35603(9)
N20 N -0.3762(2) 0.97804(11) 0.35732(10)
C27 C 0.5364(3) 1.16586(15) 0.20816(13)
H81 H 0.6068 1.1619 0.2273
H82 H 0.4736 1.1632 0.2298
H83 H 0.5347 1.2041 0.1917
C28 C 0.5395(3) 1.05730(13) 0.19602(12)
H84 H 0.6095 1.0566 0.2157
H85 H 0.5402 1.0257 0.1718
H86 H 0.4765 1.0515 0.2171
C29 C 0.6248(3) 1.12270(15) 0.13577(13)
H87 H 0.6960 1.1206 0.1545
H88 H 0.6193 1.1607 0.1189
H89 H 0.6211 1.0907 0.1119
C30 C 0.4167(3) 1.12042(14) 0.13957(12)
H90 H 0.4131 1.0873 0.1161
H91 H 0.4156 1.1576 0.1208
C31 C 0.3121(3) 1.11821(17) 0.17132(13)
H92 H 0.3126 1.0811 0.1902
H93 H 0.3144 1.1515 0.1945
C32 C 0.2037(3) 1.12174(14) 0.13860(12)
H94 H 0.2053 1.1583 0.1190
H95 H 0.2018 1.0880 0.1158
C33 C 0.0942(3) 1.17211(16) 0.20365(13)
H96 H 0.0254 1.1704 0.2216
H97 H 0.0971 1.2094 0.1859
H98 H 0.1589 1.1694 0.2265
C34 C 0.0840(3) 1.06291(14) 0.19486(13)
H99 H 0.0156 1.0638 0.2132
H100 H 0.1487 1.0571 0.2173
H101 H 0.0798 1.0305 0.1714
C35 C -0.0062(3) 1.12742(15) 0.13230(13)
H102 H -0.0747 1.1271 0.1506
H103 H -0.0078 1.0945 0.1093
H104 H -0.0012 1.1646 0.1145
N21 N 0.5275(2) 1.11656(11) 0.17036(10)
N22 N 0.0964(2) 1.12113(11) 0.16788(9)
O1 O -0.1722(2) 1.16435(13) 0.38335(11)
H105 H -0.1658 1.1288 0.3947
H106 H -0.1747 1.1506 0.3540
loop_
_geom_bond_atom_site_label_1
_geom_bond_atom_site_label_2
_geom_bond_site_symmetry_1
_geom_bond_site_symmetry_2
C1 N1 1_555 1_555
N1 H1 1_555 1_555
H2 N1 1_555 1_555
N2 C1 1_555 1_555
H3 N2 1_555 1_555
H4 N2 1_555 1_555
S1 C1 1_555 1_555
C2 N3 1_555 1_555
N3 H5 1_555 1_555
H6 N3 1_555 1_555
N4 C2 1_555 1_555
H7 N4 1_555 1_555
H8 N4 1_555 1_555
S2 C2 1_555 1_555
C3 N5 1_555 1_555
N5 H9 1_555 1_555
H10 N5 1_555 1_555
N6 C3 1_555 1_555
H11 N6 1_555 1_555
H12 N6 1_555 1_555
S3 C3 1_555 1_555
C4 N7 1_555 1_555
N7 H13 1_555 1_555
H14 N7 1_555 1_555
N8 C4 1_555 1_555
H15 N8 1_555 1_555
H16 N8 1_555 1_555
S4 C4 1_555 1_555
C5 N9 1_555 1_555
N9 H17 1_555 1_555
H18 N9 1_555 1_555
N10 C5 1_555 1_555
H19 N10 1_555 1_555
H20 N10 1_555 1_555
S5 C5 1_555 1_555
C6 N11 1_555 1_555
N11 H21 1_555 1_555
H22 N11 1_555 1_555
N12 C6 1_555 1_555
H23 N12 1_555 1_555
H24 N12 1_555 1_555
S6 C6 1_555 1_555
C7 N13 1_555 1_555
N13 H25 1_555 1_555
H26 N13 1_555 1_555
N14 C7 1_555 1_555
H27 N14 1_555 1_555
H28 N14 1_555 1_555
S7 C7 1_555 1_555
C8 N15 1_555 1_555
N15 H29 1_555 1_555
H30 N15 1_555 1_555
N16 C8 1_555 1_555
H31 N16 1_555 1_555
H32 N16 1_555 1_555
S8 C8 1_555 1_555
C9 H33 1_555 1_555
H34 C9 1_555 1_555
H35 C9 1_555 1_555
C10 H36 1_555 1_555
H37 C10 1_555 1_555
H38 C10 1_555 1_555
C11 H39 1_555 1_555
H40 C11 1_555 1_555
H41 C11 1_555 1_555
C12 H42 1_555 1_555
H43 C12 1_555 1_555
C13 C12 1_555 1_555
H44 C13 1_555 1_555
H45 C13 1_555 1_555
C14 C13 1_555 1_555
H46 C14 1_555 1_555
H47 C14 1_555 1_555
C15 H48 1_555 1_555
H49 C15 1_555 1_555
H50 C15 1_555 1_555
C16 H51 1_555 1_555
H52 C16 1_555 1_555
H53 C16 1_555 1_555
C17 H54 1_555 1_555
H55 C17 1_555 1_555
H56 C17 1_555 1_555
N17 C9 1_555 1_555
N18 C14 1_555 1_555
C18 H57 1_555 1_555
H58 C18 1_555 1_555
H59 C18 1_555 1_555
C19 H60 1_555 1_555
H61 C19 1_555 1_555
H62 C19 1_555 1_555
C20 H63 1_555 1_555
H64 C20 1_555 1_555
H65 C20 1_555 1_555
C21 H66 1_555 1_555
H67 C21 1_555 1_555
C22 C21 1_555 1_555
H68 C22 1_555 1_555
H69 C22 1_555 1_555
C23 C22 1_555 1_555
H70 C23 1_555 1_555
H71 C23 1_555 1_555
C24 H72 1_555 1_555
H73 C24 1_555 1_555
H74 C24 1_555 1_555
C25 H75 1_555 1_555
H76 C25 1_555 1_555
H77 C25 1_555 1_555
C26 H78 1_555 1_555
H79 C26 1_555 1_555
H80 C26 1_555 1_555
N19 C18 1_555 1_555
N20 C23 1_555 1_555
C27 H81 1_555 1_555
H82 C27 1_555 1_555
H83 C27 1_555 1_555
C28 H84 1_555 1_555
H85 C28 1_555 1_555
H86 C28 1_555 1_555
C29 H87 1_555 1_555
H88 C29 1_555 1_555
H89 C29 1_555 1_555
C30 H90 1_555 1_555
H91 C30 1_555 1_555
C31 C30 1_555 1_555
H92 C31 1_555 1_555
H93 C31 1_555 1_555
C32 C31 1_555 1_555
H94 C32 1_555 1_555
H95 C32 1_555 1_555
C33 H96 1_555 1_555
H97 C33 1_555 1_555
H98 C33 1_555 1_555
C34 H99 1_555 1_555
H100 C34 1_555 1_555
H101 C34 1_555 1_555
C35 H102 1_555 1_555
H103 C35 1_555 1_555
H104 C35 1_555 1_555
N21 C27 1_555 1_555
N22 C32 1_555 1_555
O1 H105 1_555 1_555
H106 O1 1_555 1_555
C10 N17 1_555 1_555
C11 N17 1_555 1_555
C12 N17 1_555 1_555
C15 N18 1_555 1_555
C16 N18 1_555 1_555
C17 N18 1_555 1_555
C19 N19 1_555 1_555
C20 N19 1_555 1_555
C21 N19 1_555 1_555
C24 N20 1_555 1_555
C25 N20 1_555 1_555
C26 N20 1_555 1_555
C28 N21 1_555 1_555
C29 N21 1_555 1_555
C30 N21 1_555 1_555
C33 N22 1_555 1_555
C34 N22 1_555 1_555
C35 N22 1_555 1_555

#END
