
#######################################################################
#
#                 Cambridge Crystallographic Data Centre
#                                CCDC 
#
#######################################################################
#
# If this CIF has been generated from an entry in the Cambridge 
# Structural Database, then it will include bibliographic, chemical, 
# crystal, experimental, refinement or atomic coordinate data resulting 
# from the CCDC's data processing and validation procedures.
#
#######################################################################

data_ZUCYIH
_chemical_formula_moiety         'C10 H26 N2 2+,2(C1 H4 N2 S1),2(Br1 1-)'
_chemical_name_systematic        
"N,N,N,N',N',N'-hexamethylbutane-1,4-diaminium dibromide bis(thiourea)"
_symmetry_cell_setting           monoclinic
_symmetry_space_group_name_H-M   'P 21/n'
_symmetry_Int_Tables_number      14
_space_group_name_Hall           '-P 2yn'
loop_
_symmetry_equiv_pos_site_id
_symmetry_equiv_pos_as_xyz
1 x,y,z
2 1/2-x,1/2+y,1/2-z
3 -x,-y,-z
4 1/2+x,1/2-y,1/2+z
_cell_length_a                   6.0616(4)
_cell_length_b                   17.3527(11)
_cell_length_c                   10.9299(7)
_cell_angle_alpha                90
_cell_angle_beta                 99.577(3)
_cell_angle_gamma                90
_cell_volume                     1133.64
_exptl_crystal_colour            colorless
_exptl_crystal_description       block
_cell_formula_units_Z            2
loop_
_atom_site_label
_atom_site_type_symbol
_atom_site_fract_x
_atom_site_fract_y
_atom_site_fract_z
Br1 Br 1.01795(3) 0.830233(11) 0.099549(16)
S1 S 0.77692(7) 0.93821(3) 0.43183(4)
N1 N 0.3395(3) 0.91652(11) 0.37160(17)
N2 N 0.5525(3) 0.85715(9) 0.24766(14)
H1 H 0.4321 0.8393 0.2041
H2 H 0.6805 0.8463 0.2280
C1 C 0.5407(3) 0.90155(9) 0.34544(15)
H3 H 0.334(4) 0.9516(14) 0.430(2)
H4 H 0.234(3) 0.9012(11) 0.3277(17)
N3 N 0.8889(2) 0.63394(8) 0.29930(12)
C2 C 0.8393(3) 0.56405(9) 0.37372(15)
H5 H 0.7290 0.5785 0.4245
H6 H 0.7728 0.5245 0.3164
C3 C 0.9584(3) 0.70148(11) 0.38239(16)
H7 H 1.0956 0.6896 0.4366
H8 H 0.8439 0.7124 0.4309
H9 H 0.9801 0.7456 0.3328
C4 C 1.0396(3) 0.52983(10) 0.45712(16)
H10 H 1.1225 0.5702 0.5061
H11 H 1.1382 0.5056 0.4071
C5 C 0.6806(4) 0.65507(12) 0.2119(2)
H12 H 0.7110 0.6979 0.1615
H13 H 0.5656 0.6691 0.2584
H14 H 0.6316 0.6118 0.1595
C6 C 1.0680(3) 0.61620(11) 0.22424(19)
H15 H 1.0245 0.5723 0.1724
H16 H 1.2055 0.6052 0.2789
H17 H 1.0889 0.6598 0.1733
N3B N 1.1111(2) 0.36606(8) 0.70070(12)
C2B C 1.1607(3) 0.43595(9) 0.62628(15)
H5B H 1.2710 0.4215 0.5755
H6B H 1.2272 0.4755 0.6836
C3B C 1.0416(3) 0.29852(11) 0.61761(16)
H7B H 0.9044 0.3104 0.5634
H8B H 1.1561 0.2876 0.5691
H9B H 1.0199 0.2544 0.6672
C4B C 0.9604(3) 0.47017(10) 0.54288(16)
H10B H 0.8775 0.4298 0.4939
H11B H 0.8618 0.4944 0.5929
C5B C 1.3194(4) 0.34493(12) 0.7881(2)
H12B H 1.2890 0.3021 0.8385
H13B H 1.4344 0.3309 0.7416
H14B H 1.3684 0.3882 0.8405
C6B C 0.9320(3) 0.38380(11) 0.77576(19)
H15B H 0.9755 0.4277 0.8276
H16B H 0.7945 0.3948 0.7211
H17B H 0.9111 0.3402 0.8267
loop_
_geom_bond_atom_site_label_1
_geom_bond_atom_site_label_2
_geom_bond_site_symmetry_1
_geom_bond_site_symmetry_2
S1 C1 1_555 1_555
N1 C1 1_555 1_555
N2 H1 1_555 1_555
H2 N2 1_555 1_555
C1 N2 1_555 1_555
H3 N1 1_555 1_555
H4 N1 1_555 1_555
N3 C2 1_555 1_555
C2 H5 1_555 1_555
H6 C2 1_555 1_555
C3 N3 1_555 1_555
H7 C3 1_555 1_555
H8 C3 1_555 1_555
H9 C3 1_555 1_555
C4 C2 1_555 1_555
H10 C4 1_555 1_555
H11 C4 1_555 1_555
C5 N3 1_555 1_555
H12 C5 1_555 1_555
H13 C5 1_555 1_555
H14 C5 1_555 1_555
C6 N3 1_555 1_555
H15 C6 1_555 1_555
H16 C6 1_555 1_555
H17 C6 1_555 1_555
N3B C2B 1_555 1_555
C2B H5B 1_555 1_555
H6B C2B 1_555 1_555
C3B N3B 1_555 1_555
H7B C3B 1_555 1_555
H8B C3B 1_555 1_555
H9B C3B 1_555 1_555
C4B C4 1_555 1_555
H10B C4B 1_555 1_555
H11B C4B 1_555 1_555
C5B N3B 1_555 1_555
H12B C5B 1_555 1_555
H13B C5B 1_555 1_555
H14B C5B 1_555 1_555
C6B N3B 1_555 1_555
H15B C6B 1_555 1_555
H16B C6B 1_555 1_555
H17B C6B 1_555 1_555
C2B C4B 1_555 1_555

#END
