
#######################################################################
#
#                 Cambridge Crystallographic Data Centre
#                                CCDC 
#
#######################################################################
#
# If this CIF has been generated from an entry in the Cambridge 
# Structural Database, then it will include bibliographic, chemical, 
# crystal, experimental, refinement or atomic coordinate data resulting 
# from the CCDC's data processing and validation procedures.
#
#######################################################################

data_ZUDCUW
_chemical_formula_moiety         'C12 H11 F3 O2'
_chemical_name_systematic        
3-Methyl-4-phenyl-2-(trifluoromethyl)butyrolactone
_symmetry_cell_setting           monoclinic
_symmetry_space_group_name_H-M   'P 21/n'
_symmetry_Int_Tables_number      14
_space_group_name_Hall           '-P 2yn'
loop_
_symmetry_equiv_pos_site_id
_symmetry_equiv_pos_as_xyz
1 x,y,z
2 1/2-x,1/2+y,1/2-z
3 -x,-y,-z
4 1/2+x,1/2-y,1/2+z
_cell_length_a                   8.2366(13)
_cell_length_b                   5.5743(7)
_cell_length_c                   24.507(4)
_cell_angle_alpha                90
_cell_angle_beta                 98.383(8)
_cell_angle_gamma                90
_cell_volume                     1113.17
_exptl_crystal_colour            white
_chemical_melting_point          72.4-73.5deg.C
_cell_formula_units_Z            4
loop_
_atom_site_label
_atom_site_type_symbol
_atom_site_fract_x
_atom_site_fract_y
_atom_site_fract_z
O1 O 0.1141(2) 0.6862(3) 0.0374(1)
O2 O 0.0105(2) 0.5208(3) 0.1076(1)
F1 F 0.4171(2) 0.0593(3) 0.0533(1)
F2 F 0.4419(2) 0.4240(3) 0.0824(1)
F3 F 0.3492(2) 0.3501(3) -0.0031(1)
C1 C 0.0999(3) 0.5134(4) 0.0657(1)
C2 C 0.1734(3) 0.2646(4) 0.0622(1)
C3 C 0.1584(3) 0.1572(5) 0.1185(1)
C4 C 0.0046(3) 0.2808(4) 0.1332(1)
C5 C 0.3453(3) 0.2746(5) 0.0484(1)
C6 C -0.1536(3) 0.1604(5) 0.1062(1)
C7 C 0.0035(3) 0.3166(4) 0.1944(1)
C8 C 0.0767(3) 0.1489(5) 0.2319(1)
C9 C 0.0643(3) 0.1732(6) 0.2878(1)
C10 C -0.0201(3) 0.3622(5) 0.3064(1)
C11 C -0.0913(3) 0.5311(5) 0.2694(1)
C12 C -0.0803(3) 0.5084(5) 0.2133(1)
H1 H 0.1111(33) 0.1751(48) 0.0324(11)
H2 H 0.2562(31) 0.2069(43) 0.1469(10)
H3 H 0.1503(30) -0.0153(50) 0.1174(10)
H4 H -0.1613(35) -0.0033(57) 0.1217(11)
H5 H -0.1587(37) 0.1479(53) 0.0666(14)
H6 H -0.2442(38) 0.2548(50) 0.1140(11)
H7 H 0.1357(35) 0.0186(53) 0.2215(11)
H8 H 0.1163(41) 0.0553(57) 0.3120(12)
H9 H -0.0273(34) 0.3757(50) 0.3441(12)
H10 H -0.1447(37) 0.6652(55) 0.2799(12)
H11 H -0.1329(33) 0.6327(48) 0.1871(11)
loop_
_geom_bond_atom_site_label_1
_geom_bond_atom_site_label_2
_geom_bond_site_symmetry_1
_geom_bond_site_symmetry_2
O1 C1 1_555 1_555
O2 C1 1_555 1_555
F1 C5 1_555 1_555
F2 C5 1_555 1_555
F3 C5 1_555 1_555
C1 C2 1_555 1_555
C2 C3 1_555 1_555
C3 C4 1_555 1_555
C4 O2 1_555 1_555
C5 C2 1_555 1_555
C6 C4 1_555 1_555
C7 C4 1_555 1_555
C8 C7 1_555 1_555
C9 C8 1_555 1_555
C10 C9 1_555 1_555
C11 C10 1_555 1_555
C12 C7 1_555 1_555
H1 C2 1_555 1_555
H2 C3 1_555 1_555
H3 C3 1_555 1_555
H4 C6 1_555 1_555
H5 C6 1_555 1_555
H6 C6 1_555 1_555
H7 C8 1_555 1_555
H8 C9 1_555 1_555
H9 C10 1_555 1_555
H10 C11 1_555 1_555
H11 C12 1_555 1_555
C11 C12 1_555 1_555

#END
