
#######################################################################
#
#                 Cambridge Crystallographic Data Centre
#                                CCDC 
#
#######################################################################
#
# If this CIF has been generated from an entry in the Cambridge 
# Structural Database, then it will include bibliographic, chemical, 
# crystal, experimental, refinement or atomic coordinate data resulting 
# from the CCDC's data processing and validation procedures.
#
#######################################################################

data_ZUDLOB
_chemical_formula_moiety         'C28 H21 F3 N2 O2,C1 H4 O1'
_chemical_name_systematic        
'4-(9-anthryl)-3-methyl-1-phenyl-6-(trifluoromethyl)-1,4,5,6-tetrahydropyrano[2,3-c]pyrazol-6-ol methanol solvate'
_symmetry_cell_setting           tetragonal
_symmetry_space_group_name_H-M   'I 41/a'
_symmetry_Int_Tables_number      88
_space_group_name_Hall           '-I 4ad'
loop_
_symmetry_equiv_pos_site_id
_symmetry_equiv_pos_as_xyz
1 x,y,z
2 1/2-x,-y,1/2+z
3 3/4-y,1/4+x,1/4+z
4 3/4+y,3/4-x,3/4+z
5 1/2+x,1/2+y,1/2+z
6 -x,1/2-y,z
7 1/4-y,3/4+x,3/4+z
8 1/4+y,1/4-x,1/4+z
9 -x,-y,-z
10 1/2+x,y,1/2-z
11 1/4+y,3/4-x,3/4-z
12 1/4-y,1/4+x,1/4-z
13 1/2-x,1/2-y,1/2-z
14 x,1/2+y,-z
15 3/4+y,1/4-x,1/4-z
16 3/4-y,3/4+x,3/4-z
_cell_length_a                   27.1578(11)
_cell_length_b                   27.1578(11)
_cell_length_c                   13.5241(8)
_cell_angle_alpha                90
_cell_angle_beta                 90
_cell_angle_gamma                90
_cell_volume                     9974.65
_exptl_crystal_colour            colorless
_exptl_crystal_description       BLOCK
_cell_formula_units_Z            16
loop_
_atom_site_label
_atom_site_type_symbol
_atom_site_fract_x
_atom_site_fract_y
_atom_site_fract_z
C1 C 0.86850(6) 0.79036(6) -0.12672(11)
H1 H 0.8476 0.7709 -0.0887
C2 C 0.90060(7) 0.76811(7) -0.18929(12)
H2 H 0.9021 0.7339 -0.1916
C3 C 0.93170(7) 0.79633(8) -0.25097(14)
H3 H 0.9528 0.7808 -0.2952
C4 C 0.93064(6) 0.84581(8) -0.24554(13)
H4 H 0.9510 0.8641 -0.2868
C5 C 0.89902(5) 0.87079(6) -0.17802(11)
C6 C 0.89957(6) 0.92154(6) -0.17023(12)
H5 H 0.9213 0.9394 -0.2095
C7 C 0.86889(6) 0.94658(6) -0.10579(12)
C8 C 0.86964(7) 0.99898(7) -0.09974(14)
H6 H 0.8920 1.0165 -0.1383
C9 C 0.83893(8) 1.02377(7) -0.03987(15)
H7 H 0.8399 1.0580 -0.0377
C10 C 0.80529(7) 0.99776(6) 0.01966(14)
H8 H 0.7841 1.0150 0.0612
C11 C 0.80335(6) 0.94779(6) 0.01708(12)
H9 H 0.7810 0.9316 0.0578
C12 C 0.83451(5) 0.91935(5) -0.04613(11)
C13 C 0.83266(5) 0.86748(5) -0.05406(10)
C14 C 0.86578(5) 0.84272(5) -0.11745(10)
C15 C 0.79082(5) 0.83993(5) -0.00251(11)
H10 H 0.7737 0.8641 0.0389
C16 C 0.75310(5) 0.82209(6) -0.07986(12)
H11 H 0.7407 0.8502 -0.1165
H12 H 0.7693 0.8002 -0.1263
C17 C 0.71038(5) 0.79525(5) -0.03164(12)
C18 C 0.76881(5) 0.75959(5) 0.07304(10)
C19 C 0.80225(5) 0.79665(5) 0.06309(10)
C20 C 0.84014(6) 0.78376(5) 0.12854(11)
C21 C 0.67688(6) 0.77181(6) -0.10917(13)
C22 C 0.88749(7) 0.81003(7) 0.14690(15)
H13 H 0.9049 0.7941 0.1997
H14 H 0.8808 0.8436 0.1649
H15 H 0.9072 0.8093 0.0880
C23 C 0.76546(6) 0.67965(5) 0.16782(10)
C24 C 0.71557(7) 0.67085(6) 0.16179(15)
H16 H 0.6942 0.6955 0.1409
C25 C 0.69760(9) 0.62494(7) 0.18719(18)
H17 H 0.6641 0.6185 0.1813
C26 C 0.72849(10) 0.58884(7) 0.22081(16)
H18 H 0.7159 0.5583 0.2387
C27 C 0.77772(11) 0.59788(7) 0.22795(18)
H19 H 0.7987 0.5734 0.2514
C28 C 0.79686(8) 0.64332(6) 0.20053(16)
H20 H 0.8306 0.6491 0.2042
F1 F 0.66016(4) 0.80577(4) -0.17138(9)
F2 F 0.69987(5) 0.73814(4) -0.16280(9)
F3 F 0.63791(4) 0.75054(5) -0.06851(9)
N1 N 0.83062(5) 0.74136(5) 0.17466(9)
N2 N 0.78524(5) 0.72628(4) 0.14000(9)
O1 O 0.72589(4) 0.75261(4) 0.02482(9)
O2 O 0.68491(4) 0.82734(4) 0.02696(9)
H21 H 0.6641 0.8123 0.0628
C29 C 0.56136(12) 0.67330(9) 0.0668(2)
H22 H 0.5707 0.6916 0.1246
H23 H 0.5394 0.6928 0.0272
H24 H 0.5902 0.6655 0.0290
O3 O 0.53787(6) 0.63001(5) 0.09502(9)
H25 H 0.5299 0.6126 0.0451
loop_
_geom_bond_atom_site_label_1
_geom_bond_atom_site_label_2
_geom_bond_site_symmetry_1
_geom_bond_site_symmetry_2
C1 H1 1_555 1_555
C2 C1 1_555 1_555
H2 C2 1_555 1_555
C3 C2 1_555 1_555
H3 C3 1_555 1_555
C4 C3 1_555 1_555
H4 C4 1_555 1_555
C5 C4 1_555 1_555
C6 C5 1_555 1_555
H5 C6 1_555 1_555
C7 C6 1_555 1_555
C8 C7 1_555 1_555
H6 C8 1_555 1_555
C9 C8 1_555 1_555
H7 C9 1_555 1_555
C10 C9 1_555 1_555
H8 C10 1_555 1_555
C11 C10 1_555 1_555
H9 C11 1_555 1_555
C12 C7 1_555 1_555
C13 C12 1_555 1_555
C14 C1 1_555 1_555
C15 C13 1_555 1_555
H10 C15 1_555 1_555
C16 C15 1_555 1_555
H11 C16 1_555 1_555
H12 C16 1_555 1_555
C17 C16 1_555 1_555
C18 C19 1_555 1_555
C19 C15 1_555 1_555
C20 C19 1_555 1_555
C21 C17 1_555 1_555
C22 C20 1_555 1_555
H13 C22 1_555 1_555
H14 C22 1_555 1_555
H15 C22 1_555 1_555
C23 C24 1_555 1_555
C24 H16 1_555 1_555
C25 C24 1_555 1_555
H17 C25 1_555 1_555
C26 C25 1_555 1_555
H18 C26 1_555 1_555
C27 C26 1_555 1_555
H19 C27 1_555 1_555
C28 C23 1_555 1_555
H20 C28 1_555 1_555
F1 C21 1_555 1_555
F2 C21 1_555 1_555
F3 C21 1_555 1_555
N1 C20 1_555 1_555
N2 C18 1_555 1_555
O1 C17 1_555 1_555
O2 C17 1_555 1_555
H21 O2 1_555 1_555
C29 H22 1_555 1_555
H23 C29 1_555 1_555
H24 C29 1_555 1_555
O3 C29 1_555 1_555
H25 O3 1_555 1_555
C5 C14 1_555 1_555
C11 C12 1_555 1_555
C13 C14 1_555 1_555
C18 O1 1_555 1_555
C23 N2 1_555 1_555
C27 C28 1_555 1_555
N1 N2 1_555 1_555

#END
