
#######################################################################
#
#                 Cambridge Crystallographic Data Centre
#                                CCDC 
#
#######################################################################
#
# If this CIF has been generated from an entry in the Cambridge 
# Structural Database, then it will include bibliographic, chemical, 
# crystal, experimental, refinement or atomic coordinate data resulting 
# from the CCDC's data processing and validation procedures.
#
#######################################################################

data_ZUDMOC
_chemical_formula_moiety         'C23 H19 N3 O3'
_chemical_name_systematic        
'methyl 4-(3-(dicyanomethyl)-2-oxo-2,3-dihydro-1H-indol-3-yl)-3-(4-methylphenyl)but-2-enoate'
_symmetry_cell_setting           monoclinic
_symmetry_space_group_name_H-M   'P 21/n'
_symmetry_Int_Tables_number      14
_space_group_name_Hall           '-P 2yn'
loop_
_symmetry_equiv_pos_site_id
_symmetry_equiv_pos_as_xyz
1 x,y,z
2 1/2-x,1/2+y,1/2-z
3 -x,-y,-z
4 1/2+x,1/2-y,1/2+z
_cell_length_a                   10.4255(11)
_cell_length_b                   14.8372(16)
_cell_length_c                   13.8242(15)
_cell_angle_alpha                90
_cell_angle_beta                 106.714(4)
_cell_angle_gamma                90
_cell_volume                     2048.06
_exptl_crystal_colour            colorless
_exptl_crystal_description       block
_cell_formula_units_Z            4
loop_
_atom_site_label
_atom_site_type_symbol
_atom_site_fract_x
_atom_site_fract_y
_atom_site_fract_z
O1 O -0.1240(2) -0.17863(15) 0.18274(19)
O2 O 0.0739(2) -0.22156(13) 0.28650(16)
O3 O 0.4142(2) 0.09984(12) 0.41117(14)
N1 N 0.6285(3) -0.0339(2) 0.2623(2)
N2 N 0.4347(3) -0.26040(19) 0.3631(2)
N3 N 0.3124(2) 0.10102(14) 0.24042(16)
H1 H 0.3166 0.1578 0.2295
C1 C 0.2588(3) 0.03731(18) 0.1645(2)
C2 C 0.2082(3) 0.0512(2) 0.0624(2)
H2 H 0.2045 0.1086 0.0348
C3 C 0.1634(3) -0.0228(3) 0.0025(2)
H3 H 0.1273 -0.0151 -0.0667
C4 C 0.1708(3) -0.1077(2) 0.0426(2)
H4 H 0.1409 -0.1567 0.0002
C5 C 0.2225(3) -0.12152(19) 0.1461(2)
H5 H 0.2281 -0.1792 0.1733
C6 C 0.2651(2) -0.04759(17) 0.20730(19)
C7 C 0.3255(3) -0.03843(16) 0.31982(18)
C8 C 0.3561(3) 0.06305(17) 0.3318(2)
C9 C 0.4634(3) -0.08643(17) 0.3604(2)
H6 H 0.5022 -0.0674 0.4306
C10 C 0.5565(3) -0.0593(2) 0.3040(2)
C11 C 0.4493(3) -0.1849(2) 0.3604(2)
C12 C 0.0110(4) 0.3318(2) 0.4922(4)
H7 H 0.0600 0.3382 0.5622
H8 H -0.0829 0.3393 0.4843
H9 H 0.0402 0.3768 0.4533
C13 C 0.0358(4) 0.2387(2) 0.4555(4)
C14 C -0.0228(4) 0.2125(2) 0.3580(3)
H10 H -0.0780 0.2528 0.3134
C15 C -0.0021(3) 0.1274(2) 0.3239(3)
H11 H -0.0432 0.1118 0.2570
C16 C 0.0789(3) 0.06507(19) 0.3877(2)
C17 C 0.1391(3) 0.0918(2) 0.4862(3)
H12 H 0.1947 0.0519 0.5311
C18 C 0.1176(4) 0.1775(2) 0.5187(3)
H13 H 0.1597 0.1939 0.5852
C19 C 0.0973(3) -0.02780(17) 0.3534(2)
C20 C -0.0090(3) -0.07162(18) 0.2951(2)
H14 H -0.0899 -0.0405 0.2769
C21 C -0.0106(3) -0.1639(2) 0.2570(2)
C22 C -0.1371(4) -0.2675(2) 0.1371(3)
H15 H -0.2209 -0.2715 0.0852
H16 H -0.1342 -0.3123 0.1878
H17 H -0.0649 -0.2774 0.1082
C23 C 0.2359(3) -0.06771(18) 0.3864(2)
H18 H 0.2287 -0.1329 0.3849
H19 H 0.2790 -0.0499 0.4557
loop_
_geom_bond_atom_site_label_1
_geom_bond_atom_site_label_2
_geom_bond_site_symmetry_1
_geom_bond_site_symmetry_2
O1 C21 1_555 1_555
O2 C21 1_555 1_555
O3 C8 1_555 1_555
N1 C10 1_555 1_555
N2 C11 1_555 1_555
N3 H1 1_555 1_555
C1 N3 1_555 1_555
C2 C1 1_555 1_555
H2 C2 1_555 1_555
C3 C2 1_555 1_555
H3 C3 1_555 1_555
C4 C3 1_555 1_555
H4 C4 1_555 1_555
C5 C4 1_555 1_555
H5 C5 1_555 1_555
C6 C1 1_555 1_555
C7 C6 1_555 1_555
C8 N3 1_555 1_555
C9 C7 1_555 1_555
H6 C9 1_555 1_555
C10 C9 1_555 1_555
C11 C9 1_555 1_555
C12 H7 1_555 1_555
H8 C12 1_555 1_555
H9 C12 1_555 1_555
C13 C12 1_555 1_555
C14 C13 1_555 1_555
H10 C14 1_555 1_555
C15 C14 1_555 1_555
H11 C15 1_555 1_555
C16 C15 1_555 1_555
C17 C16 1_555 1_555
H12 C17 1_555 1_555
C18 C13 1_555 1_555
H13 C18 1_555 1_555
C19 C16 1_555 1_555
C20 C19 1_555 1_555
H14 C20 1_555 1_555
C21 C20 1_555 1_555
C22 O1 1_555 1_555
H15 C22 1_555 1_555
H16 C22 1_555 1_555
H17 C22 1_555 1_555
C23 C7 1_555 1_555
H18 C23 1_555 1_555
H19 C23 1_555 1_555
C5 C6 1_555 1_555
C7 C8 1_555 1_555
C17 C18 1_555 1_555
C19 C23 1_555 1_555

#END
