
#######################################################################
#
#                 Cambridge Crystallographic Data Centre
#                                CCDC 
#
#######################################################################
#
# If this CIF has been generated from an entry in the Cambridge 
# Structural Database, then it will include bibliographic, chemical, 
# crystal, experimental, refinement or atomic coordinate data resulting 
# from the CCDC's data processing and validation procedures.
#
#######################################################################

data_ZUFGIS
_chemical_formula_moiety         'C9 H7 F2 N3 O1'
_chemical_name_systematic        
6,7-difluoro-4-methyl-3,4-dihydro-2H-pyrido[3,2-b][1,4]oxazine-8-carbonitrile
_symmetry_cell_setting           monoclinic
_symmetry_space_group_name_H-M   'P 21/c'
_symmetry_Int_Tables_number      14
_space_group_name_Hall           '-P 2ybc'
loop_
_symmetry_equiv_pos_site_id
_symmetry_equiv_pos_as_xyz
1 x,y,z
2 -x,1/2+y,1/2-z
3 -x,-y,-z
4 x,1/2-y,1/2+z
_cell_length_a                   15.1139(4)
_cell_length_b                   15.1334(4)
_cell_length_c                   7.7728(2)
_cell_angle_alpha                90
_cell_angle_beta                 96.82(1)
_cell_angle_gamma                90
_cell_volume                     1765.25
_exptl_crystal_colour            'light yellow'
_exptl_crystal_description       plate
_cell_formula_units_Z            8
loop_
_atom_site_label
_atom_site_type_symbol
_atom_site_fract_x
_atom_site_fract_y
_atom_site_fract_z
F1 F 0.17758(5) 0.61799(5) 0.66581(10)
F2 F 0.24466(5) 0.46635(5) 0.54187(10)
O1 O -0.01148(6) 0.31545(6) 0.68632(12)
N1 N 0.05508(7) 0.54671(7) 0.73450(13)
N2 N -0.07229(7) 0.47712(7) 0.81016(14)
N3 N 0.17850(8) 0.24425(8) 0.49614(16)
C1 C 0.13145(8) 0.54178(8) 0.66973(16)
C2 C 0.16596(8) 0.46664(8) 0.60817(16)
C3 C 0.11711(8) 0.38836(8) 0.61499(15)
C4 C 0.03681(8) 0.39090(8) 0.68260(15)
C5 C 0.00612(8) 0.47327(8) 0.74238(15)
C6 C -0.07214(10) 0.31639(10) 0.81733(19)
C7 C -0.12846(9) 0.39864(9) 0.80164(19)
C8 C -0.11261(10) 0.56100(10) 0.84961(18)
C9 C 0.15046(8) 0.30714(9) 0.55060(17)
H1 H -0.0382(10) 0.3121(10) 0.928(2)
H2 H -0.1087(10) 0.2631(10) 0.795(2)
H3 H -0.1699(9) 0.3975(9) 0.6930(19)
H4 H -0.1637(11) 0.4025(11) 0.900(2)
H5 H -0.1641(12) 0.5766(12) 0.764(2)
H6 H -0.1328(11) 0.5582(11) 0.961(2)
H7 H -0.0728(13) 0.6075(14) 0.854(2)
F3 F 0.33758(5) 0.88218(5) 0.90556(11)
F4 F 0.25767(5) 0.72766(5) 0.98406(10)
O2 O 0.49884(6) 0.57262(6) 0.78793(12)
N4 N 0.45233(7) 0.80860(7) 0.80954(13)
N5 N 0.57325(7) 0.73795(7) 0.71116(14)
N6 N 0.30613(8) 0.50135(8) 0.96541(16)
C10 C 0.37595(8) 0.80426(8) 0.87482(17)
C11 C 0.33510(8) 0.72786(8) 0.91433(16)
C12 C 0.37756(8) 0.64797(8) 0.88394(15)
C13 C 0.45732(8) 0.64997(8) 0.81384(15)
C14 C 0.49447(8) 0.73362(8) 0.77849(15)
C15 C 0.56695(9) 0.57883(9) 0.67206(18)
C16 C 0.62672(9) 0.65737(9) 0.71705(18)
C17 C 0.61778(10) 0.82291(10) 0.70180(19)
C18 C 0.33867(8) 0.56566(9) 0.92770(16)
H8 H 0.5363(10) 0.5832(10) 0.5524(19)
H9 H 0.5997(9) 0.5230(10) 0.6847(17)
H10 H 0.6624(10) 0.6500(10) 0.830(2)
H11 H 0.6687(10) 0.6628(10) 0.629(2)
H12 H 0.6396(11) 0.8462(11) 0.817(2)
H13 H 0.6670(11) 0.8168(11) 0.636(2)
H14 H 0.5749(11) 0.8673(11) 0.643(2)
loop_
_geom_bond_atom_site_label_1
_geom_bond_atom_site_label_2
_geom_bond_site_symmetry_1
_geom_bond_site_symmetry_2
F1 C1 1_555 1_555
F2 C2 1_555 1_555
O1 C4 1_555 1_555
N1 C1 1_555 1_555
N2 C5 1_555 1_555
N3 C9 1_555 1_555
C1 C2 1_555 1_555
C2 C3 1_555 1_555
C3 C4 1_555 1_555
C4 C5 1_555 1_555
C5 N1 1_555 1_555
C6 O1 1_555 1_555
C7 N2 1_555 1_555
C8 N2 1_555 1_555
C9 C3 1_555 1_555
H1 C6 1_555 1_555
H2 C6 1_555 1_555
H3 C7 1_555 1_555
H4 C7 1_555 1_555
H5 C8 1_555 1_555
H6 C8 1_555 1_555
H7 C8 1_555 1_555
F3 C10 1_555 1_555
F4 C11 1_555 1_555
O2 C13 1_555 1_555
N4 C10 1_555 1_555
N5 C14 1_555 1_555
N6 C18 1_555 1_555
C10 C11 1_555 1_555
C11 C12 1_555 1_555
C12 C13 1_555 1_555
C13 C14 1_555 1_555
C14 N4 1_555 1_555
C15 O2 1_555 1_555
C16 N5 1_555 1_555
C17 N5 1_555 1_555
C18 C12 1_555 1_555
H8 C15 1_555 1_555
H9 C15 1_555 1_555
H10 C16 1_555 1_555
H11 C16 1_555 1_555
H12 C17 1_555 1_555
H13 C17 1_555 1_555
H14 C17 1_555 1_555
C6 C7 1_555 1_555
C15 C16 1_555 1_555

#END
