
#######################################################################
#
#                 Cambridge Crystallographic Data Centre
#                                CCDC 
#
#######################################################################
#
# If this CIF has been generated from an entry in the Cambridge 
# Structural Database, then it will include bibliographic, chemical, 
# crystal, experimental, refinement or atomic coordinate data resulting 
# from the CCDC's data processing and validation procedures.
#
#######################################################################

data_ZUFMAQ
_chemical_name_common            
'(2R,3S)-1-(4-chlorobenzoyl)-2-methy-5-benzyloxy-3-lindoline acetic acid'
_chemical_formula_moiety         'C25 H22 Cl1 N1 O4'
_chemical_name_systematic        
'(5-(benzyloxy)-1-(4-chlorobenzoyl)-2-methyl-2,3-dihydro-1H-indol-3-yl)acetic acid'
_symmetry_cell_setting           monoclinic
_symmetry_space_group_name_H-M   'P 21/n'
_symmetry_Int_Tables_number      14
_space_group_name_Hall           '-P 2yn'
loop_
_symmetry_equiv_pos_site_id
_symmetry_equiv_pos_as_xyz
1 x,y,z
2 1/2-x,1/2+y,1/2-z
3 -x,-y,-z
4 1/2+x,1/2-y,1/2+z
_cell_length_a                   13.422(3)
_cell_length_b                   9.035(2)
_cell_length_c                   18.220(4)
_cell_angle_alpha                90
_cell_angle_beta                 104.457(3)
_cell_angle_gamma                90
_cell_volume                     2139.54
_cell_formula_units_Z            4
loop_
_atom_site_label
_atom_site_type_symbol
_atom_site_fract_x
_atom_site_fract_y
_atom_site_fract_z
C1 C 0.3181(2) 0.5597(4) 0.34318(17)
C2 C 0.2901(2) 0.6307(4) 0.40200(19)
H1 H 0.3150 0.7249 0.4170
C3 C 0.2249(2) 0.5605(3) 0.43833(17)
H2 H 0.2063 0.6073 0.4784
C4 C 0.1864(2) 0.4198(3) 0.41570(15)
C5 C 0.2133(2) 0.3523(3) 0.35531(15)
H3 H 0.1865 0.2597 0.3389
C6 C 0.2797(2) 0.4210(4) 0.31906(16)
H4 H 0.2983 0.3746 0.2789
C7 C 0.1264(2) 0.3423(3) 0.46344(16)
C8 C -0.0541(2) 0.4939(3) 0.34494(16)
H5 H 0.0092 0.5475 0.3513
H6 H -0.0881 0.5247 0.3829
H7 H -0.0977 0.5135 0.2955
C9 C -0.0315(2) 0.3292(3) 0.35309(15)
H8 H 0.0060 0.2981 0.3160
C10 C -0.1313(2) 0.2355(3) 0.34299(15)
H9 H -0.1905 0.3024 0.3292
C11 C -0.1450(2) 0.1147(3) 0.28265(14)
H10 H -0.0804 0.0623 0.2885
H11 H -0.1958 0.0441 0.2904
C12 C -0.1785(2) 0.1754(4) 0.20315(17)
C13 C -0.1249(2) 0.1760(3) 0.42174(15)
C14 C -0.1991(2) 0.0963(3) 0.44575(15)
H12 H -0.2612 0.0716 0.4121
C15 C -0.1786(2) 0.0542(3) 0.52126(15)
C16 C -0.0851(2) 0.0914(3) 0.57093(15)
H13 H -0.0726 0.0628 0.6214
C17 C -0.0106(2) 0.1695(3) 0.54717(15)
H14 H 0.0520 0.1926 0.5807
C18 C -0.0319(2) 0.2130(3) 0.47117(15)
C19 C -0.3431(2) -0.0651(3) 0.50531(16)
H15 H -0.3344 -0.1370 0.4679
H16 H -0.3769 0.0216 0.4790
C20 C -0.4066(2) -0.1298(3) 0.55439(16)
C21 C -0.4697(3) -0.1227(4) 0.6672(2)
H17 H -0.4711 -0.0769 0.7126
C22 C -0.5243(3) -0.3151(4) 0.5778(2)
H18 H -0.5628 -0.4003 0.5625
C23 C -0.4650(2) -0.2575(3) 0.53228(19)
H19 H -0.4641 -0.3041 0.4869
C24 C -0.5274(3) -0.2489(5) 0.6447(2)
H20 H -0.5678 -0.2882 0.6746
C25 C -0.4095(2) -0.0638(4) 0.62236(18)
H21 H -0.3708 0.0209 0.6382
N1 N 0.03079(16) 0.2930(2) 0.43200(12)
O1 O 0.16770(15) 0.3238(2) 0.53185(11)
O2 O -0.19283(15) 0.0721(2) 0.14987(10)
O3 O -0.1923(3) 0.3049(3) 0.18940(12)
H22 H -0.2101 0.3170 0.1434
O4 O -0.24497(14) -0.0253(2) 0.55341(10)
Cl1 Cl 0.40898(7) 0.64151(11) 0.30275(5)
loop_
_geom_bond_atom_site_label_1
_geom_bond_atom_site_label_2
_geom_bond_site_symmetry_1
_geom_bond_site_symmetry_2
C1 C2 1_555 1_555
C2 H1 1_555 1_555
C3 C2 1_555 1_555
H2 C3 1_555 1_555
C4 C3 1_555 1_555
C5 C4 1_555 1_555
H3 C5 1_555 1_555
C6 C1 1_555 1_555
H4 C6 1_555 1_555
C7 C4 1_555 1_555
C8 H5 1_555 1_555
H6 C8 1_555 1_555
H7 C8 1_555 1_555
C9 C8 1_555 1_555
H8 C9 1_555 1_555
C10 C9 1_555 1_555
H9 C10 1_555 1_555
C11 C10 1_555 1_555
H10 C11 1_555 1_555
H11 C11 1_555 1_555
C12 C11 1_555 1_555
C13 C10 1_555 1_555
C14 C13 1_555 1_555
H12 C14 1_555 1_555
C15 C14 1_555 1_555
C16 C15 1_555 1_555
H13 C16 1_555 1_555
C17 C16 1_555 1_555
H14 C17 1_555 1_555
C18 C13 1_555 1_555
C19 H15 1_555 1_555
H16 C19 1_555 1_555
C20 C19 1_555 1_555
C21 H17 1_555 1_555
C22 H18 1_555 1_555
C23 C20 1_555 1_555
H19 C23 1_555 1_555
C24 C21 1_555 1_555
H20 C24 1_555 1_555
C25 C20 1_555 1_555
H21 C25 1_555 1_555
N1 C7 1_555 1_555
O1 C7 1_555 1_555
O2 C12 1_555 1_555
O3 C12 1_555 1_555
H22 O3 1_555 1_555
O4 C15 1_555 1_555
Cl1 C1 1_555 1_555
C5 C6 1_555 1_555
C9 N1 1_555 1_555
C17 C18 1_555 1_555
C18 N1 1_555 1_555
C19 O4 1_555 1_555
C21 C25 1_555 1_555
C22 C23 1_555 1_555
C22 C24 1_555 1_555

#END
