
#######################################################################
#
#                 Cambridge Crystallographic Data Centre
#                                CCDC 
#
#######################################################################
#
# If this CIF has been generated from an entry in the Cambridge 
# Structural Database, then it will include bibliographic, chemical, 
# crystal, experimental, refinement or atomic coordinate data resulting 
# from the CCDC's data processing and validation procedures.
#
#######################################################################

data_ZUFNEV
_chemical_compound_source        'Kadsura heteroclita'
_chemical_name_common            coumarinlignan
_chemical_formula_moiety         'C20 H16 O7'
_chemical_name_systematic        
7-(1-(1,3-benzodioxol-5-yl)-3-hydroxypropan-2-yl)-6H-[1,3]dioxolo[4,5-g]chromen-6-one
_symmetry_cell_setting           orthorhombic
_symmetry_space_group_name_H-M   'P 21 21 21'
_symmetry_Int_Tables_number      19
_space_group_name_Hall           'P 2ac 2ab'
loop_
_symmetry_equiv_pos_site_id
_symmetry_equiv_pos_as_xyz
1 x,y,z
2 1/2+x,1/2-y,-z
3 -x,1/2+y,1/2-z
4 1/2-x,-y,1/2+z
_cell_length_a                   6.65710(10)
_cell_length_b                   6.91650(10)
_cell_length_c                   35.0502(4)
_cell_angle_alpha                90
_cell_angle_beta                 90
_cell_angle_gamma                90
_cell_volume                     1613.85
_exptl_crystal_colour            colorless
_exptl_crystal_description       block
_cell_formula_units_Z            4
_chemical_properties_physical    Heat-sensitive
loop_
_atom_site_label
_atom_site_type_symbol
_atom_site_fract_x
_atom_site_fract_y
_atom_site_fract_z
O1 O 1.14479(18) 0.8456(2) 0.77773(3)
O2 O 0.86542(19) 0.8570(2) 0.65156(3)
O3 O 0.5379(2) 0.8327(2) 0.67337(3)
O4 O 1.27772(19) 0.8426(3) 0.83526(4)
O5 O 0.7092(2) 1.0959(2) 0.88163(4)
H1 H 0.7202 1.1221 0.8583
O6 O 0.7510(2) 0.4596(2) 1.04163(4)
O7 O 1.0194(2) 0.3687(2) 1.00378(4)
C1 C 0.9837(3) 0.8414(3) 0.75334(5)
C2 C 1.0283(3) 0.8509(3) 0.71438(5)
H2 H 1.1620 0.8606 0.7051
C3 C 0.8652(3) 0.8453(3) 0.69052(5)
C4 C 0.6686(3) 0.8316(3) 0.70374(5)
C5 C 0.6244(3) 0.8232(3) 0.74177(5)
H3 H 0.4898 0.8142 0.7506
C6 C 0.7889(3) 0.8285(3) 0.76739(5)
C7 C 0.7635(3) 0.8142(3) 0.80804(5)
H4 H 0.6316 0.8048 0.8182
C8 C 0.9214(3) 0.8138(3) 0.83221(5)
C9 C 1.1240(3) 0.8347(3) 0.81698(5)
C10 C 0.6620(3) 0.8211(4) 0.63998(5)
H5 H 0.6190 0.9186 0.6210
H6 H 0.6508 0.6913 0.6283
C11 C 0.7251(3) 0.6070(3) 0.92796(5)
C12 C 0.8856(3) 0.5008(3) 0.94364(5)
H7 H 0.9951 0.4592 0.9283
C13 C 0.8776(3) 0.4599(3) 0.98176(5)
C14 C 0.7169(3) 0.5151(3) 1.00447(5)
C15 C 0.5578(3) 0.6157(3) 0.99015(6)
H8 H 0.4475 0.6526 1.0057
C16 C 0.5659(3) 0.6624(3) 0.95083(5)
H9 H 0.4587 0.7339 0.9398
C17 C 0.7282(3) 0.6587(3) 0.88602(5)
H10 H 0.5996 0.7219 0.8793
H11 H 0.7390 0.5385 0.8708
C18 C 0.9027(3) 0.7944(3) 0.87518(5)
H12 H 1.0297 0.7343 0.8848
C19 C 0.8829(3) 0.9933(3) 0.89400(5)
H13 H 0.8768 0.9767 0.9220
H14 H 1.0039 1.0709 0.8880
C20 C 0.9224(3) 0.3356(3) 1.03977(6)
H15 H 0.8803 0.1987 1.0419
H16 H 1.0158 0.3647 1.0610
loop_
_geom_bond_atom_site_label_1
_geom_bond_atom_site_label_2
_geom_bond_site_symmetry_1
_geom_bond_site_symmetry_2
O1 C1 1_555 1_555
O2 C3 1_555 1_555
O3 C4 1_555 1_555
O4 C9 1_555 1_555
O5 H1 1_555 1_555
O6 C14 1_555 1_555
O7 C13 1_555 1_555
C1 C2 1_555 1_555
C2 H2 1_555 1_555
C3 C2 1_555 1_555
C4 C3 1_555 1_555
C5 C4 1_555 1_555
H3 C5 1_555 1_555
C6 C1 1_555 1_555
C7 C6 1_555 1_555
H4 C7 1_555 1_555
C8 C7 1_555 1_555
C9 O1 1_555 1_555
C10 O2 1_555 1_555
H5 C10 1_555 1_555
H6 C10 1_555 1_555
C11 C12 1_555 1_555
C12 H7 1_555 1_555
C13 C12 1_555 1_555
C14 C13 1_555 1_555
C15 C14 1_555 1_555
H8 C15 1_555 1_555
C16 C11 1_555 1_555
H9 C16 1_555 1_555
C17 C11 1_555 1_555
H10 C17 1_555 1_555
H11 C17 1_555 1_555
C18 C8 1_555 1_555
H12 C18 1_555 1_555
C19 O5 1_555 1_555
H13 C19 1_555 1_555
H14 C19 1_555 1_555
C20 O6 1_555 1_555
H15 C20 1_555 1_555
H16 C20 1_555 1_555
O3 C10 1_555 1_555
O7 C20 1_555 1_555
C5 C6 1_555 1_555
C8 C9 1_555 1_555
C15 C16 1_555 1_555
C17 C18 1_555 1_555
C18 C19 1_555 1_555

#END
