
#######################################################################
#
#                 Cambridge Crystallographic Data Centre
#                                CCDC 
#
#######################################################################
#
# If this CIF has been generated from an entry in the Cambridge 
# Structural Database, then it will include bibliographic, chemical, 
# crystal, experimental, refinement or atomic coordinate data resulting 
# from the CCDC's data processing and validation procedures.
#
#######################################################################

data_ZUFREX
_chemical_formula_moiety         'C8 H6 Cl2 S4'
_chemical_name_systematic        2,3-Dichloro-6,7-dimethyltetrathiafulvalene
_symmetry_cell_setting           triclinic
_symmetry_space_group_name_H-M   'P -1'
_symmetry_Int_Tables_number      2
_space_group_name_Hall           '-P 1'
loop_
_symmetry_equiv_pos_site_id
_symmetry_equiv_pos_as_xyz
1 x,y,z
2 -x,-y,-z
_cell_length_a                   6.095(2)
_cell_length_b                   6.690(2)
_cell_length_c                   7.751(2)
_cell_angle_alpha                86.49(3)
_cell_angle_beta                 74.34(3)
_cell_angle_gamma                73.08(3)
_cell_volume                     291.095
_exptl_crystal_colour            pink
_chemical_melting_point          166.1deg.C
_cell_formula_units_Z            1
loop_
_atom_site_label
_atom_site_type_symbol
_atom_site_fract_x
_atom_site_fract_y
_atom_site_fract_z
S1 S 0.1724(4) 0.7502(3) 0.6054(4)
S2 S 0.3023(4) 0.2945(4) 0.6560(4)
C1 C 0.3906(10) 0.5081(9) 0.5546(9)
C2 C -0.0473(10) 0.6419(10) 0.7358(9)
C3 C 0.0112(10) 0.4403(10) 0.7588(9)
Cl1 Cl -0.3110(7) 0.8115(6) 0.8235(6)
C5 C -0.1668(7) 0.3085(6) 0.8831(6)
C1A C 0.6094(10) 0.4919(9) 0.4454(9)
S1A S 0.8276(4) 0.2498(3) 0.3946(4)
S2A S 0.6977(4) 0.7055(4) 0.3440(4)
C2A C 1.0473(10) 0.3581(10) 0.2642(9)
C3A C 0.9888(10) 0.5597(10) 0.2412(9)
Cl1A Cl 1.3110(7) 0.1885(6) 0.1765(6)
C5A C 1.1668(7) 0.6915(6) 0.1169(6)
Cl2? Cl -0.1668(7) 0.3085(6) 0.8831(6)
C4? C -0.3110(7) 0.8115(6) 0.8235(6)
loop_
_geom_bond_atom_site_label_1
_geom_bond_atom_site_label_2
_geom_bond_site_symmetry_1
_geom_bond_site_symmetry_2
S1 C1 1_555 1_555
S2 C1 1_555 1_555
C1 C1A 1_555 1_555
C2 S1 1_555 1_555
C3 S2 1_555 1_555
Cl1 C2 1_555 1_555
C5 C3 1_555 1_555
C1A S1A 1_555 1_555
S1A C2A 1_555 1_555
S2A C1A 1_555 1_555
C2A C3A 1_555 1_555
C3A S2A 1_555 1_555
Cl1A C2A 1_555 1_555
C5A C3A 1_555 1_555
C2 C3 1_555 1_555

#END
