
#######################################################################
#
#                 Cambridge Crystallographic Data Centre
#                                CCDC 
#
#######################################################################
#
# If this CIF has been generated from an entry in the Cambridge 
# Structural Database, then it will include bibliographic, chemical, 
# crystal, experimental, refinement or atomic coordinate data resulting 
# from the CCDC's data processing and validation procedures.
#
#######################################################################

data_ZUFRIB
_chemical_formula_moiety         'C6 Cl4 S4'
_chemical_name_systematic        Tetrachlorotetrathiafulvalene
_symmetry_cell_setting           monoclinic
_symmetry_space_group_name_H-M   'P 21/c'
_symmetry_Int_Tables_number      14
_space_group_name_Hall           '-P 2ybc'
loop_
_symmetry_equiv_pos_site_id
_symmetry_equiv_pos_as_xyz
1 x,y,z
2 -x,1/2+y,1/2-z
3 -x,-y,-z
4 x,1/2-y,1/2+z
_cell_length_a                   24.540(5)
_cell_length_b                   3.920(4)
_cell_length_c                   11.740(2)
_cell_angle_alpha                90
_cell_angle_beta                 103.44(3)
_cell_angle_gamma                90
_cell_volume                     1098.42
_exptl_crystal_colour            pink
_chemical_melting_point          214deg.C
_cell_formula_units_Z            4
_chemical_properties_physical    'Crystals quickly sublime and decompose in air'
loop_
_atom_site_label
_atom_site_type_symbol
_atom_site_fract_x
_atom_site_fract_y
_atom_site_fract_z
Cl1 Cl 0.3307(2) 0.6928(15) 0.1344(3)
Cl2 Cl 0.3001(1) 0.3067(16) -0.1228(3)
S1 S 0.4488(1) 0.6666(15) 0.1210(3)
S2 S 0.4211(1) 0.3156(14) -0.1135(3)
C1 C 0.3781(6) 0.5688(47) 0.0554(13)
C2 C 0.3670(6) 0.4195(51) -0.0479(13)
C3 C 0.4723(5) 0.4961(48) 0.0020(13)
C3B C 0.5277(5) 0.5039(48) -0.0020(13)
S1B S 0.5512(1) 0.3334(15) -0.1210(3)
S2B S 0.5789(1) 0.6844(14) 0.1135(3)
C1B C 0.6219(6) 0.4312(47) -0.0554(13)
C2B C 0.6330(6) 0.5805(51) 0.0479(13)
Cl1B Cl 0.6693(2) 0.3072(15) -0.1344(3)
Cl2B Cl 0.6999(1) 0.6933(16) 0.1228(3)
Cl3 Cl 0.2001(2) 0.3161(16) -0.4280(3)
Cl4 Cl 0.1688(2) 0.7091(15) -0.2013(3)
S3 S 0.0793(1) 0.3189(14) -0.5361(3)
S4 S 0.0509(1) 0.6754(15) -0.3297(3)
C4 C 0.1220(6) 0.5932(58) -0.3275(14)
C5 C 0.1339(6) 0.4278(50) -0.4166(13)
C6 C 0.0276(6) 0.4958(49) -0.4705(13)
C6B C -0.0276(6) 0.5042(49) -0.5295(13)
S3B S -0.0793(1) 0.6811(14) -0.4639(3)
S4B S -0.0509(1) 0.3246(15) -0.6703(3)
C5B C -0.1339(6) 0.5722(50) -0.5834(13)
C4B C -0.1220(6) 0.4068(58) -0.6725(14)
Cl3B Cl -0.2001(2) 0.6839(16) -0.5720(3)
Cl4B Cl -0.1688(2) 0.2909(15) -0.7987(3)
loop_
_geom_bond_atom_site_label_1
_geom_bond_atom_site_label_2
_geom_bond_site_symmetry_1
_geom_bond_site_symmetry_2
Cl1 C1 1_555 1_555
Cl2 C2 1_555 1_555
S1 C1 1_555 1_555
S2 C2 1_555 1_555
C1 C2 1_555 1_555
C3 S1 1_555 1_555
Cl3 C5 1_555 1_555
Cl4 C4 1_555 1_555
S3 C5 1_555 1_555
S4 C4 1_555 1_555
C4 C5 1_555 1_555
C6 S3 1_555 1_555
C3B C3 1_555 1_555
S1B C3B 1_555 1_555
S2B C3B 1_555 1_555
C1B S1B 1_555 1_555
C2B S2B 1_555 1_555
Cl1B C1B 1_555 1_555
Cl2B C2B 1_555 1_555
C6B C6 1_555 1_555
S3B C6B 1_555 1_555
S4B C6B 1_555 1_555
C5B S3B 1_555 1_555
C4B S4B 1_555 1_555
Cl3B C5B 1_555 1_555
Cl4B C4B 1_555 1_555
S2 C3 1_555 1_555
S4 C6 1_555 1_555
C1B C2B 1_555 1_555
C5B C4B 1_555 1_555

#END
