
#######################################################################
#
#                 Cambridge Crystallographic Data Centre
#                                CCDC 
#
#######################################################################
#
# If this CIF has been generated from an entry in the Cambridge 
# Structural Database, then it will include bibliographic, chemical, 
# crystal, experimental, refinement or atomic coordinate data resulting 
# from the CCDC's data processing and validation procedures.
#
#######################################################################

data_ZUFVED
_chemical_formula_moiety         'C17 H10 F2 N2 O3 S1'
_chemical_name_systematic        
2,3-difluoro-4-(phenylsulfonyl)-5H-pyrido[2,3-b][1,4]benzoxazine
_symmetry_cell_setting           triclinic
_symmetry_space_group_name_H-M   'P -1'
_symmetry_Int_Tables_number      2
_space_group_name_Hall           '-P 1'
loop_
_symmetry_equiv_pos_site_id
_symmetry_equiv_pos_as_xyz
1 x,y,z
2 -x,-y,-z
_cell_length_a                   5.1225(7)
_cell_length_b                   11.1001(17)
_cell_length_c                   13.6786(19)
_cell_angle_alpha                99.733(6)
_cell_angle_beta                 100.341(6)
_cell_angle_gamma                102.043(6)
_cell_volume                     730.855
_exptl_crystal_colour            'light yellow'
_exptl_crystal_description       plate
_cell_formula_units_Z            2
loop_
_atom_site_label
_atom_site_type_symbol
_atom_site_fract_x
_atom_site_fract_y
_atom_site_fract_z
S1 S 1.26484(8) 0.19778(4) 0.84412(3)
O1 O 0.3243(2) 0.02644(11) 0.58518(9)
O2 O 1.5051(2) 0.29474(11) 0.84988(9)
O3 O 1.2839(2) 0.06823(11) 0.82897(9)
F1 F 0.7161(2) 0.44242(9) 0.64142(8)
F2 F 1.1707(2) 0.42807(9) 0.76929(8)
N1 N 0.5340(3) 0.23219(13) 0.61616(10)
N2 N 0.7706(3) -0.02191(13) 0.70935(11)
C1 C 0.7416(3) 0.33012(15) 0.66023(12)
C2 C 0.9723(3) 0.32272(15) 0.72452(12)
C3 C 0.9938(3) 0.20542(15) 0.74544(11)
C4 C 0.7791(3) 0.09851(14) 0.69731(11)
C5 C 0.5515(3) 0.12138(15) 0.63334(12)
C6 C 0.5382(3) -0.12082(15) 0.66189(12)
C7 C 0.5236(3) -0.24380(16) 0.67279(13)
C8 C 0.2882(4) -0.33900(17) 0.62446(13)
C9 C 0.0674(3) -0.31108(16) 0.56595(13)
C10 C 0.0803(3) -0.18841(16) 0.55420(12)
C11 C 0.3161(3) -0.09497(15) 0.60149(12)
C12 C 1.1361(3) 0.23418(15) 0.95365(12)
C13 C 1.2279(5) 0.35460(19) 1.01315(17)
C14 C 1.1225(5) 0.3866(2) 1.09716(18)
C15 C 0.9234(4) 0.29867(19) 1.12071(14)
C16 C 0.8300(4) 0.17788(18) 1.06074(14)
C17 C 0.9367(4) 0.14463(17) 0.97640(13)
H1 H 0.909(5) -0.0406(19) 0.7382(16)
H2 H 0.681(4) -0.2644(18) 0.7161(15)
H3 H 0.281(4) -0.4201(19) 0.6321(15)
H4 H -0.104(4) -0.376(2) 0.5350(16)
H5 H -0.075(4) -0.1667(17) 0.5149(14)
H6 H 1.191(6) 0.463(3) 1.142(2)
H7 H 1.367(6) 0.408(3) 1.000(2)
H8 H 0.853(4) 0.3185(19) 1.1783(17)
H9 H 0.693(5) 0.116(2) 1.0750(19)
H10 H 0.876(4) 0.063(2) 0.9352(17)
loop_
_geom_bond_atom_site_label_1
_geom_bond_atom_site_label_2
_geom_bond_site_symmetry_1
_geom_bond_site_symmetry_2
S1 O2 1_555 1_555
O1 C5 1_555 1_555
O3 S1 1_555 1_555
F1 C1 1_555 1_555
F2 C2 1_555 1_555
N1 C1 1_555 1_555
N2 C4 1_555 1_555
C1 C2 1_555 1_555
C2 C3 1_555 1_555
C3 S1 1_555 1_555
C4 C3 1_555 1_555
C5 N1 1_555 1_555
C6 N2 1_555 1_555
C7 C6 1_555 1_555
C8 C7 1_555 1_555
C9 C8 1_555 1_555
C10 C9 1_555 1_555
C11 O1 1_555 1_555
C12 S1 1_555 1_555
C13 C12 1_555 1_555
C14 C13 1_555 1_555
C15 C14 1_555 1_555
C16 C15 1_555 1_555
C17 C12 1_555 1_555
H1 N2 1_555 1_555
H2 C7 1_555 1_555
H3 C8 1_555 1_555
H4 C9 1_555 1_555
H5 C10 1_555 1_555
H6 C14 1_555 1_555
H7 C13 1_555 1_555
H8 C15 1_555 1_555
H9 C16 1_555 1_555
H10 C17 1_555 1_555
C4 C5 1_555 1_555
C6 C11 1_555 1_555
C10 C11 1_555 1_555
C16 C17 1_555 1_555

#END
