
#######################################################################
#
#                 Cambridge Crystallographic Data Centre
#                                CCDC 
#
#######################################################################
#
# If this CIF has been generated from an entry in the Cambridge 
# Structural Database, then it will include bibliographic, chemical, 
# crystal, experimental, refinement or atomic coordinate data resulting 
# from the CCDC's data processing and validation procedures.
#
#######################################################################

data_ZUFVAZ
_chemical_formula_moiety         'C14 H12 F2 N2 O3 S1'
_chemical_name_systematic        
6,7-difluoro-4-methyl-8-(phenylsulfonyl)-3,4-dihydro-2H-pyrido[3,2-b][1,4]oxazine
_symmetry_cell_setting           triclinic
_symmetry_space_group_name_H-M   'P -1'
_symmetry_Int_Tables_number      2
_space_group_name_Hall           '-P 1'
loop_
_symmetry_equiv_pos_site_id
_symmetry_equiv_pos_as_xyz
1 x,y,z
2 -x,-y,-z
_cell_length_a                   7.5733(1)
_cell_length_b                   9.2075(1)
_cell_length_c                   10.7750(2)
_cell_angle_alpha                84.59(1)
_cell_angle_beta                 76.49(1)
_cell_angle_gamma                67.47(1)
_cell_volume                     674.796
_exptl_crystal_colour            'light green yellow'
_exptl_crystal_description       wedge
_cell_formula_units_Z            2
loop_
_atom_site_label
_atom_site_type_symbol
_atom_site_fract_x
_atom_site_fract_y
_atom_site_fract_z
S1 S 0.14500(4) 0.22709(3) 0.68927(3)
F1 F -0.09029(14) 0.23096(10) 1.17762(8)
F2 F 0.15381(12) 0.08628(9) 0.96583(8)
O1 O -0.15671(13) 0.54611(10) 0.73234(8)
O2 O 0.22206(13) 0.33679(11) 0.61688(9)
O3 O 0.27793(13) 0.07227(11) 0.71329(9)
N1 N -0.23908(16) 0.44895(12) 1.07069(10)
N2 N -0.39783(16) 0.67744(12) 0.96630(10)
C1 C -0.1042(2) 0.30691(15) 1.06526(12)
C2 C 0.02102(18) 0.23243(13) 0.95651(12)
C3 C 0.00431(17) 0.31328(13) 0.84040(11)
C4 C -0.13676(17) 0.46425(13) 0.84303(11)
C5 C -0.25836(17) 0.53032(14) 0.96215(11)
C6 C -0.51302(19) 0.75302(15) 1.08710(12)
H1 H -0.4900 0.6760 1.1566
H2 H -0.6523 0.7948 1.0847
H3 H -0.4744 0.8392 1.1014
C7 C -0.4095(2) 0.77053(15) 0.84952(13)
C8 C -0.3508(2) 0.66314(16) 0.73753(13)
C9 C -0.03425(17) 0.21061(13) 0.61957(11)
C10 C -0.10503(19) 0.31786(15) 0.52629(12)
C11 C -0.2487(2) 0.30392(16) 0.47337(13)
C12 C -0.31941(19) 0.18539(17) 0.51484(13)
C13 C -0.24764(19) 0.07924(16) 0.60831(13)
C14 C -0.10350(18) 0.09046(14) 0.66180(12)
H4 H -0.322(3) 0.831(2) 0.8349(17)
H5 H -0.539(3) 0.838(2) 0.8571(19)
H6 H -0.443(3) 0.6110(19) 0.7438(17)
H7 H -0.343(3) 0.723(2) 0.6566(18)
H8 H -0.054(3) 0.397(2) 0.4968(18)
H9 H -0.295(3) 0.378(2) 0.4080(19)
H10 H -0.418(3) 0.174(2) 0.4807(18)
H11 H -0.296(3) -0.004(2) 0.6350(18)
H12 H -0.054(3) 0.018(2) 0.7264(18)
loop_
_geom_bond_atom_site_label_1
_geom_bond_atom_site_label_2
_geom_bond_site_symmetry_1
_geom_bond_site_symmetry_2
S1 O2 1_555 1_555
F1 C1 1_555 1_555
F2 C2 1_555 1_555
O1 C4 1_555 1_555
O3 S1 1_555 1_555
N1 C1 1_555 1_555
N2 C5 1_555 1_555
C1 C2 1_555 1_555
C2 C3 1_555 1_555
C3 S1 1_555 1_555
C4 C3 1_555 1_555
C5 N1 1_555 1_555
C6 N2 1_555 1_555
H1 C6 1_555 1_555
H2 C6 1_555 1_555
H3 C6 1_555 1_555
C7 N2 1_555 1_555
C8 O1 1_555 1_555
C9 S1 1_555 1_555
C10 C9 1_555 1_555
C11 C10 1_555 1_555
C12 C11 1_555 1_555
C13 C12 1_555 1_555
C14 C9 1_555 1_555
H4 C7 1_555 1_555
H5 C7 1_555 1_555
H6 C8 1_555 1_555
H7 C8 1_555 1_555
H8 C10 1_555 1_555
H9 C11 1_555 1_555
H10 C12 1_555 1_555
H11 C13 1_555 1_555
H12 C14 1_555 1_555
C4 C5 1_555 1_555
C7 C8 1_555 1_555
C13 C14 1_555 1_555

#END
