
#######################################################################
#
#                 Cambridge Crystallographic Data Centre
#                                CCDC 
#
#######################################################################
#
# If this CIF has been generated from an entry in the Cambridge 
# Structural Database, then it will include bibliographic, chemical, 
# crystal, experimental, refinement or atomic coordinate data resulting 
# from the CCDC's data processing and validation procedures.
#
#######################################################################

data_ZUGLUK
_chemical_formula_moiety         'C50 H40 N2,C1 H2 Cl2'
_chemical_name_systematic        
"4,4'-(1-(2,3,4,5-Tetraphenylcyclopenta-2,4-dien-1-ylidene)penta-1,2-dien-4-yne-3,5-diyl)bis(N,N-dimethylaniline) dichloromethane solvate"
_symmetry_cell_setting           triclinic
_symmetry_space_group_name_H-M   'P -1'
_symmetry_Int_Tables_number      2
_space_group_name_Hall           '-P 1'
loop_
_symmetry_equiv_pos_site_id
_symmetry_equiv_pos_as_xyz
1 x,y,z
2 -x,-y,-z
_cell_length_a                   10.5547(15)
_cell_length_b                   11.9452(16)
_cell_length_c                   17.833(2)
_cell_angle_alpha                75.091(4)
_cell_angle_beta                 76.590(5)
_cell_angle_gamma                65.991(4)
_cell_volume                     1963.96
_exptl_crystal_colour            black
_exptl_crystal_description       prism
_cell_formula_units_Z            2
loop_
_atom_site_label
_atom_site_type_symbol
_atom_site_fract_x
_atom_site_fract_y
_atom_site_fract_z
Cl1 Cl 0.31784(6) 0.94873(5) 0.22007(3)
Cl2 Cl 0.1833(2) 0.97487(15) 0.08856(10)
C1 C 0.2306(6) 0.8859(3) 0.1786(3)
H1 H 0.2927 0.7999 0.1717
H2 H 0.1454 0.8818 0.2150
C3 C 0.52634(15) 0.73877(13) 0.81501(8)
N1 N 0.13332(14) 1.26792(12) 0.40812(7)
C4 C 0.50403(15) 0.74789(13) 0.61143(8)
C5 C 0.33136(15) 1.00494(13) 0.54753(8)
H5 H 0.3529 0.9886 0.5990
C6 C 0.56655(14) 0.66744(13) 0.75239(8)
C7 C 0.38644(15) 0.90730(13) 0.50442(8)
C8 C 0.26394(16) 1.05188(14) 0.39874(8)
H6 H 0.2391 1.0668 0.3482
N2 N 0.84534(15) 0.26084(12) 0.24860(8)
C9 C 0.58274(15) 0.60916(14) 1.01945(8)
H7 H 0.5789 0.5325 1.0163
C10 C 0.65969(16) 0.42210(13) 0.68861(8)
H8 H 0.5617 0.4683 0.6919
C11 C 0.61121(16) 0.62242(14) 0.44133(9)
C12 C 0.21233(15) 1.15093(13) 0.44099(8)
C13 C 0.72645(16) 0.40492(14) 0.42394(9)
H9 H 0.7210 0.3795 0.4793
C14 C 1.02559(16) 0.39729(14) 0.94095(9)
H10 H 1.1003 0.4195 0.9449
C15 C 0.24752(16) 1.12272(13) 0.51690(8)
H11 H 0.2125 1.1864 0.5474
C16 C 0.42109(15) 0.86599(13) 0.81301(8)
C17 C 0.52953(15) 0.71056(13) 0.67935(8)
C18 C 0.32484(18) 1.07920(14) 0.74599(9)
H12 H 0.3279 1.1417 0.7010
C19 C 0.59710(14) 0.69372(13) 0.95087(8)
C20 C 0.79262(15) 0.34899(14) 0.29538(9)
C21 C 0.34908(16) 0.93505(14) 0.42978(8)
H13 H 0.3838 0.8710 0.3996
C22 C 0.60502(16) 0.80500(13) 0.95687(9)
H14 H 0.6145 0.8640 0.9108
C23 C 0.67830(16) 0.53207(14) 0.39173(8)
C24 C 0.60267(15) 0.66476(13) 0.87420(8)
C25 C 0.80889(15) 0.33213(13) 0.92770(8)
H15 H 0.7355 0.3087 0.9231
C26 C 0.78146(16) 0.31594(14) 0.37737(9)
H16 H 0.8126 0.2303 0.4011
C27 C 0.55056(16) 0.69541(13) 0.48514(8)
C28 C 0.21823(17) 1.01687(15) 0.87471(9)
H17 H 0.1478 1.0365 0.9186
C29 C 0.73942(16) 0.44756(13) 0.73011(8)
C30 C 0.47943(15) 0.78442(13) 0.53545(8)
C31 C 0.69501(15) 0.54551(13) 0.85027(8)
C32 C 0.57406(16) 0.63537(15) 1.09224(9)
H18 H 0.5616 0.5779 1.1386
C33 C 0.59916(17) 0.82975(14) 1.03001(9)
H19 H 0.6060 0.9051 1.0335
C34 C 0.75040(16) 0.47686(14) 0.26295(9)
H20 H 0.7610 0.5025 0.2076
C35 C 0.67069(15) 0.54551(13) 0.77793(8)
C36 C 0.09143(18) 1.37205(14) 0.44804(10)
H21 H 0.0409 1.3539 0.5003
H22 H 0.0302 1.4476 0.4177
H23 H 0.1749 1.3849 0.4530
C37 C 0.11475(17) 1.29495(15) 0.32657(9)
H24 H 0.2060 1.2809 0.2934
H25 H 0.0528 1.3821 0.3128
H26 H 0.0729 1.2401 0.3183
C38 C 0.80676(15) 0.45146(13) 0.89443(8)
C39 C 0.88354(16) 0.37861(13) 0.72385(8)
H27 H 0.9396 0.3941 0.7516
C40 C 0.72147(18) 0.33068(14) 0.64298(9)
H28 H 0.6655 0.3138 0.6158
C41 C 0.31630(16) 0.89685(14) 0.87657(8)
H29 H 0.3123 0.8347 0.9217
C42 C 0.22197(17) 1.10869(14) 0.80935(9)
H30 H 0.1544 1.1911 0.8082
C43 C 0.42349(16) 0.95942(13) 0.74746(8)
H31 H 0.4937 0.9405 0.7034
C44 C 0.69400(16) 0.56561(14) 0.31008(9)
H32 H 0.6652 0.6514 0.2866
C45 C 0.94561(17) 0.28749(14) 0.67728(9)
H33 H 1.0437 0.2415 0.6733
C46 C 0.91575(16) 0.48337(14) 0.90230(9)
H34 H 0.9145 0.5653 0.8808
C47 C 0.86476(18) 0.26346(14) 0.63665(9)
H35 H 0.9073 0.2014 0.6047
C48 C 1.02644(16) 0.27925(14) 0.97365(8)
H36 H 1.1017 0.2199 1.0003
C49 C 0.87504(19) 0.13024(14) 0.28293(10)
H37 H 0.9543 0.0990 0.3122
H38 H 0.8985 0.0824 0.2412
H39 H 0.7924 0.1212 0.3185
C50 C 0.58354(17) 0.74585(15) 1.09731(9)
H40 H 0.5793 0.7634 1.1471
C51 C 0.8424(2) 0.29692(17) 0.16496(9)
H41 H 0.7450 0.3386 0.1549
H42 H 0.8877 0.2226 0.1407
H43 H 0.8926 0.3540 0.1425
C52 C 0.91806(16) 0.24722(13) 0.96767(8)
H44 H 0.9182 0.1662 0.9912
C2? C 0.253(3) 0.8788(12) 0.1697(16)
H3? H 0.3320 0.8275 0.1356
H4? H 0.2111 0.8228 0.2082
Cl3? Cl 0.1274(15) 0.9900(6) 0.1125(7)
loop_
_geom_bond_atom_site_label_1
_geom_bond_atom_site_label_2
_geom_bond_site_symmetry_1
_geom_bond_site_symmetry_2
Cl1 C1 1_555 1_555
Cl2 C1 1_555 1_555
C1 H1 1_555 1_555
H2 C1 1_555 1_555
C3 C6 1_555 1_555
N1 C12 1_555 1_555
C4 C17 1_555 1_555
C5 H5 1_555 1_555
C6 C17 1_555 1_555
C7 C5 1_555 1_555
C8 H6 1_555 1_555
N2 C20 1_555 1_555
C9 H7 1_555 1_555
C10 H8 1_555 1_555
C11 C23 1_555 1_555
C12 C8 1_555 1_555
C13 H9 1_555 1_555
C14 H10 1_555 1_555
C15 C5 1_555 1_555
H11 C15 1_555 1_555
C16 C3 1_555 1_555
C18 H12 1_555 1_555
C19 C9 1_555 1_555
C20 C26 1_555 1_555
C21 C7 1_555 1_555
H13 C21 1_555 1_555
C22 C19 1_555 1_555
H14 C22 1_555 1_555
C23 C13 1_555 1_555
C24 C3 1_555 1_555
C25 H15 1_555 1_555
C26 C13 1_555 1_555
H16 C26 1_555 1_555
C27 C11 1_555 1_555
C28 H17 1_555 1_555
C29 C10 1_555 1_555
C30 C4 1_555 1_555
C31 C24 1_555 1_555
C32 C9 1_555 1_555
H18 C32 1_555 1_555
C33 C22 1_555 1_555
H19 C33 1_555 1_555
C34 C20 1_555 1_555
H20 C34 1_555 1_555
C35 C6 1_555 1_555
C36 N1 1_555 1_555
H21 C36 1_555 1_555
H22 C36 1_555 1_555
H23 C36 1_555 1_555
C37 N1 1_555 1_555
H24 C37 1_555 1_555
H25 C37 1_555 1_555
H26 C37 1_555 1_555
C38 C25 1_555 1_555
C39 C29 1_555 1_555
H27 C39 1_555 1_555
C40 C10 1_555 1_555
H28 C40 1_555 1_555
C41 C16 1_555 1_555
H29 C41 1_555 1_555
C42 C18 1_555 1_555
H30 C42 1_555 1_555
C43 C16 1_555 1_555
H31 C43 1_555 1_555
C44 C23 1_555 1_555
H32 C44 1_555 1_555
C45 C39 1_555 1_555
H33 C45 1_555 1_555
C46 C14 1_555 1_555
H34 C46 1_555 1_555
C47 C40 1_555 1_555
H35 C47 1_555 1_555
C48 C14 1_555 1_555
H36 C48 1_555 1_555
C49 N2 1_555 1_555
H37 C49 1_555 1_555
H38 C49 1_555 1_555
H39 C49 1_555 1_555
C50 C32 1_555 1_555
H40 C50 1_555 1_555
C51 N2 1_555 1_555
H41 C51 1_555 1_555
H42 C51 1_555 1_555
H43 C51 1_555 1_555
C52 C25 1_555 1_555
H44 C52 1_555 1_555
C7 C30 1_555 1_555
C8 C21 1_555 1_555
C12 C15 1_555 1_555
C18 C43 1_555 1_555
C19 C24 1_555 1_555
C27 C30 1_555 1_555
C28 C41 1_555 1_555
C28 C42 1_555 1_555
C29 C35 1_555 1_555
C31 C35 1_555 1_555
C31 C38 1_555 1_555
C33 C50 1_555 1_555
C34 C44 1_555 1_555
C38 C46 1_555 1_555
C45 C47 1_555 1_555
C48 C52 1_555 1_555

#END
