
#######################################################################
#
#                 Cambridge Crystallographic Data Centre
#                                CCDC 
#
#######################################################################
#
# If this CIF has been generated from an entry in the Cambridge 
# Structural Database, then it will include bibliographic, chemical, 
# crystal, experimental, refinement or atomic coordinate data resulting 
# from the CCDC's data processing and validation procedures.
#
#######################################################################

data_ZUGPOJ
_chemical_formula_moiety         'C7 H3 N3 O4'
_chemical_name_systematic        2,6-Dinitrobenzonitrile
_symmetry_cell_setting           orthorhombic
_symmetry_space_group_name_H-M   'P b c n'
_symmetry_Int_Tables_number      60
_space_group_name_Hall           '-P 2n 2ab'
loop_
_symmetry_equiv_pos_site_id
_symmetry_equiv_pos_as_xyz
1 x,y,z
2 1/2-x,1/2-y,1/2+z
3 1/2+x,1/2-y,-z
4 -x,y,1/2-z
5 -x,-y,-z
6 1/2+x,1/2+y,1/2-z
7 1/2-x,1/2+y,z
8 x,-y,1/2+z
_cell_length_a                   13.081(6)
_cell_length_b                   9.027(4)
_cell_length_c                   6.545(3)
_cell_angle_alpha                90
_cell_angle_beta                 90
_cell_angle_gamma                90
_cell_volume                     772.848
_exptl_crystal_colour            yellow
_cell_formula_units_Z            4
loop_
_atom_site_label
_atom_site_type_symbol
_atom_site_fract_x
_atom_site_fract_y
_atom_site_fract_z
O1 O 0.3163(1) 0.0250(1) 0.0799(2)
O2 O 0.2360(1) 0.1952(1) 0.2460(2)
N1 N 0.5000 -0.1532(2) 0.2500
N2 N 0.3137(1) 0.1392(1) 0.1797(2)
C1 C 0.5000 0.1330(2) 0.2500
C2 C 0.4108(1) 0.2149(1) 0.2206(2)
C3 C 0.4099(1) 0.3676(2) 0.2238(3)
C4 C 0.5000 0.4434(3) 0.2500
C5 C 0.5000 -0.0277(2) 0.2500
H1 H 0.347(1) 0.412(2) 0.203(3)
H2 H 0.5000 0.543(3) 0.2500
C2C C 0.5892(1) 0.2149(1) 0.2794(2)
N2C N 0.6863(1) 0.1392(1) 0.3203(2)
O1C O 0.6837(1) 0.0250(1) 0.4201(2)
O2C O 0.7640(1) 0.1952(1) 0.2540(2)
C3C C 0.5901(1) 0.3676(2) 0.2762(3)
H1C H 0.653(1) 0.412(2) 0.297(3)
loop_
_geom_bond_atom_site_label_1
_geom_bond_atom_site_label_2
_geom_bond_site_symmetry_1
_geom_bond_site_symmetry_2
O1 N2 1_555 1_555
O2 N2 1_555 1_555
N1 C5 1_555 1_555
N2 C2 1_555 1_555
C1 C2 1_555 1_555
C2 C3 1_555 1_555
C3 C4 1_555 1_555
C4 H2 1_555 1_555
C5 C1 1_555 1_555
H1 C3 1_555 1_555
C2C C1 1_555 1_555
N2C C2C 1_555 1_555
O1C N2C 1_555 1_555
O2C N2C 1_555 1_555
C3C C4 1_555 1_555
H1C C3C 1_555 1_555
C2C C3C 1_555 1_555

#END
