
#######################################################################
#
#                 Cambridge Crystallographic Data Centre
#                                CCDC 
#
#######################################################################
#
# If this CIF has been generated from an entry in the Cambridge 
# Structural Database, then it will include bibliographic, chemical, 
# crystal, experimental, refinement or atomic coordinate data resulting 
# from the CCDC's data processing and validation procedures.
#
#######################################################################

data_ZUGQEX01
_chemical_formula_moiety         '0.5(C4 H12 N2 2+),C6 H11 O2 1-'
_chemical_name_systematic        'Piperazinium bis(hexanoate)'
_symmetry_cell_setting           triclinic
_symmetry_space_group_name_H-M   'P -1'
_symmetry_Int_Tables_number      2
_space_group_name_Hall           '-P 1'
loop_
_symmetry_equiv_pos_site_id
_symmetry_equiv_pos_as_xyz
1 x,y,z
2 -x,-y,-z
_cell_length_a                   5.753(2)
_cell_length_b                   7.498(3)
_cell_length_c                   10.649(4)
_cell_angle_alpha                105.71(3)
_cell_angle_beta                 93.64(3)
_cell_angle_gamma                97.63(3)
_cell_volume                     435.894
_chemical_melting_point          '383.3 K'
_cell_formula_units_Z            2
loop_
_atom_site_label
_atom_site_type_symbol
_atom_site_fract_x
_atom_site_fract_y
_atom_site_fract_z
O1 O 0.4744(2) 0.2160(2) 0.92000(13)
O2 O 0.7687(2) 0.3901(2) 0.86069(13)
C1 C 0.5533(2) 0.3273(2) 0.85620(10)
C2 C 0.3774(2) 0.3802(2) 0.76446(11)
C3 C 0.4641(2) 0.5571(2) 0.72595(11)
C4 C 0.2925(2) 0.5976(2) 0.62561(11)
C5 C 0.3727(2) 0.7840(2) 0.59723(11)
C6 C 0.2048(2) 0.8249(2) 0.49565(12)
H1 H 0.2114(5) 0.3944(4) 0.80974(31)
H2 H 0.3369(6) 0.2594(4) 0.67726(28)
H3 H 0.4962(5) 0.6756(4) 0.81505(26)
H4 H 0.6364(5) 0.5454(4) 0.68666(28)
H5 H 0.1155(5) 0.5975(4) 0.66049(28)
H6 H 0.2712(5) 0.4834(4) 0.53351(26)
H7 H 0.5499(5) 0.7826(4) 0.56296(31)
H8 H 0.3936(6) 0.8985(4) 0.68913(27)
H9 H 0.2638(6) 0.9600(4) 0.47863(34)
H10 H 0.0280(5) 0.8286(5) 0.52790(33)
H11 H 0.1874(6) 0.7175(4) 0.40013(30)
N1 N 1.0128(2) 0.1644(1) 0.95353(8)
C7 C 0.9715(2) 0.1747(2) 1.09157(11)
C8 C 0.9186(2) -0.0253(2) 0.86446(11)
H12 H 0.9218(4) 0.2646(4) 0.92323(24)
H13 H 1.1984(4) 0.1965(4) 0.94421(25)
H14 H 0.7790(5) 0.1547(4) 1.09471(26)
H15 H 1.0490(5) 0.3155(3) 1.15138(25)
H16 H 0.7262(5) -0.0452(4) 0.86596(28)
H17 H 0.9602(6) -0.0280(4) 0.76480(25)
C8A C 1.0814(2) 0.0253(2) 1.13554(11)
N1A N 0.9872(2) -0.1644(1) 1.04647(8)
C7A C 1.0285(2) -0.1747(2) 0.90843(11)
H14A H 1.2210(5) -0.1547(4) 0.90529(26)
H15A H 0.9510(5) -0.3155(3) 0.84862(25)
H12A H 1.0782(4) -0.2646(4) 1.07677(24)
H13A H 0.8016(4) -0.1965(4) 1.05579(25)
H16A H 1.2738(5) 0.0452(4) 1.13404(28)
H17A H 1.0398(6) 0.0280(4) 1.23520(25)
loop_
_geom_bond_atom_site_label_1
_geom_bond_atom_site_label_2
_geom_bond_site_symmetry_1
_geom_bond_site_symmetry_2
O1 C1 1_555 1_555
O2 C1 1_555 1_555
C1 C2 1_555 1_555
C2 C3 1_555 1_555
C3 C4 1_555 1_555
C4 C5 1_555 1_555
C5 C6 1_555 1_555
C6 H9 1_555 1_555
N1 C7 1_555 1_555
C7 H14 1_555 1_555
C8 N1 1_555 1_555
H1 C2 1_555 1_555
H2 C2 1_555 1_555
H3 C3 1_555 1_555
H4 C3 1_555 1_555
H5 C4 1_555 1_555
H6 C4 1_555 1_555
H7 C5 1_555 1_555
H8 C5 1_555 1_555
H10 C6 1_555 1_555
H11 C6 1_555 1_555
H12 N1 1_555 1_555
H13 N1 1_555 1_555
H15 C7 1_555 1_555
H16 C8 1_555 1_555
H17 C8 1_555 1_555
C8A C7 1_555 1_555
N1A C8A 1_555 1_555
C7A C8 1_555 1_555
H14A C7A 1_555 1_555
H15A C7A 1_555 1_555
H12A N1A 1_555 1_555
H13A N1A 1_555 1_555
H16A C8A 1_555 1_555
H17A C8A 1_555 1_555
N1A C7A 1_555 1_555

#END
