
#######################################################################
#
#                 Cambridge Crystallographic Data Centre
#                                CCDC 
#
#######################################################################
#
# If this CIF has been generated from an entry in the Cambridge 
# Structural Database, then it will include bibliographic, chemical, 
# crystal, experimental, refinement or atomic coordinate data resulting 
# from the CCDC's data processing and validation procedures.
#
#######################################################################

data_ZUGQEX
_chemical_formula_moiety         '0.5(C4 H12 N2 2+),C6 D11 O2 1-'
_chemical_name_systematic        'Piperazinium bis(perdeuterohexanoate)'
_symmetry_cell_setting           triclinic
_symmetry_space_group_name_H-M   'P -1'
_symmetry_Int_Tables_number      2
_space_group_name_Hall           '-P 1'
loop_
_symmetry_equiv_pos_site_id
_symmetry_equiv_pos_as_xyz
1 x,y,z
2 -x,-y,-z
_cell_length_a                   5.750(1)
_cell_length_b                   7.486(2)
_cell_length_c                   10.622(4)
_cell_angle_alpha                105.81(2)
_cell_angle_beta                 93.66(2)
_cell_angle_gamma                97.66(2)
_cell_volume                     433.585
_chemical_melting_point          '384.0 K'
_cell_formula_units_Z            2
loop_
_atom_site_label
_atom_site_type_symbol
_atom_site_fract_x
_atom_site_fract_y
_atom_site_fract_z
O1 O 0.4750(1) 0.2165(1) 0.92033(6)
O2 O 0.7691(1) 0.3907(1) 0.86053(6)
C1 C 0.5535(1) 0.3272(1) 0.85631(4)
C2 C 0.3773(1) 0.3799(1) 0.76397(5)
C3 C 0.4640(1) 0.5572(1) 0.72571(5)
C4 C 0.2919(1) 0.5972(1) 0.62498(5)
C5 C 0.3726(1) 0.7840(1) 0.59687(5)
C6 C 0.2043(1) 0.8246(1) 0.49488(5)
D1 D 0.2117(1) 0.3932(1) 0.80856(7)
D2 D 0.3372(1) 0.2583(1) 0.67583(7)
D3 D 0.4953(1) 0.6759(1) 0.81542(6)
D4 D 0.6351(1) 0.5454(1) 0.68654(7)
D5 D 0.1155(1) 0.5970(1) 0.65937(7)
D6 D 0.2709(1) 0.4828(1) 0.53284(6)
D7 D 0.5491(1) 0.7821(1) 0.56289(7)
D8 D 0.3934(1) 0.8985(1) 0.68908(7)
D9 D 0.2639(1) 0.9598(1) 0.47815(8)
D10 D 0.0280(1) 0.8286(1) 0.52727(8)
D11 D 0.1867(2) 0.7173(1) 0.40027(7)
N1 N 1.0130(1) 0.1647(1) 0.95383(3)
C7 C 0.9712(1) 0.1746(1) 1.09183(5)
C8 C 0.9191(1) -0.0250(1) 0.86430(5)
H1 H 0.9214(2) 0.2659(2) 0.92338(11)
H2 H 1.1976(2) 0.1960(2) 0.94439(11)
H3 H 0.7796(2) 0.1550(2) 1.09555(12)
H4 H 1.0490(2) 0.3158(2) 1.15233(12)
H5 H 0.7268(2) -0.0452(2) 0.86549(13)
H6 H 0.9602(3) -0.0271(2) 0.76455(11)
C8A C 1.0809(1) 0.0250(1) 1.13570(5)
N1A N 0.9870(1) -0.1647(1) 1.04617(3)
C7A C 1.0288(1) -0.1746(1) 0.90817(5)
H3A H 1.2204(2) -0.1550(2) 0.90445(12)
H4A H 0.9510(2) -0.3158(2) 0.84767(12)
H1A H 1.0786(2) -0.2659(2) 1.07662(11)
H2A H 0.8024(2) -0.1960(2) 1.05561(11)
H5A H 1.2732(2) 0.0452(2) 1.13451(13)
H6A H 1.0398(3) 0.0271(2) 1.23545(11)
loop_
_geom_bond_atom_site_label_1
_geom_bond_atom_site_label_2
_geom_bond_site_symmetry_1
_geom_bond_site_symmetry_2
O1 C1 1_555 1_555
O2 C1 1_555 1_555
C1 C2 1_555 1_555
C2 C3 1_555 1_555
C3 C4 1_555 1_555
C4 C5 1_555 1_555
C5 C6 1_555 1_555
C6 D9 1_555 1_555
N1 C7 1_555 1_555
C7 H3 1_555 1_555
C8 N1 1_555 1_555
D1 C2 1_555 1_555
D2 C2 1_555 1_555
D3 C3 1_555 1_555
D4 C3 1_555 1_555
D5 C4 1_555 1_555
D6 C4 1_555 1_555
D7 C5 1_555 1_555
D8 C5 1_555 1_555
D10 C6 1_555 1_555
D11 C6 1_555 1_555
H1 N1 1_555 1_555
H2 N1 1_555 1_555
H4 C7 1_555 1_555
H5 C8 1_555 1_555
H6 C8 1_555 1_555
C8A C7 1_555 1_555
N1A C8A 1_555 1_555
C7A C8 1_555 1_555
H3A C7A 1_555 1_555
H4A C7A 1_555 1_555
H1A N1A 1_555 1_555
H2A N1A 1_555 1_555
H5A C8A 1_555 1_555
H6A C8A 1_555 1_555
N1A C7A 1_555 1_555

#END
