
#######################################################################
#
#                 Cambridge Crystallographic Data Centre
#                                CCDC 
#
#######################################################################
#
# If this CIF has been generated from an entry in the Cambridge 
# Structural Database, then it will include bibliographic, chemical, 
# crystal, experimental, refinement or atomic coordinate data resulting 
# from the CCDC's data processing and validation procedures.
#
#######################################################################

data_ZUGTEC
_chemical_formula_moiety         'C18 H16 N1 O1 1+,C9 H11 O3 S1 1-'
_chemical_name_systematic        
'2-(2-(4-hydroxyphenyl)vinyl)-1-methylquinolinium 2,4,6-trimethylbenzenesulfonate'
_symmetry_cell_setting           monoclinic
_symmetry_space_group_name_H-M   'P 21'
_symmetry_Int_Tables_number      4
_space_group_name_Hall           'P 2yb'
loop_
_symmetry_equiv_pos_site_id
_symmetry_equiv_pos_as_xyz
1 x,y,z
2 -x,1/2+y,-z
_cell_length_a                   8.3375(3)
_cell_length_b                   11.0353(4)
_cell_length_c                   12.9020(5)
_cell_angle_alpha                90
_cell_angle_beta                 105.9339(13)
_cell_angle_gamma                90
_cell_volume                     1141.46
_exptl_crystal_colour            yellow
_exptl_crystal_description       plate
_cell_formula_units_Z            2
loop_
_atom_site_label
_atom_site_type_symbol
_atom_site_fract_x
_atom_site_fract_y
_atom_site_fract_z
S1 S 0.52201(5) 0.22351(4) 0.23029(3)
C1 C 0.1400(2) -0.00673(14) 0.10050(13)
C2 C 0.39639(19) 0.10832(12) 0.14780(12)
C3 C 0.3449(2) -0.04276(14) 0.00783(13)
O1 O 0.68923(17) 0.2164(2) 0.21902(13)
C4 C 0.23924(19) 0.08307(14) 0.16412(12)
C5 C 0.44892(18) 0.04790(13) 0.06735(12)
C6 C 0.0818(3) -0.16689(18) -0.04509(19)
C7 C 0.1914(2) -0.07116(13) 0.02394(13)
O2 O 0.51958(18) 0.19450(17) 0.34059(11)
C8 C 0.1685(3) 0.14844(19) 0.24436(16)
O3 O 0.4394(2) 0.33661(13) 0.19311(16)
C9 C 0.6047(3) 0.0758(2) 0.03337(19)
H1 H 0.379(3) -0.087(2) -0.0481(19)
H2 H 0.037(3) -0.026(2) 0.1129(19)
H3 H 0.179(3) 0.233(3) 0.240(2)
H4 H 0.704(4) 0.062(3) 0.088(2)
H5 H 0.224(3) 0.117(2) 0.314(2)
H6 H 0.599(3) 0.157(3) 0.000(2)
H7 H 0.058(3) 0.131(2) 0.2400(17)
H8 H 0.110(3) -0.238(3) -0.010(2)
H9 H 0.613(4) 0.014(3) -0.020(3)
H10 H -0.036(4) -0.162(3) -0.045(2)
H11 H 0.096(4) -0.167(3) -0.112(3)
O4 O 1.32251(15) 0.52301(15) 0.52835(12)
N1 N 0.26506(15) 0.76707(11) 0.34329(10)
C10 C 0.09548(18) 0.78131(13) 0.29112(11)
C11 C 0.81111(17) 0.56930(13) 0.39889(12)
C12 C 0.35778(18) 0.67891(13) 0.31502(12)
C13 C 1.0705(2) 0.63096(16) 0.52581(14)
C14 C 0.5346(2) 0.66797(18) 0.36991(16)
C15 C 0.8988(2) 0.47684(15) 0.36269(15)
C16 C 0.02049(18) 0.70493(13) 0.20430(13)
C17 C 0.63297(19) 0.58338(15) 0.34830(13)
C18 C -0.0026(2) 0.87054(16) 0.32212(14)
C19 C 1.0695(2) 0.46332(15) 0.40619(15)
C20 C 0.1188(2) 0.61286(15) 0.17553(15)
C21 C 0.9015(2) 0.64539(14) 0.48098(13)
C22 C 0.2809(2) 0.59928(16) 0.23016(14)
C23 C -0.1676(2) 0.88241(18) 0.26676(16)
C24 C -0.1497(2) 0.72052(19) 0.14859(15)
C25 C 1.15521(19) 0.54007(15) 0.48779(13)
C26 C -0.2418(2) 0.80823(18) 0.17997(17)
C27 C 0.3434(3) 0.85197(19) 0.43130(18)
H12 H 0.853(3) 0.704(2) 0.5054(16)
H13 H 0.837(3) 0.424(2) 0.302(2)
H14 H 0.342(3) 0.537(2) 0.2083(19)
H15 H 0.561(3) 0.706(3) 0.417(2)
H16 H 1.133(3) 0.399(2) 0.3818(17)
H17 H 0.065(3) 0.565(2) 0.1198(19)
H18 H 0.580(3) 0.519(2) 0.3006(19)
H19 H 0.037(3) 0.922(2) 0.3802(19)
H20 H -0.340(4) 0.820(3) 0.141(2)
H21 H -0.193(3) 0.668(3) 0.086(2)
H22 H -0.226(3) 0.940(3) 0.286(2)
H23 H 1.131(3) 0.674(2) 0.5880(18)
H24 H 1.382(4) 0.587(3) 0.582(3)
H25 H 0.335(6) 0.921(5) 0.407(4)
H26 H 0.418(5) 0.808(5) 0.488(4)
H27 H 0.251(6) 0.856(5) 0.485(4)
loop_
_geom_bond_atom_site_label_1
_geom_bond_atom_site_label_2
_geom_bond_site_symmetry_1
_geom_bond_site_symmetry_2
S1 C2 1_555 1_555
C1 C4 1_555 1_555
C2 C4 1_555 1_555
C3 C5 1_555 1_555
O1 S1 1_555 1_555
C4 C8 1_555 1_555
C5 C2 1_555 1_555
C6 C7 1_555 1_555
C7 C1 1_555 1_555
O2 S1 1_555 1_555
C8 H3 1_555 1_555
O3 S1 1_555 1_555
C9 C5 1_555 1_555
H1 C3 1_555 1_555
H2 C1 1_555 1_555
H4 C9 1_555 1_555
H5 C8 1_555 1_555
H6 C9 1_555 1_555
H7 C8 1_555 1_555
H8 C6 1_555 1_555
H9 C9 1_555 1_555
H10 C6 1_555 1_555
H11 C6 1_555 1_555
O4 C25 1_555 1_555
N1 C10 1_555 1_555
C10 C16 1_555 1_555
C11 C15 1_555 1_555
C12 N1 1_555 1_555
C13 C21 1_555 1_555
C14 C12 1_555 1_555
C15 C19 1_555 1_555
C16 C20 1_555 1_555
C17 C11 1_555 1_555
C18 C10 1_555 1_555
C19 C25 1_555 1_555
C20 C22 1_555 1_555
C21 C11 1_555 1_555
C22 C12 1_555 1_555
C23 C18 1_555 1_555
C24 C16 1_555 1_555
C25 C13 1_555 1_555
C26 C23 1_555 1_555
C27 N1 1_555 1_555
H12 C21 1_555 1_555
H13 C15 1_555 1_555
H14 C22 1_555 1_555
H15 C14 1_555 1_555
H16 C19 1_555 1_555
H17 C20 1_555 1_555
H18 C17 1_555 1_555
H19 C18 1_555 1_555
H20 C26 1_555 1_555
H21 C24 1_555 1_555
H22 C23 1_555 1_555
H23 C13 1_555 1_555
H24 O4 1_555 1_555
H25 C27 1_555 1_555
H26 C27 1_555 1_555
H27 C27 1_555 1_555
C3 C7 1_555 1_555
C14 C17 1_555 1_555
C24 C26 1_555 1_555

#END
