
#######################################################################
#
#                 Cambridge Crystallographic Data Centre
#                                CCDC 
#
#######################################################################
#
# If this CIF has been generated from an entry in the Cambridge 
# Structural Database, then it will include bibliographic, chemical, 
# crystal, experimental, refinement or atomic coordinate data resulting 
# from the CCDC's data processing and validation procedures.
#
#######################################################################

data_ZUHBUB
_chemical_formula_moiety         'C7 H11 N2 1+,C7 H5 O4 1-,H2 O1'
_chemical_name_systematic        
'4-(Dimethylamino)pyridinium 2,4-dihydroxybenzoate monohydrate'
_symmetry_cell_setting           monoclinic
_symmetry_space_group_name_H-M   'P 21/c'
_symmetry_Int_Tables_number      14
_space_group_name_Hall           '-P 2ybc'
loop_
_symmetry_equiv_pos_site_id
_symmetry_equiv_pos_as_xyz
1 x,y,z
2 -x,1/2+y,1/2-z
3 -x,-y,-z
4 x,1/2-y,1/2+z
_cell_length_a                   7.4707(11)
_cell_length_b                   16.847(2)
_cell_length_c                   13.232(3)
_cell_angle_alpha                90
_cell_angle_beta                 119.053(13)
_cell_angle_gamma                90
_cell_volume                     1455.81
_exptl_crystal_colour            colorless
_exptl_crystal_description       block
_cell_formula_units_Z            4
loop_
_atom_site_label
_atom_site_type_symbol
_atom_site_fract_x
_atom_site_fract_y
_atom_site_fract_z
N1 N 0.2074(5) 0.1167(2) 0.4261(4)
H1 H 0.1996 0.0659 0.4199
N2 N 0.2372(5) 0.3589(2) 0.4527(4)
C1 C 0.2525(6) 0.1595(3) 0.3561(4)
H2 H 0.2744 0.1338 0.3009
C2 C 0.2665(6) 0.2394(3) 0.3643(4)
H3 H 0.2992 0.2682 0.3155
C3 C 0.2319(6) 0.2791(2) 0.4465(4)
C4 C 0.1838(6) 0.2322(2) 0.5177(4)
H4 H 0.1584 0.2560 0.5729
C5 C 0.1746(6) 0.1529(3) 0.5057(4)
H5 H 0.1447 0.1223 0.5541
C6 C 0.1985(7) 0.4012(3) 0.5372(5)
H6 H 0.0610 0.3909 0.5215
H7 H 0.2161 0.4572 0.5316
H8 H 0.2932 0.3832 0.6137
C7 C 0.2900(7) 0.4077(3) 0.3804(5)
H9 H 0.4307 0.3988 0.4012
H10 H 0.2703 0.4626 0.3916
H11 H 0.2039 0.3937 0.3007
O1 O 0.8027(5) 0.45577(16) 0.0830(3)
O2 O 0.7256(5) 0.46959(16) 0.2242(3)
O3 O 0.6850(5) 0.34919(17) 0.3258(3)
H12 H 0.6925 0.3963 0.3126
O4 O 0.7281(4) 0.09490(16) 0.1860(3)
H13 H 0.7073 0.0810 0.2388
C8 C 0.7583(7) 0.4268(3) 0.1560(4)
C9 C 0.7490(6) 0.3398(2) 0.1652(4)
C10 C 0.7096(6) 0.3041(2) 0.2485(4)
C11 C 0.7020(6) 0.2230(2) 0.2569(4)
H14 H 0.6771 0.2005 0.3131
C12 C 0.7315(6) 0.1753(2) 0.1819(4)
C13 C 0.7630(6) 0.2079(2) 0.0950(4)
H15 H 0.7780 0.1754 0.0427
C14 C 0.7716(6) 0.2892(2) 0.0886(4)
H16 H 0.7933 0.3113 0.0310
O5 O 0.6525(5) 0.04044(18) 0.3497(3)
H17 H 0.7058 0.0429 0.4228
H18 H 0.5354 0.0188 0.3230
loop_
_geom_bond_atom_site_label_1
_geom_bond_atom_site_label_2
_geom_bond_site_symmetry_1
_geom_bond_site_symmetry_2
N1 H1 1_555 1_555
N2 C3 1_555 1_555
C1 N1 1_555 1_555
H2 C1 1_555 1_555
C2 C1 1_555 1_555
H3 C2 1_555 1_555
C3 C2 1_555 1_555
C4 C3 1_555 1_555
H4 C4 1_555 1_555
C5 N1 1_555 1_555
H5 C5 1_555 1_555
C6 N2 1_555 1_555
H6 C6 1_555 1_555
H7 C6 1_555 1_555
H8 C6 1_555 1_555
C7 N2 1_555 1_555
H9 C7 1_555 1_555
H10 C7 1_555 1_555
H11 C7 1_555 1_555
O1 C8 1_555 1_555
O2 C8 1_555 1_555
O3 H12 1_555 1_555
O4 H13 1_555 1_555
C8 C9 1_555 1_555
C9 C10 1_555 1_555
C10 O3 1_555 1_555
C11 C10 1_555 1_555
H14 C11 1_555 1_555
C12 O4 1_555 1_555
C13 C12 1_555 1_555
H15 C13 1_555 1_555
C14 C9 1_555 1_555
H16 C14 1_555 1_555
O5 H17 1_555 1_555
H18 O5 1_555 1_555
C4 C5 1_555 1_555
C11 C12 1_555 1_555
C13 C14 1_555 1_555

#END
