
#######################################################################
#
#                 Cambridge Crystallographic Data Centre
#                                CCDC 
#
#######################################################################
#
# If this CIF has been generated from an entry in the Cambridge 
# Structural Database, then it will include bibliographic, chemical, 
# crystal, experimental, refinement or atomic coordinate data resulting 
# from the CCDC's data processing and validation procedures.
#
#######################################################################

data_ZUHCAI
_chemical_formula_moiety         'C7 H11 N2 1+,C7 H5 O4 1-'
_chemical_name_systematic        
'4-(Dimethylamino)pyridinium 3,5-dihydroxybenzoate'
_symmetry_cell_setting           orthorhombic
_symmetry_space_group_name_H-M   'P c c a'
_symmetry_Int_Tables_number      54
_space_group_name_Hall           '-P 2a 2ac'
loop_
_symmetry_equiv_pos_site_id
_symmetry_equiv_pos_as_xyz
1 x,y,z
2 1/2-x,-y,z
3 -x,y,1/2-z
4 1/2+x,-y,1/2-z
5 -x,-y,-z
6 1/2+x,y,-z
7 x,-y,1/2+z
8 1/2-x,y,1/2+z
_cell_length_a                   18.8948(17)
_cell_length_b                   9.6449(7)
_cell_length_c                   14.5689(15)
_cell_angle_alpha                90
_cell_angle_beta                 90
_cell_angle_gamma                90
_cell_volume                     2655.01
_exptl_crystal_colour            colorless
_exptl_crystal_description       block
_cell_formula_units_Z            8
loop_
_atom_site_label
_atom_site_type_symbol
_atom_site_fract_x
_atom_site_fract_y
_atom_site_fract_z
O1 O 0.29401(9) 0.25572(18) 0.59843(11)
O2 O 0.37401(10) 0.08665(18) 0.60060(11)
C1 C 0.31113(11) 0.1215(2) 0.26860(15)
H1 H 0.3068 0.1122 0.2053
O3 O 0.22742(9) 0.30886(18) 0.27007(11)
H2 H 0.2278 0.2915 0.2150
O4 O 0.39266(9) -0.06856(16) 0.27537(11)
H3 H 0.3840 -0.0685 0.2202
C2 C 0.33090(13) 0.1641(2) 0.56026(15)
C3 C 0.35559(12) 0.0346(2) 0.31697(15)
C4 C 0.32430(11) 0.1505(2) 0.45744(15)
C5 C 0.27962(12) 0.2369(2) 0.40887(15)
H4 H 0.2539 0.3049 0.4395
C6 C 0.27300(11) 0.2223(2) 0.31439(15)
C7 C 0.36259(12) 0.0493(2) 0.41139(15)
H5 H 0.3930 -0.0087 0.4438
N1 N 0.43731(11) 0.6439(2) 0.60320(14)
C8 C 0.48547(12) 0.5464(2) 0.61933(16)
N2 N 0.58432(11) 0.3433(2) 0.65599(14)
H6 H 0.6152 0.2801 0.6675
C9 C 0.60411(14) 0.4766(3) 0.65437(17)
H7 H 0.6511 0.4994 0.6659
C10 C 0.55707(12) 0.5787(3) 0.63626(17)
H8 H 0.5720 0.6705 0.6350
C11 C 0.46740(13) 0.4040(3) 0.62177(16)
H9 H 0.4210 0.3767 0.6107
C12 C 0.51721(15) 0.3075(3) 0.64001(17)
H10 H 0.5045 0.2143 0.6415
C13 C 0.45684(17) 0.7911(3) 0.6041(2)
H11 H 0.4709 0.8174 0.6649
H12 H 0.4169 0.8460 0.5854
H13 H 0.4954 0.8063 0.5624
C14 C 0.36322(14) 0.6112(3) 0.59090(19)
H14 H 0.3584 0.5398 0.5454
H15 H 0.3383 0.6927 0.5711
H16 H 0.3437 0.5795 0.6480
loop_
_geom_bond_atom_site_label_1
_geom_bond_atom_site_label_2
_geom_bond_site_symmetry_1
_geom_bond_site_symmetry_2
O1 C2 1_555 1_555
O2 C2 1_555 1_555
C1 H1 1_555 1_555
O3 H2 1_555 1_555
O4 H3 1_555 1_555
C2 C4 1_555 1_555
C3 C1 1_555 1_555
C4 C5 1_555 1_555
C5 H4 1_555 1_555
C6 C1 1_555 1_555
C7 C3 1_555 1_555
H5 C7 1_555 1_555
N1 C8 1_555 1_555
C8 C10 1_555 1_555
N2 H6 1_555 1_555
C9 N2 1_555 1_555
H7 C9 1_555 1_555
C10 C9 1_555 1_555
H8 C10 1_555 1_555
C11 C8 1_555 1_555
H9 C11 1_555 1_555
C12 N2 1_555 1_555
H10 C12 1_555 1_555
C13 N1 1_555 1_555
H11 C13 1_555 1_555
H12 C13 1_555 1_555
H13 C13 1_555 1_555
C14 N1 1_555 1_555
H14 C14 1_555 1_555
H15 C14 1_555 1_555
H16 C14 1_555 1_555
O3 C6 1_555 1_555
O4 C3 1_555 1_555
C4 C7 1_555 1_555
C5 C6 1_555 1_555
C11 C12 1_555 1_555

#END
