
#######################################################################
#
#                 Cambridge Crystallographic Data Centre
#                                CCDC 
#
#######################################################################
#
# If this CIF has been generated from an entry in the Cambridge 
# Structural Database, then it will include bibliographic, chemical, 
# crystal, experimental, refinement or atomic coordinate data resulting 
# from the CCDC's data processing and validation procedures.
#
#######################################################################

data_ZUHHAN
_chemical_formula_moiety         'C6 H16 N2 2+,I1 1-,Cl1 1-'
_chemical_name_systematic        '1,1-dimethylpiperazinediium chloride iodide'
_symmetry_cell_setting           orthorhombic
_symmetry_space_group_name_H-M   'P c a 21'
_symmetry_Int_Tables_number      29
_space_group_name_Hall           'P 2c -2ac'
loop_
_symmetry_equiv_pos_site_id
_symmetry_equiv_pos_as_xyz
1 x,y,z
2 -x,-y,1/2+z
3 1/2-x,y,1/2+z
4 1/2+x,-y,z
_cell_length_a                   13.8169(5)
_cell_length_b                   7.6160(3)
_cell_length_c                   20.7290(8)
_cell_angle_alpha                90
_cell_angle_beta                 90
_cell_angle_gamma                90
_cell_volume                     2181.3
_cell_formula_units_Z            8
loop_
_atom_site_label
_atom_site_type_symbol
_atom_site_fract_x
_atom_site_fract_y
_atom_site_fract_z
I1 I -0.28486(3) -0.54339(5) 0.391542(17)
I2 I -0.03106(3) 0.03323(5) 0.189954(18)
Cl1 Cl 0.02177(11) -0.4534(2) 0.06125(10)
Cl2 Cl -0.23725(11) -0.0489(2) 0.51952(10)
N1 N -0.2362(4) -0.4327(6) 0.1881(4)
N2 N -0.2849(4) -0.7136(9) 0.0982(3)
C1 C -0.2230(5) -0.4144(10) 0.1160(4)
H1 H -0.1672 -0.3365 0.1073
H2 H -0.2814 -0.3587 0.0973
C2 C -0.2060(5) -0.5920(11) 0.0833(4)
H3 H -0.2018 -0.5754 0.0360
H4 H -0.1439 -0.6423 0.0983
C3 C -0.2954(4) -0.7416(9) 0.1675(4)
H5 H -0.2354 -0.7941 0.1850
H6 H -0.3495 -0.8239 0.1757
C4 C -0.3154(5) -0.5665(8) 0.2008(4)
H7 H -0.3780 -0.5192 0.1853
H8 H -0.3210 -0.5862 0.2479
C5 C -0.2697(5) -0.2609(9) 0.2149(4)
H9 H -0.3325 -0.2303 0.1959
H10 H -0.2224 -0.1694 0.2045
H11 H -0.2764 -0.2703 0.2618
C6 C -0.1426(5) -0.4803(9) 0.2211(5)
H12 H -0.0956 -0.3854 0.2151
H13 H -0.1170 -0.5890 0.2024
H14 H -0.1544 -0.4974 0.2673
H15 H -0.277(5) -0.842(11) 0.074(4)
H16 H -0.334(5) -0.681(11) 0.083(3)
N3 N 0.0079(4) 0.0742(7) 0.3966(4)
N4 N -0.0469(4) -0.2185(9) 0.4788(3)
C7 C 0.0182(5) 0.0786(9) 0.4689(4)
H17 H 0.0737 0.1548 0.4803
H18 H -0.0408 0.1313 0.4878
C8 C 0.0335(5) -0.0991(11) 0.4978(5)
H19 H 0.0959 -0.1480 0.4827
H20 H 0.0361 -0.0894 0.5454
C9 C -0.0533(5) -0.2338(9) 0.4077(3)
H21 H -0.1077 -0.3123 0.3960
H22 H 0.0072 -0.2856 0.3906
C10 C -0.0690(4) -0.0553(9) 0.3784(4)
H23 H -0.0707 -0.0667 0.3309
H24 H -0.1327 -0.0097 0.3926
C11 C -0.0214(5) 0.2504(9) 0.3740(4)
H25 H -0.0328 0.2470 0.3273
H26 H 0.0302 0.3349 0.3835
H27 H -0.0809 0.2862 0.3961
C12 C 0.1038(4) 0.0291(9) 0.3666(5)
H28 H 0.1246 -0.0871 0.3815
H29 H 0.1521 0.1169 0.3792
H30 H 0.0973 0.0280 0.3195
H31 H -0.032(5) -0.326(11) 0.491(4)
H32 H -0.102(5) -0.177(12) 0.491(4)
loop_
_geom_bond_atom_site_label_1
_geom_bond_atom_site_label_2
_geom_bond_site_symmetry_1
_geom_bond_site_symmetry_2
N1 C1 1_555 1_555
N2 C2 1_555 1_555
C1 H1 1_555 1_555
H2 C1 1_555 1_555
C2 C1 1_555 1_555
H3 C2 1_555 1_555
H4 C2 1_555 1_555
C3 N2 1_555 1_555
H5 C3 1_555 1_555
H6 C3 1_555 1_555
C4 N1 1_555 1_555
H7 C4 1_555 1_555
H8 C4 1_555 1_555
C5 N1 1_555 1_555
H9 C5 1_555 1_555
H10 C5 1_555 1_555
H11 C5 1_555 1_555
C6 N1 1_555 1_555
H12 C6 1_555 1_555
H13 C6 1_555 1_555
H14 C6 1_555 1_555
H15 N2 1_555 1_555
H16 N2 1_555 1_555
N3 C7 1_555 1_555
N4 C8 1_555 1_555
C7 H17 1_555 1_555
H18 C7 1_555 1_555
C8 C7 1_555 1_555
H19 C8 1_555 1_555
H20 C8 1_555 1_555
C9 N4 1_555 1_555
H21 C9 1_555 1_555
H22 C9 1_555 1_555
C10 N3 1_555 1_555
H23 C10 1_555 1_555
H24 C10 1_555 1_555
C11 N3 1_555 1_555
H25 C11 1_555 1_555
H26 C11 1_555 1_555
H27 C11 1_555 1_555
C12 N3 1_555 1_555
H28 C12 1_555 1_555
H29 C12 1_555 1_555
H30 C12 1_555 1_555
H31 N4 1_555 1_555
H32 N4 1_555 1_555
C3 C4 1_555 1_555
C9 C10 1_555 1_555

#END
