
#######################################################################
#
#                 Cambridge Crystallographic Data Centre
#                                CCDC 
#
#######################################################################
#
# If this CIF has been generated from an entry in the Cambridge 
# Structural Database, then it will include bibliographic, chemical, 
# crystal, experimental, refinement or atomic coordinate data resulting 
# from the CCDC's data processing and validation procedures.
#
#######################################################################

data_ZUHJAP
_chemical_formula_moiety         'C23 H21 N1 O3 S1'
_chemical_name_systematic        
2-(1-((4-Methylphenyl)sulfonyl)-2,3-dihydro-1H-indol-2-yl)-1-phenylethanone
_symmetry_cell_setting           orthorhombic
_symmetry_space_group_name_H-M   'P 21 21 21'
_symmetry_Int_Tables_number      19
_space_group_name_Hall           'P 2ac 2ab'
loop_
_symmetry_equiv_pos_site_id
_symmetry_equiv_pos_as_xyz
1 x,y,z
2 1/2-x,-y,1/2+z
3 -x,1/2+y,1/2-z
4 1/2+x,1/2-y,-z
_cell_length_a                   10.189(2)
_cell_length_b                   12.980(3)
_cell_length_c                   15.186(3)
_cell_angle_alpha                90
_cell_angle_beta                 90
_cell_angle_gamma                90
_cell_volume                     2008.4
_exptl_crystal_colour            colorless
_exptl_crystal_description       Block
_cell_formula_units_Z            4
loop_
_atom_site_label
_atom_site_type_symbol
_atom_site_fract_x
_atom_site_fract_y
_atom_site_fract_z
C1 C -0.3341(3) 0.4661(4) 0.8074(2)
H1 H -0.3932 0.5167 0.7840
H2 H -0.3631 0.4457 0.8650
H3 H -0.3326 0.4071 0.7694
C2 C -0.1977(3) 0.5115(3) 0.81366(17)
C3 C -0.1748(3) 0.6123(3) 0.7890(2)
H4 H -0.2438 0.6522 0.7679
C4 C -0.0502(3) 0.6548(2) 0.79516(17)
H5 H -0.0355 0.7227 0.7780
C5 C 0.0518(2) 0.59538(19) 0.82704(15)
C6 C 0.0300(3) 0.4948(2) 0.8507(2)
H6 H 0.0986 0.4543 0.8715
C7 C -0.0950(3) 0.4541(2) 0.8432(2)
H7 H -0.1092 0.3857 0.8587
C8 C 0.19471(19) 0.66000(16) 1.01578(14)
C9 C 0.2600(2) 0.57406(19) 1.0459(2)
H8 H 0.3176 0.5381 1.0097
C10 C 0.2372(3) 0.5428(2) 1.1317(2)
H9 H 0.2802 0.4849 1.1533
C11 C 0.1518(3) 0.5960(3) 1.1859(2)
H10 H 0.1380 0.5736 1.2433
C12 C 0.0872(3) 0.6819(2) 1.15538(19)
H11 H 0.0296 0.7176 1.1918
C13 C 0.1089(2) 0.71460(17) 1.06982(15)
C14 C 0.0540(3) 0.80427(19) 1.02191(18)
H12 H 0.0599 0.8662 1.0574
H13 H -0.0371 0.7925 1.0065
C15 C 0.1390(2) 0.81364(15) 0.93899(14)
H14 H 0.0830 0.8233 0.8872
C16 C 0.2422(2) 0.89778(15) 0.94263(16)
H15 H 0.2915 0.8911 0.9970
H16 H 0.3029 0.8886 0.8941
C17 C 0.1845(2) 1.00463(18) 0.93786(16)
C18 C 0.2751(3) 1.09458(17) 0.93147(17)
C19 C 0.4089(3) 1.0841(2) 0.9187(2)
H17 H 0.4461 1.0188 0.9157
C20 C 0.4876(4) 1.1705(3) 0.9105(3)
H18 H 0.5770 1.1634 0.8997
C21 C 0.4328(5) 1.2661(3) 0.9184(4)
H19 H 0.4860 1.3242 0.9148
C22 C 0.3021(5) 1.2777(2) 0.9314(3)
H20 H 0.2663 1.3433 0.9368
C23 C 0.2221(4) 1.1921(2) 0.9367(2)
H21 H 0.1320 1.2003 0.9438
N1 N 0.20817(18) 0.71194(12) 0.93331(11)
O1 O 0.2268(2) 0.72619(18) 0.77281(13)
O2 O 0.3010(2) 0.56767(17) 0.84898(16)
O3 O 0.0675(2) 1.01777(17) 0.9388(2)
S1 S 0.20880(6) 0.64981(5) 0.83969(4)
loop_
_geom_bond_atom_site_label_1
_geom_bond_atom_site_label_2
_geom_bond_site_symmetry_1
_geom_bond_site_symmetry_2
C1 H1 1_555 1_555
H2 C1 1_555 1_555
H3 C1 1_555 1_555
C2 C1 1_555 1_555
C3 C2 1_555 1_555
H4 C3 1_555 1_555
C4 C3 1_555 1_555
H5 C4 1_555 1_555
C5 C4 1_555 1_555
C6 C5 1_555 1_555
H6 C6 1_555 1_555
C7 C2 1_555 1_555
H7 C7 1_555 1_555
C8 C9 1_555 1_555
C9 H8 1_555 1_555
C10 C9 1_555 1_555
H9 C10 1_555 1_555
C11 C10 1_555 1_555
H10 C11 1_555 1_555
C12 C11 1_555 1_555
H11 C12 1_555 1_555
C13 C8 1_555 1_555
C14 C13 1_555 1_555
H12 C14 1_555 1_555
H13 C14 1_555 1_555
C15 C14 1_555 1_555
H14 C15 1_555 1_555
C16 C15 1_555 1_555
H15 C16 1_555 1_555
H16 C16 1_555 1_555
C17 C16 1_555 1_555
C18 C17 1_555 1_555
C19 C18 1_555 1_555
H17 C19 1_555 1_555
C20 C19 1_555 1_555
H18 C20 1_555 1_555
C21 C20 1_555 1_555
H19 C21 1_555 1_555
C22 C21 1_555 1_555
H20 C22 1_555 1_555
C23 C18 1_555 1_555
H21 C23 1_555 1_555
N1 C8 1_555 1_555
O1 S1 1_555 1_555
O2 S1 1_555 1_555
O3 C17 1_555 1_555
S1 C5 1_555 1_555
C6 C7 1_555 1_555
C12 C13 1_555 1_555
C15 N1 1_555 1_555
C22 C23 1_555 1_555
N1 S1 1_555 1_555

#END
