
#######################################################################
#
#                 Cambridge Crystallographic Data Centre
#                                CCDC 
#
#######################################################################
#
# If this CIF has been generated from an entry in the Cambridge 
# Structural Database, then it will include bibliographic, chemical, 
# crystal, experimental, refinement or atomic coordinate data resulting 
# from the CCDC's data processing and validation procedures.
#
#######################################################################

data_ZUHSIE
_chemical_formula_moiety         'C14 H22 N2 S2'
_chemical_name_systematic        
3-Cyano-1-(4-(1,3-dithian-2-yl)butyl)-1,4,5,6-tetrahydropyridine
_symmetry_cell_setting           monoclinic
_symmetry_space_group_name_H-M   'C 2/c'
_symmetry_Int_Tables_number      15
_space_group_name_Hall           '-C 2yn'
loop_
_symmetry_equiv_pos_site_id
_symmetry_equiv_pos_as_xyz
1 x,y,z
2 -x,y,1/2-z
3 1/2+x,1/2+y,z
4 1/2-x,1/2+y,1/2-z
5 -x,-y,-z
6 x,-y,1/2+z
7 1/2-x,1/2-y,-z
8 1/2+x,1/2-y,1/2+z
_cell_length_a                   27.253(3)
_cell_length_b                   6.701(5)
_cell_length_c                   19.306(3)
_cell_angle_alpha                90
_cell_angle_beta                 119.782(9)
_cell_angle_gamma                90
_cell_volume                     3060.04
_exptl_crystal_colour            colorless
_cell_formula_units_Z            8
loop_
_atom_site_label
_atom_site_type_symbol
_atom_site_fract_x
_atom_site_fract_y
_atom_site_fract_z
S1 S 0.08121(3) 0.1802(1) 0.72537(5)
S2 S 0.14705(4) 0.2886(1) 0.64337(5)
N1 N -0.10191(9) 0.9697(4) 0.5635(1)
N2 N -0.3006(1) 0.9199(5) 0.3867(2)
C1 C -0.1568(1) 0.9195(4) 0.5209(2)
C2 C -0.1975(1) 1.0409(4) 0.4673(2)
C3 C -0.1845(1) 1.2508(5) 0.4538(2)
C4 C -0.1281(1) 1.3149(5) 0.5222(2)
C5 C -0.0842(1) 1.1604(5) 0.5466(2)
C6 C -0.0597(1) 0.8361(5) 0.6219(2)
C7 C -0.0199(1) 0.7488(5) 0.5959(2)
C8 C 0.0240(1) 0.6110(5) 0.6587(2)
C9 C 0.0593(1) 0.5060(5) 0.6287(2)
C10 C 0.1080(1) 0.3807(4) 0.6904(2)
C11 C 0.2022(1) 0.1500(5) 0.7251(2)
C12 C 0.1809(1) -0.0169(5) 0.7557(2)
C13 C 0.1466(1) 0.0576(5) 0.7931(2)
C14 C -0.2542(1) 0.9695(5) 0.4237(2)
H1 H -0.1681 0.7892 0.5292
H2 H -0.2133 1.3384 0.4503
H3 H -0.1834 1.2575 0.4055
H4 H -0.1335 1.3505 0.5656
H5 H -0.1165 1.4317 0.5052
H6 H -0.0510 1.2037 0.5955
H7 H -0.0738 1.1419 0.5073
H8 H -0.0388 0.9095 0.6703
H9 H -0.0793 0.7304 0.6310
H10 H -0.0406 0.6768 0.5475
H11 H 0.0000 0.8559 0.5869
H12 H 0.0481 0.6867 0.7054
H13 H 0.0045 0.5140 0.6729
H14 H 0.0347 0.4181 0.5857
H15 H 0.0738 0.6036 0.6077
H16 H 0.1324 0.4653 0.7356
H17 H 0.2280 0.1014 0.7105
H18 H 0.2226 0.2440 0.7697
H19 H 0.2124 -0.0936 0.7947
H20 H 0.1579 -0.1031 0.7119
H21 H 0.1689 0.1565 0.8330
H22 H 0.1379 -0.0468 0.8172
loop_
_geom_bond_atom_site_label_1
_geom_bond_atom_site_label_2
_geom_bond_site_symmetry_1
_geom_bond_site_symmetry_2
S1 C10 1_555 1_555
S2 C10 1_555 1_555
N1 C1 1_555 1_555
N2 C14 1_555 1_555
C1 C2 1_555 1_555
C2 C3 1_555 1_555
C3 C4 1_555 1_555
C4 C5 1_555 1_555
C5 N1 1_555 1_555
C6 N1 1_555 1_555
C7 C6 1_555 1_555
C8 C7 1_555 1_555
C9 C8 1_555 1_555
C10 C9 1_555 1_555
C11 S2 1_555 1_555
C12 C11 1_555 1_555
C13 S1 1_555 1_555
C14 C2 1_555 1_555
H1 C1 1_555 1_555
H2 C3 1_555 1_555
H3 C3 1_555 1_555
H4 C4 1_555 1_555
H5 C4 1_555 1_555
H6 C5 1_555 1_555
H7 C5 1_555 1_555
H8 C6 1_555 1_555
H9 C6 1_555 1_555
H10 C7 1_555 1_555
H11 C7 1_555 1_555
H12 C8 1_555 1_555
H13 C8 1_555 1_555
H14 C9 1_555 1_555
H15 C9 1_555 1_555
H16 C10 1_555 1_555
H17 C11 1_555 1_555
H18 C11 1_555 1_555
H19 C12 1_555 1_555
H20 C12 1_555 1_555
H21 C13 1_555 1_555
H22 C13 1_555 1_555
C12 C13 1_555 1_555

#END
