
#######################################################################
#
#                 Cambridge Crystallographic Data Centre
#                                CCDC 
#
#######################################################################
#
# If this CIF has been generated from an entry in the Cambridge 
# Structural Database, then it will include bibliographic, chemical, 
# crystal, experimental, refinement or atomic coordinate data resulting 
# from the CCDC's data processing and validation procedures.
#
#######################################################################

data_ZUHSOK
_chemical_formula_moiety         'C7 H9 N1 O3'
_chemical_name_systematic        
1-Cyanomethyl-6,7,8-trioxabicyclo(3.2.1)octane
_symmetry_cell_setting           monoclinic
_symmetry_space_group_name_H-M   'P 21/c'
_symmetry_Int_Tables_number      14
_space_group_name_Hall           '-P 2ybc'
loop_
_symmetry_equiv_pos_site_id
_symmetry_equiv_pos_as_xyz
1 x,y,z
2 -x,1/2+y,1/2-z
3 -x,-y,-z
4 x,1/2-y,1/2+z
_cell_length_a                   5.8867(8)
_cell_length_b                   7.023(1)
_cell_length_c                   17.9952(7)
_cell_angle_alpha                90
_cell_angle_beta                 92.473(8)
_cell_angle_gamma                90
_cell_volume                     743.27
_exptl_crystal_colour            colorless
_cell_formula_units_Z            4
loop_
_atom_site_label
_atom_site_type_symbol
_atom_site_fract_x
_atom_site_fract_y
_atom_site_fract_z
O1 O 0.1941(2) -0.1448(2) 0.68535(6)
O2 O -0.0589(2) 0.0916(2) 0.68345(7)
O3 O -0.0157(2) 0.0357(2) 0.60615(6)
N1 N -0.2140(4) -0.4225(3) 0.5738(1)
C1 C -0.0464(4) -0.3452(3) 0.5674(1)
C2 C 0.1650(3) -0.2412(3) 0.5580(1)
C3 C 0.1907(3) -0.0758(2) 0.61182(9)
C4 C 0.3927(3) 0.0512(3) 0.6000(1)
C5 C 0.3898(3) 0.2202(3) 0.6529(1)
C6 C 0.3273(3) 0.1604(3) 0.7298(1)
C7 C 0.1349(3) 0.0195(3) 0.72563(10)
H1 H 0.0909 -0.0168 0.7756
H2 H 0.2892 -0.3258 0.5662
H3 H 0.1659 -0.1934 0.5084
H4 H 0.5283 -0.0211 0.6092
H5 H 0.3871 0.0942 0.5500
H6 H 0.5369 0.2761 0.6556
H7 H 0.2823 0.3104 0.6338
H8 H 0.4554 0.1045 0.7545
H9 H 0.2813 0.2701 0.7561
loop_
_geom_bond_atom_site_label_1
_geom_bond_atom_site_label_2
_geom_bond_site_symmetry_1
_geom_bond_site_symmetry_2
O1 C3 1_555 1_555
O2 O3 1_555 1_555
O3 C3 1_555 1_555
N1 C1 1_555 1_555
C1 C2 1_555 1_555
C2 C3 1_555 1_555
C3 C4 1_555 1_555
C4 C5 1_555 1_555
C5 C6 1_555 1_555
C6 C7 1_555 1_555
C7 O1 1_555 1_555
H1 C7 1_555 1_555
H2 C2 1_555 1_555
H3 C2 1_555 1_555
H4 C4 1_555 1_555
H5 C4 1_555 1_555
H6 C5 1_555 1_555
H7 C5 1_555 1_555
H8 C6 1_555 1_555
H9 C6 1_555 1_555
O2 C7 1_555 1_555

#END
