
#######################################################################
#
#                 Cambridge Crystallographic Data Centre
#                                CCDC 
#
#######################################################################
#
# If this CIF has been generated from an entry in the Cambridge 
# Structural Database, then it will include bibliographic, chemical, 
# crystal, experimental, refinement or atomic coordinate data resulting 
# from the CCDC's data processing and validation procedures.
#
#######################################################################

data_ZUHTED
_chemical_formula_moiety         'C9 H8 N2 S1'
_chemical_name_systematic        3-Methyl-6-(2-thienyl)pyridazine
_symmetry_cell_setting           monoclinic
_symmetry_space_group_name_H-M   'P 21/c'
_symmetry_Int_Tables_number      14
_space_group_name_Hall           '-P 2ybc'
loop_
_symmetry_equiv_pos_site_id
_symmetry_equiv_pos_as_xyz
1 x,y,z
2 -x,1/2+y,1/2-z
3 -x,-y,-z
4 x,1/2-y,1/2+z
_cell_length_a                   6.1629(2)
_cell_length_b                   7.9773(3)
_cell_length_c                   16.7489(7)
_cell_angle_alpha                90
_cell_angle_beta                 93.587(2)
_cell_angle_gamma                90
_cell_volume                     821.818
_exptl_crystal_colour            yellow
_cell_formula_units_Z            4
loop_
_atom_site_label
_atom_site_type_symbol
_atom_site_fract_x
_atom_site_fract_y
_atom_site_fract_z
S1 S 0.38858(5) -0.01148(4) 0.27404(2)
N1 N 0.66887(18) 0.25194(14) 0.47318(7)
N2 N 0.55492(18) 0.16810(14) 0.41487(7)
C1 C 0.7097(2) 0.39700(17) 0.59933(8)
H1 H 0.7305 0.3277 0.6475
H2 H 0.6380 0.5022 0.6126
H3 H 0.8512 0.4216 0.5784
C2 C 0.5711(2) 0.30465(16) 0.53736(8)
C3 C 0.3429(2) 0.13886(15) 0.42014(8)
C4 C 0.2373(2) 0.04823(16) 0.35265(8)
C5 C 0.0249(2) -0.00220(15) 0.34018(8)
H4 H -0.0842 0.0198 0.3764
C6 C -0.0138(2) -0.09092(17) 0.26715(8)
H5 H -0.1514 -0.1355 0.2494
C7 C 0.1676(2) -0.10507(18) 0.22542(8)
H6 H 0.1714 -0.1603 0.1753
C8 C 0.3488(2) 0.27584(17) 0.54568(8)
H7 H 0.2813 0.3135 0.5919
C9 C 0.2312(2) 0.19282(16) 0.48625(8)
H8 H 0.0802 0.1723 0.4894
loop_
_geom_bond_atom_site_label_1
_geom_bond_atom_site_label_2
_geom_bond_site_symmetry_1
_geom_bond_site_symmetry_2
S1 C4 1_555 1_555
N1 N2 1_555 1_555
N2 C3 1_555 1_555
C1 H1 1_555 1_555
H2 C1 1_555 1_555
H3 C1 1_555 1_555
C2 N1 1_555 1_555
C3 C4 1_555 1_555
C4 C5 1_555 1_555
C5 H4 1_555 1_555
C6 C5 1_555 1_555
H5 C6 1_555 1_555
C7 S1 1_555 1_555
H6 C7 1_555 1_555
C8 C2 1_555 1_555
H7 C8 1_555 1_555
C9 C3 1_555 1_555
H8 C9 1_555 1_555
C1 C2 1_555 1_555
C6 C7 1_555 1_555
C8 C9 1_555 1_555

#END
