
#######################################################################
#
#                 Cambridge Crystallographic Data Centre
#                                CCDC 
#
#######################################################################
#
# If this CIF has been generated from an entry in the Cambridge 
# Structural Database, then it will include bibliographic, chemical, 
# crystal, experimental, refinement or atomic coordinate data resulting 
# from the CCDC's data processing and validation procedures.
#
#######################################################################

data_ZUKBEO
_chemical_formula_moiety         'C32 H35 N3 O2'
_chemical_name_systematic        
5-(1H-indol-3-ylmethyl)-7,8,14,16-tetramethyl-4,21-diazatetracyclo[16.2.1.0^2,6^.0^2,10^]henicosa-1(20),8,11,15,18-pentaene-3,17-dione
_symmetry_cell_setting           trigonal
_symmetry_space_group_name_H-M   'P 31'
_symmetry_Int_Tables_number      144
_space_group_name_Hall           'P 31'
loop_
_symmetry_equiv_pos_site_id
_symmetry_equiv_pos_as_xyz
1 x,y,z
2 -y,x-y,1/3+z
3 -x+y,-x,2/3+z
_cell_length_a                   12.8373(3)
_cell_length_b                   12.8373(3)
_cell_length_c                   13.7369(4)
_cell_angle_alpha                90
_cell_angle_beta                 90
_cell_angle_gamma                120
_cell_volume                     1960.5
_exptl_crystal_colour            colorless
_exptl_crystal_description       block
_cell_formula_units_Z            3
loop_
_atom_site_label
_atom_site_type_symbol
_atom_site_fract_x
_atom_site_fract_y
_atom_site_fract_z
O1 O 0.79946(16) 0.06129(15) -0.00565(12)
O2 O 0.79594(15) 0.44822(15) 0.29833(12)
N1 N 0.89867(17) 0.26709(17) 0.19537(13)
H1 H 0.9604 0.3330 0.1721
N2 N 0.78728(17) 0.39416(17) 0.45756(13)
H2 H 0.7382 0.4196 0.4760
N3 N 0.78785(18) 0.1149(2) 0.79395(14)
H3 H 0.7955 0.1148 0.8576
C1 C 0.8687(2) -0.0884(2) 0.6681(2)
H4 H 0.8983 -0.1422 0.6775
C2 C 0.8530(2) -0.0328(2) 0.7475(2)
H5 H 0.8701 -0.0477 0.8116
C3 C 0.8102(2) 0.0472(2) 0.72946(17)
C4 C 0.7848(2) 0.0708(2) 0.63507(17)
C5 C 0.7486(2) 0.1607(2) 0.64536(17)
C6 C 0.7201(2) 0.2220(2) 0.56599(16)
H6 H 0.6609 0.2435 0.5909
H7 H 0.6816 0.1645 0.5117
C7 C 0.8294(2) 0.3363(2) 0.52597(16)
H8 H 0.8736 0.3925 0.5807
C8 C 0.91843(19) 0.3144(2) 0.46419(16)
H9 H 0.8874 0.2258 0.4619
C9 C 0.91359(19) 0.35780(19) 0.35868(15)
C10 C 0.85847(19) 0.2550(2) 0.28747(16)
C11 C 0.8314(2) 0.1638(2) 0.14190(16)
C12 C 0.8584(2) 0.1555(2) 0.04097(17)
C13 C 0.9669(2) 0.2626(2) -0.00225(16)
C14 C 0.9825(2) 0.3730(2) 0.00286(17)
H10 H 0.9158 0.3799 0.0242
C15 C 1.0568(3) 0.2334(3) -0.0476(2)
H11 H 1.0980 0.2888 -0.1017
H12 H 1.0147 0.1506 -0.0719
H13 H 1.1161 0.2421 0.0015
C16 C 1.0968(2) 0.4888(2) -0.02218(18)
H14 H 1.1641 0.4708 -0.0225
C17 C 1.1239(2) 0.5824(2) 0.05809(19)
H15 H 1.2044 0.6534 0.0467
H16 H 1.0639 0.6092 0.0552
C18 C 1.1209(2) 0.5319(2) 0.15728(18)
H17 H 1.1759 0.5041 0.1690
C19 C 1.0483(2) 0.52225(19) 0.23051(17)
H18 H 0.9976 0.5559 0.2223
C20 C 1.04241(19) 0.46103(19) 0.32509(17)
H19 H 1.0932 0.4228 0.3169
C21 C 1.09734(19) 0.5506(2) 0.40788(17)
H20 H 1.1272 0.6338 0.3967
C22 C 1.10322(19) 0.5121(2) 0.49534(18)
C23 C 1.1600(2) 0.5945(2) 0.58074(19)
H21 H 1.1903 0.6779 0.5603
H22 H 1.2269 0.5858 0.6054
H23 H 1.1000 0.5737 0.6323
C24 C 1.04846(19) 0.3768(2) 0.50611(17)
H24 H 1.0958 0.3536 0.4625
C25 C 1.0550(2) 0.3323(2) 0.60757(18)
H25 H 1.1392 0.3703 0.6283
H26 H 1.0202 0.2448 0.6062
H27 H 1.0099 0.3533 0.6534
C26 C 0.7445(2) 0.08176(19) 0.20503(16)
H28 H 0.6849 0.0016 0.1896
C27 C 0.7605(2) 0.1382(2) 0.29513(16)
H29 H 0.7131 0.1033 0.3517
C28 C 0.82601(19) 0.40687(19) 0.36640(17)
C29 C 0.7515(2) 0.1829(2) 0.74267(17)
H30 H 0.7311 0.2379 0.7711
C30 C 0.8422(2) -0.0679(2) 0.5736(2)
H31 H 0.8537 -0.1084 0.5204
C31 C 0.7995(2) 0.0105(2) 0.55647(18)
H32 H 0.7806 0.0230 0.4922
C32 C 1.0926(2) 0.5369(2) -0.12294(19)
H33 H 1.0754 0.4749 -0.1720
H34 H 1.1704 0.6084 -0.1372
H35 H 1.0294 0.5584 -0.1244
loop_
_geom_bond_atom_site_label_1
_geom_bond_atom_site_label_2
_geom_bond_site_symmetry_1
_geom_bond_site_symmetry_2
O1 C12 1_555 1_555
O2 C28 1_555 1_555
N1 H1 1_555 1_555
N2 H2 1_555 1_555
N3 H3 1_555 1_555
C1 H4 1_555 1_555
C2 C1 1_555 1_555
H5 C2 1_555 1_555
C3 N3 1_555 1_555
C4 C3 1_555 1_555
C5 C4 1_555 1_555
C6 C5 1_555 1_555
H6 C6 1_555 1_555
H7 C6 1_555 1_555
C7 N2 1_555 1_555
H8 C7 1_555 1_555
C8 C7 1_555 1_555
H9 C8 1_555 1_555
C9 C8 1_555 1_555
C10 N1 1_555 1_555
C11 N1 1_555 1_555
C12 C11 1_555 1_555
C13 C12 1_555 1_555
C14 C13 1_555 1_555
H10 C14 1_555 1_555
C15 C13 1_555 1_555
H11 C15 1_555 1_555
H12 C15 1_555 1_555
H13 C15 1_555 1_555
C16 C14 1_555 1_555
H14 C16 1_555 1_555
C17 C16 1_555 1_555
H15 C17 1_555 1_555
H16 C17 1_555 1_555
C18 C17 1_555 1_555
H17 C18 1_555 1_555
C19 C18 1_555 1_555
H18 C19 1_555 1_555
C20 C9 1_555 1_555
H19 C20 1_555 1_555
C21 C20 1_555 1_555
H20 C21 1_555 1_555
C22 C21 1_555 1_555
C23 C22 1_555 1_555
H21 C23 1_555 1_555
H22 C23 1_555 1_555
H23 C23 1_555 1_555
C24 C8 1_555 1_555
H24 C24 1_555 1_555
C25 C24 1_555 1_555
H25 C25 1_555 1_555
H26 C25 1_555 1_555
H27 C25 1_555 1_555
C26 C11 1_555 1_555
H28 C26 1_555 1_555
C27 C10 1_555 1_555
H29 C27 1_555 1_555
C28 N2 1_555 1_555
C29 N3 1_555 1_555
H30 C29 1_555 1_555
C30 C1 1_555 1_555
H31 C30 1_555 1_555
C31 C4 1_555 1_555
H32 C31 1_555 1_555
C32 C16 1_555 1_555
H33 C32 1_555 1_555
H34 C32 1_555 1_555
H35 C32 1_555 1_555
C2 C3 1_555 1_555
C5 C29 1_555 1_555
C6 C7 1_555 1_555
C9 C10 1_555 1_555
C9 C28 1_555 1_555
C19 C20 1_555 1_555
C22 C24 1_555 1_555
C26 C27 1_555 1_555
C30 C31 1_555 1_555

#END
