
#######################################################################
#
#                 Cambridge Crystallographic Data Centre
#                                CCDC 
#
#######################################################################
#
# If this CIF has been generated from an entry in the Cambridge 
# Structural Database, then it will include bibliographic, chemical, 
# crystal, experimental, refinement or atomic coordinate data resulting 
# from the CCDC's data processing and validation procedures.
#
#######################################################################

data_ZUKCOZ
_chemical_formula_moiety         'C16 H22 O7'
_chemical_name_systematic        
4-(hydroxymethyl)-6-(4-methoxyphenoxy)-2,2-dimethyltetrahydro-4H-[1,3]dioxolo[4,5-c]pyran-7-ol
_symmetry_cell_setting           monoclinic
_symmetry_space_group_name_H-M   'P 21'
_symmetry_Int_Tables_number      4
_space_group_name_Hall           'P 2yb'
loop_
_symmetry_equiv_pos_site_id
_symmetry_equiv_pos_as_xyz
1 x,y,z
2 -x,1/2+y,-z
_cell_length_a                   9.292(5)
_cell_length_b                   7.698(3)
_cell_length_c                   12.322(5)
_cell_angle_alpha                90
_cell_angle_beta                 111.34(3)
_cell_angle_gamma                90
_cell_volume                     820.96
_exptl_crystal_colour            colorless
_exptl_crystal_description       needle
_cell_formula_units_Z            2
loop_
_atom_site_label
_atom_site_type_symbol
_atom_site_fract_x
_atom_site_fract_y
_atom_site_fract_z
O1 O -0.4200(2) 1.1672(3) 0.37518(15)
O2 O 0.13182(18) 1.0221(2) 0.31630(13)
O3 O 0.3066(2) 1.1057(2) 0.17605(15)
H1 H 0.3750 1.1535 0.2299
O4 O 0.10800(19) 0.7425(2) 0.25329(12)
O5 O 0.0413(2) 0.3208(3) 0.11159(16)
H2 H 0.1233 0.2691 0.1256
O6 O 0.35854(19) 0.5425(2) 0.20394(13)
O7 O 0.44858(18) 0.7712(2) 0.12744(13)
C1 C -0.0094(2) 1.0541(3) 0.32781(17)
C2 C -0.1504(3) 1.0144(4) 0.2447(2)
H3 H -0.1560 0.9604 0.1757
C3 C -0.2843(3) 1.0551(4) 0.2639(2)
H4 H -0.3797 1.0298 0.2069
C4 C -0.2783(3) 1.1327(3) 0.36637(19)
C5 C -0.1371(3) 1.1719(4) 0.4509(2)
H5 H -0.1316 1.2232 0.5206
C6 C -0.0033(3) 1.1333(4) 0.4301(2)
H6 H 0.0923 1.1614 0.4861
C7 C -0.4215(4) 1.2286(6) 0.4843(3)
H7 H -0.3658 1.1489 0.5449
H8 H -0.5263 1.2374 0.4805
H9 H -0.3734 1.3409 0.5007
C8 C 0.1305(3) 0.9164(3) 0.22325(17)
H10 H 0.0468 0.9512 0.1513
C9 C 0.0893(3) 0.6246(3) 0.15928(18)
H11 H -0.0021 0.6599 0.0928
C10 C 0.0582(3) 0.4460(3) 0.1996(2)
H12 H 0.1432 0.4133 0.2700
H13 H -0.0353 0.4500 0.2174
C11 C 0.2279(3) 0.6268(3) 0.12134(17)
H14 H 0.2005 0.5689 0.0456
C12 C 0.2929(2) 0.8071(3) 0.11451(17)
H15 H 0.2378 0.8577 0.0375
C13 C 0.2858(2) 0.9317(3) 0.20919(18)
H16 H 0.3686 0.9033 0.2832
C14 C 0.4890(3) 0.6006(3) 0.1779(2)
C15 C 0.5174(4) 0.4826(4) 0.0886(3)
H17 H 0.5318 0.3654 0.1171
H18 H 0.6082 0.5206 0.0755
H19 H 0.4300 0.4874 0.0167
C16 C 0.6271(3) 0.6125(5) 0.2895(2)
H20 H 0.6074 0.6965 0.3400
H21 H 0.7159 0.6474 0.2726
H22 H 0.6461 0.5011 0.3272
loop_
_geom_bond_atom_site_label_1
_geom_bond_atom_site_label_2
_geom_bond_site_symmetry_1
_geom_bond_site_symmetry_2
O1 C4 1_555 1_555
O2 C1 1_555 1_555
O3 H1 1_555 1_555
O4 C8 1_555 1_555
O5 H2 1_555 1_555
O6 C11 1_555 1_555
O7 C12 1_555 1_555
C1 C2 1_555 1_555
C2 H3 1_555 1_555
C3 C2 1_555 1_555
H4 C3 1_555 1_555
C4 C3 1_555 1_555
C5 C4 1_555 1_555
H5 C5 1_555 1_555
C6 C1 1_555 1_555
H6 C6 1_555 1_555
C7 O1 1_555 1_555
H7 C7 1_555 1_555
H8 C7 1_555 1_555
H9 C7 1_555 1_555
C8 O2 1_555 1_555
H10 C8 1_555 1_555
C9 O4 1_555 1_555
H11 C9 1_555 1_555
C10 O5 1_555 1_555
H12 C10 1_555 1_555
H13 C10 1_555 1_555
C11 C9 1_555 1_555
H14 C11 1_555 1_555
C12 C11 1_555 1_555
H15 C12 1_555 1_555
C13 O3 1_555 1_555
H16 C13 1_555 1_555
C14 O6 1_555 1_555
C15 C14 1_555 1_555
H17 C15 1_555 1_555
H18 C15 1_555 1_555
H19 C15 1_555 1_555
C16 C14 1_555 1_555
H20 C16 1_555 1_555
H21 C16 1_555 1_555
H22 C16 1_555 1_555
O7 C14 1_555 1_555
C5 C6 1_555 1_555
C8 C13 1_555 1_555
C9 C10 1_555 1_555
C12 C13 1_555 1_555

#END
