
#######################################################################
#
#                 Cambridge Crystallographic Data Centre
#                                CCDC 
#
#######################################################################
#
# If this CIF has been generated from an entry in the Cambridge 
# Structural Database, then it will include bibliographic, chemical, 
# crystal, experimental, refinement or atomic coordinate data resulting 
# from the CCDC's data processing and validation procedures.
#
#######################################################################

data_ZUKNOK
_chemical_formula_moiety         'C21 H17 N1 O4 S1'
_chemical_name_systematic        
'4-Methylphenyl 4-nitro-3-(1-phenylvinyl)phenyl sulfone'
_symmetry_cell_setting           orthorhombic
_symmetry_space_group_name_H-M   'P b c a'
_symmetry_Int_Tables_number      61
_space_group_name_Hall           '-P 2ac 2ab'
loop_
_symmetry_equiv_pos_site_id
_symmetry_equiv_pos_as_xyz
1 x,y,z
2 1/2-x,-y,1/2+z
3 1/2+x,1/2-y,-z
4 -x,1/2+y,1/2-z
5 -x,-y,-z
6 1/2+x,y,1/2-z
7 1/2-x,1/2+y,z
8 x,1/2-y,1/2+z
_cell_length_a                   23.0837(7)
_cell_length_b                   7.22682(16)
_cell_length_c                   43.5567(9)
_cell_angle_alpha                90
_cell_angle_beta                 90
_cell_angle_gamma                90
_cell_volume                     7266.2
_exptl_crystal_colour            'light yellow'
_exptl_crystal_description       plate
_cell_formula_units_Z            16
loop_
_atom_site_label
_atom_site_type_symbol
_atom_site_fract_x
_atom_site_fract_y
_atom_site_fract_z
S1 S 0.36180(3) 0.48265(11) 0.17304(2)
O1 O 0.29458(14) -0.2996(4) 0.24361(7)
O2 O 0.38265(13) -0.2727(4) 0.25927(6)
O3 O 0.30436(10) 0.5305(4) 0.16287(5)
O4 O 0.39511(11) 0.6136(3) 0.19042(5)
N1 N 0.34023(14) -0.2158(4) 0.24546(7)
C1 C 0.30934(16) 0.1091(5) 0.29921(8)
H1 H 0.2939 0.1682 0.2821
C2 C 0.27443(17) 0.0745(6) 0.32422(9)
H2 H 0.2357 0.1102 0.3238
C3 C 0.2963(2) -0.0123(6) 0.34982(9)
H3 H 0.2728 -0.0341 0.3667
C4 C 0.35291(19) -0.0659(6) 0.35011(8)
H4 H 0.3679 -0.1250 0.3673
C5 C 0.38853(17) -0.0331(5) 0.32486(8)
H5 H 0.4269 -0.0720 0.3253
C6 C 0.36719(14) 0.0571(5) 0.29914(7)
C7 C 0.40528(14) 0.0992(5) 0.27253(7)
C8 C 0.46117(15) 0.1379(6) 0.27544(8)
H6 H 0.4782 0.1396 0.2948
H7 H 0.4834 0.1634 0.2581
C9 C 0.37732(13) 0.1064(5) 0.24144(7)
C10 C 0.34469(14) -0.0372(5) 0.22916(7)
C11 C 0.31596(14) -0.0249(5) 0.20148(7)
H8 H 0.2932 -0.1226 0.1946
C12 C 0.32138(14) 0.1338(5) 0.18420(7)
H9 H 0.3026 0.1445 0.1654
C13 C 0.35506(13) 0.2766(5) 0.19521(7)
C14 C 0.38216(13) 0.2664(5) 0.22384(7)
H10 H 0.4034 0.3665 0.2311
C15 C 0.40193(13) 0.4243(4) 0.14001(7)
C16 C 0.37543(15) 0.3377(5) 0.11540(8)
H11 H 0.3368 0.3020 0.1167
C17 C 0.40678(16) 0.3046(5) 0.08897(8)
H12 H 0.3889 0.2464 0.0724
C18 C 0.46421(15) 0.3567(5) 0.08669(8)
C19 C 0.48979(15) 0.4446(5) 0.11129(8)
H13 H 0.5283 0.4816 0.1099
C20 C 0.45936(14) 0.4788(5) 0.13796(7)
H14 H 0.4772 0.5379 0.1544
C21 C 0.49728(19) 0.3224(6) 0.05723(9)
H15 H 0.4915 0.1967 0.0508
H16 H 0.5378 0.3439 0.0607
H17 H 0.4835 0.4049 0.0416
S2 S 0.63746(4) -0.17887(12) 0.07977(2)
O5 O 0.62868(19) 0.5477(5) -0.01421(9)
O6 O 0.70639(13) 0.6023(4) 0.01010(7)
O7 O 0.60268(12) -0.3078(3) 0.06276(6)
O8 O 0.69431(10) -0.2313(4) 0.08989(6)
N2 N 0.66508(15) 0.5056(4) 0.00424(7)
C22 C 0.62596(17) 0.1993(5) -0.07766(7)
H18 H 0.5923 0.2665 -0.0813
C23 C 0.66222(18) 0.1566(5) -0.10184(8)
H19 H 0.6527 0.1947 -0.1216
C24 C 0.71178(18) 0.0591(6) -0.09690(9)
H20 H 0.7361 0.0306 -0.1132
C25 C 0.72571(17) 0.0028(6) -0.06778(9)
H21 H 0.7595 -0.0643 -0.0644
C26 C 0.69008(16) 0.0450(5) -0.04343(8)
H22 H 0.7003 0.0073 -0.0237
C27 C 0.63888(14) 0.1436(4) -0.04794(7)
C28 C 0.59929(14) 0.1799(5) -0.02186(7)
C29 C 0.54218(17) 0.1962(7) -0.02494(9)
H23 H 0.5252 0.1848 -0.0442
H24 H 0.5192 0.2191 -0.0078
C30 C 0.62526(13) 0.1853(5) 0.00973(7)
C31 C 0.65801(14) 0.3311(5) 0.02150(7)
C32 C 0.68455(14) 0.3251(5) 0.05006(7)
H25 H 0.7065 0.4246 0.0570
C33 C 0.67790(14) 0.1697(5) 0.06793(7)
H26 H 0.6952 0.1628 0.0872
C34 C 0.64523(13) 0.0240(5) 0.05690(7)
C35 C 0.61949(13) 0.0304(5) 0.02808(7)
H27 H 0.5982 -0.0704 0.0211
C36 C 0.59795(13) -0.1066(4) 0.11208(7)
C37 C 0.53888(15) -0.0793(5) 0.10946(8)
H28 H 0.5204 -0.0969 0.0907
C38 C 0.50761(16) -0.0254(6) 0.13505(9)
H29 H 0.4679 -0.0064 0.1333
C39 C 0.53403(16) 0.0004(5) 0.16286(8)
C40 C 0.59307(16) -0.0263(5) 0.16517(8)
H30 H 0.6115 -0.0080 0.1839
C41 C 0.62523(14) -0.0803(5) 0.13978(8)
H31 H 0.6650 -0.0985 0.1415
C42 C 0.4995(2) 0.0618(7) 0.19064(10)
H32 H 0.5169 0.0127 0.2089
H33 H 0.4604 0.0171 0.1889
H34 H 0.4992 0.1945 0.1917
loop_
_geom_bond_atom_site_label_1
_geom_bond_atom_site_label_2
_geom_bond_site_symmetry_1
_geom_bond_site_symmetry_2
S1 O3 1_555 1_555
O1 N1 1_555 1_555
O2 N1 1_555 1_555
O4 S1 1_555 1_555
N1 C10 1_555 1_555
C1 H1 1_555 1_555
C2 C1 1_555 1_555
H2 C2 1_555 1_555
C3 C2 1_555 1_555
H3 C3 1_555 1_555
C4 C3 1_555 1_555
H4 C4 1_555 1_555
C5 C4 1_555 1_555
H5 C5 1_555 1_555
C6 C1 1_555 1_555
C7 C6 1_555 1_555
C8 C7 1_555 1_555
H6 C8 1_555 1_555
H7 C8 1_555 1_555
C9 C7 1_555 1_555
C10 C9 1_555 1_555
C11 C10 1_555 1_555
H8 C11 1_555 1_555
C12 C11 1_555 1_555
H9 C12 1_555 1_555
C13 S1 1_555 1_555
C14 C9 1_555 1_555
H10 C14 1_555 1_555
C15 S1 1_555 1_555
C16 C15 1_555 1_555
H11 C16 1_555 1_555
C17 C16 1_555 1_555
H12 C17 1_555 1_555
C18 C17 1_555 1_555
C19 C18 1_555 1_555
H13 C19 1_555 1_555
C20 C15 1_555 1_555
H14 C20 1_555 1_555
C21 C18 1_555 1_555
H15 C21 1_555 1_555
H16 C21 1_555 1_555
H17 C21 1_555 1_555
S2 O7 1_555 1_555
O5 N2 1_555 1_555
O6 N2 1_555 1_555
O8 S2 1_555 1_555
N2 C31 1_555 1_555
C22 H18 1_555 1_555
C23 C22 1_555 1_555
H19 C23 1_555 1_555
C24 C23 1_555 1_555
H20 C24 1_555 1_555
C25 C24 1_555 1_555
H21 C25 1_555 1_555
C26 C25 1_555 1_555
H22 C26 1_555 1_555
C27 C22 1_555 1_555
C28 C27 1_555 1_555
C29 C28 1_555 1_555
H23 C29 1_555 1_555
H24 C29 1_555 1_555
C30 C28 1_555 1_555
C31 C30 1_555 1_555
C32 C31 1_555 1_555
H25 C32 1_555 1_555
C33 C32 1_555 1_555
H26 C33 1_555 1_555
C34 S2 1_555 1_555
C35 C30 1_555 1_555
H27 C35 1_555 1_555
C36 S2 1_555 1_555
C37 C36 1_555 1_555
H28 C37 1_555 1_555
C38 C37 1_555 1_555
H29 C38 1_555 1_555
C39 C38 1_555 1_555
C40 C39 1_555 1_555
H30 C40 1_555 1_555
C41 C36 1_555 1_555
H31 C41 1_555 1_555
C42 C39 1_555 1_555
H32 C42 1_555 1_555
H33 C42 1_555 1_555
H34 C42 1_555 1_555
C5 C6 1_555 1_555
C12 C13 1_555 1_555
C13 C14 1_555 1_555
C19 C20 1_555 1_555
C26 C27 1_555 1_555
C33 C34 1_555 1_555
C34 C35 1_555 1_555
C40 C41 1_555 1_555

#END
