
#######################################################################
#
#                 Cambridge Crystallographic Data Centre
#                                CCDC 
#
#######################################################################
#
# If this CIF has been generated from an entry in the Cambridge 
# Structural Database, then it will include bibliographic, chemical, 
# crystal, experimental, refinement or atomic coordinate data resulting 
# from the CCDC's data processing and validation procedures.
#
#######################################################################

data_ZUKPAY
_chemical_formula_moiety         'C22 H20 O2 S1'
_chemical_name_systematic        
2-Methyl-4-((4-methylphenyl)sulfonyl)-1-(1-phenylvinyl)benzene
_symmetry_cell_setting           monoclinic
_symmetry_space_group_name_H-M   'P 21/c'
_symmetry_Int_Tables_number      14
_space_group_name_Hall           '-P 2ybc'
loop_
_symmetry_equiv_pos_site_id
_symmetry_equiv_pos_as_xyz
1 x,y,z
2 -x,1/2+y,1/2-z
3 -x,-y,-z
4 x,1/2-y,1/2+z
_cell_length_a                   18.5879(17)
_cell_length_b                   7.8429(6)
_cell_length_c                   12.8011(15)
_cell_angle_alpha                90
_cell_angle_beta                 96.717(10)
_cell_angle_gamma                90
_cell_volume                     1853.37
_exptl_crystal_colour            colorless
_exptl_crystal_description       plate
_cell_formula_units_Z            4
loop_
_atom_site_label
_atom_site_type_symbol
_atom_site_fract_x
_atom_site_fract_y
_atom_site_fract_z
S1 S 0.16653(9) -0.1659(2) 0.25899(14)
O1 O 0.1493(3) -0.0993(7) 0.1542(4)
O2 O 0.2013(3) -0.3285(6) 0.2738(4)
C1 C 0.4403(5) 0.4018(12) 0.6683(7)
H1 H 0.4086 0.4518 0.7104
C2 C 0.5332(4) 0.2481(14) 0.5499(10)
H2 H 0.5654 0.1978 0.5088
C3 C 0.4133(4) 0.3390(8) 0.5712(6)
C4 C -0.0390(4) -0.1829(8) 0.4182(6)
C5 C 0.2926(3) 0.0553(7) 0.4979(5)
C6 C 0.0227(4) -0.2714(9) 0.4590(5)
H3 H 0.0222 -0.3330 0.5209
C7 C 0.2976(3) 0.2262(7) 0.4625(5)
C8 C 0.2987(4) 0.4939(9) 0.5553(7)
H4 H 0.3214 0.5795 0.5972
H5 H 0.2499 0.5039 0.5299
C9 C 0.2633(4) 0.2683(8) 0.3646(5)
H6 H 0.2666 0.3798 0.3409
C10 C 0.5583(5) 0.3114(14) 0.6456(10)
H7 H 0.6069 0.2993 0.6712
C11 C 0.0849(3) -0.2699(8) 0.4093(5)
H8 H 0.1254 -0.3321 0.4365
C12 C 0.2206(3) -0.0146(8) 0.3332(5)
C13 C 0.4597(4) 0.2571(10) 0.5115(7)
H9 H 0.4425 0.2088 0.4471
C14 C -0.0358(4) -0.0902(9) 0.3276(6)
H10 H -0.0766 -0.0302 0.2990
C15 C 0.3355(3) 0.3585(7) 0.5319(5)
C16 C 0.2244(4) 0.1511(9) 0.3004(5)
H11 H 0.2009 0.1843 0.2354
C17 C 0.3217(4) 0.0041(8) 0.6081(5)
H12 H 0.3722 -0.0231 0.6106
H13 H 0.2957 -0.0939 0.6286
H14 H 0.3156 0.0966 0.6554
C18 C 0.0258(3) -0.0837(8) 0.2782(5)
H15 H 0.0269 -0.0185 0.2177
C19 C 0.2543(3) -0.0620(7) 0.4327(5)
H16 H 0.2508 -0.1741 0.4551
C20 C 0.0860(3) -0.1750(7) 0.3193(5)
C21 C 0.5123(6) 0.3927(15) 0.7046(9)
H17 H 0.5298 0.4414 0.7689
C22 C -0.1056(4) -0.1887(12) 0.4739(7)
H18 H -0.1141 -0.3038 0.4948
H19 H -0.1465 -0.1490 0.4275
H20 H -0.0989 -0.1170 0.5351
loop_
_geom_bond_atom_site_label_1
_geom_bond_atom_site_label_2
_geom_bond_site_symmetry_1
_geom_bond_site_symmetry_2
S1 O1 1_555 1_555
O2 S1 1_555 1_555
C1 H1 1_555 1_555
C2 H2 1_555 1_555
C3 C1 1_555 1_555
C4 C6 1_555 1_555
C5 C7 1_555 1_555
C6 H3 1_555 1_555
C7 C9 1_555 1_555
C8 H4 1_555 1_555
H5 C8 1_555 1_555
C9 H6 1_555 1_555
C10 C2 1_555 1_555
H7 C10 1_555 1_555
C11 C6 1_555 1_555
H8 C11 1_555 1_555
C12 S1 1_555 1_555
C13 C2 1_555 1_555
H9 C13 1_555 1_555
C14 C4 1_555 1_555
H10 C14 1_555 1_555
C15 C3 1_555 1_555
C16 C9 1_555 1_555
H11 C16 1_555 1_555
C17 C5 1_555 1_555
H12 C17 1_555 1_555
H13 C17 1_555 1_555
H14 C17 1_555 1_555
C18 C14 1_555 1_555
H15 C18 1_555 1_555
C19 C5 1_555 1_555
H16 C19 1_555 1_555
C20 S1 1_555 1_555
C21 C1 1_555 1_555
H17 C21 1_555 1_555
C22 C4 1_555 1_555
H18 C22 1_555 1_555
H19 C22 1_555 1_555
H20 C22 1_555 1_555
C3 C13 1_555 1_555
C7 C15 1_555 1_555
C8 C15 1_555 1_555
C10 C21 1_555 1_555
C11 C20 1_555 1_555
C12 C16 1_555 1_555
C12 C19 1_555 1_555
C18 C20 1_555 1_555

#END
