
#######################################################################
#
#                 Cambridge Crystallographic Data Centre
#                                CCDC 
#
#######################################################################
#
# If this CIF has been generated from an entry in the Cambridge 
# Structural Database, then it will include bibliographic, chemical, 
# crystal, experimental, refinement or atomic coordinate data resulting 
# from the CCDC's data processing and validation procedures.
#
#######################################################################

data_ZUKSAB
_chemical_formula_moiety         'C12 H11 N1 O4'
_chemical_name_systematic        
"Methyl 1-methyl-2-oxo-1,2-dihydrospiro[indole-3,2'-oxirane]-3'-carboxylate"
_symmetry_cell_setting           triclinic
_symmetry_space_group_name_H-M   'P -1'
_symmetry_Int_Tables_number      2
_space_group_name_Hall           '-P 1'
loop_
_symmetry_equiv_pos_site_id
_symmetry_equiv_pos_as_xyz
1 x,y,z
2 -x,-y,-z
_cell_length_a                   7.1401(4)
_cell_length_b                   8.7787(4)
_cell_length_c                   9.0678(4)
_cell_angle_alpha                91.517(3)
_cell_angle_beta                 104.227(3)
_cell_angle_gamma                94.714(3)
_cell_volume                     548.44
_exptl_crystal_colour            colorless
_exptl_crystal_description       Block
_cell_formula_units_Z            2
loop_
_atom_site_label
_atom_site_type_symbol
_atom_site_fract_x
_atom_site_fract_y
_atom_site_fract_z
O1 O 0.0254(2) 0.10821(18) 0.36778(18)
O2 O 0.1745(3) -0.03538(19) 0.15149(19)
O3 O 0.4764(3) 0.0432(2) 0.2809(2)
O4 O 0.1739(3) 0.3246(2) 0.1663(2)
N1 N 0.2372(3) 0.4866(2) 0.3794(3)
C1 C 0.2040(3) 0.3195(3) 0.5623(3)
C2 C 0.3047(4) 0.0282(2) 0.2698(3)
C3 C 0.1736(3) 0.2320(2) 0.4166(2)
C4 C 0.2223(4) 0.0750(3) 0.3974(3)
C5 C 0.2456(3) 0.4711(3) 0.5343(3)
C6 C 0.1928(3) 0.3492(3) 0.3012(3)
C7 C 0.2075(4) 0.2738(4) 0.7065(3)
H1 H 0.1811 0.1715 0.7247
C8 C 0.2901(4) 0.5825(4) 0.6509(4)
H2 H 0.3174 0.6849 0.6334
C9 C 0.2456(5) -0.0803(4) 0.0221(3)
H3 H 0.1393 -0.1255 -0.0577
H4 H 0.3391 -0.1534 0.0521
H5 H 0.3056 0.0081 -0.0141
C10 C 0.2681(5) 0.6277(3) 0.3066(5)
H6 H 0.2979 0.7114 0.3813
H7 H 0.1528 0.6440 0.2303
H8 H 0.3742 0.6214 0.2597
C11 C 0.2921(5) 0.5344(5) 0.7951(4)
H9 H 0.3223 0.6068 0.8761
C12 C 0.2516(5) 0.3848(5) 0.8237(4)
H10 H 0.2537 0.3576 0.9225
H11 H 0.273(4) 0.024(3) 0.488(3)
loop_
_geom_bond_atom_site_label_1
_geom_bond_atom_site_label_2
_geom_bond_site_symmetry_1
_geom_bond_site_symmetry_2
O1 C3 1_555 1_555
O2 C2 1_555 1_555
O3 C2 1_555 1_555
O4 C6 1_555 1_555
N1 C5 1_555 1_555
C1 C3 1_555 1_555
C2 C4 1_555 1_555
C3 C4 1_555 1_555
C4 O1 1_555 1_555
C5 C1 1_555 1_555
C6 N1 1_555 1_555
C7 C1 1_555 1_555
H1 C7 1_555 1_555
C8 C5 1_555 1_555
H2 C8 1_555 1_555
C9 O2 1_555 1_555
H3 C9 1_555 1_555
H4 C9 1_555 1_555
H5 C9 1_555 1_555
C10 N1 1_555 1_555
H6 C10 1_555 1_555
H7 C10 1_555 1_555
H8 C10 1_555 1_555
C11 C8 1_555 1_555
H9 C11 1_555 1_555
C12 C7 1_555 1_555
H10 C12 1_555 1_555
H11 C4 1_555 1_555
C3 C6 1_555 1_555
C11 C12 1_555 1_555

#END
