
#######################################################################
#
#                 Cambridge Crystallographic Data Centre
#                                CCDC 
#
#######################################################################
#
# If this CIF has been generated from an entry in the Cambridge 
# Structural Database, then it will include bibliographic, chemical, 
# crystal, experimental, refinement or atomic coordinate data resulting 
# from the CCDC's data processing and validation procedures.
#
#######################################################################

data_ZUKTIK
_chemical_formula_moiety         'C24 H30 N2 O6'
_chemical_name_systematic        
13-(4-(2-(4-nitrophenyl)vinyl)phenyl)-1,4,7,10-tetraoxa-13-azacyclopentadecane
_symmetry_cell_setting           monoclinic
_symmetry_space_group_name_H-M   'P 21/n'
_symmetry_Int_Tables_number      14
_space_group_name_Hall           '-P 2yn'
loop_
_symmetry_equiv_pos_site_id
_symmetry_equiv_pos_as_xyz
1 x,y,z
2 1/2-x,1/2+y,1/2-z
3 -x,-y,-z
4 1/2+x,1/2-y,1/2+z
_cell_length_a                   9.7559(17)
_cell_length_b                   19.051(3)
_cell_length_c                   12.427(2)
_cell_angle_alpha                90
_cell_angle_beta                 92.852(2)
_cell_angle_gamma                90
_cell_volume                     2306.82
_cell_formula_units_Z            4
loop_
_atom_site_label
_atom_site_type_symbol
_atom_site_fract_x
_atom_site_fract_y
_atom_site_fract_z
C1 C 0.17467(19) 0.16881(11) 1.09665(15)
C2 C 0.2542(2) 0.11151(12) 1.12332(17)
H1 H 0.2227 0.0772 1.1693
C3 C 0.3798(2) 0.10548(15) 1.0816(2)
H2 H 0.4338 0.0667 1.1004
C4 C 0.4301(2) 0.15468(18) 1.0126(2)
C5 C 0.3474(3) 0.21196(16) 0.9871(2)
H3 H 0.3785 0.2460 0.9406
C6 C 0.2200(2) 0.21986(12) 1.02893(19)
H4 H 0.1660 0.2589 1.0117
C7 C 0.7815(2) 0.14509(17) 0.8914(2)
C8 C 0.8610(3) 0.08551(16) 0.91318(18)
H5 H 0.8267 0.0513 0.9579
C9 C 0.9882(2) 0.07471(12) 0.87173(16)
H6 H 1.0360 0.0334 0.8876
C10 C 1.04569(19) 0.12559(9) 0.80596(14)
C11 C 0.9642(2) 0.18547(11) 0.78326(18)
H7 H 0.9966 0.2202 0.7385
C12 C 0.8384(2) 0.19353(14) 0.8257(2)
H8 H 0.7889 0.2341 0.8090
C13 C 1.2276(2) 0.16888(10) 0.69328(18)
H9 H 1.3261 0.1624 0.6918
H10 H 1.2116 0.2154 0.7218
C14 C 1.1677(3) 0.16570(11) 0.58012(19)
H11 H 1.0694 0.1732 0.5796
H12 H 1.2076 0.2022 0.5371
C15 C 1.1319(3) 0.08808(14) 0.43352(19)
H13 H 1.1689 0.1203 0.3820
H14 H 1.0340 0.0964 0.4357
C16 C 1.1574(2) 0.01448(14) 0.40017(19)
H15 H 1.1402 -0.0172 0.4591
H16 H 1.0958 0.0022 0.3394
C17 C 1.3384(3) -0.06196(13) 0.35359(18)
H17 H 1.3890 -0.0635 0.2884
H18 H 1.2585 -0.0919 0.3429
C18 C 1.4269(2) -0.08958(11) 0.44530(19)
H19 H 1.4659 -0.1343 0.4257
H20 H 1.5016 -0.0572 0.4618
C19 C 1.4263(2) -0.12122(11) 0.62958(19)
H21 H 1.5047 -0.0905 0.6423
H22 H 1.4601 -0.1683 0.6175
C20 C 1.3405(2) -0.12090(10) 0.72603(17)
H23 H 1.2473 -0.1339 0.7035
H24 H 1.3754 -0.1563 0.7763
C21 C 1.2509(2) -0.00436(9) 0.72969(15)
H25 H 1.1567 -0.0209 0.7245
H26 H 1.2797 0.0058 0.6578
C22 C 1.26345(19) 0.06012(10) 0.79997(15)
H27 H 1.2436 0.0471 0.8730
H28 H 1.3576 0.0765 0.8011
N1 N 0.0414(2) 0.17559(13) 1.14212(18)
N2 N 1.17342(15) 0.11761(8) 0.76582(12)
O1 O -0.0036(2) 0.12562(15) 1.18982(19)
O2 O -0.0229(2) 0.22870(13) 1.1245(3)
O3 O 1.19562(16) 0.09929(8) 0.53637(11)
O4 O 1.29469(15) 0.00777(8) 0.37117(12)
O5 O 1.34758(13) -0.09816(7) 0.53703(11)
O6 O 1.33771(15) -0.05523(7) 0.78021(11)
C23 C 0.5699(4) 0.1303(2) 0.9843(3)
H29 H 0.6068 0.0892 1.0140
C24 C 0.6394(5) 0.1677(2) 0.9171(3)
H30 H 0.6010 0.2079 0.8858
C25? C 0.5548(7) 0.1731(3) 0.9436(4)
H31? H 0.5556 0.2109 0.8964
C26? C 0.6605(7) 0.1288(3) 0.9596(4)
H32? H 0.6599 0.0916 1.0080
loop_
_geom_bond_atom_site_label_1
_geom_bond_atom_site_label_2
_geom_bond_site_symmetry_1
_geom_bond_site_symmetry_2
C1 C2 1_555 1_555
C2 H1 1_555 1_555
C3 C2 1_555 1_555
H2 C3 1_555 1_555
C4 C3 1_555 1_555
C5 C4 1_555 1_555
H3 C5 1_555 1_555
C6 C1 1_555 1_555
H4 C6 1_555 1_555
C7 C8 1_555 1_555
C8 H5 1_555 1_555
C9 C8 1_555 1_555
H6 C9 1_555 1_555
C10 C9 1_555 1_555
C11 C10 1_555 1_555
H7 C11 1_555 1_555
C12 C7 1_555 1_555
H8 C12 1_555 1_555
C13 H9 1_555 1_555
H10 C13 1_555 1_555
C14 C13 1_555 1_555
H11 C14 1_555 1_555
H12 C14 1_555 1_555
C15 H13 1_555 1_555
H14 C15 1_555 1_555
C16 C15 1_555 1_555
H15 C16 1_555 1_555
H16 C16 1_555 1_555
C17 H17 1_555 1_555
H18 C17 1_555 1_555
C18 C17 1_555 1_555
H19 C18 1_555 1_555
H20 C18 1_555 1_555
C19 H21 1_555 1_555
H22 C19 1_555 1_555
C20 C19 1_555 1_555
H23 C20 1_555 1_555
H24 C20 1_555 1_555
C21 H25 1_555 1_555
H26 C21 1_555 1_555
C22 C21 1_555 1_555
H27 C22 1_555 1_555
H28 C22 1_555 1_555
N1 C1 1_555 1_555
N2 C10 1_555 1_555
O1 N1 1_555 1_555
O2 N1 1_555 1_555
O3 C14 1_555 1_555
O4 C16 1_555 1_555
O5 C18 1_555 1_555
O6 C20 1_555 1_555
C23 C4 1_555 1_555
H29 C23 1_555 1_555
C24 C7 1_555 1_555
H30 C24 1_555 1_555
C5 C6 1_555 1_555
C11 C12 1_555 1_555
C13 N2 1_555 1_555
C15 O3 1_555 1_555
C17 O4 1_555 1_555
C19 O5 1_555 1_555
C21 O6 1_555 1_555
C22 N2 1_555 1_555
C23 C24 1_555 1_555

#END
