
#######################################################################
#
#                 Cambridge Crystallographic Data Centre
#                                CCDC 
#
#######################################################################
#
# If this CIF has been generated from an entry in the Cambridge 
# Structural Database, then it will include bibliographic, chemical, 
# crystal, experimental, refinement or atomic coordinate data resulting 
# from the CCDC's data processing and validation procedures.
#
#######################################################################

data_ZUKWUZ
_chemical_formula_moiety         'C11 H20 N1 1+,Br1 1-'
_chemical_name_systematic        '7a-allyloctahydro-1H-indolium bromide'
_symmetry_cell_setting           orthorhombic
_symmetry_space_group_name_H-M   'P 21 21 21'
_symmetry_Int_Tables_number      19
_space_group_name_Hall           'P 2ac 2ab'
loop_
_symmetry_equiv_pos_site_id
_symmetry_equiv_pos_as_xyz
1 x,y,z
2 1/2-x,-y,1/2+z
3 -x,1/2+y,1/2-z
4 1/2+x,1/2-y,-z
_cell_length_a                   6.5683(16)
_cell_length_b                   13.156(3)
_cell_length_c                   13.674(3)
_cell_angle_alpha                90
_cell_angle_beta                 90
_cell_angle_gamma                90
_cell_volume                     1181.61
_exptl_crystal_colour            colorless
_exptl_crystal_description       irregular
_cell_formula_units_Z            4
loop_
_atom_site_label
_atom_site_type_symbol
_atom_site_fract_x
_atom_site_fract_y
_atom_site_fract_z
Br1 Br 0.99889(5) 0.111060(17) 0.439909(14)
N1 N 1.3301(3) 0.27628(18) 0.36531(15)
C1 C 1.4937(6) 0.2025(2) 0.33339(19)
C2 C 1.5289(5) 0.2244(2) 0.22484(19)
C3 C 1.4630(4) 0.3352(2) 0.21318(18)
C4 C 1.4216(5) 0.3715(2) 0.10870(19)
C5 C 1.2355(5) 0.3210(3) 0.0627(2)
C6 C 1.0467(4) 0.3347(2) 0.12705(19)
C7 C 1.0864(4) 0.2920(2) 0.22929(18)
C8 C 1.2704(4) 0.3422(2) 0.27817(16)
C9 C 1.2275(4) 0.4511(2) 0.31241(19)
C10 C 1.0476(4) 0.4607(2) 0.3805(2)
C11 C 0.8747(5) 0.5044(3) 0.3578(3)
H1 H 1.381(7) 0.315(3) 0.411(3)
H2 H 1.202(5) 0.242(3) 0.392(3)
H3 H 1.444(5) 0.133(3) 0.345(2)
H4 H 1.599(6) 0.218(3) 0.372(3)
H5 H 1.459(6) 0.179(3) 0.182(3)
H6 H 1.683(5) 0.210(2) 0.207(2)
H7 H 1.570(5) 0.374(2) 0.241(2)
H8 H 1.533(5) 0.359(2) 0.068(2)
H9 H 1.406(5) 0.447(3) 0.104(3)
H10 H 1.255(4) 0.246(3) 0.054(2)
H11 H 1.219(5) 0.344(3) 0.001(3)
H12 H 1.016(5) 0.4087(19) 0.1329(18)
H13 H 0.911(5) 0.311(2) 0.101(2)
H14 H 0.970(5) 0.2982(19) 0.2659(19)
H15 H 1.099(4) 0.218(2) 0.2229(19)
H16 H 1.344(5) 0.477(2) 0.340(2)
H17 H 1.210(6) 0.491(3) 0.255(3)
H18 H 1.062(6) 0.431(3) 0.448(2)
H19 H 0.853(6) 0.535(3) 0.310(3)
H20 H 0.763(7) 0.512(3) 0.397(3)
loop_
_geom_bond_atom_site_label_1
_geom_bond_atom_site_label_2
_geom_bond_site_symmetry_1
_geom_bond_site_symmetry_2
N1 C1 1_555 1_555
C1 C2 1_555 1_555
C2 C3 1_555 1_555
C3 C4 1_555 1_555
C4 C5 1_555 1_555
C5 C6 1_555 1_555
C6 C7 1_555 1_555
C7 C8 1_555 1_555
C8 N1 1_555 1_555
C9 C8 1_555 1_555
C10 C9 1_555 1_555
C11 C10 1_555 1_555
H1 N1 1_555 1_555
H2 N1 1_555 1_555
H3 C1 1_555 1_555
H4 C1 1_555 1_555
H5 C2 1_555 1_555
H6 C2 1_555 1_555
H7 C3 1_555 1_555
H8 C4 1_555 1_555
H9 C4 1_555 1_555
H10 C5 1_555 1_555
H11 C5 1_555 1_555
H12 C6 1_555 1_555
H13 C6 1_555 1_555
H14 C7 1_555 1_555
H15 C7 1_555 1_555
H16 C9 1_555 1_555
H17 C9 1_555 1_555
H18 C10 1_555 1_555
H19 C11 1_555 1_555
H20 C11 1_555 1_555
C3 C8 1_555 1_555

#END
