
#######################################################################
#
#                 Cambridge Crystallographic Data Centre
#                                CCDC 
#
#######################################################################
#
# If this CIF has been generated from an entry in the Cambridge 
# Structural Database, then it will include bibliographic, chemical, 
# crystal, experimental, refinement or atomic coordinate data resulting 
# from the CCDC's data processing and validation procedures.
#
#######################################################################

data_ZUKXIO
_chemical_formula_moiety         'C15 H20 O4'
_chemical_name_systematic        't-butyl 3-methoxy-2-(3-methoxyphenyl)acrylate'
_symmetry_cell_setting           monoclinic
_symmetry_space_group_name_H-M   'P 21/n'
_symmetry_Int_Tables_number      14
_space_group_name_Hall           '-P 2yn'
loop_
_symmetry_equiv_pos_site_id
_symmetry_equiv_pos_as_xyz
1 x,y,z
2 1/2-x,1/2+y,1/2-z
3 -x,-y,-z
4 1/2+x,1/2-y,1/2+z
_cell_length_a                   9.4110(6)
_cell_length_b                   7.6061(5)
_cell_length_c                   20.4195(14)
_cell_angle_alpha                90
_cell_angle_beta                 102.196(2)
_cell_angle_gamma                90
_cell_volume                     1428.66
_exptl_crystal_colour            colorless
_exptl_crystal_description       block
_cell_formula_units_Z            4
loop_
_atom_site_label
_atom_site_type_symbol
_atom_site_fract_x
_atom_site_fract_y
_atom_site_fract_z
C1 C 0.25507(13) 1.40042(15) 0.91216(7)
H1 H 0.1792 1.3908 0.8713
H2 H 0.3134 1.506 0.9097
H3 H 0.2099 1.4085 0.9511
C2 C 0.35224(12) 1.23924(13) 0.91888(6)
C3 C 0.47448(13) 1.25403(16) 0.98030(7)
H4 H 0.4335 1.2725 1.0201
H5 H 0.5371 1.3536 0.9749
H6 H 0.5319 1.1455 0.9856
C4 C 0.41396(15) 1.20565(17) 0.85689(7)
H7 H 0.469 1.0953 0.8624
H8 H 0.4785 1.3027 0.8509
H9 H 0.3342 1.1973 0.8175
C5 C 0.15163(12) 1.02781(14) 0.89113(5)
C6 C 0.07692(11) 0.88034(13) 0.91709(5)
C7 C 0.12297(12) 0.82835(14) 0.98105(6)
H10 H 0.2044 0.886 1.0079
C8 C 0.12864(14) 0.65704(16) 1.07670(6)
H11 H 0.2301 0.6244 1.0785
H12 H 0.078 0.5586 1.0927
H13 H 0.1253 0.7599 1.1052
C9 C -0.05049(12) 0.80253(13) 0.87015(5)
C10 C -0.03428(13) 0.72585(15) 0.80986(6)
H14 H 0.0589 0.7213 0.7989
C11 C -0.15441(13) 0.65646(15) 0.76606(6)
H15 H -0.1418 0.6018 0.7258
C12 C -0.29223(12) 0.66523(15) 0.77980(6)
H16 H -0.3739 0.6191 0.7492
C13 C -0.30846(12) 0.74308(14) 0.83944(6)
C14 C -0.18790(12) 0.80881(14) 0.88464(5)
H17 H -0.2001 0.8584 0.9258
C15 C -0.56793(13) 0.73365(17) 0.80842(7)
H18 H -0.5651 0.806 0.769
H19 H -0.6531 0.7658 0.8264
H20 H -0.5741 0.6093 0.7956
O1 O 0.27151(8) 1.08324(10) 0.93457(4)
O2 O 0.10774(10) 1.09189(12) 0.83625(4)
O3 O 0.05872(9) 0.69849(11) 1.00858(4)
O4 O -0.43889(9) 0.76271(13) 0.85838(4)
loop_
_geom_bond_atom_site_label_1
_geom_bond_atom_site_label_2
_geom_bond_site_symmetry_1
_geom_bond_site_symmetry_2
C1 H1 1_555 1_555
H2 C1 1_555 1_555
H3 C1 1_555 1_555
C2 C1 1_555 1_555
C3 C2 1_555 1_555
H4 C3 1_555 1_555
H5 C3 1_555 1_555
H6 C3 1_555 1_555
C4 C2 1_555 1_555
H7 C4 1_555 1_555
H8 C4 1_555 1_555
H9 C4 1_555 1_555
C5 C6 1_555 1_555
C6 C7 1_555 1_555
C7 H10 1_555 1_555
C8 H11 1_555 1_555
H12 C8 1_555 1_555
H13 C8 1_555 1_555
C9 C6 1_555 1_555
C10 C9 1_555 1_555
H14 C10 1_555 1_555
C11 C10 1_555 1_555
H15 C11 1_555 1_555
C12 C11 1_555 1_555
H16 C12 1_555 1_555
C13 C12 1_555 1_555
C14 C9 1_555 1_555
H17 C14 1_555 1_555
C15 H18 1_555 1_555
H19 C15 1_555 1_555
H20 C15 1_555 1_555
O1 C2 1_555 1_555
O2 C5 1_555 1_555
O3 C7 1_555 1_555
O4 C13 1_555 1_555
C5 O1 1_555 1_555
C8 O3 1_555 1_555
C13 C14 1_555 1_555
C15 O4 1_555 1_555

#END
