
#######################################################################
#
#                 Cambridge Crystallographic Data Centre
#                                CCDC 
#
#######################################################################
#
# If this CIF has been generated from an entry in the Cambridge 
# Structural Database, then it will include bibliographic, chemical, 
# crystal, experimental, refinement or atomic coordinate data resulting 
# from the CCDC's data processing and validation procedures.
#
#######################################################################

data_ZUKXUA
_chemical_formula_moiety         'C17 H18 Cl1 N1 O4'
_chemical_name_systematic        
N-(4-chlorophenyl)-2,3-dihydroxy-2-(3-methoxyphenyl)butanamide
_symmetry_cell_setting           orthorhombic
_symmetry_space_group_name_H-M   'P 21 21 21'
_symmetry_Int_Tables_number      19
_space_group_name_Hall           'P 2ac 2ab'
loop_
_symmetry_equiv_pos_site_id
_symmetry_equiv_pos_as_xyz
1 x,y,z
2 1/2-x,-y,1/2+z
3 -x,1/2+y,1/2-z
4 1/2+x,1/2-y,-z
_cell_length_a                   6.2685(2)
_cell_length_b                   13.9005(5)
_cell_length_c                   18.6052(5)
_cell_angle_alpha                90
_cell_angle_beta                 90
_cell_angle_gamma                90
_cell_volume                     1621.17
_exptl_crystal_colour            colorless
_exptl_crystal_description       block
_cell_formula_units_Z            4
loop_
_atom_site_label
_atom_site_type_symbol
_atom_site_fract_x
_atom_site_fract_y
_atom_site_fract_z
C1 C 0.4330(3) 0.66761(14) 0.59503(10)
C2 C 0.4448(3) 0.59594(13) 0.53156(10)
C3 C 0.5425(3) 0.76375(14) 0.57662(10)
H1 H 0.6986 0.751 0.5708
C4 C 0.5156(3) 0.83754(14) 0.63610(11)
H2 H 0.5912 0.8967 0.6231
H3 H 0.5745 0.8119 0.681
H4 H 0.3636 0.8516 0.6426
C5 C 0.5504(3) 0.61968(13) 0.65730(10)
C6 C 0.7446(3) 0.57496(13) 0.64358(11)
H5 H 0.8025 0.5765 0.5964
C7 C 0.8551(3) 0.52803(14) 0.69808(11)
C8 C 1.1381(4) 0.42066(17) 0.72807(13)
H6 H 1.1864 0.4589 0.7692
H7 H 1.2609 0.3887 0.7058
H8 H 1.0358 0.3721 0.7444
C9 C 0.7757(3) 0.52753(15) 0.76755(11)
H9 H 0.8508 0.4959 0.8051
C10 C 0.5832(3) 0.57441(15) 0.78121(11)
H10 H 0.5286 0.5752 0.8288
C11 C 0.4694(3) 0.61988(15) 0.72715(11)
H11 H 0.3378 0.6508 0.7375
C12 C 0.2683(3) 0.44548(13) 0.49048(11)
C13 C 0.0826(3) 0.39120(14) 0.50031(11)
H12 H -0.0186 0.4101 0.5356
C14 C 0.0454(3) 0.30990(15) 0.45877(11)
H13 H -0.0806 0.273 0.4655
C15 C 0.1933(3) 0.28325(14) 0.40768(11)
C16 C 0.3766(3) 0.33618(14) 0.39665(11)
H14 H 0.4761 0.3171 0.3609
C17 C 0.4153(3) 0.41778(15) 0.43815(11)
H15 H 0.5413 0.4544 0.4308
Cl1 Cl 0.14979(8) 0.17945(4) 0.35729(3)
N1 N 0.2969(2) 0.52538(12) 0.53600(9)
H16 H 0.2067 0.53 0.5721
O1 O 0.5826(2) 0.60023(10) 0.48447(7)
O2 O 0.2169(2) 0.68183(11) 0.61558(7)
H17 H 0.1438 0.6952 0.5791
O3 O 0.4642(2) 0.80093(10) 0.50992(7)
H18 H 0.3476 0.8293 0.5169
O4 O 1.0379(2) 0.48227(11) 0.67658(8)
loop_
_geom_bond_atom_site_label_1
_geom_bond_atom_site_label_2
_geom_bond_site_symmetry_1
_geom_bond_site_symmetry_2
C1 C2 1_555 1_555
C2 N1 1_555 1_555
C3 C1 1_555 1_555
H1 C3 1_555 1_555
C4 C3 1_555 1_555
H2 C4 1_555 1_555
H3 C4 1_555 1_555
H4 C4 1_555 1_555
C5 C1 1_555 1_555
C6 C5 1_555 1_555
H5 C6 1_555 1_555
C7 C6 1_555 1_555
C8 H6 1_555 1_555
H7 C8 1_555 1_555
H8 C8 1_555 1_555
C9 C7 1_555 1_555
H9 C9 1_555 1_555
C10 C9 1_555 1_555
H10 C10 1_555 1_555
C11 C5 1_555 1_555
H11 C11 1_555 1_555
C12 C13 1_555 1_555
C13 H12 1_555 1_555
C14 C13 1_555 1_555
H13 C14 1_555 1_555
C15 C14 1_555 1_555
C16 C15 1_555 1_555
H14 C16 1_555 1_555
C17 C12 1_555 1_555
H15 C17 1_555 1_555
Cl1 C15 1_555 1_555
N1 C12 1_555 1_555
H16 N1 1_555 1_555
O1 C2 1_555 1_555
O2 C1 1_555 1_555
H17 O2 1_555 1_555
O3 C3 1_555 1_555
H18 O3 1_555 1_555
O4 C7 1_555 1_555
C8 O4 1_555 1_555
C10 C11 1_555 1_555
C16 C17 1_555 1_555

#END
