
#######################################################################
#
#                 Cambridge Crystallographic Data Centre
#                                CCDC 
#
#######################################################################
#
# If this CIF has been generated from an entry in the Cambridge 
# Structural Database, then it will include bibliographic, chemical, 
# crystal, experimental, refinement or atomic coordinate data resulting 
# from the CCDC's data processing and validation procedures.
#
#######################################################################

data_ZULBEP
_chemical_formula_moiety         'C21 H21 B1 F2 N2 O2'
_chemical_name_systematic        
5,5-difluoro-10-(4-methoxyphenyl)-1,3,7,9-tetramethyl-5H-dipyrrolo[1,2-c:2',1'-f][1,3,2]diazaborinine-2-carbaldehyde
_symmetry_cell_setting           monoclinic
_symmetry_space_group_name_H-M   'P 21/n'
_symmetry_Int_Tables_number      14
_space_group_name_Hall           '-P 2yn'
loop_
_symmetry_equiv_pos_site_id
_symmetry_equiv_pos_as_xyz
1 x,y,z
2 1/2-x,1/2+y,1/2-z
3 -x,-y,-z
4 1/2+x,1/2-y,1/2+z
_cell_length_a                   10.9729(17)
_cell_length_b                   13.258(2)
_cell_length_c                   13.822(2)
_cell_angle_alpha                90
_cell_angle_beta                 105.060(2)
_cell_angle_gamma                90
_cell_volume                     1941.74
_exptl_crystal_colour            purple
_exptl_crystal_description       needle
_cell_formula_units_Z            4
loop_
_atom_site_label
_atom_site_type_symbol
_atom_site_fract_x
_atom_site_fract_y
_atom_site_fract_z
B1 B 0.6016(2) 0.64892(17) 0.04640(16)
C1 C 0.5852(2) 0.4997(2) 0.38942(18)
H1 H 0.6546 0.4692 0.4375
H2 H 0.5183 0.4514 0.3687
H3 H 0.5552 0.5568 0.4193
F1 F 0.65123(10) 0.74595(9) 0.05643(10)
N1 N 0.63830(14) 0.59580(11) 0.14856(11)
C2 C 0.0682(2) 0.40196(16) 0.42821(17)
H4 H 0.0194 0.3787 0.3640
H5 H 0.0175 0.3995 0.4753
H6 H 0.1409 0.3596 0.4512
C3 C 0.62824(19) 0.53373(17) 0.29980(15)
F2 F 0.64820(11) 0.59667(10) -0.02202(8)
N2 N 0.45639(13) 0.65334(11) 0.01301(10)
O1 O 0.04406(15) 0.69166(13) -0.16987(12)
C4 C 0.74954(19) 0.52954(17) 0.29216(16)
H7 H 0.8181 0.5051 0.3411
C5 C 0.75459(17) 0.56781(15) 0.19923(15)
C6 C 0.86676(18) 0.57785(18) 0.15893(17)
H8 H 0.8649 0.5262 0.1099
H9 H 0.9420 0.5709 0.2125
H10 H 0.8660 0.6429 0.1283
C7 C 0.55512(17) 0.57560(14) 0.20790(13)
C8 C 0.42712(17) 0.59485(13) 0.17211(13)
C9 C 0.34111(16) 0.56990(15) 0.23630(13)
C10 C 0.31639(18) 0.63910(15) 0.30398(14)
H11 H 0.3531 0.7028 0.3090
C11 C 0.23832(18) 0.61465(14) 0.36363(14)
H12 H 0.2221 0.6619 0.4084
C12 C 0.18385(16) 0.52007(14) 0.35725(13)
O2 O 0.10774(13) 0.50290(10) 0.41948(10)
C13 C 0.20693(19) 0.45102(16) 0.28992(15)
H13 H 0.1703 0.3873 0.2849
C14 C 0.28474(19) 0.47667(16) 0.22985(15)
H14 H 0.2994 0.4299 0.1840
C15 C 0.37650(16) 0.63257(14) 0.07498(13)
C16 C 0.25162(17) 0.64940(15) 0.01987(14)
C17 C 0.13158(19) 0.6402(2) 0.05221(17)
H15 H 0.1109 0.5702 0.0561
H16 H 0.0644 0.6735 0.0044
H17 H 0.1426 0.6709 0.1168
C18 C 0.25784(17) 0.67865(14) -0.07677(14)
C19 C 0.1555(2) 0.69918(16) -0.16404(17)
H18 H 0.1775 0.7203 -0.2214
C20 C 0.38576(18) 0.68117(14) -0.07706(13)
C21 C 0.4413(2) 0.71179(19) -0.16007(15)
H19 H 0.4889 0.7728 -0.1420
H20 H 0.3748 0.7231 -0.2197
H21 H 0.4958 0.6593 -0.1720
loop_
_geom_bond_atom_site_label_1
_geom_bond_atom_site_label_2
_geom_bond_site_symmetry_1
_geom_bond_site_symmetry_2
B1 F1 1_555 1_555
C1 H1 1_555 1_555
H2 C1 1_555 1_555
H3 C1 1_555 1_555
N1 B1 1_555 1_555
C2 H4 1_555 1_555
H5 C2 1_555 1_555
H6 C2 1_555 1_555
C3 C1 1_555 1_555
F2 B1 1_555 1_555
N2 B1 1_555 1_555
O1 C19 1_555 1_555
C4 C3 1_555 1_555
H7 C4 1_555 1_555
C5 N1 1_555 1_555
C6 C5 1_555 1_555
H8 C6 1_555 1_555
H9 C6 1_555 1_555
H10 C6 1_555 1_555
C7 N1 1_555 1_555
C8 C7 1_555 1_555
C9 C8 1_555 1_555
C10 C9 1_555 1_555
H11 C10 1_555 1_555
C11 C10 1_555 1_555
H12 C11 1_555 1_555
C12 C11 1_555 1_555
O2 C2 1_555 1_555
C13 C12 1_555 1_555
H13 C13 1_555 1_555
C14 C9 1_555 1_555
H14 C14 1_555 1_555
C15 N2 1_555 1_555
C16 C15 1_555 1_555
C17 C16 1_555 1_555
H15 C17 1_555 1_555
H16 C17 1_555 1_555
H17 C17 1_555 1_555
C18 C16 1_555 1_555
C19 C18 1_555 1_555
H18 C19 1_555 1_555
C20 N2 1_555 1_555
C21 C20 1_555 1_555
H19 C21 1_555 1_555
H20 C21 1_555 1_555
H21 C21 1_555 1_555
C3 C7 1_555 1_555
C4 C5 1_555 1_555
C8 C15 1_555 1_555
C12 O2 1_555 1_555
C13 C14 1_555 1_555
C18 C20 1_555 1_555

#END
