
#######################################################################
#
#                 Cambridge Crystallographic Data Centre
#                                CCDC 
#
#######################################################################
#
# If this CIF has been generated from an entry in the Cambridge 
# Structural Database, then it will include bibliographic, chemical, 
# crystal, experimental, refinement or atomic coordinate data resulting 
# from the CCDC's data processing and validation procedures.
#
#######################################################################

data_ZULHAP
_chemical_formula_moiety         'C15 H17 N2 O2 P1 S1'
_chemical_name_systematic        
1-Acetyl-2-(phenyl(4-tolyl)thiophosphonyl)hydrazine
_symmetry_cell_setting           orthorhombic
_symmetry_space_group_name_H-M   'P b c a'
_symmetry_Int_Tables_number      61
_space_group_name_Hall           '-P 2ac 2ab'
loop_
_symmetry_equiv_pos_site_id
_symmetry_equiv_pos_as_xyz
1 x,y,z
2 1/2-x,-y,1/2+z
3 1/2+x,1/2-y,-z
4 -x,1/2+y,1/2-z
5 -x,-y,-z
6 1/2+x,y,1/2-z
7 1/2-x,1/2+y,z
8 x,1/2-y,1/2+z
_cell_length_a                   9.255(1)
_cell_length_b                   17.189(8)
_cell_length_c                   20.446(4)
_cell_angle_alpha                90
_cell_angle_beta                 90
_cell_angle_gamma                90
_cell_volume                     3252.64
_cell_formula_units_Z            8
loop_
_atom_site_label
_atom_site_type_symbol
_atom_site_fract_x
_atom_site_fract_y
_atom_site_fract_z
P1 P 0.3592(2) 0.09268(6) 0.65263(6)
S1 S 0.2967(2) -0.01311(7) 0.66101(7)
O1 O 0.4966(4) 0.1090(2) 0.6067(2)
O2 O 0.2476(6) 0.2374(4) 0.7790(3)
N1 N 0.4126(6) 0.1250(2) 0.7250(3)
N2 N 0.4545(5) 0.2039(2) 0.7304(2)
C1 C 0.3679(6) 0.2553(3) 0.7594(3)
C2 C 0.4302(8) 0.3346(3) 0.7668(4)
C3 C 0.9570(1) -0.1053(6) 0.5783(5)
C4 C 0.6109(6) 0.0567(3) 0.6025(3)
C5 C 0.6546(7) 0.0338(3) 0.5400(3)
C6 C 0.7664(8) -0.0160(5) 0.5328(3)
C7 C 0.8383(7) -0.0464(4) 0.5862(3)
C8 C 0.7962(7) -0.0205(3) 0.6478(3)
C9 C 0.6848(6) 0.0289(3) 0.6565(3)
C10 C 0.2323(6) 0.1595(6) 0.6166(2)
C11 C 0.0886(7) 0.1427(4) 0.6184(3)
C12 C -0.0077(9) 0.1947(6) 0.5924(4)
C13 C 0.035(1) 0.2647(6) 0.5668(5)
C14 C 0.180(1) 0.2814(5) 0.5644(5)
C15 C 0.2793(8) 0.2301(3) 0.5889(4)
loop_
_geom_bond_atom_site_label_1
_geom_bond_atom_site_label_2
_geom_bond_site_symmetry_1
_geom_bond_site_symmetry_2
P1 S1 1_555 1_555
O1 P1 1_555 1_555
O2 C1 1_555 1_555
N1 P1 1_555 1_555
N2 N1 1_555 1_555
C1 N2 1_555 1_555
C2 C1 1_555 1_555
C3 C7 1_555 1_555
C4 O1 1_555 1_555
C5 C4 1_555 1_555
C6 C5 1_555 1_555
C7 C6 1_555 1_555
C8 C7 1_555 1_555
C9 C4 1_555 1_555
C10 P1 1_555 1_555
C11 C10 1_555 1_555
C12 C11 1_555 1_555
C13 C12 1_555 1_555
C14 C13 1_555 1_555
C15 C10 1_555 1_555
C8 C9 1_555 1_555
C14 C15 1_555 1_555

#END
