
#######################################################################
#
#                 Cambridge Crystallographic Data Centre
#                                CCDC 
#
#######################################################################
#
# If this CIF has been generated from an entry in the Cambridge 
# Structural Database, then it will include bibliographic, chemical, 
# crystal, experimental, refinement or atomic coordinate data resulting 
# from the CCDC's data processing and validation procedures.
#
#######################################################################

data_ZULHIX10
_chemical_formula_moiety         'C26 H32 Ba1 Cl2 N4 O4 S2'
_chemical_name_systematic        
(N,N'-bis(4-Chlorophenyl)-1,10-diaza-18-crown-6)-bis(isothiocyanato)-barium
_symmetry_cell_setting           monoclinic
_symmetry_space_group_name_H-M   'P 21/c'
_symmetry_Int_Tables_number      14
_space_group_name_Hall           '-P 2ybc'
loop_
_symmetry_equiv_pos_site_id
_symmetry_equiv_pos_as_xyz
1 x,y,z
2 -x,1/2+y,1/2-z
3 -x,-y,-z
4 x,1/2-y,1/2+z
_cell_length_a                   8.801(1)
_cell_length_b                   11.653(9)
_cell_length_c                   15.756(3)
_cell_angle_alpha                90
_cell_angle_beta                 105.96(3)
_cell_angle_gamma                90
_cell_volume                     1553.62
_cell_formula_units_Z            2
loop_
_atom_site_label
_atom_site_type_symbol
_atom_site_fract_x
_atom_site_fract_y
_atom_site_fract_z
Ba1 Ba 0.5000 0.5000 0.5000
Cl1 Cl 0.8039(2) 0.5451(2) 1.0089(1)
S1 S 0.9536(2) 0.7787(2) 0.7036(1)
O1 O 0.2402(5) 0.5630(4) 0.5581(3)
O2 O 0.3282(5) 0.7019(4) 0.4401(3)
N1 N 0.4449(5) 0.3748(5) 0.6538(3)
N2 N 0.7226(8) 0.6527(5) 0.5904(4)
C1 C 0.8224(8) 0.7030(6) 0.6392(4)
C2 C 0.2695(7) 0.3869(6) 0.6354(4)
C3 C 0.2144(6) 0.5093(7) 0.6349(4)
C4 C 0.1809(8) 0.6779(6) 0.5465(5)
C5 C 0.1706(7) 0.7124(6) 0.4522(4)
C6 C 0.3469(8) 0.7613(6) 0.3636(4)
C7 C 0.4849(7) 0.2528(6) 0.6397(4)
C8 C 0.5302(7) 0.4142(5) 0.7412(4)
C9 C 0.6734(7) 0.4722(5) 0.7516(4)
C10 C 0.7624(7) 0.5105(5) 0.8346(4)
C11 C 0.6999(7) 0.4906(6) 0.9055(4)
C12 C 0.5585(7) 0.4328(6) 0.8969(4)
C13 C 0.4741(7) 0.3940(6) 0.8146(4)
O1B O 0.7598(5) 0.4370(4) 0.4419(3)
C3B C 0.7856(6) 0.4907(7) 0.3651(4)
C2B C 0.7305(7) 0.6131(6) 0.3646(4)
N1B N 0.5551(5) 0.6252(5) 0.3462(3)
C7B C 0.5151(7) 0.7472(6) 0.3603(4)
C8B C 0.4698(7) 0.5858(5) 0.2588(4)
C9B C 0.3266(7) 0.5278(5) 0.2484(4)
C10B C 0.2376(7) 0.4895(5) 0.1654(4)
C11B C 0.3001(7) 0.5094(6) 0.0945(4)
Cl1B Cl 0.1961(2) 0.4549(2) -0.0089(1)
C12B C 0.4415(7) 0.5672(6) 0.1031(4)
C13B C 0.5259(7) 0.6060(6) 0.1854(4)
O2B O 0.6718(5) 0.2981(4) 0.5599(3)
C5B C 0.8294(7) 0.2876(6) 0.5478(4)
C4B C 0.8191(8) 0.3221(6) 0.4535(5)
C6B C 0.6531(8) 0.2387(6) 0.6364(4)
N2B N 0.2774(8) 0.3473(5) 0.4096(4)
C1B C 0.1776(8) 0.2970(6) 0.3608(4)
S1B S 0.0464(2) 0.2213(2) 0.2964(1)
loop_
_geom_bond_atom_site_label_1
_geom_bond_atom_site_label_2
_geom_bond_site_symmetry_1
_geom_bond_site_symmetry_2
Ba1 O1 1_555 1_555
Cl1 C11 1_555 1_555
S1 C1 1_555 1_555
O1 C3 1_555 1_555
O2 Ba1 1_555 1_555
N1 Ba1 1_555 1_555
N2 Ba1 1_555 1_555
C1 N2 1_555 1_555
C2 N1 1_555 1_555
C3 C2 1_555 1_555
C4 O1 1_555 1_555
C5 O2 1_555 1_555
C6 O2 1_555 1_555
C7 N1 1_555 1_555
C8 N1 1_555 1_555
C9 C8 1_555 1_555
C10 C9 1_555 1_555
C11 C10 1_555 1_555
C12 C11 1_555 1_555
C13 C8 1_555 1_555
O1B Ba1 1_555 1_555
C3B O1B 1_555 1_555
C2B C3B 1_555 1_555
N1B Ba1 1_555 1_555
C7B C6 1_555 1_555
C8B N1B 1_555 1_555
C9B C8B 1_555 1_555
C10B C9B 1_555 1_555
C11B C10B 1_555 1_555
Cl1B C11B 1_555 1_555
C12B C11B 1_555 1_555
C13B C8B 1_555 1_555
O2B Ba1 1_555 1_555
C5B O2B 1_555 1_555
C4B O1B 1_555 1_555
C6B C7 1_555 1_555
N2B Ba1 1_555 1_555
C1B N2B 1_555 1_555
S1B C1B 1_555 1_555
C4 C5 1_555 1_555
C12 C13 1_555 1_555
C2B N1B 1_555 1_555
N1B C7B 1_555 1_555
C12B C13B 1_555 1_555
O2B C6B 1_555 1_555
C5B C4B 1_555 1_555

#END
