
#######################################################################
#
#                 Cambridge Crystallographic Data Centre
#                                CCDC 
#
#######################################################################
#
# If this CIF has been generated from an entry in the Cambridge 
# Structural Database, then it will include bibliographic, chemical, 
# crystal, experimental, refinement or atomic coordinate data resulting 
# from the CCDC's data processing and validation procedures.
#
#######################################################################

data_ZULLAV
_chemical_name_common            'Sodium (+)-SCH 351448 dichloromethane solvate'
_chemical_formula_moiety         'C64 H95 Na1 O16,2(C1 H2 Cl2)'
_chemical_name_systematic        
"(2,2'-((9,29-Dihydroxy-14,34-dimethyl-11,31-dioxo-12,32,41,42-tetraoxapentacyclo[35.3.1.1^17,21^.0^5,10^.0^25,30^]dotetraconta-5,7,9,25,27,29-hexaene-13,33-diyl)bis((2-hydroxypropane-3,1-diyl)tetrahydro-2H-pyran-6,2-diyl))bis(2-methylpropanoato))-sodium dichloromethane solvate"
_symmetry_cell_setting           monoclinic
_symmetry_space_group_name_H-M   'P 21'
_symmetry_Int_Tables_number      4
_space_group_name_Hall           'P 2yb'
loop_
_symmetry_equiv_pos_site_id
_symmetry_equiv_pos_as_xyz
1 x,y,z
2 -x,1/2+y,-z
_cell_length_a                   13.427(3)
_cell_length_b                   20.167(4)
_cell_length_c                   13.818(3)
_cell_angle_alpha                90
_cell_angle_beta                 112.033(4)
_cell_angle_gamma                90
_cell_volume                     3468.41
_exptl_crystal_colour            colorless
_exptl_crystal_description       plate
_cell_formula_units_Z            2
loop_
_atom_site_label
_atom_site_type_symbol
_atom_site_fract_x
_atom_site_fract_y
_atom_site_fract_z
Na1 Na 0.31214(15) 0.84249(9) 0.32452(13)
O1 O 0.4473(3) 0.77075(17) 0.3048(3)
O2 O 0.4806(3) 0.80558(19) 0.1690(3)
O3 O 0.3770(2) 0.63907(16) 0.2409(2)
O4 O 0.2716(3) 0.71752(18) 0.3407(3)
H1 H 0.317(4) 0.708(3) 0.321(4)
O5 O 0.1792(2) 0.76188(17) 0.7774(2)
O6 O 0.4099(2) 0.88230(16) 0.6427(2)
O7 O 0.4109(3) 0.82183(18) 0.5074(3)
O8 O 0.5843(3) 0.7587(2) 0.5254(3)
H2 H 0.514(4) 0.797(3) 0.476(4)
O9 O 0.3997(3) 0.90952(17) 0.2091(3)
O10 O 0.2614(3) 0.9569(2) 0.0852(3)
O11 O 0.4501(2) 1.04094(16) 0.2964(2)
O12 O 0.3426(3) 0.95564(18) 0.3837(3)
H3 H 0.355(4) 0.968(2) 0.335(4)
O13 O -0.1038(2) 0.89571(18) 0.4889(3)
O14 O 0.0236(2) 0.76596(16) 0.2868(2)
O15 O 0.1303(3) 0.85633(17) 0.3354(2)
O16 O 0.1724(3) 0.86431(19) 0.1535(3)
H4 H 0.201(4) 0.886(3) 0.122(4)
C1 C 0.4829(4) 0.7599(3) 0.2385(4)
C2 C 0.5296(4) 0.6925(3) 0.2235(4)
C3 C 0.5926(4) 0.7013(3) 0.1504(4)
H5 H 0.6451 0.7372 0.1770
H6 H 0.5424 0.7124 0.0800
H7 H 0.6300 0.6600 0.1483
C4 C 0.6034(4) 0.6694(3) 0.3316(4)
H8 H 0.6460 0.6315 0.3248
H9 H 0.5601 0.6561 0.3718
H10 H 0.6515 0.7057 0.3677
C5 C 0.4335(4) 0.6464(3) 0.1709(4)
H11 H 0.3843 0.6681 0.1053
C6 C 0.4626(5) 0.5776(3) 0.1435(5)
H12 H 0.4972 0.5819 0.0920
H13 H 0.5149 0.5566 0.2071
C7 C 0.3654(5) 0.5340(3) 0.0993(6)
H14 H 0.3881 0.4885 0.0898
H15 H 0.3183 0.5510 0.0301
C8 C 0.3028(5) 0.5319(3) 0.1717(5)
H16 H 0.2348 0.5072 0.1376
H17 H 0.3456 0.5085 0.2371
C9 C 0.2785(4) 0.6021(3) 0.1965(4)
H18 H 0.2311 0.6242 0.1305
C10 C 0.2249(4) 0.6048(3) 0.2748(4)
H19 H 0.1631 0.5739 0.2517
H20 H 0.2765 0.5883 0.3426
C11 C 0.1855(4) 0.6719(2) 0.2920(4)
H21 H 0.1385 0.6904 0.2228
C12 C 0.1199(4) 0.6674(2) 0.3614(4)
H22 H 0.0554 0.6399 0.3257
H23 H 0.1635 0.6446 0.4272
C13 C 0.0844(4) 0.7340(2) 0.3879(3)
H24 H 0.1495 0.7613 0.4263
C14 C 0.0121(3) 0.7320(3) 0.4513(3)
H25 H -0.0162 0.7779 0.4508
C15 C -0.0850(4) 0.6866(3) 0.4044(4)
H26 H -0.0612 0.6403 0.4133
H27 H -0.1210 0.6964 0.3298
H28 H -0.1350 0.6940 0.4398
C16 C 0.0790(4) 0.7147(3) 0.5657(4)
H29 H 0.1004 0.6675 0.5700
H30 H 0.1454 0.7418 0.5896
C17 C 0.0192(4) 0.7266(3) 0.6390(4)
H31 H -0.0106 0.7721 0.6277
H32 H -0.0418 0.6952 0.6210
C18 C 0.0892(4) 0.7183(3) 0.7530(4)
H33 H 0.1164 0.6717 0.7643
C19 C 0.0284(4) 0.7314(3) 0.8252(4)
H34 H -0.0047 0.7760 0.8106
H35 H -0.0300 0.6984 0.8112
C20 C 0.1032(4) 0.7272(3) 0.9393(4)
H36 H 0.1271 0.6808 0.9570
H37 H 0.0644 0.7412 0.9842
C21 C 0.2005(4) 0.7717(3) 0.9594(4)
H38 H 0.2522 0.7652 1.0318
H39 H 0.1776 0.8187 0.9513
C22 C 0.2549(4) 0.7555(3) 0.8826(4)
H40 H 0.2813 0.7087 0.8943
C23 C 0.3488(4) 0.8008(3) 0.8941(4)
H41 H 0.3979 0.8017 0.9683
H42 H 0.3215 0.8464 0.8741
C24 C 0.4118(4) 0.7793(3) 0.8274(4)
H43 H 0.3632 0.7799 0.7530
H44 H 0.4369 0.7332 0.8457
C25 C 0.5086(4) 0.8238(3) 0.8421(4)
H45 H 0.4833 0.8690 0.8169
H46 H 0.5539 0.8267 0.9173
C26 C 0.5752(4) 0.7972(3) 0.7832(4)
C27 C 0.6683(4) 0.7639(3) 0.8422(4)
H47 H 0.6883 0.7617 0.9158
C28 C 0.7336(4) 0.7336(4) 0.7971(5)
H48 H 0.7981 0.7121 0.8398
C29 C 0.7048(4) 0.7348(3) 0.6929(5)
H49 H 0.7503 0.7149 0.6626
C30 C 0.6091(4) 0.7649(3) 0.6280(4)
C31 C 0.5444(4) 0.7983(3) 0.6734(4)
C32 C 0.4490(4) 0.8343(2) 0.6009(4)
C33 C 0.3602(5) 0.9541(3) 0.1413(4)
C34 C 0.4365(4) 1.0059(3) 0.1267(4)
C35 C 0.5010(5) 0.9705(3) 0.0694(5)
H50 H 0.5557 1.0007 0.0638
H51 H 0.4521 0.9574 -0.0006
H52 H 0.5359 0.9309 0.1089
C36 C 0.3733(4) 1.0633(3) 0.0598(4)
H53 H 0.3369 1.0879 0.0982
H54 H 0.3198 1.0459 -0.0051
H55 H 0.4226 1.0929 0.0433
C37 C 0.5135(4) 1.0284(3) 0.2337(4)
H56 H 0.5644 0.9913 0.2665
C38 C 0.5791(4) 1.0906(3) 0.2336(4)
H57 H 0.6265 1.0813 0.1951
H58 H 0.5297 1.1269 0.1970
C39 C 0.6474(4) 1.1129(3) 0.3446(4)
H59 H 0.7046 1.0798 0.3777
H60 H 0.6820 1.1558 0.3421
C40 C 0.5777(4) 1.1202(3) 0.4094(4)
H61 H 0.6233 1.1304 0.4828
H62 H 0.5260 1.1570 0.3818
C41 C 0.5173(4) 1.0555(2) 0.4042(4)
H63 H 0.5715 1.0191 0.4302
C42 C 0.4465(4) 1.0542(2) 0.4675(4)
H64 H 0.3827 1.0825 0.4325
H65 H 0.4867 1.0735 0.5372
C43 C 0.4087(4) 0.9846(2) 0.4815(4)
H66 H 0.4733 0.9558 0.5147
C44 C 0.3434(4) 0.9851(3) 0.5511(4)
H67 H 0.3859 1.0082 0.6170
H68 H 0.2775 1.0115 0.5159
C45 C 0.3108(4) 0.9179(3) 0.5781(4)
H69 H 0.2730 0.8923 0.5124
C46 C 0.2403(4) 0.9197(3) 0.6440(4)
H70 H 0.2403 0.8738 0.6715
C47 C 0.2868(4) 0.9662(3) 0.7401(4)
H71 H 0.3644 0.9589 0.7739
H72 H 0.2523 0.9564 0.7896
H73 H 0.2731 1.0124 0.7173
C48 C 0.1243(4) 0.9368(3) 0.5787(4)
H74 H 0.0997 0.9099 0.5141
H75 H 0.1195 0.9842 0.5584
C49 C 0.0506(4) 0.9239(3) 0.6387(4)
H76 H 0.0597 0.8771 0.6621
H77 H 0.0749 0.9521 0.7020
C50 C -0.0688(4) 0.9366(3) 0.5790(4)
H78 H -0.0791 0.9841 0.5566
C51 C -0.1349(4) 0.9224(3) 0.6463(4)
H79 H -0.1202 0.8767 0.6742
H80 H -0.1131 0.9534 0.7062
C52 C -0.2552(4) 0.9302(3) 0.5829(4)
H81 H -0.2726 0.9775 0.5660
H82 H -0.2967 0.9144 0.6244
C53 C -0.2863(4) 0.8899(3) 0.4819(4)
H83 H -0.2802 0.8420 0.4988
H84 H -0.3619 0.8993 0.4371
C54 C -0.2142(4) 0.9068(3) 0.4230(4)
H85 H -0.2242 0.9546 0.4022
C55 C -0.2369(4) 0.8648(3) 0.3269(4)
H86 H -0.3140 0.8685 0.2823
H87 H -0.2221 0.8178 0.3482
C56 C -0.1704(4) 0.8843(3) 0.2632(4)
H88 H -0.0936 0.8855 0.3098
H89 H -0.1912 0.9296 0.2352
C57 C -0.1845(4) 0.8368(3) 0.1721(4)
H90 H -0.1684 0.7910 0.1996
H91 H -0.2603 0.8380 0.1229
C58 C -0.1121(4) 0.8540(3) 0.1134(4)
C59 C -0.1585(5) 0.8784(3) 0.0120(4)
H92 H -0.2343 0.8826 -0.0201
C60 C -0.0946(5) 0.8966(3) -0.0420(4)
H93 H -0.1271 0.9121 -0.1118
C61 C 0.0162(5) 0.8925(3) 0.0045(4)
H94 H 0.0594 0.9053 -0.0333
C62 C 0.0639(4) 0.8699(3) 0.1058(4)
C63 C 0.0002(4) 0.8495(2) 0.1613(3)
C64 C 0.0580(4) 0.8251(2) 0.2701(4)
C65 C 0.9136(7) 0.5141(4) 0.7467(7)
H95 H 0.8681 0.4755 0.7133
H96 H 0.9641 0.5003 0.8167
Cl1 Cl 0.8363(3) 0.5760(2) 0.7587(4)
Cl2 Cl 0.9912(5) 0.5411(2) 0.6656(4)
C67 C 0.9144(7) 0.5802(5) 0.0427(6)
H99 H 0.8531 0.5621 -0.0169
H100 H 0.9803 0.5743 0.0275
Cl5 Cl 0.8931(3) 0.66699(17) 0.0566(3)
Cl6 Cl 0.9270(2) 0.53821(14) 0.1521(2)
C66? C 0.9136(7) 0.5141(4) 0.7467(7)
H97? H 0.9191 0.4719 0.7123
H98? H 0.8582 0.5086 0.7773
Cl3? Cl 0.8772(6) 0.5766(3) 0.6568(5)
Cl4? Cl 1.0383(3) 0.5327(2) 0.8460(3)
C68? C 0.9144(7) 0.5802(5) 0.0427(6)
H101? H 0.9019 0.5318 0.0350
H102? H 0.8596 0.6004 -0.0201
Cl7? Cl 0.874(2) 0.604(3) 0.149(3)
Cl8? Cl 0.998(2) 0.5886(19) 0.0318(15)
loop_
_geom_bond_atom_site_label_1
_geom_bond_atom_site_label_2
_geom_bond_site_symmetry_1
_geom_bond_site_symmetry_2
Na1 O1 1_555 1_555
O1 C1 1_555 1_555
O2 C1 1_555 1_555
O3 C5 1_555 1_555
O4 Na1 1_555 1_555
H1 O4 1_555 1_555
O5 C18 1_555 1_555
O6 C32 1_555 1_555
O7 Na1 1_555 1_555
O8 H2 1_555 1_555
O9 Na1 1_555 1_555
O10 C33 1_555 1_555
O11 C37 1_555 1_555
O12 Na1 1_555 1_555
H3 O12 1_555 1_555
O13 C50 1_555 1_555
O14 C13 1_555 1_555
O15 Na1 1_555 1_555
O16 Na1 1_555 1_555
H4 O16 1_555 1_555
C1 C2 1_555 1_555
C2 C3 1_555 1_555
C3 H5 1_555 1_555
H6 C3 1_555 1_555
H7 C3 1_555 1_555
C4 C2 1_555 1_555
H8 C4 1_555 1_555
H9 C4 1_555 1_555
H10 C4 1_555 1_555
C5 C2 1_555 1_555
H11 C5 1_555 1_555
C6 C5 1_555 1_555
H12 C6 1_555 1_555
H13 C6 1_555 1_555
C7 C6 1_555 1_555
H14 C7 1_555 1_555
H15 C7 1_555 1_555
C8 C7 1_555 1_555
H16 C8 1_555 1_555
H17 C8 1_555 1_555
C9 O3 1_555 1_555
H18 C9 1_555 1_555
C10 C9 1_555 1_555
H19 C10 1_555 1_555
H20 C10 1_555 1_555
C11 O4 1_555 1_555
H21 C11 1_555 1_555
C12 C11 1_555 1_555
H22 C12 1_555 1_555
H23 C12 1_555 1_555
C13 C12 1_555 1_555
H24 C13 1_555 1_555
C14 C13 1_555 1_555
H25 C14 1_555 1_555
C15 C14 1_555 1_555
H26 C15 1_555 1_555
H27 C15 1_555 1_555
H28 C15 1_555 1_555
C16 C14 1_555 1_555
H29 C16 1_555 1_555
H30 C16 1_555 1_555
C17 C16 1_555 1_555
H31 C17 1_555 1_555
H32 C17 1_555 1_555
C18 C17 1_555 1_555
H33 C18 1_555 1_555
C19 C18 1_555 1_555
H34 C19 1_555 1_555
H35 C19 1_555 1_555
C20 C19 1_555 1_555
H36 C20 1_555 1_555
H37 C20 1_555 1_555
C21 C20 1_555 1_555
H38 C21 1_555 1_555
H39 C21 1_555 1_555
C22 O5 1_555 1_555
H40 C22 1_555 1_555
C23 C22 1_555 1_555
H41 C23 1_555 1_555
H42 C23 1_555 1_555
C24 C23 1_555 1_555
H43 C24 1_555 1_555
H44 C24 1_555 1_555
C25 C24 1_555 1_555
H45 C25 1_555 1_555
H46 C25 1_555 1_555
C26 C25 1_555 1_555
C27 C26 1_555 1_555
H47 C27 1_555 1_555
C28 C27 1_555 1_555
H48 C28 1_555 1_555
C29 C28 1_555 1_555
H49 C29 1_555 1_555
C30 O8 1_555 1_555
C31 C26 1_555 1_555
C32 O7 1_555 1_555
C33 O9 1_555 1_555
C34 C33 1_555 1_555
C35 C34 1_555 1_555
H50 C35 1_555 1_555
H51 C35 1_555 1_555
H52 C35 1_555 1_555
C36 C34 1_555 1_555
H53 C36 1_555 1_555
H54 C36 1_555 1_555
H55 C36 1_555 1_555
C37 C34 1_555 1_555
H56 C37 1_555 1_555
C38 C37 1_555 1_555
H57 C38 1_555 1_555
H58 C38 1_555 1_555
C39 C38 1_555 1_555
H59 C39 1_555 1_555
H60 C39 1_555 1_555
C40 C39 1_555 1_555
H61 C40 1_555 1_555
H62 C40 1_555 1_555
C41 O11 1_555 1_555
H63 C41 1_555 1_555
C42 C41 1_555 1_555
H64 C42 1_555 1_555
H65 C42 1_555 1_555
C43 O12 1_555 1_555
H66 C43 1_555 1_555
C44 C43 1_555 1_555
H67 C44 1_555 1_555
H68 C44 1_555 1_555
C45 O6 1_555 1_555
H69 C45 1_555 1_555
C46 C45 1_555 1_555
H70 C46 1_555 1_555
C47 C46 1_555 1_555
H71 C47 1_555 1_555
H72 C47 1_555 1_555
H73 C47 1_555 1_555
C48 C46 1_555 1_555
H74 C48 1_555 1_555
H75 C48 1_555 1_555
C49 C48 1_555 1_555
H76 C49 1_555 1_555
H77 C49 1_555 1_555
C50 C49 1_555 1_555
H78 C50 1_555 1_555
C51 C50 1_555 1_555
H79 C51 1_555 1_555
H80 C51 1_555 1_555
C52 C51 1_555 1_555
H81 C52 1_555 1_555
H82 C52 1_555 1_555
C53 C52 1_555 1_555
H83 C53 1_555 1_555
H84 C53 1_555 1_555
C54 O13 1_555 1_555
H85 C54 1_555 1_555
C55 C54 1_555 1_555
H86 C55 1_555 1_555
H87 C55 1_555 1_555
C56 C55 1_555 1_555
H88 C56 1_555 1_555
H89 C56 1_555 1_555
C57 C56 1_555 1_555
H90 C57 1_555 1_555
H91 C57 1_555 1_555
C58 C57 1_555 1_555
C59 C58 1_555 1_555
H92 C59 1_555 1_555
C60 C59 1_555 1_555
H93 C60 1_555 1_555
C61 C60 1_555 1_555
H94 C61 1_555 1_555
C62 O16 1_555 1_555
C63 C58 1_555 1_555
C64 O14 1_555 1_555
C65 H95 1_555 1_555
H96 C65 1_555 1_555
Cl1 C65 1_555 1_555
Cl2 C65 1_555 1_555
C67 H99 1_555 1_555
H100 C67 1_555 1_555
Cl5 C67 1_555 1_555
Cl6 C67 1_555 1_555
O15 C64 1_555 1_555
C8 C9 1_555 1_555
C10 C11 1_555 1_555
C21 C22 1_555 1_555
C29 C30 1_555 1_555
C30 C31 1_555 1_555
C31 C32 1_555 1_555
C40 C41 1_555 1_555
C42 C43 1_555 1_555
C44 C45 1_555 1_555
C53 C54 1_555 1_555
C61 C62 1_555 1_555
C62 C63 1_555 1_555
C63 C64 1_555 1_555

#END
