
#######################################################################
#
#                 Cambridge Crystallographic Data Centre
#                                CCDC 
#
#######################################################################
#
# If this CIF has been generated from an entry in the Cambridge 
# Structural Database, then it will include bibliographic, chemical, 
# crystal, experimental, refinement or atomic coordinate data resulting 
# from the CCDC's data processing and validation procedures.
#
#######################################################################

data_ZULMUO
_chemical_formula_moiety         'C31 H26 N2 O2'
_chemical_name_systematic        
4-(2-(\a-((Methoxybenzylidene)amino)phenyl)-propylidene)-4H-3,1-benzoxazine
_symmetry_cell_setting           triclinic
_symmetry_space_group_name_H-M   'P -1'
_symmetry_Int_Tables_number      2
_space_group_name_Hall           '-P 1'
loop_
_symmetry_equiv_pos_site_id
_symmetry_equiv_pos_as_xyz
1 x,y,z
2 -x,-y,-z
_cell_length_a                   7.156(3)
_cell_length_b                   10.278(5)
_cell_length_c                   16.851(7)
_cell_angle_alpha                95.37(4)
_cell_angle_beta                 94.34(4)
_cell_angle_gamma                108.71(4)
_cell_volume                     1161.37
_exptl_crystal_colour            yellow
_chemical_melting_point          '130-131 deg.C'
_cell_formula_units_Z            2
loop_
_atom_site_label
_atom_site_type_symbol
_atom_site_fract_x
_atom_site_fract_y
_atom_site_fract_z
O1 O 0.7329(9) 0.5688(6) 0.3651(3)
O2 O 0.3403(9) -0.0362(6) 0.3101(3)
N1 N 0.7800(10) 0.7637(7) 0.4594(4)
N2 N 0.3296(11) 0.1386(7) 0.2386(4)
C1 C 0.7566(12) 0.6350(8) 0.4409(5)
C2 C 0.7140(12) 0.6334(8) 0.2989(5)
C3 C 0.7613(12) 0.7847(8) 0.3158(5)
C4 C 0.7751(14) 0.8711(9) 0.2542(6)
C5 C 0.8181(14) 1.0136(9) 0.2752(6)
C6 C 0.8417(13) 1.0701(8) 0.3545(5)
C7 C 0.8291(13) 0.9860(9) 0.4133(6)
C8 C 0.7912(11) 0.8428(8) 0.3952(5)
C9 C 0.7525(13) 0.5402(9) 0.5030(5)
C10 C 0.7485(14) 0.4064(9) 0.4821(6)
C11 C 0.7409(14) 0.3209(9) 0.5409(6)
C12 C 0.7430(14) 0.3655(9) 0.6208(6)
C13 C 0.7486(13) 0.5008(10) 0.6404(6)
C14 C 0.7528(12) 0.5883(8) 0.5834(5)
C15 C 0.6554(13) 0.5557(9) 0.2292(5)
C16 C 0.6023(13) 0.4013(8) 0.2174(6)
C17 C 0.7805(14) 0.3599(9) 0.1926(7)
C18 C 0.4203(13) 0.3267(8) 0.1579(5)
C19 C 0.2917(12) 0.1918(8) 0.1680(5)
C20 C 0.1266(13) 0.1265(9) 0.1133(5)
C21 C 0.0857(13) 0.1863(9) 0.0475(5)
C22 C 0.2095(13) 0.3139(8) 0.0357(5)
C23 C 0.3735(14) 0.3823(8) 0.0895(5)
C24 C 0.3259(12) 0.0136(8) 0.2408(5)
C25 C 0.3145(12) -0.0921(8) 0.1721(5)
C26 C 0.1961(14) -0.2280(8) 0.1726(5)
C27 C 0.1947(14) -0.3296(9) 0.1113(5)
C28 C 0.3181(14) -0.2935(9) 0.0526(6)
C29 C 0.4422(14) -0.1586(8) 0.0527(5)
C30 C 0.4400(12) -0.0569(8) 0.1131(5)
C31 C 0.3551(14) 0.0558(9) 0.3821(5)
H1 H 0.7555(14) 0.8329(9) 0.1994(6)
H2 H 0.8313(14) 1.0724(9) 0.2343(6)
H3 H 0.8663(13) 1.1664(8) 0.3680(5)
H4 H 0.8464(13) 1.0250(9) 0.4678(6)
H5 H 0.7510(14) 0.3734(9) 0.4278(6)
H6 H 0.7341(14) 0.2280(9) 0.5259(6)
H7 H 0.7406(14) 0.3059(9) 0.6608(6)
H8 H 0.7495(13) 0.5340(10) 0.6950(6)
H9 H 0.7559(12) 0.6805(8) 0.5983(5)
H10 H 0.6460(13) 0.6006(9) 0.1831(5)
H11 H 0.5728(13) 0.3681(8) 0.2705(6)
H12 H 0.7435(14) 0.2588(9) 0.1852(7)
H13 H 0.8927(14) 0.3989(9) 0.2346(7)
H14 H 0.8186(14) 0.3958(9) 0.1422(7)
H15 H 0.0395(13) 0.0382(9) 0.1213(5)
H16 H -0.0281(13) 0.1394(9) 0.0103(5)
H17 H 0.1819(13) 0.3552(8) -0.0099(5)
H18 H 0.4580(14) 0.4704(8) 0.0800(5)
H19 H 0.1156(14) -0.2523(8) 0.2148(5)
H20 H 0.1097(14) -0.4224(9) 0.1102(5)
H21 H 0.3184(14) -0.3625(9) 0.0110(6)
H22 H 0.5279(14) -0.1357(8) 0.0120(5)
H23 H 0.5241(12) 0.0360(8) 0.1138(5)
H24 H 0.3649(14) 0.0079(9) 0.4291(5)
H25 H 0.2369(14) 0.0843(9) 0.3817(5)
H26 H 0.4736(14) 0.1377(9) 0.3844(5)
loop_
_geom_bond_atom_site_label_1
_geom_bond_atom_site_label_2
_geom_bond_site_symmetry_1
_geom_bond_site_symmetry_2
O1 C1 1_555 1_555
O2 C24 1_555 1_555
N1 C1 1_555 1_555
N2 C19 1_555 1_555
C1 C9 1_555 1_555
C2 O1 1_555 1_555
C3 C2 1_555 1_555
C4 C3 1_555 1_555
C5 C4 1_555 1_555
C6 C5 1_555 1_555
C7 C6 1_555 1_555
C8 N1 1_555 1_555
C9 C10 1_555 1_555
C10 C11 1_555 1_555
C11 C12 1_555 1_555
C12 C13 1_555 1_555
C13 C14 1_555 1_555
C14 C9 1_555 1_555
C15 C2 1_555 1_555
C16 C15 1_555 1_555
C17 C16 1_555 1_555
C18 C16 1_555 1_555
C19 C18 1_555 1_555
C20 C19 1_555 1_555
C21 C20 1_555 1_555
C22 C21 1_555 1_555
C23 C18 1_555 1_555
C24 N2 1_555 1_555
C25 C24 1_555 1_555
C26 C25 1_555 1_555
C27 C26 1_555 1_555
C28 C27 1_555 1_555
C29 C28 1_555 1_555
C30 C25 1_555 1_555
C31 O2 1_555 1_555
H1 C4 1_555 1_555
H2 C5 1_555 1_555
H3 C6 1_555 1_555
H4 C7 1_555 1_555
H5 C10 1_555 1_555
H6 C11 1_555 1_555
H7 C12 1_555 1_555
H8 C13 1_555 1_555
H9 C14 1_555 1_555
H10 C15 1_555 1_555
H11 C16 1_555 1_555
H12 C17 1_555 1_555
H13 C17 1_555 1_555
H14 C17 1_555 1_555
H15 C20 1_555 1_555
H16 C21 1_555 1_555
H17 C22 1_555 1_555
H18 C23 1_555 1_555
H19 C26 1_555 1_555
H20 C27 1_555 1_555
H21 C28 1_555 1_555
H22 C29 1_555 1_555
H23 C30 1_555 1_555
H24 C31 1_555 1_555
H25 C31 1_555 1_555
H26 C31 1_555 1_555
C3 C8 1_555 1_555
C7 C8 1_555 1_555
C22 C23 1_555 1_555
C29 C30 1_555 1_555

#END
