
#######################################################################
#
#                 Cambridge Crystallographic Data Centre
#                                CCDC 
#
#######################################################################
#
# If this CIF has been generated from an entry in the Cambridge 
# Structural Database, then it will include bibliographic, chemical, 
# crystal, experimental, refinement or atomic coordinate data resulting 
# from the CCDC's data processing and validation procedures.
#
#######################################################################

data_ZULZUD
_chemical_formula_moiety         'C14 H22 O4'
_chemical_name_systematic        
3,3'-ethane-1,2-diylbis(hexahydrofuro[2,3-b]furan)
_symmetry_cell_setting           monoclinic
_symmetry_space_group_name_H-M   'P 21'
_symmetry_Int_Tables_number      4
_space_group_name_Hall           'P 2yb'
loop_
_symmetry_equiv_pos_site_id
_symmetry_equiv_pos_as_xyz
1 x,y,z
2 -x,1/2+y,-z
_cell_length_a                   6.761(9)
_cell_length_b                   9.463(13)
_cell_length_c                   10.518(14)
_cell_angle_alpha                90
_cell_angle_beta                 105.293(16)
_cell_angle_gamma                90
_cell_volume                     649.106
_exptl_crystal_colour            colorless
_exptl_crystal_description       block
_cell_formula_units_Z            2
loop_
_atom_site_label
_atom_site_type_symbol
_atom_site_fract_x
_atom_site_fract_y
_atom_site_fract_z
C1 C 0.1026(5) 0.0949(3) 0.7984(3)
H1 H 0.0602 0.0340 0.7206
O1 O 0.1814(4) 0.8008(3) 0.6315(3)
O2 O 0.5021(5) 0.8842(2) 0.6372(3)
C2 C 0.2675(5) 0.5661(4) 0.6133(3)
H2 H 0.1488 0.5426 0.5401
O3 O 0.3905(4) 0.0873(3) 0.9815(2)
C3 C 0.3504(5) 0.4290(4) 0.6836(3)
H3 H 0.4210 0.3763 0.6297
H4 H 0.4492 0.4512 0.7663
C4 C 0.2125(7) 0.0120(4) 0.9174(4)
H5 H 0.2521 -0.0800 0.8891
O4 O 0.0810(5) -0.0087(4) 0.9967(3)
C5 C 0.1813(5) 0.3376(3) 0.7109(3)
H6 H 0.1092 0.3910 0.7634
H7 H 0.0837 0.3142 0.6280
C6 C 0.2625(5) 0.2026(3) 0.7826(3)
H8 H 0.3508 0.1568 0.7344
C7 C 0.3382(6) 0.8057(5) 0.5683(4)
H9 H 0.2856 0.8450 0.4796
C8 C 0.3850(5) 0.2230(4) 0.9213(4)
H10 H 0.5224 0.2551 0.9244
H11 H 0.3203 0.2919 0.9657
C9 C -0.0845(6) 0.1530(4) 0.8390(4)
H12 H -0.0863 0.2555 0.8365
H13 H -0.2110 0.1178 0.7808
C10 C 0.6328(6) 0.6599(4) 0.6340(5)
H14 H 0.6658 0.5815 0.6953
H15 H 0.7203 0.6552 0.5743
C11 C 0.1989(5) 0.6695(4) 0.7006(4)
H16 H 0.0680 0.6416 0.7142
H17 H 0.2989 0.6762 0.7856
C12 C 0.4118(6) 0.6559(4) 0.5591(3)
H18 H 0.3991 0.6312 0.4668
C13 C 0.6594(6) 0.7936(5) 0.7039(4)
H19 H 0.6521 0.7796 0.7939
H20 H 0.7921 0.8339 0.7060
C14 C -0.0592(7) 0.1013(5) 0.9747(5)
H21 H -0.0098 0.1769 1.0373
H22 H -0.1896 0.0686 0.9857
loop_
_geom_bond_atom_site_label_1
_geom_bond_atom_site_label_2
_geom_bond_site_symmetry_1
_geom_bond_site_symmetry_2
C1 H1 1_555 1_555
O1 C7 1_555 1_555
O2 C7 1_555 1_555
C2 H2 1_555 1_555
O3 C4 1_555 1_555
C3 C2 1_555 1_555
H3 C3 1_555 1_555
H4 C3 1_555 1_555
C4 C1 1_555 1_555
H5 C4 1_555 1_555
O4 C4 1_555 1_555
C5 C3 1_555 1_555
H6 C5 1_555 1_555
H7 C5 1_555 1_555
C6 C1 1_555 1_555
H8 C6 1_555 1_555
C7 H9 1_555 1_555
C8 O3 1_555 1_555
H10 C8 1_555 1_555
H11 C8 1_555 1_555
C9 C1 1_555 1_555
H12 C9 1_555 1_555
H13 C9 1_555 1_555
C10 H14 1_555 1_555
H15 C10 1_555 1_555
C11 O1 1_555 1_555
H16 C11 1_555 1_555
H17 C11 1_555 1_555
C12 C2 1_555 1_555
H18 C12 1_555 1_555
C13 O2 1_555 1_555
H19 C13 1_555 1_555
H20 C13 1_555 1_555
C14 O4 1_555 1_555
H21 C14 1_555 1_555
H22 C14 1_555 1_555
C2 C11 1_555 1_555
C5 C6 1_555 1_555
C6 C8 1_555 1_555
C7 C12 1_555 1_555
C9 C14 1_555 1_555
C10 C12 1_555 1_555
C10 C13 1_555 1_555

#END
