
#######################################################################
#
#                 Cambridge Crystallographic Data Centre
#                                CCDC 
#
#######################################################################
#
# If this CIF has been generated from an entry in the Cambridge 
# Structural Database, then it will include bibliographic, chemical, 
# crystal, experimental, refinement or atomic coordinate data resulting 
# from the CCDC's data processing and validation procedures.
#
#######################################################################

data_ZUMBAM
_chemical_formula_moiety         'C36 H46 N4 O8'
_chemical_name_systematic        
"8,8'-di-t-butyl 1,1'-diethyl 2,2',3,3'-tetrahydro-1H,1'H-3a,3a'-bipyrrolo[2,3-b]indole-1,1',8,8'(8aH,8a'H)-tetracarboxylate"
_symmetry_cell_setting           orthorhombic
_symmetry_space_group_name_H-M   'P b c a'
_symmetry_Int_Tables_number      61
_space_group_name_Hall           '-P 2ac 2ab'
loop_
_symmetry_equiv_pos_site_id
_symmetry_equiv_pos_as_xyz
1 x,y,z
2 1/2-x,-y,1/2+z
3 1/2+x,1/2-y,-z
4 -x,1/2+y,1/2-z
5 -x,-y,-z
6 1/2+x,y,1/2-z
7 1/2-x,1/2+y,z
8 x,1/2-y,1/2+z
_cell_length_a                   14.8934(8)
_cell_length_b                   11.7913(6)
_cell_length_c                   19.2041(18)
_cell_angle_alpha                90
_cell_angle_beta                 90
_cell_angle_gamma                90
_cell_volume                     3372.48
_exptl_crystal_colour            'light colorless'
_exptl_crystal_description       block
_cell_formula_units_Z            4
loop_
_atom_site_label
_atom_site_type_symbol
_atom_site_fract_x
_atom_site_fract_y
_atom_site_fract_z
O1 O 0.57190(8) 0.63811(9) 0.57756(7)
O2 O 0.34716(7) 0.80870(9) 0.67013(6)
O3 O 0.37489(8) 0.71726(10) 0.56802(7)
N1 N 0.47035(8) 0.85276(9) 0.60946(7)
O4 O 0.72065(8) 0.67740(11) 0.57913(8)
N2 N 0.61749(8) 0.81469(10) 0.55787(7)
C1 C 0.64340(10) 0.70762(13) 0.57211(8)
C2 C 0.63415(9) 0.98713(12) 0.49954(8)
H1 H 0.6381 0.9653 0.4509
H2 H 0.6575 1.0634 0.5049
C3 C 0.68446(10) 0.90399(13) 0.54561(9)
H3 H 0.7370 0.8741 0.5221
H4 H 0.7028 0.9393 0.5889
C4 C 0.52496(9) 0.85207(11) 0.54567(8)
H5 H 0.4962 0.8089 0.5082
C5 C 0.39409(9) 0.78586(11) 0.61229(8)
C6 C 0.53694(9) 0.97904(11) 0.52605(8)
C7 C 0.55517(10) 1.13802(12) 0.62071(8)
H6 H 0.5859 1.1868 0.5910
C8 C 0.52681(9) 1.03295(12) 0.59766(8)
C9 C 0.48444(9) 0.95846(11) 0.64365(8)
C10 C 0.53695(12) 1.16961(13) 0.68908(9)
H7 H 0.5551 1.2405 0.7051
C11 C 0.25684(11) 0.75820(14) 0.68026(10)
C12 C 0.49236(11) 1.09694(14) 0.73332(9)
H8 H 0.4794 1.1204 0.7785
C13 C 0.26463(13) 0.63012(17) 0.68567(13)
H9 H 0.2842 0.5998 0.6418
H10 H 0.2072 0.5986 0.6975
H11 H 0.3075 0.6110 0.7211
C14 C 0.46635(10) 0.98889(13) 0.71172(9)
H12 H 0.4378 0.9391 0.7421
C15 C 0.59245(14) 0.51987(14) 0.58843(12)
H13 H 0.6274 0.5105 0.6306
H14 H 0.6270 0.4906 0.5496
C16 C 0.19589(12) 0.79493(18) 0.62147(13)
H15 H 0.1949 0.8762 0.6189
H16 H 0.1362 0.7673 0.6298
H17 H 0.2178 0.7646 0.5783
C17 C 0.22767(14) 0.8098(2) 0.74914(12)
H18 H 0.2670 0.7842 0.7855
H19 H 0.1673 0.7868 0.7594
H20 H 0.2303 0.8910 0.7460
C18 C 0.50540(15) 0.45769(15) 0.59445(11)
H21 H 0.4708 0.4691 0.5529
H22 H 0.4726 0.4859 0.6338
H23 H 0.5169 0.3782 0.6005
O1D O 0.42810(8) 1.36189(9) 0.42244(7)
O2D O 0.65284(7) 1.19130(9) 0.32987(6)
O3D O 0.62511(8) 1.28274(10) 0.43198(7)
N1D N 0.52965(8) 1.14724(9) 0.39054(7)
O4D O 0.27935(8) 1.32260(11) 0.42087(8)
N2D N 0.38251(8) 1.18531(10) 0.44213(7)
C1D C 0.35660(10) 1.29238(13) 0.42789(8)
C2D C 0.36585(9) 1.01287(12) 0.50046(8)
H1D H 0.3619 1.0347 0.5491
H2D H 0.3425 0.9366 0.4951
C3D C 0.31554(10) 1.09601(13) 0.45439(9)
H3D H 0.2630 1.1259 0.4779
H4D H 0.2972 1.0607 0.4111
C4D C 0.47504(9) 1.14793(11) 0.45433(8)
H5D H 0.5038 1.1911 0.4918
C5D C 0.60591(9) 1.21414(11) 0.38771(8)
C6D C 0.46306(9) 1.02096(11) 0.47395(8)
C7D C 0.44483(10) 0.86198(12) 0.37929(8)
H6D H 0.4141 0.8132 0.4090
C8D C 0.47319(9) 0.96705(12) 0.40234(8)
C9D C 0.51556(9) 1.04154(11) 0.35635(8)
C10D C 0.46305(12) 0.83039(13) 0.31092(9)
H7D H 0.4449 0.7595 0.2949
C11D C 0.74316(11) 1.24180(14) 0.31974(10)
C12D C 0.50764(11) 0.90306(14) 0.26668(9)
H8D H 0.5206 0.8796 0.2215
C13D C 0.73537(13) 1.36988(17) 0.31433(13)
H9D H 0.7158 1.4002 0.3582
H10D H 0.7928 1.4014 0.3025
H11D H 0.6925 1.3890 0.2789
C14D C 0.53365(10) 1.01111(13) 0.28828(9)
H12D H 0.5622 1.0609 0.2579
C15D C 0.40755(14) 1.48013(14) 0.41157(12)
H13D H 0.3726 1.4895 0.3694
H14D H 0.3730 1.5094 0.4504
C16D C 0.80411(12) 1.20507(18) 0.37853(13)
H15D H 0.8051 1.1238 0.3811
H16D H 0.8638 1.2327 0.3702
H17D H 0.7822 1.2354 0.4217
C17D C 0.77233(14) 1.1902(2) 0.25086(12)
H18D H 0.7330 1.2158 0.2145
H19D H 0.8327 1.2132 0.2406
H20D H 0.7697 1.1090 0.2540
C18D C 0.49460(15) 1.54231(15) 0.40555(11)
H21D H 0.5292 1.5309 0.4471
H22D H 0.5274 1.5141 0.3662
H23D H 0.4831 1.6218 0.3995
loop_
_geom_bond_atom_site_label_1
_geom_bond_atom_site_label_2
_geom_bond_site_symmetry_1
_geom_bond_site_symmetry_2
O1 C1 1_555 1_555
O2 C5 1_555 1_555
O3 C5 1_555 1_555
N1 C4 1_555 1_555
O4 C1 1_555 1_555
N2 C1 1_555 1_555
C2 H1 1_555 1_555
H2 C2 1_555 1_555
C3 N2 1_555 1_555
H3 C3 1_555 1_555
H4 C3 1_555 1_555
C4 N2 1_555 1_555
H5 C4 1_555 1_555
C5 N1 1_555 1_555
C6 C2 1_555 1_555
C7 H6 1_555 1_555
C8 C6 1_555 1_555
C9 N1 1_555 1_555
C10 C7 1_555 1_555
H7 C10 1_555 1_555
C11 O2 1_555 1_555
C12 C10 1_555 1_555
H8 C12 1_555 1_555
C13 C11 1_555 1_555
H9 C13 1_555 1_555
H10 C13 1_555 1_555
H11 C13 1_555 1_555
C14 C9 1_555 1_555
H12 C14 1_555 1_555
C15 O1 1_555 1_555
H13 C15 1_555 1_555
H14 C15 1_555 1_555
C16 C11 1_555 1_555
H15 C16 1_555 1_555
H16 C16 1_555 1_555
H17 C16 1_555 1_555
C17 C11 1_555 1_555
H18 C17 1_555 1_555
H19 C17 1_555 1_555
H20 C17 1_555 1_555
C18 C15 1_555 1_555
H21 C18 1_555 1_555
H22 C18 1_555 1_555
H23 C18 1_555 1_555
O1D C1D 1_555 1_555
O2D C5D 1_555 1_555
O3D C5D 1_555 1_555
N1D C4D 1_555 1_555
O4D C1D 1_555 1_555
N2D C1D 1_555 1_555
C2D H1D 1_555 1_555
H2D C2D 1_555 1_555
C3D N2D 1_555 1_555
H3D C3D 1_555 1_555
H4D C3D 1_555 1_555
C4D N2D 1_555 1_555
H5D C4D 1_555 1_555
C5D N1D 1_555 1_555
C6D C6 1_555 1_555
C7D H6D 1_555 1_555
C8D C6D 1_555 1_555
C9D N1D 1_555 1_555
C10D C7D 1_555 1_555
H7D C10D 1_555 1_555
C11D O2D 1_555 1_555
C12D C10D 1_555 1_555
H8D C12D 1_555 1_555
C13D C11D 1_555 1_555
H9D C13D 1_555 1_555
H10D C13D 1_555 1_555
H11D C13D 1_555 1_555
C14D C9D 1_555 1_555
H12D C14D 1_555 1_555
C15D O1D 1_555 1_555
H13D C15D 1_555 1_555
H14D C15D 1_555 1_555
C16D C11D 1_555 1_555
H15D C16D 1_555 1_555
H16D C16D 1_555 1_555
H17D C16D 1_555 1_555
C17D C11D 1_555 1_555
H18D C17D 1_555 1_555
H19D C17D 1_555 1_555
H20D C17D 1_555 1_555
C18D C15D 1_555 1_555
H21D C18D 1_555 1_555
H22D C18D 1_555 1_555
H23D C18D 1_555 1_555
C2 C3 1_555 1_555
C4 C6 1_555 1_555
C7 C8 1_555 1_555
C8 C9 1_555 1_555
C12 C14 1_555 1_555
C2D C3D 1_555 1_555
C2D C6D 1_555 1_555
C4D C6D 1_555 1_555
C7D C8D 1_555 1_555
C8D C9D 1_555 1_555
C12D C14D 1_555 1_555

#END
