
#######################################################################
#
#                 Cambridge Crystallographic Data Centre
#                                CCDC 
#
#######################################################################
#
# If this CIF has been generated from an entry in the Cambridge 
# Structural Database, then it will include bibliographic, chemical, 
# crystal, experimental, refinement or atomic coordinate data resulting 
# from the CCDC's data processing and validation procedures.
#
#######################################################################

data_ZUMBEQ
_chemical_formula_moiety         'C38 H62 O4'
_chemical_name_systematic        
7,7'-butane-1,4-diylbis(3,3,6a,10b-tetramethyl-8-methylenedecahydro-1H-naphtho[2,1-d][1,3]dioxine)
_symmetry_cell_setting           orthorhombic
_symmetry_space_group_name_H-M   'P 21 21 2'
_symmetry_Int_Tables_number      18
_space_group_name_Hall           'P 2 2ab'
loop_
_symmetry_equiv_pos_site_id
_symmetry_equiv_pos_as_xyz
1 x,y,z
2 -x,-y,z
3 1/2-x,1/2+y,-z
4 1/2+x,1/2-y,-z
_cell_length_a                   13.010(17)
_cell_length_b                   18.68(2)
_cell_length_c                   7.224(9)
_cell_angle_alpha                90
_cell_angle_beta                 90
_cell_angle_gamma                90
_cell_volume                     1755.63
_exptl_crystal_colour            colorless
_exptl_crystal_description       block
_cell_formula_units_Z            2
loop_
_atom_site_label
_atom_site_type_symbol
_atom_site_fract_x
_atom_site_fract_y
_atom_site_fract_z
C1 C 0.62324(16) 0.73092(11) 0.8373(3)
H1 H 0.6101 0.7823 0.8506
C2 C 0.73376(16) 0.72041(11) 0.7812(3)
H2 H 0.7780 0.7403 0.8764
H3 H 0.7465 0.7465 0.6675
C3 C 0.76158(16) 0.64191(10) 0.7520(3)
H4 H 0.8358 0.6373 0.7574
H5 H 0.7401 0.6281 0.6285
C4 C 0.71376(14) 0.58862(10) 0.8927(3)
C5 C 0.80005(15) 0.53601(11) 0.9604(3)
H6 H 0.8544 0.5661 1.0131
C6 C 0.76160(16) 0.48936(11) 1.1173(3)
C7 C 0.7205(2) 0.53044(12) 1.2773(3)
H7 H 0.7760 0.5568 1.3353
H8 H 0.6928 0.4974 1.3680
C8 C 0.63639(18) 0.58269(12) 1.2182(3)
H9 H 0.6160 0.6116 1.3234
H10 H 0.5767 0.5561 1.1764
C9 C 0.67433(16) 0.63144(10) 1.0622(3)
H11 H 0.7357 0.6547 1.1126
C10 C 0.59854(16) 0.69382(11) 1.0220(3)
C11 C 0.48560(16) 0.67057(12) 1.0082(3)
H12 H 0.4813 0.6244 0.9473
H13 H 0.4568 0.6658 1.1314
C12 C 0.45391(17) 0.72187(13) 0.7143(3)
C13 C 0.4324(2) 0.79663(15) 0.6434(4)
H14 H 0.4745 0.8304 0.7090
H15 H 0.3612 0.8080 0.6628
H16 H 0.4477 0.7989 0.5136
C14 C 0.39335(19) 0.66534(15) 0.6115(4)
H17 H 0.4171 0.6626 0.4858
H18 H 0.3217 0.6777 0.6127
H19 H 0.4028 0.6198 0.6707
C15 C 0.6089(2) 0.74979(12) 1.1751(3)
H20 H 0.6751 0.7722 1.1670
H21 H 0.6018 0.7270 1.2936
H22 H 0.5562 0.7853 1.1610
C16 C 0.62996(15) 0.54437(11) 0.7980(3)
H23 H 0.5976 0.5138 0.8875
H24 H 0.6601 0.5157 0.7021
H25 H 0.5796 0.5759 0.7451
C17 C 0.7596(2) 0.41856(13) 1.1160(4)
H26 H 0.7322 0.3938 1.2161
H27 H 0.7856 0.3936 1.0150
C18 C 0.85021(17) 0.49359(12) 0.8021(3)
H28 H 0.8089 0.4513 0.7783
H29 H 0.8488 0.5228 0.6912
C19 C 0.96142(17) 0.46991(11) 0.8372(4)
H30 H 0.9645 0.4457 0.9559
H31 H 0.9808 0.4356 0.7428
O1 O 0.55952(10) 0.70363(8) 0.69124(19)
O2 O 0.42838(11) 0.72233(9) 0.9057(2)
C1A C 1.37676(16) 0.26908(11) 0.8373(3)
H1A H 1.3899 0.2177 0.8506
C2A C 1.26624(16) 0.27959(11) 0.7812(3)
H2A H 1.2220 0.2597 0.8764
H3A H 1.2535 0.2535 0.6675
C3A C 1.23842(16) 0.35809(10) 0.7520(3)
H4A H 1.1642 0.3627 0.7574
H5A H 1.2599 0.3719 0.6285
C4A C 1.28624(14) 0.41138(10) 0.8927(3)
C5A C 1.19995(15) 0.46399(11) 0.9604(3)
H6A H 1.1456 0.4339 1.0131
C6A C 1.23840(16) 0.51064(11) 1.1173(3)
C7A C 1.2795(2) 0.46956(12) 1.2773(3)
H7A H 1.2240 0.4432 1.3353
H8A H 1.3072 0.5026 1.3680
C8A C 1.36361(18) 0.41731(12) 1.2182(3)
H9A H 1.3840 0.3884 1.3234
H10A H 1.4233 0.4439 1.1764
C9A C 1.32567(16) 0.36856(10) 1.0622(3)
H11A H 1.2643 0.3453 1.1126
C10A C 1.40146(16) 0.30618(11) 1.0220(3)
C11A C 1.51440(16) 0.32943(12) 1.0082(3)
H12A H 1.5187 0.3756 0.9473
H13A H 1.5432 0.3342 1.1314
C12A C 1.54609(17) 0.27813(13) 0.7143(3)
C13A C 1.5676(2) 0.20337(15) 0.6434(4)
H14A H 1.5255 0.1696 0.7090
H15A H 1.6388 0.1920 0.6628
H16A H 1.5523 0.2011 0.5136
C14A C 1.60665(19) 0.33466(15) 0.6115(4)
H17A H 1.5829 0.3374 0.4858
H18A H 1.6783 0.3223 0.6127
H19A H 1.5972 0.3802 0.6707
C15A C 1.3911(2) 0.25021(12) 1.1751(3)
H20A H 1.3249 0.2278 1.1670
H21A H 1.3982 0.2730 1.2936
H22A H 1.4438 0.2147 1.1610
C16A C 1.37004(15) 0.45563(11) 0.7980(3)
H23A H 1.4024 0.4862 0.8875
H24A H 1.3399 0.4843 0.7021
H25A H 1.4204 0.4241 0.7451
C17A C 1.2404(2) 0.58144(13) 1.1160(4)
H26A H 1.2678 0.6062 1.2161
H27A H 1.2144 0.6064 1.0150
C18A C 1.14979(17) 0.50641(12) 0.8021(3)
H28A H 1.1911 0.5487 0.7783
H29A H 1.1512 0.4772 0.6912
C19A C 1.03858(17) 0.53009(11) 0.8372(4)
H30A H 1.0355 0.5543 0.9559
H31A H 1.0192 0.5644 0.7428
O1A O 1.44048(10) 0.29637(8) 0.69124(19)
O2A O 1.57162(11) 0.27767(9) 0.9057(2)
loop_
_geom_bond_atom_site_label_1
_geom_bond_atom_site_label_2
_geom_bond_site_symmetry_1
_geom_bond_site_symmetry_2
C1 H1 1_555 1_555
C2 C1 1_555 1_555
H2 C2 1_555 1_555
H3 C2 1_555 1_555
C3 C2 1_555 1_555
H4 C3 1_555 1_555
H5 C3 1_555 1_555
C4 C3 1_555 1_555
C5 C4 1_555 1_555
H6 C5 1_555 1_555
C6 C5 1_555 1_555
C7 C6 1_555 1_555
H7 C7 1_555 1_555
H8 C7 1_555 1_555
C8 C7 1_555 1_555
H9 C8 1_555 1_555
H10 C8 1_555 1_555
C9 C4 1_555 1_555
H11 C9 1_555 1_555
C10 C1 1_555 1_555
C11 C10 1_555 1_555
H12 C11 1_555 1_555
H13 C11 1_555 1_555
C12 C13 1_555 1_555
C13 H14 1_555 1_555
H15 C13 1_555 1_555
H16 C13 1_555 1_555
C14 C12 1_555 1_555
H17 C14 1_555 1_555
H18 C14 1_555 1_555
H19 C14 1_555 1_555
C15 C10 1_555 1_555
H20 C15 1_555 1_555
H21 C15 1_555 1_555
H22 C15 1_555 1_555
C16 C4 1_555 1_555
H23 C16 1_555 1_555
H24 C16 1_555 1_555
H25 C16 1_555 1_555
C17 C6 1_555 1_555
H26 C17 1_555 1_555
H27 C17 1_555 1_555
C18 C5 1_555 1_555
H28 C18 1_555 1_555
H29 C18 1_555 1_555
C19 C18 1_555 1_555
H30 C19 1_555 1_555
H31 C19 1_555 1_555
O1 C1 1_555 1_555
O2 C11 1_555 1_555
C1A H1A 1_555 1_555
C2A C1A 1_555 1_555
H2A C2A 1_555 1_555
H3A C2A 1_555 1_555
C3A C2A 1_555 1_555
H4A C3A 1_555 1_555
H5A C3A 1_555 1_555
C4A C3A 1_555 1_555
C5A C4A 1_555 1_555
H6A C5A 1_555 1_555
C6A C5A 1_555 1_555
C7A C6A 1_555 1_555
H7A C7A 1_555 1_555
H8A C7A 1_555 1_555
C8A C7A 1_555 1_555
H9A C8A 1_555 1_555
H10A C8A 1_555 1_555
C9A C4A 1_555 1_555
H11A C9A 1_555 1_555
C10A C1A 1_555 1_555
C11A C10A 1_555 1_555
H12A C11A 1_555 1_555
H13A C11A 1_555 1_555
C12A C13A 1_555 1_555
C13A H14A 1_555 1_555
H15A C13A 1_555 1_555
H16A C13A 1_555 1_555
C14A C12A 1_555 1_555
H17A C14A 1_555 1_555
H18A C14A 1_555 1_555
H19A C14A 1_555 1_555
C15A C10A 1_555 1_555
H20A C15A 1_555 1_555
H21A C15A 1_555 1_555
H22A C15A 1_555 1_555
C16A C4A 1_555 1_555
H23A C16A 1_555 1_555
H24A C16A 1_555 1_555
H25A C16A 1_555 1_555
C17A C6A 1_555 1_555
H26A C17A 1_555 1_555
H27A C17A 1_555 1_555
C18A C5A 1_555 1_555
H28A C18A 1_555 1_555
H29A C18A 1_555 1_555
C19A C19 1_555 1_555
H30A C19A 1_555 1_555
H31A C19A 1_555 1_555
O1A C1A 1_555 1_555
O2A C11A 1_555 1_555
C8 C9 1_555 1_555
C9 C10 1_555 1_555
C12 O1 1_555 1_555
C12 O2 1_555 1_555
C8A C9A 1_555 1_555
C9A C10A 1_555 1_555
C12A O1A 1_555 1_555
C12A O2A 1_555 1_555
C18A C19A 1_555 1_555

#END
