
#######################################################################
#
#                 Cambridge Crystallographic Data Centre
#                                CCDC 
#
#######################################################################
#
# If this CIF has been generated from an entry in the Cambridge 
# Structural Database, then it will include bibliographic, chemical, 
# crystal, experimental, refinement or atomic coordinate data resulting 
# from the CCDC's data processing and validation procedures.
#
#######################################################################

data_ZUMHOG
_chemical_formula_moiety         'C13 H24 N2 O3'
_chemical_name_systematic        
1-(((2,2-Dimethylpropanoyl)amino)oxy)-N-isobutylcyclopropanecarboxamide
_symmetry_cell_setting           monoclinic
_symmetry_space_group_name_H-M   'C 2/c'
_symmetry_Int_Tables_number      15
_space_group_name_Hall           '-C 2yn'
loop_
_symmetry_equiv_pos_site_id
_symmetry_equiv_pos_as_xyz
1 x,y,z
2 -x,y,1/2-z
3 1/2+x,1/2+y,z
4 1/2-x,1/2+y,1/2-z
5 -x,-y,-z
6 x,-y,1/2+z
7 1/2-x,1/2-y,-z
8 1/2+x,1/2-y,1/2+z
_cell_length_a                   37.348(8)
_cell_length_b                   8.973(2)
_cell_length_c                   23.854(5)
_cell_angle_alpha                90
_cell_angle_beta                 127.48(3)
_cell_angle_gamma                90
_cell_volume                     6343.8
_exptl_crystal_colour            colorless
_exptl_crystal_description       prism
_cell_formula_units_Z            16
loop_
_atom_site_label
_atom_site_type_symbol
_atom_site_fract_x
_atom_site_fract_y
_atom_site_fract_z
O1 O 0.71031(13) -0.1978(4) 0.05398(17)
O2 O 0.62108(11) -0.1928(3) -0.03714(17)
O3 O 0.60321(13) 0.0208(4) -0.18044(19)
N1 N 0.64491(19) -0.1080(4) 0.0258(2)
N2 N 0.6636(2) -0.1102(5) -0.0916(2)
C1 C 0.5976(2) -0.0987(6) -0.0974(3)
C2 C 0.54849(19) -0.1375(7) -0.1493(3)
H1 H 0.5345 -0.1285 -0.1992
H2 H 0.5370 -0.2183 -0.1372
C3 C 0.5626(2) 0.0006(6) -0.1073(3)
H3 H 0.5595 0.0046 -0.0697
H4 H 0.5570 0.0943 -0.1316
C4 C 0.6217(2) -0.0563(6) -0.1268(3)
C5 C 0.6899(2) -0.1316(6) 0.0716(3)
C6 C 0.7125(2) -0.0681(6) 0.1442(3)
C7 C 0.7056(3) -0.1808(7) 0.1856(3)
H5 H 0.7197 -0.1441 0.2325
H6 H 0.7187 -0.2748 0.1879
H7 H 0.6738 -0.1937 0.1620
C8 C 0.7620(2) -0.0464(9) 0.1791(3)
H8 H 0.7766 -0.0051 0.2254
H9 H 0.7654 0.0204 0.1512
H10 H 0.7754 -0.1408 0.1829
C9 C 0.6915(2) 0.0783(7) 0.1433(3)
H11 H 0.7073 0.1146 0.1908
H12 H 0.6604 0.0621 0.1231
H13 H 0.6935 0.1503 0.1156
C10 C 0.6907(2) -0.0882(6) -0.1157(3)
H14 H 0.6707 -0.0762 -0.1667
H15 H 0.7087 -0.1767 -0.1049
C11 C 0.7213(3) 0.0442(7) -0.0833(4)
H16 H 0.7032 0.1321 -0.0912
C12 C 0.7578(2) 0.0279(7) -0.0054(4)
H17 H 0.7756 0.1175 0.0127
H18 H 0.7768 -0.0548 0.0030
H19 H 0.7445 0.0107 0.0181
C13 C 0.7433(3) 0.0689(8) -0.1209(4)
H20 H 0.7201 0.0809 -0.1707
H21 H 0.7616 -0.0157 -0.1128
H22 H 0.7617 0.1569 -0.1023
H23 H 0.6745(16) -0.166(4) -0.0492(19)
H24 H 0.6246(15) -0.097(5) 0.038(3)
O4 O 0.53354(13) -0.4431(4) 0.14694(19)
O5 O 0.53474(11) -0.1481(3) 0.14367(16)
O6 O 0.58254(12) -0.0828(4) 0.05210(17)
N3 N 0.56688(15) -0.2305(5) 0.2055(2)
N4 N 0.55068(15) -0.2915(5) 0.0591(2)
C14 C 0.55563(17) -0.0687(5) 0.1193(2)
C15 C 0.53924(19) 0.0885(5) 0.0990(3)
H25 H 0.5360 0.1304 0.0586
H26 H 0.5171 0.1225 0.1049
C16 C 0.58558(19) 0.0572(5) 0.1637(3)
H27 H 0.5916 0.0726 0.2090
H28 H 0.6106 0.0804 0.1627
C17 C 0.56418(18) -0.1505(7) 0.0742(2)
C18 C 0.56005(19) -0.3784(7) 0.2027(3)
C19 C 0.5888(2) -0.4581(6) 0.2731(3)
C20 C 0.5637(12) -0.429(4) 0.3060(15)
H29 H 0.5796 -0.4779 0.3510
H30 H 0.5335 -0.4679 0.2750
H31 H 0.5625 -0.3239 0.3120
C21 C 0.6371(10) -0.394(3) 0.3271(14)
H32 H 0.6528 -0.4515 0.3699
H33 H 0.6352 -0.2922 0.3373
H34 H 0.6532 -0.3993 0.3076
C22 C 0.5957(11) -0.616(3) 0.2610(12)
H35 H 0.6137 -0.6682 0.3053
H36 H 0.6108 -0.6172 0.2398
H37 H 0.5669 -0.6648 0.2301
C23 C 0.55596(19) -0.3849(5) 0.0147(2)
H38 H 0.5729 -0.3304 0.0026
H39 H 0.5264 -0.4069 -0.0289
C24 C 0.5799(2) -0.5287(7) 0.0502(4)
H40 H 0.5610 -0.5809 0.0595
C25 C 0.6238(2) -0.5181(8) 0.1171(4)
H41 H 0.6221 -0.4583 0.1487
H42 H 0.6444 -0.4730 0.1106
H43 H 0.6344 -0.6161 0.1366
C26 C 0.5800(2) -0.6271(7) -0.0028(3)
H44 H 0.5499 -0.6352 -0.0459
H45 H 0.5912 -0.7245 0.0170
H46 H 0.5991 -0.5828 -0.0125
H47 H 0.5773(14) -0.164(4) 0.2450(19)
H48 H 0.5384(15) -0.324(5) 0.084(2)
C27? C 0.591(2) -0.409(6) 0.331(2)
H49? H 0.6082 -0.4797 0.3686
H50? H 0.5614 -0.4003 0.3173
H51? H 0.6060 -0.3140 0.3458
C28? C 0.6358(11) -0.449(7) 0.297(2)
H52? H 0.6386 -0.5088 0.2660
H53? H 0.6563 -0.4853 0.3442
H54? H 0.6430 -0.3474 0.2947
C29? C 0.5691(16) -0.612(4) 0.260(2)
H55? H 0.5582 -0.6451 0.2136
H56? H 0.5446 -0.6107 0.2629
H57? H 0.5920 -0.6799 0.2946
loop_
_geom_bond_atom_site_label_1
_geom_bond_atom_site_label_2
_geom_bond_site_symmetry_1
_geom_bond_site_symmetry_2
O1 C5 1_555 1_555
O2 N1 1_555 1_555
O3 C4 1_555 1_555
N1 C5 1_555 1_555
N2 C4 1_555 1_555
C1 O2 1_555 1_555
C2 C1 1_555 1_555
H1 C2 1_555 1_555
H2 C2 1_555 1_555
C3 C1 1_555 1_555
H3 C3 1_555 1_555
H4 C3 1_555 1_555
C4 C1 1_555 1_555
C5 C6 1_555 1_555
C6 C7 1_555 1_555
C7 H5 1_555 1_555
H6 C7 1_555 1_555
H7 C7 1_555 1_555
C8 C6 1_555 1_555
H8 C8 1_555 1_555
H9 C8 1_555 1_555
H10 C8 1_555 1_555
C9 C6 1_555 1_555
H11 C9 1_555 1_555
H12 C9 1_555 1_555
H13 C9 1_555 1_555
C10 N2 1_555 1_555
H14 C10 1_555 1_555
H15 C10 1_555 1_555
C11 C10 1_555 1_555
H16 C11 1_555 1_555
C12 C11 1_555 1_555
H17 C12 1_555 1_555
H18 C12 1_555 1_555
H19 C12 1_555 1_555
C13 C11 1_555 1_555
H20 C13 1_555 1_555
H21 C13 1_555 1_555
H22 C13 1_555 1_555
H23 N2 1_555 1_555
H24 N1 1_555 1_555
O4 C18 1_555 1_555
O5 N3 1_555 1_555
O6 C17 1_555 1_555
N3 C18 1_555 1_555
N4 C17 1_555 1_555
C14 O5 1_555 1_555
C15 C14 1_555 1_555
H25 C15 1_555 1_555
H26 C15 1_555 1_555
C16 C14 1_555 1_555
H27 C16 1_555 1_555
H28 C16 1_555 1_555
C17 C14 1_555 1_555
C18 C19 1_555 1_555
C19 C20 1_555 1_555
C20 H29 1_555 1_555
H30 C20 1_555 1_555
H31 C20 1_555 1_555
C21 C19 1_555 1_555
H32 C21 1_555 1_555
H33 C21 1_555 1_555
H34 C21 1_555 1_555
C22 C19 1_555 1_555
H35 C22 1_555 1_555
H36 C22 1_555 1_555
H37 C22 1_555 1_555
C23 N4 1_555 1_555
H38 C23 1_555 1_555
H39 C23 1_555 1_555
C24 C23 1_555 1_555
H40 C24 1_555 1_555
C25 C24 1_555 1_555
H41 C25 1_555 1_555
H42 C25 1_555 1_555
H43 C25 1_555 1_555
C26 C24 1_555 1_555
H44 C26 1_555 1_555
H45 C26 1_555 1_555
H46 C26 1_555 1_555
H47 N3 1_555 1_555
H48 N4 1_555 1_555
C2 C3 1_555 1_555
C15 C16 1_555 1_555

#END
