
#######################################################################
#
#                 Cambridge Crystallographic Data Centre
#                                CCDC 
#
#######################################################################
#
# If this CIF has been generated from an entry in the Cambridge 
# Structural Database, then it will include bibliographic, chemical, 
# crystal, experimental, refinement or atomic coordinate data resulting 
# from the CCDC's data processing and validation procedures.
#
#######################################################################

data_ZUMHIA
_chemical_formula_moiety         'C17 H16 F1 N1 O2 S1'
_chemical_name_systematic        
't-Butyl 5-(4-fluorophenyl)-6H-thieno[2,3-b]pyrrole-6-carboxylate'
_symmetry_cell_setting           monoclinic
_symmetry_space_group_name_H-M   'P 21/n'
_symmetry_Int_Tables_number      14
_space_group_name_Hall           '-P 2yn'
loop_
_symmetry_equiv_pos_site_id
_symmetry_equiv_pos_as_xyz
1 x,y,z
2 1/2-x,1/2+y,1/2-z
3 -x,-y,-z
4 1/2+x,1/2-y,1/2+z
_cell_length_a                   11.0547(7)
_cell_length_b                   8.6515(4)
_cell_length_c                   17.2969(13)
_cell_angle_alpha                90
_cell_angle_beta                 106.756(3)
_cell_angle_gamma                90
_cell_volume                     1584.03
_exptl_crystal_colour            colorless
_exptl_crystal_description       plate
_cell_formula_units_Z            4
loop_
_atom_site_label
_atom_site_type_symbol
_atom_site_fract_x
_atom_site_fract_y
_atom_site_fract_z
S1 S 0.38394(8) 0.47174(9) 0.72697(4)
F1 F 0.90703(18) 0.1041(2) 0.42860(12)
O1 O 0.63742(17) 0.56837(19) 0.71924(10)
O2 O 0.72809(15) 0.48076(16) 0.62500(9)
N1 N 0.54800(17) 0.37409(19) 0.63467(11)
C1 C 0.2446(3) 0.3662(4) 0.6962(2)
H1 H 0.1767 0.3797 0.7191
C2 C 0.2412(3) 0.2629(4) 0.6368(2)
H2 H 0.1719 0.1964 0.6135
C3 C 0.3551(2) 0.2667(3) 0.61365(16)
C4 C 0.4164(2) 0.1952(3) 0.56021(15)
H3 H 0.3819 0.1159 0.5223
C5 C 0.5325(2) 0.2605(2) 0.57328(13)
C6 C 0.4371(2) 0.3734(3) 0.65737(15)
C7 C 0.6323(2) 0.2194(2) 0.53554(13)
C8 C 0.7450(2) 0.1532(2) 0.58062(14)
H4 H 0.7589 0.1359 0.6367
C9 C 0.8374(2) 0.1121(3) 0.54476(16)
H5 H 0.9141 0.0655 0.5753
C10 C 0.8147(3) 0.1408(3) 0.46407(17)
C11 C 0.7057(3) 0.2031(3) 0.41722(17)
H6 H 0.6929 0.2193 0.3611
C12 C 0.6129(3) 0.2426(3) 0.45357(15)
H7 H 0.5355 0.2860 0.4219
C13 C 0.6425(2) 0.4846(3) 0.66488(14)
C14 C 0.8464(2) 0.5746(3) 0.65192(16)
C15 C 0.8137(3) 0.7457(3) 0.6519(2)
H8 H 0.7722 0.7657 0.6939
H9 H 0.7565 0.7741 0.5991
H10 H 0.8911 0.8073 0.6626
C16 C 0.9099(3) 0.5373(3) 0.58714(18)
H11 H 0.9253 0.4258 0.5867
H12 H 0.9904 0.5928 0.5985
H13 H 0.8548 0.5692 0.5343
C17 C 0.9221(3) 0.5168(3) 0.73421(16)
H14 H 0.9370 0.4055 0.7314
H15 H 0.8751 0.5363 0.7734
H16 H 1.0033 0.5711 0.7512
loop_
_geom_bond_atom_site_label_1
_geom_bond_atom_site_label_2
_geom_bond_site_symmetry_1
_geom_bond_site_symmetry_2
S1 C1 1_555 1_555
F1 C10 1_555 1_555
O1 C13 1_555 1_555
O2 C13 1_555 1_555
N1 C5 1_555 1_555
C1 H1 1_555 1_555
C2 C1 1_555 1_555
H2 C2 1_555 1_555
C3 C2 1_555 1_555
C4 C3 1_555 1_555
H3 C4 1_555 1_555
C5 C4 1_555 1_555
C6 S1 1_555 1_555
C7 C5 1_555 1_555
C8 C7 1_555 1_555
H4 C8 1_555 1_555
C9 C8 1_555 1_555
H5 C9 1_555 1_555
C10 C9 1_555 1_555
C11 C10 1_555 1_555
H6 C11 1_555 1_555
C12 C7 1_555 1_555
H7 C12 1_555 1_555
C13 N1 1_555 1_555
C14 O2 1_555 1_555
C15 C14 1_555 1_555
H8 C15 1_555 1_555
H9 C15 1_555 1_555
H10 C15 1_555 1_555
C16 C14 1_555 1_555
H11 C16 1_555 1_555
H12 C16 1_555 1_555
H13 C16 1_555 1_555
C17 C14 1_555 1_555
H14 C17 1_555 1_555
H15 C17 1_555 1_555
H16 C17 1_555 1_555
N1 C6 1_555 1_555
C3 C6 1_555 1_555
C11 C12 1_555 1_555

#END
