
#######################################################################
#
#                 Cambridge Crystallographic Data Centre
#                                CCDC 
#
#######################################################################
#
# If this CIF has been generated from an entry in the Cambridge 
# Structural Database, then it will include bibliographic, chemical, 
# crystal, experimental, refinement or atomic coordinate data resulting 
# from the CCDC's data processing and validation procedures.
#
#######################################################################

data_ZUMKEZ
_chemical_formula_moiety         'C18 H33 N5 2+,2(H2 O1),2(Cl1 1-)'
_chemical_name_systematic        
'5-(Pyridin-2-ylmethyl)-5,12-diaza-1,8-diazoniabicyclo[10.2.2]hexadecane dichloride dihydrate'
_symmetry_cell_setting           monoclinic
_symmetry_space_group_name_H-M   'P 21/c'
_symmetry_Int_Tables_number      14
_space_group_name_Hall           '-P 2ybc'
loop_
_symmetry_equiv_pos_site_id
_symmetry_equiv_pos_as_xyz
1 x,y,z
2 -x,1/2+y,1/2-z
3 -x,-y,-z
4 x,1/2-y,1/2+z
_cell_length_a                   17.1551(16)
_cell_length_b                   10.2884(11)
_cell_length_c                   13.0825(11)
_cell_angle_alpha                90
_cell_angle_beta                 100.328(7)
_cell_angle_gamma                90
_cell_volume                     2271.63
_exptl_crystal_colour            colorless
_exptl_crystal_description       block
_cell_formula_units_Z            4
loop_
_atom_site_label
_atom_site_type_symbol
_atom_site_fract_x
_atom_site_fract_y
_atom_site_fract_z
N1 N 0.29106(15) 0.5096(2) 0.48359(15)
C1 C 0.2484(2) 0.6185(3) 0.42337(19)
H1 H 0.2492(2) 0.6043(3) 0.3495(10)
H2 H 0.2772(4) 0.6993(11) 0.4439(3)
C2 C 0.1625(2) 0.6358(3) 0.4373(2)
H3 H 0.1606(2) 0.6184(4) 0.5104(10)
H4 H 0.1491(3) 0.7276(13) 0.4249(3)
C3 C 0.0972(2) 0.5568(3) 0.3727(2)
H5 H 0.0461(7) 0.5856(5) 0.3911(3)
H6 H 0.0956(2) 0.5805(5) 0.2986(10)
N2 N 0.09995(17) 0.4113(3) 0.37993(16)
H7 H 0.0442 0.3825 0.3548
C4 C 0.1213(2) 0.3574(3) 0.4871(2)
H8 H 0.0799(6) 0.3805(5) 0.5263(6)
H9 H 0.1707(7) 0.3977(6) 0.5217(5)
C5 C 0.13151(19) 0.2122(3) 0.4894(2)
H10 H 0.1514(3) 0.1830(5) 0.5616(10)
H11 H 0.0798(7) 0.1695(7) 0.4644(4)
C6 C 0.1465(2) 0.3531(3) 0.3055(2)
H12 H 0.2003(8) 0.3902(6) 0.3183(2)
H13 H 0.1213(4) 0.3760(4) 0.2341(10)
C7 C 0.15194(19) 0.2078(3) 0.31515(19)
H14 H 0.0994(7) 0.1694(6) 0.2979(3)
H15 H 0.1844(5) 0.1733(6) 0.2676(7)
N3 N 0.18778(15) 0.1761(2) 0.42296(15)
C8 C 0.2182(2) 0.0425(3) 0.4374(2)
H16 H 0.1782(6) -0.0180(9) 0.4007(5)
H17 H 0.2270(2) 0.0206(4) 0.5118(10)
C9 C 0.2959(2) 0.0250(3) 0.3966(2)
H18 H 0.3125(3) -0.0660(13) 0.4061(2)
H19 H 0.2859(2) 0.0430(4) 0.3218(10)
C10 C 0.36350(19) 0.1107(3) 0.4483(2)
H20 H 0.3741(2) 0.0945(4) 0.5231(10)
H21 H 0.4114(7) 0.0902(4) 0.4208(4)
N4 N 0.34213(15) 0.2504(2) 0.42792(15)
H22 H 0.3360 0.2659 0.3522
H23 H 0.2899 0.2657 0.4478
C11 C 0.39897(18) 0.3489(3) 0.4823(2)
H24 H 0.4511(7) 0.3375(3) 0.4625(3)
H25 H 0.4050(2) 0.3375(3) 0.5579(10)
C12 C 0.36721(19) 0.4840(3) 0.45192(19)
H26 H 0.4063(6) 0.5495(9) 0.4844(5)
H27 H 0.3609(2) 0.4938(3) 0.3755(10)
C13 C 0.29956(18) 0.5270(3) 0.59796(18)
H28 H 0.3209(3) 0.4476(11) 0.6315(5)
H29 H 0.2473(7) 0.5395(3) 0.6147(3)
C14 C 0.35182(19) 0.6393(3) 0.64345(18)
C15 C 0.3205(2) 0.7641(3) 0.64667(19)
H30 H 0.2680(15) 0.7800(5) 0.6234(7)
C16 C 0.3725(2) 0.8639(3) 0.6868(2)
H31 H 0.3547(6) 0.947(2) 0.6876(2)
C17 C 0.4504(2) 0.8359(4) 0.7251(2)
H32 H 0.4844(10) 0.8986(18) 0.7524(8)
C18 C 0.4753(2) 0.7091(4) 0.7206(2)
H33 H 0.5267(15) 0.6906(7) 0.7461(8)
N5 N 0.42723(16) 0.6109(3) 0.68028(17)
Cl1 Cl 0.31125(5) 0.19879(7) 0.69072(5)
Cl2 Cl -0.08486(5) 0.37619(8) 0.31451(5)
O1 O -0.01543(15) 0.3921(2) 0.10925(15)
H34 H -0.035(2) 0.381(4) 0.169(2)
H35 H 0.017(2) 0.464(3) 0.115(3)
O2 O -0.09183(15) 0.0929(2) 0.40520(16)
H36 H -0.082(2) 0.099(4) 0.4749(14)
H37 H -0.102(3) 0.176(2) 0.379(3)
loop_
_geom_bond_atom_site_label_1
_geom_bond_atom_site_label_2
_geom_bond_site_symmetry_1
_geom_bond_site_symmetry_2
N1 C1 1_555 1_555
C1 H1 1_555 1_555
H2 C1 1_555 1_555
C2 C1 1_555 1_555
H3 C2 1_555 1_555
H4 C2 1_555 1_555
C3 C2 1_555 1_555
H5 C3 1_555 1_555
H6 C3 1_555 1_555
N2 C3 1_555 1_555
H7 N2 1_555 1_555
C4 N2 1_555 1_555
H8 C4 1_555 1_555
H9 C4 1_555 1_555
C5 C4 1_555 1_555
H10 C5 1_555 1_555
H11 C5 1_555 1_555
C6 N2 1_555 1_555
H12 C6 1_555 1_555
H13 C6 1_555 1_555
C7 C6 1_555 1_555
H14 C7 1_555 1_555
H15 C7 1_555 1_555
N3 C5 1_555 1_555
C8 N3 1_555 1_555
H16 C8 1_555 1_555
H17 C8 1_555 1_555
C9 C8 1_555 1_555
H18 C9 1_555 1_555
H19 C9 1_555 1_555
C10 C9 1_555 1_555
H20 C10 1_555 1_555
H21 C10 1_555 1_555
N4 C10 1_555 1_555
H22 N4 1_555 1_555
H23 N4 1_555 1_555
C11 N4 1_555 1_555
H24 C11 1_555 1_555
H25 C11 1_555 1_555
C12 N1 1_555 1_555
H26 C12 1_555 1_555
H27 C12 1_555 1_555
C13 N1 1_555 1_555
H28 C13 1_555 1_555
H29 C13 1_555 1_555
C14 C13 1_555 1_555
C15 C14 1_555 1_555
H30 C15 1_555 1_555
C16 C15 1_555 1_555
H31 C16 1_555 1_555
C17 C16 1_555 1_555
H32 C17 1_555 1_555
C18 C17 1_555 1_555
H33 C18 1_555 1_555
N5 C14 1_555 1_555
O1 H34 1_555 1_555
H35 O1 1_555 1_555
O2 H36 1_555 1_555
H37 O2 1_555 1_555
C7 N3 1_555 1_555
C11 C12 1_555 1_555
C18 N5 1_555 1_555

#END
