
#######################################################################
#
#                 Cambridge Crystallographic Data Centre
#                                CCDC 
#
#######################################################################
#
# If this CIF has been generated from an entry in the Cambridge 
# Structural Database, then it will include bibliographic, chemical, 
# crystal, experimental, refinement or atomic coordinate data resulting 
# from the CCDC's data processing and validation procedures.
#
#######################################################################

data_ZUMQUV
_chemical_formula_moiety         'C25 H32 O3 S1'
_chemical_name_systematic        
5,5,8a-trimethyl-3-((4-methylphenyl)sulfonyl)-2-phenyloctahydro-2H-chromene
_symmetry_cell_setting           orthorhombic
_symmetry_space_group_name_H-M   'P b c a'
_symmetry_Int_Tables_number      61
_space_group_name_Hall           '-P 2ac 2ab'
loop_
_symmetry_equiv_pos_site_id
_symmetry_equiv_pos_as_xyz
1 x,y,z
2 1/2+x,1/2-y,-z
3 -x,1/2+y,1/2-z
4 1/2-x,-y,1/2+z
5 -x,-y,-z
6 1/2-x,1/2+y,z
7 x,1/2-y,1/2+z
8 1/2+x,y,1/2-z
_cell_length_a                   16.0500(8)
_cell_length_b                   11.2326(5)
_cell_length_c                   24.8893(13)
_cell_angle_alpha                90
_cell_angle_beta                 90
_cell_angle_gamma                90
_cell_volume                     4487.12
_exptl_crystal_colour            colorless
_cell_formula_units_Z            8
loop_
_atom_site_label
_atom_site_type_symbol
_atom_site_fract_x
_atom_site_fract_y
_atom_site_fract_z
S1 S 0.85089(3) 0.56987(4) 0.13889(2)
O1 O 0.82127(10) 0.44938(12) 0.13468(6)
O2 O 0.91321(9) 0.59734(16) 0.17850(6)
O3 O 0.64427(8) 0.54148(11) 0.14693(5)
C1 C 0.58153(14) 0.41685(19) 0.28010(9)
H1 H 0.5377 0.4713 0.2935
H2 H 0.5640 0.3343 0.2883
C2 C 0.58949(13) 0.43137(17) 0.21909(8)
H3 H 0.6270 0.3689 0.2049
H4 H 0.5341 0.4203 0.2023
C3 C 0.62337(12) 0.55277(15) 0.20378(7)
C4 C 0.70572(11) 0.57358(15) 0.23415(7)
H5 H 0.7420 0.5051 0.2236
C5 C 0.75041(12) 0.68301(16) 0.21235(7)
H6 H 0.8044 0.6926 0.2311
H7 H 0.7163 0.7547 0.2196
C6 C 0.76575(11) 0.67211(15) 0.15181(7)
H8 H 0.7838 0.7523 0.1388
C7 C 0.89171(12) 0.61161(17) 0.07560(8)
C8 C 0.87774(13) 0.54072(18) 0.03136(8)
H9 H 0.8474 0.4685 0.0349
C9 C 0.90801(13) 0.5750(2) -0.01804(9)
H10 H 0.8985 0.5257 -0.0484
C10 C 0.95186(13) 0.6794(2) -0.02411(8)
C11 C 0.98190(16) 0.7193(3) -0.07880(9)
H11 H 1.0175 0.6575 -0.0944
H12 H 1.0138 0.7933 -0.0751
H13 H 0.9339 0.7330 -0.1023
C12 C 0.68280(11) 0.64346(15) 0.12415(7)
H14 H 0.6449 0.7120 0.1319
C13 C 0.68532(12) 0.63096(16) 0.06387(7)
C14 C 0.71170(13) 0.72709(17) 0.03335(8)
H15 H 0.7309 0.7972 0.0508
C15 C 0.71048(16) 0.7222(2) -0.02210(8)
H16 H 0.7285 0.7889 -0.0425
C16 C 0.68335(16) 0.6214(2) -0.04782(9)
H17 H 0.6823 0.6182 -0.0859
C17 C 0.65780(16) 0.5253(2) -0.01808(9)
H18 H 0.6396 0.4551 -0.0358
C18 C 0.65828(13) 0.52952(18) 0.03787(8)
H19 H 0.6400 0.4627 0.0581
C19 C 0.66254(14) 0.44321(18) 0.30917(8)
H20 H 0.7037 0.3810 0.2997
H21 H 0.6526 0.4384 0.3484
C20 C 0.69998(14) 0.56585(17) 0.29608(7)
C21 C 0.78866(16) 0.5695(2) 0.31951(9)
H22 H 0.8115 0.6499 0.3156
H23 H 0.8241 0.5127 0.3002
H24 H 0.7869 0.5481 0.3577
C22 C 0.64921(17) 0.6652(2) 0.32309(9)
H25 H 0.5900 0.6546 0.3148
H26 H 0.6679 0.7427 0.3097
H27 H 0.6573 0.6616 0.3621
C23 C 0.55588(13) 0.64786(19) 0.20978(8)
H28 H 0.5816 0.7270 0.2092
H29 H 0.5266 0.6365 0.2440
H30 H 0.5161 0.6411 0.1800
C24 C 0.93759(13) 0.71483(19) 0.07108(8)
H31 H 0.9488 0.7623 0.1018
C25 C 0.96712(14) 0.7484(2) 0.02105(9)
H32 H 0.9983 0.8198 0.0176
loop_
_geom_bond_atom_site_label_1
_geom_bond_atom_site_label_2
_geom_bond_site_symmetry_1
_geom_bond_site_symmetry_2
S1 O1 1_555 1_555
O2 S1 1_555 1_555
O3 C3 1_555 1_555
C1 H1 1_555 1_555
H2 C1 1_555 1_555
C2 C1 1_555 1_555
H3 C2 1_555 1_555
H4 C2 1_555 1_555
C3 C2 1_555 1_555
C4 C3 1_555 1_555
H5 C4 1_555 1_555
C5 C4 1_555 1_555
H6 C5 1_555 1_555
H7 C5 1_555 1_555
C6 S1 1_555 1_555
H8 C6 1_555 1_555
C7 S1 1_555 1_555
C8 C7 1_555 1_555
H9 C8 1_555 1_555
C9 C8 1_555 1_555
H10 C9 1_555 1_555
C10 C9 1_555 1_555
C11 C10 1_555 1_555
H11 C11 1_555 1_555
H12 C11 1_555 1_555
H13 C11 1_555 1_555
C12 O3 1_555 1_555
H14 C12 1_555 1_555
C13 C12 1_555 1_555
C14 C13 1_555 1_555
H15 C14 1_555 1_555
C15 C14 1_555 1_555
H16 C15 1_555 1_555
C16 C15 1_555 1_555
H17 C16 1_555 1_555
C17 C16 1_555 1_555
H18 C17 1_555 1_555
C18 C13 1_555 1_555
H19 C18 1_555 1_555
C19 C1 1_555 1_555
H20 C19 1_555 1_555
H21 C19 1_555 1_555
C20 C4 1_555 1_555
C21 C20 1_555 1_555
H22 C21 1_555 1_555
H23 C21 1_555 1_555
H24 C21 1_555 1_555
C22 C20 1_555 1_555
H25 C22 1_555 1_555
H26 C22 1_555 1_555
H27 C22 1_555 1_555
C23 C3 1_555 1_555
H28 C23 1_555 1_555
H29 C23 1_555 1_555
H30 C23 1_555 1_555
C24 C7 1_555 1_555
H31 C24 1_555 1_555
C25 C10 1_555 1_555
H32 C25 1_555 1_555
C5 C6 1_555 1_555
C6 C12 1_555 1_555
C17 C18 1_555 1_555
C19 C20 1_555 1_555
C24 C25 1_555 1_555

#END
