
#######################################################################
#
#                 Cambridge Crystallographic Data Centre
#                                CCDC 
#
#######################################################################
#
# If this CIF has been generated from an entry in the Cambridge 
# Structural Database, then it will include bibliographic, chemical, 
# crystal, experimental, refinement or atomic coordinate data resulting 
# from the CCDC's data processing and validation procedures.
#
#######################################################################

data_ZUMRAC
_chemical_formula_moiety         'C25 H31 F1 O3 S1'
_chemical_name_systematic        
2-(4-fluorophenyl)-5,5,8a-trimethyl-3-((4-methylphenyl)sulfonyl)octahydro-2H-chromene
_symmetry_cell_setting           monoclinic
_symmetry_space_group_name_H-M   'P 21/n'
_symmetry_Int_Tables_number      14
_space_group_name_Hall           '-P 2yn'
loop_
_symmetry_equiv_pos_site_id
_symmetry_equiv_pos_as_xyz
1 x,y,z
2 1/2-x,1/2+y,1/2-z
3 -x,-y,-z
4 1/2+x,1/2-y,1/2+z
_cell_length_a                   15.2927(5)
_cell_length_b                   18.9203(5)
_cell_length_c                   22.9664(7)
_cell_angle_alpha                90
_cell_angle_beta                 90.7750(10)
_cell_angle_gamma                90
_cell_volume                     6644.55
_exptl_crystal_colour            colorless
_cell_formula_units_Z            12
loop_
_atom_site_label
_atom_site_type_symbol
_atom_site_fract_x
_atom_site_fract_y
_atom_site_fract_z
C1 C 0.16365(11) 0.62282(8) 0.19420(7)
H1 H 0.2081 0.6595 0.2047
C2 C 0.08218(11) 0.63753(9) 0.23100(7)
H2 H 0.0940 0.6233 0.2718
H3 H 0.0695 0.6888 0.2306
C3 C 0.00240(11) 0.59701(9) 0.20749(8)
H4 H 0.0209 0.5463 0.2075
C4 C -0.07981(13) 0.59906(9) 0.24639(9)
C5 C -0.15049(14) 0.55301(11) 0.21634(10)
H5 H -0.1323 0.5029 0.2191
H6 H -0.2057 0.5581 0.2379
C6 C -0.16820(13) 0.57074(11) 0.15263(10)
H7 H -0.1937 0.6187 0.1497
H8 H -0.2113 0.5369 0.1363
C7 C -0.08470(12) 0.56766(11) 0.11726(9)
H9 H -0.0632 0.5183 0.1163
H10 H -0.0979 0.5824 0.0767
C8 C -0.01341(11) 0.61518(9) 0.14263(8)
C9 C 0.14175(11) 0.63208(8) 0.12887(7)
H11 H 0.1290 0.6834 0.1226
C10 C 0.32019(11) 0.53874(8) 0.19295(7)
C11 C 0.37775(12) 0.59011(9) 0.21379(7)
H12 H 0.3580 0.6259 0.2395
C12 C 0.46409(12) 0.58839(9) 0.19651(8)
H13 H 0.5033 0.6239 0.2100
C13 C 0.49492(12) 0.53547(9) 0.15954(8)
C14 C 0.43630(13) 0.48370(9) 0.14039(8)
H14 H 0.4563 0.4467 0.1160
C15 C 0.34956(12) 0.48543(9) 0.15635(8)
H15 H 0.3101 0.4503 0.1424
C16 C 0.58905(13) 0.53414(10) 0.14113(9)
H16 H 0.6146 0.4879 0.1504
H17 H 0.6217 0.5711 0.1619
H18 H 0.5922 0.5425 0.0991
C17 C 0.21438(11) 0.61270(8) 0.08790(7)
C18 C 0.29144(12) 0.65234(9) 0.08998(8)
H19 H 0.2965 0.6902 0.1169
C19 C 0.36049(12) 0.63758(9) 0.05361(8)
H20 H 0.4133 0.6640 0.0558
C20 C 0.35012(12) 0.58331(10) 0.01412(8)
C21 C 0.27531(12) 0.54353(9) 0.00982(8)
H21 H 0.2702 0.5068 -0.0182
C22 C 0.20698(12) 0.55827(9) 0.04756(7)
H22 H 0.1550 0.5309 0.0457
C23 C -0.05671(16) 0.56629(11) 0.30572(10)
H23 H -0.0194 0.5990 0.3280
H24 H -0.0255 0.5217 0.2999
H25 H -0.1105 0.5573 0.3272
C24 C -0.11613(13) 0.67345(10) 0.25795(9)
H26 H -0.1403 0.6931 0.2217
H27 H -0.0689 0.7040 0.2725
H28 H -0.1623 0.6707 0.2871
C25 C -0.03404(12) 0.69283(9) 0.12874(8)
H29 H 0.0048 0.7235 0.1517
H30 H -0.0950 0.7030 0.1384
H31 H -0.0251 0.7016 0.0872
F1 F 0.41822(8) 0.56833(6) -0.02199(5)
O1 O 0.16630(8) 0.48094(6) 0.18350(5)
O2 O 0.20951(8) 0.53617(6) 0.27755(5)
O3 O 0.06512(8) 0.59431(6) 0.11188(5)
S1 S 0.20943(3) 0.53790(2) 0.21463(2)
C26 C 0.35302(11) 0.43703(8) 0.34538(7)
H32 H 0.3071 0.4644 0.3237
C27 C 0.43840(11) 0.44451(9) 0.31167(7)
H33 H 0.4342 0.4170 0.2751
H34 H 0.4476 0.4948 0.3014
C28 C 0.51635(11) 0.41800(8) 0.34815(7)
H35 H 0.5015 0.3680 0.3580
C29 C 0.60438(11) 0.41322(9) 0.31531(7)
C30 C 0.67088(12) 0.37794(9) 0.35732(8)
H36 H 0.6538 0.3280 0.3630
H37 H 0.7292 0.3784 0.3392
C31 C 0.67758(12) 0.41427(9) 0.41708(8)
H38 H 0.7182 0.3871 0.4425
H39 H 0.7021 0.4623 0.4122
C32 C 0.58843(11) 0.41976(9) 0.44649(7)
H40 H 0.5673 0.3717 0.4561
H41 H 0.5950 0.4465 0.4833
C33 C 0.52113(11) 0.45660(8) 0.40734(7)
C34 C 0.36380(11) 0.47128(8) 0.40587(7)
H42 H 0.3739 0.5229 0.3995
C35 C 0.15585(11) 0.37279(9) 0.30031(8)
H43 H 0.1854 0.3841 0.2654
C36 C 0.20235(11) 0.34952(8) 0.34919(7)
C37 C 0.15936(12) 0.33049(8) 0.39981(8)
H44 H 0.1914 0.3139 0.4328
C38 C 0.06940(12) 0.33605(9) 0.40137(8)
H45 H 0.0397 0.3223 0.4356
C39 C 0.02109(12) 0.36144(9) 0.35372(9)
C40 C 0.06581(12) 0.37921(9) 0.30342(8)
H46 H 0.0339 0.3961 0.2705
C41 C -0.07654(13) 0.36957(11) 0.35631(11)
H47 H -0.1047 0.3303 0.3355
H48 H -0.0938 0.4143 0.3380
H49 H -0.0948 0.3694 0.3970
C42 C 0.28549(11) 0.46462(8) 0.44499(7)
C43 C 0.28788(11) 0.42233(8) 0.49456(7)
H50 H 0.3392 0.3962 0.5040
C44 C 0.21540(11) 0.41817(9) 0.53047(8)
H51 H 0.2166 0.3897 0.5646
C45 C 0.14221(12) 0.45634(9) 0.51524(8)
C46 C 0.13709(12) 0.49853(9) 0.46654(8)
H52 H 0.0852 0.5241 0.4573
C47 C 0.20997(12) 0.50267(9) 0.43137(8)
H53 H 0.2083 0.5317 0.3976
C48 C 0.59148(12) 0.36543(10) 0.26200(8)
H54 H 0.5584 0.3910 0.2318
H55 H 0.5591 0.3230 0.2732
H56 H 0.6486 0.3518 0.2468
C49 C 0.64034(12) 0.48416(10) 0.29356(8)
H57 H 0.6877 0.4755 0.2661
H58 H 0.6628 0.5116 0.3267
H59 H 0.5934 0.5107 0.2740
C50 C 0.53817(12) 0.53662(9) 0.40510(8)
H60 H 0.5037 0.5575 0.3732
H61 H 0.6005 0.5452 0.3986
H62 H 0.5211 0.5581 0.4421
F2 F 0.07084(7) 0.45177(6) 0.55038(5)
O4 O 0.34055(8) 0.31499(6) 0.29103(5)
O5 O 0.34850(8) 0.30954(6) 0.39854(5)
O6 O 0.43847(7) 0.44468(6) 0.43623(5)
S2 S 0.31785(3) 0.34518(2) 0.34670(2)
C51 C 0.35050(11) 0.80604(8) 0.37909(7)
H63 H 0.3088 0.8405 0.3608
C52 C 0.43743(11) 0.81343(9) 0.34667(8)
H64 H 0.4317 0.7915 0.3077
H65 H 0.4510 0.8641 0.3413
C53 C 0.51244(11) 0.77778(9) 0.38076(7)
H66 H 0.4929 0.7278 0.3863
C54 C 0.60012(12) 0.77207(10) 0.34757(8)
C55 C 0.66589(12) 0.73321(10) 0.38777(8)
H67 H 0.6479 0.6831 0.3908
H68 H 0.7241 0.7343 0.3695
C56 C 0.67417(12) 0.76401(10) 0.44904(8)
H69 H 0.6989 0.8123 0.4468
H70 H 0.7148 0.7346 0.4726
C57 C 0.58544(12) 0.76688(10) 0.47866(8)
H71 H 0.5634 0.7182 0.4843
H72 H 0.5924 0.7890 0.5175
C58 C 0.51910(11) 0.80885(9) 0.44275(8)
C59 C 0.19284(11) 0.72646(8) 0.38102(7)
C60 C 0.15758(12) 0.68912(9) 0.42723(8)
H73 H 0.1936 0.6597 0.4509
C61 C 0.06903(12) 0.69548(9) 0.43823(8)
H74 H 0.0444 0.6693 0.4693
C62 C 0.01536(12) 0.73952(10) 0.40464(8)
C63 C 0.05279(12) 0.77587(10) 0.35822(8)
H75 H 0.0171 0.8059 0.3348
C64 C 0.14052(12) 0.76916(9) 0.34562(8)
H76 H 0.1647 0.7933 0.3133
C65 C -0.08015(13) 0.74741(12) 0.41769(10)
H77 H -0.1146 0.7185 0.3904
H78 H -0.0972 0.7971 0.4135
H79 H -0.0909 0.7318 0.4576
C66 C 0.28457(11) 0.81913(8) 0.48213(7)
C67 C 0.28603(11) 0.77145(9) 0.52834(8)
H80 H 0.3362 0.7429 0.5350
C68 C 0.21468(12) 0.76541(9) 0.56470(8)
H81 H 0.2159 0.7336 0.5967
C69 C 0.14233(12) 0.80642(9) 0.55349(8)
C70 C 0.13776(12) 0.85394(9) 0.50825(8)
H82 H 0.0867 0.8815 0.5014
C71 C 0.21006(12) 0.86019(9) 0.47306(8)
H83 H 0.2089 0.8933 0.4420
C72 C 0.36286(11) 0.82875(8) 0.44324(7)
H84 H 0.3762 0.8805 0.4428
C73 C 0.63779(13) 0.84340(10) 0.32765(9)
H85 H 0.6883 0.8351 0.3028
H86 H 0.6561 0.8710 0.3618
H87 H 0.5929 0.8695 0.3057
C74 C 0.58553(13) 0.72615(11) 0.29323(9)
H88 H 0.5498 0.7521 0.2647
H89 H 0.5554 0.6825 0.3041
H90 H 0.6421 0.7145 0.2762
C75 C 0.53831(12) 0.88836(9) 0.44773(8)
H91 H 0.5038 0.9140 0.4183
H92 H 0.6007 0.8968 0.4414
H93 H 0.5226 0.9050 0.4866
F3 F 0.07185(7) 0.80001(6) 0.58907(5)
O7 O 0.31273(9) 0.70721(7) 0.30445(6)
O8 O 0.34296(8) 0.66763(6) 0.40571(7)
O9 O 0.43550(8) 0.79507(6) 0.47014(5)
S3 S 0.30540(3) 0.71856(2) 0.36626(2)
loop_
_geom_bond_atom_site_label_1
_geom_bond_atom_site_label_2
_geom_bond_site_symmetry_1
_geom_bond_site_symmetry_2
C1 H1 1_555 1_555
C2 C1 1_555 1_555
H2 C2 1_555 1_555
H3 C2 1_555 1_555
C3 C2 1_555 1_555
H4 C3 1_555 1_555
C4 C3 1_555 1_555
C5 C4 1_555 1_555
H5 C5 1_555 1_555
H6 C5 1_555 1_555
C6 C5 1_555 1_555
H7 C6 1_555 1_555
H8 C6 1_555 1_555
C7 C6 1_555 1_555
H9 C7 1_555 1_555
H10 C7 1_555 1_555
C8 C3 1_555 1_555
C9 C1 1_555 1_555
H11 C9 1_555 1_555
C10 C11 1_555 1_555
C11 H12 1_555 1_555
C12 C11 1_555 1_555
H13 C12 1_555 1_555
C13 C12 1_555 1_555
C14 C13 1_555 1_555
H14 C14 1_555 1_555
C15 C10 1_555 1_555
H15 C15 1_555 1_555
C16 C13 1_555 1_555
H16 C16 1_555 1_555
H17 C16 1_555 1_555
H18 C16 1_555 1_555
C17 C9 1_555 1_555
C18 C17 1_555 1_555
H19 C18 1_555 1_555
C19 C18 1_555 1_555
H20 C19 1_555 1_555
C20 C19 1_555 1_555
C21 C20 1_555 1_555
H21 C21 1_555 1_555
C22 C17 1_555 1_555
H22 C22 1_555 1_555
C23 C4 1_555 1_555
H23 C23 1_555 1_555
H24 C23 1_555 1_555
H25 C23 1_555 1_555
C24 C4 1_555 1_555
H26 C24 1_555 1_555
H27 C24 1_555 1_555
H28 C24 1_555 1_555
C25 C8 1_555 1_555
H29 C25 1_555 1_555
H30 C25 1_555 1_555
H31 C25 1_555 1_555
F1 C20 1_555 1_555
O1 S1 1_555 1_555
O2 S1 1_555 1_555
O3 C8 1_555 1_555
S1 C1 1_555 1_555
C26 H32 1_555 1_555
C27 C26 1_555 1_555
H33 C27 1_555 1_555
H34 C27 1_555 1_555
C28 C27 1_555 1_555
H35 C28 1_555 1_555
C29 C28 1_555 1_555
C30 C29 1_555 1_555
H36 C30 1_555 1_555
H37 C30 1_555 1_555
C31 C30 1_555 1_555
H38 C31 1_555 1_555
H39 C31 1_555 1_555
C32 C31 1_555 1_555
H40 C32 1_555 1_555
H41 C32 1_555 1_555
C33 C28 1_555 1_555
C34 C26 1_555 1_555
H42 C34 1_555 1_555
C35 H43 1_555 1_555
C36 C35 1_555 1_555
C37 C36 1_555 1_555
H44 C37 1_555 1_555
C38 C37 1_555 1_555
H45 C38 1_555 1_555
C39 C38 1_555 1_555
C40 C35 1_555 1_555
H46 C40 1_555 1_555
C41 C39 1_555 1_555
H47 C41 1_555 1_555
H48 C41 1_555 1_555
H49 C41 1_555 1_555
C42 C34 1_555 1_555
C43 C42 1_555 1_555
H50 C43 1_555 1_555
C44 C43 1_555 1_555
H51 C44 1_555 1_555
C45 C44 1_555 1_555
C46 C45 1_555 1_555
H52 C46 1_555 1_555
C47 C42 1_555 1_555
H53 C47 1_555 1_555
C48 C29 1_555 1_555
H54 C48 1_555 1_555
H55 C48 1_555 1_555
H56 C48 1_555 1_555
C49 C29 1_555 1_555
H57 C49 1_555 1_555
H58 C49 1_555 1_555
H59 C49 1_555 1_555
C50 C33 1_555 1_555
H60 C50 1_555 1_555
H61 C50 1_555 1_555
H62 C50 1_555 1_555
F2 C45 1_555 1_555
O4 S2 1_555 1_555
O5 S2 1_555 1_555
O6 C33 1_555 1_555
S2 C26 1_555 1_555
C51 H63 1_555 1_555
C52 C51 1_555 1_555
H64 C52 1_555 1_555
H65 C52 1_555 1_555
C53 C52 1_555 1_555
H66 C53 1_555 1_555
C54 C53 1_555 1_555
C55 C54 1_555 1_555
H67 C55 1_555 1_555
H68 C55 1_555 1_555
C56 C55 1_555 1_555
H69 C56 1_555 1_555
H70 C56 1_555 1_555
C57 C56 1_555 1_555
H71 C57 1_555 1_555
H72 C57 1_555 1_555
C58 C53 1_555 1_555
C59 C60 1_555 1_555
C60 H73 1_555 1_555
C61 C60 1_555 1_555
H74 C61 1_555 1_555
C62 C61 1_555 1_555
C63 C62 1_555 1_555
H75 C63 1_555 1_555
C64 C59 1_555 1_555
H76 C64 1_555 1_555
C65 C62 1_555 1_555
H77 C65 1_555 1_555
H78 C65 1_555 1_555
H79 C65 1_555 1_555
C66 C67 1_555 1_555
C67 H80 1_555 1_555
C68 C67 1_555 1_555
H81 C68 1_555 1_555
C69 C68 1_555 1_555
C70 C69 1_555 1_555
H82 C70 1_555 1_555
C71 C66 1_555 1_555
H83 C71 1_555 1_555
C72 C51 1_555 1_555
H84 C72 1_555 1_555
C73 C54 1_555 1_555
H85 C73 1_555 1_555
H86 C73 1_555 1_555
H87 C73 1_555 1_555
C74 C54 1_555 1_555
H88 C74 1_555 1_555
H89 C74 1_555 1_555
H90 C74 1_555 1_555
C75 C58 1_555 1_555
H91 C75 1_555 1_555
H92 C75 1_555 1_555
H93 C75 1_555 1_555
F3 C69 1_555 1_555
O7 S3 1_555 1_555
O8 S3 1_555 1_555
O9 C58 1_555 1_555
S3 C51 1_555 1_555
C7 C8 1_555 1_555
C9 O3 1_555 1_555
C10 S1 1_555 1_555
C14 C15 1_555 1_555
C21 C22 1_555 1_555
C32 C33 1_555 1_555
C34 O6 1_555 1_555
C36 S2 1_555 1_555
C39 C40 1_555 1_555
C46 C47 1_555 1_555
C57 C58 1_555 1_555
C59 S3 1_555 1_555
C63 C64 1_555 1_555
C66 C72 1_555 1_555
C70 C71 1_555 1_555
C72 O9 1_555 1_555

#END
