
#######################################################################
#
#                 Cambridge Crystallographic Data Centre
#                                CCDC 
#
#######################################################################
#
# If this CIF has been generated from an entry in the Cambridge 
# Structural Database, then it will include bibliographic, chemical, 
# crystal, experimental, refinement or atomic coordinate data resulting 
# from the CCDC's data processing and validation procedures.
#
#######################################################################

data_ZUNCAO
_chemical_formula_moiety         'C21 H11 F3 N4 O6'
_chemical_name_systematic        
2-(1,3-Benzodioxol-5-yl)-1-(2,6-dinitro-4-(trifluoromethyl)phenyl)-1H-benzimidazole
_symmetry_cell_setting           monoclinic
_symmetry_space_group_name_H-M   'P 21/n'
_symmetry_Int_Tables_number      14
_space_group_name_Hall           '-P 2yn'
loop_
_symmetry_equiv_pos_site_id
_symmetry_equiv_pos_as_xyz
1 x,y,z
2 1/2-x,1/2+y,1/2-z
3 -x,-y,-z
4 1/2+x,1/2-y,1/2+z
_cell_length_a                   8.5592(4)
_cell_length_b                   16.6240(8)
_cell_length_c                   14.1389(6)
_cell_angle_alpha                90
_cell_angle_beta                 96.372(2)
_cell_angle_gamma                90
_cell_volume                     1999.37
_cell_formula_units_Z            4
loop_
_atom_site_label
_atom_site_type_symbol
_atom_site_fract_x
_atom_site_fract_y
_atom_site_fract_z
N1 N 0.73996(19) 0.22262(10) 1.02616(10)
O1 O 0.55479(18) -0.13014(8) 0.86507(11)
F1 F 0.67628(16) 0.15563(10) 0.43027(8)
C1 C 0.7155(2) 0.18854(11) 0.94275(12)
C2 C 0.6659(2) 0.24171(11) 0.60401(12)
H1 H 0.5990 0.2654 0.5556
O2 O 0.42067(18) -0.03307(8) 0.77271(10)
C3 C 0.74628(19) 0.22427(10) 0.77331(11)
N2 N 0.5110(2) 0.30505(11) 0.71691(11)
N3 N 0.72449(17) 0.24329(8) 0.86857(9)
C4 C 0.6468(2) 0.25583(11) 0.69782(12)
C5 C 0.5597(2) 0.08267(11) 0.85093(12)
H2 H 0.5062 0.1214 0.8125
C6 C 0.7599(2) 0.31810(10) 0.91122(12)
C7 C 0.6772(2) 0.10381(11) 0.92442(12)
C8 C 0.8674(2) 0.17532(11) 0.74826(12)
C9 C 0.7856(2) 0.19196(12) 0.58287(12)
O3 O 1.02426(18) 0.17951(11) 0.89171(11)
O4 O 0.41205(19) 0.27290(12) 0.75857(11)
C10 C 0.6076(2) -0.05529(11) 0.89473(13)
C11 C 0.5281(2) 0.00272(11) 0.83877(12)
O5 O 0.5049(2) 0.37321(10) 0.68514(14)
F2 F 0.8559(2) 0.24506(11) 0.44172(9)
F3 F 0.91358(18) 0.12186(11) 0.46960(9)
C12 C 0.7682(2) 0.30310(11) 1.00874(12)
C13 C 0.7549(2) 0.04478(12) 0.98094(13)
H3 H 0.8315 0.0599 1.0295
C14 C 0.8859(2) 0.15776(12) 0.65463(13)
H4 H 0.9654 0.1232 0.6402
C15 C 0.7837(2) 0.39333(12) 0.87428(15)
H5 H 0.7797 0.4022 0.8091
N4 N 0.9856(2) 0.14135(13) 0.82074(12)
C16 C 0.8200(3) 0.44133(14) 1.03685(17)
H6 H 0.8393 0.4844 1.0784
C17 C 0.8085(3) 0.17824(15) 0.48078(14)
C18 C 0.7982(2) 0.36660(13) 1.07276(14)
H7 H 0.8032 0.3582 1.1380
C19 C 0.7211(2) -0.03627(12) 0.96679(14)
H8 H 0.7733 -0.0758 1.0047
C20 C 0.4181(3) -0.11584(12) 0.80046(15)
H9 H 0.3243 -0.1271 0.8308
H10 H 0.4181 -0.1503 0.7451
C21 C 0.8138(3) 0.45461(13) 0.93918(17)
H11 H 0.8305 0.5063 0.9173
O6 O 1.0355(3) 0.07512(15) 0.80527(15)
loop_
_geom_bond_atom_site_label_1
_geom_bond_atom_site_label_2
_geom_bond_site_symmetry_1
_geom_bond_site_symmetry_2
N1 C1 1_555 1_555
O1 C10 1_555 1_555
F1 C17 1_555 1_555
C1 N3 1_555 1_555
C2 H1 1_555 1_555
O2 C11 1_555 1_555
C3 N3 1_555 1_555
N2 C4 1_555 1_555
N3 C6 1_555 1_555
C4 C2 1_555 1_555
C5 H2 1_555 1_555
C6 C12 1_555 1_555
C7 C1 1_555 1_555
C8 C3 1_555 1_555
C9 C2 1_555 1_555
O3 N4 1_555 1_555
O4 N2 1_555 1_555
C10 C11 1_555 1_555
C11 C5 1_555 1_555
O5 N2 1_555 1_555
F2 C17 1_555 1_555
F3 C17 1_555 1_555
C12 N1 1_555 1_555
C13 C7 1_555 1_555
H3 C13 1_555 1_555
C14 C8 1_555 1_555
H4 C14 1_555 1_555
C15 C6 1_555 1_555
H5 C15 1_555 1_555
N4 C8 1_555 1_555
C16 H6 1_555 1_555
C17 C9 1_555 1_555
C18 C12 1_555 1_555
H7 C18 1_555 1_555
C19 C10 1_555 1_555
H8 C19 1_555 1_555
C20 O1 1_555 1_555
H9 C20 1_555 1_555
H10 C20 1_555 1_555
C21 C15 1_555 1_555
H11 C21 1_555 1_555
O6 N4 1_555 1_555
O2 C20 1_555 1_555
C3 C4 1_555 1_555
C5 C7 1_555 1_555
C9 C14 1_555 1_555
C13 C19 1_555 1_555
C16 C18 1_555 1_555
C16 C21 1_555 1_555

#END
