
#######################################################################
#
#                 Cambridge Crystallographic Data Centre
#                                CCDC 
#
#######################################################################
#
# If this CIF has been generated from an entry in the Cambridge 
# Structural Database, then it will include bibliographic, chemical, 
# crystal, experimental, refinement or atomic coordinate data resulting 
# from the CCDC's data processing and validation procedures.
#
#######################################################################

data_ZUNHOH01
_chemical_name_common            'Baicalein monohydrate'
_chemical_formula_moiety         'C15 H10 O5,H2 O1'
_chemical_name_systematic        
'5,6,7-Trihydroxy-2-phenyl-4H-chromen-4-one monohydrate'
_symmetry_cell_setting           triclinic
_symmetry_space_group_name_H-M   'P -1'
_symmetry_Int_Tables_number      2
_space_group_name_Hall           '-P 1'
loop_
_symmetry_equiv_pos_site_id
_symmetry_equiv_pos_as_xyz
1 x,y,z
2 -x,-y,-z
_cell_length_a                   7.8486(13)
_cell_length_b                   9.7046(16)
_cell_length_c                   10.4672(19)
_cell_angle_alpha                104.171(10)
_cell_angle_beta                 110.512(10)
_cell_angle_gamma                107.425(10)
_cell_volume                     655.613
_exptl_crystal_colour            yellow
_exptl_crystal_description       plate
_cell_formula_units_Z            2
loop_
_atom_site_label
_atom_site_type_symbol
_atom_site_fract_x
_atom_site_fract_y
_atom_site_fract_z
O1 O 0.6775(2) 0.87131(13) 0.48021(16)
H1 H 0.726(3) 0.844(2) 0.547(2)
H2 H 0.566(4) 0.839(3) 0.448(3)
O2 O 1.27918(14) 0.82720(11) 0.42253(12)
H3 H 1.2492 0.9013 0.4398
O3 O 0.63307(14) 0.27235(11) 0.24233(11)
O4 O 1.33240(14) 0.56486(12) 0.39383(14)
H4 H 1.3319 0.4789 0.3876
O5 O 1.18047(15) 0.26884(12) 0.33578(13)
C1 C 0.2907(2) 0.01732(19) 0.15369(18)
H5 H 0.2952 0.1175 0.1824
C2 C 0.1118(3) -0.1118(2) 0.0974(2)
H6 H -0.0035 -0.0983 0.0890
C3 C 0.1023(3) -0.2606(2) 0.0534(2)
H7 H -0.0190 -0.3475 0.0150
O6 O 0.91162(15) 0.82343(11) 0.36038(13)
H8 H 0.8195 0.8224 0.3807
C4 C 1.1167(2) 0.69103(16) 0.37620(16)
C5 C 1.1461(2) 0.55595(16) 0.36220(15)
C6 C 0.9847(2) 0.41221(15) 0.31848(15)
C7 C 0.7969(2) 0.41104(15) 0.28913(15)
C8 C 0.6553(2) 0.13646(16) 0.22614(15)
C9 C 0.4638(2) -0.00078(17) 0.16789(15)
C10 C 0.4523(3) -0.15204(18) 0.12273(18)
H9 H 0.5670 -0.1664 0.1307
C11 C 0.2731(3) -0.28029(19) 0.06654(19)
H10 H 0.2673 -0.3808 0.0373
C12 C 0.8357(2) 0.13268(17) 0.26002(16)
H11 H 0.8456 0.0382 0.2527
C13 C 1.0106(2) 0.26977(17) 0.30662(16)
C14 C 0.7643(2) 0.54448(16) 0.30169(16)
H12 H 0.6374 0.5408 0.2815
C15 C 0.9261(2) 0.68450(16) 0.34527(16)
loop_
_geom_bond_atom_site_label_1
_geom_bond_atom_site_label_2
_geom_bond_site_symmetry_1
_geom_bond_site_symmetry_2
O1 H1 1_555 1_555
H2 O1 1_555 1_555
O2 H3 1_555 1_555
O3 C7 1_555 1_555
O4 H4 1_555 1_555
O5 C13 1_555 1_555
C1 H5 1_555 1_555
C2 C1 1_555 1_555
H6 C2 1_555 1_555
C3 C2 1_555 1_555
H7 C3 1_555 1_555
O6 H8 1_555 1_555
C4 O2 1_555 1_555
C5 O4 1_555 1_555
C6 C5 1_555 1_555
C7 C6 1_555 1_555
C8 O3 1_555 1_555
C9 C1 1_555 1_555
C10 C9 1_555 1_555
H9 C10 1_555 1_555
C11 C3 1_555 1_555
H10 C11 1_555 1_555
C12 C8 1_555 1_555
H11 C12 1_555 1_555
C13 C6 1_555 1_555
C14 C7 1_555 1_555
H12 C14 1_555 1_555
C15 O6 1_555 1_555
C4 C5 1_555 1_555
C4 C15 1_555 1_555
C8 C9 1_555 1_555
C10 C11 1_555 1_555
C12 C13 1_555 1_555
C14 C15 1_555 1_555

#END
