
#######################################################################
#
#                 Cambridge Crystallographic Data Centre
#                                CCDC 
#
#######################################################################
#
# If this CIF has been generated from an entry in the Cambridge 
# Structural Database, then it will include bibliographic, chemical, 
# crystal, experimental, refinement or atomic coordinate data resulting 
# from the CCDC's data processing and validation procedures.
#
#######################################################################

data_ZUNVEL
_chemical_formula_moiety         'C42 H70 O35,2(Na1 1+),2(H1 O1 1-),0.5(H2 O1)'
_chemical_name_systematic        
'\b-Cyclodextrin di-sodium dihydroxide hemihydrate'
_symmetry_cell_setting           orthorhombic
_symmetry_space_group_name_H-M   'P 21 21 21'
_symmetry_Int_Tables_number      19
_space_group_name_Hall           'P 2ac 2ab'
loop_
_symmetry_equiv_pos_site_id
_symmetry_equiv_pos_as_xyz
1 x,y,z
2 1/2-x,-y,1/2+z
3 1/2+x,1/2-y,-z
4 -x,1/2+y,1/2-z
_cell_length_a                   10.353(5)
_cell_length_b                   19.678(5)
_cell_length_c                   29.790(5)
_cell_angle_alpha                90
_cell_angle_beta                 90
_cell_angle_gamma                90
_cell_volume                     6069.01
_cell_formula_units_Z            4
loop_
_atom_site_label
_atom_site_type_symbol
_atom_site_fract_x
_atom_site_fract_y
_atom_site_fract_z
O1 O -0.2180(5) 0.0818(3) 0.24424(16)
O2 O -0.2275(5) 0.2108(3) 0.39706(17)
O3 O 0.4347(4) -0.2088(3) 0.45442(16)
O4 O 0.4316(5) -0.2078(3) 0.33171(17)
O5 O 0.3528(5) -0.3468(3) 0.43077(17)
O6 O 0.5950(5) -0.1571(3) 0.49596(18)
O7 O -0.0954(6) 0.0311(3) 0.16935(17)
O8 O 0.0615(5) 0.0768(3) 0.56607(17)
O9 O -0.0260(6) -0.2807(3) 0.3320(2)
O10 O -0.2967(5) 0.0729(3) 0.31755(16)
O11 O -0.4103(6) -0.1041(3) 0.2532(2)
O12 O -0.0311(5) -0.0391(3) 0.6105(2)
O13 O -0.5310(5) 0.0183(3) 0.2835(2)
O14 O 0.6616(5) -0.0445(3) 0.56042(19)
O15 O 0.2072(5) -0.2107(3) 0.32864(17)
O16 O 0.4486(5) 0.1419(3) 0.60553(19)
O17 O -0.4837(5) 0.1284(3) 0.45999(17)
C1 C 0.5353(7) -0.2199(4) 0.4854(2)
H1 H 0.5990 -0.2512 0.4725
O18 O -0.2386(5) -0.2151(3) 0.2840(2)
C2 C 0.4407(6) -0.1315(4) 0.5549(2)
H2 H 0.5031 -0.1340 0.5796
C3 C -0.1659(6) 0.1589(3) 0.5004(2)
H3 H -0.2027 0.2031 0.5084
O19 O 0.4217(7) -0.3136(3) 0.5164(2)
C4 C -0.0193(7) 0.1653(4) 0.4982(2)
H4 H 0.0196 0.1217 0.4898
C5 C 0.1010(7) -0.0313(4) 0.5974(2)
H5 H 0.1114 -0.0473 0.5665
C6 C 0.1925(7) -0.0695(3) 0.6272(2)
H6 H 0.1860 -0.0514 0.6578
O20 O -0.0046(6) 0.2264(3) 0.3429(2)
C7 C -0.4012(7) 0.0987(4) 0.3857(2)
H7 H -0.3524 0.0612 0.3991
C8 C -0.4190(7) 0.1536(4) 0.4206(2)
H8 H -0.4729 0.1894 0.4074
C9 C -0.4124(7) 0.0177(4) 0.2583(2)
H9 H -0.4321 0.0191 0.2262
C10 C -0.3231(7) 0.1284(4) 0.3468(2)
H10 H -0.3751 0.1625 0.3310
C11 C 0.1242(7) -0.2083(4) 0.2904(2)
H11 H 0.1448 -0.2458 0.2700
C12 C 0.3367(7) -0.2864(4) 0.4036(2)
H12 H 0.2563 -0.2641 0.4129
C13 C -0.2925(7) 0.1852(4) 0.4345(2)
H13 H -0.3115 0.2234 0.4546
C14 C 0.3226(7) -0.2485(4) 0.3233(2)
H14 H 0.3271 -0.2653 0.2924
C15 C 0.0206(7) 0.2202(4) 0.4654(3)
H15 H 0.1120 0.2294 0.4691
H16 H 0.0078 0.2036 0.4350
O21 O -0.5211(5) 0.0749(4) 0.3724(2)
O22 O 0.2041(5) -0.3469(3) 0.34979(19)
C16 C 0.1345(7) 0.0439(4) 0.5997(2)
H17 H 0.1099 0.0619 0.6291
C17 C 0.4321(8) -0.1795(4) 0.3756(2)
H18 H 0.3505 -0.1555 0.3807
C18 C 0.4440(7) -0.2370(4) 0.4097(2)
H19 H 0.5272 -0.2601 0.4060
C19 C -0.0340(7) 0.0316(4) 0.2124(2)
H20 H 0.0117 0.0741 0.2166
H21 H 0.0282 -0.0052 0.2141
C20 C 0.5081(7) -0.1063(4) 0.5125(2)
H22 H 0.4432 -0.0964 0.4895
O23 O 0.6642(5) -0.1600(4) 0.3683(2)
C21 C 0.3143(7) 0.1260(4) 0.6112(3)
H23 H 0.2625 0.1606 0.5967
H24 H 0.2935 0.1265 0.6430
C22 C -0.2046(6) 0.1072(4) 0.5356(2)
H25 H -0.1743 0.0619 0.5268
C23 C -0.0144(7) -0.2162(4) 0.3081(3)
H26 H -0.0344 -0.1787 0.3286
C24 C 0.3205(7) -0.3099(4) 0.3556(3)
H27 H 0.3931 -0.3398 0.3481
C25 C -0.3382(7) -0.0458(4) 0.2687(2)
H28 H -0.3257 -0.0493 0.3013
C26 C -0.1069(7) -0.2148(4) 0.2688(3)
H29 H -0.0918 -0.2547 0.2499
C27 C 0.5884(9) -0.0433(4) 0.5208(3)
H30 H 0.6466 -0.0370 0.4956
H31 H 0.5312 -0.0043 0.5218
C28 C 0.2794(7) 0.0568(4) 0.5918(2)
H32 H 0.2976 0.0564 0.5595
C29 C -0.3286(7) 0.0792(4) 0.2706(2)
H33 H -0.3787 0.1209 0.2661
C30 C 0.4778(8) -0.2507(4) 0.5279(3)
H34 H 0.5470 -0.2583 0.5497
C31 C -0.1971(7) 0.1608(4) 0.3630(2)
H35 H -0.1409 0.1257 0.3758
C32 C -0.1349(7) 0.0232(4) 0.2490(2)
H36 H -0.0919 0.0255 0.2782
C33 C -0.1267(9) 0.1979(5) 0.3268(3)
H37 H -0.1096 0.1670 0.3021
H38 H -0.1808 0.2344 0.3155
C34 C 0.1331(7) -0.1414(5) 0.2655(3)
H39 H 0.1070 -0.1047 0.2858
C35 C 0.5413(8) -0.1292(5) 0.3770(3)
H40 H 0.5257 -0.0940 0.3548
H41 H 0.5433 -0.1078 0.4063
C36 C 0.2657(10) -0.1254(6) 0.2474(4)
H42 H 0.2633 -0.0828 0.2311
H43 H 0.3260 -0.1205 0.2721
O24 O -0.2191(5) 0.1377(2) 0.45846(16)
O25 O 0.3414(5) -0.0830(3) 0.56570(16)
O26 O -0.0485(6) 0.2808(3) 0.47085(19)
O27 O -0.3414(5) 0.1064(3) 0.54126(17)
O28 O 0.0446(5) -0.1434(3) 0.22847(17)
O29 O -0.1772(5) 0.0800(3) 0.61516(16)
O30 O 0.0249(5) 0.1860(3) 0.54234(17)
O31 O 0.3634(4) 0.0093(2) 0.61429(17)
O32 O -0.1285(5) -0.0948(3) 0.26642(16)
O33 O 0.3337(6) -0.2287(3) 0.58913(18)
C37 C -0.2067(7) -0.0440(4) 0.2456(2)
H44 H -0.2180 -0.0555 0.2138
O34 O 0.1601(5) -0.1410(3) 0.62776(19)
C38 C 0.3790(7) -0.2008(4) 0.5478(2)
H45 H 0.3062 -0.1961 0.5270
C39 C 0.3308(7) -0.0603(4) 0.6105(2)
H46 H 0.3891 -0.0871 0.6294
O35 O 0.3069(9) -0.1769(6) 0.2192(4)
C40 C -0.0854(7) -0.1501(4) 0.2409(2)
H47 H -0.1380 -0.1531 0.2136
C41 C -0.0022(7) 0.1380(4) 0.5761(2)
H48 H 0.0307 0.1553 0.6048
C42 C -0.1466(7) 0.1267(4) 0.5804(2)
H49 H -0.1847 0.1704 0.5889
Na1 Na -0.0960(3) -0.04511(15) 0.10985(10)
Na2 Na 0.1449(3) -0.14315(15) 0.72941(10)
O36 O -0.7320(8) 0.0915(4) 0.4499(3)
H50 H -0.6591 0.0861 0.4361
H51 H -0.7405 0.0528 0.4651
O37 O 0.3781(8) -0.3852(5) 0.5902(3)
H52 H 0.3086 -0.4116 0.5920
H53 H 0.4395 -0.4132 0.5993
O38 O -0.8583(13) 0.1147(7) 0.3718(4)
H54 H -0.9183 0.0852 0.3708
H55? H -0.8115 0.1093 0.3486
loop_
_geom_bond_atom_site_label_1
_geom_bond_atom_site_label_2
_geom_bond_site_symmetry_1
_geom_bond_site_symmetry_2
O1 C29 1_555 1_555
O2 C13 1_555 1_555
O3 C1 1_555 1_555
O4 C14 1_555 1_555
O5 C12 1_555 1_555
O6 C1 1_555 1_555
O7 C19 1_555 1_555
O8 C16 1_555 1_555
O9 C23 1_555 1_555
O10 C10 1_555 1_555
O11 C25 1_555 1_555
O12 C5 1_555 1_555
O13 C9 1_555 1_555
O14 C27 1_555 1_555
O15 C11 1_555 1_555
O16 C21 1_555 1_555
O17 C8 1_555 1_555
C1 H1 1_555 1_555
O18 C26 1_555 1_555
C2 H2 1_555 1_555
C3 H3 1_555 1_555
O19 C30 1_555 1_555
C4 C3 1_555 1_555
H4 C4 1_555 1_555
C5 H5 1_555 1_555
C6 C5 1_555 1_555
H6 C6 1_555 1_555
O20 C33 1_555 1_555
C7 H7 1_555 1_555
C8 C7 1_555 1_555
H8 C8 1_555 1_555
C9 H9 1_555 1_555
C10 C7 1_555 1_555
H10 C10 1_555 1_555
C11 H11 1_555 1_555
C12 H12 1_555 1_555
C13 C8 1_555 1_555
H13 C13 1_555 1_555
C14 O15 1_555 1_555
H14 C14 1_555 1_555
C15 C4 1_555 1_555
H15 C15 1_555 1_555
H16 C15 1_555 1_555
O21 C7 1_555 1_555
O22 C24 1_555 1_555
C16 C5 1_555 1_555
H17 C16 1_555 1_555
C17 O4 1_555 1_555
H18 C17 1_555 1_555
C18 O3 1_555 1_555
H19 C18 1_555 1_555
C19 H20 1_555 1_555
H21 C19 1_555 1_555
C20 O6 1_555 1_555
H22 C20 1_555 1_555
O23 C35 1_555 1_555
C21 H23 1_555 1_555
H24 C21 1_555 1_555
C22 C3 1_555 1_555
H25 C22 1_555 1_555
C23 C11 1_555 1_555
H26 C23 1_555 1_555
C24 C12 1_555 1_555
H27 C24 1_555 1_555
C25 C9 1_555 1_555
H28 C25 1_555 1_555
C26 C23 1_555 1_555
H29 C26 1_555 1_555
C27 C20 1_555 1_555
H30 C27 1_555 1_555
H31 C27 1_555 1_555
C28 C16 1_555 1_555
H32 C28 1_555 1_555
C29 O10 1_555 1_555
H33 C29 1_555 1_555
C30 C1 1_555 1_555
H34 C30 1_555 1_555
C31 O2 1_555 1_555
H35 C31 1_555 1_555
C32 O1 1_555 1_555
H36 C32 1_555 1_555
C33 C31 1_555 1_555
H37 C33 1_555 1_555
H38 C33 1_555 1_555
C34 C11 1_555 1_555
H39 C34 1_555 1_555
C35 C17 1_555 1_555
H40 C35 1_555 1_555
H41 C35 1_555 1_555
C36 C34 1_555 1_555
H42 C36 1_555 1_555
H43 C36 1_555 1_555
O24 C3 1_555 1_555
O25 C2 1_555 1_555
O26 C15 1_555 1_555
O27 C22 1_555 1_555
O28 C34 1_555 1_555
O29 C42 1_555 1_555
O30 C4 1_555 1_555
O31 C28 1_555 1_555
O32 C37 1_555 1_555
O33 C38 1_555 1_555
C37 C25 1_555 1_555
H44 C37 1_555 1_555
O34 C6 1_555 1_555
C38 C2 1_555 1_555
H45 C38 1_555 1_555
C39 C6 1_555 1_555
H46 C39 1_555 1_555
O35 C36 1_555 1_555
C40 C26 1_555 1_555
H47 C40 1_555 1_555
C41 O8 1_555 1_555
H48 C41 1_555 1_555
C42 C22 1_555 1_555
H49 C42 1_555 1_555
O36 H50 1_555 1_555
H51 O36 1_555 1_555
O37 H52 1_555 1_555
H53 O37 1_555 1_555
O38 H54 1_555 1_555
C2 C20 1_555 1_555
C9 C29 1_555 1_555
C10 C31 1_555 1_555
C12 C18 1_555 1_555
C13 O24 1_555 1_555
C14 C24 1_555 1_555
C17 C18 1_555 1_555
C19 C32 1_555 1_555
C21 C28 1_555 1_555
C30 C38 1_555 1_555
C32 C37 1_555 1_555
O25 C39 1_555 1_555
O28 C40 1_555 1_555
O30 C41 1_555 1_555
O31 C39 1_555 1_555
O32 C40 1_555 1_555
C41 C42 1_555 1_555

#END
