
#######################################################################
#
#                 Cambridge Crystallographic Data Centre
#                                CCDC 
#
#######################################################################
#
# If this CIF has been generated from an entry in the Cambridge 
# Structural Database, then it will include bibliographic, chemical, 
# crystal, experimental, refinement or atomic coordinate data resulting 
# from the CCDC's data processing and validation procedures.
#
#######################################################################

data_ZUPCAO
_chemical_formula_moiety         'C14 H6 S4'
_chemical_name_systematic        Phenanthro(1,10-cd;8,9-c'd')bis(1,2)dithiole
_symmetry_cell_setting           monoclinic
_symmetry_space_group_name_H-M   'P 21/c'
_symmetry_Int_Tables_number      14
_space_group_name_Hall           '-P 2ybc'
loop_
_symmetry_equiv_pos_site_id
_symmetry_equiv_pos_as_xyz
1 x,y,z
2 -x,1/2+y,1/2-z
3 -x,-y,-z
4 x,1/2-y,1/2+z
_cell_length_a                   20.154(2)
_cell_length_b                   3.960(2)
_cell_length_c                   29.302(2)
_cell_angle_alpha                90
_cell_angle_beta                 96.48(6)
_cell_angle_gamma                90
_cell_volume                     2323.65
_exptl_crystal_colour            black
_chemical_melting_point          256-257deg.C(dec.)
_cell_formula_units_Z            8
loop_
_atom_site_label
_atom_site_type_symbol
_atom_site_fract_x
_atom_site_fract_y
_atom_site_fract_z
S1 S 0.43398(6) 0.0737(4) 0.22435(3)
S2 S 0.33798(6) 0.2399(4) 0.20079(3)
S3 S 0.23094(6) 0.6462(4) 0.12236(3)
S4 S 0.20799(6) 0.8473(4) 0.05665(3)
C1 C 0.28959(23) 0.8189(14) 0.04144(15)
C2 C 0.30764(28) 0.9323(15) 0.00002(16)
C3 C 0.37385(29) 0.9008(16) -0.00860(16)
C4 C 0.42152(25) 0.7554(14) 0.02288(15)
C5 C 0.40358(23) 0.6338(13) 0.06521(14)
C6 C 0.45096(22) 0.4742(13) 0.09993(15)
C7 C 0.51857(23) 0.4174(15) 0.09511(16)
C8 C 0.56002(23) 0.2594(14) 0.12930(16)
C9 C 0.53617(23) 0.1501(14) 0.16996(15)
C10 C 0.47014(23) 0.2016(12) 0.17505(15)
C11 C 0.42658(22) 0.3585(13) 0.14053(15)
C12 C 0.35908(22) 0.4029(13) 0.14848(14)
C13 C 0.31495(20) 0.5577(13) 0.11629(15)
C14 C 0.33744(22) 0.6711(12) 0.07442(14)
H1 H 0.275(3) 1.040(16) -0.021(2)
H2 H 0.391(3) 0.985(17) -0.035(2)
H3 H 0.468(3) 0.761(16) 0.015(2)
H4 H 0.537(3) 0.487(17) 0.069(2)
H5 H 0.607(3) 0.221(16) 0.123(2)
H6 H 0.567(3) 0.024(16) 0.192(2)
S5 S 0.07163(6) 0.1366(4) 0.47701(3)
S6 S 0.16268(6) 0.0239(4) 0.45340(3)
S7 S 0.27036(6) 0.1090(4) 0.37572(3)
S8 S 0.29418(6) 0.2781(4) 0.31207(3)
C15 C 0.21425(23) 0.4392(13) 0.29387(15)
C16 C 0.19775(25) 0.5989(16) 0.25169(16)
C17 C 0.13319(26) 0.7100(16) 0.24031(18)
C18 C 0.08547(25) 0.6794(15) 0.26992(16)
C19 C 0.10091(22) 0.5287(13) 0.31374(15)
C20 C 0.05413(22) 0.4980(14) 0.34776(15)
C21 C -0.01164(23) 0.6180(15) 0.34218(18)
C22 C -0.05240(25) 0.5851(17) 0.37674(19)
C23 C -0.02977(25) 0.4292(16) 0.41808(19)
C24 C 0.03501(23) 0.3150(14) 0.42483(15)
C25 C 0.07736(22) 0.3415(13) 0.39015(15)
C26 C 0.14318(22) 0.2153(13) 0.39939(15)
C27 C 0.18719(20) 0.2450(14) 0.36802(15)
C28 C 0.16636(22) 0.4029(12) 0.32467(15)
H7 H 0.231(3) 0.616(17) 0.230(2)
H8 H 0.122(3) 0.803(17) 0.213(2)
H9 H 0.042(3) 0.767(16) 0.262(2)
H10 H -0.026(3) 0.739(17) 0.314(2)
H11 H -0.096(3) 0.694(18) 0.374(2)
H12 H -0.061(3) 0.403(17) 0.442(2)
loop_
_geom_bond_atom_site_label_1
_geom_bond_atom_site_label_2
_geom_bond_site_symmetry_1
_geom_bond_site_symmetry_2
S1 S2 1_555 1_555
S2 C12 1_555 1_555
S3 S4 1_555 1_555
S4 C1 1_555 1_555
C1 C2 1_555 1_555
C2 C3 1_555 1_555
C3 C4 1_555 1_555
C4 C5 1_555 1_555
C5 C6 1_555 1_555
C6 C7 1_555 1_555
C7 C8 1_555 1_555
C8 C9 1_555 1_555
C9 C10 1_555 1_555
C10 S1 1_555 1_555
C11 C6 1_555 1_555
C12 C11 1_555 1_555
C13 S3 1_555 1_555
C14 C1 1_555 1_555
S5 S6 1_555 1_555
S6 C26 1_555 1_555
S7 S8 1_555 1_555
S8 C15 1_555 1_555
C15 C16 1_555 1_555
C16 C17 1_555 1_555
C17 C18 1_555 1_555
C18 C19 1_555 1_555
C19 C20 1_555 1_555
C20 C21 1_555 1_555
C21 C22 1_555 1_555
C22 C23 1_555 1_555
C23 C24 1_555 1_555
C24 S5 1_555 1_555
C25 C20 1_555 1_555
C26 C25 1_555 1_555
C27 S7 1_555 1_555
C28 C15 1_555 1_555
H1 C2 1_555 1_555
H2 C3 1_555 1_555
H3 C4 1_555 1_555
H4 C7 1_555 1_555
H5 C8 1_555 1_555
H6 C9 1_555 1_555
H7 C16 1_555 1_555
H8 C17 1_555 1_555
H9 C18 1_555 1_555
H10 C21 1_555 1_555
H11 C22 1_555 1_555
H12 C23 1_555 1_555
C5 C14 1_555 1_555
C10 C11 1_555 1_555
C12 C13 1_555 1_555
C13 C14 1_555 1_555
C19 C28 1_555 1_555
C24 C25 1_555 1_555
C26 C27 1_555 1_555
C27 C28 1_555 1_555

#END
