
#######################################################################
#
#                 Cambridge Crystallographic Data Centre
#                                CCDC 
#
#######################################################################
#
# If this CIF has been generated from an entry in the Cambridge 
# Structural Database, then it will include bibliographic, chemical, 
# crystal, experimental, refinement or atomic coordinate data resulting 
# from the CCDC's data processing and validation procedures.
#
#######################################################################

data_ZUPMEE
_chemical_formula_moiety         'C32 H24 Cl1 N3 O7,C1 H4 O1'
_chemical_name_systematic        
"6-(4-chlorophenyl)-5-nitro-2'-oxo-4-phenyl-1',2'-dihydrospiro[cyclohexane-1,3'-indol]-2-yl 4-nitrobenzoate methanol solvate"
_symmetry_cell_setting           monoclinic
_symmetry_space_group_name_H-M   'P 21'
_symmetry_Int_Tables_number      4
_space_group_name_Hall           'P 2yb'
loop_
_symmetry_equiv_pos_site_id
_symmetry_equiv_pos_as_xyz
1 x,y,z
2 -x,1/2+y,-z
_cell_length_a                   8.3104(9)
_cell_length_b                   32.937(3)
_cell_length_c                   11.4746(12)
_cell_angle_alpha                90
_cell_angle_beta                 110.755(4)
_cell_angle_gamma                90
_cell_volume                     2937
_exptl_crystal_colour            colorless
_exptl_crystal_description       block
_cell_formula_units_Z            4
loop_
_atom_site_label
_atom_site_type_symbol
_atom_site_fract_x
_atom_site_fract_y
_atom_site_fract_z
Cl1 Cl 0.5571(4) 0.69637(10) -0.0740(3)
O1 O -0.0281(10) 0.8749(3) 0.1830(6)
O2 O 0.3646(13) 0.9021(3) 0.8166(8)
O3 O -0.0434(10) 0.8385(3) -0.3435(7)
O4 O -0.2492(10) 0.7948(3) -0.3684(7)
O5 O -0.1042(11) 0.9412(3) 0.1654(7)
O6 O -0.0787(9) 0.7799(3) 0.0759(6)
N1 N -0.1342(11) 0.8188(3) -0.3015(8)
O7 O 0.2129(16) 0.9533(4) 0.8113(10)
N2 N 0.1922(12) 0.7932(3) 0.2124(8)
H1 H 0.2023 0.7731 0.2621
C1 C 0.3234(14) 0.8230(3) 0.2261(9)
C2 C 0.4103(14) 0.7348(3) -0.0834(9)
C3 C 0.4608(14) 0.7749(4) -0.0888(10)
H2 H 0.5701 0.7806 -0.0894
C4 C 0.3459(14) 0.8066(3) -0.0933(9)
H3 H 0.3809 0.8333 -0.0941
C5 C 0.1789(13) 0.7983(3) -0.0966(8)
C6 C 0.0608(13) 0.8328(4) -0.0907(9)
H4 H 0.0989 0.8574 -0.1215
C7 C 0.0810(15) 0.8403(3) 0.0479(9)
C8 C -0.0515(13) 0.8726(3) 0.0509(8)
H5 H -0.0169 0.8986 0.0258
C9 C -0.0399(15) 0.9118(4) 0.2313(9)
C10 C 0.0327(14) 0.9135(4) 0.3752(9)
C11 C 0.1180(14) 0.8824(4) 0.4399(9)
H6 H 0.1286 0.8582 0.4014
C12 C 0.1918(15) 0.8873(4) 0.5687(10)
H7 H 0.2536 0.8661 0.6180
C13 C 0.1742(16) 0.9216(4) 0.6205(10)
N3 N 0.2590(14) 0.9267(4) 0.7570(8)
C14 C 0.2468(14) 0.7270(4) -0.0959(9)
H8 H 0.2110 0.7001 -0.1026
C15 C 0.1292(13) 0.7567(4) -0.0994(9)
H9 H 0.0188 0.7499 -0.1035
C16 C -0.1266(14) 0.8254(3) -0.1712(9)
H10 H -0.1617 0.7999 -0.1428
C17 C -0.2603(14) 0.8592(3) -0.1672(9)
H11 H -0.3746 0.8469 -0.2044
C18 C -0.2300(14) 0.8651(4) -0.0262(9)
H12 H -0.2994 0.8877 -0.0173
H13 H -0.2694 0.8409 0.0042
C19 C 0.0949(19) 0.9532(5) 0.5547(11)
H14 H 0.0924 0.9777 0.5944
C20 C 0.0151(18) 0.9501(4) 0.4267(11)
H15 H -0.0466 0.9715 0.3785
C21 C 0.0511(14) 0.8009(4) 0.1117(10)
C22 C 0.4781(15) 0.8268(4) 0.3128(11)
H16 H 0.5162 0.8076 0.3763
C23 C 0.5850(16) 0.8594(4) 0.3099(10)
H17 H 0.6963 0.8615 0.3676
C24 C 0.5184(14) 0.8883(4) 0.2177(9)
H18 H 0.5820 0.9116 0.2180
C25 C 0.3605(14) 0.8833(3) 0.1260(9)
H19 H 0.3232 0.9022 0.0617
C26 C 0.2593(13) 0.8521(3) 0.1264(8)
C27 C -0.2630(14) 0.8964(4) -0.2393(9)
C28 C -0.3601(19) 0.8964(4) -0.3690(11)
H20 H -0.4170 0.8727 -0.4050
C29 C -0.374(2) 0.9302(5) -0.4450(12)
H21 H -0.4387 0.9283 -0.5296
C30 C -0.2995(19) 0.9648(5) -0.3999(11)
H22 H -0.3109 0.9871 -0.4517
C31 C -0.197(2) 0.9676(5) -0.2657(12)
H23 H -0.1405 0.9915 -0.2307
C32 C -0.1877(19) 0.9331(4) -0.1936(11)
H24 H -0.1264 0.9350 -0.1085
Cl2 Cl -0.3790(5) 0.27252(11) 0.4202(3)
O8 O 0.4358(10) 0.0865(2) 0.6595(6)
O9 O 0.3967(17) 0.0183(3) 0.6407(7)
O10 O -0.0575(9) 0.1263(2) 0.1424(6)
O11 O 0.1152(10) 0.1710(3) 0.1128(7)
N4 N 0.2587(11) 0.1702(3) 0.6948(7)
H25 H 0.3007 0.1898 0.7461
O12 O 0.3916(10) 0.1849(2) 0.5569(6)
C33 C -0.0906(15) 0.2412(3) 0.4001(10)
H26 H -0.0549 0.2679 0.4001
O13 O 0.6769(18) 0.0004(4) 1.2774(9)
N5 N 0.6768(16) 0.0362(4) 1.2350(10)
C34 C 0.6265(16) 0.0402(4) 1.0981(9)
C35 C 0.596(2) 0.0038(5) 1.0287(12)
H27 H 0.6006 -0.0215 1.0653
C36 C 0.558(2) 0.0088(4) 0.9009(11)
H28 H 0.5577 -0.0139 0.8524
C37 C 0.5184(16) 0.0481(4) 0.8420(10)
C38 C 0.4401(18) 0.0474(4) 0.7047(11)
C39 C 0.3276(13) 0.0909(3) 0.5313(9)
H29 H 0.2622 0.0658 0.5025
C40 C 0.2033(13) 0.1254(3) 0.5321(9)
C41 C 0.0842(13) 0.1344(3) 0.3946(9)
H30 H 0.0130 0.1103 0.3632
C42 C -0.0361(14) 0.1697(3) 0.3881(10)
C43 C 0.0164(15) 0.2095(3) 0.3924(10)
H31 H 0.1247 0.2154 0.3902
C44 C -0.2464(15) 0.2332(3) 0.4077(9)
O14 O 0.7153(14) 0.0669(4) 1.2956(7)
C45 C 0.5955(14) 0.0794(4) 1.0459(9)
H32 H 0.6099 0.1022 1.0962
C46 C 0.5411(14) 0.0831(4) 0.9133(10)
H33 H 0.5212 0.1085 0.8756
C47 C 0.4360(13) 0.0997(3) 0.4509(9)
H34 H 0.5109 0.1226 0.4859
H35 H 0.5081 0.0764 0.4529
C48 C 0.3276(14) 0.1091(3) 0.3171(9)
H36 H 0.4077 0.1225 0.2842
C49 C 0.1952(12) 0.1415(3) 0.3098(8)
H37 H 0.2578 0.1670 0.3368
N6 N 0.0731(11) 0.1477(3) 0.1798(7)
C50 C 0.2689(13) 0.0701(3) 0.2341(9)
C51 C 0.2759(15) 0.0315(4) 0.2836(9)
H38 H 0.3151 0.0281 0.3696
C52 C 0.2271(19) -0.0012(5) 0.2093(11)
H39 H 0.2211 -0.0264 0.2440
C53 C 0.1850(19) 0.0022(4) 0.0796(11)
H40 H 0.1615 -0.0206 0.0282
C54 C 0.1806(16) 0.0392(4) 0.0346(11)
H41 H 0.1484 0.0422 -0.0512
C55 C 0.2199(13) 0.0725(4) 0.1053(9)
H42 H 0.2143 0.0977 0.0678
C56 C 0.3007(13) 0.1643(3) 0.5982(9)
C57 C 0.1417(13) 0.1429(4) 0.7104(10)
C58 C 0.0996(13) 0.1149(3) 0.6124(9)
C59 C -0.0137(15) 0.0848(3) 0.6070(10)
H43 H -0.0449 0.0664 0.5414
C60 C -0.0824(16) 0.0819(4) 0.7002(10)
H44 H -0.1580 0.0609 0.6981
C61 C -0.0409(16) 0.1094(5) 0.7950(11)
H45 H -0.0919 0.1070 0.8549
C62 C 0.0715(15) 0.1400(4) 0.8052(11)
H46 H 0.1011 0.1582 0.8714
C63 C -0.1996(14) 0.1624(4) 0.3879(10)
H47 H -0.2392 0.1358 0.3818
C64 C -0.3043(14) 0.1929(4) 0.3963(9)
H48 H -0.4147 0.1871 0.3945
O15 O 0.2829(11) 0.7165(3) 0.3061(7)
C65 C 0.2905(17) 0.6977(5) 0.1944(12)
H49 H 0.4012 0.7027 0.1885
H50 H 0.2024 0.7090 0.1229
H51 H 0.2730 0.6690 0.1976
H52 H 0.212(11) 0.711(4) 0.344(9)
O16 O 0.7200(11) 0.7496(3) 0.2034(7)
C66 C 0.8314(16) 0.7681(4) 0.3190(11)
H53 H 0.8588 0.7954 0.3028
H54 H 0.9356 0.7526 0.3524
H55 H 0.7735 0.7686 0.3780
H56 H 0.776(8) 0.757(2) 0.160(6)
loop_
_geom_bond_atom_site_label_1
_geom_bond_atom_site_label_2
_geom_bond_site_symmetry_1
_geom_bond_site_symmetry_2
Cl1 C2 1_555 1_555
O1 C8 1_555 1_555
O2 N3 1_555 1_555
O3 N1 1_555 1_555
O4 N1 1_555 1_555
O5 C9 1_555 1_555
O6 C21 1_555 1_555
N1 C16 1_555 1_555
O7 N3 1_555 1_555
N2 H1 1_555 1_555
C1 N2 1_555 1_555
C2 C3 1_555 1_555
C3 H2 1_555 1_555
C4 C3 1_555 1_555
H3 C4 1_555 1_555
C5 C4 1_555 1_555
C6 C5 1_555 1_555
H4 C6 1_555 1_555
C7 C6 1_555 1_555
C8 C7 1_555 1_555
H5 C8 1_555 1_555
C9 O1 1_555 1_555
C10 C9 1_555 1_555
C11 C10 1_555 1_555
H6 C11 1_555 1_555
C12 C11 1_555 1_555
H7 C12 1_555 1_555
C13 C12 1_555 1_555
N3 C13 1_555 1_555
C14 C2 1_555 1_555
H8 C14 1_555 1_555
C15 C5 1_555 1_555
H9 C15 1_555 1_555
C16 C6 1_555 1_555
H10 C16 1_555 1_555
C17 C16 1_555 1_555
H11 C17 1_555 1_555
C18 C8 1_555 1_555
H12 C18 1_555 1_555
H13 C18 1_555 1_555
C19 C13 1_555 1_555
H14 C19 1_555 1_555
C20 C10 1_555 1_555
H15 C20 1_555 1_555
C21 N2 1_555 1_555
C22 C1 1_555 1_555
H16 C22 1_555 1_555
C23 C22 1_555 1_555
H17 C23 1_555 1_555
C24 C23 1_555 1_555
H18 C24 1_555 1_555
C25 C24 1_555 1_555
H19 C25 1_555 1_555
C26 C1 1_555 1_555
C27 C17 1_555 1_555
C28 C27 1_555 1_555
H20 C28 1_555 1_555
C29 C28 1_555 1_555
H21 C29 1_555 1_555
C30 C29 1_555 1_555
H22 C30 1_555 1_555
C31 C30 1_555 1_555
H23 C31 1_555 1_555
C32 C27 1_555 1_555
H24 C32 1_555 1_555
Cl2 C44 1_555 1_555
O8 C38 1_555 1_555
O9 C38 1_555 1_555
O10 N6 1_555 1_555
O11 N6 1_555 1_555
N4 H25 1_555 1_555
O12 C56 1_555 1_555
C33 H26 1_555 1_555
O13 N5 1_555 1_555
N5 C34 1_555 1_555
C34 C35 1_555 1_555
C35 H27 1_555 1_555
C36 C35 1_555 1_555
H28 C36 1_555 1_555
C37 C36 1_555 1_555
C38 C37 1_555 1_555
C39 O8 1_555 1_555
H29 C39 1_555 1_555
C40 C39 1_555 1_555
C41 C40 1_555 1_555
H30 C41 1_555 1_555
C42 C41 1_555 1_555
C43 C33 1_555 1_555
H31 C43 1_555 1_555
C44 C33 1_555 1_555
O14 N5 1_555 1_555
C45 C34 1_555 1_555
H32 C45 1_555 1_555
C46 C37 1_555 1_555
H33 C46 1_555 1_555
C47 C39 1_555 1_555
H34 C47 1_555 1_555
H35 C47 1_555 1_555
C48 C47 1_555 1_555
H36 C48 1_555 1_555
C49 C41 1_555 1_555
H37 C49 1_555 1_555
N6 C49 1_555 1_555
C50 C48 1_555 1_555
C51 C50 1_555 1_555
H38 C51 1_555 1_555
C52 C51 1_555 1_555
H39 C52 1_555 1_555
C53 C52 1_555 1_555
H40 C53 1_555 1_555
C54 C53 1_555 1_555
H41 C54 1_555 1_555
C55 C50 1_555 1_555
H42 C55 1_555 1_555
C56 N4 1_555 1_555
C57 N4 1_555 1_555
C58 C40 1_555 1_555
C59 C58 1_555 1_555
H43 C59 1_555 1_555
C60 C59 1_555 1_555
H44 C60 1_555 1_555
C61 C60 1_555 1_555
H45 C61 1_555 1_555
C62 C57 1_555 1_555
H46 C62 1_555 1_555
C63 C42 1_555 1_555
H47 C63 1_555 1_555
C64 C44 1_555 1_555
H48 C64 1_555 1_555
O15 C65 1_555 1_555
C65 H49 1_555 1_555
H50 C65 1_555 1_555
H51 C65 1_555 1_555
H52 O15 1_555 1_555
O16 C66 1_555 1_555
C66 H53 1_555 1_555
H54 C66 1_555 1_555
H55 C66 1_555 1_555
H56 O16 1_555 1_555
C7 C21 1_555 1_555
C7 C26 1_555 1_555
C14 C15 1_555 1_555
C17 C18 1_555 1_555
C19 C20 1_555 1_555
C25 C26 1_555 1_555
C31 C32 1_555 1_555
C40 C56 1_555 1_555
C42 C43 1_555 1_555
C45 C46 1_555 1_555
C48 C49 1_555 1_555
C54 C55 1_555 1_555
C57 C58 1_555 1_555
C61 C62 1_555 1_555
C63 C64 1_555 1_555

#END
