
#######################################################################
#
#                 Cambridge Crystallographic Data Centre
#                                CCDC 
#
#######################################################################
#
# If this CIF has been generated from an entry in the Cambridge 
# Structural Database, then it will include bibliographic, chemical, 
# crystal, experimental, refinement or atomic coordinate data resulting 
# from the CCDC's data processing and validation procedures.
#
#######################################################################

data_ZUPPIL
_chemical_formula_moiety         'C52 H54 N2 O4 S2,0.25(C4 H10 O1)'
_chemical_name_systematic        
"5,12-bis(adamantan-1-ylsulfanyl)-2,9-dibutylisoquinolino[4',5',6':6,5,10]anthra[2,1,9-def]isoquinoline-1,3,8,10(2H,9H)-tetrone diethyl ether solvate"
_symmetry_cell_setting           triclinic
_symmetry_space_group_name_H-M   'P -1'
_symmetry_Int_Tables_number      2
_space_group_name_Hall           '-P 1'
loop_
_symmetry_equiv_pos_site_id
_symmetry_equiv_pos_as_xyz
1 x,y,z
2 -x,-y,-z
_cell_length_a                   15.0385(4)
_cell_length_b                   15.1515(4)
_cell_length_c                   20.2535(5)
_cell_angle_alpha                97.366(1)
_cell_angle_beta                 101.544(1)
_cell_angle_gamma                100.972(1)
_cell_volume                     4372.03
_exptl_crystal_colour            'dark red'
_exptl_crystal_description       BLOCK
_cell_formula_units_Z            4
loop_
_atom_site_label
_atom_site_type_symbol
_atom_site_fract_x
_atom_site_fract_y
_atom_site_fract_z
S1 S 0.37133(3) -0.00103(3) 0.06176(2)
S2 S 0.19268(3) -0.21049(3) 0.36836(2)
O1 O 0.64066(9) 0.20579(9) 0.26144(7)
O2 O 0.56439(9) 0.18077(10) 0.46608(6)
O3 O -0.12064(8) -0.30727(9) 0.18204(6)
O4 O -0.11193(8) -0.13380(9) 0.01461(6)
N1 N 0.60363(9) 0.19399(9) 0.36438(7)
N2 N -0.11748(9) -0.21944(9) 0.09883(7)
C1 C 0.38483(11) 0.03298(10) 0.15170(8)
C2 C 0.47216(11) 0.08811(11) 0.18749(9)
C3 C 0.49445(11) 0.11094(10) 0.25772(8)
C4 C 0.45788(11) 0.09042(11) 0.36797(8)
C5 C 0.40035(11) 0.04753(11) 0.40460(8)
C6 C 0.31908(11) -0.01663(11) 0.37111(8)
C7 C 0.15238(11) -0.17108(11) 0.29052(8)
C8 C 0.06152(11) -0.21759(11) 0.25483(8)
C9 C 0.01942(11) -0.19749(11) 0.19362(8)
C10 C 0.02821(11) -0.11410(11) 0.09837(8)
C11 C 0.07979(11) -0.05557(11) 0.06621(8)
C12 C 0.17375(11) -0.01821(11) 0.09494(8)
C13 C 0.21823(11) -0.03623(10) 0.15743(8)
C14 C 0.31754(11) 0.00303(10) 0.18804(8)
C15 C 0.34595(10) 0.01292(10) 0.26106(8)
C16 C 0.43303(11) 0.07173(10) 0.29579(8)
C17 C 0.29007(10) -0.03600(10) 0.29988(8)
C18 C 0.20288(10) -0.10206(10) 0.26327(8)
C19 C 0.16454(10) -0.09060(10) 0.19463(8)
C20 C 0.07049(10) -0.13396(10) 0.16196(8)
C21 C 0.58511(11) 0.17299(11) 0.29290(9)
C22 C 0.54455(12) 0.15743(12) 0.40408(9)
C23 C -0.07740(11) -0.24671(11) 0.15922(8)
C24 C -0.07121(11) -0.15467(11) 0.06665(8)
C25 C 0.68918(12) 0.26210(12) 0.40124(10)
C26 C 0.76458(12) 0.21985(13) 0.43830(10)
C27 C 0.80930(15) 0.16481(15) 0.39222(11)
C28 C 0.87682(17) 0.11716(19) 0.43291(14)
C29 C -0.21370(11) -0.26756(12) 0.06347(9)
C30 C -0.21325(12) -0.34785(12) 0.01021(9)
C31 C -0.31045(12) -0.40293(12) -0.02538(9)
C32 C -0.30884(16) -0.47534(14) -0.08402(11)
C33 C 0.40626(11) -0.11224(11) 0.05925(8)
C34 C 0.50737(12) -0.10194(12) 0.09784(9)
C35 C 0.39629(13) -0.14648(13) -0.01744(8)
C36 C 0.34100(12) -0.18124(11) 0.08694(9)
C37 C 0.36862(13) -0.27418(12) 0.07822(9)
C38 C 0.46905(14) -0.26334(13) 0.11727(10)
C39 C 0.53411(13) -0.19509(13) 0.08883(10)
C40 C 0.52446(13) -0.22904(14) 0.01263(11)
C41 C 0.42363(13) -0.23926(13) -0.02632(9)
C42 C 0.35951(13) -0.30824(13) 0.00203(9)
C43 C 0.26421(11) -0.28961(10) 0.34221(8)
C44 C 0.35503(12) -0.23992(12) 0.32778(10)
C45 C 0.20885(12) -0.36144(12) 0.28034(9)
C46 C 0.28640(12) -0.33647(12) 0.40450(8)
C47 C 0.34554(13) -0.40590(13) 0.38972(10)
C48 C 0.43637(13) -0.35613(14) 0.37498(11)
C49 C 0.41328(13) -0.31008(14) 0.31237(11)
C50 C 0.35750(16) -0.38235(15) 0.25030(11)
C51 C 0.26737(14) -0.43146(13) 0.26537(10)
C52 C 0.29061(14) -0.47779(13) 0.32763(11)
H1 H 0.51650 0.10990 0.16260
H2 H 0.41610 0.06170 0.45320
H3 H 0.28240 -0.04810 0.39760
H4 H 0.02850 -0.26420 0.27370
H5 H 0.05100 -0.04070 0.02420
H6 H 0.20850 0.02060 0.07130
H7 H 0.67300 0.30600 0.43500
H8 H 0.71420 0.29660 0.36810
H9 H 0.81370 0.26940 0.46890
H10 H 0.73710 0.17980 0.46740
H11 H 0.84320 0.20570 0.36660
H12 H 0.76020 0.11850 0.35860
H13 H 0.90950 0.08770 0.40230
H14 H 0.84220 0.07100 0.45360
H15 H 0.92210 0.16220 0.46900
H16 H -0.24640 -0.22470 0.04090
H17 H -0.24770 -0.28980 0.09730
H18 H -0.18150 -0.32480 -0.02450
H19 H -0.17720 -0.38840 0.03270
H20 H -0.33950 -0.43260 0.00830
H21 H -0.34910 -0.36120 -0.04310
H22 H -0.37160 -0.51370 -0.10220
H23 H -0.26610 -0.51330 -0.06750
H24 H -0.28790 -0.44580 -0.12020
H25 H 0.51430 -0.07910 0.14700
H26 H 0.54920 -0.05730 0.07980
H27 H 0.33120 -0.15290 -0.04270
H28 H 0.43710 -0.10190 -0.03620
H29 H 0.27580 -0.18780 0.06170
H30 H 0.34550 -0.15930 0.13590
H31 H 0.32650 -0.31920 0.09660
H32 H 0.48670 -0.32320 0.11260
H33 H 0.47500 -0.24130 0.16650
H34 H 0.59990 -0.18860 0.11420
H35 H 0.54240 -0.28860 0.00650
H36 H 0.56660 -0.18510 -0.00570
H37 H 0.41760 -0.26160 -0.07600
H38 H 0.37670 -0.36820 -0.00400
H39 H 0.29420 -0.31600 -0.02330
H40 H 0.39040 -0.19340 0.36800
H41 H 0.34120 -0.20870 0.28810
H42 H 0.19350 -0.33180 0.24000
H43 H 0.14980 -0.39270 0.28990
H44 H 0.22780 -0.36810 0.41440
H45 H 0.32090 -0.29020 0.44510
H46 H 0.36020 -0.43620 0.43040
H47 H 0.47520 -0.40020 0.36600
H48 H 0.47190 -0.30960 0.41520
H49 H 0.47230 -0.27830 0.30210
H50 H 0.34300 -0.35270 0.20990
H51 H 0.39510 -0.42700 0.23980
H52 H 0.23150 -0.47860 0.22480
H53 H 0.23240 -0.51040 0.33750
H54 H 0.32790 -0.52300 0.31780
S3 S 0.29127(3) 0.23381(3) 0.48557(2)
S4 S -0.02514(3) 0.19748(3) 0.11011(2)
O5 O 0.54804(8) 0.40001(9) 0.37464(6)
O6 O 0.45993(9) 0.32051(9) 0.14257(6)
O7 O -0.23429(9) -0.08870(10) 0.17142(7)
O8 O -0.08524(9) -0.15288(10) 0.37254(8)
N3 N 0.50484(9) 0.36071(9) 0.25854(7)
N4 N -0.16129(10) -0.12055(10) 0.27249(8)
C53 C 0.29804(11) 0.23650(11) 0.39862(8)
C54 C 0.38074(11) 0.29346(11) 0.39173(8)
C55 C 0.39822(11) 0.30348(11) 0.32869(8)
C56 C 0.34632(11) 0.27183(11) 0.20383(8)
C57 C 0.27761(12) 0.23459(11) 0.14566(8)
C58 C 0.18904(12) 0.19209(11) 0.15086(8)
C59 C -0.00643(12) 0.12205(11) 0.17013(8)
C60 C -0.08480(12) 0.05475(12) 0.17100(9)
C61 C -0.08295(11) 0.00160(11) 0.22124(9)
C62 C -0.00507(11) -0.03004(11) 0.33088(9)
C63 C 0.06952(12) -0.00880(11) 0.38646(9)
C64 C 0.14450(11) 0.06371(11) 0.39048(8)
C65 C 0.14951(11) 0.11398(11) 0.33783(8)
C66 C 0.23000(11) 0.18915(10) 0.33989(8)
C67 C 0.24191(11) 0.21067(10) 0.27458(8)
C68 C 0.32888(11) 0.26261(10) 0.26884(8)
C69 C 0.16927(11) 0.18101(10) 0.21389(8)
C70 C 0.07701(11) 0.13211(11) 0.21929(8)
C71 C 0.07484(11) 0.08897(10) 0.27781(8)
C72 C -0.00462(11) 0.02003(11) 0.27700(8)
C73 C 0.48894(11) 0.35906(11) 0.32423(8)
C74 C 0.43979(11) 0.31833(11) 0.19765(8)
C75 C -0.16581(12) -0.07139(12) 0.21856(9)
C76 C -0.08521(12) -0.10586(12) 0.32831(10)
C77 C 0.59852(12) 0.40835(12) 0.25353(9)
C78 C 0.61106(17) 0.51059(14) 0.25878(11)
C79 C 0.56565(17) 0.54329(18) 0.19846(12)
C80 C 0.6123(2) 0.5289(2) 0.13680(13)
C81 C -0.24256(13) -0.19515(13) 0.26941(11)
C82 C -0.3249(2) -0.1576(2) 0.2873(2)
C83 C -0.3019(2) -0.1014(2) 0.35758(16)
C84 C -0.38772(19) -0.06736(18) 0.37244(16)
C85 C 0.21984(11) 0.31790(11) 0.50095(8)
C86 C 0.26376(12) 0.41188(11) 0.48754(9)
C87 C 0.22010(12) 0.32387(12) 0.57744(8)
C88 C 0.11956(11) 0.28610(12) 0.45853(9)
C89 C 0.06240(13) 0.35550(13) 0.47874(9)
C90 C 0.10624(14) 0.44929(14) 0.46465(10)
C91 C 0.20613(14) 0.48063(12) 0.50717(9)
C92 C 0.20661(14) 0.48701(13) 0.58333(10)
C93 C 0.16311(13) 0.39295(12) 0.59725(9)
C94 C 0.06287(13) 0.36099(13) 0.55499(9)
C95 C -0.05403(11) 0.29141(11) 0.16430(8)
C96 C -0.08487(12) 0.35323(13) 0.11385(9)
C97 C -0.13339(12) 0.25784(12) 0.19867(9)
C98 C 0.03165(11) 0.34575(12) 0.21880(8)
C99 C 0.00637(12) 0.42835(12) 0.25734(9)
C100 C -0.02502(13) 0.48964(13) 0.20683(10)
C101 C -0.11064(13) 0.43531(13) 0.15233(10)
C102 C -0.18944(13) 0.40187(14) 0.18699(11)
C103 C -0.15806(13) 0.34064(13) 0.23741(10)
C104 C -0.07258(14) 0.39451(13) 0.29181(9)
H55 H 0.29050 0.23780 0.10190
H56 H 0.14120 0.17020 0.11040
H57 H -0.14000 0.04590 0.13620
H58 H 0.07010 -0.04360 0.42230
H59 H 0.19370 0.07920 0.43040
H60 H 0.61010 0.38300 0.20930
H61 H 0.64580 0.39550 0.29040
H62 H 0.42540 0.32570 0.43180
H63 H -0.26250 -0.23200 0.22280
H64 H -0.34510 -0.11970 0.25330
H65 H -0.37780 -0.20940 0.28380
H66 H -0.25010 -0.04840 0.36120
H67 H -0.28130 -0.13860 0.39200
H68 H -0.36920 -0.02350 0.41540
H69 H -0.43520 -0.11930 0.37630
H70 H 0.58720 0.53370 0.29820
H71 H 0.67860 0.53800 0.26900
H72 H 0.56770 0.60910 0.21090
H73 H 0.49940 0.51070 0.18430
H74 H 0.58380 0.55770 0.09980
H75 H 0.60340 0.46340 0.12030
H76 H 0.67900 0.55670 0.15150
H77 H -0.22420 -0.23560 0.30190
H78 H 0.10580 0.44530 0.41540
H79 H 0.06950 0.49410 0.47660
H80 H 0.23420 0.54200 0.49820
H81 H 0.17070 0.53200 0.59660
H82 H 0.27130 0.50780 0.61100
H83 H 0.16350 0.39720 0.64700
H84 H 0.02530 0.40440 0.56830
H85 H 0.03500 0.30030 0.56390
H86 H -0.13930 0.31840 0.07780
H87 H -0.03380 0.37490 0.09170
H88 H -0.11380 0.21760 0.23090
H89 H -0.18870 0.22240 0.16360
H90 H 0.08310 0.36690 0.19680
H91 H 0.05260 0.30630 0.25130
H92 H 0.06210 0.46390 0.29300
H93 H -0.04050 0.54330 0.23150
H94 H 0.02600 0.51180 0.18470
H95 H -0.13130 0.47530 0.11940
H96 H -0.20620 0.45480 0.21160
H97 H -0.24520 0.36730 0.15200
H98 H -0.20960 0.31900 0.25990
H99 H -0.05230 0.35510 0.32460
H100 H -0.08840 0.44720 0.31750
H101 H -0.41320 -0.03770 0.33500
H102 H 0.26490 0.40820 0.43860
H103 H 0.32860 0.43210 0.51500
H104 H 0.19270 0.26310 0.58650
H105 H 0.28480 0.34350 0.60520
H106 H 0.09170 0.22510 0.46700
H107 H 0.11890 0.28130 0.40920
H108 H -0.00310 0.33520 0.45100
O9 O 0.00000 -0.50000 0.00000
C108 C 0.0191(3) -0.4117(3) 0.0442(2)
C109 C 0.1180(4) -0.3672(4) 0.0799(3)
H125 H -0.00560 -0.36880 0.01630
H126 H -0.01720 -0.41860 0.07970
H127 H 0.14200 -0.40470 0.11230
H128 H 0.12060 -0.30650 0.10480
H129 H 0.15620 -0.36140 0.04610
C108A C -0.0191(3) -0.5883(3) -0.0442(2)
C109A C -0.1180(4) -0.6328(4) -0.0799(3)
H125A H 0.00560 -0.63120 -0.01630
H126A H 0.01720 -0.58140 -0.07970
H127A H -0.14200 -0.59530 -0.11230
H128A H -0.12060 -0.69350 -0.10480
H129A H -0.15620 -0.63860 -0.04610
C105? C 0.6529(7) 0.5649(6) 0.2187(5)
C106? C -0.2980(5) -0.1716(4) 0.3247(4)
C107? C -0.3491(5) -0.0986(5) 0.3073(4)
H109? H 0.54780 0.52240 0.25440
H110? H 0.64500 0.53670 0.30650
H111? H 0.72070 0.56750 0.22990
H112? H 0.64410 0.62770 0.23010
H113? H 0.64540 0.56980 0.11140
H114? H 0.54570 0.52840 0.12480
H115? H 0.62140 0.46700 0.12490
H116? H -0.22080 -0.25160 0.27650
H117? H -0.28460 -0.20680 0.22340
H118? H -0.34310 -0.22720 0.32740
H119? H -0.25430 -0.15050 0.37000
H120? H -0.40120 -0.12280 0.26670
H121? H -0.30660 -0.04630 0.29720
H122? H -0.42070 -0.01870 0.36350
H123? H -0.33560 -0.04480 0.41240
H124? H -0.43060 -0.11950 0.38130
C110? C 0.0717(3) -0.4591(3) 0.0344(2)
C111? C 0.0666(5) -0.3670(4) 0.0717(3)
H130? H 0.11730 -0.44930 0.00550
H131? H 0.09440 -0.49580 0.06850
H132? H 0.12730 -0.33770 0.10220
H133? H 0.01940 -0.37590 0.09870
H134? H 0.05000 -0.32800 0.03830
loop_
_geom_bond_atom_site_label_1
_geom_bond_atom_site_label_2
_geom_bond_site_symmetry_1
_geom_bond_site_symmetry_2
S1 C1 1_555 1_555
S2 C7 1_555 1_555
O1 C21 1_555 1_555
O2 C22 1_555 1_555
O3 C23 1_555 1_555
O4 C24 1_555 1_555
N1 C21 1_555 1_555
N2 C23 1_555 1_555
C1 C2 1_555 1_555
C2 C3 1_555 1_555
C3 C16 1_555 1_555
C4 C5 1_555 1_555
C5 C6 1_555 1_555
C6 C17 1_555 1_555
C7 C8 1_555 1_555
C8 C9 1_555 1_555
C9 C20 1_555 1_555
C10 C11 1_555 1_555
C11 C12 1_555 1_555
C12 C13 1_555 1_555
C13 C14 1_555 1_555
C14 C1 1_555 1_555
C15 C14 1_555 1_555
C16 C4 1_555 1_555
C17 C15 1_555 1_555
C18 C7 1_555 1_555
C19 C13 1_555 1_555
C20 C10 1_555 1_555
C21 C3 1_555 1_555
C22 N1 1_555 1_555
C23 C9 1_555 1_555
C24 N2 1_555 1_555
C25 N1 1_555 1_555
C26 C25 1_555 1_555
C27 C26 1_555 1_555
C28 C27 1_555 1_555
C29 N2 1_555 1_555
C30 C29 1_555 1_555
C31 C30 1_555 1_555
C32 C31 1_555 1_555
C33 S1 1_555 1_555
C34 C33 1_555 1_555
C35 C33 1_555 1_555
C36 C33 1_555 1_555
C37 C36 1_555 1_555
C38 C37 1_555 1_555
C39 C34 1_555 1_555
C40 C39 1_555 1_555
C41 C35 1_555 1_555
C42 C37 1_555 1_555
C43 S2 1_555 1_555
C44 C43 1_555 1_555
C45 C43 1_555 1_555
C46 C43 1_555 1_555
C47 C46 1_555 1_555
C48 C47 1_555 1_555
C49 C44 1_555 1_555
C50 C49 1_555 1_555
C51 C45 1_555 1_555
C52 C47 1_555 1_555
H1 C2 1_555 1_555
H2 C5 1_555 1_555
H3 C6 1_555 1_555
H4 C8 1_555 1_555
H5 C11 1_555 1_555
H6 C12 1_555 1_555
H7 C25 1_555 1_555
H8 C25 1_555 1_555
H9 C26 1_555 1_555
H10 C26 1_555 1_555
H11 C27 1_555 1_555
H12 C27 1_555 1_555
H13 C28 1_555 1_555
H14 C28 1_555 1_555
H15 C28 1_555 1_555
H16 C29 1_555 1_555
H17 C29 1_555 1_555
H18 C30 1_555 1_555
H19 C30 1_555 1_555
H20 C31 1_555 1_555
H21 C31 1_555 1_555
H22 C32 1_555 1_555
H23 C32 1_555 1_555
H24 C32 1_555 1_555
H25 C34 1_555 1_555
H26 C34 1_555 1_555
H27 C35 1_555 1_555
H28 C35 1_555 1_555
H29 C36 1_555 1_555
H30 C36 1_555 1_555
H31 C37 1_555 1_555
H32 C38 1_555 1_555
H33 C38 1_555 1_555
H34 C39 1_555 1_555
H35 C40 1_555 1_555
H36 C40 1_555 1_555
H37 C41 1_555 1_555
H38 C42 1_555 1_555
H39 C42 1_555 1_555
H40 C44 1_555 1_555
H41 C44 1_555 1_555
H42 C45 1_555 1_555
H43 C45 1_555 1_555
H44 C46 1_555 1_555
H45 C46 1_555 1_555
H46 C47 1_555 1_555
H47 C48 1_555 1_555
H48 C48 1_555 1_555
H49 C49 1_555 1_555
H50 C50 1_555 1_555
H51 C50 1_555 1_555
H52 C51 1_555 1_555
H53 C52 1_555 1_555
H54 C52 1_555 1_555
S3 C53 1_555 1_555
S4 C59 1_555 1_555
O5 C73 1_555 1_555
O6 C74 1_555 1_555
O7 C75 1_555 1_555
O8 C76 1_555 1_555
N3 C73 1_555 1_555
N4 C75 1_555 1_555
C53 C54 1_555 1_555
C54 C55 1_555 1_555
C55 C68 1_555 1_555
C56 C57 1_555 1_555
C57 C58 1_555 1_555
C58 C69 1_555 1_555
C59 C60 1_555 1_555
C60 C61 1_555 1_555
C61 C72 1_555 1_555
C62 C63 1_555 1_555
C63 C64 1_555 1_555
C64 C65 1_555 1_555
C65 C66 1_555 1_555
C66 C53 1_555 1_555
C67 C66 1_555 1_555
C68 C56 1_555 1_555
C69 C67 1_555 1_555
C70 C59 1_555 1_555
C71 C65 1_555 1_555
C72 C62 1_555 1_555
C73 C55 1_555 1_555
C74 N3 1_555 1_555
C75 C61 1_555 1_555
C76 N4 1_555 1_555
C77 N3 1_555 1_555
C78 C77 1_555 1_555
C79 C78 1_555 1_555
C80 C79 1_555 1_555
C81 N4 1_555 1_555
C82 C81 1_555 1_555
C83 C82 1_555 1_555
C84 C83 1_555 1_555
C85 S3 1_555 1_555
C86 C85 1_555 1_555
C87 C85 1_555 1_555
C88 C85 1_555 1_555
C89 C88 1_555 1_555
C90 C89 1_555 1_555
C91 C86 1_555 1_555
C92 C91 1_555 1_555
C93 C87 1_555 1_555
C94 C89 1_555 1_555
C95 S4 1_555 1_555
C96 C95 1_555 1_555
C97 C95 1_555 1_555
C98 C95 1_555 1_555
C99 C98 1_555 1_555
C100 C99 1_555 1_555
C101 C96 1_555 1_555
C102 C101 1_555 1_555
C103 C97 1_555 1_555
C104 C99 1_555 1_555
H55 C57 1_555 1_555
H56 C58 1_555 1_555
H57 C60 1_555 1_555
H58 C63 1_555 1_555
H59 C64 1_555 1_555
H60 C77 1_555 1_555
H61 C77 1_555 1_555
H62 C54 1_555 1_555
H63 C81 1_555 1_555
H64 C82 1_555 1_555
H65 C82 1_555 1_555
H66 C83 1_555 1_555
H67 C83 1_555 1_555
H68 C84 1_555 1_555
H69 C84 1_555 1_555
H70 C78 1_555 1_555
H71 C78 1_555 1_555
H72 C79 1_555 1_555
H73 C79 1_555 1_555
H74 C80 1_555 1_555
H75 C80 1_555 1_555
H76 C80 1_555 1_555
H77 C81 1_555 1_555
H78 C90 1_555 1_555
H79 C90 1_555 1_555
H80 C91 1_555 1_555
H81 C92 1_555 1_555
H82 C92 1_555 1_555
H83 C93 1_555 1_555
H84 C94 1_555 1_555
H85 C94 1_555 1_555
H86 C96 1_555 1_555
H87 C96 1_555 1_555
H88 C97 1_555 1_555
H89 C97 1_555 1_555
H90 C98 1_555 1_555
H91 C98 1_555 1_555
H92 C99 1_555 1_555
H93 C100 1_555 1_555
H94 C100 1_555 1_555
H95 C101 1_555 1_555
H96 C102 1_555 1_555
H97 C102 1_555 1_555
H98 C103 1_555 1_555
H99 C104 1_555 1_555
H100 C104 1_555 1_555
H101 C84 1_555 1_555
H102 C86 1_555 1_555
H103 C86 1_555 1_555
H104 C87 1_555 1_555
H105 C87 1_555 1_555
H106 C88 1_555 1_555
H107 C88 1_555 1_555
H108 C89 1_555 1_555
O9 C108 1_555 1_555
C108 C109 1_555 1_555
C109 H127 1_555 1_555
H125 C108 1_555 1_555
H126 C108 1_555 1_555
H128 C109 1_555 1_555
H129 C109 1_555 1_555
C108A O9 1_555 1_555
C109A C108A 1_555 1_555
H125A C108A 1_555 1_555
H126A C108A 1_555 1_555
H127A C109A 1_555 1_555
H128A C109A 1_555 1_555
H129A C109A 1_555 1_555
C4 C22 1_555 1_555
C10 C24 1_555 1_555
C15 C16 1_555 1_555
C17 C18 1_555 1_555
C18 C19 1_555 1_555
C19 C20 1_555 1_555
C38 C39 1_555 1_555
C40 C41 1_555 1_555
C41 C42 1_555 1_555
C48 C49 1_555 1_555
C50 C51 1_555 1_555
C51 C52 1_555 1_555
C56 C74 1_555 1_555
C62 C76 1_555 1_555
C67 C68 1_555 1_555
C69 C70 1_555 1_555
C70 C71 1_555 1_555
C71 C72 1_555 1_555
C90 C91 1_555 1_555
C92 C93 1_555 1_555
C93 C94 1_555 1_555
C100 C101 1_555 1_555
C102 C103 1_555 1_555
C103 C104 1_555 1_555

#END
