
#######################################################################
#
#                 Cambridge Crystallographic Data Centre
#                                CCDC 
#
#######################################################################
#
# If this CIF has been generated from an entry in the Cambridge 
# Structural Database, then it will include bibliographic, chemical, 
# crystal, experimental, refinement or atomic coordinate data resulting 
# from the CCDC's data processing and validation procedures.
#
#######################################################################

data_ZUPROT
_chemical_formula_moiety         'C25 H24 Cl1 N1 O5'
_chemical_name_systematic        
'Dimethyl 6-chloro-4-(4-methoxyphenyl)-9-methyl-1-methylene-1,3,4,9-tetrahydro-2H-carbazole-2,2-dicarboxylate'
_symmetry_cell_setting           orthorhombic
_symmetry_space_group_name_H-M   'P 21 21 21'
_symmetry_Int_Tables_number      19
_space_group_name_Hall           'P 2ac 2ab'
loop_
_symmetry_equiv_pos_site_id
_symmetry_equiv_pos_as_xyz
1 x,y,z
2 1/2-x,-y,1/2+z
3 -x,1/2+y,1/2-z
4 1/2+x,1/2-y,-z
_cell_length_a                   6.9051(7)
_cell_length_b                   18.0332(19)
_cell_length_c                   18.2794(19)
_cell_angle_alpha                90
_cell_angle_beta                 90
_cell_angle_gamma                90
_cell_volume                     2276.17
_exptl_crystal_colour            colorless
_exptl_crystal_description       prismatic
_cell_formula_units_Z            4
loop_
_atom_site_label
_atom_site_type_symbol
_atom_site_fract_x
_atom_site_fract_y
_atom_site_fract_z
Cl1 Cl -0.54448(19) 1.15052(7) 0.95683(6)
N1 N 0.1758(4) 1.13507(12) 0.79145(13)
O1 O -0.0870(4) 0.81421(13) 1.09443(11)
O2 O 0.5102(4) 0.85780(14) 0.70778(13)
O3 O 0.4140(3) 0.91130(12) 0.60427(10)
O4 O -0.0328(3) 0.91203(12) 0.64322(11)
O5 O 0.0977(3) 1.02268(11) 0.62156(10)
C1 C 0.0143(5) 1.14934(15) 0.83195(15)
C2 C -0.0577(7) 1.21635(17) 0.8577(2)
H1 H 0.0075 1.2606 0.8492
C3 C -0.2272(7) 1.2151(2) 0.8961(2)
H2 H -0.2778 1.2592 0.9141
C4 C -0.3263(6) 1.1488(2) 0.90882(16)
C5 C -0.2558(5) 1.08145(18) 0.88570(15)
H3 H -0.3213 1.0375 0.8956
C6 C -0.0819(5) 1.08172(14) 0.84680(14)
C7 C 0.0311(4) 1.02511(13) 0.81377(13)
C8 C 0.1854(5) 1.05909(14) 0.78066(14)
C9 C 0.3306(4) 1.02022(15) 0.73755(14)
C10 C 0.2490(4) 0.94623(14) 0.71096(13)
C11 C 0.1671(4) 0.90354(14) 0.77700(14)
H4 H 0.1257 0.8548 0.7610
H5 H 0.2692 0.8968 0.8128
C12 C -0.0045(4) 0.94303(13) 0.81356(13)
H6 H -0.1203 0.9335 0.7840
C13 C 0.5111(5) 1.04151(19) 0.72489(17)
H7 H 0.5567 1.0858 0.7445
H8 H 0.5922 1.0122 0.6963
C14 C 0.2950(7) 1.19207(19) 0.7578(2)
H9 H 0.4052 1.2019 0.7883
H10 H 0.2203 1.2366 0.7522
H11 H 0.3380 1.1754 0.7106
C15 C -0.0376(4) 0.91006(13) 0.88904(13)
C16 C 0.0679(5) 0.93402(15) 0.94878(14)
H12 H 0.1547 0.9730 0.9432
C17 C 0.0471(5) 0.90132(16) 1.01625(14)
H13 H 0.1186 0.9186 1.0559
C18 C -0.0797(5) 0.84302(15) 1.02522(14)
C19 C -0.1883(5) 0.81892(16) 0.96707(16)
H14 H -0.2753 0.7800 0.9727
C20 C -0.1667(4) 0.85354(15) 0.89951(15)
H15 H -0.2422 0.8378 0.8604
C21 C -0.2176(9) 0.7565(3) 1.1095(2)
H16 H -0.1869 0.7143 1.0796
H17 H -0.3471 0.7727 1.0989
H18 H -0.2083 0.7430 1.1601
C22 C 0.4064(4) 0.89929(16) 0.67531(15)
C23 C 0.5618(5) 0.8734(2) 0.56237(18)
H19 H 0.5696 0.8226 0.5779
H20 H 0.6845 0.8972 0.5701
H21 H 0.5294 0.8753 0.5113
C24 C 0.0876(4) 0.95750(14) 0.65508(14)
C25 C -0.0460(6) 1.0367(2) 0.56680(19)
H22 H -0.1712 1.0396 0.5894
H23 H -0.0452 0.9972 0.5316
H24 H -0.0177 1.0828 0.5427
loop_
_geom_bond_atom_site_label_1
_geom_bond_atom_site_label_2
_geom_bond_site_symmetry_1
_geom_bond_site_symmetry_2
Cl1 C4 1_555 1_555
N1 C1 1_555 1_555
O1 C18 1_555 1_555
O2 C22 1_555 1_555
O3 C22 1_555 1_555
O4 C24 1_555 1_555
O5 C24 1_555 1_555
C1 C2 1_555 1_555
C2 H1 1_555 1_555
C3 C2 1_555 1_555
H2 C3 1_555 1_555
C4 C3 1_555 1_555
C5 C4 1_555 1_555
H3 C5 1_555 1_555
C6 C1 1_555 1_555
C7 C6 1_555 1_555
C8 N1 1_555 1_555
C9 C8 1_555 1_555
C10 C9 1_555 1_555
C11 C10 1_555 1_555
H4 C11 1_555 1_555
H5 C11 1_555 1_555
C12 C7 1_555 1_555
H6 C12 1_555 1_555
C13 C9 1_555 1_555
H7 C13 1_555 1_555
H8 C13 1_555 1_555
C14 N1 1_555 1_555
H9 C14 1_555 1_555
H10 C14 1_555 1_555
H11 C14 1_555 1_555
C15 C12 1_555 1_555
C16 C15 1_555 1_555
H12 C16 1_555 1_555
C17 C16 1_555 1_555
H13 C17 1_555 1_555
C18 C17 1_555 1_555
C19 C18 1_555 1_555
H14 C19 1_555 1_555
C20 C15 1_555 1_555
H15 C20 1_555 1_555
C21 O1 1_555 1_555
H16 C21 1_555 1_555
H17 C21 1_555 1_555
H18 C21 1_555 1_555
C22 C10 1_555 1_555
C23 O3 1_555 1_555
H19 C23 1_555 1_555
H20 C23 1_555 1_555
H21 C23 1_555 1_555
C24 C10 1_555 1_555
C25 O5 1_555 1_555
H22 C25 1_555 1_555
H23 C25 1_555 1_555
H24 C25 1_555 1_555
C5 C6 1_555 1_555
C7 C8 1_555 1_555
C11 C12 1_555 1_555
C19 C20 1_555 1_555

#END
