
#######################################################################
#
#                 Cambridge Crystallographic Data Centre
#                                CCDC 
#
#######################################################################
#
# If this CIF has been generated from an entry in the Cambridge 
# Structural Database, then it will include bibliographic, chemical, 
# crystal, experimental, refinement or atomic coordinate data resulting 
# from the CCDC's data processing and validation procedures.
#
#######################################################################

data_ZUPTUB
_chemical_formula_moiety         'C9 H3 Br1 O1 S2'
_chemical_name_systematic        
3-Bromo-7H-thieno[3',4':3,4]cyclopenta[1,2-b]thiophen-7-one
_symmetry_cell_setting           triclinic
_symmetry_space_group_name_H-M   'P -1'
_symmetry_Int_Tables_number      2
_space_group_name_Hall           '-P 1'
loop_
_symmetry_equiv_pos_site_id
_symmetry_equiv_pos_as_xyz
1 x,y,z
2 -x,-y,-z
_cell_length_a                   7.802(10)
_cell_length_b                   7.872(11)
_cell_length_c                   15.48(2)
_cell_angle_alpha                84.27(2)
_cell_angle_beta                 84.91(2)
_cell_angle_gamma                82.84(2)
_cell_volume                     935.808
_exptl_crystal_colour            yellow
_exptl_crystal_description       block
_cell_formula_units_Z            4
loop_
_atom_site_label
_atom_site_type_symbol
_atom_site_fract_x
_atom_site_fract_y
_atom_site_fract_z
Br1 Br 0.11163(17) 0.14028(16) 1.13974(8)
C1 C 0.4477(14) 0.0034(14) 0.7869(7)
H1 H 0.4958 -0.0471 0.7371
C2 C 0.3796(14) -0.0857(13) 0.8603(7)
C3 C 0.3203(13) 0.0246(13) 0.9295(7)
C4 C 0.3387(13) 0.1927(14) 0.9045(7)
H2 H 0.3052 0.2822 0.9396
C5 C 0.2487(13) -0.0829(14) 1.0031(7)
C6 C 0.2694(15) -0.2546(13) 0.9802(7)
C7 C 0.3536(15) -0.2688(16) 0.8908(8)
C8 C 0.1619(15) -0.0699(15) 1.0873(7)
C9 C 0.1203(15) -0.2253(16) 1.1266(8)
H3 H 0.0643 -0.2395 1.1820
O1 O 0.3839(12) -0.3947(11) 0.8501(6)
S1 S 0.4329(4) 0.2187(4) 0.7985(2)
S2 S 0.1840(5) -0.3915(4) 1.0613(2)
Br2 Br -0.06775(16) 0.44338(16) 0.30093(8)
C10 C 0.2975(15) 0.4267(15) 0.3121(7)
H4 H 0.3092 0.4774 0.2553
C11 C 0.1449(14) 0.3940(13) 0.3527(7)
C12 C 0.1618(13) 0.3108(12) 0.4386(7)
C13 C 0.3320(15) 0.2910(14) 0.4585(7)
C14 C 0.3477(15) 0.1855(15) 0.5439(7)
C15 C 0.1703(14) 0.1608(14) 0.5757(7)
C16 C 0.0546(13) 0.2356(13) 0.5104(6)
C17 C -0.1136(14) 0.2124(13) 0.5367(7)
H5 H -0.2068 0.2541 0.5040
C18 C 0.0861(14) 0.0792(13) 0.6463(7)
H6 H 0.1409 0.0211 0.6935
O2 O 0.4855(11) 0.1460(13) 0.5804(5)
S3 S 0.4712(4) 0.3656(5) 0.3753(2)
S4 S -0.1336(4) 0.0974(4) 0.63702(18)
loop_
_geom_bond_atom_site_label_1
_geom_bond_atom_site_label_2
_geom_bond_site_symmetry_1
_geom_bond_site_symmetry_2
Br1 C8 1_555 1_555
C1 H1 1_555 1_555
C2 C1 1_555 1_555
C3 C2 1_555 1_555
C4 C3 1_555 1_555
H2 C4 1_555 1_555
C5 C3 1_555 1_555
C6 C5 1_555 1_555
C7 C2 1_555 1_555
C8 C5 1_555 1_555
C9 C8 1_555 1_555
H3 C9 1_555 1_555
O1 C7 1_555 1_555
S1 C1 1_555 1_555
S2 C6 1_555 1_555
Br2 C11 1_555 1_555
C10 H4 1_555 1_555
C11 C10 1_555 1_555
C12 C11 1_555 1_555
C13 C12 1_555 1_555
C14 C13 1_555 1_555
C15 C14 1_555 1_555
C16 C12 1_555 1_555
C17 C16 1_555 1_555
H5 C17 1_555 1_555
C18 C15 1_555 1_555
H6 C18 1_555 1_555
O2 C14 1_555 1_555
S3 C10 1_555 1_555
S4 C17 1_555 1_555
C4 S1 1_555 1_555
C6 C7 1_555 1_555
C9 S2 1_555 1_555
C13 S3 1_555 1_555
C15 C16 1_555 1_555
C18 S4 1_555 1_555

#END
