
#######################################################################
#
#                 Cambridge Crystallographic Data Centre
#                                CCDC 
#
#######################################################################
#
# If this CIF has been generated from an entry in the Cambridge 
# Structural Database, then it will include bibliographic, chemical, 
# crystal, experimental, refinement or atomic coordinate data resulting 
# from the CCDC's data processing and validation procedures.
#
#######################################################################

data_ZUQBIY
_chemical_formula_moiety         'C20 H19 Br1 N2 O1'
_chemical_name_systematic        
1-(6-bromo-2-naphthyl)-3-cyclopropyl-3-(3-methyl-1H-pyrazol-1-yl)propan-1-one
_symmetry_cell_setting           orthorhombic
_symmetry_space_group_name_H-M   'P 21 21 21'
_symmetry_Int_Tables_number      19
_space_group_name_Hall           'P 2ac 2ab'
loop_
_symmetry_equiv_pos_site_id
_symmetry_equiv_pos_as_xyz
1 x,y,z
2 1/2-x,-y,1/2+z
3 -x,1/2+y,1/2-z
4 1/2+x,1/2-y,-z
_cell_length_a                   8.8433(8)
_cell_length_b                   10.2256(9)
_cell_length_c                   19.7396(17)
_cell_angle_alpha                90
_cell_angle_beta                 90
_cell_angle_gamma                90
_cell_volume                     1785.01
_exptl_crystal_colour            colorless
_exptl_crystal_description       Block
_cell_formula_units_Z            4
loop_
_atom_site_label
_atom_site_type_symbol
_atom_site_fract_x
_atom_site_fract_y
_atom_site_fract_z
C1 C 0.7435(4) 0.1321(4) 0.14085(18)
O1 O 0.7388(4) 0.0294(3) 0.10946(14)
C2 C 0.7954(4) 0.2548(4) 0.1072(2)
C3 C 0.8618(5) 0.2456(4) 0.0424(2)
H1 H 0.8683 0.1627 0.0209
C4 C 0.9165(4) 0.3526(4) 0.01021(19)
H2 H 0.9602 0.3436 -0.0335
C5 C 0.9094(5) 0.4786(4) 0.04104(18)
C6 C 0.9683(4) 0.5905(3) 0.00929(18)
H3 H 1.0184 0.5840 -0.0331
C7 C 0.9521(4) 0.7091(4) 0.04073(18)
Br1 Br 1.02755(5) 0.86145(4) -0.00429(2)
C8 C 0.8824(5) 0.7241(4) 0.10317(19)
H4 H 0.8722 0.8082 0.1230
C9 C 0.8288(5) 0.6161(4) 0.13557(19)
H5 H 0.7830 0.6255 0.1788
C10 C 0.8398(4) 0.4882(4) 0.10585(18)
C11 C 0.7872(4) 0.3756(4) 0.13816(17)
H6 H 0.7449 0.3823 0.1823
C12 C 0.6981(4) 0.1369(4) 0.21501(17)
H7 H 0.6193 0.2048 0.2209
H8 H 0.7870 0.1633 0.2423
C13 C 0.6381(4) 0.0075(4) 0.24210(18)
H9 H 0.7128 -0.0624 0.2305
N1 N 0.4942(3) -0.0244(3) 0.20900(13)
N2 N 0.3758(4) 0.0597(3) 0.21304(16)
C14 C 0.4613(5) -0.1321(4) 0.17260(17)
H10 H 0.5267 -0.2035 0.1631
C15 C 0.3139(5) -0.1175(5) 0.1519(2)
H11 H 0.2561 -0.1770 0.1255
C16 C 0.2674(5) 0.0008(5) 0.1775(2)
C17 C 0.1159(6) 0.0669(6) 0.1700(3)
H12 H 0.1170 0.1503 0.1944
H13 H 0.0368 0.0104 0.1889
H14 H 0.0954 0.0828 0.1219
C18 C 0.6203(5) 0.0105(4) 0.31807(18)
H15 H 0.5539 0.0817 0.3361
C19 C 0.7532(6) -0.0240(5) 0.3614(2)
H16 H 0.7681 0.0260 0.4038
H17 H 0.8474 -0.0515 0.3384
C20 C 0.6179(5) -0.1146(4) 0.3573(2)
H18 H 0.6297 -0.1973 0.3318
H19 H 0.5503 -0.1198 0.3972
loop_
_geom_bond_atom_site_label_1
_geom_bond_atom_site_label_2
_geom_bond_site_symmetry_1
_geom_bond_site_symmetry_2
C1 O1 1_555 1_555
C2 C1 1_555 1_555
C3 C2 1_555 1_555
H1 C3 1_555 1_555
C4 C3 1_555 1_555
H2 C4 1_555 1_555
C5 C4 1_555 1_555
C6 C5 1_555 1_555
H3 C6 1_555 1_555
C7 C6 1_555 1_555
Br1 C7 1_555 1_555
C8 C7 1_555 1_555
H4 C8 1_555 1_555
C9 C8 1_555 1_555
H5 C9 1_555 1_555
C10 C5 1_555 1_555
C11 C2 1_555 1_555
H6 C11 1_555 1_555
C12 C1 1_555 1_555
H7 C12 1_555 1_555
H8 C12 1_555 1_555
C13 C12 1_555 1_555
H9 C13 1_555 1_555
N1 C13 1_555 1_555
N2 N1 1_555 1_555
C14 N1 1_555 1_555
H10 C14 1_555 1_555
C15 C14 1_555 1_555
H11 C15 1_555 1_555
C16 N2 1_555 1_555
C17 C16 1_555 1_555
H12 C17 1_555 1_555
H13 C17 1_555 1_555
H14 C17 1_555 1_555
C18 C13 1_555 1_555
H15 C18 1_555 1_555
C19 C18 1_555 1_555
H16 C19 1_555 1_555
H17 C19 1_555 1_555
C20 C18 1_555 1_555
H18 C20 1_555 1_555
H19 C20 1_555 1_555
C9 C10 1_555 1_555
C10 C11 1_555 1_555
C15 C16 1_555 1_555
C19 C20 1_555 1_555

#END
