
#######################################################################
#
#                 Cambridge Crystallographic Data Centre
#                                CCDC 
#
#######################################################################
#
# If this CIF has been generated from an entry in the Cambridge 
# Structural Database, then it will include bibliographic, chemical, 
# crystal, experimental, refinement or atomic coordinate data resulting 
# from the CCDC's data processing and validation procedures.
#
#######################################################################

data_ZUQNEG
_chemical_formula_moiety         'C36 H41 Na1 O6'
_chemical_name_systematic        
(4-Methyl-2-tritylphenolato)-(1,4,7,10,13-pentaoxacyclopentadecane)-sodium
_symmetry_cell_setting           monoclinic
_symmetry_space_group_name_H-M   'P 21/c'
_symmetry_Int_Tables_number      14
_space_group_name_Hall           '-P 2ybc'
loop_
_symmetry_equiv_pos_site_id
_symmetry_equiv_pos_as_xyz
1 x,y,z
2 -x,1/2+y,1/2-z
3 -x,-y,-z
4 x,1/2-y,1/2+z
_cell_length_a                   18.646(2)
_cell_length_b                   12.5960(9)
_cell_length_c                   14.6475(12)
_cell_angle_alpha                90
_cell_angle_beta                 112.453(11)
_cell_angle_gamma                90
_cell_volume                     3179.4
_cell_formula_units_Z            4
loop_
_atom_site_label
_atom_site_type_symbol
_atom_site_fract_x
_atom_site_fract_y
_atom_site_fract_z
O1 O 0.18412(15) 0.4702(2) 0.31095(15)
O2 O 0.00254(16) 0.4831(2) 0.33277(16)
O3 O 0.11471(16) 0.35977(19) 0.47037(16)
C1 C 0.2514(2) 0.4790(3) 0.2009(2)
O4 O 0.04966(17) 0.66182(19) 0.44296(17)
O5 O 0.23962(17) 0.4875(2) 0.56670(16)
O6 O 0.20525(19) 0.6967(2) 0.51765(19)
C2 C 0.1824(2) 0.4688(3) 0.2213(2)
C3 C 0.2450(2) 0.4779(2) 0.1027(2)
H1 H 0.2901 0.4833 0.0902
C4 C 0.1078(2) 0.4596(3) 0.0429(2)
H2 H 0.0599 0.4536 -0.0092
C5 C 0.1746(2) 0.4691(3) 0.0228(2)
C6 C 0.3984(2) 0.4850(3) 0.2527(2)
C7 C 0.3302(2) 0.4908(3) 0.2890(2)
C8 C 0.1112(2) 0.4589(3) 0.1391(2)
H3 H 0.0655 0.4518 0.1500
C9 C 0.2746(2) 0.6697(3) 0.3174(2)
H4 H 0.2260 0.6497 0.2722
C10 C 0.3386(2) 0.3963(3) 0.3612(2)
C11 C 0.1710(2) 0.4709(3) -0.0827(2)
H5 H 0.2083 0.5207 -0.0876
H6 H 0.1199 0.4918 -0.1267
H7 H 0.1824 0.4014 -0.1005
C12 C 0.4081(2) 0.6356(3) 0.4075(2)
H8 H 0.4509 0.5910 0.4240
C13 C 0.4157(2) 0.5722(3) 0.2074(2)
H9 H 0.3868 0.6340 0.2008
C14 C 0.2842(3) 0.7694(3) 0.3610(3)
H10 H 0.2419 0.8149 0.3449
C15 C 0.4436(2) 0.3949(3) 0.2610(2)
H11 H 0.4347 0.3352 0.2925
C16 C 0.3864(2) 0.3126(4) 0.5224(3)
H12 H 0.4112 0.3191 0.5906
C17 C 0.4743(2) 0.5709(4) 0.1717(3)
H13 H 0.4851 0.6316 0.1432
C18 C -0.0244(3) 0.6599(4) 0.3630(3)
H14 H -0.0196 0.6839 0.3026
H15 H -0.0604 0.7063 0.3770
C19 C 0.3137(2) 0.2954(3) 0.3220(3)
H16 H 0.2878 0.2881 0.2541
C20 C 0.5170(3) 0.4798(4) 0.1783(3)
H17 H 0.5555 0.4780 0.1526
C21 C 0.3264(3) 0.2067(3) 0.3807(3)
H18 H 0.3100 0.1406 0.3519
C22 C 0.4177(3) 0.7347(3) 0.4506(3)
H19 H 0.4662 0.7561 0.4950
C23 C 0.0790(3) 0.7659(3) 0.4719(3)
H20 H 0.0441 0.8059 0.4938
H21 H 0.0843 0.8030 0.4167
C24 C 0.3739(2) 0.4039(3) 0.4634(2)
H22 H 0.3893 0.4699 0.4929
C25 C 0.0688(3) 0.3161(3) 0.3767(3)
H23 H 0.0618 0.2404 0.3824
H24 H 0.0936 0.3274 0.3301
C26 C 0.3552(3) 0.8016(3) 0.4274(3)
H25 H 0.3610 0.8683 0.4565
C27 C 0.3367(2) 0.5994(3) 0.3404(2)
C28 C 0.1912(3) 0.3168(3) 0.5104(3)
H26 H 0.2151 0.3205 0.4622
H27 H 0.1898 0.2431 0.5290
C29 C 0.1563(3) 0.7542(3) 0.5541(3)
H28 H 0.1783 0.8235 0.5774
H29 H 0.1510 0.7163 0.6089
C30 C -0.0081(3) 0.3723(3) 0.3428(3)
H30 H -0.0424 0.3434 0.2799
H31 H -0.0320 0.3612 0.3904
C31 C 0.2358(3) 0.3826(3) 0.5995(3)
H32 H 0.2099 0.3821 0.6457
H33 H 0.2876 0.3540 0.6325
C32 C 0.5019(2) 0.3916(4) 0.2234(3)
H34 H 0.5306 0.3299 0.2289
C33 C -0.0528(2) 0.5481(3) 0.3519(3)
H35 H -0.0585 0.5249 0.4119
H36 H -0.1029 0.5429 0.2977
C34 C 0.2727(3) 0.5635(3) 0.6417(3)
H37 H 0.3239 0.5410 0.6860
H38 H 0.2405 0.5730 0.6798
C35 C 0.3633(3) 0.2147(4) 0.4825(3)
H39 H 0.3721 0.1548 0.5224
C36 C 0.2777(3) 0.6647(4) 0.5914(3)
H40 H 0.2964 0.7204 0.6405
H41 H 0.3152 0.6560 0.5609
Na1 Na 0.14196(9) 0.53918(11) 0.41608(9)
loop_
_geom_bond_atom_site_label_1
_geom_bond_atom_site_label_2
_geom_bond_site_symmetry_1
_geom_bond_site_symmetry_2
O1 C2 1_555 1_555
O2 C30 1_555 1_555
O3 C25 1_555 1_555
C1 C2 1_555 1_555
O4 C18 1_555 1_555
O5 C31 1_555 1_555
O6 C29 1_555 1_555
C2 C8 1_555 1_555
C3 C1 1_555 1_555
H1 C3 1_555 1_555
C4 H2 1_555 1_555
C5 C3 1_555 1_555
C6 C7 1_555 1_555
C7 C1 1_555 1_555
C8 C4 1_555 1_555
H3 C8 1_555 1_555
C9 H4 1_555 1_555
C10 C7 1_555 1_555
C11 C5 1_555 1_555
H5 C11 1_555 1_555
H6 C11 1_555 1_555
H7 C11 1_555 1_555
C12 H8 1_555 1_555
C13 C6 1_555 1_555
H9 C13 1_555 1_555
C14 C9 1_555 1_555
H10 C14 1_555 1_555
C15 C6 1_555 1_555
H11 C15 1_555 1_555
C16 H12 1_555 1_555
C17 C13 1_555 1_555
H13 C17 1_555 1_555
C18 H14 1_555 1_555
H15 C18 1_555 1_555
C19 C10 1_555 1_555
H16 C19 1_555 1_555
C20 C17 1_555 1_555
H17 C20 1_555 1_555
C21 C19 1_555 1_555
H18 C21 1_555 1_555
C22 C12 1_555 1_555
H19 C22 1_555 1_555
C23 O4 1_555 1_555
H20 C23 1_555 1_555
H21 C23 1_555 1_555
C24 C10 1_555 1_555
H22 C24 1_555 1_555
C25 H23 1_555 1_555
H24 C25 1_555 1_555
C26 C14 1_555 1_555
H25 C26 1_555 1_555
C27 C7 1_555 1_555
C28 O3 1_555 1_555
H26 C28 1_555 1_555
H27 C28 1_555 1_555
C29 C23 1_555 1_555
H28 C29 1_555 1_555
H29 C29 1_555 1_555
C30 C25 1_555 1_555
H30 C30 1_555 1_555
H31 C30 1_555 1_555
C31 C28 1_555 1_555
H32 C31 1_555 1_555
H33 C31 1_555 1_555
C32 C15 1_555 1_555
H34 C32 1_555 1_555
C33 O2 1_555 1_555
H35 C33 1_555 1_555
H36 C33 1_555 1_555
C34 O5 1_555 1_555
H37 C34 1_555 1_555
H38 C34 1_555 1_555
C35 C16 1_555 1_555
H39 C35 1_555 1_555
C36 O6 1_555 1_555
H40 C36 1_555 1_555
H41 C36 1_555 1_555
Na1 O1 1_555 1_555
O2 Na1 1_555 1_555
O3 Na1 1_555 1_555
O4 Na1 1_555 1_555
O5 Na1 1_555 1_555
O6 Na1 1_555 1_555
C4 C5 1_555 1_555
C9 C27 1_555 1_555
C12 C27 1_555 1_555
C16 C24 1_555 1_555
C18 C33 1_555 1_555
C20 C32 1_555 1_555
C21 C35 1_555 1_555
C22 C26 1_555 1_555
C34 C36 1_555 1_555

#END
