
#######################################################################
#
#                 Cambridge Crystallographic Data Centre
#                                CCDC 
#
#######################################################################
#
# If this CIF has been generated from an entry in the Cambridge 
# Structural Database, then it will include bibliographic, chemical, 
# crystal, experimental, refinement or atomic coordinate data resulting 
# from the CCDC's data processing and validation procedures.
#
#######################################################################

data_ZUQPEI
_chemical_formula_moiety         'C22 H21 N1 O1'
_chemical_name_systematic        
2-(Mesitylimino)-1-methyl-1,2-dihydroacenaphthylen-1-ol
_symmetry_cell_setting           triclinic
_symmetry_space_group_name_H-M   'P -1'
_symmetry_Int_Tables_number      2
_space_group_name_Hall           '-P 1'
loop_
_symmetry_equiv_pos_site_id
_symmetry_equiv_pos_as_xyz
1 x,y,z
2 -x,-y,-z
_cell_length_a                   8.1845(6)
_cell_length_b                   13.2124(11)
_cell_length_c                   17.9902(18)
_cell_angle_alpha                102.434(8)
_cell_angle_beta                 102.180(7)
_cell_angle_gamma                93.473(6)
_cell_volume                     1845.52
_cell_formula_units_Z            4
loop_
_atom_site_label
_atom_site_type_symbol
_atom_site_fract_x
_atom_site_fract_y
_atom_site_fract_z
O1 O 0.97629(15) 0.44592(9) 0.08671(8)
H1 H 0.9687 0.5028 0.0757
N1 N 1.01581(17) 0.34650(11) -0.06665(9)
C1 C 0.9217(2) 0.30382(13) -0.03141(10)
C2 C 0.7030(2) 0.42382(14) -0.00214(12)
H2 H 0.6558 0.4616 0.0387
H3 H 0.6188 0.3718 -0.0375
H4 H 0.7413 0.4712 -0.0301
C3 C 0.8691(2) 0.19274(14) -0.03708(12)
C4 C 1.1005(2) 0.28180(14) -0.11743(12)
C5 C 0.85046(19) 0.37138(12) 0.03355(10)
C6 C 0.7991(2) 0.19073(14) 0.02794(12)
C7 C 1.2506(2) 0.24587(14) -0.08378(14)
C8 C 0.7352(3) 0.29906(17) 0.14024(12)
H5 H 0.7312 0.3643 0.1717
C9 C 0.7937(2) 0.28980(14) 0.07383(11)
C10 C 1.0393(3) 0.26158(18) -0.19755(15)
C11 C 1.3351(3) 0.18577(17) -0.13363(18)
H6 H 1.4344 0.1616 -0.1121
C12 C 0.8757(3) 0.10051(16) -0.08794(15)
H7 H 0.9218 0.0992 -0.1311
C13 C 0.7407(3) 0.09865(16) 0.04527(15)
C14 C 1.3154(3) 0.27096(16) 0.00293(14)
H8 H 1.4200 0.2422 0.0154
H9 H 1.2350 0.2415 0.0265
H10 H 1.3330 0.3453 0.0226
C15 C 0.6811(3) 0.11022(19) 0.11456(16)
H11 H 0.6419 0.0515 0.1291
C16 C 0.6808(3) 0.2068(2) 0.16007(15)
H12 H 0.6434 0.2124 0.2060
C17 C 1.1313(4) 0.1988(2) -0.24462(16)
H13 H 1.0920 0.1825 -0.2987
C18 C 1.2775(4) 0.1611(2) -0.2128(2)
C19 C 0.8829(4) 0.3043(3) -0.23111(16)
H14 H 0.7891 0.2739 -0.2161
H15 H 0.8637 0.2880 -0.2871
H16 H 0.8954 0.3787 -0.2117
C20 C 0.7461(3) 0.00572(17) -0.00902(19)
H17 H 0.7052 -0.0576 -0.0014
C21 C 0.8106(4) 0.00718(17) -0.07294(19)
H18 H 0.8118 -0.0557 -0.1080
C22 C 1.3709(5) 0.0944(3) -0.2671(2)
H19 H 1.3648 0.1205 -0.3133
H20 H 1.3200 0.0234 -0.2814
H21 H 1.4866 0.0973 -0.2406
O2 O 0.84025(16) 0.57178(12) 0.43993(9)
H22 H 0.9387 0.5810 0.4643
N2 N 0.83277(19) 0.35849(13) 0.46577(10)
C23 C 0.5441(2) 0.40628(16) 0.30228(11)
C24 C 0.5807(2) 0.34062(16) 0.35444(11)
C25 C 0.7463(2) 0.38459(16) 0.40687(11)
C26 C 0.6705(2) 0.48802(16) 0.31403(12)
C27 C 0.8140(2) 0.47913(16) 0.37984(12)
C28 C 0.6629(2) 0.28203(17) 0.54175(12)
C29 C 0.6271(3) 0.19801(19) 0.57261(13)
H23 H 0.5499 0.2037 0.6041
C30 C 0.3936(2) 0.39195(19) 0.24431(13)
C31 C 0.7771(2) 0.27258(16) 0.49395(12)
C32 C 0.6488(3) 0.55871(18) 0.26822(13)
H24 H 0.7313 0.6138 0.2754
C33 C 0.4667(3) 0.2575(2) 0.34868(13)
H25 H 0.4880 0.2128 0.3822
C34 C 0.4999(3) 0.5465(2) 0.21035(14)
H26 H 0.4851 0.5944 0.1791
C35 C 0.9747(2) 0.45629(19) 0.35134(14)
H27 H 1.0118 0.5134 0.3316
H28 H 0.9522 0.3936 0.3105
H29 H 1.0609 0.4475 0.3941
C36 C 0.3755(3) 0.4666(2) 0.19801(14)
H30 H 0.2784 0.4613 0.1590
C37 C 0.8525(3) 0.1806(2) 0.47769(16)
C38 C 0.8110(3) 0.0994(2) 0.51025(17)
H31 H 0.8596 0.0377 0.4989
C39 C 0.2792(3) 0.3058(2) 0.24015(15)
H32 H 0.1779 0.2925 0.2029
C40 C 0.3156(3) 0.2415(2) 0.29032(16)
H33 H 0.2378 0.1849 0.2859
C41 C 0.7001(3) 0.1066(2) 0.55902(15)
C42 C 0.5812(3) 0.3808(2) 0.56033(15)
H34 H 0.4913 0.3827 0.5169
H35 H 0.6632 0.4400 0.5700
H36 H 0.5372 0.3824 0.6059
C43 C 0.6629(4) 0.0180(2) 0.5966(2)
H37 H 0.7361 0.0296 0.6476
H38 H 0.6809 -0.0468 0.5647
H39 H 0.5480 0.0150 0.6012
C44 C 0.9763(5) 0.1713(3) 0.4252(2)
H40 H 1.0724 0.2220 0.4491
H41 H 0.9232 0.1835 0.3755
H42 H 1.0116 0.1026 0.4178
loop_
_geom_bond_atom_site_label_1
_geom_bond_atom_site_label_2
_geom_bond_site_symmetry_1
_geom_bond_site_symmetry_2
O1 H1 1_555 1_555
N1 C1 1_555 1_555
C1 C3 1_555 1_555
C2 H2 1_555 1_555
H3 C2 1_555 1_555
H4 C2 1_555 1_555
C3 C6 1_555 1_555
C4 N1 1_555 1_555
C5 O1 1_555 1_555
C6 C9 1_555 1_555
C7 C4 1_555 1_555
C8 H5 1_555 1_555
C9 C5 1_555 1_555
C10 C4 1_555 1_555
C11 C7 1_555 1_555
H6 C11 1_555 1_555
C12 C3 1_555 1_555
H7 C12 1_555 1_555
C13 C6 1_555 1_555
C14 C7 1_555 1_555
H8 C14 1_555 1_555
H9 C14 1_555 1_555
H10 C14 1_555 1_555
C15 C13 1_555 1_555
H11 C15 1_555 1_555
C16 C8 1_555 1_555
H12 C16 1_555 1_555
C17 C10 1_555 1_555
H13 C17 1_555 1_555
C18 C11 1_555 1_555
C19 C10 1_555 1_555
H14 C19 1_555 1_555
H15 C19 1_555 1_555
H16 C19 1_555 1_555
C20 C13 1_555 1_555
H17 C20 1_555 1_555
C21 C12 1_555 1_555
H18 C21 1_555 1_555
C22 C18 1_555 1_555
H19 C22 1_555 1_555
H20 C22 1_555 1_555
H21 C22 1_555 1_555
O2 H22 1_555 1_555
N2 C25 1_555 1_555
C23 C24 1_555 1_555
C24 C25 1_555 1_555
C25 C27 1_555 1_555
C26 C23 1_555 1_555
C27 O2 1_555 1_555
C28 C29 1_555 1_555
C29 H23 1_555 1_555
C30 C23 1_555 1_555
C31 N2 1_555 1_555
C32 C26 1_555 1_555
H24 C32 1_555 1_555
C33 C24 1_555 1_555
H25 C33 1_555 1_555
C34 C32 1_555 1_555
H26 C34 1_555 1_555
C35 C27 1_555 1_555
H27 C35 1_555 1_555
H28 C35 1_555 1_555
H29 C35 1_555 1_555
C36 C30 1_555 1_555
H30 C36 1_555 1_555
C37 C31 1_555 1_555
C38 C37 1_555 1_555
H31 C38 1_555 1_555
C39 C30 1_555 1_555
H32 C39 1_555 1_555
C40 C33 1_555 1_555
H33 C40 1_555 1_555
C41 C29 1_555 1_555
C42 C28 1_555 1_555
H34 C42 1_555 1_555
H35 C42 1_555 1_555
H36 C42 1_555 1_555
C43 C41 1_555 1_555
H37 C43 1_555 1_555
H38 C43 1_555 1_555
H39 C43 1_555 1_555
C44 C37 1_555 1_555
H40 C44 1_555 1_555
H41 C44 1_555 1_555
H42 C44 1_555 1_555
C1 C5 1_555 1_555
C2 C5 1_555 1_555
C8 C9 1_555 1_555
C15 C16 1_555 1_555
C17 C18 1_555 1_555
C20 C21 1_555 1_555
C26 C27 1_555 1_555
C28 C31 1_555 1_555
C34 C36 1_555 1_555
C38 C41 1_555 1_555
C39 C40 1_555 1_555

#END
