
#######################################################################
#
#                 Cambridge Crystallographic Data Centre
#                                CCDC 
#
#######################################################################
#
# If this CIF has been generated from an entry in the Cambridge 
# Structural Database, then it will include bibliographic, chemical, 
# crystal, experimental, refinement or atomic coordinate data resulting 
# from the CCDC's data processing and validation procedures.
#
#######################################################################

data_ZURCOG
_chemical_formula_moiety         'C21 H19 N1 O1'
_chemical_name_systematic        
2-((2,6-Dimethylphenyl)imino)-1-methyl-1,2-dihydroacenaphthylen-1-ol
_symmetry_cell_setting           monoclinic
_symmetry_space_group_name_H-M   'P 21/c'
_symmetry_Int_Tables_number      14
_space_group_name_Hall           '-P 2ybc'
loop_
_symmetry_equiv_pos_site_id
_symmetry_equiv_pos_as_xyz
1 x,y,z
2 -x,1/2+y,1/2-z
3 -x,-y,-z
4 x,1/2-y,1/2+z
_cell_length_a                   21.1517(16)
_cell_length_b                   11.0520(7)
_cell_length_c                   15.6075(12)
_cell_angle_alpha                90
_cell_angle_beta                 111.338(9)
_cell_angle_gamma                90
_cell_volume                     3398.44
_cell_formula_units_Z            8
loop_
_atom_site_label
_atom_site_type_symbol
_atom_site_fract_x
_atom_site_fract_y
_atom_site_fract_z
O1 O 0.49750(6) 0.82339(12) -0.00420(8)
H1 H 0.5112 0.8756 0.0357
N1 N 0.43934(8) 1.01310(13) -0.14502(10)
C1 C 0.42700(9) 0.83971(16) -0.05358(12)
C2 C 0.36710(9) 0.83502(16) -0.22150(12)
C3 C 0.42423(9) 1.07974(16) -0.22873(12)
C4 C 0.35769(9) 0.72503(16) -0.18235(12)
C5 C 0.39277(9) 0.71932(17) -0.08690(12)
C6 C 0.29287(11) 0.7591(2) -0.36679(14)
H2 H 0.2706 0.7704 -0.4297
C7 C 0.41327(9) 0.90909(16) -0.14491(11)
C8 C 0.39370(11) 0.90624(19) 0.00474(13)
H3 H 0.4004 0.8610 0.0599
H4 H 0.3460 0.9146 -0.0296
H5 H 0.4138 0.9849 0.0206
C9 C 0.33439(10) 0.85275(18) -0.31465(13)
H6 H 0.3396 0.9246 -0.3424
C10 C 0.28407(11) 0.6519(2) -0.32837(14)
H7 H 0.2563 0.5924 -0.3655
C11 C 0.46337(10) 1.06419(19) -0.28332(13)
C12 C 0.38738(12) 0.61705(19) -0.04053(15)
H8 H 0.4103 0.6107 0.0227
C13 C 0.36074(12) 1.23670(19) -0.32780(16)
H9 H 0.3265 1.2947 -0.3432
C14 C 0.31648(10) 0.63082(17) -0.23371(14)
C15 C 0.37292(11) 1.16614(18) -0.24954(15)
C16 C 0.31154(12) 0.52715(19) -0.18364(17)
H10 H 0.2846 0.4624 -0.2140
C17 C 0.34618(14) 0.5214(2) -0.09078(18)
H11 H 0.3425 0.4517 -0.0595
C18 C 0.51827(12) 0.9698(2) -0.26080(17)
H12 H 0.5500 0.9823 -0.1993
H13 H 0.5414 0.9761 -0.3033
H14 H 0.4984 0.8908 -0.2654
C19 C 0.44903(13) 1.1363(2) -0.36093(15)
H15 H 0.4740 1.1264 -0.3987
C20 C 0.39857(15) 1.2221(2) -0.38301(16)
H16 H 0.3899 1.2702 -0.4349
C21 C 0.33170(14) 1.1816(2) -0.18919(19)
H17 H 0.2981 1.2432 -0.2145
H18 H 0.3611 1.2049 -0.1285
H19 H 0.3097 1.1066 -0.1861
O2 O 0.01042(7) 0.31387(14) 0.01243(11)
H20 H 0.0228 0.3764 -0.0050
N2 N -0.07215(8) 0.49580(15) 0.06311(10)
C22 C -0.12535(9) 0.18744(17) 0.04481(12)
C23 C -0.15784(10) 0.08462(18) 0.06176(13)
C24 C -0.09574(10) 0.56492(18) 0.12310(14)
C25 C -0.06166(10) 0.31210(18) -0.01795(13)
C26 C -0.08603(10) 0.18540(18) -0.01104(13)
C27 C -0.16546(10) 0.31584(19) 0.13819(14)
H21 H -0.1685 0.3904 0.1640
C28 C -0.19489(10) 0.1018(2) 0.12005(14)
H22 H -0.2170 0.0366 0.1345
C29 C -0.08727(9) 0.38418(17) 0.04767(12)
C30 C -0.19842(10) 0.2137(2) 0.15531(15)
H23 H -0.2239 0.2225 0.1925
C31 C -0.14815(12) -0.02436(19) 0.02125(16)
H24 H -0.1683 -0.0952 0.0309
C32 C -0.05622(13) 0.5711(2) 0.21649(16)
C33 C -0.10943(15) -0.0266(2) -0.03193(18)
H25 H -0.1034 -0.0997 -0.0575
C34 C -0.07821(14) 0.0783(2) -0.04948(17)
H26 H -0.0526 0.0745 -0.0868
C35 C 0.00554(13) 0.4923(3) 0.25790(18)
H27 H -0.0077 0.4088 0.2500
H28 H 0.0267 0.5100 0.3223
H29 H 0.0370 0.5080 0.2278
C36 C -0.15541(13) 0.6302(2) 0.08464(18)
C37 C -0.09378(13) 0.3625(2) -0.11495(14)
H30 H -0.0810 0.4458 -0.1154
H31 H -0.1423 0.3565 -0.1348
H32 H -0.0783 0.3169 -0.1559
C38 C -0.0773(2) 0.6487(3) 0.2705(2)
H33 H -0.0511 0.6563 0.3327
C39 C -0.1356(3) 0.7141(3) 0.2342(3)
H34 H -0.1488 0.7658 0.2717
C40 C -0.19670(15) 0.6200(3) -0.0160(2)
H35 H -0.1692 0.6414 -0.0509
H36 H -0.2349 0.6738 -0.0315
H37 H -0.2125 0.5384 -0.0302
C41 C -0.17510(18) 0.7043(2) 0.1426(3)
H38 H -0.2155 0.7476 0.1190
C42 C -0.12833(9) 0.30281(17) 0.08195(12)
loop_
_geom_bond_atom_site_label_1
_geom_bond_atom_site_label_2
_geom_bond_site_symmetry_1
_geom_bond_site_symmetry_2
O1 H1 1_555 1_555
N1 C3 1_555 1_555
C1 O1 1_555 1_555
C2 C4 1_555 1_555
C3 C11 1_555 1_555
C4 C5 1_555 1_555
C5 C1 1_555 1_555
C6 H2 1_555 1_555
C7 N1 1_555 1_555
C8 C1 1_555 1_555
H3 C8 1_555 1_555
H4 C8 1_555 1_555
H5 C8 1_555 1_555
C9 C2 1_555 1_555
H6 C9 1_555 1_555
C10 C6 1_555 1_555
H7 C10 1_555 1_555
C11 C18 1_555 1_555
C12 C5 1_555 1_555
H8 C12 1_555 1_555
C13 H9 1_555 1_555
C14 C4 1_555 1_555
C15 C3 1_555 1_555
C16 C14 1_555 1_555
H10 C16 1_555 1_555
C17 C12 1_555 1_555
H11 C17 1_555 1_555
C18 H12 1_555 1_555
H13 C18 1_555 1_555
H14 C18 1_555 1_555
C19 C11 1_555 1_555
H15 C19 1_555 1_555
C20 C13 1_555 1_555
H16 C20 1_555 1_555
C21 C15 1_555 1_555
H17 C21 1_555 1_555
H18 C21 1_555 1_555
H19 C21 1_555 1_555
O2 H20 1_555 1_555
N2 C24 1_555 1_555
C22 C23 1_555 1_555
C23 C28 1_555 1_555
C24 C32 1_555 1_555
C25 O2 1_555 1_555
C26 C22 1_555 1_555
C27 H21 1_555 1_555
C28 H22 1_555 1_555
C29 N2 1_555 1_555
C30 C27 1_555 1_555
H23 C30 1_555 1_555
C31 C23 1_555 1_555
H24 C31 1_555 1_555
C32 C35 1_555 1_555
C33 C31 1_555 1_555
H25 C33 1_555 1_555
C34 C26 1_555 1_555
H26 C34 1_555 1_555
C35 H27 1_555 1_555
H28 C35 1_555 1_555
H29 C35 1_555 1_555
C36 C24 1_555 1_555
C37 C25 1_555 1_555
H30 C37 1_555 1_555
H31 C37 1_555 1_555
H32 C37 1_555 1_555
C38 C32 1_555 1_555
H33 C38 1_555 1_555
C39 C38 1_555 1_555
H34 C39 1_555 1_555
C40 C36 1_555 1_555
H35 C40 1_555 1_555
H36 C40 1_555 1_555
H37 C40 1_555 1_555
C41 C36 1_555 1_555
H38 C41 1_555 1_555
C42 C22 1_555 1_555
C1 C7 1_555 1_555
C2 C7 1_555 1_555
C6 C9 1_555 1_555
C10 C14 1_555 1_555
C13 C15 1_555 1_555
C16 C17 1_555 1_555
C19 C20 1_555 1_555
C25 C26 1_555 1_555
C25 C29 1_555 1_555
C27 C42 1_555 1_555
C28 C30 1_555 1_555
C29 C42 1_555 1_555
C33 C34 1_555 1_555
C39 C41 1_555 1_555

#END
