
#######################################################################
#
#                 Cambridge Crystallographic Data Centre
#                                CCDC 
#
#######################################################################
#
# If this CIF has been generated from an entry in the Cambridge 
# Structural Database, then it will include bibliographic, chemical, 
# crystal, experimental, refinement or atomic coordinate data resulting 
# from the CCDC's data processing and validation procedures.
#
#######################################################################

data_ZURFEZ
_chemical_formula_moiety         'C36 H26 O2'
_chemical_name_systematic        
11,12-Dimethoxy-9,14-diphenylbenzo[f]tetraphene
_symmetry_cell_setting           triclinic
_symmetry_space_group_name_H-M   'P -1'
_symmetry_Int_Tables_number      2
_space_group_name_Hall           '-P 1'
loop_
_symmetry_equiv_pos_site_id
_symmetry_equiv_pos_as_xyz
1 x,y,z
2 -x,-y,-z
_cell_length_a                   11.2765(6)
_cell_length_b                   13.2453(8)
_cell_length_c                   18.1362(10)
_cell_angle_alpha                98.6470(10)
_cell_angle_beta                 93.9870(10)
_cell_angle_gamma                102.6040(10)
_cell_volume                     2598.76
_exptl_crystal_colour            colorless
_exptl_crystal_description       Block
_cell_formula_units_Z            4
loop_
_atom_site_label
_atom_site_type_symbol
_atom_site_fract_x
_atom_site_fract_y
_atom_site_fract_z
O1 O 0.57415(15) 0.63387(13) 0.29330(9)
O2 O 0.49715(16) 0.45581(14) 0.33198(10)
C1 C 0.5879(2) 0.55065(18) 0.24330(14)
C2 C 0.5443(2) 0.45130(19) 0.26461(13)
C3 C 0.5551(2) 0.36283(18) 0.22016(13)
H1 H 0.5246 0.2981 0.2340
C4 C 0.61193(19) 0.36676(17) 0.15271(13)
C5 C 0.64023(19) 0.27658(16) 0.11164(12)
C6 C 0.69588(19) 0.28299(16) 0.04551(12)
C7 C 0.7546(2) 0.20168(17) 0.00972(13)
C8 C 0.7993(2) 0.13324(18) 0.05034(15)
H2 H 0.7926 0.1394 0.1016
C9 C 0.8527(2) 0.0572(2) 0.01623(17)
H3 H 0.8790 0.0112 0.0440
C10 C 0.8673(2) 0.0490(2) -0.05887(17)
H4 H 0.9009 -0.0039 -0.0824
C11 C 0.8323(2) 0.11891(19) -0.09859(15)
H5 H 0.8452 0.1146 -0.1489
C12 C 0.77726(19) 0.19715(17) -0.06562(14)
C13 C 0.7452(2) 0.27514(18) -0.10766(13)
C14 C 0.7461(2) 0.2622(2) -0.18580(14)
H6 H 0.7636 0.2015 -0.2109
C15 C 0.7225(2) 0.3356(2) -0.22587(15)
H7 H 0.7262 0.3260 -0.2774
C16 C 0.6928(2) 0.4245(2) -0.18947(15)
H8 H 0.6764 0.4750 -0.2166
C17 C 0.6874(2) 0.43839(19) -0.11320(14)
H9 H 0.6640 0.4973 -0.0898
C18 C 0.71626(19) 0.36613(18) -0.06940(13)
C19 C 0.70396(19) 0.37623(17) 0.01233(13)
C20 C 0.69195(19) 0.46854(17) 0.05734(13)
C21 C 0.6485(2) 0.46473(17) 0.12848(13)
C22 C 0.6376(2) 0.55639(17) 0.17774(13)
H10 H 0.6655 0.6219 0.1644
C23 C 0.6029(3) 0.73411(19) 0.27128(17)
H11 H 0.6881 0.7524 0.2645
H12 H 0.5850 0.7855 0.3095
H13 H 0.5549 0.7322 0.2250
C24 C 0.4683(3) 0.3609(2) 0.36197(14)
H14 H 0.3966 0.3150 0.3337
H15 H 0.4535 0.3767 0.4134
H16 H 0.5355 0.3273 0.3589
C25 C 0.6074(2) 0.17486(17) 0.14056(12)
C26 C 0.6612(2) 0.16229(18) 0.20889(13)
H17 H 0.7141 0.2196 0.2391
C27 C 0.6376(2) 0.0670(2) 0.23255(14)
H18 H 0.6751 0.0598 0.2782
C28 C 0.5588(3) -0.0177(2) 0.18877(17)
H19 H 0.5441 -0.0828 0.2041
C29 C 0.5015(2) -0.00637(19) 0.12239(15)
H20 H 0.4459 -0.0634 0.0936
C30 C 0.5258(2) 0.08904(18) 0.09795(13)
H21 H 0.4872 0.0958 0.0526
C31 C 0.7305(2) 0.57266(17) 0.03336(12)
C32 C 0.6491(3) 0.63552(19) 0.02317(14)
H22 H 0.5687 0.6148 0.0338
C33 C 0.6879(4) 0.7297(2) -0.00305(16)
H23 H 0.6336 0.7720 -0.0099
C34 C 0.8058(4) 0.7597(2) -0.01862(16)
H24 H 0.8308 0.8217 -0.0372
C35 C 0.8878(3) 0.6997(2) -0.00728(15)
H25 H 0.9684 0.7216 -0.0171
C36 C 0.8503(2) 0.60710(19) 0.01872(13)
H26 H 0.9063 0.5667 0.0267
O3 O 0.61258(17) -0.05932(16) 0.59017(10)
O4 O 0.68345(18) -0.21291(16) 0.51477(11)
C37 C 0.6874(2) -0.0330(2) 0.53651(14)
C38 C 0.7238(2) -0.1180(2) 0.49426(15)
C39 C 0.7944(2) -0.09977(19) 0.43796(13)
H27 H 0.8157 -0.1561 0.4092
C40 C 0.8373(2) 0.00321(18) 0.42126(13)
C41 C 0.9157(2) 0.02283(18) 0.36436(12)
C42 C 0.9560(2) 0.12434(18) 0.35034(12)
C43 C 1.0550(2) 0.15024(18) 0.30243(13)
C44 C 1.1447(2) 0.0924(2) 0.29391(14)
H28 H 1.1431 0.0370 0.3201
C45 C 1.2352(2) 0.1154(2) 0.24796(15)
H29 H 1.2938 0.0758 0.2433
C46 C 1.2386(3) 0.1969(3) 0.20905(16)
H30 H 1.2964 0.2101 0.1754
C47 C 1.1567(3) 0.2588(2) 0.21995(15)
H31 H 1.1624 0.3160 0.1952
C48 C 1.0645(2) 0.2385(2) 0.26744(13)
C49 C 0.9827(2) 0.30842(19) 0.28420(14)
C50 C 0.9752(3) 0.3868(2) 0.24097(16)
H32 H 1.0191 0.3904 0.1995
C51 C 0.9061(3) 0.4577(2) 0.25765(19)
H33 H 0.9024 0.5084 0.2278
C52 C 0.8417(3) 0.4534(2) 0.31895(19)
H34 H 0.7968 0.5033 0.3321
C53 C 0.8436(2) 0.3754(2) 0.36095(15)
H35 H 0.7969 0.3723 0.4012
C54 C 0.9130(2) 0.30061(18) 0.34551(14)
C55 C 0.9025(2) 0.20710(18) 0.38416(13)
C56 C 0.8331(2) 0.19023(18) 0.44408(13)
C57 C 0.8013(2) 0.08820(19) 0.46349(12)
C58 C 0.7272(2) 0.0660(2) 0.52271(13)
H36 H 0.7056 0.1212 0.5526
C59 C 0.5677(3) 0.0231(3) 0.63072(18)
H37 H 0.6347 0.0738 0.6603
H38 H 0.5102 -0.0055 0.6631
H39 H 0.5282 0.0566 0.5961
C60 C 0.7389(3) -0.2951(2) 0.4841(2)
H40 H 0.7137 -0.3147 0.4313
H41 H 0.7140 -0.3548 0.5083
H42 H 0.8262 -0.2709 0.4921
C61 C 0.9389(2) -0.07071(17) 0.31467(13)
C62 C 0.9962(2) -0.1434(2) 0.34061(15)
H43 H 1.0280 -0.1322 0.3906
C63 C 1.0064(2) -0.2321(2) 0.29309(18)
H44 H 1.0454 -0.2799 0.3112
C64 C 0.9595(3) -0.2500(2) 0.21934(18)
H45 H 0.9660 -0.3101 0.1876
C65 C 0.9031(2) -0.1792(2) 0.19248(15)
H46 H 0.8716 -0.1912 0.1424
C66 C 0.8929(2) -0.09024(18) 0.23965(14)
H47 H 0.8546 -0.0426 0.2208
C67 C 0.7941(2) 0.27540(19) 0.49328(13)
C68 C 0.6726(3) 0.2761(2) 0.49830(15)
H48 H 0.6123 0.2234 0.4689
C69 C 0.6390(3) 0.3548(2) 0.54678(17)
H49 H 0.5569 0.3533 0.5506
C70 C 0.7277(3) 0.4343(2) 0.58874(16)
H50 H 0.7059 0.4877 0.6205
C71 C 0.8481(3) 0.4349(2) 0.58361(15)
H51 H 0.9081 0.4889 0.6120
C72 C 0.8816(2) 0.3563(2) 0.53692(14)
H52 H 0.9640 0.3575 0.5346
loop_
_geom_bond_atom_site_label_1
_geom_bond_atom_site_label_2
_geom_bond_site_symmetry_1
_geom_bond_site_symmetry_2
O1 C1 1_555 1_555
O2 C2 1_555 1_555
C1 C2 1_555 1_555
C2 C3 1_555 1_555
C3 H1 1_555 1_555
C4 C3 1_555 1_555
C5 C4 1_555 1_555
C6 C5 1_555 1_555
C7 C6 1_555 1_555
C8 C7 1_555 1_555
H2 C8 1_555 1_555
C9 C8 1_555 1_555
H3 C9 1_555 1_555
C10 C9 1_555 1_555
H4 C10 1_555 1_555
C11 C10 1_555 1_555
H5 C11 1_555 1_555
C12 C7 1_555 1_555
C13 C12 1_555 1_555
C14 C13 1_555 1_555
H6 C14 1_555 1_555
C15 C14 1_555 1_555
H7 C15 1_555 1_555
C16 C15 1_555 1_555
H8 C16 1_555 1_555
C17 C16 1_555 1_555
H9 C17 1_555 1_555
C18 C13 1_555 1_555
C19 C6 1_555 1_555
C20 C19 1_555 1_555
C21 C4 1_555 1_555
C22 C1 1_555 1_555
H10 C22 1_555 1_555
C23 O1 1_555 1_555
H11 C23 1_555 1_555
H12 C23 1_555 1_555
H13 C23 1_555 1_555
C24 O2 1_555 1_555
H14 C24 1_555 1_555
H15 C24 1_555 1_555
H16 C24 1_555 1_555
C25 C5 1_555 1_555
C26 C25 1_555 1_555
H17 C26 1_555 1_555
C27 C26 1_555 1_555
H18 C27 1_555 1_555
C28 C27 1_555 1_555
H19 C28 1_555 1_555
C29 C28 1_555 1_555
H20 C29 1_555 1_555
C30 C25 1_555 1_555
H21 C30 1_555 1_555
C31 C20 1_555 1_555
C32 C31 1_555 1_555
H22 C32 1_555 1_555
C33 C32 1_555 1_555
H23 C33 1_555 1_555
C34 C33 1_555 1_555
H24 C34 1_555 1_555
C35 C34 1_555 1_555
H25 C35 1_555 1_555
C36 C31 1_555 1_555
H26 C36 1_555 1_555
O3 C37 1_555 1_555
O4 C38 1_555 1_555
C37 C38 1_555 1_555
C38 C39 1_555 1_555
C39 H27 1_555 1_555
C40 C39 1_555 1_555
C41 C40 1_555 1_555
C42 C41 1_555 1_555
C43 C42 1_555 1_555
C44 C43 1_555 1_555
H28 C44 1_555 1_555
C45 C44 1_555 1_555
H29 C45 1_555 1_555
C46 C45 1_555 1_555
H30 C46 1_555 1_555
C47 C46 1_555 1_555
H31 C47 1_555 1_555
C48 C43 1_555 1_555
C49 C48 1_555 1_555
C50 C49 1_555 1_555
H32 C50 1_555 1_555
C51 C50 1_555 1_555
H33 C51 1_555 1_555
C52 C51 1_555 1_555
H34 C52 1_555 1_555
C53 C52 1_555 1_555
H35 C53 1_555 1_555
C54 C49 1_555 1_555
C55 C42 1_555 1_555
C56 C55 1_555 1_555
C57 C40 1_555 1_555
C58 C37 1_555 1_555
H36 C58 1_555 1_555
C59 O3 1_555 1_555
H37 C59 1_555 1_555
H38 C59 1_555 1_555
H39 C59 1_555 1_555
C60 O4 1_555 1_555
H40 C60 1_555 1_555
H41 C60 1_555 1_555
H42 C60 1_555 1_555
C61 C41 1_555 1_555
C62 C61 1_555 1_555
H43 C62 1_555 1_555
C63 C62 1_555 1_555
H44 C63 1_555 1_555
C64 C63 1_555 1_555
H45 C64 1_555 1_555
C65 C64 1_555 1_555
H46 C65 1_555 1_555
C66 C61 1_555 1_555
H47 C66 1_555 1_555
C67 C56 1_555 1_555
C68 C67 1_555 1_555
H48 C68 1_555 1_555
C69 C68 1_555 1_555
H49 C69 1_555 1_555
C70 C69 1_555 1_555
H50 C70 1_555 1_555
C71 C70 1_555 1_555
H51 C71 1_555 1_555
C72 C67 1_555 1_555
H52 C72 1_555 1_555
C11 C12 1_555 1_555
C17 C18 1_555 1_555
C18 C19 1_555 1_555
C20 C21 1_555 1_555
C21 C22 1_555 1_555
C29 C30 1_555 1_555
C35 C36 1_555 1_555
C47 C48 1_555 1_555
C53 C54 1_555 1_555
C54 C55 1_555 1_555
C56 C57 1_555 1_555
C57 C58 1_555 1_555
C65 C66 1_555 1_555
C71 C72 1_555 1_555

#END
