
#######################################################################
#
#                 Cambridge Crystallographic Data Centre
#                                CCDC 
#
#######################################################################
#
# If this CIF has been generated from an entry in the Cambridge 
# Structural Database, then it will include bibliographic, chemical, 
# crystal, experimental, refinement or atomic coordinate data resulting 
# from the CCDC's data processing and validation procedures.
#
#######################################################################

data_ZURXUH
_chemical_formula_moiety         'C34 H38 N4 O2'
_chemical_name_systematic        
1,12,17,17,26,26-Hexamethyl-3,10-dioxa-31,32,33,34-tetra-azaheptacyclo[10.9.9.1^13,16^.1^18,21^.1^22,25^.1^27,30^.0^4,9^]tetratriaconta-4,6,8,13,15,18,20,22,24,27,29-undecaene
_symmetry_cell_setting           monoclinic
_symmetry_space_group_name_H-M   'P 21/n'
_symmetry_Int_Tables_number      14
_space_group_name_Hall           '-P 2yn'
loop_
_symmetry_equiv_pos_site_id
_symmetry_equiv_pos_as_xyz
1 x,y,z
2 1/2-x,1/2+y,1/2-z
3 -x,-y,-z
4 1/2+x,1/2-y,1/2+z
_cell_length_a                   9.9441(6)
_cell_length_b                   17.8586(11)
_cell_length_c                   16.3516(10)
_cell_angle_alpha                90
_cell_angle_beta                 91.5150(10)
_cell_angle_gamma                90
_cell_volume                     2902.83
_exptl_crystal_colour            colorless
_exptl_crystal_description       block
_cell_formula_units_Z            4
loop_
_atom_site_label
_atom_site_type_symbol
_atom_site_fract_x
_atom_site_fract_y
_atom_site_fract_z
O1 O 0.28134(12) 0.18920(6) 0.69285(8)
N1 N 0.34804(16) 0.41534(8) 0.71895(9)
O2 O 0.45331(11) 0.25462(6) 0.78860(8)
N2 N 0.04304(15) 0.25734(9) 0.81392(9)
N3 N 0.28415(15) 0.33289(9) 0.89244(9)
N4 N 0.14697(16) 0.31398(8) 0.63087(9)
C1 C 0.48923(18) 0.18425(9) 0.76323(10)
C2 C 0.03406(17) 0.27272(9) 0.64563(10)
C3 C 0.03947(18) 0.19304(9) 0.67709(11)
C4 C 0.50409(18) 0.37957(9) 0.83685(11)
C5 C 0.17959(18) 0.35538(10) 0.93933(10)
C6 C 0.34831(17) 0.43070(9) 0.63671(10)
C7 C 0.11430(18) 0.38696(9) 0.61311(10)
C8 C 0.16811(19) 0.15217(10) 0.65482(12)
H1 H 0.1643 0.1006 0.6734
H2 H 0.1772 0.1520 0.5959
C9 C 0.06373(18) 0.30423(11) 0.95864(11)
C10 C -0.02229(19) 0.39191(11) 0.61730(12)
H3 H -0.0736 0.4348 0.6085
C11 C 0.47570(17) 0.40720(9) 0.75021(11)
C12 C 0.48014(19) 0.43364(10) 0.61656(12)
H4 H 0.5123 0.4436 0.5648
C13 C 0.39445(18) 0.14876(9) 0.71134(10)
C14 C 0.03246(18) 0.19279(9) 0.76936(11)
C15 C 0.6070(2) 0.14826(10) 0.78494(12)
H5 H 0.6696 0.1716 0.8196
C16 C -0.07195(19) 0.32050(11) 0.63739(12)
H6 H -0.1619 0.3082 0.6439
C17 C 0.4216(2) 0.07822(10) 0.68179(12)
H7 H 0.3600 0.0545 0.6467
C18 C 0.38117(18) 0.38707(9) 0.88877(10)
C19 C 0.05050(17) 0.24235(10) 0.89640(11)
C20 C 0.21943(18) 0.44242(9) 0.58721(10)
C21 C 0.2115(2) 0.42607(11) 0.96570(12)
H8 H 0.1592 0.4560 0.9989
C22 C 0.5407(2) 0.04269(11) 0.70439(14)
H9 H 0.5582 -0.0051 0.6848
C23 C 0.3364(2) 0.44563(10) 0.93423(11)
H10 H 0.3811 0.4908 0.9428
C24 C 0.6211(2) 0.42438(11) 0.87606(13)
H11 H 0.5942 0.4756 0.8827
H12 H 0.6974 0.4221 0.8414
H13 H 0.6447 0.4034 0.9285
C25 C 0.55966(18) 0.41900(10) 0.68735(12)
H14 H 0.6531 0.4177 0.6905
C26 C 0.55195(18) 0.29802(10) 0.83254(12)
H15 H 0.6371 0.2956 0.8051
H16 H 0.5650 0.2781 0.8874
C27 C 0.0309(2) 0.13563(11) 0.82373(13)
H17 H 0.0230 0.0850 0.8112
C28 C 0.2465(2) 0.43000(12) 0.49617(11)
H18 H 0.3117 0.4657 0.4785
H19 H 0.1643 0.4363 0.4648
H20 H 0.2804 0.3802 0.4884
C29 C 0.1666(2) 0.52235(10) 0.59877(13)
H21 H 0.1482 0.5304 0.6554
H22 H 0.0855 0.5290 0.5665
H23 H 0.2332 0.5576 0.5817
C30 C 0.0433(2) 0.16679(12) 0.90296(13)
H24 H 0.0462 0.1399 0.9517
C31 C -0.0788(2) 0.14805(12) 0.63942(14)
H25 H -0.0762 0.0978 0.6602
H26 H -0.0719 0.1471 0.5810
H27 H -0.1621 0.1712 0.6536
C32 C 0.6325(2) 0.07712(11) 0.75518(14)
H28 H 0.7123 0.0528 0.7698
C33 C 0.0880(2) 0.26936(13) 1.04414(12)
H29 H 0.0142 0.2371 1.0567
H30 H 0.0952 0.3084 1.0843
H31 H 0.1699 0.2408 1.0446
C34 C -0.0672(2) 0.34956(14) 0.95941(14)
H32 H -0.0853 0.3701 0.9060
H33 H -0.0583 0.3895 0.9985
H34 H -0.1401 0.3174 0.9742
H35 H 0.2274(19) 0.2974(10) 0.6371(11)
H36 H 0.2874(19) 0.2907(11) 0.8694(11)
H37 H 0.280(2) 0.4112(10) 0.7469(11)
H38 H 0.039(2) 0.3035(12) 0.7927(12)
loop_
_geom_bond_atom_site_label_1
_geom_bond_atom_site_label_2
_geom_bond_site_symmetry_1
_geom_bond_site_symmetry_2
O1 C8 1_555 1_555
N1 C6 1_555 1_555
O2 C1 1_555 1_555
N2 C14 1_555 1_555
N3 C5 1_555 1_555
N4 C2 1_555 1_555
C1 C13 1_555 1_555
C2 C3 1_555 1_555
C3 C8 1_555 1_555
C4 C11 1_555 1_555
C5 C9 1_555 1_555
C6 C12 1_555 1_555
C7 N4 1_555 1_555
C8 H1 1_555 1_555
H2 C8 1_555 1_555
C9 C19 1_555 1_555
C10 C7 1_555 1_555
H3 C10 1_555 1_555
C11 N1 1_555 1_555
C12 H4 1_555 1_555
C13 O1 1_555 1_555
C14 C3 1_555 1_555
C15 C1 1_555 1_555
H5 C15 1_555 1_555
C16 C2 1_555 1_555
H6 C16 1_555 1_555
C17 C13 1_555 1_555
H7 C17 1_555 1_555
C18 N3 1_555 1_555
C19 N2 1_555 1_555
C20 C6 1_555 1_555
C21 C5 1_555 1_555
H8 C21 1_555 1_555
C22 C17 1_555 1_555
H9 C22 1_555 1_555
C23 C18 1_555 1_555
H10 C23 1_555 1_555
C24 C4 1_555 1_555
H11 C24 1_555 1_555
H12 C24 1_555 1_555
H13 C24 1_555 1_555
C25 C11 1_555 1_555
H14 C25 1_555 1_555
C26 O2 1_555 1_555
H15 C26 1_555 1_555
H16 C26 1_555 1_555
C27 C14 1_555 1_555
H17 C27 1_555 1_555
C28 C20 1_555 1_555
H18 C28 1_555 1_555
H19 C28 1_555 1_555
H20 C28 1_555 1_555
C29 C20 1_555 1_555
H21 C29 1_555 1_555
H22 C29 1_555 1_555
H23 C29 1_555 1_555
C30 C19 1_555 1_555
H24 C30 1_555 1_555
C31 C3 1_555 1_555
H25 C31 1_555 1_555
H26 C31 1_555 1_555
H27 C31 1_555 1_555
C32 C15 1_555 1_555
H28 C32 1_555 1_555
C33 C9 1_555 1_555
H29 C33 1_555 1_555
H30 C33 1_555 1_555
H31 C33 1_555 1_555
C34 C9 1_555 1_555
H32 C34 1_555 1_555
H33 C34 1_555 1_555
H34 C34 1_555 1_555
H35 N4 1_555 1_555
H36 N3 1_555 1_555
H37 N1 1_555 1_555
H38 N2 1_555 1_555
C4 C18 1_555 1_555
C4 C26 1_555 1_555
C7 C20 1_555 1_555
C10 C16 1_555 1_555
C12 C25 1_555 1_555
C21 C23 1_555 1_555
C22 C32 1_555 1_555
C27 C30 1_555 1_555

#END
