
#######################################################################
#
#                 Cambridge Crystallographic Data Centre
#                                CCDC 
#
#######################################################################
#
# If this CIF has been generated from an entry in the Cambridge 
# Structural Database, then it will include bibliographic, chemical, 
# crystal, experimental, refinement or atomic coordinate data resulting 
# from the CCDC's data processing and validation procedures.
#
#######################################################################

data_ZURYAO
_chemical_formula_moiety         'C38 H40 N4 O2'
_chemical_name_systematic        
1,16,21,21,30,30-Hexamethyl-3,14-dioxa-35,36,37,38-tetra-azaoctacyclo[14.9.9.1^17,20^.1^22,25^.1^26,29^.1^31,34^.0^4,13^.0^6,11^]octatriaconta-4,6,8,10,12,17,19,22,24,26,28,31,33-tridecaene
_symmetry_cell_setting           monoclinic
_symmetry_space_group_name_H-M   'C 2/c'
_symmetry_Int_Tables_number      15
_space_group_name_Hall           '-C 2yn'
loop_
_symmetry_equiv_pos_site_id
_symmetry_equiv_pos_as_xyz
1 x,y,z
2 -x,y,1/2-z
3 1/2+x,1/2+y,z
4 1/2-x,1/2+y,1/2-z
5 -x,-y,-z
6 x,-y,1/2+z
7 1/2-x,1/2-y,-z
8 1/2+x,1/2-y,1/2+z
_cell_length_a                   15.9269(17)
_cell_length_b                   13.3215(14)
_cell_length_c                   16.1486(17)
_cell_angle_alpha                90
_cell_angle_beta                 111.399(2)
_cell_angle_gamma                90
_cell_volume                     3190.05
_exptl_crystal_colour            colorless
_exptl_crystal_description       needle
_cell_formula_units_Z            4
loop_
_atom_site_label
_atom_site_type_symbol
_atom_site_fract_x
_atom_site_fract_y
_atom_site_fract_z
O1 O 0.03437(11) 0.52561(13) 0.33528(11)
C1 C 0.01762(16) 0.61902(19) 0.29745(17)
N1 N -0.03601(17) 0.34894(19) 0.37190(16)
C2 C 0.03197(17) 0.7072(2) 0.34256(19)
H1 H 0.0528 0.7066 0.4044
C3 C 0.01566(19) 0.8000(2) 0.2967(2)
N2 N 0.14718(18) 0.3254(2) 0.32145(17)
C4 C 0.08775(18) 0.5187(2) 0.42842(17)
H2 H 0.0514 0.5363 0.4631
H3 H 0.1380 0.5652 0.4434
C5 C 0.12298(19) 0.4112(2) 0.45012(17)
C6 C 0.17808(18) 0.3874(2) 0.39340(19)
C7 C -0.0883(2) 0.2650(2) 0.3647(2)
C8 C 0.0485(2) 0.3360(2) 0.43377(19)
C9 C 0.2043(2) 0.3249(2) 0.2748(2)
C10 C 0.0309(3) 0.8926(2) 0.3426(3)
H4 H 0.0509 0.8934 0.4044
C11 C -0.1861(2) 0.2618(3) 0.3069(2)
C12 C 0.0502(3) 0.2423(3) 0.4678(2)
H5 H 0.0990 0.2126 0.5119
C13 C 0.2575(2) 0.4257(3) 0.3939(3)
H6 H 0.2952 0.4695 0.4360
C14 C 0.2725(3) 0.3869(3) 0.3191(3)
H7 H 0.3215 0.4018 0.3030
C15 C 0.1846(3) 0.4097(3) 0.5493(2)
H8 H 0.1506 0.4302 0.5848
H9 H 0.2341 0.4550 0.5589
H10 H 0.2072 0.3430 0.5659
C16 C 0.0162(3) 0.9807(3) 0.2966(3)
H11 H 0.0278 1.0413 0.3272
C17 C -0.0345(3) 0.1985(3) 0.4247(3)
H12 H -0.0513 0.1344 0.4353
C18 C -0.2406(3) 0.3016(4) 0.3611(3)
H13 H -0.2241 0.2654 0.4161
H14 H -0.3038 0.2926 0.3278
H15 H -0.2281 0.3717 0.3732
C19 C -0.2139(4) 0.1525(3) 0.2794(3)
H16 H -0.1820 0.1283 0.2432
H17 H -0.2776 0.1497 0.2462
H18 H -0.1995 0.1115 0.3316
H19 H -0.055(2) 0.402(2) 0.336(2)
H20 H 0.098(3) 0.290(3) 0.307(3)
O1A O -0.03437(11) 0.52561(13) 0.16472(11)
C1A C -0.01762(16) 0.61902(19) 0.20255(17)
N1A N 0.03601(17) 0.34894(19) 0.12810(16)
C2A C -0.03197(17) 0.7072(2) 0.15744(19)
H1A H -0.0528 0.7066 0.0956
C3A C -0.01566(19) 0.8000(2) 0.2033(2)
N2A N -0.14718(18) 0.3254(2) 0.17855(17)
C4A C -0.08775(18) 0.5187(2) 0.07158(17)
H2A H -0.0514 0.5363 0.0369
H3A H -0.1380 0.5652 0.0566
C5A C -0.12298(19) 0.4112(2) 0.04988(17)
C6A C -0.17808(18) 0.3874(2) 0.10660(19)
C7A C 0.0883(2) 0.2650(2) 0.1353(2)
C8A C -0.0485(2) 0.3360(2) 0.06623(19)
C9A C -0.2043(2) 0.3249(2) 0.2252(2)
C10A C -0.0309(3) 0.8926(2) 0.1574(3)
H4A H -0.0509 0.8934 0.0956
C11A C 0.1861(2) 0.2618(3) 0.1931(2)
C12A C -0.0502(3) 0.2423(3) 0.0322(2)
H5A H -0.0990 0.2126 -0.0119
C13A C -0.2575(2) 0.4257(3) 0.1061(3)
H6A H -0.2952 0.4695 0.0640
C14A C -0.2725(3) 0.3869(3) 0.1809(3)
H7A H -0.3215 0.4018 0.1970
C15A C -0.1846(3) 0.4097(3) -0.0493(2)
H8A H -0.1506 0.4302 -0.0848
H9A H -0.2341 0.4550 -0.0589
H10A H -0.2072 0.3430 -0.0659
C16A C -0.0162(3) 0.9807(3) 0.2034(3)
H11A H -0.0278 1.0413 0.1728
C17A C 0.0345(3) 0.1985(3) 0.0753(3)
H12A H 0.0513 0.1344 0.0647
C18A C 0.2406(3) 0.3016(4) 0.1389(3)
H13A H 0.2241 0.2654 0.0839
H14A H 0.3038 0.2926 0.1722
H15A H 0.2281 0.3717 0.1268
C19A C 0.2139(4) 0.1525(3) 0.2206(3)
H16A H 0.1820 0.1283 0.2568
H17A H 0.2776 0.1497 0.2538
H18A H 0.1995 0.1115 0.1684
H19A H 0.055(2) 0.402(2) 0.164(2)
H20A H -0.098(3) 0.290(3) 0.193(3)
loop_
_geom_bond_atom_site_label_1
_geom_bond_atom_site_label_2
_geom_bond_site_symmetry_1
_geom_bond_site_symmetry_2
O1 C1 1_555 1_555
C1 C2 1_555 1_555
N1 C7 1_555 1_555
C2 H1 1_555 1_555
C3 C2 1_555 1_555
N2 C6 1_555 1_555
C4 O1 1_555 1_555
H2 C4 1_555 1_555
H3 C4 1_555 1_555
C5 C4 1_555 1_555
C6 C5 1_555 1_555
C7 C11 1_555 1_555
C8 N1 1_555 1_555
C9 N2 1_555 1_555
C10 C3 1_555 1_555
H4 C10 1_555 1_555
C11 C18 1_555 1_555
C12 C8 1_555 1_555
H5 C12 1_555 1_555
C13 C6 1_555 1_555
H6 C13 1_555 1_555
C14 C9 1_555 1_555
H7 C14 1_555 1_555
C15 C5 1_555 1_555
H8 C15 1_555 1_555
H9 C15 1_555 1_555
H10 C15 1_555 1_555
C16 C10 1_555 1_555
H11 C16 1_555 1_555
C17 C7 1_555 1_555
H12 C17 1_555 1_555
C18 H13 1_555 1_555
H14 C18 1_555 1_555
H15 C18 1_555 1_555
C19 C11 1_555 1_555
H16 C19 1_555 1_555
H17 C19 1_555 1_555
H18 C19 1_555 1_555
H19 N1 1_555 1_555
H20 N2 1_555 1_555
O1A C1A 1_555 1_555
C1A C1 1_555 1_555
N1A C7A 1_555 1_555
C2A C1A 1_555 1_555
H1A C2A 1_555 1_555
C3A C3 1_555 1_555
N2A C6A 1_555 1_555
C4A O1A 1_555 1_555
H2A C4A 1_555 1_555
H3A C4A 1_555 1_555
C5A C4A 1_555 1_555
C6A C5A 1_555 1_555
C7A C11A 1_555 1_555
C8A N1A 1_555 1_555
C9A C11 1_555 1_555
C10A C3A 1_555 1_555
H4A C10A 1_555 1_555
C11A C9 1_555 1_555
C12A C8A 1_555 1_555
H5A C12A 1_555 1_555
C13A C6A 1_555 1_555
H6A C13A 1_555 1_555
C14A C9A 1_555 1_555
H7A C14A 1_555 1_555
C15A C5A 1_555 1_555
H8A C15A 1_555 1_555
H9A C15A 1_555 1_555
H10A C15A 1_555 1_555
C16A C16 1_555 1_555
H11A C16A 1_555 1_555
C17A C7A 1_555 1_555
H12A C17A 1_555 1_555
C18A C11A 1_555 1_555
H13A C18A 1_555 1_555
H14A C18A 1_555 1_555
H15A C18A 1_555 1_555
C19A C11A 1_555 1_555
H16A C19A 1_555 1_555
H17A C19A 1_555 1_555
H18A C19A 1_555 1_555
H19A N1A 1_555 1_555
H20A N2A 1_555 1_555
C5 C8 1_555 1_555
C12 C17 1_555 1_555
C13 C14 1_555 1_555
C2A C3A 1_555 1_555
N2A C9A 1_555 1_555
C5A C8A 1_555 1_555
C10A C16A 1_555 1_555
C12A C17A 1_555 1_555
C13A C14A 1_555 1_555

#END
