
#######################################################################
#
#                 Cambridge Crystallographic Data Centre
#                                CCDC 
#
#######################################################################
#
# If this CIF has been generated from an entry in the Cambridge 
# Structural Database, then it will include bibliographic, chemical, 
# crystal, experimental, refinement or atomic coordinate data resulting 
# from the CCDC's data processing and validation procedures.
#
#######################################################################

data_ZURYIW
_chemical_formula_moiety         'C28 H29 N5 O4'
_chemical_name_systematic        
2,2',2'',2'''-((4-Nitro-1,2-phenylene)bis(oxypropane-1,2,2-triyl))tetrakis(1H-pyrrole)
_symmetry_cell_setting           triclinic
_symmetry_space_group_name_H-M   'P -1'
_symmetry_Int_Tables_number      2
_space_group_name_Hall           '-P 1'
loop_
_symmetry_equiv_pos_site_id
_symmetry_equiv_pos_as_xyz
1 x,y,z
2 -x,-y,-z
_cell_length_a                   7.7823(8)
_cell_length_b                   10.8987(12)
_cell_length_c                   15.2414(18)
_cell_angle_alpha                72.781(10)
_cell_angle_beta                 83.016(9)
_cell_angle_gamma                85.094(9)
_cell_volume                     1223.95
_exptl_crystal_colour            colorless
_exptl_crystal_description       block
_cell_formula_units_Z            2
loop_
_atom_site_label
_atom_site_type_symbol
_atom_site_fract_x
_atom_site_fract_y
_atom_site_fract_z
O1 O 0.2192(3) 0.0832(2) 0.12148(14)
O2 O 0.1459(3) 0.2649(2) 0.18818(15)
N1 N 0.0952(5) 0.1817(3) 0.4769(2)
N2 N 0.2125(4) -0.0605(3) 0.2984(2)
C1 C 0.2495(4) 0.1975(4) 0.0609(2)
C2 C 0.2102(4) 0.3007(4) 0.0983(2)
N3 N -0.1814(4) -0.1656(4) 0.2341(2)
C3 C -0.1131(4) 0.4009(3) 0.3575(2)
C4 C 0.1957(4) -0.1566(4) 0.2599(2)
C5 C -0.0106(4) 0.2975(3) 0.3248(2)
C6 C 0.2388(5) 0.4234(4) 0.0452(2)
H1 H 0.2114 0.4931 0.0686
C7 C 0.3457(5) 0.3432(4) -0.0835(2)
H2 H 0.3905 0.3595 -0.1451
C8 C 0.1302(4) 0.2414(3) 0.3853(2)
C9 C 0.2234(5) -0.0296(4) 0.0934(2)
H3 H 0.3425 -0.0611 0.0834
H4 H 0.1711 -0.0112 0.0360
C10 C 0.3145(4) 0.2201(4) -0.0301(2)
H5 H 0.3373 0.1519 -0.0556
C11 C 0.2415(4) -0.2682(4) 0.3221(2)
H6 H 0.2421 -0.3499 0.3147
C12 C 0.2704(4) -0.1107(4) 0.3818(2)
H7 H 0.2944 -0.0641 0.4207
N4 N 0.3510(5) 0.5702(4) -0.1004(3)
C13 C -0.0635(4) -0.0850(4) 0.1774(2)
C14 C 0.0675(5) 0.3618(3) 0.2272(2)
H8 H -0.0222 0.4106 0.1904
H9 H 0.1535 0.4205 0.2284
C15 C -0.1507(5) 0.0270(4) 0.1400(2)
H10 H -0.1032 0.0998 0.0983
C16 C 0.3100(5) 0.4398(4) -0.0449(2)
C17 C 0.1239(4) -0.1305(3) 0.1685(2)
N5 N -0.2844(5) 0.4302(4) 0.3483(3)
O3 O 0.4390(4) 0.5835(3) -0.17436(19)
C18 C -0.1305(4) 0.1926(4) 0.3243(2)
H11 H -0.0635 0.1260 0.3042
H12 H -0.2172 0.2296 0.2829
H13 H -0.1857 0.1569 0.3855
C19 C 0.2453(5) 0.1409(4) 0.5159(3)
H14 H 0.2547 0.0995 0.5781
C20 C 0.2881(4) -0.2396(4) 0.3998(2)
H15 H 0.3242 -0.2981 0.4532
C21 C -0.0574(5) 0.4826(4) 0.3978(2)
H16 H 0.0549 0.4846 0.4122
C22 C 0.3035(5) 0.2337(4) 0.3679(3)
H17 H 0.3658 0.2654 0.3105
O4 O 0.2972(6) 0.6585(4) -0.0700(2)
C23 C 0.1411(5) -0.2520(4) 0.1369(3)
H18 H 0.0821 -0.3197 0.1830
H19 H 0.2615 -0.2778 0.1281
H20 H 0.0906 -0.2348 0.0798
C24 C 0.3753(5) 0.1698(4) 0.4508(3)
H21 H 0.4925 0.1514 0.4582
C25 C -0.3404(5) -0.1039(4) 0.2325(3)
H22 H -0.4421 -0.1383 0.2658
C26 C -0.3260(5) 0.0147(4) 0.1752(3)
H23 H -0.4153 0.0775 0.1611
C27 C -0.3325(7) 0.5328(5) 0.3842(3)
H24 H -0.4429 0.5725 0.3864
C28 C -0.1990(8) 0.5639(5) 0.4140(3)
H25 H -0.1973 0.6293 0.4416
H26 H 0.195(5) 0.019(4) 0.270(3)
H27 H -0.005(5) 0.185(4) 0.505(2)
H28 H -0.157(5) -0.239(4) 0.274(3)
H29 H -0.347(8) 0.399(7) 0.314(4)
loop_
_geom_bond_atom_site_label_1
_geom_bond_atom_site_label_2
_geom_bond_site_symmetry_1
_geom_bond_site_symmetry_2
O1 C1 1_555 1_555
O2 C2 1_555 1_555
N1 C8 1_555 1_555
N2 C4 1_555 1_555
C1 C2 1_555 1_555
C2 C6 1_555 1_555
N3 C13 1_555 1_555
C3 C5 1_555 1_555
C4 C11 1_555 1_555
C5 C8 1_555 1_555
C6 H1 1_555 1_555
C7 H2 1_555 1_555
C8 C22 1_555 1_555
C9 O1 1_555 1_555
H3 C9 1_555 1_555
H4 C9 1_555 1_555
C10 C1 1_555 1_555
H5 C10 1_555 1_555
C11 H6 1_555 1_555
C12 N2 1_555 1_555
H7 C12 1_555 1_555
N4 C16 1_555 1_555
C13 C15 1_555 1_555
C14 O2 1_555 1_555
H8 C14 1_555 1_555
H9 C14 1_555 1_555
C15 H10 1_555 1_555
C16 C6 1_555 1_555
C17 C4 1_555 1_555
N5 C3 1_555 1_555
O3 N4 1_555 1_555
C18 C5 1_555 1_555
H11 C18 1_555 1_555
H12 C18 1_555 1_555
H13 C18 1_555 1_555
C19 N1 1_555 1_555
H14 C19 1_555 1_555
C20 C11 1_555 1_555
H15 C20 1_555 1_555
C21 C3 1_555 1_555
H16 C21 1_555 1_555
C22 H17 1_555 1_555
O4 N4 1_555 1_555
C23 C17 1_555 1_555
H18 C23 1_555 1_555
H19 C23 1_555 1_555
H20 C23 1_555 1_555
C24 C19 1_555 1_555
H21 C24 1_555 1_555
C25 N3 1_555 1_555
H22 C25 1_555 1_555
C26 C15 1_555 1_555
H23 C26 1_555 1_555
C27 N5 1_555 1_555
H24 C27 1_555 1_555
C28 C21 1_555 1_555
H25 C28 1_555 1_555
H26 N2 1_555 1_555
H27 N1 1_555 1_555
H28 N3 1_555 1_555
H29 N5 1_555 1_555
C5 C14 1_555 1_555
C7 C10 1_555 1_555
C7 C16 1_555 1_555
C9 C17 1_555 1_555
C12 C20 1_555 1_555
C13 C17 1_555 1_555
C22 C24 1_555 1_555
C25 C26 1_555 1_555
C27 C28 1_555 1_555

#END
