
#######################################################################
#
#                 Cambridge Crystallographic Data Centre
#                                CCDC 
#
#######################################################################
#
# If this CIF has been generated from an entry in the Cambridge 
# Structural Database, then it will include bibliographic, chemical, 
# crystal, experimental, refinement or atomic coordinate data resulting 
# from the CCDC's data processing and validation procedures.
#
#######################################################################

data_ZURZIX
_chemical_formula_moiety         'C16 H24 O5,H2 O1'
_chemical_name_systematic        
'3-Hydroxy-8-(hydroxymethyl)-13-methoxy-5,5-dimethyl-10-oxabicyclo[7.2.2]trideca-1(12),7-dien-4-one monohydrate'
_symmetry_cell_setting           monoclinic
_symmetry_space_group_name_H-M   'P 21'
_symmetry_Int_Tables_number      4
_space_group_name_Hall           'P 2yb'
loop_
_symmetry_equiv_pos_site_id
_symmetry_equiv_pos_as_xyz
1 x,y,z
2 -x,1/2+y,-z
_cell_length_a                   6.5502(13)
_cell_length_b                   13.639(3)
_cell_length_c                   9.1291(18)
_cell_angle_alpha                90
_cell_angle_beta                 91.21(3)
_cell_angle_gamma                90
_cell_volume                     815.395
_exptl_crystal_colour            colorless
_exptl_crystal_description       plate
_cell_formula_units_Z            2
loop_
_atom_site_label
_atom_site_type_symbol
_atom_site_fract_x
_atom_site_fract_y
_atom_site_fract_z
C1 C 0.1445(4) 0.39981(19) 0.3224(3)
C2 C 0.3171(4) 0.3409(2) 0.2569(3)
H1 H 0.3368 0.3627 0.1547
H2 H 0.4450 0.3545 0.3130
O1 O 0.2795(3) 0.23751(15) 0.2577(2)
H3 H 0.1723 0.2254 0.2090
C3 C 0.0974(4) 0.39327(19) 0.4647(3)
H4 H -0.0250 0.4244 0.4938
C4 C 0.2191(4) 0.3418(2) 0.5809(3)
H5 H 0.3432 0.3137 0.5372
H6 H 0.1375 0.2869 0.6198
C5 C 0.2833(4) 0.4113(2) 0.7097(3)
C6 C 0.0996(5) 0.4313(2) 0.8076(3)
H7 H 0.1388 0.4786 0.8839
H8 H 0.0563 0.3699 0.8535
H9 H -0.0134 0.4580 0.7480
C7 C 0.4520(5) 0.3602(2) 0.7997(3)
H10 H 0.4827 0.3985 0.8882
H11 H 0.5751 0.3549 0.7410
H12 H 0.4063 0.2945 0.8274
C8 C 0.3723(4) 0.5060(2) 0.6407(3)
O2 O 0.5318(3) 0.50307(15) 0.5772(2)
C9 C 0.2631(4) 0.6051(2) 0.6616(3)
H13 H 0.1161 0.5918 0.6813
O3 O 0.3532(3) 0.64968(14) 0.7893(2)
H14 H 0.4700 0.6707 0.7696
C10 C 0.2737(4) 0.6713(2) 0.5259(3)
H15 H 0.2094 0.7354 0.5468
H16 H 0.4182 0.6832 0.5016
C11 C 0.1640(4) 0.62315(18) 0.3967(3)
C12 C -0.0339(4) 0.6020(2) 0.3953(3)
H17 H -0.1191 0.6284 0.4684
C13 C -0.1234(4) 0.5364(2) 0.2784(3)
H18 H -0.2318 0.4943 0.3215
O4 O -0.2128(3) 0.59765(16) 0.1662(2)
C14 C -0.3224(4) 0.5453(3) 0.0549(3)
H19 H -0.4135 0.5903 0.0014
H20 H -0.4032 0.4933 0.0998
H21 H -0.2258 0.5161 -0.0131
C15 C 0.0439(4) 0.4712(2) 0.2160(3)
H22 H -0.0158 0.4332 0.1318
O5 O 0.1981(3) 0.53720(14) 0.1605(2)
C16 C 0.3008(4) 0.5894(2) 0.2758(3)
H23 H 0.3686 0.6475 0.2336
H24 H 0.4086 0.5467 0.3188
O6 O 0.9793(4) 0.21476(17) 0.0450(2)
H25 H 0.999(6) 0.169(3) -0.015(4)
H26 H 0.857(6) 0.193(4) 0.077(5)
loop_
_geom_bond_atom_site_label_1
_geom_bond_atom_site_label_2
_geom_bond_site_symmetry_1
_geom_bond_site_symmetry_2
C1 C2 1_555 1_555
C2 H1 1_555 1_555
H2 C2 1_555 1_555
O1 C2 1_555 1_555
H3 O1 1_555 1_555
C3 C1 1_555 1_555
H4 C3 1_555 1_555
C4 C3 1_555 1_555
H5 C4 1_555 1_555
H6 C4 1_555 1_555
C5 C4 1_555 1_555
C6 C5 1_555 1_555
H7 C6 1_555 1_555
H8 C6 1_555 1_555
H9 C6 1_555 1_555
C7 C5 1_555 1_555
H10 C7 1_555 1_555
H11 C7 1_555 1_555
H12 C7 1_555 1_555
C8 C5 1_555 1_555
O2 C8 1_555 1_555
C9 C8 1_555 1_555
H13 C9 1_555 1_555
O3 C9 1_555 1_555
H14 O3 1_555 1_555
C10 C9 1_555 1_555
H15 C10 1_555 1_555
H16 C10 1_555 1_555
C11 C10 1_555 1_555
C12 C11 1_555 1_555
H17 C12 1_555 1_555
C13 C12 1_555 1_555
H18 C13 1_555 1_555
O4 C13 1_555 1_555
C14 O4 1_555 1_555
H19 C14 1_555 1_555
H20 C14 1_555 1_555
H21 C14 1_555 1_555
C15 C1 1_555 1_555
H22 C15 1_555 1_555
O5 C15 1_555 1_555
C16 C11 1_555 1_555
H23 C16 1_555 1_555
H24 C16 1_555 1_555
O6 H25 1_555 1_555
H26 O6 1_555 1_555
C13 C15 1_555 1_555
O5 C16 1_555 1_555

#END
