
#######################################################################
#
#                 Cambridge Crystallographic Data Centre
#                                CCDC 
#
#######################################################################
#
# If this CIF has been generated from an entry in the Cambridge 
# Structural Database, then it will include bibliographic, chemical, 
# crystal, experimental, refinement or atomic coordinate data resulting 
# from the CCDC's data processing and validation procedures.
#
#######################################################################

data_ZUSCUN
_chemical_formula_moiety         'C17 H17 Br1 O5'
_chemical_name_systematic        
'Methyl 15-bromo-11-methyl-13-oxo-10,14-dioxatetracyclo[9.3.1.1^9,12^.0^2,7^]hexadeca-2,4,6-triene-12-carboxylate'
_symmetry_cell_setting           orthorhombic
_symmetry_space_group_name_H-M   'P b c a'
_symmetry_Int_Tables_number      61
_space_group_name_Hall           '-P 2ac 2ab'
loop_
_symmetry_equiv_pos_site_id
_symmetry_equiv_pos_as_xyz
1 x,y,z
2 1/2-x,-y,1/2+z
3 -x,1/2+y,1/2-z
4 1/2+x,1/2-y,-z
5 -x,-y,-z
6 1/2+x,y,1/2-z
7 x,1/2-y,1/2+z
8 1/2-x,1/2+y,z
_cell_length_a                   11.480(2)
_cell_length_b                   10.279(2)
_cell_length_c                   26.181(5)
_cell_angle_alpha                90
_cell_angle_beta                 90
_cell_angle_gamma                90
_cell_volume                     3089.43
_cell_formula_units_Z            8
loop_
_atom_site_label
_atom_site_type_symbol
_atom_site_fract_x
_atom_site_fract_y
_atom_site_fract_z
Br1 Br 0.137646(19) 0.19638(2) 0.649460(10)
O1 O 0.46523(15) 0.36854(16) 0.64377(6)
O2 O 0.61921(14) 0.34892(18) 0.59514(7)
O3 O 0.41583(16) 0.33308(17) 0.51381(7)
O4 O 0.53478(17) 0.17071(17) 0.49002(7)
O5 O 0.36707(12) 0.04034(16) 0.63062(7)
C1 C 0.3529(2) 0.3236(2) 0.66352(11)
H1 H 0.3079 0.4045 0.6712
C2 C 0.36616(19) 0.2542(3) 0.71452(10)
C3 C 0.2999(2) 0.3054(2) 0.75414(11)
H2 H 0.2539 0.3806 0.7480
C4 C 0.2991(2) 0.2492(3) 0.80286(11)
H3 H 0.2553 0.2876 0.8297
C5 C 0.3625(2) 0.1374(3) 0.81137(11)
H4 H 0.3588 0.0946 0.8435
C6 C 0.4317(2) 0.0880(3) 0.77251(10)
H5 H 0.4762 0.0117 0.7788
C7 C 0.4384(2) 0.1462(2) 0.72446(10)
C8 C 0.5308(2) 0.0970(2) 0.68801(10)
H6 H 0.5841 0.0396 0.7074
H7 H 0.5770 0.1727 0.6763
C9 C 0.4890(2) 0.0219(2) 0.64037(10)
H8 H 0.5051 -0.0729 0.6451
C10 C 0.5470(2) 0.0687(2) 0.59136(10)
H9 H 0.5416 0.0025 0.5640
H10 H 0.6299 0.0911 0.5971
C11 C 0.4743(2) 0.1899(2) 0.57867(9)
C12 C 0.5243(2) 0.3082(2) 0.60646(9)
C13 C 0.3489(2) 0.1442(2) 0.59457(9)
C14 C 0.28535(19) 0.2558(2) 0.62048(9)
H11 H 0.2673 0.3225 0.5938
C15 C 0.2797(2) 0.0880(2) 0.54973(10)
H12 H 0.3273 0.0234 0.5318
H13 H 0.2588 0.1582 0.5261
H14 H 0.2087 0.0465 0.5626
C16 C 0.4806(2) 0.2266(2) 0.52228(9)
C17 C 0.4063(3) 0.3733(3) 0.46094(10)
H15 H 0.4841 0.3913 0.4473
H16 H 0.3585 0.4521 0.4588
H17 H 0.3698 0.3037 0.4410
loop_
_geom_bond_atom_site_label_1
_geom_bond_atom_site_label_2
_geom_bond_site_symmetry_1
_geom_bond_site_symmetry_2
Br1 C14 1_555 1_555
O1 C1 1_555 1_555
O2 C12 1_555 1_555
O3 C16 1_555 1_555
O4 C16 1_555 1_555
O5 C9 1_555 1_555
C1 H1 1_555 1_555
C2 C1 1_555 1_555
C3 C2 1_555 1_555
H2 C3 1_555 1_555
C4 C3 1_555 1_555
H3 C4 1_555 1_555
C5 C4 1_555 1_555
H4 C5 1_555 1_555
C6 C5 1_555 1_555
H5 C6 1_555 1_555
C7 C2 1_555 1_555
C8 C7 1_555 1_555
H6 C8 1_555 1_555
H7 C8 1_555 1_555
C9 C8 1_555 1_555
H8 C9 1_555 1_555
C10 C9 1_555 1_555
H9 C10 1_555 1_555
H10 C10 1_555 1_555
C11 C10 1_555 1_555
C12 O1 1_555 1_555
C13 O5 1_555 1_555
C14 C1 1_555 1_555
H11 C14 1_555 1_555
C15 C13 1_555 1_555
H12 C15 1_555 1_555
H13 C15 1_555 1_555
H14 C15 1_555 1_555
C16 C11 1_555 1_555
C17 O3 1_555 1_555
H15 C17 1_555 1_555
H16 C17 1_555 1_555
H17 C17 1_555 1_555
C6 C7 1_555 1_555
C11 C12 1_555 1_555
C11 C13 1_555 1_555
C13 C14 1_555 1_555

#END
