
#######################################################################
#
#                 Cambridge Crystallographic Data Centre
#                                CCDC 
#
#######################################################################
#
# If this CIF has been generated from an entry in the Cambridge 
# Structural Database, then it will include bibliographic, chemical, 
# crystal, experimental, refinement or atomic coordinate data resulting 
# from the CCDC's data processing and validation procedures.
#
#######################################################################

data_ZUSCEX
_chemical_formula_moiety         'C16 H16 N2 O3,0.5(C1 H1 Cl3)'
_chemical_name_systematic        
"12'-Methyl-2H-spiro[pyrimidine-5,9'-tricyclo[6.2.2.0^2,7^]dodeca[2,4,6]triene]-2,4,6(1H,3H)-trione chloroform solvate"
_symmetry_cell_setting           monoclinic
_symmetry_space_group_name_H-M   'P 21/c'
_symmetry_Int_Tables_number      14
_space_group_name_Hall           '-P 2ybc'
loop_
_symmetry_equiv_pos_site_id
_symmetry_equiv_pos_as_xyz
1 x,y,z
2 -x,1/2+y,1/2-z
3 -x,-y,-z
4 x,1/2-y,1/2+z
_cell_length_a                   16.298(3)
_cell_length_b                   11.852(2)
_cell_length_c                   9.939(2)
_cell_angle_alpha                90
_cell_angle_beta                 90.99(3)
_cell_angle_gamma                90
_cell_volume                     1919.57
_exptl_crystal_colour            colorless
_exptl_crystal_description       Slice
_cell_formula_units_Z            4
loop_
_atom_site_label
_atom_site_type_symbol
_atom_site_fract_x
_atom_site_fract_y
_atom_site_fract_z
O1 O 0.9049(2) 0.7268(3) 0.1729(4)
O2 O 1.0844(2) 0.9255(3) 0.4340(4)
O3 O 0.9561(2) 1.1024(3) 0.0839(3)
N1 N 0.9911(3) 0.8247(3) 0.3092(4)
N2 N 1.0191(2) 1.0162(3) 0.2612(4)
C1 C 0.7096(4) 0.9159(6) 0.4163(7)
H1 H 0.7417 0.9208 0.4980
H2 H 0.6672 0.8606 0.4267
H3 H 0.6853 0.9880 0.3970
C2 C 0.7649(3) 0.8815(4) 0.3004(5)
H4 H 0.7919 0.8104 0.3249
C3 C 0.7184(4) 0.8636(6) 0.1645(6)
H5 H 0.7247 0.7860 0.1355
H6 H 0.6603 0.8780 0.1761
C4 C 0.7526(3) 0.9445(4) 0.0553(5)
H7 H 0.7205 0.9383 -0.0286
C5 C 0.7475(3) 1.0646(4) 0.1128(5)
C6 C 0.7045(4) 1.1569(6) 0.0554(6)
H8 H 0.6719 1.1471 -0.0214
C7 C 0.7117(5) 1.2619(6) 0.1154(7)
H9 H 0.6842 1.3233 0.0779
C8 C 0.7596(5) 1.2764(5) 0.2311(7)
H10 H 0.7647 1.3478 0.2693
C9 C 0.8001(4) 1.1847(4) 0.2906(6)
H11 H 0.8310 1.1938 0.3695
C10 C 0.7935(3) 1.0801(4) 0.2299(5)
C11 C 0.8321(3) 0.9716(4) 0.2811(5)
H12 H 0.8623 0.9849 0.3658
C12 C 0.8941(3) 0.9311(3) 0.1642(4)
C13 C 0.8416(3) 0.9204(4) 0.0314(5)
H13 H 0.8621 0.9730 -0.0349
H14 H 0.8472 0.8448 -0.0045
C14 C 0.9303(3) 0.8185(4) 0.2116(5)
C15 C 1.0349(3) 0.9229(4) 0.3428(5)
C16 C 0.9586(3) 1.0214(4) 0.1617(4)
Cl1 Cl 0.5376(8) 0.3323(11) 0.8598(11)
Cl2 Cl 0.4482(8) 0.3285(9) 0.6236(12)
Cl3 Cl 0.4716(6) 0.5502(6) 0.7669(14)
C17 C 0.5075(6) 0.4178(6) 0.7273(8)
Cl4? Cl 0.5062(8) 0.3470(14) 0.8851(12)
Cl5? Cl 0.4667(7) 0.3638(12) 0.5769(10)
Cl6? Cl 0.4328(10) 0.5183(12) 0.7746(17)
loop_
_geom_bond_atom_site_label_1
_geom_bond_atom_site_label_2
_geom_bond_site_symmetry_1
_geom_bond_site_symmetry_2
O1 C14 1_555 1_555
O2 C15 1_555 1_555
O3 C16 1_555 1_555
N1 C14 1_555 1_555
N2 C15 1_555 1_555
C1 H1 1_555 1_555
H2 C1 1_555 1_555
H3 C1 1_555 1_555
C2 C1 1_555 1_555
H4 C2 1_555 1_555
C3 C2 1_555 1_555
H5 C3 1_555 1_555
H6 C3 1_555 1_555
C4 C3 1_555 1_555
H7 C4 1_555 1_555
C5 C4 1_555 1_555
C6 C5 1_555 1_555
H8 C6 1_555 1_555
C7 C6 1_555 1_555
H9 C7 1_555 1_555
C8 C7 1_555 1_555
H10 C8 1_555 1_555
C9 C8 1_555 1_555
H11 C9 1_555 1_555
C10 C5 1_555 1_555
C11 C2 1_555 1_555
H12 C11 1_555 1_555
C12 C11 1_555 1_555
C13 C4 1_555 1_555
H13 C13 1_555 1_555
H14 C13 1_555 1_555
C14 C12 1_555 1_555
C15 N1 1_555 1_555
C16 N2 1_555 1_555
Cl1 C17 1_555 1_555
Cl2 C17 1_555 1_555
Cl3 C17 1_555 1_555
C9 C10 1_555 1_555
C10 C11 1_555 1_555
C12 C13 1_555 1_555
C12 C16 1_555 1_555

#END
