
#######################################################################
#
#                 Cambridge Crystallographic Data Centre
#                                CCDC 
#
#######################################################################
#
# If this CIF has been generated from an entry in the Cambridge 
# Structural Database, then it will include bibliographic, chemical, 
# crystal, experimental, refinement or atomic coordinate data resulting 
# from the CCDC's data processing and validation procedures.
#
#######################################################################

data_ZUSCIB
_chemical_formula_moiety         'C23 H24 O4'
_chemical_name_systematic        
'Dimethyl 12-benzyltricyclo[6.2.2.0^2,7^]dodeca-2,4,6-triene-9,9-dicarboxylate'
_symmetry_cell_setting           monoclinic
_symmetry_space_group_name_H-M   'P 21/c'
_symmetry_Int_Tables_number      14
_space_group_name_Hall           '-P 2ybc'
loop_
_symmetry_equiv_pos_site_id
_symmetry_equiv_pos_as_xyz
1 x,y,z
2 -x,1/2+y,1/2-z
3 -x,-y,-z
4 x,1/2-y,1/2+z
_cell_length_a                   8.7590(18)
_cell_length_b                   21.523(4)
_cell_length_c                   10.067(2)
_cell_angle_alpha                90
_cell_angle_beta                 104.55(3)
_cell_angle_gamma                90
_cell_volume                     1836.96
_exptl_crystal_colour            colorless
_exptl_crystal_description       block
_cell_formula_units_Z            4
loop_
_atom_site_label
_atom_site_type_symbol
_atom_site_fract_x
_atom_site_fract_y
_atom_site_fract_z
O1 O 0.01252(13) 0.59977(6) 0.61882(12)
O2 O 0.04375(14) 0.50472(6) 0.71407(12)
O3 O 0.25054(14) 0.53577(6) 1.03171(12)
O4 O 0.09006(13) 0.61496(6) 0.94208(11)
C1 C 0.37300(19) 0.52743(8) 0.79209(18)
H1 H 0.4146 0.5073 0.8823
H2 H 0.3247 0.4949 0.7251
C2 C 0.24633(18) 0.57624(8) 0.80305(16)
C3 C 0.30822(19) 0.64192(8) 0.77791(16)
H3 H 0.2301 0.6747 0.7860
C4 C 0.33310(19) 0.64095(8) 0.63468(16)
C5 C 0.2620(2) 0.67970(8) 0.52763(17)
H4 H 0.1895 0.7106 0.5404
C6 C 0.2970(2) 0.67324(9) 0.40131(17)
H5 H 0.2484 0.6997 0.3273
C7 C 0.4030(2) 0.62816(9) 0.38317(18)
H6 H 0.4260 0.6238 0.2963
C8 C 0.4756(2) 0.58942(9) 0.49052(17)
H7 H 0.5486 0.5588 0.4776
C9 C 0.44094(19) 0.59576(8) 0.61729(17)
C10 C 0.50899(19) 0.55902(8) 0.74591(17)
H8 H 0.5857 0.5274 0.7294
C11 C 0.5906(2) 0.60480(8) 0.85831(17)
H9 H 0.6821 0.6240 0.8331
H10 H 0.6298 0.5823 0.9460
C12 C 0.47281(19) 0.65609(8) 0.87614(17)
H11 H 0.5104 0.6959 0.8440
C13 C 0.4712(2) 0.66564(9) 1.02611(17)
H12 H 0.3837 0.6941 1.0302
H13 H 0.4505 0.6253 1.0653
C14 C 0.6246(2) 0.69223(8) 1.11331(18)
C15 C 0.6743(2) 0.75157(9) 1.09010(19)
H14 H 0.6150 0.7751 1.0148
C16 C 0.8090(2) 0.77705(9) 1.1750(2)
H15 H 0.8416 0.8177 1.1579
C17 C 0.8958(2) 0.74322(9) 1.28455(19)
H16 H 0.9872 0.7609 1.3441
C18 C 0.8498(2) 0.68388(9) 1.30740(18)
H17 H 0.9099 0.6602 1.3821
C19 C 0.7163(2) 0.65889(8) 1.22156(18)
H18 H 0.6864 0.6176 1.2372
C20 C 0.08865(19) 0.56351(8) 0.69934(17)
C21 C -0.1118(2) 0.48713(9) 0.6343(2)
H19 H -0.1893 0.4956 0.6872
H20 H -0.1129 0.4427 0.6127
H21 H -0.1386 0.5112 0.5488
C22 C 0.20096(19) 0.57233(8) 0.94066(17)
C23 C 0.0234(2) 0.61431(10) 1.06001(17)
H22 H -0.0309 0.5747 1.0631
H23 H -0.0520 0.6486 1.0526
H24 H 0.1079 0.6192 1.1440
loop_
_geom_bond_atom_site_label_1
_geom_bond_atom_site_label_2
_geom_bond_site_symmetry_1
_geom_bond_site_symmetry_2
O1 C20 1_555 1_555
O2 C20 1_555 1_555
O3 C22 1_555 1_555
O4 C22 1_555 1_555
C1 H1 1_555 1_555
H2 C1 1_555 1_555
C2 C1 1_555 1_555
C3 C2 1_555 1_555
H3 C3 1_555 1_555
C4 C3 1_555 1_555
C5 C4 1_555 1_555
H4 C5 1_555 1_555
C6 C5 1_555 1_555
H5 C6 1_555 1_555
C7 C6 1_555 1_555
H6 C7 1_555 1_555
C8 C7 1_555 1_555
H7 C8 1_555 1_555
C9 C4 1_555 1_555
C10 C1 1_555 1_555
H8 C10 1_555 1_555
C11 C10 1_555 1_555
H9 C11 1_555 1_555
H10 C11 1_555 1_555
C12 C3 1_555 1_555
H11 C12 1_555 1_555
C13 C12 1_555 1_555
H12 C13 1_555 1_555
H13 C13 1_555 1_555
C14 C13 1_555 1_555
C15 C14 1_555 1_555
H14 C15 1_555 1_555
C16 C15 1_555 1_555
H15 C16 1_555 1_555
C17 C16 1_555 1_555
H16 C17 1_555 1_555
C18 C17 1_555 1_555
H17 C18 1_555 1_555
C19 C14 1_555 1_555
H18 C19 1_555 1_555
C20 C2 1_555 1_555
C21 O2 1_555 1_555
H19 C21 1_555 1_555
H20 C21 1_555 1_555
H21 C21 1_555 1_555
C22 C2 1_555 1_555
C23 O4 1_555 1_555
H22 C23 1_555 1_555
H23 C23 1_555 1_555
H24 C23 1_555 1_555
C8 C9 1_555 1_555
C9 C10 1_555 1_555
C11 C12 1_555 1_555
C18 C19 1_555 1_555

#END
