
#######################################################################
#
#                 Cambridge Crystallographic Data Centre
#                                CCDC 
#
#######################################################################
#
# If this CIF has been generated from an entry in the Cambridge 
# Structural Database, then it will include bibliographic, chemical, 
# crystal, experimental, refinement or atomic coordinate data resulting 
# from the CCDC's data processing and validation procedures.
#
#######################################################################

data_ZUSDAU
_chemical_formula_moiety         'C22 H32 N4 O8,H2 O1'
_chemical_name_systematic        
'2,11-bis(5-hydroxy-3-methylpent-2-enoyl)-1,10-dioxa-2,7,11,15-tetraazadispiro[5.2.5.2]hexadecane-8,16-dione monohydrate'
_symmetry_cell_setting           triclinic
_symmetry_space_group_name_H-M   'P -1'
_symmetry_Int_Tables_number      2
_space_group_name_Hall           '-P 1'
loop_
_symmetry_equiv_pos_site_id
_symmetry_equiv_pos_as_xyz
1 x,y,z
2 -x,-y,-z
_cell_length_a                   9.7492(19)
_cell_length_b                   10.793(2)
_cell_length_c                   12.316(3)
_cell_angle_alpha                106.75(3)
_cell_angle_beta                 97.22(3)
_cell_angle_gamma                95.45(3)
_cell_volume                     1219.31
_cell_formula_units_Z            2
loop_
_atom_site_label
_atom_site_type_symbol
_atom_site_fract_x
_atom_site_fract_y
_atom_site_fract_z
C1 C 0.4201(9) 0.7629(13) 1.0597(18)
H1 H 0.4373 0.6812 1.0735
H2 H 0.4281 0.7545 0.9803
C2 C 0.529(2) 0.8715(10) 1.1373(10)
H3 H 0.5307 0.8698 1.2158
H4 H 0.6196 0.8552 1.1166
O1 O 0.5055(5) 1.0024(5) 1.1325(4)
H5 H 0.4810 0.9996 1.0655
C3 C -0.0444(2) 0.55675(19) 0.66138(16)
C4 C 0.15130(19) 0.46606(19) 0.74515(16)
C5 C 0.2020(2) 0.3330(2) 0.71194(18)
H6 H 0.2486 0.3178 0.7804
H7 H 0.1222 0.2656 0.6795
C6 C 0.3019(2) 0.3227(2) 0.62544(18)
H8 H 0.3431 0.2426 0.6159
H9 H 0.2513 0.3199 0.5516
C7 C 0.4158(2) 0.4386(2) 0.66644(19)
H10 H 0.4758 0.4341 0.7339
H11 H 0.4724 0.4376 0.6068
C8 C 0.3643(2) 0.6538(2) 0.64388(18)
C9 C 0.2788(2) 0.7596(2) 0.67670(18)
H12 H 0.2499 0.7751 0.7480
C10 C 0.2393(2) 0.8345(2) 0.61396(19)
C11 C 0.1520(2) 0.9398(2) 0.6596(2)
H13 H 0.1608 0.9587 0.7423
H14 H 0.1876 1.0188 0.6439
C12 C 0.0000(2) 0.9026(2) 0.6079(2)
H15 H -0.0087 0.8851 0.5253
H16 H -0.0349 0.8225 0.6222
C13 C 0.2703(4) 0.8204(4) 0.4953(2)
H17 H 0.3444 0.8873 0.4984
H18 H 0.1883 0.8289 0.4474
H19 H 0.2982 0.7361 0.4639
C14 C 0.0848(2) 0.48708(19) 0.85443(16)
C15 C -0.0844(2) 0.6113(2) 0.78053(16)
C16 C -0.2418(2) 0.6082(2) 0.77092(18)
H20 H -0.2756 0.6377 0.7064
H21 H -0.2849 0.5188 0.7554
C17 C -0.2861(2) 0.6930(3) 0.8787(2)
H22 H -0.3847 0.7002 0.8637
H23 H -0.2714 0.6534 0.9398
C18 C -0.2017(3) 0.8272(3) 0.9150(2)
H24 H -0.2270 0.8722 0.8593
H25 H -0.2211 0.8782 0.9889
C19 C 0.0384(2) 0.8412(2) 1.02037(18)
C20 C 0.1829(2) 0.8202(2) 1.00675(19)
H26 H 0.2131 0.8310 0.9410
C21 C 0.2740(2) 0.7874(2) 1.0792(2)
C22 C 0.2402(3) 0.7586(3) 1.1850(3)
H27 H 0.2818 0.8302 1.2513
H28 H 0.2764 0.6804 1.1900
H29 H 0.1408 0.7467 1.1819
N1 N 0.05816(17) 0.48244(16) 0.65189(13)
H30 H 0.0694 0.4405 0.5835
N2 N -0.03092(16) 0.54418(16) 0.85833(13)
H31 H -0.0776 0.5404 0.9123
N3 N 0.35303(18) 0.55789(17) 0.69413(15)
N4 N -0.05465(19) 0.81383(18) 0.92306(15)
O2 O -0.10878(15) 0.57937(15) 0.57957(11)
O3 O 0.13647(15) 0.44876(16) 0.93203(12)
O4 O 0.27059(13) 0.56856(13) 0.78180(11)
O5 O 0.44786(19) 0.64901(17) 0.57605(15)
O6 O -0.0840(2) 0.99966(19) 0.65157(15)
H32 H -0.0627 1.0282 0.7217
O7 O -0.01668(14) 0.74678(13) 0.81728(11)
O8 O -0.00108(18) 0.88769(19) 1.11282(13)
O10 O 0.6228(3) 0.9042(3) 0.6578(3)
H38 H 0.702(3) 0.913(6) 0.640(5)
H39 H 0.573(6) 0.841(7) 0.608(6)
C23? C 0.4211(12) 0.7952(16) 1.052(2)
H33? H 0.4189 0.8065 0.9769
H34? H 0.4553 0.7130 1.0495
C24? C 0.523(3) 0.9053(15) 1.1385(11)
H35? H 0.6147 0.9037 1.1159
H36? H 0.4931 0.9885 1.1385
O9? O 0.5314(6) 0.8929(6) 1.2540(5)
H37? H 0.5326 0.9650 1.3004
loop_
_geom_bond_atom_site_label_1
_geom_bond_atom_site_label_2
_geom_bond_site_symmetry_1
_geom_bond_site_symmetry_2
C1 H1 1_555 1_555
H2 C1 1_555 1_555
C2 C1 1_555 1_555
H3 C2 1_555 1_555
H4 C2 1_555 1_555
O1 C2 1_555 1_555
H5 O1 1_555 1_555
C3 C15 1_555 1_555
C4 C5 1_555 1_555
C5 H6 1_555 1_555
H7 C5 1_555 1_555
C6 C5 1_555 1_555
H8 C6 1_555 1_555
H9 C6 1_555 1_555
C7 C6 1_555 1_555
H10 C7 1_555 1_555
H11 C7 1_555 1_555
C8 C9 1_555 1_555
C9 H12 1_555 1_555
C10 C9 1_555 1_555
C11 C10 1_555 1_555
H13 C11 1_555 1_555
H14 C11 1_555 1_555
C12 C11 1_555 1_555
H15 C12 1_555 1_555
H16 C12 1_555 1_555
C13 C10 1_555 1_555
H17 C13 1_555 1_555
H18 C13 1_555 1_555
H19 C13 1_555 1_555
C14 C4 1_555 1_555
C15 C16 1_555 1_555
C16 H20 1_555 1_555
H21 C16 1_555 1_555
C17 C16 1_555 1_555
H22 C17 1_555 1_555
H23 C17 1_555 1_555
C18 C17 1_555 1_555
H24 C18 1_555 1_555
H25 C18 1_555 1_555
C19 C20 1_555 1_555
C20 H26 1_555 1_555
C21 C1 1_555 1_555
C22 C21 1_555 1_555
H27 C22 1_555 1_555
H28 C22 1_555 1_555
H29 C22 1_555 1_555
N1 C3 1_555 1_555
H30 N1 1_555 1_555
N2 C14 1_555 1_555
H31 N2 1_555 1_555
N3 C7 1_555 1_555
N4 C18 1_555 1_555
O2 C3 1_555 1_555
O3 C14 1_555 1_555
O4 C4 1_555 1_555
O5 C8 1_555 1_555
O6 C12 1_555 1_555
H32 O6 1_555 1_555
O7 C15 1_555 1_555
O8 C19 1_555 1_555
O10 H38 1_555 1_555
H39 O10 1_555 1_555
C4 N1 1_555 1_555
C8 N3 1_555 1_555
C15 N2 1_555 1_555
C19 N4 1_555 1_555
C20 C21 1_555 1_555
N3 O4 1_555 1_555
N4 O7 1_555 1_555

#END
