
#######################################################################
#
#                 Cambridge Crystallographic Data Centre
#                                CCDC 
#
#######################################################################
#
# If this CIF has been generated from an entry in the Cambridge 
# Structural Database, then it will include bibliographic, chemical, 
# crystal, experimental, refinement or atomic coordinate data resulting 
# from the CCDC's data processing and validation procedures.
#
#######################################################################

data_ZUSDIC
_chemical_formula_moiety         'C48 H36 Cl2 N4 O4 S4'
_chemical_name_systematic        
'3-(2-(3-Chlorophenyl)-2-(2-((3-(1-(3-chlorophenyl)-2-(1,1-dioxido-1,2-benzothiazol-3-yl)ethyl)-1-methyl-1H-indol-2-yl)disulfanyl)-1-methyl-1H-indol-3-yl)ethyl)-1,2-benzothiazole 1,1-dioxide unknown solvate'
_symmetry_cell_setting           orthorhombic
_symmetry_space_group_name_H-M   'P 21 21 21'
_symmetry_Int_Tables_number      19
_space_group_name_Hall           'P 2ac 2ab'
loop_
_symmetry_equiv_pos_site_id
_symmetry_equiv_pos_as_xyz
1 x,y,z
2 1/2+x,1/2-y,-z
3 -x,1/2+y,1/2-z
4 1/2-x,-y,1/2+z
_cell_length_a                   12.652(2)
_cell_length_b                   19.153(4)
_cell_length_c                   22.403(4)
_cell_angle_alpha                90
_cell_angle_beta                 90
_cell_angle_gamma                90
_cell_volume                     5428.78
_exptl_crystal_colour            colorless
_exptl_crystal_description       plate
_cell_formula_units_Z            4
loop_
_atom_site_label
_atom_site_type_symbol
_atom_site_fract_x
_atom_site_fract_y
_atom_site_fract_z
Cl1 Cl 0.8920(3) 0.70676(18) 0.29258(14)
Cl2 Cl 1.11221(14) 0.35733(10) -0.27564(8)
S1 S 0.83480(10) 0.50417(8) 0.10043(7)
S2 S 0.79767(10) 0.46112(7) 0.01735(7)
S3 S 0.93802(10) 0.81794(7) -0.01348(7)
S4 S 1.24400(12) 0.26758(8) -0.00142(15)
O1 O 0.9522(3) 0.87658(18) 0.02416(19)
O2 O 0.8384(3) 0.81077(19) -0.0439(2)
O3 O 1.2172(4) 0.2415(3) 0.0573(4)
O4 O 1.2582(4) 0.2186(2) -0.0493(4)
N1 N 0.9607(3) 0.7448(2) 0.0255(2)
N2 N 1.0174(4) 0.4304(2) 0.1155(3)
N3 N 1.1527(3) 0.3253(2) -0.0225(3)
N4 N 0.8243(3) 0.5801(2) -0.0488(2)
C1 C 1.0466(4) 0.8073(3) -0.0622(2)
C2 C 1.0804(5) 0.8490(3) -0.1062(3)
H1 H 1.0442 0.8911 -0.1155
C3 C 1.1708(4) 0.8288(3) -0.1383(3)
H2 H 1.1992 0.8578 -0.1688
C4 C 1.2178(5) 0.7648(4) -0.1240(3)
H3 H 1.2759 0.7492 -0.1473
C5 C 1.1832(4) 0.7234(3) -0.0775(2)
H4 H 1.2190 0.6816 -0.0670
C6 C 1.0956(4) 0.7449(3) -0.0471(2)
C7 C 1.0398(4) 0.7127(2) 0.0043(2)
C8 C 1.0765(4) 0.6436(2) 0.0292(2)
H5 H 1.0652 0.6071 -0.0015
H6 H 1.1535 0.6464 0.0368
C9 C 1.0224(4) 0.6213(3) 0.0857(3)
H7 H 0.9448 0.6248 0.0778
C10 C 1.0444(4) 0.6669(3) 0.1403(3)
C11 C 0.9704(6) 0.6696(4) 0.1848(4)
H8 H 0.9051 0.6460 0.1795
C12 C 0.9884(7) 0.7060(5) 0.2375(4)
C13 C 1.0784(8) 0.7480(6) 0.2429(4)
H9 H 1.0909 0.7748 0.2778
C14 C 1.1474(5) 0.7489(4) 0.1964(3)
H10 H 1.2077 0.7783 0.1986
C15 C 1.1326(5) 0.7089(3) 0.1467(3)
H11 H 1.1840 0.7099 0.1158
C16 C 1.0444(4) 0.5449(3) 0.0998(2)
C17 C 1.1459(4) 0.5136(3) 0.1123(3)
C18 C 1.2470(5) 0.5387(3) 0.1163(3)
H12 H 1.2605 0.5868 0.1096
C19 C 1.3303(5) 0.4936(3) 0.1301(4)
H13 H 1.4008 0.5102 0.1339
C20 C 1.3054(5) 0.4223(4) 0.1383(4)
H14 H 1.3616 0.3915 0.1482
C21 C 1.2074(6) 0.3946(4) 0.1330(4)
H15 H 1.1942 0.3459 0.1360
C22 C 1.1272(4) 0.4431(3) 0.1229(3)
C23 C 0.9706(4) 0.4943(3) 0.1047(3)
C24 C 0.9678(6) 0.3624(3) 0.1196(5)
H16 H 0.9933 0.3326 0.0871
H17 H 0.8910 0.3676 0.1165
H18 H 0.9856 0.3409 0.1580
C25 C 0.8625(4) 0.5154(3) -0.0328(2)
C26 C 0.9527(4) 0.4991(2) -0.0647(2)
C27 C 0.9695(4) 0.5575(3) -0.1047(2)
C28 C 1.0403(4) 0.5711(3) -0.1497(3)
H19 H 1.0940 0.5382 -0.1591
C29 C 1.0327(5) 0.6322(3) -0.1808(3)
H20 H 1.0828 0.6417 -0.2114
C30 C 0.9546(5) 0.6804(3) -0.1692(3)
H21 H 0.9525 0.7223 -0.1918
C31 C 0.8800(5) 0.6695(3) -0.1258(3)
H22 H 0.8257 0.7026 -0.1181
C32 C 0.8881(4) 0.6060(2) -0.0931(2)
C33 C 0.7336(4) 0.6173(3) -0.0250(3)
H23 H 0.6949 0.5868 0.0025
H24 H 0.6870 0.6312 -0.0578
H25 H 0.7577 0.6590 -0.0036
C34 C 1.0144(4) 0.4336(2) -0.0590(3)
H26 H 0.9851 0.4076 -0.0240
C35 C 0.9977(4) 0.3879(2) -0.1137(3)
C36 C 1.0601(4) 0.3900(3) -0.1624(3)
H27 H 1.1218 0.4182 -0.1623
C37 C 1.0346(5) 0.3506(3) -0.2136(3)
C38 C 0.9455(5) 0.3082(3) -0.2146(3)
H28 H 0.9269 0.2825 -0.2494
C39 C 0.8858(5) 0.3046(3) -0.1640(3)
H29 H 0.8284 0.2727 -0.1621
C40 C 0.9073(4) 0.3462(3) -0.1160(3)
H30 H 0.8594 0.3468 -0.0834
C41 C 1.1317(4) 0.4488(2) -0.0452(2)
H31 H 1.1642 0.4709 -0.0807
H32 H 1.1353 0.4830 -0.0121
C42 C 1.1951(4) 0.3869(3) -0.0287(3)
C43 C 1.3103(5) 0.3919(3) -0.0171(4)
C44 C 1.3766(4) 0.4505(3) -0.0207(4)
H33 H 1.3503 0.4952 -0.0315
C45 C 1.4786(5) 0.4401(3) -0.0081(4)
H34 H 1.5256 0.4787 -0.0101
C46 C 1.5194(5) 0.3748(3) 0.0078(5)
H35 H 1.5924 0.3705 0.0170
C47 C 1.4567(4) 0.3177(3) 0.0102(5)
H36 H 1.4834 0.2729 0.0206
C48 C 1.3514(5) 0.3283(3) -0.0034(5)
H37? H 0.9230 0.7307 0.0562
H38? H 1.0856 0.3156 -0.0286
loop_
_geom_bond_atom_site_label_1
_geom_bond_atom_site_label_2
_geom_bond_site_symmetry_1
_geom_bond_site_symmetry_2
Cl1 C12 1_555 1_555
Cl2 C37 1_555 1_555
S1 S2 1_555 1_555
S2 C25 1_555 1_555
S3 O1 1_555 1_555
S4 O3 1_555 1_555
O2 S3 1_555 1_555
O4 S4 1_555 1_555
N1 S3 1_555 1_555
N2 C22 1_555 1_555
N3 S4 1_555 1_555
N4 C25 1_555 1_555
C1 S3 1_555 1_555
C2 C1 1_555 1_555
H1 C2 1_555 1_555
C3 C2 1_555 1_555
H2 C3 1_555 1_555
C4 C3 1_555 1_555
H3 C4 1_555 1_555
C5 C4 1_555 1_555
H4 C5 1_555 1_555
C6 C1 1_555 1_555
C7 N1 1_555 1_555
C8 C7 1_555 1_555
H5 C8 1_555 1_555
H6 C8 1_555 1_555
C9 C8 1_555 1_555
H7 C9 1_555 1_555
C10 C9 1_555 1_555
C11 C10 1_555 1_555
H8 C11 1_555 1_555
C12 C11 1_555 1_555
C13 C12 1_555 1_555
H9 C13 1_555 1_555
C14 C13 1_555 1_555
H10 C14 1_555 1_555
C15 C10 1_555 1_555
H11 C15 1_555 1_555
C16 C9 1_555 1_555
C17 C16 1_555 1_555
C18 C17 1_555 1_555
H12 C18 1_555 1_555
C19 C18 1_555 1_555
H13 C19 1_555 1_555
C20 C19 1_555 1_555
H14 C20 1_555 1_555
C21 C20 1_555 1_555
H15 C21 1_555 1_555
C22 C17 1_555 1_555
C23 S1 1_555 1_555
C24 N2 1_555 1_555
H16 C24 1_555 1_555
H17 C24 1_555 1_555
H18 C24 1_555 1_555
C25 C26 1_555 1_555
C26 C27 1_555 1_555
C27 C28 1_555 1_555
C28 H19 1_555 1_555
C29 C28 1_555 1_555
H20 C29 1_555 1_555
C30 C29 1_555 1_555
H21 C30 1_555 1_555
C31 C30 1_555 1_555
H22 C31 1_555 1_555
C32 N4 1_555 1_555
C33 N4 1_555 1_555
H23 C33 1_555 1_555
H24 C33 1_555 1_555
H25 C33 1_555 1_555
C34 C26 1_555 1_555
H26 C34 1_555 1_555
C35 C34 1_555 1_555
C36 C35 1_555 1_555
H27 C36 1_555 1_555
C37 C36 1_555 1_555
C38 C37 1_555 1_555
H28 C38 1_555 1_555
C39 C38 1_555 1_555
H29 C39 1_555 1_555
C40 C35 1_555 1_555
H30 C40 1_555 1_555
C41 C34 1_555 1_555
H31 C41 1_555 1_555
H32 C41 1_555 1_555
C42 N3 1_555 1_555
C43 C42 1_555 1_555
C44 C43 1_555 1_555
H33 C44 1_555 1_555
C45 C44 1_555 1_555
H34 C45 1_555 1_555
C46 C45 1_555 1_555
H35 C46 1_555 1_555
C47 C46 1_555 1_555
H36 C47 1_555 1_555
C48 S4 1_555 1_555
N2 C23 1_555 1_555
C5 C6 1_555 1_555
C6 C7 1_555 1_555
C14 C15 1_555 1_555
C16 C23 1_555 1_555
C21 C22 1_555 1_555
C27 C32 1_555 1_555
C31 C32 1_555 1_555
C39 C40 1_555 1_555
C41 C42 1_555 1_555
C43 C48 1_555 1_555
C47 C48 1_555 1_555

#END
