
#######################################################################
#
#                 Cambridge Crystallographic Data Centre
#                                CCDC 
#
#######################################################################
#
# If this CIF has been generated from an entry in the Cambridge 
# Structural Database, then it will include bibliographic, chemical, 
# crystal, experimental, refinement or atomic coordinate data resulting 
# from the CCDC's data processing and validation procedures.
#
#######################################################################

data_ZUSFIE
_chemical_formula_moiety         'C15 H18 Cl1 N1 O2'
_chemical_name_systematic        
3-t-butyl-8-chloro-6-hydroxy-3-azatricyclo[6.2.2.0^1,5^]dodeca-5,9,11-trien-4-one
_symmetry_cell_setting           triclinic
_symmetry_space_group_name_H-M   'P -1'
_symmetry_Int_Tables_number      2
_space_group_name_Hall           '-P 1'
loop_
_symmetry_equiv_pos_site_id
_symmetry_equiv_pos_as_xyz
1 x,y,z
2 -x,-y,-z
_cell_length_a                   11.1941(17)
_cell_length_b                   11.9877(18)
_cell_length_c                   12.3151(19)
_cell_angle_alpha                117.921(2)
_cell_angle_beta                 101.020(2)
_cell_angle_gamma                90.422(2)
_cell_volume                     1424.32
_exptl_crystal_colour            colorless
_exptl_crystal_description       plate
_cell_formula_units_Z            4
loop_
_atom_site_label
_atom_site_type_symbol
_atom_site_fract_x
_atom_site_fract_y
_atom_site_fract_z
Cl1 Cl 0.34709(8) 0.11044(8) 0.91542(7)
C1 C 0.3104(2) 0.1013(2) 0.7617(2)
C2 C 0.1800(2) 0.1400(2) 0.7431(2)
H1 H 0.1244 0.0845 0.7527
H2 H 0.1792 0.2259 0.8093
C3 C 0.1330(2) 0.1349(2) 0.6184(2)
O1 O 0.01564(15) 0.16364(18) 0.60372(18)
H3 H -0.010(3) 0.152(3) 0.516(2)
C4 C 0.19373(19) 0.1033(2) 0.5263(2)
C5 C 0.32346(19) 0.0653(2) 0.5298(2)
C6 C 0.40834(19) 0.1727(2) 0.6432(2)
H4 H 0.4636 0.2238 0.6334
C7 C 0.4015(2) 0.1913(2) 0.7555(2)
H5 H 0.4504 0.2568 0.8281
C8 C 0.3244(2) -0.0503(2) 0.5502(2)
H6 H 0.3302 -0.1306 0.4858
C9 C 0.3167(2) -0.0325(2) 0.6621(2)
H7 H 0.3153 -0.1001 0.6794
C10 C 0.14250(19) 0.09306(19) 0.4043(2)
O2 O 0.03647(14) 0.11579(16) 0.37262(16)
N1 N 0.22691(16) 0.05442(18) 0.33245(17)
C11 C 0.3435(2) 0.0405(3) 0.4005(2)
H8 H 0.4081 0.1012 0.4106
H9 H 0.3663 -0.0445 0.3548
C12 C 0.2072(2) 0.0331(2) 0.2003(2)
C13 C 0.1011(3) -0.0712(3) 0.1174(3)
H10 H 0.1191 -0.1475 0.1215
H11 H 0.0900 -0.0873 0.0318
H12 H 0.0275 -0.0443 0.1467
C14 C 0.1785(3) 0.1572(2) 0.1993(3)
H13 H 0.1038 0.1815 0.2271
H14 H 0.1696 0.1453 0.1153
H15 H 0.2443 0.2227 0.2548
C15 C 0.3232(3) -0.0065(3) 0.1514(3)
H16 H 0.3896 0.0590 0.2043
H17 H 0.3106 -0.0196 0.0668
H18 H 0.3425 -0.0840 0.1524
Cl2 Cl 0.66976(8) 0.38937(9) 0.07696(7)
C16 C 0.6975(2) 0.3979(2) 0.2308(2)
C17 C 0.5737(2) 0.3580(3) 0.2483(2)
H19 H 0.5145 0.4130 0.2381
H20 H 0.5444 0.2719 0.1821
C18 C 0.57925(19) 0.3634(2) 0.3734(2)
O3 O 0.46706(15) 0.33437(18) 0.38741(18)
H21 H 0.487(3) 0.353(3) 0.478(2)
C19 C 0.67835(19) 0.3959(2) 0.4655(2)
C20 C 0.80759(19) 0.4345(2) 0.4626(2)
C21 C 0.8438(2) 0.3279(2) 0.3500(2)
H22 H 0.9025 0.2770 0.3600
C22 C 0.7898(2) 0.3094(2) 0.2375(2)
H23 H 0.8078 0.2443 0.1650
C23 C 0.8008(2) 0.5505(2) 0.4425(2)
H24 H 0.8342 0.6310 0.5070
C24 C 0.7458(2) 0.5320(2) 0.3305(2)
H25 H 0.7369 0.5995 0.3132
C25 C 0.6785(2) 0.4077(2) 0.5881(2)
O4 O 0.58545(15) 0.38321(16) 0.61903(16)
N2 N 0.79266(17) 0.44913(19) 0.66074(18)
C26 C 0.8818(2) 0.4595(3) 0.5915(2)
H26 H 0.9396 0.3973 0.5817
H27 H 0.9268 0.5436 0.6362
C27 C 0.8296(2) 0.4692(2) 0.7922(2)
C28 C 0.7514(4) 0.5608(3) 0.8739(3)
H28 H 0.7563 0.6382 0.8688
H29 H 0.7804 0.5791 0.9597
H30 H 0.6678 0.5232 0.8449
C29 C 0.8129(3) 0.3424(2) 0.7912(3)
H31 H 0.7281 0.3085 0.7588
H32 H 0.8384 0.3549 0.8754
H33 H 0.8615 0.2841 0.7386
C30 C 0.9645(3) 0.5234(5) 0.8442(3)
H34 H 1.0141 0.4617 0.7967
H35 H 0.9876 0.5432 0.9310
H36 H 0.9766 0.5991 0.8376
loop_
_geom_bond_atom_site_label_1
_geom_bond_atom_site_label_2
_geom_bond_site_symmetry_1
_geom_bond_site_symmetry_2
Cl1 C1 1_555 1_555
C1 C2 1_555 1_555
C2 H1 1_555 1_555
H2 C2 1_555 1_555
C3 C2 1_555 1_555
O1 C3 1_555 1_555
H3 O1 1_555 1_555
C4 C3 1_555 1_555
C5 C4 1_555 1_555
C6 C5 1_555 1_555
H4 C6 1_555 1_555
C7 C1 1_555 1_555
H5 C7 1_555 1_555
C8 C5 1_555 1_555
H6 C8 1_555 1_555
C9 C1 1_555 1_555
H7 C9 1_555 1_555
C10 C4 1_555 1_555
O2 C10 1_555 1_555
N1 C10 1_555 1_555
C11 C5 1_555 1_555
H8 C11 1_555 1_555
H9 C11 1_555 1_555
C12 N1 1_555 1_555
C13 C12 1_555 1_555
H10 C13 1_555 1_555
H11 C13 1_555 1_555
H12 C13 1_555 1_555
C14 C12 1_555 1_555
H13 C14 1_555 1_555
H14 C14 1_555 1_555
H15 C14 1_555 1_555
C15 C12 1_555 1_555
H16 C15 1_555 1_555
H17 C15 1_555 1_555
H18 C15 1_555 1_555
Cl2 C16 1_555 1_555
C16 C17 1_555 1_555
C17 H19 1_555 1_555
H20 C17 1_555 1_555
C18 C17 1_555 1_555
O3 C18 1_555 1_555
H21 O3 1_555 1_555
C19 C18 1_555 1_555
C20 C19 1_555 1_555
C21 C20 1_555 1_555
H22 C21 1_555 1_555
C22 C16 1_555 1_555
H23 C22 1_555 1_555
C23 C20 1_555 1_555
H24 C23 1_555 1_555
C24 C16 1_555 1_555
H25 C24 1_555 1_555
C25 C19 1_555 1_555
O4 C25 1_555 1_555
N2 C25 1_555 1_555
C26 C20 1_555 1_555
H26 C26 1_555 1_555
H27 C26 1_555 1_555
C27 N2 1_555 1_555
C28 C27 1_555 1_555
H28 C28 1_555 1_555
H29 C28 1_555 1_555
H30 C28 1_555 1_555
C29 C27 1_555 1_555
H31 C29 1_555 1_555
H32 C29 1_555 1_555
H33 C29 1_555 1_555
C30 C27 1_555 1_555
H34 C30 1_555 1_555
H35 C30 1_555 1_555
H36 C30 1_555 1_555
C6 C7 1_555 1_555
C8 C9 1_555 1_555
N1 C11 1_555 1_555
C21 C22 1_555 1_555
C23 C24 1_555 1_555
N2 C26 1_555 1_555

#END
