
#######################################################################
#
#                 Cambridge Crystallographic Data Centre
#                                CCDC 
#
#######################################################################
#
# If this CIF has been generated from an entry in the Cambridge 
# Structural Database, then it will include bibliographic, chemical, 
# crystal, experimental, refinement or atomic coordinate data resulting 
# from the CCDC's data processing and validation procedures.
#
#######################################################################

data_ZUSGIF
_chemical_formula_moiety         'C25 H18 N2 O2 S1,C3 H6 O1'
_chemical_name_systematic        
"4'-benzoyl-1-methyl-3'-phenyl-5'-thioxo-1',5'-dihydrospiro[indole-3,2'-pyrrol]-2(1H)-one acetone solvate"
_symmetry_cell_setting           orthorhombic
_symmetry_space_group_name_H-M   'P 21 21 21'
_symmetry_Int_Tables_number      19
_space_group_name_Hall           'P 2ac 2ab'
loop_
_symmetry_equiv_pos_site_id
_symmetry_equiv_pos_as_xyz
1 x,y,z
2 1/2-x,-y,1/2+z
3 1/2+x,1/2-y,-z
4 -x,1/2+y,1/2-z
_cell_length_a                   8.9629(4)
_cell_length_b                   14.1297(8)
_cell_length_c                   18.6198(9)
_cell_angle_alpha                90
_cell_angle_beta                 90
_cell_angle_gamma                90
_cell_volume                     2358.07
_exptl_crystal_colour            'light yellow'
_exptl_crystal_description       block
_cell_formula_units_Z            4
loop_
_atom_site_label
_atom_site_type_symbol
_atom_site_fract_x
_atom_site_fract_y
_atom_site_fract_z
S1 S -0.88667(9) -0.11376(6) -0.19428(4)
O1 O -0.83361(19) 0.14912(15) -0.01327(10)
O2 O -0.7209(2) 0.07075(16) -0.32581(10)
N1 N -0.5860(2) 0.14445(16) 0.02039(12)
N2 N -0.7184(2) -0.01623(16) -0.10140(12)
H1 H -0.7170 -0.0611 -0.0702
C1 C -0.4529(3) 0.10668(19) -0.00701(13)
C2 C -0.3119(3) 0.1098(2) 0.02224(15)
H2 H -0.2946 0.1389 0.0662
C3 C -0.1966(3) 0.0680(2) -0.01592(16)
H3 H -0.1000 0.0702 0.0023
C4 C -0.2231(3) 0.0231(2) -0.08077(16)
H4 H -0.1445 -0.0055 -0.1051
C5 C -0.3655(3) 0.02036(19) -0.10974(15)
H5 H -0.3835 -0.0099 -0.1532
C6 C -0.4799(3) 0.06365(19) -0.07251(14)
C7 C -0.6437(3) 0.07382(19) -0.09104(13)
C8 C -0.7043(3) 0.1274(2) -0.02340(14)
C9 C -0.5963(3) 0.1956(2) 0.08818(14)
H6 H -0.6951 0.2207 0.0937
H7 H -0.5254 0.2465 0.0884
H8 H -0.5750 0.1532 0.1272
C10 C -0.6828(3) 0.12583(19) -0.16010(13)
C11 C -0.7632(3) 0.06740(19) -0.20162(14)
C12 C -0.7898(3) -0.0226(2) -0.16455(14)
C13 C -0.6471(3) 0.22625(18) -0.17295(13)
C14 C -0.7423(3) 0.2825(2) -0.21377(14)
H9 H -0.8279 0.2559 -0.2335
C15 C -0.7124(3) 0.3773(2) -0.22556(15)
H10 H -0.7783 0.4139 -0.2523
C16 C -0.5846(3) 0.4176(2) -0.19761(15)
H11 H -0.5628 0.4809 -0.2065
C17 C -0.4896(3) 0.3635(2) -0.15646(16)
H12 H -0.4035 0.3905 -0.1375
C18 C -0.5209(3) 0.2693(2) -0.14304(15)
H13 H -0.4574 0.2342 -0.1138
C19 C -0.8134(3) 0.07922(19) -0.27809(14)
C20 C -0.9728(3) 0.09961(19) -0.29339(14)
C21 C -1.0685(3) 0.1258(2) -0.23865(15)
H14 H -1.0352 0.1263 -0.1913
C22 C -1.2141(3) 0.1514(2) -0.25447(18)
H15 H -1.2782 0.1703 -0.2179
C23 C -1.2638(3) 0.1486(2) -0.32403(19)
H16 H -1.3613 0.1663 -0.3345
C24 C -1.1707(3) 0.1201(3) -0.37860(18)
H17 H -1.2060 0.1168 -0.4255
C25 C -1.0252(3) 0.0963(2) -0.36360(15)
H18 H -0.9617 0.0779 -0.4005
O3 O -0.1965(2) -0.33302(15) 0.00115(11)
C26 C -0.3135(5) -0.2316(2) -0.08276(19)
H19 H -0.3777 -0.1827 -0.0647
H20 H -0.3503 -0.2532 -0.1283
H21 H -0.2144 -0.2070 -0.0886
C27 C -0.3106(4) -0.3120(2) -0.03116(16)
C28 C -0.4502(3) -0.3665(3) -0.02196(19)
H22 H -0.4653 -0.4065 -0.0630
H23 H -0.5327 -0.3236 -0.0174
H24 H -0.4432 -0.4047 0.0205
loop_
_geom_bond_atom_site_label_1
_geom_bond_atom_site_label_2
_geom_bond_site_symmetry_1
_geom_bond_site_symmetry_2
S1 C12 1_555 1_555
O1 C8 1_555 1_555
O2 C19 1_555 1_555
N1 C1 1_555 1_555
N2 H1 1_555 1_555
C1 C2 1_555 1_555
C2 H2 1_555 1_555
C3 C2 1_555 1_555
H3 C3 1_555 1_555
C4 C3 1_555 1_555
H4 C4 1_555 1_555
C5 C4 1_555 1_555
H5 C5 1_555 1_555
C6 C1 1_555 1_555
C7 N2 1_555 1_555
C8 N1 1_555 1_555
C9 N1 1_555 1_555
H6 C9 1_555 1_555
H7 C9 1_555 1_555
H8 C9 1_555 1_555
C10 C7 1_555 1_555
C11 C10 1_555 1_555
C12 N2 1_555 1_555
C13 C10 1_555 1_555
C14 C13 1_555 1_555
H9 C14 1_555 1_555
C15 C14 1_555 1_555
H10 C15 1_555 1_555
C16 C15 1_555 1_555
H11 C16 1_555 1_555
C17 C16 1_555 1_555
H12 C17 1_555 1_555
C18 C13 1_555 1_555
H13 C18 1_555 1_555
C19 C11 1_555 1_555
C20 C19 1_555 1_555
C21 C20 1_555 1_555
H14 C21 1_555 1_555
C22 C21 1_555 1_555
H15 C22 1_555 1_555
C23 C22 1_555 1_555
H16 C23 1_555 1_555
C24 C23 1_555 1_555
H17 C24 1_555 1_555
C25 C20 1_555 1_555
H18 C25 1_555 1_555
O3 C27 1_555 1_555
C26 H19 1_555 1_555
H20 C26 1_555 1_555
H21 C26 1_555 1_555
C27 C26 1_555 1_555
C28 C27 1_555 1_555
H22 C28 1_555 1_555
H23 C28 1_555 1_555
H24 C28 1_555 1_555
C5 C6 1_555 1_555
C6 C7 1_555 1_555
C7 C8 1_555 1_555
C11 C12 1_555 1_555
C17 C18 1_555 1_555
C24 C25 1_555 1_555

#END
