
#######################################################################
#
#                 Cambridge Crystallographic Data Centre
#                                CCDC 
#
#######################################################################
#
# If this CIF has been generated from an entry in the Cambridge 
# Structural Database, then it will include bibliographic, chemical, 
# crystal, experimental, refinement or atomic coordinate data resulting 
# from the CCDC's data processing and validation procedures.
#
#######################################################################

data_ZUSGAX
_chemical_formula_moiety         'C21 H23 Cl1 F2 N2 O1'
_chemical_name_systematic        
2-(2-(4-chlorophenyl)-1,2,3,4-tetrahydroisoquinolin-1-yl)-N,N-diethyl-2,2-difluoroacetamide
_symmetry_cell_setting           monoclinic
_symmetry_space_group_name_H-M   'C c'
_symmetry_Int_Tables_number      9
_space_group_name_Hall           'C -2yc'
loop_
_symmetry_equiv_pos_site_id
_symmetry_equiv_pos_as_xyz
1 x,y,z
2 x,-y,1/2+z
3 1/2+x,1/2+y,z
4 1/2+x,1/2-y,1/2+z
_cell_length_a                   13.1195(9)
_cell_length_b                   25.1207(17)
_cell_length_c                   6.0786(4)
_cell_angle_alpha                90
_cell_angle_beta                 103.299(7)
_cell_angle_gamma                90
_cell_volume                     1949.61
_exptl_crystal_colour            'dark yellow'
_exptl_crystal_description       block
_cell_formula_units_Z            4
loop_
_atom_site_label
_atom_site_type_symbol
_atom_site_fract_x
_atom_site_fract_y
_atom_site_fract_z
Cl1 Cl -0.49793(8) -0.06325(4) -0.47144(18)
F1 F -1.05707(16) -0.21709(7) -0.9046(4)
F2 F -1.08637(17) -0.16774(8) -1.2035(3)
O1 O -0.8998(2) -0.17593(10) -1.2473(5)
N1 N -0.9507(2) -0.08280(10) -0.9140(5)
N2 N -0.8428(2) -0.22173(11) -0.9217(5)
C1 C -0.9930(3) -0.05689(15) -1.1299(7)
H1 H -0.9825 -0.0801 -1.2504
H2 H -0.9539 -0.0244 -1.1372
C2 C -1.1070(3) -0.04349(15) -1.1703(6)
H3 H -1.1398 -0.0529 -1.3252
H4 H -1.1131 -0.0052 -1.1570
C3 C -1.1686(3) -0.06921(12) -1.0189(6)
C4 C -1.2712(3) -0.05325(13) -1.0290(6)
H5 H -1.3025 -0.0280 -1.1351
C5 C -1.3272(3) -0.07457(13) -0.8828(7)
H6 H -1.3959 -0.0638 -0.8916
C6 C -1.2813(3) -0.11158(15) -0.7249(7)
H7 H -1.3184 -0.1254 -0.6247
C7 C -1.1800(3) -0.12828(13) -0.7146(6)
H8 H -1.1494 -0.1538 -0.6093
C8 C -1.1234(2) -0.10689(12) -0.8618(5)
C9 C -1.0129(2) -0.12573(12) -0.8520(5)
H9 H -0.9813 -0.1359 -0.6956
C10 C -1.0159(3) -0.17568(12) -1.0020(6)
C11 C -0.9127(3) -0.19190(12) -1.0636(6)
C12 C -0.8486(3) -0.23960(14) -0.6959(6)
H10 H -0.8981 -0.2174 -0.6413
H11 H -0.7805 -0.2353 -0.5936
C13 C -0.8821(4) -0.29723(15) -0.6937(9)
H12 H -0.8837 -0.3074 -0.5423
H13 H -0.8333 -0.3194 -0.7471
H14 H -0.9507 -0.3015 -0.7903
C14 C -0.7484(3) -0.23813(16) -0.9943(7)
H15 H -0.7649 -0.2410 -1.1578
H16 H -0.7273 -0.2731 -0.9328
C15 C -0.6581(4) -0.20004(18) -0.9207(10)
H17 H -0.6450 -0.1948 -0.7602
H18 H -0.6752 -0.1665 -0.9962
H19 H -0.5967 -0.2145 -0.9589
C16 C -0.8429(3) -0.07983(12) -0.8135(6)
C17 C -0.8026(3) -0.09797(13) -0.5926(6)
H20 H -0.8476 -0.1136 -0.5134
C18 C -0.6976(3) -0.09320(14) -0.4900(6)
H21 H -0.6723 -0.1058 -0.3438
C19 C -0.6300(3) -0.06961(13) -0.6053(6)
C20 C -0.6674(3) -0.05147(15) -0.8206(7)
H22 H -0.6219 -0.0357 -0.8980
C21 C -0.7727(3) -0.05642(13) -0.9247(7)
H23 H -0.7969 -0.0439 -1.0714
loop_
_geom_bond_atom_site_label_1
_geom_bond_atom_site_label_2
_geom_bond_site_symmetry_1
_geom_bond_site_symmetry_2
Cl1 C19 1_555 1_555
F1 C10 1_555 1_555
F2 C10 1_555 1_555
O1 C11 1_555 1_555
N1 C1 1_555 1_555
N2 C11 1_555 1_555
C1 H1 1_555 1_555
H2 C1 1_555 1_555
C2 C1 1_555 1_555
H3 C2 1_555 1_555
H4 C2 1_555 1_555
C3 C2 1_555 1_555
C4 C3 1_555 1_555
H5 C4 1_555 1_555
C5 C4 1_555 1_555
H6 C5 1_555 1_555
C6 C5 1_555 1_555
H7 C6 1_555 1_555
C7 C6 1_555 1_555
H8 C7 1_555 1_555
C8 C3 1_555 1_555
C9 N1 1_555 1_555
H9 C9 1_555 1_555
C10 C9 1_555 1_555
C11 C10 1_555 1_555
C12 N2 1_555 1_555
H10 C12 1_555 1_555
H11 C12 1_555 1_555
C13 C12 1_555 1_555
H12 C13 1_555 1_555
H13 C13 1_555 1_555
H14 C13 1_555 1_555
C14 N2 1_555 1_555
H15 C14 1_555 1_555
H16 C14 1_555 1_555
C15 C14 1_555 1_555
H17 C15 1_555 1_555
H18 C15 1_555 1_555
H19 C15 1_555 1_555
C16 N1 1_555 1_555
C17 C16 1_555 1_555
H20 C17 1_555 1_555
C18 C17 1_555 1_555
H21 C18 1_555 1_555
C19 C18 1_555 1_555
C20 C19 1_555 1_555
H22 C20 1_555 1_555
C21 C16 1_555 1_555
H23 C21 1_555 1_555
C7 C8 1_555 1_555
C8 C9 1_555 1_555
C20 C21 1_555 1_555

#END
