
#######################################################################
#
#                 Cambridge Crystallographic Data Centre
#                                CCDC 
#
#######################################################################
#
# If this CIF has been generated from an entry in the Cambridge 
# Structural Database, then it will include bibliographic, chemical, 
# crystal, experimental, refinement or atomic coordinate data resulting 
# from the CCDC's data processing and validation procedures.
#
#######################################################################

data_ZUSHOM
_chemical_compound_source        
'Isolated from the endophytic fungus Periconia sp. F-31.'
_chemical_name_common            'periconiasin D'
_chemical_formula_moiety         'C22 H33 N1 O3,0.5(H2 O1)'
_chemical_name_systematic        
'1-hydroxy-5-isobutyl-7,8,12-trimethyl-13-oxa-4-azapentacyclo[12.2.1.0^2,6^.0^2,10^.0^12,16^]heptadec-8-en-3-one hemihydrate'
_symmetry_cell_setting           orthorhombic
_symmetry_space_group_name_H-M   'P 21 21 21'
_symmetry_Int_Tables_number      19
_space_group_name_Hall           'P 2ac 2ab'
loop_
_symmetry_equiv_pos_site_id
_symmetry_equiv_pos_as_xyz
1 x,y,z
2 1/2-x,-y,1/2+z
3 1/2+x,1/2-y,-z
4 -x,1/2+y,1/2-z
_cell_length_a                   12.515(3)
_cell_length_b                   14.907(2)
_cell_length_c                   45.898(6)
_cell_angle_alpha                90
_cell_angle_beta                 90
_cell_angle_gamma                90
_cell_volume                     8562.78
_exptl_crystal_colour            colorless
_exptl_crystal_description       prism
_cell_formula_units_Z            16
loop_
_atom_site_label
_atom_site_type_symbol
_atom_site_fract_x
_atom_site_fract_y
_atom_site_fract_z
N1 N 0.38489(18) 0.19852(16) 0.39115(5)
H1 H 0.4323 0.1851 0.3783
O1 O 0.43894(15) 0.09453(13) 0.42412(4)
O2 O 0.1856(3) 0.11169(16) 0.50045(5)
O3 O 0.17112(18) 0.08291(15) 0.41039(4)
H2 H 0.1145 0.0555 0.4117
C1 C 0.3781(2) 0.15539(17) 0.41641(5)
C2 C 0.3078(2) 0.26952(18) 0.38647(6)
H3 H 0.3455 0.3270 0.3852
C3 C 0.2395(2) 0.26827(18) 0.41433(6)
H4 H 0.1660 0.2530 0.4088
C4 C 0.2377(3) 0.3608(2) 0.43012(7)
H5 H 0.1873 0.3546 0.4463
C5 C 0.3462(3) 0.3778(2) 0.44372(8)
C6 C 0.3858(3) 0.3109(2) 0.45948(7)
H6 H 0.4535 0.3152 0.4677
C7 C 0.3192(3) 0.22831(18) 0.46370(6)
H7 H 0.2536 0.2488 0.4733
C8 C 0.2836(2) 0.19156(17) 0.43389(5)
C9 C 0.2445(3) 0.2547(2) 0.35862(6)
H8 H 0.1920 0.3024 0.3569
H9 H 0.2057 0.1987 0.3604
C10 C 0.1916(5) 0.4338(3) 0.41009(10)
H10 H 0.1907 0.4901 0.4202
H11 H 0.1200 0.4179 0.4046
H12 H 0.2351 0.4390 0.3930
C11 C 0.4008(5) 0.4676(3) 0.44008(12)
H13 H 0.4685 0.4666 0.4499
H14 H 0.3568 0.5139 0.4483
H15 H 0.4119 0.4793 0.4197
C12 C 0.3627(3) 0.1551(2) 0.48288(6)
H16 H 0.3797 0.1801 0.5018
H17 H 0.4285 0.1325 0.4744
C13 C 0.2852(4) 0.0775(2) 0.48682(7)
C14 C 0.2412(3) 0.03923(19) 0.45815(6)
H18 H 0.2891 -0.0033 0.4484
C15 C 0.1349(4) -0.0018(2) 0.46855(9)
H19 H 0.0900 -0.0226 0.4527
H20 H 0.1441 -0.0485 0.4830
C16 C 0.0986(4) 0.0868(2) 0.48135(9)
H21 H 0.0292 0.0837 0.4912
C17 C 0.0992(3) 0.1470(2) 0.45507(7)
H22 H 0.1044 0.2096 0.4607
H23 H 0.0355 0.1385 0.4434
C18 C 0.2009(2) 0.11607(18) 0.43845(6)
C19 C 0.3096(3) 0.2518(3) 0.33049(7)
H24 H 0.3608 0.2024 0.3324
C20 C 0.2378(4) 0.2298(4) 0.30502(8)
H25 H 0.2001 0.1750 0.3089
H26 H 0.2803 0.2227 0.2878
H27 H 0.1875 0.2776 0.3022
C21 C 0.3738(4) 0.3368(4) 0.32544(9)
H28 H 0.4185 0.3481 0.3420
H29 H 0.3259 0.3865 0.3227
H30 H 0.4174 0.3297 0.3084
C22 C 0.3347(5) 0.0051(3) 0.50559(8)
H31 H 0.3619 0.0314 0.5232
H32 H 0.3921 -0.0230 0.4951
H33 H 0.2816 -0.0390 0.5103
N2 N -0.08403(18) 0.77726(16) 0.33893(5)
H34 H -0.1337 0.8108 0.3319
O4 O -0.14040(15) 0.78741(14) 0.38578(4)
O5 O 0.1263(2) 0.64229(14) 0.44116(5)
O6 O 0.12155(16) 0.84041(12) 0.37727(4)
H35 H 0.1781 0.8613 0.3832
C23 C -0.0769(2) 0.75997(17) 0.36729(6)
C24 C -0.0038(2) 0.73665(19) 0.32043(6)
H36 H -0.0383 0.6935 0.3074
C25 C 0.0687(2) 0.68533(18) 0.34219(6)
H37 H 0.1407 0.7110 0.3412
C26 C 0.0763(3) 0.5838(2) 0.33512(7)
H38 H 0.1285 0.5588 0.3488
C27 C -0.0288(3) 0.53879(19) 0.34192(8)
C28 C -0.0673(3) 0.55474(19) 0.36843(7)
H39 H -0.1315 0.5292 0.3744
C29 C -0.0054(2) 0.61448(18) 0.38855(6)
H40 H 0.0632 0.5841 0.3915
C30 C 0.0224(2) 0.70368(16) 0.37293(6)
C31 C 0.0550(2) 0.8064(2) 0.30232(6)
H41 H 0.0931 0.8459 0.3155
H42 H 0.1080 0.7757 0.2906
C32 C 0.1219(4) 0.5675(3) 0.30443(8)
H43 H 0.1266 0.5041 0.3009
H44 H 0.1918 0.5937 0.3031
H45 H 0.0758 0.5944 0.2902
C33 C -0.0828(4) 0.4793(3) 0.31979(10)
H46 H -0.1487 0.4572 0.3277
H47 H -0.0368 0.4297 0.3152
H48 H -0.0971 0.5131 0.3024
C34 C -0.0502(3) 0.6296(2) 0.41877(6)
H49 H -0.0604 0.5721 0.4282
H50 H -0.1195 0.6583 0.4172
C35 C 0.0231(3) 0.6882(2) 0.43777(7)
C36 C 0.0581(2) 0.77659(18) 0.42340(6)
H51 H 0.0054 0.8251 0.4247
C37 C 0.1627(3) 0.7945(2) 0.44000(8)
H52 H 0.2036 0.8441 0.4321
H53 H 0.1525 0.8018 0.4608
C38 C 0.2072(3) 0.7033(2) 0.43171(8)
H54 H 0.2780 0.6909 0.4399
C39 C 0.2059(2) 0.7085(2) 0.39863(7)
H55 H 0.2064 0.6491 0.3900
H56 H 0.2665 0.7423 0.3914
C40 C 0.0995(2) 0.75776(16) 0.39228(6)
C41 C -0.0125(3) 0.8638(2) 0.28233(7)
H57 H -0.0637 0.8966 0.2945
C42 C 0.0570(4) 0.9329(3) 0.26676(9)
H58 H 0.0973 0.9663 0.2809
H59 H 0.0124 0.9731 0.2559
H60 H 0.1051 0.9028 0.2537
C43 C -0.0751(4) 0.8101(5) 0.26059(9)
H61 H -0.1180 0.7665 0.2706
H62 H -0.0268 0.7800 0.2476
H63 H -0.1207 0.8494 0.2496
C44 C -0.0273(4) 0.7023(3) 0.46719(8)
H64 H -0.0476 0.6454 0.4753
H65 H -0.0896 0.7395 0.4651
H66 H 0.0229 0.7312 0.4799
N3 N 0.65411(17) 0.82190(17) 0.35998(5)
H67 H 0.7073 0.8311 0.3715
O7 O 0.71795(15) 0.91023(14) 0.32378(4)
O8 O 0.4392(2) 0.91848(17) 0.25317(5)
O9 O 0.45910(16) 0.96530(14) 0.34240(4)
H68 H 0.4017 0.9497 0.3494
C45 C 0.6471(2) 0.86068(18) 0.33424(6)
C46 C 0.5664(2) 0.7627(2) 0.36776(6)
H69 H 0.5939 0.7015 0.3698
C47 C 0.4923(2) 0.76685(19) 0.34077(6)
H70 H 0.4223 0.7891 0.3470
C48 C 0.4771(3) 0.6728(2) 0.32679(7)
H71 H 0.4239 0.6801 0.3113
C49 C 0.5790(3) 0.6447(2) 0.31210(7)
C50 C 0.6192(3) 0.7046(2) 0.29354(7)
H72 H 0.6817 0.6923 0.2833
C51 C 0.5623(3) 0.79177(19) 0.28943(6)
H73 H 0.4915 0.7761 0.2818
C52 C 0.5418(2) 0.83612(18) 0.31949(6)
C53 C 0.5135(2) 0.7908(3) 0.39615(6)
H74 H 0.4842 0.8504 0.3933
H75 H 0.4537 0.7507 0.3995
C54 C 0.4304(4) 0.6045(3) 0.34829(10)
H76 H 0.4221 0.5477 0.3387
H77 H 0.3621 0.6252 0.3550
H78 H 0.4779 0.5980 0.3646
C55 C 0.6291(5) 0.5549(3) 0.31790(11)
H79 H 0.6939 0.5496 0.3068
H80 H 0.5805 0.5082 0.3123
H81 H 0.6450 0.5496 0.3383
C56 C 0.6098(3) 0.8560(2) 0.26743(6)
H82 H 0.6150 0.8259 0.2488
H83 H 0.6816 0.8717 0.2735
C57 C 0.5454(3) 0.9413(2) 0.26366(7)
C58 C 0.5195(3) 0.98901(19) 0.29250(6)
H84 H 0.5779 1.0262 0.3000
C59 C 0.4203(3) 1.0419(2) 0.28384(9)
H85 H 0.3848 1.0703 0.3002
H86 H 0.4333 1.0850 0.2684
C60 C 0.3650(3) 0.9574(3) 0.27344(9)
H87 H 0.2941 0.9684 0.2651
C61 C 0.3621(3) 0.9024(2) 0.30121(7)
H88 H 0.3530 0.8391 0.2970
H89 H 0.3052 0.9222 0.3140
C62 C 0.4745(2) 0.92169(19) 0.31479(6)
C63 C 0.5789(3) 0.7925(3) 0.42317(7)
H90 H 0.6405 0.8315 0.4195
C64 C 0.5166(5) 0.8333(5) 0.44844(9)
H91 H 0.4912 0.8917 0.4430
H92 H 0.5625 0.8384 0.4651
H93 H 0.4570 0.7954 0.4531
C65 C 0.6225(6) 0.6990(5) 0.43064(12)
H94 H 0.6613 0.6757 0.4143
H95 H 0.5642 0.6596 0.4352
H96 H 0.6693 0.7032 0.4472
C66 C 0.6005(4) 1.0014(3) 0.24144(7)
H97 H 0.6137 0.9680 0.2239
H98 H 0.6671 1.0224 0.2493
H99 H 0.5554 1.0518 0.2371
N4 N 0.64351(18) 0.12745(17) 0.39742(5)
H100 H 0.5905 0.0987 0.4048
O10 O 0.57834(15) 0.12487(13) 0.35118(4)
O11 O 0.8601(2) 0.25914(15) 0.29500(5)
O12 O 0.83362(16) 0.04712(12) 0.35318(4)
H101 H 0.8880 0.0456 0.3631
C67 C 0.6494(2) 0.14485(17) 0.36924(6)
C68 C 0.7318(2) 0.15974(19) 0.41526(6)
H102 H 0.7048 0.2053 0.4288
C69 C 0.8062(2) 0.20551(18) 0.39284(6)
H103 H 0.8747 0.1736 0.3929
C70 C 0.8280(3) 0.3048(2) 0.40012(7)
H104 H 0.8798 0.3265 0.3857
C71 C 0.7266(3) 0.3581(2) 0.39551(7)
C72 C 0.6814(3) 0.3467(2) 0.36948(7)
H105 H 0.6182 0.3762 0.3647
C73 C 0.7341(2) 0.28586(17) 0.34826(6)
H106 H 0.8055 0.3114 0.3453
C74 C 0.75392(19) 0.19290(16) 0.36212(5)
C75 C 0.7840(3) 0.0849(2) 0.43263(7)
H107 H 0.8078 0.0393 0.4190
H108 H 0.8471 0.1092 0.4420
C76 C 0.8801(4) 0.3166(3) 0.43019(8)
H109 H 0.8920 0.3792 0.4338
H110 H 0.9471 0.2852 0.4306
H111 H 0.8337 0.2926 0.4449
C77 C 0.6828(5) 0.4198(3) 0.41850(9)
H112 H 0.6181 0.4469 0.4116
H113 H 0.7343 0.4657 0.4227
H114 H 0.6681 0.3861 0.4359
C78 C 0.6860(3) 0.28011(19) 0.31791(6)
H115 H 0.6144 0.2555 0.3193
H116 H 0.6804 0.3400 0.3098
C79 C 0.7519(3) 0.22217(19) 0.29753(6)
C80 C 0.7747(2) 0.12827(18) 0.30998(6)
H117 H 0.7157 0.0855 0.3080
C81 C 0.8755(3) 0.1040(2) 0.29255(8)
H118 H 0.9098 0.0494 0.2992
H119 H 0.8636 0.1019 0.2717
C82 C 0.9319(3) 0.1880(3) 0.30241(8)
H120 H 1.0032 0.1951 0.2939
C83 C 0.9333(2) 0.1765(2) 0.33537(7)
H121 H 0.9418 0.2336 0.3452
H122 H 0.9896 0.1360 0.3415
C84 C 0.8208(2) 0.13562(17) 0.34095(6)
C85 C 0.7170(3) 0.0395(3) 0.45571(8)
H123 H 0.6519 0.0173 0.4463
C86 C 0.7781(5) -0.0424(4) 0.46776(14)
H124 H 0.7975 -0.0813 0.4520
H125 H 0.7333 -0.0743 0.4812
H126 H 0.8415 -0.0224 0.4776
C87 C 0.6835(5) 0.1037(5) 0.47965(10)
H127 H 0.6451 0.1532 0.4713
H128 H 0.7457 0.1257 0.4896
H129 H 0.6382 0.0730 0.4933
C88 C 0.6996(4) 0.2218(2) 0.26764(7)
H130 H 0.6880 0.2824 0.2613
H131 H 0.6323 0.1910 0.2687
H132 H 0.7454 0.1917 0.2540
O13 O 0.0001(2) -0.01452(18) 0.39008(7)
O14 O 0.2900(2) 0.9551(2) 0.38299(8)
loop_
_geom_bond_atom_site_label_1
_geom_bond_atom_site_label_2
_geom_bond_site_symmetry_1
_geom_bond_site_symmetry_2
N1 H1 1_555 1_555
O1 C1 1_555 1_555
O2 C13 1_555 1_555
O3 H2 1_555 1_555
C1 N1 1_555 1_555
C2 N1 1_555 1_555
H3 C2 1_555 1_555
C3 C2 1_555 1_555
H4 C3 1_555 1_555
C4 C3 1_555 1_555
H5 C4 1_555 1_555
C5 C4 1_555 1_555
C6 C5 1_555 1_555
H6 C6 1_555 1_555
C7 C6 1_555 1_555
H7 C7 1_555 1_555
C8 C1 1_555 1_555
C9 C2 1_555 1_555
H8 C9 1_555 1_555
H9 C9 1_555 1_555
C10 C4 1_555 1_555
H10 C10 1_555 1_555
H11 C10 1_555 1_555
H12 C10 1_555 1_555
C11 C5 1_555 1_555
H13 C11 1_555 1_555
H14 C11 1_555 1_555
H15 C11 1_555 1_555
C12 C7 1_555 1_555
H16 C12 1_555 1_555
H17 C12 1_555 1_555
C13 C12 1_555 1_555
C14 C13 1_555 1_555
H18 C14 1_555 1_555
C15 C14 1_555 1_555
H19 C15 1_555 1_555
H20 C15 1_555 1_555
C16 O2 1_555 1_555
H21 C16 1_555 1_555
C17 C16 1_555 1_555
H22 C17 1_555 1_555
H23 C17 1_555 1_555
C18 O3 1_555 1_555
C19 C9 1_555 1_555
H24 C19 1_555 1_555
C20 C19 1_555 1_555
H25 C20 1_555 1_555
H26 C20 1_555 1_555
H27 C20 1_555 1_555
C21 C19 1_555 1_555
H28 C21 1_555 1_555
H29 C21 1_555 1_555
H30 C21 1_555 1_555
C22 C13 1_555 1_555
H31 C22 1_555 1_555
H32 C22 1_555 1_555
H33 C22 1_555 1_555
N2 H34 1_555 1_555
O4 C23 1_555 1_555
O5 C35 1_555 1_555
O6 H35 1_555 1_555
C23 N2 1_555 1_555
C24 N2 1_555 1_555
H36 C24 1_555 1_555
C25 C24 1_555 1_555
H37 C25 1_555 1_555
C26 C25 1_555 1_555
H38 C26 1_555 1_555
C27 C26 1_555 1_555
C28 C27 1_555 1_555
H39 C28 1_555 1_555
C29 C28 1_555 1_555
H40 C29 1_555 1_555
C30 C23 1_555 1_555
C31 C24 1_555 1_555
H41 C31 1_555 1_555
H42 C31 1_555 1_555
C32 C26 1_555 1_555
H43 C32 1_555 1_555
H44 C32 1_555 1_555
H45 C32 1_555 1_555
C33 C27 1_555 1_555
H46 C33 1_555 1_555
H47 C33 1_555 1_555
H48 C33 1_555 1_555
C34 C29 1_555 1_555
H49 C34 1_555 1_555
H50 C34 1_555 1_555
C35 C34 1_555 1_555
C36 C35 1_555 1_555
H51 C36 1_555 1_555
C37 C36 1_555 1_555
H52 C37 1_555 1_555
H53 C37 1_555 1_555
C38 O5 1_555 1_555
H54 C38 1_555 1_555
C39 C38 1_555 1_555
H55 C39 1_555 1_555
H56 C39 1_555 1_555
C40 O6 1_555 1_555
C41 C31 1_555 1_555
H57 C41 1_555 1_555
C42 C41 1_555 1_555
H58 C42 1_555 1_555
H59 C42 1_555 1_555
H60 C42 1_555 1_555
C43 C41 1_555 1_555
H61 C43 1_555 1_555
H62 C43 1_555 1_555
H63 C43 1_555 1_555
C44 C35 1_555 1_555
H64 C44 1_555 1_555
H65 C44 1_555 1_555
H66 C44 1_555 1_555
N3 H67 1_555 1_555
O7 C45 1_555 1_555
O8 C57 1_555 1_555
O9 H68 1_555 1_555
C45 N3 1_555 1_555
C46 N3 1_555 1_555
H69 C46 1_555 1_555
C47 C46 1_555 1_555
H70 C47 1_555 1_555
C48 C47 1_555 1_555
H71 C48 1_555 1_555
C49 C48 1_555 1_555
C50 C49 1_555 1_555
H72 C50 1_555 1_555
C51 C50 1_555 1_555
H73 C51 1_555 1_555
C52 C45 1_555 1_555
C53 C46 1_555 1_555
H74 C53 1_555 1_555
H75 C53 1_555 1_555
C54 C48 1_555 1_555
H76 C54 1_555 1_555
H77 C54 1_555 1_555
H78 C54 1_555 1_555
C55 C49 1_555 1_555
H79 C55 1_555 1_555
H80 C55 1_555 1_555
H81 C55 1_555 1_555
C56 C51 1_555 1_555
H82 C56 1_555 1_555
H83 C56 1_555 1_555
C57 C56 1_555 1_555
C58 C57 1_555 1_555
H84 C58 1_555 1_555
C59 C58 1_555 1_555
H85 C59 1_555 1_555
H86 C59 1_555 1_555
C60 O8 1_555 1_555
H87 C60 1_555 1_555
C61 C60 1_555 1_555
H88 C61 1_555 1_555
H89 C61 1_555 1_555
C62 O9 1_555 1_555
C63 C53 1_555 1_555
H90 C63 1_555 1_555
C64 C63 1_555 1_555
H91 C64 1_555 1_555
H92 C64 1_555 1_555
H93 C64 1_555 1_555
C65 C63 1_555 1_555
H94 C65 1_555 1_555
H95 C65 1_555 1_555
H96 C65 1_555 1_555
C66 C57 1_555 1_555
H97 C66 1_555 1_555
H98 C66 1_555 1_555
H99 C66 1_555 1_555
N4 H100 1_555 1_555
O10 C67 1_555 1_555
O11 C79 1_555 1_555
O12 H101 1_555 1_555
C67 N4 1_555 1_555
C68 N4 1_555 1_555
H102 C68 1_555 1_555
C69 C68 1_555 1_555
H103 C69 1_555 1_555
C70 C69 1_555 1_555
H104 C70 1_555 1_555
C71 C70 1_555 1_555
C72 C71 1_555 1_555
H105 C72 1_555 1_555
C73 C72 1_555 1_555
H106 C73 1_555 1_555
C74 C67 1_555 1_555
C75 C68 1_555 1_555
H107 C75 1_555 1_555
H108 C75 1_555 1_555
C76 C70 1_555 1_555
H109 C76 1_555 1_555
H110 C76 1_555 1_555
H111 C76 1_555 1_555
C77 C71 1_555 1_555
H112 C77 1_555 1_555
H113 C77 1_555 1_555
H114 C77 1_555 1_555
C78 C73 1_555 1_555
H115 C78 1_555 1_555
H116 C78 1_555 1_555
C79 C78 1_555 1_555
C80 C79 1_555 1_555
H117 C80 1_555 1_555
C81 C80 1_555 1_555
H118 C81 1_555 1_555
H119 C81 1_555 1_555
C82 O11 1_555 1_555
H120 C82 1_555 1_555
C83 C82 1_555 1_555
H121 C83 1_555 1_555
H122 C83 1_555 1_555
C84 O12 1_555 1_555
C85 C75 1_555 1_555
H123 C85 1_555 1_555
C86 C85 1_555 1_555
H124 C86 1_555 1_555
H125 C86 1_555 1_555
H126 C86 1_555 1_555
C87 C85 1_555 1_555
H127 C87 1_555 1_555
H128 C87 1_555 1_555
H129 C87 1_555 1_555
C88 C79 1_555 1_555
H130 C88 1_555 1_555
H131 C88 1_555 1_555
H132 C88 1_555 1_555
C3 C8 1_555 1_555
C7 C8 1_555 1_555
C8 C18 1_555 1_555
C14 C18 1_555 1_555
C15 C16 1_555 1_555
C17 C18 1_555 1_555
C25 C30 1_555 1_555
C29 C30 1_555 1_555
C30 C40 1_555 1_555
C36 C40 1_555 1_555
C37 C38 1_555 1_555
C39 C40 1_555 1_555
C47 C52 1_555 1_555
C51 C52 1_555 1_555
C52 C62 1_555 1_555
C58 C62 1_555 1_555
C59 C60 1_555 1_555
C61 C62 1_555 1_555
C69 C74 1_555 1_555
C73 C74 1_555 1_555
C74 C84 1_555 1_555
C80 C84 1_555 1_555
C81 C82 1_555 1_555
C83 C84 1_555 1_555

#END
