
#######################################################################
#
#                 Cambridge Crystallographic Data Centre
#                                CCDC 
#
#######################################################################
#
# If this CIF has been generated from an entry in the Cambridge 
# Structural Database, then it will include bibliographic, chemical, 
# crystal, experimental, refinement or atomic coordinate data resulting 
# from the CCDC's data processing and validation procedures.
#
#######################################################################

data_ZUSRUC
_chemical_formula_moiety         'C7 H4 Cl2 N2'
_chemical_name_systematic        2,3-Dichloroimidazo[1,2-a]pyridine
_symmetry_cell_setting           orthorhombic
_symmetry_space_group_name_H-M   'P b c a'
_symmetry_Int_Tables_number      61
_space_group_name_Hall           '-P 2ac 2ab'
loop_
_symmetry_equiv_pos_site_id
_symmetry_equiv_pos_as_xyz
1 x,y,z
2 1/2-x,-y,1/2+z
3 -x,1/2+y,1/2-z
4 1/2+x,1/2-y,-z
5 -x,-y,-z
6 1/2+x,y,1/2-z
7 x,1/2-y,1/2+z
8 1/2-x,1/2+y,z
_cell_length_a                   11.4945(5)
_cell_length_b                   7.5152(4)
_cell_length_c                   17.4299(9)
_cell_angle_alpha                90
_cell_angle_beta                 90
_cell_angle_gamma                90
_cell_volume                     1505.66
_exptl_crystal_colour            colorless
_exptl_crystal_description       plane
_cell_formula_units_Z            8
loop_
_atom_site_label
_atom_site_type_symbol
_atom_site_fract_x
_atom_site_fract_y
_atom_site_fract_z
Cl1 Cl 0.01498(6) 0.22625(11) 0.32667(4)
Cl2 Cl -0.23508(7) 0.46394(11) 0.28024(4)
N1 N -0.24165(17) 0.4641(3) 0.43372(13)
N2 N -0.07910(15) 0.3111(2) 0.46361(11)
C1 C -0.17674(19) 0.4008(3) 0.49124(14)
C2 C 0.0016(2) 0.2330(3) 0.51119(17)
H1 H 0.0658 0.1739 0.4911
C3 C -0.08595(19) 0.3201(3) 0.38497(14)
C4 C -0.1915(2) 0.4113(4) 0.57142(14)
H2 H -0.2551 0.4708 0.5921
C5 C -0.1119(2) 0.3335(4) 0.61811(15)
H3 H -0.1218 0.3396 0.6710
C6 C -0.1845(2) 0.4129(3) 0.37025(14)
C7 C -0.0148(3) 0.2441(4) 0.58819(16)
H4 H 0.0387 0.1921 0.6213
loop_
_geom_bond_atom_site_label_1
_geom_bond_atom_site_label_2
_geom_bond_site_symmetry_1
_geom_bond_site_symmetry_2
Cl1 C3 1_555 1_555
Cl2 C6 1_555 1_555
N1 C1 1_555 1_555
N2 C1 1_555 1_555
C1 C4 1_555 1_555
C2 N2 1_555 1_555
H1 C2 1_555 1_555
C3 N2 1_555 1_555
C4 H2 1_555 1_555
C5 C4 1_555 1_555
H3 C5 1_555 1_555
C6 N1 1_555 1_555
C7 C2 1_555 1_555
H4 C7 1_555 1_555
C3 C6 1_555 1_555
C5 C7 1_555 1_555

#END
