
#######################################################################
#
#                 Cambridge Crystallographic Data Centre
#                                CCDC 
#
#######################################################################
#
# If this CIF has been generated from an entry in the Cambridge 
# Structural Database, then it will include bibliographic, chemical, 
# crystal, experimental, refinement or atomic coordinate data resulting 
# from the CCDC's data processing and validation procedures.
#
#######################################################################

data_ZUSVIU
_chemical_formula_moiety         'C40 H32 N2 O9'
_chemical_name_systematic        
7-Methyl-16-(13-methyl-13,14-dihydro[1,3]benzodioxolo[5,6-c][1,3]dioxolo[4,5-i]phenanthridin-14-yl)-6,8,9,16-tetrahydrobis[1,3]benzodioxolo[4,5-c:5',6'-g]azecin-15(7H)-one
_symmetry_cell_setting           orthorhombic
_symmetry_space_group_name_H-M   'P b c a'
_symmetry_Int_Tables_number      61
_space_group_name_Hall           '-P 2ac 2ab'
loop_
_symmetry_equiv_pos_site_id
_symmetry_equiv_pos_as_xyz
1 x,y,z
2 1/2-x,-y,1/2+z
3 1/2+x,1/2-y,-z
4 -x,1/2+y,1/2-z
5 -x,-y,-z
6 1/2+x,y,1/2-z
7 1/2-x,1/2+y,z
8 x,1/2-y,1/2+z
_cell_length_a                   13.9815(8)
_cell_length_b                   16.6793(6)
_cell_length_c                   26.5582(9)
_cell_angle_alpha                90
_cell_angle_beta                 90
_cell_angle_gamma                90
_cell_volume                     6193.42
_cell_formula_units_Z            8
loop_
_atom_site_label
_atom_site_type_symbol
_atom_site_fract_x
_atom_site_fract_y
_atom_site_fract_z
O1 O 0.80456(10) 0.22182(8) 0.46110(5)
O2 O 0.89808(9) 0.12935(7) 0.50282(5)
O3 O 0.76906(11) -0.26555(9) 0.79628(5)
C1 C 0.74037(12) 0.06248(10) 0.67356(7)
O4 O 0.62742(10) -0.10130(9) 0.42760(5)
C2 C 0.81562(13) 0.14316(10) 0.52984(7)
C3 C 0.70117(13) -0.06954(10) 0.50958(7)
C4 C 0.79124(13) -0.05725(10) 0.53286(6)
O5 O 0.93595(9) -0.11574(8) 0.60452(5)
C5 C 0.77352(15) -0.22700(11) 0.75073(7)
C6 C 0.71953(13) -0.15995(10) 0.67642(7)
C7 C 0.63283(13) -0.13624(11) 0.64551(6)
H1 H 0.6323 -0.0779 0.6414
H2 H 0.5748 -0.1515 0.6639
N1 N 0.83727(10) 0.05455(8) 0.65608(5)
C8 C 0.78730(12) 0.10757(10) 0.57380(7)
C9 C 0.71670(13) 0.02931(10) 0.72126(6)
C10 C 0.78755(13) -0.00647(10) 0.75260(7)
H3 H 0.8523 -0.0073 0.7430
C11 C 0.61901(13) 0.02885(11) 0.73661(7)
N2 N 0.57027(11) -0.14005(9) 0.55454(6)
C12 C 0.69931(14) -0.20053(11) 0.72171(7)
H4 H 0.6357 -0.2093 0.7318
C13 C 0.64558(13) 0.19160(10) 0.56987(7)
H5 H 0.5878 0.2088 0.5844
C14 C 0.85375(13) -0.10433(10) 0.61752(7)
O6 O 0.65447(11) -0.08028(10) 0.85621(6)
C15 C 0.81589(13) -0.14777(10) 0.66265(7)
C16 C 0.79629(12) -0.04045(10) 0.58895(6)
H6 H 0.7302 -0.0409 0.6023
C17 C 0.75847(14) -0.03905(11) 0.79653(7)
C18 C 0.78781(14) -0.09177(11) 0.43183(7)
O7 O 0.76815(10) -0.10850(10) 0.38197(5)
C19 C 0.70457(13) -0.08752(11) 0.45890(7)
C20 C 0.86635(16) -0.28471(13) 0.80870(8)
H7 H 0.8813 -0.2658 0.8427
H8 H 0.8758 -0.3429 0.8077
O8 O 0.81334(10) -0.07673(9) 0.83219(5)
C21 C 0.90051(15) 0.19318(12) 0.46656(8)
H9 H 0.9424 0.2364 0.4783
H10 H 0.9247 0.1735 0.4342
C22 C 0.66244(15) -0.04070(12) 0.81126(7)
C23 C 0.59233(14) -0.00873(12) 0.78294(7)
H11 H 0.5281 -0.0110 0.7932
C24 C 0.76021(14) 0.19954(10) 0.50529(7)
C25 C 0.63116(14) -0.17587(11) 0.59300(7)
H12 H 0.6968 -0.1765 0.5801
H13 H 0.6113 -0.2318 0.5973
C26 C 0.69955(13) 0.13364(10) 0.59458(7)
C27 C 0.87489(14) -0.07826(11) 0.45317(7)
H14 H 0.9318 -0.0804 0.4343
C28 C 0.67462(14) 0.22491(11) 0.52425(7)
H15 H 0.6370 0.2631 0.5073
C29 C 0.86716(14) -0.21582(11) 0.73682(7)
O9 O 0.92735(11) -0.24663(9) 0.77308(5)
C30 C 0.57578(14) 0.09825(11) 0.65996(7)
H16 H 0.5284 0.1219 0.6397
C31 C 0.87490(13) -0.06099(10) 0.50465(7)
H17 H 0.9336 -0.0516 0.5208
C32 C 0.89839(14) 0.12126(11) 0.67240(7)
H18 H 0.8751 0.1709 0.6579
H19 H 0.9635 0.1118 0.6613
H20 H 0.8970 0.1251 0.7088
C33 C 0.89047(14) -0.17738(11) 0.69354(7)
H21 H 0.9548 -0.1705 0.6842
C34 C 0.84061(12) 0.04225(10) 0.60120(6)
H22 H 0.9082 0.0426 0.5901
C35 C 0.74923(17) -0.09972(14) 0.87139(8)
H23 H 0.7545 -0.1574 0.8777
H24 H 0.7653 -0.0712 0.9025
C36 C 0.60517(13) -0.06340(11) 0.53511(7)
H25 H 0.6099 -0.0252 0.5630
H26 H 0.5585 -0.0422 0.5110
C37 C 0.67166(13) 0.09852(10) 0.64352(7)
C38 C 0.55063(14) 0.06429(12) 0.70472(7)
H27 H 0.4860 0.0646 0.7145
C39 C 0.47128(14) -0.13254(14) 0.57083(8)
H28 H 0.4482 -0.1843 0.5823
H29 H 0.4323 -0.1142 0.5429
H30 H 0.4673 -0.0942 0.5982
C40 C 0.66809(16) -0.12261(15) 0.38018(8)
H31 H 0.6557 -0.1793 0.3730
H32 H 0.6391 -0.0904 0.3533
loop_
_geom_bond_atom_site_label_1
_geom_bond_atom_site_label_2
_geom_bond_site_symmetry_1
_geom_bond_site_symmetry_2
O1 C21 1_555 1_555
O2 C2 1_555 1_555
O3 C5 1_555 1_555
C1 N1 1_555 1_555
O4 C19 1_555 1_555
C2 C8 1_555 1_555
C3 C4 1_555 1_555
C4 C16 1_555 1_555
O5 C14 1_555 1_555
C5 C12 1_555 1_555
C6 C7 1_555 1_555
C7 H1 1_555 1_555
H2 C7 1_555 1_555
N1 C32 1_555 1_555
C8 C26 1_555 1_555
C9 C1 1_555 1_555
C10 C9 1_555 1_555
H3 C10 1_555 1_555
C11 C9 1_555 1_555
N2 C25 1_555 1_555
C12 C6 1_555 1_555
H4 C12 1_555 1_555
C13 H5 1_555 1_555
C14 C15 1_555 1_555
O6 C22 1_555 1_555
C15 C6 1_555 1_555
C16 C14 1_555 1_555
H6 C16 1_555 1_555
C17 C10 1_555 1_555
C18 O7 1_555 1_555
O7 C40 1_555 1_555
C19 C3 1_555 1_555
C20 O3 1_555 1_555
H7 C20 1_555 1_555
H8 C20 1_555 1_555
O8 C17 1_555 1_555
C21 O2 1_555 1_555
H9 C21 1_555 1_555
H10 C21 1_555 1_555
C22 C17 1_555 1_555
C23 C11 1_555 1_555
H11 C23 1_555 1_555
C24 O1 1_555 1_555
C25 C7 1_555 1_555
H12 C25 1_555 1_555
H13 C25 1_555 1_555
C26 C13 1_555 1_555
C27 C18 1_555 1_555
H14 C27 1_555 1_555
C28 C13 1_555 1_555
H15 C28 1_555 1_555
C29 C5 1_555 1_555
O9 C20 1_555 1_555
C30 H16 1_555 1_555
C31 C4 1_555 1_555
H17 C31 1_555 1_555
C32 H18 1_555 1_555
H19 C32 1_555 1_555
H20 C32 1_555 1_555
C33 C15 1_555 1_555
H21 C33 1_555 1_555
C34 N1 1_555 1_555
H22 C34 1_555 1_555
C35 O6 1_555 1_555
H23 C35 1_555 1_555
H24 C35 1_555 1_555
C36 C3 1_555 1_555
H25 C36 1_555 1_555
H26 C36 1_555 1_555
C37 C1 1_555 1_555
C38 C11 1_555 1_555
H27 C38 1_555 1_555
C39 N2 1_555 1_555
H28 C39 1_555 1_555
H29 C39 1_555 1_555
H30 C39 1_555 1_555
C40 O4 1_555 1_555
H31 C40 1_555 1_555
H32 C40 1_555 1_555
C2 C24 1_555 1_555
C8 C34 1_555 1_555
N2 C36 1_555 1_555
C16 C34 1_555 1_555
C18 C19 1_555 1_555
O8 C35 1_555 1_555
C22 C23 1_555 1_555
C24 C28 1_555 1_555
C26 C37 1_555 1_555
C27 C31 1_555 1_555
C29 O9 1_555 1_555
C29 C33 1_555 1_555
C30 C37 1_555 1_555
C30 C38 1_555 1_555

#END
