
#######################################################################
#
#                 Cambridge Crystallographic Data Centre
#                                CCDC 
#
#######################################################################
#
# If this CIF has been generated from an entry in the Cambridge 
# Structural Database, then it will include bibliographic, chemical, 
# crystal, experimental, refinement or atomic coordinate data resulting 
# from the CCDC's data processing and validation procedures.
#
#######################################################################

data_ZUSVUG
_chemical_formula_moiety         'C40 H41 N1 O4 S2'
_chemical_name_systematic        
N-(2-benzoyl-3-((4-t-butylphenyl)sulfanyl)-3-(4-methoxyphenyl)-1-phenylpropyl)-4-methylbenzenesulfonamide
_symmetry_cell_setting           triclinic
_symmetry_space_group_name_H-M   'P -1'
_symmetry_Int_Tables_number      2
_space_group_name_Hall           '-P 1'
loop_
_symmetry_equiv_pos_site_id
_symmetry_equiv_pos_as_xyz
1 x,y,z
2 -x,-y,-z
_cell_length_a                   11.0456(7)
_cell_length_b                   12.0988(8)
_cell_length_c                   14.8761(10)
_cell_angle_alpha                68.8670(10)
_cell_angle_beta                 70.7250(10)
_cell_angle_gamma                86.4480(10)
_cell_volume                     1746.69
_exptl_crystal_colour            colorless
_exptl_crystal_description       rod
_cell_formula_units_Z            2
loop_
_atom_site_label
_atom_site_type_symbol
_atom_site_fract_x
_atom_site_fract_y
_atom_site_fract_z
S1 S 0.83976(4) 0.35905(4) 0.07088(3)
S2 S 1.15837(4) 0.20430(4) 0.36282(4)
O1 O 0.79071(13) 0.24051(12) 0.09658(10)
O2 O 0.93630(13) 0.41733(12) -0.02581(9)
O3 O 1.01677(14) 0.46489(11) 0.25467(10)
O4 O 1.00527(14) -0.21586(11) 0.22985(11)
N1 N 0.90123(15) 0.35516(13) 0.15710(11)
H1 H 0.9680 0.4006 0.1407
C1 C 0.70722(18) 0.44969(17) 0.07965(13)
C2 C 0.7293(2) 0.57299(18) 0.03898(15)
H2 H 0.8125 0.6079 0.0067
C3 C 0.6249(2) 0.6421(2) 0.04762(16)
H3 H 0.6388 0.7243 0.0215
C4 C 0.4986(2) 0.5918(2) 0.09467(15)
C5 C 0.4803(2) 0.4691(2) 0.13572(16)
H4 H 0.3971 0.4341 0.1687
C6 C 0.58288(19) 0.39728(18) 0.12886(14)
H5 H 0.5689 0.3151 0.1568
C7 C 0.3855(2) 0.6687(2) 0.09926(18)
H6 H 0.3843 0.7119 0.0313
H7 H 0.3930 0.7236 0.1306
H8 H 0.3073 0.6196 0.1387
C8 C 0.61399(19) 0.21089(19) 0.37117(15)
H9 H 0.6315 0.1355 0.3692
C9 C 0.4918(2) 0.2318(2) 0.42716(17)
H10 H 0.4277 0.1706 0.4617
C10 C 0.4661(2) 0.3430(2) 0.43136(18)
H11 H 0.3857 0.3560 0.4710
C11 C 0.5594(2) 0.4351(2) 0.37693(18)
H12 H 0.5409 0.5106 0.3786
C12 C 0.6807(2) 0.41596(17) 0.31963(15)
H13 H 0.7427 0.4788 0.2820
C13 C 0.70951(17) 0.30259(16) 0.31841(13)
C14 C 0.84297(17) 0.27425(15) 0.26298(13)
H14 H 0.8342 0.1954 0.2605
C15 C 0.93513(16) 0.26458(14) 0.32436(13)
H15 H 0.8952 0.2071 0.3936
C16 C 0.95484(17) 0.38487(15) 0.33211(13)
C17 C 0.89561(16) 0.40442(15) 0.43018(13)
C18 C 0.84717(17) 0.31266(16) 0.52410(14)
H16 H 0.8482 0.2344 0.5273
C19 C 0.79717(19) 0.33716(18) 0.61329(15)
H17 H 0.7660 0.2754 0.6760
C20 C 0.79388(19) 0.45380(19) 0.60855(15)
H18 H 0.7599 0.4703 0.6681
C21 C 0.84122(18) 0.54579(17) 0.51510(15)
H19 H 0.8385 0.6240 0.5122
C22 C 0.89246(17) 0.52204(16) 0.42627(14)
H20 H 0.9249 0.5841 0.3639
C23 C 1.06519(17) 0.21986(15) 0.27623(13)
H21 H 1.1098 0.2803 0.2095
C24 C 1.05008(16) 0.10489(15) 0.26219(13)
C25 C 0.99974(18) 0.00036(16) 0.34620(13)
H22 H 0.9756 0.0015 0.4119
C26 C 0.98556(18) -0.10427(16) 0.33252(14)
H23 H 0.9508 -0.1729 0.3889
C27 C 1.02319(18) -0.10754(15) 0.23452(14)
C28 C 1.07286(18) -0.00509(16) 0.15026(14)
H24 H 1.0972 -0.0065 0.0846
C29 C 1.08585(17) 0.10024(16) 0.16547(14)
H25 H 1.1194 0.1691 0.1090
C30 C 1.0433(2) -0.22473(18) 0.13160(16)
H26 H 0.9909 -0.1773 0.0938
H27 H 1.0329 -0.3061 0.1391
H28 H 1.1319 -0.1968 0.0956
C31 C 1.28507(17) 0.11945(16) 0.31862(14)
C32 C 1.31169(19) 0.01714(18) 0.38817(15)
H29 H 1.2621 -0.0070 0.4569
C33 C 1.41214(19) -0.04958(18) 0.35568(16)
H30 H 1.4296 -0.1172 0.4036
C34 C 1.48752(18) -0.01766(17) 0.25300(15)
C35 C 1.45826(19) 0.08511(18) 0.18428(15)
H31 H 1.5063 0.1086 0.1153
C36 C 1.35944(19) 0.15314(18) 0.21628(15)
H32 H 1.3429 0.2218 0.1688
C37 C 1.59951(19) -0.09208(18) 0.22117(17)
C38 C 1.6618(3) -0.0513(2) 0.1055(2)
H33 H 1.5994 -0.0591 0.0757
H34 H 1.7320 -0.0994 0.0891
H35 H 1.6932 0.0303 0.0790
C39 C 1.5542(2) -0.22322(19) 0.26279(19)
H36 H 1.5234 -0.2519 0.3361
H37 H 1.6246 -0.2680 0.2398
H38 H 1.4861 -0.2321 0.2387
C40 C 1.7026(2) -0.0782(2) 0.2659(2)
H39 H 1.7331 0.0037 0.2389
H40 H 1.7730 -0.1254 0.2477
H41 H 1.6661 -0.1042 0.3389
loop_
_geom_bond_atom_site_label_1
_geom_bond_atom_site_label_2
_geom_bond_site_symmetry_1
_geom_bond_site_symmetry_2
S1 O1 1_555 1_555
S2 C23 1_555 1_555
O2 S1 1_555 1_555
O3 C16 1_555 1_555
O4 C27 1_555 1_555
N1 S1 1_555 1_555
H1 N1 1_555 1_555
C1 S1 1_555 1_555
C2 C1 1_555 1_555
H2 C2 1_555 1_555
C3 C2 1_555 1_555
H3 C3 1_555 1_555
C4 C3 1_555 1_555
C5 C4 1_555 1_555
H4 C5 1_555 1_555
C6 C1 1_555 1_555
H5 C6 1_555 1_555
C7 C4 1_555 1_555
H6 C7 1_555 1_555
H7 C7 1_555 1_555
H8 C7 1_555 1_555
C8 H9 1_555 1_555
C9 C8 1_555 1_555
H10 C9 1_555 1_555
C10 C9 1_555 1_555
H11 C10 1_555 1_555
C11 C10 1_555 1_555
H12 C11 1_555 1_555
C12 C11 1_555 1_555
H13 C12 1_555 1_555
C13 C8 1_555 1_555
C14 N1 1_555 1_555
H14 C14 1_555 1_555
C15 C14 1_555 1_555
H15 C15 1_555 1_555
C16 C15 1_555 1_555
C17 C16 1_555 1_555
C18 C17 1_555 1_555
H16 C18 1_555 1_555
C19 C18 1_555 1_555
H17 C19 1_555 1_555
C20 C19 1_555 1_555
H18 C20 1_555 1_555
C21 C20 1_555 1_555
H19 C21 1_555 1_555
C22 C17 1_555 1_555
H20 C22 1_555 1_555
C23 C15 1_555 1_555
H21 C23 1_555 1_555
C24 C23 1_555 1_555
C25 C24 1_555 1_555
H22 C25 1_555 1_555
C26 C25 1_555 1_555
H23 C26 1_555 1_555
C27 C26 1_555 1_555
C28 C27 1_555 1_555
H24 C28 1_555 1_555
C29 C24 1_555 1_555
H25 C29 1_555 1_555
C30 O4 1_555 1_555
H26 C30 1_555 1_555
H27 C30 1_555 1_555
H28 C30 1_555 1_555
C31 S2 1_555 1_555
C32 C31 1_555 1_555
H29 C32 1_555 1_555
C33 C32 1_555 1_555
H30 C33 1_555 1_555
C34 C33 1_555 1_555
C35 C34 1_555 1_555
H31 C35 1_555 1_555
C36 C31 1_555 1_555
H32 C36 1_555 1_555
C37 C34 1_555 1_555
C38 C37 1_555 1_555
H33 C38 1_555 1_555
H34 C38 1_555 1_555
H35 C38 1_555 1_555
C39 C37 1_555 1_555
H36 C39 1_555 1_555
H37 C39 1_555 1_555
H38 C39 1_555 1_555
C40 C37 1_555 1_555
H39 C40 1_555 1_555
H40 C40 1_555 1_555
H41 C40 1_555 1_555
C5 C6 1_555 1_555
C12 C13 1_555 1_555
C13 C14 1_555 1_555
C21 C22 1_555 1_555
C28 C29 1_555 1_555
C35 C36 1_555 1_555

#END
