
#######################################################################
#
#                 Cambridge Crystallographic Data Centre
#                                CCDC 
#
#######################################################################
#
# If this CIF has been generated from an entry in the Cambridge 
# Structural Database, then it will include bibliographic, chemical, 
# crystal, experimental, refinement or atomic coordinate data resulting 
# from the CCDC's data processing and validation procedures.
#
#######################################################################

data_ZUSWUH
_chemical_formula_moiety         'C26 H24 N4 O4'
_chemical_name_systematic        
'diethyl 4,4-dicyano-3-phenyl-3,4-dihydro-2H-pyrido[2,1-a]phthalazine-1,1(11bH)-dicarboxylate'
_symmetry_cell_setting           monoclinic
_symmetry_space_group_name_H-M   'C c'
_symmetry_Int_Tables_number      9
_space_group_name_Hall           'C -2yc'
loop_
_symmetry_equiv_pos_site_id
_symmetry_equiv_pos_as_xyz
1 x,y,z
2 x,-y,1/2+z
3 1/2+x,1/2+y,z
4 1/2+x,1/2-y,1/2+z
_cell_length_a                   9.0718(18)
_cell_length_b                   20.806(4)
_cell_length_c                   12.975(3)
_cell_angle_alpha                90
_cell_angle_beta                 107.07(3)
_cell_angle_gamma                90
_cell_volume                     2341.12
_exptl_crystal_colour            colorless
_exptl_crystal_description       plate
_cell_formula_units_Z            4
loop_
_atom_site_label
_atom_site_type_symbol
_atom_site_fract_x
_atom_site_fract_y
_atom_site_fract_z
O1 O -0.5136(2) 0.19567(8) -0.58954(14)
O2 O -0.69805(19) 0.14435(8) -0.71767(13)
O3 O -0.82799(19) 0.01902(9) -0.61251(14)
O4 O -0.86253(17) 0.12043(8) -0.56277(13)
N1 N -0.1336(2) 0.04833(12) -0.36623(19)
N2 N -0.3724(2) -0.10635(11) -0.28225(18)
N3 N -0.5041(2) 0.04477(9) -0.36542(15)
N4 N -0.6322(2) 0.01273(10) -0.34983(16)
C1 C -0.2517(3) -0.04897(12) -0.5894(2)
H1 H -0.2301 -0.0054 -0.5909
C2 C -0.1550(3) -0.09325(13) -0.6162(2)
H2 H -0.0686 -0.0794 -0.6346
C3 C -0.1874(3) -0.15833(14) -0.6154(2)
H3 H -0.1221 -0.1883 -0.6324
C4 C -0.3162(3) -0.17839(13) -0.5894(2)
H4 H -0.3389 -0.2220 -0.5904
C5 C -0.4129(3) -0.13413(12) -0.5617(2)
H5 H -0.4997 -0.1484 -0.5441
C6 C -0.3810(3) -0.06862(11) -0.56017(18)
C7 C -0.4805(3) -0.02073(11) -0.52299(17)
H6 H -0.5805 -0.0411 -0.5306
C8 C -0.4098(2) -0.00210(11) -0.40186(18)
C9 C -0.5334(2) 0.10485(11) -0.42816(18)
H7 H -0.4328 0.1247 -0.4205
C10 C -0.6090(2) 0.09184(11) -0.55180(18)
C11 C -0.5101(3) 0.04109(11) -0.58909(18)
H8 H -0.5614 0.0302 -0.6637
H9 H -0.4116 0.0603 -0.5862
C12 C -0.2530(3) 0.02615(12) -0.38197(19)
C13 C -0.3915(3) -0.06064(12) -0.33294(19)
C14 C -0.6012(3) 0.15154(11) -0.61872(18)
C15 C -0.6972(3) 0.19283(13) -0.7984(2)
H10 H -0.5923 0.2022 -0.7981
H11 H -0.7444 0.2323 -0.7837
C16 C -0.7873(4) 0.16568(16) -0.9051(2)
H12 H -0.7932 0.1969 -0.9606
H13 H -0.8895 0.1551 -0.9032
H14 H -0.7372 0.1276 -0.9199
C17 C -0.7782(3) 0.07119(12) -0.57969(17)
C18 C -1.0257(3) 0.10913(14) -0.5806(2)
H15 H -1.0408 0.0717 -0.5403
H16 H -1.0761 0.1015 -0.6565
C19 C -1.0917(3) 0.16718(15) -0.5438(2)
H17 H -1.0737 0.2041 -0.5829
H18 H -1.0434 0.1735 -0.4681
H19 H -1.2006 0.1614 -0.5568
C20 C -0.6183(3) 0.14852(12) -0.37167(18)
C21 C -0.7175(3) 0.11948(13) -0.3212(2)
C22 C -0.7321(3) 0.05007(13) -0.3270(2)
H20 H -0.8178 0.0314 -0.3135
C23 C -0.7998(3) 0.15704(15) -0.2675(2)
H21 H -0.8663 0.1378 -0.2341
C24 C -0.7814(3) 0.22305(16) -0.2645(2)
H22 H -0.8347 0.2482 -0.2282
C25 C -0.6839(3) 0.25185(15) -0.3154(2)
H23 H -0.6734 0.2963 -0.3138
C26 C -0.6017(3) 0.21477(13) -0.3687(2)
H24 H -0.5358 0.2343 -0.4023
loop_
_geom_bond_atom_site_label_1
_geom_bond_atom_site_label_2
_geom_bond_site_symmetry_1
_geom_bond_site_symmetry_2
O1 C14 1_555 1_555
O2 C14 1_555 1_555
O3 C17 1_555 1_555
O4 C17 1_555 1_555
N1 C12 1_555 1_555
N2 C13 1_555 1_555
N3 N4 1_555 1_555
N4 C22 1_555 1_555
C1 H1 1_555 1_555
C2 C1 1_555 1_555
H2 C2 1_555 1_555
C3 C2 1_555 1_555
H3 C3 1_555 1_555
C4 C3 1_555 1_555
H4 C4 1_555 1_555
C5 C4 1_555 1_555
H5 C5 1_555 1_555
C6 C1 1_555 1_555
C7 C6 1_555 1_555
H6 C7 1_555 1_555
C8 N3 1_555 1_555
C9 N3 1_555 1_555
H7 C9 1_555 1_555
C10 C9 1_555 1_555
C11 C7 1_555 1_555
H8 C11 1_555 1_555
H9 C11 1_555 1_555
C12 C8 1_555 1_555
C13 C8 1_555 1_555
C14 C10 1_555 1_555
C15 O2 1_555 1_555
H10 C15 1_555 1_555
H11 C15 1_555 1_555
C16 C15 1_555 1_555
H12 C16 1_555 1_555
H13 C16 1_555 1_555
H14 C16 1_555 1_555
C17 C10 1_555 1_555
C18 O4 1_555 1_555
H15 C18 1_555 1_555
H16 C18 1_555 1_555
C19 C18 1_555 1_555
H17 C19 1_555 1_555
H18 C19 1_555 1_555
H19 C19 1_555 1_555
C20 C9 1_555 1_555
C21 C20 1_555 1_555
C22 C21 1_555 1_555
H20 C22 1_555 1_555
C23 C21 1_555 1_555
H21 C23 1_555 1_555
C24 C23 1_555 1_555
H22 C24 1_555 1_555
C25 C24 1_555 1_555
H23 C25 1_555 1_555
C26 C20 1_555 1_555
H24 C26 1_555 1_555
C5 C6 1_555 1_555
C7 C8 1_555 1_555
C10 C11 1_555 1_555
C25 C26 1_555 1_555

#END
