
#######################################################################
#
#                 Cambridge Crystallographic Data Centre
#                                CCDC 
#
#######################################################################
#
# If this CIF has been generated from an entry in the Cambridge 
# Structural Database, then it will include bibliographic, chemical, 
# crystal, experimental, refinement or atomic coordinate data resulting 
# from the CCDC's data processing and validation procedures.
#
#######################################################################

data_ZUSXOC
_chemical_formula_moiety         'C24 H26 F2 I1 N1 O4 S1'
_chemical_name_systematic        
'ethyl 2,2-difluoro-3-(4-(iodo(phenyl)methylene)-3-methyl-1-((4-methylphenyl)sulfonyl)pyrrolidin-3-yl)propanoate'
_symmetry_cell_setting           monoclinic
_symmetry_space_group_name_H-M   'P 21/n'
_symmetry_Int_Tables_number      14
_space_group_name_Hall           '-P 2yn'
loop_
_symmetry_equiv_pos_site_id
_symmetry_equiv_pos_as_xyz
1 x,y,z
2 1/2-x,1/2+y,1/2-z
3 -x,-y,-z
4 1/2+x,1/2-y,1/2+z
_cell_length_a                   12.1210(6)
_cell_length_b                   15.7186(8)
_cell_length_c                   25.7853(11)
_cell_angle_alpha                90
_cell_angle_beta                 91.321(4)
_cell_angle_gamma                90
_cell_volume                     4911.44
_exptl_crystal_colour            'light yellow'
_exptl_crystal_description       block
_cell_formula_units_Z            8
loop_
_atom_site_label
_atom_site_type_symbol
_atom_site_fract_x
_atom_site_fract_y
_atom_site_fract_z
I1 I 0.17404(2) 0.539089(18) 0.498531(10)
S1 S 0.08757(9) 0.25648(7) 0.63811(4)
F1 F 0.3230(2) 0.53532(16) 0.73796(10)
F2 F 0.30897(18) 0.49644(16) 0.65695(9)
O1 O 0.2157(2) 0.3757(2) 0.76048(10)
O2 O 0.3424(2) 0.3538(2) 0.70021(11)
O3 O 0.1744(2) 0.22523(18) 0.60700(12)
O4 O 0.0772(3) 0.22805(19) 0.69036(11)
N1 N 0.1045(3) 0.3600(2) 0.64143(11)
C1 C 0.1635(4) 0.7014(3) 0.61126(16)
H1 H 0.2311 0.6778 0.6211
C2 C 0.1403(4) 0.7848(3) 0.62435(17)
H2 H 0.1914 0.8164 0.6437
C3 C 0.0424(4) 0.8207(3) 0.60883(16)
H3 H 0.0268 0.8768 0.6175
C4 C -0.0336(4) 0.7733(3) 0.58024(17)
H4 H -0.1002 0.7980 0.5697
C5 C -0.0118(3) 0.6900(3) 0.56712(15)
H5 H -0.0628 0.6591 0.5474
C6 C 0.0872(3) 0.6524(2) 0.58359(13)
C7 C 0.1094(3) 0.5625(3) 0.57346(14)
C8 C 0.1005(3) 0.4978(3) 0.60565(14)
C9 C 0.0575(3) 0.5019(3) 0.66132(14)
C10 C 0.0226(3) 0.4095(3) 0.66956(15)
H6 H 0.0244 0.3950 0.7061
H7 H -0.0511 0.3994 0.6555
C11 C 0.1251(3) 0.4059(3) 0.59262(15)
H8 H 0.0768 0.3857 0.5648
H9 H 0.2012 0.3992 0.5824
C12 C -0.0431(3) 0.5595(3) 0.66868(15)
H10 H -0.0942 0.5520 0.6401
H11 H -0.0196 0.6178 0.6702
H12 H -0.0783 0.5448 0.7004
C13 C 0.1468(3) 0.5309(3) 0.70152(14)
H13 H 0.1583 0.5913 0.6963
H14 H 0.1157 0.5244 0.7356
C14 C 0.2584(3) 0.4894(3) 0.70314(15)
C15 C 0.2673(3) 0.3976(3) 0.72426(15)
C16 C 0.3629(4) 0.2676(3) 0.7200(2)
H15 H 0.2946 0.2355 0.7205
H16 H 0.3937 0.2700 0.7550
C17 C 0.4415(5) 0.2269(3) 0.6849(2)
H17 H 0.4061 0.2171 0.6518
H18 H 0.4655 0.1736 0.6995
H19 H 0.5041 0.2635 0.6807
C18 C -0.0400(4) 0.2384(3) 0.60562(15)
C19 C -0.0418(4) 0.2227(3) 0.55258(16)
H20 H 0.0235 0.2201 0.5344
C20 C -0.1426(4) 0.2110(3) 0.52747(17)
H21 H -0.1443 0.2000 0.4920
C21 C -0.2403(4) 0.2150(3) 0.55334(18)
C22 C -0.2365(4) 0.2291(3) 0.60681(17)
H22 H -0.3016 0.2304 0.6252
C23 C -0.1366(4) 0.2411(3) 0.63259(16)
H23 H -0.1346 0.2509 0.6682
C24 C -0.3486(4) 0.2056(3) 0.5234(2)
H24 H -0.3767 0.2609 0.5144
H25 H -0.4009 0.1766 0.5445
H26 H -0.3370 0.1734 0.4924
I2 I 0.67285(2) 0.729421(18) 0.500904(10)
S2 S 0.56548(9) 0.99472(7) 0.64623(4)
F3 F 0.8135(2) 0.71580(17) 0.74381(10)
F4 F 0.80250(19) 0.75611(16) 0.66319(9)
O5 O 0.7021(2) 0.8738(2) 0.76669(10)
O6 O 0.8294(2) 0.89928(19) 0.70633(11)
O7 O 0.6499(2) 1.03111(18) 0.61569(12)
O8 O 0.5532(3) 1.02029(19) 0.69895(10)
N2 N 0.5890(3) 0.8920(2) 0.64791(12)
C25 C 0.6722(3) 0.5566(3) 0.61071(16)
H27 H 0.7346 0.5830 0.6248
C26 C 0.6564(4) 0.4711(3) 0.61887(17)
H28 H 0.7083 0.4403 0.6382
C27 C 0.5653(4) 0.4310(3) 0.59882(18)
H29 H 0.5549 0.3732 0.6046
C28 C 0.4886(4) 0.4766(3) 0.56982(17)
H30 H 0.4266 0.4494 0.5559
C29 C 0.5037(3) 0.5623(3) 0.56151(16)
H31 H 0.4512 0.5926 0.5422
C30 C 0.5962(3) 0.6041(3) 0.58160(14)
C31 C 0.6116(3) 0.6959(3) 0.57524(14)
C32 C 0.5975(3) 0.7570(3) 0.60922(14)
C33 C 0.6160(3) 0.8502(3) 0.59868(15)
H32 H 0.6921 0.8609 0.5898
H33 H 0.5680 0.8700 0.5706
C34 C 0.5099(3) 0.8376(3) 0.67467(14)
H34 H 0.4357 0.8455 0.6605
H35 H 0.5102 0.8497 0.7116
C35 C 0.5512(3) 0.7481(3) 0.66442(14)
C36 C 0.4552(3) 0.6858(3) 0.66863(16)
H36 H 0.4034 0.6953 0.6405
H37 H 0.4192 0.6945 0.7010
H38 H 0.4825 0.6286 0.6671
C37 C 0.6395(3) 0.7194(3) 0.70536(14)
H39 H 0.6065 0.7246 0.7391
H40 H 0.6526 0.6593 0.6997
C38 C 0.7497(3) 0.7619(3) 0.70890(16)
C39 C 0.7555(3) 0.8532(3) 0.73019(15)
C40 C 0.8463(4) 0.9857(3) 0.72582(18)
H41 H 0.8748 0.9843 0.7613
H42 H 0.7771 1.0167 0.7251
C41 C 0.9261(5) 1.0273(3) 0.6919(2)
H43 H 0.8948 1.0323 0.6575
H44 H 0.9923 0.9938 0.6909
H45 H 0.9434 1.0829 0.7052
C42 C 0.4390(3) 1.0089(3) 0.61312(15)
C43 C 0.4356(4) 1.0206(3) 0.55998(15)
H46 H 0.5007 1.0247 0.5418
C44 C 0.3351(4) 1.0260(3) 0.53418(18)
H47 H 0.3337 1.0326 0.4983
C45 C 0.2373(4) 1.0222(3) 0.55960(18)
C46 C 0.2413(4) 1.0117(3) 0.61349(18)
H48 H 0.1759 1.0091 0.6316
C47 C 0.3403(4) 1.0051(3) 0.63975(16)
H49 H 0.3418 0.9982 0.6756
C48 C 0.1293(4) 1.0260(3) 0.5299(2)
H50 H 0.1403 1.0521 0.4968
H51 H 0.0774 1.0590 0.5491
H52 H 0.1011 0.9694 0.5250
loop_
_geom_bond_atom_site_label_1
_geom_bond_atom_site_label_2
_geom_bond_site_symmetry_1
_geom_bond_site_symmetry_2
I1 C7 1_555 1_555
S1 O3 1_555 1_555
F1 C14 1_555 1_555
F2 C14 1_555 1_555
O1 C15 1_555 1_555
O2 C15 1_555 1_555
O4 S1 1_555 1_555
N1 S1 1_555 1_555
C1 H1 1_555 1_555
C2 C1 1_555 1_555
H2 C2 1_555 1_555
C3 C2 1_555 1_555
H3 C3 1_555 1_555
C4 C3 1_555 1_555
H4 C4 1_555 1_555
C5 C4 1_555 1_555
H5 C5 1_555 1_555
C6 C1 1_555 1_555
C7 C6 1_555 1_555
C8 C7 1_555 1_555
C9 C8 1_555 1_555
C10 N1 1_555 1_555
H6 C10 1_555 1_555
H7 C10 1_555 1_555
C11 N1 1_555 1_555
H8 C11 1_555 1_555
H9 C11 1_555 1_555
C12 C9 1_555 1_555
H10 C12 1_555 1_555
H11 C12 1_555 1_555
H12 C12 1_555 1_555
C13 C9 1_555 1_555
H13 C13 1_555 1_555
H14 C13 1_555 1_555
C14 C13 1_555 1_555
C15 C14 1_555 1_555
C16 O2 1_555 1_555
H15 C16 1_555 1_555
H16 C16 1_555 1_555
C17 C16 1_555 1_555
H17 C17 1_555 1_555
H18 C17 1_555 1_555
H19 C17 1_555 1_555
C18 S1 1_555 1_555
C19 C18 1_555 1_555
H20 C19 1_555 1_555
C20 C19 1_555 1_555
H21 C20 1_555 1_555
C21 C20 1_555 1_555
C22 C21 1_555 1_555
H22 C22 1_555 1_555
C23 C18 1_555 1_555
H23 C23 1_555 1_555
C24 C21 1_555 1_555
H24 C24 1_555 1_555
H25 C24 1_555 1_555
H26 C24 1_555 1_555
I2 C31 1_555 1_555
S2 O7 1_555 1_555
F3 C38 1_555 1_555
F4 C38 1_555 1_555
O5 C39 1_555 1_555
O6 C39 1_555 1_555
O8 S2 1_555 1_555
N2 S2 1_555 1_555
C25 H27 1_555 1_555
C26 C25 1_555 1_555
H28 C26 1_555 1_555
C27 C26 1_555 1_555
H29 C27 1_555 1_555
C28 C27 1_555 1_555
H30 C28 1_555 1_555
C29 C28 1_555 1_555
H31 C29 1_555 1_555
C30 C25 1_555 1_555
C31 C30 1_555 1_555
C32 C31 1_555 1_555
C33 N2 1_555 1_555
H32 C33 1_555 1_555
H33 C33 1_555 1_555
C34 N2 1_555 1_555
H34 C34 1_555 1_555
H35 C34 1_555 1_555
C35 C32 1_555 1_555
C36 C35 1_555 1_555
H36 C36 1_555 1_555
H37 C36 1_555 1_555
H38 C36 1_555 1_555
C37 C35 1_555 1_555
H39 C37 1_555 1_555
H40 C37 1_555 1_555
C38 C37 1_555 1_555
C39 C38 1_555 1_555
C40 O6 1_555 1_555
H41 C40 1_555 1_555
H42 C40 1_555 1_555
C41 C40 1_555 1_555
H43 C41 1_555 1_555
H44 C41 1_555 1_555
H45 C41 1_555 1_555
C42 S2 1_555 1_555
C43 C42 1_555 1_555
H46 C43 1_555 1_555
C44 C43 1_555 1_555
H47 C44 1_555 1_555
C45 C44 1_555 1_555
C46 C45 1_555 1_555
H48 C46 1_555 1_555
C47 C42 1_555 1_555
H49 C47 1_555 1_555
C48 C45 1_555 1_555
H50 C48 1_555 1_555
H51 C48 1_555 1_555
H52 C48 1_555 1_555
C5 C6 1_555 1_555
C8 C11 1_555 1_555
C9 C10 1_555 1_555
C22 C23 1_555 1_555
C29 C30 1_555 1_555
C32 C33 1_555 1_555
C34 C35 1_555 1_555
C46 C47 1_555 1_555

#END
