
#######################################################################
#
#                 Cambridge Crystallographic Data Centre
#                                CCDC 
#
#######################################################################
#
# If this CIF has been generated from an entry in the Cambridge 
# Structural Database, then it will include bibliographic, chemical, 
# crystal, experimental, refinement or atomic coordinate data resulting 
# from the CCDC's data processing and validation procedures.
#
#######################################################################

data_ZUTCUO
_chemical_formula_moiety         'C20 H18 N2 O3'
_chemical_name_systematic        
(3R,3aS,6aR)-5-Methyl-2-phenyl-3-((E)-styryl)-dihydro-2H-pyrrolo(3,4-d)isoxazole-4,6(5H,6aH)-dione
_symmetry_cell_setting           orthorhombic
_symmetry_space_group_name_H-M   'P b c a'
_symmetry_Int_Tables_number      61
_space_group_name_Hall           '-P 2ac 2ab'
loop_
_symmetry_equiv_pos_site_id
_symmetry_equiv_pos_as_xyz
1 x,y,z
2 1/2-x,-y,1/2+z
3 1/2+x,1/2-y,-z
4 -x,1/2+y,1/2-z
5 -x,-y,-z
6 1/2+x,y,1/2-z
7 1/2-x,1/2+y,z
8 x,1/2-y,1/2+z
_cell_length_a                   10.6882(2)
_cell_length_b                   16.7476(4)
_cell_length_c                   18.4970(13)
_cell_angle_alpha                90
_cell_angle_beta                 90
_cell_angle_gamma                90
_cell_volume                     3310.99
_exptl_crystal_colour            colorless
_exptl_crystal_description       block
_cell_formula_units_Z            8
loop_
_atom_site_label
_atom_site_type_symbol
_atom_site_fract_x
_atom_site_fract_y
_atom_site_fract_z
O1 O 0.8744(2) 0.03697(14) 0.61885(12)
O2 O 0.4797(2) 0.09809(18) 0.55559(14)
O3 O 0.7332(3) 0.0827(2) 0.75218(13)
N1 N 0.8505(2) 0.09765(16) 0.56245(13)
N2 N 0.5912(2) 0.10290(17) 0.66103(15)
C1 C 0.6969(3) 0.1046(2) 0.45904(17)
H1 H 0.6813 0.1579 0.4699
C2 C 0.6594(3) 0.0758(2) 0.39579(17)
H2 H 0.6956 0.0280 0.3811
C3 C 0.5675(3) 0.1109(2) 0.34665(17)
C4 C 0.5688(3) 0.0764(2) 0.59147(19)
C5 C 0.7636(3) 0.05411(19) 0.51351(16)
H3 H 0.8080 0.0106 0.4892
C6 C 0.6712(3) 0.0198(2) 0.56974(16)
H4 H 0.6373 -0.0318 0.5542
C7 C 0.4952(3) 0.1766(2) 0.36500(19)
H5 H 0.5097 0.2026 0.4086
C8 C 0.9706(3) 0.12074(19) 0.53599(17)
C9 C 0.5423(4) 0.0725(2) 0.28092(18)
H6 H 0.5889 0.0281 0.2674
C10 C 0.6942(3) 0.0684(2) 0.69199(18)
C11 C 0.7514(3) 0.0114(2) 0.63740(17)
H7 H 0.7513 -0.0436 0.6554
C12 C 0.9881(3) 0.1458(3) 0.4660(2)
H8 H 0.9220 0.1441 0.4334
C13 C 1.0716(3) 0.1236(2) 0.5841(2)
H9 H 1.0617 0.1066 0.6316
C14 C 1.1041(4) 0.1736(3) 0.4441(2)
H10 H 1.1148 0.1905 0.3966
C15 C 0.4019(4) 0.2042(3) 0.3197(2)
H11 H 0.3551 0.2488 0.3327
C16 C 1.1860(3) 0.1519(2) 0.5606(2)
H12 H 1.2526 0.1539 0.5929
C17 C 0.5130(4) 0.1607(3) 0.6984(2)
H13 H 0.4458 0.1769 0.6673
H14 H 0.5623 0.2064 0.7113
H15 H 0.4792 0.1368 0.7414
C18 C 1.2034(4) 0.1770(2) 0.4909(2)
H16 H 1.2808 0.1958 0.4756
C19 C 0.4484(4) 0.1003(3) 0.2362(2)
H17 H 0.4330 0.0743 0.1927
C20 C 0.3778(4) 0.1653(3) 0.2545(2)
H18 H 0.3147 0.1833 0.2240
loop_
_geom_bond_atom_site_label_1
_geom_bond_atom_site_label_2
_geom_bond_site_symmetry_1
_geom_bond_site_symmetry_2
O1 N1 1_555 1_555
O2 C4 1_555 1_555
O3 C10 1_555 1_555
N1 C5 1_555 1_555
N2 C4 1_555 1_555
C1 H1 1_555 1_555
C2 C1 1_555 1_555
H2 C2 1_555 1_555
C3 C2 1_555 1_555
C4 C6 1_555 1_555
C5 C1 1_555 1_555
H3 C5 1_555 1_555
C6 C5 1_555 1_555
H4 C6 1_555 1_555
C7 C3 1_555 1_555
H5 C7 1_555 1_555
C8 N1 1_555 1_555
C9 C3 1_555 1_555
H6 C9 1_555 1_555
C10 N2 1_555 1_555
C11 O1 1_555 1_555
H7 C11 1_555 1_555
C12 C8 1_555 1_555
H8 C12 1_555 1_555
C13 C8 1_555 1_555
H9 C13 1_555 1_555
C14 C12 1_555 1_555
H10 C14 1_555 1_555
C15 C7 1_555 1_555
H11 C15 1_555 1_555
C16 C13 1_555 1_555
H12 C16 1_555 1_555
C17 N2 1_555 1_555
H13 C17 1_555 1_555
H14 C17 1_555 1_555
H15 C17 1_555 1_555
C18 C14 1_555 1_555
H16 C18 1_555 1_555
C19 C9 1_555 1_555
H17 C19 1_555 1_555
C20 C15 1_555 1_555
H18 C20 1_555 1_555
C6 C11 1_555 1_555
C10 C11 1_555 1_555
C16 C18 1_555 1_555
C19 C20 1_555 1_555

#END
