
#######################################################################
#
#                 Cambridge Crystallographic Data Centre
#                                CCDC 
#
#######################################################################
#
# If this CIF has been generated from an entry in the Cambridge 
# Structural Database, then it will include bibliographic, chemical, 
# crystal, experimental, refinement or atomic coordinate data resulting 
# from the CCDC's data processing and validation procedures.
#
#######################################################################

data_ZUTDAV
_chemical_formula_moiety         'C20 H18 N2 O3'
_chemical_name_systematic        
(3S,3aS,6aR)-5-Methyl-2-phenyl-3-((E)-styryl)-dihydro-2H-pyrrolo(3,4-d)isoxazole-4,6(5H,6aH)-dione
_symmetry_cell_setting           monoclinic
_symmetry_space_group_name_H-M   'P 21/n'
_symmetry_Int_Tables_number      14
_space_group_name_Hall           '-P 2yn'
loop_
_symmetry_equiv_pos_site_id
_symmetry_equiv_pos_as_xyz
1 x,y,z
2 1/2-x,1/2+y,1/2-z
3 -x,-y,-z
4 1/2+x,1/2-y,1/2+z
_cell_length_a                   11.9745(4)
_cell_length_b                   7.6299(3)
_cell_length_c                   18.3877(12)
_cell_angle_alpha                90
_cell_angle_beta                 93.153(7)
_cell_angle_gamma                90
_cell_volume                     1677.44
_exptl_crystal_colour            colorless
_exptl_crystal_description       prism
_cell_formula_units_Z            4
loop_
_atom_site_label
_atom_site_type_symbol
_atom_site_fract_x
_atom_site_fract_y
_atom_site_fract_z
O1 O 0.37919(18) 0.5043(3) 0.72480(11)
O2 O 0.45795(19) 0.2348(3) 0.52534(12)
O3 O 0.3973(2) 0.1114(3) 0.76190(13)
N1 N 0.44346(19) 0.1425(3) 0.64285(13)
N2 N 0.4519(2) 0.5864(3) 0.67462(13)
C1 C 0.4182(2) 0.2497(4) 0.58403(16)
C2 C 0.2981(2) 0.7152(4) 0.60064(17)
H1 H 0.2494 0.7214 0.6382
C3 C 0.2035(2) 0.9741(4) 0.54172(17)
C4 C 0.5621(2) 0.5091(4) 0.67992(16)
C5 C 0.2855(2) 0.8298(4) 0.54744(16)
H2 H 0.3333 0.8188 0.5095
C6 C 0.3891(3) 0.1886(4) 0.70418(17)
C7 C 0.1471(3) 1.0316(4) 0.6016(2)
H3 H 0.1614 0.9781 0.6466
C8 C 0.3864(2) 0.5747(4) 0.60454(16)
H4 H 0.4354 0.5860 0.5638
C9 C 0.1807(3) 1.0589(5) 0.4759(2)
H5 H 0.2184 1.0252 0.4353
C10 C 0.3360(2) 0.3891(4) 0.60634(16)
H6 H 0.2641 0.3813 0.5783
C11 C 0.6013(3) 0.4275(4) 0.74363(18)
H7 H 0.5557 0.4182 0.7828
C12 C 0.6325(3) 0.5278(4) 0.62265(18)
H8 H 0.6082 0.5872 0.5805
C13 C 0.7086(3) 0.3597(5) 0.7487(2)
H9 H 0.7345 0.3044 0.7914
C14 C 0.5285(3) 0.0064(4) 0.6419(2)
H10 H 0.5307 -0.0408 0.5936
H11 H 0.5109 -0.0853 0.6751
H12 H 0.6002 0.0555 0.6563
C15 C 0.7776(3) 0.3727(5) 0.6917(2)
H13 H 0.8492 0.3252 0.6954
C16 C 0.1027(3) 1.1930(5) 0.4697(2)
H14 H 0.0879 1.2472 0.4249
C17 C 0.3242(3) 0.3561(4) 0.68738(17)
H15 H 0.2457 0.3456 0.6992
C18 C 0.7391(3) 0.4570(5) 0.6291(2)
H16 H 0.7856 0.4666 0.5904
C19 C 0.0708(3) 1.1657(5) 0.5953(3)
H17 H 0.0345 1.2027 0.6360
C20 C 0.0475(3) 1.2461(5) 0.5288(3)
H18 H -0.0052 1.3355 0.5244
loop_
_geom_bond_atom_site_label_1
_geom_bond_atom_site_label_2
_geom_bond_site_symmetry_1
_geom_bond_site_symmetry_2
O1 N2 1_555 1_555
O2 C1 1_555 1_555
O3 C6 1_555 1_555
N1 C1 1_555 1_555
N2 C4 1_555 1_555
C1 C10 1_555 1_555
C2 H1 1_555 1_555
C3 C5 1_555 1_555
C4 C11 1_555 1_555
C5 C2 1_555 1_555
H2 C5 1_555 1_555
C6 N1 1_555 1_555
C7 C3 1_555 1_555
H3 C7 1_555 1_555
C8 N2 1_555 1_555
H4 C8 1_555 1_555
C9 C3 1_555 1_555
H5 C9 1_555 1_555
C10 C8 1_555 1_555
H6 C10 1_555 1_555
C11 H7 1_555 1_555
C12 C4 1_555 1_555
H8 C12 1_555 1_555
C13 C11 1_555 1_555
H9 C13 1_555 1_555
C14 N1 1_555 1_555
H10 C14 1_555 1_555
H11 C14 1_555 1_555
H12 C14 1_555 1_555
C15 C13 1_555 1_555
H13 C15 1_555 1_555
C16 C9 1_555 1_555
H14 C16 1_555 1_555
C17 O1 1_555 1_555
H15 C17 1_555 1_555
C18 C12 1_555 1_555
H16 C18 1_555 1_555
C19 C7 1_555 1_555
H17 C19 1_555 1_555
C20 C16 1_555 1_555
H18 C20 1_555 1_555
C2 C8 1_555 1_555
C6 C17 1_555 1_555
C10 C17 1_555 1_555
C15 C18 1_555 1_555
C19 C20 1_555 1_555

#END
