
#######################################################################
#
#                 Cambridge Crystallographic Data Centre
#                                CCDC 
#
#######################################################################
#
# If this CIF has been generated from an entry in the Cambridge 
# Structural Database, then it will include bibliographic, chemical, 
# crystal, experimental, refinement or atomic coordinate data resulting 
# from the CCDC's data processing and validation procedures.
#
#######################################################################

data_ZUTGIG
_chemical_formula_moiety         'C24 H24 F3 N1 O4 S1'
_chemical_name_systematic        
'Methyl 6-ethyl-4-((4-methylphenyl)sulfonyl)-3-phenyl-1-(trifluoromethyl)-2-azabicyclo[3.2.0]hept-2-ene-7-carboxylate'
_symmetry_cell_setting           triclinic
_symmetry_space_group_name_H-M   'P -1'
_symmetry_Int_Tables_number      2
_space_group_name_Hall           '-P 1'
loop_
_symmetry_equiv_pos_site_id
_symmetry_equiv_pos_as_xyz
1 x,y,z
2 -x,-y,-z
_cell_length_a                   10.5620(12)
_cell_length_b                   11.1083(13)
_cell_length_c                   11.2554(13)
_cell_angle_alpha                85.470(3)
_cell_angle_beta                 66.868(3)
_cell_angle_gamma                84.789(3)
_cell_volume                     1208.01
_exptl_crystal_colour            colorless
_exptl_crystal_description       prismatic
_cell_formula_units_Z            2
loop_
_atom_site_label
_atom_site_type_symbol
_atom_site_fract_x
_atom_site_fract_y
_atom_site_fract_z
S1 S 0.63247(6) 0.27284(6) 0.10847(6)
F1 F 0.8054(2) 0.41350(17) 0.4010(2)
F2 F 0.95167(19) 0.26987(19) 0.3913(2)
F3 F 0.91954(18) 0.33414(19) 0.22156(17)
N1 N 0.79985(19) 0.11258(17) 0.30873(18)
O1 O 0.63976(19) -0.00668(18) 0.6074(2)
O2 O 0.75584(16) 0.33519(18) 0.07104(17)
O3 O 0.6181(2) 0.19518(18) 0.01942(17)
C1 C 0.7290(2) 0.0924(2) 0.2437(2)
C2 C 0.6090(2) 0.1856(2) 0.2571(2)
H1 H 0.5228 0.1447 0.2865
C3 C 0.6081(2) 0.2614(2) 0.3637(2)
H2 H 0.5926 0.3488 0.3500
C4 C 0.7450(2) 0.2220(2) 0.3796(2)
C5 C 0.6624(2) 0.1991(2) 0.5272(2)
H3 H 0.6666 0.2681 0.5743
C6 C 0.5277(2) 0.2107(2) 0.5037(2)
H4 H 0.4978 0.1302 0.5016
C7 C 0.4082(3) 0.2890(3) 0.5917(2)
H5 H 0.4373 0.3701 0.5879
H6 H 0.3817 0.2566 0.6801
C8 C 0.2848(3) 0.2953(3) 0.5543(3)
H7 H 0.3081 0.3347 0.4701
H8 H 0.2090 0.3403 0.6163
H9 H 0.2592 0.2149 0.5529
C9 C 0.8560(3) 0.3089(3) 0.3472(3)
C10 C 0.6981(3) 0.0829(2) 0.5888(2)
C11 C 0.7576(2) -0.0161(2) 0.1674(2)
C12 C 0.8835(3) -0.0829(3) 0.1362(3)
H10 H 0.9504 -0.0579 0.1615
C13 C 0.9089(3) -0.1865(3) 0.0674(3)
H11 H 0.9936 -0.2304 0.0454
C14 C 0.8100(4) -0.2244(3) 0.0318(3)
H12 H 0.8273 -0.2950 -0.0128
C15 C 0.6860(3) -0.1600(3) 0.0610(3)
H13 H 0.6196 -0.1863 0.0358
C16 C 0.6600(3) -0.0565(2) 0.1277(2)
H14 H 0.5757 -0.0124 0.1468
C17 C 0.4906(2) 0.3784(2) 0.1555(2)
C18 C 0.3598(3) 0.3408(3) 0.1865(3)
H15 H 0.3469 0.2596 0.1833
C19 C 0.2495(3) 0.4240(3) 0.2219(3)
H16 H 0.1616 0.3979 0.2438
C20 C 0.2644(3) 0.5451(3) 0.2261(2)
C21 C 0.3954(3) 0.5818(2) 0.1946(2)
H17 H 0.4080 0.6632 0.1966
C22 C 0.5082(2) 0.4991(2) 0.1601(2)
H18 H 0.5959 0.5249 0.1400
C23 C 0.1403(3) 0.6354(3) 0.2647(3)
H19 H 0.1697 0.7150 0.2633
H20 H 0.0765 0.6139 0.3502
H21 H 0.0960 0.6347 0.2048
O4 O 0.8232(6) 0.0841(8) 0.6021(8)
C24 C 0.8704(8) -0.0243(8) 0.6584(8)
H22 H 0.8016 -0.0434 0.7422
H23 H 0.9549 -0.0103 0.6666
H24 H 0.8858 -0.0905 0.6035
O5? O 0.7725(10) 0.1065(13) 0.6464(12)
C25? C 0.8093(12) 0.0070(11) 0.7225(13)
H25? H 0.7358 -0.0004 0.8062
H26? H 0.8923 0.0232 0.7322
H27? H 0.8237 -0.0670 0.6790
loop_
_geom_bond_atom_site_label_1
_geom_bond_atom_site_label_2
_geom_bond_site_symmetry_1
_geom_bond_site_symmetry_2
S1 O2 1_555 1_555
F1 C9 1_555 1_555
F2 C9 1_555 1_555
F3 C9 1_555 1_555
N1 C1 1_555 1_555
O1 C10 1_555 1_555
O3 S1 1_555 1_555
C1 C2 1_555 1_555
C2 S1 1_555 1_555
H1 C2 1_555 1_555
C3 C2 1_555 1_555
H2 C3 1_555 1_555
C4 N1 1_555 1_555
C5 C4 1_555 1_555
H3 C5 1_555 1_555
C6 C3 1_555 1_555
H4 C6 1_555 1_555
C7 C6 1_555 1_555
H5 C7 1_555 1_555
H6 C7 1_555 1_555
C8 C7 1_555 1_555
H7 C8 1_555 1_555
H8 C8 1_555 1_555
H9 C8 1_555 1_555
C9 C4 1_555 1_555
C10 C5 1_555 1_555
C11 C1 1_555 1_555
C12 C11 1_555 1_555
H10 C12 1_555 1_555
C13 C12 1_555 1_555
H11 C13 1_555 1_555
C14 C13 1_555 1_555
H12 C14 1_555 1_555
C15 C14 1_555 1_555
H13 C15 1_555 1_555
C16 C11 1_555 1_555
H14 C16 1_555 1_555
C17 S1 1_555 1_555
C18 C17 1_555 1_555
H15 C18 1_555 1_555
C19 C18 1_555 1_555
H16 C19 1_555 1_555
C20 C19 1_555 1_555
C21 C20 1_555 1_555
H17 C21 1_555 1_555
C22 C17 1_555 1_555
H18 C22 1_555 1_555
C23 C20 1_555 1_555
H19 C23 1_555 1_555
H20 C23 1_555 1_555
H21 C23 1_555 1_555
O4 C10 1_555 1_555
C24 O4 1_555 1_555
H22 C24 1_555 1_555
H23 C24 1_555 1_555
H24 C24 1_555 1_555
C3 C4 1_555 1_555
C5 C6 1_555 1_555
C15 C16 1_555 1_555
C21 C22 1_555 1_555

#END
