
#######################################################################
#
#                 Cambridge Crystallographic Data Centre
#                                CCDC 
#
#######################################################################
#
# If this CIF has been generated from an entry in the Cambridge 
# Structural Database, then it will include bibliographic, chemical, 
# crystal, experimental, refinement or atomic coordinate data resulting 
# from the CCDC's data processing and validation procedures.
#
#######################################################################

data_ZUTGEC
_chemical_formula_moiety         'C28 H24 F3 N1 O4 S1'
_chemical_name_systematic        
'Methyl 4-((4-methylphenyl)sulfonyl)-3,6-diphenyl-1-(trifluoromethyl)-2-azabicyclo[3.2.0]hept-2-ene-7-carboxylate'
_symmetry_cell_setting           triclinic
_symmetry_space_group_name_H-M   'P -1'
_symmetry_Int_Tables_number      2
_space_group_name_Hall           '-P 1'
loop_
_symmetry_equiv_pos_site_id
_symmetry_equiv_pos_as_xyz
1 x,y,z
2 -x,-y,-z
_cell_length_a                   10.2147(13)
_cell_length_b                   11.3900(14)
_cell_length_c                   12.1881(15)
_cell_angle_alpha                68.285(2)
_cell_angle_beta                 71.067(2)
_cell_angle_gamma                83.510(3)
_cell_volume                     1246.09
_exptl_crystal_colour            colorless
_exptl_crystal_description       prismatic
_cell_formula_units_Z            2
loop_
_atom_site_label
_atom_site_type_symbol
_atom_site_fract_x
_atom_site_fract_y
_atom_site_fract_z
S1 S 0.23615(6) 0.38463(5) 0.04118(4)
F1 F 0.41042(14) 0.21398(13) 0.33261(13)
F2 F 0.34521(16) 0.23236(15) 0.50917(13)
F3 F 0.48013(14) 0.37123(14) 0.35472(16)
N1 N 0.13488(17) 0.29131(14) 0.39083(14)
O1 O 0.3532(2) 0.59660(18) 0.45100(16)
O2 O 0.22014(19) 0.43611(16) 0.59598(14)
O3 O 0.33755(17) 0.48138(14) -0.04105(13)
O4 O 0.12432(17) 0.36854(17) 0.00124(14)
C1 C 0.2502(2) 0.37377(18) 0.35567(17)
C2 C 0.2074(2) 0.49150(18) 0.39634(18)
H1 H 0.1063 0.4926 0.4301
C3 C 0.2512(2) 0.57939(18) 0.25939(18)
H2 H 0.3408 0.6182 0.2396
C4 C 0.2760(2) 0.46196(17) 0.21802(17)
H3 H 0.3700 0.4573 0.1641
C5 C 0.1631(2) 0.42173(17) 0.18191(17)
H4 H 0.0994 0.4925 0.1657
C6 C 0.08638(19) 0.31557(17) 0.30006(17)
C7 C -0.03856(19) 0.24928(17) 0.31726(18)
C8 C -0.1168(2) 0.2919(2) 0.2362(2)
H5 H -0.0898 0.3647 0.1664
C9 C -0.2340(2) 0.2275(2) 0.2581(2)
H6 H -0.2861 0.2576 0.2035
C10 C -0.2747(2) 0.1196(3) 0.3598(3)
H7 H -0.3531 0.0756 0.3733
C11 C -0.1988(3) 0.0764(2) 0.4421(3)
H8 H -0.2266 0.0034 0.5114
C12 C -0.0827(2) 0.1405(2) 0.4221(2)
H9 H -0.0329 0.1115 0.4787
C13 C 0.1523(2) 0.68127(18) 0.21817(19)
C14 C 0.0672(2) 0.7357(2) 0.3007(2)
H10 H 0.0726 0.7094 0.3810
C15 C -0.0252(3) 0.8284(2) 0.2646(3)
H11 H -0.0812 0.8652 0.3202
C16 C -0.0347(3) 0.8667(2) 0.1459(3)
H12 H -0.0991 0.9274 0.1224
C17 C 0.0509(3) 0.8151(2) 0.0626(3)
H13 H 0.0459 0.8421 -0.0178
C18 C 0.1440(3) 0.7234(2) 0.0984(2)
H14 H 0.2021 0.6893 0.0414
C19 C 0.2703(2) 0.5160(2) 0.4820(2)
C20 C 0.2808(3) 0.4367(3) 0.6873(2)
H15 H 0.3754 0.4101 0.6662
H16 H 0.2301 0.3798 0.7675
H17 H 0.2773 0.5205 0.6892
C21 C 0.3716(2) 0.2975(2) 0.3891(2)
C22 C 0.3211(2) 0.23940(19) 0.08436(19)
C23 C 0.4621(2) 0.2364(2) 0.0661(2)
H18 H 0.5133 0.3110 0.0296
C24 C 0.5258(3) 0.1217(2) 0.1026(2)
H19 H 0.6209 0.1198 0.0891
C25 C 0.4523(3) 0.0095(2) 0.1587(2)
C26 C 0.3116(3) 0.0153(2) 0.1741(3)
H20 H 0.2606 -0.0595 0.2101
C27 C 0.2452(2) 0.1279(2) 0.1380(2)
H21 H 0.1506 0.1295 0.1494
C28 C 0.5233(4) -0.1148(3) 0.2021(3)
H22 H 0.5821 -0.1338 0.1315
H23 H 0.4550 -0.1805 0.2515
H24 H 0.5780 -0.1093 0.2509
loop_
_geom_bond_atom_site_label_1
_geom_bond_atom_site_label_2
_geom_bond_site_symmetry_1
_geom_bond_site_symmetry_2
S1 O3 1_555 1_555
F1 C21 1_555 1_555
F2 C21 1_555 1_555
F3 C21 1_555 1_555
N1 C1 1_555 1_555
O1 C19 1_555 1_555
O2 C19 1_555 1_555
O4 S1 1_555 1_555
C1 C2 1_555 1_555
C2 H1 1_555 1_555
C3 C2 1_555 1_555
H2 C3 1_555 1_555
C4 C1 1_555 1_555
H3 C4 1_555 1_555
C5 S1 1_555 1_555
H4 C5 1_555 1_555
C6 N1 1_555 1_555
C7 C6 1_555 1_555
C8 C7 1_555 1_555
H5 C8 1_555 1_555
C9 C8 1_555 1_555
H6 C9 1_555 1_555
C10 C9 1_555 1_555
H7 C10 1_555 1_555
C11 C10 1_555 1_555
H8 C11 1_555 1_555
C12 C7 1_555 1_555
H9 C12 1_555 1_555
C13 C3 1_555 1_555
C14 C13 1_555 1_555
H10 C14 1_555 1_555
C15 C14 1_555 1_555
H11 C15 1_555 1_555
C16 C15 1_555 1_555
H12 C16 1_555 1_555
C17 C16 1_555 1_555
H13 C17 1_555 1_555
C18 C13 1_555 1_555
H14 C18 1_555 1_555
C19 C2 1_555 1_555
C20 O2 1_555 1_555
H15 C20 1_555 1_555
H16 C20 1_555 1_555
H17 C20 1_555 1_555
C21 C1 1_555 1_555
C22 S1 1_555 1_555
C23 C22 1_555 1_555
H18 C23 1_555 1_555
C24 C23 1_555 1_555
H19 C24 1_555 1_555
C25 C24 1_555 1_555
C26 C25 1_555 1_555
H20 C26 1_555 1_555
C27 C22 1_555 1_555
H21 C27 1_555 1_555
C28 C25 1_555 1_555
H22 C28 1_555 1_555
H23 C28 1_555 1_555
H24 C28 1_555 1_555
C3 C4 1_555 1_555
C4 C5 1_555 1_555
C5 C6 1_555 1_555
C11 C12 1_555 1_555
C17 C18 1_555 1_555
C26 C27 1_555 1_555

#END
