
#######################################################################
#
#                 Cambridge Crystallographic Data Centre
#                                CCDC 
#
#######################################################################
#
# If this CIF has been generated from an entry in the Cambridge 
# Structural Database, then it will include bibliographic, chemical, 
# crystal, experimental, refinement or atomic coordinate data resulting 
# from the CCDC's data processing and validation procedures.
#
#######################################################################

data_ZUTJED
_chemical_formula_moiety         'C24 H34 Li1 N1 O1 Si1'
_chemical_name_systematic        
(\h^2^,\s^1^-(9-(Isopropylamino(dimethyl)silylmethyl)fluorenyl))-(tetrahydrofuran)-lithium
_symmetry_cell_setting           monoclinic
_symmetry_space_group_name_H-M   'P 21/c'
_symmetry_Int_Tables_number      14
_space_group_name_Hall           '-P 2ybc'
loop_
_symmetry_equiv_pos_site_id
_symmetry_equiv_pos_as_xyz
1 x,y,z
2 -x,1/2+y,1/2-z
3 -x,-y,-z
4 x,1/2-y,1/2+z
_cell_length_a                   14.755(3)
_cell_length_b                   11.494(2)
_cell_length_c                   14.836(3)
_cell_angle_alpha                90
_cell_angle_beta                 110.52(1)
_cell_angle_gamma                90
_cell_volume                     2356.45
_exptl_crystal_colour            scarlet
_chemical_melting_point          105-108deg.C
_cell_formula_units_Z            4
loop_
_atom_site_label
_atom_site_type_symbol
_atom_site_fract_x
_atom_site_fract_y
_atom_site_fract_z
Si1 Si 0.6643(1) 0.1453(2) 0.2289(1)
O1 O 0.7751(3) -0.2028(3) 0.3697(2)
N1 N 0.7693(3) 0.1053(4) 0.3235(3)
C1 C 0.7325(3) -0.0306(4) 0.1330(3)
C2 C 0.6781(3) -0.1343(5) 0.1136(3)
C3 C 0.5790(4) -0.1573(6) 0.0764(4)
C4 C 0.5453(4) -0.2701(6) 0.0608(4)
C5 C 0.6102(4) -0.3638(6) 0.0812(4)
C6 C 0.7072(4) -0.3458(5) 0.1169(4)
C7 C 0.7439(3) -0.2320(5) 0.1322(3)
C8 C 0.8390(3) -0.1854(5) 0.1653(3)
C9 C 0.9301(4) -0.2383(5) 0.1934(4)
C10 C 1.0116(4) -0.1707(6) 0.2218(4)
C11 C 1.0042(4) -0.0510(6) 0.2202(4)
C12 C 0.9163(4) 0.0040(5) 0.1923(4)
C13 C 0.8303(3) -0.0619(4) 0.1644(3)
C14 C 0.6918(4) 0.0912(5) 0.1228(4)
C15 C 0.5591(4) 0.0660(7) 0.2349(5)
C16 C 0.6365(6) 0.3030(6) 0.2179(6)
C17 C 0.7994(4) 0.1404(5) 0.4268(4)
C18 C 0.7195(50) 0.1164(7) 0.4645(4)
C19 C 0.8877(5) 0.0688(7) 0.4826(5)
C20 C 0.8275(6) 0.2667(7) 0.4410(5)
C21 C 0.6924(4) -0.2722(6) 0.3622(4)
C22 C 0.7246(5) -0.3929(6) 0.3823(5)
C23 C 0.8281(5) -0.3922(7) 0.4047(6)
C24 C 0.8597(5) -0.2705(7) 0.4186(5)
Li1 Li 0.7758(7) -0.0773(9) 0.2922(7)
H1 H 0.8283 0.1329 0.3099
H2 H 0.5342 -0.0945 0.0616
H3 H 0.4776 -0.2844 0.0359
H4 H 0.5859 -0.4410 0.0698
H5 H 0.7502 -0.4102 0.1315
H6 H 0.9353 -0.3206 0.1927
H7 H 1.0735 -0.2063 0.2427
H8 H 1.0615 -0.0055 0.2388
H9 H 0.9133 0.0865 0.1918
H10 H 0.7376 0.1424 0.1122
H11 H 0.6336 0.0926 0.0685
H12 H 0.5024 0.0882 0.1862
H13 H 0.5691 -0.0153 0.2347
H14 H 0.5515 0.0841 0.2973
H15 H 0.5785 0.3159 0.1648
H16 H 0.6285 0.3298 0.2752
H17 H 0.6881 0.3439 0.2081
H18 H 0.7393 0.1390 0.5302
H19 H 0.6636 0.1594 0.4282
H20 H 0.7048 0.0356 0.4590
H21 H 0.9085 0.0893 0.5488
H22 H 0.8716 -0.0115 0.4755
H23 H 0.9382 0.0837 0.4584
H24 H 0.8462 0.2857 0.5073
H25 H 0.8801 0.2805 0.4196
H26 H 0.7739 0.3134 0.4050
H27 H 0.6457 -0.2663 0.2990
H28 H 0.6646 -0.2465 0.4075
H29 H 0.6941 -0.4402 0.3275
H30 H 0.7096 -0.4215 0.4355
H31 H 0.8590 -0.4353 0.4618
H32 H 0.8433 -0.4253 0.3531
H33 H 0.8841 -0.2517 0.4851
H34 H 0.9084 -0.2568 0.3916
loop_
_geom_bond_atom_site_label_1
_geom_bond_atom_site_label_2
_geom_bond_site_symmetry_1
_geom_bond_site_symmetry_2
Si1 N1 1_555 1_555
O1 C21 1_555 1_555
N1 C17 1_555 1_555
C1 C2 1_555 1_555
C2 C3 1_555 1_555
C3 C4 1_555 1_555
C4 C5 1_555 1_555
C5 C6 1_555 1_555
C6 C7 1_555 1_555
C7 C2 1_555 1_555
C8 C7 1_555 1_555
C9 C8 1_555 1_555
C10 C9 1_555 1_555
C11 C10 1_555 1_555
C12 C11 1_555 1_555
C13 C1 1_555 1_555
C14 Si1 1_555 1_555
C15 Si1 1_555 1_555
C16 Si1 1_555 1_555
C17 C18 1_555 1_555
C18 H18 1_555 1_555
C19 C17 1_555 1_555
C20 C17 1_555 1_555
C21 C22 1_555 1_555
C22 C23 1_555 1_555
C23 C24 1_555 1_555
C24 O1 1_555 1_555
Li1 O1 1_555 1_555
H1 N1 1_555 1_555
H2 C3 1_555 1_555
H3 C4 1_555 1_555
H4 C5 1_555 1_555
H5 C6 1_555 1_555
H6 C9 1_555 1_555
H7 C10 1_555 1_555
H8 C11 1_555 1_555
H9 C12 1_555 1_555
H10 C14 1_555 1_555
H11 C14 1_555 1_555
H12 C15 1_555 1_555
H13 C15 1_555 1_555
H14 C15 1_555 1_555
H15 C16 1_555 1_555
H16 C16 1_555 1_555
H17 C16 1_555 1_555
H19 C18 1_555 1_555
H20 C18 1_555 1_555
H21 C19 1_555 1_555
H22 C19 1_555 1_555
H23 C19 1_555 1_555
H24 C20 1_555 1_555
H25 C20 1_555 1_555
H26 C20 1_555 1_555
H27 C21 1_555 1_555
H28 C21 1_555 1_555
H29 C22 1_555 1_555
H30 C22 1_555 1_555
H31 C23 1_555 1_555
H32 C23 1_555 1_555
H33 C24 1_555 1_555
H34 C24 1_555 1_555
N1 Li1 1_555 1_555
C1 Li1 1_555 1_555
C1 C14 1_555 1_555
C8 C13 1_555 1_555
C12 C13 1_555 1_555
C13 Li1 1_555 1_555

#END
