
#######################################################################
#
#                 Cambridge Crystallographic Data Centre
#                                CCDC 
#
#######################################################################
#
# If this CIF has been generated from an entry in the Cambridge 
# Structural Database, then it will include bibliographic, chemical, 
# crystal, experimental, refinement or atomic coordinate data resulting 
# from the CCDC's data processing and validation procedures.
#
#######################################################################

data_ZUTKUW
_chemical_formula_moiety         'C23 H20 N2 O2 S1'
_chemical_name_systematic        
2-(2-methyl-3-((4-methylphenyl)sulfonyl)-5-phenyl-1H-pyrrol-1-yl)pyridine
_symmetry_cell_setting           monoclinic
_symmetry_space_group_name_H-M   'P 21/c'
_symmetry_Int_Tables_number      14
_space_group_name_Hall           '-P 2ybc'
loop_
_symmetry_equiv_pos_site_id
_symmetry_equiv_pos_as_xyz
1 x,y,z
2 -x,1/2+y,1/2-z
3 -x,-y,-z
4 x,1/2-y,1/2+z
_cell_length_a                   15.4468(4)
_cell_length_b                   12.2137(3)
_cell_length_c                   10.5709(3)
_cell_angle_alpha                90
_cell_angle_beta                 90.313(3)
_cell_angle_gamma                90
_cell_volume                     1994.3
_exptl_crystal_colour            colorless
_exptl_crystal_description       plane
_cell_formula_units_Z            4
loop_
_atom_site_label
_atom_site_type_symbol
_atom_site_fract_x
_atom_site_fract_y
_atom_site_fract_z
S1 S 0.71612(5) 0.96470(5) 0.03699(8)
O1 O 0.65830(16) 0.98229(18) 0.1399(2)
O2 O 0.78513(15) 0.88678(17) 0.0530(2)
N1 N 0.87944(19) 1.4207(2) 0.0453(3)
N2 N 0.79783(14) 1.26173(17) -0.0255(2)
C1 C 0.80337(17) 1.3777(2) -0.0027(3)
C2 C 0.73375(17) 1.4341(2) -0.0317(3)
H1 H 0.6843 1.4011 -0.0647
C3 C 0.7382(3) 1.5427(3) -0.0106(5)
H2 H 0.6897 1.5850 -0.0291
C4 C 0.8097(3) 1.5939(3) 0.0362(4)
H3 H 0.8099 1.6693 0.0486
C5 C 0.8812(2) 1.5329(2) 0.0647(3)
H4 H 0.9307 1.5664 0.0968
C6 C 0.85284(18) 1.2032(2) -0.1052(3)
C7 C 0.82980(19) 1.0955(2) -0.0956(3)
H5 H 0.8547 1.0374 -0.1391
C8 C 0.76158(18) 1.0884(2) -0.0081(3)
C9 C 0.74178(17) 1.1921(2) 0.0356(3)
C10 C 0.6812(2) 1.2310(3) 0.1345(3)
H6 H 0.6838 1.3094 0.1398
H7 H 0.6972 1.1998 0.2146
H8 H 0.6233 1.2089 0.1130
C11 C 0.92040(18) 1.2510(2) -0.1849(3)
C12 C 0.9073(2) 1.3444(2) -0.2585(3)
H9 H 0.8559 1.3838 -0.2521
C13 C 0.9712(2) 1.3781(3) -0.3412(3)
H10 H 0.9620 1.4399 -0.3910
C14 C 1.0484(2) 1.3216(3) -0.3511(3)
H11 H 1.0903 1.3445 -0.4083
C15 C 1.0630(2) 1.2316(3) -0.2760(3)
H12 H 1.1153 1.1942 -0.2804
C16 C 0.9991(2) 1.1969(2) -0.1938(3)
H13 H 1.0092 1.1359 -0.1433
C17 C 0.65426(18) 0.9225(2) -0.0954(3)
C18 C 0.6760(3) 0.8287(3) -0.1605(4)
H14 H 0.7245 0.7884 -0.1367
C19 C 0.6256(3) 0.7952(3) -0.2604(5)
H15 H 0.6404 0.7315 -0.3034
C20 C 0.5542(2) 0.8528(4) -0.2984(4)
C21 C 0.5335(2) 0.9459(4) -0.2323(5)
H16 H 0.4850 0.9862 -0.2563
C22 C 0.5828(2) 0.9806(3) -0.1315(4)
H17 H 0.5675 1.0437 -0.0879
C23 C 0.4991(4) 0.8149(6) -0.4079(6)
H18 H 0.5229 0.7487 -0.4422
H19 H 0.4980 0.8705 -0.4721
H20 H 0.4412 0.8014 -0.3791
loop_
_geom_bond_atom_site_label_1
_geom_bond_atom_site_label_2
_geom_bond_site_symmetry_1
_geom_bond_site_symmetry_2
S1 O1 1_555 1_555
O2 S1 1_555 1_555
N1 C1 1_555 1_555
N2 C1 1_555 1_555
C1 C2 1_555 1_555
C2 H1 1_555 1_555
C3 C2 1_555 1_555
H2 C3 1_555 1_555
C4 C3 1_555 1_555
H3 C4 1_555 1_555
C5 N1 1_555 1_555
H4 C5 1_555 1_555
C6 N2 1_555 1_555
C7 C6 1_555 1_555
H5 C7 1_555 1_555
C8 S1 1_555 1_555
C9 N2 1_555 1_555
C10 C9 1_555 1_555
H6 C10 1_555 1_555
H7 C10 1_555 1_555
H8 C10 1_555 1_555
C11 C6 1_555 1_555
C12 C11 1_555 1_555
H9 C12 1_555 1_555
C13 C12 1_555 1_555
H10 C13 1_555 1_555
C14 C13 1_555 1_555
H11 C14 1_555 1_555
C15 C14 1_555 1_555
H12 C15 1_555 1_555
C16 C11 1_555 1_555
H13 C16 1_555 1_555
C17 S1 1_555 1_555
C18 C17 1_555 1_555
H14 C18 1_555 1_555
C19 C18 1_555 1_555
H15 C19 1_555 1_555
C20 C19 1_555 1_555
C21 C20 1_555 1_555
H16 C21 1_555 1_555
C22 C17 1_555 1_555
H17 C22 1_555 1_555
C23 C20 1_555 1_555
H18 C23 1_555 1_555
H19 C23 1_555 1_555
H20 C23 1_555 1_555
C4 C5 1_555 1_555
C7 C8 1_555 1_555
C8 C9 1_555 1_555
C15 C16 1_555 1_555
C21 C22 1_555 1_555

#END
