
#######################################################################
#
#                 Cambridge Crystallographic Data Centre
#                                CCDC 
#
#######################################################################
#
# If this CIF has been generated from an entry in the Cambridge 
# Structural Database, then it will include bibliographic, chemical, 
# crystal, experimental, refinement or atomic coordinate data resulting 
# from the CCDC's data processing and validation procedures.
#
#######################################################################

data_ZUTKOQ
_chemical_formula_moiety         'C24 H20 N2 O2'
_chemical_name_systematic        
'ethyl 2,5-diphenyl-1-(pyridin-2-yl)-1H-pyrrole-3-carboxylate'
_symmetry_cell_setting           monoclinic
_symmetry_space_group_name_H-M   'C 2/c'
_symmetry_Int_Tables_number      15
_space_group_name_Hall           '-C 2yn'
loop_
_symmetry_equiv_pos_site_id
_symmetry_equiv_pos_as_xyz
1 x,y,z
2 -x,y,1/2-z
3 1/2+x,1/2+y,z
4 1/2-x,1/2+y,1/2-z
5 -x,-y,-z
6 x,-y,1/2+z
7 1/2-x,1/2-y,-z
8 1/2+x,1/2-y,1/2+z
_cell_length_a                   29.4790(8)
_cell_length_b                   12.0530(3)
_cell_length_c                   11.6531(3)
_cell_angle_alpha                90
_cell_angle_beta                 108.029(2)
_cell_angle_gamma                90
_cell_volume                     3937.17
_exptl_crystal_colour            colorless
_exptl_crystal_description       plane
_cell_formula_units_Z            8
loop_
_atom_site_label
_atom_site_type_symbol
_atom_site_fract_x
_atom_site_fract_y
_atom_site_fract_z
O1 O 0.37959(5) 0.38240(9) 0.07569(12)
O2 O 0.41328(4) 0.48062(9) -0.03795(11)
N1 N 0.35033(4) 0.75117(9) 0.08762(9)
C1 C 0.35040(5) 0.87015(11) 0.08162(12)
C2 C 0.41427(5) 0.73353(11) -0.00834(13)
C3 C 0.41596(6) 0.70898(13) -0.12365(14)
H1 H 0.3938 0.6604 -0.1726
C4 C 0.45039(7) 0.75627(14) -0.16577(17)
H2 H 0.4514 0.7387 -0.2427
C5 C 0.48309(7) 0.82869(15) -0.0956(2)
H3 H 0.5060 0.8607 -0.1251
C6 C 0.48200(6) 0.85413(14) 0.01909(18)
H4 H 0.5042 0.9032 0.0671
C7 C 0.44785(6) 0.80654(12) 0.06254(15)
H5 H 0.4474 0.8236 0.1400
C8 C 0.37796(5) 0.68398(11) 0.04005(12)
C9 C 0.36752(5) 0.57522(11) 0.06204(12)
C10 C 0.33339(5) 0.57892(11) 0.12464(13)
H6 H 0.3202 0.5176 0.1508
C11 C 0.32303(5) 0.68670(11) 0.14028(12)
C12 C 0.28853(5) 0.72918(11) 0.19769(12)
C13 C 0.28442(6) 0.67260(13) 0.29844(13)
H7 H 0.3051 0.6143 0.3307
C14 C 0.25019(6) 0.70189(15) 0.35072(15)
H8 H 0.2474 0.6622 0.4167
C15 C 0.21999(6) 0.78972(14) 0.30584(15)
H9 H 0.1970 0.8097 0.3415
C16 C 0.22418(6) 0.84743(13) 0.20817(14)
H10 H 0.2041 0.9072 0.1782
C17 C 0.25797(5) 0.81773(12) 0.15376(13)
H11 H 0.2602 0.8574 0.0873
N2 N 0.36697(5) 0.92166(10) 0.18699(11)
C18 C 0.36905(7) 1.03234(14) 0.18140(18)
H12 H 0.3798 1.0714 0.2536
C19 C 0.35633(7) 1.09206(14) 0.07564(19)
H13 H 0.3597 1.1688 0.0767
C20 C 0.33858(7) 1.03618(14) -0.03121(18)
H14 H 0.3291 1.0744 -0.1041
C21 C 0.33505(6) 0.92203(12) -0.02858(14)
H15 H 0.3227 0.8815 -0.0993
C22 C 0.38700(5) 0.47014(11) 0.03577(13)
C23 C 0.43311(8) 0.38043(16) -0.0714(2)
H16 H 0.4077 0.3306 -0.1146
H17 H 0.4529 0.3427 0.0001
C24 C 0.46196(8) 0.4134(2) -0.14945(18)
H18 H 0.4757 0.3486 -0.1733
H19 H 0.4870 0.4626 -0.1058
H20 H 0.4420 0.4505 -0.2199
loop_
_geom_bond_atom_site_label_1
_geom_bond_atom_site_label_2
_geom_bond_site_symmetry_1
_geom_bond_site_symmetry_2
O1 C22 1_555 1_555
O2 C22 1_555 1_555
N1 C1 1_555 1_555
C1 N2 1_555 1_555
C2 C3 1_555 1_555
C3 H1 1_555 1_555
C4 C3 1_555 1_555
H2 C4 1_555 1_555
C5 C4 1_555 1_555
H3 C5 1_555 1_555
C6 C5 1_555 1_555
H4 C6 1_555 1_555
C7 C2 1_555 1_555
H5 C7 1_555 1_555
C8 N1 1_555 1_555
C9 C8 1_555 1_555
C10 C9 1_555 1_555
H6 C10 1_555 1_555
C11 N1 1_555 1_555
C12 C11 1_555 1_555
C13 C12 1_555 1_555
H7 C13 1_555 1_555
C14 C13 1_555 1_555
H8 C14 1_555 1_555
C15 C14 1_555 1_555
H9 C15 1_555 1_555
C16 C15 1_555 1_555
H10 C16 1_555 1_555
C17 C12 1_555 1_555
H11 C17 1_555 1_555
N2 C18 1_555 1_555
C18 H12 1_555 1_555
C19 C18 1_555 1_555
H13 C19 1_555 1_555
C20 C19 1_555 1_555
H14 C20 1_555 1_555
C21 C1 1_555 1_555
H15 C21 1_555 1_555
C22 C9 1_555 1_555
C23 O2 1_555 1_555
H16 C23 1_555 1_555
H17 C23 1_555 1_555
C24 C23 1_555 1_555
H18 C24 1_555 1_555
H19 C24 1_555 1_555
H20 C24 1_555 1_555
C2 C8 1_555 1_555
C6 C7 1_555 1_555
C10 C11 1_555 1_555
C16 C17 1_555 1_555
C20 C21 1_555 1_555

#END
