
#######################################################################
#
#                 Cambridge Crystallographic Data Centre
#                                CCDC 
#
#######################################################################
#
# If this CIF has been generated from an entry in the Cambridge 
# Structural Database, then it will include bibliographic, chemical, 
# crystal, experimental, refinement or atomic coordinate data resulting 
# from the CCDC's data processing and validation procedures.
#
#######################################################################

data_ZUTSEO
_chemical_formula_moiety         'C20 H40 N2 O4'
_chemical_name_systematic        'di-t-butyl decane-1,10-diylbiscarbamate'
_symmetry_cell_setting           monoclinic
_symmetry_space_group_name_H-M   'P 21/c'
_symmetry_Int_Tables_number      14
_space_group_name_Hall           '-P 2ybc'
loop_
_symmetry_equiv_pos_site_id
_symmetry_equiv_pos_as_xyz
1 x,y,z
2 -x,1/2+y,1/2-z
3 -x,-y,-z
4 x,1/2-y,1/2+z
_cell_length_a                   5.746(1)
_cell_length_b                   5.263(1)
_cell_length_c                   37.466(4)
_cell_angle_alpha                90
_cell_angle_beta                 93.09(1)
_cell_angle_gamma                90
_cell_volume                     1131.37
_exptl_crystal_colour            colorless
_exptl_crystal_description       blocks
_cell_formula_units_Z            2
loop_
_atom_site_label
_atom_site_type_symbol
_atom_site_fract_x
_atom_site_fract_y
_atom_site_fract_z
C1 C 0.0793(5) 0.1105(6) 0.00479(8)
H1 H -0.0162 0.2590 0.0086
H2 H 0.1730 0.1461 -0.0154
C2 C 0.2407(6) 0.0711(7) 0.03757(8)
H3 H 0.1475 0.0388 0.0579
H4 H 0.3350 -0.0786 0.0340
C3 C 0.4004(5) 0.2932(7) 0.04626(8)
H5 H 0.3059 0.4429 0.0498
H6 H 0.4934 0.3256 0.0259
C4 C 0.5629(6) 0.2553(7) 0.07906(8)
H7 H 0.4705 0.2342 0.0998
H8 H 0.6512 0.1002 0.0762
C5 C 0.7286(6) 0.4703(7) 0.08577(8)
H9 H 0.8202 0.4931 0.0650
H10 H 0.6409 0.6252 0.0891
N1 N 0.8837(5) 0.4281(6) 0.11686(7)
H11 H 0.9072 0.2753 0.1243
C6 C 0.9912(6) 0.6192(7) 0.13426(8)
O1 O 0.9631(4) 0.8429(5) 0.12649(6)
O2 O 1.1309(4) 0.5322(5) 0.16122(6)
C7 C 1.2545(6) 0.7073(8) 0.18616(9)
C8 C 1.3909(8) 0.5327(9) 0.21108(12)
H12 H 1.4789 0.6313 0.2286
H13 H 1.2858 0.4228 0.2228
H14 H 1.4954 0.4324 0.1977
C9 C 1.4162(6) 0.8777(8) 0.16649(10)
H15 H 1.4955 0.9909 0.1832
H16 H 1.5285 0.7757 0.1549
H17 H 1.3274 0.9749 0.1489
C10 C 1.0805(6) 0.8602(9) 0.20601(10)
H18 H 1.1620 0.9745 0.2223
H19 H 0.9835 0.9559 0.1892
H20 H 0.9854 0.7475 0.2191
C1B C -0.0793(5) -0.1105(6) -0.00479(8)
H1B H 0.0162 -0.2590 -0.0086
H2B H -0.1730 -0.1461 0.0154
C2B C -0.2407(6) -0.0711(7) -0.03757(8)
H3B H -0.1475 -0.0388 -0.0579
H4B H -0.3350 0.0786 -0.0340
C3B C -0.4004(5) -0.2932(7) -0.04626(8)
H5B H -0.3059 -0.4429 -0.0498
H6B H -0.4934 -0.3256 -0.0259
C4B C -0.5629(6) -0.2553(7) -0.07906(8)
H7B H -0.4705 -0.2342 -0.0998
H8B H -0.6512 -0.1002 -0.0762
C5B C -0.7286(6) -0.4703(7) -0.08577(8)
H9B H -0.8202 -0.4931 -0.0650
H10B H -0.6409 -0.6252 -0.0891
N1B N -0.8837(5) -0.4281(6) -0.11686(7)
H11B H -0.9072 -0.2753 -0.1243
C6B C -0.9912(6) -0.6192(7) -0.13426(8)
O1B O -0.9631(4) -0.8429(5) -0.12649(6)
O2B O -1.1309(4) -0.5322(5) -0.16122(6)
C7B C -1.2545(6) -0.7073(8) -0.18616(9)
C8B C -1.3909(8) -0.5327(9) -0.21108(12)
H12B H -1.4789 -0.6313 -0.2286
H13B H -1.2858 -0.4228 -0.2228
H14B H -1.4954 -0.4324 -0.1977
C9B C -1.4162(6) -0.8777(8) -0.16649(10)
H15B H -1.4955 -0.9909 -0.1832
H16B H -1.5285 -0.7757 -0.1549
H17B H -1.3274 -0.9749 -0.1489
C10B C -1.0805(6) -0.8602(9) -0.20601(10)
H18B H -1.1620 -0.9745 -0.2223
H19B H -0.9835 -0.9559 -0.1892
H20B H -0.9854 -0.7475 -0.2191
loop_
_geom_bond_atom_site_label_1
_geom_bond_atom_site_label_2
_geom_bond_site_symmetry_1
_geom_bond_site_symmetry_2
C1 H1 1_555 1_555
H2 C1 1_555 1_555
C2 C1 1_555 1_555
H3 C2 1_555 1_555
H4 C2 1_555 1_555
C3 C2 1_555 1_555
H5 C3 1_555 1_555
H6 C3 1_555 1_555
C4 C3 1_555 1_555
H7 C4 1_555 1_555
H8 C4 1_555 1_555
C5 C4 1_555 1_555
H9 C5 1_555 1_555
H10 C5 1_555 1_555
N1 C5 1_555 1_555
H11 N1 1_555 1_555
C6 N1 1_555 1_555
O1 C6 1_555 1_555
O2 C6 1_555 1_555
C7 O2 1_555 1_555
C8 C7 1_555 1_555
H12 C8 1_555 1_555
H13 C8 1_555 1_555
H14 C8 1_555 1_555
C9 C7 1_555 1_555
H15 C9 1_555 1_555
H16 C9 1_555 1_555
H17 C9 1_555 1_555
C10 C7 1_555 1_555
H18 C10 1_555 1_555
H19 C10 1_555 1_555
H20 C10 1_555 1_555
C1B C1 1_555 1_555
H1B C1B 1_555 1_555
H2B C1B 1_555 1_555
C2B C1B 1_555 1_555
H3B C2B 1_555 1_555
H4B C2B 1_555 1_555
C3B C2B 1_555 1_555
H5B C3B 1_555 1_555
H6B C3B 1_555 1_555
C4B C3B 1_555 1_555
H7B C4B 1_555 1_555
H8B C4B 1_555 1_555
C5B C4B 1_555 1_555
H9B C5B 1_555 1_555
H10B C5B 1_555 1_555
N1B C5B 1_555 1_555
H11B N1B 1_555 1_555
C6B N1B 1_555 1_555
O1B C6B 1_555 1_555
O2B C6B 1_555 1_555
C7B O2B 1_555 1_555
C8B C7B 1_555 1_555
H12B C8B 1_555 1_555
H13B C8B 1_555 1_555
H14B C8B 1_555 1_555
C9B C7B 1_555 1_555
H15B C9B 1_555 1_555
H16B C9B 1_555 1_555
H17B C9B 1_555 1_555
C10B C7B 1_555 1_555
H18B C10B 1_555 1_555
H19B C10B 1_555 1_555
H20B C10B 1_555 1_555

#END
