
#######################################################################
#
#                 Cambridge Crystallographic Data Centre
#                                CCDC 
#
#######################################################################
#
# If this CIF has been generated from an entry in the Cambridge 
# Structural Database, then it will include bibliographic, chemical, 
# crystal, experimental, refinement or atomic coordinate data resulting 
# from the CCDC's data processing and validation procedures.
#
#######################################################################

data_ZUTSIS
_chemical_name_common            
"2',3',3',3',5',5',5',6'-octamethyl-13',15'-dithioxodispiro(cyclohexane-1,2'-4,8,12,16-tetraaza-1,3,9,11(1,4),6,14(1,3)-hexabenzenacyclohexadecaphane-10',1''-cyclohexane)-5',7'-dione ethyl acetate solvate"
_chemical_formula_moiety         'C60 H64 N4 O2 S2,2(C4 H8 O2)'
_chemical_name_systematic        
"5',17',23',35',38',40',43',45'-octamethyl-26',32'-dithioxo-7',15',25',33'-tetraazadispiro(cyclohexane-1,2'-heptacyclo[32.2.2.2^3,6^.2^16,19^.2^21,24^.1^9,13^.1^27,31^]hexatetracontane-20',1''-cyclohexane)-1'(36'),3',5',9'(44'),10',12',16',18',21',23',27'(39'),28',30',34',37',40',42',45'-octadecaene-8',14'-dione ethyl acetate solvate"
_symmetry_cell_setting           triclinic
_symmetry_space_group_name_H-M   'P -1'
_symmetry_Int_Tables_number      2
_space_group_name_Hall           '-P 1'
loop_
_symmetry_equiv_pos_site_id
_symmetry_equiv_pos_as_xyz
1 x,y,z
2 -x,-y,-z
_cell_length_a                   14.311(1)
_cell_length_b                   15.775(2)
_cell_length_c                   16.765(3)
_cell_angle_alpha                99.87(1)
_cell_angle_beta                 114.32(1)
_cell_angle_gamma                106.84(1)
_cell_volume                     3112.26
_exptl_crystal_colour            yellow
_exptl_crystal_description       blocks
_cell_formula_units_Z            2
loop_
_atom_site_label
_atom_site_type_symbol
_atom_site_fract_x
_atom_site_fract_y
_atom_site_fract_z
S1 S 1.07137(16) 0.43344(12) 0.70079(12)
C1 C 0.9509(5) 0.3443(3) 0.6344(3)
N1 N 0.8552(4) 0.3549(3) 0.5878(3)
H1 H 0.7933 0.3063 0.5629
C2 C 0.8491(4) 0.4417(3) 0.5769(3)
C3 C 0.8425(4) 0.5032(3) 0.6415(3)
C4 C 0.8300(4) 0.5834(3) 0.6254(3)
H2 H 0.8236 0.6243 0.6681
C5 C 0.8265(4) 0.6047(3) 0.5481(3)
C6 C 0.8352(4) 0.5413(3) 0.4845(3)
H3 H 0.8341 0.5545 0.4323
C7 C 0.8453(4) 0.4605(3) 0.4976(3)
C8 C 0.8078(4) 0.6914(3) 0.5249(3)
C9 C 0.7958(5) 0.7551(3) 0.5981(3)
H4 H 0.7678 0.7986 0.5719
H5 H 0.7400 0.7161 0.6097
C10 C 0.9029(5) 0.8117(4) 0.6909(3)
H6 H 0.8896 0.8568 0.7273
H7 H 0.9210 0.7695 0.7248
C11 C 1.0013(6) 0.8632(4) 0.6804(4)
H8 H 1.0689 0.8893 0.7403
H9 H 0.9907 0.9148 0.6590
C12 C 1.0147(5) 0.7979(4) 0.6118(4)
H10 H 1.0762 0.8333 0.6039
H11 H 1.0325 0.7497 0.6360
C13 C 0.9087(4) 0.7524(3) 0.5191(3)
H12 H 0.9208 0.7138 0.4758
H13 H 0.8919 0.8010 0.4951
C14 C 0.6980(4) 0.6526(3) 0.4324(3)
C15 C 0.6060(5) 0.5786(4) 0.4187(4)
H14 H 0.6118 0.5558 0.4674
C16 C 0.5058(5) 0.5371(4) 0.3360(4)
C17 C 0.4973(5) 0.5719(3) 0.2630(3)
C18 C 0.5850(5) 0.6477(4) 0.2755(4)
C19 C 0.6856(5) 0.6869(3) 0.3594(3)
H15 H 0.7454 0.7371 0.3665
N2 N 0.3998(4) 0.5213(3) 0.1748(3)
H16 H 0.4000 0.4745 0.1400
C20 C 0.3075(5) 0.5393(3) 0.1402(3)
O1 O 0.3029(3) 0.6195(2) 0.1772(2)
C21 C 0.2079(4) 0.4610(3) 0.0548(3)
C22 C 0.1221(5) 0.4801(4) -0.0039(4)
H17 H 0.1266 0.5414 0.0076
C23 C 0.0282(5) 0.4079(4) -0.0808(4)
H18 H -0.0307 0.4209 -0.1192
C24 C 0.0225(5) 0.3173(4) -0.1002(4)
H19 H -0.0392 0.2700 -0.1527
C25 C 0.1080(4) 0.2963(3) -0.0418(3)
C26 C 0.1988(4) 0.3686(3) 0.0361(3)
H20 H 0.2552 0.3550 0.0770
C27 C 0.0983(5) 0.1970(4) -0.0616(3)
O2 O 0.0009(3) 0.1232(3) -0.1191(3)
N3 N 0.1972(4) 0.1881(3) -0.0199(3)
H21 H 0.2576 0.2384 0.0056
C28 C 0.2090(4) 0.1017(3) -0.0151(3)
C29 C 0.1782(5) 0.0582(3) 0.0411(3)
C30 C 0.1976(4) -0.0229(3) 0.0490(3)
H22 H 0.1755 -0.0536 0.0850
C31 C 0.2483(4) -0.0594(3) 0.0054(3)
C32 C 0.2786(4) -0.0125(3) -0.0482(3)
H23 H 0.3128 -0.0356 -0.0781
C33 C 0.2604(4) 0.0676(3) -0.0597(3)
C34 C 0.2771(4) -0.1427(3) 0.0263(3)
C35 C 0.3107(4) -0.1885(3) -0.0413(3)
H24 H 0.3703 -0.1401 -0.0418
H25 H 0.3398 -0.2330 -0.0185
C36 C 0.2131(5) -0.2397(3) -0.1413(3)
H26 H 0.1917 -0.1939 -0.1678
H27 H 0.2378 -0.2716 -0.1783
C37 C 0.1121(5) -0.3109(4) -0.1455(4)
H28 H 0.0502 -0.3364 -0.2086
H29 H 0.1298 -0.3622 -0.1285
C38 C 0.0778(5) -0.2668(4) -0.0813(4)
H30 H 0.0163 -0.3145 -0.0824
H31 H 0.0523 -0.2200 -0.1023
C39 C 0.1760(5) -0.2205(3) 0.0179(3)
H32 H 0.1991 -0.2681 0.0392
H33 H 0.1513 -0.1939 0.0581
C40 C 0.3790(4) -0.1043(3) 0.1240(3)
C41 C 0.4707(4) -0.0252(3) 0.1477(3)
H34 H 0.4690 0.0029 0.1029
C42 C 0.5651(4) 0.0150(3) 0.2344(3)
C43 C 0.5653(5) -0.0279(3) 0.3010(3)
C44 C 0.4768(5) -0.1097(3) 0.2793(3)
C45 C 0.3838(5) -0.1463(3) 0.1911(3)
H35 H 0.3233 -0.2004 0.1766
N4 N 0.6573(4) 0.0195(3) 0.3939(3)
H36 H 0.6488 0.0570 0.4315
C46 C 0.7558(5) 0.0105(3) 0.4275(3)
S2 S 0.77877(19) -0.06809(13) 0.37389(13)
C47 C 0.8446(5) 0.0825(3) 0.5183(3)
C48 C 0.9232(6) 0.0609(4) 0.5827(4)
H37 H 0.9206 0.0002 0.5706
C49 C 1.0069(6) 0.1313(4) 0.6667(4)
H38 H 1.0575 0.1162 0.7119
C50 C 1.0156(5) 0.2216(4) 0.6832(4)
H39 H 1.0744 0.2679 0.7381
C51 C 0.9388(4) 0.2456(3) 0.6201(3)
C52 C 0.8535(4) 0.1745(3) 0.5379(3)
H40 H 0.8004 0.1892 0.4945
C53 C 0.8486(6) 0.4836(4) 0.7283(4)
H41 H 0.9177 0.4777 0.7627
H42 H 0.7869 0.4263 0.7114
H43 H 0.8450 0.5345 0.7660
C54 C 0.8532(5) 0.3936(4) 0.4266(4)
H44 H 0.8567 0.4208 0.3803
H45 H 0.7885 0.3354 0.3976
H46 H 0.9195 0.3823 0.4569
C55 C 0.4091(6) 0.4543(5) 0.3256(5)
H47 H 0.3401 0.4608 0.2923
H48 H 0.4206 0.4533 0.3859
H49 H 0.4059 0.3968 0.2919
C56 C 0.5760(7) 0.6869(5) 0.1971(4)
H50 H 0.5389 0.6359 0.1396
H51 H 0.6497 0.7243 0.2093
H52 H 0.5339 0.7250 0.1928
C57 C 0.1267(6) 0.0973(4) 0.0933(4)
H53 H 0.1801 0.1578 0.1385
H54 H 0.1058 0.0554 0.1241
H55 H 0.0614 0.1035 0.0504
C58 C 0.2961(6) 0.1155(4) -0.1187(4)
H56 H 0.3209 0.1822 -0.0924
H57 H 0.2339 0.0933 -0.1804
H58 H 0.3562 0.1017 -0.1209
C59 C 0.6618(5) 0.1016(4) 0.2576(4)
H59 H 0.6711 0.1512 0.3060
H60 H 0.6484 0.1199 0.2035
H61 H 0.7285 0.0896 0.2783
C60 C 0.4782(6) -0.1576(4) 0.3506(4)
H62 H 0.5461 -0.1675 0.3769
H63 H 0.4151 -0.2170 0.3212
H64 H 0.4743 -0.1186 0.3988
O3 O 0.6077(4) 0.1943(3) 0.4596(3)
C61 C 0.5343(6) 0.2190(5) 0.4548(5)
C62 C 0.5538(6) 0.3150(5) 0.5042(6)
H65 H 0.5974 0.3291 0.5699
H66 H 0.4832 0.3187 0.4900
H67 H 0.5934 0.3595 0.4846
O4 O 0.4288(4) 0.1649(4) 0.4052(4)
C63 C 0.3982(8) 0.0668(6) 0.3557(8)
H68 H 0.4077 0.0625 0.3013
H69 H 0.4460 0.0419 0.3957
C64 C 0.2868(8) 0.0152(7) 0.3291(8)
H70 H 0.2656 -0.0494 0.2965
H71 H 0.2781 0.0194 0.3833
H72 H 0.2399 0.0399 0.2892
O5 O 0.4330(5) 0.3435(4) 0.1116(6)
C65 C 0.5066(10) 0.3213(9) 0.1589(9)
C66 C 0.4942(11) 0.2437(10) 0.1965(11)
H73 H 0.4172 0.2126 0.1803
H74 H 0.5399 0.2680 0.2629
H75 H 0.5173 0.1997 0.1710
O6 O 0.6055(8) 0.3650(9) 0.1767(8)
C67 C 0.628(2) 0.4583(13) 0.1555(15)
H76 H 0.5658 0.4769 0.1440
H77 H 0.6957 0.5081 0.2071
C68 C 0.6390(14) 0.4406(11) 0.0791(11)
H78 H 0.6531 0.4962 0.0622
H79 H 0.7004 0.4219 0.0917
H80 H 0.5713 0.3910 0.0289
loop_
_geom_bond_atom_site_label_1
_geom_bond_atom_site_label_2
_geom_bond_site_symmetry_1
_geom_bond_site_symmetry_2
S1 C1 1_555 1_555
C1 N1 1_555 1_555
N1 H1 1_555 1_555
C2 N1 1_555 1_555
C3 C2 1_555 1_555
C4 C3 1_555 1_555
H2 C4 1_555 1_555
C5 C4 1_555 1_555
C6 C5 1_555 1_555
H3 C6 1_555 1_555
C7 C2 1_555 1_555
C8 C5 1_555 1_555
C9 C8 1_555 1_555
H4 C9 1_555 1_555
H5 C9 1_555 1_555
C10 C9 1_555 1_555
H6 C10 1_555 1_555
H7 C10 1_555 1_555
C11 C10 1_555 1_555
H8 C11 1_555 1_555
H9 C11 1_555 1_555
C12 C11 1_555 1_555
H10 C12 1_555 1_555
H11 C12 1_555 1_555
C13 C8 1_555 1_555
H12 C13 1_555 1_555
H13 C13 1_555 1_555
C14 C8 1_555 1_555
C15 C14 1_555 1_555
H14 C15 1_555 1_555
C16 C15 1_555 1_555
C17 C16 1_555 1_555
C18 C17 1_555 1_555
C19 C14 1_555 1_555
H15 C19 1_555 1_555
N2 C17 1_555 1_555
H16 N2 1_555 1_555
C20 N2 1_555 1_555
O1 C20 1_555 1_555
C21 C20 1_555 1_555
C22 C21 1_555 1_555
H17 C22 1_555 1_555
C23 C22 1_555 1_555
H18 C23 1_555 1_555
C24 C23 1_555 1_555
H19 C24 1_555 1_555
C25 C24 1_555 1_555
C26 C21 1_555 1_555
H20 C26 1_555 1_555
C27 C25 1_555 1_555
O2 C27 1_555 1_555
N3 C27 1_555 1_555
H21 N3 1_555 1_555
C28 N3 1_555 1_555
C29 C28 1_555 1_555
C30 C29 1_555 1_555
H22 C30 1_555 1_555
C31 C30 1_555 1_555
C32 C31 1_555 1_555
H23 C32 1_555 1_555
C33 C28 1_555 1_555
C34 C31 1_555 1_555
C35 C34 1_555 1_555
H24 C35 1_555 1_555
H25 C35 1_555 1_555
C36 C35 1_555 1_555
H26 C36 1_555 1_555
H27 C36 1_555 1_555
C37 C36 1_555 1_555
H28 C37 1_555 1_555
H29 C37 1_555 1_555
C38 C37 1_555 1_555
H30 C38 1_555 1_555
H31 C38 1_555 1_555
C39 C34 1_555 1_555
H32 C39 1_555 1_555
H33 C39 1_555 1_555
C40 C34 1_555 1_555
C41 C40 1_555 1_555
H34 C41 1_555 1_555
C42 C41 1_555 1_555
C43 C42 1_555 1_555
C44 C43 1_555 1_555
C45 C40 1_555 1_555
H35 C45 1_555 1_555
N4 C43 1_555 1_555
H36 N4 1_555 1_555
C46 N4 1_555 1_555
S2 C46 1_555 1_555
C47 C46 1_555 1_555
C48 C47 1_555 1_555
H37 C48 1_555 1_555
C49 C48 1_555 1_555
H38 C49 1_555 1_555
C50 C49 1_555 1_555
H39 C50 1_555 1_555
C51 C1 1_555 1_555
C52 C47 1_555 1_555
H40 C52 1_555 1_555
C53 C3 1_555 1_555
H41 C53 1_555 1_555
H42 C53 1_555 1_555
H43 C53 1_555 1_555
C54 C7 1_555 1_555
H44 C54 1_555 1_555
H45 C54 1_555 1_555
H46 C54 1_555 1_555
C55 C16 1_555 1_555
H47 C55 1_555 1_555
H48 C55 1_555 1_555
H49 C55 1_555 1_555
C56 C18 1_555 1_555
H50 C56 1_555 1_555
H51 C56 1_555 1_555
H52 C56 1_555 1_555
C57 C29 1_555 1_555
H53 C57 1_555 1_555
H54 C57 1_555 1_555
H55 C57 1_555 1_555
C58 C33 1_555 1_555
H56 C58 1_555 1_555
H57 C58 1_555 1_555
H58 C58 1_555 1_555
C59 C42 1_555 1_555
H59 C59 1_555 1_555
H60 C59 1_555 1_555
H61 C59 1_555 1_555
C60 C44 1_555 1_555
H62 C60 1_555 1_555
H63 C60 1_555 1_555
H64 C60 1_555 1_555
O3 C61 1_555 1_555
C61 C62 1_555 1_555
C62 H65 1_555 1_555
H66 C62 1_555 1_555
H67 C62 1_555 1_555
O4 C61 1_555 1_555
C63 O4 1_555 1_555
H68 C63 1_555 1_555
H69 C63 1_555 1_555
C64 C63 1_555 1_555
H70 C64 1_555 1_555
H71 C64 1_555 1_555
H72 C64 1_555 1_555
O5 C65 1_555 1_555
C65 C66 1_555 1_555
C66 H73 1_555 1_555
H74 C66 1_555 1_555
H75 C66 1_555 1_555
O6 C65 1_555 1_555
C67 O6 1_555 1_555
H76 C67 1_555 1_555
H77 C67 1_555 1_555
C68 C67 1_555 1_555
H78 C68 1_555 1_555
H79 C68 1_555 1_555
H80 C68 1_555 1_555
C6 C7 1_555 1_555
C12 C13 1_555 1_555
C18 C19 1_555 1_555
C25 C26 1_555 1_555
C32 C33 1_555 1_555
C38 C39 1_555 1_555
C44 C45 1_555 1_555
C50 C51 1_555 1_555
C51 C52 1_555 1_555

#END
