
#######################################################################
#
#                 Cambridge Crystallographic Data Centre
#                                CCDC 
#
#######################################################################
#
# If this CIF has been generated from an entry in the Cambridge 
# Structural Database, then it will include bibliographic, chemical, 
# crystal, experimental, refinement or atomic coordinate data resulting 
# from the CCDC's data processing and validation procedures.
#
#######################################################################

data_ZUVPUD
_chemical_formula_moiety         'C18 H19 N3 O5 S1'
_chemical_name_systematic        
'ethyl (1-methyl-3-(2-nitro-1-(2-thienyl)ethyl)-2-oxo-2,3-dihydro-1H-indol-3-yl)carbamate'
_symmetry_cell_setting           monoclinic
_symmetry_space_group_name_H-M   'P 21'
_symmetry_Int_Tables_number      4
_space_group_name_Hall           'P 2yb'
loop_
_symmetry_equiv_pos_site_id
_symmetry_equiv_pos_as_xyz
1 x,y,z
2 -x,1/2+y,-z
_cell_length_a                   8.3672(7)
_cell_length_b                   8.7128(7)
_cell_length_c                   12.7310(11)
_cell_angle_alpha                90
_cell_angle_beta                 98.0370(10)
_cell_angle_gamma                90
_cell_volume                     918.996
_exptl_crystal_colour            colorless
_exptl_crystal_description       block
_cell_formula_units_Z            2
loop_
_atom_site_label
_atom_site_type_symbol
_atom_site_fract_x
_atom_site_fract_y
_atom_site_fract_z
S1 S 0.53764(5) 0.90710(5) 0.40537(4)
N1 N 0.85991(16) 0.51105(15) 0.26046(10)
H1 H 0.9200 0.4873 0.3206
O1 O 0.96780(14) 0.30364(14) 0.19909(9)
O2 O 1.15899(18) 0.95531(18) 0.46505(12)
O3 O 0.79021(14) 0.44492(14) 0.08675(9)
O4 O 0.89801(14) 0.79631(15) 0.13113(9)
N2 N 1.04582(18) 0.86778(18) 0.46769(12)
O5 O 0.97601(19) 0.85129(19) 0.54580(11)
N3 N 0.62081(16) 0.77652(17) 0.10714(11)
C1 C 0.6375(3) 1.1463(2) 0.32050(18)
H2 H 0.6444 1.2478 0.2942
C2 C 0.7553(2) 1.0314(2) 0.31195(17)
H3 H 0.8502 1.0481 0.2804
C3 C 0.71720(18) 0.8939(2) 0.35425(12)
C4 C 0.80948(19) 0.74504(19) 0.35749(13)
H4 H 0.7847 0.6852 0.4203
C5 C 0.75715(18) 0.64548(18) 0.25557(12)
C6 C 0.86517(17) 0.4208(2) 0.17353(12)
C7 C 0.9997(2) 0.2051(2) 0.11125(14)
H5 H 1.0133 0.2678 0.0483
H6 H 0.9090 0.1329 0.0918
C8 C 1.1524(2) 0.1187(2) 0.14937(16)
H7 H 1.2406 0.1917 0.1691
H8 H 1.1794 0.0517 0.0926
H9 H 1.1368 0.0565 0.2112
C9 C 0.5137(2) 1.0960(2) 0.37012(17)
H10 H 0.4252 1.1578 0.3835
C10 C 0.99180(19) 0.7735(2) 0.37123(14)
H11 H 1.0492 0.6738 0.3772
H12 H 1.0201 0.8271 0.3078
C11 C 0.57740(18) 0.61528(19) 0.24280(13)
C12 C 0.4862(2) 0.5298(2) 0.30388(13)
H13 H 0.5359 0.4737 0.3637
C13 C 0.3178(2) 0.5280(2) 0.27517(15)
H14 H 0.2526 0.4674 0.3145
C14 C 0.2464(2) 0.6144(2) 0.18958(15)
H15 H 0.1322 0.6129 0.1720
C15 C 0.33755(19) 0.7034(2) 0.12847(14)
H16 H 0.2881 0.7638 0.0708
C16 C 0.50301(19) 0.69922(19) 0.15617(13)
C17 C 0.5857(2) 0.8779(2) 0.01648(15)
H17 H 0.6869 0.9188 -0.0026
H18 H 0.5178 0.9628 0.0345
H19 H 0.5289 0.8205 -0.0437
C18 C 0.77292(19) 0.74588(18) 0.15625(12)
loop_
_geom_bond_atom_site_label_1
_geom_bond_atom_site_label_2
_geom_bond_site_symmetry_1
_geom_bond_site_symmetry_2
S1 C3 1_555 1_555
N1 H1 1_555 1_555
O1 C6 1_555 1_555
O2 N2 1_555 1_555
O3 C6 1_555 1_555
O4 C18 1_555 1_555
N2 O5 1_555 1_555
N3 C16 1_555 1_555
C1 H2 1_555 1_555
C2 C1 1_555 1_555
H3 C2 1_555 1_555
C3 C2 1_555 1_555
C4 C3 1_555 1_555
H4 C4 1_555 1_555
C5 N1 1_555 1_555
C6 N1 1_555 1_555
C7 O1 1_555 1_555
H5 C7 1_555 1_555
H6 C7 1_555 1_555
C8 C7 1_555 1_555
H7 C8 1_555 1_555
H8 C8 1_555 1_555
H9 C8 1_555 1_555
C9 S1 1_555 1_555
H10 C9 1_555 1_555
C10 N2 1_555 1_555
H11 C10 1_555 1_555
H12 C10 1_555 1_555
C11 C5 1_555 1_555
C12 C11 1_555 1_555
H13 C12 1_555 1_555
C13 C12 1_555 1_555
H14 C13 1_555 1_555
C14 C13 1_555 1_555
H15 C14 1_555 1_555
C15 C14 1_555 1_555
H16 C15 1_555 1_555
C16 C11 1_555 1_555
C17 N3 1_555 1_555
H17 C17 1_555 1_555
H18 C17 1_555 1_555
H19 C17 1_555 1_555
C18 N3 1_555 1_555
C1 C9 1_555 1_555
C4 C5 1_555 1_555
C4 C10 1_555 1_555
C5 C18 1_555 1_555
C15 C16 1_555 1_555

#END
