
#######################################################################
#
#                 Cambridge Crystallographic Data Centre
#                                CCDC 
#
#######################################################################
#
# If this CIF has been generated from an entry in the Cambridge 
# Structural Database, then it will include bibliographic, chemical, 
# crystal, experimental, refinement or atomic coordinate data resulting 
# from the CCDC's data processing and validation procedures.
#
#######################################################################

data_ZUVROZ
_chemical_formula_moiety         'C39 H29 N3 S1,C2 H6 O1,1.5(C1 H2 Cl2)'
_chemical_name_systematic        
"4,4'-(1,3-thiazole-2,5-diyl)bis(N,N-diphenylaniline) dichloromethane ethonal solvate"
_symmetry_cell_setting           triclinic
_symmetry_space_group_name_H-M   'P -1'
_symmetry_Int_Tables_number      2
_space_group_name_Hall           '-P 1'
loop_
_symmetry_equiv_pos_site_id
_symmetry_equiv_pos_as_xyz
1 x,y,z
2 -x,-y,-z
_cell_length_a                   10.020(7)
_cell_length_b                   10.250(7)
_cell_length_c                   18.583(13)
_cell_angle_alpha                78.568(11)
_cell_angle_beta                 87.828(11)
_cell_angle_gamma                75.839(12)
_cell_volume                     1813.74
_exptl_crystal_colour            yellow
_exptl_crystal_description       block
_cell_formula_units_Z            2
loop_
_atom_site_label
_atom_site_type_symbol
_atom_site_fract_x
_atom_site_fract_y
_atom_site_fract_z
C1 C 0.0750(5) 0.1601(5) 0.5702(2)
C2 C 0.0303(5) 0.0553(5) 0.6246(2)
C3 C -0.1071(5) 0.0698(5) 0.6443(3)
H1 H -0.1739 0.1426 0.6190
C4 C -0.1456(5) -0.0227(5) 0.7010(2)
H2 H -0.2379 -0.0104 0.7138
C5 C -0.0488(4) -0.1339(4) 0.7393(2)
C6 C 0.0870(5) -0.1511(5) 0.7169(2)
H3 H 0.1528 -0.2277 0.7395
C7 C 0.1261(5) -0.0579(5) 0.6623(2)
H4 H 0.2186 -0.0702 0.6500
C8 C -0.2240(4) -0.2407(4) 0.8069(2)
C9 C -0.2947(5) -0.2548(5) 0.7476(3)
H5 H -0.2515 -0.2570 0.7025
C10 C -0.4285(5) -0.2657(6) 0.7552(3)
H6 H -0.4756 -0.2739 0.7148
C11 C -0.4940(5) -0.2645(6) 0.8212(4)
H7 H -0.5856 -0.2692 0.8252
C12 C -0.4224(5) -0.2564(5) 0.8817(3)
H8 H -0.4646 -0.2599 0.9273
C13 C -0.2885(5) -0.2431(5) 0.8746(3)
H9 H -0.2412 -0.2358 0.9151
C14 C 0.0117(4) -0.2969(4) 0.8559(2)
C15 C 0.0279(5) -0.4364(5) 0.8813(2)
H10 H -0.0279 -0.4823 0.8625
C16 C 0.1260(5) -0.5079(5) 0.9342(3)
H11 H 0.1371 -0.6019 0.9500
C17 C 0.2075(5) -0.4409(5) 0.9635(3)
H12 H 0.2737 -0.4891 0.9991
C18 C 0.1900(5) -0.3026(5) 0.9398(2)
H13 H 0.2449 -0.2571 0.9596
C19 C 0.0924(5) -0.2296(5) 0.8870(2)
H14 H 0.0806 -0.1353 0.8723
C20 C 0.2001(5) 0.3082(6) 0.5176(3)
H15 H 0.2716 0.3521 0.5153
C21 C 0.1045(5) 0.3384(5) 0.4654(2)
C22 C 0.0988(4) 0.4380(4) 0.3970(2)
C23 C -0.0087(4) 0.4659(5) 0.3450(2)
H16 H -0.0792 0.4207 0.3548
C24 C -0.0111(4) 0.5582(5) 0.2804(2)
H17 H -0.0841 0.5757 0.2476
C25 C 0.0938(4) 0.6263(4) 0.2631(2)
C26 C 0.2012(5) 0.5974(5) 0.3137(2)
H18 H 0.2730 0.6407 0.3032
C27 C 0.2026(5) 0.5061(5) 0.3787(2)
H19 H 0.2754 0.4894 0.4115
C28 C -0.0294(4) 0.8022(4) 0.1599(2)
C29 C -0.1439(5) 0.8538(5) 0.1995(3)
H20 H -0.1407 0.8352 0.2505
C30 C -0.2630(5) 0.9333(5) 0.1625(4)
H21 H -0.3400 0.9666 0.1890
C31 C -0.2684(5) 0.9635(5) 0.0872(3)
H22 H -0.3491 1.0160 0.0630
C32 C -0.1560(5) 0.9165(5) 0.0483(3)
H23 H -0.1590 0.9388 -0.0028
C33 C -0.0355(5) 0.8345(5) 0.0844(2)
H24 H 0.0409 0.8016 0.0573
C34 C 0.2227(4) 0.7310(4) 0.1626(2)
C35 C 0.2559(5) 0.8574(5) 0.1457(3)
H25 H 0.1948 0.9346 0.1570
C36 C 0.3786(5) 0.8689(5) 0.1125(3)
H26 H 0.3998 0.9540 0.1011
C37 C 0.4703(5) 0.7549(5) 0.0958(3)
H27 H 0.5536 0.7626 0.0737
C38 C 0.4375(5) 0.6293(5) 0.1124(3)
H28 H 0.4987 0.5520 0.1013
C39 C 0.3133(5) 0.6179(5) 0.1456(3)
H29 H 0.2916 0.5330 0.1565
N1 N 0.1845(5) 0.2066(6) 0.5750(3)
N2 N -0.0865(4) -0.2242(4) 0.7995(2)
N3 N 0.0941(4) 0.7201(4) 0.1963(2)
S1 S -0.01612(14) 0.24435(14) 0.49046(7)
C40 C 0.6172(10) 0.6083(11) 0.3493(7)
H30 H 0.6997 0.6357 0.3572
Cl1 Cl 0.5100(7) 0.7699(9) 0.3253(7)
Cl2 Cl 0.6076(9) 0.4670(14) 0.4097(5)
C41 C 0.4399(17) 0.8679(15) 0.5380(7)
H31 H 0.3625 0.8532 0.5677
H32 H 0.4977 0.7811 0.5321
C42 C 0.5277(9) 0.9492(11) 0.5779(4)
H33 H 0.4642 1.0320 0.5873
H34 H 0.5581 0.8923 0.6254
O1 O 0.6318(12) 0.9839(13) 0.5469(7)
H35 H 0.6664 1.0389 0.5743
Cl3? Cl 0.6057(14) 0.4304(13) 0.3695(15)
Cl4? Cl 0.6144(12) 0.5631(16) 0.2717(6)
Cl5? Cl 0.6334(17) 0.601(3) 0.2606(8)
Cl6? Cl 0.4808(5) 0.6647(10) 0.4144(5)
H36? H 0.4080 0.9217 0.4907
loop_
_geom_bond_atom_site_label_1
_geom_bond_atom_site_label_2
_geom_bond_site_symmetry_1
_geom_bond_site_symmetry_2
C1 C2 1_555 1_555
C2 C3 1_555 1_555
C3 H1 1_555 1_555
C4 C3 1_555 1_555
H2 C4 1_555 1_555
C5 C4 1_555 1_555
C6 C5 1_555 1_555
H3 C6 1_555 1_555
C7 C2 1_555 1_555
H4 C7 1_555 1_555
C8 C9 1_555 1_555
C9 H5 1_555 1_555
C10 C9 1_555 1_555
H6 C10 1_555 1_555
C11 C10 1_555 1_555
H7 C11 1_555 1_555
C12 C11 1_555 1_555
H8 C12 1_555 1_555
C13 C8 1_555 1_555
H9 C13 1_555 1_555
C14 C15 1_555 1_555
C15 H10 1_555 1_555
C16 C15 1_555 1_555
H11 C16 1_555 1_555
C17 C16 1_555 1_555
H12 C17 1_555 1_555
C18 C17 1_555 1_555
H13 C18 1_555 1_555
C19 C14 1_555 1_555
H14 C19 1_555 1_555
C20 H15 1_555 1_555
C21 C20 1_555 1_555
C22 C21 1_555 1_555
C23 C22 1_555 1_555
H16 C23 1_555 1_555
C24 C23 1_555 1_555
H17 C24 1_555 1_555
C25 C24 1_555 1_555
C26 C25 1_555 1_555
H18 C26 1_555 1_555
C27 C22 1_555 1_555
H19 C27 1_555 1_555
C28 C29 1_555 1_555
C29 H20 1_555 1_555
C30 C29 1_555 1_555
H21 C30 1_555 1_555
C31 C30 1_555 1_555
H22 C31 1_555 1_555
C32 C31 1_555 1_555
H23 C32 1_555 1_555
C33 C28 1_555 1_555
H24 C33 1_555 1_555
C34 C35 1_555 1_555
C35 H25 1_555 1_555
C36 C35 1_555 1_555
H26 C36 1_555 1_555
C37 C36 1_555 1_555
H27 C37 1_555 1_555
C38 C37 1_555 1_555
H28 C38 1_555 1_555
C39 C34 1_555 1_555
H29 C39 1_555 1_555
N1 C1 1_555 1_555
N2 C5 1_555 1_555
N3 C25 1_555 1_555
S1 C1 1_555 1_555
C40 H30 1_555 1_555
Cl1 C40 1_555 1_555
Cl2 C40 1_555 1_555
C41 H31 1_555 1_555
H32 C41 1_555 1_555
C42 C41 1_555 1_555
H33 C42 1_555 1_555
H34 C42 1_555 1_555
O1 C42 1_555 1_555
H35 O1 1_555 1_555
C6 C7 1_555 1_555
C8 N2 1_555 1_555
C12 C13 1_555 1_555
C14 N2 1_555 1_555
C18 C19 1_555 1_555
C20 N1 1_555 1_555
C21 S1 1_555 1_555
C26 C27 1_555 1_555
C28 N3 1_555 1_555
C32 C33 1_555 1_555
C34 N3 1_555 1_555
C38 C39 1_555 1_555

#END
