
#######################################################################
#
#                 Cambridge Crystallographic Data Centre
#                                CCDC 
#
#######################################################################
#
# If this CIF has been generated from an entry in the Cambridge 
# Structural Database, then it will include bibliographic, chemical, 
# crystal, experimental, refinement or atomic coordinate data resulting 
# from the CCDC's data processing and validation procedures.
#
#######################################################################

data_ZUVRIR
_chemical_formula_moiety         'C8 H20 N1 1+,C15 H4 B1 F18 N6 1-'
_chemical_name_systematic        
'Tetraethylammonium (hydrogen tris(3,5-bis(trifluoromethyl)pyrazol-2-yl)borate)'
_symmetry_cell_setting           monoclinic
_symmetry_space_group_name_H-M   'P 21/n'
_symmetry_Int_Tables_number      14
_space_group_name_Hall           '-P 2yn'
loop_
_symmetry_equiv_pos_site_id
_symmetry_equiv_pos_as_xyz
1 x,y,z
2 1/2-x,1/2+y,1/2-z
3 -x,-y,-z
4 1/2+x,1/2-y,1/2+z
_cell_length_a                   10.155(2)
_cell_length_b                   18.580(4)
_cell_length_c                   16.875(5)
_cell_angle_alpha                90
_cell_angle_beta                 99.01(2)
_cell_angle_gamma                90
_cell_volume                     3144.69
_exptl_crystal_colour            colorless
_chemical_melting_point          '113-114.5 deg.C'
_cell_formula_units_Z            4
loop_
_atom_site_label
_atom_site_type_symbol
_atom_site_fract_x
_atom_site_fract_y
_atom_site_fract_z
N1 N -0.1433(4) 0.2049(2) -0.1164(2)
N2 N -0.2515(4) 0.2031(2) -0.0791(2)
N3 N -0.0846(4) 0.3279(2) -0.0561(2)
N4 N -0.1009(4) 0.3346(2) 0.0219(2)
N5 N 0.0743(4) 0.2231(2) -0.0225(2)
N6 N 0.0651(4) 0.1516(2) -0.0089(2)
C1 C -0.3284(5) 0.1519(3) -0.1164(3)
C2 C -0.2723(6) 0.1199(3) -0.1771(3)
C3 C -0.1541(5) 0.1548(3) -0.1755(3)
C4 C -0.4608(6) 0.1369(3) -0.0953(3)
C5 C -0.0550(7) 0.1448(3) -0.2295(3)
C6 C -0.1494(5) 0.3999(3) 0.0278(3)
C7 C -0.1663(5) 0.4369(3) -0.0448(3)
C8 C -0.1243(5) 0.3893(3) -0.0974(3)
C9 C -0.1753(9) 0.4267(3) 0.1054(4)
C10 C -0.1237(6) 0.3995(3) -0.1838(3)
C11 C 0.1764(5) 0.1339(3) 0.0398(3)
C12 C 0.2606(5) 0.1928(3) 0.0585(3)
C13 C 0.1924(5) 0.2484(3) 0.0168(3)
C14 C 0.1986(6) 0.0584(3) 0.0658(3)
C15 C 0.2389(6) 0.3233(3) 0.0147(4)
F1 F -0.4573(3) 0.0939(2) -0.0306(2)
F2 F -0.5412(4) 0.1044(2) -0.1545(2)
F3 F -0.5236(3) 0.1965(2) -0.0772(2)
F4 F 0.0707(4) 0.1373(2) -0.1924(2)
F5 F -0.0842(4) 0.0870(2) -0.2759(2)
F6 F -0.0519(4) 0.2002(2) -0.2806(2)
F7 F -0.0573(6) 0.4357(3) 0.1588(3)
F8 F -0.2370(5) 0.3844(2) 0.1465(3)
F9 F -0.2226(6) 0.4916(2) 0.1032(2)
F10 F -0.1878(3) 0.3476(2) -0.2295(2)
F11 F -0.0006(3) 0.4023(2) -0.2035(2)
F12 F -0.1829(3) 0.4614(2) -0.2089(2)
F13 F 0.3234(3) 0.0485(2) 0.1044(2)
F14 F 0.1815(4) 0.0124(2) 0.0062(2)
F15 F 0.1213(4) 0.0366(2) 0.1171(2)
F16 F 0.3712(3) 0.3274(2) 0.0326(2)
F17 F 0.1922(4) 0.3671(2) 0.0666(2)
F18 F 0.2067(4) 0.3543(2) -0.0566(2)
B1 B -0.0282(6) 0.2586(3) -0.0896(3)
H1 H -0.3081 0.0816 -0.2123
H2 H -0.1998 0.4848 -0.0555
H3 H 0.3458 0.1942 0.0925
H4 H 0.0217 0.2722 -0.1410
N7 N 0.1635(4) 0.8445(2) 0.7998(2)
C16 C 0.0444(5) 0.8093(3) 0.8293(3)
C17 C -0.0194(6) 0.7478(3) 0.7789(3)
C18 C 0.2794(5) 0.7921(3) 0.8061(3)
C19 C 0.3420(6) 0.7718(3) 0.8913(3)
C20 C 0.1318(6) 0.8656(3) 0.7120(3)
C21 C 0.0179(7) 0.9172(4) 0.6918(4)
C22 C 0.1974(6) 0.9089(3) 0.8543(3)
C23 C 0.3164(7) 0.9526(3) 0.8367(4)
H5 H -0.0223 0.8457 0.8311
H6 H 0.0739 0.7912 0.8824
H7 H -0.0895 0.7275 0.8039
H8 H 0.0463 0.7115 0.7742
H9 H -0.0557 0.7653 0.7265
H10 H 0.2481 0.7487 0.7784
H11 H 0.3475 0.8135 0.7802
H12 H 0.4033 0.7327 0.8895
H13 H 0.2732 0.7574 0.9210
H14 H 0.3888 0.8125 0.9169
H15 H 0.1102 0.8225 0.6812
H16 H 0.2100 0.8872 0.6969
H17 H 0.0065 0.9285 0.6356
H18 H 0.0368 0.9605 0.7225
H19 H -0.0624 0.8958 0.7044
H20 H 0.1213 0.9402 0.8482
H21 H 0.2159 0.8920 0.9087
H22 H 0.3350 0.9903 0.8757
H23 H 0.2969 0.9733 0.7840
H24 H 0.3926 0.9216 0.8395
loop_
_geom_bond_atom_site_label_1
_geom_bond_atom_site_label_2
_geom_bond_site_symmetry_1
_geom_bond_site_symmetry_2
N1 N2 1_555 1_555
N2 C1 1_555 1_555
N3 N4 1_555 1_555
N4 C6 1_555 1_555
N5 N6 1_555 1_555
N6 C11 1_555 1_555
C1 C2 1_555 1_555
C2 C3 1_555 1_555
C3 N1 1_555 1_555
C4 C1 1_555 1_555
C5 C3 1_555 1_555
C6 C7 1_555 1_555
C7 C8 1_555 1_555
C8 N3 1_555 1_555
C9 C6 1_555 1_555
C10 C8 1_555 1_555
C11 C12 1_555 1_555
C12 C13 1_555 1_555
C13 N5 1_555 1_555
C14 C11 1_555 1_555
C15 C13 1_555 1_555
F1 C4 1_555 1_555
F2 C4 1_555 1_555
F3 C4 1_555 1_555
F4 C5 1_555 1_555
F5 C5 1_555 1_555
F6 C5 1_555 1_555
F7 C9 1_555 1_555
F8 C9 1_555 1_555
F9 C9 1_555 1_555
F10 C10 1_555 1_555
F11 C10 1_555 1_555
F12 C10 1_555 1_555
F13 C14 1_555 1_555
F14 C14 1_555 1_555
F15 C14 1_555 1_555
F16 C15 1_555 1_555
F17 C15 1_555 1_555
F18 C15 1_555 1_555
B1 N1 1_555 1_555
N7 C16 1_555 1_555
C16 C17 1_555 1_555
C17 H7 1_555 1_555
C18 N7 1_555 1_555
C19 C18 1_555 1_555
C20 N7 1_555 1_555
C21 C20 1_555 1_555
C22 N7 1_555 1_555
C23 C22 1_555 1_555
H1 C2 1_555 1_555
H2 C7 1_555 1_555
H3 C12 1_555 1_555
H4 B1 1_555 1_555
H5 C16 1_555 1_555
H6 C16 1_555 1_555
H8 C17 1_555 1_555
H9 C17 1_555 1_555
H10 C18 1_555 1_555
H11 C18 1_555 1_555
H12 C19 1_555 1_555
H13 C19 1_555 1_555
H14 C19 1_555 1_555
H15 C20 1_555 1_555
H16 C20 1_555 1_555
H17 C21 1_555 1_555
H18 C21 1_555 1_555
H19 C21 1_555 1_555
H20 C22 1_555 1_555
H21 C22 1_555 1_555
H22 C23 1_555 1_555
H23 C23 1_555 1_555
H24 C23 1_555 1_555
N3 B1 1_555 1_555
N5 B1 1_555 1_555

#END
