
#######################################################################
#
#                 Cambridge Crystallographic Data Centre
#                                CCDC 
#
#######################################################################
#
# If this CIF has been generated from an entry in the Cambridge 
# Structural Database, then it will include bibliographic, chemical, 
# crystal, experimental, refinement or atomic coordinate data resulting 
# from the CCDC's data processing and validation procedures.
#
#######################################################################

data_ZUVSIU
_chemical_formula_moiety         'C42 H30 N4 S2,2(H2 O1)'
_chemical_name_systematic        
"4,4'-(5,5'-bi-1,3-thiazole-2,2'-diyl)bis(N,N-diphenylaniline) dihydrate"
_symmetry_cell_setting           triclinic
_symmetry_space_group_name_H-M   'P -1'
_symmetry_Int_Tables_number      2
_space_group_name_Hall           '-P 1'
loop_
_symmetry_equiv_pos_site_id
_symmetry_equiv_pos_as_xyz
1 x,y,z
2 -x,-y,-z
_cell_length_a                   10.237(4)
_cell_length_b                   11.233(4)
_cell_length_c                   15.634(5)
_cell_angle_alpha                78.122(4)
_cell_angle_beta                 85.747(5)
_cell_angle_gamma                79.296(5)
_cell_volume                     1727.47
_exptl_crystal_colour            red
_exptl_crystal_description       block
_cell_formula_units_Z            2
loop_
_atom_site_label
_atom_site_type_symbol
_atom_site_fract_x
_atom_site_fract_y
_atom_site_fract_z
C1 C 0.4927(3) 1.4350(3) 0.5119(2)
C2 C 0.5066(4) 1.3491(3) 0.4611(2)
H1 H 0.5285 1.3677 0.4016
C3 C 0.4551(3) 1.2296(3) 0.5852(2)
C4 C 0.4296(3) 1.1200(3) 0.6486(2)
C5 C 0.4655(4) 1.0016(3) 0.6291(2)
H2 H 0.5031 0.9931 0.5742
C6 C 0.4462(4) 0.8978(3) 0.6895(2)
H3 H 0.4713 0.8202 0.6751
C7 C 0.3887(3) 0.9084(3) 0.7728(2)
C8 C 0.3537(3) 1.0258(3) 0.7928(2)
H4 H 0.3172 1.0341 0.8480
C9 C 0.3726(3) 1.1305(3) 0.7315(2)
H5 H 0.3472 1.2081 0.7457
C10 C 0.3204(3) 0.7033(3) 0.8159(2)
C11 C 0.2437(3) 0.7185(3) 0.7431(2)
H6 H 0.2259 0.7955 0.7062
C12 C 0.1937(4) 0.6201(3) 0.7251(3)
H7 H 0.1435 0.6312 0.6760
C13 C 0.2182(4) 0.5050(3) 0.7802(3)
H8 H 0.1835 0.4394 0.7687
C14 C 0.2943(4) 0.4890(3) 0.8519(3)
H9 H 0.3112 0.4118 0.8885
C15 C 0.3465(4) 0.5865(3) 0.8705(2)
H10 H 0.3984 0.5740 0.9190
C16 C 0.3874(3) 0.8076(3) 0.9265(2)
C17 C 0.2874(3) 0.7876(3) 0.9896(2)
H11 H 0.2071 0.7717 0.9743
C18 C 0.3077(4) 0.7913(3) 1.0759(2)
H12 H 0.2409 0.7766 1.1184
C19 C 0.4261(4) 0.8168(3) 1.0996(2)
H13 H 0.4389 0.8193 1.1575
C20 C 0.5253(4) 0.8384(3) 1.0357(2)
H14 H 0.6047 0.8564 1.0506
C21 C 0.5064(3) 0.8334(3) 0.9499(2)
H15 H 0.5736 0.8473 0.9076
N1 N 0.4864(3) 1.2322(3) 0.50206(19)
N2 N 0.3690(3) 0.8038(2) 0.83672(18)
S1 S 0.45158(8) 1.36953(7) 0.61812(5)
C1A C 0.5073(3) 1.5650(3) 0.4881(2)
C2A C 0.4934(4) 1.6509(3) 0.5389(2)
H1A H 0.4715 1.6323 0.5984
C3A C 0.5449(3) 1.7704(3) 0.4148(2)
C4A C 0.5704(3) 1.8800(3) 0.3514(2)
C5A C 0.5345(4) 1.9984(3) 0.3709(2)
H2A H 0.4969 2.0069 0.4258
C6A C 0.5538(4) 2.1022(3) 0.3105(2)
H3A H 0.5287 2.1798 0.3249
C7A C 0.6113(3) 2.0916(3) 0.2272(2)
C8A C 0.6463(3) 1.9742(3) 0.2072(2)
H4A H 0.6828 1.9659 0.1520
C9A C 0.6274(3) 1.8695(3) 0.2685(2)
H5A H 0.6528 1.7919 0.2543
C10A C 0.6796(3) 2.2967(3) 0.1841(2)
C11A C 0.7563(3) 2.2815(3) 0.2569(2)
H6A H 0.7741 2.2045 0.2938
C12A C 0.8063(4) 2.3799(3) 0.2749(3)
H7A H 0.8565 2.3688 0.3240
C13A C 0.7818(4) 2.4950(3) 0.2198(3)
H8A H 0.8165 2.5606 0.2313
C14A C 0.7057(4) 2.5110(3) 0.1481(3)
H9A H 0.6888 2.5882 0.1115
C15A C 0.6535(4) 2.4135(3) 0.1295(2)
H10A H 0.6016 2.4260 0.0810
C16A C 0.6126(3) 2.1924(3) 0.0735(2)
C17A C 0.7126(3) 2.2124(3) 0.0104(2)
H11A H 0.7929 2.2283 0.0257
C18A C 0.6923(4) 2.2087(3) -0.0759(2)
H12A H 0.7591 2.2234 -0.1184
C19A C 0.5739(4) 2.1832(3) -0.0996(2)
H13A H 0.5611 2.1807 -0.1575
C20A C 0.4747(4) 2.1616(3) -0.0357(2)
H14A H 0.3953 2.1436 -0.0506
C21A C 0.4936(3) 2.1666(3) 0.0501(2)
H15A H 0.4264 2.1527 0.0924
N1A N 0.5136(3) 1.7678(3) 0.49794(19)
N2A N 0.6310(3) 2.1962(2) 0.16328(18)
S1A S 0.54842(8) 1.63047(7) 0.38188(5)
C22 C 0.0303(4) -0.4496(3) 0.4763(2)
C23 C 0.1557(4) -0.4279(4) 0.4877(3)
H16 H 0.2124 -0.4798 0.5287
C24 C 0.0961(4) -0.2654(3) 0.3830(2)
C25 C 0.1034(4) -0.1485(3) 0.3218(2)
C26 C 0.2212(4) -0.1028(4) 0.3144(2)
H17 H 0.2936 -0.1484 0.3460
C27 C 0.2330(4) 0.0087(3) 0.2615(2)
H18 H 0.3130 0.0379 0.2576
C28 C 0.1253(3) 0.0786(3) 0.2133(2)
C29 C 0.0067(3) 0.0337(3) 0.2193(2)
H19 H -0.0655 0.0793 0.1875
C30 C -0.0040(4) -0.0791(3) 0.2728(2)
H20 H -0.0834 -0.1092 0.2762
C31 C 0.1860(3) 0.2851(3) 0.1924(2)
C32 C 0.1662(4) 0.2893(4) 0.2815(3)
H21 H 0.1191 0.2341 0.3178
C33 C 0.2163(5) 0.3750(5) 0.3157(3)
H22 H 0.2051 0.3751 0.3752
C34 C 0.2826(5) 0.4606(4) 0.2624(4)
H23 H 0.3142 0.5194 0.2854
C35 C 0.3013(4) 0.4572(3) 0.1748(3)
H24 H 0.3459 0.5146 0.1386
C36 C 0.2548(3) 0.3698(3) 0.1387(3)
H25 H 0.2696 0.3681 0.0795
C37 C 0.0971(3) 0.2152(3) 0.0706(2)
C38 C 0.0302(4) 0.3298(3) 0.0290(3)
H26 H 0.0074 0.3944 0.0592
C39 C -0.0021(4) 0.3469(3) -0.0585(3)
H27 H -0.0421 0.4246 -0.0872
C40 C 0.0239(4) 0.2513(4) -0.1029(3)
H28 H 0.0016 0.2639 -0.1611
C41 C 0.0841(3) 0.1357(3) -0.0598(2)
H29 H 0.0986 0.0693 -0.0884
C42 C 0.1227(3) 0.1187(3) 0.0259(2)
H30 H 0.1662 0.0416 0.0534
N3 N 0.1908(4) -0.3257(3) 0.4349(2)
N4 N 0.1364(3) 0.1946(3) 0.15846(19)
S2 S -0.04532(9) -0.33383(9) 0.39608(6)
C22A C -0.0303(4) -0.5504(3) 0.5237(2)
C23A C -0.1557(4) -0.5721(4) 0.5123(3)
H16A H -0.2124 -0.5202 0.4713
C24A C -0.0961(4) -0.7346(3) 0.6170(2)
C25A C -0.1034(4) -0.8515(3) 0.6782(2)
C26A C -0.2212(4) -0.8972(4) 0.6856(2)
H17A H -0.2936 -0.8516 0.6540
C27A C -0.2330(4) -1.0087(3) 0.7385(2)
H18A H -0.3130 -1.0379 0.7424
C28A C -0.1253(3) -1.0786(3) 0.7867(2)
C29A C -0.0067(3) -1.0337(3) 0.7807(2)
H19A H 0.0655 -1.0793 0.8125
C30A C 0.0040(4) -0.9209(3) 0.7272(2)
H20A H 0.0834 -0.8908 0.7238
C31A C -0.1860(3) -1.2851(3) 0.8076(2)
C32A C -0.1662(4) -1.2893(4) 0.7185(3)
H21A H -0.1191 -1.2341 0.6822
C33A C -0.2163(5) -1.3750(5) 0.6843(3)
H22A H -0.2051 -1.3751 0.6248
C34A C -0.2826(5) -1.4606(4) 0.7376(4)
H23A H -0.3142 -1.5194 0.7146
C35A C -0.3013(4) -1.4572(3) 0.8252(3)
H24A H -0.3459 -1.5146 0.8614
C36A C -0.2548(3) -1.3698(3) 0.8613(3)
H25A H -0.2696 -1.3681 0.9205
C37A C -0.0971(3) -1.2152(3) 0.9294(2)
C38A C -0.0302(4) -1.3298(3) 0.9710(3)
H26A H -0.0074 -1.3944 0.9408
C39A C 0.0021(4) -1.3469(3) 1.0585(3)
H27A H 0.0421 -1.4246 1.0872
C40A C -0.0239(4) -1.2513(4) 1.1029(3)
H28A H -0.0016 -1.2639 1.1611
C41A C -0.0841(3) -1.1357(3) 1.0598(2)
H29A H -0.0986 -1.0693 1.0884
C42A C -0.1227(3) -1.1187(3) 0.9741(2)
H30A H -0.1662 -1.0416 0.9466
N3A N -0.1908(4) -0.6743(3) 0.5651(2)
N4A N -0.1364(3) -1.1946(3) 0.84154(19)
S2A S 0.04532(9) -0.66617(9) 0.60392(6)
O1 O 0.0344(14) 0.8811(10) 0.5576(5)
H31 H 0.0455 0.8180 0.5311
H32 H -0.0054 0.8613 0.6059
O2 O 0.1142(13) 1.0171(10) 0.5091(5)
H33 H 0.1838 1.0000 0.5062
H34? H 0.0762 0.9695 0.5601
loop_
_geom_bond_atom_site_label_1
_geom_bond_atom_site_label_2
_geom_bond_site_symmetry_1
_geom_bond_site_symmetry_2
C1 C2 1_555 1_555
C2 H1 1_555 1_555
C3 C4 1_555 1_555
C4 C5 1_555 1_555
C5 H2 1_555 1_555
C6 C5 1_555 1_555
H3 C6 1_555 1_555
C7 C6 1_555 1_555
C8 C7 1_555 1_555
H4 C8 1_555 1_555
C9 C4 1_555 1_555
H5 C9 1_555 1_555
C10 C11 1_555 1_555
C11 H6 1_555 1_555
C12 C11 1_555 1_555
H7 C12 1_555 1_555
C13 C12 1_555 1_555
H8 C13 1_555 1_555
C14 C13 1_555 1_555
H9 C14 1_555 1_555
C15 C10 1_555 1_555
H10 C15 1_555 1_555
C16 C17 1_555 1_555
C17 H11 1_555 1_555
C18 C17 1_555 1_555
H12 C18 1_555 1_555
C19 C18 1_555 1_555
H13 C19 1_555 1_555
C20 C19 1_555 1_555
H14 C20 1_555 1_555
C21 C16 1_555 1_555
H15 C21 1_555 1_555
N1 C2 1_555 1_555
N2 C7 1_555 1_555
S1 C1 1_555 1_555
C22 C23 1_555 1_555
C23 H16 1_555 1_555
C24 C25 1_555 1_555
C25 C26 1_555 1_555
C26 H17 1_555 1_555
C27 C26 1_555 1_555
H18 C27 1_555 1_555
C28 C27 1_555 1_555
C29 C28 1_555 1_555
H19 C29 1_555 1_555
C30 C25 1_555 1_555
H20 C30 1_555 1_555
C31 C32 1_555 1_555
C32 H21 1_555 1_555
C33 C32 1_555 1_555
H22 C33 1_555 1_555
C34 C33 1_555 1_555
H23 C34 1_555 1_555
C35 C34 1_555 1_555
H24 C35 1_555 1_555
C36 C31 1_555 1_555
H25 C36 1_555 1_555
C37 C38 1_555 1_555
C38 H26 1_555 1_555
C39 C38 1_555 1_555
H27 C39 1_555 1_555
C40 C39 1_555 1_555
H28 C40 1_555 1_555
C41 C40 1_555 1_555
H29 C41 1_555 1_555
C42 C37 1_555 1_555
H30 C42 1_555 1_555
N3 C23 1_555 1_555
N4 C28 1_555 1_555
S2 C22 1_555 1_555
O1 H31 1_555 1_555
H32 O1 1_555 1_555
O2 H33 1_555 1_555
C1A C1 1_555 1_555
C2A C1A 1_555 1_555
H1A C2A 1_555 1_555
C3A C4A 1_555 1_555
C4A C5A 1_555 1_555
C5A H2A 1_555 1_555
C6A C5A 1_555 1_555
H3A C6A 1_555 1_555
C7A C6A 1_555 1_555
C8A C7A 1_555 1_555
H4A C8A 1_555 1_555
C9A C4A 1_555 1_555
H5A C9A 1_555 1_555
C10A C11A 1_555 1_555
C11A H6A 1_555 1_555
C12A C11A 1_555 1_555
H7A C12A 1_555 1_555
C13A C12A 1_555 1_555
H8A C13A 1_555 1_555
C14A C13A 1_555 1_555
H9A C14A 1_555 1_555
C15A C10A 1_555 1_555
H10A C15A 1_555 1_555
C16A C17A 1_555 1_555
C17A H11A 1_555 1_555
C18A C17A 1_555 1_555
H12A C18A 1_555 1_555
C19A C18A 1_555 1_555
H13A C19A 1_555 1_555
C20A C19A 1_555 1_555
H14A C20A 1_555 1_555
C21A C16A 1_555 1_555
H15A C21A 1_555 1_555
N1A C2A 1_555 1_555
N2A C7A 1_555 1_555
S1A C1A 1_555 1_555
C22A C22 1_555 1_555
C23A C22A 1_555 1_555
H16A C23A 1_555 1_555
C24A C25A 1_555 1_555
C25A C26A 1_555 1_555
C26A H17A 1_555 1_555
C27A C26A 1_555 1_555
H18A C27A 1_555 1_555
C28A C27A 1_555 1_555
C29A C28A 1_555 1_555
H19A C29A 1_555 1_555
C30A C25A 1_555 1_555
H20A C30A 1_555 1_555
C31A C32A 1_555 1_555
C32A H21A 1_555 1_555
C33A C32A 1_555 1_555
H22A C33A 1_555 1_555
C34A C33A 1_555 1_555
H23A C34A 1_555 1_555
C35A C34A 1_555 1_555
H24A C35A 1_555 1_555
C36A C31A 1_555 1_555
H25A C36A 1_555 1_555
C37A C38A 1_555 1_555
C38A H26A 1_555 1_555
C39A C38A 1_555 1_555
H27A C39A 1_555 1_555
C40A C39A 1_555 1_555
H28A C40A 1_555 1_555
C41A C40A 1_555 1_555
H29A C41A 1_555 1_555
C42A C37A 1_555 1_555
H30A C42A 1_555 1_555
N3A C23A 1_555 1_555
N4A C28A 1_555 1_555
S2A C22A 1_555 1_555
C3 N1 1_555 1_555
C3 S1 1_555 1_555
C8 C9 1_555 1_555
C10 N2 1_555 1_555
C14 C15 1_555 1_555
C16 N2 1_555 1_555
C20 C21 1_555 1_555
C24 N3 1_555 1_555
C24 S2 1_555 1_555
C29 C30 1_555 1_555
C31 N4 1_555 1_555
C35 C36 1_555 1_555
C37 N4 1_555 1_555
C41 C42 1_555 1_555
C3A N1A 1_555 1_555
C3A S1A 1_555 1_555
C8A C9A 1_555 1_555
C10A N2A 1_555 1_555
C14A C15A 1_555 1_555
C16A N2A 1_555 1_555
C20A C21A 1_555 1_555
C24A N3A 1_555 1_555
C24A S2A 1_555 1_555
C29A C30A 1_555 1_555
C31A N4A 1_555 1_555
C35A C36A 1_555 1_555
C37A N4A 1_555 1_555
C41A C42A 1_555 1_555

#END
