
#######################################################################
#
#                 Cambridge Crystallographic Data Centre
#                                CCDC 
#
#######################################################################
#
# If this CIF has been generated from an entry in the Cambridge 
# Structural Database, then it will include bibliographic, chemical, 
# crystal, experimental, refinement or atomic coordinate data resulting 
# from the CCDC's data processing and validation procedures.
#
#######################################################################

data_ZUVTUH
_chemical_formula_moiety         'C48 H52 O10'
_chemical_name_systematic        
'17-hydroxy-3-oxo-22,25-epoxyfurost-14-en-12,23,26-triyl tribenzoate'
_symmetry_cell_setting           monoclinic
_symmetry_space_group_name_H-M   'P 21'
_symmetry_Int_Tables_number      4
_space_group_name_Hall           'P 2yb'
loop_
_symmetry_equiv_pos_site_id
_symmetry_equiv_pos_as_xyz
1 x,y,z
2 -x,1/2+y,-z
_cell_length_a                   11.2106(3)
_cell_length_b                   6.3133(2)
_cell_length_c                   28.5770(10)
_cell_angle_alpha                90
_cell_angle_beta                 96.8071(12)
_cell_angle_gamma                90
_cell_volume                     2008.3
_exptl_crystal_description       needle
_cell_formula_units_Z            2
loop_
_atom_site_label
_atom_site_type_symbol
_atom_site_fract_x
_atom_site_fract_y
_atom_site_fract_z
O1 O 0.3029(2) 0.1034(4) 0.47317(8)
O2 O 0.75670(16) 0.8292(3) 0.20435(7)
O3 O 0.80294(16) 1.1666(3) 0.23489(6)
O4 O 0.27498(16) 0.7469(3) 0.19766(6)
O5 O 0.2433(2) 0.4106(3) 0.17257(8)
O6 O 0.49204(18) 0.7912(3) 0.15895(6)
O7 O 0.97933(19) 1.0939(4) 0.30984(7)
O8 O 0.9513(2) 0.7577(4) 0.33291(8)
O9 O 0.76630(19) 0.9798(3) 0.11654(6)
O10 O 0.8054(2) 1.2415(4) 0.06701(7)
C1 C 0.2540(3) 0.3604(5) 0.36206(10)
C2 C 0.2033(3) 0.2919(6) 0.40736(10)
C3 C 0.2996(3) 0.2615(6) 0.44814(11)
C4 C 0.3906(3) 0.4374(6) 0.45544(10)
C5 C 0.4386(3) 0.5005(6) 0.40911(9)
C6 C 0.5306(3) 0.6788(6) 0.41757(10)
C7 C 0.5879(3) 0.7244(6) 0.37275(10)
C8 C 0.4935(3) 0.7745(5) 0.33137(9)
C9 C 0.3989(2) 0.5943(5) 0.32400(9)
C10 C 0.3371(3) 0.5542(5) 0.36900(10)
C11 C 0.3091(3) 0.6301(5) 0.27912(9)
C12 C 0.3681(2) 0.6800(5) 0.23498(9)
C13 C 0.4588(2) 0.8634(5) 0.24221(10)
C14 C 0.5447(3) 0.8009(5) 0.28534(9)
C15 C 0.6518(3) 0.7401(5) 0.27466(9)
C16 C 0.6537(2) 0.7382(5) 0.22217(9)
C17 C 0.5456(2) 0.8731(5) 0.20329(10)
C18 C 0.3924(3) 1.0712(5) 0.24935(10)
C19 C 0.2624(3) 0.7467(6) 0.38088(11)
C20 C 0.7389(3) 1.0500(4) 0.19766(10)
C21 C 0.6037(2) 1.0927(5) 0.19790(9)
C22 C 0.9300(3) 1.1744(5) 0.22759(10)
C23 C 0.9337(3) 1.0939(6) 0.17680(10)
C24 C 0.8034(3) 1.1156(5) 0.15604(10)
C25 C 0.2269(2) 0.5992(5) 0.16711(10)
C26 C 0.1525(2) 0.6943(5) 0.12617(9)
C27 C 0.0633(2) 0.5709(5) 0.10178(9)
C28 C -0.0077(3) 0.6517(5) 0.06254(10)
C29 C 0.0150(3) 0.8535(5) 0.04711(10)
C30 C 0.1038(3) 0.9776(5) 0.07087(10)
C31 C 0.1720(3) 0.8999(5) 0.11116(10)
C32 C 0.5451(3) 1.2224(5) 0.15591(10)
C33 C 0.9975(3) 1.0245(6) 0.26271(10)
C34 C 0.9702(3) 1.4017(5) 0.23470(12)
C35 C 0.9484(3) 0.9470(6) 0.34034(11)
C36 C 0.9124(3) 1.0431(5) 0.38360(11)
C37 C 0.9213(3) 0.9196(6) 0.42410(12)
C38 C 0.8884(4) 1.0035(7) 0.46568(13)
C39 C 0.8452(3) 1.2070(7) 0.46663(14)
C40 C 0.8356(3) 1.3295(7) 0.42647(13)
C41 C 0.8702(3) 1.2493(6) 0.38483(12)
C42 C 0.7661(3) 1.0670(5) 0.07329(10)
C43 C 0.7121(2) 0.9222(5) 0.03542(10)
C44 C 0.6668(3) 0.7257(5) 0.04548(11)
C45 C 0.6185(3) 0.5942(6) 0.00891(11)
C46 C 0.6157(3) 0.6624(6) -0.03697(11)
C47 C 0.6598(3) 0.8572(6) -0.04727(11)
C48 C 0.7084(3) 0.9901(6) -0.01121(10)
H1 H 0.4822 0.3745 0.3984
H2 H 0.4516 0.9086 0.3384
H3 H 0.4442 0.4620 0.3184
H4 H 0.4092 0.5505 0.2247
H5 H 0.7179 0.7030 0.2971
H6 H 0.6418 0.5900 0.2102
H7 H 0.2992 0.2407 0.3504
H8 H 0.1863 0.3936 0.3376
H9 H 0.5943 1.1753 0.2271
H10 H 0.7847 1.2666 0.1475
H11 H 0.1459 0.4006 0.4158
H12 H 0.1586 0.1574 0.4014
H13 H 0.4585 0.3911 0.4785
H14 H 0.3532 0.5623 0.4687
H15 H 0.5937 0.6378 0.4432
H16 H 0.4907 0.8083 0.4275
H17 H 0.6435 0.8460 0.3783
H18 H 0.6353 0.5998 0.3649
H19 H 0.2591 0.5014 0.2732
H20 H 0.2549 0.7485 0.2850
H21 H 0.0506 0.4303 0.1119
H22 H -0.0709 0.5692 0.0466
H23 H -0.0312 0.9078 0.0197
H24 H 0.1185 1.1159 0.0598
H25 H 0.2312 0.9865 0.1282
H26 H 0.4282 0.8573 0.1503
H27 H 0.3315 1.0468 0.2707
H28 H 0.3535 1.1220 0.2189
H29 H 0.4499 1.1776 0.2631
H30 H 0.1923 0.7610 0.3571
H31 H 0.3117 0.8750 0.3811
H32 H 0.2356 0.7269 0.4120
H33 H 0.5535 1.1466 0.1265
H34 H 0.5846 1.3607 0.1554
H35 H 0.4597 1.2426 0.1589
H36 H 0.9497 0.7780 0.4234
H37 H 0.8957 0.9200 0.4935
H38 H 0.8218 1.2632 0.4950
H39 H 0.8053 1.4697 0.4272
H40 H 0.8649 1.3352 0.3574
H41 H 0.9672 0.8782 0.2573
H42 H 1.0842 1.0260 0.2590
H43 H 0.9258 1.4910 0.2106
H44 H 1.0565 1.4118 0.2321
H45 H 0.9546 1.4497 0.2660
H46 H 0.9869 1.1827 0.1596
H47 H 0.9608 0.9448 0.1765
H48 H 0.6686 0.6805 0.0773
H49 H 0.5878 0.4586 0.0156
H50 H 0.5825 0.5729 -0.0619
H51 H 0.6572 0.9014 -0.0791
H52 H 0.7388 1.1255 -0.0182
loop_
_geom_bond_atom_site_label_1
_geom_bond_atom_site_label_2
_geom_bond_site_symmetry_1
_geom_bond_site_symmetry_2
O1 C3 1_555 1_555
O2 C16 1_555 1_555
O3 C20 1_555 1_555
O4 C12 1_555 1_555
O5 C25 1_555 1_555
O6 C17 1_555 1_555
O7 C33 1_555 1_555
O8 C35 1_555 1_555
O9 C24 1_555 1_555
O10 C42 1_555 1_555
C1 C2 1_555 1_555
C2 C3 1_555 1_555
C3 C4 1_555 1_555
C4 C5 1_555 1_555
C5 C6 1_555 1_555
C6 C7 1_555 1_555
C7 C8 1_555 1_555
C8 C9 1_555 1_555
C9 C10 1_555 1_555
C10 C1 1_555 1_555
C11 C9 1_555 1_555
C12 C11 1_555 1_555
C13 C12 1_555 1_555
C14 C8 1_555 1_555
C15 C14 1_555 1_555
C16 C15 1_555 1_555
C17 C13 1_555 1_555
C18 C13 1_555 1_555
C19 C10 1_555 1_555
C20 O2 1_555 1_555
C21 C17 1_555 1_555
C22 O3 1_555 1_555
C23 C22 1_555 1_555
C24 C20 1_555 1_555
C25 O4 1_555 1_555
C26 C25 1_555 1_555
C27 C26 1_555 1_555
C28 C27 1_555 1_555
C29 C28 1_555 1_555
C30 C29 1_555 1_555
C31 C26 1_555 1_555
C32 C21 1_555 1_555
C33 C22 1_555 1_555
C34 C22 1_555 1_555
C35 O7 1_555 1_555
C36 C35 1_555 1_555
C37 C36 1_555 1_555
C38 C37 1_555 1_555
C39 C38 1_555 1_555
C40 C39 1_555 1_555
C41 C36 1_555 1_555
C42 O9 1_555 1_555
C43 C42 1_555 1_555
C44 C43 1_555 1_555
C45 C44 1_555 1_555
C46 C45 1_555 1_555
C47 C46 1_555 1_555
C48 C43 1_555 1_555
H1 C5 1_555 1_555
H2 C8 1_555 1_555
H3 C9 1_555 1_555
H4 C12 1_555 1_555
H5 C15 1_555 1_555
H6 C16 1_555 1_555
H7 C1 1_555 1_555
H8 C1 1_555 1_555
H9 C21 1_555 1_555
H10 C24 1_555 1_555
H11 C2 1_555 1_555
H12 C2 1_555 1_555
H13 C4 1_555 1_555
H14 C4 1_555 1_555
H15 C6 1_555 1_555
H16 C6 1_555 1_555
H17 C7 1_555 1_555
H18 C7 1_555 1_555
H19 C11 1_555 1_555
H20 C11 1_555 1_555
H21 C27 1_555 1_555
H22 C28 1_555 1_555
H23 C29 1_555 1_555
H24 C30 1_555 1_555
H25 C31 1_555 1_555
H26 O6 1_555 1_555
H27 C18 1_555 1_555
H28 C18 1_555 1_555
H29 C18 1_555 1_555
H30 C19 1_555 1_555
H31 C19 1_555 1_555
H32 C19 1_555 1_555
H33 C32 1_555 1_555
H34 C32 1_555 1_555
H35 C32 1_555 1_555
H36 C37 1_555 1_555
H37 C38 1_555 1_555
H38 C39 1_555 1_555
H39 C40 1_555 1_555
H40 C41 1_555 1_555
H41 C33 1_555 1_555
H42 C33 1_555 1_555
H43 C34 1_555 1_555
H44 C34 1_555 1_555
H45 C34 1_555 1_555
H46 C23 1_555 1_555
H47 C23 1_555 1_555
H48 C44 1_555 1_555
H49 C45 1_555 1_555
H50 C46 1_555 1_555
H51 C47 1_555 1_555
H52 C48 1_555 1_555
C5 C10 1_555 1_555
C13 C14 1_555 1_555
C16 C17 1_555 1_555
C20 C21 1_555 1_555
C23 C24 1_555 1_555
C30 C31 1_555 1_555
C40 C41 1_555 1_555
C47 C48 1_555 1_555

#END
