
#######################################################################
#
#                 Cambridge Crystallographic Data Centre
#                                CCDC 
#
#######################################################################
#
# If this CIF has been generated from an entry in the Cambridge 
# Structural Database, then it will include bibliographic, chemical, 
# crystal, experimental, refinement or atomic coordinate data resulting 
# from the CCDC's data processing and validation procedures.
#
#######################################################################

data_ZUWBUQ
_chemical_formula_moiety         'C19 H30 N2 O3 S1'
_chemical_name_systematic        
N-t-Butyl-2-(butyl((4-methylphenyl)sulfonyl)amino)cyclopropanecarboxamide
_symmetry_cell_setting           triclinic
_symmetry_space_group_name_H-M   'P -1'
_symmetry_Int_Tables_number      2
_space_group_name_Hall           '-P 1'
loop_
_symmetry_equiv_pos_site_id
_symmetry_equiv_pos_as_xyz
1 x,y,z
2 -x,-y,-z
_cell_length_a                   9.8452(16)
_cell_length_b                   12.615(2)
_cell_length_c                   17.535(3)
_cell_angle_alpha                70.290(4)
_cell_angle_beta                 75.181(5)
_cell_angle_gamma                85.869(4)
_cell_volume                     1981.77
_exptl_crystal_colour            colorless
_exptl_crystal_description       Rectangular
_cell_formula_units_Z            4
loop_
_atom_site_label
_atom_site_type_symbol
_atom_site_fract_x
_atom_site_fract_y
_atom_site_fract_z
S1 S 0.17895(3) 0.05407(3) 0.82065(2)
O1 O -0.07936(10) 0.43893(8) 0.86087(6)
O2 O 0.28157(10) 0.02564(9) 0.75664(7)
O3 O 0.18283(11) 0.00346(8) 0.90641(6)
N1 N 0.11870(13) 0.53240(9) 0.84982(7)
H1 H 0.2021(19) 0.5248(14) 0.8481(10)
N2 N 0.19271(12) 0.19150(9) 0.79755(7)
C1 C 0.04612(14) 0.44027(11) 0.86023(8)
C2 C 0.13272(14) 0.33670(11) 0.87016(8)
H2 H 0.2303(19) 0.3473(14) 0.8589(10)
C3 C 0.08538(14) 0.24328(10) 0.84651(8)
H3 H -0.0002(17) 0.2574(13) 0.8296(10)
C4 C 0.07643(16) 0.22542(11) 0.93579(8)
H4 H -0.014(2) 0.2254(14) 0.9696(11)
H5 H 0.1429(18) 0.1779(15) 0.9601(10)
C5 C 0.23301(15) 0.26166(12) 0.70798(8)
H6 H 0.1586(18) 0.3213(14) 0.6987(10)
H7 H 0.2343(18) 0.2183(15) 0.6728(11)
C6 C 0.37664(16) 0.31786(13) 0.68423(9)
H8 H 0.451(2) 0.2608(16) 0.6767(11)
H9 H 0.3883(19) 0.3429(15) 0.7306(11)
C7 C 0.39577(19) 0.42205(14) 0.60659(10)
H10 H 0.363(2) 0.4044(17) 0.5632(13)
H11 H 0.495(2) 0.4425(18) 0.5883(13)
C8 C 0.3132(2) 0.52221(15) 0.62295(12)
H12 H 0.212(2) 0.5044(19) 0.6381(13)
H13 H 0.327(2) 0.591(2) 0.5745(15)
H14 H 0.331(2) 0.5419(19) 0.6678(15)
C9 C 0.01012(14) 0.02822(10) 0.81260(8)
C10 C -0.10376(15) 0.01489(11) 0.88134(8)
H15 H -0.0912(17) 0.0155(14) 0.9331(11)
C11 C -0.23703(15) 0.00113(11) 0.87320(9)
H16 H -0.3143(19) -0.0087(15) 0.9214(11)
C12 C -0.25906(15) 0.00049(11) 0.79783(9)
C13 C -0.14268(15) 0.01235(11) 0.73030(9)
H17 H -0.1535(19) 0.0114(16) 0.6776(12)
C14 C -0.00844(15) 0.02736(11) 0.73677(9)
H18 H 0.0690(18) 0.0367(14) 0.6898(11)
C15 C -0.40517(17) -0.00873(14) 0.78836(11)
H19 H -0.403(3) -0.017(2) 0.7355(16)
H20 H -0.449(3) -0.071(2) 0.8270(16)
H21 H -0.451(3) 0.054(2) 0.7883(15)
C16 C 0.06457(14) 0.64840(11) 0.83338(9)
C17 C 0.18255(19) 0.71953(13) 0.83475(12)
H22 H 0.266(2) 0.7142(16) 0.7939(12)
H23 H 0.198(2) 0.6931(16) 0.8879(12)
H24 H 0.154(2) 0.7950(18) 0.8245(12)
C18 C 0.03473(16) 0.69084(12) 0.74698(9)
H25 H -0.0306(19) 0.6410(15) 0.7415(11)
H26 H 0.120(2) 0.6919(15) 0.7046(11)
H27 H -0.0029(19) 0.7660(17) 0.7375(11)
C19 C -0.06717(18) 0.65250(14) 0.90067(10)
H28 H -0.0451(19) 0.6217(16) 0.9544(12)
H29 H -0.143(2) 0.6079(18) 0.8991(12)
H30 H -0.094(2) 0.7310(18) 0.8912(12)
S2 S 0.27758(3) 0.17463(2) 0.432875(19)
O4 O 0.56972(10) 0.51291(8) 0.16402(6)
O5 O 0.18109(10) 0.16204(8) 0.51211(6)
O6 O 0.25809(10) 0.10866(8) 0.38404(6)
N3 N 0.38193(13) 0.60077(9) 0.11609(7)
H31 H 0.298(2) 0.5924(14) 0.1202(10)
N4 N 0.27243(12) 0.30929(9) 0.37429(7)
C20 C 0.44421(14) 0.51458(11) 0.16348(8)
C21 C 0.34596(14) 0.41838(11) 0.21857(8)
H32 H 0.2508(18) 0.4328(13) 0.2214(9)
C22 C 0.38362(14) 0.34341(11) 0.29771(8)
H33 H 0.4728(17) 0.3619(13) 0.3053(9)
C23 C 0.39115(16) 0.29854(11) 0.22823(9)
H34 H 0.3198(18) 0.2456(14) 0.2345(10)
H35 H 0.481(2) 0.2876(15) 0.1987(11)
C24 C 0.25539(16) 0.39120(12) 0.41989(9)
H36 H 0.348(2) 0.4053(15) 0.4295(11)
H37 H 0.192(2) 0.3598(16) 0.4745(12)
C25 C 0.1984(2) 0.50220(14) 0.37458(11)
H38 H 0.1083(17) 0.4815(13) 0.3712(9)
H39 H 0.269(2) 0.5393(18) 0.3188(14)
C26 C 0.17236(19) 0.58353(14) 0.42390(11)
H40 H 0.268(2) 0.5980(18) 0.4351(13)
H41 H 0.106(3) 0.548(2) 0.4816(16)
C27 C 0.1151(3) 0.6943(2) 0.37935(18)
H42 H 0.187(3) 0.717(2) 0.3262(19)
H43 H 0.096(3) 0.748(2) 0.4093(15)
H44 H 0.023(4) 0.681(3) 0.367(2)
C28 C 0.44998(13) 0.15311(10) 0.44702(8)
C29 C 0.55331(14) 0.12022(11) 0.38946(8)
H45 H 0.5300(18) 0.1039(15) 0.3447(11)
C30 C 0.69024(14) 0.11121(11) 0.39773(8)
H46 H 0.7586(18) 0.0884(14) 0.3591(10)
C31 C 0.72631(14) 0.13517(11) 0.46211(8)
C32 C 0.61976(15) 0.16543(11) 0.52023(9)
H47 H 0.6436(17) 0.1787(14) 0.5665(11)
C33 C 0.48190(15) 0.17483(11) 0.51325(8)
H48 H 0.4074(18) 0.1948(14) 0.5548(10)
C34 C 0.87649(16) 0.12864(13) 0.46828(10)
H49 H 0.883(2) 0.0932(18) 0.5231(14)
H50 H 0.916(2) 0.201(2) 0.4491(14)
H51 H 0.932(2) 0.086(2) 0.4371(14)
C35 C 0.45005(14) 0.70820(11) 0.05713(8)
C36 C 0.49428(16) 0.77449(12) 0.10565(10)
H52 H 0.413(2) 0.7897(15) 0.1454(11)
H53 H 0.565(2) 0.7321(17) 0.1357(12)
H54 H 0.541(2) 0.8481(17) 0.0659(12)
C37 C 0.33831(17) 0.77400(13) 0.01423(10)
H55 H 0.3123(19) 0.7321(16) -0.0157(11)
H56 H 0.3781(19) 0.8462(16) -0.0244(12)
H57 H 0.254(2) 0.7883(16) 0.0542(12)
C38 C 0.57565(17) 0.68622(14) -0.00711(9)
H58 H 0.5465(19) 0.6431(16) -0.0347(11)
H59 H 0.645(2) 0.6436(16) 0.0185(11)
H60 H 0.6194(19) 0.7598(16) -0.0491(12)
loop_
_geom_bond_atom_site_label_1
_geom_bond_atom_site_label_2
_geom_bond_site_symmetry_1
_geom_bond_site_symmetry_2
S1 O2 1_555 1_555
O1 C1 1_555 1_555
O3 S1 1_555 1_555
N1 H1 1_555 1_555
N2 S1 1_555 1_555
C1 N1 1_555 1_555
C2 C1 1_555 1_555
H2 C2 1_555 1_555
C3 N2 1_555 1_555
H3 C3 1_555 1_555
C4 C2 1_555 1_555
H4 C4 1_555 1_555
H5 C4 1_555 1_555
C5 N2 1_555 1_555
H6 C5 1_555 1_555
H7 C5 1_555 1_555
C6 C5 1_555 1_555
H8 C6 1_555 1_555
H9 C6 1_555 1_555
C7 C6 1_555 1_555
H10 C7 1_555 1_555
H11 C7 1_555 1_555
C8 C7 1_555 1_555
H12 C8 1_555 1_555
H13 C8 1_555 1_555
H14 C8 1_555 1_555
C9 S1 1_555 1_555
C10 C9 1_555 1_555
H15 C10 1_555 1_555
C11 C10 1_555 1_555
H16 C11 1_555 1_555
C12 C11 1_555 1_555
C13 C12 1_555 1_555
H17 C13 1_555 1_555
C14 C9 1_555 1_555
H18 C14 1_555 1_555
C15 C12 1_555 1_555
H19 C15 1_555 1_555
H20 C15 1_555 1_555
H21 C15 1_555 1_555
C16 N1 1_555 1_555
C17 C16 1_555 1_555
H22 C17 1_555 1_555
H23 C17 1_555 1_555
H24 C17 1_555 1_555
C18 C16 1_555 1_555
H25 C18 1_555 1_555
H26 C18 1_555 1_555
H27 C18 1_555 1_555
C19 C16 1_555 1_555
H28 C19 1_555 1_555
H29 C19 1_555 1_555
H30 C19 1_555 1_555
S2 O5 1_555 1_555
O4 C20 1_555 1_555
O6 S2 1_555 1_555
N3 H31 1_555 1_555
N4 S2 1_555 1_555
C20 N3 1_555 1_555
C21 C20 1_555 1_555
H32 C21 1_555 1_555
C22 N4 1_555 1_555
H33 C22 1_555 1_555
C23 C21 1_555 1_555
H34 C23 1_555 1_555
H35 C23 1_555 1_555
C24 N4 1_555 1_555
H36 C24 1_555 1_555
H37 C24 1_555 1_555
C25 C24 1_555 1_555
H38 C25 1_555 1_555
H39 C25 1_555 1_555
C26 C25 1_555 1_555
H40 C26 1_555 1_555
H41 C26 1_555 1_555
C27 C26 1_555 1_555
H42 C27 1_555 1_555
H43 C27 1_555 1_555
H44 C27 1_555 1_555
C28 S2 1_555 1_555
C29 C28 1_555 1_555
H45 C29 1_555 1_555
C30 C29 1_555 1_555
H46 C30 1_555 1_555
C31 C30 1_555 1_555
C32 C31 1_555 1_555
H47 C32 1_555 1_555
C33 C28 1_555 1_555
H48 C33 1_555 1_555
C34 C31 1_555 1_555
H49 C34 1_555 1_555
H50 C34 1_555 1_555
H51 C34 1_555 1_555
C35 N3 1_555 1_555
C36 C35 1_555 1_555
H52 C36 1_555 1_555
H53 C36 1_555 1_555
H54 C36 1_555 1_555
C37 C35 1_555 1_555
H55 C37 1_555 1_555
H56 C37 1_555 1_555
H57 C37 1_555 1_555
C38 C35 1_555 1_555
H58 C38 1_555 1_555
H59 C38 1_555 1_555
H60 C38 1_555 1_555
C2 C3 1_555 1_555
C3 C4 1_555 1_555
C13 C14 1_555 1_555
C21 C22 1_555 1_555
C22 C23 1_555 1_555
C32 C33 1_555 1_555

#END
