
#######################################################################
#
#                 Cambridge Crystallographic Data Centre
#                                CCDC 
#
#######################################################################
#
# If this CIF has been generated from an entry in the Cambridge 
# Structural Database, then it will include bibliographic, chemical, 
# crystal, experimental, refinement or atomic coordinate data resulting 
# from the CCDC's data processing and validation procedures.
#
#######################################################################

data_ZUWFII
_chemical_formula_moiety         'C10 H13 Br1 O1'
_chemical_name_systematic        2-Bromo-1-(2,5-dimethylphenyl)ethanol
_symmetry_cell_setting           orthorhombic
_symmetry_space_group_name_H-M   'P 21 21 21'
_symmetry_Int_Tables_number      19
_space_group_name_Hall           'P 2ac 2ab'
loop_
_symmetry_equiv_pos_site_id
_symmetry_equiv_pos_as_xyz
1 x,y,z
2 1/2-x,-y,1/2+z
3 1/2+x,1/2-y,-z
4 -x,1/2+y,1/2-z
_cell_length_a                   4.8387(9)
_cell_length_b                   10.778(2)
_cell_length_c                   18.527(4)
_cell_angle_alpha                90
_cell_angle_beta                 90
_cell_angle_gamma                90
_cell_volume                     966.211
_exptl_crystal_colour            colorless
_exptl_crystal_description       block
_cell_formula_units_Z            4
loop_
_atom_site_label
_atom_site_type_symbol
_atom_site_fract_x
_atom_site_fract_y
_atom_site_fract_z
Br1 Br 0.13761(7) 0.47219(3) 0.37132(2)
O1 O 0.2074(5) 0.3071(2) 0.52059(12)
H1 H 0.3514 0.2731 0.5082
C1 C 0.4230(6) 0.4790(3) 0.58815(15)
C2 C 0.4032(6) 0.6017(3) 0.61426(16)
C3 C 0.5645(8) 0.6339(3) 0.67360(18)
H2 H 0.5519 0.7139 0.6920
C4 C 0.7429(7) 0.5505(3) 0.70597(18)
H3 H 0.8480 0.5753 0.7454
C5 C 0.7663(7) 0.4298(3) 0.67999(17)
C6 C 0.6040(6) 0.3963(3) 0.62118(16)
H4 H 0.6170 0.3159 0.6033
C7 C 0.2103(8) 0.6966(3) 0.58127(19)
H5 H 0.2605 0.7103 0.5318
H6 H 0.2242 0.7731 0.6075
H7 H 0.0238 0.6665 0.5836
C8 C 0.9609(8) 0.3375(4) 0.71408(19)
H8 H 1.1200 0.3802 0.7326
H9 H 1.0183 0.2780 0.6785
H10 H 0.8684 0.2955 0.7529
C9 C 0.2493(6) 0.4381(3) 0.52387(16)
H11 H 0.0676 0.4775 0.5282
C10 C 0.3831(7) 0.4854(3) 0.45472(16)
H12 H 0.5499 0.4381 0.4454
H13 H 0.4357 0.5715 0.4612
loop_
_geom_bond_atom_site_label_1
_geom_bond_atom_site_label_2
_geom_bond_site_symmetry_1
_geom_bond_site_symmetry_2
Br1 C10 1_555 1_555
O1 H1 1_555 1_555
C1 C2 1_555 1_555
C2 C3 1_555 1_555
C3 H2 1_555 1_555
C4 C3 1_555 1_555
H3 C4 1_555 1_555
C5 C4 1_555 1_555
C6 C1 1_555 1_555
H4 C6 1_555 1_555
C7 C2 1_555 1_555
H5 C7 1_555 1_555
H6 C7 1_555 1_555
H7 C7 1_555 1_555
C8 C5 1_555 1_555
H8 C8 1_555 1_555
H9 C8 1_555 1_555
H10 C8 1_555 1_555
C9 O1 1_555 1_555
H11 C9 1_555 1_555
C10 C9 1_555 1_555
H12 C10 1_555 1_555
H13 C10 1_555 1_555
C1 C9 1_555 1_555
C5 C6 1_555 1_555

#END
