
#######################################################################
#
#                 Cambridge Crystallographic Data Centre
#                                CCDC 
#
#######################################################################
#
# If this CIF has been generated from an entry in the Cambridge 
# Structural Database, then it will include bibliographic, chemical, 
# crystal, experimental, refinement or atomic coordinate data resulting 
# from the CCDC's data processing and validation procedures.
#
#######################################################################

data_ZUWPAK
_chemical_formula_moiety         'C20 H21 Br1 O5'
_chemical_name_systematic        
'Methyl 4-bromo-2-hydroxy-5,7-dimethoxy-2-methyl-1-phenylindane-1-carboxylate'
_symmetry_cell_setting           monoclinic
_symmetry_space_group_name_H-M   'P 21/c'
_symmetry_Int_Tables_number      14
_space_group_name_Hall           '-P 2ybc'
loop_
_symmetry_equiv_pos_site_id
_symmetry_equiv_pos_as_xyz
1 x,y,z
2 -x,1/2+y,1/2-z
3 -x,-y,-z
4 x,1/2-y,1/2+z
_cell_length_a                   12.3928(5)
_cell_length_b                   8.3243(4)
_cell_length_c                   18.5364(8)
_cell_angle_alpha                90
_cell_angle_beta                 95.8880(10)
_cell_angle_gamma                90
_cell_volume                     1902.15
_exptl_crystal_colour            colorless
_exptl_crystal_description       block
_cell_formula_units_Z            4
loop_
_atom_site_label
_atom_site_type_symbol
_atom_site_fract_x
_atom_site_fract_y
_atom_site_fract_z
Br1 Br 1.13067(3) 0.23826(5) 0.107137(19)
O1 O 0.7629(2) 0.5982(3) 0.18656(13)
O2 O 0.65932(19) 0.5605(3) 0.08331(13)
O3 O 0.66442(15) 0.3005(3) -0.01983(10)
O4 O 1.04385(17) 0.2193(3) -0.04792(11)
O5 O 0.77906(17) 0.3448(3) 0.27734(10)
H1 H 0.7692 0.4406 0.2687
C1 C 0.5771(2) 0.1241(4) 0.09861(16)
H2 H 0.6236 0.0813 0.0673
C2 C 0.4762(3) 0.0556(4) 0.10232(18)
H3 H 0.4553 -0.0325 0.0733
C3 C 0.4069(3) 0.1163(5) 0.1482(2)
H4 H 0.3392 0.0694 0.1506
C4 C 0.4374(3) 0.2462(5) 0.1907(2)
H5 H 0.3906 0.2874 0.2222
C5 C 0.5385(3) 0.3167(4) 0.18681(17)
H6 H 0.5584 0.4059 0.2153
C6 C 0.6096(2) 0.2554(3) 0.14087(15)
C7 C 0.7236(2) 0.3253(3) 0.14318(14)
C8 C 0.7945(2) 0.2832(3) 0.08251(14)
C9 C 0.7700(2) 0.2807(3) 0.00776(15)
C10 C 0.8520(2) 0.2562(4) -0.03678(15)
H7 H 0.8349 0.2499 -0.0867
C11 C 0.9593(2) 0.2409(4) -0.00760(15)
C12 C 0.9838(2) 0.2495(4) 0.06676(16)
C13 C 0.9024(2) 0.2690(3) 0.11138(14)
C14 C 0.9141(2) 0.2883(4) 0.19234(15)
H8 H 0.9408 0.3945 0.2063
H9 H 0.9631 0.2084 0.2154
C15 C 0.7983(2) 0.2636(4) 0.21252(14)
C16 C 0.7785(3) 0.0877(4) 0.22682(16)
H10 H 0.8244 0.0538 0.2690
H11 H 0.7946 0.0253 0.1857
H12 H 0.7039 0.0722 0.2349
C17 C 0.7181(2) 0.5094(4) 0.14231(16)
C18 C 0.6572(4) 0.7320(4) 0.0703(3)
H13 H 0.6122 0.7545 0.0262
H14 H 0.7295 0.7696 0.0662
H15 H 0.6284 0.7856 0.1100
C19 C 0.6435(3) 0.3761(5) -0.08852(18)
H16 H 0.5666 0.3829 -0.1014
H17 H 0.6758 0.3143 -0.1244
H18 H 0.6741 0.4822 -0.0862
C20 C 1.0211(3) 0.2160(5) -0.12382(19)
H19 H 1.0873 0.2011 -0.1457
H20 H 0.9882 0.3157 -0.1401
H21 H 0.9724 0.1291 -0.1374
loop_
_geom_bond_atom_site_label_1
_geom_bond_atom_site_label_2
_geom_bond_site_symmetry_1
_geom_bond_site_symmetry_2
Br1 C12 1_555 1_555
O1 C17 1_555 1_555
O2 C17 1_555 1_555
O3 C9 1_555 1_555
O4 C11 1_555 1_555
O5 H1 1_555 1_555
C1 H2 1_555 1_555
C2 C1 1_555 1_555
H3 C2 1_555 1_555
C3 C2 1_555 1_555
H4 C3 1_555 1_555
C4 C3 1_555 1_555
H5 C4 1_555 1_555
C5 C4 1_555 1_555
H6 C5 1_555 1_555
C6 C1 1_555 1_555
C7 C6 1_555 1_555
C8 C7 1_555 1_555
C9 C8 1_555 1_555
C10 C9 1_555 1_555
H7 C10 1_555 1_555
C11 C10 1_555 1_555
C12 C11 1_555 1_555
C13 C8 1_555 1_555
C14 C13 1_555 1_555
H8 C14 1_555 1_555
H9 C14 1_555 1_555
C15 O5 1_555 1_555
C16 C15 1_555 1_555
H10 C16 1_555 1_555
H11 C16 1_555 1_555
H12 C16 1_555 1_555
C17 C7 1_555 1_555
C18 O2 1_555 1_555
H13 C18 1_555 1_555
H14 C18 1_555 1_555
H15 C18 1_555 1_555
C19 O3 1_555 1_555
H16 C19 1_555 1_555
H17 C19 1_555 1_555
H18 C19 1_555 1_555
C20 O4 1_555 1_555
H19 C20 1_555 1_555
H20 C20 1_555 1_555
H21 C20 1_555 1_555
C5 C6 1_555 1_555
C7 C15 1_555 1_555
C12 C13 1_555 1_555
C14 C15 1_555 1_555

#END
