
#######################################################################
#
#                 Cambridge Crystallographic Data Centre
#                                CCDC 
#
#######################################################################
#
# If this CIF has been generated from an entry in the Cambridge 
# Structural Database, then it will include bibliographic, chemical, 
# crystal, experimental, refinement or atomic coordinate data resulting 
# from the CCDC's data processing and validation procedures.
#
#######################################################################

data_ZUWQEN
_chemical_formula_moiety         '2(C10 H13 N4 O8 P1),C3 H7 N1 O3,12(H2 O1)'
_chemical_name_systematic        
"bis(Inosine-5'-phosphate) L-serine dodecahydrate"
_symmetry_cell_setting           monoclinic
_symmetry_space_group_name_H-M   'P 21'
_symmetry_Int_Tables_number      4
_space_group_name_Hall           'P 2yb'
loop_
_symmetry_equiv_pos_site_id
_symmetry_equiv_pos_as_xyz
1 x,y,z
2 -x,1/2+y,-z
_cell_length_a                   8.695(7)
_cell_length_b                   21.898(6)
_cell_length_c                   12.374(3)
_cell_angle_alpha                90
_cell_angle_beta                 110.59(3)
_cell_angle_gamma                90
_cell_volume                     2205.55
_exptl_crystal_colour            colorless
_cell_formula_units_Z            2
_chemical_properties_physical    'Efforvesces in air and moisture'
loop_
_atom_site_label
_atom_site_type_symbol
_atom_site_fract_x
_atom_site_fract_y
_atom_site_fract_z
P2 P -0.4914(4) 0.1171(2) -0.2526(2)
O9 O -0.4314(11) 0.0498(4) -0.2617(8)
O10 O -0.6810(9) 0.1260(4) -0.2855(6)
O11 O -0.4163(11) 0.1625(5) -0.3234(7)
O12 O -0.4091(9) 0.1397(4) -0.1143(7)
C11 C -0.2352(14) 0.1249(10) -0.0644(14)
C12 C -0.1685(14) 0.1610(6) 0.0505(10)
C13 C -0.2397(14) 0.1361(6) 0.1388(9)
C14 C -0.3765(14) 0.1825(6) 0.1373(9)
C15 C -0.2994(15) 0.2366(7) 0.1213(13)
O13 O -0.2074(9) 0.2239(4) 0.0441(6)
O14 O -0.4116(10) 0.1851(4) 0.2326(7)
O15 O -0.1290(12) 0.1388(5) 0.2500(7)
N5 N -0.3964(11) 0.2893(6) 0.0596(8)
C16 C -0.4982(19) 0.2935(6) -0.0521(12)
N6 N -0.6022(16) 0.3447(6) -0.0836(10)
C17 C -0.5607(14) 0.3702(5) 0.0217(12)
C18 C -0.4307(13) 0.3332(6) 0.1120(10)
N7 N -0.3565(12) 0.3535(5) 0.2302(10)
C19 C -0.4016(21) 0.4096(7) 0.2451(16)
N8 N -0.5233(16) 0.4442(5) 0.1670(11)
C20 C -0.6014(17) 0.4305(7) 0.0537(15)
O16 O -0.6909(14) 0.4704(4) -0.0160(8)
C21 C 0.3484(16) -0.2097(6) 0.4763(11)
C22 C 0.2328(16) -0.2019(8) 0.3519(12)
C23 C 0.0769(14) -0.2383(7) 0.3316(11)
N9 N 0.3146(11) -0.2195(5) 0.2696(8)
O17 O 0.4925(11) -0.2272(4) 0.4939(8)
O18 O 0.2901(10) -0.1982(4) 0.5524(7)
O19 O 0.1103(10) -0.3005(4) 0.3610(7)
O20 O -0.1762(10) 0.1560(4) 0.4254(7)
O21 O -0.0989(10) 0.0256(4) -0.4209(7)
O22 O 0.8842(10) 0.8376(5) 0.2547(8)
O23 O 0.1306(11) 0.4689(4) 0.7488(8)
O24 O 0.0701(10) 0.0829(4) 0.5003(8)
O25 O 0.1238(10) 0.2110(4) 0.7609(7)
O26 O 0.4261(10) 0.1957(4) 0.4614(7)
O27 O 0.2868(13) 0.4106(5) 0.4215(9)
O28 O 0.4179(14) 0.5015(6) 0.4319(10)
O29 O -0.4970(10) -0.0937(4) 0.2721(8)
O30 O -0.2821(14) -0.1526(6) 0.3525(10)
O31 O 0.2667(10) 0.5443(4) 0.6191(7)
P1 P 0.2611(4) 0.0627 0.2516(3)
O1 O 0.3127(11) 0.1268(5) 0.2586(7)
O2 O 0.3925(10) 0.0207(4) 0.3180(6)
O3 O 0.1111(10) 0.0551(5) 0.2849(6)
O4 O 0.2125(9) 0.0442(4) 0.1203(6)
C1 C 0.3259(16) 0.0518(7) 0.0703(9)
C2 C 0.2746(12) 0.0257(5) -0.0534(10)
C3 C 0.1218(17) 0.0462(7) -0.1398(10)
C4 C -0.0147(16) 0.0001(6) -0.1388(10)
C5 C 0.0746(13) -0.0531(6) -0.1210(9)
O5 O 0.2466(10) -0.0422(4) -0.0452(7)
O6 O -0.1461(9) -0.0042(4) -0.2367(8)
O7 O 0.1290(10) 0.0431(4) -0.2502(7)
N1 N 0.0403(13) -0.1101(6) -0.0586(10)
C6 C 0.0591(16) -0.1047(8) 0.0566(10)
N2 N -0.0054(15) -0.1577(6) 0.0877(11)
C7 C -0.0756(16) -0.1970(10) -0.0163(14)
C8 C -0.0542(14) -0.1593(5) -0.1174(13)
N3 N -0.0916(12) -0.1743(5) -0.2283(8)
C9 C -0.1540(18) -0.2277(8) -0.2628(16)
N4 N -0.1900(13) -0.2643(6) -0.1657(10)
C10 C -0.1598(16) -0.2490(6) -0.0523(11)
O8 O -0.1810(15) -0.2857(5) 0.0139(13)
loop_
_geom_bond_atom_site_label_1
_geom_bond_atom_site_label_2
_geom_bond_site_symmetry_1
_geom_bond_site_symmetry_2
P1 O1 1_555 1_555
O2 P1 1_555 1_555
O3 P1 1_555 1_555
O4 P1 1_555 1_555
C1 O4 1_555 1_555
C2 C1 1_555 1_555
C3 C2 1_555 1_555
C4 C3 1_555 1_555
C5 C4 1_555 1_555
O5 C2 1_555 1_555
O6 C4 1_555 1_555
O7 C3 1_555 1_555
N1 C5 1_555 1_555
C6 N1 1_555 1_555
N2 C6 1_555 1_555
C7 N2 1_555 1_555
C8 N1 1_555 1_555
N3 C8 1_555 1_555
C9 N3 1_555 1_555
N4 C9 1_555 1_555
C10 C7 1_555 1_555
O8 C10 1_555 1_555
P2 O9 1_555 1_555
O10 P2 1_555 1_555
O11 P2 1_555 1_555
O12 P2 1_555 1_555
C11 O12 1_555 1_555
C12 C11 1_555 1_555
C13 C12 1_555 1_555
C14 C13 1_555 1_555
C15 C14 1_555 1_555
O13 C12 1_555 1_555
O14 C14 1_555 1_555
O15 C13 1_555 1_555
N5 C15 1_555 1_555
C16 N5 1_555 1_555
N6 C16 1_555 1_555
C17 N6 1_555 1_555
C18 N5 1_555 1_555
N7 C18 1_555 1_555
C19 N7 1_555 1_555
N8 C19 1_555 1_555
C20 C17 1_555 1_555
O16 C20 1_555 1_555
C21 C22 1_555 1_555
C22 C23 1_555 1_555
C23 O19 1_555 1_555
N9 C22 1_555 1_555
O17 C21 1_555 1_555
O18 C21 1_555 1_555
C5 O5 1_555 1_555
C7 C8 1_555 1_555
N4 C10 1_555 1_555
C15 O13 1_555 1_555
C17 C18 1_555 1_555
N8 C20 1_555 1_555

#END
