
#######################################################################
#
#                 Cambridge Crystallographic Data Centre
#                                CCDC 
#
#######################################################################
#
# If this CIF has been generated from an entry in the Cambridge 
# Structural Database, then it will include bibliographic, chemical, 
# crystal, experimental, refinement or atomic coordinate data resulting 
# from the CCDC's data processing and validation procedures.
#
#######################################################################

data_ZUWWAR
_chemical_formula_moiety         'C27 H29 N1 O8'
_chemical_name_systematic        
3-Phenoxy-1,4-bis(3,4,5-trimethoxyphenyl)azetidin-2-one
_chemical_properties_biological  'antiproliferative activity'
_symmetry_cell_setting           triclinic
_symmetry_space_group_name_H-M   'P -1'
_symmetry_Int_Tables_number      2
_space_group_name_Hall           '-P 1'
loop_
_symmetry_equiv_pos_site_id
_symmetry_equiv_pos_as_xyz
1 x,y,z
2 -x,-y,-z
_cell_length_a                   8.9118(5)
_cell_length_b                   11.7367(7)
_cell_length_c                   12.2126(7)
_cell_angle_alpha                90.8580(11)
_cell_angle_beta                 90.4985(12)
_cell_angle_gamma                100.6204(11)
_cell_volume                     1255.27
_exptl_crystal_colour            colorless
_exptl_crystal_description       plate
_cell_formula_units_Z            2
loop_
_atom_site_label
_atom_site_type_symbol
_atom_site_fract_x
_atom_site_fract_y
_atom_site_fract_z
O1 O 0.77492(16) 0.95051(12) 0.88071(11)
N1 N 0.73549(18) 0.70544(14) 0.96904(12)
C1 C 0.7766(3) 1.13759(19) 0.64883(17)
H1 H 0.8483 1.1944 0.6128
O2 O 0.90439(17) 0.42996(12) 1.21387(12)
C2 C 0.8215(2) 1.08395(18) 0.73989(17)
H2 H 0.9236 1.1037 0.7666
O3 O 0.74485(16) 0.25518(12) 1.09755(11)
C3 C 0.7174(2) 1.00147(17) 0.79210(16)
O4 O 0.60025(16) 0.29206(12) 0.91005(11)
C4 C 0.5668(2) 0.97339(18) 0.75487(18)
H3 H 0.4946 0.9179 0.7919
O5 O 0.49930(16) 0.63834(12) 0.49703(11)
C5 C 0.5241(3) 1.02801(18) 0.66266(18)
H4 H 0.4219 1.0089 0.6360
O6 O 0.79173(17) 0.69508(12) 0.43732(11)
C6 C 0.6281(3) 1.10962(19) 0.60929(17)
H5 H 0.5981 1.1463 0.5460
O7 O 1.01348(15) 0.77316(13) 0.58262(11)
C7 C 0.6765(2) 0.86503(18) 0.93617(16)
H6 H 0.5850 0.8924 0.9661
O8 O 0.83335(17) 0.84329(13) 1.10664(11)
C8 C 0.7656(2) 0.81051(17) 1.02259(15)
C9 C 0.6379(2) 0.74158(17) 0.88152(15)
H7 H 0.5283 0.7064 0.8927
C10 C 0.6831(2) 0.72400(16) 0.76517(15)
C11 C 0.8336(2) 0.75283(16) 0.73335(15)
H8 H 0.9118 0.7785 0.7862
C12 C 0.8697(2) 0.74400(16) 0.62336(16)
C13 C 0.7551(2) 0.70472(16) 0.54605(15)
C14 C 0.6033(2) 0.67393(16) 0.57885(15)
C15 C 1.1278(2) 0.8337(2) 0.65541(18)
H9 H 1.1445 0.7829 0.7155
H10 H 1.0943 0.9028 0.6851
H11 H 1.2233 0.8570 0.6156
C16 C 0.7933(3) 0.7999(2) 0.38024(17)
H12 H 0.8707 0.8614 0.4130
H13 H 0.6927 0.8221 0.3852
H14 H 0.8174 0.7885 0.3032
C17 C 0.3454(2) 0.59602(19) 0.52859(18)
H15 H 0.3050 0.6580 0.5663
H16 H 0.3426 0.5306 0.5779
H17 H 0.2829 0.5705 0.4632
C18 C 0.7488(2) 0.59216(17) 0.99852(15)
C19 C 0.6742(2) 0.50062(17) 0.93331(15)
H18 H 0.6228 0.5151 0.8679
C20 C 0.6757(2) 0.38782(17) 0.96513(15)
C21 C 0.7527(2) 0.36662(17) 1.06050(16)
C22 C 0.8310(2) 0.45979(17) 1.12296(15)
C23 C 0.8297(2) 0.57376(17) 1.09268(15)
H19 H 0.8826 0.6372 1.1353
C24 C 0.9948(3) 0.5212(2) 1.27701(18)
H20 H 0.9287 0.5711 1.3083
H21 H 1.0706 0.5671 1.2299
H22 H 1.0470 0.4880 1.3362
C25 C 0.8378(3) 0.1890(2) 1.03775(19)
H23 H 0.9443 0.2295 1.0405
H24 H 0.8025 0.1798 0.9614
H25 H 0.8303 0.1125 1.0705
C26 C 0.5294(3) 0.3096(2) 0.80766(17)
H26 H 0.6065 0.3497 0.7579
H27 H 0.4508 0.3567 0.8196
H28 H 0.4825 0.2344 0.7753
C27 C 0.5677(2) 0.68294(16) 0.68928(15)
H29 H 0.4651 0.6612 0.7126
loop_
_geom_bond_atom_site_label_1
_geom_bond_atom_site_label_2
_geom_bond_site_symmetry_1
_geom_bond_site_symmetry_2
O1 C3 1_555 1_555
N1 C8 1_555 1_555
C1 H1 1_555 1_555
O2 C22 1_555 1_555
C2 C1 1_555 1_555
H2 C2 1_555 1_555
O3 C21 1_555 1_555
C3 C2 1_555 1_555
O4 C20 1_555 1_555
C4 C3 1_555 1_555
H3 C4 1_555 1_555
O5 C14 1_555 1_555
C5 C4 1_555 1_555
H4 C5 1_555 1_555
O6 C13 1_555 1_555
C6 C1 1_555 1_555
H5 C6 1_555 1_555
O7 C12 1_555 1_555
C7 O1 1_555 1_555
H6 C7 1_555 1_555
O8 C8 1_555 1_555
C8 C7 1_555 1_555
C9 N1 1_555 1_555
H7 C9 1_555 1_555
C10 C9 1_555 1_555
C11 C10 1_555 1_555
H8 C11 1_555 1_555
C12 C11 1_555 1_555
C13 C12 1_555 1_555
C14 C13 1_555 1_555
C15 O7 1_555 1_555
H9 C15 1_555 1_555
H10 C15 1_555 1_555
H11 C15 1_555 1_555
C16 O6 1_555 1_555
H12 C16 1_555 1_555
H13 C16 1_555 1_555
H14 C16 1_555 1_555
C17 O5 1_555 1_555
H15 C17 1_555 1_555
H16 C17 1_555 1_555
H17 C17 1_555 1_555
C18 N1 1_555 1_555
C19 C18 1_555 1_555
H18 C19 1_555 1_555
C20 C19 1_555 1_555
C21 C20 1_555 1_555
C22 C21 1_555 1_555
C23 C18 1_555 1_555
H19 C23 1_555 1_555
C24 O2 1_555 1_555
H20 C24 1_555 1_555
H21 C24 1_555 1_555
H22 C24 1_555 1_555
C25 O3 1_555 1_555
H23 C25 1_555 1_555
H24 C25 1_555 1_555
H25 C25 1_555 1_555
C26 O4 1_555 1_555
H26 C26 1_555 1_555
H27 C26 1_555 1_555
H28 C26 1_555 1_555
C27 C10 1_555 1_555
H29 C27 1_555 1_555
C5 C6 1_555 1_555
C7 C9 1_555 1_555
C14 C27 1_555 1_555
C22 C23 1_555 1_555

#END
