
#######################################################################
#
#                 Cambridge Crystallographic Data Centre
#                                CCDC 
#
#######################################################################
#
# If this CIF has been generated from an entry in the Cambridge 
# Structural Database, then it will include bibliographic, chemical, 
# crystal, experimental, refinement or atomic coordinate data resulting 
# from the CCDC's data processing and validation procedures.
#
#######################################################################

data_ZUWWIZ
_chemical_formula_moiety         'C25 H24 Br1 N1 O6'
_chemical_name_systematic        
4-(3-Bromo-4-methoxyphenyl)-3-phenoxy-1-(3,4,5-trimethoxyphenyl)azetidin-2-one
_chemical_properties_biological  'antiproliferative activity'
_symmetry_cell_setting           monoclinic
_symmetry_space_group_name_H-M   'P 21/c'
_symmetry_Int_Tables_number      14
_space_group_name_Hall           '-P 2ybc'
loop_
_symmetry_equiv_pos_site_id
_symmetry_equiv_pos_as_xyz
1 x,y,z
2 -x,1/2+y,1/2-z
3 -x,-y,-z
4 x,1/2-y,1/2+z
_cell_length_a                   11.4077(8)
_cell_length_b                   12.4910(8)
_cell_length_c                   16.2876(11)
_cell_angle_alpha                90
_cell_angle_beta                 94.226(2)
_cell_angle_gamma                90
_cell_volume                     2314.57
_exptl_crystal_colour            colorless
_exptl_crystal_description       needle
_cell_formula_units_Z            4
loop_
_atom_site_label
_atom_site_type_symbol
_atom_site_fract_x
_atom_site_fract_y
_atom_site_fract_z
Br1 Br 0.67130(2) -0.12476(2) -0.08806(2)
N1 N 0.66259(14) 0.37630(12) -0.01850(10)
C1 C 0.61889(17) 0.43365(16) 0.04379(12)
C2 C 0.53635(17) 0.34122(15) 0.06410(11)
H1 H 0.4514 0.3584 0.0512
C3 C 0.59159(16) 0.27843(15) -0.00628(11)
H2 H 0.5326 0.2666 -0.0539
C4 C 0.66252(16) 0.17908(15) 0.01258(11)
C5 C 0.75861(16) 0.17794(15) 0.07007(11)
H3 H 0.7761 0.2400 0.1024
C6 C 0.82968(16) 0.08812(16) 0.08132(11)
H4 H 0.8941 0.0886 0.1217
C7 C 0.80628(16) -0.00290(15) 0.03321(11)
C8 C 0.70751(17) -0.00225(15) -0.02277(11)
C9 C 0.63601(16) 0.08655(16) -0.03308(11)
H5 H 0.5689 0.0847 -0.0712
C10 C 0.97220(18) -0.09611(17) 0.09608(13)
H6 H 1.0138 -0.1643 0.0919
H7 H 0.9451 -0.0888 0.1515
H8 H 1.0254 -0.0369 0.0855
C11 C 0.48312(16) 0.31663(16) 0.20153(11)
C12 C 0.46148(17) 0.23421(15) 0.25535(12)
H9 H 0.4987 0.1667 0.2507
C13 C 0.38457(17) 0.25180(17) 0.31618(12)
H10 H 0.3675 0.1955 0.3527
C14 C 0.33280(18) 0.35101(19) 0.32376(13)
H11 H 0.2801 0.3626 0.3654
C15 C 0.3574(2) 0.43353(18) 0.27089(14)
H12 H 0.3225 0.5019 0.2770
C16 C 0.43316(18) 0.41665(17) 0.20886(13)
H13 H 0.4502 0.4728 0.1723
C17 C 0.74895(17) 0.39416(15) -0.07437(12)
C18 C 0.81608(17) 0.48737(15) -0.06904(12)
H14 H 0.8029 0.5406 -0.0291
C19 C 0.90309(17) 0.50027(15) -0.12393(13)
C20 C 0.92401(16) 0.42098(16) -0.18159(12)
C21 C 0.85483(16) 0.32859(15) -0.18557(11)
C22 C 0.76590(17) 0.31530(15) -0.13257(11)
H15 H 0.7175 0.2534 -0.1360
C23 C 0.81676(18) 0.15664(17) -0.24610(12)
H16 H 0.8475 0.1090 -0.2872
H17 H 0.7337 0.1720 -0.2614
H18 H 0.8243 0.1219 -0.1920
C24 C 1.11649(19) 0.37844(18) -0.21360(15)
H19 H 1.1733 0.3914 -0.2548
H20 H 1.0997 0.3016 -0.2110
H21 H 1.1493 0.4033 -0.1596
C25 C 0.9508(2) 0.67368(18) -0.07019(19)
H22 H 1.0007 0.7351 -0.0812
H23 H 0.9677 0.6500 -0.0132
H24 H 0.8680 0.6945 -0.0786
O1 O 0.87290(12) -0.09368(11) 0.03656(8)
O2 O 0.55892(11) 0.29207(11) 0.14160(8)
O3 O 0.63852(13) 0.52362(11) 0.06959(9)
O4 O 0.88204(12) 0.25449(11) -0.24280(8)
O5 O 1.00950(12) 0.43571(12) -0.23629(9)
O6 O 0.97416(13) 0.58803(12) -0.12516(10)
loop_
_geom_bond_atom_site_label_1
_geom_bond_atom_site_label_2
_geom_bond_site_symmetry_1
_geom_bond_site_symmetry_2
Br1 C8 1_555 1_555
N1 C1 1_555 1_555
C1 C2 1_555 1_555
C2 H1 1_555 1_555
C3 N1 1_555 1_555
H2 C3 1_555 1_555
C4 C3 1_555 1_555
C5 C4 1_555 1_555
H3 C5 1_555 1_555
C6 C5 1_555 1_555
H4 C6 1_555 1_555
C7 C6 1_555 1_555
C8 C7 1_555 1_555
C9 C4 1_555 1_555
H5 C9 1_555 1_555
C10 H6 1_555 1_555
H7 C10 1_555 1_555
H8 C10 1_555 1_555
C11 C12 1_555 1_555
C12 H9 1_555 1_555
C13 C12 1_555 1_555
H10 C13 1_555 1_555
C14 C13 1_555 1_555
H11 C14 1_555 1_555
C15 C14 1_555 1_555
H12 C15 1_555 1_555
C16 C11 1_555 1_555
H13 C16 1_555 1_555
C17 N1 1_555 1_555
C18 C17 1_555 1_555
H14 C18 1_555 1_555
C19 C18 1_555 1_555
C20 C19 1_555 1_555
C21 C20 1_555 1_555
C22 C17 1_555 1_555
H15 C22 1_555 1_555
C23 H16 1_555 1_555
H17 C23 1_555 1_555
H18 C23 1_555 1_555
C24 H19 1_555 1_555
H20 C24 1_555 1_555
H21 C24 1_555 1_555
C25 H22 1_555 1_555
H23 C25 1_555 1_555
H24 C25 1_555 1_555
O1 C7 1_555 1_555
O2 C2 1_555 1_555
O3 C1 1_555 1_555
O4 C21 1_555 1_555
O5 C20 1_555 1_555
O6 C19 1_555 1_555
C2 C3 1_555 1_555
C8 C9 1_555 1_555
C10 O1 1_555 1_555
C11 O2 1_555 1_555
C15 C16 1_555 1_555
C21 C22 1_555 1_555
C23 O4 1_555 1_555
C24 O5 1_555 1_555
C25 O6 1_555 1_555

#END
