
#######################################################################
#
#                 Cambridge Crystallographic Data Centre
#                                CCDC 
#
#######################################################################
#
# If this CIF has been generated from an entry in the Cambridge 
# Structural Database, then it will include bibliographic, chemical, 
# crystal, experimental, refinement or atomic coordinate data resulting 
# from the CCDC's data processing and validation procedures.
#
#######################################################################

data_ZUWYIB
_chemical_formula_moiety         'C15 H11 Cl1 O1 S1'
_chemical_name_systematic        
2-(4-Chlorophenyl)-2,3-dihydro-4H-thiochromen-4-one
_symmetry_cell_setting           monoclinic
_symmetry_space_group_name_H-M   'P 21/c'
_symmetry_Int_Tables_number      14
_space_group_name_Hall           '-P 2ybc'
loop_
_symmetry_equiv_pos_site_id
_symmetry_equiv_pos_as_xyz
1 x,y,z
2 -x,1/2+y,1/2-z
3 -x,-y,-z
4 x,1/2-y,1/2+z
_cell_length_a                   6.6970(2)
_cell_length_b                   16.5427(5)
_cell_length_c                   11.6394(4)
_cell_angle_alpha                90
_cell_angle_beta                 99.5311(12)
_cell_angle_gamma                90
_cell_volume                     1271.69
_exptl_crystal_colour            yellow
_exptl_crystal_description       Rectangular
_cell_formula_units_Z            4
_exptl_crystal_recrystallization_method 'ethyl acetate'
loop_
_atom_site_label
_atom_site_type_symbol
_atom_site_fract_x
_atom_site_fract_y
_atom_site_fract_z
C1 C 0.9038(3) 0.77498(12) 0.35089(18)
H1 H 1.0056 0.8059 0.3273
C2 C 0.7917(3) 0.80559(11) 0.42985(17)
H2 H 0.8178 0.8576 0.4588
C3 C 0.6394(2) 0.75993(10) 0.46730(14)
C4 C 0.5120(3) 0.79877(10) 0.54537(15)
C5 C 0.3647(3) 0.74838(11) 0.59974(17)
H3 H 0.2313 0.7540 0.5530
H4 H 0.3578 0.7699 0.6765
C6 C 0.4156(3) 0.65942(10) 0.61173(15)
H5 H 0.5497 0.6542 0.6598
C7 C 0.6063(2) 0.68081(10) 0.42548(14)
C8 C 0.7176(3) 0.65108(11) 0.34368(16)
H6 H 0.6926 0.5992 0.3139
C9 C 0.8642(3) 0.69793(13) 0.30680(17)
H7 H 0.9372 0.6777 0.2518
C10 C 0.2672(3) 0.61001(10) 0.66796(15)
C11 C 0.3274(3) 0.57728(11) 0.77719(15)
H8 H 0.4589 0.5859 0.8155
C12 C 0.1961(3) 0.53191(11) 0.83066(16)
H9 H 0.2379 0.5107 0.9047
C13 C 0.0028(3) 0.51851(10) 0.77306(16)
C14 C -0.0621(3) 0.54945(11) 0.66334(16)
H10 H -0.1928 0.5395 0.6248
C15 C 0.0707(3) 0.59561(12) 0.61152(16)
H11 H 0.0279 0.6173 0.5379
Cl1 Cl -0.16622(8) 0.46181(3) 0.83912(5)
O1 O 0.5204(2) 0.87113(7) 0.56171(13)
S1 S 0.42751(8) 0.61560(3) 0.47041(4)
loop_
_geom_bond_atom_site_label_1
_geom_bond_atom_site_label_2
_geom_bond_site_symmetry_1
_geom_bond_site_symmetry_2
C1 H1 1_555 1_555
C2 C1 1_555 1_555
H2 C2 1_555 1_555
C3 C2 1_555 1_555
C4 C3 1_555 1_555
C5 C4 1_555 1_555
H3 C5 1_555 1_555
H4 C5 1_555 1_555
C6 C5 1_555 1_555
H5 C6 1_555 1_555
C7 C3 1_555 1_555
C8 C7 1_555 1_555
H6 C8 1_555 1_555
C9 C1 1_555 1_555
H7 C9 1_555 1_555
C10 C6 1_555 1_555
C11 C10 1_555 1_555
H8 C11 1_555 1_555
C12 C11 1_555 1_555
H9 C12 1_555 1_555
C13 C12 1_555 1_555
C14 C13 1_555 1_555
H10 C14 1_555 1_555
C15 C10 1_555 1_555
H11 C15 1_555 1_555
Cl1 C13 1_555 1_555
O1 C4 1_555 1_555
S1 C6 1_555 1_555
C7 S1 1_555 1_555
C8 C9 1_555 1_555
C14 C15 1_555 1_555

#END
