
#######################################################################
#
#                 Cambridge Crystallographic Data Centre
#                                CCDC 
#
#######################################################################
#
# If this CIF has been generated from an entry in the Cambridge 
# Structural Database, then it will include bibliographic, chemical, 
# crystal, experimental, refinement or atomic coordinate data resulting 
# from the CCDC's data processing and validation procedures.
#
#######################################################################

data_ZUWZUO
_chemical_formula_moiety         'C14 H14 O1'
_chemical_name_systematic        1,2-Diphenylethanol
_symmetry_cell_setting           monoclinic
_symmetry_space_group_name_H-M   'C 2'
_symmetry_Int_Tables_number      5
_space_group_name_Hall           'C 2y'
loop_
_symmetry_equiv_pos_site_id
_symmetry_equiv_pos_as_xyz
1 x,y,z
2 -x,y,-z
3 1/2+x,1/2+y,z
4 1/2-x,1/2+y,-z
_cell_length_a                   25.7609(12)
_cell_length_b                   5.8928(3)
_cell_length_c                   19.2695(9)
_cell_angle_alpha                90
_cell_angle_beta                 131.934(3)
_cell_angle_gamma                90
_cell_volume                     2176.09
_exptl_crystal_colour            colorless
_exptl_crystal_description       needle
_cell_formula_units_Z            8
loop_
_atom_site_label
_atom_site_type_symbol
_atom_site_fract_x
_atom_site_fract_y
_atom_site_fract_z
O1 O 0.46834(8) 0.6630(3) 0.37572(10)
H1 H 0.4411(13) 0.620(5) 0.382(2)
C1 C 0.32009(11) 0.4916(4) 0.13927(14)
H2 H 0.3368 0.3478 0.1394
C2 C 0.24991(11) 0.5464(4) 0.06801(14)
H3 H 0.2190 0.4405 0.0195
C3 C 0.22521(10) 0.7539(4) 0.06784(14)
H4 H 0.1772 0.7901 0.0196
C4 C 0.27028(11) 0.9102(4) 0.13791(15)
H5 H 0.2532 1.0533 0.1377
C5 C 0.34057(11) 0.8567(4) 0.20849(15)
H6 H 0.3716 0.9648 0.2559
C6 C 0.36576(10) 0.6458(3) 0.21015(13)
C7 C 0.44222(10) 0.5874(4) 0.28636(13)
H7 H 0.4481 0.4192 0.2881
C8 C 0.48791(10) 0.7020(4) 0.27233(13)
H8 H 0.4853 0.8684 0.2766
H9 H 0.5370 0.6558 0.3238
C9 C 0.46825(9) 0.6476(4) 0.18067(13)
C10 C 0.48749(11) 0.4433(4) 0.16723(15)
H10 H 0.5124 0.3337 0.2158
C11 C 0.47064(11) 0.3979(4) 0.08333(16)
H11 H 0.4842 0.2578 0.0751
C12 C 0.43424(11) 0.5552(4) 0.01184(15)
H12 H 0.4234 0.5249 -0.0451
C13 C 0.41380(11) 0.7576(4) 0.02402(15)
H13 H 0.3880 0.8656 -0.0252
C14 C 0.43097(10) 0.8027(4) 0.10784(15)
H14 H 0.4170 0.9424 0.1156
O2 O 0.40369(9) 0.5835(3) 0.44505(11)
H15 H 0.4428(12) 0.629(5) 0.5005(16)
C15 C 0.39109(11) 0.1234(4) 0.56018(14)
H16 H 0.4169 0.0091 0.5598
C16 C 0.37129(11) 0.0903(4) 0.61096(14)
H17 H 0.3834 -0.0465 0.6449
C17 C 0.33397(10) 0.2563(4) 0.61239(13)
H18 H 0.3208 0.2339 0.6477
C18 C 0.31582(10) 0.4556(4) 0.56227(14)
H19 H 0.2903 0.5699 0.5633
C19 C 0.33508(11) 0.4874(4) 0.51053(14)
H20 H 0.3220 0.6226 0.4754
C20 C 0.37354(10) 0.3219(4) 0.50999(14)
C21 C 0.39510(12) 0.3506(4) 0.45437(16)
H21 H 0.4411 0.2735 0.4891
C22 C 0.34278(12) 0.2423(4) 0.35683(15)
H22 H 0.3563 0.2858 0.3211
H23 H 0.3471 0.0753 0.3642
C23 C 0.26723(12) 0.3049(4) 0.30001(14)
C24 C 0.24077(13) 0.5109(4) 0.25323(15)
H24 H 0.2706 0.6155 0.2569
C25 C 0.17151(14) 0.5643(4) 0.20156(16)
H25 H 0.1540 0.7057 0.1698
C26 C 0.12691(13) 0.4143(5) 0.19520(15)
H26 H 0.0792 0.4524 0.1594
C27 C 0.15263(12) 0.2092(4) 0.24152(16)
H27 H 0.1227 0.1054 0.2380
C28 C 0.22200(12) 0.1553(4) 0.29305(15)
H28 H 0.2392 0.0134 0.3244
loop_
_geom_bond_atom_site_label_1
_geom_bond_atom_site_label_2
_geom_bond_site_symmetry_1
_geom_bond_site_symmetry_2
O1 H1 1_555 1_555
C1 H2 1_555 1_555
C2 C1 1_555 1_555
H3 C2 1_555 1_555
C3 C2 1_555 1_555
H4 C3 1_555 1_555
C4 C3 1_555 1_555
H5 C4 1_555 1_555
C5 C4 1_555 1_555
H6 C5 1_555 1_555
C6 C1 1_555 1_555
C7 O1 1_555 1_555
H7 C7 1_555 1_555
C8 C7 1_555 1_555
H8 C8 1_555 1_555
H9 C8 1_555 1_555
C9 C8 1_555 1_555
C10 C9 1_555 1_555
H10 C10 1_555 1_555
C11 C10 1_555 1_555
H11 C11 1_555 1_555
C12 C11 1_555 1_555
H12 C12 1_555 1_555
C13 C12 1_555 1_555
H13 C13 1_555 1_555
C14 C9 1_555 1_555
H14 C14 1_555 1_555
O2 H15 1_555 1_555
C15 H16 1_555 1_555
C16 C15 1_555 1_555
H17 C16 1_555 1_555
C17 C16 1_555 1_555
H18 C17 1_555 1_555
C18 C17 1_555 1_555
H19 C18 1_555 1_555
C19 C18 1_555 1_555
H20 C19 1_555 1_555
C20 C15 1_555 1_555
C21 O2 1_555 1_555
H21 C21 1_555 1_555
C22 C21 1_555 1_555
H22 C22 1_555 1_555
H23 C22 1_555 1_555
C23 C22 1_555 1_555
C24 C23 1_555 1_555
H24 C24 1_555 1_555
C25 C24 1_555 1_555
H25 C25 1_555 1_555
C26 C25 1_555 1_555
H26 C26 1_555 1_555
C27 C26 1_555 1_555
H27 C27 1_555 1_555
C28 C23 1_555 1_555
H28 C28 1_555 1_555
C5 C6 1_555 1_555
C6 C7 1_555 1_555
C13 C14 1_555 1_555
C19 C20 1_555 1_555
C20 C21 1_555 1_555
C27 C28 1_555 1_555

#END
