
#######################################################################
#
#                 Cambridge Crystallographic Data Centre
#                                CCDC 
#
#######################################################################
#
# If this CIF has been generated from an entry in the Cambridge 
# Structural Database, then it will include bibliographic, chemical, 
# crystal, experimental, refinement or atomic coordinate data resulting 
# from the CCDC's data processing and validation procedures.
#
#######################################################################

data_ZUXFUV
_chemical_formula_moiety         'C24 H22 N2 O2 S1'
_chemical_name_systematic        
'6-methyl-3-phenyl-2-(1,2,3,4-tetrahydroquinolin-8-yl)-2H-1,2-benzothiazine 1,1-dioxide'
_symmetry_cell_setting           monoclinic
_symmetry_space_group_name_H-M   'P 21/c'
_symmetry_Int_Tables_number      14
_space_group_name_Hall           '-P 2ybc'
loop_
_symmetry_equiv_pos_site_id
_symmetry_equiv_pos_as_xyz
1 x,y,z
2 -x,1/2+y,1/2-z
3 -x,-y,-z
4 x,1/2-y,1/2+z
_cell_length_a                   16.907(5)
_cell_length_b                   13.192(4)
_cell_length_c                   9.196(3)
_cell_angle_alpha                90
_cell_angle_beta                 105.281(6)
_cell_angle_gamma                90
_cell_volume                     1978.53
_exptl_crystal_colour            colorless
_exptl_crystal_description       needle
_cell_formula_units_Z            4
loop_
_atom_site_label
_atom_site_type_symbol
_atom_site_fract_x
_atom_site_fract_y
_atom_site_fract_z
S1 S 0.31964(5) 0.35389(5) -0.08478(8)
O1 O 0.37939(14) 0.30283(16) 0.0313(2)
N1 N 0.14074(19) 0.2965(2) 0.0413(3)
H1 H 0.189(2) 0.282(3) 0.083(4)
C1 C 0.17966(19) 0.4459(2) -0.0760(3)
O2 O 0.26302(14) 0.29430(16) -0.1957(2)
N2 N 0.26534(15) 0.42683(18) 0.0023(2)
C2 C 0.1601(2) 0.5266(2) -0.1764(3)
H2 H 0.2022 0.5693 -0.1924
C3 C 0.0793(2) 0.5445(2) -0.2528(3)
H3 H 0.0653 0.5982 -0.3236
C4 C 0.0189(2) 0.4816(3) -0.2234(3)
H4 H -0.0368 0.4950 -0.2737
C5 C 0.0367(2) 0.4005(2) -0.1240(3)
C6 C -0.0300(2) 0.3356(3) -0.0922(3)
H5 H -0.0545 0.2936 -0.1821
H6 H -0.0737 0.3800 -0.0742
C7 C 0.0008(2) 0.2661(3) 0.0438(4)
H7 H 0.0082 0.3059 0.1377
H8 H -0.0405 0.2127 0.0431
C8 C 0.0809(2) 0.2177(2) 0.0407(3)
H9 H 0.1005 0.1734 0.1299
H10 H 0.0734 0.1755 -0.0510
C9 C 0.12009(19) 0.3793(2) -0.0520(3)
C10 C 0.36782(19) 0.4429(2) -0.1727(3)
C11 C 0.3806(2) 0.4269(2) -0.3153(3)
H11 H 0.3615 0.3667 -0.3699
C12 C 0.4209(2) 0.4996(2) -0.3749(3)
H12 H 0.4282 0.4900 -0.4730
C13 C 0.4517(2) 0.5877(2) -0.2945(3)
C14 C 0.4387(2) 0.6024(2) -0.1520(3)
H13 H 0.4596 0.6617 -0.0965
C15 C 0.39559(19) 0.5314(2) -0.0891(3)
C16 C 0.3726(2) 0.5529(2) 0.0509(3)
H14 H 0.4049 0.6004 0.1190
C17 C 0.3093(2) 0.5100(2) 0.0890(3)
C18 C 0.27730(19) 0.5459(2) 0.2176(3)
C19 C 0.2850(2) 0.6484(3) 0.2592(3)
H15 H 0.3094 0.6944 0.2044
C20 C 0.2575(2) 0.6834(3) 0.3788(4)
H16 H 0.2633 0.7530 0.4056
C21 C 0.2215(2) 0.6175(3) 0.4599(4)
H17 H 0.2024 0.6416 0.5418
C22 C 0.2138(2) 0.5156(3) 0.4197(3)
H18 H 0.1895 0.4698 0.4751
C23 C 0.2413(2) 0.4800(3) 0.2989(3)
H19 H 0.2354 0.4103 0.2722
C24 C 0.4970(3) 0.6661(3) -0.3615(4)
H20 H 0.4754 0.6664 -0.4714
H21 H 0.5555 0.6495 -0.3351
H22 H 0.4893 0.7332 -0.3215
loop_
_geom_bond_atom_site_label_1
_geom_bond_atom_site_label_2
_geom_bond_site_symmetry_1
_geom_bond_site_symmetry_2
S1 O1 1_555 1_555
N1 H1 1_555 1_555
C1 N2 1_555 1_555
O2 S1 1_555 1_555
N2 S1 1_555 1_555
C2 C1 1_555 1_555
H2 C2 1_555 1_555
C3 C2 1_555 1_555
H3 C3 1_555 1_555
C4 C3 1_555 1_555
H4 C4 1_555 1_555
C5 C4 1_555 1_555
C6 C5 1_555 1_555
H5 C6 1_555 1_555
H6 C6 1_555 1_555
C7 C6 1_555 1_555
H7 C7 1_555 1_555
H8 C7 1_555 1_555
C8 N1 1_555 1_555
H9 C8 1_555 1_555
H10 C8 1_555 1_555
C9 N1 1_555 1_555
C10 S1 1_555 1_555
C11 C10 1_555 1_555
H11 C11 1_555 1_555
C12 C11 1_555 1_555
H12 C12 1_555 1_555
C13 C12 1_555 1_555
C14 C13 1_555 1_555
H13 C14 1_555 1_555
C15 C10 1_555 1_555
C16 C15 1_555 1_555
H14 C16 1_555 1_555
C17 N2 1_555 1_555
C18 C17 1_555 1_555
C19 C18 1_555 1_555
H15 C19 1_555 1_555
C20 C19 1_555 1_555
H16 C20 1_555 1_555
C21 C20 1_555 1_555
H17 C21 1_555 1_555
C22 C21 1_555 1_555
H18 C22 1_555 1_555
C23 C18 1_555 1_555
H19 C23 1_555 1_555
C24 C13 1_555 1_555
H20 C24 1_555 1_555
H21 C24 1_555 1_555
H22 C24 1_555 1_555
C1 C9 1_555 1_555
C5 C9 1_555 1_555
C7 C8 1_555 1_555
C14 C15 1_555 1_555
C16 C17 1_555 1_555
C22 C23 1_555 1_555

#END
