
#######################################################################
#
#                 Cambridge Crystallographic Data Centre
#                                CCDC 
#
#######################################################################
#
# If this CIF has been generated from an entry in the Cambridge 
# Structural Database, then it will include bibliographic, chemical, 
# crystal, experimental, refinement or atomic coordinate data resulting 
# from the CCDC's data processing and validation procedures.
#
#######################################################################

data_ZUXFIJ01
_chemical_formula_moiety         'C24 H18 N2 O2 S1'
_chemical_name_systematic        
'6-methyl-3-phenyl-2-(quinolin-8-yl)-2H-1,2-benzothiazine 1,1-dioxide'
_symmetry_cell_setting           orthorhombic
_symmetry_space_group_name_H-M   'P b c a'
_symmetry_Int_Tables_number      61
_space_group_name_Hall           '-P 2ac 2ab'
loop_
_symmetry_equiv_pos_site_id
_symmetry_equiv_pos_as_xyz
1 x,y,z
2 1/2-x,-y,1/2+z
3 -x,1/2+y,1/2-z
4 1/2+x,1/2-y,-z
5 -x,-y,-z
6 1/2+x,y,1/2-z
7 x,1/2-y,1/2+z
8 1/2-x,1/2+y,z
_cell_length_a                   13.3275(4)
_cell_length_b                   15.7302(4)
_cell_length_c                   18.9714(5)
_cell_angle_alpha                90
_cell_angle_beta                 90
_cell_angle_gamma                90
_cell_volume                     3977.24
_exptl_crystal_colour            colorless
_exptl_crystal_description       cube
_cell_formula_units_Z            8
loop_
_atom_site_label
_atom_site_type_symbol
_atom_site_fract_x
_atom_site_fract_y
_atom_site_fract_z
S1 S 0.59819(4) 0.21956(3) 0.47469(3)
O1 O 0.65584(11) 0.16578(10) 0.42996(9)
O2 O 0.64447(12) 0.29214(10) 0.50526(10)
N1 N 0.49758(12) 0.25023(10) 0.43017(9)
N2 N 0.60527(15) 0.38015(13) 0.36655(11)
C1 C 0.37170(16) 0.20126(13) 0.34593(11)
C2 C 0.54550(16) 0.15653(13) 0.54031(11)
C3 C 0.46092(16) 0.10835(13) 0.52294(11)
C4 C 0.42642(15) 0.18610(13) 0.41234(11)
C5 C 0.41278(16) 0.11874(13) 0.45465(11)
H1 H 0.3698 0.0760 0.4393
C6 C 0.46269(15) 0.33648(13) 0.43390(11)
C7 C 0.51881(17) 0.40111(13) 0.40102(12)
C8 C 0.42477(17) 0.05192(14) 0.57379(12)
H2 H 0.3692 0.0185 0.5633
C9 C 0.27226(17) 0.17543(15) 0.33918(12)
H3 H 0.2406 0.1477 0.3763
C10 C 0.46926(18) 0.04429(14) 0.63926(12)
C11 C 0.59079(18) 0.15050(15) 0.60607(12)
H4 H 0.6463 0.1838 0.6170
C12 C 0.37471(17) 0.35462(16) 0.46631(13)
H5 H 0.3384 0.3111 0.4875
C13 C 0.4827(2) 0.48574(14) 0.40450(13)
C14 C 0.41712(19) 0.24188(15) 0.28936(12)
H6 H 0.4836 0.2594 0.2927
C15 C 0.5522(2) 0.09442(16) 0.65479(12)
H7 H 0.5822 0.0900 0.6989
C16 C 0.2657(2) 0.23183(17) 0.22202(14)
H8 H 0.2301 0.2428 0.1809
C17 C 0.2204(2) 0.19090(18) 0.27718(15)
H9 H 0.1540 0.1733 0.2730
C18 C 0.3638(2) 0.25647(17) 0.22795(13)
H10 H 0.3951 0.2834 0.1902
C19 C 0.3374(2) 0.43782(18) 0.46851(16)
H11 H 0.2760 0.4490 0.4899
C20 C 0.3913(2) 0.50223(17) 0.43924(16)
H12 H 0.3675 0.5577 0.4422
C21 C 0.4289(2) -0.01766(18) 0.69311(14)
H13 H 0.4000 0.0132 0.7318
H14 H 0.4826 -0.0528 0.7101
H15 H 0.3785 -0.0527 0.6717
C22 C 0.6572(2) 0.44250(19) 0.33842(16)
H16 H 0.7166 0.4287 0.3155
C23 C 0.5429(3) 0.54845(18) 0.37317(18)
H17 H 0.5231 0.6051 0.3748
C24 C 0.6298(3) 0.5269(2) 0.34050(19)
H18 H 0.6701 0.5683 0.3199
H19? H 0.6250 0.3282 0.3634
loop_
_geom_bond_atom_site_label_1
_geom_bond_atom_site_label_2
_geom_bond_site_symmetry_1
_geom_bond_site_symmetry_2
S1 O1 1_555 1_555
O2 S1 1_555 1_555
N1 S1 1_555 1_555
N2 C7 1_555 1_555
C1 C4 1_555 1_555
C2 S1 1_555 1_555
C3 C2 1_555 1_555
C4 N1 1_555 1_555
C5 C3 1_555 1_555
H1 C5 1_555 1_555
C6 N1 1_555 1_555
C7 C6 1_555 1_555
C8 C3 1_555 1_555
H2 C8 1_555 1_555
C9 C1 1_555 1_555
H3 C9 1_555 1_555
C10 C8 1_555 1_555
C11 C2 1_555 1_555
H4 C11 1_555 1_555
C12 C6 1_555 1_555
H5 C12 1_555 1_555
C13 C7 1_555 1_555
C14 C1 1_555 1_555
H6 C14 1_555 1_555
C15 C10 1_555 1_555
H7 C15 1_555 1_555
C16 H8 1_555 1_555
C17 C9 1_555 1_555
H9 C17 1_555 1_555
C18 C14 1_555 1_555
H10 C18 1_555 1_555
C19 C12 1_555 1_555
H11 C19 1_555 1_555
C20 C13 1_555 1_555
H12 C20 1_555 1_555
C21 C10 1_555 1_555
H13 C21 1_555 1_555
H14 C21 1_555 1_555
H15 C21 1_555 1_555
C22 N2 1_555 1_555
H16 C22 1_555 1_555
C23 C13 1_555 1_555
H17 C23 1_555 1_555
C24 C22 1_555 1_555
H18 C24 1_555 1_555
C4 C5 1_555 1_555
C11 C15 1_555 1_555
C16 C17 1_555 1_555
C16 C18 1_555 1_555
C19 C20 1_555 1_555
C23 C24 1_555 1_555

#END
