
#######################################################################
#
#                 Cambridge Crystallographic Data Centre
#                                CCDC 
#
#######################################################################
#
# If this CIF has been generated from an entry in the Cambridge 
# Structural Database, then it will include bibliographic, chemical, 
# crystal, experimental, refinement or atomic coordinate data resulting 
# from the CCDC's data processing and validation procedures.
#
#######################################################################

data_ZUXGUW
_chemical_formula_moiety         'C15 H13 N1 O2'
_chemical_name_systematic        
1-(2-hydroxyphenyl)-3,4-dihydroquinolin-2(1H)-one
_symmetry_cell_setting           monoclinic
_symmetry_space_group_name_H-M   'P 21/n'
_symmetry_Int_Tables_number      14
_space_group_name_Hall           '-P 2yn'
loop_
_symmetry_equiv_pos_site_id
_symmetry_equiv_pos_as_xyz
1 x,y,z
2 1/2-x,1/2+y,1/2-z
3 -x,-y,-z
4 1/2+x,1/2-y,1/2+z
_cell_length_a                   9.4141(5)
_cell_length_b                   6.1840(3)
_cell_length_c                   20.1044(11)
_cell_angle_alpha                90
_cell_angle_beta                 95.3690(10)
_cell_angle_gamma                90
_cell_volume                     1165.28
_exptl_crystal_colour            colorless
_exptl_crystal_description       block
_cell_formula_units_Z            4
loop_
_atom_site_label
_atom_site_type_symbol
_atom_site_fract_x
_atom_site_fract_y
_atom_site_fract_z
O1 O 0.21670(6) 0.86505(9) 0.23347(3)
O2 O 0.52297(6) 0.51755(9) 0.22160(3)
H1 H 0.4319(14) 0.478(2) 0.2260(7)
N1 N 0.27590(6) 0.67950(9) 0.14331(3)
C1 C 0.23789(7) 0.53740(11) 0.08848(3)
C2 C 0.11944(7) 0.40103(11) 0.09014(3)
C3 C 0.03619(8) 0.40247(12) 0.15032(4)
H2 H 0.0775 0.2953 0.1832
H3 H -0.0637 0.36 0.1368
C4 C 0.03842(7) 0.62514(12) 0.18262(4)
H4 H -0.029 0.7203 0.1556
H5 H 0.0041 0.6118 0.2275
C5 C 0.18304(7) 0.73082(11) 0.18956(3)
C6 C 0.31835(8) 0.53442(12) 0.03348(3)
H6 H 0.3972 0.6296 0.0319
C7 C 0.28280(8) 0.39192(13) -0.01904(4)
H7 H 0.3384 0.3887 -0.0561
C8 C 0.16657(8) 0.25458(13) -0.01752(4)
H8 H 0.143 0.1561 -0.0531
C9 C 0.08485(8) 0.26250(12) 0.03661(4)
H9 H 0.0037 0.1713 0.037
C10 C 0.41104(7) 0.79089(11) 0.14778(3)
C11 C 0.52796(7) 0.70378(11) 0.18685(3)
C12 C 0.65842(7) 0.81400(12) 0.19080(4)
H10 H 0.7387 0.7566 0.2172
C13 C 0.67108(8) 1.00608(13) 0.15651(4)
H11 H 0.7602 1.0792 0.1593
C14 C 0.55442(8) 1.09321(13) 0.11793(4)
H12 H 0.5636 1.2251 0.0945
C15 C 0.42433(8) 0.98541(12) 0.11404(4)
H13 H 0.344 1.0448 0.0882
loop_
_geom_bond_atom_site_label_1
_geom_bond_atom_site_label_2
_geom_bond_site_symmetry_1
_geom_bond_site_symmetry_2
O1 C5 1_555 1_555
O2 H1 1_555 1_555
N1 C1 1_555 1_555
C1 C2 1_555 1_555
C2 C3 1_555 1_555
C3 H2 1_555 1_555
H3 C3 1_555 1_555
C4 C3 1_555 1_555
H4 C4 1_555 1_555
H5 C4 1_555 1_555
C5 N1 1_555 1_555
C6 C1 1_555 1_555
H6 C6 1_555 1_555
C7 C6 1_555 1_555
H7 C7 1_555 1_555
C8 C7 1_555 1_555
H8 C8 1_555 1_555
C9 C2 1_555 1_555
H9 C9 1_555 1_555
C10 N1 1_555 1_555
C11 O2 1_555 1_555
C12 C11 1_555 1_555
H10 C12 1_555 1_555
C13 C12 1_555 1_555
H11 C13 1_555 1_555
C14 C13 1_555 1_555
H12 C14 1_555 1_555
C15 C10 1_555 1_555
H13 C15 1_555 1_555
C4 C5 1_555 1_555
C8 C9 1_555 1_555
C10 C11 1_555 1_555
C14 C15 1_555 1_555

#END
