
#######################################################################
#
#                 Cambridge Crystallographic Data Centre
#                                CCDC 
#
#######################################################################
#
# If this CIF has been generated from an entry in the Cambridge 
# Structural Database, then it will include bibliographic, chemical, 
# crystal, experimental, refinement or atomic coordinate data resulting 
# from the CCDC's data processing and validation procedures.
#
#######################################################################

data_ZUXNAH
_chemical_formula_moiety         'C8 H14 B1 P1'
_chemical_name_systematic        Trimethylphosphine-borabenzene
_symmetry_cell_setting           monoclinic
_symmetry_space_group_name_H-M   'P 2/c'
_symmetry_Int_Tables_number      13
_space_group_name_Hall           '-P 2yc'
loop_
_symmetry_equiv_pos_site_id
_symmetry_equiv_pos_as_xyz
1 x,y,z
2 -x,y,1/2-z
3 -x,-y,-z
4 x,-y,1/2+z
_cell_length_a                   17.583(3)
_cell_length_b                   6.286(1)
_cell_length_c                   35.140(4)
_cell_angle_alpha                90
_cell_angle_beta                 102.932(2)
_cell_angle_gamma                90
_cell_volume                     3785.4
_exptl_crystal_colour            colorless
_chemical_melting_point          '135-139 deg.C'
_cell_formula_units_Z            16
loop_
_atom_site_label
_atom_site_type_symbol
_atom_site_fract_x
_atom_site_fract_y
_atom_site_fract_z
P1 P 0.9123(1) 0.1241(3) 0.30548(5)
C6 C 0.8856(5) -0.040(1) 0.2630(2)
C7 C 0.8447(4) 0.341(1) 0.2986(2)
C8 C 0.8912(5) -0.034(1) 0.3441(2)
C16 C 1.0455(4) 0.416(1) 0.3064(2)
C17 C 1.1250(5) 0.459(1) 0.3141(3)
C18 C 1.1789(4) 0.310(2) 0.3311(2)
C19 C 1.1578(4) 0.110(2) 0.3419(2)
C20 C 1.0791(5) 0.054(1) 0.3357(2)
B1 B 1.0190(4) 0.206(1) 0.3168(2)
H6 H 0.8332 -0.0774 0.2582
H7 H 0.8958 0.0367 0.2407
H8 H 0.9178 -0.1650 0.2662
H9 H 0.8537 0.4368 0.3198
H10 H 0.8464 0.4206 0.2750
H11 H 0.7912 0.2895 0.2948
H12 H 0.8388 -0.0784 0.3389
H13 H 0.9234 -0.1658 0.3469
H14 H 0.9047 0.0363 0.3685
H28 H 1.0082 0.5260 0.2937
H29 H 1.1433 0.5959 0.3066
H30 H 1.2341 0.3501 0.3363
H31 H 1.1989 0.0107 0.3534
H32 H 1.0645 -0.0898 0.3438
P2 P 0.4114(1) 0.3818(4) 0.55638(5)
C1 C 0.5453(4) 0.092(1) 0.5572(2)
C2 C 0.5786(5) 0.462(1) 0.5846(2)
C3 C 0.6250(6) 0.054(1) 0.5644(3)
C4 C 0.6790(4) 0.208(2) 0.5798(2)
C5 C 0.6571(4) 0.407(2) 0.5901(2)
C9 C 0.3823(5) 0.550(1) 0.5147(2)
C10 C 0.3466(5) 0.161(2) 0.5484(3)
C15 C 0.3875(5) 0.523(2) 0.5957(2)
B2 B 0.5186(4) 0.302(1) 0.5673(2)
H1 H 0.5083 -0.0163 0.5452
H2 H 0.5635 0.6034 0.5922
H3 H 0.6416 -0.0897 0.5590
H4 H 0.7364 0.1761 0.5837
H5 H 0.6968 0.5109 0.6010
H15 H 0.4091 0.6896 0.5197
H16 H 0.3912 0.4944 0.4921
H17 H 0.3267 0.5876 0.5110
H18 H 0.2917 0.2070 0.5415
H19 H 0.3532 0.0744 0.5263
H20 H 0.3519 0.0698 0.5703
H25 H 0.4027 0.4436 0.6198
H26 H 0.4164 0.6569 0.6002
H27 H 0.3340 0.5548 0.5913
P3 P 0.6080(1) 0.1291(4) 0.70488(5)
C11 C 0.6707(4) 0.217(1) 0.7877(2)
C12 C 0.6155(4) -0.155(1) 0.7734(2)
C13 C 0.6352(5) -0.191(1) 0.8137(2)
C14 C 0.6688(5) -0.037(1) 0.8400(2)
C21 C 0.5259(4) 0.304(1) 0.6922(2)
C22 C 0.5866(6) -0.090(2) 0.6723(2)
C23 C 0.6865(4) 0.269(2) 0.6916(2)
C32 C 0.6860(4) 0.162(1) 0.8275(2)
B3 B 0.6321(5) 0.054(2) 0.7589(2)
H21 H 0.6847 0.3568 0.7779
H22 H 0.5900 -0.2676 0.7549
H23 H 0.6209 -0.3277 0.8243
H24 H 0.6826 -0.0736 0.8675
H33 H 0.5354 0.4379 0.7050
H34 H 0.5146 0.3352 0.6638
H35 H 0.4798 0.2433 0.6972
H36 H 0.5403 -0.1663 0.6762
H37 H 0.5797 -0.0538 0.6463
H38 H 0.6288 -0.1971 0.6786
H39 H 0.7355 0.1914 0.6982
H40 H 0.6772 0.3031 0.6645
H41 H 0.6974 0.4055 0.7057
H56 H 0.7108 0.2681 0.8472
P4 P 0.8954(1) 0.3847(3) 0.04346(5)
C24 C 0.8772(4) 0.346(1) -0.0414(2)
C25 C 0.8509(4) 0.420(1) -0.0797(2)
C26 C 0.8215(4) 0.622(1) -0.0875(2)
C27 C 0.8140(4) 0.761(1) -0.0580(2)
C28 C 0.8380(4) 0.702(1) -0.0186(2)
C29 C 0.8127(4) 0.256(1) 0.0555(2)
C30 C 0.9249(5) 0.586(1) 0.0802(2)
C31 C 0.9710(4) 0.187(1) 0.0513(2)
B4 B 0.8700(5) 0.489(1) -0.0092(2)
H42 H 0.9010 0.2036 -0.0359
H43 H 0.8542 0.3274 -0.1019
H44 H 0.8061 0.6722 -0.1139
H45 H 0.7877 0.8997 -0.0645
H46 H 0.8332 0.8016 0.0031
H47 H 0.7689 0.3522 0.0528
H48 H 0.7956 0.1363 0.0388
H49 H 0.8244 0.2057 0.0820
H50 H 0.9398 0.5301 0.1056
H51 H 0.9701 0.6664 0.0753
H52 H 0.8846 0.6909 0.0795
H53 H 0.9819 0.1323 0.0769
H54 H 0.9533 0.0626 0.0337
H55 H 1.0172 0.2362 0.0447
loop_
_geom_bond_atom_site_label_1
_geom_bond_atom_site_label_2
_geom_bond_site_symmetry_1
_geom_bond_site_symmetry_2
P1 C6 1_555 1_555
P2 C9 1_555 1_555
P3 C21 1_555 1_555
P4 C29 1_555 1_555
C1 C3 1_555 1_555
C2 C5 1_555 1_555
C3 C4 1_555 1_555
C4 C5 1_555 1_555
C5 H5 1_555 1_555
C6 H6 1_555 1_555
C7 P1 1_555 1_555
C8 P1 1_555 1_555
C9 H15 1_555 1_555
C10 P2 1_555 1_555
C11 C32 1_555 1_555
C12 C13 1_555 1_555
C13 C14 1_555 1_555
C14 C32 1_555 1_555
C15 P2 1_555 1_555
C16 C17 1_555 1_555
C17 C18 1_555 1_555
C18 C19 1_555 1_555
C19 C20 1_555 1_555
C20 B1 1_555 1_555
C21 H33 1_555 1_555
C22 P3 1_555 1_555
C23 P3 1_555 1_555
C24 C25 1_555 1_555
C25 C26 1_555 1_555
C26 C27 1_555 1_555
C27 C28 1_555 1_555
C28 B4 1_555 1_555
C29 H47 1_555 1_555
C30 P4 1_555 1_555
C31 P4 1_555 1_555
C32 H56 1_555 1_555
B1 P1 1_555 1_555
B2 P2 1_555 1_555
B3 P3 1_555 1_555
B4 P4 1_555 1_555
H1 C1 1_555 1_555
H2 C2 1_555 1_555
H3 C3 1_555 1_555
H4 C4 1_555 1_555
H7 C6 1_555 1_555
H8 C6 1_555 1_555
H9 C7 1_555 1_555
H10 C7 1_555 1_555
H11 C7 1_555 1_555
H12 C8 1_555 1_555
H13 C8 1_555 1_555
H14 C8 1_555 1_555
H16 C9 1_555 1_555
H17 C9 1_555 1_555
H18 C10 1_555 1_555
H19 C10 1_555 1_555
H20 C10 1_555 1_555
H21 C11 1_555 1_555
H22 C12 1_555 1_555
H23 C13 1_555 1_555
H24 C14 1_555 1_555
H25 C15 1_555 1_555
H26 C15 1_555 1_555
H27 C15 1_555 1_555
H28 C16 1_555 1_555
H29 C17 1_555 1_555
H30 C18 1_555 1_555
H31 C19 1_555 1_555
H32 C20 1_555 1_555
H34 C21 1_555 1_555
H35 C21 1_555 1_555
H36 C22 1_555 1_555
H37 C22 1_555 1_555
H38 C22 1_555 1_555
H39 C23 1_555 1_555
H40 C23 1_555 1_555
H41 C23 1_555 1_555
H42 C24 1_555 1_555
H43 C25 1_555 1_555
H44 C26 1_555 1_555
H45 C27 1_555 1_555
H46 C28 1_555 1_555
H48 C29 1_555 1_555
H49 C29 1_555 1_555
H50 C30 1_555 1_555
H51 C30 1_555 1_555
H52 C30 1_555 1_555
H53 C31 1_555 1_555
H54 C31 1_555 1_555
H55 C31 1_555 1_555
C1 B2 1_555 1_555
C2 B2 1_555 1_555
C11 B3 1_555 1_555
C12 B3 1_555 1_555
C16 B1 1_555 1_555
C24 B4 1_555 1_555

#END
