
#######################################################################
#
#                 Cambridge Crystallographic Data Centre
#                                CCDC 
#
#######################################################################
#
# If this CIF has been generated from an entry in the Cambridge 
# Structural Database, then it will include bibliographic, chemical, 
# crystal, experimental, refinement or atomic coordinate data resulting 
# from the CCDC's data processing and validation procedures.
#
#######################################################################

data_ZUXRIV
_chemical_formula_moiety         'C18 H30 N3 P3,3(C6 H6 O1)'
_chemical_name_systematic        
'2,3,9,10,15,16-Hexamethyl-6,12,18-triaza-5\l^5^,7\l^5^,13\l^5^-triphosphatrispiro[4.1.4^7^.1.4^13^.1^5^]octadeca-2,5(18),6,9,12,15-hexaene phenol solvate'
_symmetry_cell_setting           triclinic
_symmetry_space_group_name_H-M   'P -1'
_symmetry_Int_Tables_number      2
_space_group_name_Hall           '-P 1'
loop_
_symmetry_equiv_pos_site_id
_symmetry_equiv_pos_as_xyz
1 x,y,z
2 -x,-y,-z
_cell_length_a                   14.860(1)
_cell_length_b                   20.433(1)
_cell_length_c                   24.852(2)
_cell_angle_alpha                82.191(7)
_cell_angle_beta                 81.840(7)
_cell_angle_gamma                80.328(6)
_cell_volume                     7314.67
_exptl_crystal_colour            colorless
_exptl_crystal_description       plates
_cell_formula_units_Z            8
_exptl_crystal_recrystallization_method dichloromethane/hexane
loop_
_atom_site_label
_atom_site_type_symbol
_atom_site_fract_x
_atom_site_fract_y
_atom_site_fract_z
P1 P 0.17768(9) 0.39936(7) 0.12486(6)
P2 P -0.01522(9) 0.42498(7) 0.12397(6)
P3 P 0.07802(10) 0.29188(7) 0.13015(6)
N1 N 0.0840(3) 0.4484(2) 0.1152(2)
N2 N -0.0141(3) 0.3459(2) 0.13293(19)
N3 N 0.1708(3) 0.3208(2) 0.1306(2)
C1 C 0.2321(4) 0.4155(3) 0.1812(2)
H1 H 0.2111 0.4612 0.1903
H2 H 0.2192 0.3840 0.2137
C2 C 0.3332(4) 0.4057(3) 0.1600(3)
C3 C 0.3525(3) 0.4071(3) 0.1058(2)
C4 C 0.2717(3) 0.4182(3) 0.0746(2)
H3 H 0.2814 0.3885 0.0458
H4 H 0.2604 0.4647 0.0578
C5 C 0.4017(4) 0.3954(4) 0.2004(3)
H5 H 0.3931 0.4342 0.2202
H6 H 0.4634 0.3893 0.1811
H7 H 0.3928 0.3561 0.2259
C6 C 0.4472(4) 0.3984(3) 0.0743(3)
H8 H 0.4520 0.3641 0.0502
H9 H 0.4927 0.3853 0.0997
H10 H 0.4580 0.4403 0.0527
C7 C -0.0874(4) 0.4667(3) 0.1776(2)
H11 H -0.1377 0.4420 0.1937
H12 H -0.0519 0.4725 0.2065
C8 C -0.1233(4) 0.5332(3) 0.1475(3)
C9 C -0.1183(4) 0.5358(3) 0.0941(3)
C10 C -0.0802(4) 0.4700(3) 0.0717(2)
H13 H -0.0407 0.4769 0.0369
H14 H -0.1298 0.4464 0.0662
C11 C -0.1615(5) 0.5897(3) 0.1818(3)
H15 H -0.1153 0.5962 0.2037
H16 H -0.2157 0.5786 0.2057
H17 H -0.1780 0.6304 0.1580
C12 C -0.1470(5) 0.5956(3) 0.0543(3)
H18 H -0.0948 0.6044 0.0276
H19 H -0.1685 0.6343 0.0739
H20 H -0.1960 0.5868 0.0357
C13 C 0.0833(4) 0.2414(3) 0.0757(2)
H21 H 0.0520 0.2666 0.0455
H22 H 0.1472 0.2254 0.0619
C14 C 0.0342(4) 0.1838(3) 0.1022(3)
C15 C 0.0232(4) 0.1754(2) 0.1569(3)
C16 C 0.0624(4) 0.2244(3) 0.1838(2)
H23 H 0.1212 0.2041 0.1967
H24 H 0.0197 0.2402 0.2148
C17 C 0.0016(5) 0.1425(3) 0.0648(3)
H25 H 0.0538 0.1233 0.0409
H26 H -0.0422 0.1708 0.0430
H27 H -0.0276 0.1070 0.0866
C18 C -0.0239(5) 0.1234(3) 0.1924(3)
H28 H 0.0176 0.0980 0.2172
H29 H -0.0415 0.0937 0.1698
H30 H -0.0783 0.1447 0.2134
P4 P 0.41880(9) 0.21176(7) 0.88355(6)
P5 P 0.56843(10) 0.10641(7) 0.88540(6)
P6 P 0.59692(9) 0.23842(7) 0.89190(6)
N4 N 0.4626(3) 0.1340(2) 0.8840(2)
N5 N 0.6304(3) 0.1594(2) 0.89670(19)
N6 N 0.4884(3) 0.2609(2) 0.8911(2)
C19 C 0.3154(3) 0.2197(3) 0.9309(2)
H31 H 0.3195 0.1848 0.9620
H32 H 0.3032 0.2636 0.9445
C20 C 0.2425(4) 0.2118(3) 0.8976(3)
C21 C 0.2640(4) 0.2206(3) 0.8437(3)
C22 C 0.3582(4) 0.2370(3) 0.8245(2)
H33 H 0.3563 0.2849 0.8128
H34 H 0.3874 0.2121 0.7939
C23 C 0.1532(4) 0.1934(4) 0.9281(3)
H35 H 0.1221 0.2296 0.9485
H36 H 0.1658 0.1531 0.9531
H37 H 0.1142 0.1855 0.9022
C24 C 0.2023(5) 0.2154(4) 0.8016(3)
H38 H 0.1964 0.2566 0.7769
H39 H 0.1421 0.2081 0.8199
H40 H 0.2288 0.1784 0.7810
C25 C 0.6200(4) 0.0667(3) 0.8256(2)
H41 H 0.5734 0.0515 0.8080
H42 H 0.6527 0.0972 0.7990
C26 C 0.6860(4) 0.0082(3) 0.8481(3)
C27 C 0.6724(4) -0.0091(3) 0.9016(3)
C28 C 0.5918(4) 0.0319(3) 0.9320(2)
H43 H 0.6079 0.0425 0.9664
H44 H 0.5386 0.0081 0.9401
C29 C 0.7595(5) -0.0251(4) 0.8081(3)
H45 H 0.7929 0.0083 0.7864
H46 H 0.7312 -0.0472 0.7842
H47 H 0.8017 -0.0578 0.8279
C30 C 0.7284(5) -0.0648(3) 0.9341(3)
H48 H 0.6884 -0.0950 0.9543
H49 H 0.7584 -0.0462 0.9595
H50 H 0.7746 -0.0890 0.9094
C31 C 0.6580(4) 0.2851(3) 0.8360(2)
H51 H 0.7199 0.2615 0.8260
H52 H 0.6248 0.2937 0.8038
C32 C 0.6614(4) 0.3493(3) 0.8592(3)
C33 C 0.6489(4) 0.3456(3) 0.9132(3)
C34 C 0.6344(4) 0.2780(3) 0.9435(2)
H53 H 0.5872 0.2825 0.9752
H54 H 0.6916 0.2532 0.9557
C35 C 0.6768(5) 0.4096(3) 0.8194(3)
H55 H 0.7363 0.4010 0.7978
H56 H 0.6749 0.4476 0.8392
H57 H 0.6290 0.4192 0.7954
C36 C 0.6484(5) 0.4020(3) 0.9471(3)
H58 H 0.6916 0.3878 0.9738
H59 H 0.5871 0.4138 0.9659
H60 H 0.6663 0.4406 0.9234
O1 O 0.1028(3) 0.5722(3) 0.0533(2)
H61 H 0.0980 0.5364 0.0729
C37 C 0.0936(4) 0.6229(3) 0.0855(3)
C38 C 0.0792(4) 0.6132(3) 0.1420(3)
H62 H 0.0739 0.5710 0.1615
C39 C 0.0729(5) 0.6706(4) 0.1681(4)
H63 H 0.0635 0.6670 0.2065
C40 C 0.0800(5) 0.7317(4) 0.1391(5)
H64 H 0.0738 0.7695 0.1580
C41 C 0.0957(5) 0.7386(4) 0.0849(5)
H65 H 0.1028 0.7808 0.0657
C42 C 0.1016(5) 0.6846(4) 0.0565(3)
H66 H 0.1109 0.6895 0.0180
O2 O 0.8348(3) 0.2987(2) 0.19751(19)
H67 H 0.8818 0.3062 0.1768
C43 C 0.7741(4) 0.2802(3) 0.1683(3)
C44 C 0.6923(5) 0.2663(3) 0.1984(3)
H68 H 0.6821 0.2668 0.2365
C45 C 0.6266(6) 0.2516(4) 0.1700(6)
H69 H 0.5696 0.2431 0.1889
C46 C 0.6430(8) 0.2492(4) 0.1147(6)
H70 H 0.5979 0.2384 0.0958
C47 C 0.7247(6) 0.2625(3) 0.0873(4)
H71 H 0.7349 0.2603 0.0493
C48 C 0.7927(5) 0.2788(3) 0.1119(3)
H72 H 0.8486 0.2884 0.0921
O3 O 0.3000(4) 0.2179(3) 0.1736(2)
H73 H 0.2670 0.2501 0.1587
C49 C 0.3675(4) 0.1951(3) 0.1376(3)
C50 C 0.3782(4) 0.2195(3) 0.0838(3)
H74 H 0.3360 0.2578 0.0702
C51 C 0.4495(5) 0.1905(5) 0.0488(3)
H75 H 0.4558 0.2072 0.0115
C52 C 0.5099(6) 0.1391(5) 0.0668(5)
H76 H 0.5594 0.1206 0.0428
C53 C 0.4987(5) 0.1141(4) 0.1203(5)
H77 H 0.5402 0.0771 0.1329
C54 C 0.4285(5) 0.1412(3) 0.1564(3)
H78 H 0.4221 0.1233 0.1934
O5 O 0.3788(5) 0.0753(4) 0.8090(3)
H81 H 0.3921 0.0988 0.8305
C55 C 0.3276(4) 0.0301(3) 0.8370(3)
C56 C 0.3074(4) 0.0171(3) 0.8919(3)
H82 H 0.3252 0.0460 0.9162
C57 C 0.2631(4) -0.0363(4) 0.9146(4)
H83 H 0.2501 -0.0449 0.9528
C58 C 0.2383(5) -0.0763(4) 0.8816(5)
H84 H 0.2075 -0.1124 0.8967
C59 C 0.2591(5) -0.0633(4) 0.8257(5)
H85 H 0.2426 -0.0912 0.8028
C60 C 0.3023(5) -0.0117(4) 0.8035(3)
H86 H 0.3156 -0.0036 0.7653
O7 O 0.7854(3) 0.1058(2) 0.94871(17)
H89 H 0.7425 0.1201 0.9301
C61 C 0.8639(4) 0.0909(3) 0.9152(3)
C62 C 0.8679(5) 0.1011(3) 0.8588(3)
H90 H 0.8147 0.1184 0.8420
C63 C 0.9512(7) 0.0855(4) 0.8277(4)
H91 H 0.9547 0.0918 0.7894
C64 C 1.0307(8) 0.0603(5) 0.8526(6)
H92 H 1.0876 0.0493 0.8315
C65 C 1.0235(6) 0.0523(4) 0.9078(6)
H93 H 1.0768 0.0365 0.9249
C66 C 0.9424(5) 0.0661(3) 0.9393(4)
H94 H 0.9395 0.0588 0.9776
O8 O 0.4124(4) 0.3764(3) 0.9418(2)
H95 H 0.4343 0.3428 0.9238
C67 C 0.3958(4) 0.4326(3) 0.9049(3)
C68 C 0.4056(4) 0.4326(3) 0.8496(3)
H96 H 0.4313 0.3911 0.8336
C69 C 0.3789(5) 0.4898(3) 0.8163(3)
H97 H 0.3854 0.4894 0.7782
C70 C 0.3424(5) 0.5479(3) 0.8391(4)
H98 H 0.3237 0.5872 0.8165
C71 C 0.3334(4) 0.5485(3) 0.8943(4)
H99 H 0.3092 0.5882 0.9098
C72 C 0.3596(4) 0.4910(3) 0.9272(3)
H100 H 0.3529 0.4914 0.9654
P7 P 0.31910(10) 0.40371(7) 0.61867(6)
P8 P 0.17053(10) 0.51018(7) 0.61819(6)
P9 P 0.13808(10) 0.37716(7) 0.61912(6)
N7 N 0.2778(3) 0.4818(2) 0.6172(2)
N8 N 0.1047(3) 0.4563(2) 0.6157(2)
N9 N 0.2474(3) 0.3544(2) 0.6158(2)
C73 C 0.3859(4) 0.3788(3) 0.6756(2)
H103 H 0.3615 0.4053 0.7060
H104 H 0.3864 0.3313 0.6887
C74 C 0.4810(4) 0.3926(3) 0.6517(3)
C75 C 0.4968(4) 0.4002(3) 0.5977(3)
C76 C 0.4178(4) 0.3938(3) 0.5679(2)
H105 H 0.4262 0.3500 0.5545
H106 H 0.4116 0.4287 0.5368
C77 C 0.5480(5) 0.3956(4) 0.6914(3)
H107 H 0.5240 0.4315 0.7137
H108 H 0.6067 0.4036 0.6713
H109 H 0.5562 0.3535 0.7148
C78 C 0.5845(4) 0.4167(4) 0.5642(3)
H110 H 0.5709 0.4567 0.5390
H111 H 0.6124 0.3797 0.5437
H112 H 0.6267 0.4243 0.5883
C79 C 0.1446(4) 0.5798(3) 0.5676(2)
H113 H 0.1977 0.6033 0.5561
H114 H 0.1261 0.5652 0.5353
C80 C 0.0664(4) 0.6236(3) 0.5964(3)
C81 C 0.0569(4) 0.6122(3) 0.6503(3)
C82 C 0.1260(4) 0.5573(3) 0.6747(2)
H115 H 0.0962 0.5297 0.7052
H116 H 0.1747 0.5757 0.6876
C83 C 0.0078(4) 0.6759(3) 0.5628(3)
H117 H -0.0202 0.6547 0.5381
H118 H 0.0456 0.7070 0.5417
H119 H -0.0400 0.6998 0.5868
C84 C -0.0143(5) 0.6485(3) 0.6897(3)
H120 H -0.0470 0.6164 0.7137
H121 H -0.0574 0.6798 0.6694
H122 H 0.0157 0.6725 0.7113
C85 C 0.0811(4) 0.3308(3) 0.6770(2)
H123 H 0.1180 0.3214 0.7076
H124 H 0.0205 0.3550 0.6891
C86 C 0.0725(4) 0.2667(3) 0.6545(3)
C87 C 0.0794(4) 0.2709(3) 0.6006(3)
C88 C 0.0948(4) 0.3380(3) 0.5696(2)
H125 H 0.0372 0.3637 0.5586
H126 H 0.1397 0.3326 0.5370
C89 C 0.0579(5) 0.2064(3) 0.6944(3)
H127 H 0.0059 0.2179 0.7215
H128 H 0.1126 0.1909 0.7124
H129 H 0.0458 0.1712 0.6750
C90 C 0.0751(5) 0.2147(3) 0.5675(3)
H130 H 0.1314 0.2073 0.5426
H131 H 0.0231 0.2267 0.5467
H132 H 0.0680 0.1742 0.5920
P10 P 0.19356(10) 0.09242(7) 0.37506(6)
P11 P 0.09986(10) -0.01708(7) 0.37475(6)
P12 P 0.29255(10) -0.03880(7) 0.37703(6)
N10 N 0.1020(3) 0.0600(2) 0.3793(2)
N11 N 0.1986(3) -0.0627(2) 0.36926(19)
N12 N 0.2865(3) 0.0401(2) 0.3781(2)
C91 C 0.1867(4) 0.1504(3) 0.4241(2)
H133 H 0.1226 0.1646 0.4387
H134 H 0.2213 0.1302 0.4546
C92 C 0.2287(3) 0.2089(2) 0.3929(2)
C93 C 0.2387(4) 0.2103(3) 0.3387(2)
C94 C 0.2061(4) 0.1546(3) 0.3163(2)
H135 H 0.2514 0.1366 0.2873
H136 H 0.1473 0.1701 0.3018
C95 C 0.2545(5) 0.2581(3) 0.4245(3)
H137 H 0.2015 0.2751 0.4490
H138 H 0.2752 0.2948 0.3995
H139 H 0.3035 0.2366 0.4457
C96 C 0.2788(5) 0.2627(3) 0.2985(3)
H140 H 0.2352 0.2821 0.2731
H141 H 0.3352 0.2424 0.2785
H142 H 0.2921 0.2973 0.3180
C97 C 0.0169(4) -0.0465(3) 0.4275(2)
H143 H 0.0307 -0.0951 0.4364
H144 H 0.0153 -0.0252 0.4608
C98 C -0.0724(4) -0.0272(3) 0.4039(3)
C99 C -0.0639(4) -0.0164(3) 0.3497(3)
C100 C 0.0341(4) -0.0245(3) 0.3211(2)
H145 H 0.0419 0.0106 0.2905
H146 H 0.0516 -0.0683 0.3075
C101 C -0.1612(4) -0.0213(4) 0.4412(3)
H147 H -0.1605 0.0106 0.4667
H148 H -0.1685 -0.0646 0.4614
H149 H -0.2120 -0.0060 0.4198
C102 C -0.1405(4) 0.0019(4) 0.3136(3)
H150 H -0.1319 -0.0291 0.2863
H151 H -0.1393 0.0470 0.2954
H152 H -0.1992 -0.0004 0.3359
C103 C 0.3425(4) -0.0882(3) 0.4335(2)
H153 H 0.3860 -0.0651 0.4470
H154 H 0.2951 -0.0990 0.4636
C104 C 0.3913(4) -0.1502(3) 0.4091(3)
C105 C 0.4095(4) -0.1424(3) 0.3551(3)
C106 C 0.3807(4) -0.0734(3) 0.3270(2)
H155 H 0.3564 -0.0754 0.2927
H156 H 0.4320 -0.0477 0.3195
C107 C 0.4133(5) -0.2133(3) 0.4464(3)
H157 H 0.4503 -0.2052 0.4733
H158 H 0.4471 -0.2479 0.4251
H159 H 0.3566 -0.2274 0.4649
C108 C 0.4549(5) -0.1964(4) 0.3189(3)
H160 H 0.4123 -0.2028 0.2946
H161 H 0.4714 -0.2380 0.3417
H162 H 0.5098 -0.1827 0.2975
O10 O 0.4032(5) 0.5712(4) 0.5683(3)
H163 H 0.3799 0.5393 0.5858
C109 C 0.4313(4) 0.6051(3) 0.6022(3)
C110 C 0.4185(4) 0.5902(3) 0.6572(3)
H164 H 0.3899 0.5515 0.6733
C111 C 0.4459(4) 0.6296(4) 0.6915(3)
H165 H 0.4375 0.6188 0.7297
C112 C 0.4851(5) 0.6841(4) 0.6689(5)
H166 H 0.5038 0.7110 0.6918
C113 C 0.4976(5) 0.7003(4) 0.6136(5)
H167 H 0.5241 0.7384 0.5985
C114 C 0.4712(4) 0.6603(4) 0.5798(3)
H168 H 0.4804 0.6708 0.5416
O13 O 0.9270(5) 0.4906(4) 0.6739(3)
H172 H 0.8993 0.4915 0.7073
C115 C 0.8799(4) 0.5232(3) 0.5814(3)
H173 H 0.9420 0.5120 0.5621
C116 C 0.8636(4) 0.5164(3) 0.6375(3)
C117 C 0.7742(5) 0.5326(3) 0.6624(3)
H174 H 0.7618 0.5280 0.7007
C118 C 0.7036(5) 0.5556(4) 0.6308(4)
H175 H 0.6435 0.5674 0.6480
C119 C 0.7194(5) 0.5614(3) 0.5759(4)
H176 H 0.6705 0.5759 0.5548
C120 C 0.8067(6) 0.5461(3) 0.5508(3)
H177 H 0.8177 0.5511 0.5124
O14 O 0.3212(5) 0.2509(4) 0.5523(3)
H179 H 0.3002 0.2792 0.5737
C121 C 0.3376(4) 0.1894(3) 0.5814(2)
C122 C 0.3227 0.1782 0.6368
H180 H 0.2985 0.2149 0.6580
C123 C 0.3424(5) 0.1147(3) 0.6624(3)
H181 H 0.3318 0.1065 0.7007
C124 C 0.3779(5) 0.0628(3) 0.6317(4)
H182 H 0.3912 0.0192 0.6493
C125 C 0.3936(4) 0.0743(3) 0.5765(4)
H183 H 0.4188 0.0388 0.5560
C126 C 0.3727(4) 0.1380(3) 0.5504(3)
H184 H 0.3823 0.1461 0.5120
O16 O 0.9493(4) 0.1230(3) 0.4463(3)
H187 H 0.9897 0.1025 0.4255
C127 C 0.8955(4) 0.1682(3) 0.4170(3)
C128 C 0.9045(4) 0.1805(3) 0.3613(3)
H188 H 0.9528 0.1538 0.3396
C129 C 0.8460(4) 0.2308(3) 0.3356(3)
H189 H 0.8526 0.2396 0.2973
C130 C 0.7776(5) 0.2678(3) 0.3671(5)
H190 H 0.7374 0.3023 0.3500
C131 C 0.7678(5) 0.2552(4) 0.4218(4)
H191 H 0.7204 0.2806 0.4428
C132 C 0.8258(5) 0.2059(4) 0.4471(3)
H192 H 0.8184 0.1974 0.4854
O18 O 0.2068(3) 0.8345(2) 0.30216(19)
H195 H 0.2105 0.8620 0.3232
C133 C 0.1975(4) 0.7737(3) 0.3319(3)
C134 C 0.1953(4) 0.7636(3) 0.3876(3)
H196 H 0.1991 0.7990 0.4074
C135 C 0.1873(5) 0.7010(4) 0.4143(3)
H197 H 0.1878 0.6935 0.4524
C136 C 0.1788(5) 0.6496(4) 0.3869(4)
H198 H 0.1719 0.6073 0.4058
C137 C 0.1804(4) 0.6603(4) 0.3312(4)
H199 H 0.1753 0.6248 0.3120
C138 C 0.1894(4) 0.7224(3) 0.3024(3)
H200 H 0.1899 0.7296 0.2642
O19 O 0.4239(4) 0.0805(3) 0.4270(2)
H201 H 0.3808 0.0758 0.4106
C139 C 0.4920(4) 0.1015(3) 0.3906(3)
C140 C 0.4914(4) 0.1095(3) 0.3344(3)
H202 H 0.4378 0.1021 0.3198
C141 C 0.5663(5) 0.1279(3) 0.3005(3)
H203 H 0.5657 0.1335 0.2624
C142 C 0.6425(5) 0.1384(3) 0.3221(4)
H204 H 0.6934 0.1515 0.2987
C143 C 0.6442(5) 0.1297(4) 0.3771(4)
H205 H 0.6968 0.1362 0.3916
C144 C 0.5695(5) 0.1115(3) 0.4119(3)
H206 H 0.5710 0.1058 0.4500
O4? O 0.3209(10) 0.2614(7) 0.0569(6)
H79? H 0.2787 0.2784 0.0787
H80? H 0.3173 0.2147 0.1622
O6? O 0.3341(6) 0.0444(5) 0.9317(4)
H87? H 0.3615 0.0761 0.9182
H88? H 0.3586 0.0668 0.8215
O9? O 0.4346(12) 0.3781(7) 0.8217(7)
H101? H 0.4486 0.3447 0.8459
H102? H 0.4131 0.3926 0.9286
O11? O 0.3704(6) 0.5444(4) 0.6833(4)
H169? H 0.3559 0.5226 0.6609
H170? H 0.4119 0.5773 0.5784
O12? O 0.9584(6) 0.5068(5) 0.5463(4)
H171? H 1.0024 0.4936 0.5642
H178? H 0.9138 0.5004 0.6593
O15? O 0.2997(6) 0.2271(4) 0.6705(4)
H185? H 0.2898 0.2640 0.6520
H186? H 0.3241 0.2345 0.5634
O17? O 0.9696(7) 0.1537(6) 0.3252(4)
H193? H 1.0045 0.1237 0.3413
H194? H 0.9374 0.1338 0.4351
O20? O 0.4300(12) 0.0944(9) 0.3053(7)
H207? H 0.3847 0.0840 0.3263
H208? H 0.4390 0.0890 0.4147
loop_
_geom_bond_atom_site_label_1
_geom_bond_atom_site_label_2
_geom_bond_site_symmetry_1
_geom_bond_site_symmetry_2
P1 N1 1_555 1_555
P2 N1 1_555 1_555
P3 N2 1_555 1_555
N2 P2 1_555 1_555
N3 P1 1_555 1_555
C1 P1 1_555 1_555
H1 C1 1_555 1_555
H2 C1 1_555 1_555
C2 C1 1_555 1_555
C3 C2 1_555 1_555
C4 P1 1_555 1_555
H3 C4 1_555 1_555
H4 C4 1_555 1_555
C5 C2 1_555 1_555
H5 C5 1_555 1_555
H6 C5 1_555 1_555
H7 C5 1_555 1_555
C6 C3 1_555 1_555
H8 C6 1_555 1_555
H9 C6 1_555 1_555
H10 C6 1_555 1_555
C7 P2 1_555 1_555
H11 C7 1_555 1_555
H12 C7 1_555 1_555
C8 C7 1_555 1_555
C9 C8 1_555 1_555
C10 P2 1_555 1_555
H13 C10 1_555 1_555
H14 C10 1_555 1_555
C11 C8 1_555 1_555
H15 C11 1_555 1_555
H16 C11 1_555 1_555
H17 C11 1_555 1_555
C12 C9 1_555 1_555
H18 C12 1_555 1_555
H19 C12 1_555 1_555
H20 C12 1_555 1_555
C13 P3 1_555 1_555
H21 C13 1_555 1_555
H22 C13 1_555 1_555
C14 C13 1_555 1_555
C15 C14 1_555 1_555
C16 P3 1_555 1_555
H23 C16 1_555 1_555
H24 C16 1_555 1_555
C17 C14 1_555 1_555
H25 C17 1_555 1_555
H26 C17 1_555 1_555
H27 C17 1_555 1_555
C18 C15 1_555 1_555
H28 C18 1_555 1_555
H29 C18 1_555 1_555
H30 C18 1_555 1_555
P4 N4 1_555 1_555
P5 N4 1_555 1_555
P6 N5 1_555 1_555
N5 P5 1_555 1_555
N6 P4 1_555 1_555
C19 P4 1_555 1_555
H31 C19 1_555 1_555
H32 C19 1_555 1_555
C20 C19 1_555 1_555
C21 C20 1_555 1_555
C22 P4 1_555 1_555
H33 C22 1_555 1_555
H34 C22 1_555 1_555
C23 C20 1_555 1_555
H35 C23 1_555 1_555
H36 C23 1_555 1_555
H37 C23 1_555 1_555
C24 C21 1_555 1_555
H38 C24 1_555 1_555
H39 C24 1_555 1_555
H40 C24 1_555 1_555
C25 P5 1_555 1_555
H41 C25 1_555 1_555
H42 C25 1_555 1_555
C26 C25 1_555 1_555
C27 C26 1_555 1_555
C28 P5 1_555 1_555
H43 C28 1_555 1_555
H44 C28 1_555 1_555
C29 C26 1_555 1_555
H45 C29 1_555 1_555
H46 C29 1_555 1_555
H47 C29 1_555 1_555
C30 C27 1_555 1_555
H48 C30 1_555 1_555
H49 C30 1_555 1_555
H50 C30 1_555 1_555
C31 P6 1_555 1_555
H51 C31 1_555 1_555
H52 C31 1_555 1_555
C32 C31 1_555 1_555
C33 C32 1_555 1_555
C34 P6 1_555 1_555
H53 C34 1_555 1_555
H54 C34 1_555 1_555
C35 C32 1_555 1_555
H55 C35 1_555 1_555
H56 C35 1_555 1_555
H57 C35 1_555 1_555
C36 C33 1_555 1_555
H58 C36 1_555 1_555
H59 C36 1_555 1_555
H60 C36 1_555 1_555
O1 H61 1_555 1_555
C37 O1 1_555 1_555
C38 C37 1_555 1_555
H62 C38 1_555 1_555
C39 C38 1_555 1_555
H63 C39 1_555 1_555
C40 C39 1_555 1_555
H64 C40 1_555 1_555
C41 C40 1_555 1_555
H65 C41 1_555 1_555
C42 C37 1_555 1_555
H66 C42 1_555 1_555
O2 H67 1_555 1_555
C43 O2 1_555 1_555
C44 C43 1_555 1_555
H68 C44 1_555 1_555
C45 C44 1_555 1_555
H69 C45 1_555 1_555
C46 C45 1_555 1_555
H70 C46 1_555 1_555
C47 C46 1_555 1_555
H71 C47 1_555 1_555
C48 C43 1_555 1_555
H72 C48 1_555 1_555
O3 H73 1_555 1_555
C49 O3 1_555 1_555
C50 C49 1_555 1_555
H74 C50 1_555 1_555
C51 C50 1_555 1_555
H75 C51 1_555 1_555
C52 C51 1_555 1_555
H76 C52 1_555 1_555
C53 C52 1_555 1_555
H77 C53 1_555 1_555
C54 C49 1_555 1_555
H78 C54 1_555 1_555
O5 H81 1_555 1_555
C55 O5 1_555 1_555
C56 C55 1_555 1_555
H82 C56 1_555 1_555
C57 C56 1_555 1_555
H83 C57 1_555 1_555
C58 C57 1_555 1_555
H84 C58 1_555 1_555
C59 C58 1_555 1_555
H85 C59 1_555 1_555
C60 C55 1_555 1_555
H86 C60 1_555 1_555
O7 H89 1_555 1_555
C61 O7 1_555 1_555
C62 C61 1_555 1_555
H90 C62 1_555 1_555
C63 C62 1_555 1_555
H91 C63 1_555 1_555
C64 C63 1_555 1_555
H92 C64 1_555 1_555
C65 C64 1_555 1_555
H93 C65 1_555 1_555
C66 C61 1_555 1_555
H94 C66 1_555 1_555
O8 H95 1_555 1_555
C67 O8 1_555 1_555
C68 C67 1_555 1_555
H96 C68 1_555 1_555
C69 C68 1_555 1_555
H97 C69 1_555 1_555
C70 C69 1_555 1_555
H98 C70 1_555 1_555
C71 C70 1_555 1_555
H99 C71 1_555 1_555
C72 C67 1_555 1_555
H100 C72 1_555 1_555
P7 N7 1_555 1_555
P8 N7 1_555 1_555
P9 N8 1_555 1_555
N8 P8 1_555 1_555
N9 P7 1_555 1_555
C73 P7 1_555 1_555
H103 C73 1_555 1_555
H104 C73 1_555 1_555
C74 C73 1_555 1_555
C75 C74 1_555 1_555
C76 P7 1_555 1_555
H105 C76 1_555 1_555
H106 C76 1_555 1_555
C77 C74 1_555 1_555
H107 C77 1_555 1_555
H108 C77 1_555 1_555
H109 C77 1_555 1_555
C78 C75 1_555 1_555
H110 C78 1_555 1_555
H111 C78 1_555 1_555
H112 C78 1_555 1_555
C79 P8 1_555 1_555
H113 C79 1_555 1_555
H114 C79 1_555 1_555
C80 C79 1_555 1_555
C81 C80 1_555 1_555
C82 P8 1_555 1_555
H115 C82 1_555 1_555
H116 C82 1_555 1_555
C83 C80 1_555 1_555
H117 C83 1_555 1_555
H118 C83 1_555 1_555
H119 C83 1_555 1_555
C84 C81 1_555 1_555
H120 C84 1_555 1_555
H121 C84 1_555 1_555
H122 C84 1_555 1_555
C85 P9 1_555 1_555
H123 C85 1_555 1_555
H124 C85 1_555 1_555
C86 C85 1_555 1_555
C87 C86 1_555 1_555
C88 P9 1_555 1_555
H125 C88 1_555 1_555
H126 C88 1_555 1_555
C89 C86 1_555 1_555
H127 C89 1_555 1_555
H128 C89 1_555 1_555
H129 C89 1_555 1_555
C90 C87 1_555 1_555
H130 C90 1_555 1_555
H131 C90 1_555 1_555
H132 C90 1_555 1_555
P10 N10 1_555 1_555
P11 N10 1_555 1_555
P12 N11 1_555 1_555
N11 P11 1_555 1_555
N12 P10 1_555 1_555
C91 P10 1_555 1_555
H133 C91 1_555 1_555
H134 C91 1_555 1_555
C92 C91 1_555 1_555
C93 C92 1_555 1_555
C94 P10 1_555 1_555
H135 C94 1_555 1_555
H136 C94 1_555 1_555
C95 C92 1_555 1_555
H137 C95 1_555 1_555
H138 C95 1_555 1_555
H139 C95 1_555 1_555
C96 C93 1_555 1_555
H140 C96 1_555 1_555
H141 C96 1_555 1_555
H142 C96 1_555 1_555
C97 P11 1_555 1_555
H143 C97 1_555 1_555
H144 C97 1_555 1_555
C98 C97 1_555 1_555
C99 C98 1_555 1_555
C100 P11 1_555 1_555
H145 C100 1_555 1_555
H146 C100 1_555 1_555
C101 C98 1_555 1_555
H147 C101 1_555 1_555
H148 C101 1_555 1_555
H149 C101 1_555 1_555
C102 C99 1_555 1_555
H150 C102 1_555 1_555
H151 C102 1_555 1_555
H152 C102 1_555 1_555
C103 P12 1_555 1_555
H153 C103 1_555 1_555
H154 C103 1_555 1_555
C104 C103 1_555 1_555
C105 C104 1_555 1_555
C106 P12 1_555 1_555
H155 C106 1_555 1_555
H156 C106 1_555 1_555
C107 C104 1_555 1_555
H157 C107 1_555 1_555
H158 C107 1_555 1_555
H159 C107 1_555 1_555
C108 C105 1_555 1_555
H160 C108 1_555 1_555
H161 C108 1_555 1_555
H162 C108 1_555 1_555
O10 H163 1_555 1_555
C109 O10 1_555 1_555
C110 C109 1_555 1_555
H164 C110 1_555 1_555
C111 C110 1_555 1_555
H165 C111 1_555 1_555
C112 C111 1_555 1_555
H166 C112 1_555 1_555
C113 C112 1_555 1_555
H167 C113 1_555 1_555
C114 C109 1_555 1_555
H168 C114 1_555 1_555
O13 H172 1_555 1_555
C115 H173 1_555 1_555
C116 O13 1_555 1_555
C117 C116 1_555 1_555
H174 C117 1_555 1_555
C118 C117 1_555 1_555
H175 C118 1_555 1_555
C119 C118 1_555 1_555
H176 C119 1_555 1_555
C120 C115 1_555 1_555
H177 C120 1_555 1_555
O14 H179 1_555 1_555
C121 O14 1_555 1_555
C122 C121 1_555 1_555
H180 C122 1_555 1_555
C123 C122 1_555 1_555
H181 C123 1_555 1_555
C124 C123 1_555 1_555
H182 C124 1_555 1_555
C125 C124 1_555 1_555
H183 C125 1_555 1_555
C126 C121 1_555 1_555
H184 C126 1_555 1_555
O16 H187 1_555 1_555
C127 O16 1_555 1_555
C128 C127 1_555 1_555
H188 C128 1_555 1_555
C129 C128 1_555 1_555
H189 C129 1_555 1_555
C130 C129 1_555 1_555
H190 C130 1_555 1_555
C131 C130 1_555 1_555
H191 C131 1_555 1_555
C132 C127 1_555 1_555
H192 C132 1_555 1_555
O18 H195 1_555 1_555
C133 O18 1_555 1_555
C134 C133 1_555 1_555
H196 C134 1_555 1_555
C135 C134 1_555 1_555
H197 C135 1_555 1_555
C136 C135 1_555 1_555
H198 C136 1_555 1_555
C137 C136 1_555 1_555
H199 C137 1_555 1_555
C138 C133 1_555 1_555
H200 C138 1_555 1_555
O19 H201 1_555 1_555
C139 O19 1_555 1_555
C140 C139 1_555 1_555
H202 C140 1_555 1_555
C141 C140 1_555 1_555
H203 C141 1_555 1_555
C142 C141 1_555 1_555
H204 C142 1_555 1_555
C143 C142 1_555 1_555
H205 C143 1_555 1_555
C144 C139 1_555 1_555
H206 C144 1_555 1_555
P3 N3 1_555 1_555
C3 C4 1_555 1_555
C9 C10 1_555 1_555
C15 C16 1_555 1_555
P6 N6 1_555 1_555
C21 C22 1_555 1_555
C27 C28 1_555 1_555
C33 C34 1_555 1_555
C41 C42 1_555 1_555
C47 C48 1_555 1_555
C53 C54 1_555 1_555
C59 C60 1_555 1_555
C65 C66 1_555 1_555
C71 C72 1_555 1_555
P9 N9 1_555 1_555
C75 C76 1_555 1_555
C81 C82 1_555 1_555
C87 C88 1_555 1_555
P12 N12 1_555 1_555
C93 C94 1_555 1_555
C99 C100 1_555 1_555
C105 C106 1_555 1_555
C113 C114 1_555 1_555
C115 C116 1_555 1_555
C119 C120 1_555 1_555
C125 C126 1_555 1_555
C131 C132 1_555 1_555
C137 C138 1_555 1_555
C143 C144 1_555 1_555

#END
