
#######################################################################
#
#                 Cambridge Crystallographic Data Centre
#                                CCDC 
#
#######################################################################
#
# If this CIF has been generated from an entry in the Cambridge 
# Structural Database, then it will include bibliographic, chemical, 
# crystal, experimental, refinement or atomic coordinate data resulting 
# from the CCDC's data processing and validation procedures.
#
#######################################################################

data_ZUXTAP
_chemical_formula_moiety         'C15 H13 F1 N5 O1 S2'
_chemical_name_systematic        
5-(4-Cyclopropyl-5-((3-fluorobenzyl)sulfinyl)-4H-1,2,4-triazol-3-yl)-4-methyl-1,2,3-thiadiazole
_symmetry_cell_setting           monoclinic
_symmetry_space_group_name_H-M   'P 21/n'
_symmetry_Int_Tables_number      14
_space_group_name_Hall           '-P 2yn'
loop_
_symmetry_equiv_pos_site_id
_symmetry_equiv_pos_as_xyz
1 x,y,z
2 1/2-x,1/2+y,1/2-z
3 -x,-y,-z
4 1/2+x,1/2-y,1/2+z
_cell_length_a                   10.597(2)
_cell_length_b                   13.487(3)
_cell_length_c                   11.261(2)
_cell_angle_alpha                90
_cell_angle_beta                 102.41(3)
_cell_angle_gamma                90
_cell_volume                     1571.84
_cell_formula_units_Z            4
loop_
_atom_site_label
_atom_site_type_symbol
_atom_site_fract_x
_atom_site_fract_y
_atom_site_fract_z
S1 S 1.00752(6) 0.01882(4) 0.83840(5)
S2 S 0.46784(7) 0.18453(5) 0.70233(6)
F1 F 0.5820(2) 0.07872(15) 0.43325(18)
O1 O 1.07269(18) -0.06611(12) 0.90980(13)
N1 N 0.3109(2) 0.17452(17) 0.70317(19)
N2 N 0.2875(2) 0.09323(17) 0.75840(18)
N3 N 0.6507(2) -0.06827(14) 0.81605(18)
N4 N 0.7829(2) -0.08483(14) 0.83255(18)
N5 N 0.7485(2) 0.07677(13) 0.81316(15)
C1 C 0.3759(3) -0.0595(2) 0.8634(2)
H1 H 0.2994 -0.0559 0.8958
H2 H 0.4496 -0.0707 0.9284
H3 H 0.3679 -0.1131 0.8061
C2 C 0.3932(3) 0.03630(19) 0.8006(2)
C3 C 0.5061(3) 0.07557(18) 0.7775(2)
C4 C 0.6327(3) 0.02874(17) 0.80320(19)
C5 C 0.8373(2) 0.00241(17) 0.82904(19)
C6 C 0.7678(2) 0.18236(16) 0.80162(19)
H4 H 0.7465 0.2090 0.7188
C7 C 0.8739(3) 0.23406(18) 0.8883(2)
H5 H 0.9163 0.2891 0.8575
H6 H 0.9297 0.1942 0.9497
C8 C 0.7366(3) 0.24819(17) 0.8992(2)
H7 H 0.6962 0.3116 0.8748
H8 H 0.7095 0.2167 0.9671
C9 C 0.9993(2) -0.01237(17) 0.67863(18)
H9 H 1.0853 -0.0098 0.6620
H10 H 0.9668 -0.0794 0.6630
C10 C 0.9126(2) 0.05827(17) 0.59582(18)
C11 C 0.9573(3) 0.15265(18) 0.5733(2)
H11 H 1.0424 0.1705 0.6063
C12 C 0.8753(3) 0.21916(19) 0.5021(2)
C13 C 0.7471(3) 0.19581(19) 0.4538(2)
H12 H 0.6922 0.2416 0.4073
C14 C 0.7029(3) 0.10244(18) 0.4767(2)
C15 C 0.7838(3) 0.03346(18) 0.54633(18)
H13 H 0.7525 -0.0290 0.5601
F2? F 0.9216(5) 0.2995(3) 0.4749(3)
loop_
_geom_bond_atom_site_label_1
_geom_bond_atom_site_label_2
_geom_bond_site_symmetry_1
_geom_bond_site_symmetry_2
S1 O1 1_555 1_555
S2 N1 1_555 1_555
F1 C14 1_555 1_555
N1 N2 1_555 1_555
N2 C2 1_555 1_555
N3 N4 1_555 1_555
N4 C5 1_555 1_555
N5 C4 1_555 1_555
C1 H1 1_555 1_555
H2 C1 1_555 1_555
H3 C1 1_555 1_555
C2 C1 1_555 1_555
C3 S2 1_555 1_555
C4 N3 1_555 1_555
C5 S1 1_555 1_555
C6 N5 1_555 1_555
H4 C6 1_555 1_555
C7 C6 1_555 1_555
H5 C7 1_555 1_555
H6 C7 1_555 1_555
C8 C6 1_555 1_555
H7 C8 1_555 1_555
H8 C8 1_555 1_555
C9 S1 1_555 1_555
H9 C9 1_555 1_555
H10 C9 1_555 1_555
C10 C9 1_555 1_555
C11 C10 1_555 1_555
H11 C11 1_555 1_555
C12 C11 1_555 1_555
C13 C12 1_555 1_555
H12 C13 1_555 1_555
C14 C13 1_555 1_555
C15 C10 1_555 1_555
H13 C15 1_555 1_555
N5 C5 1_555 1_555
C2 C3 1_555 1_555
C3 C4 1_555 1_555
C7 C8 1_555 1_555
C14 C15 1_555 1_555

#END
