
#######################################################################
#
#                 Cambridge Crystallographic Data Centre
#                                CCDC 
#
#######################################################################
#
# If this CIF has been generated from an entry in the Cambridge 
# Structural Database, then it will include bibliographic, chemical, 
# crystal, experimental, refinement or atomic coordinate data resulting 
# from the CCDC's data processing and validation procedures.
#
#######################################################################

data_ZUYBUS
_chemical_formula_moiety         'C37 H47 Cl1 N2 O8,2(C1 H4 O1)'
_chemical_name_systematic        
'4-(2-isopropyl-5-methylcyclohexyl) 2-methyl 5-(3-chlorophenyl)-1-((5-(methoxycarbonyl)-2-(4-methoxyphenyl)pyrrolidin-3-yl)carbonyl)pyrrolidine-2,4-dicarboxylate methanol solvate'
_symmetry_cell_setting           orthorhombic
_symmetry_space_group_name_H-M   'P 21 21 21'
_symmetry_Int_Tables_number      19
_space_group_name_Hall           'P 2ac 2ab'
loop_
_symmetry_equiv_pos_site_id
_symmetry_equiv_pos_as_xyz
1 x,y,z
2 1/2-x,-y,1/2+z
3 -x,1/2+y,1/2-z
4 1/2+x,1/2-y,-z
_cell_length_a                   10.6843(11)
_cell_length_b                   11.0107(11)
_cell_length_c                   33.664(4)
_cell_angle_alpha                90
_cell_angle_beta                 90
_cell_angle_gamma                90
_cell_volume                     3960.29
_exptl_crystal_colour            colorless
_exptl_crystal_description       block
_cell_formula_units_Z            4
loop_
_atom_site_label
_atom_site_type_symbol
_atom_site_fract_x
_atom_site_fract_y
_atom_site_fract_z
Cl1 Cl 0.05568(6) 0.48764(8) 0.32703(2)
N1 N 0.59695(18) 0.40611(19) 0.39715(6)
N2 N 0.4885(2) 0.3768(2) 0.51731(6)
H1 H 0.5690 0.3592 0.5119
O1 O 0.45747(17) 0.71725(16) 0.33358(5)
O2 O 0.6038(2) 0.6483(2) 0.29123(6)
O3 O 0.90639(17) 0.29717(18) 0.38736(5)
O4 O 0.7403(2) 0.2257(2) 0.35463(7)
O5 O 0.65320(17) 0.27848(18) 0.44592(5)
O6 O 0.4652(2) 0.0536(2) 0.53428(6)
O7 O 0.6223(2) 0.1831(3) 0.54546(7)
O8 O 0.7279(3) 0.8752(2) 0.46027(8)
C1 C 0.5125(2) 0.4953(2) 0.37823(6)
H2 H 0.4649 0.5385 0.3995
C2 C 0.6079(2) 0.5855(2) 0.35965(7)
H3 H 0.6304 0.6469 0.3803
C3 C 0.7240(2) 0.5093(2) 0.35097(7)
H4 H 0.7154 0.4650 0.3255
H5 H 0.8000 0.5606 0.3499
C4 C 0.7291(2) 0.4215(2) 0.38598(7)
H6 H 0.7764 0.4591 0.4085
C5 C 0.4194(2) 0.4402(2) 0.34924(6)
C6 C 0.2956(2) 0.4767(2) 0.35176(7)
H7 H 0.2695 0.5295 0.3725
C7 C 0.2098(2) 0.4358(2) 0.32388(8)
C8 C 0.2440(3) 0.3590(3) 0.29389(8)
H8 H 0.1843 0.3321 0.2749
C9 C 0.3672(3) 0.3211(3) 0.29182(8)
H9 H 0.3922 0.2674 0.2712
C10 C 0.4548(3) 0.3604(2) 0.31934(7)
H10 H 0.5389 0.3329 0.3177
C11 C 0.5579(2) 0.6523(2) 0.32389(7)
C12 C 0.4696(3) 0.9773(3) 0.33943(10)
H11 H 0.5183 0.9179 0.3558
C13 C 0.4255(4) 1.0778(3) 0.36749(10)
H12 H 0.4983 1.1169 0.3797
H13 H 0.3723 1.0426 0.3882
H14 H 0.3776 1.1382 0.3525
C14 C 0.5597(4) 1.0281(4) 0.30767(12)
H15 H 0.6350 1.0599 0.3206
H16 H 0.5182 1.0935 0.2930
H17 H 0.5832 0.9630 0.2892
C15 C 0.1046(3) 0.7182(4) 0.23920(11)
H18 H 0.0665 0.7615 0.2168
H19 H 0.0422 0.7071 0.2602
H20 H 0.1344 0.6386 0.2302
C16 C 0.7888(2) 0.3019(2) 0.37449(7)
C17 C 0.9786(3) 0.1926(3) 0.37442(10)
H21 H 1.0635 0.1978 0.3853
H22 H 0.9825 0.1914 0.3453
H23 H 0.9384 0.1181 0.3839
C18 C 0.5703(2) 0.3396(2) 0.43010(7)
C19 C 0.4425(3) 0.4421(3) 0.48251(7)
H24 H 0.3539 0.4660 0.4880
C20 C 0.4406(2) 0.3472(2) 0.44788(7)
H25 H 0.3766 0.3686 0.4274
C21 C 0.4062(2) 0.2292(3) 0.46967(8)
H26 H 0.4581 0.1607 0.4601
H27 H 0.3169 0.2089 0.4656
C22 C 0.4332(2) 0.2559(3) 0.51456(7)
H28 H 0.3520 0.2559 0.5293
C23 C 0.5194(3) 0.1627(3) 0.53327(8)
C24 C 0.5361(4) -0.0403(4) 0.55447(11)
H29 H 0.4867 -0.1152 0.5554
H30 H 0.5551 -0.0139 0.5816
H31 H 0.6143 -0.0552 0.5401
C25 C 0.5175(3) 0.5590(3) 0.47588(8)
C26 C 0.4583(3) 0.6641(3) 0.46669(9)
H32 H 0.3696 0.6645 0.4648
C27 C 0.5274(3) 0.7774(3) 0.45962(9)
H33 H 0.4866 0.8510 0.4525
C28 C 0.6515(3) 0.7700(3) 0.46384(9)
C29 C 0.7159(3) 0.6672(3) 0.47368(10)
H34 H 0.8043 0.6687 0.4766
C30 C 0.6501(3) 0.5617(3) 0.47923(10)
H35 H 0.6939 0.4891 0.4854
C31 C 0.6769(4) 0.9778(3) 0.44271(11)
H36 H 0.7381 1.0440 0.4434
H37 H 0.6014 1.0021 0.4572
H38 H 0.6550 0.9597 0.4151
C32 C 0.3959(3) 0.7894(2) 0.30245(7)
H39 H 0.4573 0.8067 0.2808
C33 C 0.3566(3) 0.9073(3) 0.32150(8)
H40 H 0.2985 0.8870 0.3438
C34 C 0.2821(3) 0.9813(3) 0.29090(9)
H41 H 0.2505 1.0563 0.3037
H42 H 0.3384 1.0055 0.2689
C35 C 0.1721(3) 0.9102(3) 0.27399(10)
H43 H 0.1116 0.8925 0.2955
H44 H 0.1289 0.9601 0.2537
C36 C 0.2147(3) 0.7917(3) 0.25526(8)
H45 H 0.2716 0.8114 0.2326
C37 C 0.2886(3) 0.7179(3) 0.28580(8)
H46 H 0.2322 0.6933 0.3077
H47 H 0.3211 0.6433 0.2731
O9 O 0.4911(3) 0.5812(4) 0.57655(9)
H48 H 0.4866 0.5263 0.5593
C38 C 0.6145(5) 0.6075(7) 0.58403(18)
H49 H 0.6547 0.5373 0.5966
H50 H 0.6198 0.6777 0.6018
H51 H 0.6572 0.6262 0.5590
O10 O 0.3251(5) 0.7149(4) 0.62352(11)
H52 H 0.3778 0.6898 0.6069
C39 C 0.3527(6) 0.6696(6) 0.65971(16)
H53 H 0.3104 0.7179 0.6802
H54 H 0.4434 0.6731 0.6639
H55 H 0.3244 0.5851 0.6613
loop_
_geom_bond_atom_site_label_1
_geom_bond_atom_site_label_2
_geom_bond_site_symmetry_1
_geom_bond_site_symmetry_2
Cl1 C7 1_555 1_555
N1 C1 1_555 1_555
N2 H1 1_555 1_555
O1 C11 1_555 1_555
O2 C11 1_555 1_555
O3 C16 1_555 1_555
O4 C16 1_555 1_555
O5 C18 1_555 1_555
O6 C23 1_555 1_555
O7 C23 1_555 1_555
O8 C28 1_555 1_555
C1 H2 1_555 1_555
C2 C1 1_555 1_555
H3 C2 1_555 1_555
C3 C2 1_555 1_555
H4 C3 1_555 1_555
H5 C3 1_555 1_555
C4 N1 1_555 1_555
H6 C4 1_555 1_555
C5 C1 1_555 1_555
C6 C5 1_555 1_555
H7 C6 1_555 1_555
C7 C6 1_555 1_555
C8 C7 1_555 1_555
H8 C8 1_555 1_555
C9 C8 1_555 1_555
H9 C9 1_555 1_555
C10 C5 1_555 1_555
H10 C10 1_555 1_555
C11 C2 1_555 1_555
C12 H11 1_555 1_555
C13 C12 1_555 1_555
H12 C13 1_555 1_555
H13 C13 1_555 1_555
H14 C13 1_555 1_555
C14 C12 1_555 1_555
H15 C14 1_555 1_555
H16 C14 1_555 1_555
H17 C14 1_555 1_555
C15 H18 1_555 1_555
H19 C15 1_555 1_555
H20 C15 1_555 1_555
C16 C4 1_555 1_555
C17 O3 1_555 1_555
H21 C17 1_555 1_555
H22 C17 1_555 1_555
H23 C17 1_555 1_555
C18 N1 1_555 1_555
C19 N2 1_555 1_555
H24 C19 1_555 1_555
C20 C18 1_555 1_555
H25 C20 1_555 1_555
C21 C20 1_555 1_555
H26 C21 1_555 1_555
H27 C21 1_555 1_555
C22 N2 1_555 1_555
H28 C22 1_555 1_555
C23 C22 1_555 1_555
C24 O6 1_555 1_555
H29 C24 1_555 1_555
H30 C24 1_555 1_555
H31 C24 1_555 1_555
C25 C19 1_555 1_555
C26 C25 1_555 1_555
H32 C26 1_555 1_555
C27 C26 1_555 1_555
H33 C27 1_555 1_555
C28 C27 1_555 1_555
C29 C28 1_555 1_555
H34 C29 1_555 1_555
C30 C25 1_555 1_555
H35 C30 1_555 1_555
C31 O8 1_555 1_555
H36 C31 1_555 1_555
H37 C31 1_555 1_555
H38 C31 1_555 1_555
C32 O1 1_555 1_555
H39 C32 1_555 1_555
C33 C12 1_555 1_555
H40 C33 1_555 1_555
C34 C33 1_555 1_555
H41 C34 1_555 1_555
H42 C34 1_555 1_555
C35 C34 1_555 1_555
H43 C35 1_555 1_555
H44 C35 1_555 1_555
C36 C15 1_555 1_555
H45 C36 1_555 1_555
C37 C32 1_555 1_555
H46 C37 1_555 1_555
H47 C37 1_555 1_555
O9 H48 1_555 1_555
C38 O9 1_555 1_555
H49 C38 1_555 1_555
H50 C38 1_555 1_555
H51 C38 1_555 1_555
O10 H52 1_555 1_555
C39 O10 1_555 1_555
H53 C39 1_555 1_555
H54 C39 1_555 1_555
H55 C39 1_555 1_555
C3 C4 1_555 1_555
C9 C10 1_555 1_555
C19 C20 1_555 1_555
C21 C22 1_555 1_555
C29 C30 1_555 1_555
C32 C33 1_555 1_555
C35 C36 1_555 1_555
C36 C37 1_555 1_555

#END
