
#######################################################################
#
#                 Cambridge Crystallographic Data Centre
#                                CCDC 
#
#######################################################################
#
# If this CIF has been generated from an entry in the Cambridge 
# Structural Database, then it will include bibliographic, chemical, 
# crystal, experimental, refinement or atomic coordinate data resulting 
# from the CCDC's data processing and validation procedures.
#
#######################################################################

data_ZUYFIK
_chemical_formula_moiety         'C24 H36 O4'
_chemical_name_systematic        
'methyl 6-methyl-2-oxo-4-(1,2,4a-trimethyl-5-methylenedecahydronaphthalen-1-yl)-3-oxabicyclo[4.2.0]octane-8-carboxylate'
_symmetry_cell_setting           monoclinic
_symmetry_space_group_name_H-M   'C 2'
_symmetry_Int_Tables_number      5
_space_group_name_Hall           'C 2y'
loop_
_symmetry_equiv_pos_site_id
_symmetry_equiv_pos_as_xyz
1 x,y,z
2 -x,y,-z
3 1/2+x,1/2+y,z
4 1/2-x,1/2+y,-z
_cell_length_a                   31.775(5)
_cell_length_b                   7.2610(11)
_cell_length_c                   19.184(3)
_cell_angle_alpha                90
_cell_angle_beta                 104.026(2)
_cell_angle_gamma                90
_cell_volume                     4294.14
_exptl_crystal_colour            colorless
_exptl_crystal_description       piece
_cell_formula_units_Z            8
loop_
_atom_site_label
_atom_site_type_symbol
_atom_site_fract_x
_atom_site_fract_y
_atom_site_fract_z
O1 O -0.01231(8) 1.1037(4) 0.07427(14)
O2 O -0.04554(9) 0.8345(4) 0.04998(19)
O3 O 0.06601(9) 1.0619(3) 0.25759(12)
O4 O 0.07577(7) 0.8058(3) 0.32101(10)
C1 C 0.21978(10) 0.1237(5) 0.38458(17)
H1 H 0.2438 0.1059 0.3639
H2 H 0.2028 0.0213 0.3922
C2 C 0.20991(9) 0.2915(4) 0.40278(15)
C3 C 0.17083(9) 0.3387(4) 0.43354(14)
C4 C 0.14144(9) 0.4735(4) 0.37802(14)
H3 H 0.1348 0.4057 0.3313
C5 C 0.09611(9) 0.5210(4) 0.39235(14)
C6 C 0.06598(9) 0.6071(4) 0.32372(14)
H4 H 0.0355 0.5964 0.3289
C7 C 0.06697(9) 0.5239(4) 0.25088(14)
H5 H 0.0661 0.3878 0.2532
H6 H 0.0939 0.5606 0.2372
C8 C 0.02710(9) 0.5966(4) 0.19558(15)
C9 C 0.03356(10) 0.6357(4) 0.11874(15)
H7 H 0.0630 0.6050 0.1136
H8 H 0.0112 0.5779 0.0799
C10 C 0.02647(9) 0.8425(5) 0.12711(14)
H9 H 0.0528 0.9168 0.1262
C11 C -0.01414(10) 0.9216(5) 0.07904(15)
C12 C -0.05123(13) 1.1934(6) 0.0321(2)
H10 H -0.0585 1.1428 -0.0167
H11 H -0.0460 1.3261 0.0301
H12 H -0.0754 1.1717 0.0547
C13 C 0.02167(9) 0.8074(4) 0.20563(14)
H13 H -0.0082 0.8383 0.2105
C14 C 0.05616(10) 0.9028(4) 0.26255(15)
C15 C 0.09877(10) 0.6588(4) 0.45435(15)
H14 H 0.1175 0.7622 0.4487
H15 H 0.1109 0.5971 0.5003
H16 H 0.0697 0.7048 0.4535
C16 C 0.16752(9) 0.6448(4) 0.36557(16)
H17 H 0.1487 0.7256 0.3295
H18 H 0.1765 0.7148 0.4110
C17 C 0.20776(10) 0.5928(5) 0.33943(17)
H19 H 0.2246 0.7054 0.3356
H20 H 0.1987 0.5370 0.2910
C18 C 0.23661(10) 0.4561(5) 0.39093(17)
H21 H 0.2607 0.4149 0.3703
H22 H 0.2492 0.5172 0.4374
C19 C 0.14397(10) 0.1658(4) 0.43967(16)
H23 H 0.1371 0.1003 0.3930
H24 H 0.1615 0.0821 0.4761
C20 C 0.10188(10) 0.2121(4) 0.46056(16)
H25 H 0.1088 0.2723 0.5083
H26 H 0.0860 0.0967 0.4645
C21 C 0.07255(9) 0.3399(4) 0.40578(14)
H27 H 0.0647 0.2718 0.3591
C22 C 0.03006(11) 0.3694(5) 0.43003(18)
H28 H 0.0162 0.2501 0.4332
H29 H 0.0104 0.4475 0.3950
H30 H 0.0366 0.4294 0.4772
C23 C 0.18881(11) 0.4198(5) 0.50955(15)
H31 H 0.2123 0.3415 0.5363
H32 H 0.1656 0.4250 0.5350
H33 H 0.1999 0.5443 0.5055
C24 C -0.01356(10) 0.4854(5) 0.19601(18)
H34 H -0.0092 0.3569 0.1838
H35 H -0.0383 0.5368 0.1606
H36 H -0.0193 0.4911 0.2439
O5 O 0.34820(9) 0.5280(4) -0.13099(13)
O6 O 0.29837(6) 0.3336(3) 0.07579(11)
O7 O 0.34861(12) 0.2482(5) -0.18103(14)
O8 O 0.27113(7) 0.4660(3) -0.02816(12)
C25 C 0.34045(15) 0.6111(7) -0.2016(2)
H37 H 0.3667 0.6015 -0.2195
H38 H 0.3328 0.7411 -0.1985
H39 H 0.3166 0.5468 -0.2345
C26 C 0.35034(10) 0.3436(6) -0.12883(17)
C27 C 0.35532(10) 0.2729(5) -0.05338(16)
H40 H 0.3700 0.3670 -0.0176
C28 C 0.31334(10) 0.1979(5) -0.03305(15)
H41 H 0.2925 0.1462 -0.0762
C29 C 0.29165(9) 0.3408(4) 0.00352(15)
C30 C 0.31804(9) 0.1707(4) 0.11616(15)
H42 H 0.2962 0.0691 0.1049
C31 C 0.32584(9) 0.2136(4) 0.19815(15)
C32 C 0.36905(8) 0.3249(4) 0.22551(14)
H43 H 0.3912 0.2554 0.2068
C33 C 0.38817(9) 0.3332(4) 0.30924(14)
C34 C 0.43285(10) 0.4246(4) 0.32235(15)
C35 C 0.46918(10) 0.3525(5) 0.36325(17)
H44 H 0.4958 0.4173 0.3698
H45 H 0.4684 0.2365 0.3858
C36 C 0.34180(9) 0.0422(4) 0.01098(15)
C37 C 0.32406(10) -0.1517(5) 0.00560(18)
H46 H 0.3478 -0.2385 0.0241
H47 H 0.3106 -0.1805 -0.0448
H48 H 0.3024 -0.1618 0.0340
C38 C 0.37583(10) 0.0809(4) -0.03358(16)
H49 H 0.4061 0.0855 -0.0043
H50 H 0.3733 -0.0021 -0.0754
C39 C 0.35718(9) 0.1107(4) 0.08852(14)
H51 H 0.3730 0.0111 0.1193
H52 H 0.3773 0.2159 0.0905
C40 C 0.32946(9) 0.0217(4) 0.23585(15)
H53 H 0.3505 -0.0525 0.2164
C41 C 0.28708(11) -0.0904(5) 0.22209(18)
H54 H 0.2930 -0.2119 0.2445
H55 H 0.2753 -0.1050 0.1702
H56 H 0.2659 -0.0254 0.2428
C42 C 0.34796(10) 0.0350(5) 0.31727(16)
H57 H 0.3270 0.1008 0.3389
H58 H 0.3517 -0.0907 0.3378
C43 C 0.39149(10) 0.1355(5) 0.33712(15)
H59 H 0.4023 0.1368 0.3901
H60 H 0.4128 0.0674 0.3169
C44 C 0.36802(9) 0.5183(4) 0.19173(16)
H61 H 0.3560 0.5094 0.1392
H62 H 0.3487 0.5993 0.2116
C45 C 0.41307(9) 0.6026(4) 0.20667(16)
H63 H 0.4110 0.7292 0.1870
H64 H 0.4313 0.5295 0.1818
C46 C 0.43464(11) 0.6089(5) 0.28694(18)
H65 H 0.4653 0.6468 0.2938
H66 H 0.4199 0.7021 0.3102
C47 C 0.36148(11) 0.4503(5) 0.35071(17)
H67 H 0.3350 0.3839 0.3528
H68 H 0.3538 0.5681 0.3260
H69 H 0.3788 0.4730 0.3996
C48 C 0.28498(9) 0.3170(4) 0.20891(16)
H70 H 0.2589 0.2625 0.1777
H71 H 0.2868 0.4472 0.1966
H72 H 0.2835 0.3063 0.2592
loop_
_geom_bond_atom_site_label_1
_geom_bond_atom_site_label_2
_geom_bond_site_symmetry_1
_geom_bond_site_symmetry_2
O1 C11 1_555 1_555
O2 C11 1_555 1_555
O3 C14 1_555 1_555
O4 C6 1_555 1_555
C1 H1 1_555 1_555
H2 C1 1_555 1_555
C2 C1 1_555 1_555
C3 C2 1_555 1_555
C4 C3 1_555 1_555
H3 C4 1_555 1_555
C5 C4 1_555 1_555
C6 C5 1_555 1_555
H4 C6 1_555 1_555
C7 C6 1_555 1_555
H5 C7 1_555 1_555
H6 C7 1_555 1_555
C8 C7 1_555 1_555
C9 C8 1_555 1_555
H7 C9 1_555 1_555
H8 C9 1_555 1_555
C10 C9 1_555 1_555
H9 C10 1_555 1_555
C11 C10 1_555 1_555
C12 O1 1_555 1_555
H10 C12 1_555 1_555
H11 C12 1_555 1_555
H12 C12 1_555 1_555
C13 C8 1_555 1_555
H13 C13 1_555 1_555
C14 O4 1_555 1_555
C15 C5 1_555 1_555
H14 C15 1_555 1_555
H15 C15 1_555 1_555
H16 C15 1_555 1_555
C16 C4 1_555 1_555
H17 C16 1_555 1_555
H18 C16 1_555 1_555
C17 C16 1_555 1_555
H19 C17 1_555 1_555
H20 C17 1_555 1_555
C18 C2 1_555 1_555
H21 C18 1_555 1_555
H22 C18 1_555 1_555
C19 C3 1_555 1_555
H23 C19 1_555 1_555
H24 C19 1_555 1_555
C20 C19 1_555 1_555
H25 C20 1_555 1_555
H26 C20 1_555 1_555
C21 C5 1_555 1_555
H27 C21 1_555 1_555
C22 C21 1_555 1_555
H28 C22 1_555 1_555
H29 C22 1_555 1_555
H30 C22 1_555 1_555
C23 C3 1_555 1_555
H31 C23 1_555 1_555
H32 C23 1_555 1_555
H33 C23 1_555 1_555
C24 C8 1_555 1_555
H34 C24 1_555 1_555
H35 C24 1_555 1_555
H36 C24 1_555 1_555
O5 C25 1_555 1_555
O6 C29 1_555 1_555
O7 C26 1_555 1_555
O8 C29 1_555 1_555
C25 H37 1_555 1_555
H38 C25 1_555 1_555
H39 C25 1_555 1_555
C26 O5 1_555 1_555
C27 C26 1_555 1_555
H40 C27 1_555 1_555
C28 C27 1_555 1_555
H41 C28 1_555 1_555
C29 C28 1_555 1_555
C30 O6 1_555 1_555
H42 C30 1_555 1_555
C31 C30 1_555 1_555
C32 C31 1_555 1_555
H43 C32 1_555 1_555
C33 C32 1_555 1_555
C34 C33 1_555 1_555
C35 C34 1_555 1_555
H44 C35 1_555 1_555
H45 C35 1_555 1_555
C36 C28 1_555 1_555
C37 C36 1_555 1_555
H46 C37 1_555 1_555
H47 C37 1_555 1_555
H48 C37 1_555 1_555
C38 C27 1_555 1_555
H49 C38 1_555 1_555
H50 C38 1_555 1_555
C39 C30 1_555 1_555
H51 C39 1_555 1_555
H52 C39 1_555 1_555
C40 C31 1_555 1_555
H53 C40 1_555 1_555
C41 C40 1_555 1_555
H54 C41 1_555 1_555
H55 C41 1_555 1_555
H56 C41 1_555 1_555
C42 C40 1_555 1_555
H57 C42 1_555 1_555
H58 C42 1_555 1_555
C43 C33 1_555 1_555
H59 C43 1_555 1_555
H60 C43 1_555 1_555
C44 C32 1_555 1_555
H61 C44 1_555 1_555
H62 C44 1_555 1_555
C45 C44 1_555 1_555
H63 C45 1_555 1_555
H64 C45 1_555 1_555
C46 C34 1_555 1_555
H65 C46 1_555 1_555
H66 C46 1_555 1_555
C47 C33 1_555 1_555
H67 C47 1_555 1_555
H68 C47 1_555 1_555
H69 C47 1_555 1_555
C48 C31 1_555 1_555
H70 C48 1_555 1_555
H71 C48 1_555 1_555
H72 C48 1_555 1_555
C10 C13 1_555 1_555
C13 C14 1_555 1_555
C17 C18 1_555 1_555
C20 C21 1_555 1_555
C36 C38 1_555 1_555
C36 C39 1_555 1_555
C42 C43 1_555 1_555
C45 C46 1_555 1_555

#END
