
#######################################################################
#
#                 Cambridge Crystallographic Data Centre
#                                CCDC 
#
#######################################################################
#
# If this CIF has been generated from an entry in the Cambridge 
# Structural Database, then it will include bibliographic, chemical, 
# crystal, experimental, refinement or atomic coordinate data resulting 
# from the CCDC's data processing and validation procedures.
#
#######################################################################

data_ZUYHEI
_chemical_formula_moiety         'C62 H72 N4 O13'
_chemical_name_systematic        
'4-(2-isopropyl-5-methylcyclohexyl) 2-methyl 1-((5-(methoxycarbonyl)-1-((5-(methoxycarbonyl)-1-((5-(methoxycarbonyl)-2-phenylpyrrolidin-3-yl)carbonyl)-2-phenylpyrrolidin-3-yl)carbonyl)-2-phenylpyrrolidin-3-yl)carbonyl)-5-phenylpyrrolidine-2,4-dicarboxylate unknown solvate'
_symmetry_cell_setting           orthorhombic
_symmetry_space_group_name_H-M   'P 21 21 21'
_symmetry_Int_Tables_number      19
_space_group_name_Hall           'P 2ac 2ab'
loop_
_symmetry_equiv_pos_site_id
_symmetry_equiv_pos_as_xyz
1 x,y,z
2 1/2-x,-y,1/2+z
3 -x,1/2+y,1/2-z
4 1/2+x,1/2-y,-z
_cell_length_a                   11.6415(2)
_cell_length_b                   18.4064(3)
_cell_length_c                   30.1665(5)
_cell_angle_alpha                90
_cell_angle_beta                 90
_cell_angle_gamma                90
_cell_volume                     6464.02
_exptl_crystal_colour            colorless
_exptl_crystal_description       block
_cell_formula_units_Z            4
loop_
_atom_site_label
_atom_site_type_symbol
_atom_site_fract_x
_atom_site_fract_y
_atom_site_fract_z
N1 N 0.21106(14) 0.54652(10) 0.14519(6)
N2 N 0.38831(14) 0.40719(10) 0.25611(6)
N3 N 0.76840(14) 0.47840(10) 0.27724(6)
N4 N 0.98332(16) 0.63714(12) 0.21973(7)
H1 H 1.020(2) 0.5980(17) 0.2278(9)
O1 O -0.01202(13) 0.62892(9) 0.04749(5)
O2 O 0.05301(14) 0.73949(10) 0.06777(5)
O3 O 0.37873(12) 0.67936(9) 0.20640(5)
O4 O 0.44285(12) 0.58834(9) 0.16329(5)
O5 O 0.16763(13) 0.42681(9) 0.14528(6)
O6 O 0.21364(12) 0.34287(9) 0.34159(5)
O7 O 0.26664(12) 0.27534(9) 0.28310(5)
O8 O 0.47155(12) 0.37362(9) 0.31959(5)
O9 O 0.87435(12) 0.41882(9) 0.35054(5)
O10 O 0.96469(13) 0.33777(9) 0.30699(5)
O11 O 0.95256(11) 0.51308(9) 0.28096(5)
O12 O 1.1230(2) 0.74711(12) 0.30155(8)
O13 O 1.17298(14) 0.63807(10) 0.27594(6)
C1 C 0.14450(18) 0.55789(13) 0.10413(7)
H2 H 0.0791 0.5226 0.1038
C2 C 0.09575(17) 0.63471(13) 0.11229(7)
H3 H 0.0315 0.6288 0.1340
C3 C 0.19177(18) 0.67453(13) 0.13704(7)
H4 H 0.1614 0.7164 0.1540
H5 H 0.2519 0.6918 0.1164
C4 C 0.23832(17) 0.61502(13) 0.16817(7)
H6 H 0.1950 0.6168 0.1968
C5 C 0.21310(19) 0.54824(14) 0.06177(8)
C6 C 0.1616(2) 0.51323(18) 0.02614(9)
H7 H 0.0876 0.4923 0.0296
C7 C 0.2170(3) 0.5085(3) -0.01446(12)
H8 H 0.1796 0.4862 -0.0389
C8 C 0.3259(3) 0.5361(3) -0.01932(12)
H9 H 0.3655 0.5310 -0.0467
C9 C 0.3767(3) 0.5710(2) 0.01541(11)
H10 H 0.4506 0.5921 0.0117
C10 C 0.3219(2) 0.57588(18) 0.05580(10)
H11 H 0.3599 0.5987 0.0799
C11 C 0.04653(18) 0.67473(15) 0.07337(7)
C12 C -0.2258(2) 0.56084(15) 0.02913(8)
H12 H -0.1738 0.5435 0.0533
C13 C -0.2922(3) 0.49478(17) 0.01229(10)
H13 H -0.2387 0.4605 -0.0016
H14 H -0.3494 0.5104 -0.0095
H15 H -0.3309 0.4710 0.0372
C14 C -0.3077(2) 0.61643(17) 0.04980(9)
H16 H -0.3626 0.5914 0.0691
H17 H -0.3493 0.6420 0.0263
H18 H -0.2635 0.6515 0.0673
C15 C 0.0083(2) 0.74585(16) -0.10143(8)
H19 H 0.0459 0.7898 -0.0902
H20 H -0.0387 0.7582 -0.1273
H21 H 0.0668 0.7102 -0.1100
C16 C 0.36609(18) 0.62423(13) 0.17775(7)
C17 C 0.49514(19) 0.69687(15) 0.21926(9)
H22 H 0.4938 0.7281 0.2456
H23 H 0.5335 0.7224 0.1949
H24 H 0.5369 0.6520 0.2260
C18 C 0.21001(17) 0.47974(13) 0.16408(7)
C19 C 0.38415(17) 0.43525(13) 0.21060(7)
H25 H 0.4437 0.4740 0.2072
C20 C 0.26215(17) 0.47139(13) 0.21009(8)
H26 H 0.2672 0.5203 0.2244
C21 C 0.19210(18) 0.42065(13) 0.24013(7)
H27 H 0.1213 0.4447 0.2509
H28 H 0.1712 0.3752 0.2245
C22 C 0.27555(17) 0.40578(13) 0.27823(8)
H29 H 0.2710 0.4460 0.3005
C23 C 0.25334(17) 0.33368(15) 0.30080(8)
C24 C 0.1799(2) 0.27719(14) 0.36452(8)
H30 H 0.1628 0.2886 0.3956
H31 H 0.2427 0.2418 0.3632
H32 H 0.1115 0.2567 0.3504
C25 C 0.40310(18) 0.37795(14) 0.17519(8)
C26 C 0.4294(2) 0.40023(15) 0.13205(8)
H33 H 0.4346 0.4506 0.1254
C27 C 0.4479(3) 0.34952(18) 0.09919(9)
H34 H 0.4664 0.3650 0.0700
C28 C 0.4397(3) 0.27563(18) 0.10859(10)
H35 H 0.4537 0.2407 0.0860
C29 C 0.4112(2) 0.25340(16) 0.15067(9)
H36 H 0.4045 0.2030 0.1571
C30 C 0.3922(2) 0.30431(14) 0.18381(9)
H37 H 0.3714 0.2885 0.2127
C31 C 0.48242(17) 0.39437(12) 0.28145(7)
C32 C 0.80455(17) 0.40223(12) 0.27722(8)
H38 H 0.8366 0.3896 0.2474
C33 C 0.69174(17) 0.36120(13) 0.28422(8)
H39 H 0.6750 0.3554 0.3162
H40 H 0.6948 0.3126 0.2703
C34 C 0.60096(18) 0.40900(13) 0.26178(8)
H41 H 0.6002 0.3999 0.2291
C35 C 0.64342(17) 0.48844(13) 0.27159(7)
H42 H 0.6297 0.5190 0.2447
C36 C 0.58573(18) 0.52444(13) 0.31120(8)
C37 C 0.6323(2) 0.52404(14) 0.35320(8)
H43 H 0.7061 0.5033 0.3578
C38 C 0.5730(2) 0.55346(15) 0.38886(9)
H44 H 0.6069 0.5542 0.4175
C39 C 0.4627(2) 0.58203(15) 0.38231(10)
H45 H 0.4204 0.6008 0.4067
C40 C 0.4160(2) 0.58285(15) 0.34036(10)
H46 H 0.3416 0.6026 0.3358
C41 C 0.47707(19) 0.55498(13) 0.30476(9)
H47 H 0.4449 0.5566 0.2758
C42 C 0.89208(17) 0.38323(13) 0.31275(8)
C43 C 0.96163(19) 0.40788(15) 0.38385(8)
H48 H 0.9487 0.4414 0.4086
H49 H 1.0375 0.4170 0.3709
H50 H 0.9580 0.3577 0.3947
C44 C -0.0757(2) 0.65742(14) 0.00938(7)
H51 H -0.1271 0.6976 0.0196
C45 C -0.1495(2) 0.59430(14) -0.00699(8)
H52 H -0.0955 0.5553 -0.0170
C46 C -0.2167(2) 0.61919(16) -0.04803(8)
H53 H -0.2580 0.5770 -0.0607
H54 H -0.2749 0.6554 -0.0388
C47 C -0.1414(2) 0.65224(15) -0.08356(8)
H55 H -0.1904 0.6710 -0.1078
H56 H -0.0909 0.6141 -0.0961
C48 C -0.0678(2) 0.71389(15) -0.06549(8)
H57 H -0.1201 0.7530 -0.0545
C49 C 0.0035(2) 0.68600(14) -0.02605(8)
H58 H 0.0557 0.6468 -0.0361
H59 H 0.0509 0.7260 -0.0139
C50 C 0.85126(18) 0.53006(13) 0.27618(7)
C51 C 0.86078(18) 0.61910(13) 0.21551(8)
H60 H 0.8207 0.6631 0.2037
C52 C 0.81912(19) 0.60744(13) 0.26465(8)
H61 H 0.7348 0.6162 0.2679
C53 C 0.8906(2) 0.66341(14) 0.29059(8)
H62 H 0.9245 0.6412 0.3175
H63 H 0.8426 0.7054 0.2995
C54 C 0.9865(2) 0.68745(14) 0.25739(8)
H64 H 0.9695 0.7377 0.2466
C55 C 1.1039(2) 0.68651(15) 0.27866(8)
C56 C 1.2327(3) 0.7504(2) 0.32458(14)
H65 H 1.2930 0.7300 0.3056
H66 H 1.2280 0.7222 0.3521
H67 H 1.2511 0.8010 0.3315
C57 C 0.83490(18) 0.55699(14) 0.18460(8)
C58 C 0.72683(19) 0.55316(16) 0.16515(8)
H68 H 0.6733 0.5913 0.1699
C59 C 0.6961(2) 0.49454(16) 0.13891(9)
H69 H 0.6215 0.4925 0.1262
C60 C 0.7735(2) 0.43900(16) 0.13116(9)
H70 H 0.7522 0.3988 0.1132
C61 C 0.8822(2) 0.44220(15) 0.14965(9)
H71 H 0.9362 0.4045 0.1441
C62 C 0.91200(19) 0.50098(14) 0.17637(8)
H72 H 0.9864 0.5028 0.1892
loop_
_geom_bond_atom_site_label_1
_geom_bond_atom_site_label_2
_geom_bond_site_symmetry_1
_geom_bond_site_symmetry_2
N1 C1 1_555 1_555
N2 C19 1_555 1_555
N3 C32 1_555 1_555
N4 H1 1_555 1_555
O1 C11 1_555 1_555
O2 C11 1_555 1_555
O3 C16 1_555 1_555
O4 C16 1_555 1_555
O5 C18 1_555 1_555
O6 C23 1_555 1_555
O7 C23 1_555 1_555
O8 C31 1_555 1_555
O9 C42 1_555 1_555
O10 C42 1_555 1_555
O11 C50 1_555 1_555
O12 C55 1_555 1_555
O13 C55 1_555 1_555
C1 H2 1_555 1_555
C2 C1 1_555 1_555
H3 C2 1_555 1_555
C3 C2 1_555 1_555
H4 C3 1_555 1_555
H5 C3 1_555 1_555
C4 N1 1_555 1_555
H6 C4 1_555 1_555
C5 C1 1_555 1_555
C6 C5 1_555 1_555
H7 C6 1_555 1_555
C7 C6 1_555 1_555
H8 C7 1_555 1_555
C8 C7 1_555 1_555
H9 C8 1_555 1_555
C9 C8 1_555 1_555
H10 C9 1_555 1_555
C10 C5 1_555 1_555
H11 C10 1_555 1_555
C11 C2 1_555 1_555
C12 H12 1_555 1_555
C13 C12 1_555 1_555
H13 C13 1_555 1_555
H14 C13 1_555 1_555
H15 C13 1_555 1_555
C14 C12 1_555 1_555
H16 C14 1_555 1_555
H17 C14 1_555 1_555
H18 C14 1_555 1_555
C15 H19 1_555 1_555
H20 C15 1_555 1_555
H21 C15 1_555 1_555
C16 C4 1_555 1_555
C17 O3 1_555 1_555
H22 C17 1_555 1_555
H23 C17 1_555 1_555
H24 C17 1_555 1_555
C18 N1 1_555 1_555
C19 H25 1_555 1_555
C20 C18 1_555 1_555
H26 C20 1_555 1_555
C21 C20 1_555 1_555
H27 C21 1_555 1_555
H28 C21 1_555 1_555
C22 N2 1_555 1_555
H29 C22 1_555 1_555
C23 C22 1_555 1_555
C24 O6 1_555 1_555
H30 C24 1_555 1_555
H31 C24 1_555 1_555
H32 C24 1_555 1_555
C25 C19 1_555 1_555
C26 C25 1_555 1_555
H33 C26 1_555 1_555
C27 C26 1_555 1_555
H34 C27 1_555 1_555
C28 C27 1_555 1_555
H35 C28 1_555 1_555
C29 C28 1_555 1_555
H36 C29 1_555 1_555
C30 C25 1_555 1_555
H37 C30 1_555 1_555
C31 N2 1_555 1_555
C32 H38 1_555 1_555
C33 C32 1_555 1_555
H39 C33 1_555 1_555
H40 C33 1_555 1_555
C34 C31 1_555 1_555
H41 C34 1_555 1_555
C35 N3 1_555 1_555
H42 C35 1_555 1_555
C36 C35 1_555 1_555
C37 C36 1_555 1_555
H43 C37 1_555 1_555
C38 C37 1_555 1_555
H44 C38 1_555 1_555
C39 C38 1_555 1_555
H45 C39 1_555 1_555
C40 C39 1_555 1_555
H46 C40 1_555 1_555
C41 C36 1_555 1_555
H47 C41 1_555 1_555
C42 C32 1_555 1_555
C43 O9 1_555 1_555
H48 C43 1_555 1_555
H49 C43 1_555 1_555
H50 C43 1_555 1_555
C44 O1 1_555 1_555
H51 C44 1_555 1_555
C45 C12 1_555 1_555
H52 C45 1_555 1_555
C46 C45 1_555 1_555
H53 C46 1_555 1_555
H54 C46 1_555 1_555
C47 C46 1_555 1_555
H55 C47 1_555 1_555
H56 C47 1_555 1_555
C48 C15 1_555 1_555
H57 C48 1_555 1_555
C49 C44 1_555 1_555
H58 C49 1_555 1_555
H59 C49 1_555 1_555
C50 N3 1_555 1_555
C51 N4 1_555 1_555
H60 C51 1_555 1_555
C52 C50 1_555 1_555
H61 C52 1_555 1_555
C53 C52 1_555 1_555
H62 C53 1_555 1_555
H63 C53 1_555 1_555
C54 N4 1_555 1_555
H64 C54 1_555 1_555
C55 C54 1_555 1_555
C56 O12 1_555 1_555
H65 C56 1_555 1_555
H66 C56 1_555 1_555
H67 C56 1_555 1_555
C57 C51 1_555 1_555
C58 C57 1_555 1_555
H68 C58 1_555 1_555
C59 C58 1_555 1_555
H69 C59 1_555 1_555
C60 C59 1_555 1_555
H70 C60 1_555 1_555
C61 C60 1_555 1_555
H71 C61 1_555 1_555
C62 C57 1_555 1_555
H72 C62 1_555 1_555
C3 C4 1_555 1_555
C9 C10 1_555 1_555
C19 C20 1_555 1_555
C21 C22 1_555 1_555
C29 C30 1_555 1_555
C33 C34 1_555 1_555
C34 C35 1_555 1_555
C40 C41 1_555 1_555
C44 C45 1_555 1_555
C47 C48 1_555 1_555
C48 C49 1_555 1_555
C51 C52 1_555 1_555
C53 C54 1_555 1_555
C61 C62 1_555 1_555

#END
