
#######################################################################
#
#                 Cambridge Crystallographic Data Centre
#                                CCDC 
#
#######################################################################
#
# If this CIF has been generated from an entry in the Cambridge 
# Structural Database, then it will include bibliographic, chemical, 
# crystal, experimental, refinement or atomic coordinate data resulting 
# from the CCDC's data processing and validation procedures.
#
#######################################################################

data_ZUYJEK
_chemical_name_common            'Berberine acesulfame'
_chemical_formula_moiety         'C20 H18 N1 O4 1+,C4 H4 N1 O4 S1 1-'
_chemical_name_systematic        
'9,10-dimethoxy-5,6-dihydro[1,3]dioxolo[4,5-g]isoquinolino[3,2-a]isoquinolin-7-ium 6-methyl-4-oxo-4H-1,2,3-oxathiazin-3-ide 2,2-dioxide'
_symmetry_cell_setting           triclinic
_symmetry_space_group_name_H-M   'P -1'
_symmetry_Int_Tables_number      2
_space_group_name_Hall           '-P 1'
loop_
_symmetry_equiv_pos_site_id
_symmetry_equiv_pos_as_xyz
1 x,y,z
2 -x,-y,-z
_cell_length_a                   7.2795(11)
_cell_length_b                   11.6050(17)
_cell_length_c                   13.0243(19)
_cell_angle_alpha                89.342(2)
_cell_angle_beta                 85.187(2)
_cell_angle_gamma                86.489(2)
_cell_volume                     1094.31
_exptl_crystal_colour            'light yellow'
_exptl_crystal_description       Needles
_cell_formula_units_Z            2
loop_
_atom_site_label
_atom_site_type_symbol
_atom_site_fract_x
_atom_site_fract_y
_atom_site_fract_z
S1 S 0.03704(6) 0.56432(4) 0.78055(3)
O1 O -0.02384(17) 0.55009(11) 0.66305(9)
N1 N -0.0714(2) 0.67506(13) 0.82530(12)
O2 O 0.22944(18) 0.58171(12) 0.76442(11)
O3 O -0.34782(19) 0.77456(13) 0.84792(12)
O4 O -0.0104(2) 0.45959(11) 0.83200(11)
C1 C -0.2487(3) 0.69772(15) 0.80230(15)
C2 C -0.2106(2) 0.56981(15) 0.65134(14)
C3 C -0.2643(3) 0.51202(16) 0.55813(14)
H1 H -0.3968 0.5276 0.5521
H2 H -0.2370 0.4286 0.5639
H3 H -0.1946 0.5417 0.4969
C4 C -0.3176(3) 0.63578(16) 0.71691(15)
H4 H -0.444(3) 0.6513(17) 0.7086(15)
N2 N 0.29653(19) 0.80011(11) 0.98473(11)
O5 O 0.20007(18) 0.90665(11) 0.69109(9)
O6 O 0.52612(19) 0.72901(11) 1.44704(9)
O7 O 0.09528(18) 1.13448(11) 0.65252(9)
O8 O 0.40713(19) 0.91728(11) 1.43256(9)
C5 C 0.4996(2) 0.67585(15) 1.26608(14)
C6 C 0.3107(2) 0.87756(14) 1.06405(13)
C7 C 0.2712(2) 0.99222(15) 1.04484(13)
C8 C 0.3670(2) 0.83218(14) 1.16343(13)
C9 C 0.1776(2) 0.98748(15) 0.76766(13)
C10 C 0.2585(2) 0.83445(15) 0.89083(13)
C11 C 0.2192(2) 0.95089(14) 0.86755(13)
C12 C 0.4396(2) 0.71855(14) 1.17211(13)
C13 C 0.1207(2) 1.18221(15) 0.83265(14)
C14 C 0.1657(2) 1.14847(15) 0.92893(14)
C15 C 0.2186(2) 1.03194(14) 0.94834(13)
C16 C 0.1287(2) 1.10266(15) 0.75084(13)
C17 C 0.4617(3) 0.64384(16) 1.07780(14)
C18 C 0.4133(2) 0.86342(15) 1.33869(13)
C19 C 0.3542(2) 0.90723(15) 1.24903(13)
C20 C 0.3113(3) 0.67398(14) 1.00731(15)
C21 C 0.4842(2) 0.75070(15) 1.34730(13)
C22 C 0.0292(3) 1.25166(16) 0.63602(15)
H5 H 0.0107 1.2636 0.5629
H6 H 0.1201 1.3040 0.6565
H7 H -0.0882 1.2674 0.6774
C23 C 0.5138(3) 0.84064(17) 1.49534(15)
C24 C 0.0424(3) 0.88679(18) 0.63639(16)
H8 H 0.0759 0.8275 0.5840
H9 H 0.0005 0.9587 0.6030
H10 H -0.0571 0.8606 0.6848
H11 H 0.331(3) 0.6362(16) 0.9423(15)
H12 H 0.188(3) 0.6531(16) 1.0391(14)
H13 H 0.251(2) 0.7734(16) 0.8432(14)
H14 H 0.554(3) 0.5981(17) 1.2694(14)
H15 H 0.282(3) 1.0492(17) 1.0954(15)
H16 H 0.088(3) 1.2579(18) 0.8200(15)
H17 H 0.455(3) 0.5657(19) 1.0966(16)
H18 H 0.578(3) 0.6500(16) 1.0411(15)
H19 H 0.163(3) 1.2015(16) 0.9812(15)
H20 H 0.302(3) 0.9830(16) 1.2474(14)
H21 H 0.640(3) 0.8682(15) 1.4940(13)
H22 H 0.449(3) 0.8330(18) 1.5660(17)
loop_
_geom_bond_atom_site_label_1
_geom_bond_atom_site_label_2
_geom_bond_site_symmetry_1
_geom_bond_site_symmetry_2
S1 O1 1_555 1_555
O1 C2 1_555 1_555
N1 S1 1_555 1_555
O2 S1 1_555 1_555
O3 C1 1_555 1_555
O4 S1 1_555 1_555
C1 N1 1_555 1_555
C2 C3 1_555 1_555
C3 H1 1_555 1_555
H2 C3 1_555 1_555
H3 C3 1_555 1_555
C4 C1 1_555 1_555
H4 C4 1_555 1_555
N2 C6 1_555 1_555
O5 C9 1_555 1_555
O6 C21 1_555 1_555
O7 C16 1_555 1_555
O8 C18 1_555 1_555
C5 C12 1_555 1_555
C6 C7 1_555 1_555
C7 C15 1_555 1_555
C8 C6 1_555 1_555
C9 C11 1_555 1_555
C10 N2 1_555 1_555
C11 C10 1_555 1_555
C12 C8 1_555 1_555
C13 C14 1_555 1_555
C14 C15 1_555 1_555
C15 C11 1_555 1_555
C16 C9 1_555 1_555
C17 C12 1_555 1_555
C18 C19 1_555 1_555
C19 C8 1_555 1_555
C20 N2 1_555 1_555
C21 C5 1_555 1_555
C22 O7 1_555 1_555
H5 C22 1_555 1_555
H6 C22 1_555 1_555
H7 C22 1_555 1_555
C23 O6 1_555 1_555
C24 O5 1_555 1_555
H8 C24 1_555 1_555
H9 C24 1_555 1_555
H10 C24 1_555 1_555
H11 C20 1_555 1_555
H12 C20 1_555 1_555
H13 C10 1_555 1_555
H14 C5 1_555 1_555
H15 C7 1_555 1_555
H16 C13 1_555 1_555
H17 C17 1_555 1_555
H18 C17 1_555 1_555
H19 C14 1_555 1_555
H20 C19 1_555 1_555
H21 C23 1_555 1_555
H22 C23 1_555 1_555
C2 C4 1_555 1_555
O8 C23 1_555 1_555
C13 C16 1_555 1_555
C17 C20 1_555 1_555
C18 C21 1_555 1_555

#END
