
#######################################################################
#
#                 Cambridge Crystallographic Data Centre
#                                CCDC 
#
#######################################################################
#
# If this CIF has been generated from an entry in the Cambridge 
# Structural Database, then it will include bibliographic, chemical, 
# crystal, experimental, refinement or atomic coordinate data resulting 
# from the CCDC's data processing and validation procedures.
#
#######################################################################

data_ZUYJIO
_chemical_name_common            'Berberine saccharine'
_chemical_formula_moiety         'C20 H18 N1 O4 1+,C7 H4 N1 O3 S1 1-'
_chemical_name_systematic        
'9,10-dimethoxy-5,6-dihydro[1,3]dioxolo[4,5-g]isoquinolino[3,2-a]isoquinolin-7-ium 3-oxo-3H-1,2-benzothiazol-2-ide 1,1-dioxide'
_symmetry_cell_setting           triclinic
_symmetry_space_group_name_H-M   'P -1'
_symmetry_Int_Tables_number      2
_space_group_name_Hall           '-P 1'
loop_
_symmetry_equiv_pos_site_id
_symmetry_equiv_pos_as_xyz
1 x,y,z
2 -x,-y,-z
_cell_length_a                   7.4875(14)
_cell_length_b                   11.738(2)
_cell_length_c                   13.421(3)
_cell_angle_alpha                79.454(2)
_cell_angle_beta                 82.240(2)
_cell_angle_gamma                81.218(2)
_cell_volume                     1139.05
_exptl_crystal_colour            'light yellow'
_exptl_crystal_description       Needles
_cell_formula_units_Z            2
loop_
_atom_site_label
_atom_site_type_symbol
_atom_site_fract_x
_atom_site_fract_y
_atom_site_fract_z
S1 S 0.39604(7) 0.03227(4) 0.21440(4)
O1 O 0.04565(19) 0.28398(12) 0.17977(12)
O2 O 0.58549(19) 0.04821(12) 0.20818(11)
O3 O 0.3674(2) -0.07916(12) 0.19276(11)
N1 N 0.2818(2) 0.13983(14) 0.14907(13)
C1 C 0.3223(3) -0.00740(18) 0.43219(15)
C2 C 0.2888(2) 0.05289(16) 0.33643(14)
C3 C 0.1616(2) 0.15098(16) 0.32192(15)
C4 C 0.0623(3) 0.19307(19) 0.40519(17)
C5 C 0.1557(3) 0.19906(17) 0.21003(16)
C6 C 0.0937(3) 0.1334(2) 0.50217(17)
C7 C 0.2213(3) 0.0347(2) 0.51565(17)
H1 H 0.024(3) 0.1604(19) 0.5623(17)
H2 H -0.030(3) 0.2654(19) 0.3938(16)
H3 H 0.415(3) -0.074(2) 0.4403(16)
H4 H 0.238(3) -0.002(2) 0.584(2)
O4 O 0.38064(17) 0.56362(11) 0.33777(10)
O5 O 1.28337(18) 0.29868(12) -0.40466(10)
N2 N 0.76754(19) 0.29441(12) 0.01637(11)
O6 O 0.45254(17) 0.34806(11) 0.28802(10)
O7 O 1.14405(19) 0.48879(12) -0.40087(10)
C8 C 0.4762(2) 0.55290(16) 0.24527(13)
C9 C 0.8343(2) 0.38523(15) -0.05322(13)
C10 C 0.6336(2) 0.63280(16) 0.08373(14)
C11 C 0.6240(2) 0.42257(15) 0.13026(13)
C12 C 0.9480(2) 0.35675(15) -0.14608(13)
C13 C 0.6689(2) 0.31118(16) 0.10334(14)
C14 C 0.5188(2) 0.44115(15) 0.22312(13)
C15 C 0.5319(2) 0.64882(16) 0.17385(14)
C16 C 0.6846(2) 0.51932(15) 0.05988(13)
C17 C 1.1454(2) 0.21363(17) -0.23568(14)
C18 C 0.9790(2) 0.44805(16) -0.22920(14)
C19 C 1.0920(2) 0.41718(16) -0.31147(14)
C20 C 1.0291(2) 0.24201(16) -0.14999(13)
C21 C 0.7925(2) 0.49641(16) -0.03056(14)
C22 C 0.3029(3) 0.67875(17) 0.35586(16)
C23 C 0.9926(3) 0.14932(17) -0.05897(15)
C24 C 0.8003(3) 0.17438(16) -0.01017(15)
C25 C 1.1743(2) 0.30371(16) -0.31450(14)
C26 C 1.2503(3) 0.41258(19) -0.46445(16)
C27 C 0.5756(3) 0.2854(2) 0.35784(17)
H5 H 0.626(2) 0.2426(17) 0.1447(14)
H6 H 1.203(3) 0.1344(18) -0.2365(15)
H7 H 0.776(3) 0.1226(18) 0.0524(17)
H8 H 0.839(3) 0.5630(18) -0.0768(15)
H9 H 0.498(3) 0.7274(19) 0.1874(15)
H10 H 0.667(3) 0.7009(18) 0.0349(15)
H11 H 0.404(3) 0.7230(19) 0.3618(16)
H12 H 0.716(3) 0.1750(17) -0.0580(16)
H13 H 0.224(3) 0.7184(18) 0.3043(16)
H14 H 1.186(3) 0.4073(19) -0.5192(18)
H15 H 0.927(3) 0.5279(18) -0.2295(15)
H16 H 1.080(3) 0.1457(19) -0.0113(17)
H17 H 1.004(3) 0.070(2) -0.0804(16)
H18 H 0.224(3) 0.6633(19) 0.4221(18)
H19 H 1.366(3) 0.443(2) -0.4891(18)
H20 H 0.681(3) 0.248(2) 0.3242(18)
H21 H 0.612(3) 0.339(2) 0.3987(19)
H22 H 0.506(3) 0.226(2) 0.404(2)
loop_
_geom_bond_atom_site_label_1
_geom_bond_atom_site_label_2
_geom_bond_site_symmetry_1
_geom_bond_site_symmetry_2
S1 O2 1_555 1_555
O1 C5 1_555 1_555
O3 S1 1_555 1_555
N1 S1 1_555 1_555
C1 C2 1_555 1_555
C2 S1 1_555 1_555
C3 C2 1_555 1_555
C4 C3 1_555 1_555
C5 N1 1_555 1_555
C6 C4 1_555 1_555
C7 C1 1_555 1_555
H1 C6 1_555 1_555
H2 C4 1_555 1_555
H3 C1 1_555 1_555
H4 C7 1_555 1_555
O4 C8 1_555 1_555
O5 C25 1_555 1_555
N2 C9 1_555 1_555
O6 C14 1_555 1_555
O7 C19 1_555 1_555
C8 C14 1_555 1_555
C9 C12 1_555 1_555
C10 C15 1_555 1_555
C11 C13 1_555 1_555
C12 C18 1_555 1_555
C13 N2 1_555 1_555
C14 C11 1_555 1_555
C15 C8 1_555 1_555
C16 C10 1_555 1_555
C17 C20 1_555 1_555
C18 C19 1_555 1_555
C19 C25 1_555 1_555
C20 C12 1_555 1_555
C21 C9 1_555 1_555
C22 O4 1_555 1_555
C23 C20 1_555 1_555
C24 N2 1_555 1_555
C25 C17 1_555 1_555
C26 O5 1_555 1_555
C27 O6 1_555 1_555
H5 C13 1_555 1_555
H6 C17 1_555 1_555
H7 C24 1_555 1_555
H8 C21 1_555 1_555
H9 C15 1_555 1_555
H10 C10 1_555 1_555
H11 C22 1_555 1_555
H12 C24 1_555 1_555
H13 C22 1_555 1_555
H14 C26 1_555 1_555
H15 C18 1_555 1_555
H16 C23 1_555 1_555
H17 C23 1_555 1_555
H18 C22 1_555 1_555
H19 C26 1_555 1_555
H20 C27 1_555 1_555
H21 C27 1_555 1_555
H22 C27 1_555 1_555
C3 C5 1_555 1_555
C6 C7 1_555 1_555
O7 C26 1_555 1_555
C11 C16 1_555 1_555
C16 C21 1_555 1_555
C23 C24 1_555 1_555

#END
