
#######################################################################
#
#                 Cambridge Crystallographic Data Centre
#                                CCDC 
#
#######################################################################
#
# If this CIF has been generated from an entry in the Cambridge 
# Structural Database, then it will include bibliographic, chemical, 
# crystal, experimental, refinement or atomic coordinate data resulting 
# from the CCDC's data processing and validation procedures.
#
#######################################################################

data_ZUYKOV
_chemical_formula_moiety         'C14 H15 Cl1 O5,0.5(H2 O1)'
_chemical_name_systematic        
'5-chloro-7,8-dihydroxy-7-methyl-3-(3-oxobut-1-en-1-yl)-1,7,8,8a-tetrahydro-6H-isochromen-6-one hemihydrate'
_symmetry_cell_setting           orthorhombic
_symmetry_space_group_name_H-M   'P 21 21 21'
_symmetry_Int_Tables_number      19
_space_group_name_Hall           'P 2ac 2ab'
loop_
_symmetry_equiv_pos_site_id
_symmetry_equiv_pos_as_xyz
1 x,y,z
2 1/2-x,-y,1/2+z
3 -x,1/2+y,1/2-z
4 1/2+x,1/2-y,-z
_cell_length_a                   7.7241(4)
_cell_length_b                   16.3543(7)
_cell_length_c                   22.3393(9)
_cell_angle_alpha                90
_cell_angle_beta                 90
_cell_angle_gamma                90
_cell_volume                     2821.95
_exptl_crystal_colour            'light colorless'
_exptl_crystal_description       block
_cell_formula_units_Z            8
loop_
_atom_site_label
_atom_site_type_symbol
_atom_site_fract_x
_atom_site_fract_y
_atom_site_fract_z
Cl1 Cl 0.85103(17) 0.38774(6) 0.70900(5)
O1 O 0.9966(4) 0.08011(15) 0.65413(11)
O2 O 1.0850(4) 0.1727(2) 0.82318(13)
H1 H 1.1053 0.1745 0.8592
O3 O 0.8292(5) 0.2298(2) 0.90161(13)
O4 O 0.7844(5) 0.36065(18) 0.83395(13)
O5 O 1.1557(6) 0.1571(2) 0.44414(14)
C1 C 0.8896(5) 0.2250(2) 0.71492(16)
C2 C 0.9847(5) 0.1532(2) 0.62556(16)
C3 C 0.8814(5) 0.1431(2) 0.74607(15)
H2 H 0.7657 0.1202 0.7395
C4 C 0.8489(5) 0.2937(2) 0.74465(16)
C5 C 1.0334(6) 0.1506(2) 0.56274(16)
H3 H 1.0153 0.1979 0.5406
C6 C 0.8062(5) 0.2964(2) 0.80822(18)
C7 C 0.9097(5) 0.1509(2) 0.81409(17)
H4 H 0.8879 0.0978 0.8329
C8 C 0.9371(5) 0.2224(2) 0.65316(17)
H5 H 0.9349 0.2707 0.6312
C9 C 0.7861(5) 0.2144(2) 0.84092(17)
C10 C 1.0117(6) 0.0852(2) 0.71855(16)
H6 H 1.1276 0.1034 0.7288
H7 H 0.9956 0.0311 0.7355
C11 C 1.1005(5) 0.0877(2) 0.53419(17)
H8 H 1.1160 0.0388 0.5548
C12 C 1.1522(7) 0.0922(3) 0.47028(18)
C13 C 0.5991(6) 0.1874(3) 0.8377(2)
H9 H 0.5853 0.1369 0.8591
H10 H 0.5667 0.1796 0.7966
H11 H 0.5265 0.2285 0.8553
C14 C 1.1980(8) 0.0146(3) 0.4401(2)
H12 H 1.0959 -0.0183 0.4354
H13 H 1.2814 -0.0144 0.4638
H14 H 1.2464 0.0263 0.4014
H15 H 0.802(18) 0.198(7) 0.918(6)
Cl2 Cl 0.34478(18) 0.62498(6) 1.04052(5)
O6 O 0.6273(4) 0.41648(16) 0.93555(12)
H16 H 0.6965 0.3942 0.9130
O7 O 0.5632(4) 0.61387(16) 0.81481(11)
O8 O 0.3575(5) 0.32635(16) 0.97879(13)
H17 H 0.4557 0.3259 0.9927
O9 O 0.2820(5) 0.45060(19) 1.05298(13)
O10 O 0.7241(5) 0.8796(2) 0.72041(14)
C15 C 0.5805(5) 0.5315(2) 0.83823(17)
H18 H 0.6905 0.5267 0.8589
H19 H 0.5813 0.4931 0.8051
C16 C 0.4634(5) 0.4230(2) 0.90663(16)
H20 H 0.4573 0.3829 0.8741
C17 C 0.4236(5) 0.5727(2) 0.92973(16)
C18 C 0.5313(5) 0.6714(2) 0.85686(17)
C19 C 0.4688(5) 0.6541(2) 0.91170(17)
H21 H 0.4544 0.6966 0.9389
C20 C 0.5663(5) 0.7552(2) 0.83815(18)
H22 H 0.5319 0.7966 0.8641
C21 C 0.6425(5) 0.7781(2) 0.78771(17)
H23 H 0.6804 0.7374 0.7617
C22 C 0.4362(5) 0.5088(2) 0.88088(15)
H24 H 0.3271 0.5090 0.8585
C23 C 0.3663(6) 0.5521(2) 0.98444(16)
C24 C 0.3236(6) 0.4041(2) 0.95259(17)
C25 C 0.6710(6) 0.8641(2) 0.77013(18)
C26 C 0.3217(6) 0.4688(2) 1.00210(17)
C27 C 0.6341(8) 0.9316(3) 0.8132(2)
H25 H 0.7083 0.9263 0.8475
H26 H 0.5154 0.9286 0.8258
H27 H 0.6549 0.9833 0.7942
C28 C 0.1444(6) 0.3987(3) 0.9244(2)
H28 H 0.1467 0.3603 0.8919
H29 H 0.1111 0.4515 0.9096
H30 H 0.0623 0.3809 0.9539
O11 O 0.1800(5) 0.1855(2) 0.94935(17)
H31 H 0.2325 0.2304 0.9556
H32 H 0.2231 0.1484 0.9714
loop_
_geom_bond_atom_site_label_1
_geom_bond_atom_site_label_2
_geom_bond_site_symmetry_1
_geom_bond_site_symmetry_2
Cl1 C4 1_555 1_555
O1 C2 1_555 1_555
O2 H1 1_555 1_555
O3 C9 1_555 1_555
O4 C6 1_555 1_555
O5 C12 1_555 1_555
C1 C3 1_555 1_555
C2 C5 1_555 1_555
C3 H2 1_555 1_555
C4 C1 1_555 1_555
C5 H3 1_555 1_555
C6 C4 1_555 1_555
C7 O2 1_555 1_555
H4 C7 1_555 1_555
C8 C1 1_555 1_555
H5 C8 1_555 1_555
C9 C6 1_555 1_555
C10 O1 1_555 1_555
H6 C10 1_555 1_555
H7 C10 1_555 1_555
C11 C5 1_555 1_555
H8 C11 1_555 1_555
C12 C11 1_555 1_555
C13 C9 1_555 1_555
H9 C13 1_555 1_555
H10 C13 1_555 1_555
H11 C13 1_555 1_555
C14 C12 1_555 1_555
H12 C14 1_555 1_555
H13 C14 1_555 1_555
H14 C14 1_555 1_555
H15 O3 1_555 1_555
Cl2 C23 1_555 1_555
O6 H16 1_555 1_555
O7 C15 1_555 1_555
O8 H17 1_555 1_555
O9 C26 1_555 1_555
O10 C25 1_555 1_555
C15 H18 1_555 1_555
H19 C15 1_555 1_555
C16 O6 1_555 1_555
H20 C16 1_555 1_555
C17 C19 1_555 1_555
C18 O7 1_555 1_555
C19 C18 1_555 1_555
H21 C19 1_555 1_555
C20 C18 1_555 1_555
H22 C20 1_555 1_555
C21 C20 1_555 1_555
H23 C21 1_555 1_555
C22 C15 1_555 1_555
H24 C22 1_555 1_555
C23 C17 1_555 1_555
C24 O8 1_555 1_555
C25 C21 1_555 1_555
C26 C23 1_555 1_555
C27 C25 1_555 1_555
H25 C27 1_555 1_555
H26 C27 1_555 1_555
H27 C27 1_555 1_555
C28 C24 1_555 1_555
H28 C28 1_555 1_555
H29 C28 1_555 1_555
H30 C28 1_555 1_555
O11 H31 1_555 1_555
H32 O11 1_555 1_555
C2 C8 1_555 1_555
C3 C7 1_555 1_555
C3 C10 1_555 1_555
C7 C9 1_555 1_555
C16 C22 1_555 1_555
C16 C24 1_555 1_555
C17 C22 1_555 1_555
C24 C26 1_555 1_555

#END
