
#######################################################################
#
#                 Cambridge Crystallographic Data Centre
#                                CCDC 
#
#######################################################################
#
# If this CIF has been generated from an entry in the Cambridge 
# Structural Database, then it will include bibliographic, chemical, 
# crystal, experimental, refinement or atomic coordinate data resulting 
# from the CCDC's data processing and validation procedures.
#
#######################################################################

data_ZUYMUD
_chemical_formula_moiety         'C27 H21 N1'
_chemical_name_systematic        4-ethyl-2,6-bis(2-naphthyl)pyridine
_symmetry_cell_setting           monoclinic
_symmetry_space_group_name_H-M   'P 21/n'
_symmetry_Int_Tables_number      14
_space_group_name_Hall           '-P 2yn'
loop_
_symmetry_equiv_pos_site_id
_symmetry_equiv_pos_as_xyz
1 x,y,z
2 1/2-x,1/2+y,1/2-z
3 -x,-y,-z
4 1/2+x,1/2-y,1/2+z
_cell_length_a                   9.829(2)
_cell_length_b                   17.878(4)
_cell_length_c                   11.147(2)
_cell_angle_alpha                90
_cell_angle_beta                 102.800(4)
_cell_angle_gamma                90
_cell_volume                     1910.11
_cell_formula_units_Z            4
loop_
_atom_site_label
_atom_site_type_symbol
_atom_site_fract_x
_atom_site_fract_y
_atom_site_fract_z
C1 C 0.0370(3) -0.10971(15) 1.0251(3)
H1 H 0.0306 -0.0766 1.0914
H2 H 0.0018 -0.1581 1.0402
H3 H -0.0172 -0.0900 0.9493
C2 C 0.1874(2) -0.11670(12) 1.0163(2)
H4 H 0.1924 -0.1476 0.9459
H5 H 0.2395 -0.1416 1.0895
C3 C 0.2544(2) -0.04193(11) 1.0035(2)
C4 C 0.3369(2) -0.00651(11) 1.1039(2)
H6 H 0.3498 -0.0283 1.1813
C5 C 0.4008(2) 0.06148(11) 1.0902(2)
C6 C 0.3026(2) 0.06181(11) 0.8830(2)
C7 C 0.2387(2) -0.00638(11) 0.8917(2)
H7 H 0.1847 -0.0283 0.8214
C8 C 0.2924(2) 0.09907(11) 0.7624(2)
C9 C 0.4047(2) 0.14388(11) 0.7420(2)
H8 H 0.4797 0.1537 0.8072
C10 C 0.4047(2) 0.17275(12) 0.6288(2)
H9 H 0.4805 0.2010 0.6177
C11 C 0.2912(2) 0.16042(11) 0.5279(2)
C12 C 0.2896(3) 0.18707(13) 0.4083(2)
H10 H 0.3665 0.2129 0.3939
C13 C 0.1779(3) 0.17564(15) 0.3143(2)
H11 H 0.1792 0.1934 0.2361
C14 C 0.0604(3) 0.13730(16) 0.3339(2)
H12 H -0.0172 0.1312 0.2695
C15 C 0.0596(2) 0.10897(14) 0.4470(2)
H13 H -0.0178 0.0824 0.4584
C16 C 0.1751(2) 0.11927(11) 0.5481(2)
C17 C 0.1799(2) 0.08885(11) 0.6657(2)
H14 H 0.1044 0.0610 0.6783
C18 C 0.4965(2) 0.09840(11) 1.19664(19)
C19 C 0.5424(2) 0.06303(11) 1.30709(19)
H15 H 0.5133 0.0142 1.3158
C20 C 0.6325(2) 0.09776(11) 1.40864(19)
C21 C 0.6833(2) 0.05979(13) 1.5209(2)
H16 H 0.6586 0.0102 1.5295
C22 C 0.7681(2) 0.09562(14) 1.6161(2)
H17 H 0.8015 0.0701 1.6894
C23 C 0.8061(2) 0.17050(14) 1.6056(2)
H18 H 0.8625 0.1945 1.6725
C24 C 0.7610(2) 0.20819(13) 1.4982(2)
H19 H 0.7874 0.2577 1.4920
C25 C 0.6745(2) 0.17275(11) 1.3962(2)
C26 C 0.6294(2) 0.20787(12) 1.2805(2)
H20 H 0.6581 0.2565 1.2699
C27 C 0.5451(2) 0.17202(11) 1.1844(2)
H21 H 0.5187 0.1964 1.1091
N1 N 0.38362(17) 0.09556(9) 0.98101(16)
loop_
_geom_bond_atom_site_label_1
_geom_bond_atom_site_label_2
_geom_bond_site_symmetry_1
_geom_bond_site_symmetry_2
C1 H1 1_555 1_555
H2 C1 1_555 1_555
H3 C1 1_555 1_555
C2 C1 1_555 1_555
H4 C2 1_555 1_555
H5 C2 1_555 1_555
C3 C2 1_555 1_555
C4 C3 1_555 1_555
H6 C4 1_555 1_555
C5 C4 1_555 1_555
C6 C7 1_555 1_555
C7 C3 1_555 1_555
H7 C7 1_555 1_555
C8 C6 1_555 1_555
C9 C8 1_555 1_555
H8 C9 1_555 1_555
C10 C9 1_555 1_555
H9 C10 1_555 1_555
C11 C10 1_555 1_555
C12 C11 1_555 1_555
H10 C12 1_555 1_555
C13 C12 1_555 1_555
H11 C13 1_555 1_555
C14 C13 1_555 1_555
H12 C14 1_555 1_555
C15 C14 1_555 1_555
H13 C15 1_555 1_555
C16 C11 1_555 1_555
C17 C8 1_555 1_555
H14 C17 1_555 1_555
C18 C5 1_555 1_555
C19 C18 1_555 1_555
H15 C19 1_555 1_555
C20 C19 1_555 1_555
C21 C20 1_555 1_555
H16 C21 1_555 1_555
C22 C21 1_555 1_555
H17 C22 1_555 1_555
C23 C22 1_555 1_555
H18 C23 1_555 1_555
C24 C23 1_555 1_555
H19 C24 1_555 1_555
C25 C20 1_555 1_555
C26 C25 1_555 1_555
H20 C26 1_555 1_555
C27 C18 1_555 1_555
H21 C27 1_555 1_555
N1 C5 1_555 1_555
C6 N1 1_555 1_555
C15 C16 1_555 1_555
C16 C17 1_555 1_555
C24 C25 1_555 1_555
C26 C27 1_555 1_555

#END
