
#######################################################################
#
#                 Cambridge Crystallographic Data Centre
#                                CCDC 
#
#######################################################################
#
# If this CIF has been generated from an entry in the Cambridge 
# Structural Database, then it will include bibliographic, chemical, 
# crystal, experimental, refinement or atomic coordinate data resulting 
# from the CCDC's data processing and validation procedures.
#
#######################################################################

data_ZUYPIU
_chemical_formula_moiety         'C23 H21 N1 O1'
_chemical_name_systematic        
1-ethyl-6-methyl-4-phenyl-3,6-dihydro-1H-furo[3,4-c]carbazole
_symmetry_cell_setting           monoclinic
_symmetry_space_group_name_H-M   'P 21/c'
_symmetry_Int_Tables_number      14
_space_group_name_Hall           '-P 2ybc'
loop_
_symmetry_equiv_pos_site_id
_symmetry_equiv_pos_as_xyz
1 x,y,z
2 -x,1/2+y,1/2-z
3 -x,-y,-z
4 x,1/2-y,1/2+z
_cell_length_a                   12.2975(8)
_cell_length_b                   14.2131(9)
_cell_length_c                   10.3046(7)
_cell_angle_alpha                90
_cell_angle_beta                 107.610(5)
_cell_angle_gamma                90
_cell_volume                     1716.69
_exptl_crystal_colour            colorless
_exptl_crystal_description       prism
_cell_formula_units_Z            4
loop_
_atom_site_label
_atom_site_type_symbol
_atom_site_fract_x
_atom_site_fract_y
_atom_site_fract_z
O1 O 0.86420(8) 0.40610(6) 0.96219(8)
N1 N 0.91673(9) 0.39670(7) 0.41177(10)
C1 C 1.07695(11) 0.35640(8) 0.77848(12)
C2 C 0.80429(11) 0.42578(9) 0.37104(12)
C3 C 0.97756(11) 0.37413(9) 0.97206(12)
C4 C 0.87736(11) 0.39937(8) 0.74224(12)
C5 C 0.85868(11) 0.40586(9) 0.60171(12)
C6 C 0.65272(11) 0.46428(10) 0.46795(13)
C7 C 0.95187(11) 0.38572(9) 0.55200(12)
C8 C 1.24308(11) 0.37789(10) 0.98979(13)
C9 C 1.24815(12) 0.25058(10) 0.83833(14)
C10 C 1.19052(11) 0.32752(9) 0.87050(12)
C11 C 0.79330(11) 0.40402(9) 0.82197(12)
C12 C 0.98494(11) 0.38236(10) 0.32054(13)
C13 C 0.62610(12) 0.47953(11) 0.22549(13)
C14 C 0.76386(11) 0.43251(9) 0.48536(12)
C15 C 0.73543(12) 0.44799(10) 0.23939(13)
C16 C 1.05959(11) 0.36047(9) 0.63812(12)
C17 C 0.98464(11) 0.37758(8) 0.82859(12)
C18 C 1.34984(12) 0.35148(11) 1.07353(14)
C19 C 0.71421(12) 0.31847(10) 0.79513(13)
C20 C 0.63613(13) 0.31455(12) 0.88504(14)
C21 C 0.58507(12) 0.48791(11) 0.33782(14)
C22 C 1.40585(12) 0.27470(12) 1.04113(15)
C23 C 1.35477(13) 0.22431(11) 0.92319(15)
H1 H 0.9895 0.31051 1.0076
H2 H 1.03442 0.41498 1.03135
H3 H 0.62472 0.46947 0.54198
H4 H 1.20616 0.42938 1.01303
H5 H 1.21477 0.21655 0.7592
H6 H 0.74831 0.46198 0.79984
H7 H 1.06014 0.36223 0.37197
H8 H 0.9499 0.33511 0.25458
H9 H 0.98989 0.44028 0.27472
H10 H 0.57866 0.49556 0.13947
H11 H 0.76211 0.44179 0.16446
H12 H 1.11876 0.3466 0.60247
H13 H 1.38414 0.38569 1.15222
H14 H 0.66764 0.31925 0.70051
H15 H 0.76029 0.2618 0.80959
H16 H 0.58899 0.25943 0.86309
H17 H 0.68147 0.31212 0.97892
H18 H 0.58874 0.36962 0.86975
H19 H 0.51125 0.50968 0.32503
H20 H 1.47717 0.25704 1.09803
H21 H 1.39205 0.17272 0.90081
loop_
_geom_bond_atom_site_label_1
_geom_bond_atom_site_label_2
_geom_bond_site_symmetry_1
_geom_bond_site_symmetry_2
O1 C3 1_555 1_555
N1 C2 1_555 1_555
C1 C10 1_555 1_555
C2 C14 1_555 1_555
C3 C17 1_555 1_555
C4 C5 1_555 1_555
C5 C7 1_555 1_555
C6 C14 1_555 1_555
C7 N1 1_555 1_555
C8 C10 1_555 1_555
C9 C10 1_555 1_555
C11 O1 1_555 1_555
C12 N1 1_555 1_555
C13 C15 1_555 1_555
C14 C5 1_555 1_555
C15 C2 1_555 1_555
C16 C1 1_555 1_555
C17 C1 1_555 1_555
C18 C8 1_555 1_555
C19 C11 1_555 1_555
C20 C19 1_555 1_555
C21 C6 1_555 1_555
C22 C18 1_555 1_555
C23 C9 1_555 1_555
H1 C3 1_555 1_555
H2 C3 1_555 1_555
H3 C6 1_555 1_555
H4 C8 1_555 1_555
H5 C9 1_555 1_555
H6 C11 1_555 1_555
H7 C12 1_555 1_555
H8 C12 1_555 1_555
H9 C12 1_555 1_555
H10 C13 1_555 1_555
H11 C15 1_555 1_555
H12 C16 1_555 1_555
H13 C18 1_555 1_555
H14 C19 1_555 1_555
H15 C19 1_555 1_555
H16 C20 1_555 1_555
H17 C20 1_555 1_555
H18 C20 1_555 1_555
H19 C21 1_555 1_555
H20 C22 1_555 1_555
H21 C23 1_555 1_555
C4 C11 1_555 1_555
C4 C17 1_555 1_555
C7 C16 1_555 1_555
C13 C21 1_555 1_555
C22 C23 1_555 1_555

#END
