
#######################################################################
#
#                 Cambridge Crystallographic Data Centre
#                                CCDC 
#
#######################################################################
#
# If this CIF has been generated from an entry in the Cambridge 
# Structural Database, then it will include bibliographic, chemical, 
# crystal, experimental, refinement or atomic coordinate data resulting 
# from the CCDC's data processing and validation procedures.
#
#######################################################################

data_ZUYQAN
_chemical_formula_moiety         'C36 H42 N6 O6,3(C1 H1 Cl3)'
_chemical_name_systematic        
'5,12,20,27,32,39-hexaazoniaheptacyclo[14.14.10.1^3,29^.1^14,18^.0^6,11^.0^21,26^.0^33,38^]dotetraconta-1,3(41),4,12,14(42),15,17,19,27,29,31,39-dodecaene-2,15,17,30,41,42-hexolate chloroform solvate'
_symmetry_cell_setting           monoclinic
_symmetry_space_group_name_H-M   'C 2'
_symmetry_Int_Tables_number      5
_space_group_name_Hall           'C 2y'
loop_
_symmetry_equiv_pos_site_id
_symmetry_equiv_pos_as_xyz
1 x,y,z
2 -x,y,-z
3 1/2+x,1/2+y,z
4 1/2-x,1/2+y,-z
_cell_length_a                   19.470(3)
_cell_length_b                   24.1563(14)
_cell_length_c                   13.2943(17)
_cell_angle_alpha                90
_cell_angle_beta                 131.46(2)
_cell_angle_gamma                90
_cell_volume                     4685.82
_exptl_crystal_colour            colorless
_exptl_crystal_description       parallelepiped
_cell_formula_units_Z            4
loop_
_atom_site_label
_atom_site_type_symbol
_atom_site_fract_x
_atom_site_fract_y
_atom_site_fract_z
O1 O 0.1272(3) 0.5460(2) 0.0896(4)
O2 O 0.4058(3) 0.4418(2) 0.3691(5)
O3 O 0.1551(3) 0.39263(19) 0.3311(4)
O4 O 0.1496(3) 0.6129(3) 0.3709(5)
O5 O 0.4611(3) 0.57293(19) 0.5845(5)
O6 O 0.2926(3) 0.4525(2) 0.6423(4)
C1 C 0.1715(4) 0.5084(2) 0.1699(6)
C2 C 0.2712(4) 0.4979(3) 0.2308(6)
C3 C 0.3233(4) 0.4516(3) 0.3258(6)
C4 C 0.2826(4) 0.4133(3) 0.3597(7)
C5 C 0.1904(4) 0.4228(3) 0.3042(7)
C6 C 0.1378(4) 0.4683(2) 0.2105(6)
C7 C 0.3196(3) 0.5395(2) 0.2273(5)
H1 H 0.3835 0.5343 0.2796
N1 N 0.2821(3) 0.5859(2) 0.1557(5)
H2 H 0.2222 0.5877 0.0904
C8 C 0.3379(4) 0.6340(2) 0.1826(6)
H3 H 0.4024 0.6215 0.2345
C9 C 0.3016(5) 0.6600(3) 0.0477(7)
H4 H 0.2384 0.6741 -0.0048
H5 H 0.3018 0.6322 -0.0070
C10 C 0.3745(5) 0.7125(3) 0.0916(7)
H6 H 0.4360 0.6975 0.1355
H7 H 0.3522 0.7333 0.0107
C11 C 0.3800(6) 0.7506(4) 0.1876(8)
H8 H 0.4235 0.7810 0.2152
H9 H 0.3190 0.7673 0.1407
C12 C 0.4108(5) 0.7203(3) 0.3109(6)
H10 H 0.4157 0.7463 0.3731
H11 H 0.4713 0.7028 0.3585
C13 C 0.3372(6) 0.6759(3) 0.2606(8)
H12 H 0.2753 0.6935 0.2049
N2 N 0.3613(3) 0.6476(2) 0.3852(5)
H13 H 0.4191 0.6413 0.4562
C14 C 0.2998(5) 0.6333(3) 0.3872(7)
H14 H 0.2431 0.6525 0.3262
C15 C 0.3038(4) 0.5895(3) 0.4739(6)
C16 C 0.3844(4) 0.5579(3) 0.5595(6)
C17 C 0.3834(5) 0.5115(4) 0.6205(8)
C18 C 0.2928(5) 0.4962(4) 0.5827(9)
C19 C 0.2182(4) 0.5308(3) 0.5049(6)
C20 C 0.2148(5) 0.5794(3) 0.4411(7)
C21 C 0.1307(5) 0.5130(3) 0.4605(7)
H15 H 0.1298 0.4790 0.4953
N3 N 0.0577(4) 0.5379(3) 0.3818(5)
H16 H 0.0544 0.5735 0.3652
C22 C -0.0250(5) 0.5025(4) 0.3170(7)
H17 H -0.0101 0.4697 0.3744
C23 C -0.1024(4) 0.5386(3) 0.2911(7)
H18 H -0.0797 0.5551 0.3765
H19 H -0.1197 0.5690 0.2282
C24 C -0.1862(4) 0.5022(3) 0.2314(7)
H20 H -0.1685 0.4731 0.2973
H21 H -0.2342 0.5252 0.2167
C25 C -0.2247(5) 0.4756(4) 0.1040(8)
H22 H -0.2520 0.5041 0.0332
H23 H -0.2738 0.4496 0.0765
C26 C -0.1493(4) 0.4439(3) 0.1193(6)
H24 H -0.1740 0.4297 0.0309
H25 H -0.1276 0.4120 0.1807
C27 C -0.0686(4) 0.4846(3) 0.1771(8)
H26 H -0.0912 0.5177 0.1174
N4 N 0.0078(4) 0.4567(3) 0.1930(7)
H27 H 0.0208 0.4218 0.2186
C28 C 0.0561(3) 0.4833(3) 0.1694(5)
H28 H 0.0300 0.5164 0.1181
C29 C 0.4558(4) 0.4748(3) 0.6899(6)
H29 H 0.5067 0.4827 0.6972
N5 N 0.4579(5) 0.4288(3) 0.7475(7)
H30 H 0.4210 0.4230 0.7630
C30 C 0.5303(7) 0.3871(5) 0.7840(10)
H31 H 0.5786 0.4067 0.7909
C31 C 0.5730(5) 0.3638(4) 0.9216(9)
H32 H 0.5255 0.3491 0.9215
H33 H 0.6093 0.3923 0.9925
C32 C 0.6346(7) 0.3173(4) 0.9412(10)
H34 H 0.6895 0.3353 0.9651
H35 H 0.6559 0.2959 1.0209
C33 C 0.6021(5) 0.2774(4) 0.8361(8)
H36 H 0.5582 0.2521 0.8267
H37 H 0.6548 0.2549 0.8638
C34 C 0.5553(5) 0.3036(4) 0.6987(8)
H38 H 0.5249 0.2749 0.6280
H39 H 0.6009 0.3231 0.7006
C35 C 0.4819(6) 0.3461(4) 0.6706(9)
H40 H 0.4392 0.3245 0.6730
N6 N 0.4266(4) 0.3711(3) 0.5373(6)
H41 H 0.4514 0.3796 0.5030
C36 C 0.3271(6) 0.3819(5) 0.4601(9)
H42 H 0.2975 0.3649 0.4872
C37 C 0.1909(7) 0.3378(5) 0.5735(11)
H43 H 0.2130 0.3655 0.5447
Cl1 Cl 0.0738(3) 0.36210(17) 0.5095(4)
Cl2 Cl 0.1642(3) 0.27830(14) 0.4850(4)
Cl3 Cl 0.2561(3) 0.34185(19) 0.7359(4)
C38 C 0.1630(8) 0.6854(6) 0.5649(14)
H44 H 0.1685 0.6750 0.4977
Cl4 Cl 0.0510(3) 0.6690(2) 0.4918(5)
Cl5 Cl 0.2365(4) 0.64283(18) 0.7002(5)
Cl6 Cl 0.1888(4) 0.7542(2) 0.5968(6)
Cl7? Cl 0.3001(4) 0.3005(2) 0.7033(5)
Cl8? Cl 0.1648(4) 0.3636(2) 0.6605(7)
Cl9? Cl 0.1037(8) 0.3043(6) 0.4538(11)
C39? C 0.02923(18) 0.65443(11) 0.0890(3)
Cl10? Cl 0.02923(18) 0.65443(11) 0.0890(3)
Cl11? Cl 0.0912(2) 0.71916(13) 0.1533(4)
Cl12? Cl -0.0497(2) 0.65008(18) 0.1084(3)
C40? C 0.4961(15) 0.5463(9) -0.0620(19)
Cl13? Cl 0.4337(3) 0.50444(19) -0.0469(4)
Cl14? Cl 0.5675(2) 0.56666(16) -0.0319(4)
Cl15? Cl 0.4822(3) 0.60130(17) -0.1249(4)
C41? C 0.0667(18) 0.3140(10) 0.118(3)
H45? H 0.1091 0.3290 0.2112
Cl16? Cl 0.0805(3) 0.33845(19) 0.0128(4)
Cl17? Cl 0.0595(2) 0.23689(13) 0.1002(4)
loop_
_geom_bond_atom_site_label_1
_geom_bond_atom_site_label_2
_geom_bond_site_symmetry_1
_geom_bond_site_symmetry_2
O1 C1 1_555 1_555
O2 C3 1_555 1_555
O3 C5 1_555 1_555
O4 C20 1_555 1_555
O5 C16 1_555 1_555
O6 C18 1_555 1_555
C1 C2 1_555 1_555
C2 C3 1_555 1_555
C3 C4 1_555 1_555
C4 C5 1_555 1_555
C5 C6 1_555 1_555
C6 C1 1_555 1_555
C7 C2 1_555 1_555
H1 C7 1_555 1_555
N1 C7 1_555 1_555
H2 N1 1_555 1_555
C8 N1 1_555 1_555
H3 C8 1_555 1_555
C9 C8 1_555 1_555
H4 C9 1_555 1_555
H5 C9 1_555 1_555
C10 C9 1_555 1_555
H6 C10 1_555 1_555
H7 C10 1_555 1_555
C11 C10 1_555 1_555
H8 C11 1_555 1_555
H9 C11 1_555 1_555
C12 C11 1_555 1_555
H10 C12 1_555 1_555
H11 C12 1_555 1_555
C13 C8 1_555 1_555
H12 C13 1_555 1_555
N2 C13 1_555 1_555
H13 N2 1_555 1_555
C14 N2 1_555 1_555
H14 C14 1_555 1_555
C15 C14 1_555 1_555
C16 C15 1_555 1_555
C17 C16 1_555 1_555
C18 C17 1_555 1_555
C19 C18 1_555 1_555
C20 C15 1_555 1_555
C21 C19 1_555 1_555
H15 C21 1_555 1_555
N3 C21 1_555 1_555
H16 N3 1_555 1_555
C22 N3 1_555 1_555
H17 C22 1_555 1_555
C23 C22 1_555 1_555
H18 C23 1_555 1_555
H19 C23 1_555 1_555
C24 C23 1_555 1_555
H20 C24 1_555 1_555
H21 C24 1_555 1_555
C25 C24 1_555 1_555
H22 C25 1_555 1_555
H23 C25 1_555 1_555
C26 C25 1_555 1_555
H24 C26 1_555 1_555
H25 C26 1_555 1_555
C27 C22 1_555 1_555
H26 C27 1_555 1_555
N4 C27 1_555 1_555
H27 N4 1_555 1_555
C28 C6 1_555 1_555
H28 C28 1_555 1_555
C29 C17 1_555 1_555
H29 C29 1_555 1_555
N5 C29 1_555 1_555
H30 N5 1_555 1_555
C30 N5 1_555 1_555
H31 C30 1_555 1_555
C31 C30 1_555 1_555
H32 C31 1_555 1_555
H33 C31 1_555 1_555
C32 C31 1_555 1_555
H34 C32 1_555 1_555
H35 C32 1_555 1_555
C33 C32 1_555 1_555
H36 C33 1_555 1_555
H37 C33 1_555 1_555
C34 C33 1_555 1_555
H38 C34 1_555 1_555
H39 C34 1_555 1_555
C35 C30 1_555 1_555
H40 C35 1_555 1_555
N6 C35 1_555 1_555
H41 N6 1_555 1_555
C36 C4 1_555 1_555
H42 C36 1_555 1_555
C37 H43 1_555 1_555
Cl1 C37 1_555 1_555
Cl2 C37 1_555 1_555
Cl3 C37 1_555 1_555
C38 H44 1_555 1_555
Cl4 C38 1_555 1_555
Cl5 C38 1_555 1_555
Cl6 C38 1_555 1_555
C12 C13 1_555 1_555
C19 C20 1_555 1_555
C26 C27 1_555 1_555
N4 C28 1_555 1_555
C34 C35 1_555 1_555
N6 C36 1_555 1_555

#END
