
#######################################################################
#
#                 Cambridge Crystallographic Data Centre
#                                CCDC 
#
#######################################################################
#
# If this CIF has been generated from an entry in the Cambridge 
# Structural Database, then it will include bibliographic, chemical, 
# crystal, experimental, refinement or atomic coordinate data resulting 
# from the CCDC's data processing and validation procedures.
#
#######################################################################

data_ZUYWAT
_chemical_formula_moiety         'C20 H17 N1 O5 S1'
_chemical_name_systematic        
'dimethyl 2-(1-benzothiophen-2-yl)-1-hydroxy-1,2-dihydro-3H-indole-3,3-dicarboxylate'
_symmetry_cell_setting           monoclinic
_symmetry_space_group_name_H-M   'P 21/n'
_symmetry_Int_Tables_number      14
_space_group_name_Hall           '-P 2yn'
loop_
_symmetry_equiv_pos_site_id
_symmetry_equiv_pos_as_xyz
1 x,y,z
2 1/2-x,1/2+y,1/2-z
3 -x,-y,-z
4 1/2+x,1/2-y,1/2+z
_cell_length_a                   8.6285(8)
_cell_length_b                   12.7114(12)
_cell_length_c                   16.7840(17)
_cell_angle_alpha                90
_cell_angle_beta                 101.358(4)
_cell_angle_gamma                90
_cell_volume                     1804.82
_exptl_crystal_colour            colorless
_exptl_crystal_description       Block
_cell_formula_units_Z            4
loop_
_atom_site_label
_atom_site_type_symbol
_atom_site_fract_x
_atom_site_fract_y
_atom_site_fract_z
N1 N 0.75001(14) 0.81775(9) 0.33572(7)
O1 O 0.69074(14) 0.92285(8) 0.33777(7)
H1 H 0.6762 0.9486 0.2914
C1 C 0.63932(16) 0.74501(10) 0.36479(8)
H2 H 0.5905 0.7834 0.4049
C2 C 0.74911(15) 0.65672(10) 0.41174(8)
C3 C 0.90934(16) 0.71106(10) 0.42912(8)
C4 C 1.05147(17) 0.68061(12) 0.47736(9)
H3 H 1.0613 0.6150 0.5037
C5 C 1.17922(18) 0.74898(14) 0.48594(10)
H4 H 1.2769 0.7291 0.5178
C6 C 1.16389(19) 0.84588(14) 0.44799(10)
H5 H 1.2507 0.8921 0.4561
C7 C 1.02335(19) 0.87651(12) 0.39825(9)
H6 H 1.0134 0.9423 0.3721
C8 C 0.89814(16) 0.80647(11) 0.38853(8)
C9 C 0.74907(15) 0.55653(10) 0.36105(8)
O2 O 0.83910(12) 0.53895(8) 0.31647(7)
O3 O 0.63460(13) 0.49277(8) 0.37310(6)
C10 C 0.6145(2) 0.39499(12) 0.32834(10)
H7 H 0.5672 0.4090 0.2720
H8 H 0.5461 0.3486 0.3517
H9 H 0.7167 0.3617 0.3313
C11 C 0.69089(16) 0.62704(10) 0.48986(8)
O4 O 0.56753(12) 0.65310(9) 0.50566(7)
O5 O 0.79928(12) 0.56856(9) 0.53732(6)
C12 C 0.7633(2) 0.53687(16) 0.61443(10)
H10 H 0.7533 0.5988 0.6468
H11 H 0.8478 0.4927 0.6431
H12 H 0.6648 0.4979 0.6051
C13 C 0.50994(16) 0.71242(11) 0.29654(8)
C14 C 0.35562(17) 0.69901(12) 0.29909(9)
H13 H 0.3139 0.7098 0.3461
C15 C 0.26179(17) 0.66652(12) 0.22263(9)
C16 C 0.09961(19) 0.64360(14) 0.20194(12)
H14 H 0.0357 0.6493 0.2411
C17 C 0.0350(2) 0.61282(14) 0.12394(13)
H15 H -0.0735 0.5973 0.1101
C18 C 0.1274(2) 0.60437(13) 0.06530(11)
H16 H 0.0802 0.5832 0.0124
C19 C 0.2872(2) 0.62645(12) 0.08303(10)
H17 H 0.3495 0.6208 0.0431
C20 C 0.35313(17) 0.65743(11) 0.16230(9)
S1 S 0.54952(4) 0.68944(3) 0.19995(2)
loop_
_geom_bond_atom_site_label_1
_geom_bond_atom_site_label_2
_geom_bond_site_symmetry_1
_geom_bond_site_symmetry_2
N1 O1 1_555 1_555
O1 H1 1_555 1_555
C1 N1 1_555 1_555
H2 C1 1_555 1_555
C2 C1 1_555 1_555
C3 C2 1_555 1_555
C4 C3 1_555 1_555
H3 C4 1_555 1_555
C5 C4 1_555 1_555
H4 C5 1_555 1_555
C6 C5 1_555 1_555
H5 C6 1_555 1_555
C7 C6 1_555 1_555
H6 C7 1_555 1_555
C8 N1 1_555 1_555
C9 C2 1_555 1_555
O2 C9 1_555 1_555
O3 C9 1_555 1_555
C10 O3 1_555 1_555
H7 C10 1_555 1_555
H8 C10 1_555 1_555
H9 C10 1_555 1_555
C11 C2 1_555 1_555
O4 C11 1_555 1_555
O5 C11 1_555 1_555
C12 O5 1_555 1_555
H10 C12 1_555 1_555
H11 C12 1_555 1_555
H12 C12 1_555 1_555
C13 C1 1_555 1_555
C14 C13 1_555 1_555
H13 C14 1_555 1_555
C15 C14 1_555 1_555
C16 C15 1_555 1_555
H14 C16 1_555 1_555
C17 C16 1_555 1_555
H15 C17 1_555 1_555
C18 C17 1_555 1_555
H16 C18 1_555 1_555
C19 C18 1_555 1_555
H17 C19 1_555 1_555
C20 C15 1_555 1_555
S1 C13 1_555 1_555
C3 C8 1_555 1_555
C7 C8 1_555 1_555
C19 C20 1_555 1_555
C20 S1 1_555 1_555

#END
