
#######################################################################
#
#                 Cambridge Crystallographic Data Centre
#                                CCDC 
#
#######################################################################
#
# If this CIF has been generated from an entry in the Cambridge 
# Structural Database, then it will include bibliographic, chemical, 
# crystal, experimental, refinement or atomic coordinate data resulting 
# from the CCDC's data processing and validation procedures.
#
#######################################################################

data_ZUZBUT01
_chemical_formula_moiety         'C34 H44 O7'
_chemical_name_systematic        
4-hydroxy-7,7,9,9,12a-pentamethyl-5-(2-methylpropanoyl)-2,11-bis(propan-2-yl)-1a,2,3,3a,7,11,12a,12b-octahydro-8H-oxireno[6,7][1]benzofuro[2,3-a]xanthene-8,10(9H)-dione
_symmetry_cell_setting           orthorhombic
_symmetry_space_group_name_H-M   'P 21 21 21'
_symmetry_Int_Tables_number      19
_space_group_name_Hall           'P 2ac 2ab'
loop_
_symmetry_equiv_pos_site_id
_symmetry_equiv_pos_as_xyz
1 x,y,z
2 1/2-x,-y,1/2+z
3 -x,1/2+y,1/2-z
4 1/2+x,1/2-y,-z
_cell_length_a                   6.38280(10)
_cell_length_b                   14.89930(10)
_cell_length_c                   32.6050(2)
_cell_angle_alpha                90
_cell_angle_beta                 90
_cell_angle_gamma                90
_cell_volume                     3100.71
_exptl_crystal_colour            colorless
_exptl_crystal_description       blocks
_cell_formula_units_Z            4
loop_
_atom_site_label
_atom_site_type_symbol
_atom_site_fract_x
_atom_site_fract_y
_atom_site_fract_z
O1 O 0.0282(2) 0.35452(8) 0.01658(3)
O2 O 0.3717(4) 0.57166(10) -0.05636(4)
O3 O 0.5870(2) 0.71910(7) 0.18630(3)
O4 O 0.36654(19) 0.62000(7) 0.23015(3)
H1 H 0.440472 0.663255 0.224462
O5 O 0.46751(17) 0.55559(7) 0.08663(3)
O6 O -0.37324(18) 0.40194(9) 0.21365(3)
O7 O 0.03982(17) 0.37249(7) 0.17421(3)
C1 C 0.1730(3) 0.40751(10) 0.01529(4)
C2 C 0.2705(3) 0.43460(11) -0.02576(4)
C3 C 0.3573(3) 0.52961(11) -0.02504(5)
C4 C 0.4393(3) 0.57272(10) 0.01475(5)
C5 C 0.4364(2) 0.58993(10) 0.15793(4)
C6 C 0.3382(2) 0.56923(9) 0.19635(4)
C7 C -0.0951(3) 0.52445(10) 0.24723(5)
H2 H -0.170613 0.541602 0.222633
H3 H -0.038170 0.578513 0.259504
C8 C -0.2470(3) 0.47993(11) 0.27745(5)
H4 H -0.362863 0.521700 0.282442
C9 C -0.3359(3) 0.39672(11) 0.25745(4)
H5 H -0.439977 0.363378 0.273456
C10 C -0.2104(3) 0.34361(11) 0.22818(4)
H6 H -0.242560 0.279330 0.227264
C11 C 0.2397(2) 0.39070(9) 0.09243(4)
H7 H 0.096500 0.367041 0.093087
C12 C 0.4589(3) 0.37092(12) -0.03247(5)
H8 H 0.524952 0.384731 -0.058161
H9 H 0.410717 0.309892 -0.032821
H10 H 0.557955 0.378646 -0.010598
C13 C 0.1123(3) 0.42407(12) -0.06047(5)
H11 H -0.000235 0.466033 -0.056705
H12 H 0.057463 0.364067 -0.060325
H13 H 0.179967 0.435481 -0.086242
C14 C 0.6793(3) 0.58090(12) 0.01066(5)
H14 H 0.733580 0.614643 0.033382
H15 H 0.712950 0.611077 -0.014501
H16 H 0.740629 0.522076 0.010566
C15 C 0.3405(3) 0.66667(11) 0.01828(5)
H17 H 0.191258 0.661029 0.020913
H18 H 0.372828 0.700870 -0.005862
H19 H 0.395747 0.696707 0.041972
C16 C 0.5789(2) 0.66729(10) 0.15638(4)
C17 C 0.7304(2) 0.68463(10) 0.12121(4)
H20 H 0.651373 0.686370 0.095454
C18 C 0.8897(3) 0.60776(11) 0.11911(5)
H21 H 0.969717 0.606192 0.144031
H22 H 0.982058 0.617130 0.096272
H23 H 0.817056 0.551835 0.115718
C19 C 0.8445(3) 0.77375(11) 0.12668(5)
H24 H 0.743985 0.821502 0.128516
H25 H 0.934927 0.783952 0.103614
H26 H 0.926507 0.771903 0.151350
C20 C -0.1491(3) 0.45525(11) 0.31936(4)
H27 H -0.054119 0.404454 0.314990
C21 C -0.0217(4) 0.53171(13) 0.33772(6)
H28 H -0.107860 0.584327 0.339830
H29 H 0.096391 0.544222 0.320410
H30 H 0.026681 0.514818 0.364512
C22 C -0.3176(3) 0.42544(14) 0.34990(5)
H31 H -0.253144 0.410811 0.375645
H32 H -0.388824 0.373588 0.339355
H33 H -0.416459 0.473227 0.353825
C23 C 0.1544(3) 0.29288(10) 0.23438(4)
H34 H 0.117375 0.238001 0.220754
H35 H 0.137465 0.285626 0.263447
H36 H 0.297626 0.307491 0.228391
C24 C 0.3959(3) 0.31010(10) 0.09326(5)
H37 H 0.377970 0.277008 0.067523
C25 C 0.6249(3) 0.33961(11) 0.09555(5)
H38 H 0.648496 0.371244 0.120774
H39 H 0.655988 0.378361 0.072826
H40 H 0.713957 0.287750 0.094472
C26 C 0.3463(3) 0.24543(11) 0.12823(5)
H41 H 0.431255 0.192581 0.125574
H42 H 0.200959 0.228994 0.127126
H43 H 0.375444 0.274015 0.153992
C27 C 0.3839(3) 0.51725(10) 0.05194(4)
C28 C 0.3896(2) 0.53057(9) 0.12486(4)
C29 C 0.2094(2) 0.49532(10) 0.19987(4)
C30 C 0.0132(3) 0.36795(10) 0.21944(4)
C31 C 0.1747(2) 0.44058(9) 0.16648(4)
C32 C 0.2692(2) 0.44226(10) 0.05309(4)
C33 C 0.0847(2) 0.46140(9) 0.23566(4)
H44 H 0.177339 0.453296 0.259342
C34 C 0.2675(2) 0.45432(9) 0.12802(4)
loop_
_geom_bond_atom_site_label_1
_geom_bond_atom_site_label_2
_geom_bond_site_symmetry_1
_geom_bond_site_symmetry_2
O1 C1 1_555 1_555
O2 C3 1_555 1_555
O3 C16 1_555 1_555
O4 H1 1_555 1_555
O5 C27 1_555 1_555
O6 C9 1_555 1_555
O7 C30 1_555 1_555
C1 C2 1_555 1_555
C2 C3 1_555 1_555
C3 C4 1_555 1_555
C4 C14 1_555 1_555
C5 C6 1_555 1_555
C6 O4 1_555 1_555
C7 H2 1_555 1_555
H3 C7 1_555 1_555
C8 C7 1_555 1_555
H4 C8 1_555 1_555
C9 C8 1_555 1_555
H5 C9 1_555 1_555
C10 O6 1_555 1_555
H6 C10 1_555 1_555
C11 H7 1_555 1_555
C12 C2 1_555 1_555
H8 C12 1_555 1_555
H9 C12 1_555 1_555
H10 C12 1_555 1_555
C13 C2 1_555 1_555
H11 C13 1_555 1_555
H12 C13 1_555 1_555
H13 C13 1_555 1_555
C14 H14 1_555 1_555
H15 C14 1_555 1_555
H16 C14 1_555 1_555
C15 C4 1_555 1_555
H17 C15 1_555 1_555
H18 C15 1_555 1_555
H19 C15 1_555 1_555
C16 C5 1_555 1_555
C17 C16 1_555 1_555
H20 C17 1_555 1_555
C18 C17 1_555 1_555
H21 C18 1_555 1_555
H22 C18 1_555 1_555
H23 C18 1_555 1_555
C19 C17 1_555 1_555
H24 C19 1_555 1_555
H25 C19 1_555 1_555
H26 C19 1_555 1_555
C20 C8 1_555 1_555
H27 C20 1_555 1_555
C21 C20 1_555 1_555
H28 C21 1_555 1_555
H29 C21 1_555 1_555
H30 C21 1_555 1_555
C22 C20 1_555 1_555
H31 C22 1_555 1_555
H32 C22 1_555 1_555
H33 C22 1_555 1_555
C23 H34 1_555 1_555
H35 C23 1_555 1_555
H36 C23 1_555 1_555
C24 C11 1_555 1_555
H37 C24 1_555 1_555
C25 C24 1_555 1_555
H38 C25 1_555 1_555
H39 C25 1_555 1_555
H40 C25 1_555 1_555
C26 C24 1_555 1_555
H41 C26 1_555 1_555
H42 C26 1_555 1_555
H43 C26 1_555 1_555
C27 C4 1_555 1_555
C28 O5 1_555 1_555
C29 C6 1_555 1_555
C30 C10 1_555 1_555
C31 O7 1_555 1_555
C32 C1 1_555 1_555
C33 C7 1_555 1_555
H44 C33 1_555 1_555
C34 C11 1_555 1_555
C5 C28 1_555 1_555
C9 C10 1_555 1_555
C11 C32 1_555 1_555
C23 C30 1_555 1_555
C27 C32 1_555 1_555
C28 C34 1_555 1_555
C29 C31 1_555 1_555
C29 C33 1_555 1_555
C30 C33 1_555 1_555
C31 C34 1_555 1_555

#END
