
#######################################################################
#
#                 Cambridge Crystallographic Data Centre
#                                CCDC 
#
#######################################################################
#
# If this CIF has been generated from an entry in the Cambridge 
# Structural Database, then it will include bibliographic, chemical, 
# crystal, experimental, refinement or atomic coordinate data resulting 
# from the CCDC's data processing and validation procedures.
#
#######################################################################

data_ZUZDED
_chemical_formula_moiety         'C18 H14 O8,C4 H10 O1'
_chemical_name_systematic        
'(R,R)-bis(O-Benzoyl)tartaric acid diethyl ether clathrate'
_symmetry_cell_setting           orthorhombic
_symmetry_space_group_name_H-M   'P 21 21 21'
_symmetry_Int_Tables_number      19
_space_group_name_Hall           'P 2ac 2ab'
loop_
_symmetry_equiv_pos_site_id
_symmetry_equiv_pos_as_xyz
1 x,y,z
2 1/2-x,-y,1/2+z
3 1/2+x,1/2-y,-z
4 -x,1/2+y,1/2-z
_cell_length_a                   11.806(3)
_cell_length_b                   13.152(3)
_cell_length_c                   15.236(1)
_cell_angle_alpha                90
_cell_angle_beta                 90
_cell_angle_gamma                90
_cell_volume                     2365.73
_chemical_melting_point          75-76deg.C
_cell_formula_units_Z            4
_chemical_properties_physical    'Moderately air-sensitive'
loop_
_atom_site_label
_atom_site_type_symbol
_atom_site_fract_x
_atom_site_fract_y
_atom_site_fract_z
O1 O 0.7726(3) 0.5819(3) 0.5976(2)
O2 O 0.6143(3) 0.6238(3) 0.6680(2)
O3 O 0.7503(4) 0.3239(3) 0.8700(2)
O4 O 0.7235(3) 0.4757(3) 0.9288(2)
O5 O 0.8708(2) 0.5167(2) 0.7497(2)
O6 O 0.9257(3) 0.6798(3) 0.7448(3)
O7 O 0.6864(3) 0.3903(3) 0.7089(2)
O8 O 0.5191(3) 0.3299(3) 0.7527(3)
C1 C 0.7166(4) 0.5881(4) 0.6622(3)
C2 C 0.7555(4) 0.5502(3) 0.7526(3)
C3 C 0.9502(4) 0.5912(4) 0.7452(3)
C4 C 1.0656(4) 0.5496(3) 0.7436(3)
C5 C 1.1542(5) 0.6166(4) 0.7313(4)
C6 C 1.2648(5) 0.5802(5) 0.7294(4)
C7 C 1.2854(5) 0.4791(5) 0.7403(4)
C8 C 1.1983(5) 0.4130(4) 0.7508(4)
C9 C 1.0877(4) 0.4467(3) 0.7520(3)
C10 C 0.6840(4) 0.4609(3) 0.7792(3)
C11 C 0.7249(4) 0.4103(4) 0.8638(3)
C12 C 0.5956(4) 0.3278(4) 0.7004(3)
C13 C 0.6002(5) 0.2630(4) 0.6221(3)
C14 C 0.5130(6) 0.1993(5) 0.6071(5)
C15 C 0.5140(9) 0.1366(7) 0.5341(7)
C16 C 0.6017(12) 0.1413(9) 0.4758(6)
C17 C 0.6893(10) 0.2065(8) 0.4915(5)
C18 C 0.6901(7) 0.2681(5) 0.5649(4)
H1 H 0.5741 0.6442 0.6248
H2 H 0.7442 0.4401 0.9965
H3 H 0.7486 0.6043 0.7946
H4 H 1.1379 0.6876 0.7239
H5 H 1.3266 0.6263 0.7203
H6 H 1.3618 0.4541 0.7406
H7 H 1.2146 0.3418 0.7569
H8 H 1.0265 0.3994 0.7593
H9 H 0.6073 0.4830 0.7882
H10 H 0.4532 0.1975 0.6497
H11 H 0.4509 0.0917 0.5254
H12 H 0.5972 0.0976 0.4254
H13 H 0.7488 0.2071 0.4486
H14 H 0.7538 0.3112 0.5770
C19 C 0.5982(16) 0.8309(9) 0.5280(9)
C20 C 0.5162(12) 0.7706(12) 0.4945(8)
O9 O 0.5224(4) 0.6684(6) 0.5214(3)
C21 C 0.4433(13) 0.6085(17) 0.4877(10)
C22 C 0.4562(16) 0.5020(13) 0.5046(12)
H15 H 0.5908 0.9006 0.5101
H16 H 0.5975 0.8270 0.5909
H17 H 0.6684 0.8040 0.5063
H18 H 0.5161 0.7747 0.4316
H19 H 0.4457 0.7976 0.5157
H20 H 0.4349 0.6226 0.4262
H21 H 0.3740 0.6272 0.5163
H22 H 0.3934 0.4649 0.4805
H23 H 0.5246 0.4824 0.4749
H24 H 0.4631 0.4872 0.5660
loop_
_geom_bond_atom_site_label_1
_geom_bond_atom_site_label_2
_geom_bond_site_symmetry_1
_geom_bond_site_symmetry_2
O1 C1 1_555 1_555
O2 C1 1_555 1_555
O3 C11 1_555 1_555
O4 C11 1_555 1_555
O5 C2 1_555 1_555
O6 C3 1_555 1_555
O7 C10 1_555 1_555
O8 C12 1_555 1_555
C1 C2 1_555 1_555
C2 C10 1_555 1_555
C3 O5 1_555 1_555
C4 C3 1_555 1_555
C5 C4 1_555 1_555
C6 C5 1_555 1_555
C7 C6 1_555 1_555
C8 C7 1_555 1_555
C9 C4 1_555 1_555
C10 C11 1_555 1_555
C12 O7 1_555 1_555
C13 C12 1_555 1_555
C14 C13 1_555 1_555
C15 C14 1_555 1_555
C16 C15 1_555 1_555
C17 C16 1_555 1_555
C18 C13 1_555 1_555
C19 C20 1_555 1_555
C20 O9 1_555 1_555
O9 C21 1_555 1_555
C21 C22 1_555 1_555
C22 H22 1_555 1_555
H1 O2 1_555 1_555
H2 O4 1_555 1_555
H3 C2 1_555 1_555
H4 C5 1_555 1_555
H5 C6 1_555 1_555
H6 C7 1_555 1_555
H7 C8 1_555 1_555
H8 C9 1_555 1_555
H9 C10 1_555 1_555
H10 C14 1_555 1_555
H11 C15 1_555 1_555
H12 C16 1_555 1_555
H13 C17 1_555 1_555
H14 C18 1_555 1_555
H15 C19 1_555 1_555
H16 C19 1_555 1_555
H17 C19 1_555 1_555
H18 C20 1_555 1_555
H19 C20 1_555 1_555
H20 C21 1_555 1_555
H21 C21 1_555 1_555
H23 C22 1_555 1_555
H24 C22 1_555 1_555
C8 C9 1_555 1_555
C17 C18 1_555 1_555

#END
