
#######################################################################
#
#                 Cambridge Crystallographic Data Centre
#                                CCDC 
#
#######################################################################
#
# If this CIF has been generated from an entry in the Cambridge 
# Structural Database, then it will include bibliographic, chemical, 
# crystal, experimental, refinement or atomic coordinate data resulting 
# from the CCDC's data processing and validation procedures.
#
#######################################################################

data_ZUZDIH
_chemical_formula_moiety         'C18 H14 O8,C6 H14 O1'
_chemical_name_systematic        
'(R,R)-bis(O-Benzoyl)tartaric acid di-n-propyl ether clathrate'
_symmetry_cell_setting           orthorhombic
_symmetry_space_group_name_H-M   'P 21 21 21'
_symmetry_Int_Tables_number      19
_space_group_name_Hall           'P 2ac 2ab'
loop_
_symmetry_equiv_pos_site_id
_symmetry_equiv_pos_as_xyz
1 x,y,z
2 1/2-x,-y,1/2+z
3 1/2+x,1/2-y,-z
4 -x,1/2+y,1/2-z
_cell_length_a                   11.607(2)
_cell_length_b                   13.964(4)
_cell_length_c                   15.298(5)
_cell_angle_alpha                90
_cell_angle_beta                 90
_cell_angle_gamma                90
_cell_volume                     2479.5
_chemical_melting_point          77-80deg.C
_cell_formula_units_Z            4
_chemical_properties_physical    'Moderately air-sensitive'
loop_
_atom_site_label
_atom_site_type_symbol
_atom_site_fract_x
_atom_site_fract_y
_atom_site_fract_z
O1 O 0.7677(3) 0.5767(2) 0.5924(2)
O2 O 0.6061(3) 0.6098(2) 0.6666(2)
O3 O 0.7670(4) 0.3263(3) 0.8568(2)
O4 O 0.7384(3) 0.4670(2) 0.9215(2)
O5 O 0.8736(3) 0.5130(2) 0.7414(2)
O6 O 0.9244(3) 0.6678(3) 0.7442(3)
O7 O 0.6788(3) 0.3927(2) 0.7023(2)
O8 O 0.5254(3) 0.3252(3) 0.7660(2)
C1 C 0.7130(4) 0.5783(3) 0.6589(3)
C2 C 0.7568(4) 0.5420(3) 0.7466(3)
C3 C 0.9528(4) 0.5852(4) 0.7416(3)
C4 C 1.0727(4) 0.5484(4) 0.7404(3)
C5 C 1.1613(5) 0.6141(5) 0.7313(3)
C6 C 1.2737(5) 0.5822(7) 0.7312(4)
C7 C 1.2959(6) 0.4855(7) 0.7398(5)
C8 C 1.2091(5) 0.4214(5) 0.7475(4)
C9 C 1.0959(4) 0.4508(4) 0.7482(3)
C10 C 0.6861(4) 0.4562(3) 0.7757(3)
C11 C 0.7382(4) 0.4067(4) 0.8552(3)
C12 C 0.5884(4) 0.3306(3) 0.7039(3)
C13 C 0.5777(4) 0.2749(3) 0.6221(3)
C14 C 0.6452(5) 0.2921(4) 0.5497(3)
C15 C 0.6256(6) 0.2415(5) 0.4732(4)
C16 C 0.5368(8) 0.1752(5) 0.4707(5)
C17 C 0.4704(7) 0.1582(4) 0.5419(5)
C18 C 0.4895(5) 0.2080(3) 0.6177(4)
C19 C 0.5760(6) 0.9167(4) 0.5154(5)
C20 C 0.5955(5) 0.8107(3) 0.5279(3)
C21 C 0.4948(5) 0.7522(4) 0.5008(4)
O9 O 0.5162(3) 0.6530(2) 0.5173(2)
C22 C 0.4220(5) 0.5922(3) 0.4954(4)
C23 C 0.4554(5) 0.4902(3) 0.5020(4)
C24 C 0.3588(5) 0.4213(4) 0.4840(4)
loop_
_geom_bond_atom_site_label_1
_geom_bond_atom_site_label_2
_geom_bond_site_symmetry_1
_geom_bond_site_symmetry_2
O1 C1 1_555 1_555
O2 C1 1_555 1_555
O3 C11 1_555 1_555
O4 C11 1_555 1_555
O5 C2 1_555 1_555
O6 C3 1_555 1_555
O7 C10 1_555 1_555
O8 C12 1_555 1_555
C1 C2 1_555 1_555
C2 C10 1_555 1_555
C3 O5 1_555 1_555
C4 C3 1_555 1_555
C5 C4 1_555 1_555
C6 C5 1_555 1_555
C7 C6 1_555 1_555
C8 C7 1_555 1_555
C9 C4 1_555 1_555
C10 C11 1_555 1_555
C12 O7 1_555 1_555
C13 C12 1_555 1_555
C14 C13 1_555 1_555
C15 C14 1_555 1_555
C16 C15 1_555 1_555
C17 C16 1_555 1_555
C18 C13 1_555 1_555
C19 C20 1_555 1_555
C20 C21 1_555 1_555
C21 O9 1_555 1_555
O9 C22 1_555 1_555
C22 C23 1_555 1_555
C23 C24 1_555 1_555
C8 C9 1_555 1_555
C17 C18 1_555 1_555

#END
