
#######################################################################
#
#                 Cambridge Crystallographic Data Centre
#                                CCDC 
#
#######################################################################
#
# If this CIF has been generated from an entry in the Cambridge 
# Structural Database, then it will include bibliographic, chemical, 
# crystal, experimental, refinement or atomic coordinate data resulting 
# from the CCDC's data processing and validation procedures.
#
#######################################################################

data_ZUZHEJ
_chemical_formula_moiety         'C17 H16 Br1 N1 O2'
_chemical_name_systematic        
'(R)-Methyl 2-((4-bromophenyl)(phenylamino)methyl)acrylate'
_symmetry_cell_setting           orthorhombic
_symmetry_space_group_name_H-M   'P 21 21 21'
_symmetry_Int_Tables_number      19
_space_group_name_Hall           'P 2ac 2ab'
loop_
_symmetry_equiv_pos_site_id
_symmetry_equiv_pos_as_xyz
1 x,y,z
2 1/2+x,1/2-y,-z
3 -x,1/2+y,1/2-z
4 1/2-x,-y,1/2+z
_cell_length_a                   9.4602(7)
_cell_length_b                   9.5142(8)
_cell_length_c                   17.2812(13)
_cell_angle_alpha                90
_cell_angle_beta                 90
_cell_angle_gamma                90
_cell_volume                     1555.42
_exptl_crystal_colour            colorless
_exptl_crystal_description       block
_cell_formula_units_Z            4
loop_
_atom_site_label
_atom_site_type_symbol
_atom_site_fract_x
_atom_site_fract_y
_atom_site_fract_z
Br1 Br 0.61239(3) 0.67519(3) 0.04048(2)
O1 O 1.17573(19) 0.99904(19) 0.17437(12)
O2 O 1.39944(18) 0.9289(2) 0.15931(11)
N1 N 1.1014(2) 0.6561(2) 0.32560(11)
H1 H 1.0528 0.5800 0.3142
C1 C 1.3419(3) 0.6785(3) 0.22879(16)
H2 H 1.4272 0.6898 0.2004
H3 H 1.3254 0.5945 0.2571
C2 C 1.2456(2) 0.7803(3) 0.22880(14)
C3 C 1.2674(2) 0.9132(3) 0.18524(14)
C4 C 1.4257(3) 1.0542(3) 0.11389(18)
H4 H 1.3601 1.0570 0.0700
H5 H 1.5231 1.0528 0.0947
H6 H 1.4115 1.1376 0.1463
C5 C 1.1036(3) 0.7703(3) 0.27020(13)
H7 H 1.0864 0.8604 0.2984
C6 C 0.9837(2) 0.7470(3) 0.21334(13)
C7 C 0.8521(2) 0.8082(3) 0.22637(14)
H8 H 0.8388 0.8663 0.2705
C8 C 0.7404(3) 0.7858(3) 0.17624(15)
H9 H 0.6510 0.8282 0.1854
C9 C 0.7614(3) 0.7003(3) 0.11236(14)
C10 C 0.8899(3) 0.6366(3) 0.09855(14)
H10 H 0.9025 0.5770 0.0550
C11 C 1.0000(2) 0.6612(3) 0.14933(14)
H11 H 1.0890 0.6182 0.1401
C12 C 1.1727(2) 0.6611(3) 0.39607(13)
C13 C 1.2627(3) 0.7714(3) 0.41669(15)
H12 H 1.2755 0.8489 0.3827
C14 C 1.3335(3) 0.7672(3) 0.48723(16)
H13 H 1.3943 0.8426 0.5010
C15 C 1.3172(3) 0.6566(3) 0.53720(16)
H14 H 1.3674 0.6547 0.5848
C16 C 1.2266(3) 0.5473(3) 0.51753(15)
H15 H 1.2135 0.4710 0.5523
C17 C 1.1557(2) 0.5491(3) 0.44762(15)
H16 H 1.0947 0.4735 0.4345
loop_
_geom_bond_atom_site_label_1
_geom_bond_atom_site_label_2
_geom_bond_site_symmetry_1
_geom_bond_site_symmetry_2
Br1 C9 1_555 1_555
O1 C3 1_555 1_555
O2 C3 1_555 1_555
N1 H1 1_555 1_555
C1 H2 1_555 1_555
H3 C1 1_555 1_555
C2 C1 1_555 1_555
C3 C2 1_555 1_555
C4 O2 1_555 1_555
H4 C4 1_555 1_555
H5 C4 1_555 1_555
H6 C4 1_555 1_555
C5 N1 1_555 1_555
H7 C5 1_555 1_555
C6 C5 1_555 1_555
C7 C6 1_555 1_555
H8 C7 1_555 1_555
C8 C7 1_555 1_555
H9 C8 1_555 1_555
C9 C8 1_555 1_555
C10 C9 1_555 1_555
H10 C10 1_555 1_555
C11 C6 1_555 1_555
H11 C11 1_555 1_555
C12 N1 1_555 1_555
C13 C12 1_555 1_555
H12 C13 1_555 1_555
C14 C13 1_555 1_555
H13 C14 1_555 1_555
C15 C14 1_555 1_555
H14 C15 1_555 1_555
C16 C15 1_555 1_555
H15 C16 1_555 1_555
C17 C12 1_555 1_555
H16 C17 1_555 1_555
C2 C5 1_555 1_555
C10 C11 1_555 1_555
C16 C17 1_555 1_555

#END
