
#######################################################################
#
#                 Cambridge Crystallographic Data Centre
#                                CCDC 
#
#######################################################################
#
# If this CIF has been generated from an entry in the Cambridge 
# Structural Database, then it will include bibliographic, chemical, 
# crystal, experimental, refinement or atomic coordinate data resulting 
# from the CCDC's data processing and validation procedures.
#
#######################################################################

data_ZUZJAH
_chemical_formula_moiety         'C60 H62 B1 F2 N3 O8'
_chemical_name_systematic        
2,8-bis(4-t-butylphenyl)-5,5-difluoro-3,7-bis(4-methoxyphenyl)-1,9-bis(3,4,5-trimethoxyphenyl)-5H-dipyrrolo[1,2-c:2',1'-f][1,3,5,2]triazaborinine
_symmetry_cell_setting           monoclinic
_symmetry_space_group_name_H-M   'C 2/c'
_symmetry_Int_Tables_number      15
_space_group_name_Hall           '-C 2yn'
loop_
_symmetry_equiv_pos_site_id
_symmetry_equiv_pos_as_xyz
1 x,y,z
2 -x,y,1/2-z
3 1/2+x,1/2+y,z
4 1/2-x,1/2+y,1/2-z
5 -x,-y,-z
6 x,-y,1/2+z
7 1/2-x,1/2-y,-z
8 1/2+x,1/2-y,1/2+z
_cell_length_a                   21.309(3)
_cell_length_b                   23.961(3)
_cell_length_c                   13.3093(19)
_cell_angle_alpha                90
_cell_angle_beta                 121.450(2)
_cell_angle_gamma                90
_cell_volume                     5797.24
_exptl_crystal_colour            red
_exptl_crystal_description       block
_cell_formula_units_Z            4
loop_
_atom_site_label
_atom_site_type_symbol
_atom_site_fract_x
_atom_site_fract_y
_atom_site_fract_z
B1 B 0.0000 0.35412(16) 0.2500
C1 C 0.10891(12) 0.32771(9) 0.46400(19)
C2 C 0.14472(12) 0.27797(9) 0.52512(19)
C3 C 0.10813(12) 0.23373(9) 0.44901(18)
C4 C 0.05038(12) 0.25749(8) 0.34369(19)
C5 C 0.12792(12) 0.38531(9) 0.5067(2)
C6 C 0.0811(2) 0.41954(14) 0.5195(4)
H1 H 0.0344 0.4066 0.4973
C7 C 0.1018(2) 0.47323(17) 0.5649(4)
H2 H 0.0698 0.4956 0.5751
C8 C 0.16886(19) 0.49257(13) 0.5940(4)
C9 C 0.2166(2) 0.45909(15) 0.5846(4)
H3 H 0.2634 0.4721 0.6077
C10 C 0.19653(19) 0.40678(13) 0.5418(4)
H4 H 0.2301 0.3844 0.5358
C11 C 0.1546(3) 0.5777(2) 0.6714(7)
H5 H 0.1786 0.6131 0.6987
H6 H 0.1529 0.5592 0.7340
H7 H 0.1055 0.5832 0.6059
C12 C 0.20953(12) 0.27484(9) 0.6461(2)
C13 C 0.27022(12) 0.24277(10) 0.6712(2)
H8 H 0.2705 0.2237 0.6106
C14 C 0.33016(14) 0.23869(11) 0.7844(2)
H9 H 0.3700 0.2169 0.7980
C15 C 0.33300(13) 0.26590(11) 0.8779(2)
C16 C 0.27324(15) 0.29938(12) 0.8513(2)
H10 H 0.2738 0.3195 0.9116
C17 C 0.21276(14) 0.30387(12) 0.7383(2)
H11 H 0.1737 0.3268 0.7242
C18 C 0.39795(15) 0.26081(14) 1.0038(2)
C19 C 0.3735(3) 0.2419(4) 1.0844(5)
H12 H 0.4153 0.2390 1.1631
H13 H 0.3501 0.2061 1.0592
H14 H 0.3392 0.2684 1.0829
C20 C 0.4599(3) 0.2251(4) 1.0166(4)
H15 H 0.4748 0.2383 0.9641
H16 H 0.4435 0.1871 0.9975
H17 H 0.5008 0.2270 1.0962
C21 C 0.4314(4) 0.3212(3) 1.0476(6)
H18 H 0.4485 0.3355 0.9987
H19 H 0.4718 0.3192 1.1277
H20 H 0.3942 0.3456 1.0431
C22 C 0.11809(11) 0.17301(9) 0.46613(19)
C23 C 0.12755(12) 0.14764(9) 0.56694(19)
H21 H 0.1329 0.1692 0.6290
C24 C 0.12889(14) 0.08990(10) 0.5745(2)
C25 C 0.12326(15) 0.05745(10) 0.4843(2)
C26 C 0.11354(16) 0.08304(10) 0.3837(2)
C27 C 0.11162(14) 0.14073(10) 0.3753(2)
H22 H 0.1059 0.1578 0.3082
C28 C 0.1376(2) 0.09116(13) 0.7609(3)
H23 H 0.1791 0.1159 0.7941
H24 H 0.1426 0.0657 0.8204
H25 H 0.0932 0.1125 0.7316
C29 C 0.1979(4) -0.0236(2) 0.5752(5)
H26 H 0.1948 -0.0636 0.5757
H27 H 0.2150 -0.0095 0.6528
H28 H 0.2317 -0.0130 0.5514
C30 C 0.0853(4) 0.0737(2) 0.1838(4)
H29 H 0.0832 0.0455 0.1308
H30 H 0.1211 0.1013 0.1953
H31 H 0.0379 0.0910 0.1509
F1 F 0.04110(12) 0.38611(9) 0.22178(15)
N1 N 0.05174(10) 0.31541(7) 0.35396(16)
N2 N 0.0000 0.22963(10) 0.2500
O1 O 0.19343(15) 0.54519(10) 0.6365(3)
O2 O 0.13444(12) 0.06068(7) 0.66715(16)
O3 O 0.12403(13) -0.00011(7) 0.49123(19)
O4 O 0.10643(14) 0.04801(8) 0.29755(18)
C1A C -0.10891(12) 0.32771(9) 0.03600(19)
C2A C -0.14472(12) 0.27797(9) -0.02512(19)
C3A C -0.10813(12) 0.23373(9) 0.05099(18)
C4A C -0.05038(12) 0.25749(8) 0.15631(19)
C5A C -0.12792(12) 0.38531(9) -0.0067(2)
C6A C -0.0811(2) 0.41954(14) -0.0195(4)
H1A H -0.0344 0.4066 0.0027
C7A C -0.1018(2) 0.47323(17) -0.0649(4)
H2A H -0.0698 0.4956 -0.0751
C8A C -0.16886(19) 0.49257(13) -0.0940(4)
C9A C -0.2166(2) 0.45909(15) -0.0846(4)
H3A H -0.2634 0.4721 -0.1077
C10A C -0.19653(19) 0.40678(13) -0.0418(4)
H4A H -0.2301 0.3844 -0.0358
C11A C -0.1546(3) 0.5777(2) -0.1714(7)
H5A H -0.1786 0.6131 -0.1987
H6A H -0.1529 0.5592 -0.2340
H7A H -0.1055 0.5832 -0.1059
C12A C -0.20953(12) 0.27484(9) -0.1461(2)
C13A C -0.27022(12) 0.24277(10) -0.1712(2)
H8A H -0.2705 0.2237 -0.1106
C14A C -0.33016(14) 0.23869(11) -0.2844(2)
H9A H -0.3700 0.2169 -0.2980
C15A C -0.33300(13) 0.26590(11) -0.3779(2)
C16A C -0.27324(15) 0.29938(12) -0.3513(2)
H10A H -0.2738 0.3195 -0.4116
C17A C -0.21276(14) 0.30387(12) -0.2383(2)
H11A H -0.1737 0.3268 -0.2242
C18A C -0.39795(15) 0.26081(14) -0.5038(2)
C19A C -0.3735(3) 0.2419(4) -0.5844(5)
H12A H -0.4153 0.2390 -0.6631
H13A H -0.3501 0.2061 -0.5592
H14A H -0.3392 0.2684 -0.5829
C20A C -0.4599(3) 0.2251(4) -0.5166(4)
H15A H -0.4748 0.2383 -0.4641
H16A H -0.4435 0.1871 -0.4975
H17A H -0.5008 0.2270 -0.5962
C21A C -0.4314(4) 0.3212(3) -0.5476(6)
H18A H -0.4485 0.3355 -0.4987
H19A H -0.4718 0.3192 -0.6277
H20A H -0.3942 0.3456 -0.5431
C22A C -0.11809(11) 0.17301(9) 0.03387(19)
C23A C -0.12755(12) 0.14764(9) -0.06694(19)
H21A H -0.1329 0.1692 -0.1290
C24A C -0.12889(14) 0.08990(10) -0.0745(2)
C25A C -0.12326(15) 0.05745(10) 0.0157(2)
C26A C -0.11354(16) 0.08304(10) 0.1163(2)
C27A C -0.11162(14) 0.14073(10) 0.1247(2)
H22A H -0.1059 0.1578 0.1918
C28A C -0.1376(2) 0.09116(13) -0.2609(3)
H23A H -0.1791 0.1159 -0.2941
H24A H -0.1426 0.0657 -0.3204
H25A H -0.0932 0.1125 -0.2316
C29A C -0.1979(4) -0.0236(2) -0.0752(5)
H26A H -0.1948 -0.0636 -0.0757
H27A H -0.2150 -0.0095 -0.1528
H28A H -0.2317 -0.0130 -0.0514
C30A C -0.0853(4) 0.0737(2) 0.3162(4)
H29A H -0.0832 0.0455 0.3692
H30A H -0.1211 0.1013 0.3047
H31A H -0.0379 0.0910 0.3491
F1A F -0.04110(12) 0.38611(9) 0.27822(15)
N1A N -0.05174(10) 0.31541(7) 0.14604(16)
O1A O -0.19343(15) 0.54519(10) -0.1365(3)
O2A O -0.13444(12) 0.06068(7) -0.16715(16)
O3A O -0.12403(13) -0.00011(7) 0.00877(19)
O4A O -0.10643(14) 0.04801(8) 0.20245(18)
C31? C 0.4615(8) 0.2824(11) 1.0074(13)
H32? H 0.5032 0.2796 1.0862
H33? H 0.4533 0.3208 0.9835
H34? H 0.4706 0.2613 0.9550
C32? C 0.3860(9) 0.2942(10) 1.0890(11)
H35? H 0.3408 0.2829 1.0822
H36? H 0.3837 0.3332 1.0708
H37? H 0.4261 0.2877 1.1679
C33? C 0.3918(10) 0.1965(9) 1.0405(14)
H38? H 0.3453 0.1914 1.0345
H39? H 0.4308 0.1895 1.1200
H40? H 0.3957 0.1709 0.9884
C34? C 0.0469(6) -0.0251(3) 0.4141(10)
H41? H 0.0497 -0.0650 0.4211
H42? H 0.0275 -0.0148 0.3335
H43? H 0.0152 -0.0111 0.4396
C35? C 0.1310(7) 0.0741(4) 0.2285(10)
H44? H 0.1270 0.0484 0.1702
H45? H 0.1814 0.0853 0.2784
H46? H 0.1013 0.1064 0.1903
C36? C 0.1634(7) 0.4150(4) 0.4758(10)
H47? H 0.1794 0.3968 0.4314
C37? C 0.1147(7) 0.4002(4) 0.5941(10)
H48? H 0.0954 0.3740 0.6223
C38? C 0.1829(7) 0.4732(4) 0.4990(10)
H49? H 0.2010 0.4951 0.4619
C39? C 0.1306(7) 0.4568(4) 0.6430(10)
H50? H 0.1189 0.4697 0.6973
C40? C 0.1889(7) 0.5615(4) 0.7432(10)
H51? H 0.2070 0.5989 0.7667
H52? H 0.2181 0.5363 0.8069
H53? H 0.1386 0.5597 0.7231
loop_
_geom_bond_atom_site_label_1
_geom_bond_atom_site_label_2
_geom_bond_site_symmetry_1
_geom_bond_site_symmetry_2
B1 F1 1_555 1_555
C1 C2 1_555 1_555
C2 C3 1_555 1_555
C3 C4 1_555 1_555
C4 N1 1_555 1_555
C5 C1 1_555 1_555
C6 C5 1_555 1_555
H1 C6 1_555 1_555
C7 C6 1_555 1_555
H2 C7 1_555 1_555
C8 C7 1_555 1_555
C9 C8 1_555 1_555
H3 C9 1_555 1_555
C10 C5 1_555 1_555
H4 C10 1_555 1_555
C11 H5 1_555 1_555
H6 C11 1_555 1_555
H7 C11 1_555 1_555
C12 C2 1_555 1_555
C13 C12 1_555 1_555
H8 C13 1_555 1_555
C14 C13 1_555 1_555
H9 C14 1_555 1_555
C15 C14 1_555 1_555
C16 C15 1_555 1_555
H10 C16 1_555 1_555
C17 C12 1_555 1_555
H11 C17 1_555 1_555
C18 C15 1_555 1_555
C19 C18 1_555 1_555
H12 C19 1_555 1_555
H13 C19 1_555 1_555
H14 C19 1_555 1_555
C20 C18 1_555 1_555
H15 C20 1_555 1_555
H16 C20 1_555 1_555
H17 C20 1_555 1_555
C21 C18 1_555 1_555
H18 C21 1_555 1_555
H19 C21 1_555 1_555
H20 C21 1_555 1_555
C22 C3 1_555 1_555
C23 C22 1_555 1_555
H21 C23 1_555 1_555
C24 C23 1_555 1_555
C25 C24 1_555 1_555
C26 C25 1_555 1_555
C27 C22 1_555 1_555
H22 C27 1_555 1_555
C28 H23 1_555 1_555
H24 C28 1_555 1_555
H25 C28 1_555 1_555
C29 H26 1_555 1_555
H27 C29 1_555 1_555
H28 C29 1_555 1_555
C30 H29 1_555 1_555
H30 C30 1_555 1_555
H31 C30 1_555 1_555
N1 B1 1_555 1_555
N2 C4 1_555 1_555
O1 C8 1_555 1_555
O2 C24 1_555 1_555
O3 C25 1_555 1_555
O4 C26 1_555 1_555
C1A C2A 1_555 1_555
C2A C3A 1_555 1_555
C3A C4A 1_555 1_555
C4A N2 1_555 1_555
C5A C1A 1_555 1_555
C6A C5A 1_555 1_555
H1A C6A 1_555 1_555
C7A C6A 1_555 1_555
H2A C7A 1_555 1_555
C8A C7A 1_555 1_555
C9A C8A 1_555 1_555
H3A C9A 1_555 1_555
C10A C5A 1_555 1_555
H4A C10A 1_555 1_555
C11A H5A 1_555 1_555
H6A C11A 1_555 1_555
H7A C11A 1_555 1_555
C12A C2A 1_555 1_555
C13A C12A 1_555 1_555
H8A C13A 1_555 1_555
C14A C13A 1_555 1_555
H9A C14A 1_555 1_555
C15A C14A 1_555 1_555
C16A C15A 1_555 1_555
H10A C16A 1_555 1_555
C17A C12A 1_555 1_555
H11A C17A 1_555 1_555
C18A C15A 1_555 1_555
C19A C18A 1_555 1_555
H12A C19A 1_555 1_555
H13A C19A 1_555 1_555
H14A C19A 1_555 1_555
C20A C18A 1_555 1_555
H15A C20A 1_555 1_555
H16A C20A 1_555 1_555
H17A C20A 1_555 1_555
C21A C18A 1_555 1_555
H18A C21A 1_555 1_555
H19A C21A 1_555 1_555
H20A C21A 1_555 1_555
C22A C3A 1_555 1_555
C23A C22A 1_555 1_555
H21A C23A 1_555 1_555
C24A C23A 1_555 1_555
C25A C24A 1_555 1_555
C26A C25A 1_555 1_555
C27A C22A 1_555 1_555
H22A C27A 1_555 1_555
C28A H23A 1_555 1_555
H24A C28A 1_555 1_555
H25A C28A 1_555 1_555
C29A H26A 1_555 1_555
H27A C29A 1_555 1_555
H28A C29A 1_555 1_555
C30A H29A 1_555 1_555
H30A C30A 1_555 1_555
H31A C30A 1_555 1_555
F1A B1 1_555 1_555
N1A B1 1_555 1_555
O1A C8A 1_555 1_555
O2A C24A 1_555 1_555
O3A C25A 1_555 1_555
O4A C26A 1_555 1_555
C1 N1 1_555 1_555
C9 C10 1_555 1_555
C11 O1 1_555 1_555
C16 C17 1_555 1_555
C26 C27 1_555 1_555
C28 O2 1_555 1_555
C29 O3 1_555 1_555
C30 O4 1_555 1_555
C1A N1A 1_555 1_555
C4A N1A 1_555 1_555
C9A C10A 1_555 1_555
C11A O1A 1_555 1_555
C16A C17A 1_555 1_555
C26A C27A 1_555 1_555
C28A O2A 1_555 1_555
C29A O3A 1_555 1_555
C30A O4A 1_555 1_555

#END
