
#######################################################################
#
#                 Cambridge Crystallographic Data Centre
#                                CCDC 
#
#######################################################################
#
# If this CIF has been generated from an entry in the Cambridge 
# Structural Database, then it will include bibliographic, chemical, 
# crystal, experimental, refinement or atomic coordinate data resulting 
# from the CCDC's data processing and validation procedures.
#
#######################################################################

data_ZUZTAR
_chemical_formula_moiety         'C22 H19 N1 O3 S1'
_chemical_name_systematic        
5-((4-Methylphenyl)sulfonyl)-4b,10-dihydroindeno[1,2-b]indol-9b(5H)-ol
_symmetry_cell_setting           triclinic
_symmetry_space_group_name_H-M   'P -1'
_symmetry_Int_Tables_number      2
_space_group_name_Hall           '-P 1'
loop_
_symmetry_equiv_pos_site_id
_symmetry_equiv_pos_as_xyz
1 x,y,z
2 -x,-y,-z
_cell_length_a                   10.3808(9)
_cell_length_b                   12.5120(11)
_cell_length_c                   15.6316(14)
_cell_angle_alpha                86.632(7)
_cell_angle_beta                 72.506(8)
_cell_angle_gamma                75.397(7)
_cell_volume                     1873.53
_exptl_crystal_colour            red
_exptl_crystal_description       parallelepiped
_cell_formula_units_Z            4
loop_
_atom_site_label
_atom_site_type_symbol
_atom_site_fract_x
_atom_site_fract_y
_atom_site_fract_z
S1 S 0.90645(7) 0.30532(6) 0.47291(5)
O1 O 0.9162(2) 0.40002(18) 0.51522(14)
O2 O 0.8102(2) 0.24238(19) 0.51971(13)
O3 O 0.9734(2) 0.17535(16) 0.21322(14)
H1 H 1.009(6) 0.172(5) 0.155(4)
N1 N 0.8599(2) 0.35044(19) 0.38258(15)
C1 C 1.0737(3) 0.2171(3) 0.43745(18)
C2 C 1.1904(3) 0.2596(3) 0.41582(19)
H2 H 1.1799 0.3370 0.4199
C3 C 1.3230(3) 0.1888(3) 0.3881(2)
H3 H 1.4027 0.2183 0.3715
C4 C 1.3394(3) 0.0749(3) 0.3843(2)
C5 C 1.2214(4) 0.0339(3) 0.4059(2)
H4 H 1.2315 -0.0436 0.4031
C6 C 1.0885(3) 0.1042(3) 0.4314(2)
H5 H 1.0086 0.0752 0.4446
C7 C 1.4838(4) -0.0011(3) 0.3591(3)
H6 H 1.4771 -0.0778 0.3590
H7 H 1.5311 0.0081 0.4028
H8 H 1.5369 0.0171 0.2992
C8 C 0.9408(3) 0.4080(2) 0.3141(2)
C9 C 1.0021(3) 0.4911(3) 0.3241(2)
H9 H 0.9963 0.5157 0.3818
C10 C 1.0723(3) 0.5371(3) 0.2465(2)
H10 H 1.1172 0.5929 0.2514
C11 C 1.0784(3) 0.5036(3) 0.1630(2)
H11 H 1.1262 0.5372 0.1111
C12 C 1.0154(3) 0.4212(3) 0.1536(2)
H12 H 1.0195 0.3982 0.0958
C13 C 0.9465(3) 0.3733(2) 0.22991(19)
C14 C 0.8746(3) 0.2808(2) 0.23691(18)
C15 C 0.7626(3) 0.3012(3) 0.18839(19)
H13 H 0.7542 0.2308 0.1676
H14 H 0.7844 0.3493 0.1362
C16 C 0.6304(3) 0.3576(2) 0.2588(2)
C17 C 0.5037(3) 0.4158(3) 0.2493(2)
H15 H 0.4899 0.4246 0.1917
C18 C 0.3964(3) 0.4615(3) 0.3250(2)
H16 H 0.3093 0.5024 0.3189
C19 C 0.4154(3) 0.4479(3) 0.4093(2)
H17 H 0.3409 0.4788 0.4605
C20 C 0.5417(3) 0.3899(2) 0.4195(2)
H18 H 0.5549 0.3809 0.4773
C21 C 0.6494(3) 0.3449(2) 0.34366(19)
C22 C 0.7959(3) 0.2836(2) 0.33932(18)
H19 H 0.8009 0.2079 0.3647
S2 S 0.15860(8) 0.17105(7) 0.95658(5)
O4 O 0.1979(2) 0.26803(18) 0.97324(14)
O5 O 0.0535(2) 0.13243(19) 1.02599(13)
O6 O 0.1719(2) -0.01202(18) 0.73498(14)
H20 H 0.119(4) -0.059(3) 0.754(2)
N2 N 0.0938(2) 0.1993(2) 0.87180(15)
C23 C 0.3097(3) 0.0631(3) 0.92475(19)
C24 C 0.4387(3) 0.0879(3) 0.8965(2)
H21 H 0.4451 0.1623 0.8960
C25 C 0.5583(3) 0.0029(3) 0.8690(2)
H22 H 0.6466 0.0200 0.8503
C26 C 0.5522(3) -0.1064(3) 0.8681(2)
C27 C 0.4208(3) -0.1285(3) 0.8977(2)
H23 H 0.4142 -0.2030 0.8991
C28 C 0.3002(3) -0.0454(3) 0.9252(2)
H24 H 0.2118 -0.0624 0.9442
C29 C 0.6817(3) -0.1989(3) 0.8390(2)
H25 H 0.6557 -0.2695 0.8430
H26 H 0.7401 -0.1997 0.8782
H27 H 0.7338 -0.1877 0.7769
C30 C 0.1758(3) 0.2330(2) 0.78838(18)
C31 C 0.2522(3) 0.3116(3) 0.7744(2)
H28 H 0.2589 0.3492 0.8234
C32 C 0.3188(3) 0.3340(3) 0.6864(2)
H29 H 0.3741 0.3862 0.6747
C33 C 0.3054(3) 0.2806(3) 0.6153(2)
H30 H 0.3499 0.2980 0.5555
C34 C 0.2287(3) 0.2028(3) 0.6302(2)
H31 H 0.2209 0.1662 0.5811
C35 C 0.1627(3) 0.1784(2) 0.71740(19)
C36 C 0.0782(3) 0.0944(2) 0.75018(18)
C37 C -0.0439(3) 0.1058(3) 0.7109(2)
H32 H -0.0221 0.1358 0.6497
H33 H -0.0654 0.0335 0.7087
C38 C -0.1639(3) 0.1849(2) 0.7747(2)
C39 C -0.2901(3) 0.2424(3) 0.7627(2)
H34 H -0.3102 0.2350 0.7082
C40 C -0.3858(3) 0.3104(3) 0.8313(2)
H35 H -0.4726 0.3502 0.8240
C41 C -0.3567(3) 0.3213(3) 0.9109(2)
H36 H -0.4240 0.3682 0.9576
C42 C -0.2306(3) 0.2647(3) 0.9230(2)
H37 H -0.2106 0.2723 0.9774
C43 C -0.1343(3) 0.1966(2) 0.85396(19)
C44 C 0.0094(3) 0.1283(2) 0.85129(18)
H38 H 0.0061 0.0629 0.8910
loop_
_geom_bond_atom_site_label_1
_geom_bond_atom_site_label_2
_geom_bond_site_symmetry_1
_geom_bond_site_symmetry_2
S1 O1 1_555 1_555
O2 S1 1_555 1_555
O3 H1 1_555 1_555
N1 S1 1_555 1_555
C1 S1 1_555 1_555
C2 C1 1_555 1_555
H2 C2 1_555 1_555
C3 C2 1_555 1_555
H3 C3 1_555 1_555
C4 C3 1_555 1_555
C5 C4 1_555 1_555
H4 C5 1_555 1_555
C6 C1 1_555 1_555
H5 C6 1_555 1_555
C7 C4 1_555 1_555
H6 C7 1_555 1_555
H7 C7 1_555 1_555
H8 C7 1_555 1_555
C8 N1 1_555 1_555
C9 C8 1_555 1_555
H9 C9 1_555 1_555
C10 C9 1_555 1_555
H10 C10 1_555 1_555
C11 C10 1_555 1_555
H11 C11 1_555 1_555
C12 C11 1_555 1_555
H12 C12 1_555 1_555
C13 C8 1_555 1_555
C14 O3 1_555 1_555
C15 C14 1_555 1_555
H13 C15 1_555 1_555
H14 C15 1_555 1_555
C16 C15 1_555 1_555
C17 C16 1_555 1_555
H15 C17 1_555 1_555
C18 C17 1_555 1_555
H16 C18 1_555 1_555
C19 C18 1_555 1_555
H17 C19 1_555 1_555
C20 C19 1_555 1_555
H18 C20 1_555 1_555
C21 C16 1_555 1_555
C22 N1 1_555 1_555
H19 C22 1_555 1_555
S2 O4 1_555 1_555
O5 S2 1_555 1_555
O6 H20 1_555 1_555
N2 S2 1_555 1_555
C23 S2 1_555 1_555
C24 C23 1_555 1_555
H21 C24 1_555 1_555
C25 C24 1_555 1_555
H22 C25 1_555 1_555
C26 C25 1_555 1_555
C27 C26 1_555 1_555
H23 C27 1_555 1_555
C28 C23 1_555 1_555
H24 C28 1_555 1_555
C29 C26 1_555 1_555
H25 C29 1_555 1_555
H26 C29 1_555 1_555
H27 C29 1_555 1_555
C30 N2 1_555 1_555
C31 C30 1_555 1_555
H28 C31 1_555 1_555
C32 C31 1_555 1_555
H29 C32 1_555 1_555
C33 C32 1_555 1_555
H30 C33 1_555 1_555
C34 C33 1_555 1_555
H31 C34 1_555 1_555
C35 C30 1_555 1_555
C36 O6 1_555 1_555
C37 C36 1_555 1_555
H32 C37 1_555 1_555
H33 C37 1_555 1_555
C38 C37 1_555 1_555
C39 C38 1_555 1_555
H34 C39 1_555 1_555
C40 C39 1_555 1_555
H35 C40 1_555 1_555
C41 C40 1_555 1_555
H36 C41 1_555 1_555
C42 C41 1_555 1_555
H37 C42 1_555 1_555
C43 C38 1_555 1_555
C44 N2 1_555 1_555
H38 C44 1_555 1_555
C5 C6 1_555 1_555
C12 C13 1_555 1_555
C13 C14 1_555 1_555
C14 C22 1_555 1_555
C20 C21 1_555 1_555
C21 C22 1_555 1_555
C27 C28 1_555 1_555
C34 C35 1_555 1_555
C35 C36 1_555 1_555
C36 C44 1_555 1_555
C42 C43 1_555 1_555
C43 C44 1_555 1_555

#END
