
#######################################################################
#
#                 Cambridge Crystallographic Data Centre
#                                CCDC 
#
#######################################################################
#
# If this CIF has been generated from an entry in the Cambridge 
# Structural Database, then it will include bibliographic, chemical, 
# crystal, experimental, refinement or atomic coordinate data resulting 
# from the CCDC's data processing and validation procedures.
#
#######################################################################

data_ZUZTEV
_chemical_formula_moiety         'C22 H18 N2 O5 S1'
_chemical_name_systematic        
4b-Methyl-10-((4-methylphenyl)sulfonyl)-8-nitro-9b,10-dihydro-4bH-[1]benzofuro[3,2-b]indole
_symmetry_cell_setting           monoclinic
_symmetry_space_group_name_H-M   'P 21/c'
_symmetry_Int_Tables_number      14
_space_group_name_Hall           '-P 2ybc'
loop_
_symmetry_equiv_pos_site_id
_symmetry_equiv_pos_as_xyz
1 x,y,z
2 -x,1/2+y,1/2-z
3 -x,-y,-z
4 x,1/2-y,1/2+z
_cell_length_a                   10.4548(7)
_cell_length_b                   8.9291(4)
_cell_length_c                   22.1835(14)
_cell_angle_alpha                90
_cell_angle_beta                 101.800(6)
_cell_angle_gamma                90
_cell_volume                     2027.11
_exptl_crystal_colour            colorless
_exptl_crystal_description       parallelepiped
_cell_formula_units_Z            4
loop_
_atom_site_label
_atom_site_type_symbol
_atom_site_fract_x
_atom_site_fract_y
_atom_site_fract_z
S1 S 0.07205(5) 0.19614(6) 0.19472(3)
O1 O 0.08998(17) 0.22434(19) 0.25949(7)
O2 O 0.10467(18) 0.05308(16) 0.17355(9)
O3 O 0.34892(16) 0.61871(18) 0.16514(7)
O4 O 0.4246(3) 0.3063(3) 0.41829(11)
O5 O 0.6111(2) 0.4163(3) 0.42984(9)
N1 N 0.16581(16) 0.31885(18) 0.16889(8)
N2 N 0.5018(3) 0.3874(3) 0.39974(10)
C1 C -0.0908(2) 0.2360(2) 0.15992(9)
C2 C -0.1573(2) 0.3444(3) 0.18536(11)
H1 H -0.1177 0.3938 0.2212
C3 C -0.2842(3) 0.3782(3) 0.15653(14)
H2 H -0.3292 0.4524 0.1731
C4 C -0.3460(2) 0.3046(3) 0.10385(12)
C5 C -0.2776(2) 0.1957(3) 0.08004(12)
H3 H -0.3179 0.1446 0.0447
C6 C -0.1507(2) 0.1608(3) 0.10727(11)
H4 H -0.1058 0.0872 0.0904
C7 C -0.4851(3) 0.3436(5) 0.07311(17)
H5 H -0.5122 0.2815 0.0375
H6 H -0.4894 0.4469 0.0609
H7 H -0.5417 0.3270 0.1015
C8 C 0.16831(19) 0.3324(2) 0.10494(9)
C9 C 0.1556(2) 0.2199(3) 0.06103(11)
H8 H 0.1410 0.1209 0.0708
C10 C 0.1655(3) 0.2611(3) 0.00198(13)
H9 H 0.1576 0.1878 -0.0283
C11 C 0.1866(3) 0.4071(4) -0.01330(12)
H10 H 0.1914 0.4312 -0.0536
C12 C 0.2007(2) 0.5179(3) 0.03097(11)
H11 H 0.2159 0.6166 0.0210
C13 C 0.1917(2) 0.4797(2) 0.09033(10)
C14 C 0.2092(2) 0.5768(2) 0.14614(10)
C15 C 0.1815(2) 0.4715(2) 0.19784(9)
H12 H 0.1037 0.5023 0.2129
C16 C 0.3037(2) 0.4844(2) 0.24675(9)
C17 C 0.3369(2) 0.4257(2) 0.30537(10)
H13 H 0.2775 0.3701 0.3221
C18 C 0.4622(2) 0.4528(3) 0.33833(10)
C19 C 0.5524(2) 0.5357(3) 0.31512(11)
H14 H 0.6357 0.5510 0.3387
C20 C 0.5187(3) 0.5957(3) 0.25684(11)
H15 H 0.5777 0.6531 0.2405
C21 C 0.3942(2) 0.5679(2) 0.22341(10)
C22 C 0.1312(3) 0.7204(3) 0.13878(13)
H16 H 0.1537 0.7789 0.1062
H17 H 0.1507 0.7763 0.1765
H18 H 0.0396 0.6973 0.1290
loop_
_geom_bond_atom_site_label_1
_geom_bond_atom_site_label_2
_geom_bond_site_symmetry_1
_geom_bond_site_symmetry_2
S1 O1 1_555 1_555
O2 S1 1_555 1_555
O3 C14 1_555 1_555
O4 N2 1_555 1_555
O5 N2 1_555 1_555
N1 S1 1_555 1_555
N2 C18 1_555 1_555
C1 S1 1_555 1_555
C2 C1 1_555 1_555
H1 C2 1_555 1_555
C3 C2 1_555 1_555
H2 C3 1_555 1_555
C4 C3 1_555 1_555
C5 C4 1_555 1_555
H3 C5 1_555 1_555
C6 C1 1_555 1_555
H4 C6 1_555 1_555
C7 C4 1_555 1_555
H5 C7 1_555 1_555
H6 C7 1_555 1_555
H7 C7 1_555 1_555
C8 N1 1_555 1_555
C9 C8 1_555 1_555
H8 C9 1_555 1_555
C10 C9 1_555 1_555
H9 C10 1_555 1_555
C11 C10 1_555 1_555
H10 C11 1_555 1_555
C12 C11 1_555 1_555
H11 C12 1_555 1_555
C13 C8 1_555 1_555
C14 C13 1_555 1_555
C15 N1 1_555 1_555
H12 C15 1_555 1_555
C16 C15 1_555 1_555
C17 C16 1_555 1_555
H13 C17 1_555 1_555
C18 C17 1_555 1_555
C19 C18 1_555 1_555
H14 C19 1_555 1_555
C20 C19 1_555 1_555
H15 C20 1_555 1_555
C21 O3 1_555 1_555
C22 C14 1_555 1_555
H16 C22 1_555 1_555
H17 C22 1_555 1_555
H18 C22 1_555 1_555
C5 C6 1_555 1_555
C12 C13 1_555 1_555
C14 C15 1_555 1_555
C16 C21 1_555 1_555
C20 C21 1_555 1_555

#END
