
#######################################################################
#
#                 Cambridge Crystallographic Data Centre
#                                CCDC 
#
#######################################################################
#
# If this CIF has been generated from an entry in the Cambridge 
# Structural Database, then it will include bibliographic, chemical, 
# crystal, experimental, refinement or atomic coordinate data resulting 
# from the CCDC's data processing and validation procedures.
#
#######################################################################

data_ZUZWUM
_chemical_formula_moiety         'C8 H6 Cl2 O4'
_chemical_name_systematic        3,5-Dichloro-2,6-dimethoxybenzoquinone
_symmetry_cell_setting           orthorhombic
_symmetry_space_group_name_H-M   'P n m a'
_symmetry_Int_Tables_number      62
_space_group_name_Hall           '-P 2ac 2n'
loop_
_symmetry_equiv_pos_site_id
_symmetry_equiv_pos_as_xyz
1 x,y,z
2 1/2-x,-y,1/2+z
3 1/2+x,1/2-y,1/2-z
4 -x,1/2+y,-z
5 -x,-y,-z
6 1/2+x,y,1/2-z
7 1/2-x,1/2+y,1/2+z
8 x,1/2-y,z
_cell_length_a                   9.840(7)
_cell_length_b                   16.198(12)
_cell_length_c                   5.690(4)
_cell_angle_alpha                90
_cell_angle_beta                 90
_cell_angle_gamma                90
_cell_volume                     906.92
_exptl_crystal_colour            orange
_chemical_melting_point          '428-429 K'
_cell_formula_units_Z            4
loop_
_atom_site_label
_atom_site_type_symbol
_atom_site_fract_x
_atom_site_fract_y
_atom_site_fract_z
Cl1 Cl 0.77934(5) 0.41765(3) 0.22049(9)
O1 O 0.8619(2) 0.2500 0.0886(3)
O2 O 0.60524(13) 0.40178(7) 0.6233(2)
O3 O 0.5719(2) 0.2500 0.8630(3)
C1 C 0.7813(2) 0.2500 0.2507(4)
C2 C 0.7284(2) 0.32727(10) 0.3518(3)
C3 C 0.6453(2) 0.32901(9) 0.5384(3)
C4 C 0.6136(2) 0.2500 0.6631(4)
C5 C 0.4890(2) 0.40990(13) 0.7762(3)
H1 H 0.4526(8) 0.4654(3) 0.7638(17)
H2 H 0.5164(3) 0.3994(8) 0.9372(4)
H3 H 0.4199(6) 0.3704(6) 0.7303(15)
C2G C 0.7284(2) 0.17273(10) 0.3518(3)
Cl1G Cl 0.77934(5) 0.08235(3) 0.22049(9)
C3G C 0.6453(2) 0.17099(9) 0.5384(3)
O2G O 0.60524(13) 0.09822(7) 0.6233(2)
C5G C 0.4890(2) 0.09010(13) 0.7762(3)
H1G H 0.4526(8) 0.0346(3) 0.7638(17)
H2G H 0.5164(3) 0.1006(8) 0.9372(4)
H3G H 0.4199(6) 0.1296(6) 0.7303(15)
loop_
_geom_bond_atom_site_label_1
_geom_bond_atom_site_label_2
_geom_bond_site_symmetry_1
_geom_bond_site_symmetry_2
Cl1 C2 1_555 1_555
O1 C1 1_555 1_555
O2 C3 1_555 1_555
O3 C4 1_555 1_555
C1 C2 1_555 1_555
C2 C3 1_555 1_555
C3 C4 1_555 1_555
C4 C3G 1_555 1_555
C5 O2 1_555 1_555
H1 C5 1_555 1_555
H2 C5 1_555 1_555
H3 C5 1_555 1_555
C2G C1 1_555 1_555
Cl1G C2G 1_555 1_555
C3G C2G 1_555 1_555
O2G C3G 1_555 1_555
C5G O2G 1_555 1_555
H1G C5G 1_555 1_555
H2G C5G 1_555 1_555
H3G C5G 1_555 1_555

#END
