
#######################################################################
#
#                 Cambridge Crystallographic Data Centre
#                                CCDC 
#
#######################################################################
#
# If this CIF has been generated from an entry in the Cambridge 
# Structural Database, then it will include bibliographic, chemical, 
# crystal, experimental, refinement or atomic coordinate data resulting 
# from the CCDC's data processing and validation procedures.
#
#######################################################################

data_ZUZXUP
_chemical_formula_moiety         'C16 H12 N6 S1'
_chemical_name_systematic        
4,4'-(sulfanediyldi-4,1-phenylene)bis(4H-1,2,4-triazole)
_symmetry_cell_setting           orthorhombic
_symmetry_space_group_name_H-M   'P c c n'
_symmetry_Int_Tables_number      56
_space_group_name_Hall           '-P 2ab 2ac'
loop_
_symmetry_equiv_pos_site_id
_symmetry_equiv_pos_as_xyz
1 x,y,z
2 1/2-x,1/2-y,z
3 -x,1/2+y,1/2-z
4 1/2+x,-y,1/2-z
5 -x,-y,-z
6 1/2+x,1/2+y,-z
7 x,1/2-y,1/2+z
8 1/2-x,y,1/2+z
_cell_length_a                   12.0045(11)
_cell_length_b                   10.8025(9)
_cell_length_c                   11.0878(10)
_cell_angle_alpha                90
_cell_angle_beta                 90
_cell_angle_gamma                90
_cell_volume                     1437.85
_exptl_crystal_colour            brown
_exptl_crystal_description       BLOCK
_cell_formula_units_Z            4
loop_
_atom_site_label
_atom_site_type_symbol
_atom_site_fract_x
_atom_site_fract_y
_atom_site_fract_z
S1 S 0.7500 0.2500 0.36312(5)
N1 N 0.36416(9) 0.12796(11) 0.04390(11)
N2 N 0.20034(10) 0.06273(12) -0.01755(11)
N3 N 0.26511(11) 0.08847(13) -0.11898(11)
C1 C 0.63857(11) 0.21458(13) 0.26375(12)
C2 C 0.56690(11) 0.11813(13) 0.29580(13)
H1 H 0.5811 0.0710 0.3665
C3 C 0.47471(11) 0.09080(13) 0.22451(13)
H2 H 0.4255 0.0258 0.2465
C4 C 0.45557(11) 0.15970(13) 0.12080(12)
C5 C 0.52495(12) 0.25732(13) 0.08948(13)
H3 H 0.5095 0.3053 0.0196
C6 C 0.61690(11) 0.28474(13) 0.16048(13)
H4 H 0.6650 0.3510 0.1389
C7 C 0.26132(11) 0.08635(14) 0.07710(14)
H5 H 0.2374 0.0760 0.1581
C8 C 0.36161(12) 0.12746(14) -0.07923(13)
H6 H 0.4218 0.1521 -0.1294
N1A N 1.13584(9) 0.37204(11) 0.04390(11)
N2A N 1.29966(10) 0.43727(12) -0.01755(11)
N3A N 1.23489(11) 0.41153(13) -0.11898(11)
C1A C 0.86143(11) 0.28542(13) 0.26375(12)
C2A C 0.93310(11) 0.38187(13) 0.29580(13)
H1A H 0.9189 0.4290 0.3665
C3A C 1.02529(11) 0.40920(13) 0.22451(13)
H2A H 1.0745 0.4742 0.2465
C4A C 1.04443(11) 0.34030(13) 0.12080(12)
C5A C 0.97505(12) 0.24268(13) 0.08948(13)
H3A H 0.9905 0.1947 0.0196
C6A C 0.88310(11) 0.21526(13) 0.16048(13)
H4A H 0.8350 0.1490 0.1389
C7A C 1.23868(11) 0.41365(14) 0.07710(14)
H5A H 1.2626 0.4240 0.1581
C8A C 1.13839(12) 0.37254(14) -0.07923(13)
H6A H 1.0782 0.3479 -0.1294
loop_
_geom_bond_atom_site_label_1
_geom_bond_atom_site_label_2
_geom_bond_site_symmetry_1
_geom_bond_site_symmetry_2
S1 C1 1_555 1_555
N1 C4 1_555 1_555
N2 N3 1_555 1_555
N3 C8 1_555 1_555
C1 C2 1_555 1_555
C2 H1 1_555 1_555
C3 C2 1_555 1_555
H2 C3 1_555 1_555
C4 C3 1_555 1_555
C5 C4 1_555 1_555
H3 C5 1_555 1_555
C6 C1 1_555 1_555
H4 C6 1_555 1_555
C7 N1 1_555 1_555
H5 C7 1_555 1_555
C8 N1 1_555 1_555
H6 C8 1_555 1_555
N1A C4A 1_555 1_555
N2A N3A 1_555 1_555
N3A C8A 1_555 1_555
C1A S1 1_555 1_555
C2A C1A 1_555 1_555
H1A C2A 1_555 1_555
C3A C2A 1_555 1_555
H2A C3A 1_555 1_555
C4A C3A 1_555 1_555
C5A C4A 1_555 1_555
H3A C5A 1_555 1_555
C6A C1A 1_555 1_555
H4A C6A 1_555 1_555
C7A N1A 1_555 1_555
H5A C7A 1_555 1_555
C8A N1A 1_555 1_555
H6A C8A 1_555 1_555
N2 C7 1_555 1_555
C5 C6 1_555 1_555
N2A C7A 1_555 1_555
C5A C6A 1_555 1_555

#END
