
#######################################################################
#
#                 Cambridge Crystallographic Data Centre
#                                CCDC 
#
#######################################################################
#
# If this CIF has been generated from an entry in the Cambridge 
# Structural Database, then it will include bibliographic, chemical, 
# crystal, experimental, refinement or atomic coordinate data resulting 
# from the CCDC's data processing and validation procedures.
#
#######################################################################

data_ZUZZEV
_chemical_formula_moiety         'C14 H24 N2 O4'
_chemical_name_systematic        N,N,N',N'-Tetra-acetylhexamethylenediamine
_chemical_properties_biological  'anticancer agent'
_symmetry_cell_setting           monoclinic
_symmetry_space_group_name_H-M   'P 21/n'
_symmetry_Int_Tables_number      14
_space_group_name_Hall           '-P 2yn'
loop_
_symmetry_equiv_pos_site_id
_symmetry_equiv_pos_as_xyz
1 x,y,z
2 1/2-x,1/2+y,1/2-z
3 -x,-y,-z
4 1/2+x,1/2-y,1/2+z
_cell_length_a                   8.978(2)
_cell_length_b                   8.689(2)
_cell_length_c                   10.702(2)
_cell_angle_alpha                90
_cell_angle_beta                 106.98(3)
_cell_angle_gamma                90
_cell_volume                     798.467
_exptl_crystal_colour            colorless
_cell_formula_units_Z            2
loop_
_atom_site_label
_atom_site_type_symbol
_atom_site_fract_x
_atom_site_fract_y
_atom_site_fract_z
O1 O 0.8080(3) -0.1612(2) 0.6447(2)
O2 O 0.6246(3) 0.1100(3) 0.3325(2)
N1 N 0.7549(2) 0.0715(2) 0.5420(2)
C1 C 0.9253(3) 0.4701(3) 0.5111(3)
C2 C 0.9186(3) 0.2947(3) 0.5145(3)
C3 C 0.7773(3) 0.2408(3) 0.5523(3)
C4 C 0.8221(3) -0.0235(3) 0.6494(2)
C5 C 0.9132(5) 0.0517(4) 0.7731(3)
C6 C 0.6668(3) 0.0173(3) 0.4192(3)
C7 C 0.6250(4) -0.1486(3) 0.3977(4)
H1 H 0.8361(32) 0.5043(31) 0.4363(27)
H2 H 0.9095(29) 0.2517(30) 0.4223(26)
H3 H 1.0140(32) 0.2589(31) 0.5847(26)
H4 H 0.7839(26) 0.2704(27) 0.6520(24)
H5 H 0.6773(30) 0.2839(28) 0.4927(24)
H6 H 0.9903(39) 0.1106(41) 0.7529(31)
H7 H 0.5841(40) -0.1914(41) 0.4896(35)
H8 H 0.7152(39) -0.2137(38) 0.3995(30)
H9 H 0.5683(41) -0.1632(40) 0.3249(35)
H10 H 0.9171(30) 0.5120(31) 0.5960(27)
H11 H 0.9617(42) -0.0216(44) 0.8271(37)
H12 H 0.8100(54) 0.1167(50) 0.8031(40)
C1B C 1.0747(3) 0.5299(3) 0.4889(3)
C2B C 1.0814(3) 0.7053(3) 0.4855(3)
C3B C 1.2227(3) 0.7592(3) 0.4477(3)
N1B N 1.2451(2) 0.9285(2) 0.4580(2)
C4B C 1.1779(3) 1.0235(3) 0.3506(2)
O1B O 1.1920(3) 1.1612(2) 0.3553(2)
C5B C 1.0868(5) 0.9483(4) 0.2269(3)
H6B H 1.0097(39) 0.8894(41) 0.2471(31)
H11B H 1.0383(42) 1.0216(44) 0.1729(37)
H12B H 1.1900(54) 0.8833(50) 0.1969(40)
C6B C 1.3332(3) 0.9827(3) 0.5808(3)
O2B O 1.3754(3) 0.8900(3) 0.6675(2)
C7B C 1.3750(4) 1.1486(3) 0.6023(4)
H7B H 1.4159(40) 1.1914(41) 0.5104(35)
H8B H 1.2848(39) 1.2137(38) 0.6005(30)
H9B H 1.4317(41) 1.1632(40) 0.6751(35)
H4B H 1.2161(26) 0.7296(27) 0.3480(24)
H5B H 1.3227(30) 0.7161(28) 0.5073(24)
H2B H 1.0905(29) 0.7483(30) 0.5777(26)
H3B H 0.9860(32) 0.7411(31) 0.4153(26)
H1B H 1.1639(32) 0.4957(31) 0.5637(27)
H10B H 1.0829(30) 0.4880(31) 0.4040(27)
loop_
_geom_bond_atom_site_label_1
_geom_bond_atom_site_label_2
_geom_bond_site_symmetry_1
_geom_bond_site_symmetry_2
O1 C4 1_555 1_555
O2 C6 1_555 1_555
N1 C3 1_555 1_555
C1 C2 1_555 1_555
C2 C3 1_555 1_555
C3 H4 1_555 1_555
C4 N1 1_555 1_555
C5 C4 1_555 1_555
C6 N1 1_555 1_555
C7 C6 1_555 1_555
H1 C1 1_555 1_555
H2 C2 1_555 1_555
H3 C2 1_555 1_555
H5 C3 1_555 1_555
H6 C5 1_555 1_555
H7 C7 1_555 1_555
H8 C7 1_555 1_555
H9 C7 1_555 1_555
H10 C1 1_555 1_555
H11 C5 1_555 1_555
H12 C5 1_555 1_555
C1B C1 1_555 1_555
C2B C1B 1_555 1_555
C3B C2B 1_555 1_555
N1B C3B 1_555 1_555
C4B N1B 1_555 1_555
O1B C4B 1_555 1_555
C5B C4B 1_555 1_555
H6B C5B 1_555 1_555
H11B C5B 1_555 1_555
H12B C5B 1_555 1_555
C6B N1B 1_555 1_555
O2B C6B 1_555 1_555
C7B C6B 1_555 1_555
H7B C7B 1_555 1_555
H8B C7B 1_555 1_555
H9B C7B 1_555 1_555
H4B C3B 1_555 1_555
H5B C3B 1_555 1_555
H2B C2B 1_555 1_555
H3B C2B 1_555 1_555
H1B C1B 1_555 1_555
H10B C1B 1_555 1_555

#END
