
#######################################################################
#
#                 Cambridge Crystallographic Data Centre
#                                CCDC 
#
#######################################################################
#
# If this CIF has been generated from an entry in the Cambridge 
# Structural Database, then it will include bibliographic, chemical, 
# crystal, experimental, refinement or atomic coordinate data resulting 
# from the CCDC's data processing and validation procedures.
#
#######################################################################

data_ZZZBNJ02
_chemical_formula_moiety         'C4 H5 O6 1-,H5 N2 1+'
_chemical_name_systematic        'Hydrazinium L-tartrate'
_symmetry_cell_setting           orthorhombic
_symmetry_space_group_name_H-M   'P 21 21 21'
_symmetry_Int_Tables_number      19
_space_group_name_Hall           'P 2ac 2ab'
loop_
_symmetry_equiv_pos_site_id
_symmetry_equiv_pos_as_xyz
1 x,y,z
2 1/2-x,-y,1/2+z
3 1/2+x,1/2-y,-z
4 -x,1/2+y,1/2-z
_cell_length_a                   7.037(1)
_cell_length_b                   7.645(1)
_cell_length_c                   13.445(1)
_cell_angle_alpha                90
_cell_angle_beta                 90
_cell_angle_gamma                90
_cell_volume                     723.312
_exptl_crystal_colour            Colorless
_cell_formula_units_Z            4
loop_
_atom_site_label
_atom_site_type_symbol
_atom_site_fract_x
_atom_site_fract_y
_atom_site_fract_z
C1 C -0.5088(2) 0.1460(2) 0.67035(11)
C2 C -0.2908(2) 0.1438(2) 0.66390(12)
C3 C -0.2116(2) 0.3294(2) 0.66479(11)
C4 C 0.0057(2) 0.3258(2) 0.66823(11)
O1 O -0.6036(2) 0.0667(2) 0.60748(8)
O2 O -0.57617(15) 0.2294(2) 0.74456(8)
O3 O -0.2276(2) 0.0498(2) 0.57938(9)
O4 O -0.2781(2) 0.42691(15) 0.58258(9)
O5 O 0.07300(15) 0.2416(2) 0.74383(8)
O6 O 0.1013(2) 0.4000(2) 0.60540(9)
H1 H -0.2472(28) 0.0788(23) 0.7214(12)
H2 H -0.2524(28) 0.3880(27) 0.7244(13)
H3 H -0.2918(29) 0.0946(27) 0.5314(14)
H4 H -0.2082(29) 0.4028(27) 0.5358(14)
H5 H 0.2355(28) 0.2392(54) 0.7481(26)
N1 N -0.0252(2) -0.2130(2) 0.45011(12)
N2 N 0.0594(3) -0.2336(2) 0.54541(12)
H6 H 0.0101(42) -0.1038(36) 0.4275(22)
H7 H 0.0002(47) -0.3097(35) 0.4113(22)
H8 H -0.1738(46) -0.2218(47) 0.4459(23)
H9 H 0.0226(44) -0.1416(41) 0.5752(23)
H10 H 0.0154(53) -0.3244(45) 0.5728(27)
loop_
_geom_bond_atom_site_label_1
_geom_bond_atom_site_label_2
_geom_bond_site_symmetry_1
_geom_bond_site_symmetry_2
C1 C2 1_555 1_555
C2 C3 1_555 1_555
C3 C4 1_555 1_555
C4 O5 1_555 1_555
O1 C1 1_555 1_555
O2 C1 1_555 1_555
O3 C2 1_555 1_555
O4 C3 1_555 1_555
O5 H5 1_555 1_555
O6 C4 1_555 1_555
N1 N2 1_555 1_555
N2 H9 1_555 1_555
H1 C2 1_555 1_555
H2 C3 1_555 1_555
H3 O3 1_555 1_555
H4 O4 1_555 1_555
H6 N1 1_555 1_555
H7 N1 1_555 1_555
H8 N1 1_555 1_555
H10 N2 1_555 1_555

#END
