
#######################################################################
#
#                 Cambridge Crystallographic Data Centre
#                                CCDC 
#
#######################################################################
#
# If this CIF has been generated from an entry in the Cambridge 
# Structural Database, then it will include bibliographic, chemical, 
# crystal, experimental, refinement or atomic coordinate data resulting 
# from the CCDC's data processing and validation procedures.
#
#######################################################################

data_ZZZDKE02
_chemical_formula_moiety         'C26 H16'
_chemical_name_systematic        Hexacene
_symmetry_cell_setting           triclinic
_symmetry_space_group_name_H-M   'P -1'
_symmetry_Int_Tables_number      2
_space_group_name_Hall           '-P 1'
loop_
_symmetry_equiv_pos_site_id
_symmetry_equiv_pos_as_xyz
1 x,y,z
2 -x,-y,-z
_cell_length_a                   6.292(4)
_cell_length_b                   7.673(4)
_cell_length_c                   16.424(8)
_cell_angle_alpha                98.66(4)
_cell_angle_beta                 91.16(4)
_cell_angle_gamma                95.71(4)
_cell_volume                     779.497
_exptl_crystal_colour            blue
_exptl_crystal_description       platelet
_cell_formula_units_Z            2
_chemical_properties_physical    'light- and oxygen-sensitive'
loop_
_atom_site_label
_atom_site_type_symbol
_atom_site_fract_x
_atom_site_fract_y
_atom_site_fract_z
C1 C 0.9526(10) 0.1130(7) 0.1923(4)
C2 C 0.9161(11) 0.0702(8) 0.1095(5)
C3 C 0.7323(12) 0.1215(8) 0.0744(4)
C4 C 0.5856(10) 0.2081(7) 0.1207(4)
C5 C 0.6186(11) 0.2565(8) 0.2091(4)
C6 C 0.8090(11) 0.2064(7) 0.2458(5)
C7 C 0.8418(10) 0.2509(7) 0.3300(4)
C8 C 0.7029(11) 0.3428(8) 0.3831(4)
C9 C 0.5099(11) 0.3918(7) 0.3449(4)
C10 C 0.4773(9) 0.3488(7) 0.2594(4)
C11 C 0.7367(9) 0.3847(7) 0.4681(4)
C12 C 0.5966(8) 0.4752(7) 0.5195(4)
C13 C 0.3700(9) 0.4818(7) 0.3956(4)
H1 H 1.0788 0.0798 0.2159
H2 H 1.0132 0.0067 0.0762
H3 H 0.7086 0.0952 0.0163
H4 H 0.4605 0.2368 0.0946
H5 H 0.9671 0.2173 0.3540
H6 H 0.3540 0.3839 0.2345
H8 H 0.8612 0.3501 0.4922
H9 H 0.2455 0.5159 0.3711
C1A C 0.0474(10) 0.8870(7) 0.8077(4)
C2A C 0.0839(11) 0.9298(8) 0.8905(5)
C3A C 0.2677(12) 0.8785(8) 0.9256(4)
C4A C 0.4144(10) 0.7919(7) 0.8793(4)
C5A C 0.3814(11) 0.7435(8) 0.7909(4)
C6A C 0.1910(11) 0.7936(7) 0.7542(5)
C7A C 0.1582(10) 0.7491(7) 0.6700(4)
C8A C 0.2971(11) 0.6572(8) 0.6169(4)
C9A C 0.4901(11) 0.6082(7) 0.6551(4)
C10A C 0.5227(9) 0.6512(7) 0.7406(4)
C11A C 0.2633(9) 0.6153(7) 0.5319(4)
C12A C 0.4034(8) 0.5248(7) 0.4805(4)
C13A C 0.6300(9) 0.5182(7) 0.6044(4)
H1A H -0.0788 0.9202 0.7841
H2A H -0.0132 0.9933 0.9238
H3A H 0.2914 0.9048 0.9837
H4A H 0.5395 0.7632 0.9054
H5A H 0.0329 0.7827 0.6460
H6A H 0.6460 0.6161 0.7655
H8A H 0.1388 0.6499 0.5078
H9A H 0.7545 0.4841 0.6289
C14 C 0.0619(10) -0.4288(7) 0.1435(4)
C15 C 0.2124(11) -0.4437(8) 0.0849(4)
C16 C 0.4180(11) -0.3440(8) 0.0975(4)
C17 C 0.4621(10) -0.2375(8) 0.1701(4)
C18 C 0.3135(12) -0.2152(9) 0.2348(4)
C19 C 0.1040(12) -0.3190(8) 0.2195(4)
C20 C -0.0408(10) -0.2975(7) 0.2809(4)
C21 C 0.0004(11) -0.1872(8) 0.3560(4)
C22 C 0.2089(12) -0.0838(8) 0.3713(4)
C23 C 0.3574(10) -0.1049(7) 0.3084(4)
C24 C 0.2523(9) 0.0294(7) 0.4459(4)
C25 C 0.1039(8) 0.0518(7) 0.5077(4)
C26 C -0.1469(10) -0.1651(7) 0.4178(4)
H7 H -0.2838 -0.2305 0.4087
H10 H -0.0745 -0.4943 0.1325
H11 H 0.4945 -0.0397 0.3174
H12 H 0.1800 -0.5220 0.0347
H13 H 0.5206 -0.3527 0.0558
H14 H 0.5998 -0.1734 0.1789
H15 H -0.1780 -0.3623 0.2714
H16 H 0.3895 0.0944 0.4550
C14A C -0.0619(10) 0.4288(7) 0.8565(4)
C15A C -0.2124(11) 0.4437(8) 0.9151(4)
C16A C -0.4180(11) 0.3440(8) 0.9025(4)
C17A C -0.4621(10) 0.2375(8) 0.8299(4)
C18A C -0.3135(12) 0.2152(9) 0.7652(4)
C19A C -0.1040(12) 0.3190(8) 0.7805(4)
C20A C 0.0408(10) 0.2975(7) 0.7191(4)
C21A C -0.0004(11) 0.1872(8) 0.6440(4)
C22A C -0.2089(12) 0.0838(8) 0.6287(4)
C23A C -0.3574(10) 0.1049(7) 0.6916(4)
C24A C -0.2523(9) -0.0294(7) 0.5541(4)
C25A C -0.1039(8) -0.0518(7) 0.4923(4)
C26A C 0.1469(10) 0.1651(7) 0.5822(4)
H7A H 0.2838 0.2305 0.5913
H10A H 0.0745 0.4943 0.8675
H11A H -0.4945 0.0397 0.6826
H12A H -0.1800 0.5220 0.9653
H13A H -0.5206 0.3527 0.9442
H14A H -0.5998 0.1734 0.8211
H15A H 0.1780 0.3623 0.7286
H16A H -0.3895 -0.0944 0.5450
loop_
_geom_bond_atom_site_label_1
_geom_bond_atom_site_label_2
_geom_bond_site_symmetry_1
_geom_bond_site_symmetry_2
C1 C2 1_555 1_555
C2 C3 1_555 1_555
C3 C4 1_555 1_555
C4 C5 1_555 1_555
C5 C6 1_555 1_555
C6 C1 1_555 1_555
C7 C6 1_555 1_555
C8 C7 1_555 1_555
C9 C8 1_555 1_555
C10 C5 1_555 1_555
C11 C8 1_555 1_555
C12 C11 1_555 1_555
C13 C9 1_555 1_555
C14 C15 1_555 1_555
C15 C16 1_555 1_555
C16 C17 1_555 1_555
C17 C18 1_555 1_555
C18 C19 1_555 1_555
C19 C14 1_555 1_555
C20 C19 1_555 1_555
C21 C20 1_555 1_555
C22 C21 1_555 1_555
C23 C18 1_555 1_555
C24 C22 1_555 1_555
C25 C24 1_555 1_555
C26 C21 1_555 1_555
H1 C1 1_555 1_555
H2 C2 1_555 1_555
H3 C3 1_555 1_555
H4 C4 1_555 1_555
H5 C7 1_555 1_555
H6 C10 1_555 1_555
H7 C26 1_555 1_555
H8 C11 1_555 1_555
H9 C13 1_555 1_555
H10 C14 1_555 1_555
H11 C23 1_555 1_555
H12 C15 1_555 1_555
H13 C16 1_555 1_555
H14 C17 1_555 1_555
H15 C20 1_555 1_555
H16 C24 1_555 1_555
C1A C2A 1_555 1_555
C2A C3A 1_555 1_555
C3A C4A 1_555 1_555
C4A C5A 1_555 1_555
C5A C6A 1_555 1_555
C6A C1A 1_555 1_555
C7A C6A 1_555 1_555
C8A C7A 1_555 1_555
C9A C8A 1_555 1_555
C10A C5A 1_555 1_555
C11A C8A 1_555 1_555
C12A C12 1_555 1_555
C13A C12 1_555 1_555
C14A C15A 1_555 1_555
C15A C16A 1_555 1_555
C16A C17A 1_555 1_555
C17A C18A 1_555 1_555
C18A C19A 1_555 1_555
C19A C14A 1_555 1_555
C20A C19A 1_555 1_555
C21A C20A 1_555 1_555
C22A C21A 1_555 1_555
C23A C18A 1_555 1_555
C24A C22A 1_555 1_555
C25A C25 1_555 1_555
C26A C25 1_555 1_555
H1A C1A 1_555 1_555
H2A C2A 1_555 1_555
H3A C3A 1_555 1_555
H4A C4A 1_555 1_555
H5A C7A 1_555 1_555
H6A C10A 1_555 1_555
H7A C26A 1_555 1_555
H8A C11A 1_555 1_555
H9A C13A 1_555 1_555
H10A C14A 1_555 1_555
H11A C23A 1_555 1_555
H12A C15A 1_555 1_555
H13A C16A 1_555 1_555
H14A C17A 1_555 1_555
H15A C20A 1_555 1_555
H16A C24A 1_555 1_555
C9 C10 1_555 1_555
C13 C12A 1_555 1_555
C22 C23 1_555 1_555
C26 C25A 1_555 1_555
C9A C10A 1_555 1_555
C9A C13A 1_555 1_555
C11A C12A 1_555 1_555
C21A C26A 1_555 1_555
C22A C23A 1_555 1_555
C24A C25A 1_555 1_555

#END
