
#######################################################################
#
#                 Cambridge Crystallographic Data Centre
#                                CCDC 
#
#######################################################################
#
# If this CIF has been generated from an entry in the Cambridge 
# Structural Database, then it will include bibliographic, chemical, 
# crystal, experimental, refinement or atomic coordinate data resulting 
# from the CCDC's data processing and validation procedures.
#
#######################################################################

data_ZZZEEU04
_chemical_formula_moiety         'C7 H6 O4'
_chemical_name_systematic        '2,4-Dihydroxybenzoic acid'
_symmetry_cell_setting           monoclinic
_symmetry_space_group_name_H-M   'P 21/n'
_symmetry_Int_Tables_number      14
_space_group_name_Hall           '-P 2yn'
loop_
_symmetry_equiv_pos_site_id
_symmetry_equiv_pos_as_xyz
1 x,y,z
2 1/2-x,1/2+y,1/2-z
3 -x,-y,-z
4 1/2+x,1/2-y,1/2+z
_cell_length_a                   3.6854(5)
_cell_length_b                   22.367(3)
_cell_length_c                   8.0085(11)
_cell_angle_alpha                90
_cell_angle_beta                 99.448(3)
_cell_angle_gamma                90
_cell_volume                     651.196
_exptl_crystal_colour            colorless
_exptl_crystal_description       plate
_cell_formula_units_Z            4
_exptl_crystal_recrystallization_method acetone
loop_
_atom_site_label
_atom_site_type_symbol
_atom_site_fract_x
_atom_site_fract_y
_atom_site_fract_z
C1 C 0.2989(6) 0.09413(9) 0.7174(3)
C2 C 0.3900(6) 0.15413(9) 0.7587(3)
O1 O 0.3740(5) 0.17749(6) 0.91497(19)
C3 C 0.4964(6) 0.19257(9) 0.6388(3)
C4 C 0.5136(6) 0.17132(9) 0.4774(3)
O2 O 0.6140(5) 0.20643(7) 0.3553(2)
C5 C 0.4237(6) 0.11186(9) 0.4333(3)
C6 C 0.3185(6) 0.07433(9) 0.5526(3)
C7 C 0.1797(6) 0.05416(9) 0.8408(3)
O3 O 0.1478(4) 0.07040(6) 0.98682(18)
O4 O 0.1038(4) -0.00105(6) 0.7881(2)
H1 H 0.5625 0.2351 0.6688
H2 H 0.4366 0.0968 0.3167
H3 H 0.2524 0.0318 0.5217
H4 H 0.679(8) 0.2423(15) 0.390(4)
H7 H 0.0268 -0.0280 0.8584
H8 H 0.3041 0.1541 0.9955
H5? H 0.0712 0.0442 1.0589
H6? H 0.2035 0.1083 1.0203
loop_
_geom_bond_atom_site_label_1
_geom_bond_atom_site_label_2
_geom_bond_site_symmetry_1
_geom_bond_site_symmetry_2
C1 C2 1_555 1_555
C2 O1 1_555 1_555
O1 H8 1_555 1_555
C3 C2 1_555 1_555
C4 C3 1_555 1_555
O2 C4 1_555 1_555
C5 C4 1_555 1_555
C6 C1 1_555 1_555
C7 C1 1_555 1_555
O3 C7 1_555 1_555
O4 C7 1_555 1_555
H1 C3 1_555 1_555
H2 C5 1_555 1_555
H3 C6 1_555 1_555
H4 O2 1_555 1_555
H7 O4 1_555 1_555
C5 C6 1_555 1_555

#END
