
#######################################################################
#
#                 Cambridge Crystallographic Data Centre
#                                CCDC 
#
#######################################################################
#
# If this CIF has been generated from an entry in the Cambridge 
# Structural Database, then it will include bibliographic, chemical, 
# crystal, experimental, refinement or atomic coordinate data resulting 
# from the CCDC's data processing and validation procedures.
#
#######################################################################

data_ZZZFYW02
_chemical_formula_moiety         'C6 H4 N2 O4'
_chemical_name_systematic        1,2-Dinitrobenzene
_symmetry_cell_setting           monoclinic
_symmetry_space_group_name_H-M   'P 21/a'
_symmetry_Int_Tables_number      14
_space_group_name_Hall           '-P 2yab'
loop_
_symmetry_equiv_pos_site_id
_symmetry_equiv_pos_as_xyz
1 x,y,z
2 1/2-x,1/2+y,-z
3 -x,-y,-z
4 1/2+x,1/2-y,z
_cell_length_a                   7.258(1)
_cell_length_b                   12.866(2)
_cell_length_c                   7.915(1)
_cell_angle_alpha                90
_cell_angle_beta                 113.08(1)
_cell_angle_gamma                90
_cell_volume                     679.954
_cell_formula_units_Z            4
loop_
_atom_site_label
_atom_site_type_symbol
_atom_site_fract_x
_atom_site_fract_y
_atom_site_fract_z
O1 O 0.83936(16) 0.21128(8) -0.15560(9)
O2 O 0.64888(13) 0.09859(6) -0.09614(9)
O3 O 0.94979(12) 0.00345(5) 0.18920(10)
O4 O 0.77954(13) -0.00724(6) 0.36206(13)
N1 N 0.76762(11) 0.17125(5) -0.05423(8)
N2 N 0.85789(10) 0.04199(4) 0.27472(9)
C1 C 0.82229(10) 0.21704(5) 0.12853(7)
C2 C 0.84786(9) 0.15564(4) 0.28122(8)
C3 C 0.87818(11) 0.20099(5) 0.44895(8)
C4 C 0.88384(11) 0.30908(6) 0.46331(9)
C5 C 0.86060(12) 0.37053(5) 0.31147(10)
C6 C 0.82908(11) 0.32466(5) 0.14243(9)
loop_
_geom_bond_atom_site_label_1
_geom_bond_atom_site_label_2
_geom_bond_site_symmetry_1
_geom_bond_site_symmetry_2
O1 N1 1_555 1_555
O2 N1 1_555 1_555
O3 N2 1_555 1_555
O4 N2 1_555 1_555
N1 C1 1_555 1_555
N2 C2 1_555 1_555
C1 C2 1_555 1_555
C2 C3 1_555 1_555
C3 C4 1_555 1_555
C4 C5 1_555 1_555
C5 C6 1_555 1_555
C6 C1 1_555 1_555

#END
