
#######################################################################
#
#                 Cambridge Crystallographic Data Centre
#                                CCDC 
#
#######################################################################
#
# If this CIF has been generated from an entry in the Cambridge 
# Structural Database, then it will include bibliographic, chemical, 
# crystal, experimental, refinement or atomic coordinate data resulting 
# from the CCDC's data processing and validation procedures.
#
#######################################################################

data_ZZZGKE02
_chemical_formula_moiety         'C16 H10,C6 F6'
_chemical_name_systematic        'pyrene hexafluorobenzene'
_symmetry_cell_setting           monoclinic
_symmetry_space_group_name_H-M   'P 21/c'
_symmetry_Int_Tables_number      14
_space_group_name_Hall           '-P 2ybc'
loop_
_symmetry_equiv_pos_site_id
_symmetry_equiv_pos_as_xyz
1 x,y,z
2 -x,1/2+y,1/2-z
3 -x,-y,-z
4 x,1/2-y,1/2+z
_cell_length_a                   6.8822(13)
_cell_length_b                   13.238(2)
_cell_length_c                   9.2058(17)
_cell_angle_alpha                90
_cell_angle_beta                 106.261(3)
_cell_angle_gamma                90
_cell_volume                     805.157
_cell_formula_units_Z            2
loop_
_atom_site_label
_atom_site_type_symbol
_atom_site_fract_x
_atom_site_fract_y
_atom_site_fract_z
C1 C 0.9219(2) 0.56386(11) 0.37967(16)
C2 C 0.9058(2) 0.46080(12) 0.35866(16)
C3 C 0.9848(2) 0.39673(11) 0.47915(17)
F1 F 0.84667(14) 0.62599(7) 0.26250(10)
F2 F 0.81365(13) 0.42261(7) 0.22216(10)
F3 F 0.97221(14) 0.29658(7) 0.45874(11)
C1B C 1.0781(2) 0.43614(11) 0.62033(16)
C2B C 1.0942(2) 0.53920(12) 0.64134(16)
C3B C 1.0152(2) 0.60327(11) 0.52085(17)
F1B F 1.15333(14) 0.37401(7) 0.73750(10)
F2B F 1.18635(13) 0.57739(7) 0.77784(10)
F3B F 1.02779(14) 0.70342(7) 0.54126(11)
C4 C 0.4763(2) 0.30872(11) 0.47014(17)
H1 H 0.4505 0.2413 0.4345
C5 C 0.5770(2) 0.32478(11) 0.61658(18)
H2 H 0.6221 0.2685 0.6812
C6 C 0.6175(2) 0.42514(11) 0.67705(16)
C7 C 0.7182(2) 0.44359(12) 0.82928(17)
H3 H 0.7600 0.3885 0.8969
C8 C 0.7574(2) 0.54162(13) 0.88207(17)
H4 H 0.8261 0.5530 0.9856
C9 C 0.6973(2) 0.62331(12) 0.78553(17)
H5 H 0.7276 0.6900 0.8234
C10 C 0.5930(2) 0.60882(11) 0.63349(16)
C11 C 0.5522(2) 0.50852(11) 0.57761(16)
C4B C 0.5237(2) 0.69128(11) 0.52986(17)
H1B H 0.5495 0.7587 0.5655
C5B C 0.4230(2) 0.67522(11) 0.38342(18)
H2B H 0.3779 0.7315 0.3188
C6B C 0.3825(2) 0.57486(11) 0.32295(16)
C7B C 0.2818(2) 0.55641(12) 0.17072(17)
H3B H 0.2400 0.6115 0.1031
C8B C 0.2426(2) 0.45838(13) 0.11793(17)
H4B H 0.1739 0.4470 0.0144
C9B C 0.3027(2) 0.37669(12) 0.21447(17)
H5B H 0.2724 0.3100 0.1766
C10B C 0.4070(2) 0.39118(11) 0.36651(16)
C11B C 0.4478(2) 0.49148(11) 0.42239(16)
loop_
_geom_bond_atom_site_label_1
_geom_bond_atom_site_label_2
_geom_bond_site_symmetry_1
_geom_bond_site_symmetry_2
C1 C2 1_555 1_555
C2 C3 1_555 1_555
C3 F3 1_555 1_555
F1 C1 1_555 1_555
F2 C2 1_555 1_555
C4 H1 1_555 1_555
C5 C4 1_555 1_555
H2 C5 1_555 1_555
C6 C5 1_555 1_555
C7 C6 1_555 1_555
H3 C7 1_555 1_555
C8 C7 1_555 1_555
H4 C8 1_555 1_555
C9 C8 1_555 1_555
H5 C9 1_555 1_555
C10 C9 1_555 1_555
C11 C6 1_555 1_555
C1B C3 1_555 1_555
C2B C1B 1_555 1_555
C3B C1 1_555 1_555
F1B C1B 1_555 1_555
F2B C2B 1_555 1_555
F3B C3B 1_555 1_555
C4B C10 1_555 1_555
H1B C4B 1_555 1_555
C5B C4B 1_555 1_555
H2B C5B 1_555 1_555
C6B C5B 1_555 1_555
C7B C6B 1_555 1_555
H3B C7B 1_555 1_555
C8B C7B 1_555 1_555
H4B C8B 1_555 1_555
C9B C8B 1_555 1_555
H5B C9B 1_555 1_555
C10B C4 1_555 1_555
C11B C11 1_555 1_555
C10 C11 1_555 1_555
C2B C3B 1_555 1_555
C6B C11B 1_555 1_555
C9B C10B 1_555 1_555
C10B C11B 1_555 1_555

#END
