
#######################################################################
#
#                 Cambridge Crystallographic Data Centre
#                                CCDC 
#
#######################################################################
#
# If this CIF has been generated from an entry in the Cambridge 
# Structural Database, then it will include bibliographic, chemical, 
# crystal, experimental, refinement or atomic coordinate data resulting 
# from the CCDC's data processing and validation procedures.
#
#######################################################################

data_ZZZGMW02
_chemical_formula_moiety         'C14 H10,C6 F6'
_chemical_name_systematic        'Anthracene hexafluorobenzene'
_symmetry_cell_setting           monoclinic
_symmetry_space_group_name_H-M   'C 2/c'
_symmetry_Int_Tables_number      15
_space_group_name_Hall           '-C 2yn'
loop_
_symmetry_equiv_pos_site_id
_symmetry_equiv_pos_as_xyz
1 x,y,z
2 1/2+x,1/2+y,z
3 x,-y,1/2+z
4 1/2+x,1/2-y,1/2+z
5 -x,-y,-z
6 1/2-x,1/2-y,-z
7 -x,y,1/2-z
8 1/2-x,1/2+y,1/2-z
_cell_length_a                   16.122(3)
_cell_length_b                   12.086(2)
_cell_length_c                   8.955(2)
_cell_angle_alpha                90
_cell_angle_beta                 118.39(3)
_cell_angle_gamma                90
_cell_volume                     1535.03
_exptl_crystal_colour            colorless
_exptl_crystal_description       prism
_cell_formula_units_Z            4
loop_
_atom_site_label
_atom_site_type_symbol
_atom_site_fract_x
_atom_site_fract_y
_atom_site_fract_z
C1 C 0.24817(11) 0.36525(14) 0.5117(2)
H1 H 0.2476(12) 0.4440(18) 0.5235(21)
C2 C 0.28572(11) 0.31787(14) 0.4142(2)
C3 C 0.32340(13) 0.3826(2) 0.3267(2)
H2 H 0.3206(15) 0.4617(20) 0.3414(26)
C4 C 0.35844(14) 0.3335(2) 0.2322(2)
H3 H 0.3834(16) 0.3780(22) 0.1828(30)
C5 C 0.36003(15) 0.2165(2) 0.2196(2)
H4 H 0.3857(15) 0.1878(21) 0.1544(28)
C6 C 0.32629(13) 0.1517(2) 0.3024(2)
H5 H 0.3274(15) 0.0690(21) 0.2930(27)
C7 C 0.21273(11) 0.30125(14) 0.5979(2)
C7E C 0.28727(11) 0.19875(14) 0.4021(2)
C1E C 0.25183(11) 0.13475(14) 0.4883(2)
H1E H 0.2524(12) 0.0560(18) 0.4765(21)
C2E C 0.21428(11) 0.18213(14) 0.5858(2)
C3E C 0.17660(13) 0.1174(2) 0.6733(2)
H2E H 0.1794(15) 0.0383(20) 0.6586(26)
C4E C 0.14156(14) 0.1665(2) 0.7678(2)
H3E H 0.1166(16) 0.1220(22) 0.8172(30)
C5E C 0.13997(15) 0.2835(2) 0.7804(2)
H4E H 0.1143(15) 0.3122(21) 0.8456(28)
C6E C 0.17371(13) 0.3483(2) 0.6976(2)
H5E H 0.1726(15) 0.4310(21) 0.7070(27)
C8 C 0.5000 0.1177(2) 0.7500
C9 C 0.53673(11) 0.1736(2) 0.6617(2)
C10 C 0.53692(12) 0.2881(2) 0.6613(2)
C11 C 0.5000 0.3437(2) 0.7500
F1 F 0.5000 0.00631(13) 0.7500
F2 F 0.57298(8) 0.11795(11) 0.57671(12)
F3 F 0.57270(8) 0.34264(11) 0.57532(13)
F4 F 0.5000 0.45495(14) 0.7500
C10F C 0.46308(12) 0.2881(2) 0.8387(2)
C9F C 0.46327(11) 0.1736(2) 0.8383(2)
F2F F 0.42702(8) 0.11795(11) 0.92329(12)
F3F F 0.42730(8) 0.34264(11) 0.92468(13)
loop_
_geom_bond_atom_site_label_1
_geom_bond_atom_site_label_2
_geom_bond_site_symmetry_1
_geom_bond_site_symmetry_2
C1 H1 1_555 1_555
C2 C1 1_555 1_555
C3 C2 1_555 1_555
H2 C3 1_555 1_555
C4 C3 1_555 1_555
H3 C4 1_555 1_555
C5 C4 1_555 1_555
H4 C5 1_555 1_555
C6 C5 1_555 1_555
H5 C6 1_555 1_555
C7 C1 1_555 1_555
C8 C9 1_555 1_555
C9 C10 1_555 1_555
C10 C11 1_555 1_555
C11 F4 1_555 1_555
F1 C8 1_555 1_555
F2 C9 1_555 1_555
F3 C10 1_555 1_555
C7E C2 1_555 1_555
C1E C7E 1_555 1_555
H1E C1E 1_555 1_555
C2E C7 1_555 1_555
C3E C2E 1_555 1_555
H2E C3E 1_555 1_555
C4E C3E 1_555 1_555
H3E C4E 1_555 1_555
C5E C4E 1_555 1_555
H4E C5E 1_555 1_555
C6E C7 1_555 1_555
H5E C6E 1_555 1_555
C10F C11 1_555 1_555
C9F C8 1_555 1_555
F2F C9F 1_555 1_555
F3F C10F 1_555 1_555
C6 C7E 1_555 1_555
C1E C2E 1_555 1_555
C5E C6E 1_555 1_555
C10F C9F 1_555 1_555

#END
