
#######################################################################
#
#                 Cambridge Crystallographic Data Centre
#                                CCDC 
#
#######################################################################
#
# If this CIF has been generated from an entry in the Cambridge 
# Structural Database, then it will include bibliographic, chemical, 
# crystal, experimental, refinement or atomic coordinate data resulting 
# from the CCDC's data processing and validation procedures.
#
#######################################################################

data_ZZZHVI02
_chemical_formula_moiety         'C6 H5 O7 3-,3(K1 1+),H2 O1'
_chemical_name_systematic        'Tripotassium citrate monohydrate'
_symmetry_cell_setting           monoclinic
_symmetry_space_group_name_H-M   'P 21/a'
_symmetry_Int_Tables_number      14
_space_group_name_Hall           '-P 2yab'
loop_
_symmetry_equiv_pos_site_id
_symmetry_equiv_pos_as_xyz
1 x,y,z
2 1/2-x,1/2+y,-z
3 -x,-y,-z
4 1/2+x,1/2-y,z
_cell_length_a                   13.795(1)
_cell_length_b                   11.772(1)
_cell_length_c                   7.092(2)
_cell_angle_alpha                90
_cell_angle_beta                 112.57(2)
_cell_angle_gamma                90
_cell_volume                     1063.5
_cell_formula_units_Z            4
loop_
_atom_site_label
_atom_site_type_symbol
_atom_site_fract_x
_atom_site_fract_y
_atom_site_fract_z
K1 K 0.1155(2) 0.1620(2) 0.1027(5)
K2 K 0.3861(2) 0.4408(3) 0.2691(5)
K3 K 0.1148(2) 0.4311(2) 0.7845(4)
O1 O 0.0398(2) 0.2114(2) 0.4056(3)
H1 H 0.0929(3) 0.2027(3) 0.5418(6)
H2 H 0.0391(3) 0.2918(3) 0.3719(5)
O2 O 0.1760(2) 0.9285(2) 0.1309(3)
O3 O 0.0620(2) 0.9574(2) 0.2755(4)
O4 O 0.1778(1) 0.4201(1) 0.1932(3)
O5 O 0.0586(2) 0.4320(2) 0.3317(4)
O6 O 0.3174(1) 0.6891(2) 0.2080(3)
O7 O 0.1757(1) 0.6627(2) -0.0705(3)
O8 O 0.0436(1) 0.6745(1) 0.1076(2)
C1 C 0.1312(1) 0.9008(1) 0.2468(2)
C2 C 0.1651(1) 0.7911(1) 0.3667(2)
C3 C 0.1507(1) 0.6825(1) 0.2407(2)
C4 C 0.1790(1) 0.5827(1) 0.3932(2)
C5 C 0.1354(1) 0.4687(1) 0.2972(2)
C6 C 0.2201(1) 0.6790(1) 0.1141(2)
H3 H 0.1178(4) 0.7800(3) 0.4589(6)
H4 H 0.2474(3) 0.7978(3) 0.4654(6)
H5 H 0.1471(4) 0.6028(3) 0.5096(5)
H6 H 0.2653(3) 0.5779(3) 0.4673(5)
H7 H 0.0438(3) 0.6502(3) -0.0220(5)
loop_
_geom_bond_atom_site_label_1
_geom_bond_atom_site_label_2
_geom_bond_site_symmetry_1
_geom_bond_site_symmetry_2
O1 H1 1_555 1_555
H2 O1 1_555 1_555
O2 C1 1_555 1_555
O3 C1 1_555 1_555
O4 C5 1_555 1_555
O5 C5 1_555 1_555
O6 C6 1_555 1_555
O7 C6 1_555 1_555
O8 C3 1_555 1_555
C1 C2 1_555 1_555
C2 C3 1_555 1_555
C3 C4 1_555 1_555
C4 C5 1_555 1_555
C6 C3 1_555 1_555
H3 C2 1_555 1_555
H4 C2 1_555 1_555
H5 C4 1_555 1_555
H6 C4 1_555 1_555
H7 O8 1_555 1_555

#END
