
#######################################################################
#
#                 Cambridge Crystallographic Data Centre
#                                CCDC 
#
#######################################################################
#
# If this CIF has been generated from an entry in the Cambridge 
# Structural Database, then it will include bibliographic, chemical, 
# crystal, experimental, refinement or atomic coordinate data resulting 
# from the CCDC's data processing and validation procedures.
#
#######################################################################

data_ZZZIFQ01
_chemical_formula_moiety         'C9 H17 N3 O4'
_chemical_name_systematic        L-Alanyl-L-alanyl-L-alanine
_symmetry_cell_setting           monoclinic
_symmetry_space_group_name_H-M   'P 21'
_symmetry_Int_Tables_number      4
_space_group_name_Hall           'P 2yb'
loop_
_symmetry_equiv_pos_site_id
_symmetry_equiv_pos_as_xyz
1 x,y,z
2 -x,1/2+y,-z
_cell_length_a                   9.8190(10)
_cell_length_b                   9.9392(10)
_cell_length_c                   11.8693(12)
_cell_angle_alpha                90
_cell_angle_beta                 101.079(2)
_cell_angle_gamma                90
_cell_volume                     1136.77
_exptl_crystal_colour            colorless
_exptl_crystal_description       plate
_cell_formula_units_Z            4
loop_
_atom_site_label
_atom_site_type_symbol
_atom_site_fract_x
_atom_site_fract_y
_atom_site_fract_z
C1 C 0.7409(2) 0.6375(2) 0.15580(19)
H1 H 0.8314 0.6009 0.1480
H2 H 0.6753 0.6274 0.0829
H3 H 0.7062 0.5886 0.2162
C2 C 0.7565(2) 0.7867(2) 0.18747(17)
H4 H 0.6653 0.8229 0.1995
C3 C 0.86550(19) 0.8063(2) 0.29650(16)
C4 C 0.9645(2) 0.9765(2) 0.51541(18)
H5 H 1.0093 1.0012 0.4513
H6 H 1.0303 0.9886 0.5880
H7 H 0.8833 1.0341 0.5147
C5 C 0.91833(19) 0.8286(2) 0.50305(16)
H8 H 1.0016 0.7707 0.5031
C6 C 0.85125(19) 0.78815(19) 0.60353(16)
C7 C 0.8173(2) 0.5749(2) 0.79649(18)
H9 H 0.7340 0.5789 0.7360
H10 H 0.7907 0.5555 0.8702
H11 H 0.8789 0.5037 0.7786
C8 C 0.8931(2) 0.7104(2) 0.80368(16)
H12 H 0.8295 0.7830 0.8207
C9 C 1.01919(19) 0.7022(2) 0.90226(17)
N1 N 0.80382(17) 0.86419(18) 0.09328(14)
H13 H 0.8327 0.9475 0.1194
H14 H 0.7322 0.8722 0.0324
H15 H 0.8753 0.8198 0.0710
N2 N 0.81922(17) 0.80751(19) 0.39552(14)
H16 H 0.7305 0.7958 0.3959
N3 N 0.93931(16) 0.74234(18) 0.69613(14)
H17 H 1.0272 0.7311 0.6924
O1 O 0.98915(14) 0.81776(16) 0.29084(12)
O2 O 0.72520(13) 0.80255(16) 0.59936(12)
O3 O 1.12644(14) 0.64485(16) 0.88141(12)
O4 O 1.00731(16) 0.7471(2) 0.99823(14)
C10 C 0.1715(2) 0.5804(2) 0.22977(17)
H18 H 0.1076 0.5474 0.1616
H19 H 0.1189 0.6044 0.2892
H20 H 0.2389 0.5098 0.2589
C11 C 0.24804(19) 0.7042(2) 0.19800(16)
H21 H 0.1795 0.7785 0.1756
C12 C 0.3610(2) 0.7526(2) 0.29686(16)
C13 C 0.4290(3) 0.9923(2) 0.4926(2)
H22 H 0.4674 1.0180 0.4253
H23 H 0.4935 1.0191 0.5626
H24 H 0.3397 1.0375 0.4896
C14 C 0.4079(2) 0.8400(2) 0.49274(16)
H25 H 0.4999 0.7957 0.4954
C15 C 0.3520(2) 0.7964(2) 0.59885(17)
C16 C 0.4273(2) 0.6097(2) 0.82517(19)
H26 H 0.3581 0.5640 0.7673
H27 H 0.4114 0.5871 0.9020
H28 H 0.5205 0.5804 0.8178
C17 C 0.4146(2) 0.7625(2) 0.80704(17)
H29 H 0.3168 0.7899 0.8078
C18 C 0.5114(2) 0.8371(2) 0.90357(17)
N4 N 0.31244(17) 0.67020(17) 0.09810(13)
H30 H 0.3754 0.7347 0.0893
H31 H 0.2455 0.6659 0.0335
H32 H 0.3559 0.5892 0.1103
N5 N 0.31343(17) 0.79358(19) 0.39018(14)
H33 H 0.2236 0.7923 0.3892
N6 N 0.44748(17) 0.7986(2) 0.69598(14)
H34 H 0.5329 0.8226 0.6928
O5 O 0.48482(14) 0.75139(17) 0.29044(12)
O6 O 0.22903(14) 0.76709(18) 0.59434(13)
O7 O 0.61671(15) 0.89520(15) 0.87944(12)
O8 O 0.48441(17) 0.83305(18) 1.00217(14)
loop_
_geom_bond_atom_site_label_1
_geom_bond_atom_site_label_2
_geom_bond_site_symmetry_1
_geom_bond_site_symmetry_2
C1 H1 1_555 1_555
H2 C1 1_555 1_555
H3 C1 1_555 1_555
C2 C1 1_555 1_555
H4 C2 1_555 1_555
C3 C2 1_555 1_555
C4 H5 1_555 1_555
H6 C4 1_555 1_555
H7 C4 1_555 1_555
C5 C4 1_555 1_555
H8 C5 1_555 1_555
C6 C5 1_555 1_555
C7 H9 1_555 1_555
H10 C7 1_555 1_555
H11 C7 1_555 1_555
C8 C7 1_555 1_555
H12 C8 1_555 1_555
C9 C8 1_555 1_555
N1 C2 1_555 1_555
H13 N1 1_555 1_555
H14 N1 1_555 1_555
H15 N1 1_555 1_555
N2 C3 1_555 1_555
H16 N2 1_555 1_555
N3 C6 1_555 1_555
H17 N3 1_555 1_555
O1 C3 1_555 1_555
O2 C6 1_555 1_555
O3 C9 1_555 1_555
O4 C9 1_555 1_555
C10 H18 1_555 1_555
H19 C10 1_555 1_555
H20 C10 1_555 1_555
C11 C10 1_555 1_555
H21 C11 1_555 1_555
C12 C11 1_555 1_555
C13 H22 1_555 1_555
H23 C13 1_555 1_555
H24 C13 1_555 1_555
C14 C13 1_555 1_555
H25 C14 1_555 1_555
C15 C14 1_555 1_555
C16 H26 1_555 1_555
H27 C16 1_555 1_555
H28 C16 1_555 1_555
C17 C16 1_555 1_555
H29 C17 1_555 1_555
C18 C17 1_555 1_555
N4 C11 1_555 1_555
H30 N4 1_555 1_555
H31 N4 1_555 1_555
H32 N4 1_555 1_555
N5 C12 1_555 1_555
H33 N5 1_555 1_555
N6 C15 1_555 1_555
H34 N6 1_555 1_555
O5 C12 1_555 1_555
O6 C15 1_555 1_555
O7 C18 1_555 1_555
O8 C18 1_555 1_555
C5 N2 1_555 1_555
C8 N3 1_555 1_555
C14 N5 1_555 1_555
C17 N6 1_555 1_555

#END
