
#######################################################################
#
#                 Cambridge Crystallographic Data Centre
#                                CCDC 
#
#######################################################################
#
# If this CIF has been generated from an entry in the Cambridge 
# Structural Database, then it will include bibliographic, chemical, 
# crystal, experimental, refinement or atomic coordinate data resulting 
# from the CCDC's data processing and validation procedures.
#
#######################################################################

data_ZZZKPE08
_chemical_formula_moiety         'C6 H12 O2'
_chemical_name_systematic        cyclohexane-1,2-diol
_symmetry_cell_setting           monoclinic
_symmetry_space_group_name_H-M   'C 2/c'
_symmetry_Int_Tables_number      15
_space_group_name_Hall           '-C 2yn'
loop_
_symmetry_equiv_pos_site_id
_symmetry_equiv_pos_as_xyz
1 x,y,z
2 -x,y,1/2-z
3 1/2+x,1/2+y,z
4 1/2-x,1/2+y,1/2-z
5 -x,-y,-z
6 x,-y,1/2+z
7 1/2-x,1/2-y,-z
8 1/2+x,1/2-y,1/2+z
_cell_length_a                   18.375
_cell_length_b                   10.013
_cell_length_c                   7.215
_cell_angle_alpha                90
_cell_angle_beta                 95.43
_cell_angle_gamma                90
_cell_volume                     1321.52
_cell_formula_units_Z            8
loop_
_atom_site_label
_atom_site_type_symbol
_atom_site_fract_x
_atom_site_fract_y
_atom_site_fract_z
O1 O 0.25846(12) 0.11966(19) 0.7277(3)
O2 O 0.29079(12) 0.38673(18) 0.6397(3)
C1 C 0.32967(15) 0.1754(3) 0.7644(4)
H1 H 0.3571 0.1621 0.6558
C2 C 0.32486(15) 0.3230(3) 0.8048(4)
H2 H 0.2941 0.3362 0.9071
C3 C 0.40002(16) 0.3820(3) 0.8596(4)
H3 H 0.4294 0.3755 0.7553
H4 H 0.3950 0.4759 0.8894
C4 C 0.43853(18) 0.3100(4) 1.0266(5)
H5 H 0.4120 0.3250 1.1348
H6 H 0.4874 0.3461 1.0531
C5 C 0.44319(18) 0.1610(4) 0.9897(5)
H7 H 0.4751 0.1455 0.8922
H8 H 0.4641 0.1163 1.1015
C6 C 0.36828(18) 0.1028(3) 0.9312(4)
H9 H 0.3385 0.1082 1.0349
H10 H 0.3735 0.0092 0.9003
loop_
_geom_bond_atom_site_label_1
_geom_bond_atom_site_label_2
_geom_bond_site_symmetry_1
_geom_bond_site_symmetry_2
O1 C1 1_555 1_555
O2 C2 1_555 1_555
C1 H1 1_555 1_555
C2 C1 1_555 1_555
H2 C2 1_555 1_555
C3 C2 1_555 1_555
H3 C3 1_555 1_555
H4 C3 1_555 1_555
C4 C3 1_555 1_555
H5 C4 1_555 1_555
H6 C4 1_555 1_555
C5 C4 1_555 1_555
H7 C5 1_555 1_555
H8 C5 1_555 1_555
C6 C1 1_555 1_555
H9 C6 1_555 1_555
H10 C6 1_555 1_555
C5 C6 1_555 1_555

#END
