
#######################################################################
#
#                 Cambridge Crystallographic Data Centre
#                                CCDC 
#
#######################################################################
#
# If this CIF has been generated from an entry in the Cambridge 
# Structural Database, then it will include bibliographic, chemical, 
# crystal, experimental, refinement or atomic coordinate data resulting 
# from the CCDC's data processing and validation procedures.
#
#######################################################################

data_ZZZKPE02
_chemical_formula_moiety         'C6 H12 O2'
_chemical_name_systematic        trans-Cyclohexane-1,2-diol
_symmetry_cell_setting           orthorhombic
_symmetry_space_group_name_H-M   'P b c a'
_symmetry_Int_Tables_number      61
_space_group_name_Hall           '-P 2ac 2ab'
loop_
_symmetry_equiv_pos_site_id
_symmetry_equiv_pos_as_xyz
1 x,y,z
2 1/2-x,-y,1/2+z
3 1/2+x,1/2-y,-z
4 -x,1/2+y,1/2-z
5 -x,-y,-z
6 1/2+x,y,1/2-z
7 1/2-x,1/2+y,z
8 x,1/2-y,1/2+z
_cell_length_a                   7.8884(6)
_cell_length_b                   19.332(2)
_cell_length_c                   8.5009(8)
_cell_angle_alpha                90
_cell_angle_beta                 90
_cell_angle_gamma                90
_cell_volume                     1296.37
_exptl_crystal_colour            colorless
_chemical_melting_point          374-377K
_cell_formula_units_Z            8
loop_
_atom_site_label
_atom_site_type_symbol
_atom_site_fract_x
_atom_site_fract_y
_atom_site_fract_z
C1 C 0.1650(1) 0.1022(1) 0.4417(1)
C2 C 0.2952(1) 0.0593(1) 0.5288(1)
C3 C 0.3898(2) 0.1024(1) 0.6496(2)
C4 C 0.4731(2) 0.1649(1) 0.5731(2)
C5 C 0.3433(2) 0.2085(1) 0.4864(2)
C6 C 0.2471(2) 0.1650(1) 0.3664(1)
O1 O 0.0853(1) 0.0630(1) 0.3199(1)
O2 O 0.2093(1) 0.0022(1) 0.5997(1)
H1 H 0.0820 0.1164 0.5178
H2 H 0.3795 0.0425 0.4569
H3 H 0.3112 0.1180 0.7283
H4 H 0.4755 0.0744 0.6981
H5 H 0.5576 0.1493 0.4999
H6 H 0.5259 0.1926 0.6531
H7 H 0.2643 0.2273 0.5609
H8 H 0.4002 0.2455 0.4329
H9 H 0.3248 0.1497 0.2868
H10 H 0.1604 0.1930 0.3191
H11 H 0.0113(20) 0.0390(7) 0.3605(17)
H12 H 0.2666(22) -0.0147(9) 0.6607(21)
loop_
_geom_bond_atom_site_label_1
_geom_bond_atom_site_label_2
_geom_bond_site_symmetry_1
_geom_bond_site_symmetry_2
C1 C2 1_555 1_555
C2 C3 1_555 1_555
C3 C4 1_555 1_555
C4 C5 1_555 1_555
C5 C6 1_555 1_555
C6 C1 1_555 1_555
O1 C1 1_555 1_555
O2 C2 1_555 1_555
H1 C1 1_555 1_555
H2 C2 1_555 1_555
H3 C3 1_555 1_555
H4 C3 1_555 1_555
H5 C4 1_555 1_555
H6 C4 1_555 1_555
H7 C5 1_555 1_555
H8 C5 1_555 1_555
H9 C6 1_555 1_555
H10 C6 1_555 1_555
H11 O1 1_555 1_555
H12 O2 1_555 1_555

#END
