
#######################################################################
#
#                 Cambridge Crystallographic Data Centre
#                                CCDC 
#
#######################################################################
#
# If this CIF has been generated from an entry in the Cambridge 
# Structural Database, then it will include bibliographic, chemical, 
# crystal, experimental, refinement or atomic coordinate data resulting 
# from the CCDC's data processing and validation procedures.
#
#######################################################################

data_ZZZMNO01
_chemical_name_common            'Quinine sulfate dihydrate'
_chemical_formula_moiety         '2(C20 H25 N2 O2 1+),O4 S1 2-,2(H2 O1)'
_chemical_name_systematic        
'bis((1S,2S,4S,5R)-2-[(R)-hydroxy(6-methoxy-4-quinolyl)methyl]-5-vinylquinuclidinium) sulfate dihydrate'
_symmetry_cell_setting           monoclinic
_symmetry_space_group_name_H-M   'C 2'
_symmetry_Int_Tables_number      5
_space_group_name_Hall           'C 2y'
loop_
_symmetry_equiv_pos_site_id
_symmetry_equiv_pos_as_xyz
1 x,y,z
2 -x,y,-z
3 1/2+x,1/2+y,z
4 1/2-x,1/2+y,-z
_cell_length_a                   20.180(7)
_cell_length_b                   6.637(2)
_cell_length_c                   15.316(6)
_cell_angle_alpha                90
_cell_angle_beta                 113.288(9)
_cell_angle_gamma                90
_cell_volume                     1884.22
_exptl_crystal_colour            colorless
_exptl_crystal_description       plate
_cell_formula_units_Z            2
loop_
_atom_site_label
_atom_site_type_symbol
_atom_site_fract_x
_atom_site_fract_y
_atom_site_fract_z
S1 S 0.5000 0.51309(11) 1.0000
O4 O 0.47838(9) 0.6396(3) 1.06305(11)
O5 O 0.43932(8) 0.3783(3) 0.94218(11)
O4A O 0.52162(9) 0.6396(3) 0.93695(11)
O5A O 0.56068(8) 0.3783(3) 1.05782(11)
O1 O 0.47279(8) 0.1096(3) 0.69000(11)
O2 O 0.32201(8) 0.9132(3) 0.79914(10)
H1 H 0.3533 0.9443 0.8528
C1 C 0.48547(12) 0.0841(4) 0.78784(16)
H4 H 0.5164 0.1934 0.8252
H5 H 0.5094 -0.0456 0.8104
H6 H 0.4394 0.0869 0.7951
C2 C 0.43495(11) 0.2754(4) 0.64592(15)
C3 C 0.42548(11) 0.2932(4) 0.54931(15)
H7 H 0.4423 0.1899 0.5203
C4 C 0.39215(11) 0.4589(4) 0.49829(15)
H8 H 0.3874 0.4712 0.4343
C5 C 0.36455(11) 0.6127(4) 0.53810(15)
C6 C 0.30432(11) 0.9131(4) 0.52007(15)
H9 H 0.2819 1.0268 0.4823
C7 C 0.30701(11) 0.9037(4) 0.61389(15)
H10 H 0.2859 1.0076 0.6370
C8 C 0.34015(11) 0.7442(4) 0.67093(14)
C9 C 0.37165(10) 0.5906(4) 0.63416(15)
C10 C 0.40826(10) 0.4200(4) 0.68725(14)
H11 H 0.4143 0.4060 0.7517
C11 C 0.34041(11) 0.7262(4) 0.77006(14)
H12 H 0.3896 0.6852 0.8157
C12 C 0.28570(10) 0.5609(3) 0.76677(14)
H13 H 0.2928 0.4457 0.7293
C13 C 0.20590(10) 0.6274(4) 0.71813(14)
H14 H 0.2034 0.7728 0.7028
H15 H 0.1818 0.5519 0.6581
C14 C 0.16724(11) 0.5862(4) 0.78526(15)
H16 H 0.1155 0.6282 0.7539
C15 C 0.20490(12) 0.7091(4) 0.87635(16)
H17 H 0.1779 0.6971 0.9178
H18 H 0.2064 0.8530 0.8604
C16 C 0.28208(11) 0.6285(4) 0.92844(14)
H19 H 0.3169 0.7416 0.9450
H20 H 0.2864 0.5605 0.9880
C17 C 0.25215(11) 0.2979(4) 0.85222(15)
H21 H 0.2651 0.2279 0.9138
H22 H 0.2601 0.2038 0.8072
C18 C 0.17165(11) 0.3630(4) 0.81314(15)
H23 H 0.1538 0.3483 0.8652
C19 C 0.12712(12) 0.2289(4) 0.73183(16)
H24 H 0.1365 0.2326 0.6757
C20 C 0.07601(13) 0.1066(4) 0.73313(19)
H25 H 0.0652 0.0991 0.7881
H26 H 0.0500 0.0260 0.6791
N1 N 0.33113(10) 0.7734(3) 0.48223(13)
N2 N 0.29863(9) 0.4822(3) 0.86512(12)
H27 H 0.3467 0.4438 0.8948
O3 O 0.40574(8) 0.9948(3) 0.98222(10)
H2 H 0.4308 1.1028 0.9875
H3 H 0.4378 0.9042 1.0097
loop_
_geom_bond_atom_site_label_1
_geom_bond_atom_site_label_2
_geom_bond_site_symmetry_1
_geom_bond_site_symmetry_2
S1 O4 1_555 1_555
O1 C1 1_555 1_555
O2 H1 1_555 1_555
O3 H2 1_555 1_555
H3 O3 1_555 1_555
O5 S1 1_555 1_555
C1 H4 1_555 1_555
H5 C1 1_555 1_555
H6 C1 1_555 1_555
C2 O1 1_555 1_555
C3 C2 1_555 1_555
H7 C3 1_555 1_555
C4 C3 1_555 1_555
H8 C4 1_555 1_555
C5 C4 1_555 1_555
C6 H9 1_555 1_555
C7 C6 1_555 1_555
H10 C7 1_555 1_555
C8 C7 1_555 1_555
C9 C5 1_555 1_555
C10 C2 1_555 1_555
H11 C10 1_555 1_555
C11 O2 1_555 1_555
H12 C11 1_555 1_555
C12 C11 1_555 1_555
H13 C12 1_555 1_555
C13 C12 1_555 1_555
H14 C13 1_555 1_555
H15 C13 1_555 1_555
C14 C13 1_555 1_555
H16 C14 1_555 1_555
C15 C14 1_555 1_555
H17 C15 1_555 1_555
H18 C15 1_555 1_555
C16 C15 1_555 1_555
H19 C16 1_555 1_555
H20 C16 1_555 1_555
C17 H21 1_555 1_555
H22 C17 1_555 1_555
C18 C14 1_555 1_555
H23 C18 1_555 1_555
C19 C18 1_555 1_555
H24 C19 1_555 1_555
C20 C19 1_555 1_555
H25 C20 1_555 1_555
H26 C20 1_555 1_555
N1 C5 1_555 1_555
N2 C12 1_555 1_555
H27 N2 1_555 1_555
O4A S1 1_555 1_555
O5A S1 1_555 1_555
C6 N1 1_555 1_555
C8 C9 1_555 1_555
C8 C11 1_555 1_555
C9 C10 1_555 1_555
C16 N2 1_555 1_555
C17 C18 1_555 1_555
C17 N2 1_555 1_555

#END
