
#######################################################################
#
#                 Cambridge Crystallographic Data Centre
#                                CCDC 
#
#######################################################################
#
# If this CIF has been generated from an entry in the Cambridge 
# Structural Database, then it will include bibliographic, chemical, 
# crystal, experimental, refinement or atomic coordinate data resulting 
# from the CCDC's data processing and validation procedures.
#
#######################################################################

data_ZZZNVG01
_chemical_compound_source        'seeds of Caesalpinia minax Hance'
_chemical_formula_moiety         'C29 H48 O1,H2 O1'
_chemical_name_systematic        'rac-Stigmasterol monohydrate'
_chemical_properties_biological  'moderate activity against the Para3 virus'
_symmetry_cell_setting           monoclinic
_symmetry_space_group_name_H-M   'P 21'
_symmetry_Int_Tables_number      4
_space_group_name_Hall           'P 2yb'
loop_
_symmetry_equiv_pos_site_id
_symmetry_equiv_pos_as_xyz
1 x,y,z
2 -x,1/2+y,-z
_cell_length_a                   10.2679(10)
_cell_length_b                   7.6293(7)
_cell_length_c                   35.392(4)
_cell_angle_alpha                90
_cell_angle_beta                 94.402(2)
_cell_angle_gamma                90
_cell_volume                     2764.32
_exptl_crystal_colour            colorless
_exptl_crystal_description       plate
_cell_formula_units_Z            4
_exptl_crystal_recrystallization_method methanol/chloroform
loop_
_atom_site_label
_atom_site_type_symbol
_atom_site_fract_x
_atom_site_fract_y
_atom_site_fract_z
O1 O 0.3790(8) 1.0097(13) 0.4983(2)
O2 O 0.1234(11) 0.868(2) 0.5049(3)
O3 O 0.6077(6) 0.8628(7) 0.47641(13)
H1 H 0.5384 0.9086 0.4810
C1 C 0.6703(6) 1.0874(8) 0.38423(15)
H2 H 0.6892 1.2089 0.3787
H3 H 0.5898 1.0564 0.3696
C2 C 0.6485(7) 1.0716(8) 0.42623(16)
H4 H 0.5736 1.1417 0.4319
H5 H 0.7244 1.1158 0.4413
C3 C 0.6247(8) 0.8784(10) 0.43664(17)
H6 H 0.5450 0.8376 0.4223
C4 C 0.7348(7) 0.7679(9) 0.42665(18)
H7 H 0.7146 0.6463 0.4316
H8 H 0.8120 0.7992 0.4428
C5 C 0.7650(5) 0.7868(8) 0.38519(16)
C6 C 0.7700(6) 0.6463(8) 0.36319(17)
H9 H 0.7533 0.5379 0.3738
C7 C 0.8002(6) 0.6501(7) 0.32301(17)
H10 H 0.7210 0.6260 0.3071
H11 H 0.8624 0.5578 0.3188
C8 C 0.8562(5) 0.8243(7) 0.31115(16)
H12 H 0.9466 0.8342 0.3220
C9 C 0.7735(5) 0.9747(7) 0.32721(15)
H13 H 0.6822 0.9510 0.3186
C10 C 0.7818(5) 0.9721(7) 0.37075(15)
C11 C 0.8082(6) 1.1546(7) 0.31013(16)
H14 H 0.7442 1.2403 0.3169
H15 H 0.8927 1.1916 0.3215
C12 C 0.8129(6) 1.1543(7) 0.26684(16)
H16 H 0.7258 1.1333 0.2551
H17 H 0.8412 1.2686 0.2586
C13 C 0.9061(5) 1.0136(7) 0.25370(15)
C14 C 0.8542(5) 0.8397(7) 0.26826(16)
H18 H 0.7621 0.8334 0.2588
C15 C 0.9257(6) 0.6991(8) 0.24643(18)
H19 H 1.0089 0.6698 0.2598
H20 H 0.8733 0.5934 0.2434
C16 C 0.9456(6) 0.7785(8) 0.20878(18)
H21 H 0.8925 0.7186 0.1889
H22 H 1.0365 0.7692 0.2034
C17 C 0.9045(5) 0.9749(8) 0.21077(15)
H23 H 0.8136 0.9831 0.2003
C18 C 1.0463(5) 1.0498(9) 0.27044(17)
H24 H 1.1036 0.9604 0.2623
H25 H 1.0483 1.0494 0.2976
H26 H 1.0743 1.1621 0.2619
C19 C 0.9134(6) 1.0414(9) 0.38776(18)
H27 H 0.9266 1.1584 0.3788
H28 H 0.9823 0.9669 0.3803
H29 H 0.9140 1.0425 0.4149
C20 C 0.9871(6) 1.0937(9) 0.18632(17)
H30 H 1.0775 1.0864 0.1973
C21 C 0.9500(7) 1.2849(9) 0.1862(2)
H31 H 1.0057 1.3489 0.1705
H32 H 0.9600 1.3298 0.2115
H33 H 0.8607 1.2976 0.1763
C22 C 0.9873(6) 1.0309(11) 0.14607(18)
H34 H 0.9140 0.9789 0.1337
C23 C 1.1076(9) 1.0550(14) 0.1273(3)
H35 H 1.1812 1.1035 0.1402
C24 C 1.1101(8) 0.9989(14) 0.0858(2)
H36 H 1.0409 1.0653 0.0715
C25 C 1.0813(13) 0.8110(19) 0.0785(4)
H37 H 0.9922 0.7929 0.0858
C26 C 1.0793(12) 0.752(2) 0.0372(4)
H38 H 1.0237 0.8282 0.0216
H39 H 1.0465 0.6340 0.0350
H40 H 1.1662 0.7557 0.0290
C27 C 1.1722(13) 0.682(3) 0.1053(4)
H41 H 1.1709 0.7193 0.1312
H42 H 1.2601 0.6863 0.0979
H43 H 1.1395 0.5646 0.1028
C28 C 1.2410(14) 1.056(2) 0.0699(4)
H44 H 1.3101 0.9916 0.0842
H45 H 1.2389 1.0133 0.0440
C29 C 1.281(2) 1.234(4) 0.0693(6)
H46 H 1.3644 1.2419 0.0592
H47 H 1.2864 1.2797 0.0947
H48 H 1.2178 1.3002 0.0538
O4 O 0.2022(7) 0.5391(12) 0.4744(2)
H49 H 0.2468 0.4891 0.4914
C30 C 0.3534(8) 0.3865(10) 0.38777(18)
H50 H 0.3623 0.2703 0.3771
H51 H 0.4407 0.4315 0.3942
C31 C 0.2850(10) 0.3707(12) 0.4233(2)
H52 H 0.3330 0.2922 0.4409
H53 H 0.1981 0.3229 0.4177
C32 C 0.2757(11) 0.5546(12) 0.4412(2)
H54 H 0.3634 0.5999 0.4485
C33 C 0.2032(9) 0.6789(11) 0.4137(2)
H55 H 0.1124 0.6436 0.4100
H56 H 0.2062 0.7964 0.4242
C34 C 0.2622(6) 0.6801(9) 0.37613(17)
C35 C 0.2938(7) 0.8319(9) 0.35979(19)
H57 H 0.2794 0.9337 0.3733
C36 C 0.3485(6) 0.8547(8) 0.32284(18)
H58 H 0.4401 0.8858 0.3268
H59 H 0.3035 0.9499 0.3092
C37 C 0.3348(5) 0.6863(7) 0.29896(16)
H60 H 0.2433 0.6737 0.2893
C38 C 0.3728(5) 0.5272(8) 0.32398(16)
H61 H 0.4606 0.5520 0.3356
C39 C 0.2849(6) 0.5061(8) 0.35705(17)
C40 C 0.3849(6) 0.3583(8) 0.30124(17)
H62 H 0.2980 0.3181 0.2926
H63 H 0.4248 0.2689 0.3178
C41 C 0.4674(6) 0.3788(8) 0.26601(17)
H64 H 0.5578 0.4022 0.2745
H65 H 0.4645 0.2703 0.2517
C42 C 0.4145(5) 0.5287(7) 0.24046(16)
C43 C 0.4174(6) 0.6952(8) 0.26603(17)
H66 H 0.5078 0.7072 0.2768
C44 C 0.3942(7) 0.8496(10) 0.2369(2)
H67 H 0.3018 0.8673 0.2300
H68 H 0.4321 0.9581 0.2469
C45 C 0.4662(7) 0.7827(9) 0.2024(2)
H69 H 0.4089 0.7916 0.1794
H70 H 0.5430 0.8537 0.1994
C46 C 0.5063(5) 0.5896(9) 0.20951(18)
H71 H 0.5963 0.5886 0.2210
C47 C 0.2764(5) 0.4857(10) 0.22251(18)
H72 H 0.2801 0.3825 0.2071
H73 H 0.2445 0.5824 0.2071
H74 H 0.2188 0.4654 0.2422
C48 C 0.1503(7) 0.4289(10) 0.3430(2)
H75 H 0.1089 0.5043 0.3240
H76 H 0.0965 0.4198 0.3639
H77 H 0.1622 0.3147 0.3324
C49 C 0.5041(6) 0.4899(10) 0.17206(19)
H78 H 0.4164 0.5019 0.1593
C50 C 0.5329(8) 0.2893(11) 0.1774(2)
H79 H 0.4704 0.2388 0.1930
H80 H 0.6193 0.2738 0.1893
H81 H 0.5266 0.2326 0.1531
C51 C 0.6012(6) 0.5675(11) 0.1460(2)
H82 H 0.6712 0.6330 0.1566
C52 C 0.5878(9) 0.543(2) 0.1067(2)
H83 H 0.5207 0.4735 0.0957
C53 C 0.6822(9) 0.6285(14) 0.0830(2)
H84 H 0.7573 0.6665 0.0998
C54 C 0.6132(12) 0.7925(19) 0.0667(4)
H85 H 0.5676 0.8549 0.0860
C55 C 0.5113(15) 0.731(3) 0.0308(4)
H86 H 0.4643 0.8309 0.0205
H87 H 0.4508 0.6465 0.0394
H88 H 0.5597 0.6789 0.0115
C56 C 0.678(2) 0.897(4) 0.0473(6)
H89 H 0.7486 0.9469 0.0632
H90 H 0.6216 0.9896 0.0373
H91 H 0.7124 0.8347 0.0268
C57 C 0.7322(10) 0.5050(17) 0.0533(3)
H92 H 0.6579 0.4430 0.0411
H93 H 0.7696 0.5755 0.0341
C58 C 0.8318(15) 0.372(3) 0.0674(4)
H94 H 0.8538 0.2993 0.0467
H95 H 0.7966 0.3013 0.0866
H96 H 0.9087 0.4314 0.0779
loop_
_geom_bond_atom_site_label_1
_geom_bond_atom_site_label_2
_geom_bond_site_symmetry_1
_geom_bond_site_symmetry_2
O3 H1 1_555 1_555
C1 H2 1_555 1_555
H3 C1 1_555 1_555
C2 C1 1_555 1_555
H4 C2 1_555 1_555
H5 C2 1_555 1_555
C3 O3 1_555 1_555
H6 C3 1_555 1_555
C4 C3 1_555 1_555
H7 C4 1_555 1_555
H8 C4 1_555 1_555
C5 C4 1_555 1_555
C6 C5 1_555 1_555
H9 C6 1_555 1_555
C7 C6 1_555 1_555
H10 C7 1_555 1_555
H11 C7 1_555 1_555
C8 C7 1_555 1_555
H12 C8 1_555 1_555
C9 C8 1_555 1_555
H13 C9 1_555 1_555
C10 C1 1_555 1_555
C11 C9 1_555 1_555
H14 C11 1_555 1_555
H15 C11 1_555 1_555
C12 C11 1_555 1_555
H16 C12 1_555 1_555
H17 C12 1_555 1_555
C13 C12 1_555 1_555
C14 C8 1_555 1_555
H18 C14 1_555 1_555
C15 C14 1_555 1_555
H19 C15 1_555 1_555
H20 C15 1_555 1_555
C16 C15 1_555 1_555
H21 C16 1_555 1_555
H22 C16 1_555 1_555
C17 C13 1_555 1_555
H23 C17 1_555 1_555
C18 C13 1_555 1_555
H24 C18 1_555 1_555
H25 C18 1_555 1_555
H26 C18 1_555 1_555
C19 C10 1_555 1_555
H27 C19 1_555 1_555
H28 C19 1_555 1_555
H29 C19 1_555 1_555
C20 C17 1_555 1_555
H30 C20 1_555 1_555
C21 C20 1_555 1_555
H31 C21 1_555 1_555
H32 C21 1_555 1_555
H33 C21 1_555 1_555
C22 C20 1_555 1_555
H34 C22 1_555 1_555
C23 C22 1_555 1_555
H35 C23 1_555 1_555
C24 C23 1_555 1_555
H36 C24 1_555 1_555
C25 C24 1_555 1_555
H37 C25 1_555 1_555
C26 C25 1_555 1_555
H38 C26 1_555 1_555
H39 C26 1_555 1_555
H40 C26 1_555 1_555
C27 C25 1_555 1_555
H41 C27 1_555 1_555
H42 C27 1_555 1_555
H43 C27 1_555 1_555
C28 C24 1_555 1_555
H44 C28 1_555 1_555
H45 C28 1_555 1_555
C29 C28 1_555 1_555
H46 C29 1_555 1_555
H47 C29 1_555 1_555
H48 C29 1_555 1_555
O4 H49 1_555 1_555
C30 H50 1_555 1_555
H51 C30 1_555 1_555
C31 C30 1_555 1_555
H52 C31 1_555 1_555
H53 C31 1_555 1_555
C32 O4 1_555 1_555
H54 C32 1_555 1_555
C33 C32 1_555 1_555
H55 C33 1_555 1_555
H56 C33 1_555 1_555
C34 C33 1_555 1_555
C35 C34 1_555 1_555
H57 C35 1_555 1_555
C36 C35 1_555 1_555
H58 C36 1_555 1_555
H59 C36 1_555 1_555
C37 C36 1_555 1_555
H60 C37 1_555 1_555
C38 C37 1_555 1_555
H61 C38 1_555 1_555
C39 C30 1_555 1_555
C40 C38 1_555 1_555
H62 C40 1_555 1_555
H63 C40 1_555 1_555
C41 C40 1_555 1_555
H64 C41 1_555 1_555
H65 C41 1_555 1_555
C42 C41 1_555 1_555
C43 C37 1_555 1_555
H66 C43 1_555 1_555
C44 C43 1_555 1_555
H67 C44 1_555 1_555
H68 C44 1_555 1_555
C45 C44 1_555 1_555
H69 C45 1_555 1_555
H70 C45 1_555 1_555
C46 C42 1_555 1_555
H71 C46 1_555 1_555
C47 C42 1_555 1_555
H72 C47 1_555 1_555
H73 C47 1_555 1_555
H74 C47 1_555 1_555
C48 C39 1_555 1_555
H75 C48 1_555 1_555
H76 C48 1_555 1_555
H77 C48 1_555 1_555
C49 C46 1_555 1_555
H78 C49 1_555 1_555
C50 C49 1_555 1_555
H79 C50 1_555 1_555
H80 C50 1_555 1_555
H81 C50 1_555 1_555
C51 C49 1_555 1_555
H82 C51 1_555 1_555
C52 C51 1_555 1_555
H83 C52 1_555 1_555
C53 C52 1_555 1_555
H84 C53 1_555 1_555
C54 C53 1_555 1_555
H85 C54 1_555 1_555
C55 C54 1_555 1_555
H86 C55 1_555 1_555
H87 C55 1_555 1_555
H88 C55 1_555 1_555
C56 C54 1_555 1_555
H89 C56 1_555 1_555
H90 C56 1_555 1_555
H91 C56 1_555 1_555
C57 C53 1_555 1_555
H92 C57 1_555 1_555
H93 C57 1_555 1_555
C58 C57 1_555 1_555
H94 C58 1_555 1_555
H95 C58 1_555 1_555
H96 C58 1_555 1_555
C2 C3 1_555 1_555
C5 C10 1_555 1_555
C9 C10 1_555 1_555
C13 C14 1_555 1_555
C16 C17 1_555 1_555
C31 C32 1_555 1_555
C34 C39 1_555 1_555
C38 C39 1_555 1_555
C42 C43 1_555 1_555
C45 C46 1_555 1_555

#END
