
#######################################################################
#
#                 Cambridge Crystallographic Data Centre
#                                CCDC 
#
#######################################################################
#
# If this CIF has been generated from an entry in the Cambridge 
# Structural Database, then it will include bibliographic, chemical, 
# crystal, experimental, refinement or atomic coordinate data resulting 
# from the CCDC's data processing and validation procedures.
#
#######################################################################

data_ZZZPUS20
_chemical_name_common            Tolbutamide
_chemical_formula_moiety         'C12 H18 N2 O3 S1'
_chemical_name_systematic        N-(butylcarbamoyl)-4-methylbenzenesulfonamide
_chemical_properties_biological  'antidiabetic drug'
_symmetry_cell_setting           orthorhombic
_symmetry_space_group_name_H-M   'P n a 21'
_symmetry_Int_Tables_number      33
_space_group_name_Hall           'P 2c -2n'
loop_
_symmetry_equiv_pos_site_id
_symmetry_equiv_pos_as_xyz
1 x,y,z
2 -x,-y,1/2+z
3 1/2+x,1/2-y,z
4 1/2-x,1/2+y,1/2+z
_cell_length_a                   19.4331(3)
_cell_length_b                   7.8010(1)
_cell_length_c                   9.0277(1)
_cell_angle_alpha                90
_cell_angle_beta                 90
_cell_angle_gamma                90
_cell_volume                     1368.58
_exptl_crystal_colour            colorless
_exptl_crystal_description       block
_cell_formula_units_Z            4
_exptl_crystal_recrystallization_method 'ethyl acetate'
loop_
_atom_site_label
_atom_site_type_symbol
_atom_site_fract_x
_atom_site_fract_y
_atom_site_fract_z
C1 C 0.25233(8) 0.47835(18) 0.3490(2)
H1 H 0.2192 0.5603 0.3901
H2 H 0.2721 0.5251 0.2577
H3 H 0.2891 0.4580 0.4211
C2 C 0.21632(7) 0.31199(15) 0.31534(15)
C3 C 0.22252(7) 0.17178(16) 0.41014(15)
H4 H 0.2515 0.1796 0.4946
C4 C 0.18671(6) 0.02020(16) 0.38271(13)
H5 H 0.1906 -0.0742 0.4487
C5 C 0.14538(6) 0.00903(14) 0.25774(11)
C6 C 0.13949(6) 0.14673(16) 0.15939(13)
H6 H 0.1118 0.1374 0.0731
C7 C 0.17479(7) 0.29734(16) 0.18990(13)
H7 H 0.1706 0.3920 0.1243
C8 C -0.01281(5) 0.00326(12) 0.23494(11)
C9 C -0.08768(5) 0.25236(13) 0.21765(13)
H8 H -0.1083 0.2149 0.3126
H9 H -0.1256 0.2867 0.1506
C10 C -0.04119(6) 0.40673(15) 0.24575(13)
H10 H -0.0026 0.3715 0.3105
H11 H -0.0215 0.4458 0.1504
C11 C -0.07949(9) 0.55548(17) 0.31829(17)
H12 H -0.1033 0.5129 0.4080
H13 H -0.0456 0.6429 0.3500
C12 C -0.13188(9) 0.6392(2) 0.2172(3)
H14 H -0.1094 0.6743 0.1249
H15 H -0.1514 0.7400 0.2664
H16 H -0.1687 0.5573 0.1949
O1 O 0.13184(5) -0.27044(11) 0.09902(9)
O2 O 0.09229(4) -0.27237(11) 0.35891(9)
O3 O -0.01063(5) 0.00650(12) 0.37220(9)
S1 S 0.10067(2) -0.18248(3) 0.22182(3)
N1 N 0.02559(5) -0.11972(12) 0.15659(9)
N2 N -0.05019(5) 0.10883(13) 0.15167(10)
H17 H -0.0424(9) 0.109(2) 0.066(2)
H18 H 0.0231(10) -0.115(3) 0.070(2)
loop_
_geom_bond_atom_site_label_1
_geom_bond_atom_site_label_2
_geom_bond_site_symmetry_1
_geom_bond_site_symmetry_2
C1 H1 1_555 1_555
H2 C1 1_555 1_555
H3 C1 1_555 1_555
C2 C1 1_555 1_555
C3 C2 1_555 1_555
H4 C3 1_555 1_555
C4 C3 1_555 1_555
H5 C4 1_555 1_555
C5 C4 1_555 1_555
C6 C5 1_555 1_555
H6 C6 1_555 1_555
C7 C2 1_555 1_555
H7 C7 1_555 1_555
C8 O3 1_555 1_555
C9 H8 1_555 1_555
H9 C9 1_555 1_555
C10 C9 1_555 1_555
H10 C10 1_555 1_555
H11 C10 1_555 1_555
C11 C10 1_555 1_555
H12 C11 1_555 1_555
H13 C11 1_555 1_555
C12 C11 1_555 1_555
H14 C12 1_555 1_555
H15 C12 1_555 1_555
H16 C12 1_555 1_555
O1 S1 1_555 1_555
O2 S1 1_555 1_555
S1 C5 1_555 1_555
N1 C8 1_555 1_555
N2 C8 1_555 1_555
H17 N2 1_555 1_555
H18 N1 1_555 1_555
C6 C7 1_555 1_555
C9 N2 1_555 1_555
S1 N1 1_555 1_555

#END
