
#######################################################################
#
#                 Cambridge Crystallographic Data Centre
#                                CCDC 
#
#######################################################################
#
# If this CIF has been generated from an entry in the Cambridge 
# Structural Database, then it will include bibliographic, chemical, 
# crystal, experimental, refinement or atomic coordinate data resulting 
# from the CCDC's data processing and validation procedures.
#
#######################################################################

data_ZZZPUS12
_chemical_name_common            Tolbutamide
_chemical_formula_moiety         'C12 H18 N2 O3 S1'
_chemical_name_systematic        
N-((Butylamino)-carbonyl)-4-methyl-benzenesulfonamide
_chemical_properties_biological  'antidiabetic drug'
_symmetry_cell_setting           monoclinic
_symmetry_space_group_name_H-M   'P 21/n'
_symmetry_Int_Tables_number      14
_space_group_name_Hall           '-P 2yn'
loop_
_symmetry_equiv_pos_site_id
_symmetry_equiv_pos_as_xyz
1 x,y,z
2 1/2-x,1/2+y,1/2-z
3 -x,-y,-z
4 1/2+x,1/2-y,1/2+z
_cell_length_a                   11.7120(3)
_cell_length_b                   9.02470(10)
_cell_length_c                   13.6984(3)
_cell_angle_alpha                90
_cell_angle_beta                 103.490(2)
_cell_angle_gamma                90
_cell_volume                     1407.94
_exptl_crystal_colour            colorless
_exptl_crystal_description       plate
_cell_formula_units_Z            4
loop_
_atom_site_label
_atom_site_type_symbol
_atom_site_fract_x
_atom_site_fract_y
_atom_site_fract_z
S1 S 0.36478(4) 0.19477(5) 0.62048(3)
O1 O 0.34138(13) 0.08976(15) 0.54003(10)
O2 O 0.34406(13) 0.34836(14) 0.59848(10)
O3 O 0.29000(13) 0.35222(13) 0.79006(10)
N1 N 0.28308(14) 0.14058(16) 0.69550(12)
H1 H 0.2471 0.0548 0.6824
N2 N 0.22135(16) 0.13820(17) 0.84185(12)
H2 H 0.2026 0.0455 0.8256
C1 C 0.8713(2) 0.1210(3) 0.84423(19)
H3 H 0.9106 0.0527 0.8070
H4 H 0.8756 0.0814 0.9116
H5 H 0.9103 0.2178 0.8496
C2 C 0.74479(19) 0.1381(2) 0.78963(16)
C3 C 0.6679(2) 0.2235(2) 0.82923(16)
H6 H 0.6956 0.2696 0.8927
C4 C 0.55295(19) 0.2430(2) 0.77920(15)
H7 H 0.5024 0.3043 0.8067
C5 C 0.51136(18) 0.17210(19) 0.68768(14)
C6 C 0.5855(2) 0.0856(2) 0.64699(16)
H8 H 0.5570 0.0364 0.5848
C7 C 0.7012(2) 0.0712(3) 0.69736(17)
H9 H 0.7526 0.0139 0.6681
C8 C 0.26556(17) 0.21969(19) 0.77918(14)
C9 C 0.2022(2) 0.1949(2) 0.93689(17)
H10 H 0.1262 0.1574 0.9466
H11 H 0.1979 0.3044 0.9339
C10 C 0.3004(3) 0.1483(3) 1.02643(18)
H12 H 0.2774 0.1769 1.0890
H13 H 0.3071 0.0389 1.0262
C11 C 0.4185(3) 0.2132(4) 1.0286(2)
H14 H 0.4439 0.1837 0.9673
H15 H 0.4138 0.3227 1.0298
C12 C 0.5038(4) 0.1612(6) 1.1173(3)
H16 H 0.4784 0.1906 1.1778
H17 H 0.5807 0.2051 1.1187
H18 H 0.5097 0.0530 1.1151
H19? H 0.4349 0.1874 0.9629
H20? H 0.4746 0.1549 1.0794
C13? C 0.4569(9) 0.3719(10) 1.0471(8)
H21? H 0.4658 0.3955 1.1183
H22? H 0.3977 0.4373 1.0063
H23? H 0.5321 0.3862 1.0288
loop_
_geom_bond_atom_site_label_1
_geom_bond_atom_site_label_2
_geom_bond_site_symmetry_1
_geom_bond_site_symmetry_2
S1 O1 1_555 1_555
O2 S1 1_555 1_555
O3 C8 1_555 1_555
N1 S1 1_555 1_555
H1 N1 1_555 1_555
N2 H2 1_555 1_555
C1 H3 1_555 1_555
H4 C1 1_555 1_555
H5 C1 1_555 1_555
C2 C1 1_555 1_555
C3 C2 1_555 1_555
H6 C3 1_555 1_555
C4 C3 1_555 1_555
H7 C4 1_555 1_555
C5 S1 1_555 1_555
C6 C5 1_555 1_555
H8 C6 1_555 1_555
C7 C2 1_555 1_555
H9 C7 1_555 1_555
C8 N1 1_555 1_555
C9 N2 1_555 1_555
H10 C9 1_555 1_555
H11 C9 1_555 1_555
C10 C9 1_555 1_555
H12 C10 1_555 1_555
H13 C10 1_555 1_555
C11 C10 1_555 1_555
H14 C11 1_555 1_555
H15 C11 1_555 1_555
C12 C11 1_555 1_555
H16 C12 1_555 1_555
H17 C12 1_555 1_555
H18 C12 1_555 1_555
N2 C8 1_555 1_555
C4 C5 1_555 1_555
C6 C7 1_555 1_555

#END
