
#######################################################################
#
#                 Cambridge Crystallographic Data Centre
#                                CCDC 
#
#######################################################################
#
# If this CIF has been generated from an entry in the Cambridge 
# Structural Database, then it will include bibliographic, chemical, 
# crystal, experimental, refinement or atomic coordinate data resulting 
# from the CCDC's data processing and validation procedures.
#
#######################################################################

data_ZZZQSE03
_chemical_formula_moiety         'C11 H18 N1 O1 1+,Cl1 1-'
_chemical_name_systematic        'N,N-Dimethylnorephedrine hydrochloride'
_symmetry_cell_setting           orthorhombic
_symmetry_space_group_name_H-M   'P 21 21 21'
_symmetry_Int_Tables_number      19
_space_group_name_Hall           'P 2ac 2ab'
loop_
_symmetry_equiv_pos_site_id
_symmetry_equiv_pos_as_xyz
1 x,y,z
2 1/2-x,-y,1/2+z
3 1/2+x,1/2-y,-z
4 -x,1/2+y,1/2-z
_cell_length_a                   7.2486(19)
_cell_length_b                   9.674(3)
_cell_length_c                   16.952(5)
_cell_angle_alpha                90
_cell_angle_beta                 90
_cell_angle_gamma                90
_cell_volume                     1188.72
_cell_formula_units_Z            4
loop_
_atom_site_label
_atom_site_type_symbol
_atom_site_fract_x
_atom_site_fract_y
_atom_site_fract_z
Cl1 Cl -0.0159(1) 0.3409(1) 0.1205(1)
N1 N 0.3744(2) 0.6792(2) 0.3558(1)
O1 O 0.2934(2) 0.5119(1) 0.2005(1)
C1 C 0.6010(3) 0.6651(2) 0.2427(1)
C2 C 0.4098(3) 0.7091(2) 0.2692(1)
C3 C 0.2523(3) 0.6519(2) 0.2177(1)
C4 C 0.2333(3) 0.7416(2) 0.1445(1)
C5 C 0.1425(3) 0.8679(2) 0.1501(1)
C6 C 0.1378(3) 0.9568(2) 0.0854(1)
C7 C 0.2223(3) 0.9201(2) 0.0159(1)
C8 C 0.3079(3) 0.7946(2) 0.0095(1)
C9 C 0.3134(3) 0.7050(2) 0.0734(1)
C10 C 0.3657(3) 0.5299(2) 0.3776(1)
C11 C 0.5044(4) 0.7555(2) 0.4085(1)
loop_
_geom_bond_atom_site_label_1
_geom_bond_atom_site_label_2
_geom_bond_site_symmetry_1
_geom_bond_site_symmetry_2
N1 C2 1_555 1_555
O1 C3 1_555 1_555
C1 C2 1_555 1_555
C2 C3 1_555 1_555
C3 C4 1_555 1_555
C4 C5 1_555 1_555
C5 C6 1_555 1_555
C6 C7 1_555 1_555
C7 C8 1_555 1_555
C8 C9 1_555 1_555
C9 C4 1_555 1_555
C10 N1 1_555 1_555
C11 N1 1_555 1_555

#END
