
#######################################################################
#
#                 Cambridge Crystallographic Data Centre
#                                CCDC 
#
#######################################################################
#
# If this CIF has been generated from an entry in the Cambridge 
# Structural Database, then it will include bibliographic, chemical, 
# crystal, experimental, refinement or atomic coordinate data resulting 
# from the CCDC's data processing and validation procedures.
#
#######################################################################

data_ZZZRNY03
_chemical_formula_moiety         'C11 H8 N2'
_chemical_name_systematic        9H-\b-carboline
_symmetry_cell_setting           orthorhombic
_symmetry_space_group_name_H-M   'P 21 21 21'
_symmetry_Int_Tables_number      19
_space_group_name_Hall           'P 2ac 2ab'
loop_
_symmetry_equiv_pos_site_id
_symmetry_equiv_pos_as_xyz
1 x,y,z
2 1/2+x,1/2-y,-z
3 -x,1/2+y,1/2-z
4 1/2-x,-y,1/2+z
_cell_length_a                   5.84400(10)
_cell_length_b                   9.81400(10)
_cell_length_c                   14.41950(10)
_cell_angle_alpha                90
_cell_angle_beta                 90
_cell_angle_gamma                90
_cell_volume                     827.002
_exptl_crystal_colour            yellow
_exptl_crystal_description       block
_cell_formula_units_Z            4
loop_
_atom_site_label
_atom_site_type_symbol
_atom_site_fract_x
_atom_site_fract_y
_atom_site_fract_z
C1 C 0.3267(2) 0.28779(14) 0.31970(9)
C2 C 0.3820(2) 0.18852(15) 0.25400(9)
C3 C 0.0347(3) 0.08240(16) 0.27926(10)
C4 C -0.0342(2) 0.17553(14) 0.34561(10)
C5 C 0.1151(2) 0.28163(13) 0.36691(9)
C6 C 0.1153(3) 0.39310(14) 0.43227(9)
C7 C -0.0403(3) 0.44041(14) 0.49837(10)
C8 C 0.0190(3) 0.55275(15) 0.55154(10)
C9 C 0.2304(3) 0.61749(15) 0.53927(11)
C10 C 0.3863(3) 0.57405(14) 0.47415(10)
C11 C 0.3270(3) 0.45995(14) 0.42066(10)
N1 N 0.4542(2) 0.39552(12) 0.35298(8)
N2 N 0.2374(2) 0.08704(13) 0.23448(8)
H1 H 0.5309 0.1897 0.2219
H2 H -0.0599 0.0036 0.2649
H3 H -0.1753 0.1667 0.3755
H4 H -0.1857 0.3951 0.5049
H5 H -0.0865 0.5891 0.5981
H6 H 0.2746 0.6932 0.5792
H7 H 0.5314 0.6186 0.4654
H8 H 0.5808 0.4325 0.3265
loop_
_geom_bond_atom_site_label_1
_geom_bond_atom_site_label_2
_geom_bond_site_symmetry_1
_geom_bond_site_symmetry_2
C1 C2 1_555 1_555
C2 N2 1_555 1_555
C3 C4 1_555 1_555
C4 C5 1_555 1_555
C5 C1 1_555 1_555
C6 C5 1_555 1_555
C7 C6 1_555 1_555
C8 C7 1_555 1_555
C9 C8 1_555 1_555
C10 C9 1_555 1_555
C11 C6 1_555 1_555
N1 C1 1_555 1_555
N2 C3 1_555 1_555
H1 C2 1_555 1_555
H2 C3 1_555 1_555
H3 C4 1_555 1_555
H4 C7 1_555 1_555
H5 C8 1_555 1_555
H6 C9 1_555 1_555
H7 C10 1_555 1_555
H8 N1 1_555 1_555
C10 C11 1_555 1_555
C11 N1 1_555 1_555

#END
