
#######################################################################
#
#                 Cambridge Crystallographic Data Centre
#                                CCDC 
#
#######################################################################
#
# If this CIF has been generated from an entry in the Cambridge 
# Structural Database, then it will include bibliographic, chemical, 
# crystal, experimental, refinement or atomic coordinate data resulting 
# from the CCDC's data processing and validation procedures.
#
#######################################################################

data_ZZZUEU03
_chemical_compound_source        
'rhizomae of A. chinensis (Maxim.) Franch. et Savat'
_chemical_name_common            'bergenin monohydrate'
_chemical_formula_moiety         'C14 H16 O9,H2 O1'
_chemical_name_systematic        
'4-methoxy-2-((1S,2R,3S,4S,5R)-3,4,5,6-tetrahydro-3,4,5-trihydroxy-6-(hydroxymethyl)-2H-pyran-2-yl)-\a-resorcylic acid \f-lactone monohydrate'
_chemical_properties_biological  
'antiasthmatic, antitussive, antiinflammatory, antifungal, antiHIV and antihepatotoxic activity'
_symmetry_cell_setting           orthorhombic
_symmetry_space_group_name_H-M   'P 21 21 21'
_symmetry_Int_Tables_number      19
_space_group_name_Hall           'P 2ac 2ab'
loop_
_symmetry_equiv_pos_site_id
_symmetry_equiv_pos_as_xyz
1 x,y,z
2 1/2-x,-y,1/2+z
3 -x,1/2+y,1/2-z
4 1/2+x,1/2-y,-z
_cell_length_a                   7.4970(10)
_cell_length_b                   13.930(2)
_cell_length_c                   14.282(2)
_cell_angle_alpha                90
_cell_angle_beta                 90
_cell_angle_gamma                90
_cell_volume                     1491.52
_exptl_crystal_colour            colorless
_exptl_crystal_description       prism
_chemical_melting_point          '412-413 K'
_cell_formula_units_Z            4
_exptl_crystal_recrystallization_method MeOH/water
loop_
_atom_site_label
_atom_site_type_symbol
_atom_site_fract_x
_atom_site_fract_y
_atom_site_fract_z
O1 O 0.0940(2) 0.54515(13) 0.70349(13)
O2 O 0.2351(2) 0.46012(10) 0.59816(11)
O3 O 0.6459(2) 0.50246(10) 0.46516(10)
O4 O 0.7915(2) 0.66373(12) 0.53087(13)
H1 H 0.7938 0.6112 0.5050
O5 O 0.7156(2) 0.83886(10) 0.60465(12)
O6 O 0.4244(2) 0.86799(11) 0.70672(13)
H2 H 0.3372 0.8684 0.7414
O7 O 0.2102(2) 0.31910(11) 0.45466(12)
H3 H 0.1542 0.3601 0.4258
O8 O 0.5575(2) 0.25522(10) 0.38740(11)
H4 H 0.5946 0.2283 0.4346
O9 O 0.9834(2) 0.45263(12) 0.37981(13)
H5 H 0.9927 0.5076 0.3599
C1 C 0.2193(3) 0.54124(16) 0.64929(17)
C2 C 0.3551(3) 0.46160(15) 0.51905(15)
H6 H 0.3044 0.5011 0.4689
C3 C 0.5357(3) 0.50095(15) 0.54730(14)
H7 H 0.5896 0.4593 0.5949
C4 C 0.5106(3) 0.60018(15) 0.58636(15)
C5 C 0.6355(3) 0.67383(15) 0.57784(15)
C6 C 0.6017(3) 0.76364(15) 0.61761(16)
C7 C 0.4457(3) 0.77830(15) 0.66983(16)
C8 C 0.3232(3) 0.70564(16) 0.68016(16)
H8 H 0.2206 0.7154 0.7154
C9 C 0.3537(3) 0.61736(15) 0.63750(16)
C10 C 0.3756(3) 0.35838(15) 0.48548(15)
H9 H 0.4173 0.3198 0.5385
C11 C 0.5171(3) 0.35300(14) 0.40864(15)
H10 H 0.4683 0.3830 0.3521
C12 C 0.6891(3) 0.40618(14) 0.43521(15)
H11 H 0.7486 0.3720 0.4864
C13 C 0.8144(3) 0.41411(17) 0.35295(17)
H12 H 0.8317 0.3510 0.3256
H13 H 0.7613 0.4551 0.3056
C14 C 0.8762(4) 0.8319(2) 0.6577(2)
H14 H 0.8477 0.8258 0.7229
H15 H 0.9466 0.8887 0.6482
H16 H 0.9425 0.7767 0.6377
O10 O 0.8437(2) 0.39252(13) 0.67747(14)
H17 H 0.898(3) 0.3449(12) 0.660(2)
H18 H 0.916(3) 0.4374(14) 0.685(2)
loop_
_geom_bond_atom_site_label_1
_geom_bond_atom_site_label_2
_geom_bond_site_symmetry_1
_geom_bond_site_symmetry_2
O1 C1 1_555 1_555
O2 C1 1_555 1_555
O3 C3 1_555 1_555
O4 H1 1_555 1_555
O5 C6 1_555 1_555
O6 H2 1_555 1_555
O7 H3 1_555 1_555
O8 H4 1_555 1_555
O9 H5 1_555 1_555
C1 C9 1_555 1_555
C2 O2 1_555 1_555
H6 C2 1_555 1_555
C3 C2 1_555 1_555
H7 C3 1_555 1_555
C4 C3 1_555 1_555
C5 O4 1_555 1_555
C6 C5 1_555 1_555
C7 O6 1_555 1_555
C8 C7 1_555 1_555
H8 C8 1_555 1_555
C9 C4 1_555 1_555
C10 O7 1_555 1_555
H9 C10 1_555 1_555
C11 O8 1_555 1_555
H10 C11 1_555 1_555
C12 O3 1_555 1_555
H11 C12 1_555 1_555
C13 O9 1_555 1_555
H12 C13 1_555 1_555
H13 C13 1_555 1_555
C14 O5 1_555 1_555
H14 C14 1_555 1_555
H15 C14 1_555 1_555
H16 C14 1_555 1_555
O10 H17 1_555 1_555
H18 O10 1_555 1_555
C2 C10 1_555 1_555
C4 C5 1_555 1_555
C6 C7 1_555 1_555
C8 C9 1_555 1_555
C10 C11 1_555 1_555
C11 C12 1_555 1_555
C12 C13 1_555 1_555

#END
