
#######################################################################
#
#                 Cambridge Crystallographic Data Centre
#                                CCDC 
#
#######################################################################
#
# If this CIF has been generated from an entry in the Cambridge 
# Structural Database, then it will include bibliographic, chemical, 
# crystal, experimental, refinement or atomic coordinate data resulting 
# from the CCDC's data processing and validation procedures.
#
#######################################################################

data_ZZZUEU01
_chemical_compound_source        'roots of Rodgersid aesulifolia Batal'
_chemical_formula_moiety         'C14 H16 O9,H2 O1'
_chemical_name_systematic        'Bergenin monohydrate'
_symmetry_cell_setting           orthorhombic
_symmetry_space_group_name_H-M   'P 21 21 21'
_symmetry_Int_Tables_number      19
_space_group_name_Hall           'P 2ac 2ab'
loop_
_symmetry_equiv_pos_site_id
_symmetry_equiv_pos_as_xyz
1 x,y,z
2 1/2+x,1/2-y,-z
3 -x,1/2+y,1/2-z
4 1/2-x,-y,1/2+z
_cell_length_a                   7.468(9)
_cell_length_b                   13.899(4)
_cell_length_c                   14.288
_cell_angle_alpha                90
_cell_angle_beta                 90
_cell_angle_gamma                90
_cell_volume                     1483.06
_exptl_crystal_colour            colorless
_cell_formula_units_Z            4
loop_
_atom_site_label
_atom_site_type_symbol
_atom_site_fract_x
_atom_site_fract_y
_atom_site_fract_z
C1 C 0.3649(3) 0.1737(1) 0.0776(1)
C2 C 0.3989(3) 0.2630(1) 0.1176(1)
C3 C 0.5536(3) 0.2780(1) 0.1693(1)
C4 C 0.6773(3) 0.2055(1) 0.1799(1)
C5 C 0.6462(3) 0.1175(1) 0.1378(1)
C6 C 0.4898(3) 0.1005(1) 0.0866(1)
C7 C 0.4646(3) 0.0012(1) 0.0474(1)
C8 C 0.6441(3) -0.0385(1) 0.0191(1)
O1 O 0.7650(2) -0.0399(1) 0.0984(1)
C9 C 0.7806(3) 0.0415(1) 0.1494(1)
O2 O 0.2085(2) 0.1631(1) 0.0310(1)
O3 O 0.5762(2) 0.3679(1) 0.2068(1)
O4 O 0.3542(2) 0.0025(1) -0.0347(1)
O5 O 0.9054(2) 0.0451(1) 0.2035(1)
O6 O 0.2839(2) 0.3386(1) 0.1048(1)
C10 C 0.6245(3) -0.1413(1) -0.0146(1)
O7 O 0.4425(2) -0.2450(1) -0.1120(1)
O8 O 0.7904(2) -0.1806(1) -0.0457(1)
C11 C 0.3119(3) -0.0938(1) -0.0648(1)
O9 O 0.0174(2) -0.0477(1) -0.1201(1)
C12 C 0.1849(3) -0.0856(1) -0.1470(1)
C13 C 0.4834(3) -0.1469(1) -0.0911(1)
C14 C 0.1235(4) 0.3314(2) 0.1583(2)
H1 H 0.2374(39) 0.1034(19) 0.0063(19)
H2 H 0.6865(38) 0.3717(21) 0.2365(18)
O10 O 0.8452(2) 0.3925(1) 0.3222(1)
H3 H 0.9290(44) 0.4420(20) 0.3147(21)
H4 H 0.9249(38) 0.3448(17) 0.3468(17)
loop_
_geom_bond_atom_site_label_1
_geom_bond_atom_site_label_2
_geom_bond_site_symmetry_1
_geom_bond_site_symmetry_2
C1 C2 1_555 1_555
C2 C3 1_555 1_555
C3 C4 1_555 1_555
C4 C5 1_555 1_555
C5 C6 1_555 1_555
C6 C1 1_555 1_555
C7 C6 1_555 1_555
C8 C7 1_555 1_555
O1 C8 1_555 1_555
C9 C5 1_555 1_555
O2 C1 1_555 1_555
O3 C3 1_555 1_555
O4 C7 1_555 1_555
O5 C9 1_555 1_555
O6 C2 1_555 1_555
C10 C8 1_555 1_555
O7 C13 1_555 1_555
O8 C10 1_555 1_555
C11 O4 1_555 1_555
O9 C12 1_555 1_555
C12 C11 1_555 1_555
C13 C10 1_555 1_555
C14 O6 1_555 1_555
H1 O2 1_555 1_555
H2 O3 1_555 1_555
O10 H3 1_555 1_555
H4 O10 1_555 1_555
O1 C9 1_555 1_555
C11 C13 1_555 1_555

#END
