
#######################################################################
#
#                 Cambridge Crystallographic Data Centre
#                                CCDC 
#
#######################################################################
#
# If this CIF has been generated from an entry in the Cambridge 
# Structural Database, then it will include bibliographic, chemical, 
# crystal, experimental, refinement or atomic coordinate data resulting 
# from the CCDC's data processing and validation procedures.
#
#######################################################################

data_ZZZVSU03
_chemical_formula_moiety         'C6 H16 N1 1+,I1 1-'
_chemical_name_systematic        'Triethylammonium iodide'
_symmetry_cell_setting           hexagonal
_symmetry_space_group_name_H-M   'P 63/m m c'
_symmetry_Int_Tables_number      194
_space_group_name_Hall           "-P 6c 2'c"
loop_
_symmetry_equiv_pos_site_id
_symmetry_equiv_pos_as_xyz
1 x,y,z
2 x-y,x,1/2+z
3 -y,x-y,z
4 -x,-y,1/2+z
5 -x+y,-x,z
6 y,-x+y,1/2+z
7 -y,-x,1/2-z
8 x-y,-y,-z
9 x,x-y,1/2-z
10 y,x,-z
11 -x+y,y,1/2-z
12 -x,-x+y,-z
13 -x,-y,-z
14 -x+y,-x,1/2-z
15 y,-x+y,-z
16 x,y,1/2-z
17 x-y,x,-z
18 -y,x-y,1/2-z
19 y,x,1/2+z
20 -x+y,y,z
21 -x,-x+y,1/2+z
22 -y,-x,z
23 x-y,-y,1/2+z
24 x,x-y,z
_cell_length_a                   8.6361(7)
_cell_length_b                   8.6361(7)
_cell_length_c                   7.823(7)
_cell_angle_alpha                90
_cell_angle_beta                 90
_cell_angle_gamma                120
_cell_volume                     505.288
_exptl_crystal_colour            colorless
_exptl_crystal_description       block
_cell_formula_units_Z            2
loop_
_atom_site_label
_atom_site_type_symbol
_atom_site_fract_x
_atom_site_fract_y
_atom_site_fract_z
I1 I 0.6667 0.3333 0.2500
C1 C 0.816(3) 0.305(4) 0.7500
C2 C 0.805(6) 0.133(5) 0.681(7)
N1 N 0.6667 0.3333 0.707(6)
C1F C 0.695(4) 0.184(3) 0.7500
C1H C 0.816(3) 0.511(5) 0.7500
C1B C 0.695(4) 0.511(5) 0.7500
C1J C 0.489(5) 0.305(4) 0.7500
C1D C 0.489(5) 0.184(3) 0.7500
C2F C 0.867(5) 0.195(6) 0.819(7)
C2U C 0.867(5) 0.195(6) 0.681(7)
C2O C 0.805(6) 0.133(5) 0.819(7)
C2B C 0.867(5) 0.672(8) 0.681(7)
C2H C 0.805(6) 0.672(8) 0.819(7)
C2Q C 0.867(5) 0.672(8) 0.819(7)
C2W C 0.805(6) 0.672(8) 0.681(7)
C2D C 0.328(8) 0.195(6) 0.681(7)
C2J C 0.328(8) 0.133(5) 0.819(7)
C2M C 0.328(8) 0.195(6) 0.819(7)
C2S C 0.328(8) 0.133(5) 0.681(7)
N1F N 0.6667 0.3333 0.793(6)
H1? H 0.8259 0.3042 0.8735
H2? H 0.9254 0.4056 0.7074
H3? H 0.9095 0.1293 0.7144
H4? H 0.7967 0.1320 0.5586
H5? H 0.7005 0.0314 0.7269
H6? H 0.6667 0.3333 0.5943
loop_
_geom_bond_atom_site_label_1
_geom_bond_atom_site_label_2
_geom_bond_site_symmetry_1
_geom_bond_site_symmetry_2
C1 C2 1_555 1_555
C2 C1F 1_555 1_555
N1 C1 1_555 1_555
C1F C1 1_555 1_555
C1H N1 1_555 1_555
C1B N1 1_555 1_555
C1J N1 1_555 1_555
C1D N1 1_555 1_555
C2F C1 1_555 1_555
C2U C1 1_555 1_555
C2O C1 1_555 1_555
C2B C1H 1_555 1_555
C2H C1H 1_555 1_555
C2Q C1H 1_555 1_555
C2W C1H 1_555 1_555
C2D C1J 1_555 1_555
C2J C1J 1_555 1_555
C2M C1J 1_555 1_555
C2S C1J 1_555 1_555
N1F C1 1_555 1_555
C2 C2F 1_555 1_555
C2 C2U 1_555 1_555
C2 C2O 1_555 1_555
N1 C1F 1_555 1_555
N1 N1F 1_555 1_555
C1F C2F 1_555 1_555
C1F C2U 1_555 1_555
C1F C2O 1_555 1_555
C1F N1F 1_555 1_555
C1H C1B 1_555 1_555
C1H N1F 1_555 1_555
C1B C2B 1_555 1_555
C1B C2H 1_555 1_555
C1B C2Q 1_555 1_555
C1B C2W 1_555 1_555
C1B N1F 1_555 1_555
C1J C1D 1_555 1_555
C1J N1F 1_555 1_555
C1D C2D 1_555 1_555
C1D C2J 1_555 1_555
C1D C2M 1_555 1_555
C1D C2S 1_555 1_555
C1D N1F 1_555 1_555
C2F C2U 1_555 1_555
C2F C2O 1_555 1_555
C2U C2O 1_555 1_555
C2B C2H 1_555 1_555
C2B C2Q 1_555 1_555
C2B C2W 1_555 1_555
C2H C2Q 1_555 1_555
C2H C2W 1_555 1_555
C2Q C2W 1_555 1_555
C2D C2J 1_555 1_555
C2D C2M 1_555 1_555
C2D C2S 1_555 1_555
C2J C2M 1_555 1_555
C2J C2S 1_555 1_555
C2M C2S 1_555 1_555

#END
