data_image0
_cell_length_a       19.574
_cell_length_b       15.805
_cell_length_c       15.84
_cell_angle_alpha    90
_cell_angle_beta     90
_cell_angle_gamma    90

_symmetry_space_group_name_H-M    "P 1"
_symmetry_int_tables_number       1

loop_
  _symmetry_equiv_pos_as_xyz
  'x, y, z'

loop_
  _atom_site_label
  _atom_site_occupancy
  _atom_site_fract_x
  _atom_site_fract_y
  _atom_site_fract_z
  _atom_site_thermal_displace_type
  _atom_site_B_iso_or_equiv
  _atom_site_type_symbol
  C1       1.0000 0.70660  0.45599  0.52348  Biso   1.000  C
  N1       1.0000 0.67002  0.39741  0.47083  Biso   1.000  N
  N2       1.0000 0.66752  0.50180  0.58460  Biso   1.000  N
  C2       1.0000 0.75370  0.39722  0.57980  Biso   1.000  C
  H1       1.0000 0.73490  0.49541  0.48864  Biso   1.000  H
  C3       1.0000 0.62450  0.42037  0.40309  Biso   1.000  C
  C4       1.0000 0.68642  0.31648  0.48611  Biso   1.000  C
  C5       1.0000 0.62552  0.57469  0.56471  Biso   1.000  C
  C6       1.0000 0.68663  0.48497  0.66540  Biso   1.000  C
  N3       1.0000 0.73220  0.31401  0.55278  Biso   1.000  N
  N4       1.0000 0.73501  0.42170  0.66604  Biso   1.000  N
  H2       1.0000 0.80331  0.40702  0.56818  Biso   1.000  H
  N5       1.0000 0.55671  0.44378  0.43018  Biso   1.000  N
  H3       1.0000 0.64468  0.46840  0.37172  Biso   1.000  H
  H4       1.0000 0.62093  0.37210  0.36357  Biso   1.000  H
  O1       1.0000 0.66782  0.25448  0.44470  Biso   1.000  O
  N6       1.0000 0.55640  0.55191  0.53990  Biso   1.000  N
  H5       1.0000 0.62343  0.61208  0.61484  Biso   1.000  H
  H6       1.0000 0.64729  0.60677  0.51831  Biso   1.000  H
  O2       1.0000 0.66818  0.52332  0.73011  Biso   1.000  O
  C7       1.0000 0.76561  0.23670  0.57872  Biso   1.000  C
  C8       1.0000 0.76203  0.38361  0.73952  Biso   1.000  C
  C9       1.0000 0.50000  0.39760  0.41351  Biso   1.000  C
  C10      1.0000 0.53959  0.53028  0.45549  Biso   1.000  C
  C11      1.0000 0.50000  0.57102  0.58668  Biso   1.000  C
  N7       1.0000 0.73659  0.19892  0.65429  Biso   1.000  N
  H7       1.0000 0.76270  0.19519  0.53201  Biso   1.000  H
  H8       1.0000 0.81450  0.24872  0.58889  Biso   1.000  H
  N8       1.0000 0.72903  0.30560  0.76509  Biso   1.000  N
  H9       1.0000 0.81113  0.37191  0.72999  Biso   1.000  H
  H10      1.0000 0.75861  0.42461  0.78662  Biso   1.000  H
  N9       1.0000 0.44329  0.44378  0.43018  Biso   1.000  N
  O3       1.0000 0.50000  0.32458  0.38592  Biso   1.000  O
  C12      1.0000 0.46041  0.53028  0.45549  Biso   1.000  C
  H11      1.0000 0.55819  0.57260  0.41458  Biso   1.000  H
  N10      1.0000 0.44360  0.55191  0.53990  Biso   1.000  N
  O4       1.0000 0.50000  0.60089  0.65751  Biso   1.000  O
  C13      1.0000 0.68862  0.13673  0.64931  Biso   1.000  C
  C14      1.0000 0.75212  0.22158  0.73838  Biso   1.000  C
  C15      1.0000 0.68489  0.30218  0.82860  Biso   1.000  C
  C16      1.0000 0.37550  0.42037  0.40309  Biso   1.000  C
  H12      1.0000 0.44181  0.57260  0.41458  Biso   1.000  H
  C17      1.0000 0.37453  0.57469  0.56471  Biso   1.000  C
  N11      1.0000 0.66691  0.11838  0.72992  Biso   1.000  N
  O5       1.0000 0.66869  0.10212  0.58491  Biso   1.000  O
  C18      1.0000 0.70772  0.16242  0.79160  Biso   1.000  C
  H13      1.0000 0.80173  0.21329  0.75088  Biso   1.000  H
  N12      1.0000 0.67033  0.21949  0.84722  Biso   1.000  N
  O6       1.0000 0.66343  0.36216  0.87109  Biso   1.000  O
  N13      1.0000 0.32998  0.39741  0.47083  Biso   1.000  N
  H14      1.0000 0.35532  0.46840  0.37172  Biso   1.000  H
  H15      1.0000 0.37913  0.37210  0.36357  Biso   1.000  H
  N14      1.0000 0.33248  0.50180  0.58460  Biso   1.000  N
  H16      1.0000 0.37662  0.61208  0.61484  Biso   1.000  H
  H17      1.0000 0.35271  0.60677  0.51831  Biso   1.000  H
  C19      1.0000 0.62399  0.04600  0.74710  Biso   1.000  C
  H18      1.0000 0.73649  0.12211  0.82481  Biso   1.000  H
  C20      1.0000 0.62420  0.19317  0.91471  Biso   1.000  C
  C21      1.0000 0.31358  0.31648  0.48611  Biso   1.000  C
  C22      1.0000 0.29340  0.45599  0.52348  Biso   1.000  C
  C23      1.0000 0.31343  0.48497  0.66540  Biso   1.000  C
  N15      1.0000 0.55589  0.06650  0.77374  Biso   1.000  N
  H19      1.0000 0.64591  0.01152  0.79173  Biso   1.000  H
  H20      1.0000 0.62128  0.01088  0.69552  Biso   1.000  H
  N16      1.0000 0.55671  0.17058  0.88504  Biso   1.000  N
  H21      1.0000 0.62001  0.23992  0.95600  Biso   1.000  H
  H22      1.0000 0.64432  0.14407  0.94432  Biso   1.000  H
  O7       1.0000 0.33223  0.25448  0.44470  Biso   1.000  O
  N17      1.0000 0.26780  0.31401  0.55278  Biso   1.000  N
  C24      1.0000 0.24630  0.39722  0.57980  Biso   1.000  C
  H23      1.0000 0.26510  0.49541  0.48864  Biso   1.000  H
  N18      1.0000 0.26499  0.42170  0.66604  Biso   1.000  N
  O8       1.0000 0.33182  0.52332  0.73011  Biso   1.000  O
  C25      1.0000 0.50000  0.05112  0.72500  Biso   1.000  C
  C26      1.0000 0.53832  0.08643  0.86130  Biso   1.000  C
  C27      1.0000 0.50000  0.21759  0.90928  Biso   1.000  C
  C28      1.0000 0.23439  0.23670  0.57872  Biso   1.000  C
  H24      1.0000 0.19669  0.40702  0.56818  Biso   1.000  H
  C29      1.0000 0.23802  0.38361  0.73952  Biso   1.000  C
  N19      1.0000 0.44411  0.06650  0.77374  Biso   1.000  N
  O9       1.0000 0.50000  0.02847  0.65120  Biso   1.000  O
  C30      1.0000 0.46168  0.08643  0.86130  Biso   1.000  C
  H25      1.0000 0.55722  0.04353  0.90152  Biso   1.000  H
  N20      1.0000 0.44329  0.17058  0.88504  Biso   1.000  N
  O10      1.0000 0.50000  0.28580  0.94343  Biso   1.000  O
  N21      1.0000 0.26341  0.19892  0.65429  Biso   1.000  N
  H26      1.0000 0.23730  0.19519  0.53201  Biso   1.000  H
  H27      1.0000 0.18550  0.24872  0.58889  Biso   1.000  H
  N22      1.0000 0.27102  0.30560  0.76509  Biso   1.000  N
  H28      1.0000 0.18892  0.37191  0.72999  Biso   1.000  H
  H29      1.0000 0.24139  0.42461  0.78662  Biso   1.000  H
  C31      1.0000 0.37601  0.04600  0.74710  Biso   1.000  C
  H30      1.0000 0.44278  0.04353  0.90152  Biso   1.000  H
  C32      1.0000 0.37580  0.19317  0.91471  Biso   1.000  C
  C33      1.0000 0.31138  0.13673  0.64931  Biso   1.000  C
  C34      1.0000 0.24788  0.22158  0.73838  Biso   1.000  C
  C35      1.0000 0.31511  0.30218  0.82860  Biso   1.000  C
  N23      1.0000 0.33309  0.11838  0.72992  Biso   1.000  N
  H31      1.0000 0.35409  0.01152  0.79173  Biso   1.000  H
  H32      1.0000 0.37872  0.01088  0.69552  Biso   1.000  H
  N24      1.0000 0.32972  0.21949  0.84722  Biso   1.000  N
  H33      1.0000 0.37999  0.23992  0.95600  Biso   1.000  H
  H34      1.0000 0.35573  0.14407  0.94432  Biso   1.000  H
  O11      1.0000 0.33131  0.10212  0.58491  Biso   1.000  O
  C36      1.0000 0.29233  0.16242  0.79160  Biso   1.000  C
  H35      1.0000 0.19832  0.21329  0.75088  Biso   1.000  H
  O12      1.0000 0.33662  0.36216  0.87109  Biso   1.000  O
  H36      1.0000 0.26351  0.12211  0.82481  Biso   1.000  H
  O13      1.0000 0.66343  0.63777  0.37109  Biso   1.000  O
  C37      1.0000 0.68489  0.69782  0.32860  Biso   1.000  C
  N25      1.0000 0.67033  0.78051  0.34722  Biso   1.000  N
  N26      1.0000 0.72903  0.69440  0.26509  Biso   1.000  N
  C38      1.0000 0.62420  0.80677  0.41471  Biso   1.000  C
  C39      1.0000 0.70772  0.83758  0.29160  Biso   1.000  C
  C40      1.0000 0.76203  0.61639  0.23952  Biso   1.000  C
  C41      1.0000 0.75212  0.77836  0.23838  Biso   1.000  C
  N27      1.0000 0.55671  0.82942  0.38497  Biso   1.000  N
  H37      1.0000 0.62001  0.76008  0.45600  Biso   1.000  H
  H38      1.0000 0.64432  0.85587  0.44432  Biso   1.000  H
  N28      1.0000 0.66691  0.88162  0.22992  Biso   1.000  N
  H39      1.0000 0.73649  0.87789  0.32481  Biso   1.000  H
  N29      1.0000 0.73501  0.57830  0.16597  Biso   1.000  N
  H40      1.0000 0.81113  0.62809  0.22999  Biso   1.000  H
  H41      1.0000 0.75861  0.57539  0.28662  Biso   1.000  H
  N30      1.0000 0.73659  0.80108  0.15429  Biso   1.000  N
  H42      1.0000 0.80173  0.78671  0.25088  Biso   1.000  H
  C42      1.0000 0.50000  0.78241  0.40928  Biso   1.000  C
  C43      1.0000 0.53832  0.91357  0.36130  Biso   1.000  C
  C44      1.0000 0.62399  0.95400  0.24710  Biso   1.000  C
  C45      1.0000 0.68862  0.86327  0.14931  Biso   1.000  C
  C46      1.0000 0.68663  0.51496  0.16540  Biso   1.000  C
  C47      1.0000 0.75370  0.60278  0.07980  Biso   1.000  C
  C48      1.0000 0.76561  0.76330  0.07872  Biso   1.000  C
  N31      1.0000 0.44329  0.82942  0.38497  Biso   1.000  N
  O14      1.0000 0.50000  0.71420  0.44343  Biso   1.000  O
  C49      1.0000 0.46168  0.91357  0.36130  Biso   1.000  C
  N32      1.0000 0.55589  0.93350  0.27367  Biso   1.000  N
  H43      1.0000 0.55722  0.95647  0.40152  Biso   1.000  H
  H44      1.0000 0.64591  0.98848  0.29173  Biso   1.000  H
  H45      1.0000 0.62128  0.98912  0.19552  Biso   1.000  H
  O15      1.0000 0.66869  0.89788  0.08491  Biso   1.000  O
  N33      1.0000 0.66752  0.49820  0.08460  Biso   1.000  N
  O16      1.0000 0.66818  0.47668  0.23011  Biso   1.000  O
  C50      1.0000 0.70660  0.54401  0.02348  Biso   1.000  C
  N34      1.0000 0.73220  0.68599  0.05278  Biso   1.000  N
  H46      1.0000 0.80331  0.59298  0.06818  Biso   1.000  H
  H47      1.0000 0.76270  0.80481  0.03201  Biso   1.000  H
  H48      1.0000 0.81450  0.75128  0.08889  Biso   1.000  H
  C51      1.0000 0.37580  0.80677  0.41471  Biso   1.000  C
  N35      1.0000 0.44411  0.93350  0.27367  Biso   1.000  N
  H49      1.0000 0.44278  0.95647  0.40152  Biso   1.000  H
  C52      1.0000 0.50000  0.94888  0.22500  Biso   1.000  C
  C53      1.0000 0.62552  0.42531  0.06471  Biso   1.000  C
  N36      1.0000 0.67002  0.60259  0.97077  Biso   1.000  N
  H50      1.0000 0.73490  0.50459  0.98857  Biso   1.000  H
  C54      1.0000 0.68642  0.68352  0.98611  Biso   1.000  C
  N37      1.0000 0.32972  0.78051  0.34722  Biso   1.000  N
  H51      1.0000 0.37999  0.76008  0.45600  Biso   1.000  H
  H52      1.0000 0.35573  0.85587  0.44432  Biso   1.000  H
  C55      1.0000 0.37601  0.95400  0.24710  Biso   1.000  C
  O17      1.0000 0.50000  0.97146  0.15120  Biso   1.000  O
  N38      1.0000 0.55640  0.44809  0.03990  Biso   1.000  N
  H53      1.0000 0.62343  0.38792  0.11477  Biso   1.000  H
  H54      1.0000 0.64729  0.39317  0.01831  Biso   1.000  H
  C56      1.0000 0.62450  0.57956  0.90309  Biso   1.000  C
  O18      1.0000 0.66782  0.74546  0.94470  Biso   1.000  O
  C57      1.0000 0.31511  0.69782  0.32860  Biso   1.000  C
  C58      1.0000 0.29233  0.83758  0.29160  Biso   1.000  C
  N39      1.0000 0.33309  0.88162  0.22992  Biso   1.000  N
  H55      1.0000 0.35409  0.98848  0.29173  Biso   1.000  H
  H56      1.0000 0.37872  0.98912  0.19552  Biso   1.000  H
  C59      1.0000 0.50000  0.42898  0.08668  Biso   1.000  C
  C60      1.0000 0.53959  0.46972  0.95549  Biso   1.000  C
  N40      1.0000 0.55671  0.55622  0.93018  Biso   1.000  N
  H57      1.0000 0.64468  0.53160  0.87172  Biso   1.000  H
  H58      1.0000 0.62093  0.62790  0.86357  Biso   1.000  H
  N41      1.0000 0.27102  0.69440  0.26509  Biso   1.000  N
  O19      1.0000 0.33662  0.63777  0.37109  Biso   1.000  O
  C61      1.0000 0.24788  0.77836  0.23838  Biso   1.000  C
  H59      1.0000 0.26351  0.87789  0.32481  Biso   1.000  H
  C62      1.0000 0.31138  0.86327  0.14931  Biso   1.000  C
  N42      1.0000 0.44360  0.44809  0.03990  Biso   1.000  N
  O20      1.0000 0.50000  0.39911  0.15751  Biso   1.000  O
  C63      1.0000 0.46041  0.46972  0.95549  Biso   1.000  C
  H60      1.0000 0.55819  0.42740  0.91458  Biso   1.000  H
  C64      1.0000 0.50000  0.60240  0.91351  Biso   1.000  C
  C65      1.0000 0.23802  0.61639  0.23952  Biso   1.000  C
  N43      1.0000 0.26341  0.80108  0.15429  Biso   1.000  N
  H61      1.0000 0.19832  0.78671  0.25088  Biso   1.000  H
  O21      1.0000 0.33131  0.89788  0.08491  Biso   1.000  O
  C66      1.0000 0.37453  0.42531  0.06471  Biso   1.000  C
  N44      1.0000 0.44329  0.55622  0.93018  Biso   1.000  N
  H62      1.0000 0.44181  0.42740  0.91458  Biso   1.000  H
  O22      1.0000 0.50000  0.67542  0.88592  Biso   1.000  O
  N45      1.0000 0.26499  0.57830  0.16597  Biso   1.000  N
  H63      1.0000 0.18892  0.62809  0.22999  Biso   1.000  H
  H64      1.0000 0.24139  0.57539  0.28662  Biso   1.000  H
  C67      1.0000 0.23439  0.76330  0.07872  Biso   1.000  C
  N46      1.0000 0.33248  0.49820  0.08460  Biso   1.000  N
  H65      1.0000 0.37662  0.38792  0.11477  Biso   1.000  H
  H66      1.0000 0.35271  0.39317  0.01831  Biso   1.000  H
  C68      1.0000 0.37550  0.57956  0.90309  Biso   1.000  C
  C69      1.0000 0.31343  0.51496  0.16540  Biso   1.000  C
  C70      1.0000 0.24630  0.60278  0.07980  Biso   1.000  C
  N47      1.0000 0.26780  0.68599  0.05278  Biso   1.000  N
  H67      1.0000 0.23730  0.80481  0.03201  Biso   1.000  H
  H68      1.0000 0.18550  0.75128  0.08889  Biso   1.000  H
  C71      1.0000 0.29340  0.54401  0.02348  Biso   1.000  C
  N48      1.0000 0.32998  0.60259  0.97077  Biso   1.000  N
  H69      1.0000 0.35532  0.53160  0.87172  Biso   1.000  H
  H70      1.0000 0.37913  0.62790  0.86357  Biso   1.000  H
  O23      1.0000 0.33182  0.47668  0.23011  Biso   1.000  O
  H71      1.0000 0.19669  0.59298  0.06818  Biso   1.000  H
  C72      1.0000 0.31358  0.68352  0.98611  Biso   1.000  C
  H72      1.0000 0.26510  0.50459  0.98857  Biso   1.000  H
  O24      1.0000 0.33223  0.74546  0.94470  Biso   1.000  O
  O25      1.0000 0.83131  0.60209  0.58491  Biso   1.000  O
  C73      1.0000 0.81138  0.63670  0.64931  Biso   1.000  C
  C74      1.0000 0.81143  0.63670  0.64931  Biso   1.000  C
  N49      1.0000 0.76341  0.69889  0.65429  Biso   1.000  N
  N50      1.0000 0.83309  0.61841  0.72992  Biso   1.000  N
  C75      1.0000 0.73439  0.73667  0.57872  Biso   1.000  C
  C76      1.0000 0.74788  0.72161  0.73838  Biso   1.000  C
  C77      1.0000 0.74793  0.72161  0.73838  Biso   1.000  C
  C78      1.0000 0.79228  0.66239  0.79160  Biso   1.000  C
  C79      1.0000 0.79233  0.66239  0.79160  Biso   1.000  C
  C80      1.0000 0.87601  0.54597  0.74710  Biso   1.000  C
  N51      1.0000 0.76780  0.81398  0.55278  Biso   1.000  N
  H73      1.0000 0.73730  0.69516  0.53201  Biso   1.000  H
  H74      1.0000 0.68550  0.74869  0.58889  Biso   1.000  H
  N52      1.0000 0.77102  0.80557  0.76509  Biso   1.000  N
  H75      1.0000 0.69827  0.71332  0.75088  Biso   1.000  H
  H76      1.0000 0.69832  0.71332  0.75088  Biso   1.000  H
  N53      1.0000 0.82972  0.71952  0.84722  Biso   1.000  N
  H77      1.0000 0.76351  0.62208  0.82481  Biso   1.000  H
  N54      1.0000 0.94411  0.56647  0.77374  Biso   1.000  N
  H78      1.0000 0.85409  0.51148  0.79173  Biso   1.000  H
  H79      1.0000 0.87872  0.51091  0.69552  Biso   1.000  H
  C81      1.0000 0.74630  0.89718  0.57980  Biso   1.000  C
  C82      1.0000 0.81358  0.81651  0.48611  Biso   1.000  C
  C83      1.0000 0.81363  0.81651  0.48611  Biso   1.000  C
  C84      1.0000 0.81511  0.80221  0.82860  Biso   1.000  C
  C85      1.0000 0.73802  0.88358  0.73952  Biso   1.000  C
  C86      1.0000 0.87580  0.69320  0.91471  Biso   1.000  C
  C87      1.0000 0.96168  0.58640  0.86130  Biso   1.000  C
  C88      1.0000 0.00000  0.55109  0.72500  Biso   1.000  C
  C89      1.0000 0.96173  0.58640  0.86130  Biso   1.000  C
  N55      1.0000 0.76499  0.92167  0.66604  Biso   1.000  N
  H80      1.0000 0.69669  0.90699  0.56818  Biso   1.000  H
  C90      1.0000 0.79340  0.95596  0.52348  Biso   1.000  C
  O26      1.0000 0.83218  0.75451  0.44470  Biso   1.000  O
  N56      1.0000 0.82998  0.89737  0.47083  Biso   1.000  N
  O27      1.0000 0.83223  0.75451  0.44470  Biso   1.000  O
  N57      1.0000 0.83003  0.89737  0.47083  Biso   1.000  N
  O28      1.0000 0.83662  0.86220  0.87109  Biso   1.000  O
  H81      1.0000 0.68887  0.87188  0.72999  Biso   1.000  H
  H82      1.0000 0.74139  0.92458  0.78662  Biso   1.000  H
  H83      1.0000 0.68892  0.87188  0.72999  Biso   1.000  H
  N58      1.0000 0.94329  0.67061  0.88504  Biso   1.000  N
  H84      1.0000 0.87999  0.73989  0.95600  Biso   1.000  H
  H85      1.0000 0.85568  0.64410  0.94432  Biso   1.000  H
  H86      1.0000 0.85573  0.64410  0.94432  Biso   1.000  H
  H87      1.0000 0.94278  0.54350  0.90152  Biso   1.000  H
  H88      1.0000 0.94283  0.54350  0.90152  Biso   1.000  H
  C91      1.0000 0.03832  0.58640  0.86130  Biso   1.000  C
  O29      1.0000 0.00000  0.52850  0.65120  Biso   1.000  O
  N59      1.0000 0.05589  0.56647  0.77374  Biso   1.000  N
  C92      1.0000 0.81337  0.98500  0.66540  Biso   1.000  C
  C93      1.0000 0.81343  0.98500  0.66540  Biso   1.000  C
  H89      1.0000 0.76510  0.99538  0.48864  Biso   1.000  H
  N60      1.0000 0.83248  0.00177  0.58460  Biso   1.000  N
  N61      1.0000 0.83253  0.00177  0.58460  Biso   1.000  N
  C94      1.0000 0.87550  0.92040  0.40309  Biso   1.000  C
  C95      1.0000 0.00000  0.71762  0.90928  Biso   1.000  C
  N62      1.0000 0.05671  0.67061  0.88504  Biso   1.000  N
  H90      1.0000 0.05722  0.54350  0.90152  Biso   1.000  H
  C96      1.0000 0.12399  0.54597  0.74710  Biso   1.000  C
  O30      1.0000 0.83182  0.02328  0.73011  Biso   1.000  O
  C97      1.0000 0.87448  0.07466  0.56471  Biso   1.000  C
  C98      1.0000 0.87453  0.07466  0.56471  Biso   1.000  C
  N63      1.0000 0.94329  0.94382  0.43018  Biso   1.000  N
  H91      1.0000 0.85532  0.96836  0.37172  Biso   1.000  H
  H92      1.0000 0.87907  0.87207  0.36357  Biso   1.000  H
  H93      1.0000 0.87913  0.87207  0.36357  Biso   1.000  H
  O31      1.0000 0.00000  0.78576  0.94343  Biso   1.000  O
  C99      1.0000 0.12420  0.69320  0.91471  Biso   1.000  C
  N64      1.0000 0.16691  0.61841  0.72992  Biso   1.000  N
  H94      1.0000 0.14591  0.51148  0.79173  Biso   1.000  H
  H95      1.0000 0.12128  0.51091  0.69552  Biso   1.000  H
  H96      1.0000 0.12133  0.51091  0.69552  Biso   1.000  H
  N65      1.0000 0.94360  0.05188  0.53990  Biso   1.000  N
  H97      1.0000 0.87662  0.11212  0.61484  Biso   1.000  H
  H98      1.0000 0.85271  0.10680  0.51831  Biso   1.000  H
  C100     1.0000 0.00000  0.89756  0.41351  Biso   1.000  C
  C101     1.0000 0.96041  0.03031  0.45549  Biso   1.000  C
  N66      1.0000 0.17028  0.71952  0.84722  Biso   1.000  N
  H99      1.0000 0.12001  0.73989  0.95600  Biso   1.000  H
  H100     1.0000 0.14432  0.64410  0.94432  Biso   1.000  H
  N67      1.0000 0.17033  0.71952  0.84722  Biso   1.000  N
  C102     1.0000 0.20772  0.66239  0.79160  Biso   1.000  C
  C103     1.0000 0.18862  0.63670  0.64931  Biso   1.000  C
  C104     1.0000 0.00000  0.07099  0.58668  Biso   1.000  C
  O32      1.0000 0.00000  0.82461  0.38592  Biso   1.000  O
  N68      1.0000 0.05671  0.94382  0.43018  Biso   1.000  N
  H101     1.0000 0.94181  0.07257  0.41458  Biso   1.000  H
  C105     1.0000 0.03959  0.03031  0.45549  Biso   1.000  C
  C106     1.0000 0.18489  0.80221  0.82860  Biso   1.000  C
  H102     1.0000 0.23649  0.62208  0.82481  Biso   1.000  H
  C107     1.0000 0.25212  0.72161  0.73838  Biso   1.000  C
  O33      1.0000 0.16869  0.60209  0.58491  Biso   1.000  O
  N69      1.0000 0.23659  0.69889  0.65429  Biso   1.000  N
  O34      1.0000 0.00000  0.10092  0.65751  Biso   1.000  O
  N70      1.0000 0.05640  0.05188  0.53990  Biso   1.000  N
  C108     1.0000 0.12450  0.92040  0.40309  Biso   1.000  C
  H103     1.0000 0.05819  0.07257  0.41458  Biso   1.000  H
  O35      1.0000 0.16338  0.86220  0.87109  Biso   1.000  O
  N71      1.0000 0.22898  0.80557  0.76509  Biso   1.000  N
  O36      1.0000 0.16343  0.86220  0.87109  Biso   1.000  O
  N72      1.0000 0.22903  0.80557  0.76509  Biso   1.000  N
  H104     1.0000 0.30173  0.71332  0.75088  Biso   1.000  H
  C109     1.0000 0.26561  0.73667  0.57872  Biso   1.000  C
  C110     1.0000 0.12552  0.07466  0.56471  Biso   1.000  C
  N73      1.0000 0.17002  0.89737  0.47083  Biso   1.000  N
  H105     1.0000 0.14468  0.96836  0.37172  Biso   1.000  H
  H106     1.0000 0.12093  0.87207  0.36357  Biso   1.000  H
  H107     1.0000 0.14473  0.96836  0.37172  Biso   1.000  H
  C111     1.0000 0.26198  0.88358  0.73952  Biso   1.000  C
  C112     1.0000 0.26203  0.88358  0.73952  Biso   1.000  C
  N74      1.0000 0.23220  0.81398  0.55278  Biso   1.000  N
  H108     1.0000 0.26270  0.69516  0.53201  Biso   1.000  H
  H109     1.0000 0.31450  0.74869  0.58889  Biso   1.000  H
  N75      1.0000 0.16752  0.00177  0.58460  Biso   1.000  N
  H110     1.0000 0.12338  0.11212  0.61484  Biso   1.000  H
  H111     1.0000 0.14729  0.10680  0.51831  Biso   1.000  H
  H112     1.0000 0.12343  0.11212  0.61484  Biso   1.000  H
  C113     1.0000 0.18642  0.81651  0.48611  Biso   1.000  C
  C114     1.0000 0.20660  0.95596  0.52348  Biso   1.000  C
  N76      1.0000 0.23501  0.92167  0.66604  Biso   1.000  N
  H113     1.0000 0.31113  0.87188  0.72999  Biso   1.000  H
  H114     1.0000 0.25861  0.92458  0.78662  Biso   1.000  H
  C115     1.0000 0.25370  0.89718  0.57980  Biso   1.000  C
  C116     1.0000 0.18663  0.98500  0.66540  Biso   1.000  C
  O37      1.0000 0.16782  0.75451  0.44470  Biso   1.000  O
  H115     1.0000 0.23490  0.99538  0.48864  Biso   1.000  H
  H116     1.0000 0.30331  0.90699  0.56818  Biso   1.000  H
  O38      1.0000 0.16818  0.02328  0.73011  Biso   1.000  O
  O39      1.0000 0.16823  0.02328  0.73011  Biso   1.000  O
  O40      1.0000 0.83131  0.60209  0.58491  Biso   1.000  O
  C117     1.0000 0.81138  0.63670  0.64931  Biso   1.000  C
  C118     1.0000 0.81143  0.63670  0.64931  Biso   1.000  C
  N77      1.0000 0.76341  0.69889  0.65429  Biso   1.000  N
  N78      1.0000 0.83309  0.61841  0.72992  Biso   1.000  N
  C119     1.0000 0.73439  0.73667  0.57872  Biso   1.000  C
  C120     1.0000 0.74788  0.72161  0.73838  Biso   1.000  C
  C121     1.0000 0.74793  0.72161  0.73838  Biso   1.000  C
  C122     1.0000 0.79228  0.66239  0.79160  Biso   1.000  C
  C123     1.0000 0.79233  0.66239  0.79160  Biso   1.000  C
  C124     1.0000 0.87601  0.54597  0.74710  Biso   1.000  C
  N79      1.0000 0.76780  0.81398  0.55278  Biso   1.000  N
  H117     1.0000 0.73730  0.69516  0.53201  Biso   1.000  H
  H118     1.0000 0.68550  0.74869  0.58889  Biso   1.000  H
  N80      1.0000 0.77102  0.80557  0.76509  Biso   1.000  N
  H119     1.0000 0.69827  0.71332  0.75088  Biso   1.000  H
  H120     1.0000 0.69832  0.71332  0.75088  Biso   1.000  H
  N81      1.0000 0.82972  0.71952  0.84722  Biso   1.000  N
  H121     1.0000 0.76351  0.62208  0.82481  Biso   1.000  H
  N82      1.0000 0.94411  0.56647  0.77374  Biso   1.000  N
  H122     1.0000 0.85409  0.51148  0.79173  Biso   1.000  H
  H123     1.0000 0.87872  0.51091  0.69552  Biso   1.000  H
  C125     1.0000 0.74630  0.89718  0.57980  Biso   1.000  C
  C126     1.0000 0.81358  0.81651  0.48611  Biso   1.000  C
  C127     1.0000 0.81363  0.81651  0.48611  Biso   1.000  C
  C128     1.0000 0.81511  0.80221  0.82860  Biso   1.000  C
  C129     1.0000 0.73802  0.88358  0.73952  Biso   1.000  C
  C130     1.0000 0.87580  0.69320  0.91471  Biso   1.000  C
  C131     1.0000 0.96168  0.58640  0.86130  Biso   1.000  C
  C132     1.0000 0.00000  0.55109  0.72500  Biso   1.000  C
  C133     1.0000 0.96173  0.58640  0.86130  Biso   1.000  C
  N83      1.0000 0.76499  0.92167  0.66604  Biso   1.000  N
  H124     1.0000 0.69669  0.90699  0.56818  Biso   1.000  H
  C134     1.0000 0.79340  0.95596  0.52348  Biso   1.000  C
  O41      1.0000 0.83218  0.75451  0.44470  Biso   1.000  O
  N84      1.0000 0.82998  0.89737  0.47083  Biso   1.000  N
  O42      1.0000 0.83223  0.75451  0.44470  Biso   1.000  O
  N85      1.0000 0.83003  0.89737  0.47083  Biso   1.000  N
  O43      1.0000 0.83662  0.86220  0.87109  Biso   1.000  O
  H125     1.0000 0.74139  0.92458  0.78662  Biso   1.000  H
  H126     1.0000 0.68887  0.87188  0.72999  Biso   1.000  H
  H127     1.0000 0.68892  0.87188  0.72999  Biso   1.000  H
  N86      1.0000 0.94329  0.67061  0.88504  Biso   1.000  N
  H128     1.0000 0.87999  0.73989  0.95600  Biso   1.000  H
  H129     1.0000 0.85568  0.64410  0.94432  Biso   1.000  H
  H130     1.0000 0.85573  0.64410  0.94432  Biso   1.000  H
  H131     1.0000 0.94278  0.54350  0.90152  Biso   1.000  H
  H132     1.0000 0.94283  0.54350  0.90152  Biso   1.000  H
  C135     1.0000 0.03832  0.58640  0.86130  Biso   1.000  C
  O44      1.0000 0.00000  0.52850  0.65120  Biso   1.000  O
  N87      1.0000 0.05589  0.56647  0.77374  Biso   1.000  N
  C136     1.0000 0.81337  0.98500  0.66540  Biso   1.000  C
  C137     1.0000 0.81343  0.98500  0.66540  Biso   1.000  C
  H133     1.0000 0.76510  0.99538  0.48864  Biso   1.000  H
  N88      1.0000 0.83248  0.00177  0.58460  Biso   1.000  N
  N89      1.0000 0.83253  0.00177  0.58460  Biso   1.000  N
  C138     1.0000 0.87550  0.92040  0.40309  Biso   1.000  C
  C139     1.0000 0.00000  0.71762  0.90928  Biso   1.000  C
  N90      1.0000 0.05671  0.67061  0.88504  Biso   1.000  N
  H134     1.0000 0.05722  0.54350  0.90152  Biso   1.000  H
  C140     1.0000 0.12399  0.54597  0.74710  Biso   1.000  C
  O45      1.0000 0.83182  0.02328  0.73011  Biso   1.000  O
  C141     1.0000 0.87448  0.07466  0.56471  Biso   1.000  C
  C142     1.0000 0.87453  0.07466  0.56471  Biso   1.000  C
  N91      1.0000 0.94329  0.94382  0.43018  Biso   1.000  N
  H135     1.0000 0.85532  0.96836  0.37172  Biso   1.000  H
  H136     1.0000 0.87907  0.87207  0.36357  Biso   1.000  H
  H137     1.0000 0.87913  0.87207  0.36357  Biso   1.000  H
  O46      1.0000 0.00000  0.78576  0.94343  Biso   1.000  O
  C143     1.0000 0.12420  0.69320  0.91471  Biso   1.000  C
  N92      1.0000 0.16691  0.61841  0.72992  Biso   1.000  N
  H138     1.0000 0.14591  0.51148  0.79173  Biso   1.000  H
  H139     1.0000 0.12128  0.51091  0.69552  Biso   1.000  H
  H140     1.0000 0.12133  0.51091  0.69552  Biso   1.000  H
  N93      1.0000 0.94360  0.05188  0.53990  Biso   1.000  N
  H141     1.0000 0.87662  0.11212  0.61484  Biso   1.000  H
  H142     1.0000 0.85271  0.10680  0.51831  Biso   1.000  H
  C144     1.0000 0.00000  0.89756  0.41351  Biso   1.000  C
  C145     1.0000 0.96041  0.03031  0.45549  Biso   1.000  C
  N94      1.0000 0.17028  0.71952  0.84722  Biso   1.000  N
  H143     1.0000 0.12001  0.73989  0.95600  Biso   1.000  H
  H144     1.0000 0.14432  0.64410  0.94432  Biso   1.000  H
  N95      1.0000 0.17033  0.71952  0.84722  Biso   1.000  N
  C146     1.0000 0.20772  0.66239  0.79160  Biso   1.000  C
  C147     1.0000 0.18862  0.63670  0.64931  Biso   1.000  C
  C148     1.0000 0.00000  0.07099  0.58668  Biso   1.000  C
  O47      1.0000 0.00000  0.82461  0.38592  Biso   1.000  O
  N96      1.0000 0.05671  0.94382  0.43018  Biso   1.000  N
  H145     1.0000 0.94181  0.07257  0.41458  Biso   1.000  H
  C149     1.0000 0.03959  0.03031  0.45549  Biso   1.000  C
  C150     1.0000 0.18489  0.80221  0.82860  Biso   1.000  C
  H146     1.0000 0.23649  0.62208  0.82481  Biso   1.000  H
  C151     1.0000 0.25212  0.72161  0.73838  Biso   1.000  C
  O48      1.0000 0.16869  0.60209  0.58491  Biso   1.000  O
  N97      1.0000 0.23659  0.69889  0.65429  Biso   1.000  N
  O49      1.0000 0.00000  0.10092  0.65751  Biso   1.000  O
  N98      1.0000 0.05640  0.05188  0.53990  Biso   1.000  N
  C152     1.0000 0.12450  0.92040  0.40309  Biso   1.000  C
  H147     1.0000 0.05819  0.07257  0.41458  Biso   1.000  H
  O50      1.0000 0.16338  0.86220  0.87109  Biso   1.000  O
  N99      1.0000 0.22898  0.80557  0.76509  Biso   1.000  N
  O51      1.0000 0.16343  0.86220  0.87109  Biso   1.000  O
  N100     1.0000 0.22903  0.80557  0.76509  Biso   1.000  N
  H148     1.0000 0.30173  0.71332  0.75088  Biso   1.000  H
  C153     1.0000 0.26561  0.73667  0.57872  Biso   1.000  C
  C154     1.0000 0.12552  0.07466  0.56471  Biso   1.000  C
  N101     1.0000 0.17002  0.89737  0.47083  Biso   1.000  N
  H149     1.0000 0.14468  0.96836  0.37172  Biso   1.000  H
  H150     1.0000 0.12093  0.87207  0.36357  Biso   1.000  H
  H151     1.0000 0.14473  0.96836  0.37172  Biso   1.000  H
  C155     1.0000 0.26198  0.88358  0.73952  Biso   1.000  C
  C156     1.0000 0.26203  0.88358  0.73952  Biso   1.000  C
  N102     1.0000 0.23220  0.81398  0.55278  Biso   1.000  N
  H152     1.0000 0.26270  0.69516  0.53201  Biso   1.000  H
  H153     1.0000 0.31450  0.74869  0.58889  Biso   1.000  H
  N103     1.0000 0.16752  0.00177  0.58460  Biso   1.000  N
  H154     1.0000 0.12338  0.11212  0.61484  Biso   1.000  H
  H155     1.0000 0.14729  0.10680  0.51831  Biso   1.000  H
  H156     1.0000 0.12343  0.11212  0.61484  Biso   1.000  H
  C157     1.0000 0.18642  0.81651  0.48611  Biso   1.000  C
  C158     1.0000 0.20660  0.95596  0.52348  Biso   1.000  C
  N104     1.0000 0.23501  0.92167  0.66604  Biso   1.000  N
  H157     1.0000 0.31113  0.87188  0.72999  Biso   1.000  H
  H158     1.0000 0.25861  0.92458  0.78662  Biso   1.000  H
  C159     1.0000 0.25370  0.89718  0.57980  Biso   1.000  C
  C160     1.0000 0.18663  0.98500  0.66540  Biso   1.000  C
  O52      1.0000 0.16782  0.75451  0.44470  Biso   1.000  O
  H159     1.0000 0.23490  0.99538  0.48864  Biso   1.000  H
  H160     1.0000 0.30331  0.90699  0.56818  Biso   1.000  H
  O53      1.0000 0.16818  0.02328  0.73011  Biso   1.000  O
  O54      1.0000 0.16823  0.02328  0.73011  Biso   1.000  O
  C161     1.0000 0.79228  0.33761  0.29160  Biso   1.000  C
  C162     1.0000 0.74788  0.27839  0.23838  Biso   1.000  C
  C163     1.0000 0.74793  0.27839  0.23838  Biso   1.000  C
  N105     1.0000 0.83309  0.38159  0.22992  Biso   1.000  N
  N106     1.0000 0.82972  0.28048  0.34722  Biso   1.000  N
  H161     1.0000 0.76351  0.37792  0.32481  Biso   1.000  H
  N107     1.0000 0.77102  0.19437  0.26509  Biso   1.000  N
  N108     1.0000 0.76341  0.30111  0.15429  Biso   1.000  N
  H162     1.0000 0.69827  0.28668  0.25088  Biso   1.000  H
  C164     1.0000 0.79233  0.33761  0.29160  Biso   1.000  C
  H163     1.0000 0.69832  0.28668  0.25088  Biso   1.000  H
  C165     1.0000 0.81138  0.36330  0.14931  Biso   1.000  C
  C166     1.0000 0.81143  0.36330  0.14931  Biso   1.000  C
  C167     1.0000 0.87601  0.45397  0.24710  Biso   1.000  C
  C168     1.0000 0.81511  0.19779  0.32860  Biso   1.000  C
  C169     1.0000 0.87580  0.30680  0.41471  Biso   1.000  C
  C170     1.0000 0.73802  0.11642  0.23952  Biso   1.000  C
  C171     1.0000 0.73439  0.26327  0.07872  Biso   1.000  C
  O55      1.0000 0.83131  0.39791  0.08491  Biso   1.000  O
  N109     1.0000 0.94411  0.43347  0.27367  Biso   1.000  N
  H164     1.0000 0.85409  0.48852  0.29173  Biso   1.000  H
  H165     1.0000 0.87872  0.48909  0.19552  Biso   1.000  H
  O56      1.0000 0.83662  0.13780  0.37109  Biso   1.000  O
  N110     1.0000 0.94329  0.32939  0.38497  Biso   1.000  N
  H166     1.0000 0.87999  0.26011  0.45600  Biso   1.000  H
  H167     1.0000 0.85568  0.35590  0.44432  Biso   1.000  H
  H168     1.0000 0.85573  0.35590  0.44432  Biso   1.000  H
  N111     1.0000 0.76499  0.07833  0.16597  Biso   1.000  N
  H169     1.0000 0.68887  0.12812  0.22999  Biso   1.000  H
  H170     1.0000 0.74139  0.07542  0.28662  Biso   1.000  H
  H171     1.0000 0.68892  0.12812  0.22999  Biso   1.000  H
  N112     1.0000 0.76780  0.18602  0.05278  Biso   1.000  N
  H172     1.0000 0.73730  0.30478  0.03201  Biso   1.000  H
  H173     1.0000 0.68550  0.25131  0.08889  Biso   1.000  H
  C172     1.0000 0.96168  0.41360  0.36130  Biso   1.000  C
  C173     1.0000 0.00000  0.44891  0.22500  Biso   1.000  C
  C174     1.0000 0.96173  0.41360  0.36130  Biso   1.000  C
  C175     1.0000 0.00000  0.28238  0.40928  Biso   1.000  C
  C176     1.0000 0.74630  0.10282  0.07980  Biso   1.000  C
  C177     1.0000 0.81337  0.01500  0.16540  Biso   1.000  C
  C178     1.0000 0.81343  0.01500  0.16540  Biso   1.000  C
  C179     1.0000 0.81358  0.18349  0.98611  Biso   1.000  C
  C180     1.0000 0.81363  0.18349  0.98611  Biso   1.000  C
  H174     1.0000 0.94278  0.45650  0.40152  Biso   1.000  H
  H175     1.0000 0.94283  0.45650  0.40152  Biso   1.000  H
  C181     1.0000 0.03832  0.41360  0.36130  Biso   1.000  C
  O57      1.0000 0.00000  0.47150  0.15120  Biso   1.000  O
  N113     1.0000 0.05589  0.43347  0.27367  Biso   1.000  N
  O58      1.0000 0.00000  0.21417  0.44343  Biso   1.000  O
  N114     1.0000 0.05671  0.32939  0.38497  Biso   1.000  N
  H176     1.0000 0.69669  0.09301  0.06818  Biso   1.000  H
  C182     1.0000 0.79340  0.04397  0.02348  Biso   1.000  C
  O59      1.0000 0.83182  0.97672  0.23011  Biso   1.000  O
  N115     1.0000 0.83248  0.99823  0.08460  Biso   1.000  N
  N116     1.0000 0.83253  0.99823  0.08460  Biso   1.000  N
  O60      1.0000 0.83218  0.24549  0.94470  Biso   1.000  O
  N117     1.0000 0.82998  0.10263  0.97077  Biso   1.000  N
  O61      1.0000 0.83223  0.24549  0.94470  Biso   1.000  O
  N118     1.0000 0.83003  0.10263  0.97077  Biso   1.000  N
  H177     1.0000 0.05722  0.45650  0.40152  Biso   1.000  H
  C183     1.0000 0.12399  0.45397  0.24710  Biso   1.000  C
  C184     1.0000 0.12420  0.30680  0.41471  Biso   1.000  C
  H178     1.0000 0.76510  0.00462  0.98857  Biso   1.000  H
  C185     1.0000 0.87448  0.92528  0.06471  Biso   1.000  C
  C186     1.0000 0.87453  0.92528  0.06471  Biso   1.000  C
  C187     1.0000 0.87550  0.07960  0.90309  Biso   1.000  C
  N119     1.0000 0.16691  0.38159  0.22992  Biso   1.000  N
  H179     1.0000 0.14591  0.48852  0.29173  Biso   1.000  H
  H180     1.0000 0.12128  0.48909  0.19552  Biso   1.000  H
  H181     1.0000 0.12133  0.48909  0.19552  Biso   1.000  H
  N120     1.0000 0.17028  0.28048  0.34722  Biso   1.000  N
  H182     1.0000 0.12001  0.26011  0.45600  Biso   1.000  H
  H183     1.0000 0.14432  0.35590  0.44432  Biso   1.000  H
  N121     1.0000 0.17033  0.28048  0.34722  Biso   1.000  N
  N122     1.0000 0.94360  0.94812  0.03990  Biso   1.000  N
  H184     1.0000 0.87662  0.88788  0.11477  Biso   1.000  H
  H185     1.0000 0.85271  0.89320  0.01831  Biso   1.000  H
  N123     1.0000 0.94329  0.05618  0.93018  Biso   1.000  N
  H186     1.0000 0.85532  0.03157  0.87172  Biso   1.000  H
  H187     1.0000 0.87907  0.12787  0.86357  Biso   1.000  H
  H188     1.0000 0.87913  0.12787  0.86357  Biso   1.000  H
  C188     1.0000 0.20772  0.33761  0.29160  Biso   1.000  C
  C189     1.0000 0.18862  0.36330  0.14931  Biso   1.000  C
  C190     1.0000 0.18489  0.19779  0.32860  Biso   1.000  C
  C191     1.0000 0.96041  0.96969  0.95549  Biso   1.000  C
  C192     1.0000 0.00000  0.92901  0.08668  Biso   1.000  C
  C193     1.0000 0.00000  0.10237  0.91351  Biso   1.000  C
  H189     1.0000 0.23649  0.37792  0.32481  Biso   1.000  H
  C194     1.0000 0.25212  0.27839  0.23838  Biso   1.000  C
  O62      1.0000 0.16869  0.39791  0.08491  Biso   1.000  O
  N124     1.0000 0.23659  0.30111  0.15429  Biso   1.000  N
  O63      1.0000 0.16338  0.13780  0.37109  Biso   1.000  O
  N125     1.0000 0.22898  0.19437  0.26509  Biso   1.000  N
  O64      1.0000 0.16343  0.13780  0.37109  Biso   1.000  O
  N126     1.0000 0.22903  0.19437  0.26509  Biso   1.000  N
  H190     1.0000 0.94181  0.92743  0.91458  Biso   1.000  H
  C195     1.0000 0.03959  0.96969  0.95549  Biso   1.000  C
  O65      1.0000 0.00000  0.89908  0.15751  Biso   1.000  O
  N127     1.0000 0.05640  0.94812  0.03990  Biso   1.000  N
  O66      1.0000 0.00000  0.17539  0.88592  Biso   1.000  O
  N128     1.0000 0.05671  0.05618  0.93018  Biso   1.000  N
  H191     1.0000 0.30173  0.28668  0.25088  Biso   1.000  H
  C196     1.0000 0.26561  0.26327  0.07872  Biso   1.000  C
  C197     1.0000 0.26198  0.11642  0.23952  Biso   1.000  C
  C198     1.0000 0.26203  0.11642  0.23952  Biso   1.000  C
  H192     1.0000 0.05819  0.92743  0.91458  Biso   1.000  H
  C199     1.0000 0.12552  0.92528  0.06471  Biso   1.000  C
  C200     1.0000 0.12450  0.07960  0.90309  Biso   1.000  C
  N129     1.0000 0.23220  0.18602  0.05278  Biso   1.000  N
  H193     1.0000 0.26270  0.30478  0.03201  Biso   1.000  H
  H194     1.0000 0.31450  0.25131  0.08889  Biso   1.000  H
  N130     1.0000 0.23501  0.07833  0.16597  Biso   1.000  N
  H195     1.0000 0.31113  0.12812  0.22999  Biso   1.000  H
  H196     1.0000 0.25861  0.07542  0.28662  Biso   1.000  H
  N131     1.0000 0.16752  0.99823  0.08460  Biso   1.000  N
  H197     1.0000 0.12338  0.88788  0.11477  Biso   1.000  H
  H198     1.0000 0.14729  0.89320  0.01831  Biso   1.000  H
  H199     1.0000 0.12343  0.88788  0.11477  Biso   1.000  H
  N132     1.0000 0.17002  0.10263  0.97077  Biso   1.000  N
  H200     1.0000 0.14468  0.03157  0.87172  Biso   1.000  H
  H201     1.0000 0.12093  0.12787  0.86357  Biso   1.000  H
  H202     1.0000 0.14473  0.03157  0.87172  Biso   1.000  H
  C201     1.0000 0.18642  0.18349  0.98611  Biso   1.000  C
  C202     1.0000 0.25370  0.10282  0.07980  Biso   1.000  C
  C203     1.0000 0.18663  0.01500  0.16540  Biso   1.000  C
  C204     1.0000 0.20660  0.04397  0.02348  Biso   1.000  C
  O67      1.0000 0.16782  0.24549  0.94470  Biso   1.000  O
  H203     1.0000 0.30331  0.09301  0.06818  Biso   1.000  H
  O68      1.0000 0.16818  0.97672  0.23011  Biso   1.000  O
  O69      1.0000 0.16823  0.97672  0.23011  Biso   1.000  O
  H204     1.0000 0.23490  0.00462  0.98857  Biso   1.000  H
  C205     1.0000 0.79228  0.33761  0.29160  Biso   1.000  C
  C206     1.0000 0.74788  0.27839  0.23838  Biso   1.000  C
  C207     1.0000 0.74793  0.27839  0.23838  Biso   1.000  C
  N133     1.0000 0.82972  0.28048  0.34722  Biso   1.000  N
  N134     1.0000 0.83309  0.38159  0.22992  Biso   1.000  N
  H205     1.0000 0.76351  0.37792  0.32481  Biso   1.000  H
  N135     1.0000 0.77102  0.19437  0.26509  Biso   1.000  N
  N136     1.0000 0.76341  0.30111  0.15429  Biso   1.000  N
  H206     1.0000 0.69827  0.28668  0.25088  Biso   1.000  H
  C208     1.0000 0.79233  0.33761  0.29160  Biso   1.000  C
  H207     1.0000 0.69832  0.28668  0.25088  Biso   1.000  H
  C209     1.0000 0.81511  0.19779  0.32860  Biso   1.000  C
  C210     1.0000 0.87580  0.30680  0.41471  Biso   1.000  C
  C211     1.0000 0.81138  0.36330  0.14931  Biso   1.000  C
  C212     1.0000 0.81143  0.36330  0.14931  Biso   1.000  C
  C213     1.0000 0.87601  0.45397  0.24710  Biso   1.000  C
  C214     1.0000 0.73802  0.11642  0.23952  Biso   1.000  C
  C215     1.0000 0.73439  0.26327  0.07872  Biso   1.000  C
  O70      1.0000 0.83662  0.13780  0.37109  Biso   1.000  O
  N137     1.0000 0.94329  0.32939  0.38497  Biso   1.000  N
  H208     1.0000 0.87999  0.26011  0.45600  Biso   1.000  H
  H209     1.0000 0.85568  0.35590  0.44432  Biso   1.000  H
  H210     1.0000 0.85573  0.35590  0.44432  Biso   1.000  H
  O71      1.0000 0.83131  0.39791  0.08491  Biso   1.000  O
  N138     1.0000 0.94411  0.43347  0.27367  Biso   1.000  N
  H211     1.0000 0.85409  0.48852  0.29173  Biso   1.000  H
  H212     1.0000 0.87872  0.48909  0.19552  Biso   1.000  H
  N139     1.0000 0.76499  0.07833  0.16597  Biso   1.000  N
  H213     1.0000 0.74139  0.07542  0.28662  Biso   1.000  H
  H214     1.0000 0.68887  0.12812  0.22999  Biso   1.000  H
  H215     1.0000 0.68892  0.12812  0.22999  Biso   1.000  H
  N140     1.0000 0.76780  0.18602  0.05278  Biso   1.000  N
  H216     1.0000 0.73730  0.30478  0.03201  Biso   1.000  H
  H217     1.0000 0.68550  0.25131  0.08889  Biso   1.000  H
  C216     1.0000 0.96168  0.41360  0.36130  Biso   1.000  C
  C217     1.0000 0.00000  0.28238  0.40928  Biso   1.000  C
  C218     1.0000 0.96173  0.41360  0.36130  Biso   1.000  C
  C219     1.0000 0.00000  0.44891  0.22500  Biso   1.000  C
  C220     1.0000 0.74630  0.10282  0.07980  Biso   1.000  C
  C221     1.0000 0.81337  0.01500  0.16540  Biso   1.000  C
  C222     1.0000 0.81343  0.01500  0.16540  Biso   1.000  C
  C223     1.0000 0.81358  0.18349  0.98611  Biso   1.000  C
  C224     1.0000 0.81363  0.18349  0.98611  Biso   1.000  C
  H218     1.0000 0.94278  0.45650  0.40152  Biso   1.000  H
  H219     1.0000 0.94283  0.45650  0.40152  Biso   1.000  H
  C225     1.0000 0.03832  0.41360  0.36130  Biso   1.000  C
  O72      1.0000 0.00000  0.21417  0.44343  Biso   1.000  O
  N141     1.0000 0.05671  0.32939  0.38497  Biso   1.000  N
  N142     1.0000 0.05589  0.43347  0.27367  Biso   1.000  N
  O73      1.0000 0.00000  0.47150  0.15120  Biso   1.000  O
  H220     1.0000 0.69669  0.09301  0.06818  Biso   1.000  H
  C226     1.0000 0.79340  0.04397  0.02348  Biso   1.000  C
  O74      1.0000 0.83182  0.97672  0.23011  Biso   1.000  O
  N143     1.0000 0.83248  0.99823  0.08460  Biso   1.000  N
  N144     1.0000 0.83253  0.99823  0.08460  Biso   1.000  N
  N145     1.0000 0.82998  0.10263  0.97077  Biso   1.000  N
  N146     1.0000 0.83003  0.10263  0.97077  Biso   1.000  N
  O75      1.0000 0.83218  0.24549  0.94470  Biso   1.000  O
  O76      1.0000 0.83223  0.24549  0.94470  Biso   1.000  O
  H221     1.0000 0.05722  0.45650  0.40152  Biso   1.000  H
  C227     1.0000 0.12420  0.30680  0.41471  Biso   1.000  C
  C228     1.0000 0.12399  0.45397  0.24710  Biso   1.000  C
  H222     1.0000 0.76510  0.00462  0.98857  Biso   1.000  H
  C229     1.0000 0.87448  0.92528  0.06471  Biso   1.000  C
  C230     1.0000 0.87453  0.92528  0.06471  Biso   1.000  C
  C231     1.0000 0.87550  0.07960  0.90309  Biso   1.000  C
  N147     1.0000 0.17028  0.28048  0.34722  Biso   1.000  N
  H223     1.0000 0.12001  0.26011  0.45600  Biso   1.000  H
  H224     1.0000 0.14432  0.35590  0.44432  Biso   1.000  H
  N148     1.0000 0.17033  0.28048  0.34722  Biso   1.000  N
  N149     1.0000 0.16691  0.38159  0.22992  Biso   1.000  N
  H225     1.0000 0.14591  0.48852  0.29173  Biso   1.000  H
  H226     1.0000 0.12128  0.48909  0.19552  Biso   1.000  H
  H227     1.0000 0.12133  0.48909  0.19552  Biso   1.000  H
  N150     1.0000 0.94360  0.94812  0.03990  Biso   1.000  N
  H228     1.0000 0.87662  0.88788  0.11477  Biso   1.000  H
  H229     1.0000 0.85271  0.89320  0.01831  Biso   1.000  H
  N151     1.0000 0.94329  0.05618  0.93018  Biso   1.000  N
  H230     1.0000 0.85532  0.03157  0.87172  Biso   1.000  H
  H231     1.0000 0.87907  0.12787  0.86357  Biso   1.000  H
  H232     1.0000 0.87913  0.12787  0.86357  Biso   1.000  H
  C232     1.0000 0.20772  0.33761  0.29160  Biso   1.000  C
  C233     1.0000 0.18489  0.19779  0.32860  Biso   1.000  C
  C234     1.0000 0.18862  0.36330  0.14931  Biso   1.000  C
  C235     1.0000 0.96041  0.96969  0.95549  Biso   1.000  C
  C236     1.0000 0.00000  0.92901  0.08668  Biso   1.000  C
  C237     1.0000 0.00000  0.10237  0.91351  Biso   1.000  C
  H233     1.0000 0.23649  0.37792  0.32481  Biso   1.000  H
  C238     1.0000 0.25212  0.27839  0.23838  Biso   1.000  C
  O77      1.0000 0.16338  0.13780  0.37109  Biso   1.000  O
  N152     1.0000 0.22898  0.19437  0.26509  Biso   1.000  N
  O78      1.0000 0.16343  0.13780  0.37109  Biso   1.000  O
  N153     1.0000 0.22903  0.19437  0.26509  Biso   1.000  N
  O79      1.0000 0.16869  0.39791  0.08491  Biso   1.000  O
  N154     1.0000 0.23659  0.30111  0.15429  Biso   1.000  N
  H234     1.0000 0.94181  0.92743  0.91458  Biso   1.000  H
  C239     1.0000 0.03959  0.96969  0.95549  Biso   1.000  C
  O80      1.0000 0.00000  0.89908  0.15751  Biso   1.000  O
  N155     1.0000 0.05640  0.94812  0.03990  Biso   1.000  N
  O81      1.0000 0.00000  0.17539  0.88592  Biso   1.000  O
  N156     1.0000 0.05671  0.05618  0.93018  Biso   1.000  N
  H235     1.0000 0.30173  0.28668  0.25088  Biso   1.000  H
  C240     1.0000 0.26198  0.11642  0.23952  Biso   1.000  C
  C241     1.0000 0.26203  0.11642  0.23952  Biso   1.000  C
  C242     1.0000 0.26561  0.26327  0.07872  Biso   1.000  C
  H236     1.0000 0.05819  0.92743  0.91458  Biso   1.000  H
  C243     1.0000 0.12552  0.92528  0.06471  Biso   1.000  C
  C244     1.0000 0.12450  0.07960  0.90309  Biso   1.000  C
  N157     1.0000 0.23501  0.07833  0.16597  Biso   1.000  N
  H237     1.0000 0.31113  0.12812  0.22999  Biso   1.000  H
  H238     1.0000 0.25861  0.07542  0.28662  Biso   1.000  H
  N158     1.0000 0.23220  0.18602  0.05278  Biso   1.000  N
  H239     1.0000 0.26270  0.30478  0.03201  Biso   1.000  H
  H240     1.0000 0.31450  0.25131  0.08889  Biso   1.000  H
  N159     1.0000 0.16752  0.99823  0.08460  Biso   1.000  N
  H241     1.0000 0.12338  0.88788  0.11477  Biso   1.000  H
  H242     1.0000 0.14729  0.89320  0.01831  Biso   1.000  H
  H243     1.0000 0.12343  0.88788  0.11477  Biso   1.000  H
  N160     1.0000 0.17002  0.10263  0.97077  Biso   1.000  N
  H244     1.0000 0.14468  0.03157  0.87172  Biso   1.000  H
  H245     1.0000 0.12093  0.12787  0.86357  Biso   1.000  H
  H246     1.0000 0.14473  0.03157  0.87172  Biso   1.000  H
  C245     1.0000 0.18663  0.01500  0.16540  Biso   1.000  C
  C246     1.0000 0.25370  0.10282  0.07980  Biso   1.000  C
  C247     1.0000 0.18642  0.18349  0.98611  Biso   1.000  C
  C248     1.0000 0.20660  0.04397  0.02348  Biso   1.000  C
  O82      1.0000 0.16818  0.97672  0.23011  Biso   1.000  O
  O83      1.0000 0.16823  0.97672  0.23011  Biso   1.000  O
  H247     1.0000 0.30331  0.09301  0.06818  Biso   1.000  H
  O84      1.0000 0.16782  0.24549  0.94470  Biso   1.000  O
  H248     1.0000 0.23490  0.00462  0.98857  Biso   1.000  H
