data_image0
_cell_length_a       26.102
_cell_length_b       26.791
_cell_length_c       13.13
_cell_angle_alpha    90
_cell_angle_beta     90
_cell_angle_gamma    90

_symmetry_space_group_name_H-M    "P 1"
_symmetry_int_tables_number       1

loop_
  _symmetry_equiv_pos_as_xyz
  'x, y, z'

loop_
  _atom_site_label
  _atom_site_occupancy
  _atom_site_fract_x
  _atom_site_fract_y
  _atom_site_fract_z
  _atom_site_thermal_displace_type
  _atom_site_B_iso_or_equiv
  _atom_site_type_symbol
  O1       1.0000 0.14478  0.85760  0.60876  Biso   1.000  O
  C1       1.0000 0.14968  0.85350  0.51889  Biso   1.000  C
  N1       1.0000 0.12221  0.82069  0.45758  Biso   1.000  N
  N2       1.0000 0.12217  0.82069  0.45758  Biso   1.000  N
  N3       1.0000 0.18190  0.88052  0.45849  Biso   1.000  N
  N4       1.0000 0.18190  0.88048  0.45849  Biso   1.000  N
  N5       1.0000 0.18186  0.88052  0.45849  Biso   1.000  N
  N6       1.0000 0.18186  0.88048  0.45849  Biso   1.000  N
  C2       1.0000 0.09720  0.77847  0.49878  Biso   1.000  C
  C3       1.0000 0.09720  0.77851  0.49878  Biso   1.000  C
  C4       1.0000 0.14148  0.82151  0.35423  Biso   1.000  C
  C5       1.0000 0.14148  0.82147  0.35423  Biso   1.000  C
  C6       1.0000 0.18221  0.86301  0.35362  Biso   1.000  C
  C7       1.0000 0.18221  0.86298  0.35362  Biso   1.000  C
  C8       1.0000 0.18217  0.86301  0.35362  Biso   1.000  C
  C9       1.0000 0.18217  0.86298  0.35362  Biso   1.000  C
  C10      1.0000 0.22420  0.90851  0.50023  Biso   1.000  C
  C11      1.0000 0.22420  0.90848  0.50023  Biso   1.000  C
  C12      1.0000 0.22416  0.90851  0.50023  Biso   1.000  C
  C13      1.0000 0.22416  0.90848  0.50023  Biso   1.000  C
  H1       1.0000 0.10191  0.77821  0.57212  Biso   1.000  H
  H2       1.0000 0.11279  0.74850  0.47152  Biso   1.000  H
  N7       1.0000 0.04218  0.77832  0.47563  Biso   1.000  N
  H3       1.0000 0.10191  0.77817  0.57212  Biso   1.000  H
  N8       1.0000 0.04218  0.77828  0.47563  Biso   1.000  N
  H4       1.0000 0.10187  0.77821  0.57212  Biso   1.000  H
  H5       1.0000 0.10187  0.77817  0.57212  Biso   1.000  H
  H6       1.0000 0.15631  0.78922  0.33488  Biso   1.000  H
  N9       1.0000 0.10509  0.83812  0.28142  Biso   1.000  N
  H7       1.0000 0.15631  0.78918  0.33488  Biso   1.000  H
  N10      1.0000 0.10509  0.83808  0.28142  Biso   1.000  N
  H8       1.0000 0.15627  0.78922  0.33488  Biso   1.000  H
  H9       1.0000 0.15627  0.78918  0.33488  Biso   1.000  H
  H10      1.0000 0.21600  0.85040  0.33343  Biso   1.000  H
  N11      1.0000 0.16248  0.89900  0.28180  Biso   1.000  N
  H11      1.0000 0.21596  0.85040  0.33343  Biso   1.000  H
  H12      1.0000 0.22431  0.90441  0.57357  Biso   1.000  H
  H13      1.0000 0.25588  0.89459  0.47433  Biso   1.000  H
  N12      1.0000 0.22289  0.96088  0.47708  Biso   1.000  N
  H14      1.0000 0.22431  0.90437  0.57357  Biso   1.000  H
  H15      1.0000 0.22427  0.90441  0.57357  Biso   1.000  H
  H16      1.0000 0.22427  0.90437  0.57357  Biso   1.000  H
  C14      1.0000 0.00521  0.77959  0.55187  Biso   1.000  C
  C15      1.0000 0.02130  0.76212  0.38180  Biso   1.000  C
  C16      1.0000 0.02130  0.76208  0.38180  Biso   1.000  C
  C17      1.0000 0.00517  0.77959  0.55187  Biso   1.000  C
  C18      1.0000 0.02126  0.76212  0.38180  Biso   1.000  C
  C19      1.0000 0.02126  0.76208  0.38180  Biso   1.000  C
  C20      1.0000 0.06720  0.80512  0.23633  Biso   1.000  C
  C21      1.0000 0.06720  0.80508  0.23633  Biso   1.000  C
  C22      1.0000 0.06724  0.80512  0.23633  Biso   1.000  C
  C23      1.0000 0.06724  0.80508  0.23633  Biso   1.000  C
  C24      1.0000 0.12068  0.88130  0.23206  Biso   1.000  C
  C25      1.0000 0.12068  0.88127  0.23206  Biso   1.000  C
  C26      1.0000 0.19439  0.93599  0.23938  Biso   1.000  C
  C27      1.0000 0.23879  0.98190  0.38347  Biso   1.000  C
  C28      1.0000 0.21968  0.99791  0.55301  Biso   1.000  C
  C29      1.0000 0.21968  0.99787  0.55301  Biso   1.000  C
  O2       1.0000 0.01280  0.78888  0.64151  Biso   1.000  O
  O3       1.0000 0.01280  0.78885  0.64151  Biso   1.000  O
  N13      1.0000 0.95920  0.77041  0.50868  Biso   1.000  N
  N14      1.0000 0.95920  0.77037  0.50868  Biso   1.000  N
  H17      1.0000 0.03670  0.73039  0.36017  Biso   1.000  H
  N15      1.0000 0.02310  0.79870  0.29992  Biso   1.000  N
  H18      1.0000 0.03666  0.73039  0.36017  Biso   1.000  H
  N16      1.0000 0.02306  0.79870  0.29992  Biso   1.000  N
  C30      1.0000 0.96314  0.75581  0.40152  Biso   1.000  C
  C31      1.0000 0.96314  0.75578  0.40152  Biso   1.000  C
  C32      1.0000 0.96318  0.75581  0.40152  Biso   1.000  C
  C33      1.0000 0.96318  0.75578  0.40152  Biso   1.000  C
  H19      1.0000 0.05651  0.81871  0.17113  Biso   1.000  H
  H20      1.0000 0.08271  0.77280  0.22376  Biso   1.000  H
  H21      1.0000 0.05651  0.81867  0.17113  Biso   1.000  H
  H22      1.0000 0.05647  0.81871  0.17113  Biso   1.000  H
  H23      1.0000 0.08268  0.77280  0.22376  Biso   1.000  H
  H24      1.0000 0.05647  0.81867  0.17113  Biso   1.000  H
  O4       1.0000 0.09781  0.90131  0.16268  Biso   1.000  O
  O5       1.0000 0.09781  0.90127  0.16268  Biso   1.000  O
  O6       1.0000 0.09777  0.90131  0.16268  Biso   1.000  O
  O7       1.0000 0.09777  0.90127  0.16268  Biso   1.000  O
  H25      1.0000 0.18010  0.94629  0.17449  Biso   1.000  H
  H26      1.0000 0.22780  0.92162  0.22643  Biso   1.000  H
  N17      1.0000 0.20071  0.97992  0.30297  Biso   1.000  N
  H27      1.0000 0.22780  0.92158  0.22643  Biso   1.000  H
  N18      1.0000 0.20071  0.97988  0.30297  Biso   1.000  N
  H28      1.0000 0.18006  0.94629  0.17449  Biso   1.000  H
  H29      1.0000 0.22776  0.92162  0.22643  Biso   1.000  H
  N19      1.0000 0.20067  0.97992  0.30297  Biso   1.000  N
  H30      1.0000 0.22776  0.92158  0.22643  Biso   1.000  H
  N20      1.0000 0.20067  0.97988  0.30297  Biso   1.000  N
  H31      1.0000 0.27140  0.96749  0.36093  Biso   1.000  H
  H32      1.0000 0.27136  0.96749  0.36093  Biso   1.000  H
  C34      1.0000 0.24420  0.03889  0.40427  Biso   1.000  C
  C35      1.0000 0.24416  0.03889  0.40427  Biso   1.000  C
  O8       1.0000 0.21060  0.98910  0.64318  Biso   1.000  O
  O9       1.0000 0.21060  0.98906  0.64318  Biso   1.000  O
  O10      1.0000 0.21056  0.98910  0.64318  Biso   1.000  O
  O11      1.0000 0.21056  0.98906  0.64318  Biso   1.000  O
  N21      1.0000 0.22910  0.04192  0.51051  Biso   1.000  N
  N22      1.0000 0.22910  0.04188  0.51051  Biso   1.000  N
  N23      1.0000 0.22906  0.04192  0.51051  Biso   1.000  N
  N24      1.0000 0.22906  0.04188  0.51051  Biso   1.000  N
  C36      1.0000 0.91437  0.76171  0.57091  Biso   1.000  C
  C37      1.0000 0.91437  0.76167  0.57091  Biso   1.000  C
  C38      1.0000 0.97445  0.81270  0.26794  Biso   1.000  C
  C39      1.0000 0.97448  0.81270  0.26794  Biso   1.000  C
  H33      1.0000 0.95146  0.72162  0.38972  Biso   1.000  H
  N25      1.0000 0.94027  0.79071  0.33206  Biso   1.000  N
  H34      1.0000 0.95146  0.72159  0.38972  Biso   1.000  H
  H35      1.0000 0.95150  0.72162  0.38972  Biso   1.000  H
  N26      1.0000 0.94023  0.79071  0.33206  Biso   1.000  N
  H36      1.0000 0.95150  0.72159  0.38972  Biso   1.000  H
  C40      1.0000 0.18600  0.02740  0.27136  Biso   1.000  C
  C41      1.0000 0.18596  0.02740  0.27136  Biso   1.000  C
  N27      1.0000 0.20899  0.06084  0.33321  Biso   1.000  N
  H37      1.0000 0.27940  0.05061  0.39353  Biso   1.000  H
  H38      1.0000 0.27937  0.05061  0.39353  Biso   1.000  H
  C42      1.0000 0.23879  0.08551  0.57220  Biso   1.000  C
  H39      1.0000 0.89966  0.72972  0.55202  Biso   1.000  H
  H40      1.0000 0.92487  0.75940  0.64158  Biso   1.000  H
  N28      1.0000 0.87572  0.79922  0.56222  Biso   1.000  N
  H41      1.0000 0.89966  0.72969  0.55202  Biso   1.000  H
  H42      1.0000 0.89970  0.72972  0.55202  Biso   1.000  H
  N29      1.0000 0.87568  0.79922  0.56222  Biso   1.000  N
  H43      1.0000 0.89970  0.72969  0.55202  Biso   1.000  H
  O12      1.0000 0.96487  0.83812  0.19650  Biso   1.000  O
  O13      1.0000 0.96487  0.83808  0.19650  Biso   1.000  O
  C43      1.0000 0.88556  0.79202  0.31226  Biso   1.000  C
  C44      1.0000 0.88556  0.79198  0.31226  Biso   1.000  C
  O14      1.0000 0.15830  0.03669  0.20076  Biso   1.000  O
  O15      1.0000 0.15830  0.03673  0.20076  Biso   1.000  O
  O16      1.0000 0.15826  0.03669  0.20076  Biso   1.000  O
  O17      1.0000 0.15826  0.03673  0.20076  Biso   1.000  O
  C45      1.0000 0.20661  0.11381  0.31401  Biso   1.000  C
  C46      1.0000 0.20661  0.11377  0.31401  Biso   1.000  C
  C47      1.0000 0.20657  0.11381  0.31401  Biso   1.000  C
  C48      1.0000 0.20657  0.11377  0.31401  Biso   1.000  C
  H44      1.0000 0.24090  0.07521  0.64288  Biso   1.000  H
  H45      1.0000 0.27189  0.09921  0.55339  Biso   1.000  H
  N30      1.0000 0.20129  0.12411  0.56413  Biso   1.000  N
  H46      1.0000 0.27189  0.09918  0.55339  Biso   1.000  H
  N31      1.0000 0.20129  0.12407  0.56413  Biso   1.000  N
  H47      1.0000 0.27186  0.09921  0.55339  Biso   1.000  H
  N32      1.0000 0.20133  0.12411  0.56413  Biso   1.000  N
  H48      1.0000 0.27186  0.09918  0.55339  Biso   1.000  H
  N33      1.0000 0.20133  0.12407  0.56413  Biso   1.000  N
  C49      1.0000 0.86369  0.83039  0.64052  Biso   1.000  C
  C50      1.0000 0.83817  0.80139  0.47989  Biso   1.000  C
  H49      1.0000 0.87970  0.80572  0.24494  Biso   1.000  H
  H50      1.0000 0.87235  0.75805  0.31287  Biso   1.000  H
  N34      1.0000 0.85741  0.82181  0.38698  Biso   1.000  N
  H51      1.0000 0.87970  0.80568  0.24494  Biso   1.000  H
  H52      1.0000 0.87235  0.75809  0.31287  Biso   1.000  H
  N35      1.0000 0.85741  0.82177  0.38698  Biso   1.000  N
  H53      1.0000 0.87966  0.80572  0.24494  Biso   1.000  H
  H54      1.0000 0.87239  0.75805  0.31287  Biso   1.000  H
  N36      1.0000 0.85737  0.82181  0.38698  Biso   1.000  N
  H55      1.0000 0.87966  0.80568  0.24494  Biso   1.000  H
  H56      1.0000 0.87239  0.75809  0.31287  Biso   1.000  H
  N37      1.0000 0.85737  0.82177  0.38698  Biso   1.000  N
  H57      1.0000 0.24128  0.12691  0.31203  Biso   1.000  H
  H58      1.0000 0.19140  0.11918  0.24752  Biso   1.000  H
  N38      1.0000 0.17780  0.14128  0.38842  Biso   1.000  N
  H59      1.0000 0.19140  0.11922  0.24752  Biso   1.000  H
  N39      1.0000 0.17780  0.14132  0.38842  Biso   1.000  N
  H60      1.0000 0.19136  0.11918  0.24752  Biso   1.000  H
  N40      1.0000 0.17776  0.14128  0.38842  Biso   1.000  N
  H61      1.0000 0.19136  0.11922  0.24752  Biso   1.000  H
  N41      1.0000 0.17776  0.14132  0.38842  Biso   1.000  N
  C51      1.0000 0.20048  0.16039  0.48210  Biso   1.000  C
  C52      1.0000 0.16960  0.13639  0.64212  Biso   1.000  C
  C53      1.0000 0.16960  0.13643  0.64212  Biso   1.000  C
  C54      1.0000 0.16957  0.13639  0.64212  Biso   1.000  C
  C55      1.0000 0.16957  0.13643  0.64212  Biso   1.000  C
  N42      1.0000 0.82216  0.85872  0.61158  Biso   1.000  N
  O18      1.0000 0.88637  0.83345  0.71980  Biso   1.000  O
  N43      1.0000 0.82216  0.85868  0.61158  Biso   1.000  N
  O19      1.0000 0.88637  0.83349  0.71980  Biso   1.000  O
  N44      1.0000 0.82220  0.85872  0.61158  Biso   1.000  N
  N45      1.0000 0.82220  0.85868  0.61158  Biso   1.000  N
  C56      1.0000 0.79952  0.83961  0.51790  Biso   1.000  C
  H62      1.0000 0.82212  0.76891  0.46870  Biso   1.000  H
  C57      1.0000 0.79952  0.83957  0.51790  Biso   1.000  C
  H63      1.0000 0.82212  0.76888  0.46870  Biso   1.000  H
  C58      1.0000 0.79948  0.83961  0.51790  Biso   1.000  C
  H64      1.0000 0.82208  0.76891  0.46870  Biso   1.000  H
  C59      1.0000 0.79948  0.83957  0.51790  Biso   1.000  C
  H65      1.0000 0.82208  0.76888  0.46870  Biso   1.000  H
  C60      1.0000 0.83040  0.86361  0.35788  Biso   1.000  C
  C61      1.0000 0.83040  0.86357  0.35788  Biso   1.000  C
  C62      1.0000 0.13631  0.16961  0.35948  Biso   1.000  C
  C63      1.0000 0.13631  0.16957  0.35948  Biso   1.000  C
  C64      1.0000 0.13627  0.16961  0.35948  Biso   1.000  C
  C65      1.0000 0.13627  0.16957  0.35948  Biso   1.000  C
  H66      1.0000 0.23431  0.17528  0.47037  Biso   1.000  H
  C66      1.0000 0.16179  0.19861  0.52011  Biso   1.000  C
  C67      1.0000 0.16179  0.19857  0.52011  Biso   1.000  C
  H67      1.0000 0.23427  0.17528  0.47037  Biso   1.000  H
  N46      1.0000 0.14259  0.17819  0.61302  Biso   1.000  N
  O20      1.0000 0.16619  0.11448  0.72338  Biso   1.000  O
  N47      1.0000 0.14259  0.17823  0.61302  Biso   1.000  N
  C68      1.0000 0.79339  0.88619  0.68599  Biso   1.000  C
  H68      1.0000 0.76569  0.82472  0.52963  Biso   1.000  H
  N48      1.0000 0.79871  0.87589  0.43587  Biso   1.000  N
  H69      1.0000 0.76569  0.82468  0.52963  Biso   1.000  H
  N49      1.0000 0.79867  0.87589  0.43587  Biso   1.000  N
  O21      1.0000 0.83381  0.88552  0.27662  Biso   1.000  O
  O22      1.0000 0.83381  0.88548  0.27662  Biso   1.000  O
  O23      1.0000 0.83377  0.88552  0.27662  Biso   1.000  O
  O24      1.0000 0.83377  0.88548  0.27662  Biso   1.000  O
  N50      1.0000 0.12428  0.20078  0.43778  Biso   1.000  N
  O25      1.0000 0.11359  0.16651  0.28020  Biso   1.000  O
  N51      1.0000 0.12428  0.20074  0.43778  Biso   1.000  N
  O26      1.0000 0.11359  0.16647  0.28020  Biso   1.000  O
  H70      1.0000 0.17788  0.23109  0.53130  Biso   1.000  H
  C69      1.0000 0.11440  0.20798  0.68766  Biso   1.000  C
  C70      1.0000 0.11440  0.20802  0.68766  Biso   1.000  C
  C71      1.0000 0.11444  0.20798  0.68766  Biso   1.000  C
  C72      1.0000 0.11444  0.20802  0.68766  Biso   1.000  C
  H71      1.0000 0.75868  0.87309  0.68797  Biso   1.000  H
  H72      1.0000 0.80856  0.88082  0.75248  Biso   1.000  H
  N52      1.0000 0.79097  0.93916  0.66679  Biso   1.000  N
  H73      1.0000 0.80856  0.88078  0.75248  Biso   1.000  H
  H74      1.0000 0.80860  0.88082  0.75248  Biso   1.000  H
  H75      1.0000 0.80860  0.88078  0.75248  Biso   1.000  H
  C73      1.0000 0.76121  0.91449  0.42780  Biso   1.000  C
  C74      1.0000 0.76117  0.91449  0.42780  Biso   1.000  C
  C75      1.0000 0.08559  0.23829  0.42909  Biso   1.000  C
  H76      1.0000 0.12030  0.19428  0.75506  Biso   1.000  H
  H77      1.0000 0.12761  0.24191  0.68713  Biso   1.000  H
  N53      1.0000 0.05973  0.20929  0.66786  Biso   1.000  N
  N54      1.0000 0.05973  0.20925  0.66786  Biso   1.000  N
  H78      1.0000 0.12758  0.24191  0.68713  Biso   1.000  H
  C76      1.0000 0.81400  0.97260  0.72856  Biso   1.000  C
  C77      1.0000 0.75577  0.96107  0.59566  Biso   1.000  C
  C78      1.0000 0.81400  0.97257  0.72856  Biso   1.000  C
  C79      1.0000 0.75580  0.96107  0.59566  Biso   1.000  C
  H79      1.0000 0.75910  0.92479  0.35712  Biso   1.000  H
  H80      1.0000 0.72811  0.90079  0.44661  Biso   1.000  H
  N55      1.0000 0.77086  0.95808  0.48949  Biso   1.000  N
  N56      1.0000 0.77090  0.95808  0.48949  Biso   1.000  N
  H81      1.0000 0.10030  0.27028  0.44798  Biso   1.000  H
  H82      1.0000 0.07509  0.24060  0.35842  Biso   1.000  H
  N57      1.0000 0.04080  0.22959  0.49132  Biso   1.000  N
  H83      1.0000 0.10026  0.27028  0.44798  Biso   1.000  H
  N58      1.0000 0.04076  0.22959  0.49132  Biso   1.000  N
  C80      1.0000 0.03682  0.24419  0.59848  Biso   1.000  C
  C81      1.0000 0.02552  0.18730  0.73206  Biso   1.000  C
  C82      1.0000 0.02552  0.18726  0.73206  Biso   1.000  C
  C83      1.0000 0.02548  0.18730  0.73206  Biso   1.000  C
  C84      1.0000 0.02548  0.18726  0.73206  Biso   1.000  C
  O27      1.0000 0.84170  0.96331  0.79916  Biso   1.000  O
  O28      1.0000 0.84170  0.96327  0.79916  Biso   1.000  O
  N59      1.0000 0.79929  0.02008  0.69703  Biso   1.000  N
  H84      1.0000 0.72056  0.94939  0.60647  Biso   1.000  H
  H85      1.0000 0.72060  0.94939  0.60647  Biso   1.000  H
  C85      1.0000 0.76121  0.01810  0.61653  Biso   1.000  C
  C86      1.0000 0.76117  0.01810  0.61653  Biso   1.000  C
  C87      1.0000 0.78029  0.00209  0.44699  Biso   1.000  C
  C88      1.0000 0.78029  0.00213  0.44699  Biso   1.000  C
  C89      1.0000 0.99475  0.22041  0.44813  Biso   1.000  C
  C90      1.0000 0.99479  0.22041  0.44813  Biso   1.000  C
  C91      1.0000 0.97866  0.23788  0.61820  Biso   1.000  C
  C92      1.0000 0.97870  0.23788  0.61820  Biso   1.000  C
  H86      1.0000 0.04850  0.27838  0.61028  Biso   1.000  H
  H87      1.0000 0.04850  0.27841  0.61028  Biso   1.000  H
  H88      1.0000 0.04846  0.27838  0.61028  Biso   1.000  H
  H89      1.0000 0.04846  0.27841  0.61028  Biso   1.000  H
  N60      1.0000 0.97686  0.20130  0.70008  Biso   1.000  N
  N61      1.0000 0.97686  0.20126  0.70008  Biso   1.000  N
  N62      1.0000 0.97690  0.20130  0.70008  Biso   1.000  N
  N63      1.0000 0.97690  0.20126  0.70008  Biso   1.000  N
  O29      1.0000 0.03509  0.16188  0.80350  Biso   1.000  O
  C93      1.0000 0.80557  0.06401  0.76062  Biso   1.000  C
  C94      1.0000 0.80557  0.06398  0.76062  Biso   1.000  C
  H90      1.0000 0.72860  0.03251  0.63907  Biso   1.000  H
  N64      1.0000 0.77711  0.03912  0.52292  Biso   1.000  N
  H91      1.0000 0.72860  0.03247  0.63907  Biso   1.000  H
  N65      1.0000 0.77711  0.03908  0.52292  Biso   1.000  N
  N66      1.0000 0.77707  0.03912  0.52292  Biso   1.000  N
  N67      1.0000 0.77707  0.03908  0.52292  Biso   1.000  N
  O30      1.0000 0.78936  0.01090  0.35682  Biso   1.000  O
  O31      1.0000 0.78940  0.01090  0.35682  Biso   1.000  O
  N68      1.0000 0.95778  0.22168  0.52437  Biso   1.000  N
  O32      1.0000 0.98717  0.21112  0.35849  Biso   1.000  O
  O33      1.0000 0.98717  0.21115  0.35849  Biso   1.000  O
  H92      1.0000 0.96326  0.26961  0.63983  Biso   1.000  H
  H93      1.0000 0.96326  0.26957  0.63983  Biso   1.000  H
  H94      1.0000 0.96330  0.26961  0.63983  Biso   1.000  H
  H95      1.0000 0.96330  0.26957  0.63983  Biso   1.000  H
  C95      1.0000 0.93276  0.19488  0.76367  Biso   1.000  C
  C96      1.0000 0.93276  0.19492  0.76367  Biso   1.000  C
  H96      1.0000 0.81990  0.05371  0.82551  Biso   1.000  H
  H97      1.0000 0.77216  0.07838  0.77357  Biso   1.000  H
  N69      1.0000 0.83752  0.10100  0.71820  Biso   1.000  N
  H98      1.0000 0.81990  0.05367  0.82551  Biso   1.000  H
  H99      1.0000 0.77216  0.07842  0.77357  Biso   1.000  H
  N70      1.0000 0.83752  0.10097  0.71820  Biso   1.000  N
  H100     1.0000 0.77220  0.07838  0.77357  Biso   1.000  H
  N71      1.0000 0.83748  0.10100  0.71820  Biso   1.000  N
  H101     1.0000 0.77220  0.07842  0.77357  Biso   1.000  H
  N72      1.0000 0.83748  0.10097  0.71820  Biso   1.000  N
  C97      1.0000 0.77580  0.09149  0.49977  Biso   1.000  C
  C98      1.0000 0.90277  0.22149  0.50122  Biso   1.000  C
  N73      1.0000 0.89487  0.16188  0.71858  Biso   1.000  N
  H102     1.0000 0.94349  0.18129  0.82887  Biso   1.000  H
  H103     1.0000 0.91725  0.22720  0.77616  Biso   1.000  H
  H104     1.0000 0.91729  0.22720  0.77616  Biso   1.000  H
  C99      1.0000 0.87928  0.11870  0.76786  Biso   1.000  C
  C100     1.0000 0.81775  0.13699  0.64638  Biso   1.000  C
  C101     1.0000 0.87928  0.11873  0.76786  Biso   1.000  C
  C102     1.0000 0.81775  0.13702  0.64638  Biso   1.000  C
  C103     1.0000 0.81779  0.13699  0.64638  Biso   1.000  C
  C104     1.0000 0.81779  0.13702  0.64638  Biso   1.000  C
  H105     1.0000 0.77569  0.09559  0.42643  Biso   1.000  H
  H106     1.0000 0.74408  0.10541  0.52567  Biso   1.000  H
  N74      1.0000 0.81810  0.11948  0.54151  Biso   1.000  N
  H107     1.0000 0.74408  0.10537  0.52567  Biso   1.000  H
  N75      1.0000 0.81810  0.11952  0.54151  Biso   1.000  N
  N76      1.0000 0.87779  0.17931  0.54242  Biso   1.000  N
  N77      1.0000 0.87779  0.17928  0.54242  Biso   1.000  N
  H108     1.0000 0.89805  0.22179  0.42788  Biso   1.000  H
  H109     1.0000 0.88717  0.25150  0.52848  Biso   1.000  H
  H110     1.0000 0.88717  0.25147  0.52848  Biso   1.000  H
  H111     1.0000 0.89809  0.22179  0.42788  Biso   1.000  H
  C105     1.0000 0.85852  0.17849  0.64577  Biso   1.000  C
  C106     1.0000 0.85848  0.17849  0.64577  Biso   1.000  C
  O34      1.0000 0.90219  0.09869  0.83732  Biso   1.000  O
  H112     1.0000 0.78396  0.14960  0.66657  Biso   1.000  H
  H113     1.0000 0.78396  0.14957  0.66657  Biso   1.000  H
  H114     1.0000 0.78400  0.14960  0.66657  Biso   1.000  H
  H115     1.0000 0.78400  0.14957  0.66657  Biso   1.000  H
  C107     1.0000 0.85032  0.14650  0.48111  Biso   1.000  C
  C108     1.0000 0.85028  0.14650  0.48111  Biso   1.000  C
  H116     1.0000 0.84365  0.21078  0.66512  Biso   1.000  H
  H117     1.0000 0.84365  0.21082  0.66512  Biso   1.000  H
  H118     1.0000 0.84369  0.21078  0.66512  Biso   1.000  H
  H119     1.0000 0.84369  0.21082  0.66512  Biso   1.000  H
  O35      1.0000 0.85522  0.14240  0.39117  Biso   1.000  O
  O36      1.0000 0.85518  0.14240  0.39117  Biso   1.000  O
  O37      1.0000 0.14478  0.85760  0.60876  Biso   1.000  O
  C109     1.0000 0.14968  0.85350  0.51889  Biso   1.000  C
  N78      1.0000 0.12221  0.82069  0.45758  Biso   1.000  N
  N79      1.0000 0.12217  0.82069  0.45758  Biso   1.000  N
  N80      1.0000 0.18190  0.88052  0.45849  Biso   1.000  N
  N81      1.0000 0.18190  0.88048  0.45849  Biso   1.000  N
  N82      1.0000 0.18186  0.88052  0.45849  Biso   1.000  N
  N83      1.0000 0.18186  0.88048  0.45849  Biso   1.000  N
  C110     1.0000 0.09720  0.77847  0.49878  Biso   1.000  C
  C111     1.0000 0.09720  0.77851  0.49878  Biso   1.000  C
  C112     1.0000 0.14148  0.82151  0.35423  Biso   1.000  C
  C113     1.0000 0.14148  0.82147  0.35423  Biso   1.000  C
  C114     1.0000 0.18221  0.86301  0.35362  Biso   1.000  C
  C115     1.0000 0.18221  0.86298  0.35362  Biso   1.000  C
  C116     1.0000 0.18217  0.86301  0.35362  Biso   1.000  C
  C117     1.0000 0.18217  0.86298  0.35362  Biso   1.000  C
  C118     1.0000 0.22420  0.90851  0.50023  Biso   1.000  C
  C119     1.0000 0.22420  0.90848  0.50023  Biso   1.000  C
  C120     1.0000 0.22416  0.90851  0.50023  Biso   1.000  C
  C121     1.0000 0.22416  0.90848  0.50023  Biso   1.000  C
  H120     1.0000 0.11279  0.74850  0.47152  Biso   1.000  H
  N84      1.0000 0.04218  0.77832  0.47563  Biso   1.000  N
  N85      1.0000 0.04218  0.77828  0.47563  Biso   1.000  N
  H121     1.0000 0.10191  0.77821  0.57212  Biso   1.000  H
  H122     1.0000 0.10191  0.77817  0.57212  Biso   1.000  H
  H123     1.0000 0.10187  0.77821  0.57212  Biso   1.000  H
  H124     1.0000 0.10187  0.77817  0.57212  Biso   1.000  H
  N86      1.0000 0.10509  0.83812  0.28142  Biso   1.000  N
  N87      1.0000 0.10509  0.83808  0.28142  Biso   1.000  N
  H125     1.0000 0.15631  0.78922  0.33488  Biso   1.000  H
  H126     1.0000 0.15631  0.78918  0.33488  Biso   1.000  H
  H127     1.0000 0.15627  0.78922  0.33488  Biso   1.000  H
  H128     1.0000 0.15627  0.78918  0.33488  Biso   1.000  H
  H129     1.0000 0.21600  0.85040  0.33343  Biso   1.000  H
  N88      1.0000 0.16248  0.89900  0.28180  Biso   1.000  N
  H130     1.0000 0.21596  0.85040  0.33343  Biso   1.000  H
  H131     1.0000 0.25588  0.89459  0.47433  Biso   1.000  H
  N89      1.0000 0.22289  0.96088  0.47708  Biso   1.000  N
  H132     1.0000 0.22431  0.90441  0.57357  Biso   1.000  H
  H133     1.0000 0.22431  0.90437  0.57357  Biso   1.000  H
  H134     1.0000 0.22427  0.90441  0.57357  Biso   1.000  H
  H135     1.0000 0.22427  0.90437  0.57357  Biso   1.000  H
  C122     1.0000 0.00521  0.77959  0.55187  Biso   1.000  C
  C123     1.0000 0.00517  0.77959  0.55187  Biso   1.000  C
  C124     1.0000 0.02130  0.76212  0.38180  Biso   1.000  C
  C125     1.0000 0.02130  0.76208  0.38180  Biso   1.000  C
  C126     1.0000 0.02126  0.76212  0.38180  Biso   1.000  C
  C127     1.0000 0.02126  0.76208  0.38180  Biso   1.000  C
  C128     1.0000 0.12068  0.88130  0.23206  Biso   1.000  C
  C129     1.0000 0.12068  0.88127  0.23206  Biso   1.000  C
  C130     1.0000 0.06720  0.80512  0.23633  Biso   1.000  C
  C131     1.0000 0.06720  0.80508  0.23633  Biso   1.000  C
  C132     1.0000 0.06724  0.80512  0.23633  Biso   1.000  C
  C133     1.0000 0.06724  0.80508  0.23633  Biso   1.000  C
  C134     1.0000 0.19439  0.93599  0.23938  Biso   1.000  C
  C135     1.0000 0.23879  0.98190  0.38347  Biso   1.000  C
  C136     1.0000 0.21968  0.99791  0.55301  Biso   1.000  C
  C137     1.0000 0.21968  0.99787  0.55301  Biso   1.000  C
  O38      1.0000 0.01280  0.78888  0.64151  Biso   1.000  O
  O39      1.0000 0.01280  0.78885  0.64151  Biso   1.000  O
  N90      1.0000 0.95920  0.77041  0.50868  Biso   1.000  N
  N91      1.0000 0.95920  0.77037  0.50868  Biso   1.000  N
  H136     1.0000 0.03670  0.73039  0.36017  Biso   1.000  H
  N92      1.0000 0.02310  0.79870  0.29992  Biso   1.000  N
  H137     1.0000 0.03666  0.73039  0.36017  Biso   1.000  H
  N93      1.0000 0.02306  0.79870  0.29992  Biso   1.000  N
  C138     1.0000 0.96314  0.75581  0.40152  Biso   1.000  C
  C139     1.0000 0.96314  0.75578  0.40152  Biso   1.000  C
  C140     1.0000 0.96318  0.75581  0.40152  Biso   1.000  C
  C141     1.0000 0.96318  0.75578  0.40152  Biso   1.000  C
  O40      1.0000 0.09781  0.90131  0.16268  Biso   1.000  O
  O41      1.0000 0.09781  0.90127  0.16268  Biso   1.000  O
  O42      1.0000 0.09777  0.90131  0.16268  Biso   1.000  O
  O43      1.0000 0.09777  0.90127  0.16268  Biso   1.000  O
  H138     1.0000 0.08271  0.77280  0.22376  Biso   1.000  H
  H139     1.0000 0.08268  0.77280  0.22376  Biso   1.000  H
  H140     1.0000 0.05651  0.81871  0.17113  Biso   1.000  H
  H141     1.0000 0.05651  0.81867  0.17113  Biso   1.000  H
  H142     1.0000 0.05647  0.81871  0.17113  Biso   1.000  H
  H143     1.0000 0.05647  0.81867  0.17113  Biso   1.000  H
  H144     1.0000 0.18010  0.94629  0.17449  Biso   1.000  H
  H145     1.0000 0.18006  0.94629  0.17449  Biso   1.000  H
  H146     1.0000 0.22780  0.92162  0.22643  Biso   1.000  H
  N94      1.0000 0.20071  0.97992  0.30297  Biso   1.000  N
  H147     1.0000 0.22780  0.92158  0.22643  Biso   1.000  H
  N95      1.0000 0.20071  0.97988  0.30297  Biso   1.000  N
  H148     1.0000 0.22776  0.92162  0.22643  Biso   1.000  H
  N96      1.0000 0.20067  0.97992  0.30297  Biso   1.000  N
  H149     1.0000 0.22776  0.92158  0.22643  Biso   1.000  H
  N97      1.0000 0.20067  0.97988  0.30297  Biso   1.000  N
  H150     1.0000 0.27140  0.96749  0.36093  Biso   1.000  H
  H151     1.0000 0.27136  0.96749  0.36093  Biso   1.000  H
  C142     1.0000 0.24420  0.03889  0.40427  Biso   1.000  C
  C143     1.0000 0.24416  0.03889  0.40427  Biso   1.000  C
  O44      1.0000 0.21060  0.98910  0.64318  Biso   1.000  O
  O45      1.0000 0.21060  0.98906  0.64318  Biso   1.000  O
  O46      1.0000 0.21056  0.98910  0.64318  Biso   1.000  O
  O47      1.0000 0.21056  0.98906  0.64318  Biso   1.000  O
  N98      1.0000 0.22910  0.04192  0.51051  Biso   1.000  N
  N99      1.0000 0.22910  0.04188  0.51051  Biso   1.000  N
  N100     1.0000 0.22906  0.04192  0.51051  Biso   1.000  N
  N101     1.0000 0.22906  0.04188  0.51051  Biso   1.000  N
  C144     1.0000 0.91437  0.76171  0.57091  Biso   1.000  C
  C145     1.0000 0.91437  0.76167  0.57091  Biso   1.000  C
  C146     1.0000 0.97445  0.81270  0.26794  Biso   1.000  C
  C147     1.0000 0.97448  0.81270  0.26794  Biso   1.000  C
  H152     1.0000 0.95146  0.72162  0.38972  Biso   1.000  H
  N102     1.0000 0.94027  0.79071  0.33206  Biso   1.000  N
  H153     1.0000 0.95146  0.72159  0.38972  Biso   1.000  H
  H154     1.0000 0.95150  0.72162  0.38972  Biso   1.000  H
  N103     1.0000 0.94023  0.79071  0.33206  Biso   1.000  N
  H155     1.0000 0.95150  0.72159  0.38972  Biso   1.000  H
  C148     1.0000 0.18600  0.02740  0.27136  Biso   1.000  C
  C149     1.0000 0.18596  0.02740  0.27136  Biso   1.000  C
  H156     1.0000 0.27940  0.05061  0.39353  Biso   1.000  H
  N104     1.0000 0.20899  0.06084  0.33321  Biso   1.000  N
  H157     1.0000 0.27937  0.05061  0.39353  Biso   1.000  H
  C150     1.0000 0.23879  0.08551  0.57220  Biso   1.000  C
  H158     1.0000 0.89966  0.72972  0.55202  Biso   1.000  H
  H159     1.0000 0.92487  0.75940  0.64158  Biso   1.000  H
  N105     1.0000 0.87572  0.79922  0.56222  Biso   1.000  N
  H160     1.0000 0.89966  0.72969  0.55202  Biso   1.000  H
  H161     1.0000 0.89970  0.72972  0.55202  Biso   1.000  H
  N106     1.0000 0.87568  0.79922  0.56222  Biso   1.000  N
  H162     1.0000 0.89970  0.72969  0.55202  Biso   1.000  H
  O48      1.0000 0.96487  0.83812  0.19650  Biso   1.000  O
  O49      1.0000 0.96487  0.83808  0.19650  Biso   1.000  O
  C151     1.0000 0.88556  0.79202  0.31226  Biso   1.000  C
  C152     1.0000 0.88556  0.79198  0.31226  Biso   1.000  C
  O50      1.0000 0.15830  0.03669  0.20076  Biso   1.000  O
  O51      1.0000 0.15830  0.03673  0.20076  Biso   1.000  O
  O52      1.0000 0.15826  0.03669  0.20076  Biso   1.000  O
  O53      1.0000 0.15826  0.03673  0.20076  Biso   1.000  O
  C153     1.0000 0.20661  0.11381  0.31401  Biso   1.000  C
  C154     1.0000 0.20661  0.11377  0.31401  Biso   1.000  C
  C155     1.0000 0.20657  0.11381  0.31401  Biso   1.000  C
  C156     1.0000 0.20657  0.11377  0.31401  Biso   1.000  C
  H163     1.0000 0.24090  0.07521  0.64288  Biso   1.000  H
  H164     1.0000 0.27189  0.09921  0.55339  Biso   1.000  H
  N107     1.0000 0.20129  0.12411  0.56413  Biso   1.000  N
  H165     1.0000 0.27189  0.09918  0.55339  Biso   1.000  H
  N108     1.0000 0.20129  0.12407  0.56413  Biso   1.000  N
  H166     1.0000 0.27186  0.09921  0.55339  Biso   1.000  H
  N109     1.0000 0.20133  0.12411  0.56413  Biso   1.000  N
  H167     1.0000 0.27186  0.09918  0.55339  Biso   1.000  H
  N110     1.0000 0.20133  0.12407  0.56413  Biso   1.000  N
  C157     1.0000 0.86369  0.83039  0.64052  Biso   1.000  C
  C158     1.0000 0.83817  0.80139  0.47989  Biso   1.000  C
  H168     1.0000 0.87970  0.80572  0.24494  Biso   1.000  H
  H169     1.0000 0.87235  0.75805  0.31287  Biso   1.000  H
  N111     1.0000 0.85741  0.82181  0.38698  Biso   1.000  N
  H170     1.0000 0.87970  0.80568  0.24494  Biso   1.000  H
  H171     1.0000 0.87235  0.75809  0.31287  Biso   1.000  H
  N112     1.0000 0.85741  0.82177  0.38698  Biso   1.000  N
  H172     1.0000 0.87966  0.80572  0.24494  Biso   1.000  H
  H173     1.0000 0.87239  0.75805  0.31287  Biso   1.000  H
  N113     1.0000 0.85737  0.82181  0.38698  Biso   1.000  N
  H174     1.0000 0.87966  0.80568  0.24494  Biso   1.000  H
  H175     1.0000 0.87239  0.75809  0.31287  Biso   1.000  H
  N114     1.0000 0.85737  0.82177  0.38698  Biso   1.000  N
  H176     1.0000 0.24128  0.12691  0.31203  Biso   1.000  H
  H177     1.0000 0.19140  0.11918  0.24752  Biso   1.000  H
  N115     1.0000 0.17780  0.14128  0.38842  Biso   1.000  N
  H178     1.0000 0.19140  0.11922  0.24752  Biso   1.000  H
  N116     1.0000 0.17780  0.14132  0.38842  Biso   1.000  N
  H179     1.0000 0.19136  0.11918  0.24752  Biso   1.000  H
  N117     1.0000 0.17776  0.14128  0.38842  Biso   1.000  N
  H180     1.0000 0.19136  0.11922  0.24752  Biso   1.000  H
  N118     1.0000 0.17776  0.14132  0.38842  Biso   1.000  N
  C159     1.0000 0.20048  0.16039  0.48210  Biso   1.000  C
  C160     1.0000 0.16960  0.13639  0.64212  Biso   1.000  C
  C161     1.0000 0.16960  0.13643  0.64212  Biso   1.000  C
  C162     1.0000 0.16957  0.13639  0.64212  Biso   1.000  C
  C163     1.0000 0.16957  0.13643  0.64212  Biso   1.000  C
  N119     1.0000 0.82216  0.85872  0.61158  Biso   1.000  N
  O54      1.0000 0.88637  0.83345  0.71980  Biso   1.000  O
  N120     1.0000 0.82216  0.85868  0.61158  Biso   1.000  N
  O55      1.0000 0.88637  0.83349  0.71980  Biso   1.000  O
  N121     1.0000 0.82220  0.85872  0.61158  Biso   1.000  N
  N122     1.0000 0.82220  0.85868  0.61158  Biso   1.000  N
  C164     1.0000 0.79952  0.83961  0.51790  Biso   1.000  C
  H181     1.0000 0.82212  0.76891  0.46870  Biso   1.000  H
  C165     1.0000 0.79952  0.83957  0.51790  Biso   1.000  C
  H182     1.0000 0.82212  0.76888  0.46870  Biso   1.000  H
  C166     1.0000 0.79948  0.83961  0.51790  Biso   1.000  C
  H183     1.0000 0.82208  0.76891  0.46870  Biso   1.000  H
  C167     1.0000 0.79948  0.83957  0.51790  Biso   1.000  C
  H184     1.0000 0.82208  0.76888  0.46870  Biso   1.000  H
  C168     1.0000 0.83040  0.86361  0.35788  Biso   1.000  C
  C169     1.0000 0.83040  0.86357  0.35788  Biso   1.000  C
  C170     1.0000 0.13631  0.16961  0.35948  Biso   1.000  C
  C171     1.0000 0.13631  0.16957  0.35948  Biso   1.000  C
  C172     1.0000 0.13627  0.16961  0.35948  Biso   1.000  C
  C173     1.0000 0.13627  0.16957  0.35948  Biso   1.000  C
  H185     1.0000 0.23431  0.17528  0.47037  Biso   1.000  H
  C174     1.0000 0.16179  0.19861  0.52011  Biso   1.000  C
  C175     1.0000 0.16179  0.19857  0.52011  Biso   1.000  C
  H186     1.0000 0.23427  0.17528  0.47037  Biso   1.000  H
  N123     1.0000 0.14259  0.17819  0.61302  Biso   1.000  N
  O56      1.0000 0.16619  0.11448  0.72338  Biso   1.000  O
  N124     1.0000 0.14259  0.17823  0.61302  Biso   1.000  N
  C176     1.0000 0.79339  0.88619  0.68599  Biso   1.000  C
  H187     1.0000 0.76569  0.82472  0.52963  Biso   1.000  H
  N125     1.0000 0.79871  0.87589  0.43587  Biso   1.000  N
  H188     1.0000 0.76569  0.82468  0.52963  Biso   1.000  H
  N126     1.0000 0.79867  0.87589  0.43587  Biso   1.000  N
  O57      1.0000 0.83381  0.88552  0.27662  Biso   1.000  O
  O58      1.0000 0.83381  0.88548  0.27662  Biso   1.000  O
  O59      1.0000 0.83377  0.88552  0.27662  Biso   1.000  O
  O60      1.0000 0.83377  0.88548  0.27662  Biso   1.000  O
  N127     1.0000 0.12428  0.20078  0.43778  Biso   1.000  N
  O61      1.0000 0.11359  0.16651  0.28020  Biso   1.000  O
  N128     1.0000 0.12428  0.20074  0.43778  Biso   1.000  N
  O62      1.0000 0.11359  0.16647  0.28020  Biso   1.000  O
  H189     1.0000 0.17788  0.23109  0.53130  Biso   1.000  H
  C177     1.0000 0.11440  0.20798  0.68766  Biso   1.000  C
  C178     1.0000 0.11440  0.20802  0.68766  Biso   1.000  C
  C179     1.0000 0.11444  0.20798  0.68766  Biso   1.000  C
  C180     1.0000 0.11444  0.20802  0.68766  Biso   1.000  C
  H190     1.0000 0.75868  0.87309  0.68797  Biso   1.000  H
  H191     1.0000 0.80856  0.88082  0.75248  Biso   1.000  H
  N129     1.0000 0.79097  0.93916  0.66679  Biso   1.000  N
  H192     1.0000 0.80856  0.88078  0.75248  Biso   1.000  H
  H193     1.0000 0.80860  0.88082  0.75248  Biso   1.000  H
  H194     1.0000 0.80860  0.88078  0.75248  Biso   1.000  H
  C181     1.0000 0.76121  0.91449  0.42780  Biso   1.000  C
  C182     1.0000 0.76117  0.91449  0.42780  Biso   1.000  C
  C183     1.0000 0.08559  0.23829  0.42909  Biso   1.000  C
  H195     1.0000 0.12030  0.19428  0.75506  Biso   1.000  H
  H196     1.0000 0.12761  0.24191  0.68713  Biso   1.000  H
  N130     1.0000 0.05973  0.20929  0.66786  Biso   1.000  N
  N131     1.0000 0.05973  0.20925  0.66786  Biso   1.000  N
  H197     1.0000 0.12758  0.24191  0.68713  Biso   1.000  H
  C184     1.0000 0.81400  0.97260  0.72856  Biso   1.000  C
  C185     1.0000 0.75577  0.96107  0.59566  Biso   1.000  C
  C186     1.0000 0.81400  0.97257  0.72856  Biso   1.000  C
  C187     1.0000 0.75580  0.96107  0.59566  Biso   1.000  C
  H198     1.0000 0.75910  0.92479  0.35712  Biso   1.000  H
  H199     1.0000 0.72811  0.90079  0.44661  Biso   1.000  H
  N132     1.0000 0.77086  0.95808  0.48949  Biso   1.000  N
  N133     1.0000 0.77090  0.95808  0.48949  Biso   1.000  N
  H200     1.0000 0.10030  0.27028  0.44798  Biso   1.000  H
  H201     1.0000 0.07509  0.24060  0.35842  Biso   1.000  H
  N134     1.0000 0.04080  0.22959  0.49132  Biso   1.000  N
  H202     1.0000 0.10026  0.27028  0.44798  Biso   1.000  H
  N135     1.0000 0.04076  0.22959  0.49132  Biso   1.000  N
  C188     1.0000 0.03682  0.24419  0.59848  Biso   1.000  C
  C189     1.0000 0.02552  0.18730  0.73206  Biso   1.000  C
  C190     1.0000 0.02552  0.18726  0.73206  Biso   1.000  C
  C191     1.0000 0.02548  0.18730  0.73206  Biso   1.000  C
  C192     1.0000 0.02548  0.18726  0.73206  Biso   1.000  C
  O63      1.0000 0.84170  0.96331  0.79916  Biso   1.000  O
  O64      1.0000 0.84170  0.96327  0.79916  Biso   1.000  O
  N136     1.0000 0.79929  0.02008  0.69703  Biso   1.000  N
  H203     1.0000 0.72056  0.94939  0.60647  Biso   1.000  H
  H204     1.0000 0.72060  0.94939  0.60647  Biso   1.000  H
  C193     1.0000 0.76121  0.01810  0.61653  Biso   1.000  C
  C194     1.0000 0.76117  0.01810  0.61653  Biso   1.000  C
  C195     1.0000 0.78029  0.00209  0.44699  Biso   1.000  C
  C196     1.0000 0.78029  0.00213  0.44699  Biso   1.000  C
  C197     1.0000 0.99475  0.22041  0.44813  Biso   1.000  C
  C198     1.0000 0.99479  0.22041  0.44813  Biso   1.000  C
  C199     1.0000 0.97866  0.23788  0.61820  Biso   1.000  C
  C200     1.0000 0.97870  0.23788  0.61820  Biso   1.000  C
  H205     1.0000 0.04850  0.27838  0.61028  Biso   1.000  H
  H206     1.0000 0.04850  0.27841  0.61028  Biso   1.000  H
  H207     1.0000 0.04846  0.27838  0.61028  Biso   1.000  H
  H208     1.0000 0.04846  0.27841  0.61028  Biso   1.000  H
  N137     1.0000 0.97686  0.20130  0.70008  Biso   1.000  N
  N138     1.0000 0.97686  0.20126  0.70008  Biso   1.000  N
  N139     1.0000 0.97690  0.20130  0.70008  Biso   1.000  N
  N140     1.0000 0.97690  0.20126  0.70008  Biso   1.000  N
  O65      1.0000 0.03509  0.16188  0.80350  Biso   1.000  O
  C201     1.0000 0.80557  0.06401  0.76062  Biso   1.000  C
  C202     1.0000 0.80557  0.06398  0.76062  Biso   1.000  C
  H209     1.0000 0.72860  0.03251  0.63907  Biso   1.000  H
  N141     1.0000 0.77711  0.03912  0.52292  Biso   1.000  N
  H210     1.0000 0.72860  0.03247  0.63907  Biso   1.000  H
  N142     1.0000 0.77711  0.03908  0.52292  Biso   1.000  N
  N143     1.0000 0.77707  0.03912  0.52292  Biso   1.000  N
  N144     1.0000 0.77707  0.03908  0.52292  Biso   1.000  N
  O66      1.0000 0.78936  0.01090  0.35682  Biso   1.000  O
  O67      1.0000 0.78940  0.01090  0.35682  Biso   1.000  O
  N145     1.0000 0.95778  0.22168  0.52437  Biso   1.000  N
  O68      1.0000 0.98717  0.21112  0.35849  Biso   1.000  O
  O69      1.0000 0.98717  0.21115  0.35849  Biso   1.000  O
  H211     1.0000 0.96326  0.26961  0.63983  Biso   1.000  H
  H212     1.0000 0.96326  0.26957  0.63983  Biso   1.000  H
  H213     1.0000 0.96330  0.26961  0.63983  Biso   1.000  H
  H214     1.0000 0.96330  0.26957  0.63983  Biso   1.000  H
  C203     1.0000 0.93276  0.19488  0.76367  Biso   1.000  C
  C204     1.0000 0.93276  0.19492  0.76367  Biso   1.000  C
  H215     1.0000 0.81990  0.05371  0.82551  Biso   1.000  H
  H216     1.0000 0.77216  0.07838  0.77357  Biso   1.000  H
  N146     1.0000 0.83752  0.10100  0.71820  Biso   1.000  N
  H217     1.0000 0.81990  0.05367  0.82551  Biso   1.000  H
  H218     1.0000 0.77216  0.07842  0.77357  Biso   1.000  H
  N147     1.0000 0.83752  0.10097  0.71820  Biso   1.000  N
  H219     1.0000 0.77220  0.07838  0.77357  Biso   1.000  H
  N148     1.0000 0.83748  0.10100  0.71820  Biso   1.000  N
  H220     1.0000 0.77220  0.07842  0.77357  Biso   1.000  H
  N149     1.0000 0.83748  0.10097  0.71820  Biso   1.000  N
  C205     1.0000 0.77580  0.09149  0.49977  Biso   1.000  C
  C206     1.0000 0.90277  0.22149  0.50122  Biso   1.000  C
  N150     1.0000 0.89487  0.16188  0.71858  Biso   1.000  N
  H221     1.0000 0.94349  0.18129  0.82887  Biso   1.000  H
  H222     1.0000 0.91725  0.22720  0.77616  Biso   1.000  H
  H223     1.0000 0.91729  0.22720  0.77616  Biso   1.000  H
  C207     1.0000 0.87928  0.11870  0.76786  Biso   1.000  C
  C208     1.0000 0.81775  0.13699  0.64638  Biso   1.000  C
  C209     1.0000 0.87928  0.11873  0.76786  Biso   1.000  C
  C210     1.0000 0.81775  0.13702  0.64638  Biso   1.000  C
  C211     1.0000 0.81779  0.13699  0.64638  Biso   1.000  C
  C212     1.0000 0.81779  0.13702  0.64638  Biso   1.000  C
  H224     1.0000 0.77569  0.09559  0.42643  Biso   1.000  H
  H225     1.0000 0.74408  0.10541  0.52567  Biso   1.000  H
  N151     1.0000 0.81810  0.11948  0.54151  Biso   1.000  N
  H226     1.0000 0.74408  0.10537  0.52567  Biso   1.000  H
  N152     1.0000 0.81810  0.11952  0.54151  Biso   1.000  N
  N153     1.0000 0.87779  0.17931  0.54242  Biso   1.000  N
  N154     1.0000 0.87779  0.17928  0.54242  Biso   1.000  N
  H227     1.0000 0.89805  0.22179  0.42788  Biso   1.000  H
  H228     1.0000 0.88717  0.25150  0.52848  Biso   1.000  H
  H229     1.0000 0.88717  0.25147  0.52848  Biso   1.000  H
  H230     1.0000 0.89809  0.22179  0.42788  Biso   1.000  H
  C213     1.0000 0.85852  0.17849  0.64577  Biso   1.000  C
  C214     1.0000 0.85848  0.17849  0.64577  Biso   1.000  C
  O70      1.0000 0.90219  0.09869  0.83732  Biso   1.000  O
  H231     1.0000 0.78396  0.14960  0.66657  Biso   1.000  H
  H232     1.0000 0.78396  0.14957  0.66657  Biso   1.000  H
  H233     1.0000 0.78400  0.14960  0.66657  Biso   1.000  H
  H234     1.0000 0.78400  0.14957  0.66657  Biso   1.000  H
  C215     1.0000 0.85032  0.14650  0.48111  Biso   1.000  C
  C216     1.0000 0.85028  0.14650  0.48111  Biso   1.000  C
  H235     1.0000 0.84365  0.21078  0.66512  Biso   1.000  H
  H236     1.0000 0.84365  0.21082  0.66512  Biso   1.000  H
  H237     1.0000 0.84369  0.21078  0.66512  Biso   1.000  H
  H238     1.0000 0.84369  0.21082  0.66512  Biso   1.000  H
  O71      1.0000 0.85522  0.14240  0.39117  Biso   1.000  O
  O72      1.0000 0.85518  0.14240  0.39117  Biso   1.000  O
  O73      1.0000 0.14478  0.85760  0.60876  Biso   1.000  O
  C217     1.0000 0.14968  0.85350  0.51889  Biso   1.000  C
  N155     1.0000 0.12221  0.82069  0.45758  Biso   1.000  N
  N156     1.0000 0.18190  0.88052  0.45849  Biso   1.000  N
  N157     1.0000 0.18190  0.88048  0.45849  Biso   1.000  N
  N158     1.0000 0.12217  0.82069  0.45758  Biso   1.000  N
  N159     1.0000 0.18186  0.88052  0.45849  Biso   1.000  N
  N160     1.0000 0.18186  0.88048  0.45849  Biso   1.000  N
  C218     1.0000 0.09720  0.77851  0.49878  Biso   1.000  C
  C219     1.0000 0.14148  0.82151  0.35423  Biso   1.000  C
  C220     1.0000 0.09720  0.77847  0.49878  Biso   1.000  C
  C221     1.0000 0.14148  0.82147  0.35423  Biso   1.000  C
  C222     1.0000 0.18221  0.86301  0.35362  Biso   1.000  C
  C223     1.0000 0.22420  0.90851  0.50023  Biso   1.000  C
  C224     1.0000 0.18221  0.86298  0.35362  Biso   1.000  C
  C225     1.0000 0.22420  0.90848  0.50023  Biso   1.000  C
  C226     1.0000 0.18217  0.86301  0.35362  Biso   1.000  C
  C227     1.0000 0.22416  0.90851  0.50023  Biso   1.000  C
  C228     1.0000 0.18217  0.86298  0.35362  Biso   1.000  C
  C229     1.0000 0.22416  0.90848  0.50023  Biso   1.000  C
  H239     1.0000 0.11279  0.74850  0.47152  Biso   1.000  H
  H240     1.0000 0.10191  0.77821  0.57212  Biso   1.000  H
  N161     1.0000 0.04218  0.77832  0.47563  Biso   1.000  N
  H241     1.0000 0.10191  0.77817  0.57212  Biso   1.000  H
  N162     1.0000 0.04218  0.77828  0.47563  Biso   1.000  N
  H242     1.0000 0.10187  0.77821  0.57212  Biso   1.000  H
  H243     1.0000 0.10187  0.77817  0.57212  Biso   1.000  H
  H244     1.0000 0.15631  0.78922  0.33488  Biso   1.000  H
  N163     1.0000 0.10509  0.83812  0.28142  Biso   1.000  N
  H245     1.0000 0.15631  0.78918  0.33488  Biso   1.000  H
  N164     1.0000 0.10509  0.83808  0.28142  Biso   1.000  N
  H246     1.0000 0.15627  0.78922  0.33488  Biso   1.000  H
  H247     1.0000 0.15627  0.78918  0.33488  Biso   1.000  H
  N165     1.0000 0.16248  0.89900  0.28180  Biso   1.000  N
  H248     1.0000 0.21600  0.85040  0.33343  Biso   1.000  H
  H249     1.0000 0.21596  0.85040  0.33343  Biso   1.000  H
  H250     1.0000 0.25588  0.89459  0.47433  Biso   1.000  H
  N166     1.0000 0.22289  0.96088  0.47708  Biso   1.000  N
  H251     1.0000 0.22431  0.90441  0.57357  Biso   1.000  H
  H252     1.0000 0.22431  0.90437  0.57357  Biso   1.000  H
  H253     1.0000 0.22427  0.90441  0.57357  Biso   1.000  H
  H254     1.0000 0.22427  0.90437  0.57357  Biso   1.000  H
  C230     1.0000 0.00521  0.77959  0.55187  Biso   1.000  C
  C231     1.0000 0.02130  0.76212  0.38180  Biso   1.000  C
  C232     1.0000 0.02130  0.76208  0.38180  Biso   1.000  C
  C233     1.0000 0.00517  0.77959  0.55187  Biso   1.000  C
  C234     1.0000 0.02126  0.76212  0.38180  Biso   1.000  C
  C235     1.0000 0.02126  0.76208  0.38180  Biso   1.000  C
  C236     1.0000 0.06720  0.80512  0.23633  Biso   1.000  C
  C237     1.0000 0.12068  0.88130  0.23206  Biso   1.000  C
  C238     1.0000 0.06720  0.80508  0.23633  Biso   1.000  C
  C239     1.0000 0.12068  0.88127  0.23206  Biso   1.000  C
  C240     1.0000 0.06724  0.80512  0.23633  Biso   1.000  C
  C241     1.0000 0.06724  0.80508  0.23633  Biso   1.000  C
  C242     1.0000 0.19439  0.93599  0.23938  Biso   1.000  C
  C243     1.0000 0.23879  0.98190  0.38347  Biso   1.000  C
  C244     1.0000 0.21968  0.99791  0.55301  Biso   1.000  C
  C245     1.0000 0.21968  0.99787  0.55301  Biso   1.000  C
  N167     1.0000 0.95920  0.77041  0.50868  Biso   1.000  N
  N168     1.0000 0.95920  0.77037  0.50868  Biso   1.000  N
  O74      1.0000 0.01280  0.78888  0.64151  Biso   1.000  O
  O75      1.0000 0.01280  0.78885  0.64151  Biso   1.000  O
  C246     1.0000 0.96314  0.75581  0.40152  Biso   1.000  C
  C247     1.0000 0.96314  0.75578  0.40152  Biso   1.000  C
  C248     1.0000 0.96318  0.75581  0.40152  Biso   1.000  C
  C249     1.0000 0.96318  0.75578  0.40152  Biso   1.000  C
  H255     1.0000 0.03670  0.73039  0.36017  Biso   1.000  H
  N169     1.0000 0.02310  0.79870  0.29992  Biso   1.000  N
  H256     1.0000 0.03666  0.73039  0.36017  Biso   1.000  H
  N170     1.0000 0.02306  0.79870  0.29992  Biso   1.000  N
  H257     1.0000 0.05651  0.81871  0.17113  Biso   1.000  H
  H258     1.0000 0.08271  0.77280  0.22376  Biso   1.000  H
  H259     1.0000 0.05651  0.81867  0.17113  Biso   1.000  H
  H260     1.0000 0.05647  0.81871  0.17113  Biso   1.000  H
  H261     1.0000 0.08268  0.77280  0.22376  Biso   1.000  H
  H262     1.0000 0.05647  0.81867  0.17113  Biso   1.000  H
  O76      1.0000 0.09781  0.90131  0.16268  Biso   1.000  O
  O77      1.0000 0.09781  0.90127  0.16268  Biso   1.000  O
  O78      1.0000 0.09777  0.90131  0.16268  Biso   1.000  O
  O79      1.0000 0.09777  0.90127  0.16268  Biso   1.000  O
  H263     1.0000 0.18010  0.94629  0.17449  Biso   1.000  H
  H264     1.0000 0.22780  0.92162  0.22643  Biso   1.000  H
  N171     1.0000 0.20071  0.97992  0.30297  Biso   1.000  N
  H265     1.0000 0.22780  0.92158  0.22643  Biso   1.000  H
  N172     1.0000 0.20071  0.97988  0.30297  Biso   1.000  N
  H266     1.0000 0.18006  0.94629  0.17449  Biso   1.000  H
  H267     1.0000 0.22776  0.92162  0.22643  Biso   1.000  H
  N173     1.0000 0.20067  0.97992  0.30297  Biso   1.000  N
  H268     1.0000 0.22776  0.92158  0.22643  Biso   1.000  H
  N174     1.0000 0.20067  0.97988  0.30297  Biso   1.000  N
  H269     1.0000 0.27140  0.96749  0.36093  Biso   1.000  H
  H270     1.0000 0.27136  0.96749  0.36093  Biso   1.000  H
  C250     1.0000 0.24420  0.03889  0.40427  Biso   1.000  C
  C251     1.0000 0.24416  0.03889  0.40427  Biso   1.000  C
  O80      1.0000 0.21060  0.98910  0.64318  Biso   1.000  O
  O81      1.0000 0.21060  0.98906  0.64318  Biso   1.000  O
  O82      1.0000 0.21056  0.98910  0.64318  Biso   1.000  O
  O83      1.0000 0.21056  0.98906  0.64318  Biso   1.000  O
  N175     1.0000 0.22910  0.04192  0.51051  Biso   1.000  N
  N176     1.0000 0.22910  0.04188  0.51051  Biso   1.000  N
  N177     1.0000 0.22906  0.04192  0.51051  Biso   1.000  N
  N178     1.0000 0.22906  0.04188  0.51051  Biso   1.000  N
  C252     1.0000 0.91437  0.76171  0.57091  Biso   1.000  C
  C253     1.0000 0.91437  0.76167  0.57091  Biso   1.000  C
  H271     1.0000 0.95146  0.72162  0.38972  Biso   1.000  H
  N179     1.0000 0.94027  0.79071  0.33206  Biso   1.000  N
  H272     1.0000 0.95146  0.72159  0.38972  Biso   1.000  H
  H273     1.0000 0.95150  0.72162  0.38972  Biso   1.000  H
  N180     1.0000 0.94023  0.79071  0.33206  Biso   1.000  N
  H274     1.0000 0.95150  0.72159  0.38972  Biso   1.000  H
  C254     1.0000 0.97445  0.81270  0.26794  Biso   1.000  C
  C255     1.0000 0.97448  0.81270  0.26794  Biso   1.000  C
  C256     1.0000 0.18600  0.02740  0.27136  Biso   1.000  C
  C257     1.0000 0.18596  0.02740  0.27136  Biso   1.000  C
  H275     1.0000 0.27940  0.05061  0.39353  Biso   1.000  H
  N181     1.0000 0.20899  0.06084  0.33321  Biso   1.000  N
  H276     1.0000 0.27937  0.05061  0.39353  Biso   1.000  H
  C258     1.0000 0.23879  0.08551  0.57220  Biso   1.000  C
  H277     1.0000 0.89966  0.72972  0.55202  Biso   1.000  H
  H278     1.0000 0.92487  0.75940  0.64158  Biso   1.000  H
  N182     1.0000 0.87572  0.79922  0.56222  Biso   1.000  N
  H279     1.0000 0.89966  0.72969  0.55202  Biso   1.000  H
  H280     1.0000 0.89970  0.72972  0.55202  Biso   1.000  H
  N183     1.0000 0.87568  0.79922  0.56222  Biso   1.000  N
  H281     1.0000 0.89970  0.72969  0.55202  Biso   1.000  H
  C259     1.0000 0.88556  0.79202  0.31226  Biso   1.000  C
  C260     1.0000 0.88556  0.79198  0.31226  Biso   1.000  C
  O84      1.0000 0.96487  0.83812  0.19650  Biso   1.000  O
  O85      1.0000 0.96487  0.83808  0.19650  Biso   1.000  O
  O86      1.0000 0.15830  0.03669  0.20076  Biso   1.000  O
  O87      1.0000 0.15830  0.03673  0.20076  Biso   1.000  O
  O88      1.0000 0.15826  0.03669  0.20076  Biso   1.000  O
  O89      1.0000 0.15826  0.03673  0.20076  Biso   1.000  O
  C261     1.0000 0.20661  0.11381  0.31401  Biso   1.000  C
  C262     1.0000 0.20661  0.11377  0.31401  Biso   1.000  C
  C263     1.0000 0.20657  0.11381  0.31401  Biso   1.000  C
  C264     1.0000 0.20657  0.11377  0.31401  Biso   1.000  C
  H282     1.0000 0.24090  0.07521  0.64288  Biso   1.000  H
  H283     1.0000 0.27189  0.09921  0.55339  Biso   1.000  H
  N184     1.0000 0.20129  0.12411  0.56413  Biso   1.000  N
  H284     1.0000 0.27189  0.09918  0.55339  Biso   1.000  H
  N185     1.0000 0.20129  0.12407  0.56413  Biso   1.000  N
  H285     1.0000 0.27186  0.09921  0.55339  Biso   1.000  H
  N186     1.0000 0.20133  0.12411  0.56413  Biso   1.000  N
  H286     1.0000 0.27186  0.09918  0.55339  Biso   1.000  H
  N187     1.0000 0.20133  0.12407  0.56413  Biso   1.000  N
  C265     1.0000 0.86369  0.83039  0.64052  Biso   1.000  C
  C266     1.0000 0.83817  0.80139  0.47989  Biso   1.000  C
  H287     1.0000 0.87970  0.80572  0.24494  Biso   1.000  H
  H288     1.0000 0.87235  0.75805  0.31287  Biso   1.000  H
  N188     1.0000 0.85741  0.82181  0.38698  Biso   1.000  N
  H289     1.0000 0.87970  0.80568  0.24494  Biso   1.000  H
  H290     1.0000 0.87235  0.75809  0.31287  Biso   1.000  H
  N189     1.0000 0.85741  0.82177  0.38698  Biso   1.000  N
  H291     1.0000 0.87966  0.80572  0.24494  Biso   1.000  H
  H292     1.0000 0.87239  0.75805  0.31287  Biso   1.000  H
  N190     1.0000 0.85737  0.82181  0.38698  Biso   1.000  N
  H293     1.0000 0.87966  0.80568  0.24494  Biso   1.000  H
  H294     1.0000 0.87239  0.75809  0.31287  Biso   1.000  H
  N191     1.0000 0.85737  0.82177  0.38698  Biso   1.000  N
  H295     1.0000 0.24128  0.12691  0.31203  Biso   1.000  H
  H296     1.0000 0.19140  0.11918  0.24752  Biso   1.000  H
  N192     1.0000 0.17780  0.14128  0.38842  Biso   1.000  N
  H297     1.0000 0.19140  0.11922  0.24752  Biso   1.000  H
  N193     1.0000 0.17780  0.14132  0.38842  Biso   1.000  N
  H298     1.0000 0.19136  0.11918  0.24752  Biso   1.000  H
  N194     1.0000 0.17776  0.14128  0.38842  Biso   1.000  N
  H299     1.0000 0.19136  0.11922  0.24752  Biso   1.000  H
  N195     1.0000 0.17776  0.14132  0.38842  Biso   1.000  N
  C267     1.0000 0.20048  0.16039  0.48210  Biso   1.000  C
  C268     1.0000 0.16960  0.13639  0.64212  Biso   1.000  C
  C269     1.0000 0.16960  0.13643  0.64212  Biso   1.000  C
  C270     1.0000 0.16957  0.13639  0.64212  Biso   1.000  C
  C271     1.0000 0.16957  0.13643  0.64212  Biso   1.000  C
  N196     1.0000 0.82216  0.85872  0.61158  Biso   1.000  N
  O90      1.0000 0.88637  0.83345  0.71980  Biso   1.000  O
  N197     1.0000 0.82216  0.85868  0.61158  Biso   1.000  N
  O91      1.0000 0.88637  0.83349  0.71980  Biso   1.000  O
  N198     1.0000 0.82220  0.85872  0.61158  Biso   1.000  N
  N199     1.0000 0.82220  0.85868  0.61158  Biso   1.000  N
  C272     1.0000 0.79952  0.83961  0.51790  Biso   1.000  C
  H300     1.0000 0.82212  0.76891  0.46870  Biso   1.000  H
  C273     1.0000 0.79952  0.83957  0.51790  Biso   1.000  C
  H301     1.0000 0.82212  0.76888  0.46870  Biso   1.000  H
  C274     1.0000 0.79948  0.83961  0.51790  Biso   1.000  C
  H302     1.0000 0.82208  0.76891  0.46870  Biso   1.000  H
  C275     1.0000 0.79948  0.83957  0.51790  Biso   1.000  C
  H303     1.0000 0.82208  0.76888  0.46870  Biso   1.000  H
  C276     1.0000 0.83040  0.86361  0.35788  Biso   1.000  C
  C277     1.0000 0.83040  0.86357  0.35788  Biso   1.000  C
  C278     1.0000 0.13631  0.16961  0.35948  Biso   1.000  C
  C279     1.0000 0.13631  0.16957  0.35948  Biso   1.000  C
  C280     1.0000 0.13627  0.16961  0.35948  Biso   1.000  C
  C281     1.0000 0.13627  0.16957  0.35948  Biso   1.000  C
  H304     1.0000 0.23431  0.17528  0.47037  Biso   1.000  H
  C282     1.0000 0.16179  0.19861  0.52011  Biso   1.000  C
  C283     1.0000 0.16179  0.19857  0.52011  Biso   1.000  C
  H305     1.0000 0.23427  0.17528  0.47037  Biso   1.000  H
  N200     1.0000 0.14259  0.17819  0.61302  Biso   1.000  N
  O92      1.0000 0.16619  0.11448  0.72338  Biso   1.000  O
  N201     1.0000 0.14259  0.17823  0.61302  Biso   1.000  N
  C284     1.0000 0.79339  0.88619  0.68599  Biso   1.000  C
  H306     1.0000 0.76569  0.82472  0.52963  Biso   1.000  H
  N202     1.0000 0.79871  0.87589  0.43587  Biso   1.000  N
  H307     1.0000 0.76569  0.82468  0.52963  Biso   1.000  H
  N203     1.0000 0.79867  0.87589  0.43587  Biso   1.000  N
  O93      1.0000 0.83381  0.88552  0.27662  Biso   1.000  O
  O94      1.0000 0.83381  0.88548  0.27662  Biso   1.000  O
  O95      1.0000 0.83377  0.88552  0.27662  Biso   1.000  O
  O96      1.0000 0.83377  0.88548  0.27662  Biso   1.000  O
  N204     1.0000 0.12428  0.20078  0.43778  Biso   1.000  N
  O97      1.0000 0.11359  0.16651  0.28020  Biso   1.000  O
  N205     1.0000 0.12428  0.20074  0.43778  Biso   1.000  N
  O98      1.0000 0.11359  0.16647  0.28020  Biso   1.000  O
  H308     1.0000 0.17788  0.23109  0.53130  Biso   1.000  H
  C285     1.0000 0.11440  0.20798  0.68766  Biso   1.000  C
  C286     1.0000 0.11440  0.20802  0.68766  Biso   1.000  C
  C287     1.0000 0.11444  0.20798  0.68766  Biso   1.000  C
  C288     1.0000 0.11444  0.20802  0.68766  Biso   1.000  C
  H309     1.0000 0.75868  0.87309  0.68797  Biso   1.000  H
  H310     1.0000 0.80856  0.88082  0.75248  Biso   1.000  H
  N206     1.0000 0.79097  0.93916  0.66679  Biso   1.000  N
  H311     1.0000 0.80856  0.88078  0.75248  Biso   1.000  H
  H312     1.0000 0.80860  0.88082  0.75248  Biso   1.000  H
  H313     1.0000 0.80860  0.88078  0.75248  Biso   1.000  H
  C289     1.0000 0.76121  0.91449  0.42780  Biso   1.000  C
  C290     1.0000 0.76117  0.91449  0.42780  Biso   1.000  C
  C291     1.0000 0.08559  0.23829  0.42909  Biso   1.000  C
  H314     1.0000 0.12030  0.19428  0.75506  Biso   1.000  H
  H315     1.0000 0.12761  0.24191  0.68713  Biso   1.000  H
  N207     1.0000 0.05973  0.20929  0.66786  Biso   1.000  N
  N208     1.0000 0.05973  0.20925  0.66786  Biso   1.000  N
  H316     1.0000 0.12758  0.24191  0.68713  Biso   1.000  H
  C292     1.0000 0.81400  0.97260  0.72856  Biso   1.000  C
  C293     1.0000 0.75577  0.96107  0.59566  Biso   1.000  C
  C294     1.0000 0.81400  0.97257  0.72856  Biso   1.000  C
  C295     1.0000 0.75580  0.96107  0.59566  Biso   1.000  C
  H317     1.0000 0.75910  0.92479  0.35712  Biso   1.000  H
  H318     1.0000 0.72811  0.90079  0.44661  Biso   1.000  H
  N209     1.0000 0.77086  0.95808  0.48949  Biso   1.000  N
  N210     1.0000 0.77090  0.95808  0.48949  Biso   1.000  N
  H319     1.0000 0.10030  0.27028  0.44798  Biso   1.000  H
  H320     1.0000 0.07509  0.24060  0.35842  Biso   1.000  H
  N211     1.0000 0.04080  0.22959  0.49132  Biso   1.000  N
  H321     1.0000 0.10026  0.27028  0.44798  Biso   1.000  H
  N212     1.0000 0.04076  0.22959  0.49132  Biso   1.000  N
  C296     1.0000 0.03682  0.24419  0.59848  Biso   1.000  C
  C297     1.0000 0.02552  0.18730  0.73206  Biso   1.000  C
  C298     1.0000 0.02552  0.18726  0.73206  Biso   1.000  C
  C299     1.0000 0.02548  0.18730  0.73206  Biso   1.000  C
  C300     1.0000 0.02548  0.18726  0.73206  Biso   1.000  C
  O99      1.0000 0.84170  0.96331  0.79916  Biso   1.000  O
  O100     1.0000 0.84170  0.96327  0.79916  Biso   1.000  O
  N213     1.0000 0.79929  0.02008  0.69703  Biso   1.000  N
  H322     1.0000 0.72056  0.94939  0.60647  Biso   1.000  H
  H323     1.0000 0.72060  0.94939  0.60647  Biso   1.000  H
  C301     1.0000 0.76121  0.01810  0.61653  Biso   1.000  C
  C302     1.0000 0.76117  0.01810  0.61653  Biso   1.000  C
  C303     1.0000 0.78029  0.00209  0.44699  Biso   1.000  C
  C304     1.0000 0.78029  0.00213  0.44699  Biso   1.000  C
  C305     1.0000 0.99475  0.22041  0.44813  Biso   1.000  C
  C306     1.0000 0.99479  0.22041  0.44813  Biso   1.000  C
  C307     1.0000 0.97866  0.23788  0.61820  Biso   1.000  C
  C308     1.0000 0.97870  0.23788  0.61820  Biso   1.000  C
  H324     1.0000 0.04850  0.27838  0.61028  Biso   1.000  H
  H325     1.0000 0.04850  0.27841  0.61028  Biso   1.000  H
  H326     1.0000 0.04846  0.27838  0.61028  Biso   1.000  H
  H327     1.0000 0.04846  0.27841  0.61028  Biso   1.000  H
  N214     1.0000 0.97686  0.20130  0.70008  Biso   1.000  N
  N215     1.0000 0.97686  0.20126  0.70008  Biso   1.000  N
  N216     1.0000 0.97690  0.20130  0.70008  Biso   1.000  N
  N217     1.0000 0.97690  0.20126  0.70008  Biso   1.000  N
  O101     1.0000 0.03509  0.16188  0.80350  Biso   1.000  O
  C309     1.0000 0.80557  0.06401  0.76062  Biso   1.000  C
  C310     1.0000 0.80557  0.06398  0.76062  Biso   1.000  C
  H328     1.0000 0.72860  0.03251  0.63907  Biso   1.000  H
  N218     1.0000 0.77711  0.03912  0.52292  Biso   1.000  N
  H329     1.0000 0.72860  0.03247  0.63907  Biso   1.000  H
  N219     1.0000 0.77711  0.03908  0.52292  Biso   1.000  N
  N220     1.0000 0.77707  0.03912  0.52292  Biso   1.000  N
  N221     1.0000 0.77707  0.03908  0.52292  Biso   1.000  N
  O102     1.0000 0.78936  0.01090  0.35682  Biso   1.000  O
  O103     1.0000 0.78940  0.01090  0.35682  Biso   1.000  O
  N222     1.0000 0.95778  0.22168  0.52437  Biso   1.000  N
  O104     1.0000 0.98717  0.21112  0.35849  Biso   1.000  O
  O105     1.0000 0.98717  0.21115  0.35849  Biso   1.000  O
  H330     1.0000 0.96326  0.26961  0.63983  Biso   1.000  H
  H331     1.0000 0.96326  0.26957  0.63983  Biso   1.000  H
  H332     1.0000 0.96330  0.26961  0.63983  Biso   1.000  H
  H333     1.0000 0.96330  0.26957  0.63983  Biso   1.000  H
  C311     1.0000 0.93276  0.19488  0.76367  Biso   1.000  C
  C312     1.0000 0.93276  0.19492  0.76367  Biso   1.000  C
  H334     1.0000 0.81990  0.05371  0.82551  Biso   1.000  H
  H335     1.0000 0.77216  0.07838  0.77357  Biso   1.000  H
  N223     1.0000 0.83752  0.10100  0.71820  Biso   1.000  N
  H336     1.0000 0.81990  0.05367  0.82551  Biso   1.000  H
  H337     1.0000 0.77216  0.07842  0.77357  Biso   1.000  H
  N224     1.0000 0.83752  0.10097  0.71820  Biso   1.000  N
  H338     1.0000 0.77220  0.07838  0.77357  Biso   1.000  H
  N225     1.0000 0.83748  0.10100  0.71820  Biso   1.000  N
  H339     1.0000 0.77220  0.07842  0.77357  Biso   1.000  H
  N226     1.0000 0.83748  0.10097  0.71820  Biso   1.000  N
  C313     1.0000 0.77580  0.09149  0.49977  Biso   1.000  C
  C314     1.0000 0.90277  0.22149  0.50122  Biso   1.000  C
  H340     1.0000 0.94349  0.18129  0.82887  Biso   1.000  H
  H341     1.0000 0.91725  0.22720  0.77616  Biso   1.000  H
  N227     1.0000 0.89487  0.16188  0.71858  Biso   1.000  N
  H342     1.0000 0.91729  0.22720  0.77616  Biso   1.000  H
  C315     1.0000 0.87928  0.11870  0.76786  Biso   1.000  C
  C316     1.0000 0.81775  0.13699  0.64638  Biso   1.000  C
  C317     1.0000 0.87928  0.11873  0.76786  Biso   1.000  C
  C318     1.0000 0.81775  0.13702  0.64638  Biso   1.000  C
  C319     1.0000 0.81779  0.13699  0.64638  Biso   1.000  C
  C320     1.0000 0.81779  0.13702  0.64638  Biso   1.000  C
  H343     1.0000 0.77569  0.09559  0.42643  Biso   1.000  H
  H344     1.0000 0.74408  0.10541  0.52567  Biso   1.000  H
  N228     1.0000 0.81810  0.11948  0.54151  Biso   1.000  N
  H345     1.0000 0.74408  0.10537  0.52567  Biso   1.000  H
  N229     1.0000 0.81810  0.11952  0.54151  Biso   1.000  N
  H346     1.0000 0.89805  0.22179  0.42788  Biso   1.000  H
  H347     1.0000 0.88717  0.25150  0.52848  Biso   1.000  H
  N230     1.0000 0.87779  0.17931  0.54242  Biso   1.000  N
  H348     1.0000 0.88717  0.25147  0.52848  Biso   1.000  H
  N231     1.0000 0.87779  0.17928  0.54242  Biso   1.000  N
  H349     1.0000 0.89809  0.22179  0.42788  Biso   1.000  H
  C321     1.0000 0.85852  0.17849  0.64577  Biso   1.000  C
  C322     1.0000 0.85848  0.17849  0.64577  Biso   1.000  C
  O106     1.0000 0.90219  0.09869  0.83732  Biso   1.000  O
  H350     1.0000 0.78396  0.14960  0.66657  Biso   1.000  H
  H351     1.0000 0.78396  0.14957  0.66657  Biso   1.000  H
  H352     1.0000 0.78400  0.14960  0.66657  Biso   1.000  H
  H353     1.0000 0.78400  0.14957  0.66657  Biso   1.000  H
  C323     1.0000 0.85032  0.14650  0.48111  Biso   1.000  C
  C324     1.0000 0.85028  0.14650  0.48111  Biso   1.000  C
  H354     1.0000 0.84365  0.21078  0.66512  Biso   1.000  H
  H355     1.0000 0.84365  0.21082  0.66512  Biso   1.000  H
  H356     1.0000 0.84369  0.21078  0.66512  Biso   1.000  H
  H357     1.0000 0.84369  0.21082  0.66512  Biso   1.000  H
  O107     1.0000 0.85522  0.14240  0.39117  Biso   1.000  O
  O108     1.0000 0.85518  0.14240  0.39117  Biso   1.000  O
  O109     1.0000 0.14478  0.85760  0.60876  Biso   1.000  O
  C325     1.0000 0.14968  0.85350  0.51889  Biso   1.000  C
  N232     1.0000 0.12221  0.82069  0.45758  Biso   1.000  N
  N233     1.0000 0.18190  0.88052  0.45849  Biso   1.000  N
  N234     1.0000 0.18190  0.88048  0.45849  Biso   1.000  N
  N235     1.0000 0.12217  0.82069  0.45758  Biso   1.000  N
  N236     1.0000 0.18186  0.88052  0.45849  Biso   1.000  N
  N237     1.0000 0.18186  0.88048  0.45849  Biso   1.000  N
  C326     1.0000 0.09720  0.77851  0.49878  Biso   1.000  C
  C327     1.0000 0.14148  0.82151  0.35423  Biso   1.000  C
  C328     1.0000 0.09720  0.77847  0.49878  Biso   1.000  C
  C329     1.0000 0.14148  0.82147  0.35423  Biso   1.000  C
  C330     1.0000 0.18221  0.86301  0.35362  Biso   1.000  C
  C331     1.0000 0.22420  0.90851  0.50023  Biso   1.000  C
  C332     1.0000 0.18221  0.86298  0.35362  Biso   1.000  C
  C333     1.0000 0.22420  0.90848  0.50023  Biso   1.000  C
  C334     1.0000 0.18217  0.86301  0.35362  Biso   1.000  C
  C335     1.0000 0.22416  0.90851  0.50023  Biso   1.000  C
  C336     1.0000 0.18217  0.86298  0.35362  Biso   1.000  C
  C337     1.0000 0.22416  0.90848  0.50023  Biso   1.000  C
  H358     1.0000 0.11279  0.74850  0.47152  Biso   1.000  H
  H359     1.0000 0.10191  0.77821  0.57212  Biso   1.000  H
  N238     1.0000 0.04218  0.77832  0.47563  Biso   1.000  N
  H360     1.0000 0.10191  0.77817  0.57212  Biso   1.000  H
  N239     1.0000 0.04218  0.77828  0.47563  Biso   1.000  N
  H361     1.0000 0.10187  0.77821  0.57212  Biso   1.000  H
  H362     1.0000 0.10187  0.77817  0.57212  Biso   1.000  H
  H363     1.0000 0.15631  0.78922  0.33488  Biso   1.000  H
  N240     1.0000 0.10509  0.83812  0.28142  Biso   1.000  N
  H364     1.0000 0.15631  0.78918  0.33488  Biso   1.000  H
  N241     1.0000 0.10509  0.83808  0.28142  Biso   1.000  N
  H365     1.0000 0.15627  0.78922  0.33488  Biso   1.000  H
  H366     1.0000 0.15627  0.78918  0.33488  Biso   1.000  H
  N242     1.0000 0.16248  0.89900  0.28180  Biso   1.000  N
  H367     1.0000 0.21600  0.85040  0.33343  Biso   1.000  H
  H368     1.0000 0.21596  0.85040  0.33343  Biso   1.000  H
  H369     1.0000 0.25588  0.89459  0.47433  Biso   1.000  H
  N243     1.0000 0.22289  0.96088  0.47708  Biso   1.000  N
  H370     1.0000 0.22431  0.90441  0.57357  Biso   1.000  H
  H371     1.0000 0.22431  0.90437  0.57357  Biso   1.000  H
  H372     1.0000 0.22427  0.90441  0.57357  Biso   1.000  H
  H373     1.0000 0.22427  0.90437  0.57357  Biso   1.000  H
  C338     1.0000 0.00521  0.77959  0.55187  Biso   1.000  C
  C339     1.0000 0.02130  0.76212  0.38180  Biso   1.000  C
  C340     1.0000 0.02130  0.76208  0.38180  Biso   1.000  C
  C341     1.0000 0.00517  0.77959  0.55187  Biso   1.000  C
  C342     1.0000 0.02126  0.76212  0.38180  Biso   1.000  C
  C343     1.0000 0.02126  0.76208  0.38180  Biso   1.000  C
  C344     1.0000 0.06720  0.80512  0.23633  Biso   1.000  C
  C345     1.0000 0.12068  0.88130  0.23206  Biso   1.000  C
  C346     1.0000 0.06720  0.80508  0.23633  Biso   1.000  C
  C347     1.0000 0.12068  0.88127  0.23206  Biso   1.000  C
  C348     1.0000 0.06724  0.80512  0.23633  Biso   1.000  C
  C349     1.0000 0.06724  0.80508  0.23633  Biso   1.000  C
  C350     1.0000 0.19439  0.93599  0.23938  Biso   1.000  C
  C351     1.0000 0.23879  0.98190  0.38347  Biso   1.000  C
  C352     1.0000 0.21968  0.99791  0.55301  Biso   1.000  C
  C353     1.0000 0.21968  0.99787  0.55301  Biso   1.000  C
  N244     1.0000 0.95920  0.77041  0.50868  Biso   1.000  N
  N245     1.0000 0.95920  0.77037  0.50868  Biso   1.000  N
  O110     1.0000 0.01280  0.78888  0.64151  Biso   1.000  O
  O111     1.0000 0.01280  0.78885  0.64151  Biso   1.000  O
  C354     1.0000 0.96314  0.75581  0.40152  Biso   1.000  C
  C355     1.0000 0.96314  0.75578  0.40152  Biso   1.000  C
  C356     1.0000 0.96318  0.75581  0.40152  Biso   1.000  C
  C357     1.0000 0.96318  0.75578  0.40152  Biso   1.000  C
  H374     1.0000 0.03670  0.73039  0.36017  Biso   1.000  H
  N246     1.0000 0.02310  0.79870  0.29992  Biso   1.000  N
  H375     1.0000 0.03666  0.73039  0.36017  Biso   1.000  H
  N247     1.0000 0.02306  0.79870  0.29992  Biso   1.000  N
  H376     1.0000 0.05651  0.81871  0.17113  Biso   1.000  H
  H377     1.0000 0.08271  0.77280  0.22376  Biso   1.000  H
  H378     1.0000 0.05651  0.81867  0.17113  Biso   1.000  H
  H379     1.0000 0.05647  0.81871  0.17113  Biso   1.000  H
  H380     1.0000 0.08268  0.77280  0.22376  Biso   1.000  H
  H381     1.0000 0.05647  0.81867  0.17113  Biso   1.000  H
  O112     1.0000 0.09781  0.90131  0.16268  Biso   1.000  O
  O113     1.0000 0.09781  0.90127  0.16268  Biso   1.000  O
  O114     1.0000 0.09777  0.90131  0.16268  Biso   1.000  O
  O115     1.0000 0.09777  0.90127  0.16268  Biso   1.000  O
  H382     1.0000 0.18010  0.94629  0.17449  Biso   1.000  H
  H383     1.0000 0.22780  0.92162  0.22643  Biso   1.000  H
  N248     1.0000 0.20071  0.97992  0.30297  Biso   1.000  N
  H384     1.0000 0.22780  0.92158  0.22643  Biso   1.000  H
  N249     1.0000 0.20071  0.97988  0.30297  Biso   1.000  N
  H385     1.0000 0.18006  0.94629  0.17449  Biso   1.000  H
  H386     1.0000 0.22776  0.92162  0.22643  Biso   1.000  H
  N250     1.0000 0.20067  0.97992  0.30297  Biso   1.000  N
  H387     1.0000 0.22776  0.92158  0.22643  Biso   1.000  H
  N251     1.0000 0.20067  0.97988  0.30297  Biso   1.000  N
  H388     1.0000 0.27140  0.96749  0.36093  Biso   1.000  H
  H389     1.0000 0.27136  0.96749  0.36093  Biso   1.000  H
  C358     1.0000 0.24420  0.03889  0.40427  Biso   1.000  C
  C359     1.0000 0.24416  0.03889  0.40427  Biso   1.000  C
  O116     1.0000 0.21060  0.98910  0.64318  Biso   1.000  O
  O117     1.0000 0.21060  0.98906  0.64318  Biso   1.000  O
  O118     1.0000 0.21056  0.98910  0.64318  Biso   1.000  O
  O119     1.0000 0.21056  0.98906  0.64318  Biso   1.000  O
  N252     1.0000 0.22910  0.04192  0.51051  Biso   1.000  N
  N253     1.0000 0.22910  0.04188  0.51051  Biso   1.000  N
  N254     1.0000 0.22906  0.04192  0.51051  Biso   1.000  N
  N255     1.0000 0.22906  0.04188  0.51051  Biso   1.000  N
  C360     1.0000 0.91437  0.76171  0.57091  Biso   1.000  C
  C361     1.0000 0.91437  0.76167  0.57091  Biso   1.000  C
  H390     1.0000 0.95146  0.72162  0.38972  Biso   1.000  H
  N256     1.0000 0.94027  0.79071  0.33206  Biso   1.000  N
  H391     1.0000 0.95146  0.72159  0.38972  Biso   1.000  H
  H392     1.0000 0.95150  0.72162  0.38972  Biso   1.000  H
  N257     1.0000 0.94023  0.79071  0.33206  Biso   1.000  N
  H393     1.0000 0.95150  0.72159  0.38972  Biso   1.000  H
  C362     1.0000 0.97445  0.81270  0.26794  Biso   1.000  C
  C363     1.0000 0.97448  0.81270  0.26794  Biso   1.000  C
  C364     1.0000 0.18600  0.02740  0.27136  Biso   1.000  C
  C365     1.0000 0.18596  0.02740  0.27136  Biso   1.000  C
  H394     1.0000 0.27940  0.05061  0.39353  Biso   1.000  H
  N258     1.0000 0.20899  0.06084  0.33321  Biso   1.000  N
  H395     1.0000 0.27937  0.05061  0.39353  Biso   1.000  H
  C366     1.0000 0.23879  0.08551  0.57220  Biso   1.000  C
  H396     1.0000 0.89966  0.72972  0.55202  Biso   1.000  H
  H397     1.0000 0.92487  0.75940  0.64158  Biso   1.000  H
  N259     1.0000 0.87572  0.79922  0.56222  Biso   1.000  N
  H398     1.0000 0.89966  0.72969  0.55202  Biso   1.000  H
  H399     1.0000 0.89970  0.72972  0.55202  Biso   1.000  H
  N260     1.0000 0.87568  0.79922  0.56222  Biso   1.000  N
  H400     1.0000 0.89970  0.72969  0.55202  Biso   1.000  H
  C367     1.0000 0.88556  0.79202  0.31226  Biso   1.000  C
  C368     1.0000 0.88556  0.79198  0.31226  Biso   1.000  C
  O120     1.0000 0.96487  0.83812  0.19650  Biso   1.000  O
  O121     1.0000 0.96487  0.83808  0.19650  Biso   1.000  O
  O122     1.0000 0.15830  0.03669  0.20076  Biso   1.000  O
  O123     1.0000 0.15830  0.03673  0.20076  Biso   1.000  O
  O124     1.0000 0.15826  0.03669  0.20076  Biso   1.000  O
  O125     1.0000 0.15826  0.03673  0.20076  Biso   1.000  O
  C369     1.0000 0.20661  0.11381  0.31401  Biso   1.000  C
  C370     1.0000 0.20661  0.11377  0.31401  Biso   1.000  C
  C371     1.0000 0.20657  0.11381  0.31401  Biso   1.000  C
  C372     1.0000 0.20657  0.11377  0.31401  Biso   1.000  C
  H401     1.0000 0.24090  0.07521  0.64288  Biso   1.000  H
  H402     1.0000 0.27189  0.09921  0.55339  Biso   1.000  H
  N261     1.0000 0.20129  0.12411  0.56413  Biso   1.000  N
  H403     1.0000 0.27189  0.09918  0.55339  Biso   1.000  H
  N262     1.0000 0.20129  0.12407  0.56413  Biso   1.000  N
  H404     1.0000 0.27186  0.09921  0.55339  Biso   1.000  H
  N263     1.0000 0.20133  0.12411  0.56413  Biso   1.000  N
  H405     1.0000 0.27186  0.09918  0.55339  Biso   1.000  H
  N264     1.0000 0.20133  0.12407  0.56413  Biso   1.000  N
  C373     1.0000 0.86369  0.83039  0.64052  Biso   1.000  C
  C374     1.0000 0.83817  0.80139  0.47989  Biso   1.000  C
  H406     1.0000 0.87970  0.80572  0.24494  Biso   1.000  H
  H407     1.0000 0.87235  0.75805  0.31287  Biso   1.000  H
  N265     1.0000 0.85741  0.82181  0.38698  Biso   1.000  N
  H408     1.0000 0.87970  0.80568  0.24494  Biso   1.000  H
  H409     1.0000 0.87235  0.75809  0.31287  Biso   1.000  H
  N266     1.0000 0.85741  0.82177  0.38698  Biso   1.000  N
  H410     1.0000 0.87966  0.80572  0.24494  Biso   1.000  H
  H411     1.0000 0.87239  0.75805  0.31287  Biso   1.000  H
  N267     1.0000 0.85737  0.82181  0.38698  Biso   1.000  N
  H412     1.0000 0.87966  0.80568  0.24494  Biso   1.000  H
  H413     1.0000 0.87239  0.75809  0.31287  Biso   1.000  H
  N268     1.0000 0.85737  0.82177  0.38698  Biso   1.000  N
  H414     1.0000 0.24128  0.12691  0.31203  Biso   1.000  H
  H415     1.0000 0.19140  0.11918  0.24752  Biso   1.000  H
  N269     1.0000 0.17780  0.14128  0.38842  Biso   1.000  N
  H416     1.0000 0.19140  0.11922  0.24752  Biso   1.000  H
  N270     1.0000 0.17780  0.14132  0.38842  Biso   1.000  N
  H417     1.0000 0.19136  0.11918  0.24752  Biso   1.000  H
  N271     1.0000 0.17776  0.14128  0.38842  Biso   1.000  N
  H418     1.0000 0.19136  0.11922  0.24752  Biso   1.000  H
  N272     1.0000 0.17776  0.14132  0.38842  Biso   1.000  N
  C375     1.0000 0.20048  0.16039  0.48210  Biso   1.000  C
  C376     1.0000 0.16960  0.13639  0.64212  Biso   1.000  C
  C377     1.0000 0.16960  0.13643  0.64212  Biso   1.000  C
  C378     1.0000 0.16957  0.13639  0.64212  Biso   1.000  C
  C379     1.0000 0.16957  0.13643  0.64212  Biso   1.000  C
  N273     1.0000 0.82216  0.85872  0.61158  Biso   1.000  N
  O126     1.0000 0.88637  0.83345  0.71980  Biso   1.000  O
  N274     1.0000 0.82216  0.85868  0.61158  Biso   1.000  N
  O127     1.0000 0.88637  0.83349  0.71980  Biso   1.000  O
  N275     1.0000 0.82220  0.85872  0.61158  Biso   1.000  N
  N276     1.0000 0.82220  0.85868  0.61158  Biso   1.000  N
  C380     1.0000 0.79952  0.83961  0.51790  Biso   1.000  C
  H419     1.0000 0.82212  0.76891  0.46870  Biso   1.000  H
  C381     1.0000 0.79952  0.83957  0.51790  Biso   1.000  C
  H420     1.0000 0.82212  0.76888  0.46870  Biso   1.000  H
  C382     1.0000 0.79948  0.83961  0.51790  Biso   1.000  C
  H421     1.0000 0.82208  0.76891  0.46870  Biso   1.000  H
  C383     1.0000 0.79948  0.83957  0.51790  Biso   1.000  C
  H422     1.0000 0.82208  0.76888  0.46870  Biso   1.000  H
  C384     1.0000 0.83040  0.86361  0.35788  Biso   1.000  C
  C385     1.0000 0.83040  0.86357  0.35788  Biso   1.000  C
  C386     1.0000 0.13631  0.16961  0.35948  Biso   1.000  C
  C387     1.0000 0.13631  0.16957  0.35948  Biso   1.000  C
  C388     1.0000 0.13627  0.16961  0.35948  Biso   1.000  C
  C389     1.0000 0.13627  0.16957  0.35948  Biso   1.000  C
  H423     1.0000 0.23431  0.17528  0.47037  Biso   1.000  H
  C390     1.0000 0.16179  0.19861  0.52011  Biso   1.000  C
  C391     1.0000 0.16179  0.19857  0.52011  Biso   1.000  C
  H424     1.0000 0.23427  0.17528  0.47037  Biso   1.000  H
  N277     1.0000 0.14259  0.17819  0.61302  Biso   1.000  N
  O128     1.0000 0.16619  0.11448  0.72338  Biso   1.000  O
  N278     1.0000 0.14259  0.17823  0.61302  Biso   1.000  N
  C392     1.0000 0.79339  0.88619  0.68599  Biso   1.000  C
  H425     1.0000 0.76569  0.82472  0.52963  Biso   1.000  H
  N279     1.0000 0.79871  0.87589  0.43587  Biso   1.000  N
  H426     1.0000 0.76569  0.82468  0.52963  Biso   1.000  H
  N280     1.0000 0.79867  0.87589  0.43587  Biso   1.000  N
  O129     1.0000 0.83381  0.88552  0.27662  Biso   1.000  O
  O130     1.0000 0.83381  0.88548  0.27662  Biso   1.000  O
  O131     1.0000 0.83377  0.88552  0.27662  Biso   1.000  O
  O132     1.0000 0.83377  0.88548  0.27662  Biso   1.000  O
  N281     1.0000 0.12428  0.20078  0.43778  Biso   1.000  N
  O133     1.0000 0.11359  0.16651  0.28020  Biso   1.000  O
  N282     1.0000 0.12428  0.20074  0.43778  Biso   1.000  N
  O134     1.0000 0.11359  0.16647  0.28020  Biso   1.000  O
  H427     1.0000 0.17788  0.23109  0.53130  Biso   1.000  H
  C393     1.0000 0.11440  0.20798  0.68766  Biso   1.000  C
  C394     1.0000 0.11440  0.20802  0.68766  Biso   1.000  C
  C395     1.0000 0.11444  0.20798  0.68766  Biso   1.000  C
  C396     1.0000 0.11444  0.20802  0.68766  Biso   1.000  C
  H428     1.0000 0.75868  0.87309  0.68797  Biso   1.000  H
  H429     1.0000 0.80856  0.88082  0.75248  Biso   1.000  H
  N283     1.0000 0.79097  0.93916  0.66679  Biso   1.000  N
  H430     1.0000 0.80856  0.88078  0.75248  Biso   1.000  H
  H431     1.0000 0.80860  0.88082  0.75248  Biso   1.000  H
  H432     1.0000 0.80860  0.88078  0.75248  Biso   1.000  H
  C397     1.0000 0.76121  0.91449  0.42780  Biso   1.000  C
  C398     1.0000 0.76117  0.91449  0.42780  Biso   1.000  C
  C399     1.0000 0.08559  0.23829  0.42909  Biso   1.000  C
  H433     1.0000 0.12030  0.19428  0.75506  Biso   1.000  H
  H434     1.0000 0.12761  0.24191  0.68713  Biso   1.000  H
  N284     1.0000 0.05973  0.20929  0.66786  Biso   1.000  N
  N285     1.0000 0.05973  0.20925  0.66786  Biso   1.000  N
  H435     1.0000 0.12758  0.24191  0.68713  Biso   1.000  H
  C400     1.0000 0.81400  0.97260  0.72856  Biso   1.000  C
  C401     1.0000 0.75577  0.96107  0.59566  Biso   1.000  C
  C402     1.0000 0.81400  0.97257  0.72856  Biso   1.000  C
  C403     1.0000 0.75580  0.96107  0.59566  Biso   1.000  C
  H436     1.0000 0.75910  0.92479  0.35712  Biso   1.000  H
  H437     1.0000 0.72811  0.90079  0.44661  Biso   1.000  H
  N286     1.0000 0.77086  0.95808  0.48949  Biso   1.000  N
  N287     1.0000 0.77090  0.95808  0.48949  Biso   1.000  N
  H438     1.0000 0.10030  0.27028  0.44798  Biso   1.000  H
  H439     1.0000 0.07509  0.24060  0.35842  Biso   1.000  H
  N288     1.0000 0.04080  0.22959  0.49132  Biso   1.000  N
  H440     1.0000 0.10026  0.27028  0.44798  Biso   1.000  H
  N289     1.0000 0.04076  0.22959  0.49132  Biso   1.000  N
  C404     1.0000 0.03682  0.24419  0.59848  Biso   1.000  C
  C405     1.0000 0.02552  0.18730  0.73206  Biso   1.000  C
  C406     1.0000 0.02552  0.18726  0.73206  Biso   1.000  C
  C407     1.0000 0.02548  0.18730  0.73206  Biso   1.000  C
  C408     1.0000 0.02548  0.18726  0.73206  Biso   1.000  C
  O135     1.0000 0.84170  0.96331  0.79916  Biso   1.000  O
  O136     1.0000 0.84170  0.96327  0.79916  Biso   1.000  O
  N290     1.0000 0.79929  0.02008  0.69703  Biso   1.000  N
  H441     1.0000 0.72056  0.94939  0.60647  Biso   1.000  H
  H442     1.0000 0.72060  0.94939  0.60647  Biso   1.000  H
  C409     1.0000 0.76121  0.01810  0.61653  Biso   1.000  C
  C410     1.0000 0.76117  0.01810  0.61653  Biso   1.000  C
  C411     1.0000 0.78029  0.00209  0.44699  Biso   1.000  C
  C412     1.0000 0.78029  0.00213  0.44699  Biso   1.000  C
  C413     1.0000 0.99475  0.22041  0.44813  Biso   1.000  C
  C414     1.0000 0.99479  0.22041  0.44813  Biso   1.000  C
  C415     1.0000 0.97866  0.23788  0.61820  Biso   1.000  C
  C416     1.0000 0.97870  0.23788  0.61820  Biso   1.000  C
  H443     1.0000 0.04850  0.27838  0.61028  Biso   1.000  H
  H444     1.0000 0.04850  0.27841  0.61028  Biso   1.000  H
  H445     1.0000 0.04846  0.27838  0.61028  Biso   1.000  H
  H446     1.0000 0.04846  0.27841  0.61028  Biso   1.000  H
  N291     1.0000 0.97686  0.20130  0.70008  Biso   1.000  N
  N292     1.0000 0.97686  0.20126  0.70008  Biso   1.000  N
  N293     1.0000 0.97690  0.20130  0.70008  Biso   1.000  N
  N294     1.0000 0.97690  0.20126  0.70008  Biso   1.000  N
  O137     1.0000 0.03509  0.16188  0.80350  Biso   1.000  O
  C417     1.0000 0.80557  0.06401  0.76062  Biso   1.000  C
  C418     1.0000 0.80557  0.06398  0.76062  Biso   1.000  C
  H447     1.0000 0.72860  0.03251  0.63907  Biso   1.000  H
  N295     1.0000 0.77711  0.03912  0.52292  Biso   1.000  N
  H448     1.0000 0.72860  0.03247  0.63907  Biso   1.000  H
  N296     1.0000 0.77711  0.03908  0.52292  Biso   1.000  N
  N297     1.0000 0.77707  0.03912  0.52292  Biso   1.000  N
  N298     1.0000 0.77707  0.03908  0.52292  Biso   1.000  N
  O138     1.0000 0.78936  0.01090  0.35682  Biso   1.000  O
  O139     1.0000 0.78940  0.01090  0.35682  Biso   1.000  O
  N299     1.0000 0.95778  0.22168  0.52437  Biso   1.000  N
  O140     1.0000 0.98717  0.21112  0.35849  Biso   1.000  O
  O141     1.0000 0.98717  0.21115  0.35849  Biso   1.000  O
  H449     1.0000 0.96326  0.26961  0.63983  Biso   1.000  H
  H450     1.0000 0.96326  0.26957  0.63983  Biso   1.000  H
  H451     1.0000 0.96330  0.26961  0.63983  Biso   1.000  H
  H452     1.0000 0.96330  0.26957  0.63983  Biso   1.000  H
  C419     1.0000 0.93276  0.19488  0.76367  Biso   1.000  C
  C420     1.0000 0.93276  0.19492  0.76367  Biso   1.000  C
  H453     1.0000 0.81990  0.05371  0.82551  Biso   1.000  H
  H454     1.0000 0.77216  0.07838  0.77357  Biso   1.000  H
  N300     1.0000 0.83752  0.10100  0.71820  Biso   1.000  N
  H455     1.0000 0.81990  0.05367  0.82551  Biso   1.000  H
  H456     1.0000 0.77216  0.07842  0.77357  Biso   1.000  H
  N301     1.0000 0.83752  0.10097  0.71820  Biso   1.000  N
  H457     1.0000 0.77220  0.07838  0.77357  Biso   1.000  H
  N302     1.0000 0.83748  0.10100  0.71820  Biso   1.000  N
  H458     1.0000 0.77220  0.07842  0.77357  Biso   1.000  H
  N303     1.0000 0.83748  0.10097  0.71820  Biso   1.000  N
  C421     1.0000 0.77580  0.09149  0.49977  Biso   1.000  C
  C422     1.0000 0.90277  0.22149  0.50122  Biso   1.000  C
  H459     1.0000 0.94349  0.18129  0.82887  Biso   1.000  H
  H460     1.0000 0.91725  0.22720  0.77616  Biso   1.000  H
  N304     1.0000 0.89487  0.16188  0.71858  Biso   1.000  N
  H461     1.0000 0.91729  0.22720  0.77616  Biso   1.000  H
  C423     1.0000 0.87928  0.11870  0.76786  Biso   1.000  C
  C424     1.0000 0.81775  0.13699  0.64638  Biso   1.000  C
  C425     1.0000 0.87928  0.11873  0.76786  Biso   1.000  C
  C426     1.0000 0.81775  0.13702  0.64638  Biso   1.000  C
  C427     1.0000 0.81779  0.13699  0.64638  Biso   1.000  C
  C428     1.0000 0.81779  0.13702  0.64638  Biso   1.000  C
  H462     1.0000 0.77569  0.09559  0.42643  Biso   1.000  H
  H463     1.0000 0.74408  0.10541  0.52567  Biso   1.000  H
  N305     1.0000 0.81810  0.11948  0.54151  Biso   1.000  N
  H464     1.0000 0.74408  0.10537  0.52567  Biso   1.000  H
  N306     1.0000 0.81810  0.11952  0.54151  Biso   1.000  N
  H465     1.0000 0.89805  0.22179  0.42788  Biso   1.000  H
  H466     1.0000 0.88717  0.25150  0.52848  Biso   1.000  H
  N307     1.0000 0.87779  0.17931  0.54242  Biso   1.000  N
  H467     1.0000 0.88717  0.25147  0.52848  Biso   1.000  H
  N308     1.0000 0.87779  0.17928  0.54242  Biso   1.000  N
  H468     1.0000 0.89809  0.22179  0.42788  Biso   1.000  H
  C429     1.0000 0.85852  0.17849  0.64577  Biso   1.000  C
  C430     1.0000 0.85848  0.17849  0.64577  Biso   1.000  C
  O142     1.0000 0.90219  0.09869  0.83732  Biso   1.000  O
  H469     1.0000 0.78396  0.14960  0.66657  Biso   1.000  H
  H470     1.0000 0.78396  0.14957  0.66657  Biso   1.000  H
  H471     1.0000 0.78400  0.14960  0.66657  Biso   1.000  H
  H472     1.0000 0.78400  0.14957  0.66657  Biso   1.000  H
  C431     1.0000 0.85032  0.14650  0.48111  Biso   1.000  C
  C432     1.0000 0.85028  0.14650  0.48111  Biso   1.000  C
  H473     1.0000 0.84365  0.21078  0.66512  Biso   1.000  H
  H474     1.0000 0.84365  0.21082  0.66512  Biso   1.000  H
  H475     1.0000 0.84369  0.21078  0.66512  Biso   1.000  H
  H476     1.0000 0.84369  0.21082  0.66512  Biso   1.000  H
  O143     1.0000 0.85522  0.14240  0.39117  Biso   1.000  O
  O144     1.0000 0.85518  0.14240  0.39117  Biso   1.000  O
  C433     1.0000 0.31779  0.86298  0.85362  Biso   1.000  C
  C434     1.0000 0.35848  0.82151  0.85423  Biso   1.000  C
  C435     1.0000 0.35848  0.82147  0.85423  Biso   1.000  C
  N309     1.0000 0.33748  0.89900  0.78180  Biso   1.000  N
  H477     1.0000 0.28400  0.85040  0.83343  Biso   1.000  H
  N310     1.0000 0.31810  0.88052  0.95849  Biso   1.000  N
  H478     1.0000 0.28400  0.85040  0.83336  Biso   1.000  H
  N311     1.0000 0.31810  0.88048  0.95849  Biso   1.000  N
  N312     1.0000 0.39487  0.83812  0.78142  Biso   1.000  N
  N313     1.0000 0.39487  0.83808  0.78142  Biso   1.000  N
  H479     1.0000 0.34369  0.78922  0.83488  Biso   1.000  H
  C436     1.0000 0.31779  0.86301  0.85362  Biso   1.000  C
  N314     1.0000 0.37779  0.82069  0.95758  Biso   1.000  N
  H480     1.0000 0.34369  0.78918  0.83488  Biso   1.000  H
  C437     1.0000 0.37928  0.88130  0.73206  Biso   1.000  C
  C438     1.0000 0.37928  0.88127  0.73206  Biso   1.000  C
  C439     1.0000 0.30561  0.93599  0.73938  Biso   1.000  C
  C440     1.0000 0.35028  0.85350  0.01889  Biso   1.000  C
  C441     1.0000 0.27580  0.90851  0.00023  Biso   1.000  C
  C442     1.0000 0.27580  0.90848  0.00023  Biso   1.000  C
  C443     1.0000 0.43280  0.80508  0.73633  Biso   1.000  C
  C444     1.0000 0.43280  0.80512  0.73633  Biso   1.000  C
  C445     1.0000 0.40280  0.77851  0.99878  Biso   1.000  C
  C446     1.0000 0.40280  0.77847  0.99878  Biso   1.000  C
  O145     1.0000 0.40219  0.90131  0.66268  Biso   1.000  O
  O146     1.0000 0.40219  0.90127  0.66268  Biso   1.000  O
  H481     1.0000 0.31990  0.94629  0.67449  Biso   1.000  H
  H482     1.0000 0.27220  0.92162  0.72643  Biso   1.000  H
  N315     1.0000 0.29929  0.97992  0.80297  Biso   1.000  N
  H483     1.0000 0.27220  0.92158  0.72643  Biso   1.000  H
  N316     1.0000 0.29929  0.97988  0.80297  Biso   1.000  N
  O147     1.0000 0.35518  0.85760  0.10883  Biso   1.000  O
  O148     1.0000 0.35518  0.85760  0.10876  Biso   1.000  O
  H484     1.0000 0.24408  0.89459  0.97433  Biso   1.000  H
  N317     1.0000 0.27711  0.96088  0.97708  Biso   1.000  N
  H485     1.0000 0.24408  0.89459  0.97426  Biso   1.000  H
  H486     1.0000 0.27569  0.90441  0.07357  Biso   1.000  H
  H487     1.0000 0.27569  0.90437  0.07357  Biso   1.000  H
  H488     1.0000 0.44349  0.81871  0.67113  Biso   1.000  H
  H489     1.0000 0.41729  0.77280  0.72384  Biso   1.000  H
  N318     1.0000 0.47690  0.79870  0.79992  Biso   1.000  N
  H490     1.0000 0.44349  0.81871  0.67106  Biso   1.000  H
  H491     1.0000 0.41729  0.77280  0.72376  Biso   1.000  H
  H492     1.0000 0.44349  0.81867  0.67113  Biso   1.000  H
  H493     1.0000 0.44349  0.81867  0.67106  Biso   1.000  H
  N319     1.0000 0.45778  0.77832  0.97563  Biso   1.000  N
  N320     1.0000 0.45778  0.77828  0.97563  Biso   1.000  N
  H494     1.0000 0.38721  0.74850  0.97152  Biso   1.000  H
  H495     1.0000 0.39809  0.77821  0.07212  Biso   1.000  H
  H496     1.0000 0.39809  0.77817  0.07212  Biso   1.000  H
  C447     1.0000 0.26121  0.98190  0.88347  Biso   1.000  C
  C448     1.0000 0.31400  0.02740  0.77144  Biso   1.000  C
  C449     1.0000 0.31400  0.02740  0.77136  Biso   1.000  C
  C450     1.0000 0.28029  0.99791  0.05301  Biso   1.000  C
  C451     1.0000 0.28029  0.99787  0.05301  Biso   1.000  C
  C452     1.0000 0.52548  0.81270  0.76794  Biso   1.000  C
  C453     1.0000 0.47870  0.76212  0.88180  Biso   1.000  C
  C454     1.0000 0.52548  0.81270  0.76786  Biso   1.000  C
  C455     1.0000 0.47870  0.76208  0.88180  Biso   1.000  C
  C456     1.0000 0.49479  0.77959  0.05187  Biso   1.000  C
  H497     1.0000 0.22860  0.96749  0.86093  Biso   1.000  H
  C457     1.0000 0.25580  0.03889  0.90427  Biso   1.000  C
  N321     1.0000 0.29101  0.06084  0.83321  Biso   1.000  N
  O149     1.0000 0.34170  0.03669  0.70084  Biso   1.000  O
  O150     1.0000 0.34170  0.03669  0.70076  Biso   1.000  O
  O151     1.0000 0.34170  0.03673  0.70084  Biso   1.000  O
  O152     1.0000 0.34170  0.03673  0.70076  Biso   1.000  O
  O153     1.0000 0.28940  0.98910  0.14318  Biso   1.000  O
  O154     1.0000 0.28940  0.98906  0.14318  Biso   1.000  O
  N322     1.0000 0.27090  0.04192  0.01051  Biso   1.000  N
  N323     1.0000 0.27090  0.04188  0.01051  Biso   1.000  N
  N324     1.0000 0.55973  0.79071  0.83206  Biso   1.000  N
  O155     1.0000 0.53509  0.83812  0.69650  Biso   1.000  O
  O156     1.0000 0.53509  0.83808  0.69650  Biso   1.000  O
  C458     1.0000 0.53678  0.75581  0.90152  Biso   1.000  C
  H498     1.0000 0.46330  0.73039  0.86017  Biso   1.000  H
  C459     1.0000 0.53678  0.75578  0.90152  Biso   1.000  C
  N325     1.0000 0.54080  0.77041  0.00868  Biso   1.000  N
  N326     1.0000 0.54080  0.77037  0.00868  Biso   1.000  N
  O157     1.0000 0.48717  0.78888  0.14151  Biso   1.000  O
  O158     1.0000 0.48717  0.78885  0.14151  Biso   1.000  O
  H499     1.0000 0.22060  0.05061  0.89353  Biso   1.000  H
  C460     1.0000 0.29339  0.11381  0.81401  Biso   1.000  C
  C461     1.0000 0.29339  0.11377  0.81401  Biso   1.000  C
  C462     1.0000 0.26121  0.08551  0.07220  Biso   1.000  C
  C463     1.0000 0.61440  0.79202  0.81234  Biso   1.000  C
  C464     1.0000 0.61440  0.79202  0.81226  Biso   1.000  C
  C465     1.0000 0.61440  0.79198  0.81234  Biso   1.000  C
  C466     1.0000 0.61440  0.79198  0.81226  Biso   1.000  C
  H500     1.0000 0.54850  0.72162  0.88972  Biso   1.000  H
  H501     1.0000 0.54850  0.72159  0.88972  Biso   1.000  H
  C467     1.0000 0.58559  0.76171  0.07091  Biso   1.000  C
  C468     1.0000 0.58559  0.76167  0.07091  Biso   1.000  C
  H502     1.0000 0.25868  0.12691  0.81203  Biso   1.000  H
  H503     1.0000 0.30860  0.11918  0.74752  Biso   1.000  H
  N327     1.0000 0.32220  0.14128  0.88842  Biso   1.000  N
  H504     1.0000 0.25868  0.12691  0.81196  Biso   1.000  H
  H505     1.0000 0.30860  0.11922  0.74752  Biso   1.000  H
  N328     1.0000 0.32220  0.14132  0.88842  Biso   1.000  N
  H506     1.0000 0.25910  0.07521  0.14288  Biso   1.000  H
  H507     1.0000 0.22811  0.09921  0.05339  Biso   1.000  H
  N329     1.0000 0.29871  0.12411  0.06413  Biso   1.000  N
  H508     1.0000 0.22811  0.09918  0.05339  Biso   1.000  H
  N330     1.0000 0.29871  0.12407  0.06413  Biso   1.000  N
  H509     1.0000 0.62030  0.80572  0.74494  Biso   1.000  H
  H510     1.0000 0.62758  0.75805  0.81287  Biso   1.000  H
  N331     1.0000 0.64259  0.82181  0.88698  Biso   1.000  N
  H511     1.0000 0.62030  0.80572  0.74486  Biso   1.000  H
  H512     1.0000 0.62030  0.80568  0.74494  Biso   1.000  H
  H513     1.0000 0.62758  0.75809  0.81287  Biso   1.000  H
  N332     1.0000 0.64259  0.82177  0.88698  Biso   1.000  N
  H514     1.0000 0.62030  0.80568  0.74486  Biso   1.000  H
  N333     1.0000 0.62428  0.79922  0.06222  Biso   1.000  N
  H515     1.0000 0.60030  0.72972  0.05202  Biso   1.000  H
  H516     1.0000 0.57509  0.75940  0.14158  Biso   1.000  H
  H517     1.0000 0.60030  0.72969  0.05202  Biso   1.000  H
  C469     1.0000 0.29948  0.16039  0.98210  Biso   1.000  C
  C470     1.0000 0.36369  0.16961  0.85948  Biso   1.000  C
  C471     1.0000 0.36369  0.16957  0.85948  Biso   1.000  C
  C472     1.0000 0.33040  0.13639  0.14212  Biso   1.000  C
  C473     1.0000 0.33040  0.13643  0.14212  Biso   1.000  C
  C474     1.0000 0.66960  0.86361  0.85788  Biso   1.000  C
  C475     1.0000 0.66179  0.80139  0.97989  Biso   1.000  C
  C476     1.0000 0.66960  0.86357  0.85788  Biso   1.000  C
  C477     1.0000 0.63627  0.83039  0.14052  Biso   1.000  C
  H518     1.0000 0.26569  0.17528  0.97037  Biso   1.000  H
  C478     1.0000 0.33821  0.19861  0.02011  Biso   1.000  C
  C479     1.0000 0.33821  0.19857  0.02011  Biso   1.000  C
  N334     1.0000 0.37568  0.20078  0.93778  Biso   1.000  N
  O159     1.0000 0.38641  0.16651  0.78020  Biso   1.000  O
  N335     1.0000 0.37568  0.20074  0.93778  Biso   1.000  N
  O160     1.0000 0.38641  0.16647  0.78020  Biso   1.000  O
  N336     1.0000 0.35741  0.17819  0.11302  Biso   1.000  N
  O161     1.0000 0.33381  0.11448  0.22338  Biso   1.000  O
  N337     1.0000 0.35741  0.17823  0.11302  Biso   1.000  N
  N338     1.0000 0.70129  0.87589  0.93587  Biso   1.000  N
  O162     1.0000 0.66619  0.88552  0.77662  Biso   1.000  O
  O163     1.0000 0.66619  0.88548  0.77662  Biso   1.000  O
  H519     1.0000 0.67788  0.76891  0.96870  Biso   1.000  H
  H520     1.0000 0.67788  0.76888  0.96870  Biso   1.000  H
  C480     1.0000 0.70048  0.83961  0.01790  Biso   1.000  C
  C481     1.0000 0.70048  0.83957  0.01790  Biso   1.000  C
  N339     1.0000 0.67780  0.85872  0.11158  Biso   1.000  N
  N340     1.0000 0.67780  0.85868  0.11158  Biso   1.000  N
  O164     1.0000 0.61359  0.83345  0.21980  Biso   1.000  O
  O165     1.0000 0.61359  0.83349  0.21980  Biso   1.000  O
  H521     1.0000 0.32208  0.23109  0.03130  Biso   1.000  H
  C482     1.0000 0.41437  0.23829  0.92909  Biso   1.000  C
  C483     1.0000 0.38560  0.20798  0.18766  Biso   1.000  C
  C484     1.0000 0.38560  0.20802  0.18766  Biso   1.000  C
  C485     1.0000 0.73879  0.91449  0.92780  Biso   1.000  C
  H522     1.0000 0.73427  0.82472  0.02963  Biso   1.000  H
  H523     1.0000 0.73427  0.82468  0.02963  Biso   1.000  H
  C486     1.0000 0.70657  0.88619  0.18599  Biso   1.000  C
  H524     1.0000 0.39970  0.27028  0.94798  Biso   1.000  H
  H525     1.0000 0.42491  0.24060  0.85842  Biso   1.000  H
  N341     1.0000 0.45920  0.22959  0.99132  Biso   1.000  N
  N342     1.0000 0.44023  0.20929  0.16794  Biso   1.000  N
  H526     1.0000 0.37970  0.19428  0.25506  Biso   1.000  H
  H527     1.0000 0.37239  0.24191  0.18713  Biso   1.000  H
  N343     1.0000 0.44023  0.20929  0.16786  Biso   1.000  N
  N344     1.0000 0.44023  0.20925  0.16794  Biso   1.000  N
  N345     1.0000 0.44023  0.20925  0.16786  Biso   1.000  N
  H528     1.0000 0.74090  0.92479  0.85712  Biso   1.000  H
  H529     1.0000 0.77189  0.90079  0.94661  Biso   1.000  H
  N346     1.0000 0.72910  0.95808  0.98949  Biso   1.000  N
  H530     1.0000 0.74128  0.87309  0.18797  Biso   1.000  H
  H531     1.0000 0.69140  0.88082  0.25248  Biso   1.000  H
  N347     1.0000 0.70899  0.93916  0.16679  Biso   1.000  N
  H532     1.0000 0.69140  0.88078  0.25248  Biso   1.000  H
  C487     1.0000 0.50517  0.22041  0.94813  Biso   1.000  C
  C488     1.0000 0.50517  0.22041  0.94806  Biso   1.000  C
  C489     1.0000 0.46318  0.24419  0.09848  Biso   1.000  C
  C490     1.0000 0.47448  0.18730  0.23206  Biso   1.000  C
  C491     1.0000 0.47448  0.18726  0.23206  Biso   1.000  C
  C492     1.0000 0.74420  0.96107  0.09573  Biso   1.000  C
  C493     1.0000 0.74420  0.96107  0.09566  Biso   1.000  C
  C494     1.0000 0.71968  0.00209  0.94699  Biso   1.000  C
  C495     1.0000 0.71968  0.00213  0.94699  Biso   1.000  C
  C496     1.0000 0.68600  0.97260  0.22856  Biso   1.000  C
  C497     1.0000 0.68600  0.97257  0.22856  Biso   1.000  C
  O166     1.0000 0.51280  0.21112  0.85849  Biso   1.000  O
  O167     1.0000 0.51280  0.21115  0.85849  Biso   1.000  O
  N348     1.0000 0.54218  0.22168  0.02437  Biso   1.000  N
  H533     1.0000 0.45150  0.27838  0.11028  Biso   1.000  H
  C498     1.0000 0.52130  0.23788  0.11820  Biso   1.000  C
  H534     1.0000 0.45150  0.27841  0.11028  Biso   1.000  H
  N349     1.0000 0.52310  0.20130  0.20008  Biso   1.000  N
  O168     1.0000 0.46491  0.16188  0.30350  Biso   1.000  O
  N350     1.0000 0.52310  0.20126  0.20008  Biso   1.000  N
  H535     1.0000 0.77940  0.94939  0.10647  Biso   1.000  H
  C499     1.0000 0.73879  0.01810  0.11653  Biso   1.000  C
  O169     1.0000 0.71060  0.01090  0.85682  Biso   1.000  O
  N351     1.0000 0.72289  0.03912  0.02292  Biso   1.000  N
  N352     1.0000 0.72289  0.03908  0.02292  Biso   1.000  N
  N353     1.0000 0.70067  0.02008  0.19703  Biso   1.000  N
  N354     1.0000 0.70067  0.02008  0.19695  Biso   1.000  N
  O170     1.0000 0.65830  0.96331  0.29916  Biso   1.000  O
  O171     1.0000 0.65830  0.96327  0.29916  Biso   1.000  O
  C500     1.0000 0.59720  0.22149  0.00122  Biso   1.000  C
  H536     1.0000 0.53670  0.26961  0.13983  Biso   1.000  H
  H537     1.0000 0.53670  0.26961  0.13976  Biso   1.000  H
  H538     1.0000 0.53670  0.26957  0.13983  Biso   1.000  H
  H539     1.0000 0.53670  0.26957  0.13976  Biso   1.000  H
  C501     1.0000 0.56720  0.19488  0.26367  Biso   1.000  C
  C502     1.0000 0.56720  0.19492  0.26367  Biso   1.000  C
  H540     1.0000 0.77140  0.03251  0.13907  Biso   1.000  H
  H541     1.0000 0.77140  0.03247  0.13907  Biso   1.000  H
  C503     1.0000 0.72420  0.09149  0.99977  Biso   1.000  C
  C504     1.0000 0.69439  0.06401  0.26062  Biso   1.000  C
  C505     1.0000 0.69439  0.06398  0.26062  Biso   1.000  C
  N355     1.0000 0.62217  0.17931  0.04242  Biso   1.000  N
  N356     1.0000 0.62217  0.17928  0.04242  Biso   1.000  N
  H542     1.0000 0.60187  0.22179  0.92788  Biso   1.000  H
  H543     1.0000 0.61279  0.25150  0.02848  Biso   1.000  H
  H544     1.0000 0.61279  0.25147  0.02848  Biso   1.000  H
  N357     1.0000 0.60509  0.16188  0.21858  Biso   1.000  N
  H545     1.0000 0.55647  0.18129  0.32887  Biso   1.000  H
  H546     1.0000 0.58268  0.22720  0.27616  Biso   1.000  H
  H547     1.0000 0.72427  0.09559  0.92643  Biso   1.000  H
  H548     1.0000 0.75588  0.10541  0.02567  Biso   1.000  H
  N358     1.0000 0.68190  0.11948  0.04151  Biso   1.000  N
  H549     1.0000 0.75588  0.10537  0.02567  Biso   1.000  H
  N359     1.0000 0.68190  0.11952  0.04151  Biso   1.000  N
  H550     1.0000 0.68010  0.05371  0.32551  Biso   1.000  H
  H551     1.0000 0.72780  0.07838  0.27357  Biso   1.000  H
  N360     1.0000 0.66248  0.10100  0.21820  Biso   1.000  N
  H552     1.0000 0.68010  0.05367  0.32551  Biso   1.000  H
  H553     1.0000 0.72780  0.07842  0.27357  Biso   1.000  H
  N361     1.0000 0.66248  0.10097  0.21820  Biso   1.000  N
  C506     1.0000 0.64968  0.14650  0.98111  Biso   1.000  C
  C507     1.0000 0.64148  0.17849  0.14577  Biso   1.000  C
  C508     1.0000 0.62068  0.11870  0.26794  Biso   1.000  C
  C509     1.0000 0.62068  0.11870  0.26786  Biso   1.000  C
  C510     1.0000 0.62068  0.11873  0.26794  Biso   1.000  C
  C511     1.0000 0.62068  0.11873  0.26786  Biso   1.000  C
  C512     1.0000 0.68217  0.13699  0.14638  Biso   1.000  C
  C513     1.0000 0.68217  0.13702  0.14638  Biso   1.000  C
  O172     1.0000 0.64478  0.14240  0.89117  Biso   1.000  O
  H554     1.0000 0.65627  0.21078  0.16512  Biso   1.000  H
  H555     1.0000 0.65627  0.21082  0.16512  Biso   1.000  H
  O173     1.0000 0.59777  0.09869  0.33732  Biso   1.000  O
  H556     1.0000 0.71600  0.14960  0.16657  Biso   1.000  H
  H557     1.0000 0.71600  0.14957  0.16657  Biso   1.000  H
  C514     1.0000 0.31779  0.86298  0.85362  Biso   1.000  C
  C515     1.0000 0.35848  0.82151  0.85423  Biso   1.000  C
  C516     1.0000 0.35848  0.82147  0.85423  Biso   1.000  C
  N362     1.0000 0.33748  0.89900  0.78180  Biso   1.000  N
  N363     1.0000 0.31810  0.88052  0.95849  Biso   1.000  N
  H558     1.0000 0.28400  0.85040  0.83343  Biso   1.000  H
  H559     1.0000 0.28400  0.85040  0.83336  Biso   1.000  H
  N364     1.0000 0.31810  0.88048  0.95849  Biso   1.000  N
  N365     1.0000 0.39487  0.83812  0.78142  Biso   1.000  N
  N366     1.0000 0.39487  0.83808  0.78142  Biso   1.000  N
  H560     1.0000 0.34369  0.78922  0.83488  Biso   1.000  H
  C517     1.0000 0.31779  0.86301  0.85362  Biso   1.000  C
  N367     1.0000 0.37779  0.82069  0.95758  Biso   1.000  N
  H561     1.0000 0.34369  0.78918  0.83488  Biso   1.000  H
  C518     1.0000 0.37928  0.88130  0.73206  Biso   1.000  C
  C519     1.0000 0.37928  0.88127  0.73206  Biso   1.000  C
  C520     1.0000 0.30561  0.93599  0.73938  Biso   1.000  C
  C521     1.0000 0.35028  0.85350  0.01889  Biso   1.000  C
  C522     1.0000 0.27580  0.90851  0.00023  Biso   1.000  C
  C523     1.0000 0.27580  0.90848  0.00023  Biso   1.000  C
  C524     1.0000 0.43280  0.80508  0.73633  Biso   1.000  C
  C525     1.0000 0.43280  0.80512  0.73633  Biso   1.000  C
  C526     1.0000 0.40280  0.77851  0.99878  Biso   1.000  C
  C527     1.0000 0.40280  0.77847  0.99878  Biso   1.000  C
  O174     1.0000 0.40219  0.90131  0.66268  Biso   1.000  O
  O175     1.0000 0.40219  0.90127  0.66268  Biso   1.000  O
  H562     1.0000 0.31990  0.94629  0.67449  Biso   1.000  H
  H563     1.0000 0.27220  0.92162  0.72643  Biso   1.000  H
  N368     1.0000 0.29929  0.97992  0.80297  Biso   1.000  N
  H564     1.0000 0.27220  0.92158  0.72643  Biso   1.000  H
  N369     1.0000 0.29929  0.97988  0.80297  Biso   1.000  N
  O176     1.0000 0.35518  0.85760  0.10883  Biso   1.000  O
  O177     1.0000 0.35518  0.85760  0.10876  Biso   1.000  O
  N370     1.0000 0.27711  0.96088  0.97708  Biso   1.000  N
  H565     1.0000 0.24408  0.89459  0.97433  Biso   1.000  H
  H566     1.0000 0.24408  0.89459  0.97426  Biso   1.000  H
  H567     1.0000 0.27569  0.90441  0.07357  Biso   1.000  H
  H568     1.0000 0.27569  0.90437  0.07357  Biso   1.000  H
  N371     1.0000 0.47690  0.79870  0.79992  Biso   1.000  N
  H569     1.0000 0.41729  0.77280  0.72384  Biso   1.000  H
  H570     1.0000 0.41729  0.77280  0.72376  Biso   1.000  H
  H571     1.0000 0.44349  0.81871  0.67113  Biso   1.000  H
  H572     1.0000 0.44349  0.81871  0.67106  Biso   1.000  H
  H573     1.0000 0.44349  0.81867  0.67113  Biso   1.000  H
  H574     1.0000 0.44349  0.81867  0.67106  Biso   1.000  H
  N372     1.0000 0.45778  0.77832  0.97563  Biso   1.000  N
  N373     1.0000 0.45778  0.77828  0.97563  Biso   1.000  N
  H575     1.0000 0.38721  0.74850  0.97152  Biso   1.000  H
  H576     1.0000 0.39809  0.77821  0.07212  Biso   1.000  H
  H577     1.0000 0.39809  0.77817  0.07212  Biso   1.000  H
  C528     1.0000 0.26121  0.98190  0.88347  Biso   1.000  C
  C529     1.0000 0.31400  0.02740  0.77144  Biso   1.000  C
  C530     1.0000 0.31400  0.02740  0.77136  Biso   1.000  C
  C531     1.0000 0.28029  0.99791  0.05301  Biso   1.000  C
  C532     1.0000 0.28029  0.99787  0.05301  Biso   1.000  C
  C533     1.0000 0.47870  0.76212  0.88180  Biso   1.000  C
  C534     1.0000 0.52548  0.81270  0.76794  Biso   1.000  C
  C535     1.0000 0.52548  0.81270  0.76786  Biso   1.000  C
  C536     1.0000 0.47870  0.76208  0.88180  Biso   1.000  C
  C537     1.0000 0.49479  0.77959  0.05187  Biso   1.000  C
  H578     1.0000 0.22860  0.96749  0.86093  Biso   1.000  H
  C538     1.0000 0.25580  0.03889  0.90427  Biso   1.000  C
  N374     1.0000 0.29101  0.06084  0.83321  Biso   1.000  N
  O178     1.0000 0.34170  0.03669  0.70084  Biso   1.000  O
  O179     1.0000 0.34170  0.03669  0.70076  Biso   1.000  O
  O180     1.0000 0.34170  0.03673  0.70084  Biso   1.000  O
  O181     1.0000 0.34170  0.03673  0.70076  Biso   1.000  O
  O182     1.0000 0.28940  0.98910  0.14318  Biso   1.000  O
  O183     1.0000 0.28940  0.98906  0.14318  Biso   1.000  O
  N375     1.0000 0.27090  0.04192  0.01051  Biso   1.000  N
  N376     1.0000 0.27090  0.04188  0.01051  Biso   1.000  N
  C539     1.0000 0.53678  0.75581  0.90152  Biso   1.000  C
  H579     1.0000 0.46330  0.73039  0.86017  Biso   1.000  H
  C540     1.0000 0.53678  0.75578  0.90152  Biso   1.000  C
  N377     1.0000 0.55973  0.79071  0.83206  Biso   1.000  N
  O184     1.0000 0.53509  0.83812  0.69650  Biso   1.000  O
  O185     1.0000 0.53509  0.83808  0.69650  Biso   1.000  O
  N378     1.0000 0.54080  0.77041  0.00868  Biso   1.000  N
  N379     1.0000 0.54080  0.77037  0.00868  Biso   1.000  N
  O186     1.0000 0.48717  0.78888  0.14151  Biso   1.000  O
  O187     1.0000 0.48717  0.78885  0.14151  Biso   1.000  O
  H580     1.0000 0.22060  0.05061  0.89353  Biso   1.000  H
  C541     1.0000 0.29339  0.11381  0.81401  Biso   1.000  C
  C542     1.0000 0.29339  0.11377  0.81401  Biso   1.000  C
  C543     1.0000 0.26121  0.08551  0.07220  Biso   1.000  C
  H581     1.0000 0.54850  0.72162  0.88972  Biso   1.000  H
  H582     1.0000 0.54850  0.72159  0.88972  Biso   1.000  H
  C544     1.0000 0.61440  0.79202  0.81234  Biso   1.000  C
  C545     1.0000 0.61440  0.79202  0.81226  Biso   1.000  C
  C546     1.0000 0.61440  0.79198  0.81234  Biso   1.000  C
  C547     1.0000 0.61440  0.79198  0.81226  Biso   1.000  C
  C548     1.0000 0.58559  0.76171  0.07091  Biso   1.000  C
  C549     1.0000 0.58559  0.76167  0.07091  Biso   1.000  C
  H583     1.0000 0.25868  0.12691  0.81203  Biso   1.000  H
  H584     1.0000 0.30860  0.11918  0.74752  Biso   1.000  H
  N380     1.0000 0.32220  0.14128  0.88842  Biso   1.000  N
  H585     1.0000 0.25868  0.12691  0.81196  Biso   1.000  H
  H586     1.0000 0.30860  0.11922  0.74752  Biso   1.000  H
  N381     1.0000 0.32220  0.14132  0.88842  Biso   1.000  N
  H587     1.0000 0.25910  0.07521  0.14288  Biso   1.000  H
  H588     1.0000 0.22811  0.09921  0.05339  Biso   1.000  H
  N382     1.0000 0.29871  0.12411  0.06413  Biso   1.000  N
  H589     1.0000 0.22811  0.09918  0.05339  Biso   1.000  H
  N383     1.0000 0.29871  0.12407  0.06413  Biso   1.000  N
  H590     1.0000 0.62758  0.75805  0.81287  Biso   1.000  H
  N384     1.0000 0.64259  0.82181  0.88698  Biso   1.000  N
  H591     1.0000 0.62758  0.75809  0.81287  Biso   1.000  H
  N385     1.0000 0.64259  0.82177  0.88698  Biso   1.000  N
  H592     1.0000 0.62030  0.80572  0.74494  Biso   1.000  H
  H593     1.0000 0.62030  0.80572  0.74486  Biso   1.000  H
  H594     1.0000 0.62030  0.80568  0.74494  Biso   1.000  H
  H595     1.0000 0.62030  0.80568  0.74486  Biso   1.000  H
  N386     1.0000 0.62428  0.79922  0.06222  Biso   1.000  N
  H596     1.0000 0.60030  0.72972  0.05202  Biso   1.000  H
  H597     1.0000 0.57509  0.75940  0.14158  Biso   1.000  H
  H598     1.0000 0.60030  0.72969  0.05202  Biso   1.000  H
  C550     1.0000 0.29948  0.16039  0.98210  Biso   1.000  C
  C551     1.0000 0.36369  0.16961  0.85948  Biso   1.000  C
  C552     1.0000 0.36369  0.16957  0.85948  Biso   1.000  C
  C553     1.0000 0.33040  0.13639  0.14212  Biso   1.000  C
  C554     1.0000 0.33040  0.13643  0.14212  Biso   1.000  C
  C555     1.0000 0.66960  0.86361  0.85788  Biso   1.000  C
  C556     1.0000 0.66179  0.80139  0.97989  Biso   1.000  C
  C557     1.0000 0.66960  0.86357  0.85788  Biso   1.000  C
  C558     1.0000 0.63627  0.83039  0.14052  Biso   1.000  C
  H599     1.0000 0.26569  0.17528  0.97037  Biso   1.000  H
  C559     1.0000 0.33821  0.19861  0.02011  Biso   1.000  C
  C560     1.0000 0.33821  0.19857  0.02011  Biso   1.000  C
  N387     1.0000 0.37568  0.20078  0.93778  Biso   1.000  N
  O188     1.0000 0.38641  0.16651  0.78020  Biso   1.000  O
  N388     1.0000 0.37568  0.20074  0.93778  Biso   1.000  N
  O189     1.0000 0.38641  0.16647  0.78020  Biso   1.000  O
  N389     1.0000 0.35741  0.17819  0.11302  Biso   1.000  N
  O190     1.0000 0.33381  0.11448  0.22338  Biso   1.000  O
  N390     1.0000 0.35741  0.17823  0.11302  Biso   1.000  N
  N391     1.0000 0.70129  0.87589  0.93587  Biso   1.000  N
  O191     1.0000 0.66619  0.88552  0.77662  Biso   1.000  O
  O192     1.0000 0.66619  0.88548  0.77662  Biso   1.000  O
  H600     1.0000 0.67788  0.76891  0.96870  Biso   1.000  H
  H601     1.0000 0.67788  0.76888  0.96870  Biso   1.000  H
  C561     1.0000 0.70048  0.83961  0.01790  Biso   1.000  C
  C562     1.0000 0.70048  0.83957  0.01790  Biso   1.000  C
  N392     1.0000 0.67780  0.85872  0.11158  Biso   1.000  N
  O193     1.0000 0.61359  0.83345  0.21980  Biso   1.000  O
  N393     1.0000 0.67780  0.85868  0.11158  Biso   1.000  N
  O194     1.0000 0.61359  0.83349  0.21980  Biso   1.000  O
  H602     1.0000 0.32208  0.23109  0.03130  Biso   1.000  H
  C563     1.0000 0.41437  0.23829  0.92909  Biso   1.000  C
  C564     1.0000 0.38560  0.20798  0.18766  Biso   1.000  C
  C565     1.0000 0.38560  0.20802  0.18766  Biso   1.000  C
  C566     1.0000 0.73879  0.91449  0.92780  Biso   1.000  C
  H603     1.0000 0.73427  0.82472  0.02963  Biso   1.000  H
  H604     1.0000 0.73427  0.82468  0.02963  Biso   1.000  H
  C567     1.0000 0.70657  0.88619  0.18599  Biso   1.000  C
  H605     1.0000 0.39970  0.27028  0.94798  Biso   1.000  H
  H606     1.0000 0.42491  0.24060  0.85842  Biso   1.000  H
  N394     1.0000 0.45920  0.22959  0.99132  Biso   1.000  N
  N395     1.0000 0.44023  0.20929  0.16794  Biso   1.000  N
  H607     1.0000 0.37970  0.19428  0.25506  Biso   1.000  H
  H608     1.0000 0.37239  0.24191  0.18713  Biso   1.000  H
  N396     1.0000 0.44023  0.20929  0.16786  Biso   1.000  N
  N397     1.0000 0.44023  0.20925  0.16794  Biso   1.000  N
  N398     1.0000 0.44023  0.20925  0.16786  Biso   1.000  N
  H609     1.0000 0.74090  0.92479  0.85712  Biso   1.000  H
  H610     1.0000 0.77189  0.90079  0.94661  Biso   1.000  H
  N399     1.0000 0.72910  0.95808  0.98949  Biso   1.000  N
  H611     1.0000 0.74128  0.87309  0.18797  Biso   1.000  H
  H612     1.0000 0.69140  0.88082  0.25248  Biso   1.000  H
  N400     1.0000 0.70899  0.93916  0.16679  Biso   1.000  N
  H613     1.0000 0.69140  0.88078  0.25248  Biso   1.000  H
  C568     1.0000 0.50517  0.22041  0.94813  Biso   1.000  C
  C569     1.0000 0.50517  0.22041  0.94806  Biso   1.000  C
  C570     1.0000 0.46318  0.24419  0.09848  Biso   1.000  C
  C571     1.0000 0.47448  0.18730  0.23206  Biso   1.000  C
  C572     1.0000 0.47448  0.18726  0.23206  Biso   1.000  C
  C573     1.0000 0.74420  0.96107  0.09573  Biso   1.000  C
  C574     1.0000 0.74420  0.96107  0.09566  Biso   1.000  C
  C575     1.0000 0.71968  0.00209  0.94699  Biso   1.000  C
  C576     1.0000 0.71968  0.00213  0.94699  Biso   1.000  C
  C577     1.0000 0.68600  0.97260  0.22856  Biso   1.000  C
  C578     1.0000 0.68600  0.97257  0.22856  Biso   1.000  C
  O195     1.0000 0.51280  0.21112  0.85849  Biso   1.000  O
  O196     1.0000 0.51280  0.21115  0.85849  Biso   1.000  O
  N401     1.0000 0.54218  0.22168  0.02437  Biso   1.000  N
  H614     1.0000 0.45150  0.27838  0.11028  Biso   1.000  H
  C579     1.0000 0.52130  0.23788  0.11820  Biso   1.000  C
  H615     1.0000 0.45150  0.27841  0.11028  Biso   1.000  H
  N402     1.0000 0.52310  0.20130  0.20008  Biso   1.000  N
  O197     1.0000 0.46491  0.16188  0.30350  Biso   1.000  O
  N403     1.0000 0.52310  0.20126  0.20008  Biso   1.000  N
  H616     1.0000 0.77940  0.94939  0.10647  Biso   1.000  H
  C580     1.0000 0.73879  0.01810  0.11653  Biso   1.000  C
  O198     1.0000 0.71060  0.01090  0.85682  Biso   1.000  O
  N404     1.0000 0.72289  0.03912  0.02292  Biso   1.000  N
  N405     1.0000 0.72289  0.03908  0.02292  Biso   1.000  N
  O199     1.0000 0.65830  0.96331  0.29916  Biso   1.000  O
  O200     1.0000 0.65830  0.96327  0.29916  Biso   1.000  O
  N406     1.0000 0.70067  0.02008  0.19703  Biso   1.000  N
  N407     1.0000 0.70067  0.02008  0.19695  Biso   1.000  N
  C581     1.0000 0.59720  0.22149  0.00122  Biso   1.000  C
  H617     1.0000 0.53670  0.26961  0.13983  Biso   1.000  H
  H618     1.0000 0.53670  0.26961  0.13976  Biso   1.000  H
  H619     1.0000 0.53670  0.26957  0.13983  Biso   1.000  H
  H620     1.0000 0.53670  0.26957  0.13976  Biso   1.000  H
  C582     1.0000 0.56720  0.19488  0.26367  Biso   1.000  C
  C583     1.0000 0.56720  0.19492  0.26367  Biso   1.000  C
  H621     1.0000 0.77140  0.03251  0.13907  Biso   1.000  H
  H622     1.0000 0.77140  0.03247  0.13907  Biso   1.000  H
  C584     1.0000 0.72420  0.09149  0.99977  Biso   1.000  C
  C585     1.0000 0.69439  0.06401  0.26062  Biso   1.000  C
  C586     1.0000 0.69439  0.06398  0.26062  Biso   1.000  C
  N408     1.0000 0.62217  0.17931  0.04242  Biso   1.000  N
  N409     1.0000 0.62217  0.17928  0.04242  Biso   1.000  N
  H623     1.0000 0.60187  0.22179  0.92788  Biso   1.000  H
  H624     1.0000 0.61279  0.25150  0.02848  Biso   1.000  H
  H625     1.0000 0.61279  0.25147  0.02848  Biso   1.000  H
  N410     1.0000 0.60509  0.16188  0.21858  Biso   1.000  N
  H626     1.0000 0.55647  0.18129  0.32887  Biso   1.000  H
  H627     1.0000 0.58268  0.22720  0.27616  Biso   1.000  H
  H628     1.0000 0.72427  0.09559  0.92643  Biso   1.000  H
  H629     1.0000 0.75588  0.10541  0.02567  Biso   1.000  H
  N411     1.0000 0.68190  0.11948  0.04151  Biso   1.000  N
  H630     1.0000 0.75588  0.10537  0.02567  Biso   1.000  H
  N412     1.0000 0.68190  0.11952  0.04151  Biso   1.000  N
  H631     1.0000 0.68010  0.05371  0.32551  Biso   1.000  H
  H632     1.0000 0.72780  0.07838  0.27357  Biso   1.000  H
  N413     1.0000 0.66248  0.10100  0.21820  Biso   1.000  N
  H633     1.0000 0.68010  0.05367  0.32551  Biso   1.000  H
  H634     1.0000 0.72780  0.07842  0.27357  Biso   1.000  H
  N414     1.0000 0.66248  0.10097  0.21820  Biso   1.000  N
  C587     1.0000 0.64968  0.14650  0.98111  Biso   1.000  C
  C588     1.0000 0.64148  0.17849  0.14577  Biso   1.000  C
  C589     1.0000 0.62068  0.11870  0.26794  Biso   1.000  C
  C590     1.0000 0.62068  0.11870  0.26786  Biso   1.000  C
  C591     1.0000 0.62068  0.11873  0.26794  Biso   1.000  C
  C592     1.0000 0.62068  0.11873  0.26786  Biso   1.000  C
  C593     1.0000 0.68217  0.13699  0.14638  Biso   1.000  C
  C594     1.0000 0.68217  0.13702  0.14638  Biso   1.000  C
  O201     1.0000 0.64478  0.14240  0.89117  Biso   1.000  O
  H635     1.0000 0.65627  0.21078  0.16512  Biso   1.000  H
  H636     1.0000 0.65627  0.21082  0.16512  Biso   1.000  H
  O202     1.0000 0.59777  0.09869  0.33732  Biso   1.000  O
  H637     1.0000 0.71600  0.14960  0.16657  Biso   1.000  H
  H638     1.0000 0.71600  0.14957  0.16657  Biso   1.000  H
  C595     1.0000 0.31779  0.86298  0.85362  Biso   1.000  C
  C596     1.0000 0.35848  0.82151  0.85423  Biso   1.000  C
  C597     1.0000 0.35848  0.82147  0.85423  Biso   1.000  C
  N415     1.0000 0.33748  0.89900  0.78180  Biso   1.000  N
  H639     1.0000 0.28400  0.85040  0.83343  Biso   1.000  H
  N416     1.0000 0.31810  0.88052  0.95849  Biso   1.000  N
  H640     1.0000 0.28400  0.85040  0.83336  Biso   1.000  H
  N417     1.0000 0.31810  0.88048  0.95849  Biso   1.000  N
  N418     1.0000 0.39487  0.83812  0.78142  Biso   1.000  N
  N419     1.0000 0.39487  0.83808  0.78142  Biso   1.000  N
  N420     1.0000 0.37779  0.82069  0.95758  Biso   1.000  N
  H641     1.0000 0.34369  0.78922  0.83488  Biso   1.000  H
  C598     1.0000 0.31779  0.86301  0.85362  Biso   1.000  C
  H642     1.0000 0.34369  0.78918  0.83488  Biso   1.000  H
  C599     1.0000 0.37928  0.88130  0.73206  Biso   1.000  C
  C600     1.0000 0.37928  0.88127  0.73206  Biso   1.000  C
  C601     1.0000 0.30561  0.93599  0.73938  Biso   1.000  C
  C602     1.0000 0.35028  0.85350  0.01889  Biso   1.000  C
  C603     1.0000 0.27580  0.90851  0.00023  Biso   1.000  C
  C604     1.0000 0.27580  0.90848  0.00023  Biso   1.000  C
  C605     1.0000 0.43280  0.80512  0.73633  Biso   1.000  C
  C606     1.0000 0.43280  0.80508  0.73633  Biso   1.000  C
  C607     1.0000 0.40280  0.77851  0.99878  Biso   1.000  C
  C608     1.0000 0.40280  0.77847  0.99878  Biso   1.000  C
  O203     1.0000 0.40219  0.90131  0.66268  Biso   1.000  O
  O204     1.0000 0.40219  0.90127  0.66268  Biso   1.000  O
  H643     1.0000 0.31990  0.94629  0.67449  Biso   1.000  H
  H644     1.0000 0.27220  0.92162  0.72643  Biso   1.000  H
  N421     1.0000 0.29929  0.97992  0.80297  Biso   1.000  N
  H645     1.0000 0.27220  0.92158  0.72643  Biso   1.000  H
  N422     1.0000 0.29929  0.97988  0.80297  Biso   1.000  N
  O205     1.0000 0.35518  0.85760  0.10883  Biso   1.000  O
  O206     1.0000 0.35518  0.85760  0.10876  Biso   1.000  O
  N423     1.0000 0.27711  0.96088  0.97708  Biso   1.000  N
  H646     1.0000 0.24408  0.89459  0.97433  Biso   1.000  H
  H647     1.0000 0.24408  0.89459  0.97426  Biso   1.000  H
  H648     1.0000 0.27569  0.90441  0.07357  Biso   1.000  H
  H649     1.0000 0.27569  0.90437  0.07357  Biso   1.000  H
  N424     1.0000 0.47690  0.79870  0.79992  Biso   1.000  N
  H650     1.0000 0.44349  0.81871  0.67113  Biso   1.000  H
  H651     1.0000 0.41729  0.77280  0.72384  Biso   1.000  H
  H652     1.0000 0.44349  0.81871  0.67106  Biso   1.000  H
  H653     1.0000 0.41729  0.77280  0.72376  Biso   1.000  H
  H654     1.0000 0.44349  0.81867  0.67113  Biso   1.000  H
  H655     1.0000 0.44349  0.81867  0.67106  Biso   1.000  H
  N425     1.0000 0.45778  0.77832  0.97563  Biso   1.000  N
  N426     1.0000 0.45778  0.77828  0.97563  Biso   1.000  N
  H656     1.0000 0.38721  0.74850  0.97152  Biso   1.000  H
  H657     1.0000 0.39809  0.77821  0.07212  Biso   1.000  H
  H658     1.0000 0.39809  0.77817  0.07212  Biso   1.000  H
  C609     1.0000 0.26121  0.98190  0.88347  Biso   1.000  C
  C610     1.0000 0.31400  0.02740  0.77144  Biso   1.000  C
  C611     1.0000 0.31400  0.02740  0.77136  Biso   1.000  C
  C612     1.0000 0.28029  0.99791  0.05301  Biso   1.000  C
  C613     1.0000 0.28029  0.99787  0.05301  Biso   1.000  C
  C614     1.0000 0.52548  0.81270  0.76794  Biso   1.000  C
  C615     1.0000 0.47870  0.76212  0.88180  Biso   1.000  C
  C616     1.0000 0.52548  0.81270  0.76786  Biso   1.000  C
  C617     1.0000 0.47870  0.76208  0.88180  Biso   1.000  C
  C618     1.0000 0.49479  0.77959  0.05187  Biso   1.000  C
  H659     1.0000 0.22860  0.96749  0.86093  Biso   1.000  H
  C619     1.0000 0.25580  0.03889  0.90427  Biso   1.000  C
  N427     1.0000 0.29101  0.06084  0.83321  Biso   1.000  N
  O207     1.0000 0.34170  0.03669  0.70084  Biso   1.000  O
  O208     1.0000 0.34170  0.03669  0.70076  Biso   1.000  O
  O209     1.0000 0.34170  0.03673  0.70084  Biso   1.000  O
  O210     1.0000 0.34170  0.03673  0.70076  Biso   1.000  O
  O211     1.0000 0.28940  0.98910  0.14318  Biso   1.000  O
  O212     1.0000 0.28940  0.98906  0.14318  Biso   1.000  O
  N428     1.0000 0.27090  0.04192  0.01051  Biso   1.000  N
  N429     1.0000 0.27090  0.04188  0.01051  Biso   1.000  N
  N430     1.0000 0.55973  0.79071  0.83206  Biso   1.000  N
  O213     1.0000 0.53509  0.83812  0.69650  Biso   1.000  O
  O214     1.0000 0.53509  0.83808  0.69650  Biso   1.000  O
  H660     1.0000 0.46330  0.73039  0.86017  Biso   1.000  H
  C620     1.0000 0.53678  0.75581  0.90152  Biso   1.000  C
  C621     1.0000 0.53678  0.75578  0.90152  Biso   1.000  C
  N431     1.0000 0.54080  0.77041  0.00868  Biso   1.000  N
  N432     1.0000 0.54080  0.77037  0.00868  Biso   1.000  N
  O215     1.0000 0.48717  0.78888  0.14151  Biso   1.000  O
  O216     1.0000 0.48717  0.78885  0.14151  Biso   1.000  O
  H661     1.0000 0.22060  0.05061  0.89353  Biso   1.000  H
  C622     1.0000 0.29339  0.11381  0.81401  Biso   1.000  C
  C623     1.0000 0.29339  0.11377  0.81401  Biso   1.000  C
  C624     1.0000 0.26121  0.08551  0.07220  Biso   1.000  C
  C625     1.0000 0.61440  0.79202  0.81234  Biso   1.000  C
  C626     1.0000 0.61440  0.79202  0.81226  Biso   1.000  C
  C627     1.0000 0.61440  0.79198  0.81234  Biso   1.000  C
  C628     1.0000 0.61440  0.79198  0.81226  Biso   1.000  C
  H662     1.0000 0.54850  0.72162  0.88972  Biso   1.000  H
  H663     1.0000 0.54850  0.72159  0.88972  Biso   1.000  H
  C629     1.0000 0.58559  0.76171  0.07091  Biso   1.000  C
  C630     1.0000 0.58559  0.76167  0.07091  Biso   1.000  C
  H664     1.0000 0.25868  0.12691  0.81203  Biso   1.000  H
  H665     1.0000 0.30860  0.11918  0.74752  Biso   1.000  H
  N433     1.0000 0.32220  0.14128  0.88842  Biso   1.000  N
  H666     1.0000 0.25868  0.12691  0.81196  Biso   1.000  H
  H667     1.0000 0.30860  0.11922  0.74752  Biso   1.000  H
  N434     1.0000 0.32220  0.14132  0.88842  Biso   1.000  N
  H668     1.0000 0.25910  0.07521  0.14288  Biso   1.000  H
  H669     1.0000 0.22811  0.09921  0.05339  Biso   1.000  H
  N435     1.0000 0.29871  0.12411  0.06413  Biso   1.000  N
  H670     1.0000 0.22811  0.09918  0.05339  Biso   1.000  H
  N436     1.0000 0.29871  0.12407  0.06413  Biso   1.000  N
  H671     1.0000 0.62030  0.80572  0.74494  Biso   1.000  H
  H672     1.0000 0.62758  0.75805  0.81287  Biso   1.000  H
  N437     1.0000 0.64259  0.82181  0.88698  Biso   1.000  N
  H673     1.0000 0.62030  0.80572  0.74486  Biso   1.000  H
  H674     1.0000 0.62030  0.80568  0.74494  Biso   1.000  H
  H675     1.0000 0.62758  0.75809  0.81287  Biso   1.000  H
  N438     1.0000 0.64259  0.82177  0.88698  Biso   1.000  N
  H676     1.0000 0.62030  0.80568  0.74486  Biso   1.000  H
  N439     1.0000 0.62428  0.79922  0.06222  Biso   1.000  N
  H677     1.0000 0.60030  0.72972  0.05202  Biso   1.000  H
  H678     1.0000 0.57509  0.75940  0.14158  Biso   1.000  H
  H679     1.0000 0.60030  0.72969  0.05202  Biso   1.000  H
  C631     1.0000 0.29948  0.16039  0.98210  Biso   1.000  C
  C632     1.0000 0.36369  0.16961  0.85948  Biso   1.000  C
  C633     1.0000 0.36369  0.16957  0.85948  Biso   1.000  C
  C634     1.0000 0.33040  0.13639  0.14212  Biso   1.000  C
  C635     1.0000 0.33040  0.13643  0.14212  Biso   1.000  C
  C636     1.0000 0.66179  0.80139  0.97989  Biso   1.000  C
  C637     1.0000 0.66960  0.86361  0.85788  Biso   1.000  C
  C638     1.0000 0.66960  0.86357  0.85788  Biso   1.000  C
  C639     1.0000 0.63627  0.83039  0.14052  Biso   1.000  C
  H680     1.0000 0.26569  0.17528  0.97037  Biso   1.000  H
  C640     1.0000 0.33821  0.19861  0.02011  Biso   1.000  C
  C641     1.0000 0.33821  0.19857  0.02011  Biso   1.000  C
  N440     1.0000 0.37568  0.20078  0.93778  Biso   1.000  N
  O217     1.0000 0.38641  0.16651  0.78020  Biso   1.000  O
  N441     1.0000 0.37568  0.20074  0.93778  Biso   1.000  N
  O218     1.0000 0.38641  0.16647  0.78020  Biso   1.000  O
  N442     1.0000 0.35741  0.17819  0.11302  Biso   1.000  N
  O219     1.0000 0.33381  0.11448  0.22338  Biso   1.000  O
  N443     1.0000 0.35741  0.17823  0.11302  Biso   1.000  N
  H681     1.0000 0.67788  0.76891  0.96870  Biso   1.000  H
  H682     1.0000 0.67788  0.76888  0.96870  Biso   1.000  H
  C642     1.0000 0.70048  0.83961  0.01790  Biso   1.000  C
  C643     1.0000 0.70048  0.83957  0.01790  Biso   1.000  C
  N444     1.0000 0.70129  0.87589  0.93587  Biso   1.000  N
  O220     1.0000 0.66619  0.88552  0.77662  Biso   1.000  O
  O221     1.0000 0.66619  0.88548  0.77662  Biso   1.000  O
  N445     1.0000 0.67780  0.85872  0.11158  Biso   1.000  N
  N446     1.0000 0.67780  0.85868  0.11158  Biso   1.000  N
  O222     1.0000 0.61359  0.83345  0.21980  Biso   1.000  O
  O223     1.0000 0.61359  0.83349  0.21980  Biso   1.000  O
  H683     1.0000 0.32208  0.23109  0.03130  Biso   1.000  H
  C644     1.0000 0.41437  0.23829  0.92909  Biso   1.000  C
  C645     1.0000 0.38560  0.20798  0.18766  Biso   1.000  C
  C646     1.0000 0.38560  0.20802  0.18766  Biso   1.000  C
  H684     1.0000 0.73427  0.82472  0.02963  Biso   1.000  H
  H685     1.0000 0.73427  0.82468  0.02963  Biso   1.000  H
  C647     1.0000 0.73879  0.91449  0.92780  Biso   1.000  C
  C648     1.0000 0.70657  0.88619  0.18599  Biso   1.000  C
  H686     1.0000 0.39970  0.27028  0.94798  Biso   1.000  H
  H687     1.0000 0.42491  0.24060  0.85842  Biso   1.000  H
  N447     1.0000 0.45920  0.22959  0.99132  Biso   1.000  N
  N448     1.0000 0.44023  0.20929  0.16794  Biso   1.000  N
  H688     1.0000 0.37970  0.19428  0.25506  Biso   1.000  H
  H689     1.0000 0.37239  0.24191  0.18713  Biso   1.000  H
  N449     1.0000 0.44023  0.20929  0.16786  Biso   1.000  N
  N450     1.0000 0.44023  0.20925  0.16794  Biso   1.000  N
  N451     1.0000 0.44023  0.20925  0.16786  Biso   1.000  N
  H690     1.0000 0.74090  0.92479  0.85712  Biso   1.000  H
  H691     1.0000 0.77189  0.90079  0.94661  Biso   1.000  H
  N452     1.0000 0.72910  0.95808  0.98949  Biso   1.000  N
  H692     1.0000 0.74128  0.87309  0.18797  Biso   1.000  H
  H693     1.0000 0.69140  0.88082  0.25248  Biso   1.000  H
  N453     1.0000 0.70899  0.93916  0.16679  Biso   1.000  N
  H694     1.0000 0.69140  0.88078  0.25248  Biso   1.000  H
  C649     1.0000 0.50517  0.22041  0.94813  Biso   1.000  C
  C650     1.0000 0.50517  0.22041  0.94806  Biso   1.000  C
  C651     1.0000 0.46318  0.24419  0.09848  Biso   1.000  C
  C652     1.0000 0.47448  0.18730  0.23206  Biso   1.000  C
  C653     1.0000 0.47448  0.18726  0.23206  Biso   1.000  C
  C654     1.0000 0.74420  0.96107  0.09573  Biso   1.000  C
  C655     1.0000 0.74420  0.96107  0.09566  Biso   1.000  C
  C656     1.0000 0.71968  0.00209  0.94699  Biso   1.000  C
  C657     1.0000 0.71968  0.00213  0.94699  Biso   1.000  C
  C658     1.0000 0.68600  0.97260  0.22856  Biso   1.000  C
  C659     1.0000 0.68600  0.97257  0.22856  Biso   1.000  C
  N454     1.0000 0.54218  0.22168  0.02437  Biso   1.000  N
  O224     1.0000 0.51280  0.21112  0.85849  Biso   1.000  O
  O225     1.0000 0.51280  0.21115  0.85849  Biso   1.000  O
  H695     1.0000 0.45150  0.27838  0.11028  Biso   1.000  H
  C660     1.0000 0.52130  0.23788  0.11820  Biso   1.000  C
  H696     1.0000 0.45150  0.27841  0.11028  Biso   1.000  H
  N455     1.0000 0.52310  0.20130  0.20008  Biso   1.000  N
  N456     1.0000 0.52310  0.20126  0.20008  Biso   1.000  N
  O226     1.0000 0.46491  0.16188  0.30350  Biso   1.000  O
  H697     1.0000 0.77940  0.94939  0.10647  Biso   1.000  H
  C661     1.0000 0.73879  0.01810  0.11653  Biso   1.000  C
  O227     1.0000 0.71060  0.01090  0.85682  Biso   1.000  O
  N457     1.0000 0.72289  0.03912  0.02292  Biso   1.000  N
  N458     1.0000 0.72289  0.03908  0.02292  Biso   1.000  N
  O228     1.0000 0.65830  0.96331  0.29916  Biso   1.000  O
  O229     1.0000 0.65830  0.96327  0.29916  Biso   1.000  O
  N459     1.0000 0.70067  0.02008  0.19703  Biso   1.000  N
  N460     1.0000 0.70067  0.02008  0.19695  Biso   1.000  N
  C662     1.0000 0.59720  0.22149  0.00122  Biso   1.000  C
  H698     1.0000 0.53670  0.26961  0.13983  Biso   1.000  H
  H699     1.0000 0.53670  0.26961  0.13976  Biso   1.000  H
  H700     1.0000 0.53670  0.26957  0.13983  Biso   1.000  H
  H701     1.0000 0.53670  0.26957  0.13976  Biso   1.000  H
  C663     1.0000 0.56720  0.19488  0.26367  Biso   1.000  C
  C664     1.0000 0.56720  0.19492  0.26367  Biso   1.000  C
  H702     1.0000 0.77140  0.03251  0.13907  Biso   1.000  H
  H703     1.0000 0.77140  0.03247  0.13907  Biso   1.000  H
  C665     1.0000 0.72420  0.09149  0.99977  Biso   1.000  C
  C666     1.0000 0.69439  0.06401  0.26062  Biso   1.000  C
  C667     1.0000 0.69439  0.06398  0.26062  Biso   1.000  C
  N461     1.0000 0.62217  0.17931  0.04242  Biso   1.000  N
  N462     1.0000 0.62217  0.17928  0.04242  Biso   1.000  N
  H704     1.0000 0.60187  0.22179  0.92788  Biso   1.000  H
  H705     1.0000 0.61279  0.25150  0.02848  Biso   1.000  H
  H706     1.0000 0.61279  0.25147  0.02848  Biso   1.000  H
  N463     1.0000 0.60509  0.16188  0.21858  Biso   1.000  N
  H707     1.0000 0.55647  0.18129  0.32887  Biso   1.000  H
  H708     1.0000 0.58268  0.22720  0.27616  Biso   1.000  H
  H709     1.0000 0.72427  0.09559  0.92643  Biso   1.000  H
  H710     1.0000 0.75588  0.10541  0.02567  Biso   1.000  H
  N464     1.0000 0.68190  0.11948  0.04151  Biso   1.000  N
  H711     1.0000 0.75588  0.10537  0.02567  Biso   1.000  H
  N465     1.0000 0.68190  0.11952  0.04151  Biso   1.000  N
  H712     1.0000 0.68010  0.05371  0.32551  Biso   1.000  H
  H713     1.0000 0.72780  0.07838  0.27357  Biso   1.000  H
  N466     1.0000 0.66248  0.10100  0.21820  Biso   1.000  N
  H714     1.0000 0.68010  0.05367  0.32551  Biso   1.000  H
  H715     1.0000 0.72780  0.07842  0.27357  Biso   1.000  H
  N467     1.0000 0.66248  0.10097  0.21820  Biso   1.000  N
  C668     1.0000 0.64968  0.14650  0.98111  Biso   1.000  C
  C669     1.0000 0.64148  0.17849  0.14577  Biso   1.000  C
  C670     1.0000 0.62068  0.11870  0.26794  Biso   1.000  C
  C671     1.0000 0.62068  0.11870  0.26786  Biso   1.000  C
  C672     1.0000 0.62068  0.11873  0.26794  Biso   1.000  C
  C673     1.0000 0.62068  0.11873  0.26786  Biso   1.000  C
  C674     1.0000 0.68217  0.13699  0.14638  Biso   1.000  C
  C675     1.0000 0.68217  0.13702  0.14638  Biso   1.000  C
  O230     1.0000 0.64478  0.14240  0.89117  Biso   1.000  O
  H716     1.0000 0.65627  0.21078  0.16512  Biso   1.000  H
  H717     1.0000 0.65627  0.21082  0.16512  Biso   1.000  H
  O231     1.0000 0.59777  0.09869  0.33732  Biso   1.000  O
  H718     1.0000 0.71600  0.14960  0.16657  Biso   1.000  H
  H719     1.0000 0.71600  0.14957  0.16657  Biso   1.000  H
  C676     1.0000 0.31779  0.86298  0.85362  Biso   1.000  C
  C677     1.0000 0.35848  0.82151  0.85423  Biso   1.000  C
  C678     1.0000 0.35848  0.82147  0.85423  Biso   1.000  C
  N468     1.0000 0.33748  0.89900  0.78180  Biso   1.000  N
  H720     1.0000 0.28400  0.85040  0.83343  Biso   1.000  H
  N469     1.0000 0.31810  0.88052  0.95849  Biso   1.000  N
  H721     1.0000 0.28400  0.85040  0.83336  Biso   1.000  H
  N470     1.0000 0.31810  0.88048  0.95849  Biso   1.000  N
  N471     1.0000 0.39487  0.83812  0.78142  Biso   1.000  N
  N472     1.0000 0.39487  0.83808  0.78142  Biso   1.000  N
  N473     1.0000 0.37779  0.82069  0.95758  Biso   1.000  N
  H722     1.0000 0.34369  0.78922  0.83488  Biso   1.000  H
  C679     1.0000 0.31779  0.86301  0.85362  Biso   1.000  C
  H723     1.0000 0.34369  0.78918  0.83488  Biso   1.000  H
  C680     1.0000 0.37928  0.88130  0.73206  Biso   1.000  C
  C681     1.0000 0.37928  0.88127  0.73206  Biso   1.000  C
  C682     1.0000 0.30561  0.93599  0.73938  Biso   1.000  C
  C683     1.0000 0.35028  0.85350  0.01889  Biso   1.000  C
  C684     1.0000 0.27580  0.90851  0.00023  Biso   1.000  C
  C685     1.0000 0.27580  0.90848  0.00023  Biso   1.000  C
  C686     1.0000 0.43280  0.80512  0.73633  Biso   1.000  C
  C687     1.0000 0.43280  0.80508  0.73633  Biso   1.000  C
  C688     1.0000 0.40280  0.77851  0.99878  Biso   1.000  C
  C689     1.0000 0.40280  0.77847  0.99878  Biso   1.000  C
  O232     1.0000 0.40219  0.90131  0.66268  Biso   1.000  O
  O233     1.0000 0.40219  0.90127  0.66268  Biso   1.000  O
  H724     1.0000 0.31990  0.94629  0.67449  Biso   1.000  H
  H725     1.0000 0.27220  0.92162  0.72643  Biso   1.000  H
  N474     1.0000 0.29929  0.97992  0.80297  Biso   1.000  N
  H726     1.0000 0.27220  0.92158  0.72643  Biso   1.000  H
  N475     1.0000 0.29929  0.97988  0.80297  Biso   1.000  N
  O234     1.0000 0.35518  0.85760  0.10883  Biso   1.000  O
  O235     1.0000 0.35518  0.85760  0.10876  Biso   1.000  O
  N476     1.0000 0.27711  0.96088  0.97708  Biso   1.000  N
  H727     1.0000 0.24408  0.89459  0.97433  Biso   1.000  H
  H728     1.0000 0.24408  0.89459  0.97426  Biso   1.000  H
  H729     1.0000 0.27569  0.90441  0.07357  Biso   1.000  H
  H730     1.0000 0.27569  0.90437  0.07357  Biso   1.000  H
  N477     1.0000 0.47690  0.79870  0.79992  Biso   1.000  N
  H731     1.0000 0.44349  0.81871  0.67113  Biso   1.000  H
  H732     1.0000 0.41729  0.77280  0.72384  Biso   1.000  H
  H733     1.0000 0.44349  0.81871  0.67106  Biso   1.000  H
  H734     1.0000 0.41729  0.77280  0.72376  Biso   1.000  H
  H735     1.0000 0.44349  0.81867  0.67113  Biso   1.000  H
  H736     1.0000 0.44349  0.81867  0.67106  Biso   1.000  H
  N478     1.0000 0.45778  0.77832  0.97563  Biso   1.000  N
  N479     1.0000 0.45778  0.77828  0.97563  Biso   1.000  N
  H737     1.0000 0.38721  0.74850  0.97152  Biso   1.000  H
  H738     1.0000 0.39809  0.77821  0.07212  Biso   1.000  H
  H739     1.0000 0.39809  0.77817  0.07212  Biso   1.000  H
  C690     1.0000 0.26121  0.98190  0.88347  Biso   1.000  C
  C691     1.0000 0.31400  0.02740  0.77144  Biso   1.000  C
  C692     1.0000 0.31400  0.02740  0.77136  Biso   1.000  C
  C693     1.0000 0.28029  0.99791  0.05301  Biso   1.000  C
  C694     1.0000 0.28029  0.99787  0.05301  Biso   1.000  C
  C695     1.0000 0.52548  0.81270  0.76794  Biso   1.000  C
  C696     1.0000 0.47870  0.76212  0.88180  Biso   1.000  C
  C697     1.0000 0.52548  0.81270  0.76786  Biso   1.000  C
  C698     1.0000 0.47870  0.76208  0.88180  Biso   1.000  C
  C699     1.0000 0.49479  0.77959  0.05187  Biso   1.000  C
  H740     1.0000 0.22860  0.96749  0.86093  Biso   1.000  H
  C700     1.0000 0.25580  0.03889  0.90427  Biso   1.000  C
  N480     1.0000 0.29101  0.06084  0.83321  Biso   1.000  N
  O236     1.0000 0.34170  0.03669  0.70084  Biso   1.000  O
  O237     1.0000 0.34170  0.03669  0.70076  Biso   1.000  O
  O238     1.0000 0.34170  0.03673  0.70084  Biso   1.000  O
  O239     1.0000 0.34170  0.03673  0.70076  Biso   1.000  O
  O240     1.0000 0.28940  0.98910  0.14318  Biso   1.000  O
  O241     1.0000 0.28940  0.98906  0.14318  Biso   1.000  O
  N481     1.0000 0.27090  0.04192  0.01051  Biso   1.000  N
  N482     1.0000 0.27090  0.04188  0.01051  Biso   1.000  N
  N483     1.0000 0.55973  0.79071  0.83206  Biso   1.000  N
  O242     1.0000 0.53509  0.83812  0.69650  Biso   1.000  O
  O243     1.0000 0.53509  0.83808  0.69650  Biso   1.000  O
  H741     1.0000 0.46330  0.73039  0.86017  Biso   1.000  H
  C701     1.0000 0.53678  0.75581  0.90152  Biso   1.000  C
  C702     1.0000 0.53678  0.75578  0.90152  Biso   1.000  C
  N484     1.0000 0.54080  0.77041  0.00868  Biso   1.000  N
  N485     1.0000 0.54080  0.77037  0.00868  Biso   1.000  N
  O244     1.0000 0.48717  0.78888  0.14151  Biso   1.000  O
  O245     1.0000 0.48717  0.78885  0.14151  Biso   1.000  O
  H742     1.0000 0.22060  0.05061  0.89353  Biso   1.000  H
  C703     1.0000 0.29339  0.11381  0.81401  Biso   1.000  C
  C704     1.0000 0.29339  0.11377  0.81401  Biso   1.000  C
  C705     1.0000 0.26121  0.08551  0.07220  Biso   1.000  C
  C706     1.0000 0.61440  0.79202  0.81234  Biso   1.000  C
  C707     1.0000 0.61440  0.79202  0.81226  Biso   1.000  C
  C708     1.0000 0.61440  0.79198  0.81234  Biso   1.000  C
  C709     1.0000 0.61440  0.79198  0.81226  Biso   1.000  C
  H743     1.0000 0.54850  0.72162  0.88972  Biso   1.000  H
  H744     1.0000 0.54850  0.72159  0.88972  Biso   1.000  H
  C710     1.0000 0.58559  0.76171  0.07091  Biso   1.000  C
  C711     1.0000 0.58559  0.76167  0.07091  Biso   1.000  C
  H745     1.0000 0.25868  0.12691  0.81203  Biso   1.000  H
  H746     1.0000 0.30860  0.11918  0.74752  Biso   1.000  H
  N486     1.0000 0.32220  0.14128  0.88842  Biso   1.000  N
  H747     1.0000 0.25868  0.12691  0.81196  Biso   1.000  H
  H748     1.0000 0.30860  0.11922  0.74752  Biso   1.000  H
  N487     1.0000 0.32220  0.14132  0.88842  Biso   1.000  N
  H749     1.0000 0.25910  0.07521  0.14288  Biso   1.000  H
  H750     1.0000 0.22811  0.09921  0.05339  Biso   1.000  H
  N488     1.0000 0.29871  0.12411  0.06413  Biso   1.000  N
  H751     1.0000 0.22811  0.09918  0.05339  Biso   1.000  H
  N489     1.0000 0.29871  0.12407  0.06413  Biso   1.000  N
  H752     1.0000 0.62030  0.80572  0.74494  Biso   1.000  H
  H753     1.0000 0.62758  0.75805  0.81287  Biso   1.000  H
  N490     1.0000 0.64259  0.82181  0.88698  Biso   1.000  N
  H754     1.0000 0.62030  0.80572  0.74486  Biso   1.000  H
  H755     1.0000 0.62030  0.80568  0.74494  Biso   1.000  H
  H756     1.0000 0.62758  0.75809  0.81287  Biso   1.000  H
  N491     1.0000 0.64259  0.82177  0.88698  Biso   1.000  N
  H757     1.0000 0.62030  0.80568  0.74486  Biso   1.000  H
  N492     1.0000 0.62428  0.79922  0.06222  Biso   1.000  N
  H758     1.0000 0.60030  0.72972  0.05202  Biso   1.000  H
  H759     1.0000 0.57509  0.75940  0.14158  Biso   1.000  H
  H760     1.0000 0.60030  0.72969  0.05202  Biso   1.000  H
  C712     1.0000 0.29948  0.16039  0.98210  Biso   1.000  C
  C713     1.0000 0.36369  0.16961  0.85948  Biso   1.000  C
  C714     1.0000 0.36369  0.16957  0.85948  Biso   1.000  C
  C715     1.0000 0.33040  0.13639  0.14212  Biso   1.000  C
  C716     1.0000 0.33040  0.13643  0.14212  Biso   1.000  C
  C717     1.0000 0.66179  0.80139  0.97989  Biso   1.000  C
  C718     1.0000 0.66960  0.86361  0.85788  Biso   1.000  C
  C719     1.0000 0.66960  0.86357  0.85788  Biso   1.000  C
  C720     1.0000 0.63627  0.83039  0.14052  Biso   1.000  C
  H761     1.0000 0.26569  0.17528  0.97037  Biso   1.000  H
  C721     1.0000 0.33821  0.19861  0.02011  Biso   1.000  C
  C722     1.0000 0.33821  0.19857  0.02011  Biso   1.000  C
  N493     1.0000 0.37568  0.20078  0.93778  Biso   1.000  N
  O246     1.0000 0.38641  0.16651  0.78020  Biso   1.000  O
  N494     1.0000 0.37568  0.20074  0.93778  Biso   1.000  N
  O247     1.0000 0.38641  0.16647  0.78020  Biso   1.000  O
  N495     1.0000 0.35741  0.17819  0.11302  Biso   1.000  N
  O248     1.0000 0.33381  0.11448  0.22338  Biso   1.000  O
  N496     1.0000 0.35741  0.17823  0.11302  Biso   1.000  N
  H762     1.0000 0.67788  0.76891  0.96870  Biso   1.000  H
  H763     1.0000 0.67788  0.76888  0.96870  Biso   1.000  H
  C723     1.0000 0.70048  0.83961  0.01790  Biso   1.000  C
  C724     1.0000 0.70048  0.83957  0.01790  Biso   1.000  C
  N497     1.0000 0.70129  0.87589  0.93587  Biso   1.000  N
  O249     1.0000 0.66619  0.88552  0.77662  Biso   1.000  O
  O250     1.0000 0.66619  0.88548  0.77662  Biso   1.000  O
  N498     1.0000 0.67780  0.85872  0.11158  Biso   1.000  N
  N499     1.0000 0.67780  0.85868  0.11158  Biso   1.000  N
  O251     1.0000 0.61359  0.83345  0.21980  Biso   1.000  O
  O252     1.0000 0.61359  0.83349  0.21980  Biso   1.000  O
  H764     1.0000 0.32208  0.23109  0.03130  Biso   1.000  H
  C725     1.0000 0.41437  0.23829  0.92909  Biso   1.000  C
  C726     1.0000 0.38560  0.20798  0.18766  Biso   1.000  C
  C727     1.0000 0.38560  0.20802  0.18766  Biso   1.000  C
  H765     1.0000 0.73427  0.82472  0.02963  Biso   1.000  H
  H766     1.0000 0.73427  0.82468  0.02963  Biso   1.000  H
  C728     1.0000 0.73879  0.91449  0.92780  Biso   1.000  C
  C729     1.0000 0.70657  0.88619  0.18599  Biso   1.000  C
  H767     1.0000 0.39970  0.27028  0.94798  Biso   1.000  H
  H768     1.0000 0.42491  0.24060  0.85842  Biso   1.000  H
  N500     1.0000 0.45920  0.22959  0.99132  Biso   1.000  N
  N501     1.0000 0.44023  0.20929  0.16794  Biso   1.000  N
  H769     1.0000 0.37970  0.19428  0.25506  Biso   1.000  H
  H770     1.0000 0.37239  0.24191  0.18713  Biso   1.000  H
  N502     1.0000 0.44023  0.20929  0.16786  Biso   1.000  N
  N503     1.0000 0.44023  0.20925  0.16794  Biso   1.000  N
  N504     1.0000 0.44023  0.20925  0.16786  Biso   1.000  N
  H771     1.0000 0.74090  0.92479  0.85712  Biso   1.000  H
  H772     1.0000 0.77189  0.90079  0.94661  Biso   1.000  H
  N505     1.0000 0.72910  0.95808  0.98949  Biso   1.000  N
  H773     1.0000 0.74128  0.87309  0.18797  Biso   1.000  H
  H774     1.0000 0.69140  0.88082  0.25248  Biso   1.000  H
  N506     1.0000 0.70899  0.93916  0.16679  Biso   1.000  N
  H775     1.0000 0.69140  0.88078  0.25248  Biso   1.000  H
  C730     1.0000 0.50517  0.22041  0.94813  Biso   1.000  C
  C731     1.0000 0.50517  0.22041  0.94806  Biso   1.000  C
  C732     1.0000 0.46318  0.24419  0.09848  Biso   1.000  C
  C733     1.0000 0.47448  0.18730  0.23206  Biso   1.000  C
  C734     1.0000 0.47448  0.18726  0.23206  Biso   1.000  C
  C735     1.0000 0.74420  0.96107  0.09573  Biso   1.000  C
  C736     1.0000 0.74420  0.96107  0.09566  Biso   1.000  C
  C737     1.0000 0.71968  0.00209  0.94699  Biso   1.000  C
  C738     1.0000 0.71968  0.00213  0.94699  Biso   1.000  C
  C739     1.0000 0.68600  0.97260  0.22856  Biso   1.000  C
  C740     1.0000 0.68600  0.97257  0.22856  Biso   1.000  C
  N507     1.0000 0.54218  0.22168  0.02437  Biso   1.000  N
  O253     1.0000 0.51280  0.21112  0.85849  Biso   1.000  O
  O254     1.0000 0.51280  0.21115  0.85849  Biso   1.000  O
  H776     1.0000 0.45150  0.27838  0.11028  Biso   1.000  H
  C741     1.0000 0.52130  0.23788  0.11820  Biso   1.000  C
  H777     1.0000 0.45150  0.27841  0.11028  Biso   1.000  H
  N508     1.0000 0.52310  0.20130  0.20008  Biso   1.000  N
  N509     1.0000 0.52310  0.20126  0.20008  Biso   1.000  N
  O255     1.0000 0.46491  0.16188  0.30350  Biso   1.000  O
  H778     1.0000 0.77940  0.94939  0.10647  Biso   1.000  H
  C742     1.0000 0.73879  0.01810  0.11653  Biso   1.000  C
  O256     1.0000 0.71060  0.01090  0.85682  Biso   1.000  O
  N510     1.0000 0.72289  0.03912  0.02292  Biso   1.000  N
  N511     1.0000 0.72289  0.03908  0.02292  Biso   1.000  N
  O257     1.0000 0.65830  0.96331  0.29916  Biso   1.000  O
  O258     1.0000 0.65830  0.96327  0.29916  Biso   1.000  O
  N512     1.0000 0.70067  0.02008  0.19703  Biso   1.000  N
  N513     1.0000 0.70067  0.02008  0.19695  Biso   1.000  N
  C743     1.0000 0.59720  0.22149  0.00122  Biso   1.000  C
  H779     1.0000 0.53670  0.26961  0.13983  Biso   1.000  H
  H780     1.0000 0.53670  0.26961  0.13976  Biso   1.000  H
  H781     1.0000 0.53670  0.26957  0.13983  Biso   1.000  H
  H782     1.0000 0.53670  0.26957  0.13976  Biso   1.000  H
  C744     1.0000 0.56720  0.19488  0.26367  Biso   1.000  C
  C745     1.0000 0.56720  0.19492  0.26367  Biso   1.000  C
  H783     1.0000 0.77140  0.03251  0.13907  Biso   1.000  H
  H784     1.0000 0.77140  0.03247  0.13907  Biso   1.000  H
  C746     1.0000 0.72420  0.09149  0.99977  Biso   1.000  C
  C747     1.0000 0.69439  0.06401  0.26062  Biso   1.000  C
  C748     1.0000 0.69439  0.06398  0.26062  Biso   1.000  C
  N514     1.0000 0.62217  0.17931  0.04242  Biso   1.000  N
  N515     1.0000 0.62217  0.17928  0.04242  Biso   1.000  N
  H785     1.0000 0.60187  0.22179  0.92788  Biso   1.000  H
  H786     1.0000 0.61279  0.25150  0.02848  Biso   1.000  H
  H787     1.0000 0.61279  0.25147  0.02848  Biso   1.000  H
  N516     1.0000 0.60509  0.16188  0.21858  Biso   1.000  N
  H788     1.0000 0.55647  0.18129  0.32887  Biso   1.000  H
  H789     1.0000 0.58268  0.22720  0.27616  Biso   1.000  H
  H790     1.0000 0.72427  0.09559  0.92643  Biso   1.000  H
  H791     1.0000 0.75588  0.10541  0.02567  Biso   1.000  H
  N517     1.0000 0.68190  0.11948  0.04151  Biso   1.000  N
  H792     1.0000 0.75588  0.10537  0.02567  Biso   1.000  H
  N518     1.0000 0.68190  0.11952  0.04151  Biso   1.000  N
  H793     1.0000 0.68010  0.05371  0.32551  Biso   1.000  H
  H794     1.0000 0.72780  0.07838  0.27357  Biso   1.000  H
  N519     1.0000 0.66248  0.10100  0.21820  Biso   1.000  N
  H795     1.0000 0.68010  0.05367  0.32551  Biso   1.000  H
  H796     1.0000 0.72780  0.07842  0.27357  Biso   1.000  H
  N520     1.0000 0.66248  0.10097  0.21820  Biso   1.000  N
  C749     1.0000 0.64968  0.14650  0.98111  Biso   1.000  C
  C750     1.0000 0.64148  0.17849  0.14577  Biso   1.000  C
  C751     1.0000 0.62068  0.11870  0.26794  Biso   1.000  C
  C752     1.0000 0.62068  0.11870  0.26786  Biso   1.000  C
  C753     1.0000 0.62068  0.11873  0.26794  Biso   1.000  C
  C754     1.0000 0.62068  0.11873  0.26786  Biso   1.000  C
  C755     1.0000 0.68217  0.13699  0.14638  Biso   1.000  C
  C756     1.0000 0.68217  0.13702  0.14638  Biso   1.000  C
  O259     1.0000 0.64478  0.14240  0.89117  Biso   1.000  O
  H797     1.0000 0.65627  0.21078  0.16512  Biso   1.000  H
  H798     1.0000 0.65627  0.21082  0.16512  Biso   1.000  H
  O260     1.0000 0.59777  0.09869  0.33732  Biso   1.000  O
  H799     1.0000 0.71600  0.14960  0.16657  Biso   1.000  H
  H800     1.0000 0.71600  0.14957  0.16657  Biso   1.000  H
  C757     1.0000 0.14148  0.67847  0.85423  Biso   1.000  C
  C758     1.0000 0.18221  0.63700  0.85362  Biso   1.000  C
  C759     1.0000 0.18217  0.63700  0.85362  Biso   1.000  C
  N521     1.0000 0.10509  0.66190  0.78142  Biso   1.000  N
  H801     1.0000 0.15631  0.71080  0.83488  Biso   1.000  H
  N522     1.0000 0.12221  0.67930  0.95758  Biso   1.000  N
  H802     1.0000 0.15627  0.71080  0.83488  Biso   1.000  H
  N523     1.0000 0.12217  0.67930  0.95758  Biso   1.000  N
  N524     1.0000 0.16248  0.60099  0.78180  Biso   1.000  N
  N525     1.0000 0.18190  0.61950  0.95849  Biso   1.000  N
  N526     1.0000 0.18186  0.61950  0.95849  Biso   1.000  N
  H803     1.0000 0.21600  0.64958  0.83343  Biso   1.000  H
  H804     1.0000 0.21600  0.64958  0.83336  Biso   1.000  H
  H805     1.0000 0.21596  0.64958  0.83343  Biso   1.000  H
  H806     1.0000 0.21596  0.64958  0.83336  Biso   1.000  H
  C760     1.0000 0.12068  0.61868  0.73206  Biso   1.000  C
  C761     1.0000 0.06720  0.69490  0.73633  Biso   1.000  C
  C762     1.0000 0.06724  0.69490  0.73633  Biso   1.000  C
  C763     1.0000 0.14968  0.64649  0.01889  Biso   1.000  C
  C764     1.0000 0.09720  0.72147  0.99878  Biso   1.000  C
  C765     1.0000 0.19439  0.56400  0.73938  Biso   1.000  C
  C766     1.0000 0.22420  0.59150  0.00023  Biso   1.000  C
  C767     1.0000 0.22416  0.59150  0.00023  Biso   1.000  C
  O261     1.0000 0.09781  0.59867  0.66268  Biso   1.000  O
  O262     1.0000 0.09777  0.59867  0.66268  Biso   1.000  O
  H807     1.0000 0.05651  0.68127  0.67113  Biso   1.000  H
  H808     1.0000 0.08271  0.72718  0.72384  Biso   1.000  H
  N527     1.0000 0.02310  0.70128  0.79992  Biso   1.000  N
  H809     1.0000 0.05651  0.68127  0.67106  Biso   1.000  H
  H810     1.0000 0.08271  0.72718  0.72376  Biso   1.000  H
  H811     1.0000 0.05647  0.68127  0.67113  Biso   1.000  H
  H812     1.0000 0.08268  0.72718  0.72384  Biso   1.000  H
  N528     1.0000 0.02306  0.70128  0.79992  Biso   1.000  N
  H813     1.0000 0.05647  0.68127  0.67106  Biso   1.000  H
  H814     1.0000 0.08268  0.72718  0.72376  Biso   1.000  H
  O263     1.0000 0.14478  0.64238  0.10883  Biso   1.000  O
  O264     1.0000 0.14478  0.64238  0.10876  Biso   1.000  O
  H815     1.0000 0.11279  0.75148  0.97152  Biso   1.000  H
  N529     1.0000 0.04218  0.72170  0.97563  Biso   1.000  N
  H816     1.0000 0.10191  0.72177  0.07212  Biso   1.000  H
  H817     1.0000 0.10187  0.72177  0.07212  Biso   1.000  H
  N530     1.0000 0.20071  0.52010  0.80297  Biso   1.000  N
  N531     1.0000 0.20067  0.52010  0.80297  Biso   1.000  N
  H818     1.0000 0.18010  0.55369  0.67449  Biso   1.000  H
  H819     1.0000 0.22780  0.57840  0.72643  Biso   1.000  H
  H820     1.0000 0.18006  0.55369  0.67449  Biso   1.000  H
  H821     1.0000 0.22776  0.57840  0.72643  Biso   1.000  H
  N532     1.0000 0.22289  0.53910  0.97708  Biso   1.000  N
  H822     1.0000 0.25588  0.60539  0.97433  Biso   1.000  H
  H823     1.0000 0.25588  0.60539  0.97426  Biso   1.000  H
  H824     1.0000 0.22431  0.59557  0.07357  Biso   1.000  H
  H825     1.0000 0.22427  0.59557  0.07357  Biso   1.000  H
  C768     1.0000 0.02130  0.73790  0.88180  Biso   1.000  C
  C769     1.0000 0.02126  0.73790  0.88180  Biso   1.000  C
  C770     1.0000 0.97445  0.68728  0.76794  Biso   1.000  C
  C771     1.0000 0.97445  0.68728  0.76786  Biso   1.000  C
  C772     1.0000 0.97448  0.68728  0.76794  Biso   1.000  C
  C773     1.0000 0.97448  0.68728  0.76786  Biso   1.000  C
  C774     1.0000 0.00521  0.72039  0.05187  Biso   1.000  C
  C775     1.0000 0.00517  0.72039  0.05187  Biso   1.000  C
  C776     1.0000 0.18600  0.47258  0.77144  Biso   1.000  C
  C777     1.0000 0.18600  0.47258  0.77136  Biso   1.000  C
  C778     1.0000 0.18596  0.47258  0.77144  Biso   1.000  C
  C779     1.0000 0.18596  0.47258  0.77136  Biso   1.000  C
  C780     1.0000 0.23879  0.51808  0.88347  Biso   1.000  C
  C781     1.0000 0.21968  0.50211  0.05301  Biso   1.000  C
  H826     1.0000 0.03670  0.76959  0.86017  Biso   1.000  H
  H827     1.0000 0.03666  0.76959  0.86017  Biso   1.000  H
  C782     1.0000 0.96314  0.74417  0.90152  Biso   1.000  C
  C783     1.0000 0.96318  0.74417  0.90152  Biso   1.000  C
  N533     1.0000 0.94027  0.70927  0.83206  Biso   1.000  N
  O265     1.0000 0.96487  0.66190  0.69650  Biso   1.000  O
  N534     1.0000 0.94023  0.70927  0.83206  Biso   1.000  N
  N535     1.0000 0.95920  0.72957  0.00868  Biso   1.000  N
  O266     1.0000 0.01280  0.71113  0.14151  Biso   1.000  O
  N536     1.0000 0.20899  0.43914  0.83321  Biso   1.000  N
  O267     1.0000 0.15830  0.46329  0.70084  Biso   1.000  O
  O268     1.0000 0.15830  0.46329  0.70076  Biso   1.000  O
  O269     1.0000 0.15826  0.46329  0.70084  Biso   1.000  O
  O270     1.0000 0.15826  0.46329  0.70076  Biso   1.000  O
  C784     1.0000 0.24420  0.46109  0.90427  Biso   1.000  C
  C785     1.0000 0.24416  0.46109  0.90427  Biso   1.000  C
  H828     1.0000 0.27140  0.53249  0.86093  Biso   1.000  H
  H829     1.0000 0.27136  0.53249  0.86093  Biso   1.000  H
  N537     1.0000 0.22910  0.45810  0.01051  Biso   1.000  N
  N538     1.0000 0.22906  0.45810  0.01051  Biso   1.000  N
  O271     1.0000 0.21060  0.51088  0.14318  Biso   1.000  O
  O272     1.0000 0.21056  0.51088  0.14318  Biso   1.000  O
  H830     1.0000 0.95146  0.77840  0.88972  Biso   1.000  H
  H831     1.0000 0.95150  0.77840  0.88972  Biso   1.000  H
  C786     1.0000 0.88556  0.70800  0.81234  Biso   1.000  C
  C787     1.0000 0.88556  0.70800  0.81226  Biso   1.000  C
  C788     1.0000 0.91437  0.73827  0.07091  Biso   1.000  C
  C789     1.0000 0.20661  0.38617  0.81401  Biso   1.000  C
  C790     1.0000 0.20657  0.38617  0.81401  Biso   1.000  C
  H832     1.0000 0.27940  0.44940  0.89353  Biso   1.000  H
  H833     1.0000 0.27937  0.44940  0.89353  Biso   1.000  H
  C791     1.0000 0.23879  0.41450  0.07220  Biso   1.000  C
  H834     1.0000 0.87970  0.69430  0.74494  Biso   1.000  H
  H835     1.0000 0.87235  0.74189  0.81287  Biso   1.000  H
  N539     1.0000 0.85741  0.67821  0.88698  Biso   1.000  N
  H836     1.0000 0.87970  0.69430  0.74486  Biso   1.000  H
  H837     1.0000 0.87966  0.69430  0.74494  Biso   1.000  H
  H838     1.0000 0.87239  0.74189  0.81287  Biso   1.000  H
  N540     1.0000 0.85737  0.67821  0.88698  Biso   1.000  N
  H839     1.0000 0.87966  0.69430  0.74486  Biso   1.000  H
  N541     1.0000 0.87572  0.70076  0.06222  Biso   1.000  N
  H840     1.0000 0.89966  0.77030  0.05202  Biso   1.000  H
  H841     1.0000 0.92487  0.74058  0.14158  Biso   1.000  H
  N542     1.0000 0.87568  0.70076  0.06222  Biso   1.000  N
  H842     1.0000 0.89970  0.77030  0.05202  Biso   1.000  H
  N543     1.0000 0.17780  0.35870  0.88842  Biso   1.000  N
  N544     1.0000 0.17776  0.35870  0.88842  Biso   1.000  N
  H843     1.0000 0.24128  0.37311  0.81203  Biso   1.000  H
  H844     1.0000 0.19140  0.38080  0.74752  Biso   1.000  H
  H845     1.0000 0.24128  0.37311  0.81196  Biso   1.000  H
  H846     1.0000 0.19136  0.38080  0.74752  Biso   1.000  H
  N545     1.0000 0.20129  0.37591  0.06413  Biso   1.000  N
  N546     1.0000 0.20133  0.37591  0.06413  Biso   1.000  N
  H847     1.0000 0.24090  0.42481  0.14288  Biso   1.000  H
  H848     1.0000 0.27189  0.40081  0.05339  Biso   1.000  H
  H849     1.0000 0.27186  0.40081  0.05339  Biso   1.000  H
  C792     1.0000 0.83040  0.63637  0.85788  Biso   1.000  C
  C793     1.0000 0.83817  0.69859  0.97989  Biso   1.000  C
  C794     1.0000 0.86369  0.66959  0.14052  Biso   1.000  C
  C795     1.0000 0.13631  0.33041  0.85948  Biso   1.000  C
  C796     1.0000 0.13627  0.33041  0.85948  Biso   1.000  C
  C797     1.0000 0.20048  0.33959  0.98210  Biso   1.000  C
  C798     1.0000 0.16960  0.36359  0.14212  Biso   1.000  C
  C799     1.0000 0.16957  0.36359  0.14212  Biso   1.000  C
  N547     1.0000 0.79871  0.62409  0.93587  Biso   1.000  N
  N548     1.0000 0.79867  0.62409  0.93587  Biso   1.000  N
  O273     1.0000 0.83381  0.61446  0.77662  Biso   1.000  O
  O274     1.0000 0.83377  0.61446  0.77662  Biso   1.000  O
  C800     1.0000 0.79952  0.66037  0.01790  Biso   1.000  C
  C801     1.0000 0.79948  0.66037  0.01790  Biso   1.000  C
  H850     1.0000 0.82212  0.73110  0.96870  Biso   1.000  H
  H851     1.0000 0.82208  0.73110  0.96870  Biso   1.000  H
  N549     1.0000 0.82216  0.64130  0.11158  Biso   1.000  N
  N550     1.0000 0.82220  0.64130  0.11158  Biso   1.000  N
  O275     1.0000 0.88637  0.66649  0.21980  Biso   1.000  O
  O276     1.0000 0.11359  0.33351  0.78020  Biso   1.000  O
  N551     1.0000 0.12428  0.29920  0.93778  Biso   1.000  N
  C802     1.0000 0.16179  0.30141  0.02011  Biso   1.000  C
  H852     1.0000 0.23431  0.32470  0.97037  Biso   1.000  H
  H853     1.0000 0.23427  0.32470  0.97037  Biso   1.000  H
  N552     1.0000 0.14259  0.32179  0.11302  Biso   1.000  N
  O277     1.0000 0.16619  0.38550  0.22338  Biso   1.000  O
  C803     1.0000 0.76121  0.58550  0.92780  Biso   1.000  C
  C804     1.0000 0.76117  0.58550  0.92780  Biso   1.000  C
  H854     1.0000 0.76569  0.67530  0.02963  Biso   1.000  H
  C805     1.0000 0.79339  0.61379  0.18599  Biso   1.000  C
  C806     1.0000 0.08559  0.26169  0.92909  Biso   1.000  C
  H855     1.0000 0.17788  0.26890  0.03130  Biso   1.000  H
  C807     1.0000 0.11440  0.29200  0.18766  Biso   1.000  C
  C808     1.0000 0.11444  0.29200  0.18766  Biso   1.000  C
  N553     1.0000 0.77086  0.54190  0.98949  Biso   1.000  N
  N554     1.0000 0.77090  0.54190  0.98949  Biso   1.000  N
  H856     1.0000 0.75910  0.57519  0.85712  Biso   1.000  H
  H857     1.0000 0.72811  0.59919  0.94661  Biso   1.000  H
  N555     1.0000 0.79097  0.56082  0.16679  Biso   1.000  N
  H858     1.0000 0.75868  0.62689  0.18797  Biso   1.000  H
  H859     1.0000 0.80856  0.61920  0.25248  Biso   1.000  H
  H860     1.0000 0.80860  0.61920  0.25248  Biso   1.000  H
  H861     1.0000 0.10030  0.22970  0.94798  Biso   1.000  H
  H862     1.0000 0.07509  0.25938  0.85842  Biso   1.000  H
  N556     1.0000 0.04080  0.27039  0.99132  Biso   1.000  N
  H863     1.0000 0.10026  0.22970  0.94798  Biso   1.000  H
  N557     1.0000 0.04076  0.27039  0.99132  Biso   1.000  N
  N558     1.0000 0.05973  0.29069  0.16794  Biso   1.000  N
  N559     1.0000 0.05973  0.29069  0.16786  Biso   1.000  N
  H864     1.0000 0.12030  0.30570  0.25506  Biso   1.000  H
  H865     1.0000 0.12761  0.25811  0.18713  Biso   1.000  H
  H866     1.0000 0.12758  0.25811  0.18713  Biso   1.000  H
  C809     1.0000 0.78029  0.49789  0.94699  Biso   1.000  C
  C810     1.0000 0.75577  0.53887  0.09573  Biso   1.000  C
  C811     1.0000 0.75577  0.53887  0.09566  Biso   1.000  C
  C812     1.0000 0.75580  0.53887  0.09573  Biso   1.000  C
  C813     1.0000 0.75580  0.53887  0.09566  Biso   1.000  C
  C814     1.0000 0.81400  0.52738  0.22856  Biso   1.000  C
  C815     1.0000 0.99475  0.27961  0.94813  Biso   1.000  C
  C816     1.0000 0.99475  0.27961  0.94806  Biso   1.000  C
  C817     1.0000 0.99479  0.27961  0.94813  Biso   1.000  C
  C818     1.0000 0.99479  0.27961  0.94806  Biso   1.000  C
  C819     1.0000 0.03682  0.25579  0.09848  Biso   1.000  C
  C820     1.0000 0.02552  0.31268  0.23206  Biso   1.000  C
  C821     1.0000 0.02548  0.31268  0.23206  Biso   1.000  C
  N560     1.0000 0.77711  0.46090  0.02292  Biso   1.000  N
  N561     1.0000 0.77707  0.46090  0.02292  Biso   1.000  N
  O278     1.0000 0.78936  0.48908  0.85682  Biso   1.000  O
  O279     1.0000 0.78940  0.48908  0.85682  Biso   1.000  O
  C822     1.0000 0.76121  0.48188  0.11653  Biso   1.000  C
  C823     1.0000 0.76117  0.48188  0.11653  Biso   1.000  C
  H867     1.0000 0.72056  0.55060  0.10647  Biso   1.000  H
  H868     1.0000 0.72060  0.55060  0.10647  Biso   1.000  H
  N562     1.0000 0.79929  0.47990  0.19703  Biso   1.000  N
  N563     1.0000 0.79929  0.47990  0.19695  Biso   1.000  N
  O280     1.0000 0.84170  0.53667  0.29916  Biso   1.000  O
  O281     1.0000 0.98717  0.28887  0.85849  Biso   1.000  O
  N564     1.0000 0.95778  0.27830  0.02437  Biso   1.000  N
  C824     1.0000 0.97866  0.26210  0.11820  Biso   1.000  C
  C825     1.0000 0.97870  0.26210  0.11820  Biso   1.000  C
  H869     1.0000 0.04850  0.22160  0.11028  Biso   1.000  H
  H870     1.0000 0.04846  0.22160  0.11028  Biso   1.000  H
  N565     1.0000 0.97686  0.29868  0.20008  Biso   1.000  N
  N566     1.0000 0.97690  0.29868  0.20008  Biso   1.000  N
  O282     1.0000 0.03509  0.33810  0.30350  Biso   1.000  O
  C826     1.0000 0.77580  0.40850  0.99977  Biso   1.000  C
  H871     1.0000 0.72860  0.46751  0.13907  Biso   1.000  H
  C827     1.0000 0.80557  0.43600  0.26062  Biso   1.000  C
  C828     1.0000 0.90277  0.27849  0.00122  Biso   1.000  C
  H872     1.0000 0.96326  0.23041  0.13983  Biso   1.000  H
  H873     1.0000 0.96326  0.23041  0.13976  Biso   1.000  H
  H874     1.0000 0.96330  0.23041  0.13983  Biso   1.000  H
  H875     1.0000 0.96330  0.23041  0.13976  Biso   1.000  H
  C829     1.0000 0.93276  0.30510  0.26367  Biso   1.000  C
  N567     1.0000 0.81810  0.38050  0.04151  Biso   1.000  N
  H876     1.0000 0.77569  0.40439  0.92643  Biso   1.000  H
  H877     1.0000 0.74408  0.39461  0.02567  Biso   1.000  H
  N568     1.0000 0.83752  0.39898  0.21820  Biso   1.000  N
  N569     1.0000 0.83748  0.39898  0.21820  Biso   1.000  N
  H878     1.0000 0.81990  0.44631  0.32551  Biso   1.000  H
  H879     1.0000 0.77216  0.42160  0.27357  Biso   1.000  H
  H880     1.0000 0.77220  0.42160  0.27357  Biso   1.000  H
  H881     1.0000 0.89805  0.27819  0.92788  Biso   1.000  H
  H882     1.0000 0.89809  0.27819  0.92788  Biso   1.000  H
  H883     1.0000 0.88717  0.24848  0.02848  Biso   1.000  H
  N570     1.0000 0.87779  0.32070  0.04242  Biso   1.000  N
  H884     1.0000 0.94349  0.31869  0.32887  Biso   1.000  H
  H885     1.0000 0.91725  0.27278  0.27616  Biso   1.000  H
  N571     1.0000 0.89487  0.33810  0.21858  Biso   1.000  N
  H886     1.0000 0.91729  0.27278  0.27616  Biso   1.000  H
  C830     1.0000 0.85032  0.35348  0.98111  Biso   1.000  C
  C831     1.0000 0.85028  0.35348  0.98111  Biso   1.000  C
  C832     1.0000 0.81775  0.36300  0.14638  Biso   1.000  C
  C833     1.0000 0.81779  0.36300  0.14638  Biso   1.000  C
  C834     1.0000 0.87928  0.38128  0.26794  Biso   1.000  C
  C835     1.0000 0.87928  0.38128  0.26786  Biso   1.000  C
  C836     1.0000 0.85852  0.32149  0.14577  Biso   1.000  C
  C837     1.0000 0.85848  0.32149  0.14577  Biso   1.000  C
  O283     1.0000 0.85522  0.35758  0.89117  Biso   1.000  O
  O284     1.0000 0.85518  0.35758  0.89117  Biso   1.000  O
  H887     1.0000 0.78396  0.35038  0.16657  Biso   1.000  H
  H888     1.0000 0.78400  0.35038  0.16657  Biso   1.000  H
  O285     1.0000 0.90219  0.40129  0.33732  Biso   1.000  O
  H889     1.0000 0.84365  0.28920  0.16512  Biso   1.000  H
  H890     1.0000 0.84369  0.28920  0.16512  Biso   1.000  H
  C838     1.0000 0.14148  0.67847  0.85423  Biso   1.000  C
  C839     1.0000 0.18221  0.63700  0.85362  Biso   1.000  C
  C840     1.0000 0.18217  0.63700  0.85362  Biso   1.000  C
  N572     1.0000 0.10509  0.66190  0.78142  Biso   1.000  N
  N573     1.0000 0.12221  0.67930  0.95758  Biso   1.000  N
  N574     1.0000 0.12217  0.67930  0.95758  Biso   1.000  N
  H891     1.0000 0.15631  0.71080  0.83488  Biso   1.000  H
  H892     1.0000 0.15627  0.71080  0.83488  Biso   1.000  H
  N575     1.0000 0.16248  0.60099  0.78180  Biso   1.000  N
  N576     1.0000 0.18190  0.61950  0.95849  Biso   1.000  N
  N577     1.0000 0.18186  0.61950  0.95849  Biso   1.000  N
  H893     1.0000 0.21600  0.64958  0.83343  Biso   1.000  H
  H894     1.0000 0.21600  0.64958  0.83336  Biso   1.000  H
  H895     1.0000 0.21596  0.64958  0.83343  Biso   1.000  H
  H896     1.0000 0.21596  0.64958  0.83336  Biso   1.000  H
  C841     1.0000 0.12068  0.61868  0.73206  Biso   1.000  C
  C842     1.0000 0.06720  0.69490  0.73633  Biso   1.000  C
  C843     1.0000 0.06724  0.69490  0.73633  Biso   1.000  C
  C844     1.0000 0.14968  0.64649  0.01889  Biso   1.000  C
  C845     1.0000 0.09720  0.72147  0.99878  Biso   1.000  C
  C846     1.0000 0.19439  0.56400  0.73938  Biso   1.000  C
  C847     1.0000 0.22420  0.59150  0.00023  Biso   1.000  C
  C848     1.0000 0.22416  0.59150  0.00023  Biso   1.000  C
  O286     1.0000 0.09781  0.59867  0.66268  Biso   1.000  O
  O287     1.0000 0.09777  0.59867  0.66268  Biso   1.000  O
  N578     1.0000 0.02310  0.70128  0.79992  Biso   1.000  N
  N579     1.0000 0.02306  0.70128  0.79992  Biso   1.000  N
  H897     1.0000 0.05651  0.68127  0.67113  Biso   1.000  H
  H898     1.0000 0.08271  0.72718  0.72384  Biso   1.000  H
  H899     1.0000 0.05651  0.68127  0.67106  Biso   1.000  H
  H900     1.0000 0.08271  0.72718  0.72376  Biso   1.000  H
  H901     1.0000 0.05647  0.68127  0.67113  Biso   1.000  H
  H902     1.0000 0.08268  0.72718  0.72384  Biso   1.000  H
  H903     1.0000 0.05647  0.68127  0.67106  Biso   1.000  H
  H904     1.0000 0.08268  0.72718  0.72376  Biso   1.000  H
  O288     1.0000 0.14478  0.64238  0.10883  Biso   1.000  O
  O289     1.0000 0.14478  0.64238  0.10876  Biso   1.000  O
  H905     1.0000 0.11279  0.75148  0.97152  Biso   1.000  H
  N580     1.0000 0.04218  0.72170  0.97563  Biso   1.000  N
  H906     1.0000 0.10191  0.72177  0.07212  Biso   1.000  H
  H907     1.0000 0.10187  0.72177  0.07212  Biso   1.000  H
  N581     1.0000 0.20071  0.52010  0.80297  Biso   1.000  N
  N582     1.0000 0.20067  0.52010  0.80297  Biso   1.000  N
  H908     1.0000 0.18010  0.55369  0.67449  Biso   1.000  H
  H909     1.0000 0.22780  0.57840  0.72643  Biso   1.000  H
  H910     1.0000 0.18006  0.55369  0.67449  Biso   1.000  H
  H911     1.0000 0.22776  0.57840  0.72643  Biso   1.000  H
  N583     1.0000 0.22289  0.53910  0.97708  Biso   1.000  N
  H912     1.0000 0.25588  0.60539  0.97433  Biso   1.000  H
  H913     1.0000 0.25588  0.60539  0.97426  Biso   1.000  H
  H914     1.0000 0.22431  0.59557  0.07357  Biso   1.000  H
  H915     1.0000 0.22427  0.59557  0.07357  Biso   1.000  H
  C849     1.0000 0.02130  0.73790  0.88180  Biso   1.000  C
  C850     1.0000 0.02126  0.73790  0.88180  Biso   1.000  C
  C851     1.0000 0.97445  0.68728  0.76794  Biso   1.000  C
  C852     1.0000 0.97445  0.68728  0.76786  Biso   1.000  C
  C853     1.0000 0.97448  0.68728  0.76794  Biso   1.000  C
  C854     1.0000 0.97448  0.68728  0.76786  Biso   1.000  C
  C855     1.0000 0.00521  0.72039  0.05187  Biso   1.000  C
  C856     1.0000 0.00517  0.72039  0.05187  Biso   1.000  C
  C857     1.0000 0.18600  0.47258  0.77144  Biso   1.000  C
  C858     1.0000 0.18600  0.47258  0.77136  Biso   1.000  C
  C859     1.0000 0.18596  0.47258  0.77144  Biso   1.000  C
  C860     1.0000 0.18596  0.47258  0.77136  Biso   1.000  C
  C861     1.0000 0.23879  0.51808  0.88347  Biso   1.000  C
  C862     1.0000 0.21968  0.50211  0.05301  Biso   1.000  C
  H916     1.0000 0.03670  0.76959  0.86017  Biso   1.000  H
  H917     1.0000 0.03666  0.76959  0.86017  Biso   1.000  H
  C863     1.0000 0.96314  0.74417  0.90152  Biso   1.000  C
  C864     1.0000 0.96318  0.74417  0.90152  Biso   1.000  C
  N584     1.0000 0.94027  0.70927  0.83206  Biso   1.000  N
  O290     1.0000 0.96487  0.66190  0.69650  Biso   1.000  O
  N585     1.0000 0.94023  0.70927  0.83206  Biso   1.000  N
  N586     1.0000 0.95920  0.72957  0.00868  Biso   1.000  N
  O291     1.0000 0.01280  0.71113  0.14151  Biso   1.000  O
  N587     1.0000 0.20899  0.43914  0.83321  Biso   1.000  N
  O292     1.0000 0.15830  0.46329  0.70084  Biso   1.000  O
  O293     1.0000 0.15830  0.46329  0.70076  Biso   1.000  O
  O294     1.0000 0.15826  0.46329  0.70084  Biso   1.000  O
  O295     1.0000 0.15826  0.46329  0.70076  Biso   1.000  O
  C865     1.0000 0.24420  0.46109  0.90427  Biso   1.000  C
  C866     1.0000 0.24416  0.46109  0.90427  Biso   1.000  C
  H918     1.0000 0.27140  0.53249  0.86093  Biso   1.000  H
  H919     1.0000 0.27136  0.53249  0.86093  Biso   1.000  H
  N588     1.0000 0.22910  0.45810  0.01051  Biso   1.000  N
  N589     1.0000 0.22906  0.45810  0.01051  Biso   1.000  N
  O296     1.0000 0.21060  0.51088  0.14318  Biso   1.000  O
  O297     1.0000 0.21056  0.51088  0.14318  Biso   1.000  O
  H920     1.0000 0.95146  0.77840  0.88972  Biso   1.000  H
  H921     1.0000 0.95150  0.77840  0.88972  Biso   1.000  H
  C867     1.0000 0.88556  0.70800  0.81234  Biso   1.000  C
  C868     1.0000 0.88556  0.70800  0.81226  Biso   1.000  C
  C869     1.0000 0.91437  0.73827  0.07091  Biso   1.000  C
  C870     1.0000 0.20661  0.38617  0.81401  Biso   1.000  C
  C871     1.0000 0.20657  0.38617  0.81401  Biso   1.000  C
  H922     1.0000 0.27940  0.44940  0.89353  Biso   1.000  H
  H923     1.0000 0.27937  0.44940  0.89353  Biso   1.000  H
  C872     1.0000 0.23879  0.41450  0.07220  Biso   1.000  C
  H924     1.0000 0.87970  0.69430  0.74494  Biso   1.000  H
  H925     1.0000 0.87235  0.74189  0.81287  Biso   1.000  H
  N590     1.0000 0.85741  0.67821  0.88698  Biso   1.000  N
  H926     1.0000 0.87970  0.69430  0.74486  Biso   1.000  H
  H927     1.0000 0.87966  0.69430  0.74494  Biso   1.000  H
  H928     1.0000 0.87239  0.74189  0.81287  Biso   1.000  H
  N591     1.0000 0.85737  0.67821  0.88698  Biso   1.000  N
  H929     1.0000 0.87966  0.69430  0.74486  Biso   1.000  H
  N592     1.0000 0.87572  0.70076  0.06222  Biso   1.000  N
  H930     1.0000 0.89966  0.77030  0.05202  Biso   1.000  H
  H931     1.0000 0.92487  0.74058  0.14158  Biso   1.000  H
  N593     1.0000 0.87568  0.70076  0.06222  Biso   1.000  N
  H932     1.0000 0.89970  0.77030  0.05202  Biso   1.000  H
  N594     1.0000 0.17780  0.35870  0.88842  Biso   1.000  N
  N595     1.0000 0.17776  0.35870  0.88842  Biso   1.000  N
  H933     1.0000 0.19140  0.38080  0.74752  Biso   1.000  H
  H934     1.0000 0.24128  0.37311  0.81203  Biso   1.000  H
  H935     1.0000 0.24128  0.37311  0.81196  Biso   1.000  H
  H936     1.0000 0.19136  0.38080  0.74752  Biso   1.000  H
  N596     1.0000 0.20129  0.37591  0.06413  Biso   1.000  N
  N597     1.0000 0.20133  0.37591  0.06413  Biso   1.000  N
  H937     1.0000 0.24090  0.42481  0.14288  Biso   1.000  H
  H938     1.0000 0.27189  0.40081  0.05339  Biso   1.000  H
  H939     1.0000 0.27186  0.40081  0.05339  Biso   1.000  H
  C873     1.0000 0.83040  0.63637  0.85788  Biso   1.000  C
  C874     1.0000 0.83817  0.69859  0.97989  Biso   1.000  C
  C875     1.0000 0.86369  0.66959  0.14052  Biso   1.000  C
  C876     1.0000 0.13631  0.33041  0.85948  Biso   1.000  C
  C877     1.0000 0.13627  0.33041  0.85948  Biso   1.000  C
  C878     1.0000 0.20048  0.33959  0.98210  Biso   1.000  C
  C879     1.0000 0.16960  0.36359  0.14212  Biso   1.000  C
  C880     1.0000 0.16957  0.36359  0.14212  Biso   1.000  C
  N598     1.0000 0.79871  0.62409  0.93587  Biso   1.000  N
  N599     1.0000 0.79867  0.62409  0.93587  Biso   1.000  N
  O298     1.0000 0.83381  0.61446  0.77662  Biso   1.000  O
  O299     1.0000 0.83377  0.61446  0.77662  Biso   1.000  O
  C881     1.0000 0.79952  0.66037  0.01790  Biso   1.000  C
  C882     1.0000 0.79948  0.66037  0.01790  Biso   1.000  C
  H940     1.0000 0.82212  0.73110  0.96870  Biso   1.000  H
  H941     1.0000 0.82208  0.73110  0.96870  Biso   1.000  H
  N600     1.0000 0.82216  0.64130  0.11158  Biso   1.000  N
  N601     1.0000 0.82220  0.64130  0.11158  Biso   1.000  N
  O300     1.0000 0.88637  0.66649  0.21980  Biso   1.000  O
  O301     1.0000 0.11359  0.33351  0.78020  Biso   1.000  O
  N602     1.0000 0.12428  0.29920  0.93778  Biso   1.000  N
  C883     1.0000 0.16179  0.30141  0.02011  Biso   1.000  C
  H942     1.0000 0.23431  0.32470  0.97037  Biso   1.000  H
  H943     1.0000 0.23427  0.32470  0.97037  Biso   1.000  H
  N603     1.0000 0.14259  0.32179  0.11302  Biso   1.000  N
  O302     1.0000 0.16619  0.38550  0.22338  Biso   1.000  O
  C884     1.0000 0.76121  0.58550  0.92780  Biso   1.000  C
  C885     1.0000 0.76117  0.58550  0.92780  Biso   1.000  C
  H944     1.0000 0.76569  0.67530  0.02963  Biso   1.000  H
  C886     1.0000 0.79339  0.61379  0.18599  Biso   1.000  C
  C887     1.0000 0.08559  0.26169  0.92909  Biso   1.000  C
  H945     1.0000 0.17788  0.26890  0.03130  Biso   1.000  H
  C888     1.0000 0.11440  0.29200  0.18766  Biso   1.000  C
  C889     1.0000 0.11444  0.29200  0.18766  Biso   1.000  C
  N604     1.0000 0.77086  0.54190  0.98949  Biso   1.000  N
  N605     1.0000 0.77090  0.54190  0.98949  Biso   1.000  N
  H946     1.0000 0.75910  0.57519  0.85712  Biso   1.000  H
  H947     1.0000 0.72811  0.59919  0.94661  Biso   1.000  H
  N606     1.0000 0.79097  0.56082  0.16679  Biso   1.000  N
  H948     1.0000 0.75868  0.62689  0.18797  Biso   1.000  H
  H949     1.0000 0.80856  0.61920  0.25248  Biso   1.000  H
  H950     1.0000 0.80860  0.61920  0.25248  Biso   1.000  H
  H951     1.0000 0.10030  0.22970  0.94798  Biso   1.000  H
  H952     1.0000 0.07509  0.25938  0.85842  Biso   1.000  H
  N607     1.0000 0.04080  0.27039  0.99132  Biso   1.000  N
  H953     1.0000 0.10026  0.22970  0.94798  Biso   1.000  H
  N608     1.0000 0.04076  0.27039  0.99132  Biso   1.000  N
  N609     1.0000 0.05973  0.29069  0.16794  Biso   1.000  N
  N610     1.0000 0.05973  0.29069  0.16786  Biso   1.000  N
  H954     1.0000 0.12030  0.30570  0.25506  Biso   1.000  H
  H955     1.0000 0.12761  0.25811  0.18713  Biso   1.000  H
  H956     1.0000 0.12758  0.25811  0.18713  Biso   1.000  H
  C890     1.0000 0.78029  0.49789  0.94699  Biso   1.000  C
  C891     1.0000 0.75577  0.53887  0.09573  Biso   1.000  C
  C892     1.0000 0.75577  0.53887  0.09566  Biso   1.000  C
  C893     1.0000 0.75580  0.53887  0.09573  Biso   1.000  C
  C894     1.0000 0.75580  0.53887  0.09566  Biso   1.000  C
  C895     1.0000 0.81400  0.52738  0.22856  Biso   1.000  C
  C896     1.0000 0.99475  0.27961  0.94813  Biso   1.000  C
  C897     1.0000 0.99475  0.27961  0.94806  Biso   1.000  C
  C898     1.0000 0.99479  0.27961  0.94813  Biso   1.000  C
  C899     1.0000 0.99479  0.27961  0.94806  Biso   1.000  C
  C900     1.0000 0.03682  0.25579  0.09848  Biso   1.000  C
  C901     1.0000 0.02552  0.31268  0.23206  Biso   1.000  C
  C902     1.0000 0.02548  0.31268  0.23206  Biso   1.000  C
  N611     1.0000 0.77711  0.46090  0.02292  Biso   1.000  N
  N612     1.0000 0.77707  0.46090  0.02292  Biso   1.000  N
  O303     1.0000 0.78936  0.48908  0.85682  Biso   1.000  O
  O304     1.0000 0.78940  0.48908  0.85682  Biso   1.000  O
  C903     1.0000 0.76121  0.48188  0.11653  Biso   1.000  C
  C904     1.0000 0.76117  0.48188  0.11653  Biso   1.000  C
  H957     1.0000 0.72056  0.55060  0.10647  Biso   1.000  H
  H958     1.0000 0.72060  0.55060  0.10647  Biso   1.000  H
  N613     1.0000 0.79929  0.47990  0.19703  Biso   1.000  N
  N614     1.0000 0.79929  0.47990  0.19695  Biso   1.000  N
  O305     1.0000 0.84170  0.53667  0.29916  Biso   1.000  O
  O306     1.0000 0.98717  0.28887  0.85849  Biso   1.000  O
  N615     1.0000 0.95778  0.27830  0.02437  Biso   1.000  N
  C905     1.0000 0.97866  0.26210  0.11820  Biso   1.000  C
  C906     1.0000 0.97870  0.26210  0.11820  Biso   1.000  C
  H959     1.0000 0.04850  0.22160  0.11028  Biso   1.000  H
  H960     1.0000 0.04846  0.22160  0.11028  Biso   1.000  H
  N616     1.0000 0.97686  0.29868  0.20008  Biso   1.000  N
  N617     1.0000 0.97690  0.29868  0.20008  Biso   1.000  N
  O307     1.0000 0.03509  0.33810  0.30350  Biso   1.000  O
  C907     1.0000 0.77580  0.40850  0.99977  Biso   1.000  C
  H961     1.0000 0.72860  0.46751  0.13907  Biso   1.000  H
  C908     1.0000 0.80557  0.43600  0.26062  Biso   1.000  C
  C909     1.0000 0.90277  0.27849  0.00122  Biso   1.000  C
  H962     1.0000 0.96326  0.23041  0.13983  Biso   1.000  H
  H963     1.0000 0.96326  0.23041  0.13976  Biso   1.000  H
  H964     1.0000 0.96330  0.23041  0.13983  Biso   1.000  H
  H965     1.0000 0.96330  0.23041  0.13976  Biso   1.000  H
  C910     1.0000 0.93276  0.30510  0.26367  Biso   1.000  C
  N618     1.0000 0.81810  0.38050  0.04151  Biso   1.000  N
  H966     1.0000 0.77569  0.40439  0.92643  Biso   1.000  H
  H967     1.0000 0.74408  0.39461  0.02567  Biso   1.000  H
  N619     1.0000 0.83752  0.39898  0.21820  Biso   1.000  N
  N620     1.0000 0.83748  0.39898  0.21820  Biso   1.000  N
  H968     1.0000 0.81990  0.44631  0.32551  Biso   1.000  H
  H969     1.0000 0.77216  0.42160  0.27357  Biso   1.000  H
  H970     1.0000 0.77220  0.42160  0.27357  Biso   1.000  H
  H971     1.0000 0.89805  0.27819  0.92788  Biso   1.000  H
  H972     1.0000 0.89809  0.27819  0.92788  Biso   1.000  H
  H973     1.0000 0.88717  0.24848  0.02848  Biso   1.000  H
  N621     1.0000 0.87779  0.32070  0.04242  Biso   1.000  N
  H974     1.0000 0.94349  0.31869  0.32887  Biso   1.000  H
  H975     1.0000 0.91725  0.27278  0.27616  Biso   1.000  H
  N622     1.0000 0.89487  0.33810  0.21858  Biso   1.000  N
  H976     1.0000 0.91729  0.27278  0.27616  Biso   1.000  H
  C911     1.0000 0.85032  0.35348  0.98111  Biso   1.000  C
  C912     1.0000 0.85028  0.35348  0.98111  Biso   1.000  C
  C913     1.0000 0.81775  0.36300  0.14638  Biso   1.000  C
  C914     1.0000 0.81779  0.36300  0.14638  Biso   1.000  C
  C915     1.0000 0.87928  0.38128  0.26794  Biso   1.000  C
  C916     1.0000 0.87928  0.38128  0.26786  Biso   1.000  C
  C917     1.0000 0.85852  0.32149  0.14577  Biso   1.000  C
  C918     1.0000 0.85848  0.32149  0.14577  Biso   1.000  C
  O308     1.0000 0.85522  0.35758  0.89117  Biso   1.000  O
  O309     1.0000 0.85518  0.35758  0.89117  Biso   1.000  O
  H977     1.0000 0.78396  0.35038  0.16657  Biso   1.000  H
  H978     1.0000 0.78400  0.35038  0.16657  Biso   1.000  H
  O310     1.0000 0.90219  0.40129  0.33732  Biso   1.000  O
  H979     1.0000 0.84365  0.28920  0.16512  Biso   1.000  H
  H980     1.0000 0.84369  0.28920  0.16512  Biso   1.000  H
  C919     1.0000 0.14148  0.67847  0.85423  Biso   1.000  C
  C920     1.0000 0.18221  0.63700  0.85362  Biso   1.000  C
  C921     1.0000 0.18217  0.63700  0.85362  Biso   1.000  C
  N623     1.0000 0.10509  0.66190  0.78142  Biso   1.000  N
  H981     1.0000 0.15631  0.71080  0.83488  Biso   1.000  H
  N624     1.0000 0.12221  0.67930  0.95758  Biso   1.000  N
  H982     1.0000 0.15627  0.71080  0.83488  Biso   1.000  H
  N625     1.0000 0.12217  0.67930  0.95758  Biso   1.000  N
  N626     1.0000 0.16248  0.60099  0.78180  Biso   1.000  N
  N627     1.0000 0.18190  0.61950  0.95849  Biso   1.000  N
  N628     1.0000 0.18186  0.61950  0.95849  Biso   1.000  N
  H983     1.0000 0.21600  0.64958  0.83343  Biso   1.000  H
  H984     1.0000 0.21600  0.64958  0.83336  Biso   1.000  H
  H985     1.0000 0.21596  0.64958  0.83343  Biso   1.000  H
  H986     1.0000 0.21596  0.64958  0.83336  Biso   1.000  H
  C922     1.0000 0.12068  0.61868  0.73206  Biso   1.000  C
  C923     1.0000 0.06720  0.69490  0.73633  Biso   1.000  C
  C924     1.0000 0.06724  0.69490  0.73633  Biso   1.000  C
  C925     1.0000 0.14968  0.64649  0.01889  Biso   1.000  C
  C926     1.0000 0.09720  0.72147  0.99878  Biso   1.000  C
  C927     1.0000 0.19439  0.56400  0.73938  Biso   1.000  C
  C928     1.0000 0.22420  0.59150  0.00023  Biso   1.000  C
  C929     1.0000 0.22416  0.59150  0.00023  Biso   1.000  C
  O311     1.0000 0.09781  0.59867  0.66268  Biso   1.000  O
  O312     1.0000 0.09777  0.59867  0.66268  Biso   1.000  O
  H987     1.0000 0.05651  0.68127  0.67113  Biso   1.000  H
  H988     1.0000 0.08271  0.72718  0.72384  Biso   1.000  H
  N629     1.0000 0.02310  0.70128  0.79992  Biso   1.000  N
  H989     1.0000 0.05651  0.68127  0.67106  Biso   1.000  H
  H990     1.0000 0.08271  0.72718  0.72376  Biso   1.000  H
  H991     1.0000 0.05647  0.68127  0.67113  Biso   1.000  H
  H992     1.0000 0.08268  0.72718  0.72384  Biso   1.000  H
  N630     1.0000 0.02306  0.70128  0.79992  Biso   1.000  N
  H993     1.0000 0.05647  0.68127  0.67106  Biso   1.000  H
  H994     1.0000 0.08268  0.72718  0.72376  Biso   1.000  H
  O313     1.0000 0.14478  0.64238  0.10883  Biso   1.000  O
  O314     1.0000 0.14478  0.64238  0.10876  Biso   1.000  O
  H995     1.0000 0.11279  0.75148  0.97152  Biso   1.000  H
  N631     1.0000 0.04218  0.72170  0.97563  Biso   1.000  N
  H996     1.0000 0.10191  0.72177  0.07212  Biso   1.000  H
  H997     1.0000 0.10187  0.72177  0.07212  Biso   1.000  H
  N632     1.0000 0.20071  0.52010  0.80297  Biso   1.000  N
  N633     1.0000 0.20067  0.52010  0.80297  Biso   1.000  N
  H998     1.0000 0.18010  0.55369  0.67449  Biso   1.000  H
  H999     1.0000 0.22780  0.57840  0.72643  Biso   1.000  H
  H1000    1.0000 0.18006  0.55369  0.67449  Biso   1.000  H
  H1001    1.0000 0.22776  0.57840  0.72643  Biso   1.000  H
  N634     1.0000 0.22289  0.53910  0.97708  Biso   1.000  N
  H1002    1.0000 0.25588  0.60539  0.97433  Biso   1.000  H
  H1003    1.0000 0.25588  0.60539  0.97426  Biso   1.000  H
  H1004    1.0000 0.22431  0.59557  0.07357  Biso   1.000  H
  H1005    1.0000 0.22427  0.59557  0.07357  Biso   1.000  H
  C930     1.0000 0.97445  0.68728  0.76794  Biso   1.000  C
  C931     1.0000 0.97445  0.68728  0.76786  Biso   1.000  C
  C932     1.0000 0.97448  0.68728  0.76794  Biso   1.000  C
  C933     1.0000 0.97448  0.68728  0.76786  Biso   1.000  C
  C934     1.0000 0.02130  0.73790  0.88180  Biso   1.000  C
  C935     1.0000 0.02126  0.73790  0.88180  Biso   1.000  C
  C936     1.0000 0.00521  0.72039  0.05187  Biso   1.000  C
  C937     1.0000 0.00517  0.72039  0.05187  Biso   1.000  C
  C938     1.0000 0.18600  0.47258  0.77144  Biso   1.000  C
  C939     1.0000 0.18600  0.47258  0.77136  Biso   1.000  C
  C940     1.0000 0.18596  0.47258  0.77144  Biso   1.000  C
  C941     1.0000 0.18596  0.47258  0.77136  Biso   1.000  C
  C942     1.0000 0.23879  0.51808  0.88347  Biso   1.000  C
  C943     1.0000 0.21968  0.50211  0.05301  Biso   1.000  C
  N635     1.0000 0.94027  0.70927  0.83206  Biso   1.000  N
  O315     1.0000 0.96487  0.66190  0.69650  Biso   1.000  O
  N636     1.0000 0.94023  0.70927  0.83206  Biso   1.000  N
  C944     1.0000 0.96314  0.74417  0.90152  Biso   1.000  C
  C945     1.0000 0.96318  0.74417  0.90152  Biso   1.000  C
  H1006    1.0000 0.03670  0.76959  0.86017  Biso   1.000  H
  H1007    1.0000 0.03666  0.76959  0.86017  Biso   1.000  H
  N637     1.0000 0.95920  0.72957  0.00868  Biso   1.000  N
  O316     1.0000 0.01280  0.71113  0.14151  Biso   1.000  O
  N638     1.0000 0.20899  0.43914  0.83321  Biso   1.000  N
  O317     1.0000 0.15830  0.46329  0.70084  Biso   1.000  O
  O318     1.0000 0.15830  0.46329  0.70076  Biso   1.000  O
  O319     1.0000 0.15826  0.46329  0.70084  Biso   1.000  O
  O320     1.0000 0.15826  0.46329  0.70076  Biso   1.000  O
  C946     1.0000 0.24420  0.46109  0.90427  Biso   1.000  C
  C947     1.0000 0.24416  0.46109  0.90427  Biso   1.000  C
  H1008    1.0000 0.27140  0.53249  0.86093  Biso   1.000  H
  H1009    1.0000 0.27136  0.53249  0.86093  Biso   1.000  H
  N639     1.0000 0.22910  0.45810  0.01051  Biso   1.000  N
  N640     1.0000 0.22906  0.45810  0.01051  Biso   1.000  N
  O321     1.0000 0.21060  0.51088  0.14318  Biso   1.000  O
  O322     1.0000 0.21056  0.51088  0.14318  Biso   1.000  O
  C948     1.0000 0.88556  0.70800  0.81234  Biso   1.000  C
  C949     1.0000 0.88556  0.70800  0.81226  Biso   1.000  C
  H1010    1.0000 0.95146  0.77840  0.88972  Biso   1.000  H
  H1011    1.0000 0.95150  0.77840  0.88972  Biso   1.000  H
  C950     1.0000 0.91437  0.73827  0.07091  Biso   1.000  C
  C951     1.0000 0.20661  0.38617  0.81401  Biso   1.000  C
  C952     1.0000 0.20657  0.38617  0.81401  Biso   1.000  C
  H1012    1.0000 0.27940  0.44940  0.89353  Biso   1.000  H
  H1013    1.0000 0.27937  0.44940  0.89353  Biso   1.000  H
  C953     1.0000 0.23879  0.41450  0.07220  Biso   1.000  C
  H1014    1.0000 0.87970  0.69430  0.74494  Biso   1.000  H
  H1015    1.0000 0.87235  0.74189  0.81287  Biso   1.000  H
  N641     1.0000 0.85741  0.67821  0.88698  Biso   1.000  N
  H1016    1.0000 0.87970  0.69430  0.74486  Biso   1.000  H
  H1017    1.0000 0.87966  0.69430  0.74494  Biso   1.000  H
  H1018    1.0000 0.87239  0.74189  0.81287  Biso   1.000  H
  N642     1.0000 0.85737  0.67821  0.88698  Biso   1.000  N
  H1019    1.0000 0.87966  0.69430  0.74486  Biso   1.000  H
  N643     1.0000 0.87572  0.70076  0.06222  Biso   1.000  N
  H1020    1.0000 0.89966  0.77030  0.05202  Biso   1.000  H
  H1021    1.0000 0.92487  0.74058  0.14158  Biso   1.000  H
  N644     1.0000 0.87568  0.70076  0.06222  Biso   1.000  N
  H1022    1.0000 0.89970  0.77030  0.05202  Biso   1.000  H
  N645     1.0000 0.17780  0.35870  0.88842  Biso   1.000  N
  N646     1.0000 0.17776  0.35870  0.88842  Biso   1.000  N
  H1023    1.0000 0.24128  0.37311  0.81203  Biso   1.000  H
  H1024    1.0000 0.19140  0.38080  0.74752  Biso   1.000  H
  H1025    1.0000 0.24128  0.37311  0.81196  Biso   1.000  H
  H1026    1.0000 0.19136  0.38080  0.74752  Biso   1.000  H
  N647     1.0000 0.20129  0.37591  0.06413  Biso   1.000  N
  N648     1.0000 0.20133  0.37591  0.06413  Biso   1.000  N
  H1027    1.0000 0.24090  0.42481  0.14288  Biso   1.000  H
  H1028    1.0000 0.27189  0.40081  0.05339  Biso   1.000  H
  H1029    1.0000 0.27186  0.40081  0.05339  Biso   1.000  H
  C954     1.0000 0.83040  0.63637  0.85788  Biso   1.000  C
  C955     1.0000 0.83817  0.69859  0.97989  Biso   1.000  C
  C956     1.0000 0.86369  0.66959  0.14052  Biso   1.000  C
  C957     1.0000 0.13631  0.33041  0.85948  Biso   1.000  C
  C958     1.0000 0.13627  0.33041  0.85948  Biso   1.000  C
  C959     1.0000 0.20048  0.33959  0.98210  Biso   1.000  C
  C960     1.0000 0.16960  0.36359  0.14212  Biso   1.000  C
  C961     1.0000 0.16957  0.36359  0.14212  Biso   1.000  C
  N649     1.0000 0.79871  0.62409  0.93587  Biso   1.000  N
  N650     1.0000 0.79867  0.62409  0.93587  Biso   1.000  N
  O323     1.0000 0.83381  0.61446  0.77662  Biso   1.000  O
  O324     1.0000 0.83377  0.61446  0.77662  Biso   1.000  O
  C962     1.0000 0.79952  0.66037  0.01790  Biso   1.000  C
  C963     1.0000 0.79948  0.66037  0.01790  Biso   1.000  C
  H1030    1.0000 0.82212  0.73110  0.96870  Biso   1.000  H
  H1031    1.0000 0.82208  0.73110  0.96870  Biso   1.000  H
  N651     1.0000 0.82216  0.64130  0.11158  Biso   1.000  N
  N652     1.0000 0.82220  0.64130  0.11158  Biso   1.000  N
  O325     1.0000 0.88637  0.66649  0.21980  Biso   1.000  O
  O326     1.0000 0.11359  0.33351  0.78020  Biso   1.000  O
  N653     1.0000 0.12428  0.29920  0.93778  Biso   1.000  N
  C964     1.0000 0.16179  0.30141  0.02011  Biso   1.000  C
  H1032    1.0000 0.23431  0.32470  0.97037  Biso   1.000  H
  H1033    1.0000 0.23427  0.32470  0.97037  Biso   1.000  H
  N654     1.0000 0.14259  0.32179  0.11302  Biso   1.000  N
  O327     1.0000 0.16619  0.38550  0.22338  Biso   1.000  O
  C965     1.0000 0.76121  0.58550  0.92780  Biso   1.000  C
  C966     1.0000 0.76117  0.58550  0.92780  Biso   1.000  C
  H1034    1.0000 0.76569  0.67530  0.02963  Biso   1.000  H
  C967     1.0000 0.79339  0.61379  0.18599  Biso   1.000  C
  C968     1.0000 0.08559  0.26169  0.92909  Biso   1.000  C
  H1035    1.0000 0.17788  0.26890  0.03130  Biso   1.000  H
  C969     1.0000 0.11440  0.29200  0.18766  Biso   1.000  C
  C970     1.0000 0.11444  0.29200  0.18766  Biso   1.000  C
  N655     1.0000 0.77086  0.54190  0.98949  Biso   1.000  N
  N656     1.0000 0.77090  0.54190  0.98949  Biso   1.000  N
  H1036    1.0000 0.75910  0.57519  0.85712  Biso   1.000  H
  H1037    1.0000 0.72811  0.59919  0.94661  Biso   1.000  H
  N657     1.0000 0.79097  0.56082  0.16679  Biso   1.000  N
  H1038    1.0000 0.75868  0.62689  0.18797  Biso   1.000  H
  H1039    1.0000 0.80856  0.61920  0.25248  Biso   1.000  H
  H1040    1.0000 0.80860  0.61920  0.25248  Biso   1.000  H
  H1041    1.0000 0.07509  0.25938  0.85842  Biso   1.000  H
  H1042    1.0000 0.10030  0.22970  0.94798  Biso   1.000  H
  N658     1.0000 0.04080  0.27039  0.99132  Biso   1.000  N
  H1043    1.0000 0.10026  0.22970  0.94798  Biso   1.000  H
  N659     1.0000 0.04076  0.27039  0.99132  Biso   1.000  N
  N660     1.0000 0.05973  0.29069  0.16794  Biso   1.000  N
  N661     1.0000 0.05973  0.29069  0.16786  Biso   1.000  N
  H1044    1.0000 0.12030  0.30570  0.25506  Biso   1.000  H
  H1045    1.0000 0.12761  0.25811  0.18713  Biso   1.000  H
  H1046    1.0000 0.12758  0.25811  0.18713  Biso   1.000  H
  C971     1.0000 0.78029  0.49789  0.94699  Biso   1.000  C
  C972     1.0000 0.75577  0.53887  0.09573  Biso   1.000  C
  C973     1.0000 0.75577  0.53887  0.09566  Biso   1.000  C
  C974     1.0000 0.75580  0.53887  0.09573  Biso   1.000  C
  C975     1.0000 0.75580  0.53887  0.09566  Biso   1.000  C
  C976     1.0000 0.81400  0.52738  0.22856  Biso   1.000  C
  C977     1.0000 0.99475  0.27961  0.94813  Biso   1.000  C
  C978     1.0000 0.99475  0.27961  0.94806  Biso   1.000  C
  C979     1.0000 0.99479  0.27961  0.94813  Biso   1.000  C
  C980     1.0000 0.99479  0.27961  0.94806  Biso   1.000  C
  C981     1.0000 0.03682  0.25579  0.09848  Biso   1.000  C
  C982     1.0000 0.02552  0.31268  0.23206  Biso   1.000  C
  C983     1.0000 0.02548  0.31268  0.23206  Biso   1.000  C
  N662     1.0000 0.77711  0.46090  0.02292  Biso   1.000  N
  N663     1.0000 0.77707  0.46090  0.02292  Biso   1.000  N
  O328     1.0000 0.78936  0.48908  0.85682  Biso   1.000  O
  O329     1.0000 0.78940  0.48908  0.85682  Biso   1.000  O
  C984     1.0000 0.76121  0.48188  0.11653  Biso   1.000  C
  C985     1.0000 0.76117  0.48188  0.11653  Biso   1.000  C
  H1047    1.0000 0.72056  0.55060  0.10647  Biso   1.000  H
  H1048    1.0000 0.72060  0.55060  0.10647  Biso   1.000  H
  N664     1.0000 0.79929  0.47990  0.19703  Biso   1.000  N
  N665     1.0000 0.79929  0.47990  0.19695  Biso   1.000  N
  O330     1.0000 0.84170  0.53667  0.29916  Biso   1.000  O
  O331     1.0000 0.98717  0.28887  0.85849  Biso   1.000  O
  N666     1.0000 0.95778  0.27830  0.02437  Biso   1.000  N
  C986     1.0000 0.97866  0.26210  0.11820  Biso   1.000  C
  C987     1.0000 0.97870  0.26210  0.11820  Biso   1.000  C
  H1049    1.0000 0.04850  0.22160  0.11028  Biso   1.000  H
  H1050    1.0000 0.04846  0.22160  0.11028  Biso   1.000  H
  N667     1.0000 0.97686  0.29868  0.20008  Biso   1.000  N
  N668     1.0000 0.97690  0.29868  0.20008  Biso   1.000  N
  O332     1.0000 0.03509  0.33810  0.30350  Biso   1.000  O
  C988     1.0000 0.77580  0.40850  0.99977  Biso   1.000  C
  H1051    1.0000 0.72860  0.46751  0.13907  Biso   1.000  H
  C989     1.0000 0.80557  0.43600  0.26062  Biso   1.000  C
  C990     1.0000 0.90277  0.27849  0.00122  Biso   1.000  C
  H1052    1.0000 0.96326  0.23041  0.13983  Biso   1.000  H
  H1053    1.0000 0.96326  0.23041  0.13976  Biso   1.000  H
  H1054    1.0000 0.96330  0.23041  0.13983  Biso   1.000  H
  H1055    1.0000 0.96330  0.23041  0.13976  Biso   1.000  H
  C991     1.0000 0.93276  0.30510  0.26367  Biso   1.000  C
  N669     1.0000 0.81810  0.38050  0.04151  Biso   1.000  N
  H1056    1.0000 0.77569  0.40439  0.92643  Biso   1.000  H
  H1057    1.0000 0.74408  0.39461  0.02567  Biso   1.000  H
  N670     1.0000 0.83752  0.39898  0.21820  Biso   1.000  N
  N671     1.0000 0.83748  0.39898  0.21820  Biso   1.000  N
  H1058    1.0000 0.81990  0.44631  0.32551  Biso   1.000  H
  H1059    1.0000 0.77216  0.42160  0.27357  Biso   1.000  H
  H1060    1.0000 0.77220  0.42160  0.27357  Biso   1.000  H
  H1061    1.0000 0.89805  0.27819  0.92788  Biso   1.000  H
  H1062    1.0000 0.89809  0.27819  0.92788  Biso   1.000  H
  H1063    1.0000 0.88717  0.24848  0.02848  Biso   1.000  H
  N672     1.0000 0.87779  0.32070  0.04242  Biso   1.000  N
  H1064    1.0000 0.94349  0.31869  0.32887  Biso   1.000  H
  H1065    1.0000 0.91725  0.27278  0.27616  Biso   1.000  H
  N673     1.0000 0.89487  0.33810  0.21858  Biso   1.000  N
  H1066    1.0000 0.91729  0.27278  0.27616  Biso   1.000  H
  C992     1.0000 0.85032  0.35348  0.98111  Biso   1.000  C
  C993     1.0000 0.85028  0.35348  0.98111  Biso   1.000  C
  C994     1.0000 0.81775  0.36300  0.14638  Biso   1.000  C
  C995     1.0000 0.81779  0.36300  0.14638  Biso   1.000  C
  C996     1.0000 0.87928  0.38128  0.26794  Biso   1.000  C
  C997     1.0000 0.87928  0.38128  0.26786  Biso   1.000  C
  C998     1.0000 0.85852  0.32149  0.14577  Biso   1.000  C
  C999     1.0000 0.85848  0.32149  0.14577  Biso   1.000  C
  O333     1.0000 0.85522  0.35758  0.89117  Biso   1.000  O
  O334     1.0000 0.85518  0.35758  0.89117  Biso   1.000  O
  H1067    1.0000 0.78396  0.35038  0.16657  Biso   1.000  H
  H1068    1.0000 0.78400  0.35038  0.16657  Biso   1.000  H
  O335     1.0000 0.90219  0.40129  0.33732  Biso   1.000  O
  H1069    1.0000 0.84365  0.28920  0.16512  Biso   1.000  H
  H1070    1.0000 0.84369  0.28920  0.16512  Biso   1.000  H
  C1000    1.0000 0.14148  0.67847  0.85423  Biso   1.000  C
  C1001    1.0000 0.18221  0.63700  0.85362  Biso   1.000  C
  C1002    1.0000 0.18217  0.63700  0.85362  Biso   1.000  C
  N674     1.0000 0.10509  0.66190  0.78142  Biso   1.000  N
  H1071    1.0000 0.15631  0.71080  0.83488  Biso   1.000  H
  N675     1.0000 0.12221  0.67930  0.95758  Biso   1.000  N
  H1072    1.0000 0.15627  0.71080  0.83488  Biso   1.000  H
  N676     1.0000 0.12217  0.67930  0.95758  Biso   1.000  N
  N677     1.0000 0.16248  0.60099  0.78180  Biso   1.000  N
  N678     1.0000 0.18190  0.61950  0.95849  Biso   1.000  N
  N679     1.0000 0.18186  0.61950  0.95849  Biso   1.000  N
  H1073    1.0000 0.21600  0.64958  0.83343  Biso   1.000  H
  H1074    1.0000 0.21600  0.64958  0.83336  Biso   1.000  H
  H1075    1.0000 0.21596  0.64958  0.83343  Biso   1.000  H
  H1076    1.0000 0.21596  0.64958  0.83336  Biso   1.000  H
  C1003    1.0000 0.12068  0.61868  0.73206  Biso   1.000  C
  C1004    1.0000 0.06720  0.69490  0.73633  Biso   1.000  C
  C1005    1.0000 0.06724  0.69490  0.73633  Biso   1.000  C
  C1006    1.0000 0.14968  0.64649  0.01889  Biso   1.000  C
  C1007    1.0000 0.09720  0.72147  0.99878  Biso   1.000  C
  C1008    1.0000 0.19439  0.56400  0.73938  Biso   1.000  C
  C1009    1.0000 0.22420  0.59150  0.00023  Biso   1.000  C
  C1010    1.0000 0.22416  0.59150  0.00023  Biso   1.000  C
  O336     1.0000 0.09781  0.59867  0.66268  Biso   1.000  O
  O337     1.0000 0.09777  0.59867  0.66268  Biso   1.000  O
  H1077    1.0000 0.05651  0.68127  0.67113  Biso   1.000  H
  H1078    1.0000 0.08271  0.72718  0.72384  Biso   1.000  H
  N680     1.0000 0.02310  0.70128  0.79992  Biso   1.000  N
  H1079    1.0000 0.05651  0.68127  0.67106  Biso   1.000  H
  H1080    1.0000 0.08271  0.72718  0.72376  Biso   1.000  H
  H1081    1.0000 0.05647  0.68127  0.67113  Biso   1.000  H
  H1082    1.0000 0.08268  0.72718  0.72384  Biso   1.000  H
  N681     1.0000 0.02306  0.70128  0.79992  Biso   1.000  N
  H1083    1.0000 0.05647  0.68127  0.67106  Biso   1.000  H
  H1084    1.0000 0.08268  0.72718  0.72376  Biso   1.000  H
  O338     1.0000 0.14478  0.64238  0.10883  Biso   1.000  O
  O339     1.0000 0.14478  0.64238  0.10876  Biso   1.000  O
  H1085    1.0000 0.11279  0.75148  0.97152  Biso   1.000  H
  N682     1.0000 0.04218  0.72170  0.97563  Biso   1.000  N
  H1086    1.0000 0.10191  0.72177  0.07212  Biso   1.000  H
  H1087    1.0000 0.10187  0.72177  0.07212  Biso   1.000  H
  N683     1.0000 0.20071  0.52010  0.80297  Biso   1.000  N
  N684     1.0000 0.20067  0.52010  0.80297  Biso   1.000  N
  H1088    1.0000 0.18010  0.55369  0.67449  Biso   1.000  H
  H1089    1.0000 0.22780  0.57840  0.72643  Biso   1.000  H
  H1090    1.0000 0.18006  0.55369  0.67449  Biso   1.000  H
  H1091    1.0000 0.22776  0.57840  0.72643  Biso   1.000  H
  N685     1.0000 0.22289  0.53910  0.97708  Biso   1.000  N
  H1092    1.0000 0.25588  0.60539  0.97433  Biso   1.000  H
  H1093    1.0000 0.25588  0.60539  0.97426  Biso   1.000  H
  H1094    1.0000 0.22431  0.59557  0.07357  Biso   1.000  H
  H1095    1.0000 0.22427  0.59557  0.07357  Biso   1.000  H
  C1011    1.0000 0.97445  0.68728  0.76794  Biso   1.000  C
  C1012    1.0000 0.97445  0.68728  0.76786  Biso   1.000  C
  C1013    1.0000 0.97448  0.68728  0.76794  Biso   1.000  C
  C1014    1.0000 0.97448  0.68728  0.76786  Biso   1.000  C
  C1015    1.0000 0.02130  0.73790  0.88180  Biso   1.000  C
  C1016    1.0000 0.02126  0.73790  0.88180  Biso   1.000  C
  C1017    1.0000 0.00521  0.72039  0.05187  Biso   1.000  C
  C1018    1.0000 0.00517  0.72039  0.05187  Biso   1.000  C
  C1019    1.0000 0.18600  0.47258  0.77144  Biso   1.000  C
  C1020    1.0000 0.18600  0.47258  0.77136  Biso   1.000  C
  C1021    1.0000 0.18596  0.47258  0.77144  Biso   1.000  C
  C1022    1.0000 0.18596  0.47258  0.77136  Biso   1.000  C
  C1023    1.0000 0.23879  0.51808  0.88347  Biso   1.000  C
  C1024    1.0000 0.21968  0.50211  0.05301  Biso   1.000  C
  N686     1.0000 0.94027  0.70927  0.83206  Biso   1.000  N
  O340     1.0000 0.96487  0.66190  0.69650  Biso   1.000  O
  N687     1.0000 0.94023  0.70927  0.83206  Biso   1.000  N
  C1025    1.0000 0.96314  0.74417  0.90152  Biso   1.000  C
  C1026    1.0000 0.96318  0.74417  0.90152  Biso   1.000  C
  H1096    1.0000 0.03670  0.76959  0.86017  Biso   1.000  H
  H1097    1.0000 0.03666  0.76959  0.86017  Biso   1.000  H
  N688     1.0000 0.95920  0.72957  0.00868  Biso   1.000  N
  O341     1.0000 0.01280  0.71113  0.14151  Biso   1.000  O
  N689     1.0000 0.20899  0.43914  0.83321  Biso   1.000  N
  O342     1.0000 0.15830  0.46329  0.70084  Biso   1.000  O
  O343     1.0000 0.15830  0.46329  0.70076  Biso   1.000  O
  O344     1.0000 0.15826  0.46329  0.70084  Biso   1.000  O
  O345     1.0000 0.15826  0.46329  0.70076  Biso   1.000  O
  C1027    1.0000 0.24420  0.46109  0.90427  Biso   1.000  C
  C1028    1.0000 0.24416  0.46109  0.90427  Biso   1.000  C
  H1098    1.0000 0.27140  0.53249  0.86093  Biso   1.000  H
  H1099    1.0000 0.27136  0.53249  0.86093  Biso   1.000  H
  N690     1.0000 0.22910  0.45810  0.01051  Biso   1.000  N
  N691     1.0000 0.22906  0.45810  0.01051  Biso   1.000  N
  O346     1.0000 0.21060  0.51088  0.14318  Biso   1.000  O
  O347     1.0000 0.21056  0.51088  0.14318  Biso   1.000  O
  C1029    1.0000 0.88556  0.70800  0.81234  Biso   1.000  C
  C1030    1.0000 0.88556  0.70800  0.81226  Biso   1.000  C
  H1100    1.0000 0.95146  0.77840  0.88972  Biso   1.000  H
  H1101    1.0000 0.95150  0.77840  0.88972  Biso   1.000  H
  C1031    1.0000 0.91437  0.73827  0.07091  Biso   1.000  C
  C1032    1.0000 0.20661  0.38617  0.81401  Biso   1.000  C
  C1033    1.0000 0.20657  0.38617  0.81401  Biso   1.000  C
  H1102    1.0000 0.27940  0.44940  0.89353  Biso   1.000  H
  H1103    1.0000 0.27937  0.44940  0.89353  Biso   1.000  H
  C1034    1.0000 0.23879  0.41450  0.07220  Biso   1.000  C
  H1104    1.0000 0.87970  0.69430  0.74494  Biso   1.000  H
  H1105    1.0000 0.87235  0.74189  0.81287  Biso   1.000  H
  N692     1.0000 0.85741  0.67821  0.88698  Biso   1.000  N
  H1106    1.0000 0.87970  0.69430  0.74486  Biso   1.000  H
  H1107    1.0000 0.87966  0.69430  0.74494  Biso   1.000  H
  H1108    1.0000 0.87239  0.74189  0.81287  Biso   1.000  H
  N693     1.0000 0.85737  0.67821  0.88698  Biso   1.000  N
  H1109    1.0000 0.87966  0.69430  0.74486  Biso   1.000  H
  N694     1.0000 0.87572  0.70076  0.06222  Biso   1.000  N
  H1110    1.0000 0.89966  0.77030  0.05202  Biso   1.000  H
  H1111    1.0000 0.92487  0.74058  0.14158  Biso   1.000  H
  N695     1.0000 0.87568  0.70076  0.06222  Biso   1.000  N
  H1112    1.0000 0.89970  0.77030  0.05202  Biso   1.000  H
  N696     1.0000 0.17780  0.35870  0.88842  Biso   1.000  N
  N697     1.0000 0.17776  0.35870  0.88842  Biso   1.000  N
  H1113    1.0000 0.24128  0.37311  0.81203  Biso   1.000  H
  H1114    1.0000 0.19140  0.38080  0.74752  Biso   1.000  H
  H1115    1.0000 0.24128  0.37311  0.81196  Biso   1.000  H
  H1116    1.0000 0.19136  0.38080  0.74752  Biso   1.000  H
  N698     1.0000 0.20129  0.37591  0.06413  Biso   1.000  N
  N699     1.0000 0.20133  0.37591  0.06413  Biso   1.000  N
  H1117    1.0000 0.24090  0.42481  0.14288  Biso   1.000  H
  H1118    1.0000 0.27189  0.40081  0.05339  Biso   1.000  H
  H1119    1.0000 0.27186  0.40081  0.05339  Biso   1.000  H
  C1035    1.0000 0.83040  0.63637  0.85788  Biso   1.000  C
  C1036    1.0000 0.83817  0.69859  0.97989  Biso   1.000  C
  C1037    1.0000 0.86369  0.66959  0.14052  Biso   1.000  C
  C1038    1.0000 0.13631  0.33041  0.85948  Biso   1.000  C
  C1039    1.0000 0.13627  0.33041  0.85948  Biso   1.000  C
  C1040    1.0000 0.20048  0.33959  0.98210  Biso   1.000  C
  C1041    1.0000 0.16960  0.36359  0.14212  Biso   1.000  C
  C1042    1.0000 0.16957  0.36359  0.14212  Biso   1.000  C
  N700     1.0000 0.79871  0.62409  0.93587  Biso   1.000  N
  N701     1.0000 0.79867  0.62409  0.93587  Biso   1.000  N
  O348     1.0000 0.83381  0.61446  0.77662  Biso   1.000  O
  O349     1.0000 0.83377  0.61446  0.77662  Biso   1.000  O
  C1043    1.0000 0.79952  0.66037  0.01790  Biso   1.000  C
  C1044    1.0000 0.79948  0.66037  0.01790  Biso   1.000  C
  H1120    1.0000 0.82212  0.73110  0.96870  Biso   1.000  H
  H1121    1.0000 0.82208  0.73110  0.96870  Biso   1.000  H
  N702     1.0000 0.82216  0.64130  0.11158  Biso   1.000  N
  N703     1.0000 0.82220  0.64130  0.11158  Biso   1.000  N
  O350     1.0000 0.88637  0.66649  0.21980  Biso   1.000  O
  O351     1.0000 0.11359  0.33351  0.78020  Biso   1.000  O
  N704     1.0000 0.12428  0.29920  0.93778  Biso   1.000  N
  C1045    1.0000 0.16179  0.30141  0.02011  Biso   1.000  C
  H1122    1.0000 0.23431  0.32470  0.97037  Biso   1.000  H
  H1123    1.0000 0.23427  0.32470  0.97037  Biso   1.000  H
  N705     1.0000 0.14259  0.32179  0.11302  Biso   1.000  N
  O352     1.0000 0.16619  0.38550  0.22338  Biso   1.000  O
  C1046    1.0000 0.76121  0.58550  0.92780  Biso   1.000  C
  C1047    1.0000 0.76117  0.58550  0.92780  Biso   1.000  C
  H1124    1.0000 0.76569  0.67530  0.02963  Biso   1.000  H
  C1048    1.0000 0.79339  0.61379  0.18599  Biso   1.000  C
  C1049    1.0000 0.08559  0.26169  0.92909  Biso   1.000  C
  H1125    1.0000 0.17788  0.26890  0.03130  Biso   1.000  H
  C1050    1.0000 0.11440  0.29200  0.18766  Biso   1.000  C
  C1051    1.0000 0.11444  0.29200  0.18766  Biso   1.000  C
  N706     1.0000 0.77086  0.54190  0.98949  Biso   1.000  N
  N707     1.0000 0.77090  0.54190  0.98949  Biso   1.000  N
  H1126    1.0000 0.75910  0.57519  0.85712  Biso   1.000  H
  H1127    1.0000 0.72811  0.59919  0.94661  Biso   1.000  H
  N708     1.0000 0.79097  0.56082  0.16679  Biso   1.000  N
  H1128    1.0000 0.75868  0.62689  0.18797  Biso   1.000  H
  H1129    1.0000 0.80856  0.61920  0.25248  Biso   1.000  H
  H1130    1.0000 0.80860  0.61920  0.25248  Biso   1.000  H
  H1131    1.0000 0.07509  0.25938  0.85842  Biso   1.000  H
  H1132    1.0000 0.10030  0.22970  0.94798  Biso   1.000  H
  N709     1.0000 0.04080  0.27039  0.99132  Biso   1.000  N
  H1133    1.0000 0.10026  0.22970  0.94798  Biso   1.000  H
  N710     1.0000 0.04076  0.27039  0.99132  Biso   1.000  N
  N711     1.0000 0.05973  0.29069  0.16794  Biso   1.000  N
  N712     1.0000 0.05973  0.29069  0.16786  Biso   1.000  N
  H1134    1.0000 0.12030  0.30570  0.25506  Biso   1.000  H
  H1135    1.0000 0.12761  0.25811  0.18713  Biso   1.000  H
  H1136    1.0000 0.12758  0.25811  0.18713  Biso   1.000  H
  C1052    1.0000 0.78029  0.49789  0.94699  Biso   1.000  C
  C1053    1.0000 0.75577  0.53887  0.09573  Biso   1.000  C
  C1054    1.0000 0.75577  0.53887  0.09566  Biso   1.000  C
  C1055    1.0000 0.75580  0.53887  0.09573  Biso   1.000  C
  C1056    1.0000 0.75580  0.53887  0.09566  Biso   1.000  C
  C1057    1.0000 0.81400  0.52738  0.22856  Biso   1.000  C
  C1058    1.0000 0.99475  0.27961  0.94813  Biso   1.000  C
  C1059    1.0000 0.99475  0.27961  0.94806  Biso   1.000  C
  C1060    1.0000 0.99479  0.27961  0.94813  Biso   1.000  C
  C1061    1.0000 0.99479  0.27961  0.94806  Biso   1.000  C
  C1062    1.0000 0.03682  0.25579  0.09848  Biso   1.000  C
  C1063    1.0000 0.02552  0.31268  0.23206  Biso   1.000  C
  C1064    1.0000 0.02548  0.31268  0.23206  Biso   1.000  C
  N713     1.0000 0.77711  0.46090  0.02292  Biso   1.000  N
  N714     1.0000 0.77707  0.46090  0.02292  Biso   1.000  N
  O353     1.0000 0.78936  0.48908  0.85682  Biso   1.000  O
  O354     1.0000 0.78940  0.48908  0.85682  Biso   1.000  O
  C1065    1.0000 0.76121  0.48188  0.11653  Biso   1.000  C
  C1066    1.0000 0.76117  0.48188  0.11653  Biso   1.000  C
  H1137    1.0000 0.72056  0.55060  0.10647  Biso   1.000  H
  H1138    1.0000 0.72060  0.55060  0.10647  Biso   1.000  H
  N715     1.0000 0.79929  0.47990  0.19703  Biso   1.000  N
  N716     1.0000 0.79929  0.47990  0.19695  Biso   1.000  N
  O355     1.0000 0.84170  0.53667  0.29916  Biso   1.000  O
  O356     1.0000 0.98717  0.28887  0.85849  Biso   1.000  O
  N717     1.0000 0.95778  0.27830  0.02437  Biso   1.000  N
  C1067    1.0000 0.97866  0.26210  0.11820  Biso   1.000  C
  C1068    1.0000 0.97870  0.26210  0.11820  Biso   1.000  C
  H1139    1.0000 0.04850  0.22160  0.11028  Biso   1.000  H
  H1140    1.0000 0.04846  0.22160  0.11028  Biso   1.000  H
  N718     1.0000 0.97686  0.29868  0.20008  Biso   1.000  N
  N719     1.0000 0.97690  0.29868  0.20008  Biso   1.000  N
  O357     1.0000 0.03509  0.33810  0.30350  Biso   1.000  O
  C1069    1.0000 0.77580  0.40850  0.99977  Biso   1.000  C
  H1141    1.0000 0.72860  0.46751  0.13907  Biso   1.000  H
  C1070    1.0000 0.80557  0.43600  0.26062  Biso   1.000  C
  C1071    1.0000 0.90277  0.27849  0.00122  Biso   1.000  C
  H1142    1.0000 0.96326  0.23041  0.13983  Biso   1.000  H
  H1143    1.0000 0.96326  0.23041  0.13976  Biso   1.000  H
  H1144    1.0000 0.96330  0.23041  0.13983  Biso   1.000  H
  H1145    1.0000 0.96330  0.23041  0.13976  Biso   1.000  H
  C1072    1.0000 0.93276  0.30510  0.26367  Biso   1.000  C
  N720     1.0000 0.81810  0.38050  0.04151  Biso   1.000  N
  H1146    1.0000 0.77569  0.40439  0.92643  Biso   1.000  H
  H1147    1.0000 0.74408  0.39461  0.02567  Biso   1.000  H
  N721     1.0000 0.83752  0.39898  0.21820  Biso   1.000  N
  N722     1.0000 0.83748  0.39898  0.21820  Biso   1.000  N
  H1148    1.0000 0.81990  0.44631  0.32551  Biso   1.000  H
  H1149    1.0000 0.77216  0.42160  0.27357  Biso   1.000  H
  H1150    1.0000 0.77220  0.42160  0.27357  Biso   1.000  H
  H1151    1.0000 0.89805  0.27819  0.92788  Biso   1.000  H
  H1152    1.0000 0.89809  0.27819  0.92788  Biso   1.000  H
  H1153    1.0000 0.88717  0.24848  0.02848  Biso   1.000  H
  N723     1.0000 0.87779  0.32070  0.04242  Biso   1.000  N
  H1154    1.0000 0.94349  0.31869  0.32887  Biso   1.000  H
  H1155    1.0000 0.91725  0.27278  0.27616  Biso   1.000  H
  N724     1.0000 0.89487  0.33810  0.21858  Biso   1.000  N
  H1156    1.0000 0.91729  0.27278  0.27616  Biso   1.000  H
  C1073    1.0000 0.85032  0.35348  0.98111  Biso   1.000  C
  C1074    1.0000 0.85028  0.35348  0.98111  Biso   1.000  C
  C1075    1.0000 0.81775  0.36300  0.14638  Biso   1.000  C
  C1076    1.0000 0.81779  0.36300  0.14638  Biso   1.000  C
  C1077    1.0000 0.87928  0.38128  0.26794  Biso   1.000  C
  C1078    1.0000 0.87928  0.38128  0.26786  Biso   1.000  C
  C1079    1.0000 0.85852  0.32149  0.14577  Biso   1.000  C
  C1080    1.0000 0.85848  0.32149  0.14577  Biso   1.000  C
  O358     1.0000 0.85522  0.35758  0.89117  Biso   1.000  O
  O359     1.0000 0.85518  0.35758  0.89117  Biso   1.000  O
  H1157    1.0000 0.78396  0.35038  0.16657  Biso   1.000  H
  H1158    1.0000 0.78400  0.35038  0.16657  Biso   1.000  H
  O360     1.0000 0.90219  0.40129  0.33732  Biso   1.000  O
  H1159    1.0000 0.84365  0.28920  0.16512  Biso   1.000  H
  H1160    1.0000 0.84369  0.28920  0.16512  Biso   1.000  H
  O361     1.0000 0.35518  0.64238  0.60876  Biso   1.000  O
  C1081    1.0000 0.35028  0.64649  0.51889  Biso   1.000  C
  N725     1.0000 0.31810  0.61950  0.45849  Biso   1.000  N
  N726     1.0000 0.37779  0.67930  0.45758  Biso   1.000  N
  C1082    1.0000 0.27580  0.59150  0.50023  Biso   1.000  C
  C1083    1.0000 0.31779  0.63700  0.35362  Biso   1.000  C
  C1084    1.0000 0.35848  0.67847  0.35423  Biso   1.000  C
  C1085    1.0000 0.40280  0.72147  0.49878  Biso   1.000  C
  N727     1.0000 0.27711  0.53910  0.47708  Biso   1.000  N
  H1161    1.0000 0.27569  0.59557  0.57357  Biso   1.000  H
  H1162    1.0000 0.24408  0.60539  0.47433  Biso   1.000  H
  N728     1.0000 0.33748  0.60099  0.28180  Biso   1.000  N
  H1163    1.0000 0.28400  0.64958  0.33343  Biso   1.000  H
  N729     1.0000 0.39487  0.66190  0.28142  Biso   1.000  N
  H1164    1.0000 0.34369  0.71080  0.33488  Biso   1.000  H
  H1165    1.0000 0.39809  0.72177  0.57212  Biso   1.000  H
  H1166    1.0000 0.38721  0.75148  0.47152  Biso   1.000  H
  N730     1.0000 0.45778  0.72170  0.47563  Biso   1.000  N
  C1086    1.0000 0.26121  0.51808  0.38347  Biso   1.000  C
  C1087    1.0000 0.28029  0.50211  0.55301  Biso   1.000  C
  C1088    1.0000 0.30561  0.56400  0.23938  Biso   1.000  C
  C1089    1.0000 0.37928  0.61868  0.23206  Biso   1.000  C
  C1090    1.0000 0.43280  0.69490  0.23633  Biso   1.000  C
  C1091    1.0000 0.47870  0.73790  0.38180  Biso   1.000  C
  C1092    1.0000 0.49479  0.72039  0.55187  Biso   1.000  C
  C1093    1.0000 0.25580  0.46109  0.40427  Biso   1.000  C
  N731     1.0000 0.29929  0.52010  0.30297  Biso   1.000  N
  H1167    1.0000 0.22860  0.53249  0.36093  Biso   1.000  H
  N732     1.0000 0.27090  0.45810  0.51051  Biso   1.000  N
  O362     1.0000 0.28940  0.51088  0.64318  Biso   1.000  O
  H1168    1.0000 0.31990  0.55369  0.17449  Biso   1.000  H
  H1169    1.0000 0.27220  0.57840  0.22643  Biso   1.000  H
  O363     1.0000 0.40219  0.59867  0.16268  Biso   1.000  O
  H1170    1.0000 0.44349  0.68127  0.17113  Biso   1.000  H
  H1171    1.0000 0.41729  0.72718  0.22376  Biso   1.000  H
  N733     1.0000 0.47690  0.70128  0.29992  Biso   1.000  N
  C1094    1.0000 0.53678  0.74417  0.40152  Biso   1.000  C
  H1172    1.0000 0.46330  0.76959  0.36017  Biso   1.000  H
  N734     1.0000 0.54080  0.72957  0.50868  Biso   1.000  N
  O364     1.0000 0.48717  0.71113  0.64151  Biso   1.000  O
  N735     1.0000 0.29101  0.43914  0.33321  Biso   1.000  N
  H1173    1.0000 0.22060  0.44940  0.39353  Biso   1.000  H
  C1095    1.0000 0.31400  0.47258  0.27136  Biso   1.000  C
  C1096    1.0000 0.26121  0.41450  0.57220  Biso   1.000  C
  C1097    1.0000 0.52548  0.68728  0.26794  Biso   1.000  C
  N736     1.0000 0.55973  0.70927  0.33206  Biso   1.000  N
  H1174    1.0000 0.54850  0.77840  0.38972  Biso   1.000  H
  C1098    1.0000 0.58559  0.73827  0.57091  Biso   1.000  C
  C1099    1.0000 0.29339  0.38617  0.31401  Biso   1.000  C
  O365     1.0000 0.34170  0.46329  0.20076  Biso   1.000  O
  N737     1.0000 0.29871  0.37591  0.56413  Biso   1.000  N
  H1175    1.0000 0.25910  0.42481  0.64288  Biso   1.000  H
  H1176    1.0000 0.22811  0.40081  0.55339  Biso   1.000  H
  O366     1.0000 0.53509  0.66190  0.19650  Biso   1.000  O
  C1100    1.0000 0.61440  0.70800  0.31226  Biso   1.000  C
  H1177    1.0000 0.60030  0.77030  0.55202  Biso   1.000  H
  H1178    1.0000 0.57509  0.74058  0.64158  Biso   1.000  H
  N738     1.0000 0.62428  0.70076  0.56222  Biso   1.000  N
  N739     1.0000 0.32220  0.35870  0.38842  Biso   1.000  N
  H1179    1.0000 0.25868  0.37311  0.31203  Biso   1.000  H
  H1180    1.0000 0.30860  0.38080  0.24752  Biso   1.000  H
  C1101    1.0000 0.29948  0.33959  0.48210  Biso   1.000  C
  C1102    1.0000 0.33040  0.36359  0.64212  Biso   1.000  C
  H1181    1.0000 0.62030  0.69430  0.24494  Biso   1.000  H
  H1182    1.0000 0.62758  0.74189  0.31287  Biso   1.000  H
  N740     1.0000 0.64259  0.67821  0.38698  Biso   1.000  N
  C1103    1.0000 0.66179  0.69859  0.47989  Biso   1.000  C
  C1104    1.0000 0.63627  0.66959  0.64052  Biso   1.000  C
  C1105    1.0000 0.36369  0.33041  0.35948  Biso   1.000  C
  C1106    1.0000 0.33821  0.30141  0.52011  Biso   1.000  C
  H1183    1.0000 0.26569  0.32470  0.47037  Biso   1.000  H
  N741     1.0000 0.35741  0.32179  0.61302  Biso   1.000  N
  O367     1.0000 0.33381  0.38550  0.72338  Biso   1.000  O
  C1107    1.0000 0.66960  0.63637  0.35788  Biso   1.000  C
  C1108    1.0000 0.70048  0.66037  0.51790  Biso   1.000  C
  H1184    1.0000 0.67788  0.73110  0.46870  Biso   1.000  H
  N742     1.0000 0.67780  0.64130  0.61158  Biso   1.000  N
  O368     1.0000 0.61359  0.66649  0.71980  Biso   1.000  O
  N743     1.0000 0.37568  0.29920  0.43778  Biso   1.000  N
  O369     1.0000 0.38641  0.33351  0.28020  Biso   1.000  O
  H1185    1.0000 0.32208  0.26890  0.53130  Biso   1.000  H
  C1109    1.0000 0.38560  0.29200  0.68766  Biso   1.000  C
  N744     1.0000 0.70129  0.62409  0.43587  Biso   1.000  N
  O370     1.0000 0.66619  0.61446  0.27662  Biso   1.000  O
  H1186    1.0000 0.73427  0.67530  0.52963  Biso   1.000  H
  C1110    1.0000 0.70657  0.61379  0.68599  Biso   1.000  C
  C1111    1.0000 0.41437  0.26169  0.42909  Biso   1.000  C
  H1187    1.0000 0.37970  0.30570  0.75506  Biso   1.000  H
  H1188    1.0000 0.37239  0.25811  0.68713  Biso   1.000  H
  N745     1.0000 0.44023  0.29069  0.66786  Biso   1.000  N
  C1112    1.0000 0.73879  0.58550  0.42780  Biso   1.000  C
  N746     1.0000 0.70899  0.56082  0.66679  Biso   1.000  N
  H1189    1.0000 0.74128  0.62689  0.68797  Biso   1.000  H
  H1190    1.0000 0.69140  0.61920  0.75248  Biso   1.000  H
  H1191    1.0000 0.39970  0.22970  0.44798  Biso   1.000  H
  H1192    1.0000 0.42491  0.25938  0.35842  Biso   1.000  H
  N747     1.0000 0.45920  0.27039  0.49132  Biso   1.000  N
  C1113    1.0000 0.46318  0.25579  0.59848  Biso   1.000  C
  C1114    1.0000 0.47448  0.31268  0.73206  Biso   1.000  C
  N748     1.0000 0.72910  0.54190  0.48949  Biso   1.000  N
  H1193    1.0000 0.74090  0.57519  0.35712  Biso   1.000  H
  H1194    1.0000 0.77189  0.59919  0.44661  Biso   1.000  H
  C1115    1.0000 0.68600  0.52738  0.72856  Biso   1.000  C
  C1116    1.0000 0.74420  0.53887  0.59566  Biso   1.000  C
  C1117    1.0000 0.50517  0.27961  0.44813  Biso   1.000  C
  H1195    1.0000 0.45150  0.22160  0.61028  Biso   1.000  H
  C1118    1.0000 0.52130  0.26210  0.61820  Biso   1.000  C
  N749     1.0000 0.52310  0.29868  0.70008  Biso   1.000  N
  O371     1.0000 0.46491  0.33810  0.80350  Biso   1.000  O
  C1119    1.0000 0.71968  0.49789  0.44699  Biso   1.000  C
  N750     1.0000 0.70067  0.47990  0.69703  Biso   1.000  N
  O372     1.0000 0.65830  0.53667  0.79916  Biso   1.000  O
  C1120    1.0000 0.73879  0.48188  0.61653  Biso   1.000  C
  H1196    1.0000 0.77940  0.55060  0.60647  Biso   1.000  H
  N751     1.0000 0.54218  0.27830  0.52437  Biso   1.000  N
  O373     1.0000 0.51280  0.28887  0.35849  Biso   1.000  O
  H1197    1.0000 0.53670  0.23041  0.63983  Biso   1.000  H
  C1121    1.0000 0.56720  0.30510  0.76367  Biso   1.000  C
  N752     1.0000 0.72289  0.46090  0.52292  Biso   1.000  N
  O374     1.0000 0.71060  0.48908  0.35682  Biso   1.000  O
  C1122    1.0000 0.69439  0.43600  0.76062  Biso   1.000  C
  H1198    1.0000 0.77140  0.46751  0.63907  Biso   1.000  H
  C1123    1.0000 0.59720  0.27849  0.50122  Biso   1.000  C
  H1199    1.0000 0.55647  0.31869  0.82887  Biso   1.000  H
  H1200    1.0000 0.58268  0.27278  0.77616  Biso   1.000  H
  N753     1.0000 0.60509  0.33810  0.71858  Biso   1.000  N
  C1124    1.0000 0.72420  0.40850  0.49977  Biso   1.000  C
  N754     1.0000 0.66248  0.39898  0.71820  Biso   1.000  N
  H1201    1.0000 0.68010  0.44631  0.82551  Biso   1.000  H
  H1202    1.0000 0.72780  0.42160  0.77357  Biso   1.000  H
  H1203    1.0000 0.60187  0.27819  0.42788  Biso   1.000  H
  H1204    1.0000 0.61279  0.24848  0.52848  Biso   1.000  H
  N755     1.0000 0.62217  0.32070  0.54242  Biso   1.000  N
  C1125    1.0000 0.64148  0.32149  0.64577  Biso   1.000  C
  C1126    1.0000 0.62068  0.38128  0.76786  Biso   1.000  C
  N756     1.0000 0.68190  0.38050  0.54151  Biso   1.000  N
  H1205    1.0000 0.72427  0.40439  0.42643  Biso   1.000  H
  H1206    1.0000 0.75588  0.39461  0.52567  Biso   1.000  H
  C1127    1.0000 0.68217  0.36300  0.64638  Biso   1.000  C
  C1128    1.0000 0.64968  0.35348  0.48111  Biso   1.000  C
  H1207    1.0000 0.65627  0.28920  0.66512  Biso   1.000  H
  O375     1.0000 0.59777  0.40129  0.83732  Biso   1.000  O
  H1208    1.0000 0.71600  0.35038  0.66657  Biso   1.000  H
  O376     1.0000 0.64478  0.35758  0.39117  Biso   1.000  O
