data_image0
_cell_length_a       15.475
_cell_length_b       15.475
_cell_length_c       40.513
_cell_angle_alpha    90
_cell_angle_beta     90
_cell_angle_gamma    90

_symmetry_space_group_name_H-M    "P 1"
_symmetry_int_tables_number       1

loop_
  _symmetry_equiv_pos_as_xyz
  'x, y, z'

loop_
  _atom_site_label
  _atom_site_occupancy
  _atom_site_fract_x
  _atom_site_fract_y
  _atom_site_fract_z
  _atom_site_thermal_displace_type
  _atom_site_B_iso_or_equiv
  _atom_site_type_symbol
  C1       1.0000 0.56058  0.32963  0.64369  Biso   1.000  C
  C2       1.0000 0.62507  0.28491  0.62671  Biso   1.000  C
  C3       1.0000 0.50779  0.27283  0.66250  Biso   1.000  C
  H1       1.0000 0.55302  0.39050  0.64281  Biso   1.000  H
  C4       1.0000 0.68472  0.31910  0.60469  Biso   1.000  C
  C5       1.0000 0.63309  0.19903  0.62750  Biso   1.000  C
  C6       1.0000 0.51987  0.17519  0.66129  Biso   1.000  C
  C7       1.0000 0.43192  0.30740  0.67899  Biso   1.000  C
  N1       1.0000 0.73422  0.24931  0.58900  Biso   1.000  N
  O1       1.0000 0.70637  0.39367  0.59724  Biso   1.000  O
  C8       1.0000 0.70100  0.17803  0.60220  Biso   1.000  C
  C9       1.0000 0.58152  0.14139  0.64569  Biso   1.000  C
  H2       1.0000 0.48000  0.13913  0.67260  Biso   1.000  H
  O2       1.0000 0.37241  0.25318  0.68600  Biso   1.000  O
  C10      1.0000 0.42520  0.39270  0.69141  Biso   1.000  C
  C11      1.0000 0.79011  0.26139  0.55910  Biso   1.000  C
  O3       1.0000 0.73312  0.10391  0.59480  Biso   1.000  O
  H3       1.0000 0.59237  0.08097  0.64611  Biso   1.000  H
  C12      1.0000 0.34481  0.42171  0.69259  Biso   1.000  C
  C13      1.0000 0.49422  0.44717  0.70140  Biso   1.000  C
  C14      1.0000 0.72569  0.23289  0.52810  Biso   1.000  C
  H4       1.0000 0.80110  0.32472  0.55681  Biso   1.000  H
  C15      1.0000 0.87742  0.21700  0.56009  Biso   1.000  C
  C16      1.0000 0.34087  0.51173  0.70409  Biso   1.000  C
  H5       1.0000 0.29557  0.38830  0.68679  Biso   1.000  H
  H6       1.0000 0.55050  0.42281  0.70049  Biso   1.000  H
  C17      1.0000 0.48911  0.52801  0.71160  Biso   1.000  C
  N2       1.0000 0.64918  0.28730  0.53089  Biso   1.000  N
  H7       1.0000 0.70792  0.17137  0.53141  Biso   1.000  H
  C18      1.0000 0.77241  0.23922  0.49710  Biso   1.000  C
  H8       1.0000 0.87069  0.15567  0.56661  Biso   1.000  H
  H9       1.0000 0.91567  0.24582  0.57621  Biso   1.000  H
  C19      1.0000 0.91632  0.22333  0.52499  Biso   1.000  C
  C20      1.0000 0.25758  0.57557  0.70891  Biso   1.000  C
  C21      1.0000 0.40763  0.55399  0.71370  Biso   1.000  C
  H10      1.0000 0.53758  0.56297  0.71681  Biso   1.000  H
  C22      1.0000 0.57557  0.25758  0.54111  Biso   1.000  C
  C23      1.0000 0.64769  0.37338  0.52620  Biso   1.000  C
  C24      1.0000 0.85809  0.18100  0.49779  Biso   1.000  C
  H11      1.0000 0.78817  0.30029  0.49300  Biso   1.000  H
  H12      1.0000 0.73460  0.21990  0.47891  Biso   1.000  H
  H13      1.0000 0.97351  0.19457  0.52489  Biso   1.000  H
  H14      1.0000 0.92536  0.28498  0.51951  Biso   1.000  H
  N3       1.0000 0.28730  0.64918  0.71910  Biso   1.000  N
  O4       1.0000 0.18210  0.56052  0.70261  Biso   1.000  O
  C25      1.0000 0.37338  0.64769  0.72379  Biso   1.000  C
  C26      1.0000 0.51173  0.34087  0.54590  Biso   1.000  C
  O5       1.0000 0.56052  0.18210  0.54740  Biso   1.000  O
  C27      1.0000 0.55399  0.40763  0.53630  Biso   1.000  C
  O6       1.0000 0.70837  0.42023  0.51670  Biso   1.000  O
  H15      1.0000 0.84420  0.12058  0.50339  Biso   1.000  H
  H16      1.0000 0.88737  0.18249  0.47600  Biso   1.000  H
  C28      1.0000 0.23289  0.72569  0.72189  Biso   1.000  C
  O7       1.0000 0.42023  0.70837  0.73330  Biso   1.000  O
  C29      1.0000 0.42171  0.34481  0.55740  Biso   1.000  C
  C30      1.0000 0.52801  0.48911  0.53840  Biso   1.000  C
  C31      1.0000 0.26139  0.79011  0.69091  Biso   1.000  C
  H17      1.0000 0.17137  0.70792  0.71861  Biso   1.000  H
  C32      1.0000 0.23922  0.77241  0.75289  Biso   1.000  C
  H18      1.0000 0.38830  0.29557  0.56320  Biso   1.000  H
  C33      1.0000 0.39270  0.42520  0.55861  Biso   1.000  C
  C34      1.0000 0.44717  0.49422  0.54861  Biso   1.000  C
  H19      1.0000 0.56297  0.53758  0.53321  Biso   1.000  H
  N4       1.0000 0.24931  0.73422  0.66100  Biso   1.000  N
  H20      1.0000 0.32472  0.80110  0.69321  Biso   1.000  H
  C35      1.0000 0.21700  0.87742  0.68990  Biso   1.000  C
  C36      1.0000 0.18100  0.85809  0.75220  Biso   1.000  C
  H21      1.0000 0.30029  0.78817  0.75699  Biso   1.000  H
  H22      1.0000 0.21990  0.73460  0.77111  Biso   1.000  H
  C37      1.0000 0.30740  0.43192  0.57100  Biso   1.000  C
  H23      1.0000 0.42281  0.55050  0.54950  Biso   1.000  H
  C38      1.0000 0.31910  0.68472  0.64530  Biso   1.000  C
  C39      1.0000 0.17803  0.70100  0.64779  Biso   1.000  C
  H24      1.0000 0.15567  0.87069  0.68341  Biso   1.000  H
  H25      1.0000 0.24582  0.91567  0.67381  Biso   1.000  H
  C40      1.0000 0.22333  0.91632  0.72500  Biso   1.000  C
  H26      1.0000 0.12058  0.84420  0.74660  Biso   1.000  H
  H27      1.0000 0.18249  0.88737  0.77400  Biso   1.000  H
  O8       1.0000 0.25318  0.37241  0.56399  Biso   1.000  O
  C41      1.0000 0.27283  0.50779  0.58752  Biso   1.000  C
  C42      1.0000 0.28491  0.62507  0.62331  Biso   1.000  C
  O9       1.0000 0.39367  0.70637  0.65278  Biso   1.000  O
  C43      1.0000 0.19903  0.63309  0.62249  Biso   1.000  C
  O10      1.0000 0.10391  0.73312  0.65520  Biso   1.000  O
  H28      1.0000 0.19457  0.97351  0.72510  Biso   1.000  H
  H29      1.0000 0.28498  0.92536  0.73051  Biso   1.000  H
  C44      1.0000 0.17519  0.51987  0.58870  Biso   1.000  C
  C45      1.0000 0.32963  0.56058  0.60630  Biso   1.000  C
  C46      1.0000 0.14139  0.58152  0.60430  Biso   1.000  C
  H30      1.0000 0.13913  0.48000  0.57739  Biso   1.000  H
  H31      1.0000 0.39050  0.55302  0.60721  Biso   1.000  H
  H32      1.0000 0.08097  0.59237  0.60390  Biso   1.000  H
  O11      1.0000 0.67586  0.61318  0.58213  Biso   1.000  O
  C47      1.0000 0.69318  0.68401  0.57470  Biso   1.000  C
  C48      1.0000 0.64006  0.76582  0.57972  Biso   1.000  C
  N5       1.0000 0.76879  0.71212  0.56041  Biso   1.000  N
  C49      1.0000 0.55819  0.77577  0.59070  Biso   1.000  C
  C50      1.0000 0.69021  0.83451  0.56841  Biso   1.000  C
  C51      1.0000 0.84233  0.64931  0.54760  Biso   1.000  C
  C52      1.0000 0.77480  0.80006  0.55520  Biso   1.000  C
  C53      1.0000 0.52110  0.85997  0.59151  Biso   1.000  C
  H33      1.0000 0.52582  0.72717  0.59791  Biso   1.000  H
  C54      1.0000 0.64918  0.92097  0.57189  Biso   1.000  C
  C55      1.0000 0.80711  0.60330  0.52050  Biso   1.000  C
  C56      1.0000 0.87218  0.60039  0.57530  Biso   1.000  C
  H34      1.0000 0.89131  0.68536  0.53931  Biso   1.000  H
  O12      1.0000 0.82268  0.84679  0.54210  Biso   1.000  O
  C57      1.0000 0.43399  0.88006  0.60060  Biso   1.000  C
  C58      1.0000 0.57221  0.93137  0.58231  Biso   1.000  C
  H35      1.0000 0.68187  0.97066  0.56611  Biso   1.000  H
  N6       1.0000 0.78197  0.66068  0.49251  Biso   1.000  N
  H36      1.0000 0.75599  0.56879  0.52790  Biso   1.000  H
  C59      1.0000 0.87929  0.54107  0.50670  Biso   1.000  C
  C60      1.0000 0.94229  0.54120  0.56281  Biso   1.000  C
  H37      1.0000 0.82430  0.56640  0.58490  Biso   1.000  H
  H38      1.0000 0.89538  0.63948  0.59250  Biso   1.000  H
  C61      1.0000 0.36078  0.83541  0.58310  Biso   1.000  C
  O13      1.0000 0.41002  0.93441  0.62220  Biso   1.000  O
  H39      1.0000 0.54889  0.98798  0.58381  Biso   1.000  H
  C62      1.0000 0.69913  0.67961  0.48691  Biso   1.000  C
  C63      1.0000 0.83722  0.71018  0.47281  Biso   1.000  C
  H40      1.0000 0.92898  0.57512  0.49851  Biso   1.000  H
  H41      1.0000 0.85609  0.50649  0.48809  Biso   1.000  H
  C64      1.0000 0.90901  0.47929  0.53570  Biso   1.000  C
  H42      1.0000 0.96517  0.50682  0.58139  Biso   1.000  H
  H43      1.0000 0.99031  0.57628  0.55380  Biso   1.000  H
  C65      1.0000 0.37667  0.77577  0.55599  Biso   1.000  C
  C66      1.0000 0.27192  0.84931  0.59142  Biso   1.000  C
  C67      1.0000 0.69202  0.74158  0.45951  Biso   1.000  C
  O14      1.0000 0.63477  0.65073  0.50218  Biso   1.000  O
  C68      1.0000 0.78061  0.75929  0.44971  Biso   1.000  C
  O15      1.0000 0.91141  0.71470  0.47261  Biso   1.000  O
  H44      1.0000 0.85990  0.44439  0.54390  Biso   1.000  H
  H45      1.0000 0.95548  0.44000  0.52830  Biso   1.000  H
  C69      1.0000 0.30798  0.74158  0.54049  Biso   1.000  C
  H46      1.0000 0.43393  0.76162  0.54950  Biso   1.000  H
  C70      1.0000 0.20330  0.81370  0.57549  Biso   1.000  C
  H47      1.0000 0.25997  0.88640  0.60951  Biso   1.000  H
  C71      1.0000 0.62333  0.77577  0.44401  Biso   1.000  C
  C72      1.0000 0.79670  0.81370  0.42451  Biso   1.000  C
  C73      1.0000 0.30087  0.67961  0.51309  Biso   1.000  C
  C74      1.0000 0.21939  0.75929  0.55029  Biso   1.000  C
  H48      1.0000 0.14572  0.82669  0.58201  Biso   1.000  H
  C75      1.0000 0.63922  0.83541  0.41690  Biso   1.000  C
  H49      1.0000 0.56607  0.76162  0.45050  Biso   1.000  H
  C76      1.0000 0.72808  0.84931  0.40861  Biso   1.000  C
  H50      1.0000 0.85428  0.82669  0.41801  Biso   1.000  H
  N7       1.0000 0.21803  0.66068  0.50749  Biso   1.000  N
  O16      1.0000 0.36517  0.65073  0.49784  Biso   1.000  O
  C77      1.0000 0.16278  0.71018  0.52721  Biso   1.000  C
  C78      1.0000 0.56601  0.88006  0.39940  Biso   1.000  C
  H51      1.0000 0.73997  0.88640  0.39049  Biso   1.000  H
  C79      1.0000 0.19289  0.60330  0.47950  Biso   1.000  C
  O17      1.0000 0.08859  0.71470  0.52741  Biso   1.000  O
  C80      1.0000 0.47890  0.85997  0.40851  Biso   1.000  C
  O18      1.0000 0.58998  0.93441  0.37780  Biso   1.000  O
  C81      1.0000 0.15767  0.64931  0.45240  Biso   1.000  C
  H52      1.0000 0.24401  0.56879  0.47210  Biso   1.000  H
  C82      1.0000 0.12071  0.54107  0.49330  Biso   1.000  C
  C83      1.0000 0.44181  0.77577  0.40930  Biso   1.000  C
  C84      1.0000 0.42779  0.93137  0.41769  Biso   1.000  C
  N8       1.0000 0.23121  0.71212  0.43961  Biso   1.000  N
  C85      1.0000 0.12782  0.60039  0.42470  Biso   1.000  C
  H53      1.0000 0.10869  0.68536  0.46069  Biso   1.000  H
  H54      1.0000 0.07102  0.57512  0.50149  Biso   1.000  H
  H55      1.0000 0.14391  0.50649  0.51191  Biso   1.000  H
  C86      1.0000 0.09099  0.47929  0.46430  Biso   1.000  C
  C87      1.0000 0.35987  0.76582  0.42031  Biso   1.000  C
  H56      1.0000 0.47418  0.72717  0.40209  Biso   1.000  H
  C88      1.0000 0.35082  0.92097  0.42811  Biso   1.000  C
  H57      1.0000 0.45111  0.98798  0.41621  Biso   1.000  H
  C89      1.0000 0.30682  0.68401  0.42530  Biso   1.000  C
  C90      1.0000 0.22520  0.80006  0.44480  Biso   1.000  C
  C91      1.0000 0.05771  0.54120  0.43719  Biso   1.000  C
  H58      1.0000 0.17570  0.56640  0.41510  Biso   1.000  H
  H59      1.0000 0.10462  0.63948  0.40750  Biso   1.000  H
  H60      1.0000 0.14010  0.44439  0.45610  Biso   1.000  H
  H61      1.0000 0.04452  0.44000  0.47170  Biso   1.000  H
  C92      1.0000 0.30979  0.83451  0.43159  Biso   1.000  C
  H62      1.0000 0.31813  0.97066  0.43391  Biso   1.000  H
  O19      1.0000 0.32407  0.61318  0.41787  Biso   1.000  O
  O20      1.0000 0.17732  0.84679  0.45790  Biso   1.000  O
  H63      1.0000 0.03483  0.50682  0.41861  Biso   1.000  H
  H64      1.0000 0.00969  0.57628  0.44620  Biso   1.000  H
  O21      1.0000 0.61318  0.67586  0.66786  Biso   1.000  O
  C93      1.0000 0.68401  0.69318  0.67531  Biso   1.000  C
  C94      1.0000 0.76582  0.64006  0.67030  Biso   1.000  C
  N9       1.0000 0.71212  0.76879  0.68961  Biso   1.000  N
  C95      1.0000 0.77577  0.55819  0.65929  Biso   1.000  C
  C96      1.0000 0.83451  0.69021  0.68161  Biso   1.000  C
  C97      1.0000 0.80006  0.77480  0.69481  Biso   1.000  C
  C98      1.0000 0.64931  0.84233  0.70239  Biso   1.000  C
  C99      1.0000 0.85997  0.52110  0.65850  Biso   1.000  C
  H65      1.0000 0.72717  0.52582  0.65211  Biso   1.000  H
  C100     1.0000 0.92097  0.64918  0.67810  Biso   1.000  C
  O22      1.0000 0.84679  0.82268  0.70790  Biso   1.000  O
  C101     1.0000 0.60330  0.80711  0.72949  Biso   1.000  C
  C102     1.0000 0.60039  0.87218  0.67470  Biso   1.000  C
  H66      1.0000 0.68536  0.89131  0.71071  Biso   1.000  H
  C103     1.0000 0.88006  0.43399  0.64940  Biso   1.000  C
  C104     1.0000 0.93137  0.57221  0.66771  Biso   1.000  C
  H67      1.0000 0.97066  0.68187  0.68390  Biso   1.000  H
  N10      1.0000 0.66068  0.78197  0.75751  Biso   1.000  N
  H68      1.0000 0.56879  0.75599  0.72211  Biso   1.000  H
  C105     1.0000 0.54107  0.87929  0.74329  Biso   1.000  C
  C106     1.0000 0.54120  0.94229  0.68721  Biso   1.000  C
  H69      1.0000 0.56640  0.82430  0.66510  Biso   1.000  H
  H70      1.0000 0.63948  0.89538  0.65749  Biso   1.000  H
  O23      1.0000 0.93441  0.41002  0.62780  Biso   1.000  O
  C107     1.0000 0.83541  0.36078  0.66690  Biso   1.000  C
  H71      1.0000 0.98798  0.54889  0.66621  Biso   1.000  H
  C108     1.0000 0.67961  0.69913  0.76311  Biso   1.000  C
  C109     1.0000 0.71018  0.83722  0.77721  Biso   1.000  C
  H72      1.0000 0.57512  0.92898  0.75151  Biso   1.000  H
  H73      1.0000 0.50649  0.85609  0.76190  Biso   1.000  H
  C110     1.0000 0.47929  0.90901  0.71431  Biso   1.000  C
  H74      1.0000 0.50682  0.96517  0.66860  Biso   1.000  H
  H75      1.0000 0.57628  0.99031  0.69620  Biso   1.000  H
  C111     1.0000 0.77577  0.37667  0.69400  Biso   1.000  C
  C112     1.0000 0.84931  0.27192  0.65860  Biso   1.000  C
  O24      1.0000 0.65073  0.63477  0.74783  Biso   1.000  O
  C113     1.0000 0.74158  0.69202  0.79051  Biso   1.000  C
  O25      1.0000 0.71470  0.91141  0.77740  Biso   1.000  O
  C114     1.0000 0.75929  0.78061  0.80031  Biso   1.000  C
  H76      1.0000 0.44439  0.85990  0.70609  Biso   1.000  H
  H77      1.0000 0.44000  0.95548  0.72169  Biso   1.000  H
  C115     1.0000 0.74158  0.30798  0.70950  Biso   1.000  C
  H78      1.0000 0.76162  0.43393  0.70049  Biso   1.000  H
  H79      1.0000 0.88640  0.25997  0.64051  Biso   1.000  H
  C116     1.0000 0.81370  0.20330  0.67450  Biso   1.000  C
  C117     1.0000 0.77577  0.62333  0.80601  Biso   1.000  C
  C118     1.0000 0.81370  0.79670  0.82551  Biso   1.000  C
  C119     1.0000 0.67961  0.30087  0.73690  Biso   1.000  C
  C120     1.0000 0.75929  0.21939  0.69970  Biso   1.000  C
  H80      1.0000 0.82669  0.14572  0.66801  Biso   1.000  H
  H81      1.0000 0.76162  0.56607  0.79950  Biso   1.000  H
  C121     1.0000 0.83541  0.63922  0.83312  Biso   1.000  C
  C122     1.0000 0.84931  0.72808  0.84141  Biso   1.000  C
  H82      1.0000 0.82669  0.85428  0.83200  Biso   1.000  H
  O26      1.0000 0.65073  0.36517  0.75218  Biso   1.000  O
  N11      1.0000 0.66068  0.21803  0.74250  Biso   1.000  N
  C123     1.0000 0.71018  0.16278  0.72281  Biso   1.000  C
  C124     1.0000 0.88006  0.56601  0.85062  Biso   1.000  C
  H83      1.0000 0.88640  0.73997  0.85950  Biso   1.000  H
  C125     1.0000 0.60330  0.19289  0.77049  Biso   1.000  C
  O27      1.0000 0.71470  0.08859  0.72261  Biso   1.000  O
  C126     1.0000 0.85997  0.47890  0.84151  Biso   1.000  C
  O28      1.0000 0.93441  0.58998  0.87221  Biso   1.000  O
  H84      1.0000 0.56879  0.24401  0.77790  Biso   1.000  H
  C127     1.0000 0.54107  0.12071  0.75670  Biso   1.000  C
  C128     1.0000 0.64931  0.15767  0.79760  Biso   1.000  C
  C129     1.0000 0.77577  0.44181  0.84069  Biso   1.000  C
  C130     1.0000 0.93137  0.42779  0.83230  Biso   1.000  C
  H85      1.0000 0.57512  0.07102  0.74850  Biso   1.000  H
  H86      1.0000 0.50649  0.14391  0.73811  Biso   1.000  H
  C131     1.0000 0.47929  0.09099  0.78570  Biso   1.000  C
  C132     1.0000 0.60039  0.12782  0.82532  Biso   1.000  C
  H87      1.0000 0.68536  0.10869  0.78930  Biso   1.000  H
  N12      1.0000 0.71212  0.23121  0.81041  Biso   1.000  N
  C133     1.0000 0.76582  0.35987  0.82971  Biso   1.000  C
  H88      1.0000 0.72717  0.47418  0.84790  Biso   1.000  H
  C134     1.0000 0.92097  0.35082  0.82191  Biso   1.000  C
  H89      1.0000 0.98798  0.45111  0.83381  Biso   1.000  H
  H90      1.0000 0.44439  0.14010  0.79389  Biso   1.000  H
  H91      1.0000 0.44000  0.04452  0.77829  Biso   1.000  H
  C135     1.0000 0.54120  0.05771  0.81280  Biso   1.000  C
  H92      1.0000 0.56640  0.17570  0.83489  Biso   1.000  H
  H93      1.0000 0.63948  0.10462  0.84250  Biso   1.000  H
  C136     1.0000 0.80006  0.22520  0.80520  Biso   1.000  C
  C137     1.0000 0.68401  0.30682  0.82470  Biso   1.000  C
  C138     1.0000 0.83451  0.30979  0.81840  Biso   1.000  C
  H94      1.0000 0.97066  0.31813  0.81611  Biso   1.000  H
  H95      1.0000 0.50682  0.03483  0.83141  Biso   1.000  H
  H96      1.0000 0.57628  0.00969  0.80382  Biso   1.000  H
  O29      1.0000 0.84679  0.17732  0.79212  Biso   1.000  O
  O30      1.0000 0.61318  0.32407  0.83215  Biso   1.000  O
  C139     1.0000 0.47199  0.48911  0.46160  Biso   1.000  C
  C140     1.0000 0.44601  0.40763  0.46370  Biso   1.000  C
  C141     1.0000 0.55283  0.49422  0.45141  Biso   1.000  C
  H97      1.0000 0.43703  0.53758  0.46681  Biso   1.000  H
  C142     1.0000 0.35231  0.37338  0.47380  Biso   1.000  C
  C143     1.0000 0.48827  0.34087  0.45410  Biso   1.000  C
  C144     1.0000 0.60730  0.42520  0.44141  Biso   1.000  C
  H98      1.0000 0.57719  0.55050  0.45050  Biso   1.000  H
  N13      1.0000 0.35082  0.28730  0.46911  Biso   1.000  N
  O31      1.0000 0.29157  0.42023  0.48330  Biso   1.000  O
  C145     1.0000 0.42443  0.25758  0.45891  Biso   1.000  C
  C146     1.0000 0.57829  0.34481  0.44260  Biso   1.000  C
  C147     1.0000 0.69260  0.43192  0.42900  Biso   1.000  C
  C148     1.0000 0.27431  0.23289  0.47190  Biso   1.000  C
  O32      1.0000 0.43948  0.18210  0.45260  Biso   1.000  O
  H99      1.0000 0.61170  0.29557  0.43680  Biso   1.000  H
  C149     1.0000 0.72717  0.50779  0.41251  Biso   1.000  C
  O33      1.0000 0.74682  0.37241  0.43601  Biso   1.000  O
  C150     1.0000 0.20989  0.26139  0.44090  Biso   1.000  C
  H100     1.0000 0.29208  0.17137  0.46859  Biso   1.000  H
  C151     1.0000 0.22759  0.23922  0.50290  Biso   1.000  C
  C152     1.0000 0.67037  0.56058  0.39370  Biso   1.000  C
  C153     1.0000 0.82481  0.51987  0.41130  Biso   1.000  C
  N14      1.0000 0.26578  0.24931  0.41100  Biso   1.000  N
  H101     1.0000 0.19890  0.32472  0.44319  Biso   1.000  H
  C154     1.0000 0.12258  0.21700  0.43991  Biso   1.000  C
  C155     1.0000 0.14191  0.18100  0.50221  Biso   1.000  C
  H102     1.0000 0.21183  0.30029  0.50700  Biso   1.000  H
  H103     1.0000 0.26540  0.21990  0.52109  Biso   1.000  H
  C156     1.0000 0.71509  0.62507  0.37669  Biso   1.000  C
  H104     1.0000 0.60950  0.55302  0.39281  Biso   1.000  H
  C157     1.0000 0.85861  0.58152  0.39570  Biso   1.000  C
  H105     1.0000 0.86087  0.48000  0.42261  Biso   1.000  H
  C158     1.0000 0.31528  0.31910  0.39531  Biso   1.000  C
  C159     1.0000 0.29900  0.17803  0.39780  Biso   1.000  C
  H106     1.0000 0.12931  0.15567  0.43339  Biso   1.000  H
  H107     1.0000 0.08433  0.24582  0.42379  Biso   1.000  H
  C160     1.0000 0.08368  0.22333  0.47501  Biso   1.000  C
  H108     1.0000 0.15580  0.12058  0.49661  Biso   1.000  H
  H109     1.0000 0.11257  0.18249  0.52400  Biso   1.000  H
  C161     1.0000 0.68090  0.68472  0.35470  Biso   1.000  C
  C162     1.0000 0.80097  0.63309  0.37751  Biso   1.000  C
  H110     1.0000 0.91897  0.59237  0.39610  Biso   1.000  H
  C163     1.0000 0.37493  0.28491  0.37331  Biso   1.000  C
  O34      1.0000 0.29357  0.39367  0.40278  Biso   1.000  O
  C164     1.0000 0.36691  0.19903  0.37250  Biso   1.000  C
  O35      1.0000 0.26688  0.10391  0.40520  Biso   1.000  O
  H111     1.0000 0.02649  0.19457  0.47511  Biso   1.000  H
  H112     1.0000 0.07457  0.28498  0.48051  Biso   1.000  H
  N15      1.0000 0.75069  0.73422  0.33900  Biso   1.000  N
  O36      1.0000 0.60627  0.70637  0.34722  Biso   1.000  O
  C165     1.0000 0.82197  0.70100  0.35221  Biso   1.000  C
  C166     1.0000 0.43942  0.32963  0.35631  Biso   1.000  C
  C167     1.0000 0.41848  0.14139  0.35431  Biso   1.000  C
  C168     1.0000 0.73861  0.79011  0.30911  Biso   1.000  C
  O37      1.0000 0.89609  0.73312  0.34480  Biso   1.000  O
  C169     1.0000 0.49221  0.27283  0.33750  Biso   1.000  C
  H113     1.0000 0.44698  0.39050  0.35719  Biso   1.000  H
  C170     1.0000 0.48006  0.17519  0.33871  Biso   1.000  C
  H114     1.0000 0.40763  0.08097  0.35391  Biso   1.000  H
  C171     1.0000 0.76711  0.72569  0.27811  Biso   1.000  C
  H115     1.0000 0.67528  0.80110  0.30679  Biso   1.000  H
  C172     1.0000 0.78300  0.87742  0.31010  Biso   1.000  C
  C173     1.0000 0.56808  0.30740  0.32101  Biso   1.000  C
  H116     1.0000 0.52000  0.13913  0.32740  Biso   1.000  H
  N16      1.0000 0.71270  0.64918  0.28090  Biso   1.000  N
  H117     1.0000 0.82863  0.70792  0.28139  Biso   1.000  H
  C174     1.0000 0.76078  0.77241  0.24711  Biso   1.000  C
  H118     1.0000 0.84426  0.87069  0.31659  Biso   1.000  H
  H119     1.0000 0.75418  0.91567  0.32619  Biso   1.000  H
  C175     1.0000 0.77667  0.91632  0.27500  Biso   1.000  C
  O38      1.0000 0.62759  0.25318  0.31400  Biso   1.000  O
  C176     1.0000 0.57480  0.39270  0.30859  Biso   1.000  C
  C177     1.0000 0.74242  0.57557  0.29109  Biso   1.000  C
  C178     1.0000 0.62662  0.64769  0.27621  Biso   1.000  C
  C179     1.0000 0.81900  0.85809  0.24780  Biso   1.000  C
  H120     1.0000 0.69971  0.78817  0.24301  Biso   1.000  H
  H121     1.0000 0.78010  0.73460  0.22889  Biso   1.000  H
  H122     1.0000 0.80536  0.97351  0.27490  Biso   1.000  H
  H123     1.0000 0.71502  0.92536  0.26949  Biso   1.000  H
  C180     1.0000 0.65519  0.42171  0.30741  Biso   1.000  C
  C181     1.0000 0.50578  0.44717  0.29860  Biso   1.000  C
  C182     1.0000 0.65913  0.51173  0.29591  Biso   1.000  C
  O39      1.0000 0.81790  0.56052  0.29741  Biso   1.000  O
  C183     1.0000 0.59237  0.55399  0.28630  Biso   1.000  C
  O40      1.0000 0.57977  0.70837  0.26670  Biso   1.000  O
  H124     1.0000 0.87942  0.84420  0.25340  Biso   1.000  H
  H125     1.0000 0.81751  0.88737  0.22600  Biso   1.000  H
  H126     1.0000 0.70443  0.38830  0.31321  Biso   1.000  H
  H127     1.0000 0.44950  0.42281  0.29951  Biso   1.000  H
  C184     1.0000 0.51089  0.52801  0.28840  Biso   1.000  C
  H128     1.0000 0.46242  0.56297  0.28319  Biso   1.000  H
  O41      1.0000 0.42023  0.29157  0.76669  Biso   1.000  O
  C185     1.0000 0.37338  0.35231  0.77620  Biso   1.000  C
  N17      1.0000 0.28730  0.35082  0.78091  Biso   1.000  N
  C186     1.0000 0.40763  0.44601  0.78632  Biso   1.000  C
  C187     1.0000 0.23289  0.27431  0.77810  Biso   1.000  C
  C188     1.0000 0.25758  0.42443  0.79110  Biso   1.000  C
  C189     1.0000 0.34087  0.48827  0.79589  Biso   1.000  C
  C190     1.0000 0.48911  0.47199  0.78841  Biso   1.000  C
  C191     1.0000 0.23922  0.22759  0.74709  Biso   1.000  C
  H129     1.0000 0.17137  0.29208  0.78140  Biso   1.000  H
  C192     1.0000 0.26139  0.20989  0.80910  Biso   1.000  C
  O42      1.0000 0.18210  0.43948  0.79740  Biso   1.000  O
  C193     1.0000 0.34481  0.57829  0.80740  Biso   1.000  C
  C194     1.0000 0.49422  0.55283  0.79861  Biso   1.000  C
  H130     1.0000 0.53758  0.43703  0.78321  Biso   1.000  H
  C195     1.0000 0.18100  0.14191  0.74781  Biso   1.000  C
  H131     1.0000 0.30029  0.21183  0.74300  Biso   1.000  H
  H132     1.0000 0.21990  0.26540  0.72890  Biso   1.000  H
  N18      1.0000 0.24931  0.26578  0.83901  Biso   1.000  N
  H133     1.0000 0.32472  0.19890  0.80680  Biso   1.000  H
  C196     1.0000 0.21700  0.12258  0.81011  Biso   1.000  C
  H134     1.0000 0.29557  0.61170  0.81320  Biso   1.000  H
  C197     1.0000 0.42520  0.60730  0.80860  Biso   1.000  C
  H135     1.0000 0.55050  0.57719  0.79950  Biso   1.000  H
  C198     1.0000 0.22333  0.08368  0.77501  Biso   1.000  C
  H136     1.0000 0.12058  0.15580  0.75341  Biso   1.000  H
  H137     1.0000 0.18249  0.11257  0.72601  Biso   1.000  H
  C199     1.0000 0.17803  0.29900  0.85220  Biso   1.000  C
  C200     1.0000 0.31910  0.31528  0.85471  Biso   1.000  C
  H138     1.0000 0.15567  0.12931  0.81660  Biso   1.000  H
  H139     1.0000 0.24582  0.08433  0.82620  Biso   1.000  H
  C201     1.0000 0.43192  0.69260  0.82100  Biso   1.000  C
  H140     1.0000 0.19457  0.02649  0.77491  Biso   1.000  H
  H141     1.0000 0.28498  0.07457  0.76951  Biso   1.000  H
  O43      1.0000 0.10391  0.26688  0.84482  Biso   1.000  O
  C202     1.0000 0.19903  0.36691  0.87750  Biso   1.000  C
  O44      1.0000 0.39367  0.29357  0.84723  Biso   1.000  O
  C203     1.0000 0.28491  0.37493  0.87671  Biso   1.000  C
  O45      1.0000 0.37241  0.74682  0.81401  Biso   1.000  O
  C204     1.0000 0.50779  0.72717  0.83751  Biso   1.000  C
  C205     1.0000 0.14139  0.41848  0.89571  Biso   1.000  C
  C206     1.0000 0.32963  0.43942  0.89371  Biso   1.000  C
  C207     1.0000 0.51987  0.82481  0.83869  Biso   1.000  C
  C208     1.0000 0.56058  0.67037  0.85629  Biso   1.000  C
  C209     1.0000 0.17519  0.48006  0.91131  Biso   1.000  C
  H142     1.0000 0.08097  0.40763  0.89611  Biso   1.000  H
  C210     1.0000 0.27283  0.49221  0.91250  Biso   1.000  C
  H143     1.0000 0.39050  0.44698  0.89280  Biso   1.000  H
  H144     1.0000 0.48000  0.86087  0.82741  Biso   1.000  H
  C211     1.0000 0.58152  0.85861  0.85429  Biso   1.000  C
  C212     1.0000 0.62507  0.71509  0.87330  Biso   1.000  C
  H145     1.0000 0.55302  0.60950  0.85721  Biso   1.000  H
  H146     1.0000 0.13913  0.52000  0.92259  Biso   1.000  H
  C213     1.0000 0.30740  0.56808  0.92901  Biso   1.000  C
  H147     1.0000 0.59237  0.91897  0.85390  Biso   1.000  H
  C214     1.0000 0.63309  0.80097  0.87251  Biso   1.000  C
  C215     1.0000 0.68472  0.68090  0.89529  Biso   1.000  C
  O46      1.0000 0.25318  0.62759  0.93600  Biso   1.000  O
  C216     1.0000 0.39270  0.57480  0.94140  Biso   1.000  C
  C217     1.0000 0.70100  0.82197  0.89781  Biso   1.000  C
  O47      1.0000 0.70637  0.60627  0.90277  Biso   1.000  O
  N19      1.0000 0.73422  0.75069  0.91102  Biso   1.000  N
  C218     1.0000 0.42171  0.65519  0.94261  Biso   1.000  C
  C219     1.0000 0.44717  0.50578  0.95140  Biso   1.000  C
  O48      1.0000 0.73312  0.89609  0.90522  Biso   1.000  O
  C220     1.0000 0.79011  0.73861  0.94091  Biso   1.000  C
  C221     1.0000 0.51173  0.65913  0.95411  Biso   1.000  C
  H148     1.0000 0.38830  0.70443  0.93681  Biso   1.000  H
  H149     1.0000 0.42281  0.44950  0.95051  Biso   1.000  H
  C222     1.0000 0.52801  0.51089  0.96159  Biso   1.000  C
  C223     1.0000 0.72569  0.76711  0.97191  Biso   1.000  C
  H150     1.0000 0.80110  0.67528  0.94320  Biso   1.000  H
  C224     1.0000 0.87742  0.78300  0.93990  Biso   1.000  C
  C225     1.0000 0.57557  0.74242  0.95890  Biso   1.000  C
  C226     1.0000 0.55399  0.59237  0.96372  Biso   1.000  C
  H151     1.0000 0.56297  0.46242  0.96680  Biso   1.000  H
  N20      1.0000 0.64918  0.71270  0.96910  Biso   1.000  N
  H152     1.0000 0.70792  0.82863  0.96860  Biso   1.000  H
  C227     1.0000 0.77241  0.76078  0.00291  Biso   1.000  C
  H153     1.0000 0.87069  0.84426  0.93340  Biso   1.000  H
  H154     1.0000 0.91567  0.75418  0.92380  Biso   1.000  H
  C228     1.0000 0.91632  0.77667  0.97500  Biso   1.000  C
  O49      1.0000 0.56052  0.81790  0.95261  Biso   1.000  O
  C229     1.0000 0.64769  0.62662  0.97381  Biso   1.000  C
  C230     1.0000 0.85809  0.81900  0.00220  Biso   1.000  C
  H155     1.0000 0.78817  0.69971  0.00701  Biso   1.000  H
  H156     1.0000 0.73460  0.78010  0.02110  Biso   1.000  H
  H157     1.0000 0.97351  0.80536  0.97509  Biso   1.000  H
  H158     1.0000 0.92536  0.71502  0.98050  Biso   1.000  H
  O50      1.0000 0.70837  0.57977  0.98331  Biso   1.000  O
  H159     1.0000 0.84420  0.87942  0.99659  Biso   1.000  H
  H160     1.0000 0.88737  0.81751  0.02402  Biso   1.000  H
  O51      1.0000 0.06559  0.41002  0.37220  Biso   1.000  O
  C231     1.0000 0.11987  0.43399  0.35060  Biso   1.000  C
  C232     1.0000 0.16459  0.36078  0.33310  Biso   1.000  C
  C233     1.0000 0.13997  0.52110  0.34150  Biso   1.000  C
  C234     1.0000 0.22417  0.37667  0.30600  Biso   1.000  C
  C235     1.0000 0.15069  0.27192  0.34140  Biso   1.000  C
  C236     1.0000 0.06863  0.57221  0.33231  Biso   1.000  C
  C237     1.0000 0.22417  0.55819  0.34071  Biso   1.000  C
  C238     1.0000 0.25842  0.30798  0.29050  Biso   1.000  C
  H161     1.0000 0.23838  0.43393  0.29951  Biso   1.000  H
  C239     1.0000 0.18630  0.20330  0.32550  Biso   1.000  C
  H162     1.0000 0.11360  0.25997  0.35949  Biso   1.000  H
  H163     1.0000 0.01202  0.54889  0.33379  Biso   1.000  H
  C240     1.0000 0.07903  0.64918  0.32190  Biso   1.000  C
  C241     1.0000 0.23418  0.64006  0.32970  Biso   1.000  C
  H164     1.0000 0.27283  0.52582  0.34791  Biso   1.000  H
  C242     1.0000 0.32039  0.30087  0.26310  Biso   1.000  C
  C243     1.0000 0.24071  0.21939  0.30030  Biso   1.000  C
  H165     1.0000 0.17331  0.14572  0.33199  Biso   1.000  H
  H166     1.0000 0.02927  0.68187  0.31610  Biso   1.000  H
  C244     1.0000 0.16549  0.69021  0.31839  Biso   1.000  C
  C245     1.0000 0.31599  0.69318  0.32471  Biso   1.000  C
  O52      1.0000 0.34927  0.36517  0.24782  Biso   1.000  O
  N21      1.0000 0.33932  0.21803  0.25750  Biso   1.000  N
  C246     1.0000 0.28982  0.16278  0.27719  Biso   1.000  C
  C247     1.0000 0.19987  0.77480  0.30521  Biso   1.000  C
  O53      1.0000 0.38682  0.67586  0.33214  Biso   1.000  O
  N22      1.0000 0.28788  0.76879  0.31039  Biso   1.000  N
  C248     1.0000 0.39670  0.19289  0.22951  Biso   1.000  C
  O54      1.0000 0.28530  0.08859  0.27739  Biso   1.000  O
  O55      1.0000 0.15321  0.82268  0.29210  Biso   1.000  O
  C249     1.0000 0.35069  0.84233  0.29761  Biso   1.000  C
  H167     1.0000 0.43121  0.24401  0.22210  Biso   1.000  H
  C250     1.0000 0.45887  0.12071  0.24330  Biso   1.000  C
  C251     1.0000 0.35069  0.15767  0.20240  Biso   1.000  C
  C252     1.0000 0.39670  0.80711  0.27051  Biso   1.000  C
  C253     1.0000 0.39961  0.87218  0.32530  Biso   1.000  C
  H168     1.0000 0.31457  0.89131  0.28929  Biso   1.000  H
  H169     1.0000 0.42488  0.07102  0.25150  Biso   1.000  H
  H170     1.0000 0.49351  0.14391  0.26189  Biso   1.000  H
  C254     1.0000 0.52071  0.09099  0.21430  Biso   1.000  C
  N23      1.0000 0.28788  0.23121  0.18959  Biso   1.000  N
  C255     1.0000 0.39961  0.12782  0.17471  Biso   1.000  C
  H171     1.0000 0.31457  0.10869  0.21070  Biso   1.000  H
  N24      1.0000 0.33932  0.78197  0.24249  Biso   1.000  N
  H172     1.0000 0.43121  0.75599  0.27791  Biso   1.000  H
  C256     1.0000 0.45887  0.87929  0.25671  Biso   1.000  C
  C257     1.0000 0.45880  0.94229  0.31281  Biso   1.000  C
  H173     1.0000 0.43360  0.82430  0.33490  Biso   1.000  H
  H174     1.0000 0.36052  0.89538  0.34251  Biso   1.000  H
  H175     1.0000 0.55561  0.14010  0.20611  Biso   1.000  H
  H176     1.0000 0.56000  0.04452  0.22171  Biso   1.000  H
  C258     1.0000 0.45880  0.05771  0.18720  Biso   1.000  C
  C259     1.0000 0.19987  0.22520  0.19480  Biso   1.000  C
  C260     1.0000 0.31599  0.30682  0.17530  Biso   1.000  C
  H177     1.0000 0.43360  0.17570  0.16511  Biso   1.000  H
  H178     1.0000 0.36052  0.10462  0.15750  Biso   1.000  H
  C261     1.0000 0.32039  0.69913  0.23691  Biso   1.000  C
  C262     1.0000 0.28982  0.83722  0.22279  Biso   1.000  C
  H179     1.0000 0.42488  0.92898  0.24851  Biso   1.000  H
  H180     1.0000 0.49351  0.85609  0.23810  Biso   1.000  H
  C263     1.0000 0.52071  0.90901  0.28571  Biso   1.000  C
  H181     1.0000 0.49318  0.96517  0.33140  Biso   1.000  H
  H182     1.0000 0.42372  0.99031  0.30380  Biso   1.000  H
  H183     1.0000 0.49318  0.03483  0.16861  Biso   1.000  H
  H184     1.0000 0.42372  0.00969  0.19621  Biso   1.000  H
  O56      1.0000 0.15321  0.17732  0.20791  Biso   1.000  O
  C264     1.0000 0.16549  0.30979  0.18160  Biso   1.000  C
  O57      1.0000 0.38682  0.32407  0.16787  Biso   1.000  O
  C265     1.0000 0.23418  0.35987  0.17029  Biso   1.000  C
  C266     1.0000 0.25842  0.69202  0.20951  Biso   1.000  C
  O58      1.0000 0.34927  0.63477  0.25217  Biso   1.000  O
  C267     1.0000 0.24071  0.78061  0.19969  Biso   1.000  C
  O59      1.0000 0.28530  0.91141  0.22260  Biso   1.000  O
  H185     1.0000 0.55561  0.85990  0.29391  Biso   1.000  H
  H186     1.0000 0.56000  0.95548  0.27831  Biso   1.000  H
  C268     1.0000 0.07903  0.35082  0.17809  Biso   1.000  C
  C269     1.0000 0.22417  0.44181  0.15931  Biso   1.000  C
  C270     1.0000 0.22417  0.62333  0.19401  Biso   1.000  C
  C271     1.0000 0.18630  0.79670  0.17451  Biso   1.000  C
  C272     1.0000 0.06863  0.42779  0.16770  Biso   1.000  C
  H187     1.0000 0.02927  0.31813  0.18389  Biso   1.000  H
  C273     1.0000 0.13997  0.47890  0.15849  Biso   1.000  C
  H188     1.0000 0.27283  0.47418  0.15210  Biso   1.000  H
  C274     1.0000 0.16459  0.63922  0.16691  Biso   1.000  C
  H189     1.0000 0.23838  0.56607  0.20050  Biso   1.000  H
  C275     1.0000 0.15069  0.72808  0.15859  Biso   1.000  C
  H190     1.0000 0.17331  0.85428  0.16800  Biso   1.000  H
  H191     1.0000 0.01202  0.45111  0.16619  Biso   1.000  H
  C276     1.0000 0.11987  0.56601  0.14941  Biso   1.000  C
  H192     1.0000 0.11360  0.73997  0.14050  Biso   1.000  H
  O60      1.0000 0.06559  0.58998  0.12781  Biso   1.000  O
  O61      1.0000 0.41002  0.06559  0.87779  Biso   1.000  O
  C277     1.0000 0.43399  0.11987  0.89939  Biso   1.000  C
  C278     1.0000 0.43399  0.11987  0.89942  Biso   1.000  C
  C279     1.0000 0.36078  0.16459  0.91689  Biso   1.000  C
  C280     1.0000 0.52110  0.13997  0.90850  Biso   1.000  C
  C281     1.0000 0.36078  0.16459  0.91692  Biso   1.000  C
  C282     1.0000 0.37667  0.22417  0.94399  Biso   1.000  C
  C283     1.0000 0.27192  0.15069  0.90860  Biso   1.000  C
  C284     1.0000 0.57221  0.06863  0.91771  Biso   1.000  C
  C285     1.0000 0.55819  0.22417  0.90929  Biso   1.000  C
  C286     1.0000 0.55819  0.22417  0.90931  Biso   1.000  C
  C287     1.0000 0.30798  0.25842  0.95949  Biso   1.000  C
  H193     1.0000 0.43393  0.23838  0.95051  Biso   1.000  H
  H194     1.0000 0.25997  0.11360  0.89050  Biso   1.000  H
  C288     1.0000 0.20330  0.18630  0.92449  Biso   1.000  C
  H195     1.0000 0.54889  0.01202  0.91620  Biso   1.000  H
  C289     1.0000 0.64918  0.07903  0.92810  Biso   1.000  C
  C290     1.0000 0.64006  0.23418  0.92030  Biso   1.000  C
  H196     1.0000 0.52582  0.27283  0.90211  Biso   1.000  H
  C291     1.0000 0.30087  0.32039  0.98689  Biso   1.000  C
  C292     1.0000 0.21939  0.24071  0.94970  Biso   1.000  C
  H197     1.0000 0.14572  0.17331  0.91800  Biso   1.000  H
  H198     1.0000 0.68187  0.02927  0.93390  Biso   1.000  H
  C293     1.0000 0.69021  0.16549  0.93160  Biso   1.000  C
  C294     1.0000 0.69318  0.31599  0.92531  Biso   1.000  C
  N25      1.0000 0.21803  0.33932  0.99250  Biso   1.000  N
  O62      1.0000 0.36517  0.34927  0.00217  Biso   1.000  O
  C295     1.0000 0.16278  0.28982  0.97280  Biso   1.000  C
  C296     1.0000 0.77480  0.19987  0.94481  Biso   1.000  C
  O63      1.0000 0.67586  0.38682  0.91785  Biso   1.000  O
  N26      1.0000 0.76879  0.28788  0.93960  Biso   1.000  N
  C297     1.0000 0.19289  0.39670  0.02051  Biso   1.000  C
  O64      1.0000 0.08859  0.28530  0.97260  Biso   1.000  O
  O65      1.0000 0.82268  0.15321  0.95789  Biso   1.000  O
  O66      1.0000 0.82268  0.15321  0.95791  Biso   1.000  O
  C298     1.0000 0.84233  0.35069  0.95241  Biso   1.000  C
  H199     1.0000 0.24401  0.43121  0.02789  Biso   1.000  H
  C299     1.0000 0.12071  0.45887  0.00669  Biso   1.000  C
  C300     1.0000 0.15767  0.35069  0.04759  Biso   1.000  C
  H200     1.0000 0.24401  0.43121  0.02792  Biso   1.000  H
  C301     1.0000 0.12071  0.45887  0.00671  Biso   1.000  C
  C302     1.0000 0.15767  0.35069  0.04761  Biso   1.000  C
  C303     1.0000 0.80711  0.39670  0.97949  Biso   1.000  C
  C304     1.0000 0.87218  0.39961  0.92469  Biso   1.000  C
  H201     1.0000 0.89131  0.31457  0.96070  Biso   1.000  H
  C305     1.0000 0.80711  0.39670  0.97951  Biso   1.000  C
  C306     1.0000 0.87218  0.39961  0.92472  Biso   1.000  C
  H202     1.0000 0.07102  0.42488  0.99849  Biso   1.000  H
  H203     1.0000 0.14391  0.49351  0.98810  Biso   1.000  H
  C307     1.0000 0.09099  0.52071  0.03569  Biso   1.000  C
  C308     1.0000 0.09099  0.52071  0.03572  Biso   1.000  C
  C309     1.0000 0.12782  0.39961  0.07531  Biso   1.000  C
  H204     1.0000 0.10869  0.31457  0.03930  Biso   1.000  H
  N27      1.0000 0.23121  0.28788  0.06040  Biso   1.000  N
  H205     1.0000 0.75599  0.43121  0.97211  Biso   1.000  H
  C310     1.0000 0.87929  0.45887  0.99331  Biso   1.000  C
  N28      1.0000 0.78197  0.33932  0.00750  Biso   1.000  N
  C311     1.0000 0.94229  0.45880  0.93721  Biso   1.000  C
  H206     1.0000 0.82430  0.43360  0.91509  Biso   1.000  H
  H207     1.0000 0.89538  0.36052  0.90751  Biso   1.000  H
  H208     1.0000 0.82430  0.43360  0.91511  Biso   1.000  H
  H209     1.0000 0.14010  0.55561  0.04391  Biso   1.000  H
  H210     1.0000 0.04452  0.56000  0.02831  Biso   1.000  H
  C312     1.0000 0.05771  0.45880  0.06279  Biso   1.000  C
  H211     1.0000 0.17570  0.43360  0.08491  Biso   1.000  H
  H212     1.0000 0.10462  0.36052  0.09249  Biso   1.000  H
  H213     1.0000 0.10462  0.36052  0.09251  Biso   1.000  H
  C313     1.0000 0.22520  0.19987  0.05519  Biso   1.000  C
  C314     1.0000 0.30682  0.31599  0.07469  Biso   1.000  C
  C315     1.0000 0.22520  0.19987  0.05522  Biso   1.000  C
  C316     1.0000 0.30682  0.31599  0.07472  Biso   1.000  C
  C317     1.0000 0.90901  0.52071  0.96431  Biso   1.000  C
  H214     1.0000 0.92898  0.42488  0.00151  Biso   1.000  H
  H215     1.0000 0.85609  0.49351  0.01190  Biso   1.000  H
  C318     1.0000 0.69913  0.32039  0.01311  Biso   1.000  C
  C319     1.0000 0.83722  0.28982  0.02720  Biso   1.000  C
  H216     1.0000 0.96517  0.49318  0.91859  Biso   1.000  H
  H217     1.0000 0.99031  0.42372  0.94619  Biso   1.000  H
  H218     1.0000 0.99031  0.42372  0.94621  Biso   1.000  H
  H219     1.0000 0.03483  0.49318  0.08141  Biso   1.000  H
  H220     1.0000 0.00969  0.42372  0.05381  Biso   1.000  H
  O67      1.0000 0.17732  0.15321  0.04211  Biso   1.000  O
  C320     1.0000 0.30979  0.16549  0.06840  Biso   1.000  C
  O68      1.0000 0.32407  0.38682  0.08215  Biso   1.000  O
  C321     1.0000 0.35987  0.23418  0.07970  Biso   1.000  C
  H221     1.0000 0.85990  0.55561  0.95609  Biso   1.000  H
  H222     1.0000 0.95548  0.56000  0.97169  Biso   1.000  H
  H223     1.0000 0.85990  0.55561  0.95611  Biso   1.000  H
  H224     1.0000 0.95548  0.56000  0.97171  Biso   1.000  H
  O69      1.0000 0.63477  0.34927  0.99783  Biso   1.000  O
  C322     1.0000 0.69202  0.25842  0.04051  Biso   1.000  C
  O70      1.0000 0.91141  0.28530  0.02740  Biso   1.000  O
  C323     1.0000 0.78061  0.24071  0.05030  Biso   1.000  C
  C324     1.0000 0.35082  0.07903  0.07190  Biso   1.000  C
  C325     1.0000 0.44181  0.22417  0.09071  Biso   1.000  C
  C326     1.0000 0.62333  0.22417  0.05601  Biso   1.000  C
  C327     1.0000 0.79670  0.18630  0.07551  Biso   1.000  C
  C328     1.0000 0.42779  0.06863  0.08229  Biso   1.000  C
  H225     1.0000 0.31813  0.02927  0.06610  Biso   1.000  H
  C329     1.0000 0.47890  0.13997  0.09150  Biso   1.000  C
  H226     1.0000 0.47418  0.27283  0.09789  Biso   1.000  H
  H227     1.0000 0.56607  0.23838  0.04949  Biso   1.000  H
  C330     1.0000 0.63922  0.16459  0.08311  Biso   1.000  C
  H228     1.0000 0.56607  0.23838  0.04951  Biso   1.000  H
  C331     1.0000 0.72808  0.15069  0.09140  Biso   1.000  C
  H229     1.0000 0.85428  0.17331  0.08200  Biso   1.000  H
  H230     1.0000 0.45111  0.01202  0.08380  Biso   1.000  H
  C332     1.0000 0.56601  0.11987  0.10061  Biso   1.000  C
  H231     1.0000 0.73997  0.11360  0.10950  Biso   1.000  H
  O71      1.0000 0.58998  0.06559  0.12221  Biso   1.000  O
  O72      1.0000 0.41002  0.06559  0.87779  Biso   1.000  O
  C333     1.0000 0.43399  0.11987  0.89939  Biso   1.000  C
  C334     1.0000 0.43399  0.11987  0.89942  Biso   1.000  C
  C335     1.0000 0.52110  0.13997  0.90850  Biso   1.000  C
  C336     1.0000 0.36078  0.16459  0.91689  Biso   1.000  C
  C337     1.0000 0.36078  0.16459  0.91692  Biso   1.000  C
  C338     1.0000 0.57221  0.06863  0.91771  Biso   1.000  C
  C339     1.0000 0.55819  0.22417  0.90929  Biso   1.000  C
  C340     1.0000 0.55819  0.22417  0.90931  Biso   1.000  C
  C341     1.0000 0.37667  0.22417  0.94399  Biso   1.000  C
  C342     1.0000 0.27192  0.15069  0.90860  Biso   1.000  C
  H232     1.0000 0.54889  0.01202  0.91620  Biso   1.000  H
  C343     1.0000 0.64918  0.07903  0.92810  Biso   1.000  C
  C344     1.0000 0.64006  0.23418  0.92030  Biso   1.000  C
  H233     1.0000 0.52582  0.27283  0.90211  Biso   1.000  H
  C345     1.0000 0.30798  0.25842  0.95949  Biso   1.000  C
  H234     1.0000 0.43393  0.23838  0.95051  Biso   1.000  H
  H235     1.0000 0.25997  0.11360  0.89050  Biso   1.000  H
  C346     1.0000 0.20330  0.18630  0.92449  Biso   1.000  C
  H236     1.0000 0.68187  0.02927  0.93390  Biso   1.000  H
  C347     1.0000 0.69021  0.16549  0.93160  Biso   1.000  C
  C348     1.0000 0.69318  0.31599  0.92531  Biso   1.000  C
  C349     1.0000 0.30087  0.32039  0.98689  Biso   1.000  C
  C350     1.0000 0.21939  0.24071  0.94970  Biso   1.000  C
  H237     1.0000 0.14572  0.17331  0.91800  Biso   1.000  H
  C351     1.0000 0.77480  0.19987  0.94481  Biso   1.000  C
  O73      1.0000 0.67586  0.38682  0.91785  Biso   1.000  O
  N29      1.0000 0.76879  0.28788  0.93960  Biso   1.000  N
  N30      1.0000 0.21803  0.33932  0.99250  Biso   1.000  N
  O74      1.0000 0.36517  0.34927  0.00217  Biso   1.000  O
  C352     1.0000 0.16278  0.28982  0.97280  Biso   1.000  C
  O75      1.0000 0.82268  0.15321  0.95789  Biso   1.000  O
  O76      1.0000 0.82268  0.15321  0.95791  Biso   1.000  O
  C353     1.0000 0.84233  0.35069  0.95241  Biso   1.000  C
  C354     1.0000 0.19289  0.39670  0.02051  Biso   1.000  C
  O77      1.0000 0.08859  0.28530  0.97260  Biso   1.000  O
  H238     1.0000 0.89131  0.31457  0.96070  Biso   1.000  H
  C355     1.0000 0.80711  0.39670  0.97949  Biso   1.000  C
  C356     1.0000 0.87218  0.39961  0.92469  Biso   1.000  C
  C357     1.0000 0.80711  0.39670  0.97951  Biso   1.000  C
  C358     1.0000 0.87218  0.39961  0.92472  Biso   1.000  C
  H239     1.0000 0.24401  0.43121  0.02789  Biso   1.000  H
  C359     1.0000 0.12071  0.45887  0.00669  Biso   1.000  C
  C360     1.0000 0.15767  0.35069  0.04759  Biso   1.000  C
  H240     1.0000 0.24401  0.43121  0.02792  Biso   1.000  H
  C361     1.0000 0.12071  0.45887  0.00671  Biso   1.000  C
  C362     1.0000 0.15767  0.35069  0.04761  Biso   1.000  C
  H241     1.0000 0.75599  0.43121  0.97211  Biso   1.000  H
  C363     1.0000 0.87929  0.45887  0.99331  Biso   1.000  C
  N31      1.0000 0.78197  0.33932  0.00750  Biso   1.000  N
  C364     1.0000 0.94229  0.45880  0.93721  Biso   1.000  C
  H242     1.0000 0.89538  0.36052  0.90751  Biso   1.000  H
  H243     1.0000 0.82430  0.43360  0.91509  Biso   1.000  H
  H244     1.0000 0.82430  0.43360  0.91511  Biso   1.000  H
  H245     1.0000 0.07102  0.42488  0.99849  Biso   1.000  H
  H246     1.0000 0.14391  0.49351  0.98810  Biso   1.000  H
  C365     1.0000 0.09099  0.52071  0.03569  Biso   1.000  C
  C366     1.0000 0.09099  0.52071  0.03572  Biso   1.000  C
  C367     1.0000 0.12782  0.39961  0.07531  Biso   1.000  C
  H247     1.0000 0.10869  0.31457  0.03930  Biso   1.000  H
  N32      1.0000 0.23121  0.28788  0.06040  Biso   1.000  N
  C368     1.0000 0.90901  0.52071  0.96431  Biso   1.000  C
  H248     1.0000 0.92898  0.42488  0.00151  Biso   1.000  H
  H249     1.0000 0.85609  0.49351  0.01190  Biso   1.000  H
  C369     1.0000 0.69913  0.32039  0.01311  Biso   1.000  C
  C370     1.0000 0.83722  0.28982  0.02720  Biso   1.000  C
  H250     1.0000 0.96517  0.49318  0.91859  Biso   1.000  H
  H251     1.0000 0.99031  0.42372  0.94619  Biso   1.000  H
  H252     1.0000 0.99031  0.42372  0.94621  Biso   1.000  H
  H253     1.0000 0.14010  0.55561  0.04391  Biso   1.000  H
  H254     1.0000 0.04452  0.56000  0.02831  Biso   1.000  H
  C371     1.0000 0.05771  0.45880  0.06279  Biso   1.000  C
  H255     1.0000 0.17570  0.43360  0.08491  Biso   1.000  H
  H256     1.0000 0.10462  0.36052  0.09249  Biso   1.000  H
  H257     1.0000 0.10462  0.36052  0.09251  Biso   1.000  H
  C372     1.0000 0.22520  0.19987  0.05519  Biso   1.000  C
  C373     1.0000 0.30682  0.31599  0.07469  Biso   1.000  C
  C374     1.0000 0.22520  0.19987  0.05522  Biso   1.000  C
  C375     1.0000 0.30682  0.31599  0.07472  Biso   1.000  C
  H258     1.0000 0.85990  0.55561  0.95609  Biso   1.000  H
  H259     1.0000 0.95548  0.56000  0.97169  Biso   1.000  H
  H260     1.0000 0.85990  0.55561  0.95611  Biso   1.000  H
  H261     1.0000 0.95548  0.56000  0.97171  Biso   1.000  H
  O78      1.0000 0.63477  0.34927  0.99783  Biso   1.000  O
  C376     1.0000 0.69202  0.25842  0.04051  Biso   1.000  C
  O79      1.0000 0.91141  0.28530  0.02740  Biso   1.000  O
  C377     1.0000 0.78061  0.24071  0.05030  Biso   1.000  C
  H262     1.0000 0.03483  0.49318  0.08141  Biso   1.000  H
  H263     1.0000 0.00969  0.42372  0.05381  Biso   1.000  H
  O80      1.0000 0.17732  0.15321  0.04211  Biso   1.000  O
  C378     1.0000 0.30979  0.16549  0.06840  Biso   1.000  C
  O81      1.0000 0.32407  0.38682  0.08215  Biso   1.000  O
  C379     1.0000 0.35987  0.23418  0.07970  Biso   1.000  C
  C380     1.0000 0.62333  0.22417  0.05601  Biso   1.000  C
  C381     1.0000 0.79670  0.18630  0.07551  Biso   1.000  C
  C382     1.0000 0.35082  0.07903  0.07190  Biso   1.000  C
  C383     1.0000 0.44181  0.22417  0.09071  Biso   1.000  C
  H264     1.0000 0.56607  0.23838  0.04949  Biso   1.000  H
  C384     1.0000 0.63922  0.16459  0.08311  Biso   1.000  C
  H265     1.0000 0.56607  0.23838  0.04951  Biso   1.000  H
  C385     1.0000 0.72808  0.15069  0.09140  Biso   1.000  C
  H266     1.0000 0.85428  0.17331  0.08200  Biso   1.000  H
  C386     1.0000 0.42779  0.06863  0.08229  Biso   1.000  C
  H267     1.0000 0.31813  0.02927  0.06610  Biso   1.000  H
  C387     1.0000 0.47890  0.13997  0.09150  Biso   1.000  C
  H268     1.0000 0.47418  0.27283  0.09789  Biso   1.000  H
  C388     1.0000 0.56601  0.11987  0.10061  Biso   1.000  C
  H269     1.0000 0.73997  0.11360  0.10950  Biso   1.000  H
  H270     1.0000 0.45111  0.01202  0.08380  Biso   1.000  H
  O82      1.0000 0.58998  0.06559  0.12221  Biso   1.000  O
  C389     1.0000 0.76078  0.22759  0.25291  Biso   1.000  C
  C390     1.0000 0.76711  0.27431  0.22190  Biso   1.000  C
  C391     1.0000 0.81900  0.14191  0.25219  Biso   1.000  C
  H271     1.0000 0.69971  0.21183  0.25700  Biso   1.000  H
  H272     1.0000 0.78010  0.26540  0.27110  Biso   1.000  H
  N33      1.0000 0.71270  0.35082  0.21909  Biso   1.000  N
  H273     1.0000 0.82863  0.29208  0.21860  Biso   1.000  H
  C392     1.0000 0.73861  0.20989  0.19090  Biso   1.000  C
  C393     1.0000 0.77667  0.08368  0.22499  Biso   1.000  C
  H274     1.0000 0.87942  0.15580  0.24661  Biso   1.000  H
  H275     1.0000 0.81751  0.11257  0.27401  Biso   1.000  H
  C394     1.0000 0.62662  0.35231  0.22380  Biso   1.000  C
  C395     1.0000 0.74242  0.42443  0.20890  Biso   1.000  C
  H276     1.0000 0.67528  0.19890  0.19320  Biso   1.000  H
  C396     1.0000 0.78300  0.12258  0.18989  Biso   1.000  C
  N34      1.0000 0.75069  0.26578  0.16101  Biso   1.000  N
  H277     1.0000 0.80536  0.02649  0.22511  Biso   1.000  H
  H278     1.0000 0.71502  0.07457  0.23049  Biso   1.000  H
  O83      1.0000 0.57977  0.29157  0.23331  Biso   1.000  O
  C397     1.0000 0.59237  0.44601  0.21371  Biso   1.000  C
  C398     1.0000 0.65913  0.48827  0.20411  Biso   1.000  C
  O84      1.0000 0.81790  0.43948  0.20260  Biso   1.000  O
  H279     1.0000 0.84426  0.12931  0.18340  Biso   1.000  H
  H280     1.0000 0.75418  0.08433  0.17380  Biso   1.000  H
  C399     1.0000 0.82197  0.29900  0.14780  Biso   1.000  C
  C400     1.0000 0.68090  0.31528  0.14531  Biso   1.000  C
  C401     1.0000 0.51089  0.47199  0.21161  Biso   1.000  C
  C402     1.0000 0.65519  0.57829  0.19260  Biso   1.000  C
  O85      1.0000 0.89609  0.26688  0.15521  Biso   1.000  O
  C403     1.0000 0.80097  0.36691  0.12250  Biso   1.000  C
  O86      1.0000 0.60627  0.29357  0.15277  Biso   1.000  O
  C404     1.0000 0.71509  0.37493  0.12329  Biso   1.000  C
  C405     1.0000 0.50578  0.55283  0.20139  Biso   1.000  C
  H281     1.0000 0.46242  0.43703  0.21679  Biso   1.000  H
  H282     1.0000 0.70443  0.61170  0.18680  Biso   1.000  H
  C406     1.0000 0.57480  0.60730  0.19140  Biso   1.000  C
  C407     1.0000 0.85861  0.41848  0.10431  Biso   1.000  C
  C408     1.0000 0.67037  0.43942  0.10631  Biso   1.000  C
  H283     1.0000 0.44950  0.57719  0.20050  Biso   1.000  H
  C409     1.0000 0.56808  0.69260  0.17900  Biso   1.000  C
  C410     1.0000 0.82481  0.48006  0.08871  Biso   1.000  C
  H284     1.0000 0.91897  0.40763  0.10389  Biso   1.000  H
  C411     1.0000 0.72717  0.49221  0.08750  Biso   1.000  C
  H285     1.0000 0.60950  0.44698  0.10720  Biso   1.000  H
  O87      1.0000 0.62759  0.74682  0.18599  Biso   1.000  O
  C412     1.0000 0.49221  0.72717  0.16249  Biso   1.000  C
  H286     1.0000 0.86087  0.52000  0.07741  Biso   1.000  H
  C413     1.0000 0.69260  0.56808  0.07099  Biso   1.000  C
  C414     1.0000 0.48006  0.82481  0.16131  Biso   1.000  C
  C415     1.0000 0.43942  0.67037  0.14371  Biso   1.000  C
  O88      1.0000 0.74682  0.62759  0.06400  Biso   1.000  O
  C416     1.0000 0.60730  0.57480  0.05860  Biso   1.000  C
  H287     1.0000 0.52000  0.86087  0.17261  Biso   1.000  H
  C417     1.0000 0.41848  0.85861  0.14571  Biso   1.000  C
  C418     1.0000 0.37493  0.71509  0.12670  Biso   1.000  C
  H288     1.0000 0.44698  0.60950  0.14279  Biso   1.000  H
  C419     1.0000 0.57829  0.65519  0.05739  Biso   1.000  C
  C420     1.0000 0.55283  0.50578  0.04860  Biso   1.000  C
  H289     1.0000 0.40763  0.91897  0.14610  Biso   1.000  H
  C421     1.0000 0.36691  0.80097  0.12749  Biso   1.000  C
  C422     1.0000 0.31528  0.68090  0.10471  Biso   1.000  C
  C423     1.0000 0.48827  0.65913  0.04591  Biso   1.000  C
  H290     1.0000 0.61170  0.70443  0.06319  Biso   1.000  H
  H291     1.0000 0.57719  0.44950  0.04949  Biso   1.000  H
  C424     1.0000 0.47199  0.51089  0.03841  Biso   1.000  C
  C425     1.0000 0.29900  0.82197  0.10219  Biso   1.000  C
  O89      1.0000 0.29357  0.60627  0.09723  Biso   1.000  O
  N35      1.0000 0.26578  0.75069  0.08901  Biso   1.000  N
  C426     1.0000 0.42443  0.74242  0.04110  Biso   1.000  C
  C427     1.0000 0.44601  0.59237  0.03631  Biso   1.000  C
  H292     1.0000 0.43703  0.46242  0.03320  Biso   1.000  H
  O90      1.0000 0.26688  0.89609  0.09481  Biso   1.000  O
  C428     1.0000 0.20989  0.73861  0.05909  Biso   1.000  C
  N36      1.0000 0.35082  0.71270  0.03090  Biso   1.000  N
  O91      1.0000 0.43948  0.81790  0.04739  Biso   1.000  O
  C429     1.0000 0.35231  0.62662  0.02619  Biso   1.000  C
  C430     1.0000 0.27431  0.76711  0.02809  Biso   1.000  C
  H293     1.0000 0.19890  0.67528  0.05680  Biso   1.000  H
  C431     1.0000 0.12258  0.78300  0.06010  Biso   1.000  C
  O92      1.0000 0.29157  0.57977  0.01671  Biso   1.000  O
  H294     1.0000 0.29208  0.82863  0.03140  Biso   1.000  H
  C432     1.0000 0.22759  0.76078  0.99711  Biso   1.000  C
  H295     1.0000 0.12931  0.84426  0.06660  Biso   1.000  H
  H296     1.0000 0.08433  0.75418  0.07620  Biso   1.000  H
  C433     1.0000 0.08368  0.77667  0.02500  Biso   1.000  C
  C434     1.0000 0.14191  0.81900  0.99780  Biso   1.000  C
  H297     1.0000 0.21183  0.69971  0.99299  Biso   1.000  H
  H298     1.0000 0.26540  0.78010  0.97890  Biso   1.000  H
  H299     1.0000 0.02649  0.80536  0.02491  Biso   1.000  H
  H300     1.0000 0.07457  0.71502  0.01950  Biso   1.000  H
  H301     1.0000 0.15580  0.87942  0.00341  Biso   1.000  H
  H302     1.0000 0.11257  0.81751  0.97601  Biso   1.000  H
