data_image0
_cell_length_a       16.12
_cell_length_b       28.187
_cell_length_c       22.96
_cell_angle_alpha    90
_cell_angle_beta     91.18
_cell_angle_gamma    90

_symmetry_space_group_name_H-M    "P 1"
_symmetry_int_tables_number       1

loop_
  _symmetry_equiv_pos_as_xyz
  'x, y, z'

loop_
  _atom_site_label
  _atom_site_occupancy
  _atom_site_fract_x
  _atom_site_fract_y
  _atom_site_fract_z
  _atom_site_thermal_displace_type
  _atom_site_B_iso_or_equiv
  _atom_site_type_symbol
  C1       1.0000 0.16103  0.36772  0.49653  Biso   1.000  C
  C2       1.0000 0.15104  0.31915  0.46700  Biso   1.000  C
  C3       1.0000 0.15098  0.31915  0.46700  Biso   1.000  C
  C4       1.0000 0.17456  0.36464  0.56231  Biso   1.000  C
  H1       1.0000 0.11085  0.38692  0.48821  Biso   1.000  H
  H2       1.0000 0.20879  0.38440  0.47950  Biso   1.000  H
  C5       1.0000 0.17450  0.36464  0.56231  Biso   1.000  C
  H3       1.0000 0.11078  0.38692  0.48821  Biso   1.000  H
  C6       1.0000 0.15972  0.32419  0.40104  Biso   1.000  C
  H4       1.0000 0.19885  0.29929  0.48098  Biso   1.000  H
  C7       1.0000 0.07252  0.29315  0.48429  Biso   1.000  C
  H5       1.0000 0.19879  0.29929  0.48098  Biso   1.000  H
  C8       1.0000 0.07246  0.29315  0.48429  Biso   1.000  C
  C9       1.0000 0.19326  0.41296  0.58880  Biso   1.000  C
  H6       1.0000 0.22134  0.34282  0.57107  Biso   1.000  H
  H7       1.0000 0.12421  0.35140  0.58018  Biso   1.000  H
  H8       1.0000 0.22128  0.34282  0.57107  Biso   1.000  H
  C10      1.0000 0.21601  0.29680  0.37033  Biso   1.000  C
  C11      1.0000 0.21595  0.29680  0.37033  Biso   1.000  C
  C12      1.0000 0.11612  0.35864  0.36972  Biso   1.000  C
  C13      1.0000 0.00002  0.31649  0.49998  Biso   1.000  C
  C14      1.0000 0.07085  0.24384  0.48464  Biso   1.000  C
  C15      1.0000 0.22144  0.41005  0.65266  Biso   1.000  C
  H9       1.0000 0.23720  0.42850  0.56619  Biso   1.000  H
  H10      1.0000 0.14280  0.43289  0.58579  Biso   1.000  H
  C16      1.0000 0.23082  0.30684  0.31252  Biso   1.000  C
  C17      1.0000 0.23075  0.30684  0.31252  Biso   1.000  C
  O1       1.0000 0.25930  0.25994  0.39516  Biso   1.000  O
  C18      1.0000 0.12861  0.36893  0.31135  Biso   1.000  C
  C19      1.0000 0.12855  0.36893  0.31135  Biso   1.000  C
  H11      1.0000 0.07513  0.37631  0.38950  Biso   1.000  H
  H12      1.0000 0.07507  0.37631  0.38950  Biso   1.000  H
  H13      1.0000 0.00002  0.35020  0.49998  Biso   1.000  H
  C20      1.0000 0.92753  0.29315  0.51566  Biso   1.000  C
  O2       1.0000 0.14066  0.21982  0.46822  Biso   1.000  O
  C21      1.0000 0.00002  0.21964  0.49998  Biso   1.000  C
  O3       1.0000 0.14059  0.21982  0.46822  Biso   1.000  O
  C22      1.0000 0.25880  0.45635  0.67453  Biso   1.000  C
  H14      1.0000 0.26685  0.38589  0.65480  Biso   1.000  H
  C23      1.0000 0.15427  0.39312  0.69322  Biso   1.000  C
  C24      1.0000 0.25874  0.45635  0.67453  Biso   1.000  C
  H15      1.0000 0.26679  0.38589  0.65480  Biso   1.000  H
  C25      1.0000 0.18909  0.34303  0.28360  Biso   1.000  C
  H16      1.0000 0.27029  0.28850  0.29218  Biso   1.000  H
  H17      1.0000 0.23213  0.24859  0.42269  Biso   1.000  H
  H18      1.0000 0.23206  0.24859  0.42269  Biso   1.000  H
  C26      1.0000 0.08069  0.40856  0.28085  Biso   1.000  C
  C27      1.0000 0.84901  0.31915  0.53295  Biso   1.000  C
  C28      1.0000 0.92920  0.24384  0.51535  Biso   1.000  C
  H19      1.0000 0.13143  0.19030  0.47088  Biso   1.000  H
  H20      1.0000 0.13137  0.19030  0.47088  Biso   1.000  H
  H21      1.0000 0.00002  0.18590  0.49998  Biso   1.000  H
  C29      1.0000 0.22660  0.50002  0.65746  Biso   1.000  C
  C30      1.0000 0.32708  0.45737  0.71370  Biso   1.000  C
  C31      1.0000 0.32701  0.45737  0.71370  Biso   1.000  C
  C32      1.0000 0.07206  0.40866  0.68873  Biso   1.000  C
  C33      1.0000 0.17423  0.36247  0.73922  Biso   1.000  C
  C34      1.0000 0.07200  0.40866  0.68873  Biso   1.000  C
  O4       1.0000 0.20703  0.35371  0.22701  Biso   1.000  O
  O5       1.0000 0.20697  0.35371  0.22701  Biso   1.000  O
  H22      1.0000 0.10378  0.41182  0.24099  Biso   1.000  H
  C35      1.0000 0.09682  0.45571  0.31257  Biso   1.000  C
  C36      1.0000 0.98996  0.39511  0.27327  Biso   1.000  C
  C37      1.0000 0.83902  0.36772  0.50342  Biso   1.000  C
  C38      1.0000 0.84033  0.32419  0.59891  Biso   1.000  C
  H23      1.0000 0.80120  0.29929  0.51901  Biso   1.000  H
  C39      1.0000 0.83896  0.36772  0.50342  Biso   1.000  C
  C40      1.0000 0.84027  0.32419  0.59891  Biso   1.000  C
  O6       1.0000 0.85939  0.21982  0.53178  Biso   1.000  O
  H24      1.0000 0.17915  0.50002  0.63219  Biso   1.000  H
  C41      1.0000 0.25880  0.54365  0.67453  Biso   1.000  C
  H25      1.0000 0.17909  0.50002  0.63219  Biso   1.000  H
  C42      1.0000 0.25874  0.54365  0.67453  Biso   1.000  C
  C43      1.0000 0.36024  0.50002  0.73208  Biso   1.000  C
  O7       1.0000 0.36526  0.41672  0.73391  Biso   1.000  O
  C44      1.0000 0.36018  0.50002  0.73208  Biso   1.000  C
  O8       1.0000 0.36520  0.41672  0.73391  Biso   1.000  O
  H26      1.0000 0.05751  0.42981  0.65789  Biso   1.000  H
  C45      1.0000 0.01009  0.39511  0.72672  Biso   1.000  C
  C46      1.0000 0.01003  0.39511  0.72672  Biso   1.000  C
  O9       1.0000 0.25509  0.34693  0.74463  Biso   1.000  O
  C47      1.0000 0.11488  0.34839  0.77808  Biso   1.000  C
  O10      1.0000 0.25503  0.34693  0.74463  Biso   1.000  O
  C48      1.0000 0.11482  0.34839  0.77808  Biso   1.000  C
  H27      1.0000 0.25691  0.34722  0.22078  Biso   1.000  H
  C49      1.0000 0.06674  0.50002  0.28085  Biso   1.000  C
  H28      1.0000 0.15734  0.45879  0.32002  Biso   1.000  H
  H29      1.0000 0.06985  0.45439  0.35090  Biso   1.000  H
  C50      1.0000 0.06667  0.50002  0.28085  Biso   1.000  C
  H30      1.0000 0.15728  0.45879  0.32002  Biso   1.000  H
  H31      1.0000 0.06978  0.45439  0.35090  Biso   1.000  H
  C51      1.0000 0.92799  0.40866  0.31126  Biso   1.000  C
  C52      1.0000 0.96611  0.36449  0.22766  Biso   1.000  C
  C53      1.0000 0.82549  0.36464  0.43768  Biso   1.000  C
  H32      1.0000 0.88920  0.38692  0.51178  Biso   1.000  H
  H33      1.0000 0.79126  0.38440  0.52049  Biso   1.000  H
  H34      1.0000 0.79120  0.38440  0.52049  Biso   1.000  H
  C54      1.0000 0.88393  0.35864  0.63023  Biso   1.000  C
  C55      1.0000 0.78404  0.29680  0.62962  Biso   1.000  C
  C56      1.0000 0.88387  0.35864  0.63023  Biso   1.000  C
  H35      1.0000 0.86862  0.19030  0.52908  Biso   1.000  H
  C57      1.0000 0.32708  0.54266  0.71370  Biso   1.000  C
  C58      1.0000 0.22144  0.58995  0.65266  Biso   1.000  C
  C59      1.0000 0.32701  0.54266  0.71370  Biso   1.000  C
  H36      1.0000 0.40703  0.50002  0.75800  Biso   1.000  H
  H37      1.0000 0.40697  0.50002  0.75800  Biso   1.000  H
  H38      1.0000 0.32824  0.39600  0.74079  Biso   1.000  H
  H39      1.0000 0.32818  0.39600  0.74079  Biso   1.000  H
  C60      1.0000 0.91936  0.40856  0.71910  Biso   1.000  C
  C61      1.0000 0.91929  0.40856  0.71910  Biso   1.000  C
  C62      1.0000 0.03394  0.36449  0.77233  Biso   1.000  C
  C63      1.0000 0.03388  0.36449  0.77233  Biso   1.000  C
  H40      1.0000 0.26263  0.33452  0.77760  Biso   1.000  H
  H41      1.0000 0.12962  0.32742  0.80897  Biso   1.000  H
  C64      1.0000 0.09682  0.54429  0.31257  Biso   1.000  C
  H42      1.0000 0.00532  0.50002  0.27859  Biso   1.000  H
  H43      1.0000 0.08764  0.50002  0.24060  Biso   1.000  H
  H44      1.0000 0.08758  0.50002  0.24060  Biso   1.000  H
  H45      1.0000 0.94254  0.42981  0.34210  Biso   1.000  H
  C65      1.0000 0.84578  0.39312  0.30677  Biso   1.000  C
  H46      1.0000 0.94248  0.42981  0.34210  Biso   1.000  H
  O11      1.0000 0.02585  0.35055  0.18972  Biso   1.000  O
  O12      1.0000 0.02579  0.35055  0.18972  Biso   1.000  O
  C66      1.0000 0.88517  0.34839  0.22191  Biso   1.000  C
  C67      1.0000 0.80679  0.41296  0.41119  Biso   1.000  C
  H47      1.0000 0.77871  0.34282  0.42888  Biso   1.000  H
  H48      1.0000 0.87584  0.35140  0.41978  Biso   1.000  H
  H49      1.0000 0.87577  0.35140  0.41978  Biso   1.000  H
  H50      1.0000 0.92492  0.37631  0.61050  Biso   1.000  H
  C68      1.0000 0.87144  0.36893  0.68865  Biso   1.000  C
  O13      1.0000 0.74076  0.25994  0.60483  Biso   1.000  O
  C69      1.0000 0.76923  0.30684  0.68747  Biso   1.000  C
  O14      1.0000 0.36526  0.58328  0.73391  Biso   1.000  O
  O15      1.0000 0.36520  0.58328  0.73391  Biso   1.000  O
  H51      1.0000 0.26685  0.61411  0.65480  Biso   1.000  H
  C70      1.0000 0.15427  0.60688  0.69322  Biso   1.000  C
  C71      1.0000 0.19326  0.58704  0.58880  Biso   1.000  C
  H52      1.0000 0.26679  0.61411  0.65480  Biso   1.000  H
  H53      1.0000 0.89627  0.41182  0.75900  Biso   1.000  H
  C72      1.0000 0.90323  0.45571  0.68738  Biso   1.000  C
  H54      1.0000 0.89621  0.41182  0.75900  Biso   1.000  H
  C73      1.0000 0.90316  0.45571  0.68738  Biso   1.000  C
  O16      1.0000 0.97420  0.35055  0.81028  Biso   1.000  O
  C74      1.0000 0.08069  0.59144  0.28085  Biso   1.000  C
  H55      1.0000 0.15734  0.54121  0.32002  Biso   1.000  H
  H56      1.0000 0.06985  0.54561  0.35090  Biso   1.000  H
  H57      1.0000 0.15728  0.54121  0.32002  Biso   1.000  H
  H58      1.0000 0.06978  0.54561  0.35090  Biso   1.000  H
  C75      1.0000 0.77861  0.41005  0.34733  Biso   1.000  C
  C76      1.0000 0.82582  0.36247  0.26077  Biso   1.000  C
  C77      1.0000 0.77855  0.41005  0.34733  Biso   1.000  C
  C78      1.0000 0.82576  0.36247  0.26077  Biso   1.000  C
  H59      1.0000 0.00370  0.33512  0.16219  Biso   1.000  H
  H60      1.0000 0.87043  0.32742  0.19098  Biso   1.000  H
  H61      1.0000 0.87037  0.32742  0.19098  Biso   1.000  H
  H62      1.0000 0.76285  0.42850  0.43380  Biso   1.000  H
  H63      1.0000 0.85725  0.43289  0.41420  Biso   1.000  H
  H64      1.0000 0.76279  0.42850  0.43380  Biso   1.000  H
  H65      1.0000 0.85719  0.43289  0.41420  Biso   1.000  H
  C79      1.0000 0.81096  0.34303  0.71640  Biso   1.000  C
  C80      1.0000 0.81090  0.34303  0.71640  Biso   1.000  C
  H66      1.0000 0.76793  0.24859  0.57730  Biso   1.000  H
  H67      1.0000 0.72976  0.28850  0.70777  Biso   1.000  H
  H68      1.0000 0.72969  0.28850  0.70777  Biso   1.000  H
  H69      1.0000 0.32824  0.60400  0.74079  Biso   1.000  H
  H70      1.0000 0.32818  0.60400  0.74079  Biso   1.000  H
  C81      1.0000 0.07206  0.59134  0.68873  Biso   1.000  C
  C82      1.0000 0.17423  0.63753  0.73922  Biso   1.000  C
  C83      1.0000 0.07200  0.59134  0.68873  Biso   1.000  C
  C84      1.0000 0.17456  0.63540  0.56231  Biso   1.000  C
  C85      1.0000 0.17450  0.63540  0.56231  Biso   1.000  C
  H71      1.0000 0.23720  0.57150  0.56619  Biso   1.000  H
  H72      1.0000 0.14280  0.56711  0.58579  Biso   1.000  H
  C86      1.0000 0.93331  0.50002  0.71914  Biso   1.000  C
  H73      1.0000 0.84271  0.45879  0.67998  Biso   1.000  H
  H74      1.0000 0.93021  0.45439  0.64909  Biso   1.000  H
  H75      1.0000 0.99635  0.33512  0.83776  Biso   1.000  H
  H76      1.0000 0.10378  0.58821  0.24099  Biso   1.000  H
  C87      1.0000 0.12861  0.63107  0.31135  Biso   1.000  C
  C88      1.0000 0.12855  0.63107  0.31135  Biso   1.000  C
  C89      1.0000 0.98996  0.60489  0.27327  Biso   1.000  C
  C90      1.0000 0.74125  0.45635  0.32546  Biso   1.000  C
  H77      1.0000 0.73320  0.38589  0.34520  Biso   1.000  H
  O17      1.0000 0.74496  0.34693  0.25537  Biso   1.000  O
  O18      1.0000 0.79302  0.35371  0.77299  Biso   1.000  O
  H78      1.0000 0.05751  0.57019  0.65789  Biso   1.000  H
  C91      1.0000 0.01009  0.60489  0.72672  Biso   1.000  C
  C92      1.0000 0.01003  0.60489  0.72672  Biso   1.000  C
  O19      1.0000 0.25509  0.65310  0.74463  Biso   1.000  O
  C93      1.0000 0.11488  0.65165  0.77808  Biso   1.000  C
  O20      1.0000 0.25503  0.65310  0.74463  Biso   1.000  O
  C94      1.0000 0.11482  0.65165  0.77808  Biso   1.000  C
  C95      1.0000 0.16103  0.63228  0.49653  Biso   1.000  C
  H79      1.0000 0.22134  0.65722  0.57107  Biso   1.000  H
  H80      1.0000 0.12421  0.64860  0.58018  Biso   1.000  H
  H81      1.0000 0.22128  0.65722  0.57107  Biso   1.000  H
  C96      1.0000 0.90323  0.54429  0.68738  Biso   1.000  C
  H82      1.0000 0.99473  0.50002  0.72141  Biso   1.000  H
  H83      1.0000 0.91241  0.50002  0.75939  Biso   1.000  H
  C97      1.0000 0.90316  0.54429  0.68738  Biso   1.000  C
  C98      1.0000 0.11612  0.64139  0.36972  Biso   1.000  C
  C99      1.0000 0.18909  0.65701  0.28360  Biso   1.000  C
  C100     1.0000 0.92799  0.59134  0.31126  Biso   1.000  C
  C101     1.0000 0.96611  0.63551  0.22766  Biso   1.000  C
  C102     1.0000 0.77345  0.50002  0.34254  Biso   1.000  C
  C103     1.0000 0.67298  0.45737  0.28630  Biso   1.000  C
  C104     1.0000 0.77338  0.50002  0.34254  Biso   1.000  C
  H84      1.0000 0.73742  0.33452  0.22239  Biso   1.000  H
  H85      1.0000 0.74314  0.34722  0.77917  Biso   1.000  H
  C105     1.0000 0.91936  0.59144  0.71910  Biso   1.000  C
  C106     1.0000 0.91929  0.59144  0.71910  Biso   1.000  C
  C107     1.0000 0.03394  0.63551  0.77233  Biso   1.000  C
  C108     1.0000 0.03388  0.63551  0.77233  Biso   1.000  C
  H86      1.0000 0.26263  0.66552  0.77760  Biso   1.000  H
  H87      1.0000 0.12962  0.67262  0.80897  Biso   1.000  H
  C109     1.0000 0.15104  0.68085  0.46700  Biso   1.000  C
  C110     1.0000 0.15098  0.68085  0.46700  Biso   1.000  C
  H88      1.0000 0.11085  0.61312  0.48821  Biso   1.000  H
  H89      1.0000 0.20879  0.61560  0.47950  Biso   1.000  H
  H90      1.0000 0.11078  0.61312  0.48821  Biso   1.000  H
  H91      1.0000 0.84271  0.54121  0.67998  Biso   1.000  H
  H92      1.0000 0.93021  0.54561  0.64909  Biso   1.000  H
  H93      1.0000 0.07513  0.62369  0.38950  Biso   1.000  H
  C111     1.0000 0.15972  0.67581  0.40104  Biso   1.000  C
  H94      1.0000 0.07507  0.62369  0.38950  Biso   1.000  H
  O21      1.0000 0.20703  0.64629  0.22701  Biso   1.000  O
  C112     1.0000 0.23082  0.69319  0.31252  Biso   1.000  C
  O22      1.0000 0.20697  0.64629  0.22701  Biso   1.000  O
  C113     1.0000 0.23075  0.69319  0.31252  Biso   1.000  C
  H95      1.0000 0.94254  0.57019  0.34210  Biso   1.000  H
  C114     1.0000 0.84578  0.60688  0.30677  Biso   1.000  C
  H96      1.0000 0.94248  0.57019  0.34210  Biso   1.000  H
  O23      1.0000 0.02585  0.64945  0.18972  Biso   1.000  O
  O24      1.0000 0.02579  0.64945  0.18972  Biso   1.000  O
  C115     1.0000 0.88517  0.65165  0.22191  Biso   1.000  C
  H97      1.0000 0.82090  0.50002  0.36780  Biso   1.000  H
  C116     1.0000 0.74125  0.54365  0.32546  Biso   1.000  C
  C117     1.0000 0.63981  0.50002  0.26791  Biso   1.000  C
  O25      1.0000 0.63479  0.41672  0.26608  Biso   1.000  O
  H98      1.0000 0.89627  0.58821  0.75900  Biso   1.000  H
  C118     1.0000 0.87144  0.63107  0.68865  Biso   1.000  C
  H99      1.0000 0.89621  0.58821  0.75900  Biso   1.000  H
  O26      1.0000 0.97420  0.64945  0.81028  Biso   1.000  O
  H100     1.0000 0.19885  0.70071  0.48098  Biso   1.000  H
  C119     1.0000 0.07252  0.70685  0.48429  Biso   1.000  C
  H101     1.0000 0.19879  0.70071  0.48098  Biso   1.000  H
  C120     1.0000 0.07246  0.70685  0.48429  Biso   1.000  C
  C121     1.0000 0.21601  0.70320  0.37033  Biso   1.000  C
  C122     1.0000 0.21595  0.70320  0.37033  Biso   1.000  C
  H102     1.0000 0.25691  0.65282  0.22078  Biso   1.000  H
  H103     1.0000 0.27029  0.71150  0.29218  Biso   1.000  H
  C123     1.0000 0.77861  0.58995  0.34733  Biso   1.000  C
  C124     1.0000 0.82582  0.63753  0.26077  Biso   1.000  C
  C125     1.0000 0.77855  0.58995  0.34733  Biso   1.000  C
  C126     1.0000 0.82576  0.63753  0.26077  Biso   1.000  C
  H104     1.0000 0.00370  0.66492  0.16219  Biso   1.000  H
  H105     1.0000 0.87043  0.67262  0.19098  Biso   1.000  H
  H106     1.0000 0.87037  0.67262  0.19098  Biso   1.000  H
  C127     1.0000 0.67298  0.54266  0.28630  Biso   1.000  C
  H107     1.0000 0.59302  0.50002  0.24199  Biso   1.000  H
  H108     1.0000 0.67181  0.39600  0.25920  Biso   1.000  H
  C128     1.0000 0.88393  0.64139  0.63023  Biso   1.000  C
  C129     1.0000 0.88387  0.64139  0.63023  Biso   1.000  C
  C130     1.0000 0.81096  0.65701  0.71640  Biso   1.000  C
  C131     1.0000 0.81090  0.65701  0.71640  Biso   1.000  C
  H109     1.0000 0.99635  0.66492  0.83776  Biso   1.000  H
  C132     1.0000 0.00002  0.68351  0.49998  Biso   1.000  C
  C133     1.0000 0.07085  0.75616  0.48464  Biso   1.000  C
  O27      1.0000 0.25930  0.74006  0.39516  Biso   1.000  O
  H110     1.0000 0.73320  0.61411  0.34520  Biso   1.000  H
  C134     1.0000 0.80679  0.58704  0.41119  Biso   1.000  C
  O28      1.0000 0.74496  0.65310  0.25537  Biso   1.000  O
  O29      1.0000 0.63479  0.58328  0.26608  Biso   1.000  O
  C135     1.0000 0.84033  0.67581  0.59891  Biso   1.000  C
  C136     1.0000 0.84027  0.67581  0.59891  Biso   1.000  C
  H111     1.0000 0.92492  0.62369  0.61050  Biso   1.000  H
  C137     1.0000 0.76923  0.69319  0.68747  Biso   1.000  C
  O30      1.0000 0.79302  0.64629  0.77299  Biso   1.000  O
  H112     1.0000 0.00002  0.64980  0.49998  Biso   1.000  H
  C138     1.0000 0.92753  0.70685  0.51566  Biso   1.000  C
  O31      1.0000 0.14066  0.78018  0.46822  Biso   1.000  O
  C139     1.0000 0.00002  0.78036  0.49998  Biso   1.000  C
  O32      1.0000 0.14059  0.78018  0.46822  Biso   1.000  O
  H113     1.0000 0.23213  0.75141  0.42269  Biso   1.000  H
  H114     1.0000 0.23206  0.75141  0.42269  Biso   1.000  H
  H115     1.0000 0.76285  0.57150  0.43380  Biso   1.000  H
  H116     1.0000 0.85725  0.56711  0.41420  Biso   1.000  H
  C140     1.0000 0.82549  0.63540  0.43768  Biso   1.000  C
  H117     1.0000 0.76279  0.57150  0.43380  Biso   1.000  H
  H118     1.0000 0.85719  0.56711  0.41420  Biso   1.000  H
  H119     1.0000 0.73742  0.66552  0.22239  Biso   1.000  H
  H120     1.0000 0.67181  0.60400  0.25920  Biso   1.000  H
  C141     1.0000 0.84901  0.68085  0.53295  Biso   1.000  C
  C142     1.0000 0.78404  0.70320  0.62962  Biso   1.000  C
  H121     1.0000 0.72976  0.71150  0.70777  Biso   1.000  H
  H122     1.0000 0.72969  0.71150  0.70777  Biso   1.000  H
  H123     1.0000 0.74314  0.65282  0.77917  Biso   1.000  H
  C143     1.0000 0.92920  0.75616  0.51535  Biso   1.000  C
  H124     1.0000 0.13143  0.80970  0.47088  Biso   1.000  H
  H125     1.0000 0.13137  0.80970  0.47088  Biso   1.000  H
  H126     1.0000 0.00002  0.81410  0.49998  Biso   1.000  H
  H127     1.0000 0.77871  0.65722  0.42888  Biso   1.000  H
  H128     1.0000 0.87584  0.64860  0.41978  Biso   1.000  H
  C144     1.0000 0.83902  0.63228  0.50342  Biso   1.000  C
  H129     1.0000 0.87577  0.64860  0.41978  Biso   1.000  H
  C145     1.0000 0.83896  0.63228  0.50342  Biso   1.000  C
  H130     1.0000 0.80120  0.70071  0.51901  Biso   1.000  H
  O33      1.0000 0.74076  0.74006  0.60483  Biso   1.000  O
  O34      1.0000 0.85939  0.78018  0.53178  Biso   1.000  O
  H131     1.0000 0.88920  0.61312  0.51178  Biso   1.000  H
  H132     1.0000 0.79126  0.61560  0.52049  Biso   1.000  H
  H133     1.0000 0.79120  0.61560  0.52049  Biso   1.000  H
  H134     1.0000 0.76793  0.75141  0.57730  Biso   1.000  H
  H135     1.0000 0.86862  0.80970  0.52908  Biso   1.000  H
  C146     1.0000 0.16103  0.36772  0.49653  Biso   1.000  C
  C147     1.0000 0.15104  0.31915  0.46700  Biso   1.000  C
  C148     1.0000 0.15098  0.31915  0.46700  Biso   1.000  C
  H136     1.0000 0.20879  0.38440  0.47950  Biso   1.000  H
  C149     1.0000 0.17456  0.36464  0.56231  Biso   1.000  C
  H137     1.0000 0.11085  0.38692  0.48821  Biso   1.000  H
  C150     1.0000 0.17450  0.36464  0.56231  Biso   1.000  C
  H138     1.0000 0.11078  0.38692  0.48821  Biso   1.000  H
  C151     1.0000 0.15972  0.32419  0.40104  Biso   1.000  C
  H139     1.0000 0.19885  0.29929  0.48098  Biso   1.000  H
  C152     1.0000 0.07252  0.29315  0.48429  Biso   1.000  C
  H140     1.0000 0.19879  0.29929  0.48098  Biso   1.000  H
  C153     1.0000 0.07246  0.29315  0.48429  Biso   1.000  C
  C154     1.0000 0.19326  0.41296  0.58880  Biso   1.000  C
  H141     1.0000 0.12421  0.35140  0.58018  Biso   1.000  H
  H142     1.0000 0.22134  0.34282  0.57107  Biso   1.000  H
  H143     1.0000 0.22128  0.34282  0.57107  Biso   1.000  H
  C155     1.0000 0.11612  0.35864  0.36972  Biso   1.000  C
  C156     1.0000 0.21601  0.29680  0.37033  Biso   1.000  C
  C157     1.0000 0.21595  0.29680  0.37033  Biso   1.000  C
  C158     1.0000 0.00002  0.31649  0.49998  Biso   1.000  C
  C159     1.0000 0.07085  0.24384  0.48464  Biso   1.000  C
  C160     1.0000 0.22144  0.41005  0.65266  Biso   1.000  C
  H144     1.0000 0.23720  0.42850  0.56619  Biso   1.000  H
  H145     1.0000 0.14280  0.43289  0.58579  Biso   1.000  H
  C161     1.0000 0.12861  0.36893  0.31135  Biso   1.000  C
  C162     1.0000 0.12855  0.36893  0.31135  Biso   1.000  C
  H146     1.0000 0.07513  0.37631  0.38950  Biso   1.000  H
  H147     1.0000 0.07507  0.37631  0.38950  Biso   1.000  H
  C163     1.0000 0.23082  0.30684  0.31252  Biso   1.000  C
  C164     1.0000 0.23075  0.30684  0.31252  Biso   1.000  C
  O35      1.0000 0.25930  0.25994  0.39516  Biso   1.000  O
  H148     1.0000 0.00002  0.35020  0.49998  Biso   1.000  H
  C165     1.0000 0.92753  0.29315  0.51566  Biso   1.000  C
  C166     1.0000 0.00002  0.21964  0.49998  Biso   1.000  C
  O36      1.0000 0.14066  0.21982  0.46822  Biso   1.000  O
  O37      1.0000 0.14059  0.21982  0.46822  Biso   1.000  O
  C167     1.0000 0.15427  0.39312  0.69322  Biso   1.000  C
  C168     1.0000 0.25880  0.45635  0.67453  Biso   1.000  C
  H149     1.0000 0.26685  0.38589  0.65480  Biso   1.000  H
  C169     1.0000 0.25874  0.45635  0.67453  Biso   1.000  C
  H150     1.0000 0.26679  0.38589  0.65480  Biso   1.000  H
  C170     1.0000 0.18909  0.34303  0.28360  Biso   1.000  C
  C171     1.0000 0.08069  0.40856  0.28085  Biso   1.000  C
  H151     1.0000 0.27029  0.28850  0.29218  Biso   1.000  H
  H152     1.0000 0.23213  0.24859  0.42269  Biso   1.000  H
  H153     1.0000 0.23206  0.24859  0.42269  Biso   1.000  H
  C172     1.0000 0.84901  0.31915  0.53295  Biso   1.000  C
  C173     1.0000 0.92920  0.24384  0.51535  Biso   1.000  C
  H154     1.0000 0.00002  0.18590  0.49998  Biso   1.000  H
  H155     1.0000 0.13143  0.19030  0.47088  Biso   1.000  H
  H156     1.0000 0.13137  0.19030  0.47088  Biso   1.000  H
  C174     1.0000 0.17423  0.36247  0.73922  Biso   1.000  C
  C175     1.0000 0.07206  0.40866  0.68873  Biso   1.000  C
  C176     1.0000 0.07200  0.40866  0.68873  Biso   1.000  C
  C177     1.0000 0.22660  0.50002  0.65746  Biso   1.000  C
  C178     1.0000 0.32708  0.45737  0.71370  Biso   1.000  C
  C179     1.0000 0.32701  0.45737  0.71370  Biso   1.000  C
  O38      1.0000 0.20703  0.35371  0.22701  Biso   1.000  O
  O39      1.0000 0.20697  0.35371  0.22701  Biso   1.000  O
  H157     1.0000 0.10378  0.41182  0.24099  Biso   1.000  H
  C180     1.0000 0.09682  0.45571  0.31257  Biso   1.000  C
  C181     1.0000 0.98996  0.39511  0.27327  Biso   1.000  C
  C182     1.0000 0.83902  0.36772  0.50342  Biso   1.000  C
  C183     1.0000 0.83896  0.36772  0.50342  Biso   1.000  C
  C184     1.0000 0.84033  0.32419  0.59891  Biso   1.000  C
  H158     1.0000 0.80120  0.29929  0.51901  Biso   1.000  H
  C185     1.0000 0.84027  0.32419  0.59891  Biso   1.000  C
  O40      1.0000 0.85939  0.21982  0.53178  Biso   1.000  O
  O41      1.0000 0.25509  0.34693  0.74463  Biso   1.000  O
  C186     1.0000 0.11488  0.34839  0.77808  Biso   1.000  C
  O42      1.0000 0.25503  0.34693  0.74463  Biso   1.000  O
  C187     1.0000 0.11482  0.34839  0.77808  Biso   1.000  C
  H159     1.0000 0.05751  0.42981  0.65789  Biso   1.000  H
  C188     1.0000 0.01009  0.39511  0.72672  Biso   1.000  C
  C189     1.0000 0.01003  0.39511  0.72672  Biso   1.000  C
  H160     1.0000 0.17915  0.50002  0.63219  Biso   1.000  H
  C190     1.0000 0.25880  0.54365  0.67453  Biso   1.000  C
  H161     1.0000 0.17909  0.50002  0.63219  Biso   1.000  H
  C191     1.0000 0.25874  0.54365  0.67453  Biso   1.000  C
  C192     1.0000 0.36024  0.50002  0.73208  Biso   1.000  C
  O43      1.0000 0.36526  0.41672  0.73391  Biso   1.000  O
  C193     1.0000 0.36018  0.50002  0.73208  Biso   1.000  C
  O44      1.0000 0.36520  0.41672  0.73391  Biso   1.000  O
  H162     1.0000 0.25691  0.34722  0.22078  Biso   1.000  H
  C194     1.0000 0.06674  0.50002  0.28085  Biso   1.000  C
  H163     1.0000 0.15734  0.45879  0.32002  Biso   1.000  H
  H164     1.0000 0.06985  0.45439  0.35090  Biso   1.000  H
  C195     1.0000 0.06667  0.50002  0.28085  Biso   1.000  C
  H165     1.0000 0.15728  0.45879  0.32002  Biso   1.000  H
  H166     1.0000 0.06978  0.45439  0.35090  Biso   1.000  H
  C196     1.0000 0.92799  0.40866  0.31126  Biso   1.000  C
  C197     1.0000 0.96611  0.36449  0.22766  Biso   1.000  C
  C198     1.0000 0.82549  0.36464  0.43768  Biso   1.000  C
  H167     1.0000 0.88920  0.38692  0.51178  Biso   1.000  H
  H168     1.0000 0.79126  0.38440  0.52049  Biso   1.000  H
  H169     1.0000 0.79120  0.38440  0.52049  Biso   1.000  H
  C199     1.0000 0.88393  0.35864  0.63023  Biso   1.000  C
  C200     1.0000 0.78404  0.29680  0.62962  Biso   1.000  C
  C201     1.0000 0.88387  0.35864  0.63023  Biso   1.000  C
  H170     1.0000 0.86862  0.19030  0.52908  Biso   1.000  H
  H171     1.0000 0.26263  0.33452  0.77760  Biso   1.000  H
  H172     1.0000 0.12962  0.32742  0.80897  Biso   1.000  H
  C202     1.0000 0.03394  0.36449  0.77233  Biso   1.000  C
  C203     1.0000 0.03388  0.36449  0.77233  Biso   1.000  C
  C204     1.0000 0.91936  0.40856  0.71910  Biso   1.000  C
  C205     1.0000 0.91929  0.40856  0.71910  Biso   1.000  C
  C206     1.0000 0.22144  0.58995  0.65266  Biso   1.000  C
  C207     1.0000 0.32708  0.54266  0.71370  Biso   1.000  C
  C208     1.0000 0.32701  0.54266  0.71370  Biso   1.000  C
  H173     1.0000 0.40703  0.50002  0.75800  Biso   1.000  H
  H174     1.0000 0.40697  0.50002  0.75800  Biso   1.000  H
  H175     1.0000 0.32824  0.39600  0.74079  Biso   1.000  H
  H176     1.0000 0.32818  0.39600  0.74079  Biso   1.000  H
  C209     1.0000 0.09682  0.54429  0.31257  Biso   1.000  C
  H177     1.0000 0.00532  0.50002  0.27859  Biso   1.000  H
  H178     1.0000 0.08764  0.50002  0.24060  Biso   1.000  H
  H179     1.0000 0.08758  0.50002  0.24060  Biso   1.000  H
  H180     1.0000 0.94254  0.42981  0.34210  Biso   1.000  H
  C210     1.0000 0.84578  0.39312  0.30677  Biso   1.000  C
  H181     1.0000 0.94248  0.42981  0.34210  Biso   1.000  H
  C211     1.0000 0.88517  0.34839  0.22191  Biso   1.000  C
  O45      1.0000 0.02585  0.35055  0.18972  Biso   1.000  O
  O46      1.0000 0.02579  0.35055  0.18972  Biso   1.000  O
  C212     1.0000 0.80679  0.41296  0.41119  Biso   1.000  C
  H182     1.0000 0.77871  0.34282  0.42888  Biso   1.000  H
  H183     1.0000 0.87584  0.35140  0.41978  Biso   1.000  H
  H184     1.0000 0.87577  0.35140  0.41978  Biso   1.000  H
  H185     1.0000 0.92492  0.37631  0.61050  Biso   1.000  H
  C213     1.0000 0.87144  0.36893  0.68865  Biso   1.000  C
  O47      1.0000 0.74076  0.25994  0.60483  Biso   1.000  O
  C214     1.0000 0.76923  0.30684  0.68747  Biso   1.000  C
  O48      1.0000 0.97420  0.35055  0.81028  Biso   1.000  O
  H186     1.0000 0.89627  0.41182  0.75900  Biso   1.000  H
  C215     1.0000 0.90323  0.45571  0.68738  Biso   1.000  C
  H187     1.0000 0.89621  0.41182  0.75900  Biso   1.000  H
  C216     1.0000 0.90316  0.45571  0.68738  Biso   1.000  C
  C217     1.0000 0.19326  0.58704  0.58880  Biso   1.000  C
  C218     1.0000 0.15427  0.60688  0.69322  Biso   1.000  C
  H188     1.0000 0.26685  0.61411  0.65480  Biso   1.000  H
  H189     1.0000 0.26679  0.61411  0.65480  Biso   1.000  H
  O49      1.0000 0.36526  0.58328  0.73391  Biso   1.000  O
  O50      1.0000 0.36520  0.58328  0.73391  Biso   1.000  O
  C219     1.0000 0.08069  0.59144  0.28085  Biso   1.000  C
  H190     1.0000 0.15734  0.54121  0.32002  Biso   1.000  H
  H191     1.0000 0.06985  0.54561  0.35090  Biso   1.000  H
  H192     1.0000 0.15728  0.54121  0.32002  Biso   1.000  H
  H193     1.0000 0.06978  0.54561  0.35090  Biso   1.000  H
  C220     1.0000 0.77861  0.41005  0.34733  Biso   1.000  C
  C221     1.0000 0.82582  0.36247  0.26077  Biso   1.000  C
  C222     1.0000 0.77855  0.41005  0.34733  Biso   1.000  C
  C223     1.0000 0.82576  0.36247  0.26077  Biso   1.000  C
  H194     1.0000 0.87043  0.32742  0.19098  Biso   1.000  H
  H195     1.0000 0.87037  0.32742  0.19098  Biso   1.000  H
  H196     1.0000 0.00370  0.33512  0.16219  Biso   1.000  H
  H197     1.0000 0.76285  0.42850  0.43380  Biso   1.000  H
  H198     1.0000 0.85725  0.43289  0.41420  Biso   1.000  H
  H199     1.0000 0.76279  0.42850  0.43380  Biso   1.000  H
  H200     1.0000 0.85719  0.43289  0.41420  Biso   1.000  H
  C224     1.0000 0.81096  0.34303  0.71640  Biso   1.000  C
  C225     1.0000 0.81090  0.34303  0.71640  Biso   1.000  C
  H201     1.0000 0.76793  0.24859  0.57730  Biso   1.000  H
  H202     1.0000 0.72976  0.28850  0.70777  Biso   1.000  H
  H203     1.0000 0.72969  0.28850  0.70777  Biso   1.000  H
  H204     1.0000 0.99635  0.33512  0.83776  Biso   1.000  H
  C226     1.0000 0.93331  0.50002  0.71914  Biso   1.000  C
  H205     1.0000 0.84271  0.45879  0.67998  Biso   1.000  H
  H206     1.0000 0.93021  0.45439  0.64909  Biso   1.000  H
  C227     1.0000 0.17456  0.63540  0.56231  Biso   1.000  C
  C228     1.0000 0.17450  0.63540  0.56231  Biso   1.000  C
  H207     1.0000 0.23720  0.57150  0.56619  Biso   1.000  H
  H208     1.0000 0.14280  0.56711  0.58579  Biso   1.000  H
  C229     1.0000 0.17423  0.63753  0.73922  Biso   1.000  C
  C230     1.0000 0.07206  0.59134  0.68873  Biso   1.000  C
  C231     1.0000 0.07200  0.59134  0.68873  Biso   1.000  C
  H209     1.0000 0.32824  0.60400  0.74079  Biso   1.000  H
  H210     1.0000 0.32818  0.60400  0.74079  Biso   1.000  H
  H211     1.0000 0.10378  0.58821  0.24099  Biso   1.000  H
  C232     1.0000 0.98996  0.60489  0.27327  Biso   1.000  C
  C233     1.0000 0.12861  0.63107  0.31135  Biso   1.000  C
  C234     1.0000 0.12855  0.63107  0.31135  Biso   1.000  C
  C235     1.0000 0.74125  0.45635  0.32546  Biso   1.000  C
  H212     1.0000 0.73320  0.38589  0.34520  Biso   1.000  H
  O51      1.0000 0.74496  0.34693  0.25537  Biso   1.000  O
  O52      1.0000 0.79302  0.35371  0.77299  Biso   1.000  O
  C236     1.0000 0.90323  0.54429  0.68738  Biso   1.000  C
  H213     1.0000 0.99473  0.50002  0.72141  Biso   1.000  H
  H214     1.0000 0.91241  0.50002  0.75939  Biso   1.000  H
  C237     1.0000 0.90316  0.54429  0.68738  Biso   1.000  C
  C238     1.0000 0.16103  0.63228  0.49653  Biso   1.000  C
  H215     1.0000 0.12421  0.64860  0.58018  Biso   1.000  H
  H216     1.0000 0.22134  0.65722  0.57107  Biso   1.000  H
  H217     1.0000 0.22128  0.65722  0.57107  Biso   1.000  H
  O53      1.0000 0.25509  0.65310  0.74463  Biso   1.000  O
  C239     1.0000 0.11488  0.65165  0.77808  Biso   1.000  C
  O54      1.0000 0.25503  0.65310  0.74463  Biso   1.000  O
  C240     1.0000 0.11482  0.65165  0.77808  Biso   1.000  C
  H218     1.0000 0.05751  0.57019  0.65789  Biso   1.000  H
  C241     1.0000 0.01009  0.60489  0.72672  Biso   1.000  C
  C242     1.0000 0.01003  0.60489  0.72672  Biso   1.000  C
  C243     1.0000 0.92799  0.59134  0.31126  Biso   1.000  C
  C244     1.0000 0.96611  0.63551  0.22766  Biso   1.000  C
  C245     1.0000 0.11612  0.64139  0.36972  Biso   1.000  C
  C246     1.0000 0.18909  0.65701  0.28360  Biso   1.000  C
  C247     1.0000 0.77345  0.50002  0.34254  Biso   1.000  C
  C248     1.0000 0.67298  0.45737  0.28630  Biso   1.000  C
  C249     1.0000 0.77338  0.50002  0.34254  Biso   1.000  C
  H219     1.0000 0.73742  0.33452  0.22239  Biso   1.000  H
  H220     1.0000 0.74314  0.34722  0.77917  Biso   1.000  H
  C250     1.0000 0.91936  0.59144  0.71910  Biso   1.000  C
  H221     1.0000 0.84271  0.54121  0.67998  Biso   1.000  H
  H222     1.0000 0.93021  0.54561  0.64909  Biso   1.000  H
  C251     1.0000 0.91929  0.59144  0.71910  Biso   1.000  C
  C252     1.0000 0.15104  0.68085  0.46700  Biso   1.000  C
  C253     1.0000 0.15098  0.68085  0.46700  Biso   1.000  C
  H223     1.0000 0.20879  0.61560  0.47950  Biso   1.000  H
  H224     1.0000 0.11085  0.61312  0.48821  Biso   1.000  H
  H225     1.0000 0.11078  0.61312  0.48821  Biso   1.000  H
  H226     1.0000 0.26263  0.66552  0.77760  Biso   1.000  H
  H227     1.0000 0.12962  0.67262  0.80897  Biso   1.000  H
  C254     1.0000 0.03394  0.63551  0.77233  Biso   1.000  C
  C255     1.0000 0.03388  0.63551  0.77233  Biso   1.000  C
  H228     1.0000 0.94254  0.57019  0.34210  Biso   1.000  H
  C256     1.0000 0.84578  0.60688  0.30677  Biso   1.000  C
  H229     1.0000 0.94248  0.57019  0.34210  Biso   1.000  H
  C257     1.0000 0.88517  0.65165  0.22191  Biso   1.000  C
  O55      1.0000 0.02585  0.64945  0.18972  Biso   1.000  O
  O56      1.0000 0.02579  0.64945  0.18972  Biso   1.000  O
  C258     1.0000 0.15972  0.67581  0.40104  Biso   1.000  C
  H230     1.0000 0.07513  0.62369  0.38950  Biso   1.000  H
  H231     1.0000 0.07507  0.62369  0.38950  Biso   1.000  H
  O57      1.0000 0.20703  0.64629  0.22701  Biso   1.000  O
  C259     1.0000 0.23082  0.69319  0.31252  Biso   1.000  C
  O58      1.0000 0.20697  0.64629  0.22701  Biso   1.000  O
  C260     1.0000 0.23075  0.69319  0.31252  Biso   1.000  C
  H232     1.0000 0.82090  0.50002  0.36780  Biso   1.000  H
  C261     1.0000 0.74125  0.54365  0.32546  Biso   1.000  C
  C262     1.0000 0.63981  0.50002  0.26791  Biso   1.000  C
  O59      1.0000 0.63479  0.41672  0.26608  Biso   1.000  O
  C263     1.0000 0.87144  0.63107  0.68865  Biso   1.000  C
  H233     1.0000 0.89627  0.58821  0.75900  Biso   1.000  H
  H234     1.0000 0.89621  0.58821  0.75900  Biso   1.000  H
  H235     1.0000 0.19885  0.70071  0.48098  Biso   1.000  H
  C264     1.0000 0.07252  0.70685  0.48429  Biso   1.000  C
  H236     1.0000 0.19879  0.70071  0.48098  Biso   1.000  H
  C265     1.0000 0.07246  0.70685  0.48429  Biso   1.000  C
  O60      1.0000 0.97420  0.64945  0.81028  Biso   1.000  O
  C266     1.0000 0.77861  0.58995  0.34733  Biso   1.000  C
  C267     1.0000 0.82582  0.63753  0.26077  Biso   1.000  C
  C268     1.0000 0.77855  0.58995  0.34733  Biso   1.000  C
  C269     1.0000 0.82576  0.63753  0.26077  Biso   1.000  C
  H237     1.0000 0.87043  0.67262  0.19098  Biso   1.000  H
  H238     1.0000 0.87037  0.67262  0.19098  Biso   1.000  H
  H239     1.0000 0.00370  0.66492  0.16219  Biso   1.000  H
  C270     1.0000 0.21601  0.70320  0.37033  Biso   1.000  C
  C271     1.0000 0.21595  0.70320  0.37033  Biso   1.000  C
  H240     1.0000 0.25691  0.65282  0.22078  Biso   1.000  H
  H241     1.0000 0.27029  0.71150  0.29218  Biso   1.000  H
  C272     1.0000 0.67298  0.54266  0.28630  Biso   1.000  C
  H242     1.0000 0.59302  0.50002  0.24199  Biso   1.000  H
  H243     1.0000 0.67181  0.39600  0.25920  Biso   1.000  H
  C273     1.0000 0.88393  0.64139  0.63023  Biso   1.000  C
  C274     1.0000 0.88387  0.64139  0.63023  Biso   1.000  C
  C275     1.0000 0.81096  0.65701  0.71640  Biso   1.000  C
  C276     1.0000 0.81090  0.65701  0.71640  Biso   1.000  C
  C277     1.0000 0.00002  0.68351  0.49998  Biso   1.000  C
  C278     1.0000 0.07085  0.75616  0.48464  Biso   1.000  C
  H244     1.0000 0.99635  0.66492  0.83776  Biso   1.000  H
  H245     1.0000 0.73320  0.61411  0.34520  Biso   1.000  H
  C279     1.0000 0.80679  0.58704  0.41119  Biso   1.000  C
  O61      1.0000 0.74496  0.65310  0.25537  Biso   1.000  O
  O62      1.0000 0.25930  0.74006  0.39516  Biso   1.000  O
  O63      1.0000 0.63479  0.58328  0.26608  Biso   1.000  O
  C280     1.0000 0.84033  0.67581  0.59891  Biso   1.000  C
  C281     1.0000 0.84027  0.67581  0.59891  Biso   1.000  C
  H246     1.0000 0.92492  0.62369  0.61050  Biso   1.000  H
  C282     1.0000 0.76923  0.69319  0.68747  Biso   1.000  C
  O64      1.0000 0.79302  0.64629  0.77299  Biso   1.000  O
  H247     1.0000 0.00002  0.64980  0.49998  Biso   1.000  H
  C283     1.0000 0.92753  0.70685  0.51566  Biso   1.000  C
  C284     1.0000 0.00002  0.78036  0.49998  Biso   1.000  C
  O65      1.0000 0.14066  0.78018  0.46822  Biso   1.000  O
  O66      1.0000 0.14059  0.78018  0.46822  Biso   1.000  O
  H248     1.0000 0.76285  0.57150  0.43380  Biso   1.000  H
  H249     1.0000 0.85725  0.56711  0.41420  Biso   1.000  H
  C285     1.0000 0.82549  0.63540  0.43768  Biso   1.000  C
  H250     1.0000 0.76279  0.57150  0.43380  Biso   1.000  H
  H251     1.0000 0.85719  0.56711  0.41420  Biso   1.000  H
  H252     1.0000 0.73742  0.66552  0.22239  Biso   1.000  H
  H253     1.0000 0.23213  0.75141  0.42269  Biso   1.000  H
  H254     1.0000 0.23206  0.75141  0.42269  Biso   1.000  H
  H255     1.0000 0.67181  0.60400  0.25920  Biso   1.000  H
  C286     1.0000 0.84901  0.68085  0.53295  Biso   1.000  C
  C287     1.0000 0.78404  0.70320  0.62962  Biso   1.000  C
  H256     1.0000 0.72976  0.71150  0.70777  Biso   1.000  H
  H257     1.0000 0.72969  0.71150  0.70777  Biso   1.000  H
  H258     1.0000 0.74314  0.65282  0.77917  Biso   1.000  H
  C288     1.0000 0.92920  0.75616  0.51535  Biso   1.000  C
  H259     1.0000 0.00002  0.81410  0.49998  Biso   1.000  H
  H260     1.0000 0.13143  0.80970  0.47088  Biso   1.000  H
  H261     1.0000 0.13137  0.80970  0.47088  Biso   1.000  H
  H262     1.0000 0.77871  0.65722  0.42888  Biso   1.000  H
  H263     1.0000 0.87584  0.64860  0.41978  Biso   1.000  H
  C289     1.0000 0.83902  0.63228  0.50342  Biso   1.000  C
  H264     1.0000 0.87577  0.64860  0.41978  Biso   1.000  H
  C290     1.0000 0.83896  0.63228  0.50342  Biso   1.000  C
  H265     1.0000 0.80120  0.70071  0.51901  Biso   1.000  H
  O67      1.0000 0.74076  0.74006  0.60483  Biso   1.000  O
  O68      1.0000 0.85939  0.78018  0.53178  Biso   1.000  O
  H266     1.0000 0.88920  0.61312  0.51178  Biso   1.000  H
  H267     1.0000 0.79126  0.61560  0.52049  Biso   1.000  H
  H268     1.0000 0.79120  0.61560  0.52049  Biso   1.000  H
  H269     1.0000 0.76793  0.75141  0.57730  Biso   1.000  H
  H270     1.0000 0.86862  0.80970  0.52908  Biso   1.000  H
  O69      1.0000 0.35939  0.28020  0.53178  Biso   1.000  O
  C291     1.0000 0.42920  0.25615  0.51535  Biso   1.000  C
  H271     1.0000 0.36862  0.30972  0.52908  Biso   1.000  H
  C292     1.0000 0.42753  0.20687  0.51566  Biso   1.000  C
  C293     1.0000 0.50002  0.28034  0.49998  Biso   1.000  C
  O70      1.0000 0.35939  0.28016  0.53178  Biso   1.000  O
  C294     1.0000 0.50002  0.28038  0.49998  Biso   1.000  C
  C295     1.0000 0.34901  0.18086  0.53295  Biso   1.000  C
  C296     1.0000 0.50002  0.18352  0.49998  Biso   1.000  C
  C297     1.0000 0.57085  0.25615  0.48464  Biso   1.000  C
  H272     1.0000 0.50002  0.31412  0.49998  Biso   1.000  H
  C298     1.0000 0.33896  0.13230  0.50342  Biso   1.000  C
  C299     1.0000 0.34033  0.17579  0.59891  Biso   1.000  C
  H273     1.0000 0.30120  0.20070  0.51901  Biso   1.000  H
  C300     1.0000 0.34033  0.17583  0.59891  Biso   1.000  C
  H274     1.0000 0.50002  0.14979  0.49998  Biso   1.000  H
  C301     1.0000 0.57246  0.20687  0.48429  Biso   1.000  C
  H275     1.0000 0.50002  0.14982  0.49998  Biso   1.000  H
  O71      1.0000 0.64066  0.28016  0.46822  Biso   1.000  O
  O72      1.0000 0.64066  0.28020  0.46822  Biso   1.000  O
  C302     1.0000 0.32549  0.13538  0.43768  Biso   1.000  C
  H276     1.0000 0.38920  0.11310  0.51178  Biso   1.000  H
  H277     1.0000 0.29120  0.11559  0.52049  Biso   1.000  H
  H278     1.0000 0.29120  0.11562  0.52049  Biso   1.000  H
  C303     1.0000 0.38393  0.14138  0.63023  Biso   1.000  C
  C304     1.0000 0.28404  0.20318  0.62962  Biso   1.000  C
  C305     1.0000 0.28404  0.20321  0.62962  Biso   1.000  C
  C306     1.0000 0.65104  0.18086  0.46700  Biso   1.000  C
  H279     1.0000 0.63143  0.30972  0.47088  Biso   1.000  H
  C307     1.0000 0.30679  0.08706  0.41119  Biso   1.000  C
  H280     1.0000 0.27871  0.15720  0.42888  Biso   1.000  H
  H281     1.0000 0.37584  0.14861  0.41978  Biso   1.000  H
  H282     1.0000 0.42492  0.12371  0.61050  Biso   1.000  H
  C308     1.0000 0.37144  0.13109  0.68865  Biso   1.000  C
  O73      1.0000 0.24076  0.24004  0.60483  Biso   1.000  O
  C309     1.0000 0.26923  0.19317  0.68747  Biso   1.000  C
  O74      1.0000 0.24076  0.24008  0.60483  Biso   1.000  O
  C310     1.0000 0.65972  0.17579  0.40104  Biso   1.000  C
  C311     1.0000 0.65972  0.17583  0.40104  Biso   1.000  C
  H283     1.0000 0.69879  0.20070  0.48098  Biso   1.000  H
  C312     1.0000 0.66103  0.13230  0.49653  Biso   1.000  C
  C313     1.0000 0.27855  0.08994  0.34733  Biso   1.000  C
  C314     1.0000 0.27855  0.08997  0.34733  Biso   1.000  C
  H284     1.0000 0.26279  0.07149  0.43380  Biso   1.000  H
  H285     1.0000 0.35719  0.06709  0.41420  Biso   1.000  H
  H286     1.0000 0.26279  0.07152  0.43380  Biso   1.000  H
  H287     1.0000 0.35719  0.06712  0.41420  Biso   1.000  H
  C315     1.0000 0.41936  0.09146  0.71910  Biso   1.000  C
  C316     1.0000 0.31090  0.15699  0.71640  Biso   1.000  C
  H288     1.0000 0.26793  0.25139  0.57730  Biso   1.000  H
  H289     1.0000 0.26793  0.25143  0.57730  Biso   1.000  H
  H290     1.0000 0.22976  0.21152  0.70777  Biso   1.000  H
  C317     1.0000 0.61612  0.14138  0.36972  Biso   1.000  C
  C318     1.0000 0.71601  0.20318  0.37033  Biso   1.000  C
  C319     1.0000 0.71601  0.20321  0.37033  Biso   1.000  C
  C320     1.0000 0.67450  0.13538  0.56231  Biso   1.000  C
  H291     1.0000 0.61078  0.11310  0.48821  Biso   1.000  H
  H292     1.0000 0.70879  0.11559  0.47950  Biso   1.000  H
  H293     1.0000 0.70879  0.11562  0.47950  Biso   1.000  H
  C321     1.0000 0.34578  0.10689  0.30677  Biso   1.000  C
  C322     1.0000 0.24125  0.04364  0.32546  Biso   1.000  C
  H294     1.0000 0.23320  0.11410  0.34520  Biso   1.000  H
  C323     1.0000 0.24125  0.04367  0.32546  Biso   1.000  C
  C324     1.0000 0.51009  0.10491  0.72672  Biso   1.000  C
  H295     1.0000 0.39621  0.08820  0.75900  Biso   1.000  H
  C325     1.0000 0.40316  0.04428  0.68738  Biso   1.000  C
  C326     1.0000 0.40316  0.04431  0.68738  Biso   1.000  C
  O75      1.0000 0.29302  0.14631  0.77299  Biso   1.000  O
  C327     1.0000 0.62861  0.13109  0.31135  Biso   1.000  C
  H296     1.0000 0.57513  0.12371  0.38950  Biso   1.000  H
  C328     1.0000 0.73082  0.19317  0.31252  Biso   1.000  C
  O76      1.0000 0.75930  0.24004  0.39516  Biso   1.000  O
  O77      1.0000 0.75930  0.24008  0.39516  Biso   1.000  O
  C329     1.0000 0.69326  0.08706  0.58880  Biso   1.000  C
  H297     1.0000 0.72128  0.15720  0.57107  Biso   1.000  H
  H298     1.0000 0.62421  0.14861  0.58018  Biso   1.000  H
  C330     1.0000 0.32576  0.13755  0.26077  Biso   1.000  C
  C331     1.0000 0.42799  0.09132  0.31126  Biso   1.000  C
  C332     1.0000 0.42799  0.09135  0.31126  Biso   1.000  C
  C333     1.0000 0.27338  0.00000  0.34254  Biso   1.000  C
  C334     1.0000 0.17298  0.04264  0.28630  Biso   1.000  C
  C335     1.0000 0.57200  0.09132  0.68873  Biso   1.000  C
  C336     1.0000 0.53394  0.13552  0.77233  Biso   1.000  C
  C337     1.0000 0.57200  0.09135  0.68873  Biso   1.000  C
  H299     1.0000 0.34271  0.04119  0.67998  Biso   1.000  H
  H300     1.0000 0.43021  0.04559  0.64909  Biso   1.000  H
  C338     1.0000 0.43331  0.00000  0.71914  Biso   1.000  C
  H301     1.0000 0.34271  0.04122  0.67998  Biso   1.000  H
  H302     1.0000 0.43021  0.04562  0.64909  Biso   1.000  H
  H303     1.0000 0.24314  0.15280  0.77917  Biso   1.000  H
  C339     1.0000 0.58069  0.09146  0.28085  Biso   1.000  C
  C340     1.0000 0.68909  0.15699  0.28360  Biso   1.000  C
  H304     1.0000 0.77029  0.21152  0.29218  Biso   1.000  H
  H305     1.0000 0.73213  0.25139  0.42269  Biso   1.000  H
  H306     1.0000 0.73213  0.25143  0.42269  Biso   1.000  H
  C341     1.0000 0.72144  0.08994  0.65266  Biso   1.000  C
  H307     1.0000 0.73720  0.07149  0.56619  Biso   1.000  H
  H308     1.0000 0.64280  0.06709  0.58579  Biso   1.000  H
  C342     1.0000 0.72144  0.08997  0.65266  Biso   1.000  C
  H309     1.0000 0.73720  0.07152  0.56619  Biso   1.000  H
  H310     1.0000 0.64280  0.06712  0.58579  Biso   1.000  H
  O78      1.0000 0.24496  0.15308  0.25537  Biso   1.000  O
  C343     1.0000 0.38517  0.15163  0.22191  Biso   1.000  C
  H311     1.0000 0.44248  0.07021  0.34210  Biso   1.000  H
  C344     1.0000 0.48996  0.10491  0.27327  Biso   1.000  C
  H312     1.0000 0.32090  0.00000  0.36780  Biso   1.000  H
  C345     1.0000 0.24125  0.95636  0.32546  Biso   1.000  C
  O79      1.0000 0.13479  0.08330  0.26608  Biso   1.000  O
  C346     1.0000 0.13981  0.00000  0.26791  Biso   1.000  C
  H313     1.0000 0.55751  0.07021  0.65789  Biso   1.000  H
  C347     1.0000 0.65427  0.10689  0.69322  Biso   1.000  C
  O80      1.0000 0.47420  0.14943  0.81028  Biso   1.000  O
  C348     1.0000 0.61488  0.15163  0.77808  Biso   1.000  C
  O81      1.0000 0.47420  0.14947  0.81028  Biso   1.000  O
  H314     1.0000 0.49473  0.00000  0.72141  Biso   1.000  H
  H315     1.0000 0.41241  0.00000  0.75939  Biso   1.000  H
  C349     1.0000 0.40316  0.95572  0.68738  Biso   1.000  C
  H316     1.0000 0.60378  0.08820  0.24099  Biso   1.000  H
  C350     1.0000 0.59682  0.04428  0.31257  Biso   1.000  C
  C351     1.0000 0.59682  0.04431  0.31257  Biso   1.000  C
  O82      1.0000 0.70697  0.14631  0.22701  Biso   1.000  O
  C352     1.0000 0.75880  0.04364  0.67453  Biso   1.000  C
  H317     1.0000 0.76679  0.11410  0.65480  Biso   1.000  H
  C353     1.0000 0.75880  0.04367  0.67453  Biso   1.000  C
  H318     1.0000 0.23742  0.16550  0.22239  Biso   1.000  H
  H319     1.0000 0.37043  0.17260  0.19098  Biso   1.000  H
  C354     1.0000 0.46611  0.13552  0.22766  Biso   1.000  C
  C355     1.0000 0.17298  0.95736  0.28630  Biso   1.000  C
  C356     1.0000 0.27855  0.91006  0.34733  Biso   1.000  C
  H320     1.0000 0.17181  0.10398  0.25920  Biso   1.000  H
  H321     1.0000 0.17181  0.10402  0.25920  Biso   1.000  H
  H322     1.0000 0.09302  0.00000  0.24199  Biso   1.000  H
  C357     1.0000 0.67423  0.13755  0.73922  Biso   1.000  C
  H323     1.0000 0.49635  0.16490  0.83776  Biso   1.000  H
  H324     1.0000 0.62962  0.17260  0.80897  Biso   1.000  H
  C358     1.0000 0.41936  0.90854  0.71910  Biso   1.000  C
  C359     1.0000 0.41936  0.90857  0.71910  Biso   1.000  C
  H325     1.0000 0.34271  0.95881  0.67998  Biso   1.000  H
  H326     1.0000 0.43021  0.95441  0.64909  Biso   1.000  H
  H327     1.0000 0.65728  0.04119  0.32002  Biso   1.000  H
  H328     1.0000 0.56978  0.04559  0.35090  Biso   1.000  H
  C360     1.0000 0.56667  0.00000  0.28085  Biso   1.000  C
  H329     1.0000 0.65728  0.04122  0.32002  Biso   1.000  H
  H330     1.0000 0.56978  0.04562  0.35090  Biso   1.000  H
  H331     1.0000 0.75691  0.15280  0.22078  Biso   1.000  H
  C361     1.0000 0.72660  0.00000  0.65746  Biso   1.000  C
  C362     1.0000 0.82701  0.04264  0.71370  Biso   1.000  C
  O83      1.0000 0.52585  0.14943  0.18972  Biso   1.000  O
  O84      1.0000 0.52585  0.14947  0.18972  Biso   1.000  O
  O85      1.0000 0.13479  0.91670  0.26608  Biso   1.000  O
  O86      1.0000 0.13479  0.91673  0.26608  Biso   1.000  O
  H332     1.0000 0.23320  0.88590  0.34520  Biso   1.000  H
  C363     1.0000 0.34578  0.89311  0.30677  Biso   1.000  C
  C364     1.0000 0.30679  0.91294  0.41119  Biso   1.000  C
  C365     1.0000 0.34578  0.89314  0.30677  Biso   1.000  C
  C366     1.0000 0.30679  0.91297  0.41119  Biso   1.000  C
  O87      1.0000 0.75509  0.15308  0.74463  Biso   1.000  O
  C367     1.0000 0.37144  0.86891  0.68865  Biso   1.000  C
  C368     1.0000 0.37144  0.86895  0.68865  Biso   1.000  C
  C369     1.0000 0.51009  0.89509  0.72672  Biso   1.000  C
  H333     1.0000 0.39621  0.91180  0.75900  Biso   1.000  H
  H334     1.0000 0.50532  0.00000  0.27859  Biso   1.000  H
  H335     1.0000 0.58758  0.00000  0.24060  Biso   1.000  H
  C370     1.0000 0.59682  0.95572  0.31257  Biso   1.000  C
  H336     1.0000 0.67909  0.00000  0.63219  Biso   1.000  H
  C371     1.0000 0.75880  0.95636  0.67453  Biso   1.000  C
  O88      1.0000 0.86520  0.08330  0.73391  Biso   1.000  O
  C372     1.0000 0.86024  0.00000  0.73208  Biso   1.000  C
  H337     1.0000 0.50370  0.16490  0.16219  Biso   1.000  H
  H338     1.0000 0.17181  0.89602  0.25920  Biso   1.000  H
  C373     1.0000 0.42799  0.90868  0.31126  Biso   1.000  C
  C374     1.0000 0.32576  0.86245  0.26077  Biso   1.000  C
  C375     1.0000 0.32576  0.86249  0.26077  Biso   1.000  C
  H339     1.0000 0.26279  0.92851  0.43380  Biso   1.000  H
  H340     1.0000 0.35719  0.93291  0.41420  Biso   1.000  H
  C376     1.0000 0.32549  0.86462  0.43768  Biso   1.000  C
  H341     1.0000 0.76263  0.16550  0.77760  Biso   1.000  H
  C377     1.0000 0.38393  0.85862  0.63023  Biso   1.000  C
  C378     1.0000 0.31090  0.84301  0.71640  Biso   1.000  C
  C379     1.0000 0.57200  0.90868  0.68873  Biso   1.000  C
  C380     1.0000 0.53394  0.86448  0.77233  Biso   1.000  C
  C381     1.0000 0.53394  0.86451  0.77233  Biso   1.000  C
  C382     1.0000 0.58069  0.90854  0.28085  Biso   1.000  C
  H342     1.0000 0.65728  0.95881  0.32002  Biso   1.000  H
  H343     1.0000 0.56978  0.95441  0.35090  Biso   1.000  H
  C383     1.0000 0.58069  0.90857  0.28085  Biso   1.000  C
  C384     1.0000 0.82701  0.95736  0.71370  Biso   1.000  C
  C385     1.0000 0.72144  0.91006  0.65266  Biso   1.000  C
  H344     1.0000 0.82824  0.10398  0.74079  Biso   1.000  H
  H345     1.0000 0.82824  0.10402  0.74079  Biso   1.000  H
  H346     1.0000 0.90703  0.00000  0.75800  Biso   1.000  H
  H347     1.0000 0.44248  0.92979  0.34210  Biso   1.000  H
  C386     1.0000 0.48996  0.89509  0.27327  Biso   1.000  C
  H348     1.0000 0.44248  0.92983  0.34210  Biso   1.000  H
  O89      1.0000 0.24496  0.84692  0.25537  Biso   1.000  O
  C387     1.0000 0.38517  0.84837  0.22191  Biso   1.000  C
  H349     1.0000 0.27871  0.84280  0.42888  Biso   1.000  H
  H350     1.0000 0.37584  0.85139  0.41978  Biso   1.000  H
  C388     1.0000 0.33896  0.86770  0.50342  Biso   1.000  C
  H351     1.0000 0.37584  0.85142  0.41978  Biso   1.000  H
  C389     1.0000 0.33896  0.86774  0.50342  Biso   1.000  C
  C390     1.0000 0.34033  0.82421  0.59891  Biso   1.000  C
  H352     1.0000 0.42492  0.87629  0.61050  Biso   1.000  H
  H353     1.0000 0.42492  0.87633  0.61050  Biso   1.000  H
  C391     1.0000 0.26923  0.80683  0.68747  Biso   1.000  C
  O90      1.0000 0.29302  0.85369  0.77299  Biso   1.000  O
  H354     1.0000 0.55751  0.92979  0.65789  Biso   1.000  H
  C392     1.0000 0.65427  0.89311  0.69322  Biso   1.000  C
  H355     1.0000 0.55751  0.92983  0.65789  Biso   1.000  H
  C393     1.0000 0.65427  0.89314  0.69322  Biso   1.000  C
  O91      1.0000 0.47420  0.85057  0.81028  Biso   1.000  O
  C394     1.0000 0.61488  0.84837  0.77808  Biso   1.000  C
  H356     1.0000 0.60378  0.91180  0.24099  Biso   1.000  H
  C395     1.0000 0.62861  0.86891  0.31135  Biso   1.000  C
  C396     1.0000 0.62861  0.86895  0.31135  Biso   1.000  C
  O92      1.0000 0.86520  0.91670  0.73391  Biso   1.000  O
  O93      1.0000 0.86520  0.91673  0.73391  Biso   1.000  O
  C397     1.0000 0.69326  0.91294  0.58880  Biso   1.000  C
  C398     1.0000 0.69326  0.91297  0.58880  Biso   1.000  C
  H357     1.0000 0.76679  0.88590  0.65480  Biso   1.000  H
  C399     1.0000 0.46611  0.86448  0.22766  Biso   1.000  C
  C400     1.0000 0.46611  0.86451  0.22766  Biso   1.000  C
  H358     1.0000 0.23742  0.83450  0.22239  Biso   1.000  H
  H359     1.0000 0.37043  0.82740  0.19098  Biso   1.000  H
  H360     1.0000 0.38920  0.88690  0.51178  Biso   1.000  H
  H361     1.0000 0.29120  0.88441  0.52049  Biso   1.000  H
  C401     1.0000 0.34901  0.81914  0.53295  Biso   1.000  C
  C402     1.0000 0.34901  0.81917  0.53295  Biso   1.000  C
  C403     1.0000 0.28404  0.79682  0.62962  Biso   1.000  C
  H362     1.0000 0.22976  0.78848  0.70777  Biso   1.000  H
  H363     1.0000 0.22976  0.78852  0.70777  Biso   1.000  H
  H364     1.0000 0.24314  0.84720  0.77917  Biso   1.000  H
  C404     1.0000 0.67423  0.86245  0.73922  Biso   1.000  C
  C405     1.0000 0.67423  0.86249  0.73922  Biso   1.000  C
  H365     1.0000 0.49635  0.83510  0.83776  Biso   1.000  H
  H366     1.0000 0.62962  0.82740  0.80897  Biso   1.000  H
  C406     1.0000 0.61612  0.85862  0.36972  Biso   1.000  C
  C407     1.0000 0.68909  0.84301  0.28360  Biso   1.000  C
  H367     1.0000 0.82824  0.89602  0.74079  Biso   1.000  H
  C408     1.0000 0.67450  0.86462  0.56231  Biso   1.000  C
  H368     1.0000 0.73720  0.92851  0.56619  Biso   1.000  H
  H369     1.0000 0.64280  0.93291  0.58579  Biso   1.000  H
  O94      1.0000 0.52585  0.85057  0.18972  Biso   1.000  O
  H370     1.0000 0.30120  0.79930  0.51901  Biso   1.000  H
  C409     1.0000 0.42753  0.79313  0.51566  Biso   1.000  C
  C410     1.0000 0.42753  0.79317  0.51566  Biso   1.000  C
  O95      1.0000 0.24076  0.75996  0.60483  Biso   1.000  O
  O96      1.0000 0.75509  0.84692  0.74463  Biso   1.000  O
  H371     1.0000 0.57513  0.87629  0.38950  Biso   1.000  H
  C411     1.0000 0.65972  0.82421  0.40104  Biso   1.000  C
  H372     1.0000 0.57513  0.87633  0.38950  Biso   1.000  H
  O97      1.0000 0.70697  0.85369  0.22701  Biso   1.000  O
  C412     1.0000 0.73082  0.80683  0.31252  Biso   1.000  C
  C413     1.0000 0.66103  0.86770  0.49653  Biso   1.000  C
  C414     1.0000 0.66103  0.86774  0.49653  Biso   1.000  C
  H373     1.0000 0.72128  0.84280  0.57107  Biso   1.000  H
  H374     1.0000 0.62421  0.85139  0.58018  Biso   1.000  H
  H375     1.0000 0.62421  0.85142  0.58018  Biso   1.000  H
  H376     1.0000 0.50370  0.83510  0.16219  Biso   1.000  H
  C415     1.0000 0.50002  0.81648  0.49998  Biso   1.000  C
  C416     1.0000 0.42920  0.74385  0.51535  Biso   1.000  C
  C417     1.0000 0.50002  0.81651  0.49998  Biso   1.000  C
  H377     1.0000 0.26793  0.74861  0.57730  Biso   1.000  H
  H378     1.0000 0.76263  0.83450  0.77760  Biso   1.000  H
  C418     1.0000 0.71601  0.79682  0.37033  Biso   1.000  C
  C419     1.0000 0.65104  0.81914  0.46700  Biso   1.000  C
  C420     1.0000 0.65104  0.81917  0.46700  Biso   1.000  C
  H379     1.0000 0.75691  0.84720  0.22078  Biso   1.000  H
  H380     1.0000 0.77029  0.78848  0.29218  Biso   1.000  H
  H381     1.0000 0.77029  0.78852  0.29218  Biso   1.000  H
  H382     1.0000 0.61078  0.88690  0.48821  Biso   1.000  H
  H383     1.0000 0.70879  0.88441  0.47950  Biso   1.000  H
  H384     1.0000 0.50002  0.85021  0.49998  Biso   1.000  H
  C421     1.0000 0.57246  0.79313  0.48429  Biso   1.000  C
  C422     1.0000 0.57246  0.79317  0.48429  Biso   1.000  C
  C423     1.0000 0.50002  0.71966  0.49998  Biso   1.000  C
  O98      1.0000 0.35939  0.71984  0.53178  Biso   1.000  O
  O99      1.0000 0.75930  0.75996  0.39516  Biso   1.000  O
  H385     1.0000 0.69879  0.79930  0.48098  Biso   1.000  H
  C424     1.0000 0.57085  0.74385  0.48464  Biso   1.000  C
  H386     1.0000 0.50002  0.68588  0.49998  Biso   1.000  H
  H387     1.0000 0.50002  0.68592  0.49998  Biso   1.000  H
  H388     1.0000 0.36862  0.69028  0.52908  Biso   1.000  H
  H389     1.0000 0.36862  0.69032  0.52908  Biso   1.000  H
  H390     1.0000 0.73213  0.74861  0.42269  Biso   1.000  H
  O100     1.0000 0.64066  0.71984  0.46822  Biso   1.000  O
  H391     1.0000 0.63143  0.69028  0.47088  Biso   1.000  H
  H392     1.0000 0.63143  0.69032  0.47088  Biso   1.000  H
  O101     1.0000 0.35939  0.28020  0.53178  Biso   1.000  O
  C425     1.0000 0.42920  0.25615  0.51535  Biso   1.000  C
  H393     1.0000 0.36862  0.30972  0.52908  Biso   1.000  H
  C426     1.0000 0.42753  0.20687  0.51566  Biso   1.000  C
  C427     1.0000 0.50002  0.28034  0.49998  Biso   1.000  C
  O102     1.0000 0.35939  0.28016  0.53178  Biso   1.000  O
  C428     1.0000 0.50002  0.28038  0.49998  Biso   1.000  C
  C429     1.0000 0.34901  0.18086  0.53295  Biso   1.000  C
  C430     1.0000 0.50002  0.18352  0.49998  Biso   1.000  C
  C431     1.0000 0.57085  0.25615  0.48464  Biso   1.000  C
  H394     1.0000 0.50002  0.31412  0.49998  Biso   1.000  H
  C432     1.0000 0.33896  0.13230  0.50342  Biso   1.000  C
  H395     1.0000 0.30120  0.20070  0.51901  Biso   1.000  H
  C433     1.0000 0.34033  0.17579  0.59891  Biso   1.000  C
  C434     1.0000 0.34033  0.17583  0.59891  Biso   1.000  C
  C435     1.0000 0.57246  0.20687  0.48429  Biso   1.000  C
  H396     1.0000 0.50002  0.14979  0.49998  Biso   1.000  H
  H397     1.0000 0.50002  0.14982  0.49998  Biso   1.000  H
  O103     1.0000 0.64066  0.28016  0.46822  Biso   1.000  O
  O104     1.0000 0.64066  0.28020  0.46822  Biso   1.000  O
  C436     1.0000 0.32549  0.13538  0.43768  Biso   1.000  C
  H398     1.0000 0.38920  0.11310  0.51178  Biso   1.000  H
  H399     1.0000 0.29120  0.11559  0.52049  Biso   1.000  H
  H400     1.0000 0.29120  0.11562  0.52049  Biso   1.000  H
  C437     1.0000 0.38393  0.14138  0.63023  Biso   1.000  C
  C438     1.0000 0.28404  0.20318  0.62962  Biso   1.000  C
  C439     1.0000 0.28404  0.20321  0.62962  Biso   1.000  C
  C440     1.0000 0.65104  0.18086  0.46700  Biso   1.000  C
  H401     1.0000 0.63143  0.30972  0.47088  Biso   1.000  H
  C441     1.0000 0.30679  0.08706  0.41119  Biso   1.000  C
  H402     1.0000 0.27871  0.15720  0.42888  Biso   1.000  H
  H403     1.0000 0.37584  0.14861  0.41978  Biso   1.000  H
  H404     1.0000 0.42492  0.12371  0.61050  Biso   1.000  H
  C442     1.0000 0.37144  0.13109  0.68865  Biso   1.000  C
  C443     1.0000 0.26923  0.19317  0.68747  Biso   1.000  C
  O105     1.0000 0.24076  0.24004  0.60483  Biso   1.000  O
  O106     1.0000 0.24076  0.24008  0.60483  Biso   1.000  O
  C444     1.0000 0.65972  0.17579  0.40104  Biso   1.000  C
  C445     1.0000 0.65972  0.17583  0.40104  Biso   1.000  C
  H405     1.0000 0.69879  0.20070  0.48098  Biso   1.000  H
  C446     1.0000 0.66103  0.13230  0.49653  Biso   1.000  C
  C447     1.0000 0.27855  0.08994  0.34733  Biso   1.000  C
  C448     1.0000 0.27855  0.08997  0.34733  Biso   1.000  C
  H406     1.0000 0.26279  0.07149  0.43380  Biso   1.000  H
  H407     1.0000 0.35719  0.06709  0.41420  Biso   1.000  H
  H408     1.0000 0.26279  0.07152  0.43380  Biso   1.000  H
  H409     1.0000 0.35719  0.06712  0.41420  Biso   1.000  H
  C449     1.0000 0.41936  0.09146  0.71910  Biso   1.000  C
  C450     1.0000 0.31090  0.15699  0.71640  Biso   1.000  C
  H410     1.0000 0.22976  0.21152  0.70777  Biso   1.000  H
  H411     1.0000 0.26793  0.25139  0.57730  Biso   1.000  H
  H412     1.0000 0.26793  0.25143  0.57730  Biso   1.000  H
  C451     1.0000 0.61612  0.14138  0.36972  Biso   1.000  C
  C452     1.0000 0.71601  0.20318  0.37033  Biso   1.000  C
  C453     1.0000 0.71601  0.20321  0.37033  Biso   1.000  C
  C454     1.0000 0.67450  0.13538  0.56231  Biso   1.000  C
  H413     1.0000 0.61078  0.11310  0.48821  Biso   1.000  H
  H414     1.0000 0.70879  0.11559  0.47950  Biso   1.000  H
  H415     1.0000 0.70879  0.11562  0.47950  Biso   1.000  H
  C455     1.0000 0.34578  0.10689  0.30677  Biso   1.000  C
  H416     1.0000 0.23320  0.11410  0.34520  Biso   1.000  H
  C456     1.0000 0.24125  0.04364  0.32546  Biso   1.000  C
  C457     1.0000 0.24125  0.04367  0.32546  Biso   1.000  C
  C458     1.0000 0.51009  0.10491  0.72672  Biso   1.000  C
  H417     1.0000 0.39621  0.08820  0.75900  Biso   1.000  H
  C459     1.0000 0.40316  0.04428  0.68738  Biso   1.000  C
  C460     1.0000 0.40316  0.04431  0.68738  Biso   1.000  C
  O107     1.0000 0.29302  0.14631  0.77299  Biso   1.000  O
  C461     1.0000 0.62861  0.13109  0.31135  Biso   1.000  C
  H418     1.0000 0.57513  0.12371  0.38950  Biso   1.000  H
  C462     1.0000 0.73082  0.19317  0.31252  Biso   1.000  C
  O108     1.0000 0.75930  0.24004  0.39516  Biso   1.000  O
  O109     1.0000 0.75930  0.24008  0.39516  Biso   1.000  O
  C463     1.0000 0.69326  0.08706  0.58880  Biso   1.000  C
  H419     1.0000 0.72128  0.15720  0.57107  Biso   1.000  H
  H420     1.0000 0.62421  0.14861  0.58018  Biso   1.000  H
  C464     1.0000 0.32576  0.13755  0.26077  Biso   1.000  C
  C465     1.0000 0.42799  0.09132  0.31126  Biso   1.000  C
  C466     1.0000 0.42799  0.09135  0.31126  Biso   1.000  C
  C467     1.0000 0.17298  0.04264  0.28630  Biso   1.000  C
  C468     1.0000 0.27338  0.00000  0.34254  Biso   1.000  C
  C469     1.0000 0.53394  0.13552  0.77233  Biso   1.000  C
  C470     1.0000 0.57200  0.09132  0.68873  Biso   1.000  C
  C471     1.0000 0.57200  0.09135  0.68873  Biso   1.000  C
  C472     1.0000 0.43331  0.00000  0.71914  Biso   1.000  C
  H421     1.0000 0.34271  0.04119  0.67998  Biso   1.000  H
  H422     1.0000 0.43021  0.04559  0.64909  Biso   1.000  H
  H423     1.0000 0.34271  0.04122  0.67998  Biso   1.000  H
  H424     1.0000 0.43021  0.04562  0.64909  Biso   1.000  H
  H425     1.0000 0.24314  0.15280  0.77917  Biso   1.000  H
  C473     1.0000 0.58069  0.09146  0.28085  Biso   1.000  C
  C474     1.0000 0.68909  0.15699  0.28360  Biso   1.000  C
  H426     1.0000 0.77029  0.21152  0.29218  Biso   1.000  H
  H427     1.0000 0.73213  0.25139  0.42269  Biso   1.000  H
  H428     1.0000 0.73213  0.25143  0.42269  Biso   1.000  H
  C475     1.0000 0.72144  0.08994  0.65266  Biso   1.000  C
  H429     1.0000 0.73720  0.07149  0.56619  Biso   1.000  H
  H430     1.0000 0.64280  0.06709  0.58579  Biso   1.000  H
  C476     1.0000 0.72144  0.08997  0.65266  Biso   1.000  C
  H431     1.0000 0.73720  0.07152  0.56619  Biso   1.000  H
  H432     1.0000 0.64280  0.06712  0.58579  Biso   1.000  H
  O110     1.0000 0.24496  0.15308  0.25537  Biso   1.000  O
  C477     1.0000 0.38517  0.15163  0.22191  Biso   1.000  C
  H433     1.0000 0.44248  0.07021  0.34210  Biso   1.000  H
  C478     1.0000 0.48996  0.10491  0.27327  Biso   1.000  C
  O111     1.0000 0.13479  0.08330  0.26608  Biso   1.000  O
  C479     1.0000 0.13981  0.00000  0.26791  Biso   1.000  C
  C480     1.0000 0.24125  0.95636  0.32546  Biso   1.000  C
  H434     1.0000 0.32090  0.00000  0.36780  Biso   1.000  H
  C481     1.0000 0.61488  0.15163  0.77808  Biso   1.000  C
  O112     1.0000 0.47420  0.14943  0.81028  Biso   1.000  O
  O113     1.0000 0.47420  0.14947  0.81028  Biso   1.000  O
  H435     1.0000 0.55751  0.07021  0.65789  Biso   1.000  H
  C482     1.0000 0.65427  0.10689  0.69322  Biso   1.000  C
  C483     1.0000 0.40316  0.95572  0.68738  Biso   1.000  C
  H436     1.0000 0.49473  0.00000  0.72141  Biso   1.000  H
  H437     1.0000 0.41241  0.00000  0.75939  Biso   1.000  H
  H438     1.0000 0.60378  0.08820  0.24099  Biso   1.000  H
  C484     1.0000 0.59682  0.04428  0.31257  Biso   1.000  C
  C485     1.0000 0.59682  0.04431  0.31257  Biso   1.000  C
  O114     1.0000 0.70697  0.14631  0.22701  Biso   1.000  O
  H439     1.0000 0.76679  0.11410  0.65480  Biso   1.000  H
  C486     1.0000 0.75880  0.04364  0.67453  Biso   1.000  C
  C487     1.0000 0.75880  0.04367  0.67453  Biso   1.000  C
  H440     1.0000 0.23742  0.16550  0.22239  Biso   1.000  H
  H441     1.0000 0.37043  0.17260  0.19098  Biso   1.000  H
  C488     1.0000 0.46611  0.13552  0.22766  Biso   1.000  C
  H442     1.0000 0.17181  0.10398  0.25920  Biso   1.000  H
  H443     1.0000 0.17181  0.10402  0.25920  Biso   1.000  H
  C489     1.0000 0.17298  0.95736  0.28630  Biso   1.000  C
  H444     1.0000 0.09302  0.00000  0.24199  Biso   1.000  H
  C490     1.0000 0.27855  0.91006  0.34733  Biso   1.000  C
  C491     1.0000 0.67423  0.13755  0.73922  Biso   1.000  C
  H445     1.0000 0.62962  0.17260  0.80897  Biso   1.000  H
  H446     1.0000 0.49635  0.16490  0.83776  Biso   1.000  H
  C492     1.0000 0.41936  0.90854  0.71910  Biso   1.000  C
  H447     1.0000 0.34271  0.95881  0.67998  Biso   1.000  H
  H448     1.0000 0.43021  0.95441  0.64909  Biso   1.000  H
  C493     1.0000 0.41936  0.90857  0.71910  Biso   1.000  C
  C494     1.0000 0.56667  0.00000  0.28085  Biso   1.000  C
  H449     1.0000 0.65728  0.04119  0.32002  Biso   1.000  H
  H450     1.0000 0.56978  0.04559  0.35090  Biso   1.000  H
  H451     1.0000 0.65728  0.04122  0.32002  Biso   1.000  H
  H452     1.0000 0.56978  0.04562  0.35090  Biso   1.000  H
  H453     1.0000 0.75691  0.15280  0.22078  Biso   1.000  H
  C495     1.0000 0.82701  0.04264  0.71370  Biso   1.000  C
  C496     1.0000 0.72660  0.00000  0.65746  Biso   1.000  C
  O115     1.0000 0.52585  0.14943  0.18972  Biso   1.000  O
  O116     1.0000 0.52585  0.14947  0.18972  Biso   1.000  O
  O117     1.0000 0.13479  0.91670  0.26608  Biso   1.000  O
  O118     1.0000 0.13479  0.91673  0.26608  Biso   1.000  O
  H454     1.0000 0.23320  0.88590  0.34520  Biso   1.000  H
  C497     1.0000 0.34578  0.89311  0.30677  Biso   1.000  C
  C498     1.0000 0.30679  0.91294  0.41119  Biso   1.000  C
  C499     1.0000 0.34578  0.89314  0.30677  Biso   1.000  C
  C500     1.0000 0.30679  0.91297  0.41119  Biso   1.000  C
  O119     1.0000 0.75509  0.15308  0.74463  Biso   1.000  O
  C501     1.0000 0.37144  0.86891  0.68865  Biso   1.000  C
  C502     1.0000 0.37144  0.86895  0.68865  Biso   1.000  C
  C503     1.0000 0.51009  0.89509  0.72672  Biso   1.000  C
  H455     1.0000 0.39621  0.91180  0.75900  Biso   1.000  H
  C504     1.0000 0.59682  0.95572  0.31257  Biso   1.000  C
  H456     1.0000 0.50532  0.00000  0.27859  Biso   1.000  H
  H457     1.0000 0.58758  0.00000  0.24060  Biso   1.000  H
  O120     1.0000 0.86520  0.08330  0.73391  Biso   1.000  O
  C505     1.0000 0.86024  0.00000  0.73208  Biso   1.000  C
  C506     1.0000 0.75880  0.95636  0.67453  Biso   1.000  C
  H458     1.0000 0.67909  0.00000  0.63219  Biso   1.000  H
  H459     1.0000 0.50370  0.16490  0.16219  Biso   1.000  H
  H460     1.0000 0.17181  0.89602  0.25920  Biso   1.000  H
  C507     1.0000 0.42799  0.90868  0.31126  Biso   1.000  C
  C508     1.0000 0.32576  0.86245  0.26077  Biso   1.000  C
  C509     1.0000 0.32576  0.86249  0.26077  Biso   1.000  C
  H461     1.0000 0.26279  0.92851  0.43380  Biso   1.000  H
  H462     1.0000 0.35719  0.93291  0.41420  Biso   1.000  H
  C510     1.0000 0.32549  0.86462  0.43768  Biso   1.000  C
  H463     1.0000 0.76263  0.16550  0.77760  Biso   1.000  H
  C511     1.0000 0.38393  0.85862  0.63023  Biso   1.000  C
  C512     1.0000 0.31090  0.84301  0.71640  Biso   1.000  C
  C513     1.0000 0.57200  0.90868  0.68873  Biso   1.000  C
  C514     1.0000 0.53394  0.86448  0.77233  Biso   1.000  C
  C515     1.0000 0.53394  0.86451  0.77233  Biso   1.000  C
  C516     1.0000 0.58069  0.90854  0.28085  Biso   1.000  C
  H464     1.0000 0.65728  0.95881  0.32002  Biso   1.000  H
  H465     1.0000 0.56978  0.95441  0.35090  Biso   1.000  H
  C517     1.0000 0.58069  0.90857  0.28085  Biso   1.000  C
  H466     1.0000 0.82824  0.10398  0.74079  Biso   1.000  H
  H467     1.0000 0.82824  0.10402  0.74079  Biso   1.000  H
  C518     1.0000 0.82701  0.95736  0.71370  Biso   1.000  C
  H468     1.0000 0.90703  0.00000  0.75800  Biso   1.000  H
  C519     1.0000 0.72144  0.91006  0.65266  Biso   1.000  C
  H469     1.0000 0.44248  0.92979  0.34210  Biso   1.000  H
  C520     1.0000 0.48996  0.89509  0.27327  Biso   1.000  C
  H470     1.0000 0.44248  0.92983  0.34210  Biso   1.000  H
  O121     1.0000 0.24496  0.84692  0.25537  Biso   1.000  O
  C521     1.0000 0.38517  0.84837  0.22191  Biso   1.000  C
  H471     1.0000 0.27871  0.84280  0.42888  Biso   1.000  H
  H472     1.0000 0.37584  0.85139  0.41978  Biso   1.000  H
  C522     1.0000 0.33896  0.86770  0.50342  Biso   1.000  C
  H473     1.0000 0.37584  0.85142  0.41978  Biso   1.000  H
  C523     1.0000 0.33896  0.86774  0.50342  Biso   1.000  C
  C524     1.0000 0.34033  0.82421  0.59891  Biso   1.000  C
  H474     1.0000 0.42492  0.87629  0.61050  Biso   1.000  H
  H475     1.0000 0.42492  0.87633  0.61050  Biso   1.000  H
  C525     1.0000 0.26923  0.80683  0.68747  Biso   1.000  C
  O122     1.0000 0.29302  0.85369  0.77299  Biso   1.000  O
  H476     1.0000 0.55751  0.92979  0.65789  Biso   1.000  H
  C526     1.0000 0.65427  0.89311  0.69322  Biso   1.000  C
  H477     1.0000 0.55751  0.92983  0.65789  Biso   1.000  H
  C527     1.0000 0.65427  0.89314  0.69322  Biso   1.000  C
  O123     1.0000 0.47420  0.85057  0.81028  Biso   1.000  O
  C528     1.0000 0.61488  0.84837  0.77808  Biso   1.000  C
  H478     1.0000 0.60378  0.91180  0.24099  Biso   1.000  H
  C529     1.0000 0.62861  0.86891  0.31135  Biso   1.000  C
  C530     1.0000 0.62861  0.86895  0.31135  Biso   1.000  C
  O124     1.0000 0.86520  0.91670  0.73391  Biso   1.000  O
  O125     1.0000 0.86520  0.91673  0.73391  Biso   1.000  O
  C531     1.0000 0.69326  0.91294  0.58880  Biso   1.000  C
  C532     1.0000 0.69326  0.91297  0.58880  Biso   1.000  C
  H479     1.0000 0.76679  0.88590  0.65480  Biso   1.000  H
  C533     1.0000 0.46611  0.86448  0.22766  Biso   1.000  C
  C534     1.0000 0.46611  0.86451  0.22766  Biso   1.000  C
  H480     1.0000 0.23742  0.83450  0.22239  Biso   1.000  H
  H481     1.0000 0.37043  0.82740  0.19098  Biso   1.000  H
  H482     1.0000 0.38920  0.88690  0.51178  Biso   1.000  H
  H483     1.0000 0.29120  0.88441  0.52049  Biso   1.000  H
  C535     1.0000 0.34901  0.81914  0.53295  Biso   1.000  C
  C536     1.0000 0.34901  0.81917  0.53295  Biso   1.000  C
  C537     1.0000 0.28404  0.79682  0.62962  Biso   1.000  C
  H484     1.0000 0.22976  0.78848  0.70777  Biso   1.000  H
  H485     1.0000 0.22976  0.78852  0.70777  Biso   1.000  H
  H486     1.0000 0.24314  0.84720  0.77917  Biso   1.000  H
  C538     1.0000 0.67423  0.86245  0.73922  Biso   1.000  C
  C539     1.0000 0.67423  0.86249  0.73922  Biso   1.000  C
  H487     1.0000 0.49635  0.83510  0.83776  Biso   1.000  H
  H488     1.0000 0.62962  0.82740  0.80897  Biso   1.000  H
  C540     1.0000 0.61612  0.85862  0.36972  Biso   1.000  C
  C541     1.0000 0.68909  0.84301  0.28360  Biso   1.000  C
  H489     1.0000 0.82824  0.89602  0.74079  Biso   1.000  H
  C542     1.0000 0.67450  0.86462  0.56231  Biso   1.000  C
  H490     1.0000 0.73720  0.92851  0.56619  Biso   1.000  H
  H491     1.0000 0.64280  0.93291  0.58579  Biso   1.000  H
  O126     1.0000 0.52585  0.85057  0.18972  Biso   1.000  O
  H492     1.0000 0.30120  0.79930  0.51901  Biso   1.000  H
  C543     1.0000 0.42753  0.79313  0.51566  Biso   1.000  C
  C544     1.0000 0.42753  0.79317  0.51566  Biso   1.000  C
  O127     1.0000 0.24076  0.75996  0.60483  Biso   1.000  O
  O128     1.0000 0.75509  0.84692  0.74463  Biso   1.000  O
  H493     1.0000 0.57513  0.87629  0.38950  Biso   1.000  H
  C545     1.0000 0.65972  0.82421  0.40104  Biso   1.000  C
  H494     1.0000 0.57513  0.87633  0.38950  Biso   1.000  H
  O129     1.0000 0.70697  0.85369  0.22701  Biso   1.000  O
  C546     1.0000 0.73082  0.80683  0.31252  Biso   1.000  C
  C547     1.0000 0.66103  0.86770  0.49653  Biso   1.000  C
  C548     1.0000 0.66103  0.86774  0.49653  Biso   1.000  C
  H495     1.0000 0.72128  0.84280  0.57107  Biso   1.000  H
  H496     1.0000 0.62421  0.85139  0.58018  Biso   1.000  H
  H497     1.0000 0.62421  0.85142  0.58018  Biso   1.000  H
  H498     1.0000 0.50370  0.83510  0.16219  Biso   1.000  H
  C549     1.0000 0.50002  0.81648  0.49998  Biso   1.000  C
  C550     1.0000 0.42920  0.74385  0.51535  Biso   1.000  C
  C551     1.0000 0.50002  0.81651  0.49998  Biso   1.000  C
  H499     1.0000 0.26793  0.74861  0.57730  Biso   1.000  H
  H500     1.0000 0.76263  0.83450  0.77760  Biso   1.000  H
  C552     1.0000 0.71601  0.79682  0.37033  Biso   1.000  C
  C553     1.0000 0.65104  0.81914  0.46700  Biso   1.000  C
  C554     1.0000 0.65104  0.81917  0.46700  Biso   1.000  C
  H501     1.0000 0.75691  0.84720  0.22078  Biso   1.000  H
  H502     1.0000 0.77029  0.78848  0.29218  Biso   1.000  H
  H503     1.0000 0.77029  0.78852  0.29218  Biso   1.000  H
  H504     1.0000 0.61078  0.88690  0.48821  Biso   1.000  H
  H505     1.0000 0.70879  0.88441  0.47950  Biso   1.000  H
  H506     1.0000 0.50002  0.85021  0.49998  Biso   1.000  H
  C555     1.0000 0.57246  0.79313  0.48429  Biso   1.000  C
  C556     1.0000 0.57246  0.79317  0.48429  Biso   1.000  C
  C557     1.0000 0.50002  0.71966  0.49998  Biso   1.000  C
  O130     1.0000 0.35939  0.71984  0.53178  Biso   1.000  O
  O131     1.0000 0.75930  0.75996  0.39516  Biso   1.000  O
  H507     1.0000 0.69879  0.79930  0.48098  Biso   1.000  H
  C558     1.0000 0.57085  0.74385  0.48464  Biso   1.000  C
  H508     1.0000 0.50002  0.68588  0.49998  Biso   1.000  H
  H509     1.0000 0.50002  0.68592  0.49998  Biso   1.000  H
  H510     1.0000 0.36862  0.69028  0.52908  Biso   1.000  H
  H511     1.0000 0.36862  0.69032  0.52908  Biso   1.000  H
  H512     1.0000 0.73213  0.74861  0.42269  Biso   1.000  H
  O132     1.0000 0.64066  0.71984  0.46822  Biso   1.000  O
  H513     1.0000 0.63143  0.69028  0.47088  Biso   1.000  H
  H514     1.0000 0.63143  0.69032  0.47088  Biso   1.000  H
