data_image0
_cell_length_a       18.891
_cell_length_b       15.913
_cell_length_c       37.075
_cell_angle_alpha    90
_cell_angle_beta     99.03
_cell_angle_gamma    90

_symmetry_space_group_name_H-M    "P 1"
_symmetry_int_tables_number       1

loop_
  _symmetry_equiv_pos_as_xyz
  'x, y, z'

loop_
  _atom_site_label
  _atom_site_occupancy
  _atom_site_fract_x
  _atom_site_fract_y
  _atom_site_fract_z
  _atom_site_thermal_displace_type
  _atom_site_B_iso_or_equiv
  _atom_site_type_symbol
  C1       1.0000 0.52145  0.36561  0.55588  Biso   1.000  C
  C2       1.0000 0.57556  0.41658  0.57140  Biso   1.000  C
  H1       1.0000 0.52419  0.34098  0.53281  Biso   1.000  H
  C3       1.0000 0.46127  0.34789  0.57309  Biso   1.000  C
  C4       1.0000 0.56754  0.45730  0.60360  Biso   1.000  C
  H2       1.0000 0.61747  0.42412  0.56050  Biso   1.000  H
  H3       1.0000 0.42614  0.30799  0.56320  Biso   1.000  H
  C5       1.0000 0.45578  0.39182  0.60529  Biso   1.000  C
  C6       1.0000 0.50843  0.44611  0.62069  Biso   1.000  C
  H4       1.0000 0.60424  0.49450  0.61430  Biso   1.000  H
  H5       1.0000 0.41467  0.38377  0.61671  Biso   1.000  H
  C7       1.0000 0.49818  0.48929  0.65511  Biso   1.000  C
  N1       1.0000 0.55246  0.53422  0.67340  Biso   1.000  N
  O1       1.0000 0.44043  0.48350  0.66699  Biso   1.000  O
  H6       1.0000 0.59305  0.53371  0.66461  Biso   1.000  H
  C8       1.0000 0.55105  0.58198  0.70508  Biso   1.000  C
  C9       1.0000 0.58993  0.65588  0.70981  Biso   1.000  C
  C10      1.0000 0.51306  0.55891  0.73349  Biso   1.000  C
  C11      1.0000 0.59197  0.70439  0.73980  Biso   1.000  C
  H7       1.0000 0.61617  0.67322  0.69118  Biso   1.000  H
  H8       1.0000 0.48613  0.50833  0.73130  Biso   1.000  H
  C12      1.0000 0.51384  0.60711  0.76388  Biso   1.000  C
  C13      1.0000 0.55404  0.68303  0.76771  Biso   1.000  C
  H9       1.0000 0.61993  0.75429  0.74190  Biso   1.000  H
  H10      1.0000 0.48774  0.59002  0.78259  Biso   1.000  H
  N2       1.0000 0.55013  0.73852  0.79679  Biso   1.000  N
  C14      1.0000 0.50996  0.71677  0.82449  Biso   1.000  C
  C15      1.0000 0.61747  0.78263  0.81381  Biso   1.000  C
  O2       1.0000 0.54405  0.65381  0.84959  Biso   1.000  O
  H11      1.0000 0.50194  0.76811  0.83850  Biso   1.000  H
  H12      1.0000 0.46243  0.69559  0.81299  Biso   1.000  H
  C16      1.0000 0.65006  0.73977  0.84778  Biso   1.000  C
  H13      1.0000 0.60617  0.84151  0.81941  Biso   1.000  H
  H14      1.0000 0.65206  0.78351  0.79638  Biso   1.000  H
  C17      1.0000 0.61595  0.67530  0.86319  Biso   1.000  C
  C18      1.0000 0.71995  0.75712  0.86330  Biso   1.000  C
  C19      1.0000 0.64932  0.62747  0.89369  Biso   1.000  C
  O3       1.0000 0.75027  0.82323  0.84590  Biso   1.000  O
  C20      1.0000 0.75622  0.71589  0.89358  Biso   1.000  C
  C21      1.0000 0.60711  0.55671  0.90839  Biso   1.000  C
  C22      1.0000 0.71911  0.65029  0.90699  Biso   1.000  C
  H15      1.0000 0.79254  0.83140  0.85630  Biso   1.000  H
  C23      1.0000 0.83262  0.74021  0.91030  Biso   1.000  C
  C24      1.0000 0.62445  0.47163  0.88940  Biso   1.000  C
  C25      1.0000 0.62133  0.54961  0.94941  Biso   1.000  C
  H16      1.0000 0.74363  0.61868  0.92679  Biso   1.000  H
  C26      1.0000 0.88614  0.68560  0.89260  Biso   1.000  C
  C27      1.0000 0.84803  0.73770  0.95140  Biso   1.000  C
  C28      1.0000 0.57975  0.44448  0.85841  Biso   1.000  C
  C29      1.0000 0.68234  0.42123  0.90500  Biso   1.000  C
  H17      1.0000 0.59392  0.50141  0.95700  Biso   1.000  H
  H18      1.0000 0.67283  0.53792  0.95730  Biso   1.000  H
  C30      1.0000 0.60041  0.63062  0.96929  Biso   1.000  C
  C31      1.0000 0.91571  0.71281  0.86300  Biso   1.000  C
  C32      1.0000 0.90724  0.60862  0.90680  Biso   1.000  C
  H19      1.0000 0.81194  0.77188  0.96140  Biso   1.000  H
  H20      1.0000 0.84405  0.67913  0.95978  Biso   1.000  H
  C33      1.0000 0.92234  0.77100  0.96579  Biso   1.000  C
  O4       1.0000 0.52224  0.48740  0.84150  Biso   1.000  O
  C34      1.0000 0.59102  0.36580  0.84259  Biso   1.000  C
  C35      1.0000 0.69653  0.34198  0.89039  Biso   1.000  C
  H21      1.0000 0.71292  0.44102  0.92608  Biso   1.000  H
  H22      1.0000 0.55424  0.65173  0.95689  Biso   1.000  H
  H23      1.0000 0.59685  0.61711  0.99469  Biso   1.000  H
  H24      1.0000 0.63722  0.67373  0.96869  Biso   1.000  H
  O5       1.0000 0.89521  0.79400  0.84989  Biso   1.000  O
  C36      1.0000 0.96074  0.66681  0.84609  Biso   1.000  C
  C37      1.0000 0.95745  0.55678  0.89211  Biso   1.000  C
  H25      1.0000 0.88756  0.58870  0.92728  Biso   1.000  H
  H26      1.0000 0.93004  0.82392  0.95350  Biso   1.000  H
  H27      1.0000 0.92656  0.78081  0.99220  Biso   1.000  H
  H28      1.0000 0.95832  0.72978  0.96110  Biso   1.000  H
  H29      1.0000 0.51805  0.53252  0.85281  Biso   1.000  H
  C38      1.0000 0.64772  0.31729  0.85961  Biso   1.000  C
  C39      1.0000 0.54637  0.33991  0.80709  Biso   1.000  C
  C40      1.0000 0.75841  0.28738  0.90568  Biso   1.000  C
  C41      1.0000 0.94043  0.82329  0.82329  Biso   1.000  C
  C42      1.0000 0.98246  0.58782  0.86160  Biso   1.000  C
  C43      1.0000 0.98624  0.69340  0.81201  Biso   1.000  C
  C44      1.0000 0.98353  0.47100  0.90890  Biso   1.000  C
  O6       1.0000 0.66134  0.23798  0.84489  Biso   1.000  O
  N3       1.0000 0.57716  0.26771  0.79190  Biso   1.000  N
  H30      1.0000 0.54344  0.38723  0.78950  Biso   1.000  H
  H31      1.0000 0.49713  0.32640  0.81119  Biso   1.000  H
  C45      1.0000 0.82536  0.31333  0.89050  Biso   1.000  C
  C46      1.0000 0.77114  0.28769  0.94820  Biso   1.000  C
  N4       1.0000 0.94683  0.76648  0.79578  Biso   1.000  N
  H32      1.0000 0.98886  0.83617  0.83650  Biso   1.000  H
  H33      1.0000 0.91994  0.87620  0.81209  Biso   1.000  H
  O7       1.0000 0.03056  0.54459  0.84369  Biso   1.000  O
  H34      1.0000 0.98036  0.64639  0.79431  Biso   1.000  H
  H35      1.0000 0.03795  0.70722  0.81750  Biso   1.000  H
  C47      1.0000 0.93315  0.40112  0.89279  Biso   1.000  C
  C48      1.0000 0.99092  0.47452  0.95110  Biso   1.000  C
  C49      1.0000 0.60045  0.20819  0.82061  Biso   1.000  C
  C50      1.0000 0.61725  0.27971  0.76260  Biso   1.000  C
  C51      1.0000 0.84536  0.27129  0.86040  Biso   1.000  C
  C52      1.0000 0.87065  0.37931  0.90470  Biso   1.000  C
  H36      1.0000 0.72554  0.27399  0.95689  Biso   1.000  H
  H37      1.0000 0.78555  0.34488  0.95700  Biso   1.000  H
  C53      1.0000 0.82852  0.22522  0.96470  Biso   1.000  C
  C54      1.0000 0.88996  0.75731  0.76700  Biso   1.000  C
  H38      1.0000 0.04074  0.49840  0.85420  Biso   1.000  H
  C55      1.0000 0.95125  0.35531  0.86340  Biso   1.000  C
  H39      1.0000 0.94325  0.48262  0.95839  Biso   1.000  H
  H40      1.0000 0.02171  0.52253  0.96049  Biso   1.000  H
  C56      1.0000 0.02415  0.39257  0.96740  Biso   1.000  C
  H41      1.0000 0.61262  0.15440  0.80960  Biso   1.000  H
  H42      1.0000 0.56073  0.19739  0.83448  Biso   1.000  H
  C57      1.0000 0.59447  0.33557  0.73401  Biso   1.000  C
  C58      1.0000 0.67906  0.23189  0.75979  Biso   1.000  C
  O8       1.0000 0.80514  0.20662  0.84224  Biso   1.000  O
  C59      1.0000 0.90633  0.29121  0.84560  Biso   1.000  C
  H43      1.0000 0.85672  0.41130  0.92409  Biso   1.000  H
  H44      1.0000 0.87441  0.24031  0.95730  Biso   1.000  H
  H45      1.0000 0.83314  0.22667  0.99138  Biso   1.000  H
  H46      1.0000 0.81475  0.16848  0.95591  Biso   1.000  H
  C60      1.0000 0.89687  0.69849  0.73788  Biso   1.000  C
  C61      1.0000 0.82794  0.80343  0.76279  Biso   1.000  C
  O9       1.0000 0.01525  0.37579  0.85120  Biso   1.000  O
  H47      1.0000 0.99011  0.34638  0.96120  Biso   1.000  H
  H48      1.0000 0.06821  0.38088  0.95749  Biso   1.000  H
  H49      1.0000 0.03526  0.39798  0.99401  Biso   1.000  H
  H50      1.0000 0.55244  0.36800  0.73469  Biso   1.000  H
  C62      1.0000 0.63025  0.34481  0.70579  Biso   1.000  C
  C63      1.0000 0.71276  0.23792  0.72999  Biso   1.000  C
  H51      1.0000 0.69756  0.19487  0.77910  Biso   1.000  H
  H52      1.0000 0.76864  0.19808  0.85210  Biso   1.000  H
  C64      1.0000 0.92375  0.24577  0.81329  Biso   1.000  C
  H53      1.0000 0.93817  0.66392  0.73930  Biso   1.000  H
  C65      1.0000 0.84418  0.69327  0.70861  Biso   1.000  C
  C66      1.0000 0.77505  0.79759  0.73250  Biso   1.000  C
  H54      1.0000 0.82083  0.84132  0.78180  Biso   1.000  H
  C67      1.0000 0.03634  0.31100  0.82599  Biso   1.000  C
  H55      1.0000 0.61474  0.38673  0.68810  Biso   1.000  H
  C68      1.0000 0.68897  0.29561  0.70140  Biso   1.000  C
  H56      1.0000 0.75274  0.20292  0.72830  Biso   1.000  H
  N5       1.0000 0.98206  0.29033  0.79810  Biso   1.000  N
  H57      1.0000 0.93936  0.18777  0.82031  Biso   1.000  H
  H58      1.0000 0.88055  0.24232  0.79439  Biso   1.000  H
  H59      1.0000 0.84926  0.65293  0.69039  Biso   1.000  H
  C69      1.0000 0.78303  0.74310  0.70361  Biso   1.000  C
  H60      1.0000 0.73306  0.83089  0.73108  Biso   1.000  H
  H61      1.0000 0.05161  0.25972  0.84019  Biso   1.000  H
  H62      1.0000 0.07785  0.33193  0.81539  Biso   1.000  H
  N6       1.0000 0.72367  0.30862  0.67141  Biso   1.000  N
  C70      1.0000 0.96216  0.34682  0.76839  Biso   1.000  C
  N7       1.0000 0.73264  0.73028  0.67318  Biso   1.000  N
  H63      1.0000 0.71795  0.35839  0.66089  Biso   1.000  H
  C71      1.0000 0.76558  0.25281  0.65639  Biso   1.000  C
  C72      1.0000 0.90872  0.32407  0.74029  Biso   1.000  C
  C73      1.0000 0.99872  0.42280  0.76610  Biso   1.000  C
  H64      1.0000 0.73317  0.68139  0.66221  Biso   1.000  H
  C74      1.0000 0.68145  0.78703  0.65841  Biso   1.000  C
  O10      1.0000 0.77423  0.17979  0.66849  Biso   1.000  O
  C75      1.0000 0.80086  0.28109  0.62520  Biso   1.000  C
  H65      1.0000 0.88355  0.27298  0.74190  Biso   1.000  H
  C76      1.0000 0.89136  0.37529  0.70951  Biso   1.000  C
  C77      1.0000 0.98183  0.47131  0.73480  Biso   1.000  C
  H66      1.0000 0.03432  0.44077  0.78560  Biso   1.000  H
  O11      1.0000 0.67317  0.85622  0.67190  Biso   1.000  O
  C78      1.0000 0.63016  0.75693  0.62629  Biso   1.000  C
  C79      1.0000 0.78025  0.35141  0.60401  Biso   1.000  C
  C80      1.0000 0.85847  0.23503  0.61649  Biso   1.000  C
  H67      1.0000 0.85465  0.35889  0.69020  Biso   1.000  H
  C81      1.0000 0.92874  0.45133  0.70730  Biso   1.000  C
  H68      1.0000 0.00886  0.52077  0.73250  Biso   1.000  H
  C82      1.0000 0.64325  0.69182  0.60401  Biso   1.000  C
  C83      1.0000 0.56506  0.80368  0.61720  Biso   1.000  C
  H69      1.0000 0.74156  0.38503  0.60920  Biso   1.000  H
  C84      1.0000 0.81617  0.37353  0.57489  Biso   1.000  C
  C85      1.0000 0.89258  0.26079  0.58819  Biso   1.000  C
  H70      1.0000 0.87417  0.18589  0.63001  Biso   1.000  H
  N8       1.0000 0.91055  0.50022  0.67559  Biso   1.000  N
  H71      1.0000 0.68666  0.66059  0.60900  Biso   1.000  H
  C86      1.0000 0.59197  0.67190  0.57380  Biso   1.000  C
  C87      1.0000 0.51544  0.78238  0.58759  Biso   1.000  C
  H72      1.0000 0.55617  0.85019  0.63200  Biso   1.000  H
  H73      1.0000 0.80007  0.42029  0.55990  Biso   1.000  H
  C88      1.0000 0.87197  0.32973  0.56839  Biso   1.000  C
  H74      1.0000 0.93198  0.22887  0.58259  Biso   1.000  H
  H75      1.0000 0.86456  0.50569  0.66720  Biso   1.000  H
  C89      1.0000 0.95716  0.54000  0.65661  Biso   1.000  C
  H76      1.0000 0.60107  0.62559  0.55900  Biso   1.000  H
  C90      1.0000 0.52966  0.71520  0.56449  Biso   1.000  C
  H77      1.0000 0.47168  0.81261  0.58249  Biso   1.000  H
  H78      1.0000 0.89754  0.34682  0.54949  Biso   1.000  H
  C91      1.0000 0.92816  0.58669  0.62381  Biso   1.000  C
  O12      1.0000 0.02374  0.53208  0.66739  Biso   1.000  O
  H79      1.0000 0.49673  0.70112  0.54319  Biso   1.000  H
  C92      1.0000 0.85825  0.59040  0.61010  Biso   1.000  C
  C93      1.0000 0.97837  0.63382  0.60739  Biso   1.000  C
  H80      1.0000 0.82467  0.55948  0.62140  Biso   1.000  H
  C94      1.0000 0.83376  0.64067  0.57839  Biso   1.000  C
  C95      1.0000 0.95326  0.68152  0.57760  Biso   1.000  C
  H81      1.0000 0.02804  0.63219  0.61690  Biso   1.000  H
  H82      1.0000 0.78424  0.64268  0.56850  Biso   1.000  H
  C96      1.0000 0.88168  0.68479  0.56279  Biso   1.000  C
  H83      1.0000 0.98637  0.71369  0.56651  Biso   1.000  H
  H84      1.0000 0.86616  0.71809  0.54179  Biso   1.000  H
  C97      1.0000 0.47849  0.63439  0.44410  Biso   1.000  C
  C98      1.0000 0.42438  0.58342  0.42859  Biso   1.000  C
  C99      1.0000 0.53867  0.65211  0.42690  Biso   1.000  C
  H85      1.0000 0.47576  0.65902  0.46721  Biso   1.000  H
  C100     1.0000 0.43235  0.54270  0.39639  Biso   1.000  C
  H86      1.0000 0.38248  0.57588  0.43949  Biso   1.000  H
  C101     1.0000 0.54416  0.60818  0.39470  Biso   1.000  C
  H87      1.0000 0.57375  0.69201  0.43681  Biso   1.000  H
  C102     1.0000 0.49146  0.55389  0.37929  Biso   1.000  C
  H88      1.0000 0.39566  0.50550  0.38571  Biso   1.000  H
  H89      1.0000 0.58528  0.61623  0.38331  Biso   1.000  H
  C103     1.0000 0.50177  0.51071  0.34491  Biso   1.000  C
  N9       1.0000 0.44749  0.46578  0.32661  Biso   1.000  N
  O13      1.0000 0.55946  0.51650  0.33300  Biso   1.000  O
  C104     1.0000 0.44889  0.41802  0.29490  Biso   1.000  C
  H90      1.0000 0.40690  0.46629  0.33540  Biso   1.000  H
  C105     1.0000 0.40997  0.34412  0.29020  Biso   1.000  C
  C106     1.0000 0.48689  0.44109  0.26650  Biso   1.000  C
  C107     1.0000 0.40797  0.29561  0.26019  Biso   1.000  C
  H91      1.0000 0.38378  0.32678  0.30880  Biso   1.000  H
  C108     1.0000 0.48610  0.39289  0.23610  Biso   1.000  C
  H92      1.0000 0.51377  0.49167  0.26871  Biso   1.000  H
  C109     1.0000 0.44586  0.31697  0.23231  Biso   1.000  C
  H93      1.0000 0.37996  0.24571  0.25809  Biso   1.000  H
  H94      1.0000 0.51220  0.40998  0.21739  Biso   1.000  H
  N10      1.0000 0.44976  0.26148  0.20319  Biso   1.000  N
  C110     1.0000 0.38249  0.21737  0.18621  Biso   1.000  C
  C111     1.0000 0.48998  0.28323  0.17550  Biso   1.000  C
  C112     1.0000 0.34988  0.26023  0.15220  Biso   1.000  C
  H95      1.0000 0.39378  0.15849  0.18061  Biso   1.000  H
  H96      1.0000 0.34788  0.21649  0.20360  Biso   1.000  H
  O14      1.0000 0.45589  0.34619  0.15040  Biso   1.000  O
  H97      1.0000 0.49800  0.23189  0.16149  Biso   1.000  H
  H98      1.0000 0.53751  0.30441  0.18700  Biso   1.000  H
  C113     1.0000 0.28000  0.24288  0.13669  Biso   1.000  C
  C114     1.0000 0.38399  0.32470  0.13680  Biso   1.000  C
  C115     1.0000 0.24367  0.28411  0.10640  Biso   1.000  C
  O15      1.0000 0.24968  0.17677  0.15409  Biso   1.000  O
  C116     1.0000 0.35056  0.37253  0.10629  Biso   1.000  C
  C117     1.0000 0.16727  0.25979  0.08969  Biso   1.000  C
  C118     1.0000 0.28078  0.34971  0.09299  Biso   1.000  C
  H99      1.0000 0.20741  0.16860  0.14371  Biso   1.000  H
  C119     1.0000 0.39278  0.44329  0.09160  Biso   1.000  C
  C120     1.0000 0.11380  0.31440  0.10739  Biso   1.000  C
  C121     1.0000 0.15192  0.26230  0.04861  Biso   1.000  C
  H100     1.0000 0.25631  0.38132  0.07319  Biso   1.000  H
  C122     1.0000 0.37550  0.52837  0.11061  Biso   1.000  C
  C123     1.0000 0.37862  0.45039  0.05061  Biso   1.000  C
  C124     1.0000 0.08417  0.28719  0.13699  Biso   1.000  C
  C125     1.0000 0.09271  0.39138  0.09321  Biso   1.000  C
  H101     1.0000 0.18800  0.22812  0.03859  Biso   1.000  H
  H102     1.0000 0.15589  0.32087  0.04020  Biso   1.000  H
  C126     1.0000 0.07760  0.22900  0.03419  Biso   1.000  C
  C127     1.0000 0.42020  0.55552  0.14161  Biso   1.000  C
  C128     1.0000 0.31760  0.57877  0.09499  Biso   1.000  C
  H103     1.0000 0.40597  0.49859  0.04299  Biso   1.000  H
  H104     1.0000 0.32711  0.46208  0.04269  Biso   1.000  H
  C129     1.0000 0.39948  0.36938  0.03070  Biso   1.000  C
  O16      1.0000 0.10468  0.20600  0.15010  Biso   1.000  O
  C130     1.0000 0.03920  0.33319  0.15390  Biso   1.000  C
  C131     1.0000 0.04250  0.44322  0.10791  Biso   1.000  C
  H105     1.0000 0.11238  0.41130  0.07270  Biso   1.000  H
  H106     1.0000 0.06991  0.17608  0.04651  Biso   1.000  H
  H107     1.0000 0.07339  0.21919  0.00781  Biso   1.000  H
  H108     1.0000 0.04157  0.27022  0.03889  Biso   1.000  H
  O17      1.0000 0.47771  0.51260  0.15851  Biso   1.000  O
  C132     1.0000 0.40886  0.63420  0.15739  Biso   1.000  C
  C133     1.0000 0.30341  0.65802  0.10960  Biso   1.000  C
  H109     1.0000 0.28702  0.55898  0.07390  Biso   1.000  H
  H110     1.0000 0.44570  0.34827  0.04310  Biso   1.000  H
  H111     1.0000 0.40309  0.38289  0.00530  Biso   1.000  H
  H112     1.0000 0.36272  0.32627  0.03130  Biso   1.000  H
  C134     1.0000 0.05951  0.17671  0.17670  Biso   1.000  C
  C135     1.0000 0.01371  0.30660  0.18801  Biso   1.000  C
  C136     1.0000 0.01749  0.41218  0.13841  Biso   1.000  C
  C137     1.0000 0.01642  0.52900  0.09111  Biso   1.000  C
  H113     1.0000 0.48190  0.46748  0.14721  Biso   1.000  H
  C138     1.0000 0.35218  0.68271  0.14041  Biso   1.000  C
  C139     1.0000 0.45357  0.66009  0.19290  Biso   1.000  C
  C140     1.0000 0.24148  0.71262  0.09430  Biso   1.000  C
  N11      1.0000 0.05311  0.23352  0.20420  Biso   1.000  N
  H114     1.0000 0.01109  0.16383  0.16351  Biso   1.000  H
  H115     1.0000 0.08001  0.12380  0.18790  Biso   1.000  H
  H116     1.0000 0.01959  0.35361  0.20571  Biso   1.000  H
  H117     1.0000 0.96199  0.29278  0.18249  Biso   1.000  H
  O18      1.0000 0.96938  0.45541  0.15630  Biso   1.000  O
  C141     1.0000 0.06679  0.59888  0.10720  Biso   1.000  C
  C142     1.0000 0.00897  0.52548  0.04889  Biso   1.000  C
  O19      1.0000 0.33860  0.76202  0.15510  Biso   1.000  O
  N12      1.0000 0.42279  0.73229  0.20811  Biso   1.000  N
  H118     1.0000 0.45651  0.61277  0.21051  Biso   1.000  H
  H119     1.0000 0.50281  0.67360  0.18880  Biso   1.000  H
  C143     1.0000 0.17459  0.68667  0.10949  Biso   1.000  C
  C144     1.0000 0.22881  0.71231  0.05181  Biso   1.000  C
  C145     1.0000 0.10999  0.24269  0.23299  Biso   1.000  C
  H120     1.0000 0.95921  0.50160  0.14581  Biso   1.000  H
  C146     1.0000 0.04870  0.64469  0.13661  Biso   1.000  C
  C147     1.0000 0.12929  0.62069  0.09529  Biso   1.000  C
  H121     1.0000 0.05670  0.51738  0.04159  Biso   1.000  H
  H122     1.0000 0.97818  0.47747  0.03949  Biso   1.000  H
  C148     1.0000 0.97580  0.60743  0.03261  Biso   1.000  C
  C149     1.0000 0.39950  0.79181  0.17940  Biso   1.000  C
  C150     1.0000 0.38269  0.72029  0.23739  Biso   1.000  C
  C151     1.0000 0.15458  0.72871  0.13959  Biso   1.000  C
  H123     1.0000 0.27440  0.72601  0.04310  Biso   1.000  H
  H124     1.0000 0.21440  0.65512  0.04299  Biso   1.000  H
  C152     1.0000 0.17138  0.77478  0.03531  Biso   1.000  C
  C153     1.0000 0.17200  0.19657  0.23719  Biso   1.000  C
  C154     1.0000 0.10307  0.30151  0.26210  Biso   1.000  C
  C155     1.0000 0.09361  0.70879  0.15439  Biso   1.000  C
  O20      1.0000 0.98469  0.62421  0.14879  Biso   1.000  O
  H125     1.0000 0.14317  0.58870  0.07590  Biso   1.000  H
  H126     1.0000 0.00978  0.65362  0.03881  Biso   1.000  H
  H127     1.0000 0.93168  0.61912  0.04250  Biso   1.000  H
  H128     1.0000 0.96469  0.60202  0.00601  Biso   1.000  H
  H129     1.0000 0.38727  0.84560  0.19041  Biso   1.000  H
  H130     1.0000 0.43921  0.80261  0.16550  Biso   1.000  H
  C156     1.0000 0.40548  0.66443  0.26601  Biso   1.000  C
  C157     1.0000 0.32088  0.76811  0.24020  Biso   1.000  C
  O21      1.0000 0.19480  0.79338  0.15775  Biso   1.000  O
  H131     1.0000 0.12548  0.75969  0.04269  Biso   1.000  H
  H132     1.0000 0.16680  0.77333  0.00860  Biso   1.000  H
  H133     1.0000 0.18520  0.83152  0.04411  Biso   1.000  H
  C158     1.0000 0.22490  0.20241  0.26751  Biso   1.000  C
  H134     1.0000 0.17906  0.15868  0.21819  Biso   1.000  H
  C159     1.0000 0.15577  0.30673  0.29141  Biso   1.000  C
  H135     1.0000 0.06178  0.33608  0.26071  Biso   1.000  H
  C160     1.0000 0.07619  0.75423  0.18670  Biso   1.000  C
  C161     1.0000 0.96361  0.68900  0.17400  Biso   1.000  C
  H136     1.0000 0.44750  0.63200  0.26530  Biso   1.000  H
  C162     1.0000 0.36969  0.65519  0.29419  Biso   1.000  C
  C163     1.0000 0.28718  0.76208  0.26999  Biso   1.000  C
  H137     1.0000 0.30238  0.80513  0.22089  Biso   1.000  H
  H138     1.0000 0.23130  0.80192  0.14789  Biso   1.000  H
  C164     1.0000 0.21686  0.25690  0.29640  Biso   1.000  C
  H139     1.0000 0.26689  0.16911  0.26890  Biso   1.000  H
  H140     1.0000 0.15068  0.34707  0.30960  Biso   1.000  H
  N13      1.0000 0.01789  0.70967  0.20191  Biso   1.000  N
  H141     1.0000 0.06060  0.81223  0.17971  Biso   1.000  H
  H142     1.0000 0.11939  0.75768  0.20560  Biso   1.000  H
  H143     1.0000 0.94827  0.74028  0.15980  Biso   1.000  H
  H144     1.0000 0.92209  0.66807  0.18459  Biso   1.000  H
  H145     1.0000 0.38515  0.61327  0.31189  Biso   1.000  H
  C165     1.0000 0.31097  0.70439  0.29859  Biso   1.000  C
  H146     1.0000 0.24715  0.79708  0.27169  Biso   1.000  H
  N14      1.0000 0.26730  0.26972  0.32680  Biso   1.000  N
  C166     1.0000 0.03778  0.65318  0.23160  Biso   1.000  C
  N15      1.0000 0.27628  0.69138  0.32860  Biso   1.000  N
  H147     1.0000 0.26678  0.31861  0.33781  Biso   1.000  H
  C167     1.0000 0.31850  0.21297  0.34160  Biso   1.000  C
  C168     1.0000 0.09116  0.67593  0.25970  Biso   1.000  C
  C169     1.0000 0.00116  0.57720  0.23389  Biso   1.000  C
  H148     1.0000 0.28199  0.64161  0.33909  Biso   1.000  H
  C170     1.0000 0.23436  0.74719  0.34360  Biso   1.000  C
  O22      1.0000 0.32678  0.14378  0.32809  Biso   1.000  O
  C171     1.0000 0.36978  0.24307  0.37369  Biso   1.000  C
  H149     1.0000 0.11639  0.72702  0.25809  Biso   1.000  H
  C172     1.0000 0.10859  0.62471  0.29051  Biso   1.000  C
  C173     1.0000 0.01806  0.52869  0.26519  Biso   1.000  C
  H150     1.0000 0.96557  0.55923  0.21439  Biso   1.000  H
  O23      1.0000 0.22566  0.82021  0.33150  Biso   1.000  O
  C174     1.0000 0.19908  0.71891  0.37479  Biso   1.000  C
  C175     1.0000 0.35670  0.30818  0.39601  Biso   1.000  C
  C176     1.0000 0.43489  0.19632  0.38279  Biso   1.000  C
  H151     1.0000 0.14529  0.64111  0.30979  Biso   1.000  H
  C177     1.0000 0.07115  0.54867  0.29269  Biso   1.000  C
  H152     1.0000 0.99109  0.47923  0.26751  Biso   1.000  H
  C178     1.0000 0.21970  0.64859  0.39601  Biso   1.000  C
  C179     1.0000 0.14147  0.76497  0.38350  Biso   1.000  C
  H153     1.0000 0.31329  0.33941  0.39101  Biso   1.000  H
  C180     1.0000 0.40797  0.32810  0.42619  Biso   1.000  C
  C181     1.0000 0.48445  0.21762  0.41239  Biso   1.000  C
  H154     1.0000 0.44377  0.14981  0.36799  Biso   1.000  H
  N16      1.0000 0.08939  0.49978  0.32440  Biso   1.000  N
  H155     1.0000 0.25838  0.61497  0.39079  Biso   1.000  H
  C182     1.0000 0.18377  0.62647  0.42509  Biso   1.000  C
  C183     1.0000 0.10736  0.73921  0.41179  Biso   1.000  C
  H156     1.0000 0.12578  0.81411  0.37001  Biso   1.000  H
  H157     1.0000 0.39887  0.37441  0.44099  Biso   1.000  H
  C184     1.0000 0.47029  0.28480  0.43550  Biso   1.000  C
  H158     1.0000 0.52826  0.18739  0.41750  Biso   1.000  H
  H159     1.0000 0.13539  0.49431  0.33281  Biso   1.000  H
  C185     1.0000 0.04279  0.46000  0.34341  Biso   1.000  C
  H160     1.0000 0.19988  0.57971  0.44009  Biso   1.000  H
  C186     1.0000 0.12797  0.67027  0.43159  Biso   1.000  C
  H161     1.0000 0.06796  0.77113  0.41739  Biso   1.000  H
  H162     1.0000 0.50316  0.29888  0.45680  Biso   1.000  H
  C187     1.0000 0.07179  0.41331  0.37621  Biso   1.000  C
  O24      1.0000 0.97620  0.46792  0.33259  Biso   1.000  O
  H163     1.0000 0.10235  0.65318  0.45049  Biso   1.000  H
  C188     1.0000 0.14169  0.40960  0.38989  Biso   1.000  C
  C189     1.0000 0.02157  0.36618  0.39259  Biso   1.000  C
  H164     1.0000 0.17528  0.44052  0.37861  Biso   1.000  H
  C190     1.0000 0.16618  0.35933  0.42160  Biso   1.000  C
  C191     1.0000 0.04668  0.31848  0.42239  Biso   1.000  C
  H165     1.0000 0.97185  0.36781  0.38309  Biso   1.000  H
  H166     1.0000 0.21566  0.35732  0.43151  Biso   1.000  H
  C192     1.0000 0.11826  0.31521  0.43719  Biso   1.000  C
  H167     1.0000 0.01358  0.28631  0.43350  Biso   1.000  H
  H168     1.0000 0.13378  0.28191  0.45819  Biso   1.000  H
  C193     1.0000 0.39946  0.13059  0.53070  Biso   1.000  C
  C194     1.0000 0.37853  0.04958  0.55059  Biso   1.000  C
  H169     1.0000 0.44568  0.15170  0.54310  Biso   1.000  H
  H170     1.0000 0.40307  0.11707  0.50531  Biso   1.000  H
  H171     1.0000 0.36264  0.17369  0.53130  Biso   1.000  H
  C195     1.0000 0.39276  0.05668  0.59161  Biso   1.000  C
  H172     1.0000 0.40594  0.00138  0.54299  Biso   1.000  H
  H173     1.0000 0.32708  0.03789  0.54269  Biso   1.000  H
  C196     1.0000 0.35054  0.12751  0.60630  Biso   1.000  C
  C197     1.0000 0.37547  0.97160  0.61059  Biso   1.000  C
  C198     1.0000 0.38397  0.17533  0.63681  Biso   1.000  C
  C199     1.0000 0.28075  0.15032  0.59300  Biso   1.000  C
  C200     1.0000 0.42017  0.94451  0.64159  Biso   1.000  C
  C201     1.0000 0.31757  0.92120  0.59499  Biso   1.000  C
  O25      1.0000 0.45586  0.15377  0.65041  Biso   1.000  O
  C202     1.0000 0.34985  0.23980  0.65218  Biso   1.000  C
  C203     1.0000 0.24364  0.21592  0.60641  Biso   1.000  C
  H174     1.0000 0.25628  0.11871  0.57320  Biso   1.000  H
  O26      1.0000 0.47767  0.98737  0.65849  Biso   1.000  O
  C204     1.0000 0.40884  0.86577  0.65740  Biso   1.000  C
  C205     1.0000 0.30333  0.84202  0.60961  Biso   1.000  C
  H175     1.0000 0.28694  0.94099  0.57391  Biso   1.000  H
  C206     1.0000 0.48996  0.21680  0.67551  Biso   1.000  C
  C207     1.0000 0.27997  0.25709  0.63670  Biso   1.000  C
  C208     1.0000 0.38245  0.28260  0.68618  Biso   1.000  C
  C209     1.0000 0.16725  0.24018  0.58970  Biso   1.000  C
  H176     1.0000 0.48187  0.03249  0.64718  Biso   1.000  H
  C210     1.0000 0.35215  0.81732  0.64038  Biso   1.000  C
  C211     1.0000 0.45355  0.83988  0.69290  Biso   1.000  C
  C212     1.0000 0.24144  0.78741  0.59428  Biso   1.000  C
  N17      1.0000 0.44973  0.23848  0.70320  Biso   1.000  N
  H177     1.0000 0.49797  0.26808  0.66150  Biso   1.000  H
  H178     1.0000 0.53743  0.19563  0.68700  Biso   1.000  H
  O27      1.0000 0.24965  0.32319  0.65409  Biso   1.000  O
  H179     1.0000 0.39375  0.34148  0.68059  Biso   1.000  H
  H180     1.0000 0.34785  0.28348  0.70361  Biso   1.000  H
  C213     1.0000 0.11378  0.18557  0.60739  Biso   1.000  C
  C214     1.0000 0.15188  0.23773  0.54859  Biso   1.000  C
  O28      1.0000 0.33858  0.73801  0.65511  Biso   1.000  O
  N18      1.0000 0.42276  0.76767  0.70809  Biso   1.000  N
  H181     1.0000 0.45643  0.88720  0.71049  Biso   1.000  H
  H182     1.0000 0.50273  0.82643  0.68881  Biso   1.000  H
  C215     1.0000 0.17456  0.81330  0.60950  Biso   1.000  C
  C216     1.0000 0.22878  0.78772  0.55179  Biso   1.000  C
  C217     1.0000 0.44583  0.18300  0.73229  Biso   1.000  C
  H183     1.0000 0.20733  0.33143  0.64369  Biso   1.000  H
  C218     1.0000 0.08415  0.21278  0.63700  Biso   1.000  C
  C219     1.0000 0.09268  0.10859  0.59319  Biso   1.000  C
  H184     1.0000 0.18798  0.27192  0.53860  Biso   1.000  H
  H185     1.0000 0.15587  0.17910  0.54021  Biso   1.000  H
  C220     1.0000 0.07758  0.27097  0.53420  Biso   1.000  C
  C221     1.0000 0.39947  0.70823  0.67938  Biso   1.000  C
  C222     1.0000 0.38266  0.77968  0.73739  Biso   1.000  C
  C223     1.0000 0.15456  0.77132  0.63959  Biso   1.000  C
  C224     1.0000 0.12927  0.87928  0.59529  Biso   1.000  C
  H186     1.0000 0.27438  0.77402  0.54310  Biso   1.000  H
  H187     1.0000 0.21437  0.84491  0.54299  Biso   1.000  H
  C225     1.0000 0.17134  0.72519  0.53529  Biso   1.000  C
  C226     1.0000 0.40795  0.20442  0.76020  Biso   1.000  C
  C227     1.0000 0.48607  0.10708  0.73611  Biso   1.000  C
  O29      1.0000 0.10465  0.29397  0.65011  Biso   1.000  O
  C228     1.0000 0.03917  0.16678  0.65390  Biso   1.000  C
  C229     1.0000 0.04247  0.05681  0.60788  Biso   1.000  C
  H188     1.0000 0.11236  0.08867  0.57271  Biso   1.000  H
  H189     1.0000 0.06988  0.32389  0.54649  Biso   1.000  H
  H190     1.0000 0.07336  0.28078  0.50779  Biso   1.000  H
  H191     1.0000 0.04155  0.22981  0.53890  Biso   1.000  H
  H192     1.0000 0.38724  0.65437  0.69039  Biso   1.000  H
  H193     1.0000 0.43917  0.69742  0.66548  Biso   1.000  H
  C230     1.0000 0.40545  0.83561  0.76599  Biso   1.000  C
  C231     1.0000 0.32085  0.73192  0.74021  Biso   1.000  C
  O30      1.0000 0.19477  0.70659  0.65775  Biso   1.000  O
  C232     1.0000 0.09353  0.79118  0.65439  Biso   1.000  C
  C233     1.0000 0.06677  0.90109  0.60720  Biso   1.000  C
  H194     1.0000 0.14315  0.91133  0.57590  Biso   1.000  H
  H195     1.0000 0.12545  0.74028  0.54269  Biso   1.000  H
  H196     1.0000 0.16678  0.72670  0.50861  Biso   1.000  H
  H197     1.0000 0.18517  0.66851  0.54409  Biso   1.000  H
  H198     1.0000 0.37993  0.25432  0.75809  Biso   1.000  H
  C234     1.0000 0.40993  0.15591  0.79018  Biso   1.000  C
  C235     1.0000 0.48686  0.05888  0.76651  Biso   1.000  C
  H199     1.0000 0.51218  0.08999  0.71740  Biso   1.000  H
  C236     1.0000 0.05943  0.32332  0.67671  Biso   1.000  C
  C237     1.0000 0.01746  0.08779  0.63839  Biso   1.000  C
  C238     1.0000 0.01362  0.19343  0.68799  Biso   1.000  C
  C239     1.0000 0.01633  0.97103  0.59109  Biso   1.000  C
  H200     1.0000 0.44742  0.86797  0.76530  Biso   1.000  H
  C240     1.0000 0.36967  0.84478  0.79420  Biso   1.000  C
  C241     1.0000 0.28715  0.73789  0.77000  Biso   1.000  C
  H201     1.0000 0.30236  0.69490  0.72090  Biso   1.000  H
  H202     1.0000 0.23128  0.69811  0.64789  Biso   1.000  H
  C242     1.0000 0.04866  0.85528  0.63659  Biso   1.000  C
  C243     1.0000 0.07617  0.74581  0.68670  Biso   1.000  C
  H203     1.0000 0.38374  0.17319  0.80878  Biso   1.000  H
  C244     1.0000 0.44887  0.08201  0.79491  Biso   1.000  C
  H204     1.0000 0.51374  0.00830  0.76869  Biso   1.000  H
  N19      1.0000 0.05302  0.26651  0.70418  Biso   1.000  N
  H205     1.0000 0.01105  0.33620  0.66349  Biso   1.000  H
  H206     1.0000 0.07998  0.37617  0.68791  Biso   1.000  H
  O31      1.0000 0.96935  0.04462  0.65631  Biso   1.000  O
  H207     1.0000 0.01955  0.14642  0.70568  Biso   1.000  H
  H208     1.0000 0.96196  0.20719  0.68250  Biso   1.000  H
  C245     1.0000 0.00895  0.97449  0.54889  Biso   1.000  C
  H209     1.0000 0.38513  0.88670  0.81190  Biso   1.000  H
  C246     1.0000 0.31094  0.79558  0.79860  Biso   1.000  C
  H210     1.0000 0.24713  0.70288  0.77169  Biso   1.000  H
  O32      1.0000 0.98467  0.87582  0.64880  Biso   1.000  O
  N20      1.0000 0.01785  0.79030  0.70189  Biso   1.000  N
  H211     1.0000 0.06056  0.68780  0.67968  Biso   1.000  H
  H212     1.0000 0.11936  0.74229  0.70560  Biso   1.000  H
  N21      1.0000 0.44746  0.03419  0.82659  Biso   1.000  N
  C247     1.0000 0.10996  0.25727  0.73300  Biso   1.000  C
  H213     1.0000 0.95918  0.99843  0.64579  Biso   1.000  H
  C248     1.0000 0.97576  0.89260  0.53259  Biso   1.000  C
  H214     1.0000 0.97816  0.02250  0.53950  Biso   1.000  H
  H215     1.0000 0.05667  0.98259  0.54160  Biso   1.000  H
  N22      1.0000 0.27624  0.80858  0.82858  Biso   1.000  N
  C249     1.0000 0.96358  0.81097  0.67400  Biso   1.000  C
  C250     1.0000 0.03775  0.84679  0.73160  Biso   1.000  C
  H216     1.0000 0.40686  0.03368  0.83538  Biso   1.000  H
  C251     1.0000 0.50174  0.98932  0.84489  Biso   1.000  C
  C252     1.0000 0.10305  0.19852  0.76211  Biso   1.000  C
  C253     1.0000 0.17197  0.30340  0.73720  Biso   1.000  C
  H217     1.0000 0.93165  0.88091  0.54250  Biso   1.000  H
  H218     1.0000 0.96466  0.89801  0.50599  Biso   1.000  H
  H219     1.0000 0.00975  0.84641  0.53879  Biso   1.000  H
  H220     1.0000 0.28192  0.85842  0.83910  Biso   1.000  H
  C254     1.0000 0.23434  0.75278  0.84360  Biso   1.000  C
  H221     1.0000 0.94825  0.75969  0.65980  Biso   1.000  H
  H222     1.0000 0.92206  0.83190  0.68460  Biso   1.000  H
  C255     1.0000 0.09114  0.82411  0.75971  Biso   1.000  C
  C256     1.0000 0.00114  0.92283  0.73390  Biso   1.000  C
  O33      1.0000 0.55943  0.98347  0.83301  Biso   1.000  O
  C257     1.0000 0.49143  0.94608  0.87930  Biso   1.000  C
  H223     1.0000 0.06175  0.16389  0.76069  Biso   1.000  H
  C258     1.0000 0.15574  0.19330  0.79139  Biso   1.000  C
  C259     1.0000 0.22487  0.29762  0.76749  Biso   1.000  C
  H224     1.0000 0.17904  0.34129  0.71819  Biso   1.000  H
  O34      1.0000 0.22564  0.67982  0.83151  Biso   1.000  O
  C260     1.0000 0.19906  0.78112  0.87479  Biso   1.000  C
  H225     1.0000 0.11637  0.77302  0.75809  Biso   1.000  H
  C261     1.0000 0.10856  0.87532  0.79048  Biso   1.000  C
  H226     1.0000 0.96554  0.94080  0.71440  Biso   1.000  H
  C262     1.0000 0.01803  0.97128  0.76519  Biso   1.000  C
  C263     1.0000 0.43233  0.95733  0.89640  Biso   1.000  C
  C264     1.0000 0.54414  0.89179  0.89470  Biso   1.000  C
  H227     1.0000 0.15066  0.15289  0.80960  Biso   1.000  H
  C265     1.0000 0.21683  0.24307  0.79638  Biso   1.000  C
  H228     1.0000 0.26686  0.33092  0.76891  Biso   1.000  H
  C266     1.0000 0.21961  0.85138  0.89599  Biso   1.000  C
  C267     1.0000 0.14145  0.73500  0.88351  Biso   1.000  C
  H229     1.0000 0.14526  0.85892  0.80979  Biso   1.000  H
  C268     1.0000 0.07113  0.95130  0.79270  Biso   1.000  C
  H230     1.0000 0.99105  0.02080  0.76749  Biso   1.000  H
  H231     1.0000 0.39563  0.99447  0.88569  Biso   1.000  H
  C269     1.0000 0.42435  0.91661  0.92860  Biso   1.000  C
  C270     1.0000 0.53865  0.84792  0.92690  Biso   1.000  C
  H232     1.0000 0.58524  0.88381  0.88329  Biso   1.000  H
  N23      1.0000 0.26723  0.23031  0.82681  Biso   1.000  N
  H233     1.0000 0.25835  0.88500  0.89080  Biso   1.000  H
  C271     1.0000 0.18375  0.87350  0.92510  Biso   1.000  C
  C272     1.0000 0.10734  0.76082  0.91180  Biso   1.000  C
  H234     1.0000 0.12574  0.68592  0.86999  Biso   1.000  H
  N24      1.0000 0.08937  0.00019  0.82440  Biso   1.000  N
  H235     1.0000 0.38245  0.92409  0.93949  Biso   1.000  H
  C273     1.0000 0.47842  0.86558  0.94411  Biso   1.000  C
  H236     1.0000 0.57372  0.80802  0.93679  Biso   1.000  H
  H237     1.0000 0.26674  0.18142  0.83779  Biso   1.000  H
  C274     1.0000 0.31841  0.28700  0.84158  Biso   1.000  C
  H238     1.0000 0.19985  0.92032  0.94009  Biso   1.000  H
  C275     1.0000 0.12794  0.82970  0.93160  Biso   1.000  C
  H239     1.0000 0.06793  0.72890  0.91740  Biso   1.000  H
  H240     1.0000 0.13535  0.00572  0.83279  Biso   1.000  H
  C276     1.0000 0.04275  0.04003  0.84339  Biso   1.000  C
  H241     1.0000 0.47573  0.84101  0.96719  Biso   1.000  H
  O35      1.0000 0.32675  0.35619  0.82809  Biso   1.000  O
  C277     1.0000 0.36976  0.25690  0.87370  Biso   1.000  C
  H242     1.0000 0.10232  0.84679  0.95050  Biso   1.000  H
  C278     1.0000 0.07175  0.08672  0.87619  Biso   1.000  C
  O36      1.0000 0.97612  0.03211  0.83260  Biso   1.000  O
  C279     1.0000 0.35661  0.19179  0.89599  Biso   1.000  C
  C280     1.0000 0.43486  0.30371  0.88280  Biso   1.000  C
  C281     1.0000 0.14162  0.09043  0.88990  Biso   1.000  C
  C282     1.0000 0.02155  0.13379  0.89260  Biso   1.000  C
  H243     1.0000 0.31325  0.16062  0.89099  Biso   1.000  H
  C283     1.0000 0.40795  0.17187  0.92619  Biso   1.000  C
  C284     1.0000 0.48442  0.28241  0.91240  Biso   1.000  C
  H244     1.0000 0.44375  0.35022  0.86799  Biso   1.000  H
  H245     1.0000 0.17524  0.05951  0.87859  Biso   1.000  H
  C285     1.0000 0.16615  0.14070  0.92160  Biso   1.000  C
  C286     1.0000 0.04666  0.18149  0.92240  Biso   1.000  C
  H246     1.0000 0.97182  0.13222  0.88310  Biso   1.000  H
  H247     1.0000 0.39885  0.12562  0.94099  Biso   1.000  H
  C287     1.0000 0.47026  0.21517  0.93551  Biso   1.000  C
  H248     1.0000 0.52824  0.31257  0.91751  Biso   1.000  H
  H249     1.0000 0.21562  0.14271  0.93149  Biso   1.000  H
  C288     1.0000 0.11823  0.18482  0.93720  Biso   1.000  C
  H250     1.0000 0.01355  0.21372  0.93348  Biso   1.000  H
  H251     1.0000 0.50313  0.20109  0.95681  Biso   1.000  H
  H252     1.0000 0.13375  0.21812  0.95820  Biso   1.000  H
  C289     1.0000 0.60049  0.86941  0.46931  Biso   1.000  C
  C290     1.0000 0.62136  0.95042  0.44940  Biso   1.000  C
  H253     1.0000 0.55427  0.84830  0.45691  Biso   1.000  H
  H254     1.0000 0.59688  0.88293  0.49471  Biso   1.000  H
  H255     1.0000 0.63726  0.82631  0.46871  Biso   1.000  H
  C291     1.0000 0.60719  0.94332  0.40841  Biso   1.000  C
  H256     1.0000 0.59395  0.99862  0.45699  Biso   1.000  H
  H257     1.0000 0.67286  0.96211  0.45729  Biso   1.000  H
  C292     1.0000 0.64935  0.87249  0.39369  Biso   1.000  C
  C293     1.0000 0.62447  0.02840  0.38940  Biso   1.000  C
  C294     1.0000 0.61598  0.82467  0.36321  Biso   1.000  C
  C295     1.0000 0.71919  0.84968  0.40699  Biso   1.000  C
  C296     1.0000 0.57977  0.05549  0.35840  Biso   1.000  C
  C297     1.0000 0.68237  0.07880  0.40499  Biso   1.000  C
  O37      1.0000 0.54409  0.84623  0.34961  Biso   1.000  O
  C298     1.0000 0.65009  0.76020  0.34780  Biso   1.000  C
  C299     1.0000 0.75625  0.78408  0.39360  Biso   1.000  C
  H258     1.0000 0.74366  0.88129  0.42679  Biso   1.000  H
  O38      1.0000 0.52227  0.01263  0.34149  Biso   1.000  O
  C300     1.0000 0.59105  0.13423  0.34259  Biso   1.000  C
  C301     1.0000 0.69656  0.15798  0.39041  Biso   1.000  C
  H259     1.0000 0.71296  0.05901  0.42610  Biso   1.000  H
  C302     1.0000 0.50999  0.78320  0.32451  Biso   1.000  C
  C303     1.0000 0.61749  0.71740  0.31380  Biso   1.000  C
  C304     1.0000 0.71997  0.74291  0.36329  Biso   1.000  C
  C305     1.0000 0.83264  0.75982  0.41029  Biso   1.000  C
  H260     1.0000 0.51807  0.96751  0.35280  Biso   1.000  H
  C306     1.0000 0.64780  0.18268  0.35960  Biso   1.000  C
  C307     1.0000 0.54640  0.16012  0.30711  Biso   1.000  C
  C308     1.0000 0.75850  0.21259  0.40570  Biso   1.000  C
  N25      1.0000 0.55016  0.76152  0.29679  Biso   1.000  N
  H261     1.0000 0.50197  0.73192  0.33849  Biso   1.000  H
  H262     1.0000 0.46246  0.80437  0.31301  Biso   1.000  H
  H263     1.0000 0.60619  0.65852  0.31940  Biso   1.000  H
  H264     1.0000 0.65210  0.71652  0.29640  Biso   1.000  H
  O39      1.0000 0.75029  0.67681  0.34589  Biso   1.000  O
  C309     1.0000 0.88616  0.81443  0.39259  Biso   1.000  C
  C310     1.0000 0.84806  0.76227  0.45139  Biso   1.000  C
  O40      1.0000 0.66137  0.26199  0.34491  Biso   1.000  O
  N26      1.0000 0.57718  0.23233  0.29190  Biso   1.000  N
  H265     1.0000 0.54346  0.11280  0.28949  Biso   1.000  H
  H266     1.0000 0.49716  0.17357  0.31121  Biso   1.000  H
  C311     1.0000 0.82538  0.18670  0.39049  Biso   1.000  C
  C312     1.0000 0.77116  0.21228  0.44820  Biso   1.000  C
  C313     1.0000 0.55406  0.81700  0.26770  Biso   1.000  C
  H267     1.0000 0.79256  0.66857  0.35630  Biso   1.000  H
  C314     1.0000 0.91579  0.78722  0.36299  Biso   1.000  C
  C315     1.0000 0.90726  0.89141  0.40679  Biso   1.000  C
  H268     1.0000 0.81196  0.72808  0.46139  Biso   1.000  H
  H269     1.0000 0.84408  0.82090  0.45981  Biso   1.000  H
  C316     1.0000 0.92237  0.72903  0.46579  Biso   1.000  C
  C317     1.0000 0.60048  0.29177  0.32060  Biso   1.000  C
  C318     1.0000 0.61728  0.22032  0.26259  Biso   1.000  C
  C319     1.0000 0.84538  0.22868  0.36039  Biso   1.000  C
  C320     1.0000 0.87067  0.12072  0.40469  Biso   1.000  C
  H270     1.0000 0.72557  0.22598  0.45691  Biso   1.000  H
  H271     1.0000 0.78557  0.15509  0.45699  Biso   1.000  H
  C321     1.0000 0.82855  0.27481  0.46469  Biso   1.000  C
  C322     1.0000 0.59199  0.79558  0.23979  Biso   1.000  C
  C323     1.0000 0.51388  0.89292  0.26390  Biso   1.000  C
  O41      1.0000 0.89530  0.70603  0.34991  Biso   1.000  O
  C324     1.0000 0.96078  0.83322  0.34611  Biso   1.000  C
  C325     1.0000 0.95747  0.94319  0.39210  Biso   1.000  C
  H272     1.0000 0.88759  0.91133  0.42731  Biso   1.000  H
  H273     1.0000 0.93007  0.67611  0.45350  Biso   1.000  H
  H274     1.0000 0.92658  0.71922  0.49220  Biso   1.000  H
  H275     1.0000 0.95834  0.77019  0.46109  Biso   1.000  H
  H276     1.0000 0.61270  0.34563  0.30960  Biso   1.000  H
  H277     1.0000 0.56077  0.30258  0.33450  Biso   1.000  H
  C326     1.0000 0.59450  0.16439  0.23400  Biso   1.000  C
  C327     1.0000 0.67910  0.26808  0.25981  Biso   1.000  C
  O42      1.0000 0.80518  0.29341  0.34226  Biso   1.000  O
  C328     1.0000 0.90636  0.20882  0.34559  Biso   1.000  C
  C329     1.0000 0.93317  0.09891  0.39278  Biso   1.000  C
  H278     1.0000 0.85675  0.08867  0.42411  Biso   1.000  H
  H279     1.0000 0.87449  0.25972  0.45729  Biso   1.000  H
  H280     1.0000 0.83317  0.27330  0.49140  Biso   1.000  H
  H281     1.0000 0.81477  0.33149  0.45590  Biso   1.000  H
  H282     1.0000 0.61995  0.74568  0.24189  Biso   1.000  H
  C330     1.0000 0.59001  0.84409  0.20980  Biso   1.000  C
  C331     1.0000 0.51309  0.94112  0.23351  Biso   1.000  C
  H283     1.0000 0.48776  0.91001  0.28259  Biso   1.000  H
  C332     1.0000 0.94046  0.67668  0.32331  Biso   1.000  C
  C333     1.0000 0.98248  0.91221  0.36160  Biso   1.000  C
  C334     1.0000 0.98626  0.80657  0.31200  Biso   1.000  C
  C335     1.0000 0.98356  0.02897  0.40890  Biso   1.000  C
  H284     1.0000 0.55247  0.13203  0.23471  Biso   1.000  H
  C336     1.0000 0.63027  0.15522  0.20579  Biso   1.000  C
  C337     1.0000 0.71280  0.26211  0.23001  Biso   1.000  C
  H285     1.0000 0.69758  0.30510  0.27909  Biso   1.000  H
  H286     1.0000 0.76866  0.30189  0.35209  Biso   1.000  H
  C338     1.0000 0.95128  0.14472  0.36340  Biso   1.000  C
  C339     1.0000 0.92378  0.25419  0.31331  Biso   1.000  C
  H287     1.0000 0.61620  0.82681  0.19120  Biso   1.000  H
  C340     1.0000 0.55108  0.91799  0.20510  Biso   1.000  C
  H288     1.0000 0.48621  0.99170  0.23130  Biso   1.000  H
  N27      1.0000 0.94687  0.73349  0.29580  Biso   1.000  N
  H289     1.0000 0.98889  0.66380  0.33650  Biso   1.000  H
  H290     1.0000 0.91997  0.62383  0.31211  Biso   1.000  H
  O43      1.0000 0.03060  0.95538  0.34371  Biso   1.000  O
  H291     1.0000 0.98039  0.85358  0.29430  Biso   1.000  H
  H292     1.0000 0.03798  0.79281  0.31749  Biso   1.000  H
  C341     1.0000 0.99094  0.02551  0.45109  Biso   1.000  C
  H293     1.0000 0.61476  0.11330  0.18809  Biso   1.000  H
  C342     1.0000 0.68900  0.20442  0.20139  Biso   1.000  C
  H294     1.0000 0.75276  0.29712  0.22829  Biso   1.000  H
  O44      1.0000 0.01528  0.12418  0.35119  Biso   1.000  O
  N28      1.0000 0.98209  0.20970  0.29810  Biso   1.000  N
  H295     1.0000 0.93938  0.31220  0.32030  Biso   1.000  H
  H296     1.0000 0.88059  0.25771  0.29441  Biso   1.000  H
  N29      1.0000 0.55248  0.96581  0.17340  Biso   1.000  N
  C343     1.0000 0.88998  0.74273  0.26699  Biso   1.000  C
  H297     1.0000 0.04076  0.00157  0.35419  Biso   1.000  H
  H298     1.0000 0.94327  0.01741  0.45839  Biso   1.000  H
  H299     1.0000 0.02179  0.97750  0.46049  Biso   1.000  H
  C344     1.0000 0.02418  0.10740  0.46740  Biso   1.000  C
  N30      1.0000 0.72370  0.19142  0.17140  Biso   1.000  N
  C345     1.0000 0.03637  0.18903  0.32601  Biso   1.000  C
  C346     1.0000 0.96220  0.15321  0.26841  Biso   1.000  C
  H300     1.0000 0.59308  0.96632  0.16460  Biso   1.000  H
  C347     1.0000 0.49820  0.01068  0.15510  Biso   1.000  C
  C348     1.0000 0.89690  0.80148  0.23790  Biso   1.000  C
  C349     1.0000 0.82798  0.69660  0.26281  Biso   1.000  C
  H301     1.0000 0.99019  0.15359  0.46120  Biso   1.000  H
  H302     1.0000 0.06824  0.11909  0.45748  Biso   1.000  H
  H303     1.0000 0.03528  0.10199  0.49400  Biso   1.000  H
  H304     1.0000 0.71797  0.14158  0.16089  Biso   1.000  H
  C350     1.0000 0.76561  0.24722  0.15641  Biso   1.000  C
  H305     1.0000 0.05170  0.24031  0.34021  Biso   1.000  H
  H306     1.0000 0.07788  0.16810  0.31539  Biso   1.000  H
  C351     1.0000 0.90881  0.17589  0.24031  Biso   1.000  C
  C352     1.0000 0.99880  0.07717  0.26609  Biso   1.000  C
  O45      1.0000 0.44052  0.01653  0.16701  Biso   1.000  O
  C353     1.0000 0.50851  0.05392  0.12069  Biso   1.000  C
  H307     1.0000 0.93820  0.83611  0.23930  Biso   1.000  H
  C354     1.0000 0.84420  0.80670  0.20860  Biso   1.000  C
  C355     1.0000 0.77507  0.70238  0.23250  Biso   1.000  C
  H308     1.0000 0.82085  0.65871  0.28179  Biso   1.000  H
  O46      1.0000 0.77431  0.32018  0.16851  Biso   1.000  O
  C356     1.0000 0.80088  0.21888  0.12519  Biso   1.000  C
  H309     1.0000 0.88357  0.22698  0.24189  Biso   1.000  H
  C357     1.0000 0.89138  0.12468  0.20950  Biso   1.000  C
  C358     1.0000 0.98186  0.02872  0.23479  Biso   1.000  C
  H310     1.0000 0.03440  0.05920  0.28559  Biso   1.000  H
  C359     1.0000 0.56761  0.04267  0.10359  Biso   1.000  C
  C360     1.0000 0.45581  0.10821  0.10531  Biso   1.000  C
  H311     1.0000 0.84929  0.84711  0.19041  Biso   1.000  H
  C361     1.0000 0.78311  0.75693  0.20360  Biso   1.000  C
  H312     1.0000 0.73309  0.66908  0.23110  Biso   1.000  H
  C362     1.0000 0.78027  0.14862  0.10400  Biso   1.000  C
  C363     1.0000 0.85850  0.26500  0.11651  Biso   1.000  C
  H313     1.0000 0.85468  0.14108  0.19019  Biso   1.000  H
  C364     1.0000 0.92876  0.04870  0.20729  Biso   1.000  C
  H314     1.0000 0.00889  0.97920  0.23250  Biso   1.000  H
  H315     1.0000 0.60431  0.00553  0.11430  Biso   1.000  H
  C365     1.0000 0.57559  0.08339  0.07139  Biso   1.000  C
  C366     1.0000 0.46130  0.15208  0.07311  Biso   1.000  C
  H316     1.0000 0.41470  0.11619  0.11670  Biso   1.000  H
  N31      1.0000 0.73267  0.76969  0.17321  Biso   1.000  N
  H317     1.0000 0.74159  0.11500  0.10919  Biso   1.000  H
  C367     1.0000 0.81620  0.12650  0.07489  Biso   1.000  C
  C368     1.0000 0.89260  0.23918  0.08819  Biso   1.000  C
  H318     1.0000 0.87420  0.31408  0.13000  Biso   1.000  H
  N32      1.0000 0.91059  0.99981  0.17561  Biso   1.000  N
  H319     1.0000 0.61749  0.07591  0.06049  Biso   1.000  H
  C369     1.0000 0.52148  0.13442  0.05591  Biso   1.000  C
  H320     1.0000 0.42622  0.19198  0.06320  Biso   1.000  H
  H321     1.0000 0.73320  0.81858  0.16220  Biso   1.000  H
  C370     1.0000 0.68147  0.71300  0.15840  Biso   1.000  C
  H322     1.0000 0.80009  0.07968  0.05989  Biso   1.000  H
  C371     1.0000 0.87200  0.17030  0.06839  Biso   1.000  C
  H323     1.0000 0.93201  0.27110  0.08259  Biso   1.000  H
  H324     1.0000 0.86459  0.99428  0.16720  Biso   1.000  H
  C372     1.0000 0.95719  0.95997  0.15660  Biso   1.000  C
  H325     1.0000 0.52421  0.15899  0.03280  Biso   1.000  H
  O47      1.0000 0.67319  0.64381  0.17189  Biso   1.000  O
  C373     1.0000 0.63019  0.74310  0.12631  Biso   1.000  C
  H326     1.0000 0.89757  0.15321  0.04949  Biso   1.000  H
  C374     1.0000 0.92819  0.91328  0.12380  Biso   1.000  C
  O48      1.0000 0.02377  0.96789  0.16739  Biso   1.000  O
  C375     1.0000 0.64328  0.80821  0.10400  Biso   1.000  C
  C376     1.0000 0.56508  0.69629  0.11719  Biso   1.000  C
  C377     1.0000 0.85827  0.90957  0.11009  Biso   1.000  C
  C378     1.0000 0.97840  0.86621  0.10739  Biso   1.000  C
  H327     1.0000 0.68669  0.83938  0.10900  Biso   1.000  H
  C379     1.0000 0.59200  0.82813  0.07379  Biso   1.000  C
  C380     1.0000 0.51547  0.71759  0.08761  Biso   1.000  C
  H328     1.0000 0.55619  0.64978  0.13199  Biso   1.000  H
  H329     1.0000 0.82470  0.94049  0.12140  Biso   1.000  H
  C381     1.0000 0.83380  0.85930  0.07841  Biso   1.000  C
  C382     1.0000 0.95328  0.81851  0.07759  Biso   1.000  C
  H330     1.0000 0.02807  0.86778  0.11689  Biso   1.000  H
  H331     1.0000 0.60109  0.87438  0.05899  Biso   1.000  H
  C383     1.0000 0.52969  0.78483  0.06451  Biso   1.000  C
  H332     1.0000 0.47171  0.68743  0.08251  Biso   1.000  H
  H333     1.0000 0.78432  0.85729  0.06850  Biso   1.000  H
  C384     1.0000 0.88171  0.81518  0.06279  Biso   1.000  C
  H334     1.0000 0.98639  0.78628  0.06650  Biso   1.000  H
  H335     1.0000 0.49682  0.79891  0.04321  Biso   1.000  H
  H336     1.0000 0.86620  0.78188  0.04181  Biso   1.000  H
