data_image0
_cell_length_a       23.808
_cell_length_b       23.808
_cell_length_c       23.14
_cell_angle_alpha    90
_cell_angle_beta     90
_cell_angle_gamma    90

_symmetry_space_group_name_H-M    "P 1"
_symmetry_int_tables_number       1

loop_
  _symmetry_equiv_pos_as_xyz
  'x, y, z'

loop_
  _atom_site_label
  _atom_site_occupancy
  _atom_site_fract_x
  _atom_site_fract_y
  _atom_site_fract_z
  _atom_site_thermal_displace_type
  _atom_site_B_iso_or_equiv
  _atom_site_type_symbol
  O1       1.0000 0.30061  0.21728  0.50929  Biso   1.000  O
  O2       1.0000 0.34858  0.22329  0.48531  Biso   1.000  O
  C1       1.0000 0.34312  0.18128  0.52770  Biso   1.000  C
  H1       1.0000 0.30368  0.17179  0.53228  Biso   1.000  H
  H2       1.0000 0.37290  0.18049  0.49918  Biso   1.000  H
  C2       1.0000 0.36660  0.20081  0.58539  Biso   1.000  C
  H3       1.0000 0.32829  0.14348  0.53159  Biso   1.000  H
  H4       1.0000 0.36290  0.14781  0.51530  Biso   1.000  H
  C3       1.0000 0.32388  0.20081  0.63258  Biso   1.000  C
  H5       1.0000 0.39709  0.17532  0.59650  Biso   1.000  H
  O3       1.0000 0.38941  0.25550  0.57779  Biso   1.000  O
  C4       1.0000 0.35349  0.21900  0.68850  Biso   1.000  C
  H6       1.0000 0.29330  0.22690  0.62329  Biso   1.000  H
  O4       1.0000 0.30200  0.14520  0.64149  Biso   1.000  O
  C5       1.0000 0.41650  0.27650  0.62662  Biso   1.000  C
  C6       1.0000 0.37710  0.27751  0.67701  Biso   1.000  C
  H7       1.0000 0.38382  0.19279  0.69810  Biso   1.000  H
  O5       1.0000 0.31141  0.21938  0.73362  Biso   1.000  O
  C7       1.0000 0.24311  0.13600  0.62718  Biso   1.000  C
  O6       1.0000 0.46350  0.24391  0.64309  Biso   1.000  O
  H8       1.0000 0.42902  0.31489  0.61858  Biso   1.000  H
  H9       1.0000 0.34560  0.30221  0.66698  Biso   1.000  H
  O7       1.0000 0.40222  0.29860  0.72869  Biso   1.000  O
  C8       1.0000 0.21472  0.11038  0.67839  Biso   1.000  C
  H10      1.0000 0.22560  0.17251  0.61932  Biso   1.000  H
  O8       1.0000 0.23942  0.10370  0.57831  Biso   1.000  O
  C9       1.0000 0.51718  0.26810  0.63289  Biso   1.000  C
  C10      1.0000 0.23740  0.04998  0.68751  Biso   1.000  C
  H11      1.0000 0.17469  0.10732  0.66932  Biso   1.000  H
  O9       1.0000 0.21959  0.14281  0.72999  Biso   1.000  O
  C11      1.0000 0.26201  0.04679  0.58479  Biso   1.000  C
  C12      1.0000 0.54998  0.26260  0.68751  Biso   1.000  C
  H12      1.0000 0.51289  0.30788  0.62299  Biso   1.000  H
  C13      1.0000 0.54679  0.23799  0.58479  Biso   1.000  C
  C14      1.0000 0.23190  0.01718  0.63289  Biso   1.000  C
  H13      1.0000 0.27701  0.05150  0.69918  Biso   1.000  H
  O10      1.0000 0.20468  0.02188  0.73198  Biso   1.000  O
  H14      1.0000 0.30158  0.05011  0.59581  Biso   1.000  H
  C15      1.0000 0.25941  0.01651  0.52610  Biso   1.000  C
  C16      1.0000 0.61038  0.28528  0.67839  Biso   1.000  C
  H15      1.0000 0.55150  0.22299  0.69918  Biso   1.000  H
  O11      1.0000 0.52188  0.29532  0.73198  Biso   1.000  O
  H16      1.0000 0.55011  0.19842  0.59581  Biso   1.000  H
  C17      1.0000 0.51651  0.24059  0.52610  Biso   1.000  C
  O12      1.0000 0.60370  0.26058  0.57831  Biso   1.000  O
  H17      1.0000 0.19212  0.01289  0.62299  Biso   1.000  H
  O13      1.0000 0.25609  0.96350  0.64309  Biso   1.000  O
  H18      1.0000 0.28360  0.03562  0.49862  Biso   1.000  H
  O14      1.0000 0.20409  0.01600  0.50501  Biso   1.000  O
  O15      1.0000 0.26731  0.05532  0.48111  Biso   1.000  O
  H19      1.0000 0.27268  0.97828  0.53038  Biso   1.000  H
  H20      1.0000 0.28818  0.98790  0.52429  Biso   1.000  H
  H21      1.0000 0.22312  0.99840  0.52169  Biso   1.000  H
  C18      1.0000 0.63600  0.25689  0.62718  Biso   1.000  C
  H22      1.0000 0.60732  0.32531  0.66932  Biso   1.000  H
  O16      1.0000 0.64281  0.28041  0.72999  Biso   1.000  O
  H23      1.0000 0.53562  0.21640  0.49862  Biso   1.000  H
  H24      1.0000 0.47828  0.22732  0.53038  Biso   1.000  H
  O17      1.0000 0.51600  0.29591  0.50501  Biso   1.000  O
  H25      1.0000 0.48790  0.21182  0.52429  Biso   1.000  H
  H26      1.0000 0.49840  0.27688  0.52169  Biso   1.000  H
  O18      1.0000 0.55532  0.23269  0.48111  Biso   1.000  O
  C19      1.0000 0.22350  0.91650  0.62662  Biso   1.000  C
  H27      1.0000 0.67251  0.27440  0.61932  Biso   1.000  H
  O19      1.0000 0.64520  0.19800  0.64149  Biso   1.000  O
  C20      1.0000 0.22249  0.87710  0.67701  Biso   1.000  C
  H28      1.0000 0.18511  0.92902  0.61858  Biso   1.000  H
  O20      1.0000 0.24450  0.88941  0.57779  Biso   1.000  O
  C21      1.0000 0.70081  0.17612  0.63258  Biso   1.000  C
  C22      1.0000 0.28100  0.85349  0.68850  Biso   1.000  C
  H29      1.0000 0.19779  0.84560  0.66698  Biso   1.000  H
  O21      1.0000 0.20140  0.90222  0.72869  Biso   1.000  O
  C23      1.0000 0.29919  0.86660  0.58539  Biso   1.000  C
  C24      1.0000 0.71900  0.14651  0.68850  Biso   1.000  C
  C25      1.0000 0.70081  0.13340  0.58539  Biso   1.000  C
  H30      1.0000 0.72690  0.20670  0.62329  Biso   1.000  H
  C26      1.0000 0.29919  0.82388  0.63258  Biso   1.000  C
  H31      1.0000 0.30721  0.88382  0.69810  Biso   1.000  H
  O22      1.0000 0.28062  0.81141  0.73362  Biso   1.000  O
  H32      1.0000 0.32468  0.89709  0.59650  Biso   1.000  H
  C27      1.0000 0.31872  0.84312  0.52770  Biso   1.000  C
  C28      1.0000 0.77751  0.12290  0.67701  Biso   1.000  C
  H33      1.0000 0.69279  0.11618  0.69810  Biso   1.000  H
  O23      1.0000 0.71938  0.18859  0.73362  Biso   1.000  O
  O24      1.0000 0.75550  0.11059  0.57779  Biso   1.000  O
  H34      1.0000 0.67532  0.10291  0.59650  Biso   1.000  H
  C29      1.0000 0.68128  0.15688  0.52770  Biso   1.000  C
  O25      1.0000 0.35480  0.80200  0.64149  Biso   1.000  O
  H35      1.0000 0.27310  0.79330  0.62329  Biso   1.000  H
  H36      1.0000 0.31951  0.87290  0.49918  Biso   1.000  H
  H37      1.0000 0.35652  0.82829  0.53159  Biso   1.000  H
  O26      1.0000 0.28272  0.80061  0.50929  Biso   1.000  O
  H38      1.0000 0.35219  0.86290  0.51530  Biso   1.000  H
  H39      1.0000 0.32821  0.80368  0.53228  Biso   1.000  H
  O27      1.0000 0.27671  0.84858  0.48531  Biso   1.000  O
  C30      1.0000 0.77650  0.08350  0.62662  Biso   1.000  C
  H40      1.0000 0.80221  0.15440  0.66698  Biso   1.000  H
  O28      1.0000 0.79860  0.09778  0.72869  Biso   1.000  O
  H41      1.0000 0.68049  0.12710  0.49918  Biso   1.000  H
  H42      1.0000 0.64348  0.17171  0.53159  Biso   1.000  H
  O29      1.0000 0.71728  0.19939  0.50929  Biso   1.000  O
  H43      1.0000 0.64781  0.13710  0.51530  Biso   1.000  H
  H44      1.0000 0.67179  0.19632  0.53228  Biso   1.000  H
  O30      1.0000 0.72329  0.15142  0.48531  Biso   1.000  O
  C31      1.0000 0.36400  0.74311  0.62718  Biso   1.000  C
  O31      1.0000 0.74391  0.03650  0.64309  Biso   1.000  O
  H45      1.0000 0.81489  0.07098  0.61858  Biso   1.000  H
  C32      1.0000 0.38962  0.71472  0.67839  Biso   1.000  C
  H46      1.0000 0.32749  0.72560  0.61932  Biso   1.000  H
  O32      1.0000 0.39630  0.73942  0.57831  Biso   1.000  O
  C33      1.0000 0.76810  0.98282  0.63289  Biso   1.000  C
  C34      1.0000 0.45002  0.73740  0.68751  Biso   1.000  C
  H47      1.0000 0.39268  0.67469  0.66932  Biso   1.000  H
  O33      1.0000 0.35719  0.71959  0.72999  Biso   1.000  O
  C35      1.0000 0.45321  0.76201  0.58479  Biso   1.000  C
  C36      1.0000 0.76260  0.95002  0.68751  Biso   1.000  C
  C37      1.0000 0.73799  0.95321  0.58479  Biso   1.000  C
  H48      1.0000 0.80788  0.98711  0.62299  Biso   1.000  H
  C38      1.0000 0.48282  0.73190  0.63289  Biso   1.000  C
  H49      1.0000 0.44850  0.77701  0.69918  Biso   1.000  H
  O34      1.0000 0.47812  0.70468  0.73198  Biso   1.000  O
  H50      1.0000 0.44989  0.80158  0.59581  Biso   1.000  H
  C39      1.0000 0.48349  0.75941  0.52610  Biso   1.000  C
  C40      1.0000 0.78528  0.88962  0.67839  Biso   1.000  C
  H51      1.0000 0.72299  0.94850  0.69918  Biso   1.000  H
  O35      1.0000 0.79532  0.97812  0.73198  Biso   1.000  O
  O36      1.0000 0.76058  0.89630  0.57831  Biso   1.000  O
  H52      1.0000 0.69842  0.94989  0.59581  Biso   1.000  H
  C41      1.0000 0.74059  0.98349  0.52610  Biso   1.000  C
  O37      1.0000 0.53650  0.75609  0.64309  Biso   1.000  O
  H53      1.0000 0.48711  0.69212  0.62299  Biso   1.000  H
  H54      1.0000 0.46438  0.78360  0.49862  Biso   1.000  H
  H55      1.0000 0.52172  0.77268  0.53038  Biso   1.000  H
  O38      1.0000 0.48400  0.70409  0.50501  Biso   1.000  O
  H56      1.0000 0.51210  0.78818  0.52429  Biso   1.000  H
  H57      1.0000 0.50160  0.72312  0.52169  Biso   1.000  H
  O39      1.0000 0.44468  0.76731  0.48111  Biso   1.000  O
  C42      1.0000 0.75689  0.86400  0.62718  Biso   1.000  C
  H58      1.0000 0.82531  0.89268  0.66932  Biso   1.000  H
  O40      1.0000 0.78041  0.85719  0.72999  Biso   1.000  O
  H59      1.0000 0.72732  0.02172  0.53038  Biso   1.000  H
  H60      1.0000 0.71182  0.01210  0.52429  Biso   1.000  H
  H61      1.0000 0.77688  0.00160  0.52169  Biso   1.000  H
  H62      1.0000 0.71640  0.96438  0.49862  Biso   1.000  H
  O41      1.0000 0.79591  0.98400  0.50501  Biso   1.000  O
  O42      1.0000 0.73269  0.94468  0.48111  Biso   1.000  O
  C43      1.0000 0.58350  0.72350  0.62662  Biso   1.000  C
  H63      1.0000 0.77440  0.82749  0.61932  Biso   1.000  H
  O43      1.0000 0.69800  0.85480  0.64149  Biso   1.000  O
  C44      1.0000 0.62290  0.72249  0.67701  Biso   1.000  C
  H64      1.0000 0.57098  0.68511  0.61858  Biso   1.000  H
  O44      1.0000 0.61059  0.74450  0.57779  Biso   1.000  O
  C45      1.0000 0.67612  0.79919  0.63258  Biso   1.000  C
  C46      1.0000 0.64651  0.78100  0.68850  Biso   1.000  C
  H65      1.0000 0.65440  0.69779  0.66698  Biso   1.000  H
  O45      1.0000 0.59778  0.70140  0.72869  Biso   1.000  O
  C47      1.0000 0.63340  0.79919  0.58539  Biso   1.000  C
  H66      1.0000 0.70670  0.77310  0.62329  Biso   1.000  H
  H67      1.0000 0.61618  0.80721  0.69810  Biso   1.000  H
  O46      1.0000 0.68859  0.78062  0.73362  Biso   1.000  O
  H68      1.0000 0.60291  0.82468  0.59650  Biso   1.000  H
  C48      1.0000 0.65688  0.81872  0.52770  Biso   1.000  C
  H69      1.0000 0.62710  0.81951  0.49918  Biso   1.000  H
  H70      1.0000 0.67171  0.85652  0.53159  Biso   1.000  H
  O47      1.0000 0.69939  0.78272  0.50929  Biso   1.000  O
  H71      1.0000 0.63710  0.85219  0.51530  Biso   1.000  H
  H72      1.0000 0.69632  0.82821  0.53228  Biso   1.000  H
  O48      1.0000 0.65142  0.77671  0.48531  Biso   1.000  O
  O49      1.0000 0.30061  0.21728  0.50929  Biso   1.000  O
  C49      1.0000 0.34312  0.18128  0.52770  Biso   1.000  C
  H73      1.0000 0.30368  0.17179  0.53228  Biso   1.000  H
  O50      1.0000 0.34858  0.22329  0.48531  Biso   1.000  O
  C50      1.0000 0.36660  0.20081  0.58539  Biso   1.000  C
  H74      1.0000 0.37290  0.18049  0.49918  Biso   1.000  H
  H75      1.0000 0.32829  0.14348  0.53159  Biso   1.000  H
  H76      1.0000 0.36290  0.14781  0.51530  Biso   1.000  H
  C51      1.0000 0.32388  0.20081  0.63258  Biso   1.000  C
  H77      1.0000 0.39709  0.17532  0.59650  Biso   1.000  H
  O51      1.0000 0.38941  0.25550  0.57779  Biso   1.000  O
  C52      1.0000 0.35349  0.21900  0.68850  Biso   1.000  C
  H78      1.0000 0.29330  0.22690  0.62329  Biso   1.000  H
  O52      1.0000 0.30200  0.14520  0.64149  Biso   1.000  O
  C53      1.0000 0.41650  0.27650  0.62662  Biso   1.000  C
  C54      1.0000 0.37710  0.27751  0.67701  Biso   1.000  C
  H79      1.0000 0.38382  0.19279  0.69810  Biso   1.000  H
  O53      1.0000 0.31141  0.21938  0.73362  Biso   1.000  O
  C55      1.0000 0.24311  0.13600  0.62718  Biso   1.000  C
  O54      1.0000 0.46350  0.24391  0.64309  Biso   1.000  O
  H80      1.0000 0.42902  0.31489  0.61858  Biso   1.000  H
  H81      1.0000 0.34560  0.30221  0.66698  Biso   1.000  H
  O55      1.0000 0.40222  0.29860  0.72869  Biso   1.000  O
  C56      1.0000 0.21472  0.11038  0.67839  Biso   1.000  C
  H82      1.0000 0.22560  0.17251  0.61932  Biso   1.000  H
  O56      1.0000 0.23942  0.10370  0.57831  Biso   1.000  O
  C57      1.0000 0.51718  0.26810  0.63289  Biso   1.000  C
  C58      1.0000 0.23740  0.04998  0.68751  Biso   1.000  C
  H83      1.0000 0.17469  0.10732  0.66932  Biso   1.000  H
  O57      1.0000 0.21959  0.14281  0.72999  Biso   1.000  O
  C59      1.0000 0.26201  0.04679  0.58479  Biso   1.000  C
  C60      1.0000 0.54998  0.26260  0.68751  Biso   1.000  C
  H84      1.0000 0.51289  0.30788  0.62299  Biso   1.000  H
  C61      1.0000 0.54679  0.23799  0.58479  Biso   1.000  C
  C62      1.0000 0.23190  0.01718  0.63289  Biso   1.000  C
  H85      1.0000 0.27701  0.05150  0.69918  Biso   1.000  H
  O58      1.0000 0.20468  0.02188  0.73198  Biso   1.000  O
  H86      1.0000 0.30158  0.05011  0.59581  Biso   1.000  H
  C63      1.0000 0.25941  0.01651  0.52610  Biso   1.000  C
  C64      1.0000 0.61038  0.28528  0.67839  Biso   1.000  C
  H87      1.0000 0.55150  0.22299  0.69918  Biso   1.000  H
  O59      1.0000 0.52188  0.29532  0.73198  Biso   1.000  O
  H88      1.0000 0.55011  0.19842  0.59581  Biso   1.000  H
  C65      1.0000 0.51651  0.24059  0.52610  Biso   1.000  C
  O60      1.0000 0.60370  0.26058  0.57831  Biso   1.000  O
  H89      1.0000 0.19212  0.01289  0.62299  Biso   1.000  H
  O61      1.0000 0.25609  0.96350  0.64309  Biso   1.000  O
  H90      1.0000 0.28360  0.03562  0.49862  Biso   1.000  H
  O62      1.0000 0.20409  0.01600  0.50501  Biso   1.000  O
  H91      1.0000 0.27268  0.97828  0.53038  Biso   1.000  H
  H92      1.0000 0.28818  0.98790  0.52429  Biso   1.000  H
  H93      1.0000 0.22312  0.99840  0.52169  Biso   1.000  H
  O63      1.0000 0.26731  0.05532  0.48111  Biso   1.000  O
  C66      1.0000 0.63600  0.25689  0.62718  Biso   1.000  C
  H94      1.0000 0.60732  0.32531  0.66932  Biso   1.000  H
  O64      1.0000 0.64281  0.28041  0.72999  Biso   1.000  O
  H95      1.0000 0.53562  0.21640  0.49862  Biso   1.000  H
  H96      1.0000 0.47828  0.22732  0.53038  Biso   1.000  H
  O65      1.0000 0.51600  0.29591  0.50501  Biso   1.000  O
  H97      1.0000 0.48790  0.21182  0.52429  Biso   1.000  H
  H98      1.0000 0.49840  0.27688  0.52169  Biso   1.000  H
  O66      1.0000 0.55532  0.23269  0.48111  Biso   1.000  O
  C67      1.0000 0.22350  0.91650  0.62662  Biso   1.000  C
  H99      1.0000 0.67251  0.27440  0.61932  Biso   1.000  H
  O67      1.0000 0.64520  0.19800  0.64149  Biso   1.000  O
  C68      1.0000 0.22249  0.87710  0.67701  Biso   1.000  C
  H100     1.0000 0.18511  0.92902  0.61858  Biso   1.000  H
  O68      1.0000 0.24450  0.88941  0.57779  Biso   1.000  O
  C69      1.0000 0.70081  0.17612  0.63258  Biso   1.000  C
  C70      1.0000 0.28100  0.85349  0.68850  Biso   1.000  C
  H101     1.0000 0.19779  0.84560  0.66698  Biso   1.000  H
  O69      1.0000 0.20140  0.90222  0.72869  Biso   1.000  O
  C71      1.0000 0.29919  0.86660  0.58539  Biso   1.000  C
  C72      1.0000 0.71900  0.14651  0.68850  Biso   1.000  C
  C73      1.0000 0.70081  0.13340  0.58539  Biso   1.000  C
  H102     1.0000 0.72690  0.20670  0.62329  Biso   1.000  H
  C74      1.0000 0.29919  0.82388  0.63258  Biso   1.000  C
  H103     1.0000 0.30721  0.88382  0.69810  Biso   1.000  H
  O70      1.0000 0.28062  0.81141  0.73362  Biso   1.000  O
  H104     1.0000 0.32468  0.89709  0.59650  Biso   1.000  H
  C75      1.0000 0.31872  0.84312  0.52770  Biso   1.000  C
  C76      1.0000 0.77751  0.12290  0.67701  Biso   1.000  C
  H105     1.0000 0.69279  0.11618  0.69810  Biso   1.000  H
  O71      1.0000 0.71938  0.18859  0.73362  Biso   1.000  O
  O72      1.0000 0.75550  0.11059  0.57779  Biso   1.000  O
  H106     1.0000 0.67532  0.10291  0.59650  Biso   1.000  H
  C77      1.0000 0.68128  0.15688  0.52770  Biso   1.000  C
  O73      1.0000 0.35480  0.80200  0.64149  Biso   1.000  O
  H107     1.0000 0.27310  0.79330  0.62329  Biso   1.000  H
  H108     1.0000 0.31951  0.87290  0.49918  Biso   1.000  H
  H109     1.0000 0.35652  0.82829  0.53159  Biso   1.000  H
  O74      1.0000 0.28272  0.80061  0.50929  Biso   1.000  O
  H110     1.0000 0.35219  0.86290  0.51530  Biso   1.000  H
  H111     1.0000 0.32821  0.80368  0.53228  Biso   1.000  H
  O75      1.0000 0.27671  0.84858  0.48531  Biso   1.000  O
  C78      1.0000 0.77650  0.08350  0.62662  Biso   1.000  C
  H112     1.0000 0.80221  0.15440  0.66698  Biso   1.000  H
  O76      1.0000 0.79860  0.09778  0.72869  Biso   1.000  O
  H113     1.0000 0.68049  0.12710  0.49918  Biso   1.000  H
  H114     1.0000 0.64348  0.17171  0.53159  Biso   1.000  H
  O77      1.0000 0.71728  0.19939  0.50929  Biso   1.000  O
  H115     1.0000 0.64781  0.13710  0.51530  Biso   1.000  H
  H116     1.0000 0.67179  0.19632  0.53228  Biso   1.000  H
  O78      1.0000 0.72329  0.15142  0.48531  Biso   1.000  O
  C79      1.0000 0.36400  0.74311  0.62718  Biso   1.000  C
  O79      1.0000 0.74391  0.03650  0.64309  Biso   1.000  O
  H117     1.0000 0.81489  0.07098  0.61858  Biso   1.000  H
  C80      1.0000 0.38962  0.71472  0.67839  Biso   1.000  C
  H118     1.0000 0.32749  0.72560  0.61932  Biso   1.000  H
  O80      1.0000 0.39630  0.73942  0.57831  Biso   1.000  O
  C81      1.0000 0.76810  0.98282  0.63289  Biso   1.000  C
  C82      1.0000 0.45002  0.73740  0.68751  Biso   1.000  C
  H119     1.0000 0.39268  0.67469  0.66932  Biso   1.000  H
  O81      1.0000 0.35719  0.71959  0.72999  Biso   1.000  O
  C83      1.0000 0.45321  0.76201  0.58479  Biso   1.000  C
  C84      1.0000 0.76260  0.95002  0.68751  Biso   1.000  C
  C85      1.0000 0.73799  0.95321  0.58479  Biso   1.000  C
  H120     1.0000 0.80788  0.98711  0.62299  Biso   1.000  H
  C86      1.0000 0.48282  0.73190  0.63289  Biso   1.000  C
  H121     1.0000 0.44850  0.77701  0.69918  Biso   1.000  H
  O82      1.0000 0.47812  0.70468  0.73198  Biso   1.000  O
  H122     1.0000 0.44989  0.80158  0.59581  Biso   1.000  H
  C87      1.0000 0.48349  0.75941  0.52610  Biso   1.000  C
  C88      1.0000 0.78528  0.88962  0.67839  Biso   1.000  C
  H123     1.0000 0.72299  0.94850  0.69918  Biso   1.000  H
  O83      1.0000 0.79532  0.97812  0.73198  Biso   1.000  O
  O84      1.0000 0.76058  0.89630  0.57831  Biso   1.000  O
  H124     1.0000 0.69842  0.94989  0.59581  Biso   1.000  H
  C89      1.0000 0.74059  0.98349  0.52610  Biso   1.000  C
  O85      1.0000 0.53650  0.75609  0.64309  Biso   1.000  O
  H125     1.0000 0.48711  0.69212  0.62299  Biso   1.000  H
  H126     1.0000 0.46438  0.78360  0.49862  Biso   1.000  H
  H127     1.0000 0.52172  0.77268  0.53038  Biso   1.000  H
  O86      1.0000 0.48400  0.70409  0.50501  Biso   1.000  O
  H128     1.0000 0.51210  0.78818  0.52429  Biso   1.000  H
  H129     1.0000 0.50160  0.72312  0.52169  Biso   1.000  H
  O87      1.0000 0.44468  0.76731  0.48111  Biso   1.000  O
  C90      1.0000 0.75689  0.86400  0.62718  Biso   1.000  C
  H130     1.0000 0.82531  0.89268  0.66932  Biso   1.000  H
  O88      1.0000 0.78041  0.85719  0.72999  Biso   1.000  O
  H131     1.0000 0.72732  0.02172  0.53038  Biso   1.000  H
  H132     1.0000 0.71640  0.96438  0.49862  Biso   1.000  H
  O89      1.0000 0.79591  0.98400  0.50501  Biso   1.000  O
  O90      1.0000 0.73269  0.94468  0.48111  Biso   1.000  O
  H133     1.0000 0.71182  0.01210  0.52429  Biso   1.000  H
  H134     1.0000 0.77688  0.00160  0.52169  Biso   1.000  H
  C91      1.0000 0.58350  0.72350  0.62662  Biso   1.000  C
  H135     1.0000 0.77440  0.82749  0.61932  Biso   1.000  H
  O91      1.0000 0.69800  0.85480  0.64149  Biso   1.000  O
  C92      1.0000 0.62290  0.72249  0.67701  Biso   1.000  C
  H136     1.0000 0.57098  0.68511  0.61858  Biso   1.000  H
  O92      1.0000 0.61059  0.74450  0.57779  Biso   1.000  O
  C93      1.0000 0.67612  0.79919  0.63258  Biso   1.000  C
  C94      1.0000 0.64651  0.78100  0.68850  Biso   1.000  C
  H137     1.0000 0.65440  0.69779  0.66698  Biso   1.000  H
  O93      1.0000 0.59778  0.70140  0.72869  Biso   1.000  O
  C95      1.0000 0.63340  0.79919  0.58539  Biso   1.000  C
  H138     1.0000 0.70670  0.77310  0.62329  Biso   1.000  H
  H139     1.0000 0.61618  0.80721  0.69810  Biso   1.000  H
  O94      1.0000 0.68859  0.78062  0.73362  Biso   1.000  O
  H140     1.0000 0.60291  0.82468  0.59650  Biso   1.000  H
  C96      1.0000 0.65688  0.81872  0.52770  Biso   1.000  C
  H141     1.0000 0.62710  0.81951  0.49918  Biso   1.000  H
  H142     1.0000 0.67171  0.85652  0.53159  Biso   1.000  H
  O95      1.0000 0.69939  0.78272  0.50929  Biso   1.000  O
  H143     1.0000 0.63710  0.85219  0.51530  Biso   1.000  H
  H144     1.0000 0.69632  0.82821  0.53228  Biso   1.000  H
  O96      1.0000 0.65142  0.77671  0.48531  Biso   1.000  O
  O97      1.0000 0.21728  0.30061  0.49071  Biso   1.000  O
  C97      1.0000 0.18128  0.34312  0.47230  Biso   1.000  C
  H145     1.0000 0.17179  0.30368  0.46772  Biso   1.000  H
  O98      1.0000 0.22329  0.34858  0.51469  Biso   1.000  O
  C98      1.0000 0.20081  0.36660  0.41461  Biso   1.000  C
  H146     1.0000 0.18049  0.37290  0.50082  Biso   1.000  H
  H147     1.0000 0.14348  0.32829  0.46841  Biso   1.000  H
  H148     1.0000 0.14781  0.36290  0.48470  Biso   1.000  H
  C99      1.0000 0.20081  0.32388  0.36742  Biso   1.000  C
  O99      1.0000 0.25550  0.38941  0.42221  Biso   1.000  O
  H149     1.0000 0.17532  0.39709  0.40350  Biso   1.000  H
  C100     1.0000 0.21900  0.35349  0.31150  Biso   1.000  C
  O100     1.0000 0.14520  0.30200  0.35851  Biso   1.000  O
  H150     1.0000 0.22690  0.29330  0.37671  Biso   1.000  H
  C101     1.0000 0.27650  0.41650  0.37338  Biso   1.000  C
  O101     1.0000 0.21938  0.31141  0.26638  Biso   1.000  O
  C102     1.0000 0.27751  0.37710  0.32299  Biso   1.000  C
  H151     1.0000 0.19279  0.38382  0.30190  Biso   1.000  H
  C103     1.0000 0.13600  0.24311  0.37282  Biso   1.000  C
  O102     1.0000 0.24391  0.46350  0.35691  Biso   1.000  O
  H152     1.0000 0.31489  0.42902  0.38142  Biso   1.000  H
  H153     1.0000 0.30221  0.34560  0.33302  Biso   1.000  H
  O103     1.0000 0.29860  0.40222  0.27131  Biso   1.000  O
  C104     1.0000 0.11038  0.21472  0.32161  Biso   1.000  C
  H154     1.0000 0.17251  0.22560  0.38068  Biso   1.000  H
  O104     1.0000 0.10370  0.23942  0.42169  Biso   1.000  O
  C105     1.0000 0.26810  0.51718  0.36711  Biso   1.000  C
  C106     1.0000 0.04998  0.23740  0.31249  Biso   1.000  C
  H155     1.0000 0.10732  0.17469  0.33068  Biso   1.000  H
  O105     1.0000 0.14281  0.21959  0.27001  Biso   1.000  O
  C107     1.0000 0.04679  0.26201  0.41521  Biso   1.000  C
  C108     1.0000 0.26260  0.54998  0.31249  Biso   1.000  C
  C109     1.0000 0.23799  0.54679  0.41521  Biso   1.000  C
  H156     1.0000 0.30788  0.51289  0.37701  Biso   1.000  H
  C110     1.0000 0.01718  0.23190  0.36711  Biso   1.000  C
  H157     1.0000 0.05150  0.27701  0.30082  Biso   1.000  H
  O106     1.0000 0.02188  0.20468  0.26802  Biso   1.000  O
  H158     1.0000 0.05011  0.30158  0.40419  Biso   1.000  H
  C111     1.0000 0.01651  0.25941  0.47390  Biso   1.000  C
  C112     1.0000 0.28528  0.61038  0.32161  Biso   1.000  C
  H159     1.0000 0.22299  0.55150  0.30082  Biso   1.000  H
  O107     1.0000 0.29532  0.52188  0.26802  Biso   1.000  O
  O108     1.0000 0.26058  0.60370  0.42169  Biso   1.000  O
  H160     1.0000 0.19842  0.55011  0.40419  Biso   1.000  H
  C113     1.0000 0.24059  0.51651  0.47390  Biso   1.000  C
  H161     1.0000 0.01289  0.19212  0.37701  Biso   1.000  H
  O109     1.0000 0.96350  0.25609  0.35691  Biso   1.000  O
  H162     1.0000 0.03562  0.28360  0.50138  Biso   1.000  H
  O110     1.0000 0.01600  0.20409  0.49499  Biso   1.000  O
  O111     1.0000 0.05532  0.26731  0.51889  Biso   1.000  O
  H163     1.0000 0.97828  0.27268  0.46962  Biso   1.000  H
  H164     1.0000 0.98790  0.28818  0.47571  Biso   1.000  H
  H165     1.0000 0.99840  0.22312  0.47831  Biso   1.000  H
  C114     1.0000 0.25689  0.63600  0.37282  Biso   1.000  C
  H166     1.0000 0.32531  0.60732  0.33068  Biso   1.000  H
  O112     1.0000 0.28041  0.64281  0.27001  Biso   1.000  O
  H167     1.0000 0.21640  0.53562  0.50138  Biso   1.000  H
  H168     1.0000 0.22732  0.47828  0.46962  Biso   1.000  H
  O113     1.0000 0.29591  0.51600  0.49499  Biso   1.000  O
  H169     1.0000 0.21182  0.48790  0.47571  Biso   1.000  H
  H170     1.0000 0.27688  0.49840  0.47831  Biso   1.000  H
  O114     1.0000 0.23269  0.55532  0.51889  Biso   1.000  O
  C115     1.0000 0.91650  0.22350  0.37338  Biso   1.000  C
  H171     1.0000 0.27440  0.67251  0.38068  Biso   1.000  H
  O115     1.0000 0.19800  0.64520  0.35851  Biso   1.000  O
  C116     1.0000 0.87710  0.22249  0.32299  Biso   1.000  C
  H172     1.0000 0.92902  0.18511  0.38142  Biso   1.000  H
  O116     1.0000 0.88941  0.24450  0.42221  Biso   1.000  O
  C117     1.0000 0.17612  0.70081  0.36742  Biso   1.000  C
  C118     1.0000 0.85349  0.28100  0.31150  Biso   1.000  C
  H173     1.0000 0.84560  0.19779  0.33302  Biso   1.000  H
  O117     1.0000 0.90222  0.20140  0.27131  Biso   1.000  O
  C119     1.0000 0.86660  0.29919  0.41461  Biso   1.000  C
  C120     1.0000 0.14651  0.71900  0.31150  Biso   1.000  C
  H174     1.0000 0.20670  0.72690  0.37671  Biso   1.000  H
  C121     1.0000 0.13340  0.70081  0.41461  Biso   1.000  C
  C122     1.0000 0.82388  0.29919  0.36742  Biso   1.000  C
  H175     1.0000 0.88382  0.30721  0.30190  Biso   1.000  H
  O118     1.0000 0.81141  0.28062  0.26638  Biso   1.000  O
  H176     1.0000 0.89709  0.32468  0.40350  Biso   1.000  H
  C123     1.0000 0.84312  0.31872  0.47230  Biso   1.000  C
  C124     1.0000 0.12290  0.77751  0.32299  Biso   1.000  C
  H177     1.0000 0.11618  0.69279  0.30190  Biso   1.000  H
  O119     1.0000 0.18859  0.71938  0.26638  Biso   1.000  O
  H178     1.0000 0.10291  0.67532  0.40350  Biso   1.000  H
  C125     1.0000 0.15688  0.68128  0.47230  Biso   1.000  C
  O120     1.0000 0.11059  0.75550  0.42221  Biso   1.000  O
  O121     1.0000 0.80200  0.35480  0.35851  Biso   1.000  O
  H179     1.0000 0.79330  0.27310  0.37671  Biso   1.000  H
  H180     1.0000 0.87290  0.31951  0.50082  Biso   1.000  H
  H181     1.0000 0.82829  0.35652  0.46841  Biso   1.000  H
  O122     1.0000 0.80061  0.28272  0.49071  Biso   1.000  O
  H182     1.0000 0.86290  0.35219  0.48470  Biso   1.000  H
  H183     1.0000 0.80368  0.32821  0.46772  Biso   1.000  H
  O123     1.0000 0.84858  0.27671  0.51469  Biso   1.000  O
  C126     1.0000 0.08350  0.77650  0.37338  Biso   1.000  C
  H184     1.0000 0.15440  0.80221  0.33302  Biso   1.000  H
  O124     1.0000 0.09778  0.79860  0.27131  Biso   1.000  O
  H185     1.0000 0.12710  0.68049  0.50082  Biso   1.000  H
  H186     1.0000 0.17171  0.64348  0.46841  Biso   1.000  H
  O125     1.0000 0.19939  0.71728  0.49071  Biso   1.000  O
  H187     1.0000 0.13710  0.64781  0.48470  Biso   1.000  H
  H188     1.0000 0.19632  0.67179  0.46772  Biso   1.000  H
  O126     1.0000 0.15142  0.72329  0.51469  Biso   1.000  O
  C127     1.0000 0.74311  0.36400  0.37282  Biso   1.000  C
  O127     1.0000 0.03650  0.74391  0.35691  Biso   1.000  O
  H189     1.0000 0.07098  0.81489  0.38142  Biso   1.000  H
  C128     1.0000 0.71472  0.38962  0.32161  Biso   1.000  C
  H190     1.0000 0.72560  0.32749  0.38068  Biso   1.000  H
  O128     1.0000 0.73942  0.39630  0.42169  Biso   1.000  O
  C129     1.0000 0.98282  0.76810  0.36711  Biso   1.000  C
  C130     1.0000 0.73740  0.45002  0.31249  Biso   1.000  C
  H191     1.0000 0.67469  0.39268  0.33068  Biso   1.000  H
  O129     1.0000 0.71959  0.35719  0.27001  Biso   1.000  O
  C131     1.0000 0.76201  0.45321  0.41521  Biso   1.000  C
  C132     1.0000 0.95002  0.76260  0.31249  Biso   1.000  C
  H192     1.0000 0.98711  0.80788  0.37701  Biso   1.000  H
  C133     1.0000 0.95321  0.73799  0.41521  Biso   1.000  C
  C134     1.0000 0.73190  0.48282  0.36711  Biso   1.000  C
  H193     1.0000 0.77701  0.44850  0.30082  Biso   1.000  H
  O130     1.0000 0.70468  0.47812  0.26802  Biso   1.000  O
  H194     1.0000 0.80158  0.44989  0.40419  Biso   1.000  H
  C135     1.0000 0.75941  0.48349  0.47390  Biso   1.000  C
  C136     1.0000 0.88962  0.78528  0.32161  Biso   1.000  C
  H195     1.0000 0.94850  0.72299  0.30082  Biso   1.000  H
  O131     1.0000 0.97812  0.79532  0.26802  Biso   1.000  O
  H196     1.0000 0.94989  0.69842  0.40419  Biso   1.000  H
  C137     1.0000 0.98349  0.74059  0.47390  Biso   1.000  C
  O132     1.0000 0.89630  0.76058  0.42169  Biso   1.000  O
  O133     1.0000 0.75609  0.53650  0.35691  Biso   1.000  O
  H197     1.0000 0.69212  0.48711  0.37701  Biso   1.000  H
  H198     1.0000 0.78360  0.46438  0.50138  Biso   1.000  H
  H199     1.0000 0.77268  0.52172  0.46962  Biso   1.000  H
  O134     1.0000 0.70409  0.48400  0.49499  Biso   1.000  O
  H200     1.0000 0.78818  0.51210  0.47571  Biso   1.000  H
  H201     1.0000 0.72312  0.50160  0.47831  Biso   1.000  H
  O135     1.0000 0.76731  0.44468  0.51889  Biso   1.000  O
  C138     1.0000 0.86400  0.75689  0.37282  Biso   1.000  C
  H202     1.0000 0.89268  0.82531  0.33068  Biso   1.000  H
  O136     1.0000 0.85719  0.78041  0.27001  Biso   1.000  O
  H203     1.0000 0.02172  0.72732  0.46962  Biso   1.000  H
  H204     1.0000 0.01210  0.71182  0.47571  Biso   1.000  H
  H205     1.0000 0.00160  0.77688  0.47831  Biso   1.000  H
  H206     1.0000 0.96438  0.71640  0.50138  Biso   1.000  H
  O137     1.0000 0.98400  0.79591  0.49499  Biso   1.000  O
  O138     1.0000 0.94468  0.73269  0.51889  Biso   1.000  O
  C139     1.0000 0.72350  0.58350  0.37338  Biso   1.000  C
  H207     1.0000 0.82749  0.77440  0.38068  Biso   1.000  H
  O139     1.0000 0.85480  0.69800  0.35851  Biso   1.000  O
  C140     1.0000 0.72249  0.62290  0.32299  Biso   1.000  C
  H208     1.0000 0.68511  0.57098  0.38142  Biso   1.000  H
  O140     1.0000 0.74450  0.61059  0.42221  Biso   1.000  O
  C141     1.0000 0.79919  0.67612  0.36742  Biso   1.000  C
  C142     1.0000 0.78100  0.64651  0.31150  Biso   1.000  C
  H209     1.0000 0.69779  0.65440  0.33302  Biso   1.000  H
  O141     1.0000 0.70140  0.59778  0.27131  Biso   1.000  O
  C143     1.0000 0.79919  0.63340  0.41461  Biso   1.000  C
  H210     1.0000 0.77310  0.70670  0.37671  Biso   1.000  H
  H211     1.0000 0.80721  0.61618  0.30190  Biso   1.000  H
  O142     1.0000 0.78062  0.68859  0.26638  Biso   1.000  O
  H212     1.0000 0.82468  0.60291  0.40350  Biso   1.000  H
  C144     1.0000 0.81872  0.65688  0.47230  Biso   1.000  C
  H213     1.0000 0.81951  0.62710  0.50082  Biso   1.000  H
  H214     1.0000 0.85652  0.67171  0.46841  Biso   1.000  H
  O143     1.0000 0.78272  0.69939  0.49071  Biso   1.000  O
  H215     1.0000 0.85219  0.63710  0.48470  Biso   1.000  H
  H216     1.0000 0.82821  0.69632  0.46772  Biso   1.000  H
  O144     1.0000 0.77671  0.65142  0.51469  Biso   1.000  O
  O145     1.0000 0.21728  0.30061  0.49071  Biso   1.000  O
  C145     1.0000 0.18128  0.34312  0.47230  Biso   1.000  C
  H217     1.0000 0.17179  0.30368  0.46772  Biso   1.000  H
  O146     1.0000 0.22329  0.34858  0.51469  Biso   1.000  O
  C146     1.0000 0.20081  0.36660  0.41461  Biso   1.000  C
  H218     1.0000 0.18049  0.37290  0.50082  Biso   1.000  H
  H219     1.0000 0.14348  0.32829  0.46841  Biso   1.000  H
  H220     1.0000 0.14781  0.36290  0.48470  Biso   1.000  H
  C147     1.0000 0.20081  0.32388  0.36742  Biso   1.000  C
  O147     1.0000 0.25550  0.38941  0.42221  Biso   1.000  O
  H221     1.0000 0.17532  0.39709  0.40350  Biso   1.000  H
  C148     1.0000 0.21900  0.35349  0.31150  Biso   1.000  C
  O148     1.0000 0.14520  0.30200  0.35851  Biso   1.000  O
  H222     1.0000 0.22690  0.29330  0.37671  Biso   1.000  H
  C149     1.0000 0.27650  0.41650  0.37338  Biso   1.000  C
  O149     1.0000 0.21938  0.31141  0.26638  Biso   1.000  O
  C150     1.0000 0.27751  0.37710  0.32299  Biso   1.000  C
  H223     1.0000 0.19279  0.38382  0.30190  Biso   1.000  H
  C151     1.0000 0.13600  0.24311  0.37282  Biso   1.000  C
  O150     1.0000 0.24391  0.46350  0.35691  Biso   1.000  O
  H224     1.0000 0.31489  0.42902  0.38142  Biso   1.000  H
  H225     1.0000 0.30221  0.34560  0.33302  Biso   1.000  H
  O151     1.0000 0.29860  0.40222  0.27131  Biso   1.000  O
  C152     1.0000 0.11038  0.21472  0.32161  Biso   1.000  C
  H226     1.0000 0.17251  0.22560  0.38068  Biso   1.000  H
  O152     1.0000 0.10370  0.23942  0.42169  Biso   1.000  O
  C153     1.0000 0.26810  0.51718  0.36711  Biso   1.000  C
  C154     1.0000 0.04998  0.23740  0.31249  Biso   1.000  C
  H227     1.0000 0.10732  0.17469  0.33068  Biso   1.000  H
  O153     1.0000 0.14281  0.21959  0.27001  Biso   1.000  O
  C155     1.0000 0.04679  0.26201  0.41521  Biso   1.000  C
  C156     1.0000 0.26260  0.54998  0.31249  Biso   1.000  C
  C157     1.0000 0.23799  0.54679  0.41521  Biso   1.000  C
  H228     1.0000 0.30788  0.51289  0.37701  Biso   1.000  H
  C158     1.0000 0.01718  0.23190  0.36711  Biso   1.000  C
  H229     1.0000 0.05150  0.27701  0.30082  Biso   1.000  H
  O154     1.0000 0.02188  0.20468  0.26802  Biso   1.000  O
  H230     1.0000 0.05011  0.30158  0.40419  Biso   1.000  H
  C159     1.0000 0.01651  0.25941  0.47390  Biso   1.000  C
  C160     1.0000 0.28528  0.61038  0.32161  Biso   1.000  C
  H231     1.0000 0.22299  0.55150  0.30082  Biso   1.000  H
  O155     1.0000 0.29532  0.52188  0.26802  Biso   1.000  O
  O156     1.0000 0.26058  0.60370  0.42169  Biso   1.000  O
  H232     1.0000 0.19842  0.55011  0.40419  Biso   1.000  H
  C161     1.0000 0.24059  0.51651  0.47390  Biso   1.000  C
  H233     1.0000 0.01289  0.19212  0.37701  Biso   1.000  H
  O157     1.0000 0.96350  0.25609  0.35691  Biso   1.000  O
  H234     1.0000 0.03562  0.28360  0.50138  Biso   1.000  H
  O158     1.0000 0.01600  0.20409  0.49499  Biso   1.000  O
  H235     1.0000 0.97828  0.27268  0.46962  Biso   1.000  H
  H236     1.0000 0.98790  0.28818  0.47571  Biso   1.000  H
  H237     1.0000 0.99840  0.22312  0.47831  Biso   1.000  H
  O159     1.0000 0.05532  0.26731  0.51889  Biso   1.000  O
  C162     1.0000 0.25689  0.63600  0.37282  Biso   1.000  C
  H238     1.0000 0.32531  0.60732  0.33068  Biso   1.000  H
  O160     1.0000 0.28041  0.64281  0.27001  Biso   1.000  O
  H239     1.0000 0.21640  0.53562  0.50138  Biso   1.000  H
  H240     1.0000 0.22732  0.47828  0.46962  Biso   1.000  H
  O161     1.0000 0.29591  0.51600  0.49499  Biso   1.000  O
  H241     1.0000 0.21182  0.48790  0.47571  Biso   1.000  H
  H242     1.0000 0.27688  0.49840  0.47831  Biso   1.000  H
  O162     1.0000 0.23269  0.55532  0.51889  Biso   1.000  O
  C163     1.0000 0.91650  0.22350  0.37338  Biso   1.000  C
  H243     1.0000 0.27440  0.67251  0.38068  Biso   1.000  H
  O163     1.0000 0.19800  0.64520  0.35851  Biso   1.000  O
  C164     1.0000 0.87710  0.22249  0.32299  Biso   1.000  C
  H244     1.0000 0.92902  0.18511  0.38142  Biso   1.000  H
  O164     1.0000 0.88941  0.24450  0.42221  Biso   1.000  O
  C165     1.0000 0.17612  0.70081  0.36742  Biso   1.000  C
  C166     1.0000 0.85349  0.28100  0.31150  Biso   1.000  C
  H245     1.0000 0.84560  0.19779  0.33302  Biso   1.000  H
  O165     1.0000 0.90222  0.20140  0.27131  Biso   1.000  O
  C167     1.0000 0.86660  0.29919  0.41461  Biso   1.000  C
  C168     1.0000 0.14651  0.71900  0.31150  Biso   1.000  C
  H246     1.0000 0.20670  0.72690  0.37671  Biso   1.000  H
  C169     1.0000 0.13340  0.70081  0.41461  Biso   1.000  C
  C170     1.0000 0.82388  0.29919  0.36742  Biso   1.000  C
  H247     1.0000 0.88382  0.30721  0.30190  Biso   1.000  H
  O166     1.0000 0.81141  0.28062  0.26638  Biso   1.000  O
  H248     1.0000 0.89709  0.32468  0.40350  Biso   1.000  H
  C171     1.0000 0.84312  0.31872  0.47230  Biso   1.000  C
  C172     1.0000 0.12290  0.77751  0.32299  Biso   1.000  C
  H249     1.0000 0.11618  0.69279  0.30190  Biso   1.000  H
  O167     1.0000 0.18859  0.71938  0.26638  Biso   1.000  O
  H250     1.0000 0.10291  0.67532  0.40350  Biso   1.000  H
  C173     1.0000 0.15688  0.68128  0.47230  Biso   1.000  C
  O168     1.0000 0.11059  0.75550  0.42221  Biso   1.000  O
  O169     1.0000 0.80200  0.35480  0.35851  Biso   1.000  O
  H251     1.0000 0.79330  0.27310  0.37671  Biso   1.000  H
  H252     1.0000 0.87290  0.31951  0.50082  Biso   1.000  H
  H253     1.0000 0.82829  0.35652  0.46841  Biso   1.000  H
  O170     1.0000 0.80061  0.28272  0.49071  Biso   1.000  O
  H254     1.0000 0.86290  0.35219  0.48470  Biso   1.000  H
  H255     1.0000 0.80368  0.32821  0.46772  Biso   1.000  H
  O171     1.0000 0.84858  0.27671  0.51469  Biso   1.000  O
  C174     1.0000 0.08350  0.77650  0.37338  Biso   1.000  C
  H256     1.0000 0.15440  0.80221  0.33302  Biso   1.000  H
  O172     1.0000 0.09778  0.79860  0.27131  Biso   1.000  O
  H257     1.0000 0.12710  0.68049  0.50082  Biso   1.000  H
  H258     1.0000 0.17171  0.64348  0.46841  Biso   1.000  H
  O173     1.0000 0.19939  0.71728  0.49071  Biso   1.000  O
  H259     1.0000 0.13710  0.64781  0.48470  Biso   1.000  H
  H260     1.0000 0.19632  0.67179  0.46772  Biso   1.000  H
  O174     1.0000 0.15142  0.72329  0.51469  Biso   1.000  O
  C175     1.0000 0.74311  0.36400  0.37282  Biso   1.000  C
  O175     1.0000 0.03650  0.74391  0.35691  Biso   1.000  O
  H261     1.0000 0.07098  0.81489  0.38142  Biso   1.000  H
  C176     1.0000 0.71472  0.38962  0.32161  Biso   1.000  C
  H262     1.0000 0.72560  0.32749  0.38068  Biso   1.000  H
  O176     1.0000 0.73942  0.39630  0.42169  Biso   1.000  O
  C177     1.0000 0.98282  0.76810  0.36711  Biso   1.000  C
  C178     1.0000 0.73740  0.45002  0.31249  Biso   1.000  C
  H263     1.0000 0.67469  0.39268  0.33068  Biso   1.000  H
  O177     1.0000 0.71959  0.35719  0.27001  Biso   1.000  O
  C179     1.0000 0.76201  0.45321  0.41521  Biso   1.000  C
  C180     1.0000 0.95002  0.76260  0.31249  Biso   1.000  C
  H264     1.0000 0.98711  0.80788  0.37701  Biso   1.000  H
  C181     1.0000 0.95321  0.73799  0.41521  Biso   1.000  C
  C182     1.0000 0.73190  0.48282  0.36711  Biso   1.000  C
  H265     1.0000 0.77701  0.44850  0.30082  Biso   1.000  H
  O178     1.0000 0.70468  0.47812  0.26802  Biso   1.000  O
  H266     1.0000 0.80158  0.44989  0.40419  Biso   1.000  H
  C183     1.0000 0.75941  0.48349  0.47390  Biso   1.000  C
  C184     1.0000 0.88962  0.78528  0.32161  Biso   1.000  C
  H267     1.0000 0.94850  0.72299  0.30082  Biso   1.000  H
  O179     1.0000 0.97812  0.79532  0.26802  Biso   1.000  O
  H268     1.0000 0.94989  0.69842  0.40419  Biso   1.000  H
  C185     1.0000 0.98349  0.74059  0.47390  Biso   1.000  C
  O180     1.0000 0.89630  0.76058  0.42169  Biso   1.000  O
  O181     1.0000 0.75609  0.53650  0.35691  Biso   1.000  O
  H269     1.0000 0.69212  0.48711  0.37701  Biso   1.000  H
  H270     1.0000 0.78360  0.46438  0.50138  Biso   1.000  H
  H271     1.0000 0.77268  0.52172  0.46962  Biso   1.000  H
  O182     1.0000 0.70409  0.48400  0.49499  Biso   1.000  O
  H272     1.0000 0.78818  0.51210  0.47571  Biso   1.000  H
  H273     1.0000 0.72312  0.50160  0.47831  Biso   1.000  H
  O183     1.0000 0.76731  0.44468  0.51889  Biso   1.000  O
  C186     1.0000 0.86400  0.75689  0.37282  Biso   1.000  C
  H274     1.0000 0.89268  0.82531  0.33068  Biso   1.000  H
  O184     1.0000 0.85719  0.78041  0.27001  Biso   1.000  O
  H275     1.0000 0.02172  0.72732  0.46962  Biso   1.000  H
  H276     1.0000 0.96438  0.71640  0.50138  Biso   1.000  H
  O185     1.0000 0.98400  0.79591  0.49499  Biso   1.000  O
  O186     1.0000 0.94468  0.73269  0.51889  Biso   1.000  O
  H277     1.0000 0.01210  0.71182  0.47571  Biso   1.000  H
  H278     1.0000 0.00160  0.77688  0.47831  Biso   1.000  H
  C187     1.0000 0.72350  0.58350  0.37338  Biso   1.000  C
  H279     1.0000 0.82749  0.77440  0.38068  Biso   1.000  H
  O187     1.0000 0.85480  0.69800  0.35851  Biso   1.000  O
  C188     1.0000 0.72249  0.62290  0.32299  Biso   1.000  C
  H280     1.0000 0.68511  0.57098  0.38142  Biso   1.000  H
  O188     1.0000 0.74450  0.61059  0.42221  Biso   1.000  O
  C189     1.0000 0.79919  0.67612  0.36742  Biso   1.000  C
  C190     1.0000 0.78100  0.64651  0.31150  Biso   1.000  C
  H281     1.0000 0.69779  0.65440  0.33302  Biso   1.000  H
  O189     1.0000 0.70140  0.59778  0.27131  Biso   1.000  O
  C191     1.0000 0.79919  0.63340  0.41461  Biso   1.000  C
  H282     1.0000 0.77310  0.70670  0.37671  Biso   1.000  H
  H283     1.0000 0.80721  0.61618  0.30190  Biso   1.000  H
  O190     1.0000 0.78062  0.68859  0.26638  Biso   1.000  O
  H284     1.0000 0.82468  0.60291  0.40350  Biso   1.000  H
  C192     1.0000 0.81872  0.65688  0.47230  Biso   1.000  C
  H285     1.0000 0.81951  0.62710  0.50082  Biso   1.000  H
  H286     1.0000 0.85652  0.67171  0.46841  Biso   1.000  H
  O191     1.0000 0.78272  0.69939  0.49071  Biso   1.000  O
  H287     1.0000 0.85219  0.63710  0.48470  Biso   1.000  H
  H288     1.0000 0.82821  0.69632  0.46772  Biso   1.000  H
  O192     1.0000 0.77671  0.65142  0.51469  Biso   1.000  O
  O193     1.0000 0.26319  0.17570  0.40242  Biso   1.000  O
  C193     1.0000 0.30389  0.13768  0.38250  Biso   1.000  C
  C194     1.0000 0.28772  0.11290  0.32411  Biso   1.000  C
  H289     1.0000 0.30830  0.10761  0.41041  Biso   1.000  H
  H290     1.0000 0.33972  0.15680  0.37900  Biso   1.000  H
  C195     1.0000 0.28020  0.15520  0.27619  Biso   1.000  C
  O194     1.0000 0.23471  0.08451  0.33150  Biso   1.000  O
  H291     1.0000 0.31620  0.08552  0.31240  Biso   1.000  H
  O195     1.0000 0.33489  0.18128  0.26392  Biso   1.000  O
  C196     1.0000 0.26239  0.12651  0.22092  Biso   1.000  C
  H292     1.0000 0.25260  0.18389  0.28738  Biso   1.000  H
  C197     1.0000 0.21480  0.05641  0.28220  Biso   1.000  C
  C198     1.0000 0.33930  0.23811  0.28159  Biso   1.000  C
  C199     1.0000 0.20951  0.09581  0.23120  Biso   1.000  C
  H293     1.0000 0.29141  0.09908  0.21050  Biso   1.000  H
  O196     1.0000 0.25718  0.16549  0.17489  Biso   1.000  O
  O197     1.0000 0.25298  0.01172  0.26612  Biso   1.000  O
  H294     1.0000 0.17788  0.04020  0.29080  Biso   1.000  H
  C200     1.0000 0.36328  0.27340  0.23181  Biso   1.000  C
  H295     1.0000 0.30129  0.25189  0.29002  Biso   1.000  H
  O198     1.0000 0.37210  0.24651  0.33038  Biso   1.000  O
  H296     1.0000 0.18040  0.12340  0.24049  Biso   1.000  H
  O199     1.0000 0.19162  0.06548  0.18198  Biso   1.000  O
  C201     1.0000 0.23501  0.95779  0.27649  Biso   1.000  C
  C202     1.0000 0.42230  0.25798  0.22178  Biso   1.000  C
  H297     1.0000 0.36110  0.31330  0.24201  Biso   1.000  H
  O200     1.0000 0.33039  0.26361  0.18068  Biso   1.000  O
  C203     1.0000 0.42881  0.22719  0.32312  Biso   1.000  C
  C204     1.0000 0.24202  0.92230  0.22178  Biso   1.000  C
  C205     1.0000 0.27281  0.92881  0.32312  Biso   1.000  C
  H298     1.0000 0.19569  0.95791  0.28889  Biso   1.000  H
  C206     1.0000 0.45779  0.26499  0.27649  Biso   1.000  C
  H299     1.0000 0.42461  0.21921  0.20821  Biso   1.000  H
  O201     1.0000 0.44619  0.29599  0.17822  Biso   1.000  O
  H300     1.0000 0.42939  0.18771  0.31128  Biso   1.000  H
  C207     1.0000 0.45569  0.23459  0.38258  Biso   1.000  C
  C208     1.0000 0.22660  0.86328  0.23181  Biso   1.000  C
  H301     1.0000 0.28079  0.92461  0.20821  Biso   1.000  H
  O202     1.0000 0.20401  0.94619  0.17822  Biso   1.000  O
  O203     1.0000 0.25349  0.87210  0.33038  Biso   1.000  O
  H302     1.0000 0.31229  0.92939  0.31128  Biso   1.000  H
  C209     1.0000 0.26541  0.95569  0.38258  Biso   1.000  C
  O204     1.0000 0.51172  0.24702  0.26612  Biso   1.000  O
  H303     1.0000 0.45791  0.30431  0.28889  Biso   1.000  H
  H304     1.0000 0.43662  0.21039  0.40990  Biso   1.000  H
  H305     1.0000 0.49458  0.22261  0.38060  Biso   1.000  H
  O205     1.0000 0.45371  0.29099  0.40328  Biso   1.000  O
  C210     1.0000 0.26189  0.83930  0.28159  Biso   1.000  C
  H306     1.0000 0.18670  0.86110  0.24201  Biso   1.000  H
  O206     1.0000 0.23639  0.83039  0.18068  Biso   1.000  O
  H307     1.0000 0.28961  0.93662  0.40990  Biso   1.000  H
  H308     1.0000 0.27739  0.99458  0.38060  Biso   1.000  H
  O207     1.0000 0.20901  0.95371  0.40328  Biso   1.000  O
  C211     1.0000 0.55641  0.28520  0.28220  Biso   1.000  C
  H309     1.0000 0.24811  0.80129  0.29002  Biso   1.000  H
  O208     1.0000 0.31872  0.83489  0.26392  Biso   1.000  O
  C212     1.0000 0.59581  0.29049  0.23120  Biso   1.000  C
  H310     1.0000 0.54020  0.32212  0.29080  Biso   1.000  H
  O209     1.0000 0.58451  0.26529  0.33150  Biso   1.000  O
  C213     1.0000 0.34480  0.78020  0.27619  Biso   1.000  C
  C214     1.0000 0.62651  0.23761  0.22092  Biso   1.000  C
  H311     1.0000 0.62340  0.31960  0.24049  Biso   1.000  H
  O210     1.0000 0.56548  0.30838  0.18198  Biso   1.000  O
  C215     1.0000 0.61290  0.21228  0.32411  Biso   1.000  C
  C216     1.0000 0.37349  0.76239  0.22092  Biso   1.000  C
  C217     1.0000 0.38710  0.78772  0.32411  Biso   1.000  C
  H312     1.0000 0.31611  0.75260  0.28738  Biso   1.000  H
  C218     1.0000 0.65520  0.21980  0.27619  Biso   1.000  C
  H313     1.0000 0.59908  0.20859  0.21050  Biso   1.000  H
  O211     1.0000 0.66549  0.24282  0.17489  Biso   1.000  O
  H314     1.0000 0.58552  0.18380  0.31240  Biso   1.000  H
  C219     1.0000 0.63768  0.19611  0.38250  Biso   1.000  C
  C220     1.0000 0.40419  0.70951  0.23120  Biso   1.000  C
  H315     1.0000 0.40092  0.79141  0.21050  Biso   1.000  H
  O212     1.0000 0.33451  0.75718  0.17489  Biso   1.000  O
  O213     1.0000 0.41549  0.73471  0.33150  Biso   1.000  O
  H316     1.0000 0.41448  0.81620  0.31240  Biso   1.000  H
  C221     1.0000 0.36232  0.80389  0.38250  Biso   1.000  C
  O214     1.0000 0.68128  0.16511  0.26392  Biso   1.000  O
  H317     1.0000 0.68389  0.24740  0.28738  Biso   1.000  H
  H318     1.0000 0.60761  0.19170  0.41041  Biso   1.000  H
  H319     1.0000 0.65680  0.16028  0.37900  Biso   1.000  H
  O215     1.0000 0.67570  0.23681  0.40242  Biso   1.000  O
  C222     1.0000 0.44359  0.71480  0.28220  Biso   1.000  C
  H320     1.0000 0.37660  0.68040  0.24049  Biso   1.000  H
  O216     1.0000 0.43452  0.69162  0.18198  Biso   1.000  O
  H321     1.0000 0.39239  0.80830  0.41041  Biso   1.000  H
  H322     1.0000 0.34320  0.83972  0.37900  Biso   1.000  H
  O217     1.0000 0.32430  0.76319  0.40242  Biso   1.000  O
  C223     1.0000 0.73811  0.16070  0.28159  Biso   1.000  C
  O218     1.0000 0.48828  0.75298  0.26612  Biso   1.000  O
  H323     1.0000 0.45980  0.67788  0.29080  Biso   1.000  H
  H324     1.0000 0.75189  0.19871  0.29002  Biso   1.000  H
  C224     1.0000 0.77340  0.13672  0.23181  Biso   1.000  C
  O219     1.0000 0.74651  0.12790  0.33038  Biso   1.000  O
  C225     1.0000 0.54221  0.73501  0.27649  Biso   1.000  C
  H325     1.0000 0.81330  0.13890  0.24201  Biso   1.000  H
  C226     1.0000 0.75798  0.07770  0.22178  Biso   1.000  C
  O220     1.0000 0.76361  0.16961  0.18068  Biso   1.000  O
  C227     1.0000 0.72719  0.07119  0.32312  Biso   1.000  C
  C228     1.0000 0.57770  0.74202  0.22178  Biso   1.000  C
  C229     1.0000 0.57119  0.77281  0.32312  Biso   1.000  C
  H326     1.0000 0.54209  0.69569  0.28889  Biso   1.000  H
  H327     1.0000 0.71921  0.07539  0.20821  Biso   1.000  H
  C230     1.0000 0.76499  0.04221  0.27649  Biso   1.000  C
  O221     1.0000 0.79599  0.05381  0.17822  Biso   1.000  O
  H328     1.0000 0.68771  0.07061  0.31128  Biso   1.000  H
  C231     1.0000 0.73459  0.04431  0.38258  Biso   1.000  C
  C232     1.0000 0.63672  0.72660  0.23181  Biso   1.000  C
  H329     1.0000 0.57539  0.78079  0.20821  Biso   1.000  H
  O222     1.0000 0.55381  0.70401  0.17822  Biso   1.000  O
  O223     1.0000 0.62790  0.75349  0.33038  Biso   1.000  O
  H330     1.0000 0.57061  0.81229  0.31128  Biso   1.000  H
  C233     1.0000 0.54431  0.76541  0.38258  Biso   1.000  C
  H331     1.0000 0.80431  0.04209  0.28889  Biso   1.000  H
  O224     1.0000 0.74702  0.98828  0.26612  Biso   1.000  O
  H332     1.0000 0.71039  0.06338  0.40990  Biso   1.000  H
  H333     1.0000 0.72261  0.00542  0.38060  Biso   1.000  H
  O225     1.0000 0.79099  0.04629  0.40328  Biso   1.000  O
  C234     1.0000 0.66070  0.76189  0.28159  Biso   1.000  C
  H334     1.0000 0.63890  0.68670  0.24201  Biso   1.000  H
  O226     1.0000 0.66961  0.73639  0.18068  Biso   1.000  O
  H335     1.0000 0.56338  0.78961  0.40990  Biso   1.000  H
  H336     1.0000 0.50542  0.77739  0.38060  Biso   1.000  H
  O227     1.0000 0.54629  0.70901  0.40328  Biso   1.000  O
  C235     1.0000 0.78520  0.94359  0.28220  Biso   1.000  C
  O228     1.0000 0.66511  0.81872  0.26392  Biso   1.000  O
  H337     1.0000 0.69871  0.74811  0.29002  Biso   1.000  H
  H338     1.0000 0.82212  0.95980  0.29080  Biso   1.000  H
  C236     1.0000 0.79049  0.90419  0.23120  Biso   1.000  C
  O229     1.0000 0.76529  0.91549  0.33150  Biso   1.000  O
  C237     1.0000 0.71980  0.84480  0.27619  Biso   1.000  C
  H339     1.0000 0.81960  0.87660  0.24049  Biso   1.000  H
  C238     1.0000 0.73761  0.87349  0.22092  Biso   1.000  C
  O230     1.0000 0.80838  0.93452  0.18198  Biso   1.000  O
  C239     1.0000 0.71228  0.88710  0.32411  Biso   1.000  C
  H340     1.0000 0.74740  0.81611  0.28738  Biso   1.000  H
  H341     1.0000 0.70859  0.90092  0.21050  Biso   1.000  H
  O231     1.0000 0.74282  0.83451  0.17489  Biso   1.000  O
  H342     1.0000 0.68380  0.91448  0.31240  Biso   1.000  H
  C240     1.0000 0.69611  0.86232  0.38250  Biso   1.000  C
  H343     1.0000 0.69170  0.89239  0.41041  Biso   1.000  H
  H344     1.0000 0.66028  0.84320  0.37900  Biso   1.000  H
  O232     1.0000 0.73681  0.82430  0.40242  Biso   1.000  O
  O233     1.0000 0.26319  0.17570  0.40242  Biso   1.000  O
  C241     1.0000 0.30389  0.13768  0.38250  Biso   1.000  C
  C242     1.0000 0.28772  0.11290  0.32411  Biso   1.000  C
  H345     1.0000 0.30830  0.10761  0.41041  Biso   1.000  H
  H346     1.0000 0.33972  0.15680  0.37900  Biso   1.000  H
  C243     1.0000 0.28020  0.15520  0.27619  Biso   1.000  C
  O234     1.0000 0.23471  0.08451  0.33150  Biso   1.000  O
  H347     1.0000 0.31620  0.08552  0.31240  Biso   1.000  H
  O235     1.0000 0.33489  0.18128  0.26392  Biso   1.000  O
  C244     1.0000 0.26239  0.12651  0.22092  Biso   1.000  C
  H348     1.0000 0.25260  0.18389  0.28738  Biso   1.000  H
  C245     1.0000 0.21480  0.05641  0.28220  Biso   1.000  C
  C246     1.0000 0.33930  0.23811  0.28159  Biso   1.000  C
  C247     1.0000 0.20951  0.09581  0.23120  Biso   1.000  C
  H349     1.0000 0.29141  0.09908  0.21050  Biso   1.000  H
  O236     1.0000 0.25718  0.16549  0.17489  Biso   1.000  O
  O237     1.0000 0.25298  0.01172  0.26612  Biso   1.000  O
  H350     1.0000 0.17788  0.04020  0.29080  Biso   1.000  H
  C248     1.0000 0.36328  0.27340  0.23181  Biso   1.000  C
  H351     1.0000 0.30129  0.25189  0.29002  Biso   1.000  H
  O238     1.0000 0.37210  0.24651  0.33038  Biso   1.000  O
  H352     1.0000 0.18040  0.12340  0.24049  Biso   1.000  H
  O239     1.0000 0.19162  0.06548  0.18198  Biso   1.000  O
  C249     1.0000 0.23501  0.95779  0.27649  Biso   1.000  C
  C250     1.0000 0.42230  0.25798  0.22178  Biso   1.000  C
  H353     1.0000 0.36110  0.31330  0.24201  Biso   1.000  H
  O240     1.0000 0.33039  0.26361  0.18068  Biso   1.000  O
  C251     1.0000 0.42881  0.22719  0.32312  Biso   1.000  C
  C252     1.0000 0.24202  0.92230  0.22178  Biso   1.000  C
  C253     1.0000 0.27281  0.92881  0.32312  Biso   1.000  C
  H354     1.0000 0.19569  0.95791  0.28889  Biso   1.000  H
  C254     1.0000 0.45779  0.26499  0.27649  Biso   1.000  C
  H355     1.0000 0.42461  0.21921  0.20821  Biso   1.000  H
  O241     1.0000 0.44619  0.29599  0.17822  Biso   1.000  O
  H356     1.0000 0.42939  0.18771  0.31128  Biso   1.000  H
  C255     1.0000 0.45569  0.23459  0.38258  Biso   1.000  C
  C256     1.0000 0.22660  0.86328  0.23181  Biso   1.000  C
  H357     1.0000 0.28079  0.92461  0.20821  Biso   1.000  H
  O242     1.0000 0.20401  0.94619  0.17822  Biso   1.000  O
  O243     1.0000 0.25349  0.87210  0.33038  Biso   1.000  O
  H358     1.0000 0.31229  0.92939  0.31128  Biso   1.000  H
  C257     1.0000 0.26541  0.95569  0.38258  Biso   1.000  C
  O244     1.0000 0.51172  0.24702  0.26612  Biso   1.000  O
  H359     1.0000 0.45791  0.30431  0.28889  Biso   1.000  H
  H360     1.0000 0.43662  0.21039  0.40990  Biso   1.000  H
  H361     1.0000 0.49458  0.22261  0.38060  Biso   1.000  H
  O245     1.0000 0.45371  0.29099  0.40328  Biso   1.000  O
  C258     1.0000 0.26189  0.83930  0.28159  Biso   1.000  C
  H362     1.0000 0.18670  0.86110  0.24201  Biso   1.000  H
  O246     1.0000 0.23639  0.83039  0.18068  Biso   1.000  O
  H363     1.0000 0.28961  0.93662  0.40990  Biso   1.000  H
  H364     1.0000 0.27739  0.99458  0.38060  Biso   1.000  H
  O247     1.0000 0.20901  0.95371  0.40328  Biso   1.000  O
  C259     1.0000 0.55641  0.28520  0.28220  Biso   1.000  C
  H365     1.0000 0.24811  0.80129  0.29002  Biso   1.000  H
  O248     1.0000 0.31872  0.83489  0.26392  Biso   1.000  O
  C260     1.0000 0.59581  0.29049  0.23120  Biso   1.000  C
  H366     1.0000 0.54020  0.32212  0.29080  Biso   1.000  H
  O249     1.0000 0.58451  0.26529  0.33150  Biso   1.000  O
  C261     1.0000 0.34480  0.78020  0.27619  Biso   1.000  C
  C262     1.0000 0.62651  0.23761  0.22092  Biso   1.000  C
  H367     1.0000 0.62340  0.31960  0.24049  Biso   1.000  H
  O250     1.0000 0.56548  0.30838  0.18198  Biso   1.000  O
  C263     1.0000 0.61290  0.21228  0.32411  Biso   1.000  C
  C264     1.0000 0.37349  0.76239  0.22092  Biso   1.000  C
  C265     1.0000 0.38710  0.78772  0.32411  Biso   1.000  C
  H368     1.0000 0.31611  0.75260  0.28738  Biso   1.000  H
  C266     1.0000 0.65520  0.21980  0.27619  Biso   1.000  C
  H369     1.0000 0.59908  0.20859  0.21050  Biso   1.000  H
  O251     1.0000 0.66549  0.24282  0.17489  Biso   1.000  O
  H370     1.0000 0.58552  0.18380  0.31240  Biso   1.000  H
  C267     1.0000 0.63768  0.19611  0.38250  Biso   1.000  C
  C268     1.0000 0.40419  0.70951  0.23120  Biso   1.000  C
  H371     1.0000 0.40092  0.79141  0.21050  Biso   1.000  H
  O252     1.0000 0.33451  0.75718  0.17489  Biso   1.000  O
  O253     1.0000 0.41549  0.73471  0.33150  Biso   1.000  O
  H372     1.0000 0.41448  0.81620  0.31240  Biso   1.000  H
  C269     1.0000 0.36232  0.80389  0.38250  Biso   1.000  C
  O254     1.0000 0.68128  0.16511  0.26392  Biso   1.000  O
  H373     1.0000 0.68389  0.24740  0.28738  Biso   1.000  H
  H374     1.0000 0.60761  0.19170  0.41041  Biso   1.000  H
  H375     1.0000 0.65680  0.16028  0.37900  Biso   1.000  H
  O255     1.0000 0.67570  0.23681  0.40242  Biso   1.000  O
  C270     1.0000 0.44359  0.71480  0.28220  Biso   1.000  C
  H376     1.0000 0.37660  0.68040  0.24049  Biso   1.000  H
  O256     1.0000 0.43452  0.69162  0.18198  Biso   1.000  O
  H377     1.0000 0.39239  0.80830  0.41041  Biso   1.000  H
  H378     1.0000 0.34320  0.83972  0.37900  Biso   1.000  H
  O257     1.0000 0.32430  0.76319  0.40242  Biso   1.000  O
  C271     1.0000 0.73811  0.16070  0.28159  Biso   1.000  C
  O258     1.0000 0.48828  0.75298  0.26612  Biso   1.000  O
  H379     1.0000 0.45980  0.67788  0.29080  Biso   1.000  H
  H380     1.0000 0.75189  0.19871  0.29002  Biso   1.000  H
  C272     1.0000 0.77340  0.13672  0.23181  Biso   1.000  C
  O259     1.0000 0.74651  0.12790  0.33038  Biso   1.000  O
  C273     1.0000 0.54221  0.73501  0.27649  Biso   1.000  C
  H381     1.0000 0.81330  0.13890  0.24201  Biso   1.000  H
  C274     1.0000 0.75798  0.07770  0.22178  Biso   1.000  C
  O260     1.0000 0.76361  0.16961  0.18068  Biso   1.000  O
  C275     1.0000 0.72719  0.07119  0.32312  Biso   1.000  C
  C276     1.0000 0.57770  0.74202  0.22178  Biso   1.000  C
  C277     1.0000 0.57119  0.77281  0.32312  Biso   1.000  C
  H382     1.0000 0.54209  0.69569  0.28889  Biso   1.000  H
  H383     1.0000 0.71921  0.07539  0.20821  Biso   1.000  H
  C278     1.0000 0.76499  0.04221  0.27649  Biso   1.000  C
  O261     1.0000 0.79599  0.05381  0.17822  Biso   1.000  O
  H384     1.0000 0.68771  0.07061  0.31128  Biso   1.000  H
  C279     1.0000 0.73459  0.04431  0.38258  Biso   1.000  C
  C280     1.0000 0.63672  0.72660  0.23181  Biso   1.000  C
  H385     1.0000 0.57539  0.78079  0.20821  Biso   1.000  H
  O262     1.0000 0.55381  0.70401  0.17822  Biso   1.000  O
  O263     1.0000 0.62790  0.75349  0.33038  Biso   1.000  O
  H386     1.0000 0.57061  0.81229  0.31128  Biso   1.000  H
  C281     1.0000 0.54431  0.76541  0.38258  Biso   1.000  C
  H387     1.0000 0.80431  0.04209  0.28889  Biso   1.000  H
  O264     1.0000 0.74702  0.98828  0.26612  Biso   1.000  O
  H388     1.0000 0.71039  0.06338  0.40990  Biso   1.000  H
  H389     1.0000 0.72261  0.00542  0.38060  Biso   1.000  H
  O265     1.0000 0.79099  0.04629  0.40328  Biso   1.000  O
  C282     1.0000 0.66070  0.76189  0.28159  Biso   1.000  C
  H390     1.0000 0.63890  0.68670  0.24201  Biso   1.000  H
  O266     1.0000 0.66961  0.73639  0.18068  Biso   1.000  O
  H391     1.0000 0.56338  0.78961  0.40990  Biso   1.000  H
  H392     1.0000 0.50542  0.77739  0.38060  Biso   1.000  H
  O267     1.0000 0.54629  0.70901  0.40328  Biso   1.000  O
  C283     1.0000 0.78520  0.94359  0.28220  Biso   1.000  C
  O268     1.0000 0.66511  0.81872  0.26392  Biso   1.000  O
  H393     1.0000 0.69871  0.74811  0.29002  Biso   1.000  H
  H394     1.0000 0.82212  0.95980  0.29080  Biso   1.000  H
  C284     1.0000 0.79049  0.90419  0.23120  Biso   1.000  C
  O269     1.0000 0.76529  0.91549  0.33150  Biso   1.000  O
  C285     1.0000 0.71980  0.84480  0.27619  Biso   1.000  C
  H395     1.0000 0.81960  0.87660  0.24049  Biso   1.000  H
  C286     1.0000 0.73761  0.87349  0.22092  Biso   1.000  C
  O270     1.0000 0.80838  0.93452  0.18198  Biso   1.000  O
  C287     1.0000 0.71228  0.88710  0.32411  Biso   1.000  C
  H396     1.0000 0.74740  0.81611  0.28738  Biso   1.000  H
  H397     1.0000 0.70859  0.90092  0.21050  Biso   1.000  H
  O271     1.0000 0.74282  0.83451  0.17489  Biso   1.000  O
  H398     1.0000 0.68380  0.91448  0.31240  Biso   1.000  H
  C288     1.0000 0.69611  0.86232  0.38250  Biso   1.000  C
  H399     1.0000 0.69170  0.89239  0.41041  Biso   1.000  H
  H400     1.0000 0.66028  0.84320  0.37900  Biso   1.000  H
  O272     1.0000 0.73681  0.82430  0.40242  Biso   1.000  O
  O273     1.0000 0.17570  0.26319  0.59758  Biso   1.000  O
  C289     1.0000 0.13768  0.30389  0.61750  Biso   1.000  C
  C290     1.0000 0.11290  0.28772  0.67589  Biso   1.000  C
  H401     1.0000 0.10761  0.30830  0.58959  Biso   1.000  H
  H402     1.0000 0.15680  0.33972  0.62100  Biso   1.000  H
  C291     1.0000 0.15520  0.28020  0.72381  Biso   1.000  C
  O274     1.0000 0.08451  0.23471  0.66850  Biso   1.000  O
  H403     1.0000 0.08552  0.31620  0.68760  Biso   1.000  H
  O275     1.0000 0.18128  0.33489  0.73608  Biso   1.000  O
  C292     1.0000 0.12651  0.26239  0.77908  Biso   1.000  C
  H404     1.0000 0.18389  0.25260  0.71262  Biso   1.000  H
  C293     1.0000 0.05641  0.21480  0.71780  Biso   1.000  C
  C294     1.0000 0.23811  0.33930  0.71841  Biso   1.000  C
  C295     1.0000 0.09581  0.20951  0.76880  Biso   1.000  C
  H405     1.0000 0.09908  0.29141  0.78950  Biso   1.000  H
  O276     1.0000 0.16549  0.25718  0.82511  Biso   1.000  O
  O277     1.0000 0.01172  0.25298  0.73388  Biso   1.000  O
  H406     1.0000 0.04020  0.17788  0.70920  Biso   1.000  H
  C296     1.0000 0.27340  0.36328  0.76819  Biso   1.000  C
  H407     1.0000 0.25189  0.30129  0.70998  Biso   1.000  H
  O278     1.0000 0.24651  0.37210  0.66962  Biso   1.000  O
  H408     1.0000 0.12340  0.18040  0.75951  Biso   1.000  H
  O279     1.0000 0.06548  0.19162  0.81802  Biso   1.000  O
  C297     1.0000 0.95779  0.23501  0.72351  Biso   1.000  C
  C298     1.0000 0.25798  0.42230  0.77822  Biso   1.000  C
  H409     1.0000 0.31330  0.36110  0.75799  Biso   1.000  H
  O280     1.0000 0.26361  0.33039  0.81932  Biso   1.000  O
  C299     1.0000 0.22719  0.42881  0.67688  Biso   1.000  C
  C300     1.0000 0.92230  0.24202  0.77822  Biso   1.000  C
  C301     1.0000 0.92881  0.27281  0.67688  Biso   1.000  C
  H410     1.0000 0.95791  0.19569  0.71111  Biso   1.000  H
  C302     1.0000 0.26499  0.45779  0.72351  Biso   1.000  C
  H411     1.0000 0.21921  0.42461  0.79179  Biso   1.000  H
  O281     1.0000 0.29599  0.44619  0.82178  Biso   1.000  O
  H412     1.0000 0.18771  0.42939  0.68872  Biso   1.000  H
  C303     1.0000 0.23459  0.45569  0.61742  Biso   1.000  C
  C304     1.0000 0.86328  0.22660  0.76819  Biso   1.000  C
  H413     1.0000 0.92461  0.28079  0.79179  Biso   1.000  H
  O282     1.0000 0.94619  0.20401  0.82178  Biso   1.000  O
  O283     1.0000 0.87210  0.25349  0.66962  Biso   1.000  O
  H414     1.0000 0.92939  0.31229  0.68872  Biso   1.000  H
  C305     1.0000 0.95569  0.26541  0.61742  Biso   1.000  C
  O284     1.0000 0.24702  0.51172  0.73388  Biso   1.000  O
  H415     1.0000 0.30431  0.45791  0.71111  Biso   1.000  H
  H416     1.0000 0.21039  0.43662  0.59010  Biso   1.000  H
  H417     1.0000 0.22261  0.49458  0.61940  Biso   1.000  H
  O285     1.0000 0.29099  0.45371  0.59672  Biso   1.000  O
  C306     1.0000 0.83930  0.26189  0.71841  Biso   1.000  C
  H418     1.0000 0.86110  0.18670  0.75799  Biso   1.000  H
  O286     1.0000 0.83039  0.23639  0.81932  Biso   1.000  O
  H419     1.0000 0.93662  0.28961  0.59010  Biso   1.000  H
  H420     1.0000 0.99458  0.27739  0.61940  Biso   1.000  H
  O287     1.0000 0.95371  0.20901  0.59672  Biso   1.000  O
  C307     1.0000 0.28520  0.55641  0.71780  Biso   1.000  C
  H421     1.0000 0.80129  0.24811  0.70998  Biso   1.000  H
  O288     1.0000 0.83489  0.31872  0.73608  Biso   1.000  O
  C308     1.0000 0.29049  0.59581  0.76880  Biso   1.000  C
  H422     1.0000 0.32212  0.54020  0.70920  Biso   1.000  H
  O289     1.0000 0.26529  0.58451  0.66850  Biso   1.000  O
  C309     1.0000 0.78020  0.34480  0.72381  Biso   1.000  C
  C310     1.0000 0.23761  0.62651  0.77908  Biso   1.000  C
  H423     1.0000 0.31960  0.62340  0.75951  Biso   1.000  H
  O290     1.0000 0.30838  0.56548  0.81802  Biso   1.000  O
  C311     1.0000 0.21228  0.61290  0.67589  Biso   1.000  C
  C312     1.0000 0.76239  0.37349  0.77908  Biso   1.000  C
  H424     1.0000 0.75260  0.31611  0.71262  Biso   1.000  H
  C313     1.0000 0.78772  0.38710  0.67589  Biso   1.000  C
  C314     1.0000 0.21980  0.65520  0.72381  Biso   1.000  C
  H425     1.0000 0.20859  0.59908  0.78950  Biso   1.000  H
  O291     1.0000 0.24282  0.66549  0.82511  Biso   1.000  O
  H426     1.0000 0.18380  0.58552  0.68760  Biso   1.000  H
  C315     1.0000 0.19611  0.63768  0.61750  Biso   1.000  C
  C316     1.0000 0.70951  0.40419  0.76880  Biso   1.000  C
  H427     1.0000 0.79141  0.40092  0.78950  Biso   1.000  H
  O292     1.0000 0.75718  0.33451  0.82511  Biso   1.000  O
  H428     1.0000 0.81620  0.41448  0.68760  Biso   1.000  H
  C317     1.0000 0.80389  0.36232  0.61750  Biso   1.000  C
  O293     1.0000 0.73471  0.41549  0.66850  Biso   1.000  O
  O294     1.0000 0.16511  0.68128  0.73608  Biso   1.000  O
  H429     1.0000 0.24740  0.68389  0.71262  Biso   1.000  H
  H430     1.0000 0.19170  0.60761  0.58959  Biso   1.000  H
  H431     1.0000 0.16028  0.65680  0.62100  Biso   1.000  H
  O295     1.0000 0.23681  0.67570  0.59758  Biso   1.000  O
  C318     1.0000 0.71480  0.44359  0.71780  Biso   1.000  C
  H432     1.0000 0.68040  0.37660  0.75951  Biso   1.000  H
  O296     1.0000 0.69162  0.43452  0.81802  Biso   1.000  O
  H433     1.0000 0.80830  0.39239  0.58959  Biso   1.000  H
  H434     1.0000 0.83972  0.34320  0.62100  Biso   1.000  H
  O297     1.0000 0.76319  0.32430  0.59758  Biso   1.000  O
  C319     1.0000 0.16070  0.73811  0.71841  Biso   1.000  C
  O298     1.0000 0.75298  0.48828  0.73388  Biso   1.000  O
  H435     1.0000 0.67788  0.45980  0.70920  Biso   1.000  H
  C320     1.0000 0.13672  0.77340  0.76819  Biso   1.000  C
  H436     1.0000 0.19871  0.75189  0.70998  Biso   1.000  H
  O299     1.0000 0.12790  0.74651  0.66962  Biso   1.000  O
  C321     1.0000 0.73501  0.54221  0.72351  Biso   1.000  C
  C322     1.0000 0.07770  0.75798  0.77822  Biso   1.000  C
  H437     1.0000 0.13890  0.81330  0.75799  Biso   1.000  H
  O300     1.0000 0.16961  0.76361  0.81932  Biso   1.000  O
  C323     1.0000 0.07119  0.72719  0.67688  Biso   1.000  C
  C324     1.0000 0.74202  0.57770  0.77822  Biso   1.000  C
  H438     1.0000 0.69569  0.54209  0.71111  Biso   1.000  H
  C325     1.0000 0.77281  0.57119  0.67688  Biso   1.000  C
  C326     1.0000 0.04221  0.76499  0.72351  Biso   1.000  C
  H439     1.0000 0.07539  0.71921  0.79179  Biso   1.000  H
  O301     1.0000 0.05381  0.79599  0.82178  Biso   1.000  O
  H440     1.0000 0.07061  0.68771  0.68872  Biso   1.000  H
  C327     1.0000 0.04431  0.73459  0.61742  Biso   1.000  C
  C328     1.0000 0.72660  0.63672  0.76819  Biso   1.000  C
  H441     1.0000 0.78079  0.57539  0.79179  Biso   1.000  H
  O302     1.0000 0.70401  0.55381  0.82178  Biso   1.000  O
  H442     1.0000 0.81229  0.57061  0.68872  Biso   1.000  H
  C329     1.0000 0.76541  0.54431  0.61742  Biso   1.000  C
  O303     1.0000 0.75349  0.62790  0.66962  Biso   1.000  O
  H443     1.0000 0.04209  0.80431  0.71111  Biso   1.000  H
  O304     1.0000 0.98828  0.74702  0.73388  Biso   1.000  O
  H444     1.0000 0.06338  0.71039  0.59010  Biso   1.000  H
  H445     1.0000 0.00542  0.72261  0.61940  Biso   1.000  H
  O305     1.0000 0.04629  0.79099  0.59672  Biso   1.000  O
  C330     1.0000 0.76189  0.66070  0.71841  Biso   1.000  C
  H446     1.0000 0.68670  0.63890  0.75799  Biso   1.000  H
  O306     1.0000 0.73639  0.66961  0.81932  Biso   1.000  O
  H447     1.0000 0.78961  0.56338  0.59010  Biso   1.000  H
  H448     1.0000 0.77739  0.50542  0.61940  Biso   1.000  H
  O307     1.0000 0.70901  0.54629  0.59672  Biso   1.000  O
  C331     1.0000 0.94359  0.78520  0.71780  Biso   1.000  C
  H449     1.0000 0.74811  0.69871  0.70998  Biso   1.000  H
  O308     1.0000 0.81872  0.66511  0.73608  Biso   1.000  O
  C332     1.0000 0.90419  0.79049  0.76880  Biso   1.000  C
  H450     1.0000 0.95980  0.82212  0.70920  Biso   1.000  H
  O309     1.0000 0.91549  0.76529  0.66850  Biso   1.000  O
  C333     1.0000 0.84480  0.71980  0.72381  Biso   1.000  C
  C334     1.0000 0.87349  0.73761  0.77908  Biso   1.000  C
  H451     1.0000 0.87660  0.81960  0.75951  Biso   1.000  H
  O310     1.0000 0.93452  0.80838  0.81802  Biso   1.000  O
  C335     1.0000 0.88710  0.71228  0.67589  Biso   1.000  C
  H452     1.0000 0.81611  0.74740  0.71262  Biso   1.000  H
  H453     1.0000 0.90092  0.70859  0.78950  Biso   1.000  H
  O311     1.0000 0.83451  0.74282  0.82511  Biso   1.000  O
  H454     1.0000 0.91448  0.68380  0.68760  Biso   1.000  H
  C336     1.0000 0.86232  0.69611  0.61750  Biso   1.000  C
  H455     1.0000 0.89239  0.69170  0.58959  Biso   1.000  H
  H456     1.0000 0.84320  0.66028  0.62100  Biso   1.000  H
  O312     1.0000 0.82430  0.73681  0.59758  Biso   1.000  O
  O313     1.0000 0.17570  0.26319  0.59758  Biso   1.000  O
  C337     1.0000 0.13768  0.30389  0.61750  Biso   1.000  C
  C338     1.0000 0.11290  0.28772  0.67589  Biso   1.000  C
  H457     1.0000 0.10761  0.30830  0.58959  Biso   1.000  H
  H458     1.0000 0.15680  0.33972  0.62100  Biso   1.000  H
  C339     1.0000 0.15520  0.28020  0.72381  Biso   1.000  C
  O314     1.0000 0.08451  0.23471  0.66850  Biso   1.000  O
  H459     1.0000 0.08552  0.31620  0.68760  Biso   1.000  H
  O315     1.0000 0.18128  0.33489  0.73608  Biso   1.000  O
  C340     1.0000 0.12651  0.26239  0.77908  Biso   1.000  C
  H460     1.0000 0.18389  0.25260  0.71262  Biso   1.000  H
  C341     1.0000 0.05641  0.21480  0.71780  Biso   1.000  C
  C342     1.0000 0.23811  0.33930  0.71841  Biso   1.000  C
  C343     1.0000 0.09581  0.20951  0.76880  Biso   1.000  C
  H461     1.0000 0.09908  0.29141  0.78950  Biso   1.000  H
  O316     1.0000 0.16549  0.25718  0.82511  Biso   1.000  O
  O317     1.0000 0.01172  0.25298  0.73388  Biso   1.000  O
  H462     1.0000 0.04020  0.17788  0.70920  Biso   1.000  H
  C344     1.0000 0.27340  0.36328  0.76819  Biso   1.000  C
  H463     1.0000 0.25189  0.30129  0.70998  Biso   1.000  H
  O318     1.0000 0.24651  0.37210  0.66962  Biso   1.000  O
  H464     1.0000 0.12340  0.18040  0.75951  Biso   1.000  H
  O319     1.0000 0.06548  0.19162  0.81802  Biso   1.000  O
  C345     1.0000 0.95779  0.23501  0.72351  Biso   1.000  C
  C346     1.0000 0.25798  0.42230  0.77822  Biso   1.000  C
  H465     1.0000 0.31330  0.36110  0.75799  Biso   1.000  H
  O320     1.0000 0.26361  0.33039  0.81932  Biso   1.000  O
  C347     1.0000 0.22719  0.42881  0.67688  Biso   1.000  C
  C348     1.0000 0.92230  0.24202  0.77822  Biso   1.000  C
  C349     1.0000 0.92881  0.27281  0.67688  Biso   1.000  C
  H466     1.0000 0.95791  0.19569  0.71111  Biso   1.000  H
  C350     1.0000 0.26499  0.45779  0.72351  Biso   1.000  C
  H467     1.0000 0.21921  0.42461  0.79179  Biso   1.000  H
  O321     1.0000 0.29599  0.44619  0.82178  Biso   1.000  O
  H468     1.0000 0.18771  0.42939  0.68872  Biso   1.000  H
  C351     1.0000 0.23459  0.45569  0.61742  Biso   1.000  C
  C352     1.0000 0.86328  0.22660  0.76819  Biso   1.000  C
  H469     1.0000 0.92461  0.28079  0.79179  Biso   1.000  H
  O322     1.0000 0.94619  0.20401  0.82178  Biso   1.000  O
  O323     1.0000 0.87210  0.25349  0.66962  Biso   1.000  O
  H470     1.0000 0.92939  0.31229  0.68872  Biso   1.000  H
  C353     1.0000 0.95569  0.26541  0.61742  Biso   1.000  C
  O324     1.0000 0.24702  0.51172  0.73388  Biso   1.000  O
  H471     1.0000 0.30431  0.45791  0.71111  Biso   1.000  H
  H472     1.0000 0.21039  0.43662  0.59010  Biso   1.000  H
  H473     1.0000 0.22261  0.49458  0.61940  Biso   1.000  H
  O325     1.0000 0.29099  0.45371  0.59672  Biso   1.000  O
  C354     1.0000 0.83930  0.26189  0.71841  Biso   1.000  C
  H474     1.0000 0.86110  0.18670  0.75799  Biso   1.000  H
  O326     1.0000 0.83039  0.23639  0.81932  Biso   1.000  O
  H475     1.0000 0.93662  0.28961  0.59010  Biso   1.000  H
  H476     1.0000 0.99458  0.27739  0.61940  Biso   1.000  H
  O327     1.0000 0.95371  0.20901  0.59672  Biso   1.000  O
  C355     1.0000 0.28520  0.55641  0.71780  Biso   1.000  C
  H477     1.0000 0.80129  0.24811  0.70998  Biso   1.000  H
  O328     1.0000 0.83489  0.31872  0.73608  Biso   1.000  O
  C356     1.0000 0.29049  0.59581  0.76880  Biso   1.000  C
  H478     1.0000 0.32212  0.54020  0.70920  Biso   1.000  H
  O329     1.0000 0.26529  0.58451  0.66850  Biso   1.000  O
  C357     1.0000 0.78020  0.34480  0.72381  Biso   1.000  C
  C358     1.0000 0.23761  0.62651  0.77908  Biso   1.000  C
  H479     1.0000 0.31960  0.62340  0.75951  Biso   1.000  H
  O330     1.0000 0.30838  0.56548  0.81802  Biso   1.000  O
  C359     1.0000 0.21228  0.61290  0.67589  Biso   1.000  C
  C360     1.0000 0.76239  0.37349  0.77908  Biso   1.000  C
  H480     1.0000 0.75260  0.31611  0.71262  Biso   1.000  H
  C361     1.0000 0.78772  0.38710  0.67589  Biso   1.000  C
  C362     1.0000 0.21980  0.65520  0.72381  Biso   1.000  C
  H481     1.0000 0.20859  0.59908  0.78950  Biso   1.000  H
  O331     1.0000 0.24282  0.66549  0.82511  Biso   1.000  O
  H482     1.0000 0.18380  0.58552  0.68760  Biso   1.000  H
  C363     1.0000 0.19611  0.63768  0.61750  Biso   1.000  C
  C364     1.0000 0.70951  0.40419  0.76880  Biso   1.000  C
  H483     1.0000 0.79141  0.40092  0.78950  Biso   1.000  H
  O332     1.0000 0.75718  0.33451  0.82511  Biso   1.000  O
  H484     1.0000 0.81620  0.41448  0.68760  Biso   1.000  H
  C365     1.0000 0.80389  0.36232  0.61750  Biso   1.000  C
  O333     1.0000 0.73471  0.41549  0.66850  Biso   1.000  O
  O334     1.0000 0.16511  0.68128  0.73608  Biso   1.000  O
  H485     1.0000 0.24740  0.68389  0.71262  Biso   1.000  H
  H486     1.0000 0.19170  0.60761  0.58959  Biso   1.000  H
  H487     1.0000 0.16028  0.65680  0.62100  Biso   1.000  H
  O335     1.0000 0.23681  0.67570  0.59758  Biso   1.000  O
  C366     1.0000 0.71480  0.44359  0.71780  Biso   1.000  C
  H488     1.0000 0.68040  0.37660  0.75951  Biso   1.000  H
  O336     1.0000 0.69162  0.43452  0.81802  Biso   1.000  O
  H489     1.0000 0.80830  0.39239  0.58959  Biso   1.000  H
  H490     1.0000 0.83972  0.34320  0.62100  Biso   1.000  H
  O337     1.0000 0.76319  0.32430  0.59758  Biso   1.000  O
  C367     1.0000 0.16070  0.73811  0.71841  Biso   1.000  C
  O338     1.0000 0.75298  0.48828  0.73388  Biso   1.000  O
  H491     1.0000 0.67788  0.45980  0.70920  Biso   1.000  H
  C368     1.0000 0.13672  0.77340  0.76819  Biso   1.000  C
  H492     1.0000 0.19871  0.75189  0.70998  Biso   1.000  H
  O339     1.0000 0.12790  0.74651  0.66962  Biso   1.000  O
  C369     1.0000 0.73501  0.54221  0.72351  Biso   1.000  C
  C370     1.0000 0.07770  0.75798  0.77822  Biso   1.000  C
  H493     1.0000 0.13890  0.81330  0.75799  Biso   1.000  H
  O340     1.0000 0.16961  0.76361  0.81932  Biso   1.000  O
  C371     1.0000 0.07119  0.72719  0.67688  Biso   1.000  C
  C372     1.0000 0.74202  0.57770  0.77822  Biso   1.000  C
  H494     1.0000 0.69569  0.54209  0.71111  Biso   1.000  H
  C373     1.0000 0.77281  0.57119  0.67688  Biso   1.000  C
  C374     1.0000 0.04221  0.76499  0.72351  Biso   1.000  C
  H495     1.0000 0.07539  0.71921  0.79179  Biso   1.000  H
  O341     1.0000 0.05381  0.79599  0.82178  Biso   1.000  O
  H496     1.0000 0.07061  0.68771  0.68872  Biso   1.000  H
  C375     1.0000 0.04431  0.73459  0.61742  Biso   1.000  C
  C376     1.0000 0.72660  0.63672  0.76819  Biso   1.000  C
  H497     1.0000 0.78079  0.57539  0.79179  Biso   1.000  H
  O342     1.0000 0.70401  0.55381  0.82178  Biso   1.000  O
  H498     1.0000 0.81229  0.57061  0.68872  Biso   1.000  H
  C377     1.0000 0.76541  0.54431  0.61742  Biso   1.000  C
  O343     1.0000 0.75349  0.62790  0.66962  Biso   1.000  O
  H499     1.0000 0.04209  0.80431  0.71111  Biso   1.000  H
  O344     1.0000 0.98828  0.74702  0.73388  Biso   1.000  O
  H500     1.0000 0.06338  0.71039  0.59010  Biso   1.000  H
  H501     1.0000 0.00542  0.72261  0.61940  Biso   1.000  H
  O345     1.0000 0.04629  0.79099  0.59672  Biso   1.000  O
  C378     1.0000 0.76189  0.66070  0.71841  Biso   1.000  C
  H502     1.0000 0.68670  0.63890  0.75799  Biso   1.000  H
  O346     1.0000 0.73639  0.66961  0.81932  Biso   1.000  O
  H503     1.0000 0.78961  0.56338  0.59010  Biso   1.000  H
  H504     1.0000 0.77739  0.50542  0.61940  Biso   1.000  H
  O347     1.0000 0.70901  0.54629  0.59672  Biso   1.000  O
  C379     1.0000 0.94359  0.78520  0.71780  Biso   1.000  C
  H505     1.0000 0.74811  0.69871  0.70998  Biso   1.000  H
  O348     1.0000 0.81872  0.66511  0.73608  Biso   1.000  O
  C380     1.0000 0.90419  0.79049  0.76880  Biso   1.000  C
  H506     1.0000 0.95980  0.82212  0.70920  Biso   1.000  H
  O349     1.0000 0.91549  0.76529  0.66850  Biso   1.000  O
  C381     1.0000 0.84480  0.71980  0.72381  Biso   1.000  C
  C382     1.0000 0.87349  0.73761  0.77908  Biso   1.000  C
  H507     1.0000 0.87660  0.81960  0.75951  Biso   1.000  H
  O350     1.0000 0.93452  0.80838  0.81802  Biso   1.000  O
  C383     1.0000 0.88710  0.71228  0.67589  Biso   1.000  C
  H508     1.0000 0.81611  0.74740  0.71262  Biso   1.000  H
  H509     1.0000 0.90092  0.70859  0.78950  Biso   1.000  H
  O351     1.0000 0.83451  0.74282  0.82511  Biso   1.000  O
  H510     1.0000 0.91448  0.68380  0.68760  Biso   1.000  H
  C384     1.0000 0.86232  0.69611  0.61750  Biso   1.000  C
  H511     1.0000 0.89239  0.69170  0.58959  Biso   1.000  H
  H512     1.0000 0.84320  0.66028  0.62100  Biso   1.000  H
  O352     1.0000 0.82430  0.73681  0.59758  Biso   1.000  O
  O353     1.0000 0.34740  0.24958  0.84512  Biso   1.000  O
  C385     1.0000 0.33720  0.21161  0.89170  Biso   1.000  C
  C386     1.0000 0.36311  0.23190  0.94620  Biso   1.000  C
  C387     1.0000 0.27281  0.20380  0.89978  Biso   1.000  C
  H513     1.0000 0.35370  0.17511  0.88189  Biso   1.000  H
  O354     1.0000 0.42238  0.23400  0.93751  Biso   1.000  O
  C388     1.0000 0.34959  0.19128  0.99620  Biso   1.000  C
  H514     1.0000 0.34892  0.26949  0.95540  Biso   1.000  H
  C389     1.0000 0.26159  0.16629  0.95160  Biso   1.000  C
  H515     1.0000 0.25521  0.24051  0.90609  Biso   1.000  H
  O355     1.0000 0.25000  0.17889  0.84879  Biso   1.000  O
  C390     1.0000 0.44821  0.28440  0.95052  Biso   1.000  C
  O356     1.0000 0.28969  0.18758  0.99978  Biso   1.000  O
  H516     1.0000 0.36551  0.15419  0.98799  Biso   1.000  H
  C391     1.0000 0.37000  0.21190  0.05510  Biso   1.000  C
  H517     1.0000 0.22110  0.16570  0.95951  Biso   1.000  H
  O357     1.0000 0.27949  0.11232  0.93781  Biso   1.000  O
  C392     1.0000 0.48442  0.30389  0.89961  Biso   1.000  C
  H518     1.0000 0.41881  0.31258  0.95700  Biso   1.000  H
  O358     1.0000 0.48299  0.28188  0.00130  Biso   1.000  O
  H519     1.0000 0.35240  0.18989  0.08539  Biso   1.000  H
  H520     1.0000 0.41028  0.20678  0.05791  Biso   1.000  H
  O359     1.0000 0.35669  0.26949  0.06292  Biso   1.000  O
  H521     1.0000 0.40969  0.22089  0.05320  Biso   1.000  H
  H522     1.0000 0.34971  0.24572  0.06599  Biso   1.000  H
  O360     1.0000 0.36059  0.16902  0.09680  Biso   1.000  O
  C393     1.0000 0.23908  0.06838  0.94672  Biso   1.000  C
  C394     1.0000 0.53318  0.26428  0.88941  Biso   1.000  C
  H523     1.0000 0.49861  0.34182  0.90722  Biso   1.000  H
  O361     1.0000 0.45002  0.30418  0.84672  Biso   1.000  O
  C395     1.0000 0.52940  0.24168  0.99551  Biso   1.000  C
  C396     1.0000 0.23572  0.03318  0.88941  Biso   1.000  C
  C397     1.0000 0.25832  0.02940  0.99551  Biso   1.000  C
  H524     1.0000 0.20228  0.08451  0.95579  Biso   1.000  H
  C398     1.0000 0.56838  0.26092  0.94672  Biso   1.000  C
  H525     1.0000 0.51911  0.22698  0.87908  Biso   1.000  H
  O362     1.0000 0.56830  0.28541  0.84430  Biso   1.000  O
  H526     1.0000 0.51449  0.20430  0.98691  Biso   1.000  H
  C399     1.0000 0.55759  0.24160  0.05419  Biso   1.000  C
  H527     1.0000 0.27302  0.01911  0.87908  Biso   1.000  H
  O363     1.0000 0.21459  0.06830  0.84430  Biso   1.000  O
  C400     1.0000 0.19611  0.98442  0.89961  Biso   1.000  C
  H528     1.0000 0.29570  0.01449  0.98691  Biso   1.000  H
  O364     1.0000 0.21812  0.98299  0.00130  Biso   1.000  O
  C401     1.0000 0.25840  0.05759  0.05419  Biso   1.000  C
  O365     1.0000 0.61232  0.22051  0.93781  Biso   1.000  O
  H529     1.0000 0.58451  0.29772  0.95579  Biso   1.000  H
  H530     1.0000 0.52919  0.24072  0.08418  Biso   1.000  H
  H531     1.0000 0.58060  0.20821  0.05791  Biso   1.000  H
  O366     1.0000 0.59148  0.28969  0.06128  Biso   1.000  O
  H532     1.0000 0.59358  0.22261  0.05169  Biso   1.000  H
  H533     1.0000 0.56418  0.27991  0.06681  Biso   1.000  H
  O367     1.0000 0.52222  0.21329  0.09460  Biso   1.000  O
  C402     1.0000 0.21560  0.94821  0.95052  Biso   1.000  C
  H534     1.0000 0.15818  0.99861  0.90722  Biso   1.000  H
  O368     1.0000 0.19582  0.95002  0.84672  Biso   1.000  O
  H535     1.0000 0.25928  0.02919  0.08418  Biso   1.000  H
  H536     1.0000 0.29179  0.08060  0.05791  Biso   1.000  H
  O369     1.0000 0.21031  0.09148  0.06128  Biso   1.000  O
  H537     1.0000 0.27739  0.09358  0.05169  Biso   1.000  H
  H538     1.0000 0.22009  0.06418  0.06681  Biso   1.000  H
  O370     1.0000 0.28671  0.02222  0.09460  Biso   1.000  O
  C403     1.0000 0.66629  0.23841  0.95160  Biso   1.000  C
  O371     1.0000 0.26600  0.92238  0.93751  Biso   1.000  O
  H539     1.0000 0.18742  0.91881  0.95700  Biso   1.000  H
  H540     1.0000 0.66570  0.27890  0.95951  Biso   1.000  H
  C404     1.0000 0.70380  0.22719  0.89978  Biso   1.000  C
  O372     1.0000 0.68758  0.21031  0.99978  Biso   1.000  O
  C405     1.0000 0.26810  0.86311  0.94620  Biso   1.000  C
  H541     1.0000 0.74051  0.24479  0.90609  Biso   1.000  H
  C406     1.0000 0.71161  0.16280  0.89170  Biso   1.000  C
  O373     1.0000 0.67889  0.25000  0.84879  Biso   1.000  O
  C407     1.0000 0.69128  0.15041  0.99620  Biso   1.000  C
  C408     1.0000 0.28839  0.83720  0.89170  Biso   1.000  C
  C409     1.0000 0.30872  0.84959  0.99620  Biso   1.000  C
  H542     1.0000 0.23051  0.84892  0.95540  Biso   1.000  H
  H543     1.0000 0.67511  0.14630  0.88189  Biso   1.000  H
  C410     1.0000 0.73190  0.13689  0.94620  Biso   1.000  C
  O374     1.0000 0.74958  0.15260  0.84512  Biso   1.000  O
  H544     1.0000 0.65419  0.13449  0.98799  Biso   1.000  H
  C411     1.0000 0.71190  0.13000  0.05510  Biso   1.000  C
  C412     1.0000 0.29620  0.77281  0.89978  Biso   1.000  C
  H545     1.0000 0.32489  0.85370  0.88189  Biso   1.000  H
  O375     1.0000 0.25042  0.84740  0.84512  Biso   1.000  O
  O376     1.0000 0.31242  0.78969  0.99978  Biso   1.000  O
  H546     1.0000 0.34581  0.86551  0.98799  Biso   1.000  H
  C413     1.0000 0.28810  0.87000  0.05510  Biso   1.000  C
  H547     1.0000 0.76949  0.15108  0.95540  Biso   1.000  H
  O377     1.0000 0.73400  0.07762  0.93751  Biso   1.000  O
  H548     1.0000 0.68989  0.14760  0.08539  Biso   1.000  H
  H549     1.0000 0.70678  0.08972  0.05791  Biso   1.000  H
  O378     1.0000 0.76949  0.14331  0.06292  Biso   1.000  O
  H550     1.0000 0.72089  0.09031  0.05320  Biso   1.000  H
  H551     1.0000 0.74572  0.15029  0.06599  Biso   1.000  H
  O379     1.0000 0.66902  0.13941  0.09680  Biso   1.000  O
  C414     1.0000 0.33371  0.76159  0.95160  Biso   1.000  C
  H552     1.0000 0.25949  0.75521  0.90609  Biso   1.000  H
  O380     1.0000 0.32111  0.75000  0.84879  Biso   1.000  O
  H553     1.0000 0.31011  0.85240  0.08539  Biso   1.000  H
  H554     1.0000 0.29322  0.91028  0.05791  Biso   1.000  H
  O381     1.0000 0.23051  0.85669  0.06292  Biso   1.000  O
  H555     1.0000 0.27911  0.90969  0.05320  Biso   1.000  H
  H556     1.0000 0.25428  0.84971  0.06599  Biso   1.000  H
  O382     1.0000 0.33098  0.86059  0.09680  Biso   1.000  O
  C415     1.0000 0.78440  0.05179  0.95052  Biso   1.000  C
  H557     1.0000 0.33430  0.72110  0.95951  Biso   1.000  H
  O383     1.0000 0.38768  0.77949  0.93781  Biso   1.000  O
  H558     1.0000 0.81258  0.08119  0.95700  Biso   1.000  H
  C416     1.0000 0.80389  0.01558  0.89961  Biso   1.000  C
  O384     1.0000 0.78188  0.01701  0.00130  Biso   1.000  O
  C417     1.0000 0.43162  0.73908  0.94672  Biso   1.000  C
  H559     1.0000 0.84182  0.00139  0.90722  Biso   1.000  H
  O385     1.0000 0.80418  0.04998  0.84672  Biso   1.000  O
  C418     1.0000 0.76428  0.96682  0.88941  Biso   1.000  C
  C419     1.0000 0.74168  0.97060  0.99551  Biso   1.000  C
  C420     1.0000 0.46682  0.73572  0.88941  Biso   1.000  C
  C421     1.0000 0.47060  0.75832  0.99551  Biso   1.000  C
  H560     1.0000 0.41549  0.70228  0.95579  Biso   1.000  H
  H561     1.0000 0.72698  0.98089  0.87908  Biso   1.000  H
  C422     1.0000 0.76092  0.93162  0.94672  Biso   1.000  C
  O386     1.0000 0.78541  0.93170  0.84430  Biso   1.000  O
  H562     1.0000 0.70430  0.98551  0.98691  Biso   1.000  H
  C423     1.0000 0.74160  0.94241  0.05419  Biso   1.000  C
  C424     1.0000 0.51558  0.69611  0.89961  Biso   1.000  C
  H563     1.0000 0.48089  0.77302  0.87908  Biso   1.000  H
  O387     1.0000 0.43170  0.71459  0.84430  Biso   1.000  O
  H564     1.0000 0.48551  0.79570  0.98691  Biso   1.000  H
  O388     1.0000 0.51701  0.71812  0.00130  Biso   1.000  O
  C425     1.0000 0.44241  0.75840  0.05419  Biso   1.000  C
  H565     1.0000 0.79772  0.91549  0.95579  Biso   1.000  H
  O389     1.0000 0.72051  0.88768  0.93781  Biso   1.000  O
  H566     1.0000 0.74072  0.97081  0.08418  Biso   1.000  H
  H567     1.0000 0.70821  0.91940  0.05791  Biso   1.000  H
  O390     1.0000 0.78969  0.90852  0.06128  Biso   1.000  O
  H568     1.0000 0.72261  0.90642  0.05169  Biso   1.000  H
  H569     1.0000 0.77991  0.93582  0.06681  Biso   1.000  H
  O391     1.0000 0.71329  0.97778  0.09460  Biso   1.000  O
  C426     1.0000 0.55179  0.71560  0.95052  Biso   1.000  C
  H570     1.0000 0.50139  0.65818  0.90722  Biso   1.000  H
  O392     1.0000 0.54998  0.69582  0.84672  Biso   1.000  O
  H571     1.0000 0.47081  0.75928  0.08418  Biso   1.000  H
  H572     1.0000 0.41940  0.79179  0.05791  Biso   1.000  H
  O393     1.0000 0.40852  0.71031  0.06128  Biso   1.000  O
  H573     1.0000 0.40642  0.77739  0.05169  Biso   1.000  H
  H574     1.0000 0.43582  0.72009  0.06681  Biso   1.000  H
  O394     1.0000 0.47778  0.78671  0.09460  Biso   1.000  O
  C427     1.0000 0.73841  0.83371  0.95160  Biso   1.000  C
  O395     1.0000 0.57762  0.76600  0.93751  Biso   1.000  O
  H575     1.0000 0.58119  0.68742  0.95700  Biso   1.000  H
  C428     1.0000 0.72719  0.79620  0.89978  Biso   1.000  C
  H576     1.0000 0.77890  0.83430  0.95951  Biso   1.000  H
  O396     1.0000 0.71031  0.81242  0.99978  Biso   1.000  O
  C429     1.0000 0.63689  0.76810  0.94620  Biso   1.000  C
  C430     1.0000 0.66280  0.78839  0.89170  Biso   1.000  C
  H577     1.0000 0.74479  0.75949  0.90609  Biso   1.000  H
  O397     1.0000 0.75000  0.82111  0.84879  Biso   1.000  O
  C431     1.0000 0.65041  0.80872  0.99620  Biso   1.000  C
  H578     1.0000 0.65108  0.73051  0.95540  Biso   1.000  H
  H579     1.0000 0.64630  0.82489  0.88189  Biso   1.000  H
  O398     1.0000 0.65260  0.75042  0.84512  Biso   1.000  O
  H580     1.0000 0.63449  0.84581  0.98799  Biso   1.000  H
  C432     1.0000 0.63000  0.78810  0.05510  Biso   1.000  C
  H581     1.0000 0.64760  0.81011  0.08539  Biso   1.000  H
  H582     1.0000 0.58972  0.79322  0.05791  Biso   1.000  H
  O399     1.0000 0.64331  0.73051  0.06292  Biso   1.000  O
  H583     1.0000 0.59031  0.77911  0.05320  Biso   1.000  H
  H584     1.0000 0.65029  0.75428  0.06599  Biso   1.000  H
  O400     1.0000 0.63941  0.83098  0.09680  Biso   1.000  O
  O401     1.0000 0.34740  0.24958  0.84512  Biso   1.000  O
  C433     1.0000 0.33720  0.21161  0.89170  Biso   1.000  C
  C434     1.0000 0.36311  0.23190  0.94620  Biso   1.000  C
  C435     1.0000 0.27281  0.20380  0.89978  Biso   1.000  C
  H585     1.0000 0.35370  0.17511  0.88189  Biso   1.000  H
  O402     1.0000 0.42238  0.23400  0.93751  Biso   1.000  O
  C436     1.0000 0.34959  0.19128  0.99620  Biso   1.000  C
  H586     1.0000 0.34892  0.26949  0.95540  Biso   1.000  H
  C437     1.0000 0.26159  0.16629  0.95160  Biso   1.000  C
  H587     1.0000 0.25521  0.24051  0.90609  Biso   1.000  H
  O403     1.0000 0.25000  0.17889  0.84879  Biso   1.000  O
  C438     1.0000 0.44821  0.28440  0.95052  Biso   1.000  C
  O404     1.0000 0.28969  0.18758  0.99978  Biso   1.000  O
  H588     1.0000 0.36551  0.15419  0.98799  Biso   1.000  H
  C439     1.0000 0.37000  0.21190  0.05510  Biso   1.000  C
  H589     1.0000 0.22110  0.16570  0.95951  Biso   1.000  H
  O405     1.0000 0.27949  0.11232  0.93781  Biso   1.000  O
  C440     1.0000 0.48442  0.30389  0.89961  Biso   1.000  C
  H590     1.0000 0.41881  0.31258  0.95700  Biso   1.000  H
  O406     1.0000 0.48299  0.28188  0.00130  Biso   1.000  O
  H591     1.0000 0.35240  0.18989  0.08539  Biso   1.000  H
  H592     1.0000 0.41028  0.20678  0.05791  Biso   1.000  H
  O407     1.0000 0.35669  0.26949  0.06292  Biso   1.000  O
  H593     1.0000 0.40969  0.22089  0.05320  Biso   1.000  H
  H594     1.0000 0.34971  0.24572  0.06599  Biso   1.000  H
  O408     1.0000 0.36059  0.16902  0.09680  Biso   1.000  O
  C441     1.0000 0.23908  0.06838  0.94672  Biso   1.000  C
  C442     1.0000 0.53318  0.26428  0.88941  Biso   1.000  C
  H595     1.0000 0.49861  0.34182  0.90722  Biso   1.000  H
  O409     1.0000 0.45002  0.30418  0.84672  Biso   1.000  O
  C443     1.0000 0.52940  0.24168  0.99551  Biso   1.000  C
  C444     1.0000 0.23572  0.03318  0.88941  Biso   1.000  C
  C445     1.0000 0.25832  0.02940  0.99551  Biso   1.000  C
  H596     1.0000 0.20228  0.08451  0.95579  Biso   1.000  H
  C446     1.0000 0.56838  0.26092  0.94672  Biso   1.000  C
  H597     1.0000 0.51911  0.22698  0.87908  Biso   1.000  H
  O410     1.0000 0.56830  0.28541  0.84430  Biso   1.000  O
  H598     1.0000 0.51449  0.20430  0.98691  Biso   1.000  H
  C447     1.0000 0.55759  0.24160  0.05419  Biso   1.000  C
  H599     1.0000 0.27302  0.01911  0.87908  Biso   1.000  H
  O411     1.0000 0.21459  0.06830  0.84430  Biso   1.000  O
  C448     1.0000 0.19611  0.98442  0.89961  Biso   1.000  C
  H600     1.0000 0.29570  0.01449  0.98691  Biso   1.000  H
  O412     1.0000 0.21812  0.98299  0.00130  Biso   1.000  O
  C449     1.0000 0.25840  0.05759  0.05419  Biso   1.000  C
  O413     1.0000 0.61232  0.22051  0.93781  Biso   1.000  O
  H601     1.0000 0.58451  0.29772  0.95579  Biso   1.000  H
  H602     1.0000 0.52919  0.24072  0.08418  Biso   1.000  H
  H603     1.0000 0.58060  0.20821  0.05791  Biso   1.000  H
  O414     1.0000 0.59148  0.28969  0.06128  Biso   1.000  O
  H604     1.0000 0.59358  0.22261  0.05169  Biso   1.000  H
  H605     1.0000 0.56418  0.27991  0.06681  Biso   1.000  H
  O415     1.0000 0.52222  0.21329  0.09460  Biso   1.000  O
  C450     1.0000 0.21560  0.94821  0.95052  Biso   1.000  C
  H606     1.0000 0.15818  0.99861  0.90722  Biso   1.000  H
  O416     1.0000 0.19582  0.95002  0.84672  Biso   1.000  O
  H607     1.0000 0.25928  0.02919  0.08418  Biso   1.000  H
  H608     1.0000 0.29179  0.08060  0.05791  Biso   1.000  H
  O417     1.0000 0.21031  0.09148  0.06128  Biso   1.000  O
  H609     1.0000 0.27739  0.09358  0.05169  Biso   1.000  H
  H610     1.0000 0.22009  0.06418  0.06681  Biso   1.000  H
  O418     1.0000 0.28671  0.02222  0.09460  Biso   1.000  O
  C451     1.0000 0.66629  0.23841  0.95160  Biso   1.000  C
  O419     1.0000 0.26600  0.92238  0.93751  Biso   1.000  O
  H611     1.0000 0.18742  0.91881  0.95700  Biso   1.000  H
  H612     1.0000 0.66570  0.27890  0.95951  Biso   1.000  H
  C452     1.0000 0.70380  0.22719  0.89978  Biso   1.000  C
  O420     1.0000 0.68758  0.21031  0.99978  Biso   1.000  O
  C453     1.0000 0.26810  0.86311  0.94620  Biso   1.000  C
  H613     1.0000 0.74051  0.24479  0.90609  Biso   1.000  H
  C454     1.0000 0.71161  0.16280  0.89170  Biso   1.000  C
  O421     1.0000 0.67889  0.25000  0.84879  Biso   1.000  O
  C455     1.0000 0.69128  0.15041  0.99620  Biso   1.000  C
  C456     1.0000 0.28839  0.83720  0.89170  Biso   1.000  C
  C457     1.0000 0.30872  0.84959  0.99620  Biso   1.000  C
  H614     1.0000 0.23051  0.84892  0.95540  Biso   1.000  H
  H615     1.0000 0.67511  0.14630  0.88189  Biso   1.000  H
  C458     1.0000 0.73190  0.13689  0.94620  Biso   1.000  C
  O422     1.0000 0.74958  0.15260  0.84512  Biso   1.000  O
  H616     1.0000 0.65419  0.13449  0.98799  Biso   1.000  H
  C459     1.0000 0.71190  0.13000  0.05510  Biso   1.000  C
  C460     1.0000 0.29620  0.77281  0.89978  Biso   1.000  C
  H617     1.0000 0.32489  0.85370  0.88189  Biso   1.000  H
  O423     1.0000 0.25042  0.84740  0.84512  Biso   1.000  O
  O424     1.0000 0.31242  0.78969  0.99978  Biso   1.000  O
  H618     1.0000 0.34581  0.86551  0.98799  Biso   1.000  H
  C461     1.0000 0.28810  0.87000  0.05510  Biso   1.000  C
  H619     1.0000 0.76949  0.15108  0.95540  Biso   1.000  H
  O425     1.0000 0.73400  0.07762  0.93751  Biso   1.000  O
  H620     1.0000 0.68989  0.14760  0.08539  Biso   1.000  H
  H621     1.0000 0.70678  0.08972  0.05791  Biso   1.000  H
  O426     1.0000 0.76949  0.14331  0.06292  Biso   1.000  O
  H622     1.0000 0.72089  0.09031  0.05320  Biso   1.000  H
  H623     1.0000 0.74572  0.15029  0.06599  Biso   1.000  H
  O427     1.0000 0.66902  0.13941  0.09680  Biso   1.000  O
  C462     1.0000 0.33371  0.76159  0.95160  Biso   1.000  C
  H624     1.0000 0.25949  0.75521  0.90609  Biso   1.000  H
  O428     1.0000 0.32111  0.75000  0.84879  Biso   1.000  O
  H625     1.0000 0.31011  0.85240  0.08539  Biso   1.000  H
  H626     1.0000 0.29322  0.91028  0.05791  Biso   1.000  H
  O429     1.0000 0.23051  0.85669  0.06292  Biso   1.000  O
  H627     1.0000 0.27911  0.90969  0.05320  Biso   1.000  H
  H628     1.0000 0.25428  0.84971  0.06599  Biso   1.000  H
  O430     1.0000 0.33098  0.86059  0.09680  Biso   1.000  O
  C463     1.0000 0.78440  0.05179  0.95052  Biso   1.000  C
  H629     1.0000 0.33430  0.72110  0.95951  Biso   1.000  H
  O431     1.0000 0.38768  0.77949  0.93781  Biso   1.000  O
  H630     1.0000 0.81258  0.08119  0.95700  Biso   1.000  H
  C464     1.0000 0.80389  0.01558  0.89961  Biso   1.000  C
  O432     1.0000 0.78188  0.01701  0.00130  Biso   1.000  O
  C465     1.0000 0.43162  0.73908  0.94672  Biso   1.000  C
  H631     1.0000 0.84182  0.00139  0.90722  Biso   1.000  H
  O433     1.0000 0.80418  0.04998  0.84672  Biso   1.000  O
  C466     1.0000 0.76428  0.96682  0.88941  Biso   1.000  C
  C467     1.0000 0.74168  0.97060  0.99551  Biso   1.000  C
  C468     1.0000 0.46682  0.73572  0.88941  Biso   1.000  C
  C469     1.0000 0.47060  0.75832  0.99551  Biso   1.000  C
  H632     1.0000 0.41549  0.70228  0.95579  Biso   1.000  H
  H633     1.0000 0.72698  0.98089  0.87908  Biso   1.000  H
  C470     1.0000 0.76092  0.93162  0.94672  Biso   1.000  C
  O434     1.0000 0.78541  0.93170  0.84430  Biso   1.000  O
  H634     1.0000 0.70430  0.98551  0.98691  Biso   1.000  H
  C471     1.0000 0.74160  0.94241  0.05419  Biso   1.000  C
  C472     1.0000 0.51558  0.69611  0.89961  Biso   1.000  C
  H635     1.0000 0.48089  0.77302  0.87908  Biso   1.000  H
  O435     1.0000 0.43170  0.71459  0.84430  Biso   1.000  O
  H636     1.0000 0.48551  0.79570  0.98691  Biso   1.000  H
  O436     1.0000 0.51701  0.71812  0.00130  Biso   1.000  O
  C473     1.0000 0.44241  0.75840  0.05419  Biso   1.000  C
  H637     1.0000 0.79772  0.91549  0.95579  Biso   1.000  H
  O437     1.0000 0.72051  0.88768  0.93781  Biso   1.000  O
  H638     1.0000 0.74072  0.97081  0.08418  Biso   1.000  H
  H639     1.0000 0.70821  0.91940  0.05791  Biso   1.000  H
  O438     1.0000 0.78969  0.90852  0.06128  Biso   1.000  O
  H640     1.0000 0.72261  0.90642  0.05169  Biso   1.000  H
  H641     1.0000 0.77991  0.93582  0.06681  Biso   1.000  H
  O439     1.0000 0.71329  0.97778  0.09460  Biso   1.000  O
  C474     1.0000 0.55179  0.71560  0.95052  Biso   1.000  C
  H642     1.0000 0.50139  0.65818  0.90722  Biso   1.000  H
  O440     1.0000 0.54998  0.69582  0.84672  Biso   1.000  O
  H643     1.0000 0.47081  0.75928  0.08418  Biso   1.000  H
  H644     1.0000 0.41940  0.79179  0.05791  Biso   1.000  H
  O441     1.0000 0.40852  0.71031  0.06128  Biso   1.000  O
  H645     1.0000 0.40642  0.77739  0.05169  Biso   1.000  H
  H646     1.0000 0.43582  0.72009  0.06681  Biso   1.000  H
  O442     1.0000 0.47778  0.78671  0.09460  Biso   1.000  O
  C475     1.0000 0.73841  0.83371  0.95160  Biso   1.000  C
  O443     1.0000 0.57762  0.76600  0.93751  Biso   1.000  O
  H647     1.0000 0.58119  0.68742  0.95700  Biso   1.000  H
  C476     1.0000 0.72719  0.79620  0.89978  Biso   1.000  C
  H648     1.0000 0.77890  0.83430  0.95951  Biso   1.000  H
  O444     1.0000 0.71031  0.81242  0.99978  Biso   1.000  O
  C477     1.0000 0.63689  0.76810  0.94620  Biso   1.000  C
  C478     1.0000 0.66280  0.78839  0.89170  Biso   1.000  C
  H649     1.0000 0.74479  0.75949  0.90609  Biso   1.000  H
  O445     1.0000 0.75000  0.82111  0.84879  Biso   1.000  O
  C479     1.0000 0.65041  0.80872  0.99620  Biso   1.000  C
  H650     1.0000 0.65108  0.73051  0.95540  Biso   1.000  H
  H651     1.0000 0.64630  0.82489  0.88189  Biso   1.000  H
  O446     1.0000 0.65260  0.75042  0.84512  Biso   1.000  O
  H652     1.0000 0.63449  0.84581  0.98799  Biso   1.000  H
  C480     1.0000 0.63000  0.78810  0.05510  Biso   1.000  C
  H653     1.0000 0.64760  0.81011  0.08539  Biso   1.000  H
  H654     1.0000 0.58972  0.79322  0.05791  Biso   1.000  H
  O447     1.0000 0.64331  0.73051  0.06292  Biso   1.000  O
  H655     1.0000 0.59031  0.77911  0.05320  Biso   1.000  H
  H656     1.0000 0.65029  0.75428  0.06599  Biso   1.000  H
  O448     1.0000 0.63941  0.83098  0.09680  Biso   1.000  O
  O449     1.0000 0.24958  0.34740  0.15488  Biso   1.000  O
  C481     1.0000 0.21161  0.33720  0.10830  Biso   1.000  C
  C482     1.0000 0.20380  0.27281  0.10022  Biso   1.000  C
  C483     1.0000 0.23190  0.36311  0.05380  Biso   1.000  C
  H657     1.0000 0.17511  0.35370  0.11811  Biso   1.000  H
  O450     1.0000 0.17889  0.25000  0.15121  Biso   1.000  O
  C484     1.0000 0.16629  0.26159  0.04840  Biso   1.000  C
  H658     1.0000 0.24051  0.25521  0.09391  Biso   1.000  H
  O451     1.0000 0.23400  0.42238  0.06249  Biso   1.000  O
  C485     1.0000 0.19128  0.34959  0.00380  Biso   1.000  C
  H659     1.0000 0.26949  0.34892  0.04460  Biso   1.000  H
  H660     1.0000 0.16570  0.22110  0.04049  Biso   1.000  H
  O452     1.0000 0.18758  0.28969  0.00022  Biso   1.000  O
  O453     1.0000 0.11232  0.27949  0.06219  Biso   1.000  O
  C486     1.0000 0.28440  0.44821  0.04948  Biso   1.000  C
  H661     1.0000 0.15419  0.36551  0.01201  Biso   1.000  H
  C487     1.0000 0.21190  0.37000  0.94490  Biso   1.000  C
  C488     1.0000 0.06838  0.23908  0.05328  Biso   1.000  C
  C489     1.0000 0.30389  0.48442  0.10039  Biso   1.000  C
  H662     1.0000 0.31258  0.41881  0.04300  Biso   1.000  H
  O454     1.0000 0.28188  0.48299  0.99870  Biso   1.000  O
  H663     1.0000 0.18989  0.35240  0.91461  Biso   1.000  H
  H664     1.0000 0.20678  0.41028  0.94209  Biso   1.000  H
  O455     1.0000 0.26949  0.35669  0.93708  Biso   1.000  O
  H665     1.0000 0.22089  0.40969  0.94680  Biso   1.000  H
  H666     1.0000 0.24572  0.34971  0.93401  Biso   1.000  H
  O456     1.0000 0.16902  0.36059  0.90320  Biso   1.000  O
  C490     1.0000 0.03318  0.23572  0.11059  Biso   1.000  C
  C491     1.0000 0.02940  0.25832  0.00449  Biso   1.000  C
  H667     1.0000 0.08451  0.20228  0.04421  Biso   1.000  H
  C492     1.0000 0.26428  0.53318  0.11059  Biso   1.000  C
  H668     1.0000 0.34182  0.49861  0.09278  Biso   1.000  H
  O457     1.0000 0.30418  0.45002  0.15328  Biso   1.000  O
  C493     1.0000 0.24168  0.52940  0.00449  Biso   1.000  C
  H669     1.0000 0.01911  0.27302  0.12092  Biso   1.000  H
  O458     1.0000 0.06830  0.21459  0.15570  Biso   1.000  O
  C494     1.0000 0.98442  0.19611  0.10039  Biso   1.000  C
  H670     1.0000 0.01449  0.29570  0.01309  Biso   1.000  H
  O459     1.0000 0.98299  0.21812  0.99870  Biso   1.000  O
  C495     1.0000 0.05759  0.25840  0.94581  Biso   1.000  C
  C496     1.0000 0.26092  0.56838  0.05328  Biso   1.000  C
  H671     1.0000 0.22698  0.51911  0.12092  Biso   1.000  H
  O460     1.0000 0.28541  0.56830  0.15570  Biso   1.000  O
  H672     1.0000 0.20430  0.51449  0.01309  Biso   1.000  H
  C497     1.0000 0.24160  0.55759  0.94581  Biso   1.000  C
  C498     1.0000 0.94821  0.21560  0.04948  Biso   1.000  C
  H673     1.0000 0.99861  0.15818  0.09278  Biso   1.000  H
  O461     1.0000 0.95002  0.19582  0.15328  Biso   1.000  O
  H674     1.0000 0.02919  0.25928  0.91582  Biso   1.000  H
  H675     1.0000 0.08060  0.29179  0.94209  Biso   1.000  H
  O462     1.0000 0.09148  0.21031  0.93872  Biso   1.000  O
  H676     1.0000 0.09358  0.27739  0.94831  Biso   1.000  H
  H677     1.0000 0.06418  0.22009  0.93319  Biso   1.000  H
  O463     1.0000 0.02222  0.28671  0.90540  Biso   1.000  O
  O464     1.0000 0.22051  0.61232  0.06219  Biso   1.000  O
  H678     1.0000 0.29772  0.58451  0.04421  Biso   1.000  H
  H679     1.0000 0.24072  0.52919  0.91582  Biso   1.000  H
  H680     1.0000 0.20821  0.58060  0.94209  Biso   1.000  H
  O465     1.0000 0.28969  0.59148  0.93872  Biso   1.000  O
  H681     1.0000 0.22261  0.59358  0.94831  Biso   1.000  H
  H682     1.0000 0.27991  0.56418  0.93319  Biso   1.000  H
  O466     1.0000 0.21329  0.52222  0.90540  Biso   1.000  O
  O467     1.0000 0.92238  0.26600  0.06249  Biso   1.000  O
  H683     1.0000 0.91881  0.18742  0.04300  Biso   1.000  H
  C499     1.0000 0.23841  0.66629  0.04840  Biso   1.000  C
  C500     1.0000 0.86311  0.26810  0.05380  Biso   1.000  C
  C501     1.0000 0.22719  0.70380  0.10022  Biso   1.000  C
  H684     1.0000 0.27890  0.66570  0.04049  Biso   1.000  H
  O468     1.0000 0.21031  0.68758  0.00022  Biso   1.000  O
  C502     1.0000 0.83720  0.28839  0.10830  Biso   1.000  C
  C503     1.0000 0.84959  0.30872  0.00380  Biso   1.000  C
  H685     1.0000 0.84892  0.23051  0.04460  Biso   1.000  H
  C504     1.0000 0.16280  0.71161  0.10830  Biso   1.000  C
  H686     1.0000 0.24479  0.74051  0.09391  Biso   1.000  H
  O469     1.0000 0.25000  0.67889  0.15121  Biso   1.000  O
  C505     1.0000 0.15041  0.69128  0.00380  Biso   1.000  C
  C506     1.0000 0.77281  0.29620  0.10022  Biso   1.000  C
  H687     1.0000 0.85370  0.32489  0.11811  Biso   1.000  H
  O470     1.0000 0.84740  0.25042  0.15488  Biso   1.000  O
  C507     1.0000 0.87000  0.28810  0.94490  Biso   1.000  C
  O471     1.0000 0.78969  0.31242  0.00022  Biso   1.000  O
  H688     1.0000 0.86551  0.34581  0.01201  Biso   1.000  H
  C508     1.0000 0.13689  0.73190  0.05380  Biso   1.000  C
  H689     1.0000 0.14630  0.67511  0.11811  Biso   1.000  H
  O472     1.0000 0.15260  0.74958  0.15488  Biso   1.000  O
  H690     1.0000 0.13449  0.65419  0.01201  Biso   1.000  H
  C509     1.0000 0.13000  0.71190  0.94490  Biso   1.000  C
  C510     1.0000 0.76159  0.33371  0.04840  Biso   1.000  C
  H691     1.0000 0.75521  0.25949  0.09391  Biso   1.000  H
  O473     1.0000 0.75000  0.32111  0.15121  Biso   1.000  O
  H692     1.0000 0.85240  0.31011  0.91461  Biso   1.000  H
  H693     1.0000 0.91028  0.29322  0.94209  Biso   1.000  H
  O474     1.0000 0.85669  0.23051  0.93708  Biso   1.000  O
  H694     1.0000 0.90969  0.27911  0.94680  Biso   1.000  H
  H695     1.0000 0.84971  0.25428  0.93401  Biso   1.000  H
  O475     1.0000 0.86059  0.33098  0.90320  Biso   1.000  O
  O476     1.0000 0.07762  0.73400  0.06249  Biso   1.000  O
  H696     1.0000 0.15108  0.76949  0.04460  Biso   1.000  H
  H697     1.0000 0.14760  0.68989  0.91461  Biso   1.000  H
  H698     1.0000 0.08972  0.70678  0.94209  Biso   1.000  H
  O477     1.0000 0.14331  0.76949  0.93708  Biso   1.000  O
  H699     1.0000 0.09031  0.72089  0.94680  Biso   1.000  H
  H700     1.0000 0.15029  0.74572  0.93401  Biso   1.000  H
  O478     1.0000 0.13941  0.66902  0.90320  Biso   1.000  O
  H701     1.0000 0.72110  0.33430  0.04049  Biso   1.000  H
  O479     1.0000 0.77949  0.38768  0.06219  Biso   1.000  O
  C511     1.0000 0.05179  0.78440  0.04948  Biso   1.000  C
  C512     1.0000 0.73908  0.43162  0.05328  Biso   1.000  C
  C513     1.0000 0.01558  0.80389  0.10039  Biso   1.000  C
  H702     1.0000 0.08119  0.81258  0.04300  Biso   1.000  H
  O480     1.0000 0.01701  0.78188  0.99870  Biso   1.000  O
  C514     1.0000 0.73572  0.46682  0.11059  Biso   1.000  C
  H703     1.0000 0.70228  0.41549  0.04421  Biso   1.000  H
  C515     1.0000 0.75832  0.47060  0.00449  Biso   1.000  C
  H704     1.0000 0.00139  0.84182  0.09278  Biso   1.000  H
  O481     1.0000 0.04998  0.80418  0.15328  Biso   1.000  O
  C516     1.0000 0.96682  0.76428  0.11059  Biso   1.000  C
  C517     1.0000 0.97060  0.74168  0.00449  Biso   1.000  C
  C518     1.0000 0.69611  0.51558  0.10039  Biso   1.000  C
  H705     1.0000 0.77302  0.48089  0.12092  Biso   1.000  H
  O482     1.0000 0.71459  0.43170  0.15570  Biso   1.000  O
  C519     1.0000 0.75840  0.44241  0.94581  Biso   1.000  C
  O483     1.0000 0.71812  0.51701  0.99870  Biso   1.000  O
  H706     1.0000 0.79570  0.48551  0.01309  Biso   1.000  H
  C520     1.0000 0.93162  0.76092  0.05328  Biso   1.000  C
  H707     1.0000 0.98089  0.72698  0.12092  Biso   1.000  H
  O484     1.0000 0.93170  0.78541  0.15570  Biso   1.000  O
  C521     1.0000 0.94241  0.74160  0.94581  Biso   1.000  C
  H708     1.0000 0.98551  0.70430  0.01309  Biso   1.000  H
  C522     1.0000 0.71560  0.55179  0.04948  Biso   1.000  C
  H709     1.0000 0.65818  0.50139  0.09278  Biso   1.000  H
  O485     1.0000 0.69582  0.54998  0.15328  Biso   1.000  O
  H710     1.0000 0.75928  0.47081  0.91582  Biso   1.000  H
  H711     1.0000 0.79179  0.41940  0.94209  Biso   1.000  H
  O486     1.0000 0.71031  0.40852  0.93872  Biso   1.000  O
  H712     1.0000 0.77739  0.40642  0.94831  Biso   1.000  H
  H713     1.0000 0.72009  0.43582  0.93319  Biso   1.000  H
  O487     1.0000 0.78671  0.47778  0.90540  Biso   1.000  O
  O488     1.0000 0.88768  0.72051  0.06219  Biso   1.000  O
  H714     1.0000 0.91549  0.79772  0.04421  Biso   1.000  H
  H715     1.0000 0.97081  0.74072  0.91582  Biso   1.000  H
  H716     1.0000 0.91940  0.70821  0.94209  Biso   1.000  H
  O489     1.0000 0.90852  0.78969  0.93872  Biso   1.000  O
  H717     1.0000 0.90642  0.72261  0.94831  Biso   1.000  H
  H718     1.0000 0.93582  0.77991  0.93319  Biso   1.000  H
  O490     1.0000 0.97778  0.71329  0.90540  Biso   1.000  O
  O491     1.0000 0.76600  0.57762  0.06249  Biso   1.000  O
  H719     1.0000 0.68742  0.58119  0.04300  Biso   1.000  H
  C523     1.0000 0.83371  0.73841  0.04840  Biso   1.000  C
  C524     1.0000 0.76810  0.63689  0.05380  Biso   1.000  C
  H720     1.0000 0.83430  0.77890  0.04049  Biso   1.000  H
  C525     1.0000 0.79620  0.72719  0.10022  Biso   1.000  C
  O492     1.0000 0.81242  0.71031  0.00022  Biso   1.000  O
  C526     1.0000 0.78839  0.66280  0.10830  Biso   1.000  C
  H721     1.0000 0.73051  0.65108  0.04460  Biso   1.000  H
  C527     1.0000 0.80872  0.65041  0.00380  Biso   1.000  C
  H722     1.0000 0.75949  0.74479  0.09391  Biso   1.000  H
  O493     1.0000 0.82111  0.75000  0.15121  Biso   1.000  O
  H723     1.0000 0.82489  0.64630  0.11811  Biso   1.000  H
  O494     1.0000 0.75042  0.65260  0.15488  Biso   1.000  O
  C528     1.0000 0.78810  0.63000  0.94490  Biso   1.000  C
  H724     1.0000 0.84581  0.63449  0.01201  Biso   1.000  H
  H725     1.0000 0.81011  0.64760  0.91461  Biso   1.000  H
  H726     1.0000 0.79322  0.58972  0.94209  Biso   1.000  H
  O495     1.0000 0.73051  0.64331  0.93708  Biso   1.000  O
  H727     1.0000 0.77911  0.59031  0.94680  Biso   1.000  H
  H728     1.0000 0.75428  0.65029  0.93401  Biso   1.000  H
  O496     1.0000 0.83098  0.63941  0.90320  Biso   1.000  O
  O497     1.0000 0.24958  0.34740  0.15488  Biso   1.000  O
  C529     1.0000 0.21161  0.33720  0.10830  Biso   1.000  C
  C530     1.0000 0.20380  0.27281  0.10022  Biso   1.000  C
  C531     1.0000 0.23190  0.36311  0.05380  Biso   1.000  C
  H729     1.0000 0.17511  0.35370  0.11811  Biso   1.000  H
  O498     1.0000 0.17889  0.25000  0.15121  Biso   1.000  O
  C532     1.0000 0.16629  0.26159  0.04840  Biso   1.000  C
  H730     1.0000 0.24051  0.25521  0.09391  Biso   1.000  H
  O499     1.0000 0.23400  0.42238  0.06249  Biso   1.000  O
  C533     1.0000 0.19128  0.34959  0.00380  Biso   1.000  C
  H731     1.0000 0.26949  0.34892  0.04460  Biso   1.000  H
  H732     1.0000 0.16570  0.22110  0.04049  Biso   1.000  H
  O500     1.0000 0.18758  0.28969  0.00022  Biso   1.000  O
  O501     1.0000 0.11232  0.27949  0.06219  Biso   1.000  O
  C534     1.0000 0.28440  0.44821  0.04948  Biso   1.000  C
  H733     1.0000 0.15419  0.36551  0.01201  Biso   1.000  H
  C535     1.0000 0.21190  0.37000  0.94490  Biso   1.000  C
  C536     1.0000 0.06838  0.23908  0.05328  Biso   1.000  C
  C537     1.0000 0.30389  0.48442  0.10039  Biso   1.000  C
  H734     1.0000 0.31258  0.41881  0.04300  Biso   1.000  H
  O502     1.0000 0.28188  0.48299  0.99870  Biso   1.000  O
  H735     1.0000 0.18989  0.35240  0.91461  Biso   1.000  H
  H736     1.0000 0.20678  0.41028  0.94209  Biso   1.000  H
  O503     1.0000 0.26949  0.35669  0.93708  Biso   1.000  O
  H737     1.0000 0.22089  0.40969  0.94680  Biso   1.000  H
  H738     1.0000 0.24572  0.34971  0.93401  Biso   1.000  H
  O504     1.0000 0.16902  0.36059  0.90320  Biso   1.000  O
  C538     1.0000 0.03318  0.23572  0.11059  Biso   1.000  C
  C539     1.0000 0.02940  0.25832  0.00449  Biso   1.000  C
  H739     1.0000 0.08451  0.20228  0.04421  Biso   1.000  H
  C540     1.0000 0.26428  0.53318  0.11059  Biso   1.000  C
  H740     1.0000 0.34182  0.49861  0.09278  Biso   1.000  H
  O505     1.0000 0.30418  0.45002  0.15328  Biso   1.000  O
  C541     1.0000 0.24168  0.52940  0.00449  Biso   1.000  C
  H741     1.0000 0.01911  0.27302  0.12092  Biso   1.000  H
  O506     1.0000 0.06830  0.21459  0.15570  Biso   1.000  O
  C542     1.0000 0.98442  0.19611  0.10039  Biso   1.000  C
  H742     1.0000 0.01449  0.29570  0.01309  Biso   1.000  H
  O507     1.0000 0.98299  0.21812  0.99870  Biso   1.000  O
  C543     1.0000 0.05759  0.25840  0.94581  Biso   1.000  C
  C544     1.0000 0.26092  0.56838  0.05328  Biso   1.000  C
  H743     1.0000 0.22698  0.51911  0.12092  Biso   1.000  H
  O508     1.0000 0.28541  0.56830  0.15570  Biso   1.000  O
  H744     1.0000 0.20430  0.51449  0.01309  Biso   1.000  H
  C545     1.0000 0.24160  0.55759  0.94581  Biso   1.000  C
  C546     1.0000 0.94821  0.21560  0.04948  Biso   1.000  C
  H745     1.0000 0.99861  0.15818  0.09278  Biso   1.000  H
  O509     1.0000 0.95002  0.19582  0.15328  Biso   1.000  O
  H746     1.0000 0.02919  0.25928  0.91582  Biso   1.000  H
  H747     1.0000 0.08060  0.29179  0.94209  Biso   1.000  H
  O510     1.0000 0.09148  0.21031  0.93872  Biso   1.000  O
  H748     1.0000 0.09358  0.27739  0.94831  Biso   1.000  H
  H749     1.0000 0.06418  0.22009  0.93319  Biso   1.000  H
  O511     1.0000 0.02222  0.28671  0.90540  Biso   1.000  O
  O512     1.0000 0.22051  0.61232  0.06219  Biso   1.000  O
  H750     1.0000 0.29772  0.58451  0.04421  Biso   1.000  H
  H751     1.0000 0.24072  0.52919  0.91582  Biso   1.000  H
  H752     1.0000 0.20821  0.58060  0.94209  Biso   1.000  H
  O513     1.0000 0.28969  0.59148  0.93872  Biso   1.000  O
  H753     1.0000 0.22261  0.59358  0.94831  Biso   1.000  H
  H754     1.0000 0.27991  0.56418  0.93319  Biso   1.000  H
  O514     1.0000 0.21329  0.52222  0.90540  Biso   1.000  O
  O515     1.0000 0.92238  0.26600  0.06249  Biso   1.000  O
  H755     1.0000 0.91881  0.18742  0.04300  Biso   1.000  H
  C547     1.0000 0.23841  0.66629  0.04840  Biso   1.000  C
  C548     1.0000 0.86311  0.26810  0.05380  Biso   1.000  C
  C549     1.0000 0.22719  0.70380  0.10022  Biso   1.000  C
  H756     1.0000 0.27890  0.66570  0.04049  Biso   1.000  H
  O516     1.0000 0.21031  0.68758  0.00022  Biso   1.000  O
  C550     1.0000 0.83720  0.28839  0.10830  Biso   1.000  C
  C551     1.0000 0.84959  0.30872  0.00380  Biso   1.000  C
  H757     1.0000 0.84892  0.23051  0.04460  Biso   1.000  H
  C552     1.0000 0.16280  0.71161  0.10830  Biso   1.000  C
  H758     1.0000 0.24479  0.74051  0.09391  Biso   1.000  H
  O517     1.0000 0.25000  0.67889  0.15121  Biso   1.000  O
  C553     1.0000 0.15041  0.69128  0.00380  Biso   1.000  C
  C554     1.0000 0.77281  0.29620  0.10022  Biso   1.000  C
  H759     1.0000 0.85370  0.32489  0.11811  Biso   1.000  H
  O518     1.0000 0.84740  0.25042  0.15488  Biso   1.000  O
  C555     1.0000 0.87000  0.28810  0.94490  Biso   1.000  C
  O519     1.0000 0.78969  0.31242  0.00022  Biso   1.000  O
  H760     1.0000 0.86551  0.34581  0.01201  Biso   1.000  H
  C556     1.0000 0.13689  0.73190  0.05380  Biso   1.000  C
  H761     1.0000 0.14630  0.67511  0.11811  Biso   1.000  H
  O520     1.0000 0.15260  0.74958  0.15488  Biso   1.000  O
  H762     1.0000 0.13449  0.65419  0.01201  Biso   1.000  H
  C557     1.0000 0.13000  0.71190  0.94490  Biso   1.000  C
  C558     1.0000 0.76159  0.33371  0.04840  Biso   1.000  C
  H763     1.0000 0.75521  0.25949  0.09391  Biso   1.000  H
  O521     1.0000 0.75000  0.32111  0.15121  Biso   1.000  O
  H764     1.0000 0.85240  0.31011  0.91461  Biso   1.000  H
  H765     1.0000 0.91028  0.29322  0.94209  Biso   1.000  H
  O522     1.0000 0.85669  0.23051  0.93708  Biso   1.000  O
  H766     1.0000 0.90969  0.27911  0.94680  Biso   1.000  H
  H767     1.0000 0.84971  0.25428  0.93401  Biso   1.000  H
  O523     1.0000 0.86059  0.33098  0.90320  Biso   1.000  O
  O524     1.0000 0.07762  0.73400  0.06249  Biso   1.000  O
  H768     1.0000 0.15108  0.76949  0.04460  Biso   1.000  H
  H769     1.0000 0.14760  0.68989  0.91461  Biso   1.000  H
  H770     1.0000 0.08972  0.70678  0.94209  Biso   1.000  H
  O525     1.0000 0.14331  0.76949  0.93708  Biso   1.000  O
  H771     1.0000 0.09031  0.72089  0.94680  Biso   1.000  H
  H772     1.0000 0.15029  0.74572  0.93401  Biso   1.000  H
  O526     1.0000 0.13941  0.66902  0.90320  Biso   1.000  O
  H773     1.0000 0.72110  0.33430  0.04049  Biso   1.000  H
  O527     1.0000 0.77949  0.38768  0.06219  Biso   1.000  O
  C559     1.0000 0.05179  0.78440  0.04948  Biso   1.000  C
  C560     1.0000 0.73908  0.43162  0.05328  Biso   1.000  C
  C561     1.0000 0.01558  0.80389  0.10039  Biso   1.000  C
  H774     1.0000 0.08119  0.81258  0.04300  Biso   1.000  H
  O528     1.0000 0.01701  0.78188  0.99870  Biso   1.000  O
  C562     1.0000 0.73572  0.46682  0.11059  Biso   1.000  C
  H775     1.0000 0.70228  0.41549  0.04421  Biso   1.000  H
  C563     1.0000 0.75832  0.47060  0.00449  Biso   1.000  C
  H776     1.0000 0.00139  0.84182  0.09278  Biso   1.000  H
  O529     1.0000 0.04998  0.80418  0.15328  Biso   1.000  O
  C564     1.0000 0.96682  0.76428  0.11059  Biso   1.000  C
  C565     1.0000 0.97060  0.74168  0.00449  Biso   1.000  C
  C566     1.0000 0.69611  0.51558  0.10039  Biso   1.000  C
  H777     1.0000 0.77302  0.48089  0.12092  Biso   1.000  H
  O530     1.0000 0.71459  0.43170  0.15570  Biso   1.000  O
  C567     1.0000 0.75840  0.44241  0.94581  Biso   1.000  C
  O531     1.0000 0.71812  0.51701  0.99870  Biso   1.000  O
  H778     1.0000 0.79570  0.48551  0.01309  Biso   1.000  H
  C568     1.0000 0.93162  0.76092  0.05328  Biso   1.000  C
  H779     1.0000 0.98089  0.72698  0.12092  Biso   1.000  H
  O532     1.0000 0.93170  0.78541  0.15570  Biso   1.000  O
  C569     1.0000 0.94241  0.74160  0.94581  Biso   1.000  C
  H780     1.0000 0.98551  0.70430  0.01309  Biso   1.000  H
  C570     1.0000 0.71560  0.55179  0.04948  Biso   1.000  C
  H781     1.0000 0.65818  0.50139  0.09278  Biso   1.000  H
  O533     1.0000 0.69582  0.54998  0.15328  Biso   1.000  O
  H782     1.0000 0.75928  0.47081  0.91582  Biso   1.000  H
  H783     1.0000 0.79179  0.41940  0.94209  Biso   1.000  H
  O534     1.0000 0.71031  0.40852  0.93872  Biso   1.000  O
  H784     1.0000 0.77739  0.40642  0.94831  Biso   1.000  H
  H785     1.0000 0.72009  0.43582  0.93319  Biso   1.000  H
  O535     1.0000 0.78671  0.47778  0.90540  Biso   1.000  O
  O536     1.0000 0.88768  0.72051  0.06219  Biso   1.000  O
  H786     1.0000 0.91549  0.79772  0.04421  Biso   1.000  H
  H787     1.0000 0.97081  0.74072  0.91582  Biso   1.000  H
  H788     1.0000 0.91940  0.70821  0.94209  Biso   1.000  H
  O537     1.0000 0.90852  0.78969  0.93872  Biso   1.000  O
  H789     1.0000 0.90642  0.72261  0.94831  Biso   1.000  H
  H790     1.0000 0.93582  0.77991  0.93319  Biso   1.000  H
  O538     1.0000 0.97778  0.71329  0.90540  Biso   1.000  O
  O539     1.0000 0.76600  0.57762  0.06249  Biso   1.000  O
  H791     1.0000 0.68742  0.58119  0.04300  Biso   1.000  H
  C571     1.0000 0.83371  0.73841  0.04840  Biso   1.000  C
  C572     1.0000 0.76810  0.63689  0.05380  Biso   1.000  C
  H792     1.0000 0.83430  0.77890  0.04049  Biso   1.000  H
  C573     1.0000 0.79620  0.72719  0.10022  Biso   1.000  C
  O540     1.0000 0.81242  0.71031  0.00022  Biso   1.000  O
  C574     1.0000 0.78839  0.66280  0.10830  Biso   1.000  C
  H793     1.0000 0.73051  0.65108  0.04460  Biso   1.000  H
  C575     1.0000 0.80872  0.65041  0.00380  Biso   1.000  C
  H794     1.0000 0.75949  0.74479  0.09391  Biso   1.000  H
  O541     1.0000 0.82111  0.75000  0.15121  Biso   1.000  O
  H795     1.0000 0.82489  0.64630  0.11811  Biso   1.000  H
  O542     1.0000 0.75042  0.65260  0.15488  Biso   1.000  O
  C576     1.0000 0.78810  0.63000  0.94490  Biso   1.000  C
  H796     1.0000 0.84581  0.63449  0.01201  Biso   1.000  H
  H797     1.0000 0.81011  0.64760  0.91461  Biso   1.000  H
  H798     1.0000 0.79322  0.58972  0.94209  Biso   1.000  H
  O543     1.0000 0.73051  0.64331  0.93708  Biso   1.000  O
  H799     1.0000 0.77911  0.59031  0.94680  Biso   1.000  H
  H800     1.0000 0.75428  0.65029  0.93401  Biso   1.000  H
  O544     1.0000 0.83098  0.63941  0.90320  Biso   1.000  O
