data_image0
_cell_length_a       21.594
_cell_length_b       12.209
_cell_length_c       39.916
_cell_angle_alpha    90
_cell_angle_beta     97.67
_cell_angle_gamma    90

_symmetry_space_group_name_H-M    "P 1"
_symmetry_int_tables_number       1

loop_
  _symmetry_equiv_pos_as_xyz
  'x, y, z'

loop_
  _atom_site_label
  _atom_site_occupancy
  _atom_site_fract_x
  _atom_site_fract_y
  _atom_site_fract_z
  _atom_site_thermal_displace_type
  _atom_site_B_iso_or_equiv
  _atom_site_type_symbol
  C1       1.0000 0.52284  0.36088  0.51677  Biso   1.000  C
  C2       1.0000 0.57698  0.31739  0.52206  Biso   1.000  C
  H1       1.0000 0.49404  0.33696  0.49880  Biso   1.000  H
  H2       1.0000 0.51213  0.41658  0.53080  Biso   1.000  H
  C3       1.0000 0.59887  0.22590  0.50044  Biso   1.000  C
  H3       1.0000 0.60475  0.34303  0.54021  Biso   1.000  H
  O1       1.0000 0.66290  0.24351  0.49546  Biso   1.000  O
  H4       1.0000 0.57272  0.22402  0.47870  Biso   1.000  H
  H5       1.0000 0.59502  0.15603  0.51149  Biso   1.000  H
  C4       1.0000 0.67652  0.33107  0.47615  Biso   1.000  C
  C5       1.0000 0.63336  0.39012  0.45421  Biso   1.000  C
  C6       1.0000 0.73930  0.36170  0.47949  Biso   1.000  C
  C7       1.0000 0.65162  0.47940  0.43568  Biso   1.000  C
  H6       1.0000 0.59155  0.36981  0.45181  Biso   1.000  H
  C8       1.0000 0.75721  0.45147  0.46162  Biso   1.000  C
  O2       1.0000 0.78380  0.30535  0.50087  Biso   1.000  O
  C9       1.0000 0.60159  0.53657  0.41159  Biso   1.000  C
  C10      1.0000 0.71413  0.51241  0.43998  Biso   1.000  C
  H7       1.0000 0.79913  0.47162  0.46409  Biso   1.000  H
  C11      1.0000 0.80496  0.20501  0.48697  Biso   1.000  C
  C12      1.0000 0.59551  0.49005  0.37605  Biso   1.000  C
  H8       1.0000 0.61154  0.61397  0.41081  Biso   1.000  H
  H9       1.0000 0.56175  0.52977  0.42018  Biso   1.000  H
  C13      1.0000 0.73726  0.61545  0.42372  Biso   1.000  C
  H10      1.0000 0.78953  0.14219  0.49819  Biso   1.000  H
  H11      1.0000 0.78983  0.20026  0.46301  Biso   1.000  H
  C14      1.0000 0.87525  0.20731  0.49256  Biso   1.000  C
  C15      1.0000 0.62176  0.53854  0.34918  Biso   1.000  C
  C16      1.0000 0.56190  0.39242  0.36990  Biso   1.000  C
  C17      1.0000 0.76527  0.59702  0.39124  Biso   1.000  C
  H12      1.0000 0.76846  0.65050  0.44000  Biso   1.000  H
  H13      1.0000 0.70245  0.66598  0.41910  Biso   1.000  H
  H14      1.0000 0.88932  0.21918  0.51639  Biso   1.000  H
  H15      1.0000 0.88972  0.26841  0.48009  Biso   1.000  H
  O3       1.0000 0.90263  0.10853  0.48209  Biso   1.000  O
  C18      1.0000 0.61119  0.48931  0.31743  Biso   1.000  C
  C19      1.0000 0.66278  0.64067  0.35309  Biso   1.000  C
  C20      1.0000 0.55280  0.34278  0.33846  Biso   1.000  C
  H16      1.0000 0.54496  0.35957  0.38760  Biso   1.000  H
  C21      1.0000 0.73189  0.61168  0.35881  Biso   1.000  C
  C22      1.0000 0.82833  0.56901  0.39379  Biso   1.000  C
  C23      1.0000 0.89055  0.08682  0.44779  Biso   1.000  C
  C24      1.0000 0.57616  0.39381  0.31154  Biso   1.000  C
  H17      1.0000 0.62814  0.52125  0.29960  Biso   1.000  H
  H18      1.0000 0.65256  0.68351  0.37210  Biso   1.000  H
  H19      1.0000 0.65414  0.68540  0.33290  Biso   1.000  H
  O4       1.0000 0.51760  0.24769  0.33487  Biso   1.000  O
  C25      1.0000 0.76272  0.59710  0.33060  Biso   1.000  C
  H20      1.0000 0.85075  0.56000  0.41520  Biso   1.000  H
  C26      1.0000 0.85893  0.55394  0.36578  Biso   1.000  C
  C27      1.0000 0.85513  0.99550  0.43712  Biso   1.000  C
  C28      1.0000 0.91642  0.14997  0.42387  Biso   1.000  C
  O5       1.0000 0.56626  0.34958  0.27928  Biso   1.000  O
  C29      1.0000 0.54433  0.15702  0.31877  Biso   1.000  C
  C30      1.0000 0.82588  0.56761  0.33355  Biso   1.000  C
  H21      1.0000 0.74068  0.60726  0.30918  Biso   1.000  H
  O6       1.0000 0.92098  0.52363  0.36935  Biso   1.000  O
  C31      1.0000 0.84515  0.96290  0.40342  Biso   1.000  C
  H22      1.0000 0.83745  0.95462  0.45310  Biso   1.000  H
  C32      1.0000 0.90767  0.11737  0.39010  Biso   1.000  C
  O7       1.0000 0.95142  0.23884  0.43603  Biso   1.000  O
  C33      1.0000 0.50318  0.38070  0.26383  Biso   1.000  C
  C34      1.0000 0.52589  0.39110  0.25211  Biso   1.000  C
  H23      1.0000 0.53015  0.15792  0.29470  Biso   1.000  H
  H24      1.0000 0.58954  0.16218  0.32220  Biso   1.000  H
  C35      1.0000 0.52390  0.05193  0.33413  Biso   1.000  C
  O8       1.0000 0.85743  0.55664  0.30582  Biso   1.000  O
  C36      1.0000 0.96429  0.60849  0.38216  Biso   1.000  C
  C37      1.0000 0.80249  0.86469  0.39455  Biso   1.000  C
  C38      1.0000 0.87263  0.02359  0.37966  Biso   1.000  C
  H25      1.0000 0.92538  0.15849  0.37420  Biso   1.000  H
  C39      1.0000 0.97274  0.31043  0.41209  Biso   1.000  C
  C40      1.0000 0.49275  0.32279  0.23057  Biso   1.000  C
  C41      1.0000 0.46206  0.35318  0.25580  Biso   1.000  C
  H26      1.0000 0.47235  0.35801  0.27799  Biso   1.000  H
  H27      1.0000 0.50015  0.45942  0.26060  Biso   1.000  H
  H28      1.0000 0.53789  0.36489  0.23090  Biso   1.000  H
  H29      1.0000 0.52735  0.47047  0.25200  Biso   1.000  H
  H30      1.0000 0.47916  0.05480  0.33469  Biso   1.000  H
  O9       1.0000 0.55461  0.03276  0.36740  Biso   1.000  O
  H31      1.0000 0.53217  0.99099  0.31980  Biso   1.000  H
  C42      1.0000 0.82738  0.48947  0.27903  Biso   1.000  C
  H32      1.0000 0.94574  0.65353  0.39819  Biso   1.000  H
  C43      1.0000 0.97998  0.67770  0.35375  Biso   1.000  C
  H33      1.0000 0.00203  0.57556  0.39379  Biso   1.000  H
  C44      1.0000 0.73468  0.89983  0.38472  Biso   1.000  C
  H34      1.0000 0.81655  0.82488  0.37590  Biso   1.000  H
  H35      1.0000 0.80515  0.81571  0.41379  Biso   1.000  H
  C45      1.0000 0.86981  0.98976  0.34268  Biso   1.000  C
  H36      1.0000 0.93756  0.34000  0.39769  Biso   1.000  H
  H37      1.0000 0.99626  0.36899  0.42370  Biso   1.000  H
  H38      1.0000 0.99884  0.27070  0.39870  Biso   1.000  H
  C46      1.0000 0.42899  0.29085  0.23229  Biso   1.000  C
  H39      1.0000 0.52166  0.33426  0.21560  Biso   1.000  H
  C47      1.0000 0.44535  0.25637  0.22111  Biso   1.000  C
  H40      1.0000 0.44445  0.37325  0.27491  Biso   1.000  H
  C48      1.0000 0.61340  0.98698  0.37104  Biso   1.000  C
  H41      1.0000 0.78246  0.50020  0.27640  Biso   1.000  H
  H42      1.0000 0.84227  0.50774  0.25789  Biso   1.000  H
  C49      1.0000 0.84364  0.37186  0.28878  Biso   1.000  C
  H43      1.0000 0.99453  0.64190  0.33580  Biso   1.000  H
  C50      1.0000 0.97520  0.78377  0.35186  Biso   1.000  C
  C51      1.0000 0.70761  0.91482  0.35143  Biso   1.000  C
  C52      1.0000 0.69953  0.92440  0.41101  Biso   1.000  C
  C53      1.0000 0.82035  0.04497  0.31753  Biso   1.000  C
  H44      1.0000 0.91037  0.00418  0.33570  Biso   1.000  H
  H45      1.0000 0.86293  0.91138  0.34129  Biso   1.000  H
  H46      1.0000 0.41579  0.24326  0.23550  Biso   1.000  H
  H47      1.0000 0.44597  0.27021  0.21310  Biso   1.000  H
  H48      1.0000 0.38898  0.26808  0.23529  Biso   1.000  H
  H49      1.0000 0.44158  0.22287  0.20001  Biso   1.000  H
  C54      1.0000 0.64673  0.95798  0.34528  Biso   1.000  C
  C55      1.0000 0.63971  0.96724  0.40466  Biso   1.000  C
  H50      1.0000 0.83758  0.35900  0.31209  Biso   1.000  H
  H51      1.0000 0.88707  0.35728  0.28651  Biso   1.000  H
  O10      1.0000 0.80381  0.30191  0.26682  Biso   1.000  O
  H52      1.0000 0.96084  0.82284  0.36930  Biso   1.000  H
  H53      1.0000 0.98604  0.82046  0.33310  Biso   1.000  H
  C56      1.0000 0.74022  0.89139  0.32084  Biso   1.000  C
  H54      1.0000 0.71693  0.91170  0.43330  Biso   1.000  H
  C57      1.0000 0.76258  0.99672  0.30618  Biso   1.000  C
  C58      1.0000 0.83431  0.14686  0.30390  Biso   1.000  C
  H55      1.0000 0.62836  0.96732  0.32299  Biso   1.000  H
  O11      1.0000 0.60240  0.99320  0.42875  Biso   1.000  O
  C59      1.0000 0.79262  0.20043  0.28004  Biso   1.000  C
  H56      1.0000 0.77566  0.84348  0.32728  Biso   1.000  H
  H57      1.0000 0.71156  0.85412  0.30380  Biso   1.000  H
  C60      1.0000 0.72152  0.05013  0.28107  Biso   1.000  C
  H58      1.0000 0.87274  0.17929  0.31121  Biso   1.000  H
  C61      1.0000 0.62455  0.96576  0.46263  Biso   1.000  C
  C62      1.0000 0.73556  0.15005  0.26778  Biso   1.000  C
  H59      1.0000 0.68356  0.01687  0.27309  Biso   1.000  H
  H60      1.0000 0.66134  0.00803  0.47019  Biso   1.000  H
  H61      1.0000 0.59283  0.98157  0.47671  Biso   1.000  H
  H62      1.0000 0.63464  0.88918  0.46409  Biso   1.000  H
  O12      1.0000 0.69822  0.20534  0.24295  Biso   1.000  O
  C63      1.0000 0.63847  0.15800  0.23203  Biso   1.000  C
  H63      1.0000 0.61448  0.15579  0.25059  Biso   1.000  H
  H64      1.0000 0.61686  0.20141  0.21409  Biso   1.000  H
  H65      1.0000 0.64385  0.08494  0.22400  Biso   1.000  H
  C64      1.0000 0.47705  0.63904  0.48323  Biso   1.000  C
  C65      1.0000 0.42285  0.68261  0.47792  Biso   1.000  C
  H66      1.0000 0.50584  0.66295  0.50120  Biso   1.000  H
  H67      1.0000 0.48776  0.58334  0.46920  Biso   1.000  H
  C66      1.0000 0.40100  0.77410  0.49953  Biso   1.000  C
  H68      1.0000 0.39514  0.65697  0.45980  Biso   1.000  H
  H69      1.0000 0.42712  0.77598  0.52130  Biso   1.000  H
  H70      1.0000 0.40485  0.84397  0.48849  Biso   1.000  H
  O13      1.0000 0.33698  0.75649  0.50451  Biso   1.000  O
  C67      1.0000 0.32336  0.66885  0.52383  Biso   1.000  C
  C68      1.0000 0.36652  0.60988  0.54577  Biso   1.000  C
  C69      1.0000 0.26054  0.63830  0.52052  Biso   1.000  C
  C70      1.0000 0.34821  0.52060  0.56430  Biso   1.000  C
  H71      1.0000 0.40833  0.63019  0.54820  Biso   1.000  H
  C71      1.0000 0.24267  0.54845  0.53839  Biso   1.000  C
  O14      1.0000 0.21608  0.69457  0.49910  Biso   1.000  O
  C72      1.0000 0.39829  0.46335  0.58839  Biso   1.000  C
  C73      1.0000 0.28575  0.48759  0.56000  Biso   1.000  C
  H72      1.0000 0.20075  0.52838  0.53588  Biso   1.000  H
  C74      1.0000 0.19492  0.79499  0.51301  Biso   1.000  C
  C75      1.0000 0.40437  0.50987  0.62393  Biso   1.000  C
  H73      1.0000 0.38835  0.38594  0.58920  Biso   1.000  H
  H74      1.0000 0.43812  0.47014  0.57979  Biso   1.000  H
  C76      1.0000 0.26262  0.38447  0.57625  Biso   1.000  C
  H75      1.0000 0.21035  0.85773  0.50178  Biso   1.000  H
  H76      1.0000 0.21005  0.79966  0.53700  Biso   1.000  H
  C77      1.0000 0.12464  0.79269  0.50745  Biso   1.000  C
  C78      1.0000 0.37812  0.46138  0.65080  Biso   1.000  C
  C79      1.0000 0.43798  0.60758  0.63010  Biso   1.000  C
  H77      1.0000 0.23143  0.34950  0.56000  Biso   1.000  H
  H78      1.0000 0.29743  0.33402  0.58091  Biso   1.000  H
  C80      1.0000 0.23461  0.40290  0.60876  Biso   1.000  C
  H79      1.0000 0.11055  0.78074  0.48358  Biso   1.000  H
  H80      1.0000 0.11011  0.73159  0.51988  Biso   1.000  H
  O15      1.0000 0.09720  0.89147  0.51789  Biso   1.000  O
  C81      1.0000 0.33710  0.35933  0.64688  Biso   1.000  C
  C82      1.0000 0.38869  0.51069  0.68255  Biso   1.000  C
  C83      1.0000 0.44709  0.65714  0.66155  Biso   1.000  C
  H81      1.0000 0.45492  0.64035  0.61240  Biso   1.000  H
  C84      1.0000 0.17151  0.43099  0.60621  Biso   1.000  C
  C85      1.0000 0.26799  0.38824  0.64120  Biso   1.000  C
  C86      1.0000 0.10929  0.91318  0.55221  Biso   1.000  C
  H82      1.0000 0.34732  0.31649  0.62790  Biso   1.000  H
  H83      1.0000 0.34569  0.31460  0.66708  Biso   1.000  H
  H84      1.0000 0.37169  0.47866  0.70040  Biso   1.000  H
  C87      1.0000 0.42371  0.60619  0.68844  Biso   1.000  C
  O16      1.0000 0.48229  0.75231  0.66514  Biso   1.000  O
  H85      1.0000 0.14914  0.44000  0.58480  Biso   1.000  H
  C88      1.0000 0.14090  0.44606  0.63419  Biso   1.000  C
  C89      1.0000 0.23715  0.40290  0.66938  Biso   1.000  C
  C90      1.0000 0.08342  0.84995  0.57613  Biso   1.000  C
  C91      1.0000 0.14474  0.00442  0.56286  Biso   1.000  C
  O17      1.0000 0.43362  0.65042  0.72070  Biso   1.000  O
  C92      1.0000 0.45556  0.84298  0.68124  Biso   1.000  C
  C93      1.0000 0.17396  0.43239  0.66645  Biso   1.000  C
  O18      1.0000 0.07886  0.47629  0.63065  Biso   1.000  O
  H86      1.0000 0.25920  0.39266  0.69079  Biso   1.000  H
  C94      1.0000 0.09217  0.88255  0.60990  Biso   1.000  C
  O19      1.0000 0.04841  0.76108  0.56394  Biso   1.000  O
  C95      1.0000 0.15473  0.03702  0.59658  Biso   1.000  C
  H87      1.0000 0.16244  0.04538  0.54691  Biso   1.000  H
  C96      1.0000 0.49670  0.61930  0.73614  Biso   1.000  C
  C97      1.0000 0.47399  0.60890  0.74790  Biso   1.000  C
  H88      1.0000 0.46969  0.84208  0.70530  Biso   1.000  H
  H89      1.0000 0.41030  0.83774  0.67780  Biso   1.000  H
  C98      1.0000 0.47598  0.94807  0.66584  Biso   1.000  C
  O20      1.0000 0.14245  0.44336  0.69416  Biso   1.000  O
  C99      1.0000 0.03559  0.39151  0.61784  Biso   1.000  C
  H90      1.0000 0.07451  0.84143  0.62580  Biso   1.000  H
  C100     1.0000 0.12724  0.97633  0.62032  Biso   1.000  C
  C101     1.0000 0.02713  0.68957  0.58788  Biso   1.000  C
  C102     1.0000 0.19739  0.13523  0.60543  Biso   1.000  C
  H91      1.0000 0.52752  0.64199  0.72199  Biso   1.000  H
  H92      1.0000 0.49973  0.54058  0.73940  Biso   1.000  H
  C103     1.0000 0.50709  0.67721  0.76941  Biso   1.000  C
  C104     1.0000 0.53782  0.64674  0.74418  Biso   1.000  C
  H93      1.0000 0.47249  0.52945  0.74800  Biso   1.000  H
  H94      1.0000 0.46199  0.63511  0.76908  Biso   1.000  H
  H95      1.0000 0.52071  0.94512  0.66529  Biso   1.000  H
  O21      1.0000 0.44522  0.96724  0.63258  Biso   1.000  O
  H96      1.0000 0.46771  0.00901  0.68020  Biso   1.000  H
  C105     1.0000 0.17249  0.51044  0.72095  Biso   1.000  C
  H97      1.0000 0.05414  0.34638  0.60179  Biso   1.000  H
  C106     1.0000 0.01990  0.32230  0.64623  Biso   1.000  C
  H98      1.0000 0.99780  0.42436  0.60619  Biso   1.000  H
  C107     1.0000 0.13007  0.01016  0.65730  Biso   1.000  C
  H99      1.0000 0.06232  0.66000  0.60229  Biso   1.000  H
  H100     1.0000 0.00362  0.63101  0.57631  Biso   1.000  H
  H101     1.0000 0.00104  0.72930  0.60131  Biso   1.000  H
  C108     1.0000 0.26520  0.10009  0.61526  Biso   1.000  C
  H102     1.0000 0.18333  0.17503  0.62408  Biso   1.000  H
  H103     1.0000 0.19473  0.18437  0.58619  Biso   1.000  H
  H104     1.0000 0.47818  0.66566  0.78440  Biso   1.000  H
  C109     1.0000 0.55448  0.74355  0.77889  Biso   1.000  C
  C110     1.0000 0.57089  0.70907  0.76769  Biso   1.000  C
  H105     1.0000 0.55543  0.62667  0.72510  Biso   1.000  H
  C111     1.0000 0.38644  0.01302  0.62896  Biso   1.000  C
  H106     1.0000 0.21742  0.49980  0.72360  Biso   1.000  H
  H107     1.0000 0.15761  0.49218  0.74208  Biso   1.000  H
  C112     1.0000 0.15624  0.62806  0.71119  Biso   1.000  C
  H108     1.0000 0.00530  0.35810  0.66420  Biso   1.000  H
  C113     1.0000 0.02468  0.21615  0.64812  Biso   1.000  C
  H109     1.0000 0.08952  0.99574  0.66430  Biso   1.000  H
  C114     1.0000 0.17953  0.95495  0.68245  Biso   1.000  C
  H110     1.0000 0.13690  0.08854  0.65869  Biso   1.000  H
  C115     1.0000 0.29227  0.08518  0.64858  Biso   1.000  C
  C116     1.0000 0.30035  0.07552  0.58900  Biso   1.000  C
  H111     1.0000 0.58409  0.75665  0.76448  Biso   1.000  H
  H112     1.0000 0.55830  0.77705  0.80000  Biso   1.000  H
  H113     1.0000 0.55391  0.72979  0.78690  Biso   1.000  H
  H114     1.0000 0.61090  0.73184  0.76468  Biso   1.000  H
  C117     1.0000 0.35315  0.04194  0.65472  Biso   1.000  C
  C118     1.0000 0.36017  0.03276  0.59532  Biso   1.000  C
  H115     1.0000 0.16230  0.64100  0.68789  Biso   1.000  H
  H116     1.0000 0.11281  0.64264  0.71349  Biso   1.000  H
  O22      1.0000 0.19607  0.69809  0.73316  Biso   1.000  O
  H117     1.0000 0.03904  0.17708  0.63071  Biso   1.000  H
  H118     1.0000 0.01380  0.17946  0.66690  Biso   1.000  H
  C119     1.0000 0.16552  0.85306  0.69608  Biso   1.000  C
  C120     1.0000 0.23730  0.00328  0.69380  Biso   1.000  C
  C121     1.0000 0.25967  0.10861  0.67916  Biso   1.000  C
  H119     1.0000 0.28291  0.08838  0.56670  Biso   1.000  H
  H120     1.0000 0.37152  0.03276  0.67699  Biso   1.000  H
  O23      1.0000 0.39748  0.00688  0.57122  Biso   1.000  O
  C122     1.0000 0.20726  0.79957  0.71996  Biso   1.000  C
  H121     1.0000 0.12710  0.82071  0.68880  Biso   1.000  H
  C123     1.0000 0.27837  0.94987  0.71893  Biso   1.000  C
  H122     1.0000 0.22422  0.15644  0.67269  Biso   1.000  H
  H123     1.0000 0.28832  0.14588  0.69620  Biso   1.000  H
  C124     1.0000 0.37528  0.03416  0.53735  Biso   1.000  C
  C125     1.0000 0.26433  0.84986  0.73222  Biso   1.000  C
  H124     1.0000 0.31631  0.98305  0.72689  Biso   1.000  H
  H125     1.0000 0.33854  0.99197  0.52979  Biso   1.000  H
  H126     1.0000 0.40705  0.01843  0.52330  Biso   1.000  H
  H127     1.0000 0.36524  0.11082  0.53588  Biso   1.000  H
  O24      1.0000 0.30167  0.79466  0.75705  Biso   1.000  O
  C126     1.0000 0.36141  0.84200  0.76797  Biso   1.000  C
  H128     1.0000 0.38540  0.84413  0.74939  Biso   1.000  H
  H129     1.0000 0.38301  0.79859  0.78589  Biso   1.000  H
  H130     1.0000 0.35598  0.91506  0.77598  Biso   1.000  H
  O25      1.0000 0.62520  0.70292  0.52117  Biso   1.000  O
  C127     1.0000 0.67100  0.66721  0.50108  Biso   1.000  C
  C128     1.0000 0.62716  0.65755  0.55277  Biso   1.000  C
  C129     1.0000 0.73497  0.71374  0.51281  Biso   1.000  C
  H131     1.0000 0.67325  0.58785  0.50178  Biso   1.000  H
  H132     1.0000 0.65826  0.68884  0.47779  Biso   1.000  H
  C130     1.0000 0.65857  0.56278  0.56389  Biso   1.000  C
  C131     1.0000 0.59278  0.71341  0.57502  Biso   1.000  C
  H133     1.0000 0.76615  0.67704  0.50140  Biso   1.000  H
  H134     1.0000 0.74562  0.70317  0.53700  Biso   1.000  H
  O26      1.0000 0.73348  0.82914  0.50487  Biso   1.000  O
  C132     1.0000 0.65841  0.52150  0.59668  Biso   1.000  C
  H135     1.0000 0.68062  0.52494  0.54911  Biso   1.000  H
  C133     1.0000 0.59289  0.67401  0.60758  Biso   1.000  C
  O27      1.0000 0.56043  0.80293  0.56162  Biso   1.000  O
  C134     1.0000 0.77615  0.89377  0.52524  Biso   1.000  C
  C135     1.0000 0.69702  0.41854  0.60601  Biso   1.000  C
  C136     1.0000 0.62618  0.57867  0.61920  Biso   1.000  C
  H136     1.0000 0.57033  0.71144  0.62219  Biso   1.000  H
  C137     1.0000 0.52602  0.86297  0.58338  Biso   1.000  C
  C138     1.0000 0.84072  0.87755  0.52678  Biso   1.000  C
  C139     1.0000 0.75393  0.98190  0.54198  Biso   1.000  C
  C140     1.0000 0.76523  0.44811  0.61705  Biso   1.000  C
  H137     1.0000 0.69402  0.36989  0.58670  Biso   1.000  H
  H138     1.0000 0.68053  0.38046  0.62418  Biso   1.000  H
  C141     1.0000 0.62431  0.54435  0.65571  Biso   1.000  C
  H139     1.0000 0.55373  0.88836  0.60260  Biso   1.000  H
  H140     1.0000 0.50621  0.92448  0.57140  Biso   1.000  H
  H141     1.0000 0.49472  0.81645  0.59089  Biso   1.000  H
  C142     1.0000 0.88063  0.94365  0.54799  Biso   1.000  C
  O28      1.0000 0.85966  0.79728  0.50613  Biso   1.000  O
  H142     1.0000 0.71105  0.99386  0.53990  Biso   1.000  H
  C143     1.0000 0.79403  0.05324  0.56185  Biso   1.000  C
  C144     1.0000 0.78971  0.46580  0.65057  Biso   1.000  C
  C145     1.0000 0.80313  0.46670  0.59160  Biso   1.000  C
  H143     1.0000 0.63039  0.46564  0.65730  Biso   1.000  H
  H144     1.0000 0.58304  0.56016  0.66149  Biso   1.000  H
  C146     1.0000 0.67242  0.59907  0.68159  Biso   1.000  C
  H145     1.0000 0.92341  0.93062  0.55019  Biso   1.000  H
  C147     1.0000 0.85821  0.02957  0.56617  Biso   1.000  C
  C148     1.0000 0.92476  0.79736  0.50196  Biso   1.000  C
  C149     1.0000 0.76685  0.15669  0.57575  Biso   1.000  C
  C150     1.0000 0.75368  0.44574  0.68005  Biso   1.000  C
  C151     1.0000 0.85092  0.50831  0.65768  Biso   1.000  C
  C152     1.0000 0.86298  0.50831  0.59883  Biso   1.000  C
  H146     1.0000 0.78753  0.45049  0.56930  Biso   1.000  H
  C153     1.0000 0.65797  0.70170  0.69474  Biso   1.000  C
  C154     1.0000 0.73023  0.55156  0.69367  Biso   1.000  C
  C155     1.0000 0.90508  0.09182  0.59076  Biso   1.000  C
  H147     1.0000 0.93772  0.87034  0.49630  Biso   1.000  H
  H148     1.0000 0.94981  0.77459  0.52279  Biso   1.000  H
  C156     1.0000 0.93305  0.71947  0.47418  Biso   1.000  C
  H149     1.0000 0.73592  0.18658  0.55831  Biso   1.000  H
  H150     1.0000 0.80010  0.21025  0.58010  Biso   1.000  H
  C157     1.0000 0.73674  0.14399  0.60765  Biso   1.000  C
  H151     1.0000 0.78052  0.40855  0.69800  Biso   1.000  H
  H152     1.0000 0.71841  0.39831  0.67279  Biso   1.000  H
  H153     1.0000 0.86761  0.52035  0.68010  Biso   1.000  H
  C158     1.0000 0.88685  0.53248  0.63250  Biso   1.000  C
  O29      1.0000 0.90233  0.52854  0.57532  Biso   1.000  O
  H154     1.0000 0.61971  0.73397  0.68700  Biso   1.000  H
  C159     1.0000 0.69867  0.75608  0.71875  Biso   1.000  C
  C160     1.0000 0.77024  0.60586  0.71900  Biso   1.000  C
  C161     1.0000 0.90807  0.04415  0.62633  Biso   1.000  C
  H155     1.0000 0.94600  0.08764  0.58338  Biso   1.000  H
  H156     1.0000 0.89303  0.16832  0.59109  Biso   1.000  H
  H157     1.0000 0.90725  0.72750  0.45370  Biso   1.000  H
  C162     1.0000 0.97476  0.63986  0.47676  Biso   1.000  C
  C163     1.0000 0.67295  0.11803  0.60399  Biso   1.000  C
  C164     1.0000 0.76795  0.16209  0.64046  Biso   1.000  C
  O30      1.0000 0.94557  0.57884  0.63703  Biso   1.000  O
  C165     1.0000 0.87864  0.50905  0.54102  Biso   1.000  C
  C166     1.0000 0.75558  0.70661  0.73185  Biso   1.000  C
  O31      1.0000 0.68737  0.85822  0.73149  Biso   1.000  O
  H158     1.0000 0.80790  0.57294  0.72750  Biso   1.000  H
  C167     1.0000 0.94096  0.94635  0.63278  Biso   1.000  C
  C168     1.0000 0.87885  0.09157  0.65207  Biso   1.000  C
  H159     1.0000 0.97766  0.59391  0.45851  Biso   1.000  H
  H160     1.0000 0.00122  0.62978  0.49690  Biso   1.000  H
  H161     1.0000 0.65183  0.10722  0.58240  Biso   1.000  H
  C169     1.0000 0.64024  0.10763  0.63149  Biso   1.000  C
  C170     1.0000 0.83690  0.19232  0.64741  Biso   1.000  C
  C171     1.0000 0.73492  0.15128  0.66802  Biso   1.000  C
  C172     1.0000 0.97395  0.60251  0.67057  Biso   1.000  C
  H162     1.0000 0.84223  0.55361  0.53480  Biso   1.000  H
  H163     1.0000 0.90995  0.52715  0.52699  Biso   1.000  H
  H164     1.0000 0.86751  0.43321  0.53798  Biso   1.000  H
  O32      1.0000 0.79247  0.76198  0.75675  Biso   1.000  O
  C173     1.0000 0.64962  0.92833  0.70874  Biso   1.000  C
  C174     1.0000 0.94667  0.89516  0.66417  Biso   1.000  C
  H165     1.0000 0.95962  0.91433  0.61549  Biso   1.000  H
  C175     1.0000 0.88648  0.04144  0.68377  Biso   1.000  C
  C176     1.0000 0.67177  0.12261  0.66397  Biso   1.000  C
  O33      1.0000 0.57794  0.07888  0.62770  Biso   1.000  O
  H166     1.0000 0.84803  0.23573  0.62868  Biso   1.000  H
  H167     1.0000 0.84390  0.23704  0.66769  Biso   1.000  H
  H168     1.0000 0.75551  0.16349  0.68971  Biso   1.000  H
  C177     1.0000 0.95245  0.70948  0.68425  Biso   1.000  C
  H169     1.0000 0.96459  0.54345  0.68538  Biso   1.000  H
  H170     1.0000 0.01890  0.60496  0.67090  Biso   1.000  H
  C178     1.0000 0.85227  0.71480  0.76789  Biso   1.000  C
  C179     1.0000 0.66531  0.04644  0.71850  Biso   1.000  C
  H171     1.0000 0.65771  0.91490  0.68579  Biso   1.000  H
  H172     1.0000 0.60582  0.91424  0.70990  Biso   1.000  H
  C180     1.0000 0.92058  0.94586  0.69036  Biso   1.000  C
  O34      1.0000 0.98052  0.79818  0.66792  Biso   1.000  O
  H173     1.0000 0.86802  0.07322  0.70108  Biso   1.000  H
  O35      1.0000 0.63808  0.11475  0.69110  Biso   1.000  O
  C181     1.0000 0.53636  0.14882  0.60687  Biso   1.000  C
  H174     1.0000 0.96483  0.71300  0.70849  Biso   1.000  H
  H175     1.0000 0.90732  0.71480  0.67980  Biso   1.000  H
  H176     1.0000 0.87630  0.71210  0.74929  Biso   1.000  H
  H177     1.0000 0.87380  0.75870  0.78569  Biso   1.000  H
  H178     1.0000 0.84688  0.64199  0.77608  Biso   1.000  H
  H179     1.0000 0.71022  0.05643  0.72239  Biso   1.000  H
  H180     1.0000 0.64840  0.06512  0.73910  Biso   1.000  H
  O36      1.0000 0.92663  0.89893  0.72242  Biso   1.000  O
  H181     1.0000 0.55734  0.18683  0.59018  Biso   1.000  H
  H182     1.0000 0.50074  0.10902  0.59559  Biso   1.000  H
  C182     1.0000 0.51710  0.22926  0.63430  Biso   1.000  C
  C183     1.0000 0.51793  0.25637  0.61589  Biso   1.000  C
  H183     1.0000 0.55410  0.15726  0.58589  Biso   1.000  H
  H184     1.0000 0.49794  0.10763  0.60131  Biso   1.000  H
  C184     1.0000 0.97108  0.94365  0.74810  Biso   1.000  C
  C185     1.0000 0.99181  0.93226  0.73660  Biso   1.000  C
  H185     1.0000 0.49840  0.20059  0.65199  Biso   1.000  H
  C186     1.0000 0.52632  0.33615  0.63318  Biso   1.000  C
  H186     1.0000 0.54493  0.23728  0.66471  Biso   1.000  H
  C187     1.0000 0.52692  0.28610  0.64840  Biso   1.000  C
  H187     1.0000 0.50001  0.30469  0.59939  Biso   1.000  H
  H188     1.0000 0.96132  0.92063  0.77009  Biso   1.000  H
  H189     1.0000 0.96910  0.02302  0.74719  Biso   1.000  H
  H190     1.0000 0.99381  0.01016  0.74150  Biso   1.000  H
  C188     1.0000 0.03563  0.90646  0.74375  Biso   1.000  C
  C189     1.0000 0.00621  0.86633  0.76830  Biso   1.000  C
  H191     1.0000 0.02103  0.91555  0.72080  Biso   1.000  H
  H192     1.0000 0.54492  0.36653  0.61569  Biso   1.000  H
  H193     1.0000 0.51412  0.38095  0.64999  Biso   1.000  H
  H194     1.0000 0.51523  0.35564  0.65469  Biso   1.000  H
  H195     1.0000 0.05201  0.92768  0.72439  Biso   1.000  H
  C190     1.0000 0.07032  0.84520  0.76612  Biso   1.000  C
  H196     1.0000 0.97701  0.86969  0.78339  Biso   1.000  H
  H197     1.0000 0.05491  0.82300  0.78569  Biso   1.000  H
  C191     1.0000 0.05601  0.80375  0.77720  Biso   1.000  C
  H198     1.0000 0.11022  0.82406  0.76228  Biso   1.000  H
  H199     1.0000 0.08671  0.79753  0.76309  Biso   1.000  H
  H200     1.0000 0.06019  0.76616  0.79770  Biso   1.000  H
  O37      1.0000 0.37469  0.29708  0.47883  Biso   1.000  O
  C192     1.0000 0.37267  0.34237  0.44721  Biso   1.000  C
  C193     1.0000 0.32889  0.33279  0.49893  Biso   1.000  C
  C194     1.0000 0.34131  0.43722  0.43608  Biso   1.000  C
  C195     1.0000 0.40706  0.28659  0.42499  Biso   1.000  C
  C196     1.0000 0.26491  0.28618  0.48720  Biso   1.000  C
  H201     1.0000 0.32662  0.41207  0.49819  Biso   1.000  H
  H202     1.0000 0.34162  0.31108  0.52218  Biso   1.000  H
  C197     1.0000 0.34146  0.47842  0.40330  Biso   1.000  C
  H203     1.0000 0.31926  0.47498  0.45090  Biso   1.000  H
  C198     1.0000 0.40700  0.32599  0.39243  Biso   1.000  C
  O38      1.0000 0.43940  0.19699  0.43836  Biso   1.000  O
  H204     1.0000 0.23374  0.32288  0.49860  Biso   1.000  H
  H205     1.0000 0.25422  0.29675  0.46301  Biso   1.000  H
  O39      1.0000 0.26641  0.17078  0.49514  Biso   1.000  O
  C199     1.0000 0.37370  0.42125  0.38080  Biso   1.000  C
  C200     1.0000 0.30281  0.58137  0.39397  Biso   1.000  C
  H206     1.0000 0.42955  0.28848  0.37779  Biso   1.000  H
  C201     1.0000 0.47385  0.13703  0.41659  Biso   1.000  C
  C202     1.0000 0.22368  0.10623  0.47474  Biso   1.000  C
  C203     1.0000 0.37553  0.45557  0.34430  Biso   1.000  C
  C204     1.0000 0.23466  0.55189  0.38295  Biso   1.000  C
  H207     1.0000 0.30587  0.63011  0.41331  Biso   1.000  H
  H208     1.0000 0.31935  0.61946  0.37579  Biso   1.000  H
  H209     1.0000 0.44615  0.11156  0.39741  Biso   1.000  H
  H210     1.0000 0.49363  0.07552  0.42860  Biso   1.000  H
  H211     1.0000 0.50516  0.18347  0.40909  Biso   1.000  H
  C205     1.0000 0.24595  0.01810  0.45803  Biso   1.000  C
  C206     1.0000 0.15916  0.12237  0.47319  Biso   1.000  C
  C207     1.0000 0.32746  0.40085  0.31839  Biso   1.000  C
  H212     1.0000 0.36944  0.53428  0.34270  Biso   1.000  H
  H213     1.0000 0.41685  0.43976  0.33851  Biso   1.000  H
  C208     1.0000 0.21018  0.53420  0.34943  Biso   1.000  C
  C209     1.0000 0.19675  0.53330  0.40838  Biso   1.000  C
  C210     1.0000 0.20585  0.94684  0.43813  Biso   1.000  C
  H214     1.0000 0.28884  0.00606  0.46010  Biso   1.000  H
  C211     1.0000 0.11925  0.05627  0.45201  Biso   1.000  C
  O40      1.0000 0.14023  0.20272  0.49387  Biso   1.000  O
  C212     1.0000 0.34191  0.29830  0.30527  Biso   1.000  C
  C213     1.0000 0.26961  0.44844  0.30633  Biso   1.000  C
  C214     1.0000 0.24620  0.55418  0.31993  Biso   1.000  C
  C215     1.0000 0.14891  0.49169  0.34230  Biso   1.000  C
  C216     1.0000 0.13690  0.49160  0.40115  Biso   1.000  C
  H215     1.0000 0.21235  0.54951  0.43070  Biso   1.000  H
  C217     1.0000 0.23304  0.84331  0.42425  Biso   1.000  C
  C218     1.0000 0.14162  0.97051  0.43383  Biso   1.000  C
  H216     1.0000 0.07642  0.06929  0.44979  Biso   1.000  H
  C219     1.0000 0.07512  0.20256  0.49802  Biso   1.000  C
  C220     1.0000 0.30116  0.24392  0.28123  Biso   1.000  C
  H217     1.0000 0.38018  0.26595  0.31300  Biso   1.000  H
  C221     1.0000 0.22965  0.39405  0.28100  Biso   1.000  C
  H218     1.0000 0.21936  0.59137  0.30201  Biso   1.000  H
  H219     1.0000 0.28148  0.60169  0.32721  Biso   1.000  H
  H220     1.0000 0.13227  0.47956  0.31990  Biso   1.000  H
  C222     1.0000 0.11303  0.46752  0.36750  Biso   1.000  C
  O41      1.0000 0.09750  0.47146  0.42468  Biso   1.000  O
  C223     1.0000 0.26313  0.85593  0.39233  Biso   1.000  C
  H221     1.0000 0.26392  0.81342  0.44170  Biso   1.000  H
  H222     1.0000 0.19973  0.78975  0.41991  Biso   1.000  H
  C224     1.0000 0.09480  0.90818  0.40924  Biso   1.000  C
  H223     1.0000 0.06212  0.12958  0.50370  Biso   1.000  H
  H224     1.0000 0.05002  0.22541  0.47719  Biso   1.000  H
  C225     1.0000 0.06683  0.28045  0.52580  Biso   1.000  C
  C226     1.0000 0.24430  0.29339  0.26813  Biso   1.000  C
  O42      1.0000 0.31252  0.14170  0.26851  Biso   1.000  O
  H225     1.0000 0.19199  0.42698  0.27251  Biso   1.000  H
  O43      1.0000 0.05431  0.42108  0.36298  Biso   1.000  O
  C227     1.0000 0.12125  0.49087  0.45899  Biso   1.000  C
  C228     1.0000 0.32689  0.88197  0.39602  Biso   1.000  C
  C229     1.0000 0.23188  0.83799  0.35951  Biso   1.000  C
  C230     1.0000 0.09181  0.95593  0.37365  Biso   1.000  C
  H226     1.0000 0.05383  0.91228  0.41659  Biso   1.000  H
  H227     1.0000 0.10685  0.83168  0.40888  Biso   1.000  H
  H228     1.0000 0.09264  0.27250  0.54630  Biso   1.000  H
  C231     1.0000 0.02512  0.36006  0.52322  Biso   1.000  C
  O44      1.0000 0.20741  0.23794  0.24323  Biso   1.000  O
  C232     1.0000 0.35022  0.07159  0.29124  Biso   1.000  C
  C233     1.0000 0.02594  0.39749  0.32943  Biso   1.000  C
  H229     1.0000 0.15765  0.44639  0.46521  Biso   1.000  H
  H230     1.0000 0.08993  0.47277  0.47299  Biso   1.000  H
  H231     1.0000 0.13232  0.56679  0.46199  Biso   1.000  H
  C234     1.0000 0.35964  0.89229  0.36849  Biso   1.000  C
  H232     1.0000 0.34805  0.89270  0.41761  Biso   1.000  H
  C235     1.0000 0.26496  0.84872  0.33199  Biso   1.000  C
  C236     1.0000 0.16297  0.80760  0.35256  Biso   1.000  C
  C237     1.0000 0.12103  0.90835  0.34794  Biso   1.000  C
  C238     1.0000 0.05892  0.05357  0.36722  Biso   1.000  C
  H233     1.0000 0.02222  0.40609  0.54150  Biso   1.000  H
  H234     1.0000 0.99862  0.37022  0.50310  Biso   1.000  H
  C239     1.0000 0.14761  0.28520  0.23211  Biso   1.000  C
  H235     1.0000 0.34217  0.08510  0.31419  Biso   1.000  H
  H236     1.0000 0.39407  0.08567  0.29010  Biso   1.000  H
  C240     1.0000 0.33456  0.95364  0.28148  Biso   1.000  C
  C241     1.0000 0.04743  0.29052  0.31576  Biso   1.000  C
  H237     1.0000 0.03524  0.45647  0.31459  Biso   1.000  H
  H238     1.0000 0.98098  0.39495  0.32910  Biso   1.000  H
  C242     1.0000 0.32810  0.87739  0.33601  Biso   1.000  C
  O45      1.0000 0.42189  0.92112  0.37228  Biso   1.000  O
  H239     1.0000 0.24438  0.83651  0.31030  Biso   1.000  H
  H240     1.0000 0.15185  0.76427  0.37129  Biso   1.000  H
  H241     1.0000 0.15594  0.76288  0.33229  Biso   1.000  H
  C243     1.0000 0.11340  0.95864  0.31624  Biso   1.000  C
  C244     1.0000 0.05321  0.10476  0.33583  Biso   1.000  C
  H242     1.0000 0.04026  0.08559  0.38449  Biso   1.000  H
  H243     1.0000 0.12358  0.28790  0.25069  Biso   1.000  H
  H244     1.0000 0.12608  0.24130  0.21429  Biso   1.000  H
  H245     1.0000 0.15295  0.35801  0.22389  Biso   1.000  H
  H246     1.0000 0.28966  0.94348  0.27759  Biso   1.000  H
  H247     1.0000 0.35148  0.93488  0.26090  Biso   1.000  H
  O46      1.0000 0.36175  0.88525  0.30888  Biso   1.000  O
  H248     1.0000 0.03505  0.28700  0.29149  Biso   1.000  H
  H249     1.0000 0.09257  0.28520  0.32021  Biso   1.000  H
  O47      1.0000 0.01936  0.20174  0.33206  Biso   1.000  O
  C245     1.0000 0.46352  0.85109  0.39311  Biso   1.000  C
  C246     1.0000 0.07930  0.05406  0.30961  Biso   1.000  C
  H250     1.0000 0.13186  0.92669  0.29890  Biso   1.000  H
  H251     1.0000 0.44254  0.81317  0.40979  Biso   1.000  H
  H252     1.0000 0.49914  0.89090  0.40438  Biso   1.000  H
  C247     1.0000 0.48274  0.77074  0.36571  Biso   1.000  C
  C248     1.0000 0.48195  0.74371  0.38409  Biso   1.000  C
  H253     1.0000 0.44573  0.84282  0.41409  Biso   1.000  H
  H254     1.0000 0.50195  0.89229  0.39870  Biso   1.000  H
  O48      1.0000 0.07325  0.10099  0.27756  Biso   1.000  O
  H255     1.0000 0.50143  0.79941  0.34799  Biso   1.000  H
  C249     1.0000 0.47356  0.66394  0.36680  Biso   1.000  C
  H256     1.0000 0.45495  0.76272  0.33530  Biso   1.000  H
  C250     1.0000 0.47296  0.71390  0.35160  Biso   1.000  C
  H257     1.0000 0.49987  0.69531  0.40059  Biso   1.000  H
  C251     1.0000 0.02880  0.05627  0.25188  Biso   1.000  C
  C252     1.0000 0.00807  0.06774  0.26340  Biso   1.000  C
  H258     1.0000 0.45495  0.63355  0.38429  Biso   1.000  H
  H259     1.0000 0.48576  0.61913  0.34998  Biso   1.000  H
  H260     1.0000 0.48465  0.64428  0.34531  Biso   1.000  H
  H261     1.0000 0.03857  0.07929  0.22991  Biso   1.000  H
  C253     1.0000 0.96425  0.09346  0.25623  Biso   1.000  C
  C254     1.0000 0.99367  0.13359  0.23171  Biso   1.000  C
  H262     1.0000 0.03078  0.97698  0.25279  Biso   1.000  H
  H263     1.0000 0.00607  0.98976  0.25850  Biso   1.000  H
  H264     1.0000 0.97886  0.08436  0.27920  Biso   1.000  H
  H265     1.0000 0.94786  0.07232  0.27559  Biso   1.000  H
  C255     1.0000 0.92956  0.15480  0.23385  Biso   1.000  C
  H266     1.0000 0.02287  0.13031  0.21659  Biso   1.000  H
  H267     1.0000 0.94497  0.17700  0.21429  Biso   1.000  H
  C256     1.0000 0.94387  0.19617  0.22281  Biso   1.000  C
  H268     1.0000 0.88966  0.17585  0.23770  Biso   1.000  H
  H269     1.0000 0.91317  0.20239  0.23689  Biso   1.000  H
  H270     1.0000 0.93970  0.23376  0.20231  Biso   1.000  H
  C257     1.0000 0.63841  0.34196  0.73202  Biso   1.000  C
  O49      1.0000 0.69816  0.29470  0.74294  Biso   1.000  O
  H271     1.0000 0.61442  0.34417  0.75060  Biso   1.000  H
  H272     1.0000 0.61681  0.29855  0.71410  Biso   1.000  H
  H273     1.0000 0.64379  0.41510  0.72398  Biso   1.000  H
  C258     1.0000 0.73549  0.34991  0.76777  Biso   1.000  C
  C259     1.0000 0.79256  0.29962  0.78003  Biso   1.000  C
  C260     1.0000 0.72141  0.44991  0.78106  Biso   1.000  C
  O50      1.0000 0.80375  0.19813  0.76683  Biso   1.000  O
  C261     1.0000 0.83425  0.35310  0.80389  Biso   1.000  C
  C262     1.0000 0.76252  0.50324  0.80617  Biso   1.000  C
  H274     1.0000 0.68351  0.48309  0.77310  Biso   1.000  H
  C263     1.0000 0.84358  0.12810  0.78877  Biso   1.000  C
  C264     1.0000 0.82029  0.45499  0.81752  Biso   1.000  C
  H275     1.0000 0.87268  0.32067  0.81120  Biso   1.000  H
  C265     1.0000 0.74016  0.60857  0.82083  Biso   1.000  C
  C266     1.0000 0.82733  0.01048  0.77904  Biso   1.000  C
  H276     1.0000 0.83747  0.14096  0.81208  Biso   1.000  H
  H277     1.0000 0.88701  0.14268  0.78650  Biso   1.000  H
  C267     1.0000 0.86975  0.51020  0.84269  Biso   1.000  C
  C268     1.0000 0.70755  0.58522  0.85141  Biso   1.000  C
  H278     1.0000 0.77561  0.65648  0.82730  Biso   1.000  H
  H279     1.0000 0.71150  0.64584  0.80379  Biso   1.000  H
  O51      1.0000 0.85737  0.94332  0.80581  Biso   1.000  O
  H280     1.0000 0.78240  0.99984  0.77639  Biso   1.000  H
  H281     1.0000 0.84221  0.99222  0.75788  Biso   1.000  H
  C269     1.0000 0.87257  0.47637  0.87965  Biso   1.000  C
  H282     1.0000 0.86288  0.58858  0.84130  Biso   1.000  H
  H283     1.0000 0.91031  0.49578  0.83569  Biso   1.000  H
  C270     1.0000 0.64667  0.54198  0.84527  Biso   1.000  C
  C271     1.0000 0.73462  0.60013  0.88473  Biso   1.000  C
  C272     1.0000 0.82582  0.93243  0.83354  Biso   1.000  C
  C273     1.0000 0.84509  0.53706  0.90341  Biso   1.000  C
  C274     1.0000 0.90761  0.38259  0.89009  Biso   1.000  C
  C275     1.0000 0.61334  0.51298  0.87103  Biso   1.000  C
  H284     1.0000 0.62830  0.53264  0.82300  Biso   1.000  H
  C276     1.0000 0.69947  0.57556  0.91100  Biso   1.000  C
  C277     1.0000 0.80243  0.63527  0.89454  Biso   1.000  C
  C278     1.0000 0.76262  0.90294  0.83061  Biso   1.000  C
  C279     1.0000 0.85887  0.94602  0.86577  Biso   1.000  C
  C280     1.0000 0.85507  0.50446  0.93711  Biso   1.000  C
  C281     1.0000 0.91636  0.34999  0.92386  Biso   1.000  C
  H285     1.0000 0.92527  0.34147  0.87419  Biso   1.000  H
  O52      1.0000 0.55455  0.46720  0.86739  Biso   1.000  O
  C282     1.0000 0.63960  0.53280  0.90465  Biso   1.000  C
  H286     1.0000 0.71687  0.58825  0.93329  Biso   1.000  H
  H287     1.0000 0.81649  0.67508  0.87588  Biso   1.000  H
  H288     1.0000 0.80510  0.68425  0.91380  Biso   1.000  H
  C283     1.0000 0.73183  0.88828  0.85880  Biso   1.000  C
  H289     1.0000 0.74058  0.89270  0.80920  Biso   1.000  H
  C284     1.0000 0.82827  0.93103  0.89378  Biso   1.000  C
  O53      1.0000 0.92092  0.97633  0.86934  Biso   1.000  O
  C285     1.0000 0.89049  0.41322  0.94778  Biso   1.000  C
  H290     1.0000 0.83739  0.54542  0.95309  Biso   1.000  H
  O54      1.0000 0.95136  0.26112  0.93602  Biso   1.000  O
  C286     1.0000 0.52384  0.44811  0.83412  Biso   1.000  C
  O55      1.0000 0.60234  0.50676  0.92874  Biso   1.000  O
  C287     1.0000 0.66272  0.85928  0.85308  Biso   1.000  C
  C288     1.0000 0.76521  0.90294  0.89123  Biso   1.000  C
  H291     1.0000 0.85068  0.93996  0.91519  Biso   1.000  H
  C289     1.0000 0.96423  0.89147  0.88215  Biso   1.000  C
  O56      1.0000 0.90257  0.39143  0.98208  Biso   1.000  O
  C290     1.0000 0.97268  0.18961  0.91208  Biso   1.000  C
  C291     1.0000 0.54427  0.34303  0.81875  Biso   1.000  C
  H292     1.0000 0.53211  0.50897  0.81979  Biso   1.000  H
  H293     1.0000 0.47910  0.44516  0.83468  Biso   1.000  H
  C292     1.0000 0.62450  0.53420  0.96264  Biso   1.000  C
  C293     1.0000 0.62170  0.96142  0.84919  Biso   1.000  C
  H294     1.0000 0.65250  0.81653  0.87209  Biso   1.000  H
  H295     1.0000 0.65408  0.81464  0.83289  Biso   1.000  H
  C294     1.0000 0.73720  0.88451  0.92371  Biso   1.000  C
  H296     1.0000 0.94568  0.84642  0.89818  Biso   1.000  H
  C295     1.0000 0.97991  0.82234  0.85374  Biso   1.000  C
  H297     1.0000 0.00197  0.92440  0.89378  Biso   1.000  H
  C296     1.0000 0.87519  0.29265  0.99255  Biso   1.000  C
  H298     1.0000 0.93750  0.15996  0.89770  Biso   1.000  H
  H299     1.0000 0.99620  0.13097  0.92369  Biso   1.000  H
  H300     1.0000 0.99878  0.22926  0.89869  Biso   1.000  H
  O57      1.0000 0.51754  0.25227  0.83486  Biso   1.000  O
  H301     1.0000 0.53009  0.34212  0.79469  Biso   1.000  H
  H302     1.0000 0.58948  0.33778  0.82219  Biso   1.000  H
  H303     1.0000 0.66128  0.49201  0.97020  Biso   1.000  H
  H304     1.0000 0.59277  0.51839  0.97670  Biso   1.000  H
  H305     1.0000 0.63458  0.61078  0.96408  Biso   1.000  H
  C297     1.0000 0.61114  0.01073  0.81744  Biso   1.000  C
  C298     1.0000 0.59545  0.00991  0.87606  Biso   1.000  C
  C299     1.0000 0.71403  0.98763  0.93999  Biso   1.000  C
  H306     1.0000 0.76840  0.84954  0.93999  Biso   1.000  H
  H307     1.0000 0.70239  0.83397  0.91909  Biso   1.000  H
  H308     1.0000 0.99447  0.85814  0.83579  Biso   1.000  H
  C300     1.0000 0.97509  0.71619  0.85184  Biso   1.000  C
  C301     1.0000 0.80490  0.29503  0.98696  Biso   1.000  C
  H309     1.0000 0.88966  0.23155  0.98008  Biso   1.000  H
  H310     1.0000 0.88940  0.28078  0.01638  Biso   1.000  H
  C302     1.0000 0.55274  0.15718  0.83845  Biso   1.000  C
  C303     1.0000 0.57611  0.10623  0.81155  Biso   1.000  C
  H311     1.0000 0.62808  0.97870  0.79959  Biso   1.000  H
  C304     1.0000 0.56184  0.10763  0.86989  Biso   1.000  C
  C305     1.0000 0.60154  0.96339  0.91160  Biso   1.000  C
  C306     1.0000 0.65156  0.02056  0.93569  Biso   1.000  C
  C307     1.0000 0.75711  0.04849  0.96160  Biso   1.000  C
  H312     1.0000 0.96078  0.67712  0.86929  Biso   1.000  H
  H313     1.0000 0.98598  0.67950  0.83309  Biso   1.000  H
  O58      1.0000 0.78388  0.19461  0.00086  Biso   1.000  O
  H314     1.0000 0.78947  0.35777  0.99818  Biso   1.000  H
  H315     1.0000 0.78977  0.29970  0.96299  Biso   1.000  H
  O59      1.0000 0.56621  0.15038  0.77929  Biso   1.000  O
  H316     1.0000 0.54490  0.14039  0.88759  Biso   1.000  H
  H317     1.0000 0.61148  0.88599  0.91079  Biso   1.000  H
  H318     1.0000 0.56170  0.97019  0.92020  Biso   1.000  H
  C308     1.0000 0.63331  0.10992  0.95422  Biso   1.000  C
  C309     1.0000 0.73924  0.13826  0.97948  Biso   1.000  C
  H319     1.0000 0.79907  0.02842  0.96408  Biso   1.000  H
  C310     1.0000 0.50311  0.11926  0.76382  Biso   1.000  C
  C311     1.0000 0.52583  0.10885  0.75209  Biso   1.000  C
  H320     1.0000 0.59149  0.13023  0.95180  Biso   1.000  H
  C312     1.0000 0.67645  0.16889  0.97614  Biso   1.000  C
  C313     1.0000 0.49269  0.17716  0.73058  Biso   1.000  C
  C314     1.0000 0.46201  0.14678  0.75581  Biso   1.000  C
  H321     1.0000 0.47230  0.14203  0.77800  Biso   1.000  H
  H322     1.0000 0.50009  0.04063  0.76059  Biso   1.000  H
  H323     1.0000 0.53783  0.13506  0.73091  Biso   1.000  H
  H324     1.0000 0.52733  0.02957  0.75199  Biso   1.000  H
  O60      1.0000 0.66284  0.25653  0.99548  Biso   1.000  O
  C315     1.0000 0.44529  0.24359  0.72110  Biso   1.000  C
  H325     1.0000 0.52159  0.16570  0.71559  Biso   1.000  H
  C316     1.0000 0.42893  0.20903  0.73230  Biso   1.000  C
  H326     1.0000 0.44439  0.12671  0.77490  Biso   1.000  H
  C317     1.0000 0.59895  0.27406  0.00043  Biso   1.000  C
  H327     1.0000 0.41568  0.25670  0.73549  Biso   1.000  H
  H328     1.0000 0.44152  0.27709  0.69999  Biso   1.000  H
  H329     1.0000 0.44592  0.22975  0.71311  Biso   1.000  H
  H330     1.0000 0.38892  0.23196  0.73531  Biso   1.000  H
  H331     1.0000 0.57266  0.27603  0.97869  Biso   1.000  H
  H332     1.0000 0.59510  0.34401  0.01148  Biso   1.000  H
  C318     1.0000 0.57706  0.18257  0.02207  Biso   1.000  C
  H333     1.0000 0.60483  0.15702  0.04020  Biso   1.000  H
  C319     1.0000 0.52291  0.13908  0.01676  Biso   1.000  C
  H334     1.0000 0.49398  0.16299  0.99879  Biso   1.000  H
  H335     1.0000 0.51220  0.08338  0.03079  Biso   1.000  H
  C320     1.0000 0.36147  0.65796  0.26796  Biso   1.000  C
  O61      1.0000 0.30173  0.70530  0.25706  Biso   1.000  O
  H336     1.0000 0.38546  0.65575  0.24940  Biso   1.000  H
  H337     1.0000 0.38308  0.70137  0.28590  Biso   1.000  H
  H338     1.0000 0.35604  0.58490  0.27599  Biso   1.000  H
  C321     1.0000 0.26439  0.65009  0.23224  Biso   1.000  C
  C322     1.0000 0.27843  0.55009  0.21894  Biso   1.000  C
  C323     1.0000 0.20732  0.70038  0.21998  Biso   1.000  C
  C324     1.0000 0.23736  0.49668  0.19381  Biso   1.000  C
  H339     1.0000 0.31638  0.51691  0.22690  Biso   1.000  H
  C325     1.0000 0.16559  0.64690  0.19609  Biso   1.000  C
  O62      1.0000 0.19613  0.80187  0.23317  Biso   1.000  O
  C326     1.0000 0.25973  0.39135  0.17918  Biso   1.000  C
  C327     1.0000 0.17959  0.54501  0.18246  Biso   1.000  C
  H340     1.0000 0.12716  0.67925  0.18881  Biso   1.000  H
  C328     1.0000 0.15630  0.87190  0.21120  Biso   1.000  C
  H341     1.0000 0.22428  0.34352  0.17270  Biso   1.000  H
  H342     1.0000 0.28838  0.35408  0.19619  Biso   1.000  H
  C329     1.0000 0.29233  0.41478  0.14859  Biso   1.000  C
  C330     1.0000 0.13013  0.48980  0.15731  Biso   1.000  C
  C331     1.0000 0.17256  0.98943  0.22096  Biso   1.000  C
  H343     1.0000 0.16236  0.85896  0.18790  Biso   1.000  H
  H344     1.0000 0.11288  0.85724  0.21350  Biso   1.000  H
  C332     1.0000 0.35321  0.45794  0.15471  Biso   1.000  C
  C333     1.0000 0.26526  0.39979  0.11527  Biso   1.000  C
  H345     1.0000 0.13696  0.41142  0.15870  Biso   1.000  H
  H346     1.0000 0.08957  0.50422  0.16429  Biso   1.000  H
  C334     1.0000 0.12731  0.52355  0.12033  Biso   1.000  C
  H347     1.0000 0.21748  0.00025  0.22359  Biso   1.000  H
  H348     1.0000 0.15767  0.00786  0.24209  Biso   1.000  H
  O63      1.0000 0.14251  0.05668  0.19417  Biso   1.000  O
  H349     1.0000 0.37158  0.46728  0.17700  Biso   1.000  H
  C335     1.0000 0.38654  0.48702  0.12895  Biso   1.000  C
  C336     1.0000 0.30041  0.42436  0.08898  Biso   1.000  C
  C337     1.0000 0.19745  0.36465  0.10544  Biso   1.000  C
  C338     1.0000 0.15479  0.46286  0.09659  Biso   1.000  C
  C339     1.0000 0.09222  0.61741  0.10989  Biso   1.000  C
  C340     1.0000 0.17402  0.06766  0.16646  Biso   1.000  C
  C341     1.0000 0.36023  0.46720  0.09533  Biso   1.000  C
  O64      1.0000 0.44533  0.53272  0.13259  Biso   1.000  O
  H350     1.0000 0.28301  0.41166  0.06671  Biso   1.000  H
  H351     1.0000 0.18339  0.32492  0.12409  Biso   1.000  H
  H352     1.0000 0.19479  0.31567  0.08620  Biso   1.000  H
  C342     1.0000 0.14481  0.49545  0.06287  Biso   1.000  C
  C343     1.0000 0.08352  0.65001  0.07614  Biso   1.000  C
  H353     1.0000 0.07456  0.65845  0.12579  Biso   1.000  H
  C344     1.0000 0.14101  0.05389  0.13421  Biso   1.000  C
  C345     1.0000 0.23722  0.09706  0.16939  Biso   1.000  C
  O65      1.0000 0.39754  0.49316  0.07124  Biso   1.000  O
  C346     1.0000 0.47604  0.55189  0.16585  Biso   1.000  C
  H354     1.0000 0.16249  0.45458  0.04689  Biso   1.000  H
  C347     1.0000 0.10939  0.58678  0.05223  Biso   1.000  C
  O66      1.0000 0.04847  0.73888  0.06396  Biso   1.000  O
  C348     1.0000 0.17157  0.06905  0.10622  Biso   1.000  C
  O67      1.0000 0.07896  0.02367  0.13067  Biso   1.000  O
  H355     1.0000 0.25926  0.10722  0.19080  Biso   1.000  H
  C349     1.0000 0.26804  0.11164  0.14118  Biso   1.000  C
  C350     1.0000 0.37534  0.46580  0.03736  Biso   1.000  C
  C351     1.0000 0.45562  0.65697  0.18125  Biso   1.000  C
  H356     1.0000 0.46777  0.49095  0.18019  Biso   1.000  H
  H357     1.0000 0.52078  0.55475  0.16530  Biso   1.000  H
  O68      1.0000 0.09727  0.60849  0.01790  Biso   1.000  O
  C352     1.0000 0.02720  0.81039  0.08789  Biso   1.000  C
  C353     1.0000 0.23467  0.09706  0.10875  Biso   1.000  C
  H358     1.0000 0.14920  0.06004  0.08481  Biso   1.000  H
  C354     1.0000 0.03565  0.10853  0.11785  Biso   1.000  C
  C355     1.0000 0.33716  0.14072  0.14689  Biso   1.000  C
  H359     1.0000 0.33860  0.50799  0.02980  Biso   1.000  H
  H360     1.0000 0.40711  0.48161  0.02331  Biso   1.000  H
  H361     1.0000 0.36530  0.38922  0.03590  Biso   1.000  H
  H362     1.0000 0.46979  0.65788  0.20529  Biso   1.000  H
  H363     1.0000 0.41036  0.66213  0.17781  Biso   1.000  H
  O69      1.0000 0.48235  0.74765  0.16515  Biso   1.000  O
  C356     1.0000 0.12470  0.70727  0.00746  Biso   1.000  C
  H364     1.0000 0.06238  0.83995  0.10230  Biso   1.000  H
  H365     1.0000 0.00368  0.86895  0.07629  Biso   1.000  H
  H366     1.0000 0.00109  0.77066  0.10129  Biso   1.000  H
  C357     1.0000 0.26268  0.11549  0.07627  Biso   1.000  C
  H367     1.0000 0.99790  0.07552  0.10620  Biso   1.000  H
  H368     1.0000 0.05420  0.15358  0.10180  Biso   1.000  H
  C358     1.0000 0.01996  0.17774  0.14624  Biso   1.000  C
  C359     1.0000 0.37818  0.03866  0.15081  Biso   1.000  C
  H369     1.0000 0.34739  0.18347  0.12791  Biso   1.000  H
  H370     1.0000 0.34580  0.18536  0.16709  Biso   1.000  H
  C360     1.0000 0.44714  0.84274  0.16153  Biso   1.000  C
  C361     1.0000 0.19498  0.70497  0.01302  Biso   1.000  C
  H371     1.0000 0.11022  0.76837  0.01989  Biso   1.000  H
  H372     1.0000 0.11048  0.71914  0.98359  Biso   1.000  H
  C362     1.0000 0.28581  0.01245  0.06001  Biso   1.000  C
  H373     1.0000 0.23149  0.15046  0.06001  Biso   1.000  H
  H374     1.0000 0.29749  0.16603  0.08089  Biso   1.000  H
  H375     1.0000 0.00536  0.14194  0.16421  Biso   1.000  H
  C363     1.0000 0.02474  0.28381  0.14813  Biso   1.000  C
  C364     1.0000 0.38875  0.98927  0.18256  Biso   1.000  C
  C365     1.0000 0.40443  0.99009  0.12394  Biso   1.000  C
  C366     1.0000 0.42377  0.89377  0.18845  Biso   1.000  C
  C367     1.0000 0.43805  0.89237  0.13011  Biso   1.000  C
  H376     1.0000 0.21041  0.64215  0.00179  Biso   1.000  H
  H377     1.0000 0.21011  0.70030  0.03701  Biso   1.000  H
  O70      1.0000 0.21600  0.80539  0.99912  Biso   1.000  O
  C368     1.0000 0.34832  0.97936  0.06431  Biso   1.000  C
  C369     1.0000 0.24273  0.95143  0.03840  Biso   1.000  C
  H378     1.0000 0.03910  0.32288  0.13069  Biso   1.000  H
  H379     1.0000 0.01390  0.32042  0.16689  Biso   1.000  H
  H380     1.0000 0.37176  0.02138  0.20041  Biso   1.000  H
  C370     1.0000 0.39835  0.03653  0.08840  Biso   1.000  C
  O71      1.0000 0.43368  0.84954  0.22071  Biso   1.000  O
  H381     1.0000 0.45498  0.85953  0.11239  Biso   1.000  H
  C371     1.0000 0.26060  0.86166  0.02053  Biso   1.000  C
  C372     1.0000 0.36658  0.89008  0.04578  Biso   1.000  C
  H382     1.0000 0.20081  0.97158  0.03590  Biso   1.000  H
  H383     1.0000 0.38841  0.11393  0.08921  Biso   1.000  H
  H384     1.0000 0.43818  0.02973  0.07981  Biso   1.000  H
  C373     1.0000 0.49676  0.88066  0.23615  Biso   1.000  C
  C374     1.0000 0.47405  0.89106  0.24788  Biso   1.000  C
  C375     1.0000 0.32342  0.83103  0.02384  Biso   1.000  C
  H385     1.0000 0.40839  0.86977  0.04821  Biso   1.000  H
  H386     1.0000 0.52759  0.85797  0.22200  Biso   1.000  H
  H387     1.0000 0.49978  0.95937  0.23939  Biso   1.000  H
  C376     1.0000 0.50715  0.82275  0.26942  Biso   1.000  C
  C377     1.0000 0.53788  0.85322  0.24419  Biso   1.000  C
  H388     1.0000 0.47254  0.97051  0.24798  Biso   1.000  H
  H389     1.0000 0.46205  0.86494  0.26909  Biso   1.000  H
  O72      1.0000 0.33704  0.74347  0.00452  Biso   1.000  O
  H390     1.0000 0.47824  0.83430  0.28439  Biso   1.000  H
  C378     1.0000 0.55454  0.75641  0.27888  Biso   1.000  C
  C379     1.0000 0.57095  0.79081  0.26768  Biso   1.000  C
  H391     1.0000 0.55544  0.87329  0.22508  Biso   1.000  H
  C380     1.0000 0.40093  0.72586  0.99954  Biso   1.000  C
  H392     1.0000 0.58415  0.74330  0.26449  Biso   1.000  H
  H393     1.0000 0.55836  0.72291  0.30001  Biso   1.000  H
  H394     1.0000 0.55397  0.77017  0.28689  Biso   1.000  H
  H395     1.0000 0.61096  0.76812  0.26469  Biso   1.000  H
  H396     1.0000 0.42718  0.72397  0.02131  Biso   1.000  H
  H397     1.0000 0.40478  0.65599  0.98850  Biso   1.000  H
  C381     1.0000 0.42278  0.81735  0.97793  Biso   1.000  C
  H398     1.0000 0.39506  0.84298  0.95981  Biso   1.000  H
  C382     1.0000 0.47697  0.86084  0.98324  Biso   1.000  C
  H399     1.0000 0.50590  0.83701  0.00119  Biso   1.000  H
  H400     1.0000 0.48768  0.91654  0.96921  Biso   1.000  H
  O73      1.0000 0.68742  0.64166  0.23148  Biso   1.000  O
  C383     1.0000 0.64972  0.57155  0.20875  Biso   1.000  C
  C384     1.0000 0.69878  0.74388  0.21876  Biso   1.000  C
  C385     1.0000 0.66537  0.45360  0.21851  Biso   1.000  C
  H401     1.0000 0.65777  0.58506  0.18580  Biso   1.000  H
  H402     1.0000 0.60587  0.58572  0.20989  Biso   1.000  H
  C386     1.0000 0.65803  0.79826  0.19475  Biso   1.000  C
  C387     1.0000 0.75564  0.79335  0.23186  Biso   1.000  C
  O74      1.0000 0.63815  0.38521  0.19111  Biso   1.000  O
  H403     1.0000 0.71028  0.44344  0.22240  Biso   1.000  H
  H404     1.0000 0.64845  0.43484  0.23909  Biso   1.000  H
  C388     1.0000 0.67248  0.90089  0.18160  Biso   1.000  C
  H405     1.0000 0.61976  0.76599  0.18699  Biso   1.000  H
  C389     1.0000 0.77030  0.89409  0.21902  Biso   1.000  C
  O75      1.0000 0.79253  0.73798  0.25676  Biso   1.000  O
  C390     1.0000 0.67184  0.37734  0.16398  Biso   1.000  C
  C391     1.0000 0.62441  0.95552  0.15572  Biso   1.000  C
  C392     1.0000 0.73034  0.94840  0.19369  Biso   1.000  C
  H406     1.0000 0.80796  0.92694  0.22751  Biso   1.000  H
  C393     1.0000 0.85233  0.78516  0.26788  Biso   1.000  C
  C394     1.0000 0.64030  0.39225  0.13150  Biso   1.000  C
  C395     1.0000 0.73498  0.34868  0.16803  Biso   1.000  C
  H407     1.0000 0.58310  0.93980  0.16151  Biso   1.000  H
  C396     1.0000 0.62624  0.92129  0.11919  Biso   1.000  C
  H408     1.0000 0.63050  0.03432  0.15731  Biso   1.000  H
  C397     1.0000 0.75374  0.05414  0.18006  Biso   1.000  C
  H409     1.0000 0.87636  0.78786  0.24930  Biso   1.000  H
  H410     1.0000 0.87386  0.74126  0.28570  Biso   1.000  H
  H411     1.0000 0.84694  0.85797  0.27609  Biso   1.000  H
  O76      1.0000 0.57800  0.42116  0.12771  Biso   1.000  O
  C398     1.0000 0.67305  0.38193  0.10397  Biso   1.000  C
  C399     1.0000 0.76801  0.33795  0.14047  Biso   1.000  C
  H412     1.0000 0.75556  0.33647  0.18969  Biso   1.000  H
  C400     1.0000 0.65848  0.97846  0.09669  Biso   1.000  C
  C401     1.0000 0.59294  0.82595  0.10756  Biso   1.000  C
  H413     1.0000 0.78058  0.09133  0.19801  Biso   1.000  H
  H414     1.0000 0.71847  0.10165  0.17281  Biso   1.000  H
  C402     1.0000 0.78976  0.03416  0.15056  Biso   1.000  C
  C403     1.0000 0.53642  0.35105  0.10688  Biso   1.000  C
  C404     1.0000 0.73681  0.35597  0.10766  Biso   1.000  C
  H415     1.0000 0.65190  0.39266  0.08241  Biso   1.000  H
  C405     1.0000 0.83696  0.30756  0.14743  Biso   1.000  C
  C406     1.0000 0.65863  0.93718  0.06390  Biso   1.000  C
  C407     1.0000 0.69708  0.08142  0.10602  Biso   1.000  C
  C408     1.0000 0.59288  0.78655  0.07500  Biso   1.000  C
  H416     1.0000 0.57039  0.78843  0.12220  Biso   1.000  H
  C409     1.0000 0.85098  0.99165  0.15769  Biso   1.000  C
  C410     1.0000 0.76528  0.05185  0.11704  Biso   1.000  C
  C411     1.0000 0.51799  0.24367  0.11590  Biso   1.000  C
  H417     1.0000 0.55740  0.31321  0.09019  Biso   1.000  H
  H418     1.0000 0.50080  0.39086  0.09560  Biso   1.000  H
  C412     1.0000 0.51720  0.27070  0.13431  Biso   1.000  C
  H419     1.0000 0.55421  0.34278  0.08590  Biso   1.000  H
  H420     1.0000 0.49799  0.39225  0.10129  Biso   1.000  H
  C413     1.0000 0.76691  0.34327  0.07576  Biso   1.000  C
  H421     1.0000 0.84809  0.26431  0.12869  Biso   1.000  H
  H422     1.0000 0.84396  0.26292  0.16770  Biso   1.000  H
  C414     1.0000 0.87890  0.40831  0.15205  Biso   1.000  C
  C415     1.0000 0.62727  0.84233  0.05278  Biso   1.000  C
  H423     1.0000 0.68068  0.97494  0.04909  Biso   1.000  H
  H424     1.0000 0.69408  0.13015  0.08671  Biso   1.000  H
  H425     1.0000 0.68059  0.11942  0.12419  Biso   1.000  H
  O77      1.0000 0.56054  0.69694  0.06163  Biso   1.000  O
  C416     1.0000 0.88691  0.96748  0.13251  Biso   1.000  C
  H426     1.0000 0.86767  0.97952  0.18009  Biso   1.000  H
  C417     1.0000 0.80319  0.03334  0.09161  Biso   1.000  C
  C418     1.0000 0.52698  0.21386  0.14839  Biso   1.000  C
  C419     1.0000 0.52638  0.16390  0.13319  Biso   1.000  C
  H427     1.0000 0.50007  0.19527  0.09940  Biso   1.000  H
  H428     1.0000 0.49846  0.29937  0.15200  Biso   1.000  H
  H429     1.0000 0.54498  0.26268  0.16469  Biso   1.000  H
  C420     1.0000 0.79409  0.44680  0.06186  Biso   1.000  C
  H430     1.0000 0.73597  0.31338  0.05829  Biso   1.000  H
  H431     1.0000 0.80021  0.28970  0.08011  Biso   1.000  H
  C421     1.0000 0.88654  0.45860  0.18375  Biso   1.000  C
  C422     1.0000 0.90813  0.45589  0.12634  Biso   1.000  C
  O78      1.0000 0.62525  0.79703  0.02116  Biso   1.000  O
  C423     1.0000 0.52609  0.63699  0.08339  Biso   1.000  C
  O79      1.0000 0.94564  0.92112  0.13704  Biso   1.000  O
  C424     1.0000 0.86304  0.99156  0.09884  Biso   1.000  C
  H432     1.0000 0.78759  0.04955  0.06929  Biso   1.000  H
  H433     1.0000 0.51418  0.11909  0.15000  Biso   1.000  H
  H434     1.0000 0.51529  0.14432  0.15471  Biso   1.000  H
  H435     1.0000 0.54498  0.13351  0.11570  Biso   1.000  H
  C425     1.0000 0.85827  0.47047  0.06618  Biso   1.000  C
  C426     1.0000 0.75399  0.51806  0.04199  Biso   1.000  C
  H436     1.0000 0.86808  0.42665  0.20109  Biso   1.000  H
  C427     1.0000 0.92064  0.55410  0.19037  Biso   1.000  C
  C428     1.0000 0.90514  0.40822  0.09078  Biso   1.000  C
  C429     1.0000 0.94102  0.55361  0.13279  Biso   1.000  C
  C430     1.0000 0.67105  0.83275  0.00106  Biso   1.000  C
  H437     1.0000 0.55379  0.61160  0.10261  Biso   1.000  H
  H438     1.0000 0.50627  0.57548  0.07139  Biso   1.000  H
  H439     1.0000 0.49478  0.68351  0.09090  Biso   1.000  H
  C431     1.0000 0.97400  0.89745  0.17056  Biso   1.000  C
  O80      1.0000 0.90244  0.97141  0.07533  Biso   1.000  O
  C432     1.0000 0.88069  0.55631  0.04798  Biso   1.000  C
  C433     1.0000 0.77626  0.60619  0.02525  Biso   1.000  C
  H440     1.0000 0.71110  0.50610  0.03989  Biso   1.000  H
  C434     1.0000 0.94672  0.60480  0.16416  Biso   1.000  C
  O81      1.0000 0.92669  0.60103  0.22243  Biso   1.000  O
  H441     1.0000 0.94611  0.41232  0.08339  Biso   1.000  H
  H442     1.0000 0.89309  0.33172  0.09110  Biso   1.000  H
  H443     1.0000 0.95968  0.58555  0.11550  Biso   1.000  H
  C435     1.0000 0.73503  0.78614  0.01279  Biso   1.000  C
  H444     1.0000 0.67331  0.91203  0.00179  Biso   1.000  H
  H445     1.0000 0.65818  0.81104  0.97781  Biso   1.000  H
  C436     1.0000 0.95252  0.79048  0.18426  Biso   1.000  C
  H446     1.0000 0.96470  0.95643  0.18539  Biso   1.000  H
  H447     1.0000 0.01896  0.89500  0.17091  Biso   1.000  H
  C437     1.0000 0.87869  0.99083  0.04100  Biso   1.000  C
  H448     1.0000 0.92347  0.56925  0.05020  Biso   1.000  H
  C438     1.0000 0.84078  0.62241  0.02680  Biso   1.000  C
  O82      1.0000 0.73354  0.67082  0.00488  Biso   1.000  O
  O83      1.0000 0.98058  0.70170  0.16793  Biso   1.000  O
  C439     1.0000 0.97114  0.55631  0.24811  Biso   1.000  C
  C440     1.0000 0.99187  0.56770  0.23661  Biso   1.000  C
  H449     1.0000 0.76620  0.82284  0.00139  Biso   1.000  H
  H450     1.0000 0.74568  0.79679  0.03701  Biso   1.000  H
  H451     1.0000 0.96489  0.78696  0.20850  Biso   1.000  H
  H452     1.0000 0.90738  0.78516  0.17981  Biso   1.000  H
  H453     1.0000 0.84229  0.94635  0.03481  Biso   1.000  H
  H454     1.0000 0.91001  0.97273  0.02700  Biso   1.000  H
  H455     1.0000 0.86757  0.06675  0.03799  Biso   1.000  H
  O84      1.0000 0.85971  0.70268  0.00612  Biso   1.000  O
  H456     1.0000 0.96916  0.47694  0.24720  Biso   1.000  H
  H457     1.0000 0.96138  0.57924  0.27010  Biso   1.000  H
  H458     1.0000 0.99387  0.48980  0.24149  Biso   1.000  H
  C441     1.0000 0.03569  0.59350  0.24376  Biso   1.000  C
  C442     1.0000 0.00627  0.63355  0.26831  Biso   1.000  C
  H459     1.0000 0.02109  0.58440  0.22081  Biso   1.000  H
  C443     1.0000 0.92482  0.70260  0.00197  Biso   1.000  C
  H460     1.0000 0.05207  0.57228  0.22440  Biso   1.000  H
  C444     1.0000 0.07038  0.65476  0.26613  Biso   1.000  C
  H461     1.0000 0.97707  0.63027  0.28340  Biso   1.000  H
  H462     1.0000 0.05497  0.67696  0.28570  Biso   1.000  H
  C445     1.0000 0.05607  0.69621  0.27721  Biso   1.000  C
  H463     1.0000 0.94992  0.72537  0.02280  Biso   1.000  H
  H464     1.0000 0.93768  0.62954  0.99631  Biso   1.000  H
  C446     1.0000 0.93297  0.78049  0.97419  Biso   1.000  C
  H465     1.0000 0.11028  0.67589  0.26229  Biso   1.000  H
  H466     1.0000 0.08677  0.70235  0.26310  Biso   1.000  H
  H467     1.0000 0.06025  0.73380  0.29771  Biso   1.000  H
  H468     1.0000 0.90716  0.77246  0.95369  Biso   1.000  H
  C447     1.0000 0.97468  0.86010  0.97677  Biso   1.000  C
  H469     1.0000 0.97758  0.90605  0.95849  Biso   1.000  H
  H470     1.0000 0.00118  0.87018  0.99689  Biso   1.000  H
  O85      1.0000 0.31246  0.35826  0.76850  Biso   1.000  O
  C448     1.0000 0.30110  0.25612  0.78122  Biso   1.000  C
  C449     1.0000 0.35016  0.42837  0.79125  Biso   1.000  C
  C450     1.0000 0.24424  0.20657  0.76812  Biso   1.000  C
  C451     1.0000 0.34181  0.20165  0.80526  Biso   1.000  C
  C452     1.0000 0.33451  0.54640  0.78149  Biso   1.000  C
  H471     1.0000 0.34212  0.41486  0.81420  Biso   1.000  H
  H472     1.0000 0.39401  0.41428  0.79009  Biso   1.000  H
  O86      1.0000 0.20735  0.26202  0.74322  Biso   1.000  O
  C453     1.0000 0.22959  0.10591  0.78099  Biso   1.000  C
  C454     1.0000 0.32741  0.09911  0.81840  Biso   1.000  C
  H473     1.0000 0.38011  0.23401  0.81299  Biso   1.000  H
  H474     1.0000 0.28960  0.55647  0.77760  Biso   1.000  H
  H475     1.0000 0.35142  0.56507  0.76089  Biso   1.000  H
  O87      1.0000 0.36169  0.61471  0.80887  Biso   1.000  O
  C455     1.0000 0.14755  0.21476  0.73210  Biso   1.000  C
  H476     1.0000 0.19188  0.07298  0.77249  Biso   1.000  H
  C456     1.0000 0.26955  0.05160  0.80632  Biso   1.000  C
  C457     1.0000 0.37547  0.04439  0.84429  Biso   1.000  C
  C458     1.0000 0.32805  0.62257  0.83602  Biso   1.000  C
  H477     1.0000 0.12352  0.21206  0.75070  Biso   1.000  H
  H478     1.0000 0.12603  0.25866  0.71430  Biso   1.000  H
  H479     1.0000 0.15289  0.14203  0.72388  Biso   1.000  H
  C459     1.0000 0.24614  0.94578  0.81994  Biso   1.000  C
  H480     1.0000 0.41679  0.06020  0.83850  Biso   1.000  H
  C460     1.0000 0.37364  0.07871  0.88079  Biso   1.000  C
  H481     1.0000 0.36938  0.96568  0.84269  Biso   1.000  H
  C461     1.0000 0.35959  0.60767  0.86850  Biso   1.000  C
  C462     1.0000 0.26490  0.65124  0.83198  Biso   1.000  C
  H482     1.0000 0.21930  0.90859  0.80199  Biso   1.000  H
  H483     1.0000 0.28142  0.89827  0.82720  Biso   1.000  H
  C463     1.0000 0.21007  0.96584  0.84942  Biso   1.000  C
  C464     1.0000 0.34141  0.02154  0.90331  Biso   1.000  C
  C465     1.0000 0.40693  0.17397  0.89242  Biso   1.000  C
  C466     1.0000 0.32682  0.61799  0.89601  Biso   1.000  C
  O88      1.0000 0.42183  0.57884  0.87227  Biso   1.000  O
  H484     1.0000 0.24427  0.66344  0.81029  Biso   1.000  H
  C467     1.0000 0.23182  0.66197  0.85950  Biso   1.000  C
  C468     1.0000 0.14886  0.00835  0.84231  Biso   1.000  C
  C469     1.0000 0.23459  0.94807  0.88294  Biso   1.000  C
  C470     1.0000 0.30275  0.91858  0.89398  Biso   1.000  C
  C471     1.0000 0.34125  0.06282  0.93607  Biso   1.000  C
  C472     1.0000 0.40700  0.21337  0.92498  Biso   1.000  C
  H485     1.0000 0.42949  0.21148  0.87778  Biso   1.000  H
  C473     1.0000 0.26308  0.64403  0.89234  Biso   1.000  C
  H486     1.0000 0.34799  0.60726  0.91759  Biso   1.000  H
  C474     1.0000 0.46346  0.64887  0.89310  Biso   1.000  C
  C475     1.0000 0.16291  0.69236  0.85255  Biso   1.000  C
  H487     1.0000 0.13221  0.02039  0.81989  Biso   1.000  H
  C476     1.0000 0.11297  0.03244  0.86749  Biso   1.000  C
  C477     1.0000 0.19670  0.96666  0.90839  Biso   1.000  C
  H488     1.0000 0.30576  0.86993  0.91330  Biso   1.000  H
  H489     1.0000 0.31929  0.88050  0.87578  Biso   1.000  H
  H490     1.0000 0.31915  0.02498  0.95089  Biso   1.000  H
  C478     1.0000 0.37262  0.15759  0.94722  Biso   1.000  C
  O89      1.0000 0.43934  0.30297  0.93837  Biso   1.000  O
  C479     1.0000 0.23293  0.65665  0.92424  Biso   1.000  C
  H491     1.0000 0.44248  0.68679  0.90978  Biso   1.000  H
  H492     1.0000 0.49908  0.60906  0.90440  Biso   1.000  H
  C480     1.0000 0.48268  0.72930  0.86570  Biso   1.000  C
  C481     1.0000 0.48189  0.75625  0.88410  Biso   1.000  C
  H493     1.0000 0.44567  0.65714  0.91408  Biso   1.000  H
  H494     1.0000 0.50189  0.60767  0.89869  Biso   1.000  H
  H495     1.0000 0.15179  0.73569  0.87128  Biso   1.000  H
  H496     1.0000 0.15588  0.73708  0.83230  Biso   1.000  H
  C482     1.0000 0.12097  0.59161  0.84793  Biso   1.000  C
  C483     1.0000 0.13684  0.00835  0.90116  Biso   1.000  C
  O90      1.0000 0.05425  0.07888  0.86297  Biso   1.000  O
  H497     1.0000 0.21229  0.95053  0.93069  Biso   1.000  H
  O91      1.0000 0.37462  0.20297  0.97882  Biso   1.000  O
  C484     1.0000 0.47380  0.36301  0.91661  Biso   1.000  C
  C485     1.0000 0.20574  0.55320  0.93812  Biso   1.000  C
  H498     1.0000 0.26386  0.68654  0.94168  Biso   1.000  H
  H499     1.0000 0.19967  0.71030  0.91989  Biso   1.000  H
  H500     1.0000 0.50138  0.70055  0.84800  Biso   1.000  H
  C486     1.0000 0.47350  0.83610  0.86678  Biso   1.000  C
  H501     1.0000 0.45489  0.73724  0.83529  Biso   1.000  H
  C487     1.0000 0.47290  0.78606  0.85159  Biso   1.000  C
  H502     1.0000 0.49976  0.80465  0.90058  Biso   1.000  H
  C488     1.0000 0.11329  0.54140  0.81623  Biso   1.000  C
  C489     1.0000 0.09175  0.54411  0.87363  Biso   1.000  C
  O92      1.0000 0.09744  0.02850  0.92467  Biso   1.000  O
  C490     1.0000 0.02587  0.10247  0.82942  Biso   1.000  C
  C491     1.0000 0.32883  0.16717  0.99892  Biso   1.000  C
  H503     1.0000 0.44609  0.38840  0.89740  Biso   1.000  H
  H504     1.0000 0.49357  0.42452  0.92859  Biso   1.000  H
  H505     1.0000 0.50510  0.31649  0.90910  Biso   1.000  H
  C492     1.0000 0.14156  0.52945  0.93382  Biso   1.000  C
  C493     1.0000 0.24585  0.48186  0.95801  Biso   1.000  C
  H506     1.0000 0.45490  0.86649  0.88430  Biso   1.000  H
  H507     1.0000 0.48571  0.88083  0.85000  Biso   1.000  H
  H508     1.0000 0.48459  0.85568  0.84530  Biso   1.000  H
  H509     1.0000 0.13180  0.57327  0.79889  Biso   1.000  H
  C494     1.0000 0.07924  0.44590  0.80960  Biso   1.000  C
  C495     1.0000 0.05886  0.44639  0.86721  Biso   1.000  C
  C496     1.0000 0.09474  0.59178  0.90923  Biso   1.000  C
  C497     1.0000 0.12119  0.00909  0.95898  Biso   1.000  C
  C498     1.0000 0.04737  0.20952  0.81575  Biso   1.000  C
  H510     1.0000 0.03518  0.04349  0.81458  Biso   1.000  H
  H511     1.0000 0.98087  0.10500  0.82909  Biso   1.000  H
  C499     1.0000 0.26485  0.21378  0.98719  Biso   1.000  C
  H512     1.0000 0.32656  0.08789  0.99818  Biso   1.000  H
  H513     1.0000 0.34170  0.18888  0.02220  Biso   1.000  H
  C500     1.0000 0.11919  0.44369  0.95200  Biso   1.000  C
  C501     1.0000 0.22363  0.39381  0.97475  Biso   1.000  C
  H514     1.0000 0.28878  0.49390  0.96009  Biso   1.000  H
  C502     1.0000 0.05311  0.39520  0.83582  Biso   1.000  C
  O93      1.0000 0.07319  0.39897  0.77758  Biso   1.000  O
  H515     1.0000 0.04020  0.41437  0.88450  Biso   1.000  H
  H516     1.0000 0.05377  0.58768  0.91658  Biso   1.000  H
  H517     1.0000 0.10680  0.66828  0.90890  Biso   1.000  H
  H518     1.0000 0.15759  0.05357  0.96519  Biso   1.000  H
  H519     1.0000 0.08986  0.02719  0.97298  Biso   1.000  H
  H520     1.0000 0.13226  0.93316  0.96198  Biso   1.000  H
  H521     1.0000 0.03500  0.21296  0.79150  Biso   1.000  H
  H522     1.0000 0.09251  0.21476  0.82020  Biso   1.000  H
  O94      1.0000 0.01930  0.29822  0.83205  Biso   1.000  O
  H523     1.0000 0.23367  0.17708  0.99859  Biso   1.000  H
  H524     1.0000 0.25416  0.20321  0.96299  Biso   1.000  H
  O95      1.0000 0.26635  0.32918  0.99512  Biso   1.000  O
  C503     1.0000 0.15911  0.37759  0.97321  Biso   1.000  C
  H525     1.0000 0.07637  0.43067  0.94980  Biso   1.000  H
  C504     1.0000 0.02874  0.44369  0.75189  Biso   1.000  C
  C505     1.0000 0.00801  0.43230  0.76339  Biso   1.000  C
  O96      1.0000 0.14017  0.29724  0.99386  Biso   1.000  O
  H526     1.0000 0.03068  0.52297  0.75280  Biso   1.000  H
  H527     1.0000 0.03851  0.42067  0.72990  Biso   1.000  H
  H528     1.0000 0.00601  0.51020  0.75849  Biso   1.000  H
  C506     1.0000 0.96419  0.40650  0.75621  Biso   1.000  C
  C507     1.0000 0.99361  0.36637  0.73169  Biso   1.000  C
  H529     1.0000 0.97880  0.41560  0.77919  Biso   1.000  H
  C508     1.0000 0.07507  0.29740  0.99803  Biso   1.000  C
  H530     1.0000 0.94781  0.42772  0.77560  Biso   1.000  H
  C509     1.0000 0.92950  0.34516  0.73384  Biso   1.000  C
  H531     1.0000 0.02282  0.36965  0.71660  Biso   1.000  H
  H532     1.0000 0.94491  0.32296  0.71430  Biso   1.000  H
  C510     1.0000 0.94381  0.30379  0.72280  Biso   1.000  C
  H533     1.0000 0.04997  0.27455  0.97720  Biso   1.000  H
  H534     1.0000 0.06220  0.37038  0.00369  Biso   1.000  H
  C511     1.0000 0.06687  0.21951  0.02581  Biso   1.000  C
  H535     1.0000 0.88960  0.32411  0.73769  Biso   1.000  H
  H536     1.0000 0.91312  0.29757  0.73690  Biso   1.000  H
  H537     1.0000 0.93959  0.26620  0.70229  Biso   1.000  H
  H538     1.0000 0.09271  0.22746  0.04629  Biso   1.000  H
  C512     1.0000 0.02520  0.13990  0.02321  Biso   1.000  C
  H539     1.0000 0.99870  0.12982  0.00309  Biso   1.000  H
  H540     1.0000 0.02230  0.09387  0.04149  Biso   1.000  H
