data_image0
_cell_length_a       18.078
_cell_length_b       28.704
_cell_length_c       21.242
_cell_angle_alpha    90
_cell_angle_beta     90
_cell_angle_gamma    90

_symmetry_space_group_name_H-M    "P 1"
_symmetry_int_tables_number       1

loop_
  _symmetry_equiv_pos_as_xyz
  'x, y, z'

loop_
  _atom_site_label
  _atom_site_occupancy
  _atom_site_fract_x
  _atom_site_fract_y
  _atom_site_fract_z
  _atom_site_thermal_displace_type
  _atom_site_B_iso_or_equiv
  _atom_site_type_symbol
  C1       1.0000 0.70279  0.41426  0.39582  Biso   1.000  C
  C2       1.0000 0.63657  0.39273  0.41418  Biso   1.000  C
  C3       1.0000 0.76690  0.38779  0.38942  Biso   1.000  C
  H1       1.0000 0.70400  0.44680  0.38782  Biso   1.000  H
  C4       1.0000 0.56749  0.41890  0.41705  Biso   1.000  C
  C5       1.0000 0.64150  0.34577  0.42802  Biso   1.000  C
  N1       1.0000 0.76640  0.34194  0.40109  Biso   1.000  N
  H2       1.0000 0.81159  0.40238  0.37661  Biso   1.000  H
  C6       1.0000 0.50000  0.39566  0.41479  Biso   1.000  C
  C7       1.0000 0.56560  0.46805  0.41912  Biso   1.000  C
  H3       1.0000 0.59879  0.33020  0.44341  Biso   1.000  H
  C8       1.0000 0.70511  0.32100  0.42058  Biso   1.000  C
  C9       1.0000 0.83461  0.31365  0.38640  Biso   1.000  C
  C10      1.0000 0.43251  0.41890  0.41705  Biso   1.000  C
  H4       1.0000 0.50000  0.36260  0.41159  Biso   1.000  H
  C11      1.0000 0.50000  0.49261  0.41940  Biso   1.000  C
  H5       1.0000 0.61102  0.48471  0.42030  Biso   1.000  H
  H6       1.0000 0.70561  0.28860  0.42939  Biso   1.000  H
  H7       1.0000 0.83040  0.28219  0.40519  Biso   1.000  H
  H8       1.0000 0.87897  0.32908  0.40392  Biso   1.000  H
  C12      1.0000 0.84080  0.31003  0.31541  Biso   1.000  C
  C13      1.0000 0.36337  0.39273  0.41418  Biso   1.000  C
  C14      1.0000 0.43440  0.46805  0.41912  Biso   1.000  C
  C15      1.0000 0.50000  0.54452  0.41818  Biso   1.000  C
  C16      1.0000 0.79201  0.28191  0.28189  Biso   1.000  C
  C17      1.0000 0.89081  0.33560  0.28208  Biso   1.000  C
  C18      1.0000 0.35850  0.34577  0.42802  Biso   1.000  C
  C19      1.0000 0.29721  0.41426  0.39582  Biso   1.000  C
  H9       1.0000 0.38898  0.48471  0.42030  Biso   1.000  H
  C20      1.0000 0.56588  0.56985  0.41592  Biso   1.000  C
  C21      1.0000 0.43412  0.56985  0.41592  Biso   1.000  C
  H10      1.0000 0.75827  0.26251  0.30402  Biso   1.000  H
  C22      1.0000 0.79201  0.28191  0.21811  Biso   1.000  C
  H11      1.0000 0.92637  0.35371  0.30402  Biso   1.000  H
  C23      1.0000 0.89081  0.33560  0.21792  Biso   1.000  C
  C24      1.0000 0.29489  0.32100  0.42058  Biso   1.000  C
  H12      1.0000 0.40121  0.33020  0.44341  Biso   1.000  H
  C25      1.0000 0.23310  0.38779  0.38942  Biso   1.000  C
  H13      1.0000 0.29600  0.44680  0.38782  Biso   1.000  H
  C26      1.0000 0.56350  0.61772  0.40848  Biso   1.000  C
  H14      1.0000 0.61207  0.55431  0.41931  Biso   1.000  H
  C27      1.0000 0.43650  0.61772  0.40848  Biso   1.000  C
  H15      1.0000 0.38787  0.55431  0.41931  Biso   1.000  H
  C28      1.0000 0.84080  0.31003  0.18459  Biso   1.000  C
  H16      1.0000 0.75827  0.26251  0.19598  Biso   1.000  H
  H17      1.0000 0.92637  0.35371  0.19598  Biso   1.000  H
  N2       1.0000 0.23360  0.34194  0.40109  Biso   1.000  N
  H18      1.0000 0.29439  0.28860  0.42939  Biso   1.000  H
  H19      1.0000 0.18841  0.40238  0.37661  Biso   1.000  H
  N3       1.0000 0.50000  0.64061  0.40340  Biso   1.000  N
  H20      1.0000 0.60859  0.63469  0.40712  Biso   1.000  H
  H21      1.0000 0.39141  0.63469  0.40712  Biso   1.000  H
  C29      1.0000 0.83461  0.31365  0.11360  Biso   1.000  C
  C30      1.0000 0.16539  0.31365  0.38640  Biso   1.000  C
  C31      1.0000 0.50000  0.69179  0.38631  Biso   1.000  C
  N4       1.0000 0.76640  0.34194  0.09891  Biso   1.000  N
  H22      1.0000 0.83040  0.28219  0.09481  Biso   1.000  H
  H23      1.0000 0.87897  0.32908  0.09608  Biso   1.000  H
  C32      1.0000 0.15920  0.31003  0.31541  Biso   1.000  C
  H24      1.0000 0.16960  0.28219  0.40519  Biso   1.000  H
  H25      1.0000 0.12098  0.32908  0.40392  Biso   1.000  H
  C33      1.0000 0.50000  0.69590  0.31579  Biso   1.000  C
  H26      1.0000 0.45558  0.70718  0.40392  Biso   1.000  H
  H27      1.0000 0.54442  0.70718  0.40392  Biso   1.000  H
  C34      1.0000 0.70511  0.32100  0.07942  Biso   1.000  C
  C35      1.0000 0.76690  0.38779  0.11058  Biso   1.000  C
  C36      1.0000 0.20799  0.28191  0.28189  Biso   1.000  C
  C37      1.0000 0.10919  0.33560  0.28208  Biso   1.000  C
  C38      1.0000 0.56599  0.69677  0.28241  Biso   1.000  C
  C39      1.0000 0.43401  0.69677  0.28241  Biso   1.000  C
  C40      1.0000 0.64150  0.34577  0.07198  Biso   1.000  C
  H28      1.0000 0.70561  0.28860  0.07061  Biso   1.000  H
  C41      1.0000 0.70279  0.41426  0.10418  Biso   1.000  C
  H29      1.0000 0.81159  0.40238  0.12339  Biso   1.000  H
  H30      1.0000 0.24167  0.26251  0.30402  Biso   1.000  H
  C42      1.0000 0.20799  0.28191  0.21811  Biso   1.000  C
  H31      1.0000 0.07363  0.35371  0.30402  Biso   1.000  H
  C43      1.0000 0.10919  0.33560  0.21792  Biso   1.000  C
  H32      1.0000 0.61168  0.69739  0.30449  Biso   1.000  H
  C44      1.0000 0.56599  0.69677  0.21759  Biso   1.000  C
  H33      1.0000 0.38832  0.69739  0.30449  Biso   1.000  H
  C45      1.0000 0.43401  0.69677  0.21759  Biso   1.000  C
  C46      1.0000 0.63657  0.39273  0.08582  Biso   1.000  C
  H34      1.0000 0.59879  0.33020  0.05659  Biso   1.000  H
  H35      1.0000 0.70400  0.44680  0.11218  Biso   1.000  H
  C47      1.0000 0.15920  0.31003  0.18459  Biso   1.000  C
  H36      1.0000 0.24167  0.26251  0.19598  Biso   1.000  H
  H37      1.0000 0.07363  0.35371  0.19598  Biso   1.000  H
  C48      1.0000 0.50000  0.69590  0.18421  Biso   1.000  C
  H38      1.0000 0.61168  0.69739  0.19551  Biso   1.000  H
  H39      1.0000 0.38832  0.69739  0.19551  Biso   1.000  H
  C49      1.0000 0.56749  0.41890  0.08295  Biso   1.000  C
  C50      1.0000 0.16539  0.31365  0.11360  Biso   1.000  C
  C51      1.0000 0.50000  0.69179  0.11369  Biso   1.000  C
  C52      1.0000 0.50000  0.39566  0.08521  Biso   1.000  C
  C53      1.0000 0.56560  0.46805  0.08088  Biso   1.000  C
  N5       1.0000 0.23360  0.34194  0.09891  Biso   1.000  N
  H40      1.0000 0.16960  0.28219  0.09481  Biso   1.000  H
  H41      1.0000 0.12098  0.32908  0.09608  Biso   1.000  H
  N6       1.0000 0.50000  0.64061  0.09660  Biso   1.000  N
  H42      1.0000 0.45558  0.70718  0.09608  Biso   1.000  H
  H43      1.0000 0.54442  0.70718  0.09608  Biso   1.000  H
  C54      1.0000 0.43251  0.41890  0.08295  Biso   1.000  C
  H44      1.0000 0.50000  0.36260  0.08841  Biso   1.000  H
  C55      1.0000 0.50000  0.49261  0.08060  Biso   1.000  C
  H45      1.0000 0.61102  0.48471  0.07970  Biso   1.000  H
  C56      1.0000 0.29489  0.32100  0.07942  Biso   1.000  C
  C57      1.0000 0.23310  0.38779  0.11058  Biso   1.000  C
  C58      1.0000 0.56350  0.61772  0.09152  Biso   1.000  C
  C59      1.0000 0.43650  0.61772  0.09152  Biso   1.000  C
  C60      1.0000 0.36337  0.39273  0.08582  Biso   1.000  C
  C61      1.0000 0.43440  0.46805  0.08088  Biso   1.000  C
  C62      1.0000 0.50000  0.54452  0.08182  Biso   1.000  C
  C63      1.0000 0.35850  0.34577  0.07198  Biso   1.000  C
  H46      1.0000 0.29439  0.28860  0.07061  Biso   1.000  H
  H47      1.0000 0.18841  0.40238  0.12339  Biso   1.000  H
  C64      1.0000 0.29721  0.41426  0.10418  Biso   1.000  C
  C65      1.0000 0.56588  0.56985  0.08408  Biso   1.000  C
  H48      1.0000 0.60859  0.63469  0.09288  Biso   1.000  H
  C66      1.0000 0.43412  0.56985  0.08408  Biso   1.000  C
  H49      1.0000 0.39141  0.63469  0.09288  Biso   1.000  H
  H50      1.0000 0.38898  0.48471  0.07970  Biso   1.000  H
  H51      1.0000 0.40121  0.33020  0.05659  Biso   1.000  H
  H52      1.0000 0.29600  0.44680  0.11218  Biso   1.000  H
  H53      1.0000 0.61207  0.55431  0.08069  Biso   1.000  H
  H54      1.0000 0.38787  0.55431  0.08069  Biso   1.000  H
  C67      1.0000 0.70279  0.58574  0.60418  Biso   1.000  C
  C68      1.0000 0.63657  0.60727  0.58582  Biso   1.000  C
  C69      1.0000 0.76690  0.61221  0.61058  Biso   1.000  C
  H55      1.0000 0.70400  0.55320  0.61218  Biso   1.000  H
  C70      1.0000 0.56749  0.58110  0.58295  Biso   1.000  C
  C71      1.0000 0.64150  0.65423  0.57198  Biso   1.000  C
  N7       1.0000 0.76640  0.65806  0.59891  Biso   1.000  N
  H56      1.0000 0.81159  0.59762  0.62339  Biso   1.000  H
  C72      1.0000 0.56560  0.53195  0.58088  Biso   1.000  C
  C73      1.0000 0.50000  0.60434  0.58521  Biso   1.000  C
  H57      1.0000 0.59879  0.66980  0.55659  Biso   1.000  H
  C74      1.0000 0.70511  0.67900  0.57942  Biso   1.000  C
  C75      1.0000 0.83461  0.68635  0.61360  Biso   1.000  C
  C76      1.0000 0.50000  0.50739  0.58060  Biso   1.000  C
  H58      1.0000 0.61102  0.51529  0.57970  Biso   1.000  H
  C77      1.0000 0.43251  0.58110  0.58295  Biso   1.000  C
  H59      1.0000 0.50000  0.63740  0.58841  Biso   1.000  H
  H60      1.0000 0.70561  0.71140  0.57061  Biso   1.000  H
  H61      1.0000 0.83040  0.71781  0.59481  Biso   1.000  H
  H62      1.0000 0.87897  0.67092  0.59608  Biso   1.000  H
  C78      1.0000 0.84080  0.68997  0.68459  Biso   1.000  C
  C79      1.0000 0.50000  0.45548  0.58182  Biso   1.000  C
  C80      1.0000 0.43440  0.53195  0.58088  Biso   1.000  C
  C81      1.0000 0.36337  0.60727  0.58582  Biso   1.000  C
  C82      1.0000 0.79201  0.71809  0.71811  Biso   1.000  C
  C83      1.0000 0.89081  0.66440  0.71792  Biso   1.000  C
  C84      1.0000 0.43412  0.43015  0.58408  Biso   1.000  C
  C85      1.0000 0.56588  0.43015  0.58408  Biso   1.000  C
  H63      1.0000 0.38898  0.51529  0.57970  Biso   1.000  H
  C86      1.0000 0.35850  0.65423  0.57198  Biso   1.000  C
  C87      1.0000 0.29721  0.58574  0.60418  Biso   1.000  C
  C88      1.0000 0.79201  0.71809  0.78189  Biso   1.000  C
  H64      1.0000 0.75827  0.73749  0.69598  Biso   1.000  H
  C89      1.0000 0.89081  0.66440  0.78208  Biso   1.000  C
  H65      1.0000 0.92637  0.64629  0.69598  Biso   1.000  H
  C90      1.0000 0.43650  0.38228  0.59152  Biso   1.000  C
  H66      1.0000 0.38787  0.44569  0.58069  Biso   1.000  H
  C91      1.0000 0.56350  0.38228  0.59152  Biso   1.000  C
  H67      1.0000 0.61207  0.44569  0.58069  Biso   1.000  H
  H68      1.0000 0.40121  0.66980  0.55659  Biso   1.000  H
  C92      1.0000 0.29489  0.67900  0.57942  Biso   1.000  C
  C93      1.0000 0.23310  0.61221  0.61058  Biso   1.000  C
  H69      1.0000 0.29600  0.55320  0.61218  Biso   1.000  H
  C94      1.0000 0.84080  0.68997  0.81541  Biso   1.000  C
  H70      1.0000 0.75827  0.73749  0.80402  Biso   1.000  H
  H71      1.0000 0.92637  0.64629  0.80402  Biso   1.000  H
  N8       1.0000 0.50000  0.35939  0.59660  Biso   1.000  N
  H72      1.0000 0.39141  0.36531  0.59288  Biso   1.000  H
  H73      1.0000 0.60859  0.36531  0.59288  Biso   1.000  H
  N9       1.0000 0.23360  0.65806  0.59891  Biso   1.000  N
  H74      1.0000 0.29439  0.71140  0.57061  Biso   1.000  H
  H75      1.0000 0.18841  0.59762  0.62339  Biso   1.000  H
  C95      1.0000 0.83461  0.68635  0.88640  Biso   1.000  C
  C96      1.0000 0.50000  0.30821  0.61369  Biso   1.000  C
  C97      1.0000 0.16539  0.68635  0.61360  Biso   1.000  C
  N10      1.0000 0.76640  0.65806  0.90109  Biso   1.000  N
  H76      1.0000 0.83040  0.71781  0.90519  Biso   1.000  H
  H77      1.0000 0.87897  0.67092  0.90392  Biso   1.000  H
  C98      1.0000 0.50000  0.30410  0.68421  Biso   1.000  C
  H78      1.0000 0.54442  0.29282  0.59608  Biso   1.000  H
  H79      1.0000 0.45558  0.29282  0.59608  Biso   1.000  H
  H80      1.0000 0.16960  0.71781  0.59481  Biso   1.000  H
  H81      1.0000 0.12098  0.67092  0.59608  Biso   1.000  H
  C99      1.0000 0.15920  0.68997  0.68459  Biso   1.000  C
  C100     1.0000 0.70511  0.67900  0.92058  Biso   1.000  C
  C101     1.0000 0.76690  0.61221  0.88942  Biso   1.000  C
  C102     1.0000 0.43401  0.30323  0.71759  Biso   1.000  C
  C103     1.0000 0.56599  0.30323  0.71759  Biso   1.000  C
  C104     1.0000 0.20799  0.71809  0.71811  Biso   1.000  C
  C105     1.0000 0.10919  0.66440  0.71792  Biso   1.000  C
  C106     1.0000 0.64150  0.65423  0.92802  Biso   1.000  C
  H82      1.0000 0.70561  0.71140  0.92939  Biso   1.000  H
  C107     1.0000 0.70279  0.58574  0.89582  Biso   1.000  C
  H83      1.0000 0.81159  0.59762  0.87661  Biso   1.000  H
  C108     1.0000 0.43401  0.30323  0.78241  Biso   1.000  C
  H84      1.0000 0.38832  0.30261  0.69551  Biso   1.000  H
  C109     1.0000 0.56599  0.30323  0.78241  Biso   1.000  C
  H85      1.0000 0.61168  0.30261  0.69551  Biso   1.000  H
  C110     1.0000 0.20799  0.71809  0.78189  Biso   1.000  C
  H86      1.0000 0.24167  0.73749  0.69598  Biso   1.000  H
  C111     1.0000 0.10919  0.66440  0.78208  Biso   1.000  C
  H87      1.0000 0.07363  0.64629  0.69598  Biso   1.000  H
  C112     1.0000 0.63657  0.60727  0.91418  Biso   1.000  C
  H88      1.0000 0.59879  0.66980  0.94341  Biso   1.000  H
  H89      1.0000 0.70400  0.55320  0.88782  Biso   1.000  H
  H90      1.0000 0.38832  0.30261  0.80449  Biso   1.000  H
  C113     1.0000 0.50000  0.30410  0.81579  Biso   1.000  C
  H91      1.0000 0.61168  0.30261  0.80449  Biso   1.000  H
  C114     1.0000 0.15920  0.68997  0.81541  Biso   1.000  C
  H92      1.0000 0.24167  0.73749  0.80402  Biso   1.000  H
  H93      1.0000 0.07363  0.64629  0.80402  Biso   1.000  H
  C115     1.0000 0.56749  0.58110  0.91705  Biso   1.000  C
  C116     1.0000 0.50000  0.30821  0.88631  Biso   1.000  C
  C117     1.0000 0.16539  0.68635  0.88640  Biso   1.000  C
  C118     1.0000 0.56560  0.53195  0.91912  Biso   1.000  C
  C119     1.0000 0.50000  0.60434  0.91479  Biso   1.000  C
  N11      1.0000 0.50000  0.35939  0.90340  Biso   1.000  N
  H94      1.0000 0.54442  0.29282  0.90392  Biso   1.000  H
  H95      1.0000 0.45558  0.29282  0.90392  Biso   1.000  H
  N12      1.0000 0.23360  0.65806  0.90109  Biso   1.000  N
  H96      1.0000 0.16960  0.71781  0.90519  Biso   1.000  H
  H97      1.0000 0.12098  0.67092  0.90392  Biso   1.000  H
  C120     1.0000 0.50000  0.50739  0.91940  Biso   1.000  C
  H98      1.0000 0.61102  0.51529  0.92030  Biso   1.000  H
  C121     1.0000 0.43251  0.58110  0.91705  Biso   1.000  C
  H99      1.0000 0.50000  0.63740  0.91159  Biso   1.000  H
  C122     1.0000 0.43650  0.38228  0.90848  Biso   1.000  C
  C123     1.0000 0.56350  0.38228  0.90848  Biso   1.000  C
  C124     1.0000 0.29489  0.67900  0.92058  Biso   1.000  C
  C125     1.0000 0.23310  0.61221  0.88942  Biso   1.000  C
  C126     1.0000 0.50000  0.45548  0.91818  Biso   1.000  C
  C127     1.0000 0.43440  0.53195  0.91912  Biso   1.000  C
  C128     1.0000 0.36337  0.60727  0.91418  Biso   1.000  C
  H100     1.0000 0.39141  0.36531  0.90712  Biso   1.000  H
  C129     1.0000 0.43412  0.43015  0.91592  Biso   1.000  C
  H101     1.0000 0.60859  0.36531  0.90712  Biso   1.000  H
  C130     1.0000 0.56588  0.43015  0.91592  Biso   1.000  C
  C131     1.0000 0.35850  0.65423  0.92802  Biso   1.000  C
  H102     1.0000 0.29439  0.71140  0.92939  Biso   1.000  H
  C132     1.0000 0.29721  0.58574  0.89582  Biso   1.000  C
  H103     1.0000 0.18841  0.59762  0.87661  Biso   1.000  H
  H104     1.0000 0.38898  0.51529  0.92030  Biso   1.000  H
  H105     1.0000 0.38787  0.44569  0.91931  Biso   1.000  H
  H106     1.0000 0.61207  0.44569  0.91931  Biso   1.000  H
  H107     1.0000 0.40121  0.66980  0.94341  Biso   1.000  H
  H108     1.0000 0.29600  0.55320  0.88782  Biso   1.000  H
  C133     1.0000 0.70799  0.21809  0.71811  Biso   1.000  C
  C134     1.0000 0.65920  0.18997  0.68459  Biso   1.000  C
  C135     1.0000 0.70799  0.21809  0.78189  Biso   1.000  C
  H109     1.0000 0.74173  0.23749  0.69598  Biso   1.000  H
  H110     1.0000 0.74167  0.23749  0.69598  Biso   1.000  H
  C136     1.0000 0.66539  0.18635  0.61360  Biso   1.000  C
  C137     1.0000 0.60919  0.16440  0.71792  Biso   1.000  C
  C138     1.0000 0.65920  0.18997  0.81541  Biso   1.000  C
  H111     1.0000 0.74173  0.23749  0.80402  Biso   1.000  H
  H112     1.0000 0.74167  0.23749  0.80402  Biso   1.000  H
  N13      1.0000 0.73360  0.15806  0.59891  Biso   1.000  N
  H113     1.0000 0.66960  0.21781  0.59481  Biso   1.000  H
  H114     1.0000 0.62103  0.17092  0.59608  Biso   1.000  H
  H115     1.0000 0.62098  0.17092  0.59608  Biso   1.000  H
  C139     1.0000 0.60919  0.16440  0.78208  Biso   1.000  C
  H116     1.0000 0.57363  0.14629  0.69598  Biso   1.000  H
  H117     1.0000 0.57357  0.14629  0.69598  Biso   1.000  H
  C140     1.0000 0.66539  0.18635  0.88640  Biso   1.000  C
  C141     1.0000 0.79489  0.17900  0.57942  Biso   1.000  C
  C142     1.0000 0.73310  0.11221  0.61058  Biso   1.000  C
  H118     1.0000 0.57363  0.14629  0.80402  Biso   1.000  H
  H119     1.0000 0.57357  0.14629  0.80402  Biso   1.000  H
  N14      1.0000 0.73360  0.15806  0.90109  Biso   1.000  N
  H120     1.0000 0.66960  0.21781  0.90519  Biso   1.000  H
  H121     1.0000 0.62103  0.17092  0.90392  Biso   1.000  H
  H122     1.0000 0.62098  0.17092  0.90392  Biso   1.000  H
  C143     1.0000 0.85850  0.15423  0.57198  Biso   1.000  C
  H123     1.0000 0.79439  0.21140  0.57061  Biso   1.000  H
  H124     1.0000 0.68841  0.09762  0.62339  Biso   1.000  H
  C144     1.0000 0.79721  0.08574  0.60418  Biso   1.000  C
  C145     1.0000 0.79489  0.17900  0.92058  Biso   1.000  C
  C146     1.0000 0.73310  0.11221  0.88942  Biso   1.000  C
  C147     1.0000 0.86343  0.10727  0.58582  Biso   1.000  C
  H125     1.0000 0.90121  0.16980  0.55659  Biso   1.000  H
  C148     1.0000 0.86337  0.10727  0.58582  Biso   1.000  C
  H126     1.0000 0.79600  0.05320  0.61218  Biso   1.000  H
  C149     1.0000 0.85850  0.15423  0.92802  Biso   1.000  C
  H127     1.0000 0.79439  0.21140  0.92939  Biso   1.000  H
  H128     1.0000 0.68841  0.09762  0.87661  Biso   1.000  H
  C150     1.0000 0.79721  0.08574  0.89582  Biso   1.000  C
  C151     1.0000 0.93251  0.08110  0.58295  Biso   1.000  C
  C152     1.0000 0.86343  0.10727  0.91418  Biso   1.000  C
  H129     1.0000 0.90121  0.16980  0.94341  Biso   1.000  H
  C153     1.0000 0.86337  0.10727  0.91418  Biso   1.000  C
  H130     1.0000 0.79600  0.05320  0.88782  Biso   1.000  H
  C154     1.0000 0.93440  0.03195  0.58088  Biso   1.000  C
  C155     1.0000 1.00000  0.10434  0.58521  Biso   1.000  C
  C156     1.0000 0.93251  0.08110  0.91705  Biso   1.000  C
  H131     1.0000 0.88898  0.01529  0.57970  Biso   1.000  H
  C157     1.0000 1.00000  0.00739  0.58060  Biso   1.000  C
  H132     1.0000 1.00000  0.13740  0.58841  Biso   1.000  H
  C158     1.0000 0.06749  0.08110  0.58295  Biso   1.000  C
  C159     1.0000 0.93440  0.03195  0.91912  Biso   1.000  C
  C160     1.0000 1.00000  0.10434  0.91479  Biso   1.000  C
  C161     1.0000 1.00000  0.95548  0.58182  Biso   1.000  C
  C162     1.0000 0.06560  0.03195  0.58088  Biso   1.000  C
  C163     1.0000 0.13657  0.10727  0.58582  Biso   1.000  C
  H133     1.0000 0.88898  0.01529  0.92030  Biso   1.000  H
  C164     1.0000 1.00000  0.00739  0.91940  Biso   1.000  C
  H134     1.0000 1.00000  0.13740  0.91159  Biso   1.000  H
  C165     1.0000 0.06749  0.08110  0.91705  Biso   1.000  C
  C166     1.0000 0.93412  0.93015  0.58408  Biso   1.000  C
  C167     1.0000 0.93406  0.93015  0.58408  Biso   1.000  C
  C168     1.0000 0.06588  0.93015  0.58408  Biso   1.000  C
  H135     1.0000 0.11102  0.01529  0.57970  Biso   1.000  H
  H136     1.0000 0.11096  0.01529  0.57970  Biso   1.000  H
  C169     1.0000 0.14150  0.15423  0.57198  Biso   1.000  C
  C170     1.0000 0.20279  0.08574  0.60418  Biso   1.000  C
  C171     1.0000 1.00000  0.95548  0.91818  Biso   1.000  C
  C172     1.0000 0.06560  0.03195  0.91912  Biso   1.000  C
  C173     1.0000 0.13657  0.10727  0.91418  Biso   1.000  C
  C174     1.0000 0.93650  0.88228  0.59152  Biso   1.000  C
  H137     1.0000 0.88787  0.94569  0.58069  Biso   1.000  H
  C175     1.0000 0.06350  0.88228  0.59152  Biso   1.000  C
  H138     1.0000 0.11213  0.94569  0.58069  Biso   1.000  H
  H139     1.0000 0.11207  0.94569  0.58069  Biso   1.000  H
  H140     1.0000 0.09879  0.16980  0.55659  Biso   1.000  H
  C176     1.0000 0.20511  0.17900  0.57942  Biso   1.000  C
  C177     1.0000 0.26690  0.11221  0.61058  Biso   1.000  C
  H141     1.0000 0.20400  0.05320  0.61218  Biso   1.000  H
  C178     1.0000 0.93412  0.93015  0.91592  Biso   1.000  C
  C179     1.0000 0.93406  0.93015  0.91592  Biso   1.000  C
  C180     1.0000 0.06588  0.93015  0.91592  Biso   1.000  C
  H142     1.0000 0.11102  0.01529  0.92030  Biso   1.000  H
  H143     1.0000 0.11096  0.01529  0.92030  Biso   1.000  H
  C181     1.0000 0.14150  0.15423  0.92802  Biso   1.000  C
  C182     1.0000 0.20279  0.08574  0.89582  Biso   1.000  C
  H144     1.0000 0.89141  0.86531  0.59288  Biso   1.000  H
  N15      1.0000 1.00000  0.85939  0.59660  Biso   1.000  N
  H145     1.0000 0.10859  0.86531  0.59288  Biso   1.000  H
  N16      1.0000 0.26640  0.15806  0.59891  Biso   1.000  N
  H146     1.0000 0.20561  0.21140  0.57061  Biso   1.000  H
  H147     1.0000 0.31159  0.09762  0.62339  Biso   1.000  H
  C183     1.0000 0.93650  0.88228  0.90848  Biso   1.000  C
  H148     1.0000 0.88787  0.94569  0.91931  Biso   1.000  H
  C184     1.0000 0.06350  0.88228  0.90848  Biso   1.000  C
  H149     1.0000 0.11213  0.94569  0.91931  Biso   1.000  H
  H150     1.0000 0.11207  0.94569  0.91931  Biso   1.000  H
  H151     1.0000 0.09879  0.16980  0.94341  Biso   1.000  H
  C185     1.0000 0.20511  0.17900  0.92058  Biso   1.000  C
  C186     1.0000 0.26690  0.11221  0.88942  Biso   1.000  C
  H152     1.0000 0.20400  0.05320  0.88782  Biso   1.000  H
  C187     1.0000 1.00000  0.80821  0.61369  Biso   1.000  C
  C188     1.0000 0.33461  0.18635  0.61360  Biso   1.000  C
  H153     1.0000 0.89141  0.86531  0.90712  Biso   1.000  H
  N17      1.0000 1.00000  0.85939  0.90340  Biso   1.000  N
  H154     1.0000 0.10859  0.86531  0.90712  Biso   1.000  H
  N18      1.0000 0.26640  0.15806  0.90109  Biso   1.000  N
  H155     1.0000 0.20561  0.21140  0.92939  Biso   1.000  H
  H156     1.0000 0.31159  0.09762  0.87661  Biso   1.000  H
  H157     1.0000 0.95558  0.79282  0.59608  Biso   1.000  H
  C189     1.0000 1.00000  0.80410  0.68421  Biso   1.000  C
  H158     1.0000 0.04442  0.79282  0.59608  Biso   1.000  H
  H159     1.0000 0.04436  0.79282  0.59608  Biso   1.000  H
  H160     1.0000 0.33040  0.21781  0.59481  Biso   1.000  H
  H161     1.0000 0.37897  0.17092  0.59608  Biso   1.000  H
  C190     1.0000 0.34080  0.18997  0.68459  Biso   1.000  C
  C191     1.0000 1.00000  0.80821  0.88631  Biso   1.000  C
  C192     1.0000 0.33461  0.18635  0.88640  Biso   1.000  C
  C193     1.0000 0.93401  0.80323  0.71759  Biso   1.000  C
  C194     1.0000 0.06599  0.80323  0.71759  Biso   1.000  C
  C195     1.0000 0.29201  0.21809  0.71811  Biso   1.000  C
  C196     1.0000 0.39081  0.16440  0.71792  Biso   1.000  C
  C197     1.0000 1.00000  0.80410  0.81579  Biso   1.000  C
  H162     1.0000 0.95558  0.79282  0.90392  Biso   1.000  H
  H163     1.0000 0.04442  0.79282  0.90392  Biso   1.000  H
  H164     1.0000 0.04436  0.79282  0.90392  Biso   1.000  H
  C198     1.0000 0.34080  0.18997  0.81541  Biso   1.000  C
  H165     1.0000 0.33040  0.21781  0.90519  Biso   1.000  H
  H166     1.0000 0.37897  0.17092  0.90392  Biso   1.000  H
  C199     1.0000 0.93401  0.80323  0.78241  Biso   1.000  C
  H167     1.0000 0.88832  0.80261  0.69551  Biso   1.000  H
  C200     1.0000 0.06599  0.80323  0.78241  Biso   1.000  C
  H168     1.0000 0.11168  0.80261  0.69551  Biso   1.000  H
  C201     1.0000 0.29201  0.21809  0.78189  Biso   1.000  C
  H169     1.0000 0.25827  0.23749  0.69598  Biso   1.000  H
  C202     1.0000 0.39081  0.16440  0.78208  Biso   1.000  C
  H170     1.0000 0.42637  0.14629  0.69598  Biso   1.000  H
  H171     1.0000 0.88832  0.80261  0.80449  Biso   1.000  H
  H172     1.0000 0.11168  0.80261  0.80449  Biso   1.000  H
  H173     1.0000 0.25827  0.23749  0.80402  Biso   1.000  H
  H174     1.0000 0.42637  0.14629  0.80402  Biso   1.000  H
  C203     1.0000 0.70799  0.21809  0.71811  Biso   1.000  C
  C204     1.0000 0.65920  0.18997  0.68459  Biso   1.000  C
  C205     1.0000 0.70799  0.21809  0.78189  Biso   1.000  C
  H175     1.0000 0.74173  0.23749  0.69598  Biso   1.000  H
  H176     1.0000 0.74167  0.23749  0.69598  Biso   1.000  H
  C206     1.0000 0.66539  0.18635  0.61360  Biso   1.000  C
  C207     1.0000 0.60919  0.16440  0.71792  Biso   1.000  C
  C208     1.0000 0.65920  0.18997  0.81541  Biso   1.000  C
  H177     1.0000 0.74173  0.23749  0.80402  Biso   1.000  H
  H178     1.0000 0.74167  0.23749  0.80402  Biso   1.000  H
  N19      1.0000 0.73360  0.15806  0.59891  Biso   1.000  N
  H179     1.0000 0.66960  0.21781  0.59481  Biso   1.000  H
  H180     1.0000 0.62103  0.17092  0.59608  Biso   1.000  H
  H181     1.0000 0.62098  0.17092  0.59608  Biso   1.000  H
  C209     1.0000 0.60919  0.16440  0.78208  Biso   1.000  C
  H182     1.0000 0.57363  0.14629  0.69598  Biso   1.000  H
  H183     1.0000 0.57357  0.14629  0.69598  Biso   1.000  H
  C210     1.0000 0.66539  0.18635  0.88640  Biso   1.000  C
  C211     1.0000 0.79489  0.17900  0.57942  Biso   1.000  C
  C212     1.0000 0.73310  0.11221  0.61058  Biso   1.000  C
  H184     1.0000 0.57363  0.14629  0.80402  Biso   1.000  H
  H185     1.0000 0.57357  0.14629  0.80402  Biso   1.000  H
  N20      1.0000 0.73360  0.15806  0.90109  Biso   1.000  N
  H186     1.0000 0.66960  0.21781  0.90519  Biso   1.000  H
  H187     1.0000 0.62103  0.17092  0.90392  Biso   1.000  H
  H188     1.0000 0.62098  0.17092  0.90392  Biso   1.000  H
  C213     1.0000 0.85850  0.15423  0.57198  Biso   1.000  C
  H189     1.0000 0.79439  0.21140  0.57061  Biso   1.000  H
  H190     1.0000 0.68841  0.09762  0.62339  Biso   1.000  H
  C214     1.0000 0.79721  0.08574  0.60418  Biso   1.000  C
  C215     1.0000 0.79489  0.17900  0.92058  Biso   1.000  C
  C216     1.0000 0.73310  0.11221  0.88942  Biso   1.000  C
  H191     1.0000 0.90121  0.16980  0.55659  Biso   1.000  H
  C217     1.0000 0.86343  0.10727  0.58582  Biso   1.000  C
  C218     1.0000 0.86337  0.10727  0.58582  Biso   1.000  C
  H192     1.0000 0.79600  0.05320  0.61218  Biso   1.000  H
  C219     1.0000 0.85850  0.15423  0.92802  Biso   1.000  C
  H193     1.0000 0.79439  0.21140  0.92939  Biso   1.000  H
  H194     1.0000 0.68841  0.09762  0.87661  Biso   1.000  H
  C220     1.0000 0.79721  0.08574  0.89582  Biso   1.000  C
  C221     1.0000 0.93251  0.08110  0.58295  Biso   1.000  C
  H195     1.0000 0.90121  0.16980  0.94341  Biso   1.000  H
  C222     1.0000 0.86343  0.10727  0.91418  Biso   1.000  C
  C223     1.0000 0.86337  0.10727  0.91418  Biso   1.000  C
  H196     1.0000 0.79600  0.05320  0.88782  Biso   1.000  H
  C224     1.0000 0.93440  0.03195  0.58088  Biso   1.000  C
  C225     1.0000 1.00000  0.10434  0.58521  Biso   1.000  C
  C226     1.0000 0.93251  0.08110  0.91705  Biso   1.000  C
  H197     1.0000 0.88898  0.01529  0.57970  Biso   1.000  H
  C227     1.0000 1.00000  0.00739  0.58060  Biso   1.000  C
  H198     1.0000 1.00000  0.13740  0.58841  Biso   1.000  H
  C228     1.0000 0.06749  0.08110  0.58295  Biso   1.000  C
  C229     1.0000 0.93440  0.03195  0.91912  Biso   1.000  C
  C230     1.0000 1.00000  0.10434  0.91479  Biso   1.000  C
  C231     1.0000 1.00000  0.95548  0.58182  Biso   1.000  C
  C232     1.0000 0.06560  0.03195  0.58088  Biso   1.000  C
  C233     1.0000 0.13657  0.10727  0.58582  Biso   1.000  C
  H199     1.0000 0.88898  0.01529  0.92030  Biso   1.000  H
  C234     1.0000 1.00000  0.00739  0.91940  Biso   1.000  C
  H200     1.0000 1.00000  0.13740  0.91159  Biso   1.000  H
  C235     1.0000 0.06749  0.08110  0.91705  Biso   1.000  C
  C236     1.0000 0.93412  0.93015  0.58408  Biso   1.000  C
  C237     1.0000 0.93406  0.93015  0.58408  Biso   1.000  C
  C238     1.0000 0.06588  0.93015  0.58408  Biso   1.000  C
  H201     1.0000 0.11102  0.01529  0.57970  Biso   1.000  H
  H202     1.0000 0.11096  0.01529  0.57970  Biso   1.000  H
  C239     1.0000 0.14150  0.15423  0.57198  Biso   1.000  C
  C240     1.0000 0.20279  0.08574  0.60418  Biso   1.000  C
  C241     1.0000 1.00000  0.95548  0.91818  Biso   1.000  C
  C242     1.0000 0.06560  0.03195  0.91912  Biso   1.000  C
  C243     1.0000 0.13657  0.10727  0.91418  Biso   1.000  C
  C244     1.0000 0.93650  0.88228  0.59152  Biso   1.000  C
  H203     1.0000 0.88787  0.94569  0.58069  Biso   1.000  H
  C245     1.0000 0.06350  0.88228  0.59152  Biso   1.000  C
  H204     1.0000 0.11213  0.94569  0.58069  Biso   1.000  H
  H205     1.0000 0.11207  0.94569  0.58069  Biso   1.000  H
  H206     1.0000 0.09879  0.16980  0.55659  Biso   1.000  H
  C246     1.0000 0.20511  0.17900  0.57942  Biso   1.000  C
  C247     1.0000 0.26690  0.11221  0.61058  Biso   1.000  C
  H207     1.0000 0.20400  0.05320  0.61218  Biso   1.000  H
  C248     1.0000 0.93412  0.93015  0.91592  Biso   1.000  C
  C249     1.0000 0.93406  0.93015  0.91592  Biso   1.000  C
  C250     1.0000 0.06588  0.93015  0.91592  Biso   1.000  C
  H208     1.0000 0.11102  0.01529  0.92030  Biso   1.000  H
  H209     1.0000 0.11096  0.01529  0.92030  Biso   1.000  H
  C251     1.0000 0.14150  0.15423  0.92802  Biso   1.000  C
  C252     1.0000 0.20279  0.08574  0.89582  Biso   1.000  C
  H210     1.0000 0.89141  0.86531  0.59288  Biso   1.000  H
  N21      1.0000 1.00000  0.85939  0.59660  Biso   1.000  N
  H211     1.0000 0.10859  0.86531  0.59288  Biso   1.000  H
  N22      1.0000 0.26640  0.15806  0.59891  Biso   1.000  N
  H212     1.0000 0.20561  0.21140  0.57061  Biso   1.000  H
  H213     1.0000 0.31159  0.09762  0.62339  Biso   1.000  H
  C253     1.0000 0.93650  0.88228  0.90848  Biso   1.000  C
  H214     1.0000 0.88787  0.94569  0.91931  Biso   1.000  H
  C254     1.0000 0.06350  0.88228  0.90848  Biso   1.000  C
  H215     1.0000 0.11213  0.94569  0.91931  Biso   1.000  H
  H216     1.0000 0.11207  0.94569  0.91931  Biso   1.000  H
  H217     1.0000 0.09879  0.16980  0.94341  Biso   1.000  H
  C255     1.0000 0.20511  0.17900  0.92058  Biso   1.000  C
  C256     1.0000 0.26690  0.11221  0.88942  Biso   1.000  C
  H218     1.0000 0.20400  0.05320  0.88782  Biso   1.000  H
  C257     1.0000 1.00000  0.80821  0.61369  Biso   1.000  C
  C258     1.0000 0.33461  0.18635  0.61360  Biso   1.000  C
  H219     1.0000 0.89141  0.86531  0.90712  Biso   1.000  H
  N23      1.0000 1.00000  0.85939  0.90340  Biso   1.000  N
  H220     1.0000 0.10859  0.86531  0.90712  Biso   1.000  H
  N24      1.0000 0.26640  0.15806  0.90109  Biso   1.000  N
  H221     1.0000 0.20561  0.21140  0.92939  Biso   1.000  H
  H222     1.0000 0.31159  0.09762  0.87661  Biso   1.000  H
  H223     1.0000 0.95558  0.79282  0.59608  Biso   1.000  H
  C259     1.0000 1.00000  0.80410  0.68421  Biso   1.000  C
  H224     1.0000 0.04442  0.79282  0.59608  Biso   1.000  H
  H225     1.0000 0.04436  0.79282  0.59608  Biso   1.000  H
  H226     1.0000 0.33040  0.21781  0.59481  Biso   1.000  H
  H227     1.0000 0.37897  0.17092  0.59608  Biso   1.000  H
  C260     1.0000 0.34080  0.18997  0.68459  Biso   1.000  C
  C261     1.0000 1.00000  0.80821  0.88631  Biso   1.000  C
  C262     1.0000 0.33461  0.18635  0.88640  Biso   1.000  C
  C263     1.0000 0.93401  0.80323  0.71759  Biso   1.000  C
  C264     1.0000 0.06599  0.80323  0.71759  Biso   1.000  C
  C265     1.0000 0.29201  0.21809  0.71811  Biso   1.000  C
  C266     1.0000 0.39081  0.16440  0.71792  Biso   1.000  C
  C267     1.0000 1.00000  0.80410  0.81579  Biso   1.000  C
  H228     1.0000 0.95558  0.79282  0.90392  Biso   1.000  H
  H229     1.0000 0.04442  0.79282  0.90392  Biso   1.000  H
  H230     1.0000 0.04436  0.79282  0.90392  Biso   1.000  H
  C268     1.0000 0.34080  0.18997  0.81541  Biso   1.000  C
  H231     1.0000 0.33040  0.21781  0.90519  Biso   1.000  H
  H232     1.0000 0.37897  0.17092  0.90392  Biso   1.000  H
  C269     1.0000 0.93401  0.80323  0.78241  Biso   1.000  C
  H233     1.0000 0.88832  0.80261  0.69551  Biso   1.000  H
  C270     1.0000 0.06599  0.80323  0.78241  Biso   1.000  C
  H234     1.0000 0.11168  0.80261  0.69551  Biso   1.000  H
  C271     1.0000 0.29201  0.21809  0.78189  Biso   1.000  C
  H235     1.0000 0.25827  0.23749  0.69598  Biso   1.000  H
  C272     1.0000 0.39081  0.16440  0.78208  Biso   1.000  C
  H236     1.0000 0.42637  0.14629  0.69598  Biso   1.000  H
  H237     1.0000 0.88832  0.80261  0.80449  Biso   1.000  H
  H238     1.0000 0.11168  0.80261  0.80449  Biso   1.000  H
  H239     1.0000 0.25827  0.23749  0.80402  Biso   1.000  H
  H240     1.0000 0.42637  0.14629  0.80402  Biso   1.000  H
  C273     1.0000 0.70799  0.78191  0.28189  Biso   1.000  C
  C274     1.0000 0.65920  0.81003  0.31541  Biso   1.000  C
  H241     1.0000 0.74173  0.76251  0.30402  Biso   1.000  H
  C275     1.0000 0.70799  0.78191  0.21811  Biso   1.000  C
  H242     1.0000 0.74167  0.76251  0.30402  Biso   1.000  H
  C276     1.0000 0.66539  0.81365  0.38640  Biso   1.000  C
  C277     1.0000 0.60919  0.83560  0.28208  Biso   1.000  C
  C278     1.0000 0.65920  0.81003  0.18459  Biso   1.000  C
  H243     1.0000 0.74173  0.76251  0.19598  Biso   1.000  H
  H244     1.0000 0.74167  0.76251  0.19598  Biso   1.000  H
  N25      1.0000 0.73360  0.84194  0.40109  Biso   1.000  N
  H245     1.0000 0.66960  0.78219  0.40519  Biso   1.000  H
  H246     1.0000 0.62103  0.82908  0.40392  Biso   1.000  H
  H247     1.0000 0.62098  0.82908  0.40392  Biso   1.000  H
  H248     1.0000 0.57363  0.85371  0.30402  Biso   1.000  H
  C279     1.0000 0.60919  0.83560  0.21792  Biso   1.000  C
  H249     1.0000 0.57357  0.85371  0.30402  Biso   1.000  H
  C280     1.0000 0.66539  0.81365  0.11360  Biso   1.000  C
  C281     1.0000 0.79489  0.82100  0.42058  Biso   1.000  C
  C282     1.0000 0.73310  0.88779  0.38942  Biso   1.000  C
  H250     1.0000 0.57363  0.85371  0.19598  Biso   1.000  H
  H251     1.0000 0.57357  0.85371  0.19598  Biso   1.000  H
  N26      1.0000 0.73360  0.84194  0.09891  Biso   1.000  N
  H252     1.0000 0.66960  0.78219  0.09481  Biso   1.000  H
  H253     1.0000 0.62103  0.82908  0.09608  Biso   1.000  H
  H254     1.0000 0.62098  0.82908  0.09608  Biso   1.000  H
  C283     1.0000 0.85850  0.84577  0.42802  Biso   1.000  C
  H255     1.0000 0.79439  0.78860  0.42939  Biso   1.000  H
  H256     1.0000 0.68841  0.90238  0.37661  Biso   1.000  H
  C284     1.0000 0.79721  0.91426  0.39582  Biso   1.000  C
  C285     1.0000 0.79489  0.82100  0.07942  Biso   1.000  C
  C286     1.0000 0.73310  0.88779  0.11058  Biso   1.000  C
  C287     1.0000 0.86343  0.89273  0.41418  Biso   1.000  C
  H257     1.0000 0.90121  0.83020  0.44341  Biso   1.000  H
  C288     1.0000 0.86337  0.89273  0.41418  Biso   1.000  C
  H258     1.0000 0.79600  0.94680  0.38782  Biso   1.000  H
  C289     1.0000 0.85850  0.84577  0.07198  Biso   1.000  C
  H259     1.0000 0.79439  0.78860  0.07061  Biso   1.000  H
  H260     1.0000 0.68841  0.90238  0.12339  Biso   1.000  H
  C290     1.0000 0.79721  0.91426  0.10418  Biso   1.000  C
  C291     1.0000 0.93251  0.91890  0.41705  Biso   1.000  C
  C292     1.0000 0.86343  0.89273  0.08582  Biso   1.000  C
  H261     1.0000 0.90121  0.83020  0.05659  Biso   1.000  H
  C293     1.0000 0.86337  0.89273  0.08582  Biso   1.000  C
  H262     1.0000 0.79600  0.94680  0.11218  Biso   1.000  H
  C294     1.0000 0.93440  0.96805  0.41912  Biso   1.000  C
  C295     1.0000 1.00000  0.89566  0.41479  Biso   1.000  C
  C296     1.0000 0.93251  0.91890  0.08295  Biso   1.000  C
  H263     1.0000 0.88898  0.98471  0.42030  Biso   1.000  H
  C297     1.0000 1.00000  0.99261  0.41940  Biso   1.000  C
  C298     1.0000 0.06749  0.91890  0.41705  Biso   1.000  C
  H264     1.0000 1.00000  0.86260  0.41159  Biso   1.000  H
  C299     1.0000 0.93440  0.96805  0.08088  Biso   1.000  C
  C300     1.0000 1.00000  0.89566  0.08521  Biso   1.000  C
  C301     1.0000 0.06560  0.96805  0.41912  Biso   1.000  C
  C302     1.0000 1.00000  0.04452  0.41818  Biso   1.000  C
  C303     1.0000 0.13657  0.89273  0.41418  Biso   1.000  C
  H265     1.0000 0.88898  0.98471  0.07970  Biso   1.000  H
  C304     1.0000 1.00000  0.99261  0.08060  Biso   1.000  C
  C305     1.0000 0.06749  0.91890  0.08295  Biso   1.000  C
  H266     1.0000 1.00000  0.86260  0.08841  Biso   1.000  H
  H267     1.0000 0.11102  0.98471  0.42030  Biso   1.000  H
  H268     1.0000 0.11096  0.98471  0.42030  Biso   1.000  H
  C306     1.0000 0.93412  0.06985  0.41592  Biso   1.000  C
  C307     1.0000 0.93406  0.06985  0.41592  Biso   1.000  C
  C308     1.0000 0.06588  0.06985  0.41592  Biso   1.000  C
  C309     1.0000 0.14150  0.84577  0.42802  Biso   1.000  C
  C310     1.0000 0.20279  0.91426  0.39582  Biso   1.000  C
  C311     1.0000 0.06560  0.96805  0.08088  Biso   1.000  C
  C312     1.0000 1.00000  0.04452  0.08182  Biso   1.000  C
  C313     1.0000 0.13657  0.89273  0.08582  Biso   1.000  C
  C314     1.0000 0.93650  0.11772  0.40848  Biso   1.000  C
  H269     1.0000 0.88787  0.05431  0.41931  Biso   1.000  H
  C315     1.0000 0.06350  0.11772  0.40848  Biso   1.000  C
  H270     1.0000 0.11213  0.05431  0.41931  Biso   1.000  H
  H271     1.0000 0.11207  0.05431  0.41931  Biso   1.000  H
  H272     1.0000 0.09879  0.83020  0.44341  Biso   1.000  H
  C316     1.0000 0.20511  0.82100  0.42058  Biso   1.000  C
  C317     1.0000 0.26690  0.88779  0.38942  Biso   1.000  C
  H273     1.0000 0.20400  0.94680  0.38782  Biso   1.000  H
  H274     1.0000 0.11102  0.98471  0.07970  Biso   1.000  H
  H275     1.0000 0.11096  0.98471  0.07970  Biso   1.000  H
  C318     1.0000 0.93412  0.06985  0.08408  Biso   1.000  C
  C319     1.0000 0.93406  0.06985  0.08408  Biso   1.000  C
  C320     1.0000 0.06588  0.06985  0.08408  Biso   1.000  C
  C321     1.0000 0.14150  0.84577  0.07198  Biso   1.000  C
  C322     1.0000 0.20279  0.91426  0.10418  Biso   1.000  C
  H276     1.0000 0.89141  0.13469  0.40712  Biso   1.000  H
  N27      1.0000 1.00000  0.14061  0.40340  Biso   1.000  N
  H277     1.0000 0.10859  0.13469  0.40712  Biso   1.000  H
  N28      1.0000 0.26640  0.84194  0.40109  Biso   1.000  N
  H278     1.0000 0.20561  0.78860  0.42939  Biso   1.000  H
  H279     1.0000 0.31159  0.90238  0.37661  Biso   1.000  H
  C323     1.0000 0.93650  0.11772  0.09152  Biso   1.000  C
  H280     1.0000 0.88787  0.05431  0.08069  Biso   1.000  H
  C324     1.0000 0.06350  0.11772  0.09152  Biso   1.000  C
  H281     1.0000 0.11213  0.05431  0.08069  Biso   1.000  H
  H282     1.0000 0.11207  0.05431  0.08069  Biso   1.000  H
  H283     1.0000 0.09879  0.83020  0.05659  Biso   1.000  H
  C325     1.0000 0.20511  0.82100  0.07942  Biso   1.000  C
  C326     1.0000 0.26690  0.88779  0.11058  Biso   1.000  C
  H284     1.0000 0.20400  0.94680  0.11218  Biso   1.000  H
  C327     1.0000 1.00000  0.19179  0.38631  Biso   1.000  C
  C328     1.0000 0.33461  0.81365  0.38640  Biso   1.000  C
  H285     1.0000 0.89141  0.13469  0.09288  Biso   1.000  H
  N29      1.0000 1.00000  0.14061  0.09660  Biso   1.000  N
  H286     1.0000 0.10859  0.13469  0.09288  Biso   1.000  H
  N30      1.0000 0.26640  0.84194  0.09891  Biso   1.000  N
  H287     1.0000 0.20561  0.78860  0.07061  Biso   1.000  H
  H288     1.0000 0.31159  0.90238  0.12339  Biso   1.000  H
  H289     1.0000 0.95558  0.20718  0.40392  Biso   1.000  H
  C329     1.0000 1.00000  0.19590  0.31579  Biso   1.000  C
  H290     1.0000 0.04442  0.20718  0.40392  Biso   1.000  H
  H291     1.0000 0.04436  0.20718  0.40392  Biso   1.000  H
  H292     1.0000 0.33040  0.78219  0.40519  Biso   1.000  H
  H293     1.0000 0.37897  0.82908  0.40392  Biso   1.000  H
  C330     1.0000 0.34080  0.81003  0.31541  Biso   1.000  C
  C331     1.0000 1.00000  0.19179  0.11369  Biso   1.000  C
  C332     1.0000 0.33461  0.81365  0.11360  Biso   1.000  C
  C333     1.0000 0.93401  0.19677  0.28241  Biso   1.000  C
  C334     1.0000 0.06599  0.19677  0.28241  Biso   1.000  C
  C335     1.0000 0.29201  0.78191  0.28189  Biso   1.000  C
  C336     1.0000 0.39081  0.83560  0.28208  Biso   1.000  C
  H294     1.0000 0.95558  0.20718  0.09608  Biso   1.000  H
  C337     1.0000 1.00000  0.19590  0.18421  Biso   1.000  C
  H295     1.0000 0.04442  0.20718  0.09608  Biso   1.000  H
  H296     1.0000 0.04436  0.20718  0.09608  Biso   1.000  H
  H297     1.0000 0.33040  0.78219  0.09481  Biso   1.000  H
  H298     1.0000 0.37897  0.82908  0.09608  Biso   1.000  H
  C338     1.0000 0.34080  0.81003  0.18459  Biso   1.000  C
  H299     1.0000 0.88832  0.19739  0.30449  Biso   1.000  H
  C339     1.0000 0.93401  0.19677  0.21759  Biso   1.000  C
  H300     1.0000 0.11168  0.19739  0.30449  Biso   1.000  H
  C340     1.0000 0.06599  0.19677  0.21759  Biso   1.000  C
  H301     1.0000 0.25827  0.76251  0.30402  Biso   1.000  H
  C341     1.0000 0.29201  0.78191  0.21811  Biso   1.000  C
  H302     1.0000 0.42637  0.85371  0.30402  Biso   1.000  H
  C342     1.0000 0.39081  0.83560  0.21792  Biso   1.000  C
  H303     1.0000 0.88832  0.19739  0.19551  Biso   1.000  H
  H304     1.0000 0.11168  0.19739  0.19551  Biso   1.000  H
  H305     1.0000 0.25827  0.76251  0.19598  Biso   1.000  H
  H306     1.0000 0.42637  0.85371  0.19598  Biso   1.000  H
  C343     1.0000 0.70799  0.78191  0.28189  Biso   1.000  C
  C344     1.0000 0.65920  0.81003  0.31541  Biso   1.000  C
  C345     1.0000 0.70799  0.78191  0.21811  Biso   1.000  C
  H307     1.0000 0.74173  0.76251  0.30402  Biso   1.000  H
  H308     1.0000 0.74167  0.76251  0.30402  Biso   1.000  H
  C346     1.0000 0.66539  0.81365  0.38640  Biso   1.000  C
  C347     1.0000 0.60919  0.83560  0.28208  Biso   1.000  C
  C348     1.0000 0.65920  0.81003  0.18459  Biso   1.000  C
  H309     1.0000 0.74173  0.76251  0.19598  Biso   1.000  H
  H310     1.0000 0.74167  0.76251  0.19598  Biso   1.000  H
  N31      1.0000 0.73360  0.84194  0.40109  Biso   1.000  N
  H311     1.0000 0.66960  0.78219  0.40519  Biso   1.000  H
  H312     1.0000 0.62103  0.82908  0.40392  Biso   1.000  H
  H313     1.0000 0.62098  0.82908  0.40392  Biso   1.000  H
  C349     1.0000 0.60919  0.83560  0.21792  Biso   1.000  C
  H314     1.0000 0.57363  0.85371  0.30402  Biso   1.000  H
  H315     1.0000 0.57357  0.85371  0.30402  Biso   1.000  H
  C350     1.0000 0.66539  0.81365  0.11360  Biso   1.000  C
  C351     1.0000 0.79489  0.82100  0.42058  Biso   1.000  C
  C352     1.0000 0.73310  0.88779  0.38942  Biso   1.000  C
  H316     1.0000 0.57363  0.85371  0.19598  Biso   1.000  H
  H317     1.0000 0.57357  0.85371  0.19598  Biso   1.000  H
  N32      1.0000 0.73360  0.84194  0.09891  Biso   1.000  N
  H318     1.0000 0.66960  0.78219  0.09481  Biso   1.000  H
  H319     1.0000 0.62103  0.82908  0.09608  Biso   1.000  H
  H320     1.0000 0.62098  0.82908  0.09608  Biso   1.000  H
  C353     1.0000 0.85850  0.84577  0.42802  Biso   1.000  C
  H321     1.0000 0.79439  0.78860  0.42939  Biso   1.000  H
  H322     1.0000 0.68841  0.90238  0.37661  Biso   1.000  H
  C354     1.0000 0.79721  0.91426  0.39582  Biso   1.000  C
  C355     1.0000 0.79489  0.82100  0.07942  Biso   1.000  C
  C356     1.0000 0.73310  0.88779  0.11058  Biso   1.000  C
  H323     1.0000 0.90121  0.83020  0.44341  Biso   1.000  H
  C357     1.0000 0.86343  0.89273  0.41418  Biso   1.000  C
  C358     1.0000 0.86337  0.89273  0.41418  Biso   1.000  C
  H324     1.0000 0.79600  0.94680  0.38782  Biso   1.000  H
  C359     1.0000 0.85850  0.84577  0.07198  Biso   1.000  C
  H325     1.0000 0.79439  0.78860  0.07061  Biso   1.000  H
  H326     1.0000 0.68841  0.90238  0.12339  Biso   1.000  H
  C360     1.0000 0.79721  0.91426  0.10418  Biso   1.000  C
  C361     1.0000 0.93251  0.91890  0.41705  Biso   1.000  C
  H327     1.0000 0.90121  0.83020  0.05659  Biso   1.000  H
  C362     1.0000 0.86343  0.89273  0.08582  Biso   1.000  C
  C363     1.0000 0.86337  0.89273  0.08582  Biso   1.000  C
  H328     1.0000 0.79600  0.94680  0.11218  Biso   1.000  H
  C364     1.0000 0.93440  0.96805  0.41912  Biso   1.000  C
  C365     1.0000 1.00000  0.89566  0.41479  Biso   1.000  C
  C366     1.0000 0.93251  0.91890  0.08295  Biso   1.000  C
  H329     1.0000 0.88898  0.98471  0.42030  Biso   1.000  H
  C367     1.0000 1.00000  0.99261  0.41940  Biso   1.000  C
  C368     1.0000 0.06749  0.91890  0.41705  Biso   1.000  C
  H330     1.0000 1.00000  0.86260  0.41159  Biso   1.000  H
  C369     1.0000 0.93440  0.96805  0.08088  Biso   1.000  C
  C370     1.0000 1.00000  0.89566  0.08521  Biso   1.000  C
  C371     1.0000 0.06560  0.96805  0.41912  Biso   1.000  C
  C372     1.0000 1.00000  0.04452  0.41818  Biso   1.000  C
  C373     1.0000 0.13657  0.89273  0.41418  Biso   1.000  C
  H331     1.0000 0.88898  0.98471  0.07970  Biso   1.000  H
  C374     1.0000 1.00000  0.99261  0.08060  Biso   1.000  C
  C375     1.0000 0.06749  0.91890  0.08295  Biso   1.000  C
  H332     1.0000 1.00000  0.86260  0.08841  Biso   1.000  H
  H333     1.0000 0.11102  0.98471  0.42030  Biso   1.000  H
  H334     1.0000 0.11096  0.98471  0.42030  Biso   1.000  H
  C376     1.0000 0.93412  0.06985  0.41592  Biso   1.000  C
  C377     1.0000 0.93406  0.06985  0.41592  Biso   1.000  C
  C378     1.0000 0.06588  0.06985  0.41592  Biso   1.000  C
  C379     1.0000 0.14150  0.84577  0.42802  Biso   1.000  C
  C380     1.0000 0.20279  0.91426  0.39582  Biso   1.000  C
  C381     1.0000 0.06560  0.96805  0.08088  Biso   1.000  C
  C382     1.0000 1.00000  0.04452  0.08182  Biso   1.000  C
  C383     1.0000 0.13657  0.89273  0.08582  Biso   1.000  C
  C384     1.0000 0.93650  0.11772  0.40848  Biso   1.000  C
  H335     1.0000 0.88787  0.05431  0.41931  Biso   1.000  H
  C385     1.0000 0.06350  0.11772  0.40848  Biso   1.000  C
  H336     1.0000 0.11213  0.05431  0.41931  Biso   1.000  H
  H337     1.0000 0.11207  0.05431  0.41931  Biso   1.000  H
  H338     1.0000 0.09879  0.83020  0.44341  Biso   1.000  H
  C386     1.0000 0.20511  0.82100  0.42058  Biso   1.000  C
  C387     1.0000 0.26690  0.88779  0.38942  Biso   1.000  C
  H339     1.0000 0.20400  0.94680  0.38782  Biso   1.000  H
  H340     1.0000 0.11102  0.98471  0.07970  Biso   1.000  H
  H341     1.0000 0.11096  0.98471  0.07970  Biso   1.000  H
  C388     1.0000 0.93412  0.06985  0.08408  Biso   1.000  C
  C389     1.0000 0.93406  0.06985  0.08408  Biso   1.000  C
  C390     1.0000 0.06588  0.06985  0.08408  Biso   1.000  C
  C391     1.0000 0.14150  0.84577  0.07198  Biso   1.000  C
  C392     1.0000 0.20279  0.91426  0.10418  Biso   1.000  C
  H342     1.0000 0.89141  0.13469  0.40712  Biso   1.000  H
  N33      1.0000 1.00000  0.14061  0.40340  Biso   1.000  N
  H343     1.0000 0.10859  0.13469  0.40712  Biso   1.000  H
  N34      1.0000 0.26640  0.84194  0.40109  Biso   1.000  N
  H344     1.0000 0.20561  0.78860  0.42939  Biso   1.000  H
  H345     1.0000 0.31159  0.90238  0.37661  Biso   1.000  H
  C393     1.0000 0.93650  0.11772  0.09152  Biso   1.000  C
  H346     1.0000 0.88787  0.05431  0.08069  Biso   1.000  H
  C394     1.0000 0.06350  0.11772  0.09152  Biso   1.000  C
  H347     1.0000 0.11213  0.05431  0.08069  Biso   1.000  H
  H348     1.0000 0.11207  0.05431  0.08069  Biso   1.000  H
  H349     1.0000 0.09879  0.83020  0.05659  Biso   1.000  H
  C395     1.0000 0.20511  0.82100  0.07942  Biso   1.000  C
  C396     1.0000 0.26690  0.88779  0.11058  Biso   1.000  C
  H350     1.0000 0.20400  0.94680  0.11218  Biso   1.000  H
  C397     1.0000 1.00000  0.19179  0.38631  Biso   1.000  C
  C398     1.0000 0.33461  0.81365  0.38640  Biso   1.000  C
  H351     1.0000 0.89141  0.13469  0.09288  Biso   1.000  H
  N35      1.0000 1.00000  0.14061  0.09660  Biso   1.000  N
  H352     1.0000 0.10859  0.13469  0.09288  Biso   1.000  H
  N36      1.0000 0.26640  0.84194  0.09891  Biso   1.000  N
  H353     1.0000 0.20561  0.78860  0.07061  Biso   1.000  H
  H354     1.0000 0.31159  0.90238  0.12339  Biso   1.000  H
  H355     1.0000 0.95558  0.20718  0.40392  Biso   1.000  H
  C399     1.0000 1.00000  0.19590  0.31579  Biso   1.000  C
  H356     1.0000 0.04442  0.20718  0.40392  Biso   1.000  H
  H357     1.0000 0.04436  0.20718  0.40392  Biso   1.000  H
  H358     1.0000 0.33040  0.78219  0.40519  Biso   1.000  H
  H359     1.0000 0.37897  0.82908  0.40392  Biso   1.000  H
  C400     1.0000 0.34080  0.81003  0.31541  Biso   1.000  C
  C401     1.0000 1.00000  0.19179  0.11369  Biso   1.000  C
  C402     1.0000 0.33461  0.81365  0.11360  Biso   1.000  C
  C403     1.0000 0.93401  0.19677  0.28241  Biso   1.000  C
  C404     1.0000 0.06599  0.19677  0.28241  Biso   1.000  C
  C405     1.0000 0.29201  0.78191  0.28189  Biso   1.000  C
  C406     1.0000 0.39081  0.83560  0.28208  Biso   1.000  C
  H360     1.0000 0.95558  0.20718  0.09608  Biso   1.000  H
  C407     1.0000 1.00000  0.19590  0.18421  Biso   1.000  C
  H361     1.0000 0.04442  0.20718  0.09608  Biso   1.000  H
  H362     1.0000 0.04436  0.20718  0.09608  Biso   1.000  H
  H363     1.0000 0.33040  0.78219  0.09481  Biso   1.000  H
  H364     1.0000 0.37897  0.82908  0.09608  Biso   1.000  H
  C408     1.0000 0.34080  0.81003  0.18459  Biso   1.000  C
  H365     1.0000 0.88832  0.19739  0.30449  Biso   1.000  H
  C409     1.0000 0.93401  0.19677  0.21759  Biso   1.000  C
  H366     1.0000 0.11168  0.19739  0.30449  Biso   1.000  H
  C410     1.0000 0.06599  0.19677  0.21759  Biso   1.000  C
  H367     1.0000 0.25827  0.76251  0.30402  Biso   1.000  H
  C411     1.0000 0.29201  0.78191  0.21811  Biso   1.000  C
  H368     1.0000 0.42637  0.85371  0.30402  Biso   1.000  H
  C412     1.0000 0.39081  0.83560  0.21792  Biso   1.000  C
  H369     1.0000 0.88832  0.19739  0.19551  Biso   1.000  H
  H370     1.0000 0.11168  0.19739  0.19551  Biso   1.000  H
  H371     1.0000 0.25827  0.76251  0.19598  Biso   1.000  H
  H372     1.0000 0.42637  0.85371  0.19598  Biso   1.000  H
