data_image0
_cell_length_a       14.449
_cell_length_b       14.449
_cell_length_c       10.518
_cell_angle_alpha    90
_cell_angle_beta     90
_cell_angle_gamma    120

_symmetry_space_group_name_H-M    "P 1"
_symmetry_int_tables_number       1

loop_
  _symmetry_equiv_pos_as_xyz
  'x, y, z'

loop_
  _atom_site_label
  _atom_site_occupancy
  _atom_site_fract_x
  _atom_site_fract_y
  _atom_site_fract_z
  _atom_site_thermal_displace_type
  _atom_site_B_iso_or_equiv
  _atom_site_type_symbol
  C1       1.0000 0.72461  0.72459  0.18340  Biso   1.000  C
  N1       1.0000 0.74454  0.65691  0.11523  Biso   1.000  N
  N2       1.0000 0.74454  0.65691  0.11533  Biso   1.000  N
  N3       1.0000 0.74461  0.65691  0.11523  Biso   1.000  N
  N4       1.0000 0.74461  0.65691  0.11533  Biso   1.000  N
  N5       1.0000 0.65687  0.74457  0.11523  Biso   1.000  N
  N6       1.0000 0.65687  0.74457  0.11533  Biso   1.000  N
  N7       1.0000 0.65694  0.74457  0.11523  Biso   1.000  N
  N8       1.0000 0.65694  0.74457  0.11533  Biso   1.000  N
  O1       1.0000 0.75955  0.75960  0.28960  Biso   1.000  O
  O2       1.0000 0.75962  0.75960  0.28960  Biso   1.000  O
  C2       1.0000 0.68305  0.62086  0.00010  Biso   1.000  C
  C3       1.0000 0.72461  0.72459  0.18349  Biso   1.000  C
  C4       1.0000 0.80432  0.60872  0.16477  Biso   1.000  C
  C5       1.0000 0.68305  0.62086  0.00000  Biso   1.000  C
  C6       1.0000 0.80432  0.60872  0.16486  Biso   1.000  C
  C7       1.0000 0.80439  0.60872  0.16477  Biso   1.000  C
  C8       1.0000 0.68312  0.62086  0.00000  Biso   1.000  C
  C9       1.0000 0.80439  0.60872  0.16486  Biso   1.000  C
  C10      1.0000 0.68312  0.62086  0.00010  Biso   1.000  C
  C11      1.0000 0.62089  0.68312  0.00000  Biso   1.000  C
  C12      1.0000 0.62089  0.68312  0.00010  Biso   1.000  C
  C13      1.0000 0.62096  0.68312  0.00000  Biso   1.000  C
  C14      1.0000 0.62096  0.68312  0.00010  Biso   1.000  C
  C15      1.0000 0.60869  0.80435  0.16477  Biso   1.000  C
  C16      1.0000 0.60869  0.80435  0.16486  Biso   1.000  C
  H1       1.0000 0.63363  0.54167  0.00000  Biso   1.000  H
  H2       1.0000 0.63363  0.54167  0.00010  Biso   1.000  H
  H3       1.0000 0.63370  0.54167  0.00000  Biso   1.000  H
  H4       1.0000 0.63370  0.54167  0.00010  Biso   1.000  H
  N9       1.0000 0.74454  0.65691  0.88477  Biso   1.000  N
  N10      1.0000 0.74454  0.65691  0.88467  Biso   1.000  N
  N11      1.0000 0.74461  0.65691  0.88477  Biso   1.000  N
  N12      1.0000 0.74461  0.65691  0.88467  Biso   1.000  N
  N13      1.0000 0.91230  0.65691  0.11523  Biso   1.000  N
  H5       1.0000 0.76576  0.53160  0.14356  Biso   1.000  H
  H6       1.0000 0.80756  0.61519  0.25860  Biso   1.000  H
  N14      1.0000 0.91230  0.65691  0.11533  Biso   1.000  N
  H7       1.0000 0.76576  0.53160  0.14366  Biso   1.000  H
  N15      1.0000 0.91237  0.65691  0.11523  Biso   1.000  N
  H8       1.0000 0.76583  0.53160  0.14356  Biso   1.000  H
  H9       1.0000 0.80763  0.61519  0.25860  Biso   1.000  H
  N16      1.0000 0.91237  0.65691  0.11533  Biso   1.000  N
  H10      1.0000 0.76583  0.53160  0.14366  Biso   1.000  H
  H11      1.0000 0.54166  0.63373  0.00000  Biso   1.000  H
  H12      1.0000 0.54166  0.63373  0.00010  Biso   1.000  H
  H13      1.0000 0.54169  0.63365  0.00000  Biso   1.000  H
  H14      1.0000 0.54169  0.63365  0.00010  Biso   1.000  H
  H15      1.0000 0.54173  0.63373  0.00000  Biso   1.000  H
  H16      1.0000 0.54173  0.63373  0.00010  Biso   1.000  H
  N17      1.0000 0.65687  0.74457  0.88477  Biso   1.000  N
  N18      1.0000 0.65687  0.74457  0.88467  Biso   1.000  N
  N19      1.0000 0.65694  0.74457  0.88477  Biso   1.000  N
  N20      1.0000 0.65694  0.74457  0.88467  Biso   1.000  N
  N21      1.0000 0.65686  0.91232  0.11523  Biso   1.000  N
  H17      1.0000 0.53154  0.76575  0.14356  Biso   1.000  H
  H18      1.0000 0.61518  0.80763  0.25860  Biso   1.000  H
  N22      1.0000 0.65686  0.91232  0.11533  Biso   1.000  N
  H19      1.0000 0.53154  0.76575  0.14366  Biso   1.000  H
  N23      1.0000 0.65693  0.91232  0.11523  Biso   1.000  N
  H20      1.0000 0.53161  0.76575  0.14356  Biso   1.000  H
  H21      1.0000 0.61521  0.80755  0.25860  Biso   1.000  H
  N24      1.0000 0.65693  0.91232  0.11533  Biso   1.000  N
  H22      1.0000 0.53161  0.76575  0.14366  Biso   1.000  H
  H23      1.0000 0.61525  0.80763  0.25860  Biso   1.000  H
  H24      1.0000 0.61514  0.80755  0.25860  Biso   1.000  H
  C17      1.0000 0.72461  0.72459  0.81651  Biso   1.000  C
  C18      1.0000 0.80432  0.60872  0.83523  Biso   1.000  C
  C19      1.0000 0.80432  0.60872  0.83514  Biso   1.000  C
  C20      1.0000 0.80439  0.60872  0.83523  Biso   1.000  C
  C21      1.0000 0.80439  0.60872  0.83514  Biso   1.000  C
  C22      1.0000 0.99992  0.72459  0.18349  Biso   1.000  C
  C23      1.0000 0.93774  0.62086  0.00000  Biso   1.000  C
  C24      1.0000 0.99992  0.72459  0.18340  Biso   1.000  C
  C25      1.0000 0.93774  0.62086  0.00010  Biso   1.000  C
  C26      1.0000 0.99999  0.72459  0.18349  Biso   1.000  C
  C27      1.0000 0.93781  0.62086  0.00000  Biso   1.000  C
  C28      1.0000 0.99999  0.72459  0.18340  Biso   1.000  C
  C29      1.0000 0.93781  0.62086  0.00010  Biso   1.000  C
  C30      1.0000 0.60869  0.80435  0.83523  Biso   1.000  C
  C31      1.0000 0.60869  0.80435  0.83514  Biso   1.000  C
  C32      1.0000 0.62089  0.93781  0.00000  Biso   1.000  C
  C33      1.0000 0.62089  0.93781  0.00010  Biso   1.000  C
  C34      1.0000 0.62096  0.93781  0.00000  Biso   1.000  C
  C35      1.0000 0.62096  0.93781  0.00010  Biso   1.000  C
  C36      1.0000 0.72457  0.99998  0.18349  Biso   1.000  C
  C37      1.0000 0.72457  0.99998  0.18340  Biso   1.000  C
  C38      1.0000 0.72451  0.99998  0.18349  Biso   1.000  C
  C39      1.0000 0.72451  0.99998  0.18340  Biso   1.000  C
  O3       1.0000 0.75955  0.75960  0.71040  Biso   1.000  O
  O4       1.0000 0.75962  0.75960  0.71040  Biso   1.000  O
  N25      1.0000 0.91230  0.65691  0.88477  Biso   1.000  N
  H25      1.0000 0.76576  0.53160  0.85644  Biso   1.000  H
  H26      1.0000 0.80756  0.61519  0.74140  Biso   1.000  H
  N26      1.0000 0.91230  0.65691  0.88467  Biso   1.000  N
  H27      1.0000 0.76576  0.53160  0.85634  Biso   1.000  H
  N27      1.0000 0.91237  0.65691  0.88477  Biso   1.000  N
  H28      1.0000 0.76583  0.53160  0.85644  Biso   1.000  H
  H29      1.0000 0.80763  0.61519  0.74140  Biso   1.000  H
  N28      1.0000 0.91237  0.65691  0.88467  Biso   1.000  N
  H30      1.0000 0.76583  0.53160  0.85634  Biso   1.000  H
  O5       1.0000 0.99998  0.75960  0.28960  Biso   1.000  O
  O6       1.0000 0.00005  0.75960  0.28960  Biso   1.000  O
  N29      1.0000 0.08770  0.74457  0.11523  Biso   1.000  N
  N30      1.0000 0.08770  0.74457  0.11533  Biso   1.000  N
  N31      1.0000 0.08763  0.74457  0.11523  Biso   1.000  N
  N32      1.0000 0.08763  0.74457  0.11533  Biso   1.000  N
  H31      1.0000 0.90797  0.54167  0.00000  Biso   1.000  H
  H32      1.0000 0.90797  0.54167  0.00010  Biso   1.000  H
  C40      1.0000 0.06223  0.68312  0.00000  Biso   1.000  C
  C41      1.0000 0.06223  0.68312  0.00010  Biso   1.000  C
  C42      1.0000 0.06216  0.68312  0.00000  Biso   1.000  C
  C43      1.0000 0.06216  0.68312  0.00010  Biso   1.000  C
  N33      1.0000 0.65686  0.91232  0.88477  Biso   1.000  N
  H33      1.0000 0.53154  0.76575  0.85644  Biso   1.000  H
  H34      1.0000 0.61518  0.80763  0.74140  Biso   1.000  H
  N34      1.0000 0.65686  0.91232  0.88467  Biso   1.000  N
  H35      1.0000 0.53154  0.76575  0.85634  Biso   1.000  H
  N35      1.0000 0.65693  0.91232  0.88477  Biso   1.000  N
  H36      1.0000 0.53161  0.76575  0.85644  Biso   1.000  H
  H37      1.0000 0.61521  0.80755  0.74140  Biso   1.000  H
  N36      1.0000 0.65693  0.91232  0.88467  Biso   1.000  N
  H38      1.0000 0.53161  0.76575  0.85634  Biso   1.000  H
  H39      1.0000 0.61525  0.80763  0.74140  Biso   1.000  H
  H40      1.0000 0.61514  0.80755  0.74140  Biso   1.000  H
  H41      1.0000 0.54169  0.90800  0.00000  Biso   1.000  H
  H42      1.0000 0.54169  0.90800  0.00010  Biso   1.000  H
  H43      1.0000 0.54176  0.90800  0.00000  Biso   1.000  H
  H44      1.0000 0.54176  0.90800  0.00010  Biso   1.000  H
  C44      1.0000 0.68306  0.06216  0.00000  Biso   1.000  C
  C45      1.0000 0.68306  0.06216  0.00010  Biso   1.000  C
  O7       1.0000 0.75966  0.99998  0.28960  Biso   1.000  O
  N37      1.0000 0.74460  0.08765  0.11523  Biso   1.000  N
  N38      1.0000 0.74460  0.08765  0.11533  Biso   1.000  N
  O8       1.0000 0.75959  0.99998  0.28960  Biso   1.000  O
  N39      1.0000 0.74453  0.08765  0.11523  Biso   1.000  N
  N40      1.0000 0.74453  0.08765  0.11533  Biso   1.000  N
  C46      1.0000 0.99992  0.72459  0.81651  Biso   1.000  C
  C47      1.0000 0.99999  0.72459  0.81651  Biso   1.000  C
  C48      1.0000 0.19566  0.80435  0.16477  Biso   1.000  C
  C49      1.0000 0.19566  0.80435  0.16486  Biso   1.000  C
  N41      1.0000 0.08770  0.74457  0.88477  Biso   1.000  N
  N42      1.0000 0.08770  0.74457  0.88467  Biso   1.000  N
  N43      1.0000 0.08763  0.74457  0.88477  Biso   1.000  N
  N44      1.0000 0.08763  0.74457  0.88467  Biso   1.000  N
  H45      1.0000 0.09207  0.63373  0.00000  Biso   1.000  H
  H46      1.0000 0.09207  0.63373  0.00010  Biso   1.000  H
  H47      1.0000 0.09197  0.63365  0.00000  Biso   1.000  H
  H48      1.0000 0.09197  0.63365  0.00010  Biso   1.000  H
  H49      1.0000 0.09201  0.63373  0.00000  Biso   1.000  H
  H50      1.0000 0.09201  0.63373  0.00010  Biso   1.000  H
  C50      1.0000 0.72457  0.99998  0.81651  Biso   1.000  C
  C51      1.0000 0.72451  0.99998  0.81651  Biso   1.000  C
  N45      1.0000 0.74460  0.08765  0.88477  Biso   1.000  N
  N46      1.0000 0.74460  0.08765  0.88467  Biso   1.000  N
  N47      1.0000 0.74453  0.08765  0.88477  Biso   1.000  N
  N48      1.0000 0.74453  0.08765  0.88467  Biso   1.000  N
  H51      1.0000 0.63374  0.09197  0.00000  Biso   1.000  H
  H52      1.0000 0.63374  0.09197  0.00010  Biso   1.000  H
  H53      1.0000 0.63360  0.09197  0.00000  Biso   1.000  H
  H54      1.0000 0.63360  0.09197  0.00010  Biso   1.000  H
  C52      1.0000 0.80440  0.19562  0.16477  Biso   1.000  C
  C53      1.0000 0.80440  0.19562  0.16486  Biso   1.000  C
  C54      1.0000 0.80426  0.19562  0.16477  Biso   1.000  C
  C55      1.0000 0.80426  0.19562  0.16486  Biso   1.000  C
  O9       1.0000 0.99998  0.75960  0.71040  Biso   1.000  O
  O10      1.0000 0.00005  0.75960  0.71040  Biso   1.000  O
  N49      1.0000 0.25545  0.91232  0.11523  Biso   1.000  N
  H55      1.0000 0.23421  0.76575  0.14356  Biso   1.000  H
  H56      1.0000 0.19245  0.80763  0.25860  Biso   1.000  H
  N50      1.0000 0.25545  0.91232  0.11533  Biso   1.000  N
  H57      1.0000 0.23421  0.76575  0.14366  Biso   1.000  H
  H58      1.0000 0.23415  0.76575  0.14356  Biso   1.000  H
  H59      1.0000 0.19241  0.80755  0.25860  Biso   1.000  H
  H60      1.0000 0.23415  0.76575  0.14366  Biso   1.000  H
  N51      1.0000 0.25538  0.91232  0.11523  Biso   1.000  N
  H61      1.0000 0.19238  0.80763  0.25860  Biso   1.000  H
  N52      1.0000 0.25538  0.91232  0.11533  Biso   1.000  N
  H62      1.0000 0.19234  0.80755  0.25860  Biso   1.000  H
  C56      1.0000 0.19566  0.80435  0.83523  Biso   1.000  C
  C57      1.0000 0.19566  0.80435  0.83514  Biso   1.000  C
  O11      1.0000 0.75966  0.99998  0.71040  Biso   1.000  O
  O12      1.0000 0.75959  0.99998  0.71040  Biso   1.000  O
  C58      1.0000 0.80440  0.19562  0.83523  Biso   1.000  C
  C59      1.0000 0.80440  0.19562  0.83514  Biso   1.000  C
  C60      1.0000 0.80426  0.19562  0.83523  Biso   1.000  C
  C61      1.0000 0.80426  0.19562  0.83514  Biso   1.000  C
  N53      1.0000 0.91228  0.25539  0.11523  Biso   1.000  N
  H63      1.0000 0.76577  0.23422  0.14356  Biso   1.000  H
  H64      1.0000 0.80753  0.19234  0.25860  Biso   1.000  H
  N54      1.0000 0.91228  0.25539  0.11533  Biso   1.000  N
  H65      1.0000 0.76577  0.23422  0.14366  Biso   1.000  H
  H66      1.0000 0.76573  0.23414  0.14356  Biso   1.000  H
  H67      1.0000 0.76573  0.23414  0.14366  Biso   1.000  H
  C62      1.0000 0.31692  0.93781  0.00000  Biso   1.000  C
  C63      1.0000 0.31692  0.93781  0.00010  Biso   1.000  C
  C64      1.0000 0.31685  0.93781  0.00000  Biso   1.000  C
  C65      1.0000 0.31685  0.93781  0.00010  Biso   1.000  C
  C66      1.0000 0.27541  0.99998  0.18349  Biso   1.000  C
  C67      1.0000 0.27541  0.99998  0.18340  Biso   1.000  C
  C68      1.0000 0.27534  0.99998  0.18349  Biso   1.000  C
  C69      1.0000 0.27534  0.99998  0.18340  Biso   1.000  C
  N55      1.0000 0.25545  0.91232  0.88477  Biso   1.000  N
  H68      1.0000 0.23421  0.76575  0.85644  Biso   1.000  H
  H69      1.0000 0.19245  0.80763  0.74140  Biso   1.000  H
  N56      1.0000 0.25545  0.91232  0.88467  Biso   1.000  N
  H70      1.0000 0.23421  0.76575  0.85634  Biso   1.000  H
  H71      1.0000 0.23415  0.76575  0.85644  Biso   1.000  H
  H72      1.0000 0.19241  0.80755  0.74140  Biso   1.000  H
  H73      1.0000 0.23415  0.76575  0.85634  Biso   1.000  H
  N57      1.0000 0.25538  0.91232  0.88477  Biso   1.000  N
  H74      1.0000 0.19238  0.80763  0.74140  Biso   1.000  H
  N58      1.0000 0.25538  0.91232  0.88467  Biso   1.000  N
  H75      1.0000 0.19234  0.80755  0.74140  Biso   1.000  H
  N59      1.0000 0.91228  0.25539  0.88477  Biso   1.000  N
  H76      1.0000 0.76577  0.23422  0.85644  Biso   1.000  H
  H77      1.0000 0.80753  0.19234  0.74140  Biso   1.000  H
  N60      1.0000 0.91228  0.25539  0.88467  Biso   1.000  N
  H78      1.0000 0.76577  0.23422  0.85634  Biso   1.000  H
  H79      1.0000 0.76573  0.23414  0.85644  Biso   1.000  H
  H80      1.0000 0.76573  0.23414  0.85634  Biso   1.000  H
  C70      1.0000 0.93782  0.31685  0.00000  Biso   1.000  C
  C71      1.0000 0.93782  0.31685  0.00010  Biso   1.000  C
  C72      1.0000 0.99993  0.27537  0.18349  Biso   1.000  C
  C73      1.0000 0.99993  0.27537  0.18340  Biso   1.000  C
  C74      1.0000 0.93768  0.31685  0.00000  Biso   1.000  C
  C75      1.0000 0.93768  0.31685  0.00010  Biso   1.000  C
  C76      1.0000 0.00006  0.27537  0.18349  Biso   1.000  C
  C77      1.0000 0.00006  0.27537  0.18340  Biso   1.000  C
  H81      1.0000 0.36631  0.90800  0.00000  Biso   1.000  H
  H82      1.0000 0.36631  0.90800  0.00010  Biso   1.000  H
  H83      1.0000 0.36624  0.90800  0.00000  Biso   1.000  H
  H84      1.0000 0.36624  0.90800  0.00010  Biso   1.000  H
  C78      1.0000 0.37903  0.06216  0.00000  Biso   1.000  C
  C79      1.0000 0.37903  0.06216  0.00010  Biso   1.000  C
  O13      1.0000 0.24032  0.99998  0.28960  Biso   1.000  O
  N61      1.0000 0.34312  0.08765  0.11523  Biso   1.000  N
  N62      1.0000 0.34312  0.08765  0.11533  Biso   1.000  N
  N63      1.0000 0.34298  0.08765  0.11523  Biso   1.000  N
  N64      1.0000 0.34298  0.08765  0.11533  Biso   1.000  N
  O14      1.0000 0.24039  0.99998  0.28960  Biso   1.000  O
  C80      1.0000 0.27541  0.99998  0.81651  Biso   1.000  C
  C81      1.0000 0.27534  0.99998  0.81651  Biso   1.000  C
  C82      1.0000 0.99993  0.27537  0.81651  Biso   1.000  C
  C83      1.0000 0.00006  0.27537  0.81651  Biso   1.000  C
  H85      1.0000 0.90791  0.36624  0.00000  Biso   1.000  H
  H86      1.0000 0.90791  0.36624  0.00010  Biso   1.000  H
  C84      1.0000 0.06224  0.37910  0.00000  Biso   1.000  C
  C85      1.0000 0.06224  0.37910  0.00010  Biso   1.000  C
  C86      1.0000 0.06220  0.37902  0.00000  Biso   1.000  C
  C87      1.0000 0.06220  0.37902  0.00010  Biso   1.000  C
  O15      1.0000 0.99993  0.24037  0.28960  Biso   1.000  O
  N65      1.0000 0.08768  0.34306  0.11523  Biso   1.000  N
  N66      1.0000 0.08768  0.34306  0.11533  Biso   1.000  N
  O16      1.0000 0.00007  0.24037  0.28960  Biso   1.000  O
  N67      1.0000 0.34312  0.08765  0.88477  Biso   1.000  N
  N68      1.0000 0.34312  0.08765  0.88467  Biso   1.000  N
  N69      1.0000 0.34298  0.08765  0.88477  Biso   1.000  N
  N70      1.0000 0.34298  0.08765  0.88467  Biso   1.000  N
  H87      1.0000 0.45823  0.09197  0.00000  Biso   1.000  H
  H88      1.0000 0.45823  0.09197  0.00010  Biso   1.000  H
  C88      1.0000 0.39122  0.19562  0.16477  Biso   1.000  C
  C89      1.0000 0.39122  0.19562  0.16486  Biso   1.000  C
  C90      1.0000 0.39136  0.19562  0.16477  Biso   1.000  C
  C91      1.0000 0.39136  0.19562  0.16486  Biso   1.000  C
  O17      1.0000 0.24032  0.99998  0.71040  Biso   1.000  O
  O18      1.0000 0.24039  0.99998  0.71040  Biso   1.000  O
  O19      1.0000 0.99993  0.24037  0.71040  Biso   1.000  O
  N71      1.0000 0.08768  0.34306  0.88477  Biso   1.000  N
  N72      1.0000 0.08768  0.34306  0.88467  Biso   1.000  N
  O20      1.0000 0.00007  0.24037  0.71040  Biso   1.000  O
  H89      1.0000 0.09194  0.45830  0.00000  Biso   1.000  H
  H90      1.0000 0.09194  0.45830  0.00010  Biso   1.000  H
  H91      1.0000 0.09190  0.45822  0.00000  Biso   1.000  H
  H92      1.0000 0.09190  0.45822  0.00010  Biso   1.000  H
  H93      1.0000 0.09204  0.45822  0.00000  Biso   1.000  H
  H94      1.0000 0.09204  0.45822  0.00010  Biso   1.000  H
  C92      1.0000 0.19559  0.39125  0.16477  Biso   1.000  C
  C93      1.0000 0.19559  0.39125  0.16486  Biso   1.000  C
  C94      1.0000 0.39122  0.19562  0.83523  Biso   1.000  C
  C95      1.0000 0.39122  0.19562  0.83514  Biso   1.000  C
  C96      1.0000 0.39136  0.19562  0.83523  Biso   1.000  C
  C97      1.0000 0.39136  0.19562  0.83514  Biso   1.000  C
  N73      1.0000 0.34304  0.25539  0.11523  Biso   1.000  N
  H95      1.0000 0.46838  0.23422  0.14356  Biso   1.000  H
  H96      1.0000 0.38481  0.19234  0.25860  Biso   1.000  H
  N74      1.0000 0.34304  0.25539  0.11533  Biso   1.000  N
  H97      1.0000 0.46838  0.23422  0.14366  Biso   1.000  H
  N75      1.0000 0.34297  0.25539  0.11523  Biso   1.000  N
  H98      1.0000 0.46834  0.23414  0.14356  Biso   1.000  H
  N76      1.0000 0.34297  0.25539  0.11533  Biso   1.000  N
  H99      1.0000 0.46834  0.23414  0.14366  Biso   1.000  H
  H100     1.0000 0.38467  0.19234  0.25860  Biso   1.000  H
  C98      1.0000 0.19559  0.39125  0.83523  Biso   1.000  C
  C99      1.0000 0.19559  0.39125  0.83514  Biso   1.000  C
  N77      1.0000 0.25545  0.34306  0.11523  Biso   1.000  N
  H101     1.0000 0.23415  0.46837  0.14356  Biso   1.000  H
  H102     1.0000 0.19235  0.38478  0.25860  Biso   1.000  H
  N78      1.0000 0.25545  0.34306  0.11533  Biso   1.000  N
  H103     1.0000 0.23415  0.46837  0.14366  Biso   1.000  H
  N79      1.0000 0.34304  0.25539  0.88477  Biso   1.000  N
  H104     1.0000 0.46838  0.23422  0.85644  Biso   1.000  H
  H105     1.0000 0.38481  0.19234  0.74140  Biso   1.000  H
  N80      1.0000 0.34304  0.25539  0.88467  Biso   1.000  N
  H106     1.0000 0.46838  0.23422  0.85634  Biso   1.000  H
  N81      1.0000 0.34297  0.25539  0.88477  Biso   1.000  N
  H107     1.0000 0.46834  0.23414  0.85644  Biso   1.000  H
  N82      1.0000 0.34297  0.25539  0.88467  Biso   1.000  N
  H108     1.0000 0.46834  0.23414  0.85634  Biso   1.000  H
  H109     1.0000 0.38467  0.19234  0.74140  Biso   1.000  H
  C100     1.0000 0.27531  0.27537  0.18349  Biso   1.000  C
  C101     1.0000 0.37903  0.31685  0.00000  Biso   1.000  C
  C102     1.0000 0.27531  0.27537  0.18340  Biso   1.000  C
  C103     1.0000 0.37903  0.31685  0.00010  Biso   1.000  C
  C104     1.0000 0.27538  0.27537  0.18349  Biso   1.000  C
  C105     1.0000 0.27538  0.27537  0.18340  Biso   1.000  C
  N83      1.0000 0.25545  0.34306  0.88477  Biso   1.000  N
  H110     1.0000 0.23415  0.46837  0.85644  Biso   1.000  H
  H111     1.0000 0.19235  0.38478  0.74140  Biso   1.000  H
  N84      1.0000 0.25545  0.34306  0.88467  Biso   1.000  N
  H112     1.0000 0.23415  0.46837  0.85634  Biso   1.000  H
  C106     1.0000 0.31693  0.37910  0.00000  Biso   1.000  C
  C107     1.0000 0.31693  0.37910  0.00010  Biso   1.000  C
  C108     1.0000 0.31689  0.37902  0.00000  Biso   1.000  C
  C109     1.0000 0.31689  0.37902  0.00010  Biso   1.000  C
  C110     1.0000 0.27531  0.27537  0.81651  Biso   1.000  C
  C111     1.0000 0.27538  0.27537  0.81651  Biso   1.000  C
  O21      1.0000 0.24037  0.24037  0.28960  Biso   1.000  O
  O22      1.0000 0.24030  0.24037  0.28960  Biso   1.000  O
  H113     1.0000 0.45826  0.36624  0.00000  Biso   1.000  H
  H114     1.0000 0.45826  0.36624  0.00010  Biso   1.000  H
  H115     1.0000 0.36636  0.45830  0.00000  Biso   1.000  H
  H116     1.0000 0.36636  0.45830  0.00010  Biso   1.000  H
  H117     1.0000 0.36625  0.45822  0.00000  Biso   1.000  H
  H118     1.0000 0.36625  0.45822  0.00010  Biso   1.000  H
  H119     1.0000 0.36629  0.45830  0.00000  Biso   1.000  H
  H120     1.0000 0.36629  0.45830  0.00010  Biso   1.000  H
  H121     1.0000 0.36632  0.45822  0.00000  Biso   1.000  H
  H122     1.0000 0.36632  0.45822  0.00010  Biso   1.000  H
  O23      1.0000 0.24037  0.24037  0.71040  Biso   1.000  O
  O24      1.0000 0.24030  0.24037  0.71040  Biso   1.000  O
  C112     1.0000 0.72461  0.72459  0.18340  Biso   1.000  C
  N85      1.0000 0.74461  0.65691  0.11523  Biso   1.000  N
  N86      1.0000 0.74461  0.65691  0.11533  Biso   1.000  N
  N87      1.0000 0.74454  0.65691  0.11523  Biso   1.000  N
  N88      1.0000 0.74454  0.65691  0.11533  Biso   1.000  N
  N89      1.0000 0.65694  0.74457  0.11523  Biso   1.000  N
  N90      1.0000 0.65694  0.74457  0.11533  Biso   1.000  N
  N91      1.0000 0.65687  0.74457  0.11523  Biso   1.000  N
  N92      1.0000 0.65687  0.74457  0.11533  Biso   1.000  N
  O25      1.0000 0.75955  0.75960  0.28960  Biso   1.000  O
  O26      1.0000 0.75962  0.75960  0.28960  Biso   1.000  O
  C113     1.0000 0.68305  0.62086  0.00010  Biso   1.000  C
  C114     1.0000 0.72461  0.72459  0.18349  Biso   1.000  C
  C115     1.0000 0.80439  0.60872  0.16477  Biso   1.000  C
  C116     1.0000 0.68312  0.62086  0.00000  Biso   1.000  C
  C117     1.0000 0.80439  0.60872  0.16486  Biso   1.000  C
  C118     1.0000 0.68312  0.62086  0.00010  Biso   1.000  C
  C119     1.0000 0.80432  0.60872  0.16477  Biso   1.000  C
  C120     1.0000 0.68305  0.62086  0.00000  Biso   1.000  C
  C121     1.0000 0.80432  0.60872  0.16486  Biso   1.000  C
  C122     1.0000 0.62096  0.68312  0.00000  Biso   1.000  C
  C123     1.0000 0.62096  0.68312  0.00010  Biso   1.000  C
  C124     1.0000 0.62089  0.68312  0.00000  Biso   1.000  C
  C125     1.0000 0.62089  0.68312  0.00010  Biso   1.000  C
  C126     1.0000 0.60869  0.80435  0.16477  Biso   1.000  C
  C127     1.0000 0.60869  0.80435  0.16486  Biso   1.000  C
  H123     1.0000 0.63370  0.54167  0.00000  Biso   1.000  H
  H124     1.0000 0.63370  0.54167  0.00010  Biso   1.000  H
  N93      1.0000 0.74454  0.65691  0.88477  Biso   1.000  N
  N94      1.0000 0.74454  0.65691  0.88467  Biso   1.000  N
  N95      1.0000 0.74461  0.65691  0.88477  Biso   1.000  N
  N96      1.0000 0.74461  0.65691  0.88467  Biso   1.000  N
  H125     1.0000 0.63363  0.54167  0.00000  Biso   1.000  H
  H126     1.0000 0.63363  0.54167  0.00010  Biso   1.000  H
  H127     1.0000 0.80756  0.61519  0.25860  Biso   1.000  H
  H128     1.0000 0.80763  0.61519  0.25860  Biso   1.000  H
  N97      1.0000 0.91237  0.65691  0.11523  Biso   1.000  N
  H129     1.0000 0.76583  0.53160  0.14356  Biso   1.000  H
  N98      1.0000 0.91237  0.65691  0.11533  Biso   1.000  N
  H130     1.0000 0.76583  0.53160  0.14366  Biso   1.000  H
  N99      1.0000 0.91230  0.65691  0.11523  Biso   1.000  N
  H131     1.0000 0.76576  0.53160  0.14356  Biso   1.000  H
  N100     1.0000 0.91230  0.65691  0.11533  Biso   1.000  N
  H132     1.0000 0.76576  0.53160  0.14366  Biso   1.000  H
  H133     1.0000 0.54169  0.63365  0.00000  Biso   1.000  H
  H134     1.0000 0.54169  0.63365  0.00010  Biso   1.000  H
  N101     1.0000 0.65687  0.74457  0.88477  Biso   1.000  N
  N102     1.0000 0.65687  0.74457  0.88467  Biso   1.000  N
  N103     1.0000 0.65694  0.74457  0.88477  Biso   1.000  N
  N104     1.0000 0.65694  0.74457  0.88467  Biso   1.000  N
  H135     1.0000 0.54166  0.63373  0.00000  Biso   1.000  H
  H136     1.0000 0.54166  0.63373  0.00010  Biso   1.000  H
  H137     1.0000 0.54173  0.63373  0.00000  Biso   1.000  H
  H138     1.0000 0.54173  0.63373  0.00010  Biso   1.000  H
  H139     1.0000 0.61518  0.80763  0.25860  Biso   1.000  H
  H140     1.0000 0.61521  0.80755  0.25860  Biso   1.000  H
  N105     1.0000 0.65693  0.91232  0.11523  Biso   1.000  N
  H141     1.0000 0.53161  0.76575  0.14356  Biso   1.000  H
  N106     1.0000 0.65693  0.91232  0.11533  Biso   1.000  N
  H142     1.0000 0.53161  0.76575  0.14366  Biso   1.000  H
  H143     1.0000 0.61525  0.80763  0.25860  Biso   1.000  H
  N107     1.0000 0.65686  0.91232  0.11523  Biso   1.000  N
  N108     1.0000 0.65686  0.91232  0.11533  Biso   1.000  N
  H144     1.0000 0.61514  0.80755  0.25860  Biso   1.000  H
  H145     1.0000 0.53154  0.76575  0.14356  Biso   1.000  H
  H146     1.0000 0.53154  0.76575  0.14366  Biso   1.000  H
  C128     1.0000 0.72461  0.72459  0.81651  Biso   1.000  C
  C129     1.0000 0.80432  0.60872  0.83523  Biso   1.000  C
  C130     1.0000 0.80432  0.60872  0.83514  Biso   1.000  C
  C131     1.0000 0.80439  0.60872  0.83523  Biso   1.000  C
  C132     1.0000 0.80439  0.60872  0.83514  Biso   1.000  C
  C133     1.0000 0.99999  0.72459  0.18349  Biso   1.000  C
  C134     1.0000 0.93781  0.62086  0.00000  Biso   1.000  C
  C135     1.0000 0.99999  0.72459  0.18340  Biso   1.000  C
  C136     1.0000 0.93781  0.62086  0.00010  Biso   1.000  C
  C137     1.0000 0.93774  0.62086  0.00000  Biso   1.000  C
  C138     1.0000 0.93774  0.62086  0.00010  Biso   1.000  C
  C139     1.0000 0.99992  0.72459  0.18349  Biso   1.000  C
  C140     1.0000 0.99992  0.72459  0.18340  Biso   1.000  C
  C141     1.0000 0.60869  0.80435  0.83523  Biso   1.000  C
  C142     1.0000 0.60869  0.80435  0.83514  Biso   1.000  C
  C143     1.0000 0.62089  0.93781  0.00000  Biso   1.000  C
  C144     1.0000 0.62089  0.93781  0.00010  Biso   1.000  C
  C145     1.0000 0.62096  0.93781  0.00000  Biso   1.000  C
  C146     1.0000 0.62096  0.93781  0.00010  Biso   1.000  C
  C147     1.0000 0.72457  0.99998  0.18349  Biso   1.000  C
  C148     1.0000 0.72457  0.99998  0.18340  Biso   1.000  C
  C149     1.0000 0.72451  0.99998  0.18349  Biso   1.000  C
  C150     1.0000 0.72451  0.99998  0.18340  Biso   1.000  C
  O27      1.0000 0.75955  0.75960  0.71040  Biso   1.000  O
  O28      1.0000 0.75962  0.75960  0.71040  Biso   1.000  O
  N109     1.0000 0.91230  0.65691  0.88477  Biso   1.000  N
  H147     1.0000 0.76576  0.53160  0.85644  Biso   1.000  H
  H148     1.0000 0.80756  0.61519  0.74140  Biso   1.000  H
  N110     1.0000 0.91230  0.65691  0.88467  Biso   1.000  N
  H149     1.0000 0.76576  0.53160  0.85634  Biso   1.000  H
  N111     1.0000 0.91237  0.65691  0.88477  Biso   1.000  N
  H150     1.0000 0.76583  0.53160  0.85644  Biso   1.000  H
  H151     1.0000 0.80763  0.61519  0.74140  Biso   1.000  H
  N112     1.0000 0.91237  0.65691  0.88467  Biso   1.000  N
  H152     1.0000 0.76583  0.53160  0.85634  Biso   1.000  H
  O29      1.0000 0.99998  0.75960  0.28960  Biso   1.000  O
  O30      1.0000 0.00005  0.75960  0.28960  Biso   1.000  O
  N113     1.0000 0.08770  0.74457  0.11523  Biso   1.000  N
  N114     1.0000 0.08770  0.74457  0.11533  Biso   1.000  N
  N115     1.0000 0.08763  0.74457  0.11523  Biso   1.000  N
  N116     1.0000 0.08763  0.74457  0.11533  Biso   1.000  N
  H153     1.0000 0.90797  0.54167  0.00000  Biso   1.000  H
  H154     1.0000 0.90797  0.54167  0.00010  Biso   1.000  H
  C151     1.0000 0.06223  0.68312  0.00000  Biso   1.000  C
  C152     1.0000 0.06223  0.68312  0.00010  Biso   1.000  C
  C153     1.0000 0.06216  0.68312  0.00000  Biso   1.000  C
  C154     1.0000 0.06216  0.68312  0.00010  Biso   1.000  C
  N117     1.0000 0.65686  0.91232  0.88477  Biso   1.000  N
  H155     1.0000 0.53154  0.76575  0.85644  Biso   1.000  H
  H156     1.0000 0.61518  0.80763  0.74140  Biso   1.000  H
  N118     1.0000 0.65686  0.91232  0.88467  Biso   1.000  N
  H157     1.0000 0.53154  0.76575  0.85634  Biso   1.000  H
  N119     1.0000 0.65693  0.91232  0.88477  Biso   1.000  N
  H158     1.0000 0.53161  0.76575  0.85644  Biso   1.000  H
  H159     1.0000 0.61521  0.80755  0.74140  Biso   1.000  H
  N120     1.0000 0.65693  0.91232  0.88467  Biso   1.000  N
  H160     1.0000 0.53161  0.76575  0.85634  Biso   1.000  H
  H161     1.0000 0.61525  0.80763  0.74140  Biso   1.000  H
  H162     1.0000 0.61514  0.80755  0.74140  Biso   1.000  H
  C155     1.0000 0.68306  0.06216  0.00000  Biso   1.000  C
  C156     1.0000 0.68306  0.06216  0.00010  Biso   1.000  C
  H163     1.0000 0.54169  0.90800  0.00000  Biso   1.000  H
  H164     1.0000 0.54169  0.90800  0.00010  Biso   1.000  H
  H165     1.0000 0.54176  0.90800  0.00000  Biso   1.000  H
  H166     1.0000 0.54176  0.90800  0.00010  Biso   1.000  H
  O31      1.0000 0.75966  0.99998  0.28960  Biso   1.000  O
  N121     1.0000 0.74460  0.08765  0.11523  Biso   1.000  N
  N122     1.0000 0.74460  0.08765  0.11533  Biso   1.000  N
  O32      1.0000 0.75959  0.99998  0.28960  Biso   1.000  O
  N123     1.0000 0.74453  0.08765  0.11523  Biso   1.000  N
  N124     1.0000 0.74453  0.08765  0.11533  Biso   1.000  N
  C157     1.0000 0.99992  0.72459  0.81651  Biso   1.000  C
  C158     1.0000 0.99999  0.72459  0.81651  Biso   1.000  C
  C159     1.0000 0.19566  0.80435  0.16477  Biso   1.000  C
  C160     1.0000 0.19566  0.80435  0.16486  Biso   1.000  C
  N125     1.0000 0.08770  0.74457  0.88477  Biso   1.000  N
  N126     1.0000 0.08770  0.74457  0.88467  Biso   1.000  N
  N127     1.0000 0.08763  0.74457  0.88477  Biso   1.000  N
  N128     1.0000 0.08763  0.74457  0.88467  Biso   1.000  N
  H167     1.0000 0.09207  0.63373  0.00000  Biso   1.000  H
  H168     1.0000 0.09207  0.63373  0.00010  Biso   1.000  H
  H169     1.0000 0.09197  0.63365  0.00000  Biso   1.000  H
  H170     1.0000 0.09197  0.63365  0.00010  Biso   1.000  H
  H171     1.0000 0.09201  0.63373  0.00000  Biso   1.000  H
  H172     1.0000 0.09201  0.63373  0.00010  Biso   1.000  H
  C161     1.0000 0.72457  0.99998  0.81651  Biso   1.000  C
  C162     1.0000 0.72451  0.99998  0.81651  Biso   1.000  C
  N129     1.0000 0.74460  0.08765  0.88477  Biso   1.000  N
  N130     1.0000 0.74460  0.08765  0.88467  Biso   1.000  N
  N131     1.0000 0.74453  0.08765  0.88477  Biso   1.000  N
  N132     1.0000 0.74453  0.08765  0.88467  Biso   1.000  N
  H173     1.0000 0.63374  0.09197  0.00000  Biso   1.000  H
  H174     1.0000 0.63374  0.09197  0.00010  Biso   1.000  H
  H175     1.0000 0.63360  0.09197  0.00000  Biso   1.000  H
  H176     1.0000 0.63360  0.09197  0.00010  Biso   1.000  H
  C163     1.0000 0.80440  0.19562  0.16477  Biso   1.000  C
  C164     1.0000 0.80440  0.19562  0.16486  Biso   1.000  C
  C165     1.0000 0.80426  0.19562  0.16477  Biso   1.000  C
  C166     1.0000 0.80426  0.19562  0.16486  Biso   1.000  C
  O33      1.0000 0.99998  0.75960  0.71040  Biso   1.000  O
  O34      1.0000 0.00005  0.75960  0.71040  Biso   1.000  O
  N133     1.0000 0.25545  0.91232  0.11523  Biso   1.000  N
  H177     1.0000 0.23421  0.76575  0.14356  Biso   1.000  H
  H178     1.0000 0.19245  0.80763  0.25860  Biso   1.000  H
  N134     1.0000 0.25545  0.91232  0.11533  Biso   1.000  N
  H179     1.0000 0.23421  0.76575  0.14366  Biso   1.000  H
  H180     1.0000 0.23415  0.76575  0.14356  Biso   1.000  H
  H181     1.0000 0.19241  0.80755  0.25860  Biso   1.000  H
  H182     1.0000 0.23415  0.76575  0.14366  Biso   1.000  H
  N135     1.0000 0.25538  0.91232  0.11523  Biso   1.000  N
  H183     1.0000 0.19238  0.80763  0.25860  Biso   1.000  H
  N136     1.0000 0.25538  0.91232  0.11533  Biso   1.000  N
  H184     1.0000 0.19234  0.80755  0.25860  Biso   1.000  H
  C167     1.0000 0.19566  0.80435  0.83523  Biso   1.000  C
  C168     1.0000 0.19566  0.80435  0.83514  Biso   1.000  C
  O35      1.0000 0.75966  0.99998  0.71040  Biso   1.000  O
  O36      1.0000 0.75959  0.99998  0.71040  Biso   1.000  O
  C169     1.0000 0.80440  0.19562  0.83523  Biso   1.000  C
  C170     1.0000 0.80440  0.19562  0.83514  Biso   1.000  C
  C171     1.0000 0.80426  0.19562  0.83523  Biso   1.000  C
  C172     1.0000 0.80426  0.19562  0.83514  Biso   1.000  C
  H185     1.0000 0.80753  0.19234  0.25860  Biso   1.000  H
  N137     1.0000 0.91228  0.25539  0.11523  Biso   1.000  N
  H186     1.0000 0.76577  0.23422  0.14356  Biso   1.000  H
  N138     1.0000 0.91228  0.25539  0.11533  Biso   1.000  N
  H187     1.0000 0.76577  0.23422  0.14366  Biso   1.000  H
  H188     1.0000 0.76573  0.23414  0.14356  Biso   1.000  H
  H189     1.0000 0.76573  0.23414  0.14366  Biso   1.000  H
  C173     1.0000 0.31692  0.93781  0.00000  Biso   1.000  C
  C174     1.0000 0.31692  0.93781  0.00010  Biso   1.000  C
  C175     1.0000 0.31685  0.93781  0.00000  Biso   1.000  C
  C176     1.0000 0.31685  0.93781  0.00010  Biso   1.000  C
  C177     1.0000 0.27541  0.99998  0.18349  Biso   1.000  C
  C178     1.0000 0.27541  0.99998  0.18340  Biso   1.000  C
  C179     1.0000 0.27534  0.99998  0.18349  Biso   1.000  C
  C180     1.0000 0.27534  0.99998  0.18340  Biso   1.000  C
  N139     1.0000 0.25545  0.91232  0.88477  Biso   1.000  N
  H190     1.0000 0.23421  0.76575  0.85644  Biso   1.000  H
  H191     1.0000 0.19245  0.80763  0.74140  Biso   1.000  H
  N140     1.0000 0.25545  0.91232  0.88467  Biso   1.000  N
  H192     1.0000 0.23421  0.76575  0.85634  Biso   1.000  H
  H193     1.0000 0.23415  0.76575  0.85644  Biso   1.000  H
  H194     1.0000 0.19241  0.80755  0.74140  Biso   1.000  H
  H195     1.0000 0.23415  0.76575  0.85634  Biso   1.000  H
  N141     1.0000 0.25538  0.91232  0.88477  Biso   1.000  N
  H196     1.0000 0.19238  0.80763  0.74140  Biso   1.000  H
  N142     1.0000 0.25538  0.91232  0.88467  Biso   1.000  N
  H197     1.0000 0.19234  0.80755  0.74140  Biso   1.000  H
  H198     1.0000 0.80753  0.19234  0.74140  Biso   1.000  H
  N143     1.0000 0.91228  0.25539  0.88477  Biso   1.000  N
  H199     1.0000 0.76577  0.23422  0.85644  Biso   1.000  H
  N144     1.0000 0.91228  0.25539  0.88467  Biso   1.000  N
  H200     1.0000 0.76577  0.23422  0.85634  Biso   1.000  H
  H201     1.0000 0.76573  0.23414  0.85644  Biso   1.000  H
  H202     1.0000 0.76573  0.23414  0.85634  Biso   1.000  H
  C181     1.0000 0.93782  0.31685  0.00000  Biso   1.000  C
  C182     1.0000 0.93782  0.31685  0.00010  Biso   1.000  C
  C183     1.0000 0.99993  0.27537  0.18349  Biso   1.000  C
  C184     1.0000 0.99993  0.27537  0.18340  Biso   1.000  C
  C185     1.0000 0.93768  0.31685  0.00000  Biso   1.000  C
  C186     1.0000 0.93768  0.31685  0.00010  Biso   1.000  C
  C187     1.0000 0.00006  0.27537  0.18349  Biso   1.000  C
  C188     1.0000 0.00006  0.27537  0.18340  Biso   1.000  C
  H203     1.0000 0.36631  0.90800  0.00000  Biso   1.000  H
  H204     1.0000 0.36631  0.90800  0.00010  Biso   1.000  H
  H205     1.0000 0.36624  0.90800  0.00000  Biso   1.000  H
  H206     1.0000 0.36624  0.90800  0.00010  Biso   1.000  H
  C189     1.0000 0.37903  0.06216  0.00000  Biso   1.000  C
  C190     1.0000 0.37903  0.06216  0.00010  Biso   1.000  C
  O37      1.0000 0.24032  0.99998  0.28960  Biso   1.000  O
  N145     1.0000 0.34312  0.08765  0.11523  Biso   1.000  N
  N146     1.0000 0.34312  0.08765  0.11533  Biso   1.000  N
  N147     1.0000 0.34298  0.08765  0.11523  Biso   1.000  N
  N148     1.0000 0.34298  0.08765  0.11533  Biso   1.000  N
  O38      1.0000 0.24039  0.99998  0.28960  Biso   1.000  O
  C191     1.0000 0.27541  0.99998  0.81651  Biso   1.000  C
  C192     1.0000 0.27534  0.99998  0.81651  Biso   1.000  C
  C193     1.0000 0.99993  0.27537  0.81651  Biso   1.000  C
  C194     1.0000 0.00006  0.27537  0.81651  Biso   1.000  C
  H207     1.0000 0.90791  0.36624  0.00000  Biso   1.000  H
  H208     1.0000 0.90791  0.36624  0.00010  Biso   1.000  H
  C195     1.0000 0.06224  0.37910  0.00000  Biso   1.000  C
  C196     1.0000 0.06224  0.37910  0.00010  Biso   1.000  C
  C197     1.0000 0.06220  0.37902  0.00000  Biso   1.000  C
  C198     1.0000 0.06220  0.37902  0.00010  Biso   1.000  C
  O39      1.0000 0.99993  0.24037  0.28960  Biso   1.000  O
  N149     1.0000 0.08768  0.34306  0.11523  Biso   1.000  N
  N150     1.0000 0.08768  0.34306  0.11533  Biso   1.000  N
  O40      1.0000 0.00007  0.24037  0.28960  Biso   1.000  O
  N151     1.0000 0.34312  0.08765  0.88477  Biso   1.000  N
  N152     1.0000 0.34312  0.08765  0.88467  Biso   1.000  N
  N153     1.0000 0.34298  0.08765  0.88477  Biso   1.000  N
  N154     1.0000 0.34298  0.08765  0.88467  Biso   1.000  N
  H209     1.0000 0.45823  0.09197  0.00000  Biso   1.000  H
  H210     1.0000 0.45823  0.09197  0.00010  Biso   1.000  H
  C199     1.0000 0.39122  0.19562  0.16477  Biso   1.000  C
  C200     1.0000 0.39122  0.19562  0.16486  Biso   1.000  C
  C201     1.0000 0.39136  0.19562  0.16477  Biso   1.000  C
  C202     1.0000 0.39136  0.19562  0.16486  Biso   1.000  C
  O41      1.0000 0.24032  0.99998  0.71040  Biso   1.000  O
  O42      1.0000 0.24039  0.99998  0.71040  Biso   1.000  O
  O43      1.0000 0.99993  0.24037  0.71040  Biso   1.000  O
  N155     1.0000 0.08768  0.34306  0.88477  Biso   1.000  N
  N156     1.0000 0.08768  0.34306  0.88467  Biso   1.000  N
  O44      1.0000 0.00007  0.24037  0.71040  Biso   1.000  O
  H211     1.0000 0.09194  0.45830  0.00000  Biso   1.000  H
  H212     1.0000 0.09194  0.45830  0.00010  Biso   1.000  H
  H213     1.0000 0.09190  0.45822  0.00000  Biso   1.000  H
  H214     1.0000 0.09190  0.45822  0.00010  Biso   1.000  H
  H215     1.0000 0.09204  0.45822  0.00000  Biso   1.000  H
  H216     1.0000 0.09204  0.45822  0.00010  Biso   1.000  H
  C203     1.0000 0.19559  0.39125  0.16477  Biso   1.000  C
  C204     1.0000 0.19559  0.39125  0.16486  Biso   1.000  C
  C205     1.0000 0.39122  0.19562  0.83523  Biso   1.000  C
  C206     1.0000 0.39122  0.19562  0.83514  Biso   1.000  C
  C207     1.0000 0.39136  0.19562  0.83523  Biso   1.000  C
  C208     1.0000 0.39136  0.19562  0.83514  Biso   1.000  C
  H217     1.0000 0.46838  0.23422  0.14356  Biso   1.000  H
  H218     1.0000 0.46838  0.23422  0.14366  Biso   1.000  H
  H219     1.0000 0.46834  0.23414  0.14356  Biso   1.000  H
  H220     1.0000 0.46834  0.23414  0.14366  Biso   1.000  H
  N157     1.0000 0.34304  0.25539  0.11523  Biso   1.000  N
  H221     1.0000 0.38481  0.19234  0.25860  Biso   1.000  H
  N158     1.0000 0.34304  0.25539  0.11533  Biso   1.000  N
  N159     1.0000 0.34297  0.25539  0.11523  Biso   1.000  N
  N160     1.0000 0.34297  0.25539  0.11533  Biso   1.000  N
  H222     1.0000 0.38467  0.19234  0.25860  Biso   1.000  H
  C209     1.0000 0.19559  0.39125  0.83523  Biso   1.000  C
  C210     1.0000 0.19559  0.39125  0.83514  Biso   1.000  C
  N161     1.0000 0.25545  0.34306  0.11523  Biso   1.000  N
  H223     1.0000 0.23415  0.46837  0.14356  Biso   1.000  H
  H224     1.0000 0.19235  0.38478  0.25860  Biso   1.000  H
  N162     1.0000 0.25545  0.34306  0.11533  Biso   1.000  N
  H225     1.0000 0.23415  0.46837  0.14366  Biso   1.000  H
  H226     1.0000 0.46838  0.23422  0.85644  Biso   1.000  H
  H227     1.0000 0.46838  0.23422  0.85634  Biso   1.000  H
  H228     1.0000 0.46834  0.23414  0.85644  Biso   1.000  H
  H229     1.0000 0.46834  0.23414  0.85634  Biso   1.000  H
  N163     1.0000 0.34304  0.25539  0.88477  Biso   1.000  N
  H230     1.0000 0.38481  0.19234  0.74140  Biso   1.000  H
  N164     1.0000 0.34304  0.25539  0.88467  Biso   1.000  N
  N165     1.0000 0.34297  0.25539  0.88477  Biso   1.000  N
  N166     1.0000 0.34297  0.25539  0.88467  Biso   1.000  N
  H231     1.0000 0.38467  0.19234  0.74140  Biso   1.000  H
  C211     1.0000 0.27531  0.27537  0.18349  Biso   1.000  C
  C212     1.0000 0.37903  0.31685  0.00000  Biso   1.000  C
  C213     1.0000 0.27531  0.27537  0.18340  Biso   1.000  C
  C214     1.0000 0.37903  0.31685  0.00010  Biso   1.000  C
  C215     1.0000 0.27538  0.27537  0.18349  Biso   1.000  C
  C216     1.0000 0.27538  0.27537  0.18340  Biso   1.000  C
  N167     1.0000 0.25545  0.34306  0.88477  Biso   1.000  N
  H232     1.0000 0.23415  0.46837  0.85644  Biso   1.000  H
  H233     1.0000 0.19235  0.38478  0.74140  Biso   1.000  H
  N168     1.0000 0.25545  0.34306  0.88467  Biso   1.000  N
  H234     1.0000 0.23415  0.46837  0.85634  Biso   1.000  H
  C217     1.0000 0.31693  0.37910  0.00000  Biso   1.000  C
  C218     1.0000 0.31693  0.37910  0.00010  Biso   1.000  C
  C219     1.0000 0.31689  0.37902  0.00000  Biso   1.000  C
  C220     1.0000 0.31689  0.37902  0.00010  Biso   1.000  C
  C221     1.0000 0.27531  0.27537  0.81651  Biso   1.000  C
  C222     1.0000 0.27538  0.27537  0.81651  Biso   1.000  C
  O45      1.0000 0.24037  0.24037  0.28960  Biso   1.000  O
  O46      1.0000 0.24030  0.24037  0.28960  Biso   1.000  O
  H235     1.0000 0.45826  0.36624  0.00000  Biso   1.000  H
  H236     1.0000 0.45826  0.36624  0.00010  Biso   1.000  H
  H237     1.0000 0.36636  0.45830  0.00000  Biso   1.000  H
  H238     1.0000 0.36636  0.45830  0.00010  Biso   1.000  H
  H239     1.0000 0.36625  0.45822  0.00000  Biso   1.000  H
  H240     1.0000 0.36625  0.45822  0.00010  Biso   1.000  H
  H241     1.0000 0.36629  0.45830  0.00000  Biso   1.000  H
  H242     1.0000 0.36629  0.45830  0.00010  Biso   1.000  H
  H243     1.0000 0.36632  0.45822  0.00000  Biso   1.000  H
  H244     1.0000 0.36632  0.45822  0.00010  Biso   1.000  H
  O47      1.0000 0.24037  0.24037  0.71040  Biso   1.000  O
  O48      1.0000 0.24030  0.24037  0.71040  Biso   1.000  O
  C223     1.0000 0.72461  0.72459  0.18340  Biso   1.000  C
  N169     1.0000 0.65694  0.74457  0.11533  Biso   1.000  N
  O49      1.0000 0.75962  0.75960  0.28960  Biso   1.000  O
  N170     1.0000 0.65694  0.74457  0.11523  Biso   1.000  N
  O50      1.0000 0.75955  0.75960  0.28960  Biso   1.000  O
  N171     1.0000 0.65687  0.74457  0.11523  Biso   1.000  N
  N172     1.0000 0.74454  0.65691  0.11523  Biso   1.000  N
  N173     1.0000 0.65687  0.74457  0.11533  Biso   1.000  N
  N174     1.0000 0.74454  0.65691  0.11533  Biso   1.000  N
  N175     1.0000 0.74461  0.65691  0.11523  Biso   1.000  N
  N176     1.0000 0.74461  0.65691  0.11533  Biso   1.000  N
  C224     1.0000 0.72461  0.72459  0.18349  Biso   1.000  C
  C225     1.0000 0.60869  0.80435  0.16477  Biso   1.000  C
  C226     1.0000 0.60869  0.80435  0.16486  Biso   1.000  C
  C227     1.0000 0.62089  0.68312  0.00000  Biso   1.000  C
  C228     1.0000 0.62089  0.68312  0.00010  Biso   1.000  C
  C229     1.0000 0.62096  0.68312  0.00000  Biso   1.000  C
  C230     1.0000 0.62096  0.68312  0.00010  Biso   1.000  C
  C231     1.0000 0.68305  0.62086  0.00000  Biso   1.000  C
  C232     1.0000 0.68305  0.62086  0.00010  Biso   1.000  C
  C233     1.0000 0.68312  0.62086  0.00000  Biso   1.000  C
  C234     1.0000 0.68312  0.62086  0.00010  Biso   1.000  C
  C235     1.0000 0.80432  0.60872  0.16477  Biso   1.000  C
  C236     1.0000 0.80432  0.60872  0.16486  Biso   1.000  C
  C237     1.0000 0.80439  0.60872  0.16477  Biso   1.000  C
  C238     1.0000 0.80439  0.60872  0.16486  Biso   1.000  C
  H245     1.0000 0.53161  0.76575  0.14356  Biso   1.000  H
  H246     1.0000 0.53161  0.76575  0.14366  Biso   1.000  H
  N177     1.0000 0.65686  0.91232  0.11523  Biso   1.000  N
  H247     1.0000 0.53154  0.76575  0.14356  Biso   1.000  H
  H248     1.0000 0.61518  0.80763  0.25860  Biso   1.000  H
  N178     1.0000 0.65686  0.91232  0.11533  Biso   1.000  N
  H249     1.0000 0.53154  0.76575  0.14366  Biso   1.000  H
  N179     1.0000 0.65693  0.91232  0.11523  Biso   1.000  N
  H250     1.0000 0.61521  0.80755  0.25860  Biso   1.000  H
  N180     1.0000 0.65693  0.91232  0.11533  Biso   1.000  N
  H251     1.0000 0.61525  0.80763  0.25860  Biso   1.000  H
  H252     1.0000 0.61514  0.80755  0.25860  Biso   1.000  H
  N181     1.0000 0.65687  0.74457  0.88477  Biso   1.000  N
  N182     1.0000 0.65687  0.74457  0.88467  Biso   1.000  N
  N183     1.0000 0.65694  0.74457  0.88477  Biso   1.000  N
  N184     1.0000 0.65694  0.74457  0.88467  Biso   1.000  N
  H253     1.0000 0.54166  0.63373  0.00000  Biso   1.000  H
  H254     1.0000 0.54166  0.63373  0.00010  Biso   1.000  H
  H255     1.0000 0.54169  0.63365  0.00000  Biso   1.000  H
  H256     1.0000 0.54169  0.63365  0.00010  Biso   1.000  H
  H257     1.0000 0.54173  0.63373  0.00000  Biso   1.000  H
  H258     1.0000 0.54173  0.63373  0.00010  Biso   1.000  H
  H259     1.0000 0.63370  0.54167  0.00000  Biso   1.000  H
  H260     1.0000 0.63370  0.54167  0.00010  Biso   1.000  H
  N185     1.0000 0.74454  0.65691  0.88477  Biso   1.000  N
  N186     1.0000 0.74454  0.65691  0.88467  Biso   1.000  N
  N187     1.0000 0.74461  0.65691  0.88477  Biso   1.000  N
  N188     1.0000 0.74461  0.65691  0.88467  Biso   1.000  N
  H261     1.0000 0.63363  0.54167  0.00000  Biso   1.000  H
  H262     1.0000 0.63363  0.54167  0.00010  Biso   1.000  H
  H263     1.0000 0.80763  0.61519  0.25860  Biso   1.000  H
  H264     1.0000 0.80756  0.61519  0.25860  Biso   1.000  H
  N189     1.0000 0.91230  0.65691  0.11523  Biso   1.000  N
  H265     1.0000 0.76576  0.53160  0.14356  Biso   1.000  H
  N190     1.0000 0.91230  0.65691  0.11533  Biso   1.000  N
  H266     1.0000 0.76576  0.53160  0.14366  Biso   1.000  H
  N191     1.0000 0.91237  0.65691  0.11523  Biso   1.000  N
  H267     1.0000 0.76583  0.53160  0.14356  Biso   1.000  H
  N192     1.0000 0.91237  0.65691  0.11533  Biso   1.000  N
  H268     1.0000 0.76583  0.53160  0.14366  Biso   1.000  H
  C239     1.0000 0.62089  0.93781  0.00000  Biso   1.000  C
  C240     1.0000 0.62089  0.93781  0.00010  Biso   1.000  C
  C241     1.0000 0.62096  0.93781  0.00000  Biso   1.000  C
  C242     1.0000 0.62096  0.93781  0.00010  Biso   1.000  C
  C243     1.0000 0.72457  0.99998  0.18349  Biso   1.000  C
  C244     1.0000 0.72457  0.99998  0.18340  Biso   1.000  C
  C245     1.0000 0.72451  0.99998  0.18349  Biso   1.000  C
  C246     1.0000 0.72451  0.99998  0.18340  Biso   1.000  C
  C247     1.0000 0.72461  0.72459  0.81651  Biso   1.000  C
  C248     1.0000 0.60869  0.80435  0.83523  Biso   1.000  C
  C249     1.0000 0.60869  0.80435  0.83514  Biso   1.000  C
  C250     1.0000 0.80432  0.60872  0.83523  Biso   1.000  C
  C251     1.0000 0.80432  0.60872  0.83514  Biso   1.000  C
  C252     1.0000 0.80439  0.60872  0.83523  Biso   1.000  C
  C253     1.0000 0.80439  0.60872  0.83514  Biso   1.000  C
  C254     1.0000 0.99992  0.72459  0.18349  Biso   1.000  C
  C255     1.0000 0.93774  0.62086  0.00000  Biso   1.000  C
  C256     1.0000 0.99992  0.72459  0.18340  Biso   1.000  C
  C257     1.0000 0.93774  0.62086  0.00010  Biso   1.000  C
  C258     1.0000 0.99999  0.72459  0.18349  Biso   1.000  C
  C259     1.0000 0.93781  0.62086  0.00000  Biso   1.000  C
  C260     1.0000 0.99999  0.72459  0.18340  Biso   1.000  C
  C261     1.0000 0.93781  0.62086  0.00010  Biso   1.000  C
  C262     1.0000 0.68306  0.06216  0.00000  Biso   1.000  C
  C263     1.0000 0.68306  0.06216  0.00010  Biso   1.000  C
  H269     1.0000 0.54169  0.90800  0.00000  Biso   1.000  H
  H270     1.0000 0.54169  0.90800  0.00010  Biso   1.000  H
  N193     1.0000 0.65686  0.91232  0.88477  Biso   1.000  N
  N194     1.0000 0.65686  0.91232  0.88467  Biso   1.000  N
  N195     1.0000 0.65693  0.91232  0.88477  Biso   1.000  N
  N196     1.0000 0.65693  0.91232  0.88467  Biso   1.000  N
  H271     1.0000 0.54176  0.90800  0.00000  Biso   1.000  H
  H272     1.0000 0.54176  0.90800  0.00010  Biso   1.000  H
  O51      1.0000 0.75966  0.99998  0.28960  Biso   1.000  O
  N197     1.0000 0.74460  0.08765  0.11523  Biso   1.000  N
  N198     1.0000 0.74460  0.08765  0.11533  Biso   1.000  N
  O52      1.0000 0.75959  0.99998  0.28960  Biso   1.000  O
  N199     1.0000 0.74453  0.08765  0.11523  Biso   1.000  N
  N200     1.0000 0.74453  0.08765  0.11533  Biso   1.000  N
  O53      1.0000 0.75955  0.75960  0.71040  Biso   1.000  O
  O54      1.0000 0.75962  0.75960  0.71040  Biso   1.000  O
  H273     1.0000 0.53154  0.76575  0.85644  Biso   1.000  H
  H274     1.0000 0.61518  0.80763  0.74140  Biso   1.000  H
  H275     1.0000 0.53154  0.76575  0.85634  Biso   1.000  H
  H276     1.0000 0.53161  0.76575  0.85644  Biso   1.000  H
  H277     1.0000 0.61521  0.80755  0.74140  Biso   1.000  H
  H278     1.0000 0.53161  0.76575  0.85634  Biso   1.000  H
  H279     1.0000 0.61525  0.80763  0.74140  Biso   1.000  H
  H280     1.0000 0.61514  0.80755  0.74140  Biso   1.000  H
  N201     1.0000 0.91230  0.65691  0.88477  Biso   1.000  N
  H281     1.0000 0.76576  0.53160  0.85644  Biso   1.000  H
  H282     1.0000 0.80756  0.61519  0.74140  Biso   1.000  H
  N202     1.0000 0.91230  0.65691  0.88467  Biso   1.000  N
  H283     1.0000 0.76576  0.53160  0.85634  Biso   1.000  H
  N203     1.0000 0.91237  0.65691  0.88477  Biso   1.000  N
  H284     1.0000 0.76583  0.53160  0.85644  Biso   1.000  H
  H285     1.0000 0.80763  0.61519  0.74140  Biso   1.000  H
  N204     1.0000 0.91237  0.65691  0.88467  Biso   1.000  N
  H286     1.0000 0.76583  0.53160  0.85634  Biso   1.000  H
  O55      1.0000 0.99998  0.75960  0.28960  Biso   1.000  O
  O56      1.0000 0.00005  0.75960  0.28960  Biso   1.000  O
  N205     1.0000 0.08770  0.74457  0.11523  Biso   1.000  N
  N206     1.0000 0.08770  0.74457  0.11533  Biso   1.000  N
  N207     1.0000 0.08763  0.74457  0.11523  Biso   1.000  N
  N208     1.0000 0.08763  0.74457  0.11533  Biso   1.000  N
  H287     1.0000 0.90797  0.54167  0.00000  Biso   1.000  H
  H288     1.0000 0.90797  0.54167  0.00010  Biso   1.000  H
  C264     1.0000 0.06223  0.68312  0.00000  Biso   1.000  C
  C265     1.0000 0.06223  0.68312  0.00010  Biso   1.000  C
  C266     1.0000 0.06216  0.68312  0.00000  Biso   1.000  C
  C267     1.0000 0.06216  0.68312  0.00010  Biso   1.000  C
  N209     1.0000 0.74460  0.08765  0.88477  Biso   1.000  N
  N210     1.0000 0.74460  0.08765  0.88467  Biso   1.000  N
  N211     1.0000 0.74453  0.08765  0.88477  Biso   1.000  N
  N212     1.0000 0.74453  0.08765  0.88467  Biso   1.000  N
  H289     1.0000 0.63374  0.09197  0.00000  Biso   1.000  H
  H290     1.0000 0.63374  0.09197  0.00010  Biso   1.000  H
  H291     1.0000 0.63360  0.09197  0.00000  Biso   1.000  H
  H292     1.0000 0.63360  0.09197  0.00010  Biso   1.000  H
  C268     1.0000 0.72457  0.99998  0.81651  Biso   1.000  C
  C269     1.0000 0.72451  0.99998  0.81651  Biso   1.000  C
  C270     1.0000 0.80440  0.19562  0.16477  Biso   1.000  C
  C271     1.0000 0.80440  0.19562  0.16486  Biso   1.000  C
  C272     1.0000 0.80426  0.19562  0.16477  Biso   1.000  C
  C273     1.0000 0.80426  0.19562  0.16486  Biso   1.000  C
  C274     1.0000 0.99992  0.72459  0.81651  Biso   1.000  C
  C275     1.0000 0.99999  0.72459  0.81651  Biso   1.000  C
  C276     1.0000 0.19566  0.80435  0.16477  Biso   1.000  C
  C277     1.0000 0.19566  0.80435  0.16486  Biso   1.000  C
  N213     1.0000 0.08770  0.74457  0.88477  Biso   1.000  N
  N214     1.0000 0.08770  0.74457  0.88467  Biso   1.000  N
  N215     1.0000 0.08763  0.74457  0.88477  Biso   1.000  N
  N216     1.0000 0.08763  0.74457  0.88467  Biso   1.000  N
  H293     1.0000 0.09207  0.63373  0.00000  Biso   1.000  H
  H294     1.0000 0.09207  0.63373  0.00010  Biso   1.000  H
  H295     1.0000 0.09197  0.63365  0.00000  Biso   1.000  H
  H296     1.0000 0.09197  0.63365  0.00010  Biso   1.000  H
  H297     1.0000 0.09201  0.63373  0.00000  Biso   1.000  H
  H298     1.0000 0.09201  0.63373  0.00010  Biso   1.000  H
  C278     1.0000 0.80440  0.19562  0.83523  Biso   1.000  C
  C279     1.0000 0.80440  0.19562  0.83514  Biso   1.000  C
  C280     1.0000 0.80426  0.19562  0.83523  Biso   1.000  C
  C281     1.0000 0.80426  0.19562  0.83514  Biso   1.000  C
  O57      1.0000 0.75966  0.99998  0.71040  Biso   1.000  O
  O58      1.0000 0.75959  0.99998  0.71040  Biso   1.000  O
  H299     1.0000 0.80753  0.19234  0.25860  Biso   1.000  H
  N217     1.0000 0.91228  0.25539  0.11523  Biso   1.000  N
  H300     1.0000 0.76577  0.23422  0.14356  Biso   1.000  H
  N218     1.0000 0.91228  0.25539  0.11533  Biso   1.000  N
  H301     1.0000 0.76577  0.23422  0.14366  Biso   1.000  H
  H302     1.0000 0.76573  0.23414  0.14356  Biso   1.000  H
  H303     1.0000 0.76573  0.23414  0.14366  Biso   1.000  H
  O59      1.0000 0.99998  0.75960  0.71040  Biso   1.000  O
  O60      1.0000 0.00005  0.75960  0.71040  Biso   1.000  O
  N219     1.0000 0.25545  0.91232  0.11523  Biso   1.000  N
  H304     1.0000 0.23421  0.76575  0.14356  Biso   1.000  H
  H305     1.0000 0.19245  0.80763  0.25860  Biso   1.000  H
  N220     1.0000 0.25545  0.91232  0.11533  Biso   1.000  N
  H306     1.0000 0.23421  0.76575  0.14366  Biso   1.000  H
  H307     1.0000 0.23415  0.76575  0.14356  Biso   1.000  H
  H308     1.0000 0.19241  0.80755  0.25860  Biso   1.000  H
  H309     1.0000 0.23415  0.76575  0.14366  Biso   1.000  H
  N221     1.0000 0.25538  0.91232  0.11523  Biso   1.000  N
  H310     1.0000 0.19238  0.80763  0.25860  Biso   1.000  H
  N222     1.0000 0.25538  0.91232  0.11533  Biso   1.000  N
  H311     1.0000 0.19234  0.80755  0.25860  Biso   1.000  H
  C282     1.0000 0.19566  0.80435  0.83523  Biso   1.000  C
  C283     1.0000 0.19566  0.80435  0.83514  Biso   1.000  C
  H312     1.0000 0.80753  0.19234  0.74140  Biso   1.000  H
  N223     1.0000 0.91228  0.25539  0.88477  Biso   1.000  N
  H313     1.0000 0.76577  0.23422  0.85644  Biso   1.000  H
  N224     1.0000 0.91228  0.25539  0.88467  Biso   1.000  N
  H314     1.0000 0.76577  0.23422  0.85634  Biso   1.000  H
  H315     1.0000 0.76573  0.23414  0.85644  Biso   1.000  H
  H316     1.0000 0.76573  0.23414  0.85634  Biso   1.000  H
  C284     1.0000 0.93782  0.31685  0.00000  Biso   1.000  C
  C285     1.0000 0.93782  0.31685  0.00010  Biso   1.000  C
  C286     1.0000 0.99993  0.27537  0.18349  Biso   1.000  C
  C287     1.0000 0.99993  0.27537  0.18340  Biso   1.000  C
  C288     1.0000 0.93768  0.31685  0.00000  Biso   1.000  C
  C289     1.0000 0.93768  0.31685  0.00010  Biso   1.000  C
  C290     1.0000 0.00006  0.27537  0.18349  Biso   1.000  C
  C291     1.0000 0.00006  0.27537  0.18340  Biso   1.000  C
  C292     1.0000 0.31692  0.93781  0.00000  Biso   1.000  C
  C293     1.0000 0.31692  0.93781  0.00010  Biso   1.000  C
  C294     1.0000 0.31685  0.93781  0.00000  Biso   1.000  C
  C295     1.0000 0.31685  0.93781  0.00010  Biso   1.000  C
  C296     1.0000 0.27541  0.99998  0.18349  Biso   1.000  C
  C297     1.0000 0.27541  0.99998  0.18340  Biso   1.000  C
  C298     1.0000 0.27534  0.99998  0.18349  Biso   1.000  C
  C299     1.0000 0.27534  0.99998  0.18340  Biso   1.000  C
  N225     1.0000 0.25545  0.91232  0.88477  Biso   1.000  N
  H317     1.0000 0.23421  0.76575  0.85644  Biso   1.000  H
  H318     1.0000 0.19245  0.80763  0.74140  Biso   1.000  H
  N226     1.0000 0.25545  0.91232  0.88467  Biso   1.000  N
  H319     1.0000 0.23421  0.76575  0.85634  Biso   1.000  H
  H320     1.0000 0.23415  0.76575  0.85644  Biso   1.000  H
  H321     1.0000 0.19241  0.80755  0.74140  Biso   1.000  H
  H322     1.0000 0.23415  0.76575  0.85634  Biso   1.000  H
  N227     1.0000 0.25538  0.91232  0.88477  Biso   1.000  N
  H323     1.0000 0.19238  0.80763  0.74140  Biso   1.000  H
  N228     1.0000 0.25538  0.91232  0.88467  Biso   1.000  N
  H324     1.0000 0.19234  0.80755  0.74140  Biso   1.000  H
  C300     1.0000 0.99993  0.27537  0.81651  Biso   1.000  C
  C301     1.0000 0.00006  0.27537  0.81651  Biso   1.000  C
  H325     1.0000 0.90791  0.36624  0.00000  Biso   1.000  H
  H326     1.0000 0.90791  0.36624  0.00010  Biso   1.000  H
  C302     1.0000 0.06224  0.37910  0.00000  Biso   1.000  C
  C303     1.0000 0.06224  0.37910  0.00010  Biso   1.000  C
  C304     1.0000 0.06220  0.37902  0.00000  Biso   1.000  C
  C305     1.0000 0.06220  0.37902  0.00010  Biso   1.000  C
  O61      1.0000 0.99993  0.24037  0.28960  Biso   1.000  O
  N229     1.0000 0.08768  0.34306  0.11523  Biso   1.000  N
  N230     1.0000 0.08768  0.34306  0.11533  Biso   1.000  N
  O62      1.0000 0.00007  0.24037  0.28960  Biso   1.000  O
  H327     1.0000 0.36631  0.90800  0.00000  Biso   1.000  H
  H328     1.0000 0.36631  0.90800  0.00010  Biso   1.000  H
  H329     1.0000 0.36624  0.90800  0.00000  Biso   1.000  H
  H330     1.0000 0.36624  0.90800  0.00010  Biso   1.000  H
  C306     1.0000 0.37903  0.06216  0.00000  Biso   1.000  C
  C307     1.0000 0.37903  0.06216  0.00010  Biso   1.000  C
  O63      1.0000 0.24032  0.99998  0.28960  Biso   1.000  O
  N231     1.0000 0.34312  0.08765  0.11523  Biso   1.000  N
  N232     1.0000 0.34312  0.08765  0.11533  Biso   1.000  N
  N233     1.0000 0.34298  0.08765  0.11523  Biso   1.000  N
  N234     1.0000 0.34298  0.08765  0.11533  Biso   1.000  N
  O64      1.0000 0.24039  0.99998  0.28960  Biso   1.000  O
  C308     1.0000 0.27541  0.99998  0.81651  Biso   1.000  C
  C309     1.0000 0.27534  0.99998  0.81651  Biso   1.000  C
  O65      1.0000 0.99993  0.24037  0.71040  Biso   1.000  O
  N235     1.0000 0.08768  0.34306  0.88477  Biso   1.000  N
  N236     1.0000 0.08768  0.34306  0.88467  Biso   1.000  N
  O66      1.0000 0.00007  0.24037  0.71040  Biso   1.000  O
  H331     1.0000 0.09194  0.45830  0.00000  Biso   1.000  H
  H332     1.0000 0.09194  0.45830  0.00010  Biso   1.000  H
  H333     1.0000 0.09190  0.45822  0.00000  Biso   1.000  H
  H334     1.0000 0.09190  0.45822  0.00010  Biso   1.000  H
  H335     1.0000 0.09204  0.45822  0.00000  Biso   1.000  H
  H336     1.0000 0.09204  0.45822  0.00010  Biso   1.000  H
  C310     1.0000 0.19559  0.39125  0.16477  Biso   1.000  C
  C311     1.0000 0.19559  0.39125  0.16486  Biso   1.000  C
  N237     1.0000 0.34312  0.08765  0.88477  Biso   1.000  N
  N238     1.0000 0.34312  0.08765  0.88467  Biso   1.000  N
  N239     1.0000 0.34298  0.08765  0.88477  Biso   1.000  N
  N240     1.0000 0.34298  0.08765  0.88467  Biso   1.000  N
  H337     1.0000 0.45823  0.09197  0.00000  Biso   1.000  H
  H338     1.0000 0.45823  0.09197  0.00010  Biso   1.000  H
  C312     1.0000 0.39122  0.19562  0.16477  Biso   1.000  C
  C313     1.0000 0.39122  0.19562  0.16486  Biso   1.000  C
  C314     1.0000 0.39136  0.19562  0.16477  Biso   1.000  C
  C315     1.0000 0.39136  0.19562  0.16486  Biso   1.000  C
  O67      1.0000 0.24032  0.99998  0.71040  Biso   1.000  O
  O68      1.0000 0.24039  0.99998  0.71040  Biso   1.000  O
  C316     1.0000 0.19559  0.39125  0.83523  Biso   1.000  C
  C317     1.0000 0.19559  0.39125  0.83514  Biso   1.000  C
  N241     1.0000 0.25545  0.34306  0.11523  Biso   1.000  N
  H339     1.0000 0.23415  0.46837  0.14356  Biso   1.000  H
  H340     1.0000 0.19235  0.38478  0.25860  Biso   1.000  H
  N242     1.0000 0.25545  0.34306  0.11533  Biso   1.000  N
  H341     1.0000 0.23415  0.46837  0.14366  Biso   1.000  H
  C318     1.0000 0.39122  0.19562  0.83523  Biso   1.000  C
  C319     1.0000 0.39122  0.19562  0.83514  Biso   1.000  C
  C320     1.0000 0.39136  0.19562  0.83523  Biso   1.000  C
  C321     1.0000 0.39136  0.19562  0.83514  Biso   1.000  C
  H342     1.0000 0.46838  0.23422  0.14356  Biso   1.000  H
  H343     1.0000 0.46838  0.23422  0.14366  Biso   1.000  H
  H344     1.0000 0.46834  0.23414  0.14356  Biso   1.000  H
  H345     1.0000 0.46834  0.23414  0.14366  Biso   1.000  H
  N243     1.0000 0.34304  0.25539  0.11523  Biso   1.000  N
  H346     1.0000 0.38481  0.19234  0.25860  Biso   1.000  H
  N244     1.0000 0.34304  0.25539  0.11533  Biso   1.000  N
  N245     1.0000 0.34297  0.25539  0.11523  Biso   1.000  N
  N246     1.0000 0.34297  0.25539  0.11533  Biso   1.000  N
  H347     1.0000 0.38467  0.19234  0.25860  Biso   1.000  H
  N247     1.0000 0.25545  0.34306  0.88477  Biso   1.000  N
  H348     1.0000 0.23415  0.46837  0.85644  Biso   1.000  H
  H349     1.0000 0.19235  0.38478  0.74140  Biso   1.000  H
  N248     1.0000 0.25545  0.34306  0.88467  Biso   1.000  N
  H350     1.0000 0.23415  0.46837  0.85634  Biso   1.000  H
  C322     1.0000 0.27531  0.27537  0.18349  Biso   1.000  C
  C323     1.0000 0.31693  0.37910  0.00000  Biso   1.000  C
  C324     1.0000 0.27531  0.27537  0.18340  Biso   1.000  C
  C325     1.0000 0.31693  0.37910  0.00010  Biso   1.000  C
  C326     1.0000 0.31689  0.37902  0.00000  Biso   1.000  C
  C327     1.0000 0.31689  0.37902  0.00010  Biso   1.000  C
  C328     1.0000 0.27538  0.27537  0.18349  Biso   1.000  C
  C329     1.0000 0.27538  0.27537  0.18340  Biso   1.000  C
  H351     1.0000 0.46838  0.23422  0.85644  Biso   1.000  H
  H352     1.0000 0.46838  0.23422  0.85634  Biso   1.000  H
  H353     1.0000 0.46834  0.23414  0.85644  Biso   1.000  H
  H354     1.0000 0.46834  0.23414  0.85634  Biso   1.000  H
  N249     1.0000 0.34304  0.25539  0.88477  Biso   1.000  N
  H355     1.0000 0.38481  0.19234  0.74140  Biso   1.000  H
  N250     1.0000 0.34304  0.25539  0.88467  Biso   1.000  N
  N251     1.0000 0.34297  0.25539  0.88477  Biso   1.000  N
  N252     1.0000 0.34297  0.25539  0.88467  Biso   1.000  N
  H356     1.0000 0.38467  0.19234  0.74140  Biso   1.000  H
  C330     1.0000 0.37903  0.31685  0.00000  Biso   1.000  C
  C331     1.0000 0.37903  0.31685  0.00010  Biso   1.000  C
  C332     1.0000 0.27531  0.27537  0.81651  Biso   1.000  C
  C333     1.0000 0.27538  0.27537  0.81651  Biso   1.000  C
  O69      1.0000 0.24037  0.24037  0.28960  Biso   1.000  O
  O70      1.0000 0.24030  0.24037  0.28960  Biso   1.000  O
  H357     1.0000 0.36636  0.45830  0.00000  Biso   1.000  H
  H358     1.0000 0.36636  0.45830  0.00010  Biso   1.000  H
  H359     1.0000 0.36625  0.45822  0.00000  Biso   1.000  H
  H360     1.0000 0.36625  0.45822  0.00010  Biso   1.000  H
  H361     1.0000 0.36629  0.45830  0.00000  Biso   1.000  H
  H362     1.0000 0.36629  0.45830  0.00010  Biso   1.000  H
  H363     1.0000 0.36632  0.45822  0.00000  Biso   1.000  H
  H364     1.0000 0.36632  0.45822  0.00010  Biso   1.000  H
  H365     1.0000 0.45826  0.36624  0.00000  Biso   1.000  H
  H366     1.0000 0.45826  0.36624  0.00010  Biso   1.000  H
  O71      1.0000 0.24037  0.24037  0.71040  Biso   1.000  O
  O72      1.0000 0.24030  0.24037  0.71040  Biso   1.000  O
  C334     1.0000 0.72461  0.72459  0.18340  Biso   1.000  C
  O73      1.0000 0.75962  0.75960  0.28960  Biso   1.000  O
  O74      1.0000 0.75955  0.75960  0.28960  Biso   1.000  O
  N253     1.0000 0.65687  0.74457  0.11523  Biso   1.000  N
  N254     1.0000 0.74454  0.65691  0.11523  Biso   1.000  N
  N255     1.0000 0.65687  0.74457  0.11533  Biso   1.000  N
  N256     1.0000 0.74454  0.65691  0.11533  Biso   1.000  N
  N257     1.0000 0.65694  0.74457  0.11523  Biso   1.000  N
  N258     1.0000 0.74461  0.65691  0.11523  Biso   1.000  N
  N259     1.0000 0.65694  0.74457  0.11533  Biso   1.000  N
  N260     1.0000 0.74461  0.65691  0.11533  Biso   1.000  N
  C335     1.0000 0.72461  0.72459  0.18349  Biso   1.000  C
  C336     1.0000 0.60869  0.80435  0.16477  Biso   1.000  C
  C337     1.0000 0.60869  0.80435  0.16486  Biso   1.000  C
  C338     1.0000 0.62089  0.68312  0.00000  Biso   1.000  C
  C339     1.0000 0.62089  0.68312  0.00010  Biso   1.000  C
  C340     1.0000 0.62096  0.68312  0.00000  Biso   1.000  C
  C341     1.0000 0.62096  0.68312  0.00010  Biso   1.000  C
  C342     1.0000 0.80432  0.60872  0.16477  Biso   1.000  C
  C343     1.0000 0.68305  0.62086  0.00000  Biso   1.000  C
  C344     1.0000 0.80432  0.60872  0.16486  Biso   1.000  C
  C345     1.0000 0.68305  0.62086  0.00010  Biso   1.000  C
  C346     1.0000 0.80439  0.60872  0.16477  Biso   1.000  C
  C347     1.0000 0.68312  0.62086  0.00000  Biso   1.000  C
  C348     1.0000 0.80439  0.60872  0.16486  Biso   1.000  C
  C349     1.0000 0.68312  0.62086  0.00010  Biso   1.000  C
  N261     1.0000 0.65686  0.91232  0.11523  Biso   1.000  N
  H367     1.0000 0.53154  0.76575  0.14356  Biso   1.000  H
  H368     1.0000 0.61518  0.80763  0.25860  Biso   1.000  H
  N262     1.0000 0.65686  0.91232  0.11533  Biso   1.000  N
  H369     1.0000 0.53154  0.76575  0.14366  Biso   1.000  H
  N263     1.0000 0.65693  0.91232  0.11523  Biso   1.000  N
  H370     1.0000 0.53161  0.76575  0.14356  Biso   1.000  H
  H371     1.0000 0.61521  0.80755  0.25860  Biso   1.000  H
  N264     1.0000 0.65693  0.91232  0.11533  Biso   1.000  N
  H372     1.0000 0.53161  0.76575  0.14366  Biso   1.000  H
  H373     1.0000 0.61525  0.80763  0.25860  Biso   1.000  H
  H374     1.0000 0.61514  0.80755  0.25860  Biso   1.000  H
  N265     1.0000 0.65687  0.74457  0.88477  Biso   1.000  N
  N266     1.0000 0.65687  0.74457  0.88467  Biso   1.000  N
  N267     1.0000 0.65694  0.74457  0.88477  Biso   1.000  N
  N268     1.0000 0.65694  0.74457  0.88467  Biso   1.000  N
  H375     1.0000 0.54166  0.63373  0.00000  Biso   1.000  H
  H376     1.0000 0.54166  0.63373  0.00010  Biso   1.000  H
  H377     1.0000 0.54169  0.63365  0.00000  Biso   1.000  H
  H378     1.0000 0.54169  0.63365  0.00010  Biso   1.000  H
  H379     1.0000 0.54173  0.63373  0.00000  Biso   1.000  H
  H380     1.0000 0.54173  0.63373  0.00010  Biso   1.000  H
  H381     1.0000 0.80763  0.61519  0.25860  Biso   1.000  H
  H382     1.0000 0.80756  0.61519  0.25860  Biso   1.000  H
  N269     1.0000 0.91230  0.65691  0.11523  Biso   1.000  N
  H383     1.0000 0.76576  0.53160  0.14356  Biso   1.000  H
  N270     1.0000 0.91230  0.65691  0.11533  Biso   1.000  N
  H384     1.0000 0.76576  0.53160  0.14366  Biso   1.000  H
  N271     1.0000 0.91237  0.65691  0.11523  Biso   1.000  N
  H385     1.0000 0.76583  0.53160  0.14356  Biso   1.000  H
  N272     1.0000 0.91237  0.65691  0.11533  Biso   1.000  N
  H386     1.0000 0.76583  0.53160  0.14366  Biso   1.000  H
  N273     1.0000 0.74454  0.65691  0.88477  Biso   1.000  N
  N274     1.0000 0.74454  0.65691  0.88467  Biso   1.000  N
  N275     1.0000 0.74461  0.65691  0.88477  Biso   1.000  N
  N276     1.0000 0.74461  0.65691  0.88467  Biso   1.000  N
  H387     1.0000 0.63363  0.54167  0.00000  Biso   1.000  H
  H388     1.0000 0.63363  0.54167  0.00010  Biso   1.000  H
  H389     1.0000 0.63370  0.54167  0.00000  Biso   1.000  H
  H390     1.0000 0.63370  0.54167  0.00010  Biso   1.000  H
  C350     1.0000 0.62089  0.93781  0.00000  Biso   1.000  C
  C351     1.0000 0.62089  0.93781  0.00010  Biso   1.000  C
  C352     1.0000 0.62096  0.93781  0.00000  Biso   1.000  C
  C353     1.0000 0.62096  0.93781  0.00010  Biso   1.000  C
  C354     1.0000 0.72457  0.99998  0.18349  Biso   1.000  C
  C355     1.0000 0.72457  0.99998  0.18340  Biso   1.000  C
  C356     1.0000 0.72451  0.99998  0.18349  Biso   1.000  C
  C357     1.0000 0.72451  0.99998  0.18340  Biso   1.000  C
  C358     1.0000 0.72461  0.72459  0.81651  Biso   1.000  C
  C359     1.0000 0.60869  0.80435  0.83523  Biso   1.000  C
  C360     1.0000 0.60869  0.80435  0.83514  Biso   1.000  C
  C361     1.0000 0.99992  0.72459  0.18349  Biso   1.000  C
  C362     1.0000 0.93774  0.62086  0.00000  Biso   1.000  C
  C363     1.0000 0.99992  0.72459  0.18340  Biso   1.000  C
  C364     1.0000 0.93774  0.62086  0.00010  Biso   1.000  C
  C365     1.0000 0.99999  0.72459  0.18349  Biso   1.000  C
  C366     1.0000 0.93781  0.62086  0.00000  Biso   1.000  C
  C367     1.0000 0.99999  0.72459  0.18340  Biso   1.000  C
  C368     1.0000 0.93781  0.62086  0.00010  Biso   1.000  C
  C369     1.0000 0.80432  0.60872  0.83523  Biso   1.000  C
  C370     1.0000 0.80432  0.60872  0.83514  Biso   1.000  C
  C371     1.0000 0.80439  0.60872  0.83523  Biso   1.000  C
  C372     1.0000 0.80439  0.60872  0.83514  Biso   1.000  C
  C373     1.0000 0.68306  0.06216  0.00000  Biso   1.000  C
  C374     1.0000 0.68306  0.06216  0.00010  Biso   1.000  C
  N277     1.0000 0.65686  0.91232  0.88477  Biso   1.000  N
  N278     1.0000 0.65686  0.91232  0.88467  Biso   1.000  N
  N279     1.0000 0.65693  0.91232  0.88477  Biso   1.000  N
  N280     1.0000 0.65693  0.91232  0.88467  Biso   1.000  N
  H391     1.0000 0.54169  0.90800  0.00000  Biso   1.000  H
  H392     1.0000 0.54169  0.90800  0.00010  Biso   1.000  H
  H393     1.0000 0.54176  0.90800  0.00000  Biso   1.000  H
  H394     1.0000 0.54176  0.90800  0.00010  Biso   1.000  H
  O75      1.0000 0.75966  0.99998  0.28960  Biso   1.000  O
  N281     1.0000 0.74460  0.08765  0.11523  Biso   1.000  N
  N282     1.0000 0.74460  0.08765  0.11533  Biso   1.000  N
  O76      1.0000 0.75959  0.99998  0.28960  Biso   1.000  O
  N283     1.0000 0.74453  0.08765  0.11523  Biso   1.000  N
  N284     1.0000 0.74453  0.08765  0.11533  Biso   1.000  N
  O77      1.0000 0.75955  0.75960  0.71040  Biso   1.000  O
  O78      1.0000 0.75962  0.75960  0.71040  Biso   1.000  O
  H395     1.0000 0.53154  0.76575  0.85644  Biso   1.000  H
  H396     1.0000 0.61518  0.80763  0.74140  Biso   1.000  H
  H397     1.0000 0.53154  0.76575  0.85634  Biso   1.000  H
  H398     1.0000 0.53161  0.76575  0.85644  Biso   1.000  H
  H399     1.0000 0.61521  0.80755  0.74140  Biso   1.000  H
  H400     1.0000 0.53161  0.76575  0.85634  Biso   1.000  H
  H401     1.0000 0.61525  0.80763  0.74140  Biso   1.000  H
  H402     1.0000 0.61514  0.80755  0.74140  Biso   1.000  H
  O79      1.0000 0.99998  0.75960  0.28960  Biso   1.000  O
  O80      1.0000 0.00005  0.75960  0.28960  Biso   1.000  O
  N285     1.0000 0.08770  0.74457  0.11523  Biso   1.000  N
  N286     1.0000 0.08770  0.74457  0.11533  Biso   1.000  N
  N287     1.0000 0.08763  0.74457  0.11523  Biso   1.000  N
  N288     1.0000 0.08763  0.74457  0.11533  Biso   1.000  N
  H403     1.0000 0.90797  0.54167  0.00000  Biso   1.000  H
  H404     1.0000 0.90797  0.54167  0.00010  Biso   1.000  H
  N289     1.0000 0.91230  0.65691  0.88477  Biso   1.000  N
  N290     1.0000 0.91230  0.65691  0.88467  Biso   1.000  N
  N291     1.0000 0.91237  0.65691  0.88477  Biso   1.000  N
  N292     1.0000 0.91237  0.65691  0.88467  Biso   1.000  N
  C375     1.0000 0.06223  0.68312  0.00000  Biso   1.000  C
  C376     1.0000 0.06223  0.68312  0.00010  Biso   1.000  C
  C377     1.0000 0.06216  0.68312  0.00000  Biso   1.000  C
  C378     1.0000 0.06216  0.68312  0.00010  Biso   1.000  C
  H405     1.0000 0.76576  0.53160  0.85644  Biso   1.000  H
  H406     1.0000 0.80756  0.61519  0.74140  Biso   1.000  H
  H407     1.0000 0.76576  0.53160  0.85634  Biso   1.000  H
  H408     1.0000 0.76583  0.53160  0.85644  Biso   1.000  H
  H409     1.0000 0.80763  0.61519  0.74140  Biso   1.000  H
  H410     1.0000 0.76583  0.53160  0.85634  Biso   1.000  H
  N293     1.0000 0.74460  0.08765  0.88477  Biso   1.000  N
  N294     1.0000 0.74460  0.08765  0.88467  Biso   1.000  N
  N295     1.0000 0.74453  0.08765  0.88477  Biso   1.000  N
  N296     1.0000 0.74453  0.08765  0.88467  Biso   1.000  N
  H411     1.0000 0.63374  0.09197  0.00000  Biso   1.000  H
  H412     1.0000 0.63374  0.09197  0.00010  Biso   1.000  H
  H413     1.0000 0.63360  0.09197  0.00000  Biso   1.000  H
  H414     1.0000 0.63360  0.09197  0.00010  Biso   1.000  H
  C379     1.0000 0.72457  0.99998  0.81651  Biso   1.000  C
  C380     1.0000 0.72451  0.99998  0.81651  Biso   1.000  C
  C381     1.0000 0.80440  0.19562  0.16477  Biso   1.000  C
  C382     1.0000 0.80440  0.19562  0.16486  Biso   1.000  C
  C383     1.0000 0.80426  0.19562  0.16477  Biso   1.000  C
  C384     1.0000 0.80426  0.19562  0.16486  Biso   1.000  C
  C385     1.0000 0.19566  0.80435  0.16477  Biso   1.000  C
  C386     1.0000 0.19566  0.80435  0.16486  Biso   1.000  C
  C387     1.0000 0.99992  0.72459  0.81651  Biso   1.000  C
  C388     1.0000 0.99999  0.72459  0.81651  Biso   1.000  C
  N297     1.0000 0.08770  0.74457  0.88477  Biso   1.000  N
  N298     1.0000 0.08770  0.74457  0.88467  Biso   1.000  N
  N299     1.0000 0.08763  0.74457  0.88477  Biso   1.000  N
  N300     1.0000 0.08763  0.74457  0.88467  Biso   1.000  N
  H415     1.0000 0.09207  0.63373  0.00000  Biso   1.000  H
  H416     1.0000 0.09207  0.63373  0.00010  Biso   1.000  H
  H417     1.0000 0.09197  0.63365  0.00000  Biso   1.000  H
  H418     1.0000 0.09197  0.63365  0.00010  Biso   1.000  H
  H419     1.0000 0.09201  0.63373  0.00000  Biso   1.000  H
  H420     1.0000 0.09201  0.63373  0.00010  Biso   1.000  H
  C389     1.0000 0.80440  0.19562  0.83523  Biso   1.000  C
  C390     1.0000 0.80440  0.19562  0.83514  Biso   1.000  C
  C391     1.0000 0.80426  0.19562  0.83523  Biso   1.000  C
  C392     1.0000 0.80426  0.19562  0.83514  Biso   1.000  C
  O81      1.0000 0.75966  0.99998  0.71040  Biso   1.000  O
  O82      1.0000 0.75959  0.99998  0.71040  Biso   1.000  O
  H421     1.0000 0.80753  0.19234  0.25860  Biso   1.000  H
  N301     1.0000 0.91228  0.25539  0.11523  Biso   1.000  N
  H422     1.0000 0.76577  0.23422  0.14356  Biso   1.000  H
  N302     1.0000 0.91228  0.25539  0.11533  Biso   1.000  N
  H423     1.0000 0.76577  0.23422  0.14366  Biso   1.000  H
  H424     1.0000 0.76573  0.23414  0.14356  Biso   1.000  H
  H425     1.0000 0.76573  0.23414  0.14366  Biso   1.000  H
  N303     1.0000 0.25545  0.91232  0.11523  Biso   1.000  N
  H426     1.0000 0.23421  0.76575  0.14356  Biso   1.000  H
  H427     1.0000 0.19245  0.80763  0.25860  Biso   1.000  H
  N304     1.0000 0.25545  0.91232  0.11533  Biso   1.000  N
  H428     1.0000 0.23421  0.76575  0.14366  Biso   1.000  H
  H429     1.0000 0.23415  0.76575  0.14356  Biso   1.000  H
  H430     1.0000 0.19241  0.80755  0.25860  Biso   1.000  H
  H431     1.0000 0.23415  0.76575  0.14366  Biso   1.000  H
  N305     1.0000 0.25538  0.91232  0.11523  Biso   1.000  N
  H432     1.0000 0.19238  0.80763  0.25860  Biso   1.000  H
  N306     1.0000 0.25538  0.91232  0.11533  Biso   1.000  N
  H433     1.0000 0.19234  0.80755  0.25860  Biso   1.000  H
  O83      1.0000 0.99998  0.75960  0.71040  Biso   1.000  O
  O84      1.0000 0.00005  0.75960  0.71040  Biso   1.000  O
  C393     1.0000 0.19566  0.80435  0.83523  Biso   1.000  C
  C394     1.0000 0.19566  0.80435  0.83514  Biso   1.000  C
  H434     1.0000 0.80753  0.19234  0.74140  Biso   1.000  H
  N307     1.0000 0.91228  0.25539  0.88477  Biso   1.000  N
  H435     1.0000 0.76577  0.23422  0.85644  Biso   1.000  H
  N308     1.0000 0.91228  0.25539  0.88467  Biso   1.000  N
  H436     1.0000 0.76577  0.23422  0.85634  Biso   1.000  H
  H437     1.0000 0.76573  0.23414  0.85644  Biso   1.000  H
  H438     1.0000 0.76573  0.23414  0.85634  Biso   1.000  H
  C395     1.0000 0.93782  0.31685  0.00000  Biso   1.000  C
  C396     1.0000 0.93782  0.31685  0.00010  Biso   1.000  C
  C397     1.0000 0.99993  0.27537  0.18349  Biso   1.000  C
  C398     1.0000 0.99993  0.27537  0.18340  Biso   1.000  C
  C399     1.0000 0.93768  0.31685  0.00000  Biso   1.000  C
  C400     1.0000 0.93768  0.31685  0.00010  Biso   1.000  C
  C401     1.0000 0.00006  0.27537  0.18349  Biso   1.000  C
  C402     1.0000 0.00006  0.27537  0.18340  Biso   1.000  C
  C403     1.0000 0.31692  0.93781  0.00000  Biso   1.000  C
  C404     1.0000 0.31692  0.93781  0.00010  Biso   1.000  C
  C405     1.0000 0.31685  0.93781  0.00000  Biso   1.000  C
  C406     1.0000 0.31685  0.93781  0.00010  Biso   1.000  C
  C407     1.0000 0.27541  0.99998  0.18349  Biso   1.000  C
  C408     1.0000 0.27541  0.99998  0.18340  Biso   1.000  C
  C409     1.0000 0.27534  0.99998  0.18349  Biso   1.000  C
  C410     1.0000 0.27534  0.99998  0.18340  Biso   1.000  C
  N309     1.0000 0.25545  0.91232  0.88477  Biso   1.000  N
  H439     1.0000 0.23421  0.76575  0.85644  Biso   1.000  H
  H440     1.0000 0.19245  0.80763  0.74140  Biso   1.000  H
  N310     1.0000 0.25545  0.91232  0.88467  Biso   1.000  N
  H441     1.0000 0.23421  0.76575  0.85634  Biso   1.000  H
  H442     1.0000 0.23415  0.76575  0.85644  Biso   1.000  H
  H443     1.0000 0.19241  0.80755  0.74140  Biso   1.000  H
  H444     1.0000 0.23415  0.76575  0.85634  Biso   1.000  H
  N311     1.0000 0.25538  0.91232  0.88477  Biso   1.000  N
  H445     1.0000 0.19238  0.80763  0.74140  Biso   1.000  H
  N312     1.0000 0.25538  0.91232  0.88467  Biso   1.000  N
  H446     1.0000 0.19234  0.80755  0.74140  Biso   1.000  H
  C411     1.0000 0.99993  0.27537  0.81651  Biso   1.000  C
  C412     1.0000 0.00006  0.27537  0.81651  Biso   1.000  C
  H447     1.0000 0.90791  0.36624  0.00000  Biso   1.000  H
  H448     1.0000 0.90791  0.36624  0.00010  Biso   1.000  H
  C413     1.0000 0.06224  0.37910  0.00000  Biso   1.000  C
  C414     1.0000 0.06224  0.37910  0.00010  Biso   1.000  C
  C415     1.0000 0.06220  0.37902  0.00000  Biso   1.000  C
  C416     1.0000 0.06220  0.37902  0.00010  Biso   1.000  C
  O85      1.0000 0.99993  0.24037  0.28960  Biso   1.000  O
  N313     1.0000 0.08768  0.34306  0.11523  Biso   1.000  N
  N314     1.0000 0.08768  0.34306  0.11533  Biso   1.000  N
  O86      1.0000 0.00007  0.24037  0.28960  Biso   1.000  O
  H449     1.0000 0.36631  0.90800  0.00000  Biso   1.000  H
  H450     1.0000 0.36631  0.90800  0.00010  Biso   1.000  H
  H451     1.0000 0.36624  0.90800  0.00000  Biso   1.000  H
  H452     1.0000 0.36624  0.90800  0.00010  Biso   1.000  H
  C417     1.0000 0.37903  0.06216  0.00000  Biso   1.000  C
  C418     1.0000 0.37903  0.06216  0.00010  Biso   1.000  C
  O87      1.0000 0.24032  0.99998  0.28960  Biso   1.000  O
  N315     1.0000 0.34312  0.08765  0.11523  Biso   1.000  N
  N316     1.0000 0.34312  0.08765  0.11533  Biso   1.000  N
  N317     1.0000 0.34298  0.08765  0.11523  Biso   1.000  N
  N318     1.0000 0.34298  0.08765  0.11533  Biso   1.000  N
  O88      1.0000 0.24039  0.99998  0.28960  Biso   1.000  O
  C419     1.0000 0.27541  0.99998  0.81651  Biso   1.000  C
  C420     1.0000 0.27534  0.99998  0.81651  Biso   1.000  C
  O89      1.0000 0.99993  0.24037  0.71040  Biso   1.000  O
  N319     1.0000 0.08768  0.34306  0.88477  Biso   1.000  N
  N320     1.0000 0.08768  0.34306  0.88467  Biso   1.000  N
  O90      1.0000 0.00007  0.24037  0.71040  Biso   1.000  O
  H453     1.0000 0.09194  0.45830  0.00000  Biso   1.000  H
  H454     1.0000 0.09194  0.45830  0.00010  Biso   1.000  H
  H455     1.0000 0.09190  0.45822  0.00000  Biso   1.000  H
  H456     1.0000 0.09190  0.45822  0.00010  Biso   1.000  H
  H457     1.0000 0.09204  0.45822  0.00000  Biso   1.000  H
  H458     1.0000 0.09204  0.45822  0.00010  Biso   1.000  H
  C421     1.0000 0.19559  0.39125  0.16477  Biso   1.000  C
  C422     1.0000 0.19559  0.39125  0.16486  Biso   1.000  C
  N321     1.0000 0.34312  0.08765  0.88477  Biso   1.000  N
  N322     1.0000 0.34312  0.08765  0.88467  Biso   1.000  N
  N323     1.0000 0.34298  0.08765  0.88477  Biso   1.000  N
  N324     1.0000 0.34298  0.08765  0.88467  Biso   1.000  N
  H459     1.0000 0.45823  0.09197  0.00000  Biso   1.000  H
  H460     1.0000 0.45823  0.09197  0.00010  Biso   1.000  H
  C423     1.0000 0.39122  0.19562  0.16477  Biso   1.000  C
  C424     1.0000 0.39122  0.19562  0.16486  Biso   1.000  C
  C425     1.0000 0.39136  0.19562  0.16477  Biso   1.000  C
  C426     1.0000 0.39136  0.19562  0.16486  Biso   1.000  C
  O91      1.0000 0.24032  0.99998  0.71040  Biso   1.000  O
  O92      1.0000 0.24039  0.99998  0.71040  Biso   1.000  O
  C427     1.0000 0.19559  0.39125  0.83523  Biso   1.000  C
  C428     1.0000 0.19559  0.39125  0.83514  Biso   1.000  C
  N325     1.0000 0.25545  0.34306  0.11523  Biso   1.000  N
  H461     1.0000 0.23415  0.46837  0.14356  Biso   1.000  H
  H462     1.0000 0.19235  0.38478  0.25860  Biso   1.000  H
  N326     1.0000 0.25545  0.34306  0.11533  Biso   1.000  N
  H463     1.0000 0.23415  0.46837  0.14366  Biso   1.000  H
  C429     1.0000 0.39122  0.19562  0.83523  Biso   1.000  C
  C430     1.0000 0.39122  0.19562  0.83514  Biso   1.000  C
  C431     1.0000 0.39136  0.19562  0.83523  Biso   1.000  C
  C432     1.0000 0.39136  0.19562  0.83514  Biso   1.000  C
  H464     1.0000 0.46838  0.23422  0.14356  Biso   1.000  H
  H465     1.0000 0.46838  0.23422  0.14366  Biso   1.000  H
  H466     1.0000 0.46834  0.23414  0.14356  Biso   1.000  H
  H467     1.0000 0.46834  0.23414  0.14366  Biso   1.000  H
  N327     1.0000 0.34304  0.25539  0.11523  Biso   1.000  N
  H468     1.0000 0.38481  0.19234  0.25860  Biso   1.000  H
  N328     1.0000 0.34304  0.25539  0.11533  Biso   1.000  N
  N329     1.0000 0.34297  0.25539  0.11523  Biso   1.000  N
  N330     1.0000 0.34297  0.25539  0.11533  Biso   1.000  N
  H469     1.0000 0.38467  0.19234  0.25860  Biso   1.000  H
  N331     1.0000 0.25545  0.34306  0.88477  Biso   1.000  N
  H470     1.0000 0.23415  0.46837  0.85644  Biso   1.000  H
  H471     1.0000 0.19235  0.38478  0.74140  Biso   1.000  H
  N332     1.0000 0.25545  0.34306  0.88467  Biso   1.000  N
  H472     1.0000 0.23415  0.46837  0.85634  Biso   1.000  H
  C433     1.0000 0.27531  0.27537  0.18349  Biso   1.000  C
  C434     1.0000 0.31693  0.37910  0.00000  Biso   1.000  C
  C435     1.0000 0.27531  0.27537  0.18340  Biso   1.000  C
  C436     1.0000 0.31693  0.37910  0.00010  Biso   1.000  C
  C437     1.0000 0.31689  0.37902  0.00000  Biso   1.000  C
  C438     1.0000 0.31689  0.37902  0.00010  Biso   1.000  C
  C439     1.0000 0.27538  0.27537  0.18349  Biso   1.000  C
  C440     1.0000 0.27538  0.27537  0.18340  Biso   1.000  C
  H473     1.0000 0.46838  0.23422  0.85644  Biso   1.000  H
  H474     1.0000 0.46838  0.23422  0.85634  Biso   1.000  H
  H475     1.0000 0.46834  0.23414  0.85644  Biso   1.000  H
  H476     1.0000 0.46834  0.23414  0.85634  Biso   1.000  H
  N333     1.0000 0.34304  0.25539  0.88477  Biso   1.000  N
  H477     1.0000 0.38481  0.19234  0.74140  Biso   1.000  H
  N334     1.0000 0.34304  0.25539  0.88467  Biso   1.000  N
  N335     1.0000 0.34297  0.25539  0.88477  Biso   1.000  N
  N336     1.0000 0.34297  0.25539  0.88467  Biso   1.000  N
  H478     1.0000 0.38467  0.19234  0.74140  Biso   1.000  H
  C441     1.0000 0.37903  0.31685  0.00000  Biso   1.000  C
  C442     1.0000 0.37903  0.31685  0.00010  Biso   1.000  C
  C443     1.0000 0.27531  0.27537  0.81651  Biso   1.000  C
  C444     1.0000 0.27538  0.27537  0.81651  Biso   1.000  C
  O93      1.0000 0.24037  0.24037  0.28960  Biso   1.000  O
  O94      1.0000 0.24030  0.24037  0.28960  Biso   1.000  O
  H479     1.0000 0.36636  0.45830  0.00000  Biso   1.000  H
  H480     1.0000 0.36636  0.45830  0.00010  Biso   1.000  H
  H481     1.0000 0.36625  0.45822  0.00000  Biso   1.000  H
  H482     1.0000 0.36625  0.45822  0.00010  Biso   1.000  H
  H483     1.0000 0.36629  0.45830  0.00000  Biso   1.000  H
  H484     1.0000 0.36629  0.45830  0.00010  Biso   1.000  H
  H485     1.0000 0.36632  0.45822  0.00000  Biso   1.000  H
  H486     1.0000 0.36632  0.45822  0.00010  Biso   1.000  H
  H487     1.0000 0.45826  0.36624  0.00000  Biso   1.000  H
  H488     1.0000 0.45826  0.36624  0.00010  Biso   1.000  H
  O95      1.0000 0.24037  0.24037  0.71040  Biso   1.000  O
  O96      1.0000 0.24030  0.24037  0.71040  Biso   1.000  O
  C445     1.0000 0.72461  0.72459  0.18340  Biso   1.000  C
  O97      1.0000 0.75962  0.75960  0.28960  Biso   1.000  O
  O98      1.0000 0.75955  0.75960  0.28960  Biso   1.000  O
  N337     1.0000 0.65687  0.74457  0.11523  Biso   1.000  N
  N338     1.0000 0.74454  0.65691  0.11523  Biso   1.000  N
  N339     1.0000 0.65687  0.74457  0.11533  Biso   1.000  N
  N340     1.0000 0.74454  0.65691  0.11533  Biso   1.000  N
  N341     1.0000 0.65694  0.74457  0.11523  Biso   1.000  N
  N342     1.0000 0.74461  0.65691  0.11523  Biso   1.000  N
  N343     1.0000 0.65694  0.74457  0.11533  Biso   1.000  N
  N344     1.0000 0.74461  0.65691  0.11533  Biso   1.000  N
  C446     1.0000 0.72461  0.72459  0.18349  Biso   1.000  C
  C447     1.0000 0.60869  0.80435  0.16477  Biso   1.000  C
  C448     1.0000 0.62089  0.68312  0.00000  Biso   1.000  C
  C449     1.0000 0.60869  0.80435  0.16486  Biso   1.000  C
  C450     1.0000 0.62089  0.68312  0.00010  Biso   1.000  C
  C451     1.0000 0.62096  0.68312  0.00000  Biso   1.000  C
  C452     1.0000 0.62096  0.68312  0.00010  Biso   1.000  C
  C453     1.0000 0.80432  0.60872  0.16477  Biso   1.000  C
  C454     1.0000 0.68305  0.62086  0.00000  Biso   1.000  C
  C455     1.0000 0.80432  0.60872  0.16486  Biso   1.000  C
  C456     1.0000 0.68305  0.62086  0.00010  Biso   1.000  C
  C457     1.0000 0.80439  0.60872  0.16477  Biso   1.000  C
  C458     1.0000 0.68312  0.62086  0.00000  Biso   1.000  C
  C459     1.0000 0.80439  0.60872  0.16486  Biso   1.000  C
  C460     1.0000 0.68312  0.62086  0.00010  Biso   1.000  C
  N345     1.0000 0.65686  0.91232  0.11523  Biso   1.000  N
  H489     1.0000 0.53154  0.76575  0.14356  Biso   1.000  H
  H490     1.0000 0.61518  0.80763  0.25860  Biso   1.000  H
  N346     1.0000 0.65686  0.91232  0.11533  Biso   1.000  N
  H491     1.0000 0.53154  0.76575  0.14366  Biso   1.000  H
  N347     1.0000 0.65693  0.91232  0.11523  Biso   1.000  N
  H492     1.0000 0.53161  0.76575  0.14356  Biso   1.000  H
  H493     1.0000 0.61521  0.80755  0.25860  Biso   1.000  H
  N348     1.0000 0.65693  0.91232  0.11533  Biso   1.000  N
  H494     1.0000 0.53161  0.76575  0.14366  Biso   1.000  H
  H495     1.0000 0.61525  0.80763  0.25860  Biso   1.000  H
  H496     1.0000 0.61514  0.80755  0.25860  Biso   1.000  H
  N349     1.0000 0.65687  0.74457  0.88477  Biso   1.000  N
  N350     1.0000 0.65687  0.74457  0.88467  Biso   1.000  N
  N351     1.0000 0.65694  0.74457  0.88477  Biso   1.000  N
  N352     1.0000 0.65694  0.74457  0.88467  Biso   1.000  N
  H497     1.0000 0.54166  0.63373  0.00000  Biso   1.000  H
  H498     1.0000 0.54166  0.63373  0.00010  Biso   1.000  H
  H499     1.0000 0.54169  0.63365  0.00000  Biso   1.000  H
  H500     1.0000 0.54169  0.63365  0.00010  Biso   1.000  H
  H501     1.0000 0.54173  0.63373  0.00000  Biso   1.000  H
  H502     1.0000 0.54173  0.63373  0.00010  Biso   1.000  H
  N353     1.0000 0.91230  0.65691  0.11523  Biso   1.000  N
  H503     1.0000 0.76576  0.53160  0.14356  Biso   1.000  H
  H504     1.0000 0.80756  0.61519  0.25860  Biso   1.000  H
  N354     1.0000 0.91230  0.65691  0.11533  Biso   1.000  N
  H505     1.0000 0.76576  0.53160  0.14366  Biso   1.000  H
  N355     1.0000 0.91237  0.65691  0.11523  Biso   1.000  N
  H506     1.0000 0.76583  0.53160  0.14356  Biso   1.000  H
  H507     1.0000 0.80763  0.61519  0.25860  Biso   1.000  H
  N356     1.0000 0.91237  0.65691  0.11533  Biso   1.000  N
  H508     1.0000 0.76583  0.53160  0.14366  Biso   1.000  H
  N357     1.0000 0.74454  0.65691  0.88477  Biso   1.000  N
  N358     1.0000 0.74454  0.65691  0.88467  Biso   1.000  N
  N359     1.0000 0.74461  0.65691  0.88477  Biso   1.000  N
  N360     1.0000 0.74461  0.65691  0.88467  Biso   1.000  N
  H509     1.0000 0.63363  0.54167  0.00000  Biso   1.000  H
  H510     1.0000 0.63363  0.54167  0.00010  Biso   1.000  H
  H511     1.0000 0.63370  0.54167  0.00000  Biso   1.000  H
  H512     1.0000 0.63370  0.54167  0.00010  Biso   1.000  H
  C461     1.0000 0.62089  0.93781  0.00000  Biso   1.000  C
  C462     1.0000 0.62089  0.93781  0.00010  Biso   1.000  C
  C463     1.0000 0.62096  0.93781  0.00000  Biso   1.000  C
  C464     1.0000 0.62096  0.93781  0.00010  Biso   1.000  C
  C465     1.0000 0.72457  0.99998  0.18349  Biso   1.000  C
  C466     1.0000 0.72457  0.99998  0.18340  Biso   1.000  C
  C467     1.0000 0.72451  0.99998  0.18349  Biso   1.000  C
  C468     1.0000 0.72451  0.99998  0.18340  Biso   1.000  C
  C469     1.0000 0.72461  0.72459  0.81651  Biso   1.000  C
  C470     1.0000 0.60869  0.80435  0.83523  Biso   1.000  C
  C471     1.0000 0.60869  0.80435  0.83514  Biso   1.000  C
  C472     1.0000 0.99992  0.72459  0.18349  Biso   1.000  C
  C473     1.0000 0.93774  0.62086  0.00000  Biso   1.000  C
  C474     1.0000 0.99992  0.72459  0.18340  Biso   1.000  C
  C475     1.0000 0.93774  0.62086  0.00010  Biso   1.000  C
  C476     1.0000 0.99999  0.72459  0.18349  Biso   1.000  C
  C477     1.0000 0.93781  0.62086  0.00000  Biso   1.000  C
  C478     1.0000 0.99999  0.72459  0.18340  Biso   1.000  C
  C479     1.0000 0.93781  0.62086  0.00010  Biso   1.000  C
  C480     1.0000 0.80432  0.60872  0.83523  Biso   1.000  C
  C481     1.0000 0.80432  0.60872  0.83514  Biso   1.000  C
  C482     1.0000 0.80439  0.60872  0.83523  Biso   1.000  C
  C483     1.0000 0.80439  0.60872  0.83514  Biso   1.000  C
  C484     1.0000 0.68306  0.06216  0.00000  Biso   1.000  C
  C485     1.0000 0.68306  0.06216  0.00010  Biso   1.000  C
  N361     1.0000 0.65686  0.91232  0.88477  Biso   1.000  N
  N362     1.0000 0.65686  0.91232  0.88467  Biso   1.000  N
  N363     1.0000 0.65693  0.91232  0.88477  Biso   1.000  N
  N364     1.0000 0.65693  0.91232  0.88467  Biso   1.000  N
  H513     1.0000 0.54169  0.90800  0.00000  Biso   1.000  H
  H514     1.0000 0.54169  0.90800  0.00010  Biso   1.000  H
  H515     1.0000 0.54176  0.90800  0.00000  Biso   1.000  H
  H516     1.0000 0.54176  0.90800  0.00010  Biso   1.000  H
  O99      1.0000 0.75966  0.99998  0.28960  Biso   1.000  O
  N365     1.0000 0.74460  0.08765  0.11523  Biso   1.000  N
  N366     1.0000 0.74460  0.08765  0.11533  Biso   1.000  N
  O100     1.0000 0.75959  0.99998  0.28960  Biso   1.000  O
  N367     1.0000 0.74453  0.08765  0.11523  Biso   1.000  N
  N368     1.0000 0.74453  0.08765  0.11533  Biso   1.000  N
  O101     1.0000 0.75955  0.75960  0.71040  Biso   1.000  O
  O102     1.0000 0.75962  0.75960  0.71040  Biso   1.000  O
  H517     1.0000 0.53154  0.76575  0.85644  Biso   1.000  H
  H518     1.0000 0.61518  0.80763  0.74140  Biso   1.000  H
  H519     1.0000 0.53154  0.76575  0.85634  Biso   1.000  H
  H520     1.0000 0.53161  0.76575  0.85644  Biso   1.000  H
  H521     1.0000 0.61521  0.80755  0.74140  Biso   1.000  H
  H522     1.0000 0.53161  0.76575  0.85634  Biso   1.000  H
  H523     1.0000 0.61525  0.80763  0.74140  Biso   1.000  H
  H524     1.0000 0.61514  0.80755  0.74140  Biso   1.000  H
  O103     1.0000 0.99998  0.75960  0.28960  Biso   1.000  O
  O104     1.0000 0.00005  0.75960  0.28960  Biso   1.000  O
  N369     1.0000 0.08770  0.74457  0.11523  Biso   1.000  N
  N370     1.0000 0.08770  0.74457  0.11533  Biso   1.000  N
  N371     1.0000 0.08763  0.74457  0.11523  Biso   1.000  N
  N372     1.0000 0.08763  0.74457  0.11533  Biso   1.000  N
  N373     1.0000 0.91230  0.65691  0.88477  Biso   1.000  N
  N374     1.0000 0.91230  0.65691  0.88467  Biso   1.000  N
  N375     1.0000 0.91237  0.65691  0.88477  Biso   1.000  N
  N376     1.0000 0.91237  0.65691  0.88467  Biso   1.000  N
  H525     1.0000 0.90797  0.54167  0.00000  Biso   1.000  H
  H526     1.0000 0.90797  0.54167  0.00010  Biso   1.000  H
  C486     1.0000 0.06223  0.68312  0.00000  Biso   1.000  C
  C487     1.0000 0.06223  0.68312  0.00010  Biso   1.000  C
  C488     1.0000 0.06216  0.68312  0.00000  Biso   1.000  C
  C489     1.0000 0.06216  0.68312  0.00010  Biso   1.000  C
  H527     1.0000 0.76576  0.53160  0.85644  Biso   1.000  H
  H528     1.0000 0.80756  0.61519  0.74140  Biso   1.000  H
  H529     1.0000 0.76576  0.53160  0.85634  Biso   1.000  H
  H530     1.0000 0.76583  0.53160  0.85644  Biso   1.000  H
  H531     1.0000 0.80763  0.61519  0.74140  Biso   1.000  H
  H532     1.0000 0.76583  0.53160  0.85634  Biso   1.000  H
  N377     1.0000 0.74460  0.08765  0.88477  Biso   1.000  N
  N378     1.0000 0.74460  0.08765  0.88467  Biso   1.000  N
  N379     1.0000 0.74453  0.08765  0.88477  Biso   1.000  N
  N380     1.0000 0.74453  0.08765  0.88467  Biso   1.000  N
  H533     1.0000 0.63374  0.09197  0.00000  Biso   1.000  H
  H534     1.0000 0.63374  0.09197  0.00010  Biso   1.000  H
  H535     1.0000 0.63360  0.09197  0.00000  Biso   1.000  H
  H536     1.0000 0.63360  0.09197  0.00010  Biso   1.000  H
  C490     1.0000 0.72457  0.99998  0.81651  Biso   1.000  C
  C491     1.0000 0.72451  0.99998  0.81651  Biso   1.000  C
  C492     1.0000 0.80440  0.19562  0.16477  Biso   1.000  C
  C493     1.0000 0.80440  0.19562  0.16486  Biso   1.000  C
  C494     1.0000 0.80426  0.19562  0.16477  Biso   1.000  C
  C495     1.0000 0.80426  0.19562  0.16486  Biso   1.000  C
  C496     1.0000 0.19566  0.80435  0.16477  Biso   1.000  C
  C497     1.0000 0.19566  0.80435  0.16486  Biso   1.000  C
  C498     1.0000 0.99992  0.72459  0.81651  Biso   1.000  C
  C499     1.0000 0.99999  0.72459  0.81651  Biso   1.000  C
  N381     1.0000 0.08770  0.74457  0.88477  Biso   1.000  N
  N382     1.0000 0.08770  0.74457  0.88467  Biso   1.000  N
  N383     1.0000 0.08763  0.74457  0.88477  Biso   1.000  N
  N384     1.0000 0.08763  0.74457  0.88467  Biso   1.000  N
  H537     1.0000 0.09207  0.63373  0.00000  Biso   1.000  H
  H538     1.0000 0.09207  0.63373  0.00010  Biso   1.000  H
  H539     1.0000 0.09197  0.63365  0.00000  Biso   1.000  H
  H540     1.0000 0.09197  0.63365  0.00010  Biso   1.000  H
  H541     1.0000 0.09201  0.63373  0.00000  Biso   1.000  H
  H542     1.0000 0.09201  0.63373  0.00010  Biso   1.000  H
  C500     1.0000 0.80440  0.19562  0.83523  Biso   1.000  C
  C501     1.0000 0.80440  0.19562  0.83514  Biso   1.000  C
  C502     1.0000 0.80426  0.19562  0.83523  Biso   1.000  C
  C503     1.0000 0.80426  0.19562  0.83514  Biso   1.000  C
  O105     1.0000 0.75966  0.99998  0.71040  Biso   1.000  O
  O106     1.0000 0.75959  0.99998  0.71040  Biso   1.000  O
  H543     1.0000 0.80753  0.19234  0.25860  Biso   1.000  H
  N385     1.0000 0.91228  0.25539  0.11523  Biso   1.000  N
  H544     1.0000 0.76577  0.23422  0.14356  Biso   1.000  H
  N386     1.0000 0.91228  0.25539  0.11533  Biso   1.000  N
  H545     1.0000 0.76577  0.23422  0.14366  Biso   1.000  H
  H546     1.0000 0.76573  0.23414  0.14356  Biso   1.000  H
  H547     1.0000 0.76573  0.23414  0.14366  Biso   1.000  H
  N387     1.0000 0.25545  0.91232  0.11523  Biso   1.000  N
  H548     1.0000 0.23421  0.76575  0.14356  Biso   1.000  H
  H549     1.0000 0.19245  0.80763  0.25860  Biso   1.000  H
  N388     1.0000 0.25545  0.91232  0.11533  Biso   1.000  N
  H550     1.0000 0.23421  0.76575  0.14366  Biso   1.000  H
  H551     1.0000 0.23415  0.76575  0.14356  Biso   1.000  H
  H552     1.0000 0.19241  0.80755  0.25860  Biso   1.000  H
  H553     1.0000 0.23415  0.76575  0.14366  Biso   1.000  H
  N389     1.0000 0.25538  0.91232  0.11523  Biso   1.000  N
  H554     1.0000 0.19238  0.80763  0.25860  Biso   1.000  H
  N390     1.0000 0.25538  0.91232  0.11533  Biso   1.000  N
  H555     1.0000 0.19234  0.80755  0.25860  Biso   1.000  H
  O107     1.0000 0.99998  0.75960  0.71040  Biso   1.000  O
  O108     1.0000 0.00005  0.75960  0.71040  Biso   1.000  O
  C504     1.0000 0.19566  0.80435  0.83523  Biso   1.000  C
  C505     1.0000 0.19566  0.80435  0.83514  Biso   1.000  C
  H556     1.0000 0.80753  0.19234  0.74140  Biso   1.000  H
  N391     1.0000 0.91228  0.25539  0.88477  Biso   1.000  N
  H557     1.0000 0.76577  0.23422  0.85644  Biso   1.000  H
  N392     1.0000 0.91228  0.25539  0.88467  Biso   1.000  N
  H558     1.0000 0.76577  0.23422  0.85634  Biso   1.000  H
  H559     1.0000 0.76573  0.23414  0.85644  Biso   1.000  H
  H560     1.0000 0.76573  0.23414  0.85634  Biso   1.000  H
  C506     1.0000 0.93782  0.31685  0.00000  Biso   1.000  C
  C507     1.0000 0.93782  0.31685  0.00010  Biso   1.000  C
  C508     1.0000 0.99993  0.27537  0.18349  Biso   1.000  C
  C509     1.0000 0.99993  0.27537  0.18340  Biso   1.000  C
  C510     1.0000 0.93768  0.31685  0.00000  Biso   1.000  C
  C511     1.0000 0.93768  0.31685  0.00010  Biso   1.000  C
  C512     1.0000 0.00006  0.27537  0.18349  Biso   1.000  C
  C513     1.0000 0.00006  0.27537  0.18340  Biso   1.000  C
  C514     1.0000 0.31692  0.93781  0.00000  Biso   1.000  C
  C515     1.0000 0.31692  0.93781  0.00010  Biso   1.000  C
  C516     1.0000 0.31685  0.93781  0.00000  Biso   1.000  C
  C517     1.0000 0.31685  0.93781  0.00010  Biso   1.000  C
  C518     1.0000 0.27541  0.99998  0.18349  Biso   1.000  C
  C519     1.0000 0.27541  0.99998  0.18340  Biso   1.000  C
  C520     1.0000 0.27534  0.99998  0.18349  Biso   1.000  C
  C521     1.0000 0.27534  0.99998  0.18340  Biso   1.000  C
  N393     1.0000 0.25545  0.91232  0.88477  Biso   1.000  N
  H561     1.0000 0.23421  0.76575  0.85644  Biso   1.000  H
  H562     1.0000 0.19245  0.80763  0.74140  Biso   1.000  H
  N394     1.0000 0.25545  0.91232  0.88467  Biso   1.000  N
  H563     1.0000 0.23421  0.76575  0.85634  Biso   1.000  H
  H564     1.0000 0.23415  0.76575  0.85644  Biso   1.000  H
  H565     1.0000 0.19241  0.80755  0.74140  Biso   1.000  H
  H566     1.0000 0.23415  0.76575  0.85634  Biso   1.000  H
  N395     1.0000 0.25538  0.91232  0.88477  Biso   1.000  N
  H567     1.0000 0.19238  0.80763  0.74140  Biso   1.000  H
  N396     1.0000 0.25538  0.91232  0.88467  Biso   1.000  N
  H568     1.0000 0.19234  0.80755  0.74140  Biso   1.000  H
  C522     1.0000 0.99993  0.27537  0.81651  Biso   1.000  C
  C523     1.0000 0.00006  0.27537  0.81651  Biso   1.000  C
  H569     1.0000 0.90791  0.36624  0.00000  Biso   1.000  H
  H570     1.0000 0.90791  0.36624  0.00010  Biso   1.000  H
  C524     1.0000 0.06224  0.37910  0.00000  Biso   1.000  C
  C525     1.0000 0.06224  0.37910  0.00010  Biso   1.000  C
  C526     1.0000 0.06220  0.37902  0.00000  Biso   1.000  C
  C527     1.0000 0.06220  0.37902  0.00010  Biso   1.000  C
  O109     1.0000 0.99993  0.24037  0.28960  Biso   1.000  O
  N397     1.0000 0.08768  0.34306  0.11523  Biso   1.000  N
  N398     1.0000 0.08768  0.34306  0.11533  Biso   1.000  N
  O110     1.0000 0.00007  0.24037  0.28960  Biso   1.000  O
  H571     1.0000 0.36631  0.90800  0.00000  Biso   1.000  H
  H572     1.0000 0.36631  0.90800  0.00010  Biso   1.000  H
  H573     1.0000 0.36624  0.90800  0.00000  Biso   1.000  H
  H574     1.0000 0.36624  0.90800  0.00010  Biso   1.000  H
  C528     1.0000 0.37903  0.06216  0.00000  Biso   1.000  C
  C529     1.0000 0.37903  0.06216  0.00010  Biso   1.000  C
  O111     1.0000 0.24032  0.99998  0.28960  Biso   1.000  O
  N399     1.0000 0.34312  0.08765  0.11523  Biso   1.000  N
  N400     1.0000 0.34312  0.08765  0.11533  Biso   1.000  N
  N401     1.0000 0.34298  0.08765  0.11523  Biso   1.000  N
  N402     1.0000 0.34298  0.08765  0.11533  Biso   1.000  N
  O112     1.0000 0.24039  0.99998  0.28960  Biso   1.000  O
  C530     1.0000 0.27541  0.99998  0.81651  Biso   1.000  C
  C531     1.0000 0.27534  0.99998  0.81651  Biso   1.000  C
  O113     1.0000 0.99993  0.24037  0.71040  Biso   1.000  O
  N403     1.0000 0.08768  0.34306  0.88477  Biso   1.000  N
  N404     1.0000 0.08768  0.34306  0.88467  Biso   1.000  N
  O114     1.0000 0.00007  0.24037  0.71040  Biso   1.000  O
  H575     1.0000 0.09194  0.45830  0.00000  Biso   1.000  H
  H576     1.0000 0.09194  0.45830  0.00010  Biso   1.000  H
  H577     1.0000 0.09190  0.45822  0.00000  Biso   1.000  H
  H578     1.0000 0.09190  0.45822  0.00010  Biso   1.000  H
  H579     1.0000 0.09204  0.45822  0.00000  Biso   1.000  H
  H580     1.0000 0.09204  0.45822  0.00010  Biso   1.000  H
  C532     1.0000 0.19559  0.39125  0.16477  Biso   1.000  C
  C533     1.0000 0.19559  0.39125  0.16486  Biso   1.000  C
  N405     1.0000 0.34312  0.08765  0.88477  Biso   1.000  N
  N406     1.0000 0.34312  0.08765  0.88467  Biso   1.000  N
  N407     1.0000 0.34298  0.08765  0.88477  Biso   1.000  N
  N408     1.0000 0.34298  0.08765  0.88467  Biso   1.000  N
  H581     1.0000 0.45823  0.09197  0.00000  Biso   1.000  H
  H582     1.0000 0.45823  0.09197  0.00010  Biso   1.000  H
  C534     1.0000 0.39122  0.19562  0.16477  Biso   1.000  C
  C535     1.0000 0.39122  0.19562  0.16486  Biso   1.000  C
  C536     1.0000 0.39136  0.19562  0.16477  Biso   1.000  C
  C537     1.0000 0.39136  0.19562  0.16486  Biso   1.000  C
  O115     1.0000 0.24032  0.99998  0.71040  Biso   1.000  O
  O116     1.0000 0.24039  0.99998  0.71040  Biso   1.000  O
  C538     1.0000 0.19559  0.39125  0.83523  Biso   1.000  C
  C539     1.0000 0.19559  0.39125  0.83514  Biso   1.000  C
  N409     1.0000 0.25545  0.34306  0.11523  Biso   1.000  N
  H583     1.0000 0.23415  0.46837  0.14356  Biso   1.000  H
  H584     1.0000 0.19235  0.38478  0.25860  Biso   1.000  H
  N410     1.0000 0.25545  0.34306  0.11533  Biso   1.000  N
  H585     1.0000 0.23415  0.46837  0.14366  Biso   1.000  H
  C540     1.0000 0.39122  0.19562  0.83523  Biso   1.000  C
  C541     1.0000 0.39122  0.19562  0.83514  Biso   1.000  C
  C542     1.0000 0.39136  0.19562  0.83523  Biso   1.000  C
  C543     1.0000 0.39136  0.19562  0.83514  Biso   1.000  C
  H586     1.0000 0.46838  0.23422  0.14356  Biso   1.000  H
  H587     1.0000 0.46838  0.23422  0.14366  Biso   1.000  H
  H588     1.0000 0.46834  0.23414  0.14356  Biso   1.000  H
  H589     1.0000 0.46834  0.23414  0.14366  Biso   1.000  H
  N411     1.0000 0.34304  0.25539  0.11523  Biso   1.000  N
  H590     1.0000 0.38481  0.19234  0.25860  Biso   1.000  H
  N412     1.0000 0.34304  0.25539  0.11533  Biso   1.000  N
  N413     1.0000 0.34297  0.25539  0.11523  Biso   1.000  N
  N414     1.0000 0.34297  0.25539  0.11533  Biso   1.000  N
  H591     1.0000 0.38467  0.19234  0.25860  Biso   1.000  H
  N415     1.0000 0.25545  0.34306  0.88477  Biso   1.000  N
  H592     1.0000 0.23415  0.46837  0.85644  Biso   1.000  H
  H593     1.0000 0.19235  0.38478  0.74140  Biso   1.000  H
  N416     1.0000 0.25545  0.34306  0.88467  Biso   1.000  N
  H594     1.0000 0.23415  0.46837  0.85634  Biso   1.000  H
  C544     1.0000 0.27531  0.27537  0.18349  Biso   1.000  C
  C545     1.0000 0.31693  0.37910  0.00000  Biso   1.000  C
  C546     1.0000 0.27531  0.27537  0.18340  Biso   1.000  C
  C547     1.0000 0.31693  0.37910  0.00010  Biso   1.000  C
  C548     1.0000 0.31689  0.37902  0.00000  Biso   1.000  C
  C549     1.0000 0.31689  0.37902  0.00010  Biso   1.000  C
  C550     1.0000 0.27538  0.27537  0.18349  Biso   1.000  C
  C551     1.0000 0.27538  0.27537  0.18340  Biso   1.000  C
  H595     1.0000 0.46838  0.23422  0.85644  Biso   1.000  H
  H596     1.0000 0.46838  0.23422  0.85634  Biso   1.000  H
  H597     1.0000 0.46834  0.23414  0.85644  Biso   1.000  H
  H598     1.0000 0.46834  0.23414  0.85634  Biso   1.000  H
  N417     1.0000 0.34304  0.25539  0.88477  Biso   1.000  N
  H599     1.0000 0.38481  0.19234  0.74140  Biso   1.000  H
  N418     1.0000 0.34304  0.25539  0.88467  Biso   1.000  N
  N419     1.0000 0.34297  0.25539  0.88477  Biso   1.000  N
  N420     1.0000 0.34297  0.25539  0.88467  Biso   1.000  N
  H600     1.0000 0.38467  0.19234  0.74140  Biso   1.000  H
  C552     1.0000 0.37903  0.31685  0.00000  Biso   1.000  C
  C553     1.0000 0.37903  0.31685  0.00010  Biso   1.000  C
  C554     1.0000 0.27531  0.27537  0.81651  Biso   1.000  C
  C555     1.0000 0.27538  0.27537  0.81651  Biso   1.000  C
  O117     1.0000 0.24037  0.24037  0.28960  Biso   1.000  O
  O118     1.0000 0.24030  0.24037  0.28960  Biso   1.000  O
  H601     1.0000 0.36636  0.45830  0.00000  Biso   1.000  H
  H602     1.0000 0.36636  0.45830  0.00010  Biso   1.000  H
  H603     1.0000 0.36625  0.45822  0.00000  Biso   1.000  H
  H604     1.0000 0.36625  0.45822  0.00010  Biso   1.000  H
  H605     1.0000 0.36629  0.45830  0.00000  Biso   1.000  H
  H606     1.0000 0.36629  0.45830  0.00010  Biso   1.000  H
  H607     1.0000 0.36632  0.45822  0.00000  Biso   1.000  H
  H608     1.0000 0.36632  0.45822  0.00010  Biso   1.000  H
  H609     1.0000 0.45826  0.36624  0.00000  Biso   1.000  H
  H610     1.0000 0.45826  0.36624  0.00010  Biso   1.000  H
  O119     1.0000 0.24037  0.24037  0.71040  Biso   1.000  O
  O120     1.0000 0.24030  0.24037  0.71040  Biso   1.000  O
  C556     1.0000 0.72461  0.72459  0.18340  Biso   1.000  C
  O121     1.0000 0.75962  0.75960  0.28960  Biso   1.000  O
  O122     1.0000 0.75955  0.75960  0.28960  Biso   1.000  O
  N421     1.0000 0.65687  0.74457  0.11523  Biso   1.000  N
  N422     1.0000 0.74454  0.65691  0.11523  Biso   1.000  N
  N423     1.0000 0.65687  0.74457  0.11533  Biso   1.000  N
  N424     1.0000 0.74454  0.65691  0.11533  Biso   1.000  N
  N425     1.0000 0.65694  0.74457  0.11523  Biso   1.000  N
  N426     1.0000 0.74461  0.65691  0.11523  Biso   1.000  N
  N427     1.0000 0.65694  0.74457  0.11533  Biso   1.000  N
  N428     1.0000 0.74461  0.65691  0.11533  Biso   1.000  N
  C557     1.0000 0.72461  0.72459  0.18349  Biso   1.000  C
  C558     1.0000 0.60869  0.80435  0.16477  Biso   1.000  C
  C559     1.0000 0.62089  0.68312  0.00000  Biso   1.000  C
  C560     1.0000 0.60869  0.80435  0.16486  Biso   1.000  C
  C561     1.0000 0.62089  0.68312  0.00010  Biso   1.000  C
  C562     1.0000 0.62096  0.68312  0.00000  Biso   1.000  C
  C563     1.0000 0.62096  0.68312  0.00010  Biso   1.000  C
  C564     1.0000 0.80432  0.60872  0.16477  Biso   1.000  C
  C565     1.0000 0.68305  0.62086  0.00000  Biso   1.000  C
  C566     1.0000 0.80432  0.60872  0.16486  Biso   1.000  C
  C567     1.0000 0.68305  0.62086  0.00010  Biso   1.000  C
  C568     1.0000 0.80439  0.60872  0.16477  Biso   1.000  C
  C569     1.0000 0.68312  0.62086  0.00000  Biso   1.000  C
  C570     1.0000 0.80439  0.60872  0.16486  Biso   1.000  C
  C571     1.0000 0.68312  0.62086  0.00010  Biso   1.000  C
  N429     1.0000 0.65686  0.91232  0.11523  Biso   1.000  N
  H611     1.0000 0.53154  0.76575  0.14356  Biso   1.000  H
  H612     1.0000 0.61518  0.80763  0.25860  Biso   1.000  H
  N430     1.0000 0.65686  0.91232  0.11533  Biso   1.000  N
  H613     1.0000 0.53154  0.76575  0.14366  Biso   1.000  H
  N431     1.0000 0.65693  0.91232  0.11523  Biso   1.000  N
  H614     1.0000 0.53161  0.76575  0.14356  Biso   1.000  H
  H615     1.0000 0.61521  0.80755  0.25860  Biso   1.000  H
  N432     1.0000 0.65693  0.91232  0.11533  Biso   1.000  N
  H616     1.0000 0.53161  0.76575  0.14366  Biso   1.000  H
  H617     1.0000 0.61525  0.80763  0.25860  Biso   1.000  H
  H618     1.0000 0.61514  0.80755  0.25860  Biso   1.000  H
  N433     1.0000 0.65687  0.74457  0.88477  Biso   1.000  N
  N434     1.0000 0.65687  0.74457  0.88467  Biso   1.000  N
  N435     1.0000 0.65694  0.74457  0.88477  Biso   1.000  N
  N436     1.0000 0.65694  0.74457  0.88467  Biso   1.000  N
  H619     1.0000 0.54166  0.63373  0.00000  Biso   1.000  H
  H620     1.0000 0.54166  0.63373  0.00010  Biso   1.000  H
  H621     1.0000 0.54169  0.63365  0.00000  Biso   1.000  H
  H622     1.0000 0.54169  0.63365  0.00010  Biso   1.000  H
  H623     1.0000 0.54173  0.63373  0.00000  Biso   1.000  H
  H624     1.0000 0.54173  0.63373  0.00010  Biso   1.000  H
  N437     1.0000 0.91230  0.65691  0.11523  Biso   1.000  N
  H625     1.0000 0.76576  0.53160  0.14356  Biso   1.000  H
  H626     1.0000 0.80756  0.61519  0.25860  Biso   1.000  H
  N438     1.0000 0.91230  0.65691  0.11533  Biso   1.000  N
  H627     1.0000 0.76576  0.53160  0.14366  Biso   1.000  H
  N439     1.0000 0.91237  0.65691  0.11523  Biso   1.000  N
  H628     1.0000 0.76583  0.53160  0.14356  Biso   1.000  H
  H629     1.0000 0.80763  0.61519  0.25860  Biso   1.000  H
  N440     1.0000 0.91237  0.65691  0.11533  Biso   1.000  N
  H630     1.0000 0.76583  0.53160  0.14366  Biso   1.000  H
  N441     1.0000 0.74454  0.65691  0.88477  Biso   1.000  N
  N442     1.0000 0.74454  0.65691  0.88467  Biso   1.000  N
  N443     1.0000 0.74461  0.65691  0.88477  Biso   1.000  N
  N444     1.0000 0.74461  0.65691  0.88467  Biso   1.000  N
  H631     1.0000 0.63363  0.54167  0.00000  Biso   1.000  H
  H632     1.0000 0.63363  0.54167  0.00010  Biso   1.000  H
  H633     1.0000 0.63370  0.54167  0.00000  Biso   1.000  H
  H634     1.0000 0.63370  0.54167  0.00010  Biso   1.000  H
  C572     1.0000 0.62089  0.93781  0.00000  Biso   1.000  C
  C573     1.0000 0.62089  0.93781  0.00010  Biso   1.000  C
  C574     1.0000 0.62096  0.93781  0.00000  Biso   1.000  C
  C575     1.0000 0.62096  0.93781  0.00010  Biso   1.000  C
  C576     1.0000 0.72457  0.99998  0.18349  Biso   1.000  C
  C577     1.0000 0.72457  0.99998  0.18340  Biso   1.000  C
  C578     1.0000 0.72451  0.99998  0.18349  Biso   1.000  C
  C579     1.0000 0.72451  0.99998  0.18340  Biso   1.000  C
  C580     1.0000 0.72461  0.72459  0.81651  Biso   1.000  C
  C581     1.0000 0.60869  0.80435  0.83523  Biso   1.000  C
  C582     1.0000 0.60869  0.80435  0.83514  Biso   1.000  C
  C583     1.0000 0.99992  0.72459  0.18349  Biso   1.000  C
  C584     1.0000 0.93774  0.62086  0.00000  Biso   1.000  C
  C585     1.0000 0.99992  0.72459  0.18340  Biso   1.000  C
  C586     1.0000 0.93774  0.62086  0.00010  Biso   1.000  C
  C587     1.0000 0.99999  0.72459  0.18349  Biso   1.000  C
  C588     1.0000 0.93781  0.62086  0.00000  Biso   1.000  C
  C589     1.0000 0.99999  0.72459  0.18340  Biso   1.000  C
  C590     1.0000 0.93781  0.62086  0.00010  Biso   1.000  C
  C591     1.0000 0.80432  0.60872  0.83523  Biso   1.000  C
  C592     1.0000 0.80432  0.60872  0.83514  Biso   1.000  C
  C593     1.0000 0.80439  0.60872  0.83523  Biso   1.000  C
  C594     1.0000 0.80439  0.60872  0.83514  Biso   1.000  C
  C595     1.0000 0.68306  0.06216  0.00000  Biso   1.000  C
  C596     1.0000 0.68306  0.06216  0.00010  Biso   1.000  C
  N445     1.0000 0.65686  0.91232  0.88477  Biso   1.000  N
  N446     1.0000 0.65686  0.91232  0.88467  Biso   1.000  N
  N447     1.0000 0.65693  0.91232  0.88477  Biso   1.000  N
  N448     1.0000 0.65693  0.91232  0.88467  Biso   1.000  N
  H635     1.0000 0.54169  0.90800  0.00000  Biso   1.000  H
  H636     1.0000 0.54169  0.90800  0.00010  Biso   1.000  H
  H637     1.0000 0.54176  0.90800  0.00000  Biso   1.000  H
  H638     1.0000 0.54176  0.90800  0.00010  Biso   1.000  H
  O123     1.0000 0.75966  0.99998  0.28960  Biso   1.000  O
  N449     1.0000 0.74460  0.08765  0.11523  Biso   1.000  N
  N450     1.0000 0.74460  0.08765  0.11533  Biso   1.000  N
  O124     1.0000 0.75959  0.99998  0.28960  Biso   1.000  O
  N451     1.0000 0.74453  0.08765  0.11523  Biso   1.000  N
  N452     1.0000 0.74453  0.08765  0.11533  Biso   1.000  N
  O125     1.0000 0.75955  0.75960  0.71040  Biso   1.000  O
  O126     1.0000 0.75962  0.75960  0.71040  Biso   1.000  O
  H639     1.0000 0.53154  0.76575  0.85644  Biso   1.000  H
  H640     1.0000 0.61518  0.80763  0.74140  Biso   1.000  H
  H641     1.0000 0.53154  0.76575  0.85634  Biso   1.000  H
  H642     1.0000 0.53161  0.76575  0.85644  Biso   1.000  H
  H643     1.0000 0.61521  0.80755  0.74140  Biso   1.000  H
  H644     1.0000 0.53161  0.76575  0.85634  Biso   1.000  H
  H645     1.0000 0.61525  0.80763  0.74140  Biso   1.000  H
  H646     1.0000 0.61514  0.80755  0.74140  Biso   1.000  H
  O127     1.0000 0.99998  0.75960  0.28960  Biso   1.000  O
  O128     1.0000 0.00005  0.75960  0.28960  Biso   1.000  O
  N453     1.0000 0.08770  0.74457  0.11523  Biso   1.000  N
  N454     1.0000 0.08770  0.74457  0.11533  Biso   1.000  N
  N455     1.0000 0.08763  0.74457  0.11523  Biso   1.000  N
  N456     1.0000 0.08763  0.74457  0.11533  Biso   1.000  N
  N457     1.0000 0.91230  0.65691  0.88477  Biso   1.000  N
  N458     1.0000 0.91230  0.65691  0.88467  Biso   1.000  N
  N459     1.0000 0.91237  0.65691  0.88477  Biso   1.000  N
  N460     1.0000 0.91237  0.65691  0.88467  Biso   1.000  N
  H647     1.0000 0.90797  0.54167  0.00000  Biso   1.000  H
  H648     1.0000 0.90797  0.54167  0.00010  Biso   1.000  H
  C597     1.0000 0.06223  0.68312  0.00000  Biso   1.000  C
  C598     1.0000 0.06223  0.68312  0.00010  Biso   1.000  C
  C599     1.0000 0.06216  0.68312  0.00000  Biso   1.000  C
  C600     1.0000 0.06216  0.68312  0.00010  Biso   1.000  C
  H649     1.0000 0.76576  0.53160  0.85644  Biso   1.000  H
  H650     1.0000 0.80756  0.61519  0.74140  Biso   1.000  H
  H651     1.0000 0.76576  0.53160  0.85634  Biso   1.000  H
  H652     1.0000 0.76583  0.53160  0.85644  Biso   1.000  H
  H653     1.0000 0.80763  0.61519  0.74140  Biso   1.000  H
  H654     1.0000 0.76583  0.53160  0.85634  Biso   1.000  H
  N461     1.0000 0.74460  0.08765  0.88477  Biso   1.000  N
  N462     1.0000 0.74460  0.08765  0.88467  Biso   1.000  N
  N463     1.0000 0.74453  0.08765  0.88477  Biso   1.000  N
  N464     1.0000 0.74453  0.08765  0.88467  Biso   1.000  N
  H655     1.0000 0.63374  0.09197  0.00000  Biso   1.000  H
  H656     1.0000 0.63374  0.09197  0.00010  Biso   1.000  H
  H657     1.0000 0.63360  0.09197  0.00000  Biso   1.000  H
  H658     1.0000 0.63360  0.09197  0.00010  Biso   1.000  H
  C601     1.0000 0.72457  0.99998  0.81651  Biso   1.000  C
  C602     1.0000 0.72451  0.99998  0.81651  Biso   1.000  C
  C603     1.0000 0.80440  0.19562  0.16477  Biso   1.000  C
  C604     1.0000 0.80440  0.19562  0.16486  Biso   1.000  C
  C605     1.0000 0.80426  0.19562  0.16477  Biso   1.000  C
  C606     1.0000 0.80426  0.19562  0.16486  Biso   1.000  C
  C607     1.0000 0.19566  0.80435  0.16477  Biso   1.000  C
  C608     1.0000 0.19566  0.80435  0.16486  Biso   1.000  C
  C609     1.0000 0.99992  0.72459  0.81651  Biso   1.000  C
  C610     1.0000 0.99999  0.72459  0.81651  Biso   1.000  C
  N465     1.0000 0.08770  0.74457  0.88477  Biso   1.000  N
  N466     1.0000 0.08770  0.74457  0.88467  Biso   1.000  N
  N467     1.0000 0.08763  0.74457  0.88477  Biso   1.000  N
  N468     1.0000 0.08763  0.74457  0.88467  Biso   1.000  N
  H659     1.0000 0.09207  0.63373  0.00000  Biso   1.000  H
  H660     1.0000 0.09207  0.63373  0.00010  Biso   1.000  H
  H661     1.0000 0.09197  0.63365  0.00000  Biso   1.000  H
  H662     1.0000 0.09197  0.63365  0.00010  Biso   1.000  H
  H663     1.0000 0.09201  0.63373  0.00000  Biso   1.000  H
  H664     1.0000 0.09201  0.63373  0.00010  Biso   1.000  H
  C611     1.0000 0.80440  0.19562  0.83523  Biso   1.000  C
  C612     1.0000 0.80440  0.19562  0.83514  Biso   1.000  C
  C613     1.0000 0.80426  0.19562  0.83523  Biso   1.000  C
  C614     1.0000 0.80426  0.19562  0.83514  Biso   1.000  C
  O129     1.0000 0.75966  0.99998  0.71040  Biso   1.000  O
  O130     1.0000 0.75959  0.99998  0.71040  Biso   1.000  O
  H665     1.0000 0.80753  0.19234  0.25860  Biso   1.000  H
  N469     1.0000 0.91228  0.25539  0.11523  Biso   1.000  N
  H666     1.0000 0.76577  0.23422  0.14356  Biso   1.000  H
  N470     1.0000 0.91228  0.25539  0.11533  Biso   1.000  N
  H667     1.0000 0.76577  0.23422  0.14366  Biso   1.000  H
  H668     1.0000 0.76573  0.23414  0.14356  Biso   1.000  H
  H669     1.0000 0.76573  0.23414  0.14366  Biso   1.000  H
  N471     1.0000 0.25545  0.91232  0.11523  Biso   1.000  N
  H670     1.0000 0.23421  0.76575  0.14356  Biso   1.000  H
  H671     1.0000 0.19245  0.80763  0.25860  Biso   1.000  H
  N472     1.0000 0.25545  0.91232  0.11533  Biso   1.000  N
  H672     1.0000 0.23421  0.76575  0.14366  Biso   1.000  H
  H673     1.0000 0.23415  0.76575  0.14356  Biso   1.000  H
  H674     1.0000 0.19241  0.80755  0.25860  Biso   1.000  H
  H675     1.0000 0.23415  0.76575  0.14366  Biso   1.000  H
  N473     1.0000 0.25538  0.91232  0.11523  Biso   1.000  N
  H676     1.0000 0.19238  0.80763  0.25860  Biso   1.000  H
  N474     1.0000 0.25538  0.91232  0.11533  Biso   1.000  N
  H677     1.0000 0.19234  0.80755  0.25860  Biso   1.000  H
  O131     1.0000 0.99998  0.75960  0.71040  Biso   1.000  O
  O132     1.0000 0.00005  0.75960  0.71040  Biso   1.000  O
  C615     1.0000 0.19566  0.80435  0.83523  Biso   1.000  C
  C616     1.0000 0.19566  0.80435  0.83514  Biso   1.000  C
  H678     1.0000 0.80753  0.19234  0.74140  Biso   1.000  H
  N475     1.0000 0.91228  0.25539  0.88477  Biso   1.000  N
  H679     1.0000 0.76577  0.23422  0.85644  Biso   1.000  H
  N476     1.0000 0.91228  0.25539  0.88467  Biso   1.000  N
  H680     1.0000 0.76577  0.23422  0.85634  Biso   1.000  H
  H681     1.0000 0.76573  0.23414  0.85644  Biso   1.000  H
  H682     1.0000 0.76573  0.23414  0.85634  Biso   1.000  H
  C617     1.0000 0.93782  0.31685  0.00000  Biso   1.000  C
  C618     1.0000 0.93782  0.31685  0.00010  Biso   1.000  C
  C619     1.0000 0.99993  0.27537  0.18349  Biso   1.000  C
  C620     1.0000 0.99993  0.27537  0.18340  Biso   1.000  C
  C621     1.0000 0.93768  0.31685  0.00000  Biso   1.000  C
  C622     1.0000 0.93768  0.31685  0.00010  Biso   1.000  C
  C623     1.0000 0.00006  0.27537  0.18349  Biso   1.000  C
  C624     1.0000 0.00006  0.27537  0.18340  Biso   1.000  C
  C625     1.0000 0.31692  0.93781  0.00000  Biso   1.000  C
  C626     1.0000 0.31692  0.93781  0.00010  Biso   1.000  C
  C627     1.0000 0.31685  0.93781  0.00000  Biso   1.000  C
  C628     1.0000 0.31685  0.93781  0.00010  Biso   1.000  C
  C629     1.0000 0.27541  0.99998  0.18349  Biso   1.000  C
  C630     1.0000 0.27541  0.99998  0.18340  Biso   1.000  C
  C631     1.0000 0.27534  0.99998  0.18349  Biso   1.000  C
  C632     1.0000 0.27534  0.99998  0.18340  Biso   1.000  C
  N477     1.0000 0.25545  0.91232  0.88477  Biso   1.000  N
  H683     1.0000 0.23421  0.76575  0.85644  Biso   1.000  H
  H684     1.0000 0.19245  0.80763  0.74140  Biso   1.000  H
  N478     1.0000 0.25545  0.91232  0.88467  Biso   1.000  N
  H685     1.0000 0.23421  0.76575  0.85634  Biso   1.000  H
  H686     1.0000 0.23415  0.76575  0.85644  Biso   1.000  H
  H687     1.0000 0.19241  0.80755  0.74140  Biso   1.000  H
  H688     1.0000 0.23415  0.76575  0.85634  Biso   1.000  H
  N479     1.0000 0.25538  0.91232  0.88477  Biso   1.000  N
  H689     1.0000 0.19238  0.80763  0.74140  Biso   1.000  H
  N480     1.0000 0.25538  0.91232  0.88467  Biso   1.000  N
  H690     1.0000 0.19234  0.80755  0.74140  Biso   1.000  H
  C633     1.0000 0.99993  0.27537  0.81651  Biso   1.000  C
  C634     1.0000 0.00006  0.27537  0.81651  Biso   1.000  C
  H691     1.0000 0.90791  0.36624  0.00000  Biso   1.000  H
  H692     1.0000 0.90791  0.36624  0.00010  Biso   1.000  H
  C635     1.0000 0.06224  0.37910  0.00000  Biso   1.000  C
  C636     1.0000 0.06224  0.37910  0.00010  Biso   1.000  C
  C637     1.0000 0.06220  0.37902  0.00000  Biso   1.000  C
  C638     1.0000 0.06220  0.37902  0.00010  Biso   1.000  C
  O133     1.0000 0.99993  0.24037  0.28960  Biso   1.000  O
  N481     1.0000 0.08768  0.34306  0.11523  Biso   1.000  N
  N482     1.0000 0.08768  0.34306  0.11533  Biso   1.000  N
  O134     1.0000 0.00007  0.24037  0.28960  Biso   1.000  O
  H693     1.0000 0.36631  0.90800  0.00000  Biso   1.000  H
  H694     1.0000 0.36631  0.90800  0.00010  Biso   1.000  H
  H695     1.0000 0.36624  0.90800  0.00000  Biso   1.000  H
  H696     1.0000 0.36624  0.90800  0.00010  Biso   1.000  H
  C639     1.0000 0.37903  0.06216  0.00000  Biso   1.000  C
  C640     1.0000 0.37903  0.06216  0.00010  Biso   1.000  C
  O135     1.0000 0.24032  0.99998  0.28960  Biso   1.000  O
  N483     1.0000 0.34312  0.08765  0.11523  Biso   1.000  N
  N484     1.0000 0.34312  0.08765  0.11533  Biso   1.000  N
  N485     1.0000 0.34298  0.08765  0.11523  Biso   1.000  N
  N486     1.0000 0.34298  0.08765  0.11533  Biso   1.000  N
  O136     1.0000 0.24039  0.99998  0.28960  Biso   1.000  O
  C641     1.0000 0.27541  0.99998  0.81651  Biso   1.000  C
  C642     1.0000 0.27534  0.99998  0.81651  Biso   1.000  C
  O137     1.0000 0.99993  0.24037  0.71040  Biso   1.000  O
  N487     1.0000 0.08768  0.34306  0.88477  Biso   1.000  N
  N488     1.0000 0.08768  0.34306  0.88467  Biso   1.000  N
  O138     1.0000 0.00007  0.24037  0.71040  Biso   1.000  O
  H697     1.0000 0.09194  0.45830  0.00000  Biso   1.000  H
  H698     1.0000 0.09194  0.45830  0.00010  Biso   1.000  H
  H699     1.0000 0.09190  0.45822  0.00000  Biso   1.000  H
  H700     1.0000 0.09190  0.45822  0.00010  Biso   1.000  H
  H701     1.0000 0.09204  0.45822  0.00000  Biso   1.000  H
  H702     1.0000 0.09204  0.45822  0.00010  Biso   1.000  H
  C643     1.0000 0.19559  0.39125  0.16477  Biso   1.000  C
  C644     1.0000 0.19559  0.39125  0.16486  Biso   1.000  C
  N489     1.0000 0.34312  0.08765  0.88477  Biso   1.000  N
  N490     1.0000 0.34312  0.08765  0.88467  Biso   1.000  N
  N491     1.0000 0.34298  0.08765  0.88477  Biso   1.000  N
  N492     1.0000 0.34298  0.08765  0.88467  Biso   1.000  N
  H703     1.0000 0.45823  0.09197  0.00000  Biso   1.000  H
  H704     1.0000 0.45823  0.09197  0.00010  Biso   1.000  H
  C645     1.0000 0.39122  0.19562  0.16477  Biso   1.000  C
  C646     1.0000 0.39122  0.19562  0.16486  Biso   1.000  C
  C647     1.0000 0.39136  0.19562  0.16477  Biso   1.000  C
  C648     1.0000 0.39136  0.19562  0.16486  Biso   1.000  C
  O139     1.0000 0.24032  0.99998  0.71040  Biso   1.000  O
  O140     1.0000 0.24039  0.99998  0.71040  Biso   1.000  O
  C649     1.0000 0.19559  0.39125  0.83523  Biso   1.000  C
  C650     1.0000 0.19559  0.39125  0.83514  Biso   1.000  C
  N493     1.0000 0.25545  0.34306  0.11523  Biso   1.000  N
  H705     1.0000 0.23415  0.46837  0.14356  Biso   1.000  H
  H706     1.0000 0.19235  0.38478  0.25860  Biso   1.000  H
  N494     1.0000 0.25545  0.34306  0.11533  Biso   1.000  N
  H707     1.0000 0.23415  0.46837  0.14366  Biso   1.000  H
  C651     1.0000 0.39122  0.19562  0.83523  Biso   1.000  C
  C652     1.0000 0.39122  0.19562  0.83514  Biso   1.000  C
  C653     1.0000 0.39136  0.19562  0.83523  Biso   1.000  C
  C654     1.0000 0.39136  0.19562  0.83514  Biso   1.000  C
  H708     1.0000 0.46838  0.23422  0.14356  Biso   1.000  H
  H709     1.0000 0.46838  0.23422  0.14366  Biso   1.000  H
  H710     1.0000 0.46834  0.23414  0.14356  Biso   1.000  H
  H711     1.0000 0.46834  0.23414  0.14366  Biso   1.000  H
  N495     1.0000 0.34304  0.25539  0.11523  Biso   1.000  N
  H712     1.0000 0.38481  0.19234  0.25860  Biso   1.000  H
  N496     1.0000 0.34304  0.25539  0.11533  Biso   1.000  N
  N497     1.0000 0.34297  0.25539  0.11523  Biso   1.000  N
  N498     1.0000 0.34297  0.25539  0.11533  Biso   1.000  N
  H713     1.0000 0.38467  0.19234  0.25860  Biso   1.000  H
  N499     1.0000 0.25545  0.34306  0.88477  Biso   1.000  N
  H714     1.0000 0.23415  0.46837  0.85644  Biso   1.000  H
  H715     1.0000 0.19235  0.38478  0.74140  Biso   1.000  H
  N500     1.0000 0.25545  0.34306  0.88467  Biso   1.000  N
  H716     1.0000 0.23415  0.46837  0.85634  Biso   1.000  H
  C655     1.0000 0.27531  0.27537  0.18349  Biso   1.000  C
  C656     1.0000 0.31693  0.37910  0.00000  Biso   1.000  C
  C657     1.0000 0.27531  0.27537  0.18340  Biso   1.000  C
  C658     1.0000 0.31693  0.37910  0.00010  Biso   1.000  C
  C659     1.0000 0.31689  0.37902  0.00000  Biso   1.000  C
  C660     1.0000 0.31689  0.37902  0.00010  Biso   1.000  C
  C661     1.0000 0.27538  0.27537  0.18349  Biso   1.000  C
  C662     1.0000 0.27538  0.27537  0.18340  Biso   1.000  C
  H717     1.0000 0.46838  0.23422  0.85644  Biso   1.000  H
  H718     1.0000 0.46838  0.23422  0.85634  Biso   1.000  H
  H719     1.0000 0.46834  0.23414  0.85644  Biso   1.000  H
  H720     1.0000 0.46834  0.23414  0.85634  Biso   1.000  H
  N501     1.0000 0.34304  0.25539  0.88477  Biso   1.000  N
  H721     1.0000 0.38481  0.19234  0.74140  Biso   1.000  H
  N502     1.0000 0.34304  0.25539  0.88467  Biso   1.000  N
  N503     1.0000 0.34297  0.25539  0.88477  Biso   1.000  N
  N504     1.0000 0.34297  0.25539  0.88467  Biso   1.000  N
  H722     1.0000 0.38467  0.19234  0.74140  Biso   1.000  H
  C663     1.0000 0.37903  0.31685  0.00000  Biso   1.000  C
  C664     1.0000 0.37903  0.31685  0.00010  Biso   1.000  C
  C665     1.0000 0.27531  0.27537  0.81651  Biso   1.000  C
  C666     1.0000 0.27538  0.27537  0.81651  Biso   1.000  C
  O141     1.0000 0.24037  0.24037  0.28960  Biso   1.000  O
  O142     1.0000 0.24030  0.24037  0.28960  Biso   1.000  O
  H723     1.0000 0.36636  0.45830  0.00000  Biso   1.000  H
  H724     1.0000 0.36636  0.45830  0.00010  Biso   1.000  H
  H725     1.0000 0.36625  0.45822  0.00000  Biso   1.000  H
  H726     1.0000 0.36625  0.45822  0.00010  Biso   1.000  H
  H727     1.0000 0.36629  0.45830  0.00000  Biso   1.000  H
  H728     1.0000 0.36629  0.45830  0.00010  Biso   1.000  H
  H729     1.0000 0.36632  0.45822  0.00000  Biso   1.000  H
  H730     1.0000 0.36632  0.45822  0.00010  Biso   1.000  H
  H731     1.0000 0.45826  0.36624  0.00000  Biso   1.000  H
  H732     1.0000 0.45826  0.36624  0.00010  Biso   1.000  H
  O143     1.0000 0.24037  0.24037  0.71040  Biso   1.000  O
  O144     1.0000 0.24030  0.24037  0.71040  Biso   1.000  O
