data_image0
_cell_length_a       26.841
_cell_length_b       14.967
_cell_length_c       22.022
_cell_angle_alpha    90
_cell_angle_beta     90
_cell_angle_gamma    90

_symmetry_space_group_name_H-M    "P 1"
_symmetry_int_tables_number       1

loop_
  _symmetry_equiv_pos_as_xyz
  'x, y, z'

loop_
  _atom_site_label
  _atom_site_occupancy
  _atom_site_fract_x
  _atom_site_fract_y
  _atom_site_fract_z
  _atom_site_thermal_displace_type
  _atom_site_B_iso_or_equiv
  _atom_site_type_symbol
  C1       1.0000 0.63403  0.29979  0.40809  Biso   1.000  C
  C2       1.0000 0.59003  0.25509  0.41118  Biso   1.000  C
  H1       1.0000 0.63492  0.36253  0.41091  Biso   1.000  H
  C3       1.0000 0.67755  0.25182  0.40078  Biso   1.000  C
  C4       1.0000 0.54197  0.30467  0.41640  Biso   1.000  C
  C5       1.0000 0.58951  0.16289  0.41032  Biso   1.000  C
  N1       1.0000 0.67639  0.16189  0.39760  Biso   1.000  N
  H2       1.0000 0.70821  0.28202  0.39810  Biso   1.000  H
  N2       1.0000 0.50002  0.25797  0.41200  Biso   1.000  N
  N3       1.0000 0.54435  0.39353  0.42240  Biso   1.000  N
  C6       1.0000 0.63381  0.11813  0.40328  Biso   1.000  C
  H3       1.0000 0.55941  0.13129  0.41431  Biso   1.000  H
  C7       1.0000 0.72266  0.11171  0.38139  Biso   1.000  C
  C8       1.0000 0.45803  0.30467  0.41640  Biso   1.000  C
  C9       1.0000 0.50002  0.43429  0.42280  Biso   1.000  C
  H4       1.0000 0.63392  0.05532  0.40269  Biso   1.000  H
  H5       1.0000 0.72121  0.05111  0.39810  Biso   1.000  H
  H6       1.0000 0.75191  0.14191  0.39842  Biso   1.000  H
  C10      1.0000 0.72650  0.10810  0.31341  Biso   1.000  C
  C11      1.0000 0.40997  0.25509  0.41118  Biso   1.000  C
  N4       1.0000 0.45568  0.39353  0.42240  Biso   1.000  N
  C12      1.0000 0.50002  0.53357  0.42031  Biso   1.000  C
  C13      1.0000 0.75012  0.17619  0.28099  Biso   1.000  C
  C14      1.0000 0.70463  0.03962  0.28108  Biso   1.000  C
  C15      1.0000 0.36601  0.29979  0.40809  Biso   1.000  C
  C16      1.0000 0.41049  0.16289  0.41032  Biso   1.000  C
  C17      1.0000 0.54409  0.58001  0.41699  Biso   1.000  C
  C18      1.0000 0.45591  0.58001  0.41699  Biso   1.000  C
  H7       1.0000 0.76622  0.22249  0.30211  Biso   1.000  H
  C19      1.0000 0.75012  0.17619  0.21901  Biso   1.000  C
  C20      1.0000 0.70463  0.03962  0.21892  Biso   1.000  C
  H8       1.0000 0.68950  0.99212  0.30211  Biso   1.000  H
  C21      1.0000 0.32249  0.25182  0.40078  Biso   1.000  C
  H9       1.0000 0.36511  0.36253  0.41091  Biso   1.000  H
  C22      1.0000 0.36619  0.11813  0.40328  Biso   1.000  C
  H10      1.0000 0.44059  0.13129  0.41431  Biso   1.000  H
  C23      1.0000 0.54312  0.67068  0.40700  Biso   1.000  C
  H11      1.0000 0.57472  0.55001  0.42140  Biso   1.000  H
  C24      1.0000 0.45691  0.67068  0.40700  Biso   1.000  C
  H12      1.0000 0.42532  0.55001  0.42140  Biso   1.000  H
  C25      1.0000 0.72650  0.10810  0.18659  Biso   1.000  C
  H13      1.0000 0.76622  0.22249  0.19789  Biso   1.000  H
  H14      1.0000 0.68950  0.99212  0.19789  Biso   1.000  H
  N5       1.0000 0.32365  0.16189  0.39760  Biso   1.000  N
  H15      1.0000 0.29179  0.28202  0.39810  Biso   1.000  H
  H16      1.0000 0.36612  0.05532  0.40269  Biso   1.000  H
  N6       1.0000 0.50002  0.71310  0.40069  Biso   1.000  N
  H17      1.0000 0.57312  0.70288  0.40460  Biso   1.000  H
  H18      1.0000 0.42692  0.70288  0.40460  Biso   1.000  H
  C26      1.0000 0.72266  0.11171  0.11861  Biso   1.000  C
  C27      1.0000 0.27737  0.11171  0.38139  Biso   1.000  C
  C28      1.0000 0.50002  0.80998  0.38121  Biso   1.000  C
  N7       1.0000 0.67639  0.16189  0.10240  Biso   1.000  N
  H19      1.0000 0.72121  0.05111  0.10190  Biso   1.000  H
  H20      1.0000 0.75191  0.14191  0.10158  Biso   1.000  H
  C29      1.0000 0.27350  0.10810  0.31341  Biso   1.000  C
  H21      1.0000 0.27879  0.05111  0.39810  Biso   1.000  H
  H22      1.0000 0.24809  0.14191  0.39842  Biso   1.000  H
  C30      1.0000 0.50002  0.81573  0.31400  Biso   1.000  C
  H23      1.0000 0.47040  0.83998  0.39742  Biso   1.000  H
  H24      1.0000 0.52960  0.83998  0.39742  Biso   1.000  H
  C31      1.0000 0.67755  0.25182  0.09922  Biso   1.000  C
  C32      1.0000 0.63381  0.11813  0.09672  Biso   1.000  C
  C33      1.0000 0.24992  0.17619  0.28099  Biso   1.000  C
  C34      1.0000 0.29537  0.03962  0.28108  Biso   1.000  C
  C35      1.0000 0.45580  0.81579  0.28122  Biso   1.000  C
  C36      1.0000 0.54420  0.81579  0.28122  Biso   1.000  C
  C37      1.0000 0.63403  0.29979  0.09191  Biso   1.000  C
  H25      1.0000 0.70821  0.28202  0.10190  Biso   1.000  H
  C38      1.0000 0.58951  0.16289  0.08968  Biso   1.000  C
  H26      1.0000 0.63392  0.05532  0.09731  Biso   1.000  H
  H27      1.0000 0.23382  0.22249  0.30211  Biso   1.000  H
  C39      1.0000 0.24992  0.17619  0.21901  Biso   1.000  C
  C40      1.0000 0.29537  0.03962  0.21892  Biso   1.000  C
  H28      1.0000 0.31050  0.99212  0.30211  Biso   1.000  H
  H29      1.0000 0.42521  0.81593  0.30211  Biso   1.000  H
  C41      1.0000 0.45580  0.81579  0.21878  Biso   1.000  C
  H30      1.0000 0.57479  0.81593  0.30211  Biso   1.000  H
  C42      1.0000 0.54420  0.81579  0.21878  Biso   1.000  C
  C43      1.0000 0.59003  0.25509  0.08882  Biso   1.000  C
  H31      1.0000 0.63492  0.36253  0.08909  Biso   1.000  H
  H32      1.0000 0.55941  0.13129  0.08569  Biso   1.000  H
  C44      1.0000 0.27350  0.10810  0.18659  Biso   1.000  C
  H33      1.0000 0.23382  0.22249  0.19789  Biso   1.000  H
  H34      1.0000 0.31050  0.99212  0.19789  Biso   1.000  H
  C45      1.0000 0.50002  0.81573  0.18600  Biso   1.000  C
  H35      1.0000 0.42521  0.81593  0.19789  Biso   1.000  H
  H36      1.0000 0.57479  0.81593  0.19789  Biso   1.000  H
  C46      1.0000 0.54197  0.30467  0.08360  Biso   1.000  C
  C47      1.0000 0.27737  0.11171  0.11861  Biso   1.000  C
  C48      1.0000 0.50002  0.80998  0.11879  Biso   1.000  C
  N8       1.0000 0.50002  0.25797  0.08800  Biso   1.000  N
  N9       1.0000 0.54435  0.39353  0.07760  Biso   1.000  N
  N10      1.0000 0.32365  0.16189  0.10240  Biso   1.000  N
  H37      1.0000 0.27879  0.05111  0.10190  Biso   1.000  H
  H38      1.0000 0.24809  0.14191  0.10158  Biso   1.000  H
  N11      1.0000 0.50002  0.71310  0.09931  Biso   1.000  N
  H39      1.0000 0.47040  0.83998  0.10258  Biso   1.000  H
  H40      1.0000 0.52960  0.83998  0.10258  Biso   1.000  H
  C49      1.0000 0.45803  0.30467  0.08360  Biso   1.000  C
  C50      1.0000 0.50002  0.43429  0.07720  Biso   1.000  C
  C51      1.0000 0.32249  0.25182  0.09922  Biso   1.000  C
  C52      1.0000 0.36619  0.11813  0.09672  Biso   1.000  C
  C53      1.0000 0.54312  0.67068  0.09300  Biso   1.000  C
  C54      1.0000 0.45691  0.67068  0.09300  Biso   1.000  C
  C55      1.0000 0.40997  0.25509  0.08882  Biso   1.000  C
  N12      1.0000 0.45568  0.39353  0.07760  Biso   1.000  N
  C56      1.0000 0.50002  0.53357  0.07969  Biso   1.000  C
  C57      1.0000 0.36601  0.29979  0.09191  Biso   1.000  C
  H41      1.0000 0.29179  0.28202  0.10190  Biso   1.000  H
  H42      1.0000 0.36612  0.05532  0.09731  Biso   1.000  H
  C58      1.0000 0.41049  0.16289  0.08968  Biso   1.000  C
  C59      1.0000 0.54409  0.58001  0.08301  Biso   1.000  C
  H43      1.0000 0.57312  0.70288  0.09540  Biso   1.000  H
  C60      1.0000 0.45591  0.58001  0.08301  Biso   1.000  C
  H44      1.0000 0.42692  0.70288  0.09540  Biso   1.000  H
  H45      1.0000 0.36511  0.36253  0.08909  Biso   1.000  H
  H46      1.0000 0.44059  0.13129  0.08569  Biso   1.000  H
  H47      1.0000 0.57472  0.55001  0.07860  Biso   1.000  H
  H48      1.0000 0.42532  0.55001  0.07860  Biso   1.000  H
  C61      1.0000 0.54409  0.41999  0.58301  Biso   1.000  C
  C62      1.0000 0.54312  0.32932  0.59300  Biso   1.000  C
  C63      1.0000 0.50002  0.46643  0.57969  Biso   1.000  C
  H49      1.0000 0.57472  0.44999  0.57860  Biso   1.000  H
  N13      1.0000 0.50002  0.28690  0.59931  Biso   1.000  N
  H50      1.0000 0.57312  0.29712  0.59540  Biso   1.000  H
  C64      1.0000 0.45591  0.41999  0.58301  Biso   1.000  C
  C65      1.0000 0.50002  0.56571  0.57720  Biso   1.000  C
  C66      1.0000 0.45691  0.32932  0.59300  Biso   1.000  C
  C67      1.0000 0.50002  0.19002  0.61879  Biso   1.000  C
  H51      1.0000 0.42532  0.44999  0.57860  Biso   1.000  H
  N14      1.0000 0.45568  0.60647  0.57760  Biso   1.000  N
  N15      1.0000 0.54435  0.60647  0.57760  Biso   1.000  N
  H52      1.0000 0.42692  0.29712  0.59540  Biso   1.000  H
  C68      1.0000 0.50002  0.18427  0.68600  Biso   1.000  C
  H53      1.0000 0.52960  0.16002  0.60258  Biso   1.000  H
  H54      1.0000 0.47040  0.16002  0.60258  Biso   1.000  H
  C69      1.0000 0.45803  0.69533  0.58360  Biso   1.000  C
  C70      1.0000 0.54197  0.69533  0.58360  Biso   1.000  C
  C71      1.0000 0.54420  0.18421  0.71878  Biso   1.000  C
  C72      1.0000 0.45580  0.18421  0.71878  Biso   1.000  C
  N16      1.0000 0.50002  0.74203  0.58800  Biso   1.000  N
  C73      1.0000 0.40997  0.74491  0.58877  Biso   1.000  C
  C74      1.0000 0.59003  0.74491  0.58877  Biso   1.000  C
  C75      1.0000 0.54420  0.18421  0.78122  Biso   1.000  C
  H55      1.0000 0.57479  0.18407  0.69789  Biso   1.000  H
  C76      1.0000 0.45580  0.18421  0.78122  Biso   1.000  C
  H56      1.0000 0.42521  0.18407  0.69789  Biso   1.000  H
  C77      1.0000 0.36601  0.70021  0.59191  Biso   1.000  C
  C78      1.0000 0.41049  0.83711  0.58968  Biso   1.000  C
  C79      1.0000 0.63403  0.70021  0.59191  Biso   1.000  C
  C80      1.0000 0.58951  0.83711  0.58968  Biso   1.000  C
  H57      1.0000 0.57479  0.18407  0.80211  Biso   1.000  H
  C81      1.0000 0.50002  0.18427  0.81400  Biso   1.000  C
  H58      1.0000 0.42521  0.18407  0.80211  Biso   1.000  H
  H59      1.0000 0.36511  0.63747  0.58909  Biso   1.000  H
  C82      1.0000 0.32249  0.74818  0.59922  Biso   1.000  C
  C83      1.0000 0.36619  0.88187  0.59668  Biso   1.000  C
  H60      1.0000 0.44059  0.86871  0.58569  Biso   1.000  H
  H61      1.0000 0.63492  0.63747  0.58909  Biso   1.000  H
  C84      1.0000 0.67755  0.74818  0.59922  Biso   1.000  C
  C85      1.0000 0.63381  0.88187  0.59668  Biso   1.000  C
  H62      1.0000 0.55941  0.86871  0.58569  Biso   1.000  H
  C86      1.0000 0.50002  0.19002  0.88121  Biso   1.000  C
  N17      1.0000 0.32365  0.83811  0.60240  Biso   1.000  N
  H63      1.0000 0.29179  0.71798  0.60190  Biso   1.000  H
  H64      1.0000 0.36612  0.94468  0.59731  Biso   1.000  H
  N18      1.0000 0.67639  0.83811  0.60240  Biso   1.000  N
  H65      1.0000 0.70821  0.71798  0.60190  Biso   1.000  H
  H66      1.0000 0.63392  0.94468  0.59731  Biso   1.000  H
  N19      1.0000 0.50002  0.28690  0.90069  Biso   1.000  N
  H67      1.0000 0.52960  0.16002  0.89738  Biso   1.000  H
  H68      1.0000 0.47040  0.16002  0.89738  Biso   1.000  H
  C87      1.0000 0.27737  0.88829  0.61861  Biso   1.000  C
  C88      1.0000 0.72266  0.88829  0.61861  Biso   1.000  C
  C89      1.0000 0.45691  0.32932  0.90700  Biso   1.000  C
  C90      1.0000 0.54312  0.32932  0.90700  Biso   1.000  C
  H69      1.0000 0.27879  0.94889  0.60190  Biso   1.000  H
  H70      1.0000 0.24809  0.85809  0.60158  Biso   1.000  H
  C91      1.0000 0.27350  0.89190  0.68659  Biso   1.000  C
  H71      1.0000 0.72121  0.94889  0.60190  Biso   1.000  H
  H72      1.0000 0.75191  0.85809  0.60158  Biso   1.000  H
  C92      1.0000 0.72650  0.89190  0.68659  Biso   1.000  C
  H73      1.0000 0.42692  0.29712  0.90460  Biso   1.000  H
  C93      1.0000 0.45591  0.41999  0.91699  Biso   1.000  C
  H74      1.0000 0.57312  0.29712  0.90460  Biso   1.000  H
  C94      1.0000 0.54409  0.41999  0.91699  Biso   1.000  C
  C95      1.0000 0.24992  0.82381  0.71901  Biso   1.000  C
  C96      1.0000 0.29537  0.96038  0.71892  Biso   1.000  C
  C97      1.0000 0.75012  0.82381  0.71901  Biso   1.000  C
  C98      1.0000 0.70463  0.96038  0.71892  Biso   1.000  C
  H75      1.0000 0.42532  0.44999  0.92140  Biso   1.000  H
  C99      1.0000 0.50002  0.46643  0.92031  Biso   1.000  C
  H76      1.0000 0.57472  0.44999  0.92140  Biso   1.000  H
  C100     1.0000 0.24992  0.82381  0.78099  Biso   1.000  C
  H77      1.0000 0.23382  0.77751  0.69789  Biso   1.000  H
  C101     1.0000 0.29537  0.96038  0.78108  Biso   1.000  C
  H78      1.0000 0.31050  0.00788  0.69789  Biso   1.000  H
  C102     1.0000 0.75012  0.82381  0.78099  Biso   1.000  C
  H79      1.0000 0.76622  0.77751  0.69789  Biso   1.000  H
  C103     1.0000 0.70463  0.96038  0.78108  Biso   1.000  C
  H80      1.0000 0.68950  0.00788  0.69789  Biso   1.000  H
  C104     1.0000 0.50002  0.56571  0.92280  Biso   1.000  C
  C105     1.0000 0.27350  0.89190  0.81341  Biso   1.000  C
  H81      1.0000 0.23382  0.77751  0.80211  Biso   1.000  H
  H82      1.0000 0.31050  0.00788  0.80211  Biso   1.000  H
  C106     1.0000 0.72650  0.89190  0.81341  Biso   1.000  C
  H83      1.0000 0.76622  0.77751  0.80211  Biso   1.000  H
  H84      1.0000 0.68950  0.00788  0.80211  Biso   1.000  H
  N20      1.0000 0.45568  0.60647  0.92240  Biso   1.000  N
  N21      1.0000 0.54435  0.60647  0.92240  Biso   1.000  N
  C107     1.0000 0.27737  0.88829  0.88139  Biso   1.000  C
  C108     1.0000 0.72266  0.88829  0.88139  Biso   1.000  C
  C109     1.0000 0.45803  0.69533  0.91640  Biso   1.000  C
  C110     1.0000 0.54197  0.69533  0.91640  Biso   1.000  C
  N22      1.0000 0.32365  0.83811  0.89760  Biso   1.000  N
  H85      1.0000 0.27879  0.94889  0.89810  Biso   1.000  H
  H86      1.0000 0.24809  0.85809  0.89837  Biso   1.000  H
  N23      1.0000 0.67639  0.83811  0.89760  Biso   1.000  N
  H87      1.0000 0.72121  0.94889  0.89810  Biso   1.000  H
  H88      1.0000 0.75191  0.85809  0.89837  Biso   1.000  H
  N24      1.0000 0.50002  0.74203  0.91200  Biso   1.000  N
  C111     1.0000 0.40997  0.74491  0.91118  Biso   1.000  C
  C112     1.0000 0.59003  0.74491  0.91118  Biso   1.000  C
  C113     1.0000 0.32249  0.74818  0.90078  Biso   1.000  C
  C114     1.0000 0.36619  0.88187  0.90328  Biso   1.000  C
  C115     1.0000 0.67755  0.74818  0.90078  Biso   1.000  C
  C116     1.0000 0.63381  0.88187  0.90328  Biso   1.000  C
  C117     1.0000 0.36601  0.70021  0.90809  Biso   1.000  C
  C118     1.0000 0.41049  0.83711  0.91032  Biso   1.000  C
  C119     1.0000 0.63403  0.70021  0.90809  Biso   1.000  C
  C120     1.0000 0.58951  0.83711  0.91032  Biso   1.000  C
  H89      1.0000 0.29179  0.71798  0.89810  Biso   1.000  H
  H90      1.0000 0.36612  0.94468  0.90269  Biso   1.000  H
  H91      1.0000 0.70821  0.71798  0.89810  Biso   1.000  H
  H92      1.0000 0.63392  0.94468  0.90269  Biso   1.000  H
  H93      1.0000 0.36511  0.63747  0.91091  Biso   1.000  H
  H94      1.0000 0.44059  0.86871  0.91431  Biso   1.000  H
  H95      1.0000 0.63492  0.63747  0.91091  Biso   1.000  H
  H96      1.0000 0.55941  0.86871  0.91431  Biso   1.000  H
  C121     1.0000 0.77739  0.61168  0.38139  Biso   1.000  C
  C122     1.0000 0.77356  0.60807  0.31341  Biso   1.000  C
  C123     1.0000 0.77352  0.60807  0.31341  Biso   1.000  C
  N25      1.0000 0.82363  0.66192  0.39760  Biso   1.000  N
  H97      1.0000 0.77885  0.55108  0.39810  Biso   1.000  H
  H98      1.0000 0.74815  0.64188  0.39842  Biso   1.000  H
  N26      1.0000 0.82367  0.66192  0.39760  Biso   1.000  N
  H99      1.0000 0.77881  0.55108  0.39810  Biso   1.000  H
  H100     1.0000 0.74811  0.64188  0.39842  Biso   1.000  H
  C124     1.0000 0.74990  0.67622  0.28099  Biso   1.000  C
  C125     1.0000 0.74993  0.67622  0.28099  Biso   1.000  C
  C126     1.0000 0.79539  0.53959  0.28108  Biso   1.000  C
  C127     1.0000 0.82251  0.75179  0.40078  Biso   1.000  C
  C128     1.0000 0.86625  0.61809  0.40328  Biso   1.000  C
  C129     1.0000 0.82247  0.75179  0.40078  Biso   1.000  C
  C130     1.0000 0.86621  0.61809  0.40328  Biso   1.000  C
  H101     1.0000 0.73384  0.72252  0.30211  Biso   1.000  H
  C131     1.0000 0.74993  0.67622  0.21901  Biso   1.000  C
  H102     1.0000 0.73380  0.72252  0.30211  Biso   1.000  H
  C132     1.0000 0.74990  0.67622  0.21901  Biso   1.000  C
  H103     1.0000 0.81051  0.49208  0.30211  Biso   1.000  H
  C133     1.0000 0.79539  0.53959  0.21892  Biso   1.000  C
  C134     1.0000 0.86603  0.79983  0.40809  Biso   1.000  C
  H104     1.0000 0.79185  0.78199  0.39810  Biso   1.000  H
  H105     1.0000 0.79181  0.78199  0.39810  Biso   1.000  H
  H106     1.0000 0.86614  0.55529  0.40269  Biso   1.000  H
  C135     1.0000 0.91051  0.66293  0.41032  Biso   1.000  C
  H107     1.0000 0.86610  0.55529  0.40269  Biso   1.000  H
  C136     1.0000 0.77356  0.60807  0.18659  Biso   1.000  C
  H108     1.0000 0.73384  0.72252  0.19789  Biso   1.000  H
  C137     1.0000 0.77352  0.60807  0.18659  Biso   1.000  C
  H109     1.0000 0.73380  0.72252  0.19789  Biso   1.000  H
  H110     1.0000 0.81051  0.49208  0.19789  Biso   1.000  H
  C138     1.0000 0.90999  0.75513  0.41118  Biso   1.000  C
  H111     1.0000 0.86513  0.86250  0.41091  Biso   1.000  H
  H112     1.0000 0.94065  0.63132  0.41431  Biso   1.000  H
  H113     1.0000 0.94061  0.63132  0.41431  Biso   1.000  H
  C139     1.0000 0.77739  0.61168  0.11861  Biso   1.000  C
  C140     1.0000 0.95805  0.80470  0.41640  Biso   1.000  C
  N27      1.0000 0.82363  0.66192  0.10240  Biso   1.000  N
  H114     1.0000 0.77885  0.55108  0.10190  Biso   1.000  H
  H115     1.0000 0.74815  0.64188  0.10158  Biso   1.000  H
  N28      1.0000 0.82367  0.66192  0.10240  Biso   1.000  N
  H116     1.0000 0.77881  0.55108  0.10190  Biso   1.000  H
  H117     1.0000 0.74811  0.64188  0.10158  Biso   1.000  H
  N29      1.0000 0.95570  0.89350  0.42240  Biso   1.000  N
  N30      1.0000 0.00000  0.75800  0.41200  Biso   1.000  N
  N31      1.0000 0.95566  0.89350  0.42240  Biso   1.000  N
  C141     1.0000 0.82251  0.75179  0.09922  Biso   1.000  C
  C142     1.0000 0.86625  0.61809  0.09672  Biso   1.000  C
  C143     1.0000 0.82247  0.75179  0.09922  Biso   1.000  C
  C144     1.0000 0.86621  0.61809  0.09672  Biso   1.000  C
  C145     1.0000 0.00000  0.93432  0.42280  Biso   1.000  C
  C146     1.0000 0.04199  0.80470  0.41640  Biso   1.000  C
  C147     1.0000 0.86603  0.79983  0.09191  Biso   1.000  C
  H118     1.0000 0.79185  0.78199  0.10190  Biso   1.000  H
  H119     1.0000 0.79181  0.78199  0.10190  Biso   1.000  H
  H120     1.0000 0.86614  0.55529  0.09731  Biso   1.000  H
  C148     1.0000 0.91051  0.66293  0.08968  Biso   1.000  C
  H121     1.0000 0.86610  0.55529  0.09731  Biso   1.000  H
  C149     1.0000 0.00000  0.03361  0.42031  Biso   1.000  C
  N32      1.0000 0.04434  0.89350  0.42240  Biso   1.000  N
  N33      1.0000 0.04437  0.89350  0.42240  Biso   1.000  N
  C150     1.0000 0.09005  0.75513  0.41118  Biso   1.000  C
  C151     1.0000 0.90999  0.75513  0.08882  Biso   1.000  C
  H122     1.0000 0.86513  0.86250  0.08909  Biso   1.000  H
  H123     1.0000 0.94065  0.63132  0.08569  Biso   1.000  H
  H124     1.0000 0.94061  0.63132  0.08569  Biso   1.000  H
  C152     1.0000 0.95589  0.07998  0.41699  Biso   1.000  C
  C153     1.0000 0.95593  0.07998  0.41699  Biso   1.000  C
  C154     1.0000 0.04411  0.07998  0.41699  Biso   1.000  C
  C155     1.0000 0.04407  0.07998  0.41699  Biso   1.000  C
  C156     1.0000 0.13401  0.79983  0.40809  Biso   1.000  C
  C157     1.0000 0.08953  0.66293  0.41032  Biso   1.000  C
  C158     1.0000 0.95805  0.80470  0.08360  Biso   1.000  C
  C159     1.0000 0.95689  0.17071  0.40700  Biso   1.000  C
  H125     1.0000 0.92534  0.04998  0.42140  Biso   1.000  H
  C160     1.0000 0.95693  0.17071  0.40700  Biso   1.000  C
  H126     1.0000 0.92530  0.04998  0.42140  Biso   1.000  H
  C161     1.0000 0.04311  0.17071  0.40700  Biso   1.000  C
  H127     1.0000 0.07470  0.04998  0.42140  Biso   1.000  H
  H128     1.0000 0.07474  0.04998  0.42140  Biso   1.000  H
  H129     1.0000 0.13491  0.86250  0.41091  Biso   1.000  H
  C162     1.0000 0.17753  0.75179  0.40078  Biso   1.000  C
  C163     1.0000 0.17756  0.75179  0.40078  Biso   1.000  C
  C164     1.0000 0.13379  0.61809  0.40328  Biso   1.000  C
  H130     1.0000 0.05939  0.63132  0.41431  Biso   1.000  H
  C165     1.0000 0.13383  0.61809  0.40328  Biso   1.000  C
  H131     1.0000 0.05942  0.63132  0.41431  Biso   1.000  H
  N34      1.0000 0.95570  0.89350  0.07760  Biso   1.000  N
  N35      1.0000 0.00000  0.75800  0.08800  Biso   1.000  N
  N36      1.0000 0.95566  0.89350  0.07760  Biso   1.000  N
  H132     1.0000 0.92694  0.20291  0.40460  Biso   1.000  H
  N37      1.0000 0.00000  0.21307  0.40069  Biso   1.000  N
  H133     1.0000 0.92690  0.20291  0.40460  Biso   1.000  H
  H134     1.0000 0.07310  0.20291  0.40460  Biso   1.000  H
  N38      1.0000 0.17637  0.66192  0.39760  Biso   1.000  N
  H135     1.0000 0.20819  0.78199  0.39810  Biso   1.000  H
  N39      1.0000 0.17633  0.66192  0.39760  Biso   1.000  N
  H136     1.0000 0.20823  0.78199  0.39810  Biso   1.000  H
  H137     1.0000 0.13390  0.55529  0.40269  Biso   1.000  H
  H138     1.0000 0.13394  0.55529  0.40269  Biso   1.000  H
  C166     1.0000 0.00000  0.93432  0.07720  Biso   1.000  C
  C167     1.0000 0.04199  0.80470  0.08360  Biso   1.000  C
  C168     1.0000 0.00000  0.31002  0.38121  Biso   1.000  C
  C169     1.0000 0.22264  0.61168  0.38139  Biso   1.000  C
  C170     1.0000 0.00000  0.03361  0.07969  Biso   1.000  C
  N40      1.0000 0.04434  0.89350  0.07760  Biso   1.000  N
  N41      1.0000 0.04437  0.89350  0.07760  Biso   1.000  N
  C171     1.0000 0.09005  0.75513  0.08882  Biso   1.000  C
  H139     1.0000 0.97042  0.34001  0.39742  Biso   1.000  H
  C172     1.0000 0.00000  0.31569  0.31400  Biso   1.000  C
  H140     1.0000 0.02962  0.34001  0.39742  Biso   1.000  H
  H141     1.0000 0.22119  0.55108  0.39810  Biso   1.000  H
  H142     1.0000 0.25189  0.64188  0.39842  Biso   1.000  H
  C173     1.0000 0.22648  0.60807  0.31341  Biso   1.000  C
  H143     1.0000 0.22123  0.55108  0.39810  Biso   1.000  H
  H144     1.0000 0.25193  0.64188  0.39842  Biso   1.000  H
  C174     1.0000 0.22652  0.60807  0.31341  Biso   1.000  C
  C175     1.0000 0.95589  0.07998  0.08301  Biso   1.000  C
  C176     1.0000 0.95593  0.07998  0.08301  Biso   1.000  C
  C177     1.0000 0.04411  0.07998  0.08301  Biso   1.000  C
  C178     1.0000 0.04407  0.07998  0.08301  Biso   1.000  C
  C179     1.0000 0.13401  0.79983  0.09191  Biso   1.000  C
  C180     1.0000 0.08953  0.66293  0.08968  Biso   1.000  C
  C181     1.0000 0.95581  0.31583  0.28122  Biso   1.000  C
  C182     1.0000 0.04419  0.31583  0.28122  Biso   1.000  C
  C183     1.0000 0.25010  0.67622  0.28099  Biso   1.000  C
  C184     1.0000 0.20465  0.53959  0.28108  Biso   1.000  C
  C185     1.0000 0.25014  0.67622  0.28099  Biso   1.000  C
  C186     1.0000 0.95689  0.17071  0.09300  Biso   1.000  C
  H145     1.0000 0.92534  0.04998  0.07860  Biso   1.000  H
  C187     1.0000 0.95693  0.17071  0.09300  Biso   1.000  C
  H146     1.0000 0.92530  0.04998  0.07860  Biso   1.000  H
  C188     1.0000 0.04311  0.17071  0.09300  Biso   1.000  C
  H147     1.0000 0.07470  0.04998  0.07860  Biso   1.000  H
  H148     1.0000 0.07474  0.04998  0.07860  Biso   1.000  H
  H149     1.0000 0.13491  0.86250  0.08909  Biso   1.000  H
  C189     1.0000 0.17753  0.75179  0.09922  Biso   1.000  C
  C190     1.0000 0.17756  0.75179  0.09922  Biso   1.000  C
  C191     1.0000 0.13379  0.61809  0.09672  Biso   1.000  C
  H150     1.0000 0.05939  0.63132  0.08569  Biso   1.000  H
  C192     1.0000 0.13383  0.61809  0.09672  Biso   1.000  C
  H151     1.0000 0.05942  0.63132  0.08569  Biso   1.000  H
  H152     1.0000 0.92523  0.31589  0.30211  Biso   1.000  H
  C193     1.0000 0.95581  0.31583  0.21878  Biso   1.000  C
  H153     1.0000 0.07481  0.31589  0.30211  Biso   1.000  H
  C194     1.0000 0.04419  0.31583  0.21878  Biso   1.000  C
  H154     1.0000 0.26620  0.72252  0.30211  Biso   1.000  H
  C195     1.0000 0.25010  0.67622  0.21901  Biso   1.000  C
  H155     1.0000 0.26623  0.72252  0.30211  Biso   1.000  H
  C196     1.0000 0.25014  0.67622  0.21901  Biso   1.000  C
  H156     1.0000 0.18949  0.49208  0.30211  Biso   1.000  H
  C197     1.0000 0.20465  0.53959  0.21892  Biso   1.000  C
  H157     1.0000 0.18952  0.49208  0.30211  Biso   1.000  H
  H158     1.0000 0.92694  0.20291  0.09540  Biso   1.000  H
  N42      1.0000 0.00000  0.21307  0.09931  Biso   1.000  N
  H159     1.0000 0.92690  0.20291  0.09540  Biso   1.000  H
  H160     1.0000 0.07310  0.20291  0.09540  Biso   1.000  H
  N43      1.0000 0.17637  0.66192  0.10240  Biso   1.000  N
  H161     1.0000 0.20819  0.78199  0.10190  Biso   1.000  H
  N44      1.0000 0.17633  0.66192  0.10240  Biso   1.000  N
  H162     1.0000 0.20823  0.78199  0.10190  Biso   1.000  H
  H163     1.0000 0.13390  0.55529  0.09731  Biso   1.000  H
  H164     1.0000 0.13394  0.55529  0.09731  Biso   1.000  H
  C198     1.0000 0.00000  0.31569  0.18600  Biso   1.000  C
  H165     1.0000 0.92523  0.31589  0.19789  Biso   1.000  H
  H166     1.0000 0.07481  0.31589  0.19789  Biso   1.000  H
  C199     1.0000 0.22648  0.60807  0.18659  Biso   1.000  C
  C200     1.0000 0.22652  0.60807  0.18659  Biso   1.000  C
  H167     1.0000 0.26620  0.72252  0.19789  Biso   1.000  H
  H168     1.0000 0.26623  0.72252  0.19789  Biso   1.000  H
  H169     1.0000 0.18949  0.49208  0.19789  Biso   1.000  H
  H170     1.0000 0.18952  0.49208  0.19789  Biso   1.000  H
  C201     1.0000 0.00000  0.31002  0.11879  Biso   1.000  C
  C202     1.0000 0.22264  0.61168  0.11861  Biso   1.000  C
  H171     1.0000 0.97042  0.34001  0.10258  Biso   1.000  H
  H172     1.0000 0.02962  0.34001  0.10258  Biso   1.000  H
  H173     1.0000 0.22119  0.55108  0.10190  Biso   1.000  H
  H174     1.0000 0.25189  0.64188  0.10158  Biso   1.000  H
  H175     1.0000 0.22123  0.55108  0.10190  Biso   1.000  H
  H176     1.0000 0.25193  0.64188  0.10158  Biso   1.000  H
  C203     1.0000 0.77739  0.61168  0.38139  Biso   1.000  C
  C204     1.0000 0.77356  0.60807  0.31341  Biso   1.000  C
  C205     1.0000 0.77352  0.60807  0.31341  Biso   1.000  C
  N45      1.0000 0.82363  0.66192  0.39760  Biso   1.000  N
  H177     1.0000 0.77885  0.55108  0.39810  Biso   1.000  H
  H178     1.0000 0.74815  0.64188  0.39842  Biso   1.000  H
  N46      1.0000 0.82367  0.66192  0.39760  Biso   1.000  N
  H179     1.0000 0.77881  0.55108  0.39810  Biso   1.000  H
  H180     1.0000 0.74811  0.64188  0.39842  Biso   1.000  H
  C206     1.0000 0.79539  0.53959  0.28108  Biso   1.000  C
  C207     1.0000 0.74993  0.67622  0.28099  Biso   1.000  C
  C208     1.0000 0.74990  0.67622  0.28099  Biso   1.000  C
  C209     1.0000 0.82251  0.75179  0.40078  Biso   1.000  C
  C210     1.0000 0.86625  0.61809  0.40328  Biso   1.000  C
  C211     1.0000 0.82247  0.75179  0.40078  Biso   1.000  C
  C212     1.0000 0.86621  0.61809  0.40328  Biso   1.000  C
  H181     1.0000 0.81051  0.49208  0.30211  Biso   1.000  H
  C213     1.0000 0.79539  0.53959  0.21892  Biso   1.000  C
  C214     1.0000 0.74993  0.67622  0.21901  Biso   1.000  C
  C215     1.0000 0.74990  0.67622  0.21901  Biso   1.000  C
  H182     1.0000 0.73384  0.72252  0.30211  Biso   1.000  H
  H183     1.0000 0.73380  0.72252  0.30211  Biso   1.000  H
  C216     1.0000 0.86603  0.79983  0.40809  Biso   1.000  C
  H184     1.0000 0.79185  0.78199  0.39810  Biso   1.000  H
  H185     1.0000 0.79181  0.78199  0.39810  Biso   1.000  H
  C217     1.0000 0.91051  0.66293  0.41032  Biso   1.000  C
  H186     1.0000 0.86614  0.55529  0.40269  Biso   1.000  H
  H187     1.0000 0.86610  0.55529  0.40269  Biso   1.000  H
  H188     1.0000 0.81051  0.49208  0.19789  Biso   1.000  H
  C218     1.0000 0.77356  0.60807  0.18659  Biso   1.000  C
  C219     1.0000 0.77352  0.60807  0.18659  Biso   1.000  C
  H189     1.0000 0.73384  0.72252  0.19789  Biso   1.000  H
  H190     1.0000 0.73380  0.72252  0.19789  Biso   1.000  H
  C220     1.0000 0.90999  0.75513  0.41118  Biso   1.000  C
  H191     1.0000 0.86513  0.86250  0.41091  Biso   1.000  H
  H192     1.0000 0.94065  0.63132  0.41431  Biso   1.000  H
  H193     1.0000 0.94061  0.63132  0.41431  Biso   1.000  H
  C221     1.0000 0.77739  0.61168  0.11861  Biso   1.000  C
  C222     1.0000 0.95805  0.80470  0.41640  Biso   1.000  C
  N47      1.0000 0.82363  0.66192  0.10240  Biso   1.000  N
  H194     1.0000 0.77885  0.55108  0.10190  Biso   1.000  H
  H195     1.0000 0.74815  0.64188  0.10158  Biso   1.000  H
  N48      1.0000 0.82367  0.66192  0.10240  Biso   1.000  N
  H196     1.0000 0.77881  0.55108  0.10190  Biso   1.000  H
  H197     1.0000 0.74811  0.64188  0.10158  Biso   1.000  H
  N49      1.0000 0.95570  0.89350  0.42240  Biso   1.000  N
  N50      1.0000 0.00000  0.75800  0.41200  Biso   1.000  N
  N51      1.0000 0.95566  0.89350  0.42240  Biso   1.000  N
  C223     1.0000 0.82251  0.75179  0.09922  Biso   1.000  C
  C224     1.0000 0.86625  0.61809  0.09672  Biso   1.000  C
  C225     1.0000 0.82247  0.75179  0.09922  Biso   1.000  C
  C226     1.0000 0.86621  0.61809  0.09672  Biso   1.000  C
  C227     1.0000 0.00000  0.93432  0.42280  Biso   1.000  C
  C228     1.0000 0.04199  0.80470  0.41640  Biso   1.000  C
  C229     1.0000 0.86603  0.79983  0.09191  Biso   1.000  C
  H198     1.0000 0.79185  0.78199  0.10190  Biso   1.000  H
  H199     1.0000 0.79181  0.78199  0.10190  Biso   1.000  H
  C230     1.0000 0.91051  0.66293  0.08968  Biso   1.000  C
  H200     1.0000 0.86614  0.55529  0.09731  Biso   1.000  H
  H201     1.0000 0.86610  0.55529  0.09731  Biso   1.000  H
  C231     1.0000 0.00000  0.03361  0.42031  Biso   1.000  C
  N52      1.0000 0.04434  0.89350  0.42240  Biso   1.000  N
  N53      1.0000 0.04437  0.89350  0.42240  Biso   1.000  N
  C232     1.0000 0.09005  0.75513  0.41118  Biso   1.000  C
  C233     1.0000 0.90999  0.75513  0.08882  Biso   1.000  C
  H202     1.0000 0.86513  0.86250  0.08909  Biso   1.000  H
  H203     1.0000 0.94065  0.63132  0.08569  Biso   1.000  H
  H204     1.0000 0.94061  0.63132  0.08569  Biso   1.000  H
  C234     1.0000 0.95589  0.07998  0.41699  Biso   1.000  C
  C235     1.0000 0.95593  0.07998  0.41699  Biso   1.000  C
  C236     1.0000 0.04411  0.07998  0.41699  Biso   1.000  C
  C237     1.0000 0.04407  0.07998  0.41699  Biso   1.000  C
  C238     1.0000 0.13401  0.79983  0.40809  Biso   1.000  C
  C239     1.0000 0.08953  0.66293  0.41032  Biso   1.000  C
  C240     1.0000 0.95805  0.80470  0.08360  Biso   1.000  C
  C241     1.0000 0.95689  0.17071  0.40700  Biso   1.000  C
  H205     1.0000 0.92534  0.04998  0.42140  Biso   1.000  H
  C242     1.0000 0.95693  0.17071  0.40700  Biso   1.000  C
  H206     1.0000 0.92530  0.04998  0.42140  Biso   1.000  H
  C243     1.0000 0.04311  0.17071  0.40700  Biso   1.000  C
  H207     1.0000 0.07470  0.04998  0.42140  Biso   1.000  H
  H208     1.0000 0.07474  0.04998  0.42140  Biso   1.000  H
  H209     1.0000 0.13491  0.86250  0.41091  Biso   1.000  H
  C244     1.0000 0.17753  0.75179  0.40078  Biso   1.000  C
  C245     1.0000 0.17756  0.75179  0.40078  Biso   1.000  C
  C246     1.0000 0.13379  0.61809  0.40328  Biso   1.000  C
  H210     1.0000 0.05939  0.63132  0.41431  Biso   1.000  H
  C247     1.0000 0.13383  0.61809  0.40328  Biso   1.000  C
  H211     1.0000 0.05942  0.63132  0.41431  Biso   1.000  H
  N54      1.0000 0.95570  0.89350  0.07760  Biso   1.000  N
  N55      1.0000 0.00000  0.75800  0.08800  Biso   1.000  N
  N56      1.0000 0.95566  0.89350  0.07760  Biso   1.000  N
  H212     1.0000 0.92694  0.20291  0.40460  Biso   1.000  H
  N57      1.0000 0.00000  0.21307  0.40069  Biso   1.000  N
  H213     1.0000 0.92690  0.20291  0.40460  Biso   1.000  H
  H214     1.0000 0.07310  0.20291  0.40460  Biso   1.000  H
  N58      1.0000 0.17637  0.66192  0.39760  Biso   1.000  N
  H215     1.0000 0.20819  0.78199  0.39810  Biso   1.000  H
  N59      1.0000 0.17633  0.66192  0.39760  Biso   1.000  N
  H216     1.0000 0.20823  0.78199  0.39810  Biso   1.000  H
  H217     1.0000 0.13390  0.55529  0.40269  Biso   1.000  H
  H218     1.0000 0.13394  0.55529  0.40269  Biso   1.000  H
  C248     1.0000 0.00000  0.93432  0.07720  Biso   1.000  C
  C249     1.0000 0.04199  0.80470  0.08360  Biso   1.000  C
  C250     1.0000 0.00000  0.31002  0.38121  Biso   1.000  C
  C251     1.0000 0.22264  0.61168  0.38139  Biso   1.000  C
  C252     1.0000 0.00000  0.03361  0.07969  Biso   1.000  C
  N60      1.0000 0.04434  0.89350  0.07760  Biso   1.000  N
  N61      1.0000 0.04437  0.89350  0.07760  Biso   1.000  N
  C253     1.0000 0.09005  0.75513  0.08882  Biso   1.000  C
  H219     1.0000 0.97042  0.34001  0.39742  Biso   1.000  H
  C254     1.0000 0.00000  0.31569  0.31400  Biso   1.000  C
  H220     1.0000 0.02962  0.34001  0.39742  Biso   1.000  H
  H221     1.0000 0.22119  0.55108  0.39810  Biso   1.000  H
  H222     1.0000 0.25189  0.64188  0.39842  Biso   1.000  H
  C255     1.0000 0.22648  0.60807  0.31341  Biso   1.000  C
  H223     1.0000 0.22123  0.55108  0.39810  Biso   1.000  H
  H224     1.0000 0.25193  0.64188  0.39842  Biso   1.000  H
  C256     1.0000 0.22652  0.60807  0.31341  Biso   1.000  C
  C257     1.0000 0.95589  0.07998  0.08301  Biso   1.000  C
  C258     1.0000 0.95593  0.07998  0.08301  Biso   1.000  C
  C259     1.0000 0.04411  0.07998  0.08301  Biso   1.000  C
  C260     1.0000 0.04407  0.07998  0.08301  Biso   1.000  C
  C261     1.0000 0.13401  0.79983  0.09191  Biso   1.000  C
  C262     1.0000 0.08953  0.66293  0.08968  Biso   1.000  C
  C263     1.0000 0.95581  0.31583  0.28122  Biso   1.000  C
  C264     1.0000 0.04419  0.31583  0.28122  Biso   1.000  C
  C265     1.0000 0.25010  0.67622  0.28099  Biso   1.000  C
  C266     1.0000 0.20465  0.53959  0.28108  Biso   1.000  C
  C267     1.0000 0.25014  0.67622  0.28099  Biso   1.000  C
  C268     1.0000 0.95689  0.17071  0.09300  Biso   1.000  C
  H225     1.0000 0.92534  0.04998  0.07860  Biso   1.000  H
  C269     1.0000 0.95693  0.17071  0.09300  Biso   1.000  C
  H226     1.0000 0.92530  0.04998  0.07860  Biso   1.000  H
  C270     1.0000 0.04311  0.17071  0.09300  Biso   1.000  C
  H227     1.0000 0.07470  0.04998  0.07860  Biso   1.000  H
  H228     1.0000 0.07474  0.04998  0.07860  Biso   1.000  H
  H229     1.0000 0.13491  0.86250  0.08909  Biso   1.000  H
  C271     1.0000 0.17753  0.75179  0.09922  Biso   1.000  C
  C272     1.0000 0.17756  0.75179  0.09922  Biso   1.000  C
  C273     1.0000 0.13379  0.61809  0.09672  Biso   1.000  C
  H230     1.0000 0.05939  0.63132  0.08569  Biso   1.000  H
  C274     1.0000 0.13383  0.61809  0.09672  Biso   1.000  C
  H231     1.0000 0.05942  0.63132  0.08569  Biso   1.000  H
  C275     1.0000 0.95581  0.31583  0.21878  Biso   1.000  C
  H232     1.0000 0.92523  0.31589  0.30211  Biso   1.000  H
  C276     1.0000 0.04419  0.31583  0.21878  Biso   1.000  C
  H233     1.0000 0.07481  0.31589  0.30211  Biso   1.000  H
  C277     1.0000 0.25010  0.67622  0.21901  Biso   1.000  C
  C278     1.0000 0.25014  0.67622  0.21901  Biso   1.000  C
  H234     1.0000 0.26620  0.72252  0.30211  Biso   1.000  H
  H235     1.0000 0.26623  0.72252  0.30211  Biso   1.000  H
  C279     1.0000 0.20465  0.53959  0.21892  Biso   1.000  C
  H236     1.0000 0.18949  0.49208  0.30211  Biso   1.000  H
  H237     1.0000 0.18952  0.49208  0.30211  Biso   1.000  H
  H238     1.0000 0.92694  0.20291  0.09540  Biso   1.000  H
  N62      1.0000 0.00000  0.21307  0.09931  Biso   1.000  N
  H239     1.0000 0.92690  0.20291  0.09540  Biso   1.000  H
  H240     1.0000 0.07310  0.20291  0.09540  Biso   1.000  H
  N63      1.0000 0.17637  0.66192  0.10240  Biso   1.000  N
  H241     1.0000 0.20819  0.78199  0.10190  Biso   1.000  H
  N64      1.0000 0.17633  0.66192  0.10240  Biso   1.000  N
  H242     1.0000 0.20823  0.78199  0.10190  Biso   1.000  H
  H243     1.0000 0.13390  0.55529  0.09731  Biso   1.000  H
  H244     1.0000 0.13394  0.55529  0.09731  Biso   1.000  H
  C280     1.0000 0.00000  0.31569  0.18600  Biso   1.000  C
  H245     1.0000 0.92523  0.31589  0.19789  Biso   1.000  H
  H246     1.0000 0.07481  0.31589  0.19789  Biso   1.000  H
  C281     1.0000 0.22648  0.60807  0.18659  Biso   1.000  C
  C282     1.0000 0.22652  0.60807  0.18659  Biso   1.000  C
  H247     1.0000 0.26620  0.72252  0.19789  Biso   1.000  H
  H248     1.0000 0.26623  0.72252  0.19789  Biso   1.000  H
  H249     1.0000 0.18949  0.49208  0.19789  Biso   1.000  H
  H250     1.0000 0.18952  0.49208  0.19789  Biso   1.000  H
  C283     1.0000 0.00000  0.31002  0.11879  Biso   1.000  C
  C284     1.0000 0.22264  0.61168  0.11861  Biso   1.000  C
  H251     1.0000 0.97042  0.34001  0.10258  Biso   1.000  H
  H252     1.0000 0.02962  0.34001  0.10258  Biso   1.000  H
  H253     1.0000 0.22119  0.55108  0.10190  Biso   1.000  H
  H254     1.0000 0.25189  0.64188  0.10158  Biso   1.000  H
  H255     1.0000 0.22123  0.55108  0.10190  Biso   1.000  H
  H256     1.0000 0.25193  0.64188  0.10158  Biso   1.000  H
  C285     1.0000 0.77739  0.38832  0.61861  Biso   1.000  C
  N65      1.0000 0.82363  0.33808  0.60240  Biso   1.000  N
  H257     1.0000 0.77885  0.44892  0.60190  Biso   1.000  H
  H258     1.0000 0.74815  0.35812  0.60158  Biso   1.000  H
  C286     1.0000 0.77356  0.39193  0.68659  Biso   1.000  C
  N66      1.0000 0.82367  0.33808  0.60240  Biso   1.000  N
  H259     1.0000 0.77881  0.44892  0.60190  Biso   1.000  H
  H260     1.0000 0.74811  0.35812  0.60158  Biso   1.000  H
  C287     1.0000 0.77352  0.39193  0.68659  Biso   1.000  C
  C288     1.0000 0.82251  0.24821  0.59922  Biso   1.000  C
  C289     1.0000 0.86625  0.38191  0.59668  Biso   1.000  C
  C290     1.0000 0.82247  0.24821  0.59922  Biso   1.000  C
  C291     1.0000 0.86621  0.38191  0.59668  Biso   1.000  C
  C292     1.0000 0.74993  0.32378  0.71901  Biso   1.000  C
  C293     1.0000 0.79539  0.46041  0.71892  Biso   1.000  C
  C294     1.0000 0.74990  0.32378  0.71901  Biso   1.000  C
  C295     1.0000 0.86603  0.20017  0.59191  Biso   1.000  C
  H261     1.0000 0.79185  0.21801  0.60190  Biso   1.000  H
  H262     1.0000 0.79181  0.21801  0.60190  Biso   1.000  H
  H263     1.0000 0.86614  0.44471  0.59731  Biso   1.000  H
  C296     1.0000 0.91051  0.33707  0.58968  Biso   1.000  C
  H264     1.0000 0.86610  0.44471  0.59731  Biso   1.000  H
  C297     1.0000 0.74993  0.32378  0.78099  Biso   1.000  C
  H265     1.0000 0.73384  0.27748  0.69789  Biso   1.000  H
  C298     1.0000 0.74990  0.32378  0.78099  Biso   1.000  C
  H266     1.0000 0.73380  0.27748  0.69789  Biso   1.000  H
  C299     1.0000 0.79539  0.46041  0.78108  Biso   1.000  C
  H267     1.0000 0.81051  0.50792  0.69789  Biso   1.000  H
  C300     1.0000 0.90999  0.24487  0.58877  Biso   1.000  C
  H268     1.0000 0.86513  0.13750  0.58909  Biso   1.000  H
  H269     1.0000 0.94065  0.36868  0.58569  Biso   1.000  H
  H270     1.0000 0.94061  0.36868  0.58569  Biso   1.000  H
  C301     1.0000 0.77356  0.39193  0.81341  Biso   1.000  C
  H271     1.0000 0.73384  0.27748  0.80211  Biso   1.000  H
  C302     1.0000 0.77352  0.39193  0.81341  Biso   1.000  C
  H272     1.0000 0.73380  0.27748  0.80211  Biso   1.000  H
  H273     1.0000 0.81051  0.50792  0.80211  Biso   1.000  H
  C303     1.0000 0.95805  0.19530  0.58360  Biso   1.000  C
  C304     1.0000 0.77739  0.38832  0.88139  Biso   1.000  C
  N67      1.0000 0.95570  0.10650  0.57760  Biso   1.000  N
  N68      1.0000 0.95566  0.10650  0.57760  Biso   1.000  N
  N69      1.0000 0.00000  0.24200  0.58800  Biso   1.000  N
  N70      1.0000 0.82363  0.33808  0.89760  Biso   1.000  N
  H274     1.0000 0.77885  0.44892  0.89810  Biso   1.000  H
  H275     1.0000 0.74815  0.35812  0.89837  Biso   1.000  H
  N71      1.0000 0.82367  0.33808  0.89760  Biso   1.000  N
  H276     1.0000 0.77881  0.44892  0.89810  Biso   1.000  H
  H277     1.0000 0.74811  0.35812  0.89837  Biso   1.000  H
  C305     1.0000 0.00000  0.06568  0.57720  Biso   1.000  C
  C306     1.0000 0.04199  0.19530  0.58360  Biso   1.000  C
  C307     1.0000 0.82251  0.24821  0.90078  Biso   1.000  C
  C308     1.0000 0.86625  0.38191  0.90328  Biso   1.000  C
  C309     1.0000 0.82247  0.24821  0.90078  Biso   1.000  C
  C310     1.0000 0.86621  0.38191  0.90328  Biso   1.000  C
  C311     1.0000 0.00000  0.96639  0.57969  Biso   1.000  C
  N72      1.0000 0.04434  0.10650  0.57760  Biso   1.000  N
  N73      1.0000 0.04437  0.10650  0.57760  Biso   1.000  N
  C312     1.0000 0.09005  0.24487  0.58877  Biso   1.000  C
  C313     1.0000 0.86603  0.20017  0.90809  Biso   1.000  C
  H278     1.0000 0.79185  0.21801  0.89810  Biso   1.000  H
  H279     1.0000 0.79181  0.21801  0.89810  Biso   1.000  H
  H280     1.0000 0.86614  0.44471  0.90269  Biso   1.000  H
  C314     1.0000 0.91051  0.33707  0.91032  Biso   1.000  C
  H281     1.0000 0.86610  0.44471  0.90269  Biso   1.000  H
  C315     1.0000 0.95589  0.92002  0.58301  Biso   1.000  C
  C316     1.0000 0.95593  0.92002  0.58301  Biso   1.000  C
  C317     1.0000 0.04411  0.92002  0.58301  Biso   1.000  C
  C318     1.0000 0.04407  0.92002  0.58301  Biso   1.000  C
  C319     1.0000 0.13401  0.20017  0.59191  Biso   1.000  C
  C320     1.0000 0.08953  0.33707  0.58968  Biso   1.000  C
  C321     1.0000 0.90999  0.24487  0.91118  Biso   1.000  C
  H282     1.0000 0.86513  0.13750  0.91091  Biso   1.000  H
  H283     1.0000 0.94065  0.36868  0.91431  Biso   1.000  H
  H284     1.0000 0.94061  0.36868  0.91431  Biso   1.000  H
  C322     1.0000 0.95689  0.82929  0.59300  Biso   1.000  C
  H285     1.0000 0.92534  0.95002  0.57860  Biso   1.000  H
  C323     1.0000 0.95693  0.82929  0.59300  Biso   1.000  C
  H286     1.0000 0.92530  0.95002  0.57860  Biso   1.000  H
  C324     1.0000 0.04311  0.82929  0.59300  Biso   1.000  C
  H287     1.0000 0.07470  0.95002  0.57860  Biso   1.000  H
  H288     1.0000 0.07474  0.95002  0.57860  Biso   1.000  H
  H289     1.0000 0.13491  0.13750  0.58909  Biso   1.000  H
  C325     1.0000 0.17753  0.24821  0.59922  Biso   1.000  C
  C326     1.0000 0.17756  0.24821  0.59922  Biso   1.000  C
  C327     1.0000 0.13379  0.38191  0.59668  Biso   1.000  C
  H290     1.0000 0.05939  0.36868  0.58569  Biso   1.000  H
  C328     1.0000 0.13383  0.38191  0.59668  Biso   1.000  C
  H291     1.0000 0.05942  0.36868  0.58569  Biso   1.000  H
  C329     1.0000 0.95805  0.19530  0.91640  Biso   1.000  C
  H292     1.0000 0.92694  0.79709  0.59540  Biso   1.000  H
  N74      1.0000 0.00000  0.78693  0.59931  Biso   1.000  N
  H293     1.0000 0.92690  0.79709  0.59540  Biso   1.000  H
  H294     1.0000 0.07310  0.79709  0.59540  Biso   1.000  H
  N75      1.0000 0.17637  0.33808  0.60240  Biso   1.000  N
  H295     1.0000 0.20819  0.21801  0.60190  Biso   1.000  H
  N76      1.0000 0.17633  0.33808  0.60240  Biso   1.000  N
  H296     1.0000 0.20823  0.21801  0.60190  Biso   1.000  H
  H297     1.0000 0.13390  0.44471  0.59731  Biso   1.000  H
  H298     1.0000 0.13394  0.44471  0.59731  Biso   1.000  H
  N77      1.0000 0.95570  0.10650  0.92240  Biso   1.000  N
  N78      1.0000 0.95566  0.10650  0.92240  Biso   1.000  N
  N79      1.0000 0.00000  0.24200  0.91200  Biso   1.000  N
  C330     1.0000 0.00000  0.68998  0.61879  Biso   1.000  C
  C331     1.0000 0.22264  0.38832  0.61861  Biso   1.000  C
  C332     1.0000 0.00000  0.06568  0.92280  Biso   1.000  C
  C333     1.0000 0.04199  0.19530  0.91640  Biso   1.000  C
  H299     1.0000 0.97042  0.65999  0.60258  Biso   1.000  H
  C334     1.0000 0.00000  0.68431  0.68600  Biso   1.000  C
  H300     1.0000 0.02962  0.65999  0.60258  Biso   1.000  H
  H301     1.0000 0.22119  0.44892  0.60190  Biso   1.000  H
  H302     1.0000 0.25189  0.35812  0.60158  Biso   1.000  H
  C335     1.0000 0.22648  0.39193  0.68659  Biso   1.000  C
  H303     1.0000 0.22123  0.44892  0.60190  Biso   1.000  H
  H304     1.0000 0.25193  0.35812  0.60158  Biso   1.000  H
  C336     1.0000 0.22652  0.39193  0.68659  Biso   1.000  C
  C337     1.0000 0.00000  0.96639  0.92031  Biso   1.000  C
  N80      1.0000 0.04434  0.10650  0.92240  Biso   1.000  N
  N81      1.0000 0.04437  0.10650  0.92240  Biso   1.000  N
  C338     1.0000 0.09005  0.24487  0.91118  Biso   1.000  C
  C339     1.0000 0.95581  0.68417  0.71878  Biso   1.000  C
  C340     1.0000 0.04419  0.68417  0.71878  Biso   1.000  C
  C341     1.0000 0.25010  0.32378  0.71901  Biso   1.000  C
  C342     1.0000 0.20465  0.46041  0.71892  Biso   1.000  C
  C343     1.0000 0.25014  0.32378  0.71901  Biso   1.000  C
  C344     1.0000 0.95589  0.92002  0.91699  Biso   1.000  C
  C345     1.0000 0.95593  0.92002  0.91699  Biso   1.000  C
  C346     1.0000 0.04411  0.92002  0.91699  Biso   1.000  C
  C347     1.0000 0.04407  0.92002  0.91699  Biso   1.000  C
  C348     1.0000 0.13401  0.20017  0.90809  Biso   1.000  C
  C349     1.0000 0.08953  0.33707  0.91032  Biso   1.000  C
  C350     1.0000 0.95581  0.68417  0.78122  Biso   1.000  C
  H305     1.0000 0.92523  0.68411  0.69789  Biso   1.000  H
  C351     1.0000 0.04419  0.68417  0.78122  Biso   1.000  C
  H306     1.0000 0.07481  0.68411  0.69789  Biso   1.000  H
  C352     1.0000 0.25010  0.32378  0.78099  Biso   1.000  C
  H307     1.0000 0.26620  0.27748  0.69789  Biso   1.000  H
  C353     1.0000 0.25014  0.32378  0.78099  Biso   1.000  C
  H308     1.0000 0.26623  0.27748  0.69789  Biso   1.000  H
  C354     1.0000 0.20465  0.46041  0.78108  Biso   1.000  C
  H309     1.0000 0.18949  0.50792  0.69789  Biso   1.000  H
  H310     1.0000 0.18952  0.50792  0.69789  Biso   1.000  H
  C355     1.0000 0.95689  0.82929  0.90700  Biso   1.000  C
  H311     1.0000 0.92534  0.95002  0.92140  Biso   1.000  H
  C356     1.0000 0.95693  0.82929  0.90700  Biso   1.000  C
  H312     1.0000 0.92530  0.95002  0.92140  Biso   1.000  H
  C357     1.0000 0.04311  0.82929  0.90700  Biso   1.000  C
  H313     1.0000 0.07470  0.95002  0.92140  Biso   1.000  H
  H314     1.0000 0.07474  0.95002  0.92140  Biso   1.000  H
  H315     1.0000 0.13491  0.13750  0.91091  Biso   1.000  H
  C358     1.0000 0.17753  0.24821  0.90078  Biso   1.000  C
  C359     1.0000 0.17756  0.24821  0.90078  Biso   1.000  C
  C360     1.0000 0.13379  0.38191  0.90328  Biso   1.000  C
  H316     1.0000 0.05939  0.36868  0.91431  Biso   1.000  H
  C361     1.0000 0.13383  0.38191  0.90328  Biso   1.000  C
  H317     1.0000 0.05942  0.36868  0.91431  Biso   1.000  H
  H318     1.0000 0.92523  0.68411  0.80211  Biso   1.000  H
  C362     1.0000 0.00000  0.68431  0.81400  Biso   1.000  C
  H319     1.0000 0.07481  0.68411  0.80211  Biso   1.000  H
  C363     1.0000 0.22648  0.39193  0.81341  Biso   1.000  C
  H320     1.0000 0.26620  0.27748  0.80211  Biso   1.000  H
  C364     1.0000 0.22652  0.39193  0.81341  Biso   1.000  C
  H321     1.0000 0.26623  0.27748  0.80211  Biso   1.000  H
  H322     1.0000 0.18949  0.50792  0.80211  Biso   1.000  H
  H323     1.0000 0.18952  0.50792  0.80211  Biso   1.000  H
  H324     1.0000 0.92694  0.79709  0.90460  Biso   1.000  H
  N82      1.0000 0.00000  0.78693  0.90069  Biso   1.000  N
  H325     1.0000 0.92690  0.79709  0.90460  Biso   1.000  H
  H326     1.0000 0.07310  0.79709  0.90460  Biso   1.000  H
  N83      1.0000 0.17637  0.33808  0.89760  Biso   1.000  N
  H327     1.0000 0.20819  0.21801  0.89810  Biso   1.000  H
  N84      1.0000 0.17633  0.33808  0.89760  Biso   1.000  N
  H328     1.0000 0.20823  0.21801  0.89810  Biso   1.000  H
  H329     1.0000 0.13390  0.44471  0.90269  Biso   1.000  H
  H330     1.0000 0.13394  0.44471  0.90269  Biso   1.000  H
  C365     1.0000 0.00000  0.68998  0.88121  Biso   1.000  C
  C366     1.0000 0.22264  0.38832  0.88139  Biso   1.000  C
  H331     1.0000 0.97042  0.65999  0.89738  Biso   1.000  H
  H332     1.0000 0.02962  0.65999  0.89738  Biso   1.000  H
  H333     1.0000 0.22119  0.44892  0.89810  Biso   1.000  H
  H334     1.0000 0.25189  0.35812  0.89837  Biso   1.000  H
  H335     1.0000 0.22123  0.44892  0.89810  Biso   1.000  H
  H336     1.0000 0.25193  0.35812  0.89837  Biso   1.000  H
  C367     1.0000 0.77739  0.38832  0.61861  Biso   1.000  C
  N85      1.0000 0.82363  0.33808  0.60240  Biso   1.000  N
  H337     1.0000 0.77885  0.44892  0.60190  Biso   1.000  H
  H338     1.0000 0.74815  0.35812  0.60158  Biso   1.000  H
  C368     1.0000 0.77356  0.39193  0.68659  Biso   1.000  C
  N86      1.0000 0.82367  0.33808  0.60240  Biso   1.000  N
  H339     1.0000 0.77881  0.44892  0.60190  Biso   1.000  H
  H340     1.0000 0.74811  0.35812  0.60158  Biso   1.000  H
  C369     1.0000 0.77352  0.39193  0.68659  Biso   1.000  C
  C370     1.0000 0.82251  0.24821  0.59922  Biso   1.000  C
  C371     1.0000 0.86625  0.38191  0.59668  Biso   1.000  C
  C372     1.0000 0.82247  0.24821  0.59922  Biso   1.000  C
  C373     1.0000 0.86621  0.38191  0.59668  Biso   1.000  C
  C374     1.0000 0.79539  0.46041  0.71892  Biso   1.000  C
  C375     1.0000 0.74993  0.32378  0.71901  Biso   1.000  C
  C376     1.0000 0.74990  0.32378  0.71901  Biso   1.000  C
  C377     1.0000 0.86603  0.20017  0.59191  Biso   1.000  C
  H341     1.0000 0.79185  0.21801  0.60190  Biso   1.000  H
  H342     1.0000 0.79181  0.21801  0.60190  Biso   1.000  H
  C378     1.0000 0.91051  0.33707  0.58968  Biso   1.000  C
  H343     1.0000 0.86614  0.44471  0.59731  Biso   1.000  H
  H344     1.0000 0.86610  0.44471  0.59731  Biso   1.000  H
  C379     1.0000 0.79539  0.46041  0.78108  Biso   1.000  C
  H345     1.0000 0.81051  0.50792  0.69789  Biso   1.000  H
  C380     1.0000 0.74993  0.32378  0.78099  Biso   1.000  C
  H346     1.0000 0.73384  0.27748  0.69789  Biso   1.000  H
  C381     1.0000 0.74990  0.32378  0.78099  Biso   1.000  C
  H347     1.0000 0.73380  0.27748  0.69789  Biso   1.000  H
  C382     1.0000 0.90999  0.24487  0.58877  Biso   1.000  C
  H348     1.0000 0.86513  0.13750  0.58909  Biso   1.000  H
  H349     1.0000 0.94065  0.36868  0.58569  Biso   1.000  H
  H350     1.0000 0.94061  0.36868  0.58569  Biso   1.000  H
  H351     1.0000 0.81051  0.50792  0.80211  Biso   1.000  H
  C383     1.0000 0.77356  0.39193  0.81341  Biso   1.000  C
  C384     1.0000 0.77352  0.39193  0.81341  Biso   1.000  C
  H352     1.0000 0.73384  0.27748  0.80211  Biso   1.000  H
  H353     1.0000 0.73380  0.27748  0.80211  Biso   1.000  H
  C385     1.0000 0.95805  0.19530  0.58360  Biso   1.000  C
  C386     1.0000 0.77739  0.38832  0.88139  Biso   1.000  C
  N87      1.0000 0.95570  0.10650  0.57760  Biso   1.000  N
  N88      1.0000 0.95566  0.10650  0.57760  Biso   1.000  N
  N89      1.0000 0.00000  0.24200  0.58800  Biso   1.000  N
  N90      1.0000 0.82363  0.33808  0.89760  Biso   1.000  N
  H354     1.0000 0.77885  0.44892  0.89810  Biso   1.000  H
  H355     1.0000 0.74815  0.35812  0.89837  Biso   1.000  H
  N91      1.0000 0.82367  0.33808  0.89760  Biso   1.000  N
  H356     1.0000 0.77881  0.44892  0.89810  Biso   1.000  H
  H357     1.0000 0.74811  0.35812  0.89837  Biso   1.000  H
  C387     1.0000 0.00000  0.06568  0.57720  Biso   1.000  C
  C388     1.0000 0.04199  0.19530  0.58360  Biso   1.000  C
  C389     1.0000 0.82251  0.24821  0.90078  Biso   1.000  C
  C390     1.0000 0.86625  0.38191  0.90328  Biso   1.000  C
  C391     1.0000 0.82247  0.24821  0.90078  Biso   1.000  C
  C392     1.0000 0.86621  0.38191  0.90328  Biso   1.000  C
  C393     1.0000 0.00000  0.96639  0.57969  Biso   1.000  C
  N92      1.0000 0.04434  0.10650  0.57760  Biso   1.000  N
  N93      1.0000 0.04437  0.10650  0.57760  Biso   1.000  N
  C394     1.0000 0.09005  0.24487  0.58877  Biso   1.000  C
  C395     1.0000 0.86603  0.20017  0.90809  Biso   1.000  C
  H358     1.0000 0.79185  0.21801  0.89810  Biso   1.000  H
  H359     1.0000 0.79181  0.21801  0.89810  Biso   1.000  H
  C396     1.0000 0.91051  0.33707  0.91032  Biso   1.000  C
  H360     1.0000 0.86614  0.44471  0.90269  Biso   1.000  H
  H361     1.0000 0.86610  0.44471  0.90269  Biso   1.000  H
  C397     1.0000 0.95589  0.92002  0.58301  Biso   1.000  C
  C398     1.0000 0.95593  0.92002  0.58301  Biso   1.000  C
  C399     1.0000 0.04411  0.92002  0.58301  Biso   1.000  C
  C400     1.0000 0.04407  0.92002  0.58301  Biso   1.000  C
  C401     1.0000 0.13401  0.20017  0.59191  Biso   1.000  C
  C402     1.0000 0.08953  0.33707  0.58968  Biso   1.000  C
  C403     1.0000 0.90999  0.24487  0.91118  Biso   1.000  C
  H362     1.0000 0.86513  0.13750  0.91091  Biso   1.000  H
  H363     1.0000 0.94065  0.36868  0.91431  Biso   1.000  H
  H364     1.0000 0.94061  0.36868  0.91431  Biso   1.000  H
  C404     1.0000 0.95689  0.82929  0.59300  Biso   1.000  C
  H365     1.0000 0.92534  0.95002  0.57860  Biso   1.000  H
  C405     1.0000 0.95693  0.82929  0.59300  Biso   1.000  C
  H366     1.0000 0.92530  0.95002  0.57860  Biso   1.000  H
  C406     1.0000 0.04311  0.82929  0.59300  Biso   1.000  C
  H367     1.0000 0.07470  0.95002  0.57860  Biso   1.000  H
  H368     1.0000 0.07474  0.95002  0.57860  Biso   1.000  H
  H369     1.0000 0.13491  0.13750  0.58909  Biso   1.000  H
  C407     1.0000 0.17753  0.24821  0.59922  Biso   1.000  C
  C408     1.0000 0.17756  0.24821  0.59922  Biso   1.000  C
  C409     1.0000 0.13379  0.38191  0.59668  Biso   1.000  C
  H370     1.0000 0.05939  0.36868  0.58569  Biso   1.000  H
  C410     1.0000 0.13383  0.38191  0.59668  Biso   1.000  C
  H371     1.0000 0.05942  0.36868  0.58569  Biso   1.000  H
  C411     1.0000 0.95805  0.19530  0.91640  Biso   1.000  C
  H372     1.0000 0.92694  0.79709  0.59540  Biso   1.000  H
  N94      1.0000 0.00000  0.78693  0.59931  Biso   1.000  N
  H373     1.0000 0.92690  0.79709  0.59540  Biso   1.000  H
  H374     1.0000 0.07310  0.79709  0.59540  Biso   1.000  H
  N95      1.0000 0.17637  0.33808  0.60240  Biso   1.000  N
  H375     1.0000 0.20819  0.21801  0.60190  Biso   1.000  H
  N96      1.0000 0.17633  0.33808  0.60240  Biso   1.000  N
  H376     1.0000 0.20823  0.21801  0.60190  Biso   1.000  H
  H377     1.0000 0.13390  0.44471  0.59731  Biso   1.000  H
  H378     1.0000 0.13394  0.44471  0.59731  Biso   1.000  H
  N97      1.0000 0.95570  0.10650  0.92240  Biso   1.000  N
  N98      1.0000 0.95566  0.10650  0.92240  Biso   1.000  N
  N99      1.0000 0.00000  0.24200  0.91200  Biso   1.000  N
  C412     1.0000 0.00000  0.68998  0.61879  Biso   1.000  C
  C413     1.0000 0.22264  0.38832  0.61861  Biso   1.000  C
  C414     1.0000 0.00000  0.06568  0.92280  Biso   1.000  C
  C415     1.0000 0.04199  0.19530  0.91640  Biso   1.000  C
  H379     1.0000 0.97042  0.65999  0.60258  Biso   1.000  H
  C416     1.0000 0.00000  0.68431  0.68600  Biso   1.000  C
  H380     1.0000 0.02962  0.65999  0.60258  Biso   1.000  H
  H381     1.0000 0.22119  0.44892  0.60190  Biso   1.000  H
  H382     1.0000 0.25189  0.35812  0.60158  Biso   1.000  H
  C417     1.0000 0.22648  0.39193  0.68659  Biso   1.000  C
  H383     1.0000 0.22123  0.44892  0.60190  Biso   1.000  H
  H384     1.0000 0.25193  0.35812  0.60158  Biso   1.000  H
  C418     1.0000 0.22652  0.39193  0.68659  Biso   1.000  C
  C419     1.0000 0.00000  0.96639  0.92031  Biso   1.000  C
  N100     1.0000 0.04434  0.10650  0.92240  Biso   1.000  N
  N101     1.0000 0.04437  0.10650  0.92240  Biso   1.000  N
  C420     1.0000 0.09005  0.24487  0.91118  Biso   1.000  C
  C421     1.0000 0.95581  0.68417  0.71878  Biso   1.000  C
  C422     1.0000 0.04419  0.68417  0.71878  Biso   1.000  C
  C423     1.0000 0.25010  0.32378  0.71901  Biso   1.000  C
  C424     1.0000 0.20465  0.46041  0.71892  Biso   1.000  C
  C425     1.0000 0.25014  0.32378  0.71901  Biso   1.000  C
  C426     1.0000 0.95589  0.92002  0.91699  Biso   1.000  C
  C427     1.0000 0.95593  0.92002  0.91699  Biso   1.000  C
  C428     1.0000 0.04411  0.92002  0.91699  Biso   1.000  C
  C429     1.0000 0.04407  0.92002  0.91699  Biso   1.000  C
  C430     1.0000 0.13401  0.20017  0.90809  Biso   1.000  C
  C431     1.0000 0.08953  0.33707  0.91032  Biso   1.000  C
  C432     1.0000 0.95581  0.68417  0.78122  Biso   1.000  C
  H385     1.0000 0.92523  0.68411  0.69789  Biso   1.000  H
  C433     1.0000 0.04419  0.68417  0.78122  Biso   1.000  C
  H386     1.0000 0.07481  0.68411  0.69789  Biso   1.000  H
  C434     1.0000 0.25010  0.32378  0.78099  Biso   1.000  C
  H387     1.0000 0.26620  0.27748  0.69789  Biso   1.000  H
  C435     1.0000 0.25014  0.32378  0.78099  Biso   1.000  C
  H388     1.0000 0.26623  0.27748  0.69789  Biso   1.000  H
  C436     1.0000 0.20465  0.46041  0.78108  Biso   1.000  C
  H389     1.0000 0.18949  0.50792  0.69789  Biso   1.000  H
  H390     1.0000 0.18952  0.50792  0.69789  Biso   1.000  H
  C437     1.0000 0.95689  0.82929  0.90700  Biso   1.000  C
  H391     1.0000 0.92534  0.95002  0.92140  Biso   1.000  H
  C438     1.0000 0.95693  0.82929  0.90700  Biso   1.000  C
  H392     1.0000 0.92530  0.95002  0.92140  Biso   1.000  H
  C439     1.0000 0.04311  0.82929  0.90700  Biso   1.000  C
  H393     1.0000 0.07470  0.95002  0.92140  Biso   1.000  H
  H394     1.0000 0.07474  0.95002  0.92140  Biso   1.000  H
  H395     1.0000 0.13491  0.13750  0.91091  Biso   1.000  H
  C440     1.0000 0.17753  0.24821  0.90078  Biso   1.000  C
  C441     1.0000 0.17756  0.24821  0.90078  Biso   1.000  C
  C442     1.0000 0.13379  0.38191  0.90328  Biso   1.000  C
  H396     1.0000 0.05939  0.36868  0.91431  Biso   1.000  H
  C443     1.0000 0.13383  0.38191  0.90328  Biso   1.000  C
  H397     1.0000 0.05942  0.36868  0.91431  Biso   1.000  H
  H398     1.0000 0.92523  0.68411  0.80211  Biso   1.000  H
  C444     1.0000 0.00000  0.68431  0.81400  Biso   1.000  C
  H399     1.0000 0.07481  0.68411  0.80211  Biso   1.000  H
  C445     1.0000 0.22648  0.39193  0.81341  Biso   1.000  C
  H400     1.0000 0.26620  0.27748  0.80211  Biso   1.000  H
  C446     1.0000 0.22652  0.39193  0.81341  Biso   1.000  C
  H401     1.0000 0.26623  0.27748  0.80211  Biso   1.000  H
  H402     1.0000 0.18949  0.50792  0.80211  Biso   1.000  H
  H403     1.0000 0.18952  0.50792  0.80211  Biso   1.000  H
  H404     1.0000 0.92694  0.79709  0.90460  Biso   1.000  H
  N102     1.0000 0.00000  0.78693  0.90069  Biso   1.000  N
  H405     1.0000 0.92690  0.79709  0.90460  Biso   1.000  H
  H406     1.0000 0.07310  0.79709  0.90460  Biso   1.000  H
  N103     1.0000 0.17637  0.33808  0.89760  Biso   1.000  N
  H407     1.0000 0.20819  0.21801  0.89810  Biso   1.000  H
  N104     1.0000 0.17633  0.33808  0.89760  Biso   1.000  N
  H408     1.0000 0.20823  0.21801  0.89810  Biso   1.000  H
  H409     1.0000 0.13390  0.44471  0.90269  Biso   1.000  H
  H410     1.0000 0.13394  0.44471  0.90269  Biso   1.000  H
  C447     1.0000 0.00000  0.68998  0.88121  Biso   1.000  C
  C448     1.0000 0.22264  0.38832  0.88139  Biso   1.000  C
  H411     1.0000 0.97042  0.65999  0.89738  Biso   1.000  H
  H412     1.0000 0.02962  0.65999  0.89738  Biso   1.000  H
  H413     1.0000 0.22119  0.44892  0.89810  Biso   1.000  H
  H414     1.0000 0.25189  0.35812  0.89837  Biso   1.000  H
  H415     1.0000 0.22123  0.44892  0.89810  Biso   1.000  H
  H416     1.0000 0.25193  0.35812  0.89837  Biso   1.000  H
