data_image0
_cell_length_a       19.446
_cell_length_b       21.357
_cell_length_c       40.01
_cell_angle_alpha    102.19
_cell_angle_beta     96.86
_cell_angle_gamma    98.2

_symmetry_space_group_name_H-M    "P 1"
_symmetry_int_tables_number       1

loop_
  _symmetry_equiv_pos_as_xyz
  'x, y, z'

loop_
  _atom_site_label
  _atom_site_occupancy
  _atom_site_fract_x
  _atom_site_fract_y
  _atom_site_fract_z
  _atom_site_thermal_displace_type
  _atom_site_B_iso_or_equiv
  _atom_site_type_symbol
  C1       1.0000 0.71249  0.43867  0.49651  Biso   1.000  C
  C2       1.0000 0.77269  0.48567  0.48680  Biso   1.000  C
  H1       1.0000 0.71847  0.43227  0.52011  Biso   1.000  H
  H2       1.0000 0.70754  0.39655  0.48000  Biso   1.000  H
  H3       1.0000 0.67024  0.45774  0.49239  Biso   1.000  H
  N1       1.0000 0.73186  0.52006  0.46110  Biso   1.000  N
  H4       1.0000 0.80619  0.46116  0.47531  Biso   1.000  H
  H5       1.0000 0.79855  0.51798  0.50761  Biso   1.000  H
  C3       1.0000 0.70598  0.48745  0.42681  Biso   1.000  C
  C4       1.0000 0.71029  0.58045  0.46561  Biso   1.000  C
  C5       1.0000 0.66537  0.52335  0.41151  Biso   1.000  C
  C6       1.0000 0.71179  0.42353  0.40750  Biso   1.000  C
  C7       1.0000 0.67255  0.58614  0.43649  Biso   1.000  C
  C8       1.0000 0.72560  0.62687  0.49371  Biso   1.000  C
  C9       1.0000 0.63770  0.50414  0.37541  Biso   1.000  C
  C10      1.0000 0.68658  0.40565  0.37531  Biso   1.000  C
  H6       1.0000 0.73405  0.39507  0.41871  Biso   1.000  H
  C11      1.0000 0.64629  0.64394  0.43571  Biso   1.000  C
  H7       1.0000 0.75026  0.62056  0.51439  Biso   1.000  H
  C12      1.0000 0.70396  0.68643  0.49221  Biso   1.000  C
  C13      1.0000 0.64430  0.44293  0.35590  Biso   1.000  C
  H8       1.0000 0.61475  0.53282  0.36459  Biso   1.000  H
  H9       1.0000 0.69567  0.36543  0.36281  Biso   1.000  H
  C14      1.0000 0.65750  0.69667  0.46320  Biso   1.000  C
  H10      1.0000 0.61905  0.64665  0.41480  Biso   1.000  H
  H11      1.0000 0.72077  0.72244  0.51131  Biso   1.000  H
  C15      1.0000 0.61017  0.42213  0.32070  Biso   1.000  C
  C16      1.0000 0.63989  0.75735  0.45981  Biso   1.000  C
  C17      1.0000 0.53610  0.39972  0.31249  Biso   1.000  C
  C18      1.0000 0.65178  0.42351  0.29471  Biso   1.000  C
  C19      1.0000 0.67587  0.79945  0.44441  Biso   1.000  C
  C20      1.0000 0.57769  0.77586  0.47360  Biso   1.000  C
  C21      1.0000 0.50907  0.38314  0.28089  Biso   1.000  C
  C22      1.0000 0.49429  0.39593  0.33959  Biso   1.000  C
  C23      1.0000 0.62087  0.40602  0.26210  Biso   1.000  C
  C24      1.0000 0.73068  0.44233  0.30390  Biso   1.000  C
  C25      1.0000 0.65639  0.85505  0.44249  Biso   1.000  C
  C26      1.0000 0.73889  0.78334  0.43069  Biso   1.000  C
  C27      1.0000 0.55709  0.83235  0.47200  Biso   1.000  C
  C28      1.0000 0.53869  0.72804  0.49270  Biso   1.000  C
  C29      1.0000 0.54426  0.38780  0.25180  Biso   1.000  C
  H12      1.0000 0.46028  0.36572  0.27590  Biso   1.000  H
  H13      1.0000 0.52458  0.41082  0.36211  Biso   1.000  H
  H14      1.0000 0.45848  0.42361  0.33819  Biso   1.000  H
  H15      1.0000 0.47136  0.35081  0.33679  Biso   1.000  H
  H16      1.0000 0.64961  0.40525  0.24440  Biso   1.000  H
  H17      1.0000 0.74391  0.45375  0.32911  Biso   1.000  H
  H18      1.0000 0.75269  0.40566  0.29401  Biso   1.000  H
  H19      1.0000 0.74668  0.47981  0.29450  Biso   1.000  H
  C30      1.0000 0.59259  0.87476  0.45740  Biso   1.000  C
  H20      1.0000 0.68276  0.88355  0.43160  Biso   1.000  H
  H21      1.0000 0.73960  0.79495  0.40841  Biso   1.000  H
  H22      1.0000 0.73875  0.73662  0.42769  Biso   1.000  H
  H23      1.0000 0.78056  0.80763  0.44689  Biso   1.000  H
  H24      1.0000 0.51627  0.84246  0.48129  Biso   1.000  H
  H25      1.0000 0.56119  0.68954  0.49120  Biso   1.000  H
  H26      1.0000 0.54109  0.74976  0.51711  Biso   1.000  H
  H27      1.0000 0.48936  0.71487  0.48181  Biso   1.000  H
  B1       1.0000 0.50888  0.36941  0.21269  Biso   1.000  B
  B2       1.0000 0.57120  0.94143  0.45321  Biso   1.000  B
  O1       1.0000 0.43890  0.34420  0.20640  Biso   1.000  O
  O2       1.0000 0.54381  0.38051  0.18640  Biso   1.000  O
  O3       1.0000 0.50399  0.95066  0.46072  Biso   1.000  O
  O4       1.0000 0.61369  0.98643  0.44381  Biso   1.000  O
  B3       1.0000 0.40278  0.33211  0.17511  Biso   1.000  B
  B4       1.0000 0.51358  0.37051  0.15200  Biso   1.000  B
  B5       1.0000 0.47826  0.00754  0.45870  Biso   1.000  B
  B6       1.0000 0.59949  0.04346  0.44301  Biso   1.000  B
  C31      1.0000 0.32700  0.30654  0.16660  Biso   1.000  C
  O5       1.0000 0.44138  0.34452  0.14600  Biso   1.000  O
  C32      1.0000 0.54241  0.39110  0.12459  Biso   1.000  C
  O6       1.0000 0.53169  0.05695  0.44899  Biso   1.000  O
  C33      1.0000 0.40926  0.01746  0.46061  Biso   1.000  C
  C34      1.0000 0.64537  0.10066  0.43380  Biso   1.000  C
  C35      1.0000 0.28918  0.28380  0.18790  Biso   1.000  C
  C36      1.0000 0.28300  0.29409  0.13189  Biso   1.000  C
  C37      1.0000 0.61411  0.41681  0.12791  Biso   1.000  C
  C38      1.0000 0.50369  0.39053  0.09379  Biso   1.000  C
  C39      1.0000 0.36149  0.97325  0.46889  Biso   1.000  C
  C40      1.0000 0.38170  0.07193  0.45101  Biso   1.000  C
  C41      1.0000 0.62439  0.16074  0.43359  Biso   1.000  C
  C42      1.0000 0.71306  0.09315  0.42570  Biso   1.000  C
  C43      1.0000 0.21228  0.26584  0.18629  Biso   1.000  C
  H28      1.0000 0.31620  0.27782  0.20811  Biso   1.000  H
  C44      1.0000 0.21149  0.27160  0.12480  Biso   1.000  C
  H29      1.0000 0.30601  0.30239  0.11331  Biso   1.000  H
  H30      1.0000 0.64109  0.42111  0.15001  Biso   1.000  H
  C45      1.0000 0.65101  0.43670  0.10301  Biso   1.000  C
  C46      1.0000 0.53402  0.41621  0.06670  Biso   1.000  C
  H31      1.0000 0.45499  0.37261  0.08971  Biso   1.000  H
  H32      1.0000 0.37699  0.93547  0.47381  Biso   1.000  H
  C47      1.0000 0.29157  0.97825  0.47081  Biso   1.000  C
  C48      1.0000 0.30827  0.07805  0.45192  Biso   1.000  C
  H33      1.0000 0.41200  0.10416  0.44410  Biso   1.000  H
  H34      1.0000 0.58238  0.16923  0.44221  Biso   1.000  H
  C49      1.0000 0.66380  0.20885  0.42101  Biso   1.000  C
  C50      1.0000 0.75119  0.13975  0.41009  Biso   1.000  C
  H35      1.0000 0.73341  0.05755  0.43051  Biso   1.000  H
  C51      1.0000 0.18046  0.25691  0.21419  Biso   1.000  C
  C52      1.0000 0.17578  0.25422  0.15480  Biso   1.000  C
  C53      1.0000 0.16800  0.25840  0.09121  Biso   1.000  C
  C54      1.0000 0.61113  0.43561  0.07200  Biso   1.000  C
  C55      1.0000 0.72849  0.46331  0.10860  Biso   1.000  C
  C56      1.0000 0.49513  0.41671  0.03390  Biso   1.000  C
  C57      1.0000 0.26728  0.03517  0.46292  Biso   1.000  C
  C58      1.0000 0.24389  0.92695  0.48422  Biso   1.000  C
  C59      1.0000 0.28678  0.14165  0.44490  Biso   1.000  C
  C60      1.0000 0.72466  0.19612  0.40810  Biso   1.000  C
  C61      1.0000 0.64420  0.27762  0.42629  Biso   1.000  C
  C62      1.0000 0.82006  0.13212  0.39640  Biso   1.000  C
  H36      1.0000 0.21601  0.26803  0.23500  Biso   1.000  H
  H37      1.0000 0.14497  0.28514  0.21730  Biso   1.000  H
  H38      1.0000 0.15790  0.21141  0.21021  Biso   1.000  H
  C63      1.0000 0.09939  0.23462  0.14879  Biso   1.000  C
  H39      1.0000 0.11921  0.24300  0.09330  Biso   1.000  H
  H40      1.0000 0.17079  0.29840  0.08269  Biso   1.000  H
  H41      1.0000 0.18480  0.22513  0.07490  Biso   1.000  H
  C64      1.0000 0.64270  0.46012  0.04589  Biso   1.000  C
  H42      1.0000 0.74980  0.46100  0.13171  Biso   1.000  H
  H43      1.0000 0.75080  0.43751  0.09110  Biso   1.000  H
  H44      1.0000 0.73550  0.50870  0.10671  Biso   1.000  H
  H45      1.0000 0.52671  0.43627  0.02019  Biso   1.000  H
  H46      1.0000 0.47473  0.37190  0.02151  Biso   1.000  H
  H47      1.0000 0.45740  0.44203  0.03771  Biso   1.000  H
  C65      1.0000 0.19889  0.04665  0.46819  Biso   1.000  C
  H48      1.0000 0.19646  0.93784  0.48390  Biso   1.000  H
  H49      1.0000 0.24137  0.88374  0.46931  Biso   1.000  H
  H50      1.0000 0.26369  0.92706  0.50800  Biso   1.000  H
  H51      1.0000 0.32549  0.16626  0.43690  Biso   1.000  H
  H52      1.0000 0.24498  0.13104  0.42720  Biso   1.000  H
  H53      1.0000 0.27626  0.16797  0.46631  Biso   1.000  H
  C66      1.0000 0.76461  0.24615  0.39731  Biso   1.000  C
  H54      1.0000 0.61728  0.28463  0.44560  Biso   1.000  H
  H55      1.0000 0.61567  0.28143  0.40510  Biso   1.000  H
  H56      1.0000 0.68719  0.31036  0.43160  Biso   1.000  H
  H57      1.0000 0.83307  0.09062  0.39920  Biso   1.000  H
  H58      1.0000 0.81417  0.13274  0.37181  Biso   1.000  H
  H59      1.0000 0.85708  0.16794  0.40931  Biso   1.000  H
  C67      1.0000 0.06558  0.17462  0.13629  Biso   1.000  C
  C68      1.0000 0.06038  0.29211  0.15619  Biso   1.000  C
  C69      1.0000 0.64579  0.52641  0.04299  Biso   1.000  C
  C70      1.0000 0.67041  0.41712  0.01760  Biso   1.000  C
  C71      1.0000 0.13520  0.01504  0.44260  Biso   1.000  C
  C72      1.0000 0.18899  0.08726  0.50119  Biso   1.000  C
  C73      1.0000 0.82181  0.29735  0.41599  Biso   1.000  C
  C74      1.0000 0.75740  0.23214  0.36120  Biso   1.000  C
  H60      1.0000 0.09150  0.14032  0.13119  Biso   1.000  H
  C75      1.0000 0.99587  0.16153  0.13070  Biso   1.000  C
  H61      1.0000 0.08440  0.33583  0.16391  Biso   1.000  H
  C76      1.0000 0.98997  0.27669  0.15089  Biso   1.000  C
  C77      1.0000 0.67250  0.54529  0.01579  Biso   1.000  C
  H62      1.0000 0.62961  0.55682  0.05989  Biso   1.000  H
  H63      1.0000 0.67123  0.37319  0.01861  Biso   1.000  H
  C78      1.0000 0.69562  0.43931  0.98931  Biso   1.000  C
  C79      1.0000 0.06489  0.02184  0.44679  Biso   1.000  C
  H64      1.0000 0.14209  0.98786  0.42161  Biso   1.000  H
  C80      1.0000 0.11906  0.09722  0.50409  Biso   1.000  C
  H65      1.0000 0.22696  0.10576  0.51941  Biso   1.000  H
  C81      1.0000 0.86106  0.33652  0.39800  Biso   1.000  C
  H66      1.0000 0.83291  0.30464  0.44040  Biso   1.000  H
  H67      1.0000 0.72616  0.19381  0.34849  Biso   1.000  H
  C82      1.0000 0.79500  0.27281  0.34220  Biso   1.000  C
  C83      1.0000 0.95570  0.21102  0.13699  Biso   1.000  C
  H68      1.0000 0.97278  0.11761  0.12229  Biso   1.000  H
  C84      1.0000 0.93447  0.31602  0.15570  Biso   1.000  C
  C85      1.0000 0.68793  0.60761  0.00890  Biso   1.000  C
  C86      1.0000 0.69682  0.50078  0.99120  Biso   1.000  C
  H69      1.0000 0.71021  0.41141  0.97081  Biso   1.000  H
  C87      1.0000 0.99808  0.99466  0.42430  Biso   1.000  C
  C88      1.0000 0.06060  0.05934  0.47951  Biso   1.000  C
  H70      1.0000 0.11088  0.12956  0.52280  Biso   1.000  H
  C89      1.0000 0.85148  0.32682  0.36309  Biso   1.000  C
  H71      1.0000 0.89617  0.37166  0.41110  Biso   1.000  H
  C90      1.0000 0.80141  0.27054  0.30739  Biso   1.000  C
  N2       1.0000 0.88102  0.21092  0.13471  Biso   1.000  N
  C91      1.0000 0.93381  0.38171  0.16639  Biso   1.000  C
  C92      1.0000 0.87479  0.27502  0.14739  Biso   1.000  C
  C93      1.0000 0.67309  0.67120  0.02311  Biso   1.000  C
  C94      1.0000 0.71242  0.59801  0.97409  Biso   1.000  C
  N3       1.0000 0.72103  0.53327  0.96690  Biso   1.000  N
  C95      1.0000 0.97668  0.95186  0.39570  Biso   1.000  C
  C96      1.0000 0.95145  0.01902  0.44630  Biso   1.000  C
  N4       1.0000 0.98456  0.05835  0.47831  Biso   1.000  N
  N5       1.0000 0.88320  0.35334  0.34050  Biso   1.000  N
  C97      1.0000 0.76051  0.22812  0.27869  Biso   1.000  C
  C98      1.0000 0.85351  0.32283  0.30820  Biso   1.000  C
  C99      1.0000 0.82591  0.15472  0.12061  Biso   1.000  C
  H72      1.0000 0.97819  0.40973  0.17260  Biso   1.000  H
  C100     1.0000 0.87931  0.40821  0.16901  Biso   1.000  C
  C101     1.0000 0.80981  0.30139  0.14949  Biso   1.000  C
  C102     1.0000 0.69380  0.72369  0.00800  Biso   1.000  C
  H73      1.0000 0.64939  0.67790  0.04270  Biso   1.000  H
  C103     1.0000 0.73455  0.64727  0.95950  Biso   1.000  C
  C104     1.0000 0.75802  0.50038  0.93750  Biso   1.000  C
  C105     1.0000 0.90969  0.93462  0.38330  Biso   1.000  C
  H74      1.0000 0.01009  0.93244  0.38351  Biso   1.000  H
  C106     1.0000 0.87760  0.99866  0.43520  Biso   1.000  C
  C107     1.0000 0.95415  0.09466  0.50699  Biso   1.000  C
  C108     1.0000 0.95091  0.40234  0.34710  Biso   1.000  C
  C109     1.0000 0.78192  0.23621  0.24411  Biso   1.000  C
  H75      1.0000 0.72211  0.19651  0.28030  Biso   1.000  H
  C110     1.0000 0.87348  0.32992  0.27760  Biso   1.000  C
  H76      1.0000 0.78190  0.16510  0.12889  Biso   1.000  H
  H77      1.0000 0.83858  0.11813  0.13021  Biso   1.000  H
  C111     1.0000 0.81121  0.13249  0.08269  Biso   1.000  C
  C112     1.0000 0.81667  0.36501  0.15990  Biso   1.000  C
  C113     1.0000 0.88230  0.47970  0.17889  Biso   1.000  C
  H78      1.0000 0.76489  0.27421  0.14369  Biso   1.000  H
  C114     1.0000 0.67501  0.78540  0.02151  Biso   1.000  C
  C115     1.0000 0.71974  0.70920  0.97880  Biso   1.000  C
  H79      1.0000 0.75670  0.64246  0.93949  Biso   1.000  H
  H80      1.0000 0.78401  0.46858  0.94570  Biso   1.000  H
  H81      1.0000 0.79273  0.53390  0.93201  Biso   1.000  H
  C116     1.0000 0.70595  0.46506  0.90359  Biso   1.000  C
  C117     1.0000 0.88390  0.89453  0.34681  Biso   1.000  C
  C118     1.0000 0.85746  0.95582  0.40251  Biso   1.000  C
  H82      1.0000 0.84398  0.01305  0.44909  Biso   1.000  H
  H83      1.0000 0.98718  0.10506  0.52909  Biso   1.000  H
  H84      1.0000 0.90916  0.06995  0.50999  Biso   1.000  H
  C119     1.0000 0.94256  0.15923  0.49421  Biso   1.000  C
  H85      1.0000 0.97982  0.40135  0.36909  Biso   1.000  H
  H86      1.0000 0.97858  0.39193  0.32800  Biso   1.000  H
  C120     1.0000 0.93062  0.46856  0.34911  Biso   1.000  C
  C121     1.0000 0.74459  0.19351  0.21381  Biso   1.000  C
  C122     1.0000 0.83658  0.28861  0.24440  Biso   1.000  C
  H87      1.0000 0.91230  0.36251  0.27771  Biso   1.000  H
  H88      1.0000 0.77910  0.09013  0.07591  Biso   1.000  H
  H89      1.0000 0.85549  0.12721  0.07330  Biso   1.000  H
  C123     1.0000 0.77638  0.18480  0.06791  Biso   1.000  C
  H90      1.0000 0.77466  0.38270  0.16119  Biso   1.000  H
  C124     1.0000 0.85710  0.50944  0.20889  Biso   1.000  C
  C125     1.0000 0.90348  0.51343  0.15570  Biso   1.000  C
  C126     1.0000 0.62282  0.80821  0.00699  Biso   1.000  C
  C127     1.0000 0.71782  0.82699  0.05370  Biso   1.000  C
  H91      1.0000 0.73072  0.74491  0.96850  Biso   1.000  H
  C128     1.0000 0.65094  0.49609  0.89979  Biso   1.000  C
  H92      1.0000 0.73073  0.46306  0.88330  Biso   1.000  H
  H93      1.0000 0.68865  0.41937  0.90481  Biso   1.000  H
  C129     1.0000 0.87939  0.92324  0.32230  Biso   1.000  C
  C130     1.0000 0.88698  0.82563  0.34050  Biso   1.000  C
  H94      1.0000 0.80907  0.94125  0.39340  Biso   1.000  H
  H95      1.0000 0.91038  0.18105  0.50821  Biso   1.000  H
  H96      1.0000 0.91907  0.14626  0.46990  Biso   1.000  H
  C131     1.0000 0.01596  0.21306  0.49679  Biso   1.000  C
  H97      1.0000 0.97400  0.49893  0.34911  Biso   1.000  H
  H98      1.0000 0.89921  0.46575  0.32730  Biso   1.000  H
  C132     1.0000 0.89629  0.49982  0.37740  Biso   1.000  C
  C133     1.0000 0.75991  0.13342  0.20250  Biso   1.000  C
  C134     1.0000 0.69242  0.21092  0.19191  Biso   1.000  C
  H99      1.0000 0.84909  0.29662  0.22320  Biso   1.000  H
  H100     1.0000 0.80459  0.22830  0.07881  Biso   1.000  H
  H101     1.0000 0.77819  0.17683  0.04270  Biso   1.000  H
  C135     1.0000 0.70381  0.18578  0.07309  Biso   1.000  C
  C136     1.0000 0.85818  0.57281  0.21601  Biso   1.000  C
  C137     1.0000 0.84581  0.47133  0.23811  Biso   1.000  C
  C138     1.0000 0.90078  0.58413  0.16140  Biso   1.000  C
  C139     1.0000 0.92110  0.48743  0.12030  Biso   1.000  C
  C140     1.0000 0.60250  0.86640  0.02239  Biso   1.000  C
  C141     1.0000 0.58193  0.76858  0.97070  Biso   1.000  C
  C142     1.0000 0.69881  0.88390  0.06771  Biso   1.000  C
  C143     1.0000 0.78091  0.80373  0.07141  Biso   1.000  C
  C144     1.0000 0.59494  0.44706  0.91200  Biso   1.000  C
  H102     1.0000 0.63781  0.49849  0.87559  Biso   1.000  H
  H103     1.0000 0.66002  0.54000  0.91521  Biso   1.000  H
  C145     1.0000 0.86481  0.88745  0.28560  Biso   1.000  C
  C146     1.0000 0.88217  0.99765  0.32740  Biso   1.000  C
  C147     1.0000 0.87508  0.79033  0.30620  Biso   1.000  C
  C148     1.0000 0.89456  0.79095  0.36920  Biso   1.000  C
  H104     1.0000 0.00327  0.25046  0.48851  Biso   1.000  H
  H105     1.0000 0.03878  0.22737  0.52092  Biso   1.000  H
  H106     1.0000 0.04758  0.19245  0.48251  Biso   1.000  H
  H107     1.0000 0.88752  0.54225  0.37391  Biso   1.000  H
  H108     1.0000 0.85160  0.47224  0.37761  Biso   1.000  H
  H109     1.0000 0.92697  0.50573  0.39951  Biso   1.000  H
  C149     1.0000 0.72102  0.08592  0.17159  Biso   1.000  C
  C150     1.0000 0.81803  0.10604  0.22519  Biso   1.000  C
  C151     1.0000 0.65279  0.16991  0.16331  Biso   1.000  C
  C152     1.0000 0.67087  0.27969  0.20229  Biso   1.000  C
  H110     1.0000 0.69977  0.18739  0.09770  Biso   1.000  H
  H111     1.0000 0.67341  0.14563  0.05891  Biso   1.000  H
  C153     1.0000 0.67900  0.24562  0.06289  Biso   1.000  C
  C154     1.0000 0.87971  0.61424  0.19331  Biso   1.000  C
  H112     1.0000 0.84406  0.59242  0.23710  Biso   1.000  H
  H113     1.0000 0.84629  0.42502  0.22900  Biso   1.000  H
  H114     1.0000 0.88370  0.48863  0.25780  Biso   1.000  H
  H115     1.0000 0.80046  0.47654  0.24569  Biso   1.000  H
  H116     1.0000 0.91250  0.60811  0.14481  Biso   1.000  H
  H117     1.0000 0.93483  0.52373  0.10971  Biso   1.000  H
  H118     1.0000 0.96010  0.46341  0.12250  Biso   1.000  H
  H119     1.0000 0.87978  0.45830  0.10591  Biso   1.000  H
  C155     1.0000 0.63801  0.90788  0.05360  Biso   1.000  C
  H120     1.0000 0.56240  0.87860  0.01110  Biso   1.000  H
  H121     1.0000 0.54474  0.79128  0.96309  Biso   1.000  H
  H122     1.0000 0.61466  0.76471  0.95380  Biso   1.000  H
  H123     1.0000 0.56101  0.72518  0.97249  Biso   1.000  H
  H124     1.0000 0.72711  0.91011  0.08831  Biso   1.000  H
  H125     1.0000 0.78681  0.76161  0.05761  Biso   1.000  H
  H126     1.0000 0.82373  0.83562  0.07361  Biso   1.000  H
  H127     1.0000 0.77261  0.79890  0.09449  Biso   1.000  H
  C156     1.0000 0.52692  0.44008  0.88700  Biso   1.000  C
  H128     1.0000 0.60981  0.40478  0.91029  Biso   1.000  H
  H129     1.0000 0.58793  0.46521  0.93571  Biso   1.000  H
  C157     1.0000 0.86249  0.81973  0.27851  Biso   1.000  C
  H130     1.0000 0.85741  0.90931  0.26751  Biso   1.000  H
  H131     1.0000 0.87761  0.00875  0.30470  Biso   1.000  H
  H132     1.0000 0.84357  0.01065  0.33931  Biso   1.000  H
  H133     1.0000 0.92716  0.02065  0.34119  Biso   1.000  H
  H134     1.0000 0.87559  0.74485  0.30149  Biso   1.000  H
  H135     1.0000 0.90268  0.82254  0.39151  Biso   1.000  H
  H136     1.0000 0.85156  0.75955  0.36759  Biso   1.000  H
  H137     1.0000 0.93471  0.76784  0.36731  Biso   1.000  H
  C158     1.0000 0.66812  0.10601  0.15260  Biso   1.000  C
  H138     1.0000 0.73179  0.04339  0.16510  Biso   1.000  H
  H139     1.0000 0.82188  0.06212  0.21300  Biso   1.000  H
  H140     1.0000 0.86360  0.13474  0.22851  Biso   1.000  H
  H141     1.0000 0.80382  0.10475  0.24771  Biso   1.000  H
  H142     1.0000 0.61549  0.18353  0.15060  Biso   1.000  H
  H143     1.0000 0.70242  0.30561  0.22310  Biso   1.000  H
  H144     1.0000 0.67449  0.30191  0.18340  Biso   1.000  H
  H145     1.0000 0.62228  0.27460  0.20700  Biso   1.000  H
  H146     1.0000 0.68439  0.24580  0.03869  Biso   1.000  H
  H147     1.0000 0.70627  0.28641  0.07819  Biso   1.000  H
  C159     1.0000 0.59882  0.23822  0.06760  Biso   1.000  C
  B7       1.0000 0.87689  0.68651  0.20001  Biso   1.000  B
  B8       1.0000 0.61990  0.96841  0.06960  Biso   1.000  B
  H148     1.0000 0.49063  0.40979  0.89381  Biso   1.000  H
  H149     1.0000 0.51262  0.48206  0.88889  Biso   1.000  H
  H150     1.0000 0.53442  0.42187  0.86360  Biso   1.000  H
  B9       1.0000 0.87041  0.78582  0.24070  Biso   1.000  B
  B10      1.0000 0.62854  0.05931  0.11670  Biso   1.000  B
  H151     1.0000 0.57912  0.27481  0.06160  Biso   1.000  H
  H152     1.0000 0.57291  0.19743  0.05241  Biso   1.000  H
  H153     1.0000 0.59469  0.23771  0.09170  Biso   1.000  H
  O7       1.0000 0.89609  0.72163  0.17749  Biso   1.000  O
  O8       1.0000 0.86789  0.71863  0.23350  Biso   1.000  O
  O9       1.0000 0.55521  0.98560  0.05531  Biso   1.000  O
  O10      1.0000 0.65210  0.00811  0.10169  Biso   1.000  O
  O11      1.0000 0.88030  0.81940  0.21769  Biso   1.000  O
  O12      1.0000 0.56613  0.07709  0.10399  Biso   1.000  O
  B11      1.0000 0.89211  0.78660  0.18329  Biso   1.000  B
  B12      1.0000 0.53109  0.03971  0.07459  Biso   1.000  B
  C160     1.0000 0.91732  0.82943  0.15979  Biso   1.000  C
  C161     1.0000 0.44723  0.04440  0.06139  Biso   1.000  C
  C162     1.0000 0.94288  0.80770  0.12951  Biso   1.000  C
  C163     1.0000 0.90142  0.89531  0.16800  Biso   1.000  C
  C164     1.0000 0.42389  0.09799  0.08251  Biso   1.000  C
  C165     1.0000 0.40713  0.00411  0.03670  Biso   1.000  C
  H154     1.0000 0.94812  0.76341  0.12320  Biso   1.000  H
  C166     1.0000 0.96100  0.84768  0.10829  Biso   1.000  C
  C167     1.0000 0.93030  0.93962  0.14530  Biso   1.000  C
  H155     1.0000 0.87518  0.90961  0.18580  Biso   1.000  H
  H156     1.0000 0.45650  0.13011  0.09931  Biso   1.000  H
  C168     1.0000 0.35264  0.10242  0.07790  Biso   1.000  C
  H157     1.0000 0.42449  0.96857  0.02389  Biso   1.000  H
  C169     1.0000 0.33934  0.01081  0.02821  Biso   1.000  C
  C170     1.0000 0.94959  0.91192  0.11380  Biso   1.000  C
  C171     1.0000 0.98549  0.81448  0.07340  Biso   1.000  C
  C172     1.0000 0.91619  0.00972  0.15601  Biso   1.000  C
  C173     1.0000 0.30811  0.06261  0.05119  Biso   1.000  C
  C174     1.0000 0.33060  0.15629  0.10120  Biso   1.000  C
  C175     1.0000 0.29116  0.96812  0.99661  Biso   1.000  C
  C176     1.0000 0.96703  0.95632  0.09121  Biso   1.000  C
  H158     1.0000 0.02712  0.79522  0.07891  Biso   1.000  H
  H159     1.0000 0.99721  0.84732  0.06020  Biso   1.000  H
  H160     1.0000 0.94752  0.78041  0.05971  Biso   1.000  H
  H161     1.0000 0.90362  0.01733  0.17931  Biso   1.000  H
  H162     1.0000 0.95872  0.04042  0.15591  Biso   1.000  H
  H163     1.0000 0.87749  0.01604  0.13971  Biso   1.000  H
  C177     1.0000 0.23521  0.06879  0.04149  Biso   1.000  C
  H164     1.0000 0.37050  0.17939  0.11890  Biso   1.000  H
  H165     1.0000 0.31454  0.18640  0.08779  Biso   1.000  H
  H166     1.0000 0.29222  0.13909  0.11230  Biso   1.000  H
  H167     1.0000 0.24470  0.98107  0.99539  Biso   1.000  H
  H168     1.0000 0.31115  0.97280  0.97580  Biso   1.000  H
  H169     1.0000 0.28644  0.92259  0.99829  Biso   1.000  H
  C178     1.0000 0.03870  0.97560  0.08660  Biso   1.000  C
  C179     1.0000 0.91509  0.97720  0.07389  Biso   1.000  C
  C180     1.0000 0.18572  0.03651  0.05989  Biso   1.000  C
  C181     1.0000 0.21030  0.10471  0.02060  Biso   1.000  C
  H170     1.0000 0.07603  0.96083  0.09850  Biso   1.000  H
  C182     1.0000 0.05253  0.01600  0.06460  Biso   1.000  C
  H171     1.0000 0.86801  0.96310  0.07671  Biso   1.000  H
  C183     1.0000 0.92800  0.02008  0.05119  Biso   1.000  C
  C184     1.0000 0.11540  0.04243  0.05350  Biso   1.000  C
  H172     1.0000 0.20113  0.01223  0.07591  Biso   1.000  H
  C185     1.0000 0.13883  0.11193  0.01351  Biso   1.000  C
  H173     1.0000 0.24320  0.12730  0.00971  Biso   1.000  H
  C186     1.0000 0.99573  0.03751  0.04700  Biso   1.000  C
  H174     1.0000 0.89074  0.03560  0.03970  Biso   1.000  H
  C187     1.0000 0.09533  0.08152  0.02979  Biso   1.000  C
  H175     1.0000 0.12354  0.13700  0.99790  Biso   1.000  H
  N6       1.0000 0.02195  0.07561  0.02601  Biso   1.000  N
  C188     1.0000 0.98223  0.11138  0.00629  Biso   1.000  C
  H176     1.0000 0.93330  0.08757  0.99899  Biso   1.000  H
  C189     1.0000 0.98114  0.18530  0.02901  Biso   1.000  C
  H177     1.0000 0.00305  0.11457  0.98520  Biso   1.000  H
  H178     1.0000 0.97280  0.18352  0.05269  Biso   1.000  H
  C190     1.0000 0.92414  0.21331  0.01191  Biso   1.000  C
  H179     1.0000 0.02713  0.21328  0.03070  Biso   1.000  H
  H180     1.0000 0.93153  0.21330  0.98781  Biso   1.000  H
  H181     1.0000 0.87812  0.18572  0.01090  Biso   1.000  H
  C191     1.0000 0.92303  0.28318  0.03129  Biso   1.000  C
  C192     1.0000 0.86902  0.31701  0.01949  Biso   1.000  C
  H182     1.0000 0.91873  0.28243  0.05570  Biso   1.000  H
  H183     1.0000 0.96862  0.30981  0.03139  Biso   1.000  H
  H184     1.0000 0.87305  0.32002  0.99570  Biso   1.000  H
  H185     1.0000 0.87541  0.36022  0.03450  Biso   1.000  H
  H186     1.0000 0.82293  0.29230  0.02011  Biso   1.000  H
  C193     1.0000 0.28749  0.56145  0.50350  Biso   1.000  C
  C194     1.0000 0.22728  0.51446  0.51320  Biso   1.000  C
  H187     1.0000 0.28145  0.56785  0.47989  Biso   1.000  H
  H188     1.0000 0.29238  0.60357  0.52001  Biso   1.000  H
  H189     1.0000 0.32968  0.54234  0.50761  Biso   1.000  H
  N7       1.0000 0.26806  0.48007  0.53890  Biso   1.000  N
  H190     1.0000 0.19378  0.53896  0.52469  Biso   1.000  H
  H191     1.0000 0.20137  0.48215  0.49239  Biso   1.000  H
  C195     1.0000 0.28969  0.41968  0.53440  Biso   1.000  C
  C196     1.0000 0.29394  0.51268  0.57320  Biso   1.000  C
  C197     1.0000 0.27438  0.37326  0.50629  Biso   1.000  C
  C198     1.0000 0.32737  0.41398  0.56352  Biso   1.000  C
  C199     1.0000 0.33455  0.47677  0.58849  Biso   1.000  C
  C200     1.0000 0.28817  0.57654  0.59250  Biso   1.000  C
  H192     1.0000 0.24966  0.37956  0.48561  Biso   1.000  H
  C201     1.0000 0.29595  0.31364  0.50779  Biso   1.000  C
  C202     1.0000 0.35368  0.35618  0.56429  Biso   1.000  C
  C203     1.0000 0.36227  0.49598  0.62460  Biso   1.000  C
  C204     1.0000 0.31334  0.59447  0.62470  Biso   1.000  C
  H193     1.0000 0.26587  0.60505  0.58130  Biso   1.000  H
  H194     1.0000 0.27914  0.27763  0.48869  Biso   1.000  H
  C205     1.0000 0.34247  0.30345  0.53681  Biso   1.000  C
  H195     1.0000 0.38087  0.35348  0.58520  Biso   1.000  H
  H196     1.0000 0.38517  0.46726  0.63541  Biso   1.000  H
  C206     1.0000 0.35567  0.55715  0.64411  Biso   1.000  C
  H197     1.0000 0.30425  0.63465  0.63720  Biso   1.000  H
  C207     1.0000 0.36008  0.24277  0.54020  Biso   1.000  C
  C208     1.0000 0.38975  0.57800  0.67931  Biso   1.000  C
  C209     1.0000 0.32405  0.20067  0.55560  Biso   1.000  C
  C210     1.0000 0.42224  0.22426  0.52640  Biso   1.000  C
  C211     1.0000 0.46387  0.60036  0.68751  Biso   1.000  C
  C212     1.0000 0.34814  0.57656  0.70529  Biso   1.000  C
  C213     1.0000 0.34358  0.14507  0.55751  Biso   1.000  C
  C214     1.0000 0.26103  0.21678  0.56931  Biso   1.000  C
  C215     1.0000 0.44283  0.16777  0.52801  Biso   1.000  C
  C216     1.0000 0.46128  0.27204  0.50730  Biso   1.000  C
  C217     1.0000 0.49085  0.61699  0.71912  Biso   1.000  C
  C218     1.0000 0.50568  0.60419  0.66042  Biso   1.000  C
  C219     1.0000 0.37905  0.59406  0.73791  Biso   1.000  C
  C220     1.0000 0.26925  0.55779  0.69611  Biso   1.000  C
  C221     1.0000 0.40733  0.12537  0.54260  Biso   1.000  C
  H198     1.0000 0.31716  0.11657  0.56841  Biso   1.000  H
  H199     1.0000 0.26037  0.20517  0.59160  Biso   1.000  H
  H200     1.0000 0.26116  0.26346  0.57232  Biso   1.000  H
  H201     1.0000 0.21935  0.19244  0.55311  Biso   1.000  H
  H202     1.0000 0.48366  0.15766  0.51872  Biso   1.000  H
  H203     1.0000 0.43878  0.31054  0.50880  Biso   1.000  H
  H204     1.0000 0.45888  0.25036  0.48290  Biso   1.000  H
  H205     1.0000 0.51056  0.28526  0.51820  Biso   1.000  H
  C222     1.0000 0.45566  0.61227  0.74821  Biso   1.000  C
  H206     1.0000 0.53965  0.63440  0.72411  Biso   1.000  H
  H207     1.0000 0.47534  0.58926  0.63790  Biso   1.000  H
  H208     1.0000 0.54144  0.57647  0.66181  Biso   1.000  H
  H209     1.0000 0.52855  0.64927  0.66321  Biso   1.000  H
  H210     1.0000 0.35036  0.59488  0.75561  Biso   1.000  H
  H211     1.0000 0.25607  0.54637  0.67090  Biso   1.000  H
  H212     1.0000 0.24723  0.59447  0.70599  Biso   1.000  H
  H213     1.0000 0.25323  0.52026  0.70550  Biso   1.000  H
  B13      1.0000 0.42876  0.05865  0.54680  Biso   1.000  B
  B14      1.0000 0.49104  0.63071  0.78731  Biso   1.000  B
  O13      1.0000 0.49593  0.04946  0.53929  Biso   1.000  O
  O14      1.0000 0.38623  0.01364  0.55619  Biso   1.000  O
  O15      1.0000 0.56106  0.65588  0.79360  Biso   1.000  O
  O16      1.0000 0.45616  0.61957  0.81361  Biso   1.000  O
  B15      1.0000 0.52166  0.99258  0.54131  Biso   1.000  B
  B16      1.0000 0.40043  0.95666  0.55699  Biso   1.000  B
  B17      1.0000 0.59714  0.66798  0.82492  Biso   1.000  B
  B18      1.0000 0.48634  0.62961  0.84800  Biso   1.000  B
  O17      1.0000 0.46828  0.94317  0.55102  Biso   1.000  O
  C223     1.0000 0.59066  0.98266  0.53939  Biso   1.000  C
  C224     1.0000 0.35455  0.89946  0.56621  Biso   1.000  C
  O18      1.0000 0.55854  0.65560  0.85401  Biso   1.000  O
  C225     1.0000 0.67292  0.69359  0.83341  Biso   1.000  C
  C226     1.0000 0.45755  0.60898  0.87541  Biso   1.000  C
  C227     1.0000 0.63844  0.02687  0.53111  Biso   1.000  C
  C228     1.0000 0.61826  0.92814  0.54900  Biso   1.000  C
  C229     1.0000 0.37553  0.83938  0.56641  Biso   1.000  C
  C230     1.0000 0.28686  0.90697  0.57431  Biso   1.000  C
  C231     1.0000 0.71692  0.70599  0.86811  Biso   1.000  C
  C232     1.0000 0.71073  0.71627  0.81211  Biso   1.000  C
  C233     1.0000 0.38582  0.58331  0.87210  Biso   1.000  C
  C234     1.0000 0.49623  0.60960  0.90621  Biso   1.000  C
  H214     1.0000 0.62294  0.06466  0.52620  Biso   1.000  H
  C235     1.0000 0.70835  0.02188  0.52920  Biso   1.000  C
  C236     1.0000 0.69166  0.92208  0.54812  Biso   1.000  C
  H215     1.0000 0.58797  0.89596  0.55591  Biso   1.000  H
  H216     1.0000 0.41754  0.83084  0.55780  Biso   1.000  H
  C237     1.0000 0.33612  0.79127  0.57899  Biso   1.000  C
  C238     1.0000 0.24873  0.86037  0.58992  Biso   1.000  C
  H217     1.0000 0.26657  0.94258  0.56949  Biso   1.000  H
  H218     1.0000 0.69391  0.69768  0.88670  Biso   1.000  H
  C239     1.0000 0.78842  0.72848  0.87521  Biso   1.000  C
  C240     1.0000 0.78764  0.73429  0.81371  Biso   1.000  C
  H219     1.0000 0.68371  0.72226  0.79189  Biso   1.000  H
  H220     1.0000 0.35882  0.57897  0.85000  Biso   1.000  H
  C241     1.0000 0.34891  0.56338  0.89700  Biso   1.000  C
  C242     1.0000 0.46595  0.58391  0.93331  Biso   1.000  C
  H221     1.0000 0.54493  0.62751  0.91030  Biso   1.000  H
  C243     1.0000 0.75603  0.07317  0.51579  Biso   1.000  C
  C244     1.0000 0.73264  0.96496  0.53709  Biso   1.000  C
  C245     1.0000 0.71314  0.85848  0.55510  Biso   1.000  C
  C246     1.0000 0.27525  0.80396  0.59191  Biso   1.000  C
  C247     1.0000 0.35577  0.72245  0.57371  Biso   1.000  C
  C248     1.0000 0.17985  0.86796  0.60361  Biso   1.000  C
  C249     1.0000 0.82415  0.74590  0.84521  Biso   1.000  C
  C250     1.0000 0.83191  0.74167  0.90880  Biso   1.000  C
  C251     1.0000 0.81945  0.74316  0.78581  Biso   1.000  C
  C252     1.0000 0.38884  0.56452  0.92800  Biso   1.000  C
  C253     1.0000 0.27143  0.53681  0.89141  Biso   1.000  C
  C254     1.0000 0.50484  0.58341  0.96610  Biso   1.000  C
  H222     1.0000 0.80346  0.06224  0.51610  Biso   1.000  H
  H223     1.0000 0.75854  0.11634  0.53070  Biso   1.000  H
  H224     1.0000 0.73629  0.07306  0.49201  Biso   1.000  H
  C255     1.0000 0.80108  0.95348  0.53181  Biso   1.000  C
  H225     1.0000 0.67443  0.83387  0.56310  Biso   1.000  H
  H226     1.0000 0.75494  0.86909  0.57281  Biso   1.000  H
  H227     1.0000 0.72366  0.83215  0.53370  Biso   1.000  H
  C256     1.0000 0.23536  0.75398  0.60270  Biso   1.000  C
  H228     1.0000 0.38263  0.71545  0.55441  Biso   1.000  H
  H229     1.0000 0.38424  0.71865  0.59491  Biso   1.000  H
  H230     1.0000 0.31273  0.68977  0.56841  Biso   1.000  H
  H231     1.0000 0.16684  0.90946  0.60081  Biso   1.000  H
  H232     1.0000 0.18575  0.86738  0.62819  Biso   1.000  H
  H233     1.0000 0.14283  0.83214  0.59069  Biso   1.000  H
  C257     1.0000 0.90053  0.76551  0.85121  Biso   1.000  C
  H234     1.0000 0.88071  0.75708  0.90670  Biso   1.000  H
  H235     1.0000 0.82913  0.70172  0.91732  Biso   1.000  H
  H236     1.0000 0.81512  0.77500  0.92511  Biso   1.000  H
  H237     1.0000 0.78396  0.73210  0.76500  Biso   1.000  H
  H238     1.0000 0.85495  0.71499  0.78271  Biso   1.000  H
  H239     1.0000 0.84206  0.78866  0.78980  Biso   1.000  H
  C258     1.0000 0.35723  0.54001  0.95412  Biso   1.000  C
  H240     1.0000 0.25011  0.53908  0.86830  Biso   1.000  H
  H241     1.0000 0.24912  0.56261  0.90890  Biso   1.000  H
  H242     1.0000 0.26441  0.49137  0.89330  Biso   1.000  H
  H243     1.0000 0.47320  0.56380  0.97982  Biso   1.000  H
  H244     1.0000 0.52523  0.62818  0.97850  Biso   1.000  H
  H245     1.0000 0.54252  0.55810  0.96230  Biso   1.000  H
  C259     1.0000 0.81098  0.91287  0.49881  Biso   1.000  C
  C260     1.0000 0.86477  0.98508  0.55741  Biso   1.000  C
  C261     1.0000 0.17816  0.70278  0.58401  Biso   1.000  C
  C262     1.0000 0.24252  0.76798  0.63881  Biso   1.000  C
  C263     1.0000 0.93434  0.82551  0.86371  Biso   1.000  C
  C264     1.0000 0.93954  0.70802  0.84381  Biso   1.000  C
  C265     1.0000 0.35414  0.47372  0.95702  Biso   1.000  C
  C266     1.0000 0.32952  0.58300  0.98241  Biso   1.000  C
  C267     1.0000 0.88085  0.90285  0.49591  Biso   1.000  C
  H246     1.0000 0.77296  0.89437  0.48059  Biso   1.000  H
  H247     1.0000 0.85784  0.01226  0.57840  Biso   1.000  H
  C268     1.0000 0.93508  0.97828  0.55322  Biso   1.000  C
  C269     1.0000 0.13885  0.66355  0.60200  Biso   1.000  C
  H248     1.0000 0.16706  0.69548  0.55961  Biso   1.000  H
  H249     1.0000 0.27375  0.80626  0.65151  Biso   1.000  H
  C270     1.0000 0.20492  0.72726  0.65780  Biso   1.000  C
  H250     1.0000 0.90847  0.85980  0.86881  Biso   1.000  H
  C271     1.0000 0.00405  0.83859  0.86931  Biso   1.000  C
  H251     1.0000 0.91552  0.66430  0.83610  Biso   1.000  H
  C272     1.0000 0.00995  0.72339  0.84912  Biso   1.000  C
  C273     1.0000 0.32741  0.45479  0.98422  Biso   1.000  C
  H252     1.0000 0.37031  0.44330  0.94012  Biso   1.000  H
  H253     1.0000 0.32874  0.62689  0.98140  Biso   1.000  H
  C274     1.0000 0.30430  0.56081  0.01070  Biso   1.000  C
  C275     1.0000 0.93937  0.94073  0.52050  Biso   1.000  C
  H254     1.0000 0.88904  0.87056  0.47720  Biso   1.000  H
  C276     1.0000 0.00185  0.00546  0.57571  Biso   1.000  C
  C277     1.0000 0.14844  0.67325  0.63692  Biso   1.000  C
  H255     1.0000 0.10375  0.62846  0.58891  Biso   1.000  H
  C278     1.0000 0.19851  0.72959  0.69261  Biso   1.000  C
  C279     1.0000 0.04423  0.78911  0.86302  Biso   1.000  C
  H256     1.0000 0.02714  0.88252  0.87772  Biso   1.000  H
  C280     1.0000 0.06545  0.68410  0.84430  Biso   1.000  C
  C281     1.0000 0.31200  0.39251  0.99110  Biso   1.000  C
  C282     1.0000 0.30309  0.49930  0.00881  Biso   1.000  C
  H257     1.0000 0.28971  0.58871  0.02920  Biso   1.000  H
  N8       1.0000 0.01536  0.94177  0.52169  Biso   1.000  N
  C283     1.0000 0.04846  0.98105  0.55371  Biso   1.000  C
  C284     1.0000 0.02324  0.04826  0.60431  Biso   1.000  C
  N9       1.0000 0.11672  0.64678  0.65951  Biso   1.000  N
  C285     1.0000 0.23941  0.77201  0.72132  Biso   1.000  C
  C286     1.0000 0.14641  0.67729  0.69181  Biso   1.000  C
  N10      1.0000 0.11895  0.78920  0.86529  Biso   1.000  N
  C287     1.0000 0.06616  0.61841  0.83361  Biso   1.000  C
  C288     1.0000 0.12513  0.72510  0.85261  Biso   1.000  C
  C289     1.0000 0.32682  0.32888  0.97689  Biso   1.000  C
  C290     1.0000 0.28750  0.40212  0.02591  Biso   1.000  C
  N11      1.0000 0.27888  0.46680  0.03311  Biso   1.000  N
  C291     1.0000 0.04577  0.90547  0.49302  Biso   1.000  C
  C292     1.0000 0.12237  0.00146  0.56481  Biso   1.000  C
  H258     1.0000 0.98984  0.06768  0.61650  Biso   1.000  H
  C293     1.0000 0.09023  0.06545  0.61670  Biso   1.000  C
  C294     1.0000 0.04906  0.59778  0.65291  Biso   1.000  C
  H259     1.0000 0.27785  0.80357  0.71971  Biso   1.000  H
  C295     1.0000 0.21804  0.76387  0.75589  Biso   1.000  C
  C296     1.0000 0.12643  0.67016  0.72240  Biso   1.000  C
  C297     1.0000 0.17406  0.84541  0.87940  Biso   1.000  C
  H260     1.0000 0.02173  0.59039  0.82740  Biso   1.000  H
  C298     1.0000 0.12065  0.59187  0.83100  Biso   1.000  C
  C299     1.0000 0.19016  0.69869  0.85052  Biso   1.000  C
  C300     1.0000 0.30611  0.27639  0.99201  Biso   1.000  C
  H261     1.0000 0.35053  0.32222  0.95730  Biso   1.000  H
  C301     1.0000 0.26541  0.35281  0.04051  Biso   1.000  C
  C302     1.0000 0.24190  0.49974  0.06251  Biso   1.000  C
  H262     1.0000 0.01274  0.89506  0.47091  Biso   1.000  H
  H263     1.0000 0.09077  0.93017  0.49001  Biso   1.000  H
  C303     1.0000 0.05736  0.84084  0.50580  Biso   1.000  C
  H264     1.0000 0.15594  0.98707  0.55091  Biso   1.000  H
  C304     1.0000 0.14246  0.04425  0.59750  Biso   1.000  C
  C305     1.0000 0.11602  0.10555  0.65320  Biso   1.000  C
  H265     1.0000 0.02015  0.59878  0.63091  Biso   1.000  H
  H266     1.0000 0.02134  0.60819  0.67201  Biso   1.000  H
  C306     1.0000 0.06930  0.53157  0.65089  Biso   1.000  C
  C307     1.0000 0.16333  0.71147  0.75561  Biso   1.000  C
  C308     1.0000 0.25532  0.80657  0.78620  Biso   1.000  C
  H267     1.0000 0.08762  0.63757  0.72230  Biso   1.000  H
  H268     1.0000 0.21806  0.83498  0.87112  Biso   1.000  H
  H269     1.0000 0.16134  0.88199  0.86980  Biso   1.000  H
  C309     1.0000 0.18876  0.86758  0.91732  Biso   1.000  C
  C310     1.0000 0.18325  0.63511  0.84011  Biso   1.000  C
  C311     1.0000 0.11762  0.52038  0.82111  Biso   1.000  C
  H270     1.0000 0.23503  0.72591  0.85631  Biso   1.000  H
  C312     1.0000 0.32491  0.21472  0.97850  Biso   1.000  C
  C313     1.0000 0.28018  0.29093  0.02120  Biso   1.000  C
  H271     1.0000 0.24321  0.35761  0.06052  Biso   1.000  H
  H272     1.0000 0.21590  0.53150  0.05431  Biso   1.000  H
  H273     1.0000 0.20719  0.46623  0.06800  Biso   1.000  H
  C314     1.0000 0.29402  0.53502  0.09641  Biso   1.000  C
  C315     1.0000 0.98396  0.78706  0.50321  Biso   1.000  C
  H274     1.0000 0.08954  0.81907  0.49180  Biso   1.000  H
  H275     1.0000 0.08085  0.85386  0.53010  Biso   1.000  H
  H276     1.0000 0.19085  0.05887  0.60661  Biso   1.000  H
  C316     1.0000 0.12053  0.07689  0.67771  Biso   1.000  C
  C317     1.0000 0.11294  0.17449  0.65951  Biso   1.000  C
  H277     1.0000 0.02592  0.50115  0.65089  Biso   1.000  H
  H278     1.0000 0.10071  0.53437  0.67271  Biso   1.000  H
  C318     1.0000 0.10363  0.50025  0.62260  Biso   1.000  C
  H279     1.0000 0.15083  0.70350  0.77681  Biso   1.000  H
  C319     1.0000 0.24001  0.86671  0.79751  Biso   1.000  C
  C320     1.0000 0.30750  0.78920  0.80810  Biso   1.000  C
  H280     1.0000 0.22082  0.90999  0.92410  Biso   1.000  H
  H281     1.0000 0.14444  0.87291  0.92671  Biso   1.000  H
  C321     1.0000 0.22354  0.81529  0.93212  Biso   1.000  C
  H282     1.0000 0.22526  0.61742  0.83882  Biso   1.000  H
  C322     1.0000 0.14283  0.49069  0.79112  Biso   1.000  C
  C323     1.0000 0.09644  0.48669  0.84430  Biso   1.000  C
  C324     1.0000 0.37710  0.19191  0.99302  Biso   1.000  C
  C325     1.0000 0.28209  0.17309  0.94630  Biso   1.000  C
  H283     1.0000 0.26920  0.25521  0.03150  Biso   1.000  H
  C326     1.0000 0.34898  0.50404  0.10022  Biso   1.000  C
  H284     1.0000 0.26918  0.53701  0.11671  Biso   1.000  H
  H285     1.0000 0.31131  0.58071  0.09520  Biso   1.000  H
  H286     1.0000 0.99665  0.74966  0.51149  Biso   1.000  H
  H287     1.0000 0.96114  0.77275  0.47909  Biso   1.000  H
  H288     1.0000 0.95234  0.80768  0.51750  Biso   1.000  H
  C327     1.0000 0.13516  0.11268  0.71440  Biso   1.000  C
  C328     1.0000 0.11776  0.00247  0.67261  Biso   1.000  C
  C329     1.0000 0.12484  0.20979  0.69380  Biso   1.000  C
  C330     1.0000 0.10536  0.20918  0.63081  Biso   1.000  C
  H289     1.0000 0.11245  0.45788  0.62610  Biso   1.000  H
  H290     1.0000 0.14832  0.52788  0.62240  Biso   1.000  H
  H291     1.0000 0.07294  0.49435  0.60050  Biso   1.000  H
  C331     1.0000 0.27891  0.91421  0.82841  Biso   1.000  C
  C332     1.0000 0.18195  0.89408  0.77481  Biso   1.000  C
  C333     1.0000 0.34713  0.83021  0.83669  Biso   1.000  C
  C334     1.0000 0.32904  0.72038  0.79772  Biso   1.000  C
  H292     1.0000 0.19532  0.77178  0.92120  Biso   1.000  H
  H293     1.0000 0.22173  0.82330  0.95730  Biso   1.000  H
  C335     1.0000 0.29616  0.81429  0.92692  Biso   1.000  C
  C336     1.0000 0.14174  0.42726  0.78400  Biso   1.000  C
  C337     1.0000 0.15416  0.52879  0.76190  Biso   1.000  C
  C338     1.0000 0.09914  0.41599  0.83861  Biso   1.000  C
  C339     1.0000 0.07882  0.51269  0.87971  Biso   1.000  C
  C340     1.0000 0.39743  0.13372  0.97762  Biso   1.000  C
  C341     1.0000 0.41799  0.23150  0.02930  Biso   1.000  C
  C342     1.0000 0.30111  0.11622  0.93230  Biso   1.000  C
  C343     1.0000 0.21902  0.19640  0.92860  Biso   1.000  C
  C344     1.0000 0.40502  0.55301  0.08800  Biso   1.000  C
  H294     1.0000 0.36211  0.50163  0.12442  Biso   1.000  H
  H295     1.0000 0.33991  0.46013  0.08482  Biso   1.000  H
  C345     1.0000 0.13743  0.18039  0.72150  Biso   1.000  C
  H296     1.0000 0.14255  0.09077  0.73250  Biso   1.000  H
  H297     1.0000 0.12237  0.99137  0.69530  Biso   1.000  H
  H298     1.0000 0.15635  0.98947  0.66070  Biso   1.000  H
  H299     1.0000 0.07276  0.97947  0.65881  Biso   1.000  H
  H300     1.0000 0.12433  0.25528  0.69851  Biso   1.000  H
  H301     1.0000 0.09724  0.17759  0.60850  Biso   1.000  H
  H302     1.0000 0.14836  0.24058  0.63241  Biso   1.000  H
  H303     1.0000 0.06527  0.23228  0.63270  Biso   1.000  H
  C346     1.0000 0.33185  0.89411  0.84741  Biso   1.000  C
  H304     1.0000 0.26813  0.95668  0.83491  Biso   1.000  H
  H305     1.0000 0.17804  0.93800  0.78700  Biso   1.000  H
  H306     1.0000 0.13632  0.86539  0.77150  Biso   1.000  H
  H307     1.0000 0.19611  0.89537  0.75230  Biso   1.000  H
  H308     1.0000 0.38443  0.81659  0.84940  Biso   1.000  H
  H309     1.0000 0.29755  0.69451  0.77691  Biso   1.000  H
  H310     1.0000 0.32543  0.69821  0.81661  Biso   1.000  H
  H311     1.0000 0.37763  0.72547  0.79301  Biso   1.000  H
  H312     1.0000 0.30014  0.81268  0.90230  Biso   1.000  H
  H313     1.0000 0.32651  0.85450  0.94110  Biso   1.000  H
  C347     1.0000 0.32093  0.75450  0.93711  Biso   1.000  C
  C348     1.0000 0.12021  0.38589  0.80670  Biso   1.000  C
  H314     1.0000 0.15586  0.40770  0.76291  Biso   1.000  H
  H315     1.0000 0.15363  0.57510  0.77101  Biso   1.000  H
  H316     1.0000 0.11627  0.51149  0.74220  Biso   1.000  H
  H317     1.0000 0.19946  0.52359  0.75431  Biso   1.000  H
  H318     1.0000 0.08742  0.39201  0.85520  Biso   1.000  H
  H319     1.0000 0.06515  0.47639  0.89030  Biso   1.000  H
  H320     1.0000 0.03983  0.53671  0.87751  Biso   1.000  H
  H321     1.0000 0.12014  0.54177  0.89410  Biso   1.000  H
  C349     1.0000 0.36191  0.09219  0.94641  Biso   1.000  C
  H322     1.0000 0.43752  0.12152  0.98890  Biso   1.000  H
  H323     1.0000 0.45518  0.20884  0.03691  Biso   1.000  H
  H324     1.0000 0.38532  0.23542  0.04620  Biso   1.000  H
  H325     1.0000 0.43890  0.27490  0.02752  Biso   1.000  H
  H326     1.0000 0.27281  0.09001  0.91170  Biso   1.000  H
  H327     1.0000 0.21311  0.23851  0.94239  Biso   1.000  H
  H328     1.0000 0.17620  0.16450  0.92640  Biso   1.000  H
  H329     1.0000 0.22731  0.20123  0.90551  Biso   1.000  H
  C350     1.0000 0.47300  0.56004  0.11300  Biso   1.000  C
  H330     1.0000 0.39011  0.59534  0.08971  Biso   1.000  H
  H331     1.0000 0.41199  0.53491  0.06430  Biso   1.000  H
  B19      1.0000 0.12956  0.21430  0.75931  Biso   1.000  B
  B20      1.0000 0.37144  0.94081  0.88331  Biso   1.000  B
  H332     1.0000 0.31553  0.75432  0.96131  Biso   1.000  H
  H333     1.0000 0.29365  0.71372  0.92182  Biso   1.000  H
  C351     1.0000 0.40115  0.76191  0.93240  Biso   1.000  C
  B21      1.0000 0.12302  0.31356  0.79999  Biso   1.000  B
  B22      1.0000 0.38003  0.03171  0.93041  Biso   1.000  B
  H334     1.0000 0.50929  0.59033  0.10620  Biso   1.000  H
  H335     1.0000 0.48729  0.51802  0.11112  Biso   1.000  H
  H336     1.0000 0.46550  0.57820  0.13640  Biso   1.000  H
  O19      1.0000 0.11961  0.18068  0.78232  Biso   1.000  O
  O20      1.0000 0.13203  0.28149  0.76650  Biso   1.000  O
  O21      1.0000 0.43384  0.92299  0.89601  Biso   1.000  O
  O22      1.0000 0.34782  0.99202  0.89832  Biso   1.000  O
  H337     1.0000 0.42086  0.72531  0.93841  Biso   1.000  H
  H338     1.0000 0.42701  0.80269  0.94760  Biso   1.000  H
  H339     1.0000 0.40523  0.76241  0.90831  Biso   1.000  H
  O23      1.0000 0.10383  0.27850  0.82251  Biso   1.000  O
  O24      1.0000 0.44471  0.01448  0.94470  Biso   1.000  O
  B23      1.0000 0.10785  0.21347  0.81671  Biso   1.000  B
  B24      1.0000 0.46883  0.96041  0.92542  Biso   1.000  B
  C352     1.0000 0.08265  0.17070  0.84021  Biso   1.000  C
  C353     1.0000 0.55275  0.95572  0.93862  Biso   1.000  C
  C354     1.0000 0.05703  0.19238  0.87050  Biso   1.000  C
  C355     1.0000 0.09855  0.10481  0.83201  Biso   1.000  C
  C356     1.0000 0.57603  0.90208  0.91750  Biso   1.000  C
  C357     1.0000 0.59279  0.99601  0.96331  Biso   1.000  C
  H340     1.0000 0.05185  0.23672  0.87681  Biso   1.000  H
  C358     1.0000 0.03891  0.15239  0.89172  Biso   1.000  C
  C359     1.0000 0.06962  0.06051  0.85471  Biso   1.000  C
  H341     1.0000 0.12474  0.09047  0.81420  Biso   1.000  H
  H342     1.0000 0.54342  0.87001  0.90070  Biso   1.000  H
  C360     1.0000 0.64734  0.89771  0.92210  Biso   1.000  C
  H343     1.0000 0.57543  0.03150  0.97612  Biso   1.000  H
  C361     1.0000 0.66063  0.98931  0.97180  Biso   1.000  C
  C362     1.0000 0.05033  0.08821  0.88621  Biso   1.000  C
  C363     1.0000 0.01443  0.18559  0.92661  Biso   1.000  C
  C364     1.0000 0.08373  0.99040  0.84399  Biso   1.000  C
  C365     1.0000 0.69181  0.93751  0.94881  Biso   1.000  C
  C366     1.0000 0.66932  0.84378  0.89881  Biso   1.000  C
  C367     1.0000 0.70882  0.03200  0.00340  Biso   1.000  C
  C368     1.0000 0.03294  0.04380  0.90880  Biso   1.000  C
  H344     1.0000 0.97280  0.20490  0.92109  Biso   1.000  H
  H345     1.0000 0.00271  0.15280  0.93981  Biso   1.000  H
  H346     1.0000 0.05245  0.21972  0.94030  Biso   1.000  H
  H347     1.0000 0.09635  0.98279  0.82070  Biso   1.000  H
  H348     1.0000 0.04125  0.95970  0.84410  Biso   1.000  H
  H349     1.0000 0.12243  0.98408  0.86030  Biso   1.000  H
  C369     1.0000 0.76470  0.93129  0.95852  Biso   1.000  C
  H350     1.0000 0.62941  0.82068  0.88111  Biso   1.000  H
  H351     1.0000 0.68544  0.81373  0.91222  Biso   1.000  H
  H352     1.0000 0.70770  0.86098  0.88771  Biso   1.000  H
  H353     1.0000 0.75521  0.01901  0.00461  Biso   1.000  H
  H354     1.0000 0.68882  0.02732  0.02421  Biso   1.000  H
  H355     1.0000 0.71353  0.07754  0.00171  Biso   1.000  H
  C370     1.0000 0.96121  0.02448  0.91341  Biso   1.000  C
  C371     1.0000 0.08483  0.02293  0.92611  Biso   1.000  C
  C372     1.0000 0.78962  0.89542  0.97940  Biso   1.000  C
  C373     1.0000 0.81420  0.96361  0.94012  Biso   1.000  C
  H356     1.0000 0.92394  0.03929  0.90150  Biso   1.000  H
  C374     1.0000 0.94744  0.98412  0.93541  Biso   1.000  C
  C375     1.0000 0.07191  0.97999  0.94881  Biso   1.000  C
  H357     1.0000 0.13190  0.03698  0.92329  Biso   1.000  H
  C376     1.0000 0.86109  0.88820  0.98650  Biso   1.000  C
  H358     1.0000 0.75672  0.87283  0.99030  Biso   1.000  H
  H359     1.0000 0.79879  0.98789  0.92410  Biso   1.000  H
  C377     1.0000 0.88452  0.95770  0.94651  Biso   1.000  C
  C378     1.0000 0.00424  0.96261  0.95301  Biso   1.000  C
  H360     1.0000 0.10923  0.96452  0.96030  Biso   1.000  H
  C379     1.0000 0.90464  0.91861  0.97022  Biso   1.000  C
  H361     1.0000 0.87638  0.86312  0.00210  Biso   1.000  H
  N12      1.0000 0.97803  0.92451  0.97400  Biso   1.000  N
  C380     1.0000 0.01774  0.88870  0.99372  Biso   1.000  C
  H362     1.0000 0.99691  0.88551  0.01481  Biso   1.000  H
  C381     1.0000 0.01884  0.81484  0.97102  Biso   1.000  C
  H363     1.0000 0.06661  0.91251  0.00102  Biso   1.000  H
  H364     1.0000 0.97279  0.78679  0.96931  Biso   1.000  H
  H365     1.0000 0.02713  0.81660  0.94731  Biso   1.000  H
  C382     1.0000 0.07583  0.78681  0.98810  Biso   1.000  C
  H366     1.0000 0.12180  0.81440  0.98911  Biso   1.000  H
  C383     1.0000 0.07693  0.71690  0.96872  Biso   1.000  C
  H367     1.0000 0.06839  0.78682  0.01220  Biso   1.000  H
  C384     1.0000 0.13090  0.68312  0.98052  Biso   1.000  C
  H368     1.0000 0.08124  0.71770  0.94431  Biso   1.000  H
  H369     1.0000 0.03130  0.69031  0.96861  Biso   1.000  H
  H370     1.0000 0.12451  0.63990  0.96551  Biso   1.000  H
  H371     1.0000 0.17700  0.70782  0.97990  Biso   1.000  H
  H372     1.0000 0.12692  0.68011  0.00430  Biso   1.000  H
