
#######################################################################
#
#                 Cambridge Crystallographic Data Centre
#                                CCDC 
#
#######################################################################
#
# If this CIF has been generated from an entry in the Cambridge 
# Structural Database, then it will include bibliographic, chemical, 
# crystal, experimental, refinement or atomic coordinate data resulting 
# from the CCDC's data processing and validation procedures.
#
#######################################################################

data_ABIKUU
_chemical_formula_moiety         'C100 H151 N12 O23'
_symmetry_cell_setting           cubic
_symmetry_space_group_name_H-M   'I 21 3'
_symmetry_Int_Tables_number      199
_space_group_name_Hall           'I 2b 2c 3'
loop_
_symmetry_equiv_pos_site_id
_symmetry_equiv_pos_as_xyz
1 x,y,z
2 z,x,y
3 y,z,x
4 -y,1/2-z,x
5 z,-x,1/2-y
6 1/2-y,z,-x
7 -z,1/2-x,y
8 1/2-z,x,-y
9 y,-z,1/2-x
10 -x,1/2-y,z
11 x,-y,1/2-z
12 1/2-x,y,-z
13 1/2+x,1/2+y,1/2+z
14 1/2+z,1/2+x,1/2+y
15 1/2+y,1/2+z,1/2+x
16 1/2-y,-z,1/2+x
17 1/2+z,1/2-x,-y
18 -y,1/2+z,1/2-x
19 1/2-z,-x,1/2+y
20 -z,1/2+x,1/2-y
21 1/2+y,1/2-z,-x
22 1/2-x,-y,1/2+z
23 1/2+x,1/2-y,-z
24 -x,1/2+y,1/2-z
_cell_length_a                   30.095(5)
_cell_length_b                   30.095(5)
_cell_length_c                   30.095(5)
_cell_angle_alpha                90
_cell_angle_beta                 90
_cell_angle_gamma                90
_cell_volume                     27257.3
loop_
_atom_site_label
_atom_site_type_symbol
_atom_site_fract_x
_atom_site_fract_y
_atom_site_fract_z
O1 O 0.786(3) 0.590(3) 0.436(3)
O2 O 0.3435(11) 0.3435(11) 0.3435(11)
O3 O 0.5182(5) 0.3818(5) 0.0285(5)
H1 H 0.4978 0.3726 0.0118
C1 C 0.5524(18) 0.3491(18) 0.031(2)
H2 H 0.5818 0.3657 0.0344
H3 H 0.5533 0.3309 0.0060
H4 H 0.5487 0.3320 0.0589
O4 O 0.6563(18) 0.4543(18) 0.0028(18)
O5 O 0.6859(8) 0.5000 0.2500
C2 C 0.6385(9) 0.5000 0.2500
O6 O 0.4353(5) 0.4353(5) 0.4353(5)
C3 C 0.4084(8) 0.4084(8) 0.4084(8)
H5 H 0.3790 0.4067 0.4219
H5A H 0.4219 0.3790 0.4067
H5B H 0.4067 0.4219 0.3790
O7 O 0.3186(4) 0.2130(4) 0.1853(4)
N1 N 0.60343(17) 0.46878(16) 0.37584(18)
N2 N 0.61300(15) 0.40738(15) 0.44740(17)
N3 N 0.28734(14) 0.40737(14) 0.17881(14)
N4 N 0.20842(14) 0.40871(14) 0.23227(14)
C4 C 0.4356(2) 0.58286(17) 0.38088(18)
H6 H 0.4067 0.5848 0.3683
C5 C 0.4636(2) 0.54471(16) 0.36808(17)
C6 C 0.4488(2) 0.51692(17) 0.33453(19)
H7 H 0.4208 0.5225 0.3212
C7 C 0.4743(2) 0.48066(17) 0.31977(19)
C8 C 0.51570(18) 0.47370(17) 0.33855(18)
H8 H 0.5336 0.4497 0.3285
C9 C 0.53143(18) 0.50167(16) 0.37215(18)
C10 C 0.50437(18) 0.53607(16) 0.38757(17)
H9 H 0.5141 0.5538 0.4118
C11 C 0.45636(19) 0.45044(18) 0.2886(2)
C12 C 0.4376(2) 0.42275(18) 0.2659(2)
C13 C 0.41426(18) 0.38882(17) 0.24202(18)
C14 C 0.37319(17) 0.39654(16) 0.22307(17)
H10 H 0.3606 0.4255 0.2246
C15 C 0.34984(17) 0.36285(16) 0.20171(17)
C16 C 0.36779(17) 0.32010(17) 0.20074(17)
H11 H 0.3518 0.2966 0.1869
C17 C 0.40907(17) 0.31167(17) 0.21998(18)
C18 C 0.43211(19) 0.34593(18) 0.24034(19)
H12 H 0.4603 0.3402 0.2533
C19 C 0.57560(18) 0.49480(16) 0.39225(19)
H13 H 0.5831 0.5107 0.4185
C20 C 0.42878(17) 0.26699(17) 0.22134(19)
H14 H 0.4582 0.2640 0.2325
C21 C 0.30594(17) 0.36958(17) 0.18214(17)
H15 H 0.2904 0.3443 0.1713
C22 C 0.24286(18) 0.40908(18) 0.15866(17)
H16 H 0.2317 0.3782 0.1535
C23 C 0.2456(2) 0.4339(2) 0.11413(19)
H17 H 0.2589 0.4636 0.1189
H18 H 0.2650 0.4173 0.0934
C24 C 0.1998(2) 0.4390(3) 0.0938(2)
H19 H 0.2020 0.4568 0.0662
H20 H 0.1880 0.4094 0.0859
C25 C 0.1683(2) 0.4615(3) 0.1255(2)
H21 H 0.1383 0.4626 0.1120
H22 H 0.1782 0.4924 0.1305
C26 C 0.1655(2) 0.4378(2) 0.16994(19)
H23 H 0.1523 0.4079 0.1657
H24 H 0.1460 0.4548 0.1903
C27 C 0.21203(18) 0.43314(18) 0.19061(17)
H25 H 0.2242 0.4634 0.1968
C28 C 0.6459(2) 0.4637(2) 0.3996(2)
H26 H 0.6472 0.4848 0.4252
C29 C 0.6844(3) 0.4729(3) 0.3677(4)
H27 H 0.6819 0.4531 0.3416
H28 H 0.6826 0.5040 0.3571
C30 C 0.7291(3) 0.4654(3) 0.3905(5)
H29 H 0.7534 0.4709 0.3690
H30 H 0.7324 0.4867 0.4153
C31 C 0.7329(2) 0.4187(3) 0.4082(4)
H31 H 0.7612 0.4154 0.4247
H32 H 0.7333 0.3974 0.3831
C32 C 0.69396(19) 0.4078(2) 0.4390(3)
H33 H 0.6960 0.4265 0.4660
H34 H 0.6959 0.3764 0.4483
C33 C 0.64905(18) 0.4159(2) 0.4163(2)
H35 H 0.6461 0.3952 0.3904
N1A N 0.37584(18) 0.60343(17) 0.46878(16)
N2A N 0.44740(17) 0.61300(15) 0.40738(15)
N3A N 0.17881(14) 0.28734(14) 0.40737(14)
N4A N 0.23227(14) 0.20842(14) 0.40871(14)
C4A C 0.38088(18) 0.4356(2) 0.58286(17)
H6A H 0.3683 0.4067 0.5848
C5A C 0.36808(17) 0.4636(2) 0.54471(16)
C6A C 0.33453(19) 0.4488(2) 0.51692(17)
H7A H 0.3212 0.4208 0.5225
C7A C 0.31977(19) 0.4743(2) 0.48066(17)
C8A C 0.33855(18) 0.51570(18) 0.47370(17)
H8A H 0.3285 0.5336 0.4497
C9A C 0.37215(18) 0.53143(18) 0.50167(16)
C10A C 0.38757(17) 0.50437(18) 0.53607(16)
H9A H 0.4118 0.5141 0.5538
C11A C 0.2886(2) 0.45636(19) 0.45044(18)
C12A C 0.2659(2) 0.4376(2) 0.42275(18)
C13A C 0.24202(18) 0.41426(18) 0.38882(17)
C14A C 0.22307(17) 0.37319(17) 0.39654(16)
H10A H 0.2246 0.3606 0.4255
C15A C 0.20171(17) 0.34984(17) 0.36285(16)
C16A C 0.20074(17) 0.36779(17) 0.32010(17)
H11A H 0.1869 0.3518 0.2966
C17A C 0.21998(18) 0.40907(17) 0.31167(17)
C18A C 0.24034(19) 0.43211(19) 0.34593(18)
H12A H 0.2533 0.4603 0.3402
C19A C 0.39225(19) 0.57560(18) 0.49480(16)
H13A H 0.4185 0.5831 0.5107
C20A C 0.22134(19) 0.42878(17) 0.26699(17)
H14A H 0.2325 0.4582 0.2640
C21A C 0.18214(17) 0.30594(17) 0.36958(17)
H15A H 0.1713 0.2904 0.3443
C22A C 0.15866(17) 0.24286(18) 0.40908(18)
H16A H 0.1535 0.2317 0.3782
C23A C 0.11413(19) 0.2456(2) 0.4339(2)
H17A H 0.1189 0.2589 0.4636
H18A H 0.0934 0.2650 0.4173
C24A C 0.0938(2) 0.1998(2) 0.4390(3)
H19A H 0.0662 0.2020 0.4568
H20A H 0.0859 0.1880 0.4094
C25A C 0.1255(2) 0.1683(2) 0.4615(3)
H21A H 0.1120 0.1383 0.4626
H22A H 0.1305 0.1782 0.4924
C26A C 0.16994(19) 0.1655(2) 0.4378(2)
H23A H 0.1657 0.1523 0.4079
H24A H 0.1903 0.1460 0.4548
C27A C 0.19061(17) 0.21203(18) 0.43314(18)
H25A H 0.1968 0.2242 0.4634
C28A C 0.3996(2) 0.6459(2) 0.4637(2)
H26A H 0.4252 0.6472 0.4848
C29A C 0.3677(4) 0.6844(3) 0.4729(3)
H27A H 0.3416 0.6819 0.4531
H28A H 0.3571 0.6826 0.5040
C30A C 0.3905(5) 0.7291(3) 0.4654(3)
H29A H 0.3690 0.7534 0.4709
H30A H 0.4153 0.7324 0.4867
C31A C 0.4082(4) 0.7329(2) 0.4187(3)
H31A H 0.4247 0.7612 0.4154
H32A H 0.3831 0.7333 0.3974
C32A C 0.4390(3) 0.69396(19) 0.4078(2)
H33A H 0.4660 0.6960 0.4265
H34A H 0.4483 0.6959 0.3764
C33A C 0.4163(2) 0.64905(18) 0.4159(2)
H35A H 0.3904 0.6461 0.3952
N1B N 0.46878(16) 0.37584(18) 0.60343(17)
N2B N 0.40738(15) 0.44740(17) 0.61300(15)
N3B N 0.40737(14) 0.17881(14) 0.28734(14)
N4B N 0.40871(14) 0.23227(14) 0.20842(14)
C4B C 0.58286(17) 0.38088(18) 0.4356(2)
H6B H 0.5848 0.3683 0.4067
C5B C 0.54471(16) 0.36808(17) 0.4636(2)
C6B C 0.51692(17) 0.33453(19) 0.4488(2)
H7B H 0.5225 0.3212 0.4208
C7B C 0.48066(17) 0.31977(19) 0.4743(2)
C8B C 0.47370(17) 0.33855(18) 0.51570(18)
H8B H 0.4497 0.3285 0.5336
C9B C 0.50167(16) 0.37215(18) 0.53143(18)
C10B C 0.53607(16) 0.38757(17) 0.50437(18)
H9B H 0.5538 0.4118 0.5141
C11B C 0.45044(18) 0.2886(2) 0.45636(19)
C12B C 0.42275(18) 0.2659(2) 0.4376(2)
C13B C 0.38882(17) 0.24202(18) 0.41426(18)
C14B C 0.39654(16) 0.22307(17) 0.37319(17)
H10B H 0.4255 0.2246 0.3606
C15B C 0.36285(16) 0.20171(17) 0.34984(17)
C16B C 0.32010(17) 0.20074(17) 0.36779(17)
H11B H 0.2966 0.1869 0.3518
C17B C 0.31167(17) 0.21998(18) 0.40907(17)
C18B C 0.34593(18) 0.24034(19) 0.43211(19)
H12B H 0.3402 0.2533 0.4603
C19B C 0.49480(16) 0.39225(19) 0.57560(18)
H13B H 0.5107 0.4185 0.5831
C20B C 0.26699(17) 0.22134(19) 0.42878(17)
H14B H 0.2640 0.2325 0.4582
C21B C 0.36958(17) 0.18214(17) 0.30594(17)
H15B H 0.3443 0.1713 0.2904
C22B C 0.40908(18) 0.15866(17) 0.24286(18)
H16B H 0.3782 0.1535 0.2317
C23B C 0.4339(2) 0.11413(19) 0.2456(2)
H17B H 0.4636 0.1189 0.2589
H18B H 0.4173 0.0934 0.2650
C24B C 0.4390(3) 0.0938(2) 0.1998(2)
H19B H 0.4568 0.0662 0.2020
H20B H 0.4094 0.0859 0.1880
C25B C 0.4615(3) 0.1255(2) 0.1683(2)
H21B H 0.4626 0.1120 0.1383
H22B H 0.4924 0.1305 0.1782
C26B C 0.4378(2) 0.16994(19) 0.1655(2)
H23B H 0.4079 0.1657 0.1523
H24B H 0.4548 0.1903 0.1460
C27B C 0.43314(18) 0.19061(17) 0.21203(18)
H25B H 0.4634 0.1968 0.2242
C28B C 0.4637(2) 0.3996(2) 0.6459(2)
H26B H 0.4848 0.4252 0.6472
C29B C 0.4729(3) 0.3677(4) 0.6844(3)
H27B H 0.4531 0.3416 0.6819
H28B H 0.5040 0.3571 0.6826
C30B C 0.4654(3) 0.3905(5) 0.7291(3)
H29B H 0.4709 0.3690 0.7534
H30B H 0.4867 0.4153 0.7324
C31B C 0.4187(3) 0.4082(4) 0.7329(2)
H31B H 0.4154 0.4247 0.7612
H32B H 0.3974 0.3831 0.7333
C32B C 0.4078(2) 0.4390(3) 0.69396(19)
H33B H 0.4265 0.4660 0.6960
H34B H 0.3764 0.4483 0.6959
C33B C 0.4159(2) 0.4163(2) 0.64905(18)
H35B H 0.3952 0.3904 0.6461
O8 O 0.179(3) 0.179(3) 0.179(3)
O9 O 0.687(2) 0.378(2) 0.1671(19)
C34 C 0.707(2) 0.367(2) 0.209(2)
O10? O 0.789(3) 0.587(3) 0.384(3)
O11? O 0.5318(9) 0.3645(9) 0.0500(9)
O12? O 0.674(2) 0.337(2) 0.089(2)
O13? O 0.6509(15) 0.4031(16) 0.0815(16)
H36? H 0.6582 0.3775 0.0899
C35? C 0.6119(15) 0.4003(15) 0.0542(15)
H37? H 0.6128 0.4231 0.0318
H38? H 0.5851 0.4034 0.0727
H39? H 0.6107 0.3706 0.0396
O14? O 0.3177(4) 0.5037(4) 0.3003(4)
H40? H 0.3309 0.4990 0.2762
C36? C 0.3430(10) 0.4866(12) 0.3355(9)
H41? H 0.3630 0.4634 0.3243
H42? H 0.3231 0.4739 0.3580
H43? H 0.3606 0.5105 0.3489
O15? O 0.3543(8) 0.4338(8) 0.3469(8)
O16? O 0.3068(5) 0.5061(5) 0.2881(5)
O17? O 0.513(5) 0.221(5) -0.187(5)
O18? O 0.6243(8) 0.4644(7) 0.2823(7)
H44? H 0.6516 0.4644 0.2882
C37? C 0.614(2) 0.5000 0.2500
H45? H 0.6154 0.4878 0.2198
H46? H 0.6367 0.5236 0.2528
H47? H 0.5849 0.5122 0.2559
O19? O 0.6923(9) 0.4086(9) 0.2375(9)
H48? H 0.6912 0.3931 0.2144
C38? C 0.733(2) 0.434(3) 0.238(4)
H49? H 0.7565 0.4279 0.2635
H50? H 0.7291 0.4699 0.2457
H51? H 0.7533 0.4373 0.2113
H52? H 0.6846 0.4054 0.1649
H53? H 0.7349 0.3503 0.2010
H54? H 0.6871 0.3473 0.2241
H55? H 0.7149 0.3926 0.2262
H56? H 0.3790 0.4067 0.4219
H57? H 0.3790 0.4067 0.4219
O20? O 0.2854(12) 0.2562(12) 0.1206(11)
O21? O 0.5000 0.2500 -0.128(7)
H58? H 0.4451 0.4566 0.4202
O22? O 0.5480(11) 0.5362(11) 0.5029(11)
H59? H 0.5639 0.5229 0.4843
C39? C 0.5117(6) 0.5117(6) 0.5117(6)
H60? H 0.5012 0.4977 0.4843
H61? H 0.4883 0.5309 0.5238
H62? H 0.5192 0.4887 0.5335
O23? O 0.2593(14) 0.2677(12) 0.2296(11)
H63? H 0.2646 0.2415 0.2217
C40? C 0.2740(8) 0.2740(8) 0.2740(8)
H64? H 0.2814 0.2451 0.2870
H65? H 0.2501 0.2879 0.2914
H66? H 0.3006 0.2934 0.2753
H67? H 0.6278 0.4863 0.2775
H68? H 0.6278 0.4830 0.2244
H69? H 0.6952 0.5263 0.2505
H70? H 0.6278 0.5306 0.2481
loop_
_geom_bond_atom_site_label_1
_geom_bond_atom_site_label_2
_geom_bond_site_symmetry_1
_geom_bond_site_symmetry_2
O3 H1 1_555 1_555
C1 O3 1_555 1_555
H2 C1 1_555 1_555
H3 C1 1_555 1_555
H4 C1 1_555 1_555
O5 C2 1_555 1_555
O6 C3 1_555 1_555
C3 H5 1_555 1_555
N1 C19 1_555 1_555
N2 C33 1_555 1_555
N3 C21 1_555 1_555
N4 C27 1_555 1_555
C4 H6 1_555 1_555
C5 C4 1_555 1_555
C6 C5 1_555 1_555
H7 C6 1_555 1_555
C7 C6 1_555 1_555
C8 C7 1_555 1_555
H8 C8 1_555 1_555
C9 C8 1_555 1_555
C10 C5 1_555 1_555
H9 C10 1_555 1_555
C11 C7 1_555 1_555
C12 C11 1_555 1_555
C13 C12 1_555 1_555
C14 C13 1_555 1_555
H10 C14 1_555 1_555
C15 C14 1_555 1_555
C16 C15 1_555 1_555
H11 C16 1_555 1_555
C17 C16 1_555 1_555
C18 C13 1_555 1_555
H12 C18 1_555 1_555
C19 C9 1_555 1_555
H13 C19 1_555 1_555
C20 C17 1_555 1_555
H14 C20 1_555 1_555
C21 C15 1_555 1_555
H15 C21 1_555 1_555
C22 N3 1_555 1_555
H16 C22 1_555 1_555
C23 C22 1_555 1_555
H17 C23 1_555 1_555
H18 C23 1_555 1_555
C24 C23 1_555 1_555
H19 C24 1_555 1_555
H20 C24 1_555 1_555
C25 C24 1_555 1_555
H21 C25 1_555 1_555
H22 C25 1_555 1_555
C26 C25 1_555 1_555
H23 C26 1_555 1_555
H24 C26 1_555 1_555
C27 C22 1_555 1_555
H25 C27 1_555 1_555
C28 N1 1_555 1_555
H26 C28 1_555 1_555
C29 C28 1_555 1_555
H27 C29 1_555 1_555
H28 C29 1_555 1_555
C30 C29 1_555 1_555
H29 C30 1_555 1_555
H30 C30 1_555 1_555
C31 C30 1_555 1_555
H31 C31 1_555 1_555
H32 C31 1_555 1_555
C32 C31 1_555 1_555
H33 C32 1_555 1_555
H34 C32 1_555 1_555
C33 C28 1_555 1_555
H35 C33 1_555 1_555
O9 C34 1_555 1_555
H5A C3 1_555 1_555
H5B C3 1_555 1_555
N1A C19A 1_555 1_555
N2A C4 1_555 1_555
N3A C21A 1_555 1_555
N4A C27A 1_555 1_555
C4A H6A 1_555 1_555
C5A C4A 1_555 1_555
C6A C5A 1_555 1_555
H7A C6A 1_555 1_555
C7A C6A 1_555 1_555
C8A C7A 1_555 1_555
H8A C8A 1_555 1_555
C9A C8A 1_555 1_555
C10A C5A 1_555 1_555
H9A C10A 1_555 1_555
C11A C7A 1_555 1_555
C12A C11A 1_555 1_555
C13A C12A 1_555 1_555
C14A C13A 1_555 1_555
H10A C14A 1_555 1_555
C15A C14A 1_555 1_555
C16A C15A 1_555 1_555
H11A C16A 1_555 1_555
C17A C16A 1_555 1_555
C18A C13A 1_555 1_555
H12A C18A 1_555 1_555
C19A C9A 1_555 1_555
H13A C19A 1_555 1_555
C20A N4 1_555 1_555
H14A C20A 1_555 1_555
C21A C15A 1_555 1_555
H15A C21A 1_555 1_555
C22A N3A 1_555 1_555
H16A C22A 1_555 1_555
C23A C22A 1_555 1_555
H17A C23A 1_555 1_555
H18A C23A 1_555 1_555
C24A C23A 1_555 1_555
H19A C24A 1_555 1_555
H20A C24A 1_555 1_555
C25A C24A 1_555 1_555
H21A C25A 1_555 1_555
H22A C25A 1_555 1_555
C26A C25A 1_555 1_555
H23A C26A 1_555 1_555
H24A C26A 1_555 1_555
C27A C22A 1_555 1_555
H25A C27A 1_555 1_555
C28A N1A 1_555 1_555
H26A C28A 1_555 1_555
C29A C28A 1_555 1_555
H27A C29A 1_555 1_555
H28A C29A 1_555 1_555
C30A C29A 1_555 1_555
H29A C30A 1_555 1_555
H30A C30A 1_555 1_555
C31A C30A 1_555 1_555
H31A C31A 1_555 1_555
H32A C31A 1_555 1_555
C32A C31A 1_555 1_555
H33A C32A 1_555 1_555
H34A C32A 1_555 1_555
C33A N2A 1_555 1_555
H35A C33A 1_555 1_555
N1B C19B 1_555 1_555
N2B C4A 1_555 1_555
N3B C21B 1_555 1_555
N4B C20 1_555 1_555
C4B N2 1_555 1_555
H6B C4B 1_555 1_555
C5B C4B 1_555 1_555
C6B C5B 1_555 1_555
H7B C6B 1_555 1_555
C7B C6B 1_555 1_555
C8B C7B 1_555 1_555
H8B C8B 1_555 1_555
C9B C8B 1_555 1_555
C10B C5B 1_555 1_555
H9B C10B 1_555 1_555
C11B C7B 1_555 1_555
C12B C11B 1_555 1_555
C13B C12B 1_555 1_555
C14B C13B 1_555 1_555
H10B C14B 1_555 1_555
C15B C14B 1_555 1_555
C16B C15B 1_555 1_555
H11B C16B 1_555 1_555
C17B C16B 1_555 1_555
C18B C13B 1_555 1_555
H12B C18B 1_555 1_555
C19B C9B 1_555 1_555
H13B C19B 1_555 1_555
C20B N4A 1_555 1_555
H14B C20B 1_555 1_555
C21B C15B 1_555 1_555
H15B C21B 1_555 1_555
C22B N3B 1_555 1_555
H16B C22B 1_555 1_555
C23B C22B 1_555 1_555
H17B C23B 1_555 1_555
H18B C23B 1_555 1_555
C24B C23B 1_555 1_555
H19B C24B 1_555 1_555
H20B C24B 1_555 1_555
C25B C24B 1_555 1_555
H21B C25B 1_555 1_555
H22B C25B 1_555 1_555
C26B C25B 1_555 1_555
H23B C26B 1_555 1_555
H24B C26B 1_555 1_555
C27B N4B 1_555 1_555
H25B C27B 1_555 1_555
C28B N1B 1_555 1_555
H26B C28B 1_555 1_555
C29B C28B 1_555 1_555
H27B C29B 1_555 1_555
H28B C29B 1_555 1_555
C30B C29B 1_555 1_555
H29B C30B 1_555 1_555
H30B C30B 1_555 1_555
C31B C30B 1_555 1_555
H31B C31B 1_555 1_555
H32B C31B 1_555 1_555
C32B C31B 1_555 1_555
H33B C32B 1_555 1_555
H34B C32B 1_555 1_555
C33B N2B 1_555 1_555
H35B C33B 1_555 1_555
C9 C10 1_555 1_555
C17 C18 1_555 1_555
C26 C27 1_555 1_555
C32 C33 1_555 1_555
C9A C10A 1_555 1_555
C17A C18A 1_555 1_555
C17A C20A 1_555 1_555
C26A C27A 1_555 1_555
C28A C33A 1_555 1_555
C32A C33A 1_555 1_555
C9B C10B 1_555 1_555
C17B C18B 1_555 1_555
C17B C20B 1_555 1_555
C22B C27B 1_555 1_555
C26B C27B 1_555 1_555
C28B C33B 1_555 1_555
C32B C33B 1_555 1_555

#END
