
#######################################################################
#
#                 Cambridge Crystallographic Data Centre
#                                CCDC 
#
#######################################################################
#
# If this CIF has been generated from an entry in the Cambridge 
# Structural Database, then it will include bibliographic, chemical, 
# crystal, experimental, refinement or atomic coordinate data resulting 
# from the CCDC's data processing and validation procedures.
#
#######################################################################

data_ABILAB
_chemical_formula_moiety         'C92 H95 N12 O0.5'
_symmetry_cell_setting           rhombohedral
_symmetry_space_group_name_H-M   'R -3 c'
_symmetry_Int_Tables_number      167
_space_group_name_Hall           '-R 3 2"c'
loop_
_symmetry_equiv_pos_site_id
_symmetry_equiv_pos_as_xyz
1 x,y,z
2 -y,x-y,z
3 -x+y,-x,z
4 x-y,-y,1/2-z
5 -x,-x+y,1/2-z
6 y,x,1/2-z
7 2/3+x,1/3+y,1/3+z
8 2/3-y,1/3+x-y,1/3+z
9 2/3-x+y,1/3-x,1/3+z
10 2/3+x-y,1/3-y,5/6-z
11 2/3-x,1/3-x+y,5/6-z
12 2/3+y,1/3+x,5/6-z
13 1/3+x,2/3+y,2/3+z
14 1/3-y,2/3+x-y,2/3+z
15 1/3-x+y,2/3-x,2/3+z
16 1/3+x-y,2/3-y,1/6-z
17 1/3-x,2/3-x+y,1/6-z
18 1/3+y,2/3+x,1/6-z
19 -x,-y,-z
20 y,-x+y,-z
21 x-y,x,-z
22 -x+y,y,1/2+z
23 x,x-y,1/2+z
24 -y,-x,1/2+z
25 1/3-x,2/3-y,2/3-z
26 1/3+y,2/3-x+y,2/3-z
27 1/3+x-y,2/3+x,2/3-z
28 1/3-x+y,2/3+y,1/6+z
29 1/3+x,2/3+x-y,1/6+z
30 1/3-y,2/3-x,1/6+z
31 2/3-x,1/3-y,1/3-z
32 2/3+y,1/3-x+y,1/3-z
33 2/3+x-y,1/3+x,1/3-z
34 2/3-x+y,1/3+y,5/6+z
35 2/3+x,1/3+x-y,5/6+z
36 2/3-y,1/3-x,5/6+z
_cell_length_a                   24.469(3)
_cell_length_b                   24.469(3)
_cell_length_c                   28.928(3)
_cell_angle_alpha                90
_cell_angle_beta                 90
_cell_angle_gamma                120
_cell_volume                     14999.7
loop_
_atom_site_label
_atom_site_type_symbol
_atom_site_fract_x
_atom_site_fract_y
_atom_site_fract_z
N1 N 0.4667(2) 0.57279(19) 0.59075(13)
N2 N 0.5408(2) 0.7070(2) 0.60406(14)
C1 C 0.3309(3) 0.4965(3) 0.43736(16)
C2 C 0.3203(3) 0.4974(2) 0.48635(15)
C3 C 0.3696(3) 0.5214(2) 0.51790(16)
H1 H 0.4113 0.5347 0.5077
C4 C 0.3580(2) 0.5262(2) 0.56484(15)
C5 C 0.2973(3) 0.5058(3) 0.57887(16)
H2 H 0.2895 0.5093 0.6106
C6 C 0.2468(3) 0.4804(2) 0.54826(15)
C7 C 0.2591(3) 0.4764(2) 0.50142(16)
H3 H 0.2253 0.4592 0.4798
C8 C 0.4094(3) 0.5544(2) 0.59911(16)
H4 H 0.3986 0.5591 0.6298
C9 C 0.5111(2) 0.6006(2) 0.62907(15)
H5 H 0.4886 0.6069 0.6556
C10 C 0.5361(3) 0.5577(3) 0.64491(16)
H6 H 0.5004 0.5168 0.6553
H7 H 0.5568 0.5494 0.6186
C11 C 0.5829(3) 0.5877(3) 0.68407(18)
H8 H 0.5616 0.5940 0.7109
H9 H 0.5985 0.5591 0.6936
C12 C 0.6381(3) 0.6506(3) 0.6694(2)
H10 H 0.6622 0.6437 0.6448
H11 H 0.6667 0.6706 0.6960
C13 C 0.6152(3) 0.6939(3) 0.6516(2)
H12 H 0.5980 0.7066 0.6779
H13 H 0.6516 0.7326 0.6390
C14 C 0.5652(3) 0.6645(2) 0.61465(17)
H14 H 0.5849 0.6590 0.5861
C15 C 0.5433(2) 0.7247(2) 0.56270(17)
H15 H 0.5613 0.7103 0.5400
N1A N 0.42721(19) 0.89391(28) 0.59075(13)
N2A N 0.2930(2) 0.8338(3) 0.60406(14)
C1A C 0.5035(3) 0.8344(4) 0.43736(16)
C2A C 0.5026(2) 0.8229(4) 0.48635(15)
C3A C 0.4786(2) 0.8482(4) 0.51790(16)
H1A H 0.4653 0.8766 0.5077
C4A C 0.4738(2) 0.8318(3) 0.56484(15)
C5A C 0.4942(3) 0.7915(4) 0.57887(16)
H2A H 0.4907 0.7802 0.6106
C6A C 0.5196(2) 0.7664(4) 0.54826(15)
C7A C 0.5236(2) 0.7827(4) 0.50142(16)
H3A H 0.5408 0.7661 0.4798
C8A C 0.4456(2) 0.8550(4) 0.59911(16)
H4A H 0.4409 0.8395 0.6298
C9A C 0.3994(2) 0.9105(3) 0.62907(15)
H5A H 0.3931 0.8817 0.6556
C10A C 0.4423(3) 0.9784(4) 0.64491(16)
H6A H 0.4832 0.9836 0.6553
H7A H 0.4506 1.0074 0.6186
C11A C 0.4123(3) 0.9952(4) 0.68407(18)
H8A H 0.4060 0.9676 0.7109
H9A H 0.4409 1.0394 0.6936
C12A C 0.3494(3) 0.9875(4) 0.6694(2)
H10A H 0.3563 1.0185 0.6448
H11A H 0.3294 0.9961 0.6960
C13A C 0.3061(3) 0.9213(4) 0.6516(2)
H12A H 0.2934 0.8914 0.6779
H13A H 0.2674 0.9190 0.6390
C14A C 0.3355(2) 0.9007(4) 0.61465(17)
H14A H 0.3410 0.9259 0.5861
C15A C 0.2753(2) 0.8186(3) 0.56270(17)
H15A H 0.2897 0.8510 0.5400
N1B N 0.10609(28) 0.5333(2) 0.59075(13)
N2B N 0.1662(3) 0.4592(2) 0.60406(14)
C1B C 0.1656(4) 0.6691(3) 0.43736(16)
C2B C 0.1771(4) 0.6797(3) 0.48635(15)
C3B C 0.1518(4) 0.6304(3) 0.51790(16)
H1B H 0.1234 0.5887 0.5077
C4B C 0.1682(3) 0.6420(2) 0.56484(15)
C5B C 0.2085(4) 0.7027(3) 0.57887(16)
H2B H 0.2198 0.7105 0.6106
C6B C 0.2336(4) 0.7532(3) 0.54826(15)
C7B C 0.2173(4) 0.7409(3) 0.50142(16)
H3B H 0.2339 0.7747 0.4798
C8B C 0.1450(4) 0.5906(3) 0.59911(16)
H4B H 0.1605 0.6014 0.6298
C9B C 0.0895(3) 0.4889(2) 0.62907(15)
H5B H 0.1183 0.5114 0.6556
C10B C 0.0216(4) 0.4639(3) 0.64491(16)
H6B H 0.0164 0.4996 0.6553
H7B H -0.0074 0.4432 0.6186
C11B C 0.0048(4) 0.4171(3) 0.68407(18)
H8B H 0.0324 0.4384 0.7109
H9B H -0.0394 0.4015 0.6936
C12B C 0.0125(4) 0.3619(3) 0.6694(2)
H10B H -0.0185 0.3378 0.6448
H11B H 0.0039 0.3333 0.6960
C13B C 0.0787(4) 0.3848(3) 0.6516(2)
H12B H 0.1086 0.4020 0.6779
H13B H 0.0810 0.3484 0.6390
C14B C 0.0993(4) 0.4348(3) 0.61465(17)
H14B H 0.0741 0.4151 0.5861
C15B C 0.1814(3) 0.4567(2) 0.56270(17)
H15B H 0.1490 0.4387 0.5400
N1J N 0.2000(2) 0.43942(28) 0.24258(13)
N2J N 0.1259(2) 0.4995(3) 0.22927(14)
C1J C 0.3358(3) 0.4989(4) 0.39597(16)
C2J C 0.3464(3) 0.5104(4) 0.34698(15)
C3J C 0.2971(3) 0.4851(4) 0.31543(16)
H1J H 0.2554 0.4567 0.3256
C4J C 0.3087(2) 0.5015(3) 0.26849(15)
C5J C 0.3694(3) 0.5418(4) 0.25446(16)
H2J H 0.3772 0.5531 0.2227
C6J C 0.4199(3) 0.5669(4) 0.28507(15)
C7J C 0.4076(3) 0.5506(4) 0.33191(16)
H3J H 0.4414 0.5672 0.3535
C8J C 0.2573(3) 0.4783(4) 0.23422(16)
H4J H 0.2681 0.4938 0.2035
C9J C 0.1556(2) 0.4228(3) 0.20426(15)
H5J H 0.1781 0.4516 0.1777
C10J C 0.1306(3) 0.3549(4) 0.18842(16)
H6J H 0.1663 0.3497 0.1780
H7J H 0.1099 0.3259 0.2147
C11J C 0.0838(3) 0.3381(4) 0.14926(18)
H8J H 0.1051 0.3657 0.1224
H9J H 0.0682 0.2939 0.1397
C12J C 0.0286(3) 0.3458(4) 0.1639(2)
H10J H 0.0045 0.3148 0.1885
H11J H -0.0000 0.3372 0.1373
C13J C 0.0515(3) 0.4120(4) 0.1817(2)
H12J H 0.0687 0.4419 0.1554
H13J H 0.0151 0.4143 0.1943
C14J C 0.1015(3) 0.4326(4) 0.21868(17)
H14J H 0.0818 0.4074 0.2472
C15J C 0.1234(2) 0.5147(3) 0.27063(17)
H15J H 0.1054 0.4823 0.2933
N1K N 0.23946(19) 0.8000(2) 0.24258(13)
N2K N 0.3737(2) 0.8741(2) 0.22927(14)
C1K C 0.1632(3) 0.6642(3) 0.39597(16)
C2K C 0.1641(2) 0.6536(3) 0.34698(15)
C3K C 0.1881(2) 0.7029(3) 0.31543(16)
H1K H 0.2014 0.7446 0.3256
C4K C 0.1929(2) 0.6913(2) 0.26849(15)
C5K C 0.1725(3) 0.6306(3) 0.25446(16)
H2K H 0.1760 0.6228 0.2227
C6K C 0.1471(2) 0.5801(3) 0.28507(15)
C7K C 0.1431(2) 0.5924(3) 0.33191(16)
H3K H 0.1259 0.5586 0.3535
C8K C 0.2211(2) 0.7427(3) 0.23422(16)
H4K H 0.2258 0.7319 0.2035
C9K C 0.2673(2) 0.8444(2) 0.20426(15)
H5K H 0.2736 0.8219 0.1777
C10K C 0.2244(3) 0.8694(3) 0.18842(16)
H6K H 0.1835 0.8337 0.1780
H7K H 0.2161 0.8901 0.2147
C11K C 0.2544(3) 0.9162(3) 0.14926(18)
H8K H 0.2607 0.8949 0.1224
H9K H 0.2258 0.9318 0.1397
C12K C 0.3173(3) 0.9714(3) 0.1639(2)
H10K H 0.3104 0.9955 0.1885
H11K H 0.3373 1.0000 0.1373
C13K C 0.3606(3) 0.9485(3) 0.1817(2)
H12K H 0.3733 0.9313 0.1554
H13K H 0.3993 0.9849 0.1943
C14K C 0.3312(2) 0.8985(3) 0.21868(17)
H14K H 0.3257 0.9182 0.2472
C15K C 0.3914(2) 0.8766(2) 0.27063(17)
H15K H 0.3770 0.8946 0.2933
N1I N 0.56058(28) 0.76054(19) 0.24258(13)
N2I N 0.5005(3) 0.6263(2) 0.22927(14)
C1I C 0.5011(4) 0.8368(3) 0.39597(16)
C2I C 0.4896(4) 0.8359(2) 0.34698(15)
C3I C 0.5149(4) 0.8119(2) 0.31543(16)
H1I H 0.5433 0.7986 0.3256
C4I C 0.4985(3) 0.8071(2) 0.26849(15)
C5I C 0.4582(4) 0.8275(3) 0.25446(16)
H2I H 0.4469 0.8240 0.2227
C6I C 0.4331(4) 0.8529(2) 0.28507(15)
C7I C 0.4494(4) 0.8569(2) 0.33191(16)
H3I H 0.4328 0.8741 0.3535
C8I C 0.5217(4) 0.7789(2) 0.23422(16)
H4I H 0.5062 0.7742 0.2035
C9I C 0.5772(3) 0.7327(2) 0.20426(15)
H5I H 0.5484 0.7264 0.1777
C10I C 0.6451(4) 0.7756(3) 0.18842(16)
H6I H 0.6503 0.8165 0.1780
H7I H 0.6741 0.7839 0.2147
C11I C 0.6619(4) 0.7456(3) 0.14926(18)
H8I H 0.6343 0.7393 0.1224
H9I H 0.7061 0.7742 0.1397
C12I C 0.6542(4) 0.6827(3) 0.1639(2)
H10I H 0.6852 0.6896 0.1885
H11I H 0.6628 0.6627 0.1373
C13I C 0.5880(4) 0.6394(3) 0.1817(2)
H12I H 0.5581 0.6267 0.1554
H13I H 0.5857 0.6007 0.1943
C14I C 0.5674(4) 0.6688(2) 0.21868(17)
H14I H 0.5926 0.6743 0.2472
C15I C 0.4853(3) 0.6086(2) 0.27063(17)
H15I H 0.5177 0.6230 0.2933
O1? O 0.4290(5) 0.3184(5) 0.5668(4)
C16? C 0.4717(4) 0.4312(3) 0.5505(3)
H16? H 0.4373 0.4292 0.5692
H17? H 0.4644 0.4358 0.5178
H18? H 0.5119 0.4674 0.5603
C17? C 0.4741(5) 0.3758(4) 0.5566(3)
H19? H 0.4928 0.3710 0.5276
H20? H 0.5065 0.3862 0.5808
loop_
_geom_bond_atom_site_label_1
_geom_bond_atom_site_label_2
_geom_bond_site_symmetry_1
_geom_bond_site_symmetry_2
N1 C8 1_555 1_555
N2 C14 1_555 1_555
C1 C2 1_555 1_555
C2 C3 1_555 1_555
C3 H1 1_555 1_555
C4 C3 1_555 1_555
C5 C4 1_555 1_555
H2 C5 1_555 1_555
C6 C5 1_555 1_555
C7 C2 1_555 1_555
H3 C7 1_555 1_555
C8 C4 1_555 1_555
H4 C8 1_555 1_555
C9 N1 1_555 1_555
H5 C9 1_555 1_555
C10 C9 1_555 1_555
H6 C10 1_555 1_555
H7 C10 1_555 1_555
C11 C10 1_555 1_555
H8 C11 1_555 1_555
H9 C11 1_555 1_555
C12 C11 1_555 1_555
H10 C12 1_555 1_555
H11 C12 1_555 1_555
C13 C12 1_555 1_555
H12 C13 1_555 1_555
H13 C13 1_555 1_555
C14 C9 1_555 1_555
H14 C14 1_555 1_555
C15 N2 1_555 1_555
H15 C15 1_555 1_555
N1A C8A 1_555 1_555
N2A C14A 1_555 1_555
C1A C2A 1_555 1_555
C2A C3A 1_555 1_555
C3A H1A 1_555 1_555
C4A C3A 1_555 1_555
C5A C4A 1_555 1_555
H2A C5A 1_555 1_555
C6A C15 1_555 1_555
C7A C2A 1_555 1_555
H3A C7A 1_555 1_555
C8A C4A 1_555 1_555
H4A C8A 1_555 1_555
C9A N1A 1_555 1_555
H5A C9A 1_555 1_555
C10A C9A 1_555 1_555
H6A C10A 1_555 1_555
H7A C10A 1_555 1_555
C11A C10A 1_555 1_555
H8A C11A 1_555 1_555
H9A C11A 1_555 1_555
C12A C11A 1_555 1_555
H10A C12A 1_555 1_555
H11A C12A 1_555 1_555
C13A C12A 1_555 1_555
H12A C13A 1_555 1_555
H13A C13A 1_555 1_555
C14A C9A 1_555 1_555
H14A C14A 1_555 1_555
C15A N2A 1_555 1_555
H15A C15A 1_555 1_555
N1B C8B 1_555 1_555
N2B C14B 1_555 1_555
C1B C2B 1_555 1_555
C2B C3B 1_555 1_555
C3B H1B 1_555 1_555
C4B C3B 1_555 1_555
C5B C4B 1_555 1_555
H2B C5B 1_555 1_555
C6B C15A 1_555 1_555
C7B C2B 1_555 1_555
H3B C7B 1_555 1_555
C8B C4B 1_555 1_555
H4B C8B 1_555 1_555
C9B N1B 1_555 1_555
H5B C9B 1_555 1_555
C10B C9B 1_555 1_555
H6B C10B 1_555 1_555
H7B C10B 1_555 1_555
C11B C10B 1_555 1_555
H8B C11B 1_555 1_555
H9B C11B 1_555 1_555
C12B C11B 1_555 1_555
H10B C12B 1_555 1_555
H11B C12B 1_555 1_555
C13B C12B 1_555 1_555
H12B C13B 1_555 1_555
H13B C13B 1_555 1_555
C14B C9B 1_555 1_555
H14B C14B 1_555 1_555
C15B C6 1_555 1_555
H15B C15B 1_555 1_555
N1J C8J 1_555 1_555
N2J C14J 1_555 1_555
C1J C1 1_555 1_555
C2J C1J 1_555 1_555
C3J C2J 1_555 1_555
H1J C3J 1_555 1_555
C4J C3J 1_555 1_555
C5J C4J 1_555 1_555
H2J C5J 1_555 1_555
C6J C5J 1_555 1_555
C7J C2J 1_555 1_555
H3J C7J 1_555 1_555
C8J C4J 1_555 1_555
H4J C8J 1_555 1_555
C9J N1J 1_555 1_555
H5J C9J 1_555 1_555
C10J C9J 1_555 1_555
H6J C10J 1_555 1_555
H7J C10J 1_555 1_555
C11J C10J 1_555 1_555
H8J C11J 1_555 1_555
H9J C11J 1_555 1_555
C12J C11J 1_555 1_555
H10J C12J 1_555 1_555
H11J C12J 1_555 1_555
C13J C12J 1_555 1_555
H12J C13J 1_555 1_555
H13J C13J 1_555 1_555
C14J C9J 1_555 1_555
H14J C14J 1_555 1_555
C15J N2J 1_555 1_555
H15J C15J 1_555 1_555
N1K C8K 1_555 1_555
N2K C14K 1_555 1_555
C1K C1B 1_555 1_555
C2K C1K 1_555 1_555
C3K C2K 1_555 1_555
H1K C3K 1_555 1_555
C4K C3K 1_555 1_555
C5K C4K 1_555 1_555
H2K C5K 1_555 1_555
C6K C15J 1_555 1_555
C7K C2K 1_555 1_555
H3K C7K 1_555 1_555
C8K C4K 1_555 1_555
H4K C8K 1_555 1_555
C9K N1K 1_555 1_555
H5K C9K 1_555 1_555
C10K C9K 1_555 1_555
H6K C10K 1_555 1_555
H7K C10K 1_555 1_555
C11K C10K 1_555 1_555
H8K C11K 1_555 1_555
H9K C11K 1_555 1_555
C12K C11K 1_555 1_555
H10K C12K 1_555 1_555
H11K C12K 1_555 1_555
C13K C12K 1_555 1_555
H12K C13K 1_555 1_555
H13K C13K 1_555 1_555
C14K C9K 1_555 1_555
H14K C14K 1_555 1_555
C15K N2K 1_555 1_555
H15K C15K 1_555 1_555
N1I C8I 1_555 1_555
N2I C14I 1_555 1_555
C1I C1A 1_555 1_555
C2I C1I 1_555 1_555
C3I C2I 1_555 1_555
H1I C3I 1_555 1_555
C4I C3I 1_555 1_555
C5I C4I 1_555 1_555
H2I C5I 1_555 1_555
C6I C15K 1_555 1_555
C7I C2I 1_555 1_555
H3I C7I 1_555 1_555
C8I C4I 1_555 1_555
H4I C8I 1_555 1_555
C9I N1I 1_555 1_555
H5I C9I 1_555 1_555
C10I C9I 1_555 1_555
H6I C10I 1_555 1_555
H7I C10I 1_555 1_555
C11I C10I 1_555 1_555
H8I C11I 1_555 1_555
H9I C11I 1_555 1_555
C12I C11I 1_555 1_555
H10I C12I 1_555 1_555
H11I C12I 1_555 1_555
C13I C12I 1_555 1_555
H12I C13I 1_555 1_555
H13I C13I 1_555 1_555
C14I C9I 1_555 1_555
H14I C14I 1_555 1_555
C15I C6J 1_555 1_555
H15I C15I 1_555 1_555
C6 C7 1_555 1_555
C13 C14 1_555 1_555
C5A C6A 1_555 1_555
C6A C7A 1_555 1_555
C13A C14A 1_555 1_555
N2B C15B 1_555 1_555
C5B C6B 1_555 1_555
C6B C7B 1_555 1_555
C13B C14B 1_555 1_555
C6J C7J 1_555 1_555
C13J C14J 1_555 1_555
C5K C6K 1_555 1_555
C6K C7K 1_555 1_555
C13K C14K 1_555 1_555
N2I C15I 1_555 1_555
C5I C6I 1_555 1_555
C6I C7I 1_555 1_555
C13I C14I 1_555 1_555

#END
