
#######################################################################
#
#                 Cambridge Crystallographic Data Centre
#                                CCDC 
#
#######################################################################
#
# If this CIF has been generated from an entry in the Cambridge 
# Structural Database, then it will include bibliographic, chemical, 
# crystal, experimental, refinement or atomic coordinate data resulting 
# from the CCDC's data processing and validation procedures.
#
#######################################################################

data_ABILOP
_chemical_formula_moiety         'C115 H152 N12 O21'
_symmetry_cell_setting           trigonal
_symmetry_space_group_name_H-M   'P 31 2 1'
_symmetry_Int_Tables_number      152
_space_group_name_Hall           'P 31 2"'
loop_
_symmetry_equiv_pos_site_id
_symmetry_equiv_pos_as_xyz
1 x,y,z
2 -y,x-y,1/3+z
3 -x+y,-x,2/3+z
4 x-y,-y,2/3-z
5 -x,-x+y,1/3-z
6 y,x,-z
_cell_length_a                   19.490(4)
_cell_length_b                   19.490(4)
_cell_length_c                   26.295(5)
_cell_angle_alpha                90
_cell_angle_beta                 90
_cell_angle_gamma                120
_cell_volume                     8650.23
loop_
_atom_site_label
_atom_site_type_symbol
_atom_site_fract_x
_atom_site_fract_y
_atom_site_fract_z
C1 C 0.3367(4) 0.3221(4) 0.2044(2)
H1 H 0.3652 0.3477 0.1744
C2 C 0.3816(4) 0.3130(4) 0.2457(2)
C3 C 0.4626(4) 0.3454(4) 0.2401(2)
H2 H 0.4874 0.3725 0.2096
C4 C 0.5086(4) 0.3390(3) 0.2783(2)
C5 C 0.4718(4) 0.2981(3) 0.3227(2)
H3 H 0.5028 0.2934 0.3488
C6 C 0.3449(4) 0.2716(4) 0.2912(2)
H4 H 0.2893 0.2491 0.2954
C7 C 0.3516(4) 0.2168(4) 0.3763(2)
C8 C 0.3829(4) 0.1756(4) 0.4006(2)
H5 H 0.4312 0.1805 0.3888
C9 C 0.3449(4) 0.1274(4) 0.4419(2)
H6 H 0.3672 0.0993 0.4578
C10 C 0.2734(4) 0.1195(4) 0.4606(2)
C11 C 0.2428(4) 0.1624(5) 0.4369(3)
H7 H 0.1951 0.1584 0.4492
C12 C 0.2811(4) 0.2109(5) 0.3955(3)
H8 H 0.2599 0.2402 0.3800
C13 C 0.1484(4) 0.0068(5) 0.4957(2)
H9 H 0.1198 0.0134 0.4687
C14 C 0.2312(4) 0.0608(4) 0.5009(2)
C15 C 0.2705(4) 0.0523(4) 0.5424(2)
H10 H 0.3253 0.0888 0.5468
C16 C 0.2310(4) -0.0090(4) 0.5779(2)
C17 C 0.1517(4) -0.0615(5) 0.5717(2)
H11 H 0.1247 -0.1028 0.5958
C18 C 0.1093(4) -0.0550(5) 0.5297(3)
C19 C 0.0269(4) -0.1161(5) 0.5186(3)
H12 H -0.0028 -0.1048 0.4947
C20 C 0.2736(4) -0.0196(4) 0.6201(2)
H13 H 0.2462 -0.0649 0.6412
C21 C 0.3804(4) -0.2748(3) 0.4932(2)
H14 H 0.3566 -0.2975 0.5250
C22 C 0.4615(4) -0.0113(4) 0.5675(2)
H15 H 0.4777 0.0427 0.5611
C23 C 0.4517(4) -0.0624(4) 0.5241(2)
C24 C 0.4208(4) -0.1432(4) 0.52863(19)
H16 H 0.4039 -0.1676 0.5610
C25 C 0.4141(4) -0.1892(3) 0.4866(2)
C26 C 0.4367(4) -0.1533(4) 0.4385(2)
H17 H 0.4322 -0.1845 0.4096
C27 C 0.4650(4) -0.0738(4) 0.4329(2)
C28 C 0.4741(4) -0.0276(4) 0.4758(2)
H18 H 0.4958 0.0280 0.4723
C29 C 0.4858(5) -0.0353(4) 0.3815(2)
C30 C 0.4351(10) -0.0730(8) 0.3409(4)
H19 H 0.3897 -0.1239 0.3452
C31 C 0.4518(10) -0.0344(8) 0.2926(5)
H20 H 0.4148 -0.0572 0.2656
C32 C 0.3388(4) -0.4053(3) 0.46949(19)
H21 H 0.3136 -0.4150 0.5038
C33 C 0.3950(4) -0.4389(4) 0.4678(2)
H22 H 0.4360 -0.4134 0.4945
H23 H 0.4219 -0.4271 0.4344
C34 C 0.2817(4) -0.5700(4) 0.4379(3)
H24 H 0.3045 -0.5651 0.4035
H25 H 0.2503 -0.6271 0.4463
C35 C 0.3487(4) -0.5286(4) 0.4764(3)
H26 H 0.3852 -0.5499 0.4734
H27 H 0.3263 -0.5398 0.5112
C36 C 0.2278(4) -0.5347(3) 0.4376(2)
H28 H 0.1996 -0.5458 0.4706
H29 H 0.1877 -0.5600 0.4104
C37 C 0.2746(3) -0.4459(3) 0.4289(2)
H30 H 0.3002 -0.4352 0.3947
C38 C 0.3848(4) 0.0125(4) 0.6714(2)
H31 H 0.3501 -0.0435 0.6830
C39 C 0.3986(4) 0.0692(4) 0.7156(2)
H32 H 0.4289 0.1244 0.7032
H33 H 0.3468 0.0600 0.7282
C40 C 0.4429(4) 0.0586(5) 0.7588(2)
H34 H 0.4111 0.0047 0.7732
H35 H 0.4520 0.0974 0.7859
C41 C 0.5241(4) 0.0708(5) 0.7396(2)
H36 H 0.5575 0.1258 0.7272
H37 H 0.5522 0.0618 0.7678
C42 C 0.5091(4) 0.0126(4) 0.6966(2)
H38 H 0.4787 -0.0422 0.7098
H39 H 0.5604 0.0209 0.6836
C43 C 0.4626(4) 0.0233(4) 0.65262(19)
H40 H 0.4949 0.0778 0.6382
C44 C 0.2300(4) 0.3166(4) 0.1604(2)
H41 H 0.2700 0.3360 0.1323
C45 C 0.2112(5) 0.3820(5) 0.1736(3)
H42 H 0.1732 0.3645 0.2023
H43 H 0.2603 0.4302 0.1844
C46 C 0.1760(5) 0.4009(5) 0.1280(3)
H44 H 0.1633 0.4426 0.1373
H45 H 0.2151 0.4213 0.1000
C47 C 0.1014(5) 0.3274(6) 0.1106(3)
H46 H 0.0797 0.3403 0.0803
H47 H 0.0611 0.3091 0.1379
C48 C 0.1189(5) 0.2610(5) 0.0972(3)
H48 H 0.0691 0.2129 0.0872
H49 H 0.1558 0.2775 0.0679
C49 C 0.1557(4) 0.2421(4) 0.1424(2)
H50 H 0.1164 0.2198 0.1708
C50 C 0.3894(4) 0.2636(4) 0.3295(2)
C51 C 0.2206(3) -0.3741(3) 0.3929(2)
H51 H 0.2554 -0.3667 0.3655
N1 N 0.1782(4) 0.1837(3) 0.12642(19)
N2 N 0.2640(3) 0.2993(3) 0.20483(19)
N3 N 0.3814(3) -0.3206(3) 0.45894(16)
N4 N 0.2214(3) -0.4134(3) 0.43070(16)
N5 N 0.4495(3) -0.0351(3) 0.61302(17)
N6 N 0.3463(3) 0.0298(3) 0.62959(18)
C1C C 0.0146(6) -0.3221(4) 0.4623(2)
H1C H 0.0175 -0.3477 0.4923
C2C C 0.0686(6) -0.3130(4) 0.4210(2)
C3C C 0.1172(6) -0.3454(4) 0.4266(2)
H2C H 0.1149 -0.3725 0.4571
C4C C 0.1696(5) -0.3390(3) 0.3884(2)
C5C C 0.1737(5) -0.2981(3) 0.3440(2)
H3C H 0.2094 -0.2934 0.3179
C6C C 0.0733(6) -0.2716(4) 0.3755(2)
H4C H 0.0402 -0.2491 0.3713
C7C C 0.1348(6) -0.2168(4) 0.2904(2)
C8C C 0.2073(6) -0.1756(4) 0.2661(2)
H5C H 0.2507 -0.1805 0.2779
C9C C 0.2175(6) -0.1274(4) 0.2248(2)
H6C H 0.2679 -0.0993 0.2089
C10C C 0.1539(6) -0.1195(4) 0.2061(2)
C11C C 0.0804(6) -0.1624(5) 0.2298(3)
H7C H 0.0367 -0.1584 0.2175
C12C C 0.0702(6) -0.2109(5) 0.2712(3)
H8C H 0.0197 -0.2402 0.2867
C13C C 0.1416(6) -0.0068(5) 0.1710(2)
H9C H 0.1064 -0.0134 0.1980
C14C C 0.1704(6) -0.0608(4) 0.1658(2)
C15C C 0.2182(6) -0.0523(4) 0.1243(2)
H10C H 0.2365 -0.0888 0.1199
C16C C 0.2400(6) 0.0090(4) 0.0888(2)
C17C C 0.2132(6) 0.0615(5) 0.0950(2)
H11C H 0.2275 0.1028 0.0709
C18C C 0.1643(6) 0.0550(5) 0.1370(3)
C19C C 0.1430(6) 0.1161(5) 0.1481(3)
H12C H 0.1020 0.1048 0.1720
C20C C 0.2932(6) 0.0196(4) 0.0466(2)
H13C H 0.3111 0.0649 0.0255
C21C C 0.6552(5) 0.2748(3) 0.1735(2)
H14C H 0.6541 0.2975 0.1417
C22C C 0.4728(6) 0.0113(4) 0.0992(2)
H15C H 0.4350 -0.0427 0.1056
C23C C 0.5141(6) 0.0624(4) 0.1426(2)
C24C C 0.5640(6) 0.1432(4) 0.13804(19)
H16C H 0.5715 0.1676 0.1057
C25C C 0.6033(5) 0.1892(3) 0.1801(2)
C26C C 0.5900(6) 0.1533(4) 0.2282(2)
H17C H 0.6167 0.1845 0.2571
C27C C 0.5388(6) 0.0738(4) 0.2338(2)
C28C C 0.5017(6) 0.0276(4) 0.1909(2)
H18C H 0.4678 -0.0280 0.1944
C29C C 0.5211(6) 0.0353(4) 0.2852(2)
C30C C 0.5081(13) 0.0730(8) 0.3258(4)
H19C H 0.5136 0.1239 0.3215
C31C C 0.4862(13) 0.0344(8) 0.3741(5)
H20C H 0.4720 0.0572 0.4011
C32C C 0.7441(5) 0.4053(3) 0.19718(19)
H21C H 0.7286 0.4150 0.1629
C33C C 0.8339(6) 0.4389(4) 0.1989(2)
H22C H 0.8494 0.4134 0.1722
H23C H 0.8490 0.4271 0.2323
C34C C 0.8517(6) 0.5700(4) 0.2288(3)
H24C H 0.8696 0.5651 0.2632
H25C H 0.8774 0.6271 0.2204
C35C C 0.8773(6) 0.5286(4) 0.1903(3)
H26C H 0.9351 0.5499 0.1933
H27C H 0.8661 0.5398 0.1555
C36C C 0.7625(5) 0.5347(3) 0.2291(2)
H28C H 0.7454 0.5458 0.1961
H29C H 0.7477 0.5600 0.2563
C37C C 0.7205(4) 0.4459(3) 0.2378(2)
H30C H 0.7354 0.4352 0.2720
C38C C 0.3723(6) -0.0125(4) -0.0047(2)
H31C H 0.3936 0.0435 -0.0163
C39C C 0.3294(6) -0.0692(4) -0.0489(2)
H32C H 0.3045 -0.1244 -0.0365
H33C H 0.2868 -0.0600 -0.0615
C40C C 0.3843(6) -0.0586(5) -0.0921(2)
H34C H 0.4064 -0.0047 -0.1065
H35C H 0.3546 -0.0974 -0.1192
C41C C 0.4533(6) -0.0708(5) -0.0729(2)
H36C H 0.4317 -0.1258 -0.0605
H37C H 0.4904 -0.0618 -0.1011
C42C C 0.4965(6) -0.0126(4) -0.0299(2)
H38C H 0.5209 0.0422 -0.0431
H39C H 0.5395 -0.0209 -0.0169
C43C C 0.4393(6) -0.0233(4) 0.01405(19)
H40C H 0.4171 -0.0778 0.0285
C44C C -0.0866(6) -0.3166(4) 0.5063(2)
H41C H -0.0660 -0.3360 0.5344
C45C C -0.1708(7) -0.3820(5) 0.4931(3)
H42C H -0.1913 -0.3645 0.4644
H43C H -0.1699 -0.4302 0.4823
C46C C -0.2249(7) -0.4009(5) 0.5387(3)
H44C H -0.2793 -0.4426 0.5294
H45C H -0.2062 -0.4213 0.5667
C47C C -0.2260(8) -0.3274(6) 0.5561(3)
H46C H -0.2606 -0.3403 0.5864
H47C H -0.2480 -0.3091 0.5288
C48C C -0.1421(7) -0.2610(5) 0.5695(3)
H48C H -0.1438 -0.2129 0.5795
H49C H -0.1217 -0.2775 0.5988
C49C C -0.0864(6) -0.2421(4) 0.5243(2)
H50C H -0.1034 -0.2198 0.4959
C50C C 0.1258(6) -0.2636(4) 0.3372(2)
C51C C 0.5947(4) 0.3741(3) 0.2738(2)
H51C H 0.6221 0.3667 0.3012
N1C N -0.0055(5) -0.1837(3) 0.54025(19)
N2C N -0.0353(4) -0.2993(3) 0.46184(19)
N3C N 0.7020(4) 0.3206(3) 0.20773(16)
N4C N 0.6348(4) 0.4134(3) 0.23597(16)
N5C N 0.4846(4) 0.0351(3) 0.05365(17)
N6C N 0.3165(4) -0.0298(3) 0.03708(18)
C52 C 0.8134(13) 0.5085(9) 0.3699(6)
H52 H 0.7940 0.4900 0.4045
H53 H 0.7710 0.5085 0.3498
H54 H 0.8590 0.5623 0.3714
O1 O 0.8357(11) 0.4587(8) 0.3477(5)
H55 H 0.8003 0.4114 0.3525
O2 O 0.5511(11) 0.1643(10) 0.4693(7)
C53 C 0.056(2) 0.2165(16) 0.7088(13)
H56 H 0.0193 0.2149 0.6786
H57 H 0.1065 0.2490 0.6980
H58 H 0.0374 0.2241 0.7371
O3 O 0.0409(12) 0.1389(12) 0.7062(8)
H59 H 0.0795 0.1364 0.7182
C53D C -0.056(2) 0.1605(26) 0.6245(13)
H56D H -0.0193 0.1956 0.6547
H57D H -0.1065 0.1425 0.6353
H58D H -0.0374 0.1867 0.5962
O3D O -0.0409(12) 0.0980(17) 0.6271(8)
H59D H -0.0795 0.0569 0.6151
C54 C 0.8153(10) 0.9589(8) 0.6072(5)
H60 H 0.8361 1.0077 0.6273
H61 H 0.7764 0.9566 0.5827
H62 H 0.8589 0.9584 0.5890
O4 O 0.7787(12) 0.8927(11) 0.6399(7)
H63 H 0.8111 0.8776 0.6472
C55 C 0.7579(12) 0.2139(14) 0.4621(8)
H64 H 0.7116 0.1966 0.4842
H65 H 0.7461 0.1737 0.4359
H66 H 0.7709 0.2642 0.4459
O5 O 0.8173(9) 0.2232(9) 0.4889(6)
H67 H 0.8167 0.2427 0.5172
C56 C 0.7087(34) 0.095(3) 0.3741(17)
H68 H 0.7443 0.1393 0.3517
H69 H 0.6943 0.1163 0.4034
H70 H 0.6614 0.0583 0.3553
O6 O 0.7490(15) 0.0554(11) 0.3912(8)
H71 H 0.7592 0.0643 0.4224
C57 C 0.4870(9) 0.7063(9) 0.3352(6)
H72 H 0.5281 0.7223 0.3613
H73 H 0.5087 0.7415 0.3057
H74 H 0.4691 0.6516 0.3246
O7 O 0.4273(5) 0.7107(5) 0.3535(3)
H75 H 0.4029 0.6741 0.3747
O8 O 0.0930(19) 0.375(2) 0.7415(12)
C58? C 0.582(3) 0.205(2) 0.4236(15)
H76? H 0.5630 0.1556 0.4043
H77? H 0.5403 0.1977 0.4465
H78? H 0.6274 0.2136 0.4428
O9? O 0.6023(8) 0.2707(9) 0.3887(5)
H79? H 0.6387 0.2761 0.3691
O10? O 0.708(3) 0.359(3) 0.3658(18)
O11? O 0.6018(6) 0.1799(5) 0.4651(3)
O12? O 0.6262(17) 0.3039(17) 0.3893(9)
O13? O 0.727(2) 0.452(2) 0.3895(14)
C59? C 0.075(4) 0.020(6) 0.731(3)
H80? H 0.0506 0.0352 0.7589
H81? H 0.1168 0.0634 0.7172
H82? H 0.0878 -0.0175 0.7452
O14? O 0.015(3) -0.024(4) 0.6940(19)
H83? H 0.0268 -0.0533 0.6776
O15? O 0.046(5) 0.057(5) 0.720(3)
O16? O 0.0000 -0.0850(30) 0.6666
C60? C 0.7803(17) 0.9320(17) 0.6177(10)
H84? H 0.8037 0.9872 0.6288
H85? H 0.7523 0.9248 0.5854
H86? H 0.8223 0.9188 0.6131
O17? O 0.725(2) 0.881(2) 0.6556(12)
H87? H 0.7506 0.8799 0.6813
O18? O 0.7330(13) 0.1619(10) 0.4469(6)
C61? C 0.655(3) 0.869(4) 0.318(4)
H88? H 0.6861 0.8675 0.3368
H89? H 0.6294 0.9023 0.3430
H90? H 0.6691 0.9071 0.2902
O19? O 0.5805(12) 0.8001(12) 0.3063(8)
H91? H 0.5723 0.7980 0.2748
O20? O 0.7092(14) 0.9609(14) 0.3039(10)
C62? C 0.5740(11) 0.0688(10) 0.3247(5)
H92? H 0.6232 0.1160 0.3193
C63? C 0.5557(12) 0.0343(9) 0.3717(5)
H93? H 0.5924 0.0590 0.3987
loop_
_geom_bond_atom_site_label_1
_geom_bond_atom_site_label_2
_geom_bond_site_symmetry_1
_geom_bond_site_symmetry_2
C1 H1 1_555 1_555
C2 C1 1_555 1_555
C3 C2 1_555 1_555
H2 C3 1_555 1_555
C4 C3 1_555 1_555
C5 C4 1_555 1_555
H3 C5 1_555 1_555
C6 C2 1_555 1_555
H4 C6 1_555 1_555
C7 C8 1_555 1_555
C8 H5 1_555 1_555
C9 C8 1_555 1_555
H6 C9 1_555 1_555
C10 C9 1_555 1_555
C11 C10 1_555 1_555
H7 C11 1_555 1_555
C12 C7 1_555 1_555
H8 C12 1_555 1_555
C13 H9 1_555 1_555
C14 C10 1_555 1_555
C15 C14 1_555 1_555
H10 C15 1_555 1_555
C16 C15 1_555 1_555
C17 C16 1_555 1_555
H11 C17 1_555 1_555
C18 C13 1_555 1_555
C19 C18 1_555 1_555
H12 C19 1_555 1_555
C20 C16 1_555 1_555
H13 C20 1_555 1_555
C21 H14 1_555 1_555
C22 H15 1_555 1_555
C23 C22 1_555 1_555
C24 C23 1_555 1_555
H16 C24 1_555 1_555
C25 C21 1_555 1_555
C26 C25 1_555 1_555
H17 C26 1_555 1_555
C27 C26 1_555 1_555
C28 C23 1_555 1_555
H18 C28 1_555 1_555
C29 C27 1_555 1_555
C30 C29 1_555 1_555
H19 C30 1_555 1_555
C31 C30 1_555 1_555
H20 C31 1_555 1_555
C32 H21 1_555 1_555
C33 C32 1_555 1_555
H22 C33 1_555 1_555
H23 C33 1_555 1_555
C34 H24 1_555 1_555
H25 C34 1_555 1_555
C35 C33 1_555 1_555
H26 C35 1_555 1_555
H27 C35 1_555 1_555
C36 C34 1_555 1_555
H28 C36 1_555 1_555
H29 C36 1_555 1_555
C37 C32 1_555 1_555
H30 C37 1_555 1_555
C38 H31 1_555 1_555
C39 C38 1_555 1_555
H32 C39 1_555 1_555
H33 C39 1_555 1_555
C40 C39 1_555 1_555
H34 C40 1_555 1_555
H35 C40 1_555 1_555
C41 C40 1_555 1_555
H36 C41 1_555 1_555
H37 C41 1_555 1_555
C42 C41 1_555 1_555
H38 C42 1_555 1_555
H39 C42 1_555 1_555
C43 C38 1_555 1_555
H40 C43 1_555 1_555
C44 H41 1_555 1_555
C45 C44 1_555 1_555
H42 C45 1_555 1_555
H43 C45 1_555 1_555
C46 C45 1_555 1_555
H44 C46 1_555 1_555
H45 C46 1_555 1_555
C47 C46 1_555 1_555
H46 C47 1_555 1_555
H47 C47 1_555 1_555
C48 C47 1_555 1_555
H48 C48 1_555 1_555
H49 C48 1_555 1_555
C49 C44 1_555 1_555
H50 C49 1_555 1_555
C50 C5 1_555 1_555
C51 H51 1_555 1_555
N1 C49 1_555 1_555
N2 C1 1_555 1_555
N3 C21 1_555 1_555
N4 C37 1_555 1_555
N5 C22 1_555 1_555
N6 C20 1_555 1_555
C52 H52 1_555 1_555
H53 C52 1_555 1_555
H54 C52 1_555 1_555
O1 C52 1_555 1_555
H55 O1 1_555 1_555
C53 H56 1_555 1_555
H57 C53 1_555 1_555
H58 C53 1_555 1_555
O3 C53 1_555 1_555
H59 O3 1_555 1_555
C54 H60 1_555 1_555
H61 C54 1_555 1_555
H62 C54 1_555 1_555
O4 C54 1_555 1_555
H63 O4 1_555 1_555
C55 H64 1_555 1_555
H65 C55 1_555 1_555
H66 C55 1_555 1_555
O5 C55 1_555 1_555
H67 O5 1_555 1_555
C56 H68 1_555 1_555
H69 C56 1_555 1_555
H70 C56 1_555 1_555
O6 C56 1_555 1_555
H71 O6 1_555 1_555
C57 H72 1_555 1_555
H73 C57 1_555 1_555
H74 C57 1_555 1_555
O7 C57 1_555 1_555
H75 O7 1_555 1_555
C1C H1C 1_555 1_555
C2C C1C 1_555 1_555
C3C C2C 1_555 1_555
H2C C3C 1_555 1_555
C4C C51 1_555 1_555
C5C C4C 1_555 1_555
H3C C5C 1_555 1_555
C6C C2C 1_555 1_555
H4C C6C 1_555 1_555
C7C C8C 1_555 1_555
C8C H5C 1_555 1_555
C9C C8C 1_555 1_555
H6C C9C 1_555 1_555
C10C C9C 1_555 1_555
C11C C10C 1_555 1_555
H7C C11C 1_555 1_555
C12C C7C 1_555 1_555
H8C C12C 1_555 1_555
C13C H9C 1_555 1_555
C14C C10C 1_555 1_555
C15C C14C 1_555 1_555
H10C C15C 1_555 1_555
C16C C15C 1_555 1_555
C17C C16C 1_555 1_555
H11C C17C 1_555 1_555
C18C C13C 1_555 1_555
C19C N1 1_555 1_555
H12C C19C 1_555 1_555
C20C C16C 1_555 1_555
H13C C20C 1_555 1_555
C21C H14C 1_555 1_555
C22C H15C 1_555 1_555
C23C C22C 1_555 1_555
C24C C23C 1_555 1_555
H16C C24C 1_555 1_555
C25C C21C 1_555 1_555
C26C C25C 1_555 1_555
H17C C26C 1_555 1_555
C27C C26C 1_555 1_555
C28C C23C 1_555 1_555
H18C C28C 1_555 1_555
C29C C31 1_555 1_555
C30C C29C 1_555 1_555
H19C C30C 1_555 1_555
C31C C29 1_555 1_555
H20C C31C 1_555 1_555
C32C H21C 1_555 1_555
C33C C32C 1_555 1_555
H22C C33C 1_555 1_555
H23C C33C 1_555 1_555
C34C H24C 1_555 1_555
H25C C34C 1_555 1_555
C35C C33C 1_555 1_555
H26C C35C 1_555 1_555
H27C C35C 1_555 1_555
C36C C34C 1_555 1_555
H28C C36C 1_555 1_555
H29C C36C 1_555 1_555
C37C C32C 1_555 1_555
H30C C37C 1_555 1_555
C38C H31C 1_555 1_555
C39C C38C 1_555 1_555
H32C C39C 1_555 1_555
H33C C39C 1_555 1_555
C40C C39C 1_555 1_555
H34C C40C 1_555 1_555
H35C C40C 1_555 1_555
C41C C40C 1_555 1_555
H36C C41C 1_555 1_555
H37C C41C 1_555 1_555
C42C C41C 1_555 1_555
H38C C42C 1_555 1_555
H39C C42C 1_555 1_555
C43C C38C 1_555 1_555
H40C C43C 1_555 1_555
C44C H41C 1_555 1_555
C45C C44C 1_555 1_555
H42C C45C 1_555 1_555
H43C C45C 1_555 1_555
C46C C45C 1_555 1_555
H44C C46C 1_555 1_555
H45C C46C 1_555 1_555
C47C C46C 1_555 1_555
H46C C47C 1_555 1_555
H47C C47C 1_555 1_555
C48C C47C 1_555 1_555
H48C C48C 1_555 1_555
H49C C48C 1_555 1_555
C49C C44C 1_555 1_555
H50C C49C 1_555 1_555
C50C C5C 1_555 1_555
C51C C4 1_555 1_555
H51C C51C 1_555 1_555
N1C C19 1_555 1_555
N2C C1C 1_555 1_555
N3C C21C 1_555 1_555
N4C C37C 1_555 1_555
N5C C22C 1_555 1_555
N6C C20C 1_555 1_555
C53D H56D 1_555 1_555
H57D C53D 1_555 1_555
H58D C53D 1_555 1_555
O3D C53D 1_555 1_555
H59D O3D 1_555 1_555
C6 C50 1_555 1_555
C7 C50 1_555 1_555
C11 C12 1_555 1_555
C13 C14 1_555 1_555
C17 C18 1_555 1_555
C24 C25 1_555 1_555
C27 C28 1_555 1_555
C32 N3 1_555 1_555
C34 C35 1_555 1_555
C36 C37 1_555 1_555
C38 N6 1_555 1_555
C42 C43 1_555 1_555
C43 N5 1_555 1_555
C44 N2 1_555 1_555
C48 C49 1_555 1_555
C51 N4 1_555 1_555
C3C C4C 1_555 1_555
C6C C50C 1_555 1_555
C7C C50C 1_555 1_555
C11C C12C 1_555 1_555
C13C C14C 1_555 1_555
C17C C18C 1_555 1_555
C18C C19C 1_555 1_555
C24C C25C 1_555 1_555
C27C C28C 1_555 1_555
C27C C29C 1_555 1_555
C30C C31C 1_555 1_555
C32C N3C 1_555 1_555
C34C C35C 1_555 1_555
C36C C37C 1_555 1_555
C38C N6C 1_555 1_555
C42C C43C 1_555 1_555
C43C N5C 1_555 1_555
C44C N2C 1_555 1_555
C48C C49C 1_555 1_555
C49C N1C 1_555 1_555
C51C N4C 1_555 1_555

#END
