
#######################################################################
#
#                 Cambridge Crystallographic Data Centre
#                                CCDC 
#
#######################################################################
#
# If this CIF has been generated from an entry in the Cambridge 
# Structural Database, then it will include bibliographic, chemical, 
# crystal, experimental, refinement or atomic coordinate data resulting 
# from the CCDC's data processing and validation procedures.
#
#######################################################################

data_ABIMUW
_chemical_formula_moiety         'C102 H106 N12 O2'
_symmetry_cell_setting           rhombohedral
_symmetry_space_group_name_H-M   'R -3'
_symmetry_Int_Tables_number      148
_space_group_name_Hall           '-R 3'
loop_
_symmetry_equiv_pos_site_id
_symmetry_equiv_pos_as_xyz
1 x,y,z
2 -y,x-y,z
3 -x+y,-x,z
4 2/3+x,1/3+y,1/3+z
5 2/3-y,1/3+x-y,1/3+z
6 2/3-x+y,1/3-x,1/3+z
7 1/3+x,2/3+y,2/3+z
8 1/3-y,2/3+x-y,2/3+z
9 1/3-x+y,2/3-x,2/3+z
10 -x,-y,-z
11 y,-x+y,-z
12 x-y,x,-z
13 1/3-x,2/3-y,2/3-z
14 1/3+y,2/3-x+y,2/3-z
15 1/3+x-y,2/3+x,2/3-z
16 2/3-x,1/3-y,1/3-z
17 2/3+y,1/3-x+y,1/3-z
18 2/3+x-y,1/3+x,1/3-z
_cell_length_a                   22.593(3)
_cell_length_b                   22.593(3)
_cell_length_c                   31.714(4)
_cell_angle_alpha                90
_cell_angle_beta                 90
_cell_angle_gamma                120
_cell_volume                     14019.4
loop_
_atom_site_label
_atom_site_type_symbol
_atom_site_fract_x
_atom_site_fract_y
_atom_site_fract_z
N1 N 0.4797(2) 0.9041(2) 0.10711(12)
N2 N 0.5631(2) 0.8464(2) 0.09989(11)
N3 N 0.4401(2) 0.9067(2) -0.27719(11)
N4 N 0.3005(2) 0.8554(2) -0.26338(12)
C1 C 0.2152(3) 0.7412(3) 0.11062(14)
H1 H 0.2262 0.7410 0.1395
C2 C 0.2706(3) 0.7704(3) 0.07875(13)
C3 C 0.2526(3) 0.7496(3) 0.03692(13)
H2 H 0.2062 0.7187 0.0301
C4 C 0.3015(3) 0.7734(3) 0.00522(14)
C5 C 0.3698(2) 0.8178(3) 0.01647(14)
H3 H 0.4042 0.8342 -0.0047
C6 C 0.3881(3) 0.8382(3) 0.05828(14)
C7 C 0.3384(3) 0.8130(3) 0.08957(13)
H4 H 0.3510 0.8249 0.1182
C8 C 0.2799(3) 0.7534(2) -0.03962(12)
C9 C 0.2117(3) 0.7271(3) -0.05144(14)
H5 H 0.1790 0.7220 -0.0308
C10 C 0.1908(3) 0.7081(3) -0.09272(14)
H6 H 0.1438 0.6886 -0.0996
C11 C 0.2368(2) 0.7170(2) -0.12410(13)
C12 C 0.3048(3) 0.7429(3) -0.11259(14)
H7 H 0.3375 0.7492 -0.1335
C13 C 0.3258(3) 0.7599(3) -0.07088(13)
H8 H 0.3722 0.7762 -0.0637
C14 C 0.2163(2) 0.7013(3) -0.16939(13)
C15 C 0.1673(3) 0.6356(3) -0.18237(13)
H9 H 0.1445 0.6005 -0.1620
C16 C 0.1518(2) 0.6215(2) -0.22512(13)
C17 C 0.1860(3) 0.6725(3) -0.25462(14)
H10 H 0.1775 0.6622 -0.2838
C18 C 0.2325(3) 0.7385(3) -0.24199(13)
C19 C 0.2487(3) 0.7518(3) -0.19942(13)
H11 H 0.2826 0.7963 -0.1909
C20 C 0.4609(3) 0.8855(3) 0.06920(14)
H12 H 0.4942 0.9022 0.0474
C21 C 0.1037(2) 0.5501(3) -0.23873(14)
H13 H 0.0801 0.5161 -0.2179
C22 C 0.2669(3) 0.7924(3) -0.27312(14)
H14 H 0.2643 0.7800 -0.3020
C23 C 0.5535(2) 0.9454(3) 0.11377(14)
H15 H 0.5763 0.9647 0.0861
C24 C 0.5706(3) 1.0038(3) 0.14416(17)
H16 H 0.5458 0.9852 0.1710
H17 H 0.5555 1.0344 0.1320
C25 C 0.6481(3) 1.0450(3) 0.15300(18)
H18 H 0.6726 1.0677 0.1267
H19 H 0.6575 1.0810 0.1741
C26 C 0.6739(3) 0.9992(3) 0.16930(17)
H20 H 0.6533 0.9808 0.1972
H21 H 0.7241 1.0263 0.1729
C27 C 0.6564(3) 0.9402(3) 0.13921(15)
H22 H 0.6719 0.9099 0.1514
H23 H 0.6806 0.9583 0.1121
C28 C 0.5797(3) 0.8994(3) 0.13131(13)
H24 H 0.5555 0.8780 0.1583
C29 C 0.3349(3) 0.9044(3) -0.29740(14)
H25 H 0.3321 0.8787 -0.3237
C30 C 0.3005(3) 0.9466(3) -0.30550(16)
H26 H 0.2521 0.9160 -0.3134
H27 H 0.3017 0.9715 -0.2795
C31 C 0.3374(3) 0.9972(3) -0.34093(16)
H28 H 0.3318 0.9718 -0.3675
H29 H 0.3164 1.0261 -0.3450
C32 C 0.4128(3) 1.0424(3) -0.33186(17)
H30 H 0.4187 1.0724 -0.3076
H31 H 0.4353 1.0719 -0.3566
C33 C 0.4469(3) 1.0001(3) -0.32203(16)
H32 H 0.4460 0.9744 -0.3475
H33 H 0.4952 1.0310 -0.3142
C34 C 0.4100(3) 0.9502(3) -0.28596(14)
H34 H 0.4132 0.9768 -0.2600
N1A N 0.0959(2) 0.5756(3) 0.10711(12)
N2A N 0.1536(2) 0.7167(3) 0.09989(11)
N3A N 0.0933(2) 0.5334(3) -0.27719(11)
N4A N 0.1446(2) 0.4451(3) -0.26338(12)
C1A C 0.2588(3) 0.4740(4) 0.11062(14)
H1A H 0.2590 0.4852 0.1395
C2A C 0.2296(3) 0.5002(4) 0.07875(13)
C3A C 0.2504(3) 0.5030(4) 0.03692(13)
H2A H 0.2813 0.4875 0.0301
C4A C 0.2266(3) 0.5281(4) 0.00522(14)
C5A C 0.1822(3) 0.5520(4) 0.01647(14)
H3A H 0.1658 0.5700 -0.0047
C6A C 0.1618(3) 0.5499(4) 0.05828(14)
C7A C 0.1870(3) 0.5254(4) 0.08957(13)
H4A H 0.1751 0.5261 0.1182
C8A C 0.2466(2) 0.5265(4) -0.03962(12)
C9A C 0.2729(3) 0.4846(4) -0.05144(14)
H5A H 0.2780 0.4570 -0.0308
C10A C 0.2919(3) 0.4827(4) -0.09272(14)
H6A H 0.3114 0.4552 -0.0996
C11A C 0.2830(2) 0.5198(3) -0.12410(13)
C12A C 0.2571(3) 0.5619(4) -0.11259(14)
H7A H 0.2508 0.5883 -0.1335
C13A C 0.2401(3) 0.5659(4) -0.07088(13)
H8A H 0.2238 0.5960 -0.0637
C14A C 0.2987(3) 0.5150(4) -0.16939(13)
C15A C 0.3644(3) 0.5317(4) -0.18237(13)
H9A H 0.3995 0.5440 -0.1620
C16A C 0.3785(2) 0.5303(3) -0.22512(13)
C17A C 0.3275(3) 0.5135(4) -0.25462(14)
H10A H 0.3378 0.5153 -0.2838
C18A C 0.2615(3) 0.4940(4) -0.24199(13)
C19A C 0.2482(3) 0.4969(4) -0.19942(13)
H11A H 0.2037 0.4863 -0.1909
C20A C 0.1145(3) 0.5754(4) 0.06920(14)
H12A H 0.0978 0.5920 0.0474
C21A C 0.4499(3) 0.5536(4) -0.23873(14)
H13A H 0.4839 0.5640 -0.2179
C22A C 0.2076(3) 0.4745(4) -0.27312(14)
H14A H 0.2200 0.4843 -0.3020
C23A C 0.0546(3) 0.6081(4) 0.11377(14)
H15A H 0.0353 0.6116 0.0861
C24A C -0.0038(3) 0.5668(4) 0.14416(17)
H16A H 0.0148 0.5606 0.1710
H17A H -0.0344 0.5211 0.1320
C25A C -0.0450(3) 0.6031(4) 0.15300(18)
H18A H -0.0677 0.6049 0.1267
H19A H -0.0810 0.5765 0.1741
C26A C 0.0008(3) 0.6747(4) 0.16930(17)
H20A H 0.0192 0.6725 0.1972
H21A H -0.0263 0.6978 0.1729
C27A C 0.0598(3) 0.7162(4) 0.13921(15)
H22A H 0.0901 0.7620 0.1514
H23A H 0.0417 0.7223 0.1121
C28A C 0.1006(3) 0.6803(4) 0.13131(13)
H24A H 0.1220 0.6775 0.1583
C29A C 0.0956(3) 0.4305(4) -0.29740(14)
H25A H 0.1213 0.4534 -0.3237
C30A C 0.0534(3) 0.3539(4) -0.30550(16)
H26A H 0.0840 0.3361 -0.3134
H27A H 0.0285 0.3302 -0.2795
C31A C 0.0028(3) 0.3402(4) -0.34093(16)
H28A H 0.0282 0.3600 -0.3675
H29A H -0.0261 0.2903 -0.3450
C32A C -0.0424(3) 0.3704(4) -0.33186(17)
H30A H -0.0724 0.3463 -0.3076
H31A H -0.0719 0.3634 -0.3566
C33A C -0.0001(3) 0.4468(4) -0.32203(16)
H32A H 0.0256 0.4716 -0.3475
H33A H -0.0310 0.4642 -0.3142
C34A C 0.0498(3) 0.4598(4) -0.28596(14)
H34A H 0.0232 0.4364 -0.2600
N1B N 0.4244(3) 0.5203(2) 0.10711(12)
N2B N 0.2833(3) 0.4369(2) 0.09989(11)
N3B N 0.4666(3) 0.5599(2) -0.27719(11)
N4B N 0.5549(3) 0.6995(2) -0.26338(12)
C1B C 0.5260(4) 0.7848(3) 0.11062(14)
H1B H 0.5148 0.7738 0.1395
C2B C 0.4998(4) 0.7294(3) 0.07875(13)
C3B C 0.4970(4) 0.7474(3) 0.03692(13)
H2B H 0.5125 0.7938 0.0301
C4B C 0.4719(4) 0.6985(3) 0.00522(14)
C5B C 0.4480(4) 0.6302(2) 0.01647(14)
H3B H 0.4300 0.5958 -0.0047
C6B C 0.4501(4) 0.6119(3) 0.05828(14)
C7B C 0.4746(4) 0.6616(3) 0.08957(13)
H4B H 0.4739 0.6490 0.1182
C8B C 0.4735(4) 0.7201(3) -0.03962(12)
C9B C 0.5154(4) 0.7883(3) -0.05144(14)
H5B H 0.5430 0.8210 -0.0308
C10B C 0.5173(4) 0.8092(3) -0.09272(14)
H6B H 0.5448 0.8562 -0.0996
C11B C 0.4802(3) 0.7632(2) -0.12410(13)
C12B C 0.4381(4) 0.6952(3) -0.11259(14)
H7B H 0.4117 0.6625 -0.1335
C13B C 0.4341(4) 0.6742(3) -0.07088(13)
H8B H 0.4040 0.6278 -0.0637
C14B C 0.4850(4) 0.7837(2) -0.16939(13)
C15B C 0.4683(4) 0.8327(3) -0.18237(13)
H9B H 0.4560 0.8555 -0.1620
C16B C 0.4697(3) 0.8482(2) -0.22512(13)
C17B C 0.4865(4) 0.8140(3) -0.25462(14)
H10B H 0.4847 0.8225 -0.2838
C18B C 0.5060(4) 0.7675(3) -0.24199(13)
C19B C 0.5031(4) 0.7513(3) -0.19942(13)
H11B H 0.5137 0.7174 -0.1909
C20B C 0.4246(4) 0.5391(3) 0.06920(14)
H12B H 0.4080 0.5058 0.0474
C21B C 0.4464(4) 0.8963(2) -0.23873(14)
H13B H 0.4360 0.9199 -0.2179
C22B C 0.5255(4) 0.7331(3) -0.27312(14)
H14B H 0.5157 0.7357 -0.3020
C23B C 0.3919(4) 0.4465(2) 0.11377(14)
H15B H 0.3884 0.4237 0.0861
C24B C 0.4332(4) 0.4294(3) 0.14416(17)
H16B H 0.4394 0.4542 0.1710
H17B H 0.4789 0.4445 0.1320
C25B C 0.3969(4) 0.3519(3) 0.15300(18)
H18B H 0.3951 0.3274 0.1267
H19B H 0.4235 0.3425 0.1741
C26B C 0.3253(4) 0.3261(3) 0.16930(17)
H20B H 0.3275 0.3467 0.1972
H21B H 0.3022 0.2759 0.1729
C27B C 0.2838(4) 0.3436(3) 0.13921(15)
H22B H 0.2380 0.3281 0.1514
H23B H 0.2777 0.3194 0.1121
C28B C 0.3197(4) 0.4203(3) 0.13131(13)
H24B H 0.3225 0.4445 0.1583
C29B C 0.5695(4) 0.6651(3) -0.29740(14)
H25B H 0.5466 0.6679 -0.3237
C30B C 0.6461(4) 0.6995(3) -0.30550(16)
H26B H 0.6639 0.7479 -0.3134
H27B H 0.6698 0.6983 -0.2795
C31B C 0.6598(4) 0.6626(3) -0.34093(16)
H28B H 0.6400 0.6682 -0.3675
H29B H 0.7097 0.6836 -0.3450
C32B C 0.6296(4) 0.5872(3) -0.33186(17)
H30B H 0.6537 0.5813 -0.3076
H31B H 0.6366 0.5647 -0.3566
C33B C 0.5532(4) 0.5531(3) -0.32203(16)
H32B H 0.5284 0.5540 -0.3475
H33B H 0.5358 0.5048 -0.3142
C34B C 0.5402(4) 0.5900(3) -0.28596(14)
H34B H 0.5636 0.5868 -0.2600
O1 O 0.3333 0.6667 -0.3333
O2 O 0.3333 0.6667 0.1667
loop_
_geom_bond_atom_site_label_1
_geom_bond_atom_site_label_2
_geom_bond_site_symmetry_1
_geom_bond_site_symmetry_2
N1 C20 1_555 1_555
N2 C28 1_555 1_555
N3 C34 1_555 1_555
N4 C22 1_555 1_555
C1 H1 1_555 1_555
C2 C1 1_555 1_555
C3 C2 1_555 1_555
H2 C3 1_555 1_555
C4 C3 1_555 1_555
C5 C4 1_555 1_555
H3 C5 1_555 1_555
C6 C5 1_555 1_555
C7 C2 1_555 1_555
H4 C7 1_555 1_555
C8 C4 1_555 1_555
C9 C8 1_555 1_555
H5 C9 1_555 1_555
C10 C9 1_555 1_555
H6 C10 1_555 1_555
C11 C10 1_555 1_555
C12 C11 1_555 1_555
H7 C12 1_555 1_555
C13 C8 1_555 1_555
H8 C13 1_555 1_555
C14 C11 1_555 1_555
C15 C14 1_555 1_555
H9 C15 1_555 1_555
C16 C15 1_555 1_555
C17 C16 1_555 1_555
H10 C17 1_555 1_555
C18 C17 1_555 1_555
C19 C14 1_555 1_555
H11 C19 1_555 1_555
C20 C6 1_555 1_555
H12 C20 1_555 1_555
C21 C16 1_555 1_555
H13 C21 1_555 1_555
C22 C18 1_555 1_555
H14 C22 1_555 1_555
C23 N1 1_555 1_555
H15 C23 1_555 1_555
C24 C23 1_555 1_555
H16 C24 1_555 1_555
H17 C24 1_555 1_555
C25 C24 1_555 1_555
H18 C25 1_555 1_555
H19 C25 1_555 1_555
C26 C25 1_555 1_555
H20 C26 1_555 1_555
H21 C26 1_555 1_555
C27 C26 1_555 1_555
H22 C27 1_555 1_555
H23 C27 1_555 1_555
C28 C23 1_555 1_555
H24 C28 1_555 1_555
C29 N4 1_555 1_555
H25 C29 1_555 1_555
C30 C29 1_555 1_555
H26 C30 1_555 1_555
H27 C30 1_555 1_555
C31 C30 1_555 1_555
H28 C31 1_555 1_555
H29 C31 1_555 1_555
C32 C31 1_555 1_555
H30 C32 1_555 1_555
H31 C32 1_555 1_555
C33 C32 1_555 1_555
H32 C33 1_555 1_555
H33 C33 1_555 1_555
C34 C29 1_555 1_555
H34 C34 1_555 1_555
N1A C20A 1_555 1_555
N2A C1 1_555 1_555
N3A C21 1_555 1_555
N4A C22A 1_555 1_555
C1A H1A 1_555 1_555
C2A C1A 1_555 1_555
C3A C2A 1_555 1_555
H2A C3A 1_555 1_555
C4A C3A 1_555 1_555
C5A C4A 1_555 1_555
H3A C5A 1_555 1_555
C6A C5A 1_555 1_555
C7A C2A 1_555 1_555
H4A C7A 1_555 1_555
C8A C4A 1_555 1_555
C9A C8A 1_555 1_555
H5A C9A 1_555 1_555
C10A C9A 1_555 1_555
H6A C10A 1_555 1_555
C11A C10A 1_555 1_555
C12A C11A 1_555 1_555
H7A C12A 1_555 1_555
C13A C8A 1_555 1_555
H8A C13A 1_555 1_555
C14A C11A 1_555 1_555
C15A C14A 1_555 1_555
H9A C15A 1_555 1_555
C16A C15A 1_555 1_555
C17A C16A 1_555 1_555
H10A C17A 1_555 1_555
C18A C17A 1_555 1_555
C19A C14A 1_555 1_555
H11A C19A 1_555 1_555
C20A C6A 1_555 1_555
H12A C20A 1_555 1_555
C21A C16A 1_555 1_555
H13A C21A 1_555 1_555
C22A C18A 1_555 1_555
H14A C22A 1_555 1_555
C23A N1A 1_555 1_555
H15A C23A 1_555 1_555
C24A C23A 1_555 1_555
H16A C24A 1_555 1_555
H17A C24A 1_555 1_555
C25A C24A 1_555 1_555
H18A C25A 1_555 1_555
H19A C25A 1_555 1_555
C26A C25A 1_555 1_555
H20A C26A 1_555 1_555
H21A C26A 1_555 1_555
C27A C26A 1_555 1_555
H22A C27A 1_555 1_555
H23A C27A 1_555 1_555
C28A N2A 1_555 1_555
H24A C28A 1_555 1_555
C29A N4A 1_555 1_555
H25A C29A 1_555 1_555
C30A C29A 1_555 1_555
H26A C30A 1_555 1_555
H27A C30A 1_555 1_555
C31A C30A 1_555 1_555
H28A C31A 1_555 1_555
H29A C31A 1_555 1_555
C32A C31A 1_555 1_555
H30A C32A 1_555 1_555
H31A C32A 1_555 1_555
C33A C32A 1_555 1_555
H32A C33A 1_555 1_555
H33A C33A 1_555 1_555
C34A N3A 1_555 1_555
H34A C34A 1_555 1_555
N1B C20B 1_555 1_555
N2B C1A 1_555 1_555
N3B C21A 1_555 1_555
N4B C22B 1_555 1_555
C1B N2 1_555 1_555
H1B C1B 1_555 1_555
C2B C1B 1_555 1_555
C3B C2B 1_555 1_555
H2B C3B 1_555 1_555
C4B C3B 1_555 1_555
C5B C4B 1_555 1_555
H3B C5B 1_555 1_555
C6B C5B 1_555 1_555
C7B C2B 1_555 1_555
H4B C7B 1_555 1_555
C8B C4B 1_555 1_555
C9B C8B 1_555 1_555
H5B C9B 1_555 1_555
C10B C9B 1_555 1_555
H6B C10B 1_555 1_555
C11B C10B 1_555 1_555
C12B C11B 1_555 1_555
H7B C12B 1_555 1_555
C13B C8B 1_555 1_555
H8B C13B 1_555 1_555
C14B C11B 1_555 1_555
C15B C14B 1_555 1_555
H9B C15B 1_555 1_555
C16B C15B 1_555 1_555
C17B C16B 1_555 1_555
H10B C17B 1_555 1_555
C18B C17B 1_555 1_555
C19B C14B 1_555 1_555
H11B C19B 1_555 1_555
C20B C6B 1_555 1_555
H12B C20B 1_555 1_555
C21B N3 1_555 1_555
H13B C21B 1_555 1_555
C22B C18B 1_555 1_555
H14B C22B 1_555 1_555
C23B N1B 1_555 1_555
H15B C23B 1_555 1_555
C24B C23B 1_555 1_555
H16B C24B 1_555 1_555
H17B C24B 1_555 1_555
C25B C24B 1_555 1_555
H18B C25B 1_555 1_555
H19B C25B 1_555 1_555
C26B C25B 1_555 1_555
H20B C26B 1_555 1_555
H21B C26B 1_555 1_555
C27B C26B 1_555 1_555
H22B C27B 1_555 1_555
H23B C27B 1_555 1_555
C28B N2B 1_555 1_555
H24B C28B 1_555 1_555
C29B N4B 1_555 1_555
H25B C29B 1_555 1_555
C30B C29B 1_555 1_555
H26B C30B 1_555 1_555
H27B C30B 1_555 1_555
C31B C30B 1_555 1_555
H28B C31B 1_555 1_555
H29B C31B 1_555 1_555
C32B C31B 1_555 1_555
H30B C32B 1_555 1_555
H31B C32B 1_555 1_555
C33B C32B 1_555 1_555
H32B C33B 1_555 1_555
H33B C33B 1_555 1_555
C34B N3B 1_555 1_555
H34B C34B 1_555 1_555
C6 C7 1_555 1_555
C12 C13 1_555 1_555
C18 C19 1_555 1_555
C27 C28 1_555 1_555
C33 C34 1_555 1_555
C6A C7A 1_555 1_555
C12A C13A 1_555 1_555
C18A C19A 1_555 1_555
C23A C28A 1_555 1_555
C27A C28A 1_555 1_555
C29A C34A 1_555 1_555
C33A C34A 1_555 1_555
C6B C7B 1_555 1_555
C12B C13B 1_555 1_555
C16B C21B 1_555 1_555
C18B C19B 1_555 1_555
C23B C28B 1_555 1_555
C27B C28B 1_555 1_555
C29B C34B 1_555 1_555
C33B C34B 1_555 1_555

#END
