
#######################################################################
#
#                 Cambridge Crystallographic Data Centre
#                                CCDC 
#
#######################################################################
#
# If this CIF has been generated from an entry in the Cambridge 
# Structural Database, then it will include bibliographic, chemical, 
# crystal, experimental, refinement or atomic coordinate data resulting 
# from the CCDC's data processing and validation procedures.
#
#######################################################################

data_ABIMOQ
_chemical_formula_moiety         'C80.5 H8.5 N12'
_symmetry_cell_setting           hexagonal
_symmetry_space_group_name_H-M   'P 6/m c c'
_symmetry_Int_Tables_number      192
_space_group_name_Hall           "-P 6 2'c"
loop_
_symmetry_equiv_pos_site_id
_symmetry_equiv_pos_as_xyz
1 x,y,z
2 x-y,x,z
3 -y,-x,1/2-z
4 -y,x-y,z
5 -x,-x+y,1/2-z
6 x-y,-y,1/2-z
7 -x,-y,z
8 -x+y,y,1/2-z
9 x,x-y,1/2-z
10 y,-x+y,z
11 -x+y,-x,z
12 y,x,1/2-z
13 -x,-y,-z
14 -x+y,-x,-z
15 y,x,1/2+z
16 y,-x+y,-z
17 x,x-y,1/2+z
18 -x+y,y,1/2+z
19 x,y,-z
20 x-y,-y,1/2+z
21 -x,-x+y,1/2+z
22 -y,x-y,-z
23 x-y,x,-z
24 -y,-x,1/2+z
_cell_length_a                   16.439(3)
_cell_length_b                   16.439(3)
_cell_length_c                   32.483(5)
_cell_angle_alpha                90
_cell_angle_beta                 90
_cell_angle_gamma                120
_cell_volume                     7602.17
loop_
_atom_site_label
_atom_site_type_symbol
_atom_site_fract_x
_atom_site_fract_y
_atom_site_fract_z
C1 C 0.6486(3) 0.9232(3) 0.46569(19)
C2 C 0.6024(3) 0.8204(3) 0.45353(17)
C3 C 0.6808(4) 0.7768(5) 0.4075(2)
C4 C 0.7545(4) 0.7578(5) 0.3930(2)
C5 C 0.7612(6) 0.7418(7) 0.3528(2)
C6 C 0.8341(6) 0.7277(8) 0.3374(2)
C7 C 0.8975(5) 0.7273(7) 0.3663(2)
C8 C 0.8899(4) 0.7412(5) 0.4067(2)
C9 C 0.8197(4) 0.7579(4) 0.4212(2)
C10 C 0.9569(4) 0.7432(4) 0.4382(2)
C11 C 0.8444(4) 0.7162(2) 0.2928(3)
C12 C 0.9499(6) 0.7625(3) 0.2341(4)
C13 C 0.7840(7) 0.6722(5) 0.2237(4)
C14 C 0.9366(7) 0.7627(4) 0.2766(4)
C15 C 0.7712(7) 0.6725(5) 0.2656(4)
N1 N 0.7021(3) 0.9825(3) 0.43119(14)
N2 N 0.6751(3) 0.7973(3) 0.44395(16)
C1A C 0.7254(4) 0.6486(3) 0.46569(19)
C2A C 0.7820(4) 0.6024(3) 0.45353(17)
C3A C 0.9040(6) 0.6808(4) 0.4075(2)
C4A C 0.9967(6) 0.7545(4) 0.3930(2)
C5A C 1.0194(9) 0.7612(6) 0.3528(2)
C6A C 1.1064(10) 0.8341(6) 0.3374(2)
C7A C 1.1702(9) 0.8975(5) 0.3663(2)
C8A C 1.1487(6) 0.8899(4) 0.4067(2)
C9A C 1.0618(6) 0.8197(4) 0.4212(2)
C10A C 1.2137(6) 0.9569(4) 0.4382(2)
C11A C 1.1282(4) 0.8444(4) 0.2928(3)
C12A C 1.1874(7) 0.9499(6) 0.2341(4)
C13A C 1.1118(9) 0.7840(7) 0.2237(4)
C14A C 1.1739(8) 0.9366(7) 0.2766(4)
C15A C 1.0987(9) 0.7712(7) 0.2656(4)
N1A N 0.7196(4) 0.7021(3) 0.43119(14)
N2A N 0.8778(4) 0.6751(3) 0.44395(16)
C1C C 1.0768(3) 0.7254(4) 0.46569(19)
C2C C 1.1796(3) 0.7820(4) 0.45353(17)
C3C C 1.2232(5) 0.9040(6) 0.4075(2)
C4C C 1.2422(5) 0.9967(6) 0.3930(2)
C5C C 1.2582(7) 1.0194(9) 0.3528(2)
C6C C 1.2723(8) 1.1064(10) 0.3374(2)
C7C C 1.2727(7) 1.1702(9) 0.3663(2)
C8C C 1.2588(5) 1.1487(6) 0.4067(2)
C9C C 1.2421(4) 1.0618(6) 0.4212(2)
C10C C 1.2568(4) 1.2137(6) 0.4382(2)
C11C C 1.2838(2) 1.1282(4) 0.2928(3)
C12C C 1.2375(3) 1.1874(7) 0.2341(4)
C13C C 1.3278(5) 1.1118(9) 0.2237(4)
C14C C 1.2373(4) 1.1739(8) 0.2766(4)
C15C C 1.3275(5) 1.0987(9) 0.2656(4)
N1C N 1.0175(3) 0.7196(4) 0.43119(14)
N2C N 1.2027(3) 0.8778(4) 0.44395(16)
C1D C 1.3514(3) 1.2746(4) 0.03431(19)
C2D C 1.3976(3) 1.2180(4) 0.04647(17)
C3D C 1.3192(4) 1.0960(6) 0.0925(2)
C4D C 1.2455(4) 1.0033(6) 0.1070(2)
C5D C 1.2388(6) 0.9806(9) 0.1472(2)
C6D C 1.1659(6) 0.8936(10) 0.1626(2)
C7D C 1.1025(5) 0.8298(9) 0.1337(2)
C8D C 1.1101(4) 0.8513(6) 0.0933(2)
C9D C 1.1803(4) 0.9382(6) 0.0788(2)
C10D C 1.0431(4) 0.7863(6) 0.0618(2)
C11D C 1.1556(4) 0.8718(4) 0.2072(3)
C12D C 1.0501(6) 0.8126(7) 0.2659(4)
C13D C 1.2160(7) 0.8882(9) 0.2763(4)
C14D C 1.0634(7) 0.8261(8) 0.2234(4)
C15D C 1.2288(7) 0.9013(9) 0.2344(4)
N1D N 1.2979(3) 1.2804(4) 0.06881(14)
N2D N 1.3249(3) 1.1222(4) 0.05605(16)
C1G C 1.2746(4) 0.9232(3) 0.03431(19)
C2G C 1.2180(4) 0.8204(3) 0.04647(17)
C3G C 1.0960(6) 0.7768(5) 0.0925(2)
C4G C 1.0033(6) 0.7578(5) 0.1070(2)
C5G C 0.9806(9) 0.7418(7) 0.1472(2)
C6G C 0.8936(10) 0.7277(8) 0.1626(2)
C7G C 0.8298(9) 0.7273(7) 0.1337(2)
C8G C 0.8513(6) 0.7412(5) 0.0933(2)
C9G C 0.9382(6) 0.7579(4) 0.0788(2)
C10G C 0.7863(6) 0.7432(4) 0.0618(2)
C11G C 0.8718(4) 0.7162(2) 0.2072(3)
C12G C 0.8126(7) 0.7625(3) 0.2659(4)
C13G C 0.8882(9) 0.6722(5) 0.2763(4)
C14G C 0.8261(8) 0.7627(4) 0.2234(4)
C15G C 0.9013(9) 0.6725(5) 0.2344(4)
N1G N 1.2804(4) 0.9825(3) 0.06881(14)
N2G N 1.1222(4) 0.7973(3) 0.05605(16)
C1H C 0.6486(3) 0.7254(4) 0.03431(19)
C2H C 0.6024(3) 0.7820(4) 0.04647(17)
C3H C 0.6808(4) 0.9040(6) 0.0925(2)
C4H C 0.7545(4) 0.9967(6) 0.1070(2)
C5H C 0.7612(6) 1.0194(9) 0.1472(2)
C6H C 0.8341(6) 1.1064(10) 0.1626(2)
C7H C 0.8975(5) 1.1702(9) 0.1337(2)
C8H C 0.8899(4) 1.1487(6) 0.0933(2)
C9H C 0.8197(4) 1.0618(6) 0.0788(2)
C10H C 0.9569(4) 1.2137(6) 0.0618(2)
C11H C 0.8444(4) 1.1282(4) 0.2072(3)
C12H C 0.9499(6) 1.1874(7) 0.2659(4)
C13H C 0.7840(7) 1.1118(9) 0.2763(4)
C14H C 0.9366(7) 1.1739(8) 0.2234(4)
C15H C 0.7712(7) 1.0987(9) 0.2344(4)
N1H N 0.7021(3) 0.7196(4) 0.06881(14)
N2H N 0.6751(3) 0.8778(4) 0.05605(16)
C1I C 0.9232(3) 1.2746(4) 0.46569(19)
C2I C 0.8204(3) 1.2180(4) 0.45353(17)
C3I C 0.7768(5) 1.0960(6) 0.4075(2)
C4I C 0.7578(5) 1.0033(6) 0.3930(2)
C5I C 0.7418(7) 0.9806(9) 0.3528(2)
C6I C 0.7277(8) 0.8936(10) 0.3374(2)
C7I C 0.7273(7) 0.8298(9) 0.3663(2)
C8I C 0.7412(5) 0.8513(6) 0.4067(2)
C9I C 0.7579(4) 0.9382(6) 0.4212(2)
C10I C 0.7432(4) 0.7863(6) 0.4382(2)
C11I C 0.7162(2) 0.8718(4) 0.2928(3)
C12I C 0.7625(3) 0.8126(7) 0.2341(4)
C13I C 0.6722(5) 0.8882(9) 0.2237(4)
C14I C 0.7627(4) 0.8261(8) 0.2766(4)
C15I C 0.6725(5) 0.9013(9) 0.2656(4)
N1I N 0.9825(3) 1.2804(4) 0.43119(14)
N2I N 0.7973(3) 1.1222(4) 0.44395(16)
C1J C 1.2746(4) 1.3514(3) 0.46569(19)
C2J C 1.2180(4) 1.3976(3) 0.45353(17)
C3J C 1.0960(6) 1.3192(4) 0.4075(2)
C4J C 1.0033(6) 1.2455(4) 0.3930(2)
C5J C 0.9806(9) 1.2388(6) 0.3528(2)
C6J C 0.8936(10) 1.1659(6) 0.3374(2)
C7J C 0.8298(9) 1.1025(5) 0.3663(2)
C8J C 0.8513(6) 1.1101(4) 0.4067(2)
C9J C 0.9382(6) 1.1803(4) 0.4212(2)
C10J C 0.7863(6) 1.0431(4) 0.4382(2)
C11J C 0.8718(4) 1.1556(4) 0.2928(3)
C12J C 0.8126(7) 1.0501(6) 0.2341(4)
C13J C 0.8882(9) 1.2160(7) 0.2237(4)
C14J C 0.8261(8) 1.0634(7) 0.2766(4)
C15J C 0.9013(9) 1.2288(7) 0.2656(4)
N1J N 1.2804(4) 1.2979(3) 0.43119(14)
N2J N 1.1222(4) 1.3249(3) 0.44395(16)
C1K C 0.9232(3) 0.6486(3) 0.03431(19)
C2K C 0.8204(3) 0.6024(3) 0.04647(17)
C3K C 0.7768(5) 0.6808(4) 0.0925(2)
C4K C 0.7578(5) 0.7545(4) 0.1070(2)
C5K C 0.7418(7) 0.7612(6) 0.1472(2)
C6K C 0.7277(8) 0.8341(6) 0.1626(2)
C7K C 0.7273(7) 0.8975(5) 0.1337(2)
C8K C 0.7412(5) 0.8899(4) 0.0933(2)
C9K C 0.7579(4) 0.8197(4) 0.0788(2)
C10K C 0.7432(4) 0.9569(4) 0.0618(2)
C11K C 0.7162(2) 0.8444(4) 0.2072(3)
C12K C 0.7625(3) 0.9499(6) 0.2659(4)
C13K C 0.6722(5) 0.7840(7) 0.2763(4)
C14K C 0.7627(4) 0.9366(7) 0.2234(4)
C15K C 0.6725(5) 0.7712(7) 0.2344(4)
N1K N 0.9825(3) 0.7021(3) 0.06881(14)
N2K N 0.7973(3) 0.6751(3) 0.05605(16)
C1B C 1.0768(3) 1.3514(3) 0.03431(19)
C2B C 1.1796(3) 1.3976(3) 0.04647(17)
C3B C 1.2232(5) 1.3192(4) 0.0925(2)
C4B C 1.2422(5) 1.2455(4) 0.1070(2)
C5B C 1.2582(7) 1.2388(6) 0.1472(2)
C6B C 1.2723(8) 1.1659(6) 0.1626(2)
C7B C 1.2727(7) 1.1025(5) 0.1337(2)
C8B C 1.2588(5) 1.1101(4) 0.0933(2)
C9B C 1.2421(4) 1.1803(4) 0.0788(2)
C10B C 1.2568(4) 1.0431(4) 0.0618(2)
C11B C 1.2838(2) 1.1556(4) 0.2072(3)
C12B C 1.2375(3) 1.0501(6) 0.2659(4)
C13B C 1.3278(5) 1.2160(7) 0.2763(4)
C14B C 1.2373(4) 1.0634(7) 0.2234(4)
C15B C 1.3275(5) 1.2288(7) 0.2344(4)
N1B N 1.0175(3) 1.2979(3) 0.06881(14)
N2B N 1.2027(3) 1.3249(3) 0.05605(16)
C1E C 0.7254(4) 1.0768(3) 0.03431(19)
C2E C 0.7820(4) 1.1796(3) 0.04647(17)
C3E C 0.9040(6) 1.2232(5) 0.0925(2)
C4E C 0.9967(6) 1.2422(5) 0.1070(2)
C5E C 1.0194(9) 1.2582(7) 0.1472(2)
C6E C 1.1064(10) 1.2723(8) 0.1626(2)
C7E C 1.1702(9) 1.2727(7) 0.1337(2)
C8E C 1.1487(6) 1.2588(5) 0.0933(2)
C9E C 1.0618(6) 1.2421(4) 0.0788(2)
C10E C 1.2137(6) 1.2568(4) 0.0618(2)
C11E C 1.1282(4) 1.2838(2) 0.2072(3)
C12E C 1.1874(7) 1.2375(3) 0.2659(4)
C13E C 1.1118(9) 1.3278(5) 0.2763(4)
C14E C 1.1739(8) 1.2373(4) 0.2234(4)
C15E C 1.0987(9) 1.3275(5) 0.2344(4)
N1E N 0.7196(4) 1.0175(3) 0.06881(14)
N2E N 0.8778(4) 1.2027(3) 0.05605(16)
C1F C 1.3514(3) 1.0768(3) 0.46569(19)
C2F C 1.3976(3) 1.1796(3) 0.45353(17)
C3F C 1.3192(4) 1.2232(5) 0.4075(2)
C4F C 1.2455(4) 1.2422(5) 0.3930(2)
C5F C 1.2388(6) 1.2582(7) 0.3528(2)
C6F C 1.1659(6) 1.2723(8) 0.3374(2)
C7F C 1.1025(5) 1.2727(7) 0.3663(2)
C8F C 1.1101(4) 1.2588(5) 0.4067(2)
C9F C 1.1803(4) 1.2421(4) 0.4212(2)
C10F C 1.0431(4) 1.2568(4) 0.4382(2)
C11F C 1.1556(4) 1.2838(2) 0.2928(3)
C12F C 1.0501(6) 1.2375(3) 0.2341(4)
C13F C 1.2160(7) 1.3278(5) 0.2237(4)
C14F C 1.0634(7) 1.2373(4) 0.2766(4)
C15F C 1.2288(7) 1.3275(5) 0.2656(4)
N1F N 1.2979(3) 1.0175(3) 0.43119(14)
N2F N 1.3249(3) 1.2027(3) 0.44395(16)
H1? H 0.6927 0.9347 0.4890
H2? H 0.6062 1.0145 0.4881
H3? H 0.5320 0.9388 0.4566
H4? H 0.4702 0.9035 0.5241
H5? H 0.5595 0.8963 0.5393
H6? H 0.4292 0.7418 0.5218
H7? H 0.4314 0.7772 0.4756
H8? H 0.5101 0.6909 0.4802
H9? H 0.5818 0.7653 0.5130
H10? H 0.5622 0.8091 0.4287
H11? H 0.6355 0.7731 0.3883
H12? H 0.7157 0.7398 0.3342
H13? H 0.9466 0.7170 0.3573
H14? H 0.8159 0.7692 0.4497
H15? H 0.9536 0.7635 0.4653
H16? H 1.0118 0.7937 0.2232
H17? H 0.7310 0.6409 0.2061
H18? H 0.9891 0.7938 0.2945
H19? H 0.7089 0.6411 0.2761
C16? C 0.5747(5) 0.9476(4) 0.4799(2)
C17? C 0.5182(4) 0.8873(5) 0.51552(18)
C18? C 0.4707(3) 0.7844(3) 0.5000
C19? C 0.5418(3) 0.7576(3) 0.4888(2)
loop_
_geom_bond_atom_site_label_1
_geom_bond_atom_site_label_2
_geom_bond_site_symmetry_1
_geom_bond_site_symmetry_2
C1 C2 1_555 1_555
C2 N2 1_555 1_555
C3 C4 1_555 1_555
C4 C5 1_555 1_555
C5 C6 1_555 1_555
C6 C7 1_555 1_555
C7 C8 1_555 1_555
C8 C9 1_555 1_555
C9 C4 1_555 1_555
C10 C8 1_555 1_555
C11 C6 1_555 1_555
C12 C14 1_555 1_555
C13 C15 1_555 1_555
C14 C11 1_555 1_555
C15 C11 1_555 1_555
N1 C1 1_555 1_555
N2 C3 1_555 1_555
C1A C2A 1_555 1_555
C2A N2A 1_555 1_555
C3A C7 1_555 1_555
C4A C7 1_555 1_555
C5A C4A 1_555 1_555
C6A C5A 1_555 1_555
C7A C6A 1_555 1_555
C8A C7A 1_555 1_555
C9A C10 1_555 1_555
C10A C8A 1_555 1_555
C11A C6A 1_555 1_555
C12A C14A 1_555 1_555
C13A C15A 1_555 1_555
C14A C11A 1_555 1_555
C15A C11A 1_555 1_555
N1A C4 1_555 1_555
N2A C8 1_555 1_555
C1C C2C 1_555 1_555
C2C N2C 1_555 1_555
C3C C7A 1_555 1_555
C4C C7A 1_555 1_555
C5C C4C 1_555 1_555
C6C C5C 1_555 1_555
C7C C6C 1_555 1_555
C8C C7C 1_555 1_555
C9C C10A 1_555 1_555
C10C C8C 1_555 1_555
C11C C6C 1_555 1_555
C12C C14C 1_555 1_555
C13C C15C 1_555 1_555
C14C C11C 1_555 1_555
C15C C11C 1_555 1_555
N1C C10 1_555 1_555
N2C C8A 1_555 1_555
C1D C2D 1_555 1_555
C2D N2D 1_555 1_555
C3D C4D 1_555 1_555
C4D C5D 1_555 1_555
C5D C6D 1_555 1_555
C6D C7D 1_555 1_555
C7D C8D 1_555 1_555
C8D C9D 1_555 1_555
C9D C4D 1_555 1_555
C10D C8D 1_555 1_555
C11D C12A 1_555 1_555
C12D C12 1_555 1_555
C13D C11A 1_555 1_555
C14D C12 1_555 1_555
C15D C12A 1_555 1_555
N1D C1D 1_555 1_555
N2D C3D 1_555 1_555
C1G C2G 1_555 1_555
C2G N2G 1_555 1_555
C3G C7D 1_555 1_555
C4G C7D 1_555 1_555
C5G C4G 1_555 1_555
C6G C5G 1_555 1_555
C7G C6G 1_555 1_555
C8G C7G 1_555 1_555
C9G C10D 1_555 1_555
C10G C8G 1_555 1_555
C11G C12 1_555 1_555
C12G C11 1_555 1_555
C13G C11 1_555 1_555
C14G C13 1_555 1_555
C15G C12 1_555 1_555
N1G C4D 1_555 1_555
N2G C8D 1_555 1_555
C1H C2H 1_555 1_555
C2H N2H 1_555 1_555
C3H C4H 1_555 1_555
C4H C5H 1_555 1_555
C5H C6H 1_555 1_555
C6H C7H 1_555 1_555
C7H C8H 1_555 1_555
C8H C9H 1_555 1_555
C9H C4H 1_555 1_555
C10H C8H 1_555 1_555
C11H C6H 1_555 1_555
C12H C14H 1_555 1_555
C13H C15H 1_555 1_555
C14H C11H 1_555 1_555
C15H C11H 1_555 1_555
N1H C10G 1_555 1_555
N2H C3H 1_555 1_555
C1I C2I 1_555 1_555
C2I N2I 1_555 1_555
C3I C4I 1_555 1_555
C4I N1 1_555 1_555
C5I C4I 1_555 1_555
C6I C5I 1_555 1_555
C7I C3 1_555 1_555
C8I C3 1_555 1_555
C9I N1 1_555 1_555
C10I C3 1_555 1_555
C11I C6I 1_555 1_555
C12I C12G 1_555 1_555
C13I C15I 1_555 1_555
C14I C12G 1_555 1_555
C15I C11I 1_555 1_555
N1I C1I 1_555 1_555
N2I C3I 1_555 1_555
C1J C2J 1_555 1_555
C2J N2J 1_555 1_555
C3J C4J 1_555 1_555
C4J N1I 1_555 1_555
C5J C4J 1_555 1_555
C6J C5J 1_555 1_555
C7J C3I 1_555 1_555
C8J C3I 1_555 1_555
C9J N1I 1_555 1_555
C10J N1 1_555 1_555
C11J C12H 1_555 1_555
C12J C11H 1_555 1_555
C13J C11H 1_555 1_555
C14J C13H 1_555 1_555
C15J C12H 1_555 1_555
N1J C10C 1_555 1_555
N2J C3J 1_555 1_555
C1K C2K 1_555 1_555
C2K N2K 1_555 1_555
C3K C7G 1_555 1_555
C4K C7G 1_555 1_555
C5K C4K 1_555 1_555
C6K C5K 1_555 1_555
C7K C3H 1_555 1_555
C8K C3H 1_555 1_555
C9K C10G 1_555 1_555
C10K C3H 1_555 1_555
C11K C12I 1_555 1_555
C12K C11I 1_555 1_555
C13K C11I 1_555 1_555
C14K C13I 1_555 1_555
C15K C12I 1_555 1_555
N1K C10D 1_555 1_555
N2K C8G 1_555 1_555
C1B C2B 1_555 1_555
C2B N2B 1_555 1_555
C3B C4B 1_555 1_555
C4B N1D 1_555 1_555
C5B C4B 1_555 1_555
C6B C5B 1_555 1_555
C7B C3D 1_555 1_555
C8B C3D 1_555 1_555
C9B N1D 1_555 1_555
C10B C3D 1_555 1_555
C11B C12C 1_555 1_555
C12B C12A 1_555 1_555
C13B C11C 1_555 1_555
C14B C12A 1_555 1_555
C15B C12C 1_555 1_555
N1B C10H 1_555 1_555
N2B C3B 1_555 1_555
C1E C2E 1_555 1_555
C2E N2E 1_555 1_555
C3E C7H 1_555 1_555
C4E C7H 1_555 1_555
C5E C4E 1_555 1_555
C6E C5E 1_555 1_555
C7E C3B 1_555 1_555
C8E C3B 1_555 1_555
C9E C10H 1_555 1_555
C10E N1D 1_555 1_555
C11E C6E 1_555 1_555
C12E C12C 1_555 1_555
C13E C15E 1_555 1_555
C14E C12C 1_555 1_555
C15E C11E 1_555 1_555
N1E C4H 1_555 1_555
N2E C8H 1_555 1_555
C1F C2F 1_555 1_555
C2F N2F 1_555 1_555
C3F C7C 1_555 1_555
C4F C7C 1_555 1_555
C5F C4F 1_555 1_555
C6F C5F 1_555 1_555
C7F C3J 1_555 1_555
C8F C3J 1_555 1_555
C9F C10C 1_555 1_555
C10F N1I 1_555 1_555
C11F C12E 1_555 1_555
C12F C12H 1_555 1_555
C13F C11E 1_555 1_555
C14F C12H 1_555 1_555
C15F C12E 1_555 1_555
N1F C10A 1_555 1_555
N2F C8C 1_555 1_555
C4 C7I 1_555 1_555
C4 C8I 1_555 1_555
C4 C10I 1_555 1_555
C8 C3A 1_555 1_555
C8 C4A 1_555 1_555
C9 N1A 1_555 1_555
C9 C10I 1_555 1_555
C10 C3A 1_555 1_555
C10 C4A 1_555 1_555
C10 N2A 1_555 1_555
C13 C11G 1_555 1_555
C14 C12D 1_555 1_555
C14 C13G 1_555 1_555
C15 C12G 1_555 1_555
N2 C8I 1_555 1_555
N2 C10I 1_555 1_555
C1A N1A 1_555 1_555
C3A C4A 1_555 1_555
C3A N2A 1_555 1_555
C4A C9A 1_555 1_555
C4A N1C 1_555 1_555
C8A C9A 1_555 1_555
C8A C3C 1_555 1_555
C8A C4C 1_555 1_555
C9A N1C 1_555 1_555
C10A C3C 1_555 1_555
C10A C4C 1_555 1_555
C10A N2C 1_555 1_555
C11A C12D 1_555 1_555
C13A C11D 1_555 1_555
C13A C14D 1_555 1_555
C14A C13D 1_555 1_555
C14A C12B 1_555 1_555
C15A C12D 1_555 1_555
N1A C10I 1_555 1_555
C1C N1C 1_555 1_555
C3C C4C 1_555 1_555
C3C N2C 1_555 1_555
C4C C9C 1_555 1_555
C4C N1F 1_555 1_555
C8C C9C 1_555 1_555
C8C C3F 1_555 1_555
C8C C4F 1_555 1_555
C9C N1F 1_555 1_555
C10C C3F 1_555 1_555
C10C C4F 1_555 1_555
C10C N2F 1_555 1_555
C11C C12B 1_555 1_555
C13C C11B 1_555 1_555
C13C C14B 1_555 1_555
C14C C13B 1_555 1_555
C14C C12E 1_555 1_555
C15C C12B 1_555 1_555
C4D C7B 1_555 1_555
C4D C8B 1_555 1_555
C4D C10B 1_555 1_555
C6D C11D 1_555 1_555
C8D C3G 1_555 1_555
C8D C4G 1_555 1_555
C9D N1G 1_555 1_555
C9D C10B 1_555 1_555
C10D C3G 1_555 1_555
C10D C4G 1_555 1_555
C10D N2G 1_555 1_555
C11D C14D 1_555 1_555
C11D C15D 1_555 1_555
C12D C14D 1_555 1_555
C13D C15D 1_555 1_555
N2D C8B 1_555 1_555
N2D C10B 1_555 1_555
C1G N1G 1_555 1_555
C3G C4G 1_555 1_555
C3G N2G 1_555 1_555
C4G C9G 1_555 1_555
C4G N1K 1_555 1_555
C6G C11G 1_555 1_555
C8G C9G 1_555 1_555
C8G C3K 1_555 1_555
C8G C4K 1_555 1_555
C9G N1K 1_555 1_555
C10G C3K 1_555 1_555
C10G C4K 1_555 1_555
C10G N2K 1_555 1_555
C11G C14G 1_555 1_555
C11G C15G 1_555 1_555
C12G C14G 1_555 1_555
C13G C15G 1_555 1_555
C14G C12I 1_555 1_555
N1G C10B 1_555 1_555
C1H N1H 1_555 1_555
C4H C7K 1_555 1_555
C4H C8K 1_555 1_555
C4H C10K 1_555 1_555
C8H C3E 1_555 1_555
C8H C4E 1_555 1_555
C9H C10K 1_555 1_555
C9H N1E 1_555 1_555
C10H C3E 1_555 1_555
C10H C4E 1_555 1_555
C10H N2E 1_555 1_555
C13H C11J 1_555 1_555
C14H C13J 1_555 1_555
C14H C12F 1_555 1_555
C15H C12J 1_555 1_555
N1H C4K 1_555 1_555
N1H C9K 1_555 1_555
N2H C8K 1_555 1_555
N2H C10K 1_555 1_555
C3I C10J 1_555 1_555
C4I C9I 1_555 1_555
C4I C7J 1_555 1_555
C4I C8J 1_555 1_555
C4I C10J 1_555 1_555
C6I C7I 1_555 1_555
C7I C8I 1_555 1_555
C8I C9I 1_555 1_555
C8I C10I 1_555 1_555
C9I C10J 1_555 1_555
C11I C14I 1_555 1_555
C12I C14I 1_555 1_555
C13I C11K 1_555 1_555
C14I C13K 1_555 1_555
C15I C12K 1_555 1_555
N2I C8J 1_555 1_555
N2I C10J 1_555 1_555
C1J N1J 1_555 1_555
C3J C10F 1_555 1_555
C4J C9J 1_555 1_555
C4J C7F 1_555 1_555
C4J C8F 1_555 1_555
C4J C10F 1_555 1_555
C6J C7J 1_555 1_555
C6J C11J 1_555 1_555
C7J C8J 1_555 1_555
C8J C9J 1_555 1_555
C8J C10J 1_555 1_555
C9J C10F 1_555 1_555
C11J C14J 1_555 1_555
C11J C15J 1_555 1_555
C12J C14J 1_555 1_555
C12J C12K 1_555 1_555
C12J C14K 1_555 1_555
C13J C15J 1_555 1_555
C14J C12K 1_555 1_555
N1J C4F 1_555 1_555
N1J C9F 1_555 1_555
N2J C8F 1_555 1_555
N2J C10F 1_555 1_555
C1K N1K 1_555 1_555
C3K C4K 1_555 1_555
C3K N2K 1_555 1_555
C4K C9K 1_555 1_555
C6K C7K 1_555 1_555
C6K C11K 1_555 1_555
C7K C8K 1_555 1_555
C8K C9K 1_555 1_555
C8K C10K 1_555 1_555
C10K N1E 1_555 1_555
C11K C14K 1_555 1_555
C11K C15K 1_555 1_555
C12K C14K 1_555 1_555
C13K C15K 1_555 1_555
C1B N1B 1_555 1_555
C3B C10E 1_555 1_555
C4B C9B 1_555 1_555
C4B C7E 1_555 1_555
C4B C8E 1_555 1_555
C4B C10E 1_555 1_555
C6B C7B 1_555 1_555
C6B C11B 1_555 1_555
C7B C8B 1_555 1_555
C8B C9B 1_555 1_555
C8B C10B 1_555 1_555
C9B C10E 1_555 1_555
C11B C14B 1_555 1_555
C11B C15B 1_555 1_555
C12B C14B 1_555 1_555
C13B C15B 1_555 1_555
N1B C4E 1_555 1_555
N1B C9E 1_555 1_555
N2B C8E 1_555 1_555
N2B C10E 1_555 1_555
C1E N1E 1_555 1_555
C3E C4E 1_555 1_555
C3E N2E 1_555 1_555
C4E C9E 1_555 1_555
C6E C7E 1_555 1_555
C7E C8E 1_555 1_555
C8E C9E 1_555 1_555
C8E C10E 1_555 1_555
C11E C14E 1_555 1_555
C11E C12F 1_555 1_555
C12E C14E 1_555 1_555
C13E C11F 1_555 1_555
C13E C14F 1_555 1_555
C14E C13F 1_555 1_555
C15E C12F 1_555 1_555
C1F N1F 1_555 1_555
C3F C4F 1_555 1_555
C3F N2F 1_555 1_555
C4F C9F 1_555 1_555
C6F C7F 1_555 1_555
C6F C11F 1_555 1_555
C7F C8F 1_555 1_555
C8F C9F 1_555 1_555
C8F C10F 1_555 1_555
C11F C14F 1_555 1_555
C11F C15F 1_555 1_555
C12F C14F 1_555 1_555
C13F C15F 1_555 1_555

#END
