
#######################################################################
#
#                 Cambridge Crystallographic Data Centre
#                                CCDC 
#
#######################################################################
#
# If this CIF has been generated from an entry in the Cambridge 
# Structural Database, then it will include bibliographic, chemical, 
# crystal, experimental, refinement or atomic coordinate data resulting 
# from the CCDC's data processing and validation procedures.
#
#######################################################################

data_ABIMEG
_chemical_formula_moiety         'C95.585 H97.32 N10.905'
_symmetry_cell_setting           monoclinic
_symmetry_space_group_name_H-M   'C 2/c'
_symmetry_Int_Tables_number      15
_space_group_name_Hall           '-C 2yn'
loop_
_symmetry_equiv_pos_site_id
_symmetry_equiv_pos_as_xyz
1 x,y,z
2 -x,y,1/2-z
3 1/2+x,1/2+y,z
4 1/2-x,1/2+y,1/2-z
5 -x,-y,-z
6 x,-y,1/2+z
7 1/2-x,1/2-y,-z
8 1/2+x,1/2-y,1/2+z
_cell_length_a                   27.9160(11)
_cell_length_b                   24.1259(9)
_cell_length_c                   16.9613(7)
_cell_angle_alpha                90
_cell_angle_beta                 90.518(2)
_cell_angle_gamma                90
_cell_volume                     11422.9
loop_
_atom_site_label
_atom_site_type_symbol
_atom_site_fract_x
_atom_site_fract_y
_atom_site_fract_z
N1 N 0.70104(6) 0.94480(7) 0.40027(11)
N2 N 0.64305(7) 0.92390(8) 0.53661(11)
N3 N 0.76940(12) 0.74808(12) 0.1765(2)
N4 N 0.7553(3) 0.6382(5) 0.2543(7)
N5 N 0.61854(8) 0.67295(8) 0.66338(14)
N6 N 0.6325(5) 0.5805(6) 0.5687(6)
C1 C 0.57394(10) 0.74583(12) 0.60105(16)
C2 C 0.61122(10) 0.78483(11) 0.60137(16)
H1 H 0.6408 0.7760 0.6266
C3 C 0.60547(10) 0.83602(11) 0.56542(14)
C4 C 0.56222(9) 0.84775(12) 0.52635(14)
H2 H 0.5584 0.8824 0.5004
C5 C 0.52477(9) 0.80980(12) 0.52477(13)
C6 C 0.53087(10) 0.75868(12) 0.56354(14)
H3 H 0.5053 0.7327 0.5641
C7 C 0.47917(10) 0.81822(17) 0.48042(17)
C8 C 0.46310(10) 0.87242(13) 0.46702(16)
H4 H 0.4801 0.9028 0.4892
C9 C 0.42242(9) 0.88189(12) 0.42142(16)
H5 H 0.4117 0.9188 0.4132
C10 C 0.39693(10) 0.83796(15) 0.38744(17)
C11 C 0.41212(9) 0.78413(12) 0.40338(15)
H6 H 0.3945 0.7535 0.3832
C12 C 0.45298(9) 0.77516(12) 0.44873(15)
H7 H 0.4632 0.7382 0.4582
C13 C 0.35674(8) 0.84809(10) 0.33083(14)
C14 C 0.57951(10) 0.68989(11) 0.63487(16)
H8 H 0.5526 0.6658 0.6351
C15 C 0.64606(9) 0.87536(11) 0.56464(14)
H9 H 0.6759 0.8636 0.5863
C16 C 0.71464(7) 0.86039(8) 0.28488(13)
H10 H 0.7386 0.8638 0.3247
C17 C 0.67549(7) 0.89575(8) 0.28466(13)
C18 C 0.63990(7) 0.88914(10) 0.22692(14)
H11 H 0.6129 0.9131 0.2270
C19 C 0.68293(8) 0.81397(9) 0.16880(14)
H12 H 0.6860 0.7864 0.1292
C20 C 0.71891(8) 0.81984(9) 0.22684(14)
C21 C 0.66994(7) 0.93785(8) 0.34645(13)
H13 H 0.6421 0.9606 0.3460
C22 C 0.76013(8) 0.78263(9) 0.23026(14)
H14 H 0.7809 0.7845 0.2749
C23 C 0.69194(8) 0.98690(8) 0.45996(14)
H15 H 0.6617 1.0071 0.4462
C24 C 0.73398(8) 1.02787(10) 0.46045(17)
H16 H 0.7643 1.0072 0.4677
H17 H 0.7353 1.0471 0.4089
C25 C 0.72934(10) 1.07023(12) 0.5252(2)
H18 H 0.7576 1.0951 0.5254
H19 H 0.7003 1.0931 0.5161
C26 C 0.72594(10) 1.04157(13) 0.6017(2)
H20 H 0.7223 1.0695 0.6440
H21 H 0.7561 1.0211 0.6119
C27 C 0.68331(10) 1.00050(13) 0.60507(18)
H22 H 0.6836 0.9812 0.6566
H23 H 0.6528 1.0213 0.6005
C28 C 0.68601(8) 0.95811(10) 0.53918(14)
H24 H 0.7144 0.9337 0.5488
C29 C 0.81212(13) 0.71336(13) 0.1900(2)
H25 H 0.8256 0.7222 0.2433
C30 C 0.85001(18) 0.72568(16) 0.1287(3)
H26 H 0.8599 0.7650 0.1327
H27 H 0.8365 0.7194 0.0752
C31 C 0.89337(17) 0.68838(17) 0.1415(3)
H28 H 0.9085 0.6972 0.1930
H29 H 0.9172 0.6957 0.0999
C32 C 0.87941(16) 0.62712(16) 0.1397(2)
H30 H 0.8679 0.6173 0.0861
H31 H 0.9080 0.6042 0.1516
C33 C 0.84085(13) 0.61427(13) 0.19831(18)
H32 H 0.8541 0.6185 0.2523
H33 H 0.8307 0.5752 0.1917
C34 C 0.79706(13) 0.65201(11) 0.18880(18)
H34 H 0.7796 0.6432 0.1386
C35 C 0.61980(9) 0.61523(10) 0.69096(17)
H35 H 0.5868 0.5992 0.6871
C36 C 0.63637(11) 0.61376(10) 0.77683(18)
H36 H 0.6124 0.6328 0.8098
H37 H 0.6670 0.6342 0.7820
C37 C 0.64331(10) 0.55464(10) 0.80715(19)
H38 H 0.6570 0.5557 0.8612
H39 H 0.6119 0.5356 0.8093
C38 C 0.67603(11) 0.52334(11) 0.7543(2)
H40 H 0.6792 0.4847 0.7735
H41 H 0.7082 0.5406 0.7558
C39 C 0.65723(10) 0.52291(11) 0.66973(19)
H42 H 0.6793 0.5015 0.6360
H43 H 0.6254 0.5047 0.6677
C40 C 0.65306(9) 0.58196(10) 0.63914(17)
H44 H 0.6856 0.5991 0.6446
C41 C 0.6849(4) 0.6113(5) 0.3777(5)
H45 H 0.7168 0.6166 0.3963
C42 C 0.6749(3) 0.6171(4) 0.2973(5)
C43 C 0.6277(3) 0.6102(3) 0.2707(4)
H46 H 0.6202 0.6137 0.2162
C44 C 0.5914(3) 0.5982(4) 0.3244(4)
C45 C 0.6021(3) 0.5933(4) 0.4040(4)
H47 H 0.5773 0.5866 0.4406
C46 C 0.6497(4) 0.5983(5) 0.4306(6)
C47 C 0.54180(18) 0.5962(3) 0.2958(3)
C48 C 0.50499(13) 0.62410(18) 0.3359(2)
H48 H 0.5120 0.6419 0.3846
C49 C 0.7120(3) 0.6295(4) 0.2392(6)
H49 H 0.7023 0.6311 0.1854
C50 C 0.6621(6) 0.5954(6) 0.5157(6)
H50 H 0.6937 0.6051 0.5316
C51 C 0.45866(14) 0.62604(19) 0.3056(2)
H51 H 0.4346 0.6458 0.3332
N1A N 0.29896(6) 0.94480(7) 0.09973(11)
N2A N 0.35695(7) 0.92390(8) -0.03661(11)
N3A N 0.23060(12) 0.74808(12) 0.3235(2)
N4A N 0.2447(3) 0.6382(5) 0.2457(7)
N5A N 0.38146(8) 0.67295(8) -0.16338(14)
N6A N 0.3675(5) 0.5805(6) -0.0687(6)
C1A C 0.42606(10) 0.74583(12) -0.10105(16)
C2A C 0.38878(10) 0.78483(11) -0.10137(16)
H1A H 0.3592 0.7760 -0.1266
C3A C 0.39453(10) 0.83602(11) -0.06542(14)
C4A C 0.43778(9) 0.84775(12) -0.02635(14)
H2A H 0.4416 0.8824 -0.0004
C5A C 0.47523(9) 0.80980(12) -0.02477(13)
C6A C 0.46913(10) 0.75868(12) -0.06354(14)
H3A H 0.4947 0.7327 -0.0641
C7A C 0.52083(10) 0.81822(17) 0.01958(17)
C8A C 0.53690(10) 0.87242(13) 0.03298(16)
H4A H 0.5199 0.9028 0.0108
C9A C 0.57758(9) 0.88189(12) 0.07858(16)
H5A H 0.5883 0.9188 0.0868
C10A C 0.60307(10) 0.83796(15) 0.11256(17)
C11A C 0.58788(9) 0.78413(12) 0.09662(15)
H6A H 0.6055 0.7535 0.1168
C12A C 0.54702(9) 0.77516(12) 0.05127(15)
H7A H 0.5368 0.7382 0.0418
C13A C 0.64326(8) 0.84809(10) 0.16917(14)
C14A C 0.42049(10) 0.68989(11) -0.13487(16)
H8A H 0.4474 0.6658 -0.1351
C15A C 0.35394(9) 0.87536(11) -0.06464(14)
H9A H 0.3241 0.8636 -0.0863
C16A C 0.28536(7) 0.86039(8) 0.21512(13)
H10A H 0.2614 0.8638 0.1753
C17A C 0.32451(7) 0.89575(8) 0.21534(13)
C18A C 0.36010(7) 0.88914(10) 0.27308(14)
H11A H 0.3871 0.9131 0.2730
C19A C 0.31707(8) 0.81397(9) 0.33120(14)
H12A H 0.3140 0.7864 0.3708
C20A C 0.28109(8) 0.81984(9) 0.27316(14)
C21A C 0.33006(7) 0.93785(8) 0.15355(13)
H13A H 0.3579 0.9606 0.1540
C22A C 0.23987(8) 0.78263(9) 0.26974(14)
H14A H 0.2191 0.7845 0.2251
C23A C 0.30806(8) 0.98690(8) 0.04004(14)
H15A H 0.3383 1.0071 0.0538
C24A C 0.26602(8) 1.02787(10) 0.03955(17)
H16A H 0.2357 1.0072 0.0323
H17A H 0.2647 1.0471 0.0911
C25A C 0.27066(10) 1.07023(12) -0.0252(2)
H18A H 0.2424 1.0951 -0.0254
H19A H 0.2997 1.0931 -0.0161
C26A C 0.27406(10) 1.04157(13) -0.1017(2)
H20A H 0.2777 1.0695 -0.1440
H21A H 0.2439 1.0211 -0.1119
C27A C 0.31669(10) 1.00050(13) -0.10507(18)
H22A H 0.3164 0.9812 -0.1566
H23A H 0.3472 1.0213 -0.1005
C28A C 0.31399(8) 0.95811(10) -0.03918(14)
H24A H 0.2856 0.9337 -0.0488
C29A C 0.18788(13) 0.71336(13) 0.3100(2)
H25A H 0.1744 0.7222 0.2567
C30A C 0.14999(18) 0.72568(16) 0.3713(3)
H26A H 0.1401 0.7650 0.3673
H27A H 0.1635 0.7194 0.4248
C31A C 0.10663(17) 0.68838(17) 0.3585(3)
H28A H 0.0915 0.6972 0.3070
H29A H 0.0828 0.6957 0.4001
C32A C 0.12059(16) 0.62712(16) 0.3603(2)
H30A H 0.1321 0.6173 0.4139
H31A H 0.0920 0.6042 0.3484
C33A C 0.15915(13) 0.61427(13) 0.30169(18)
H32A H 0.1459 0.6185 0.2477
H33A H 0.1693 0.5752 0.3083
C34A C 0.20294(13) 0.65201(11) 0.31120(18)
H34A H 0.2204 0.6432 0.3614
C35A C 0.38020(9) 0.61523(10) -0.19096(17)
H35A H 0.4132 0.5992 -0.1871
C36A C 0.36363(11) 0.61376(10) -0.27683(18)
H36A H 0.3876 0.6328 -0.3098
H37A H 0.3330 0.6342 -0.2820
C37A C 0.35669(10) 0.55464(10) -0.30715(19)
H38A H 0.3430 0.5557 -0.3612
H39A H 0.3881 0.5356 -0.3093
C38A C 0.32397(11) 0.52334(11) -0.2543(2)
H40A H 0.3208 0.4847 -0.2735
H41A H 0.2918 0.5406 -0.2558
C39A C 0.34277(10) 0.52291(11) -0.16973(19)
H42A H 0.3207 0.5015 -0.1360
H43A H 0.3746 0.5047 -0.1677
C40A C 0.34694(9) 0.58196(10) -0.13914(17)
H44A H 0.3144 0.5991 -0.1446
C41A C 0.3151(4) 0.6113(5) 0.1223(5)
H45A H 0.2832 0.6166 0.1037
C42A C 0.3251(3) 0.6171(4) 0.2027(5)
C43A C 0.3723(3) 0.6102(3) 0.2293(4)
H46A H 0.3798 0.6137 0.2838
C44A C 0.4086(3) 0.5982(4) 0.1756(4)
C45A C 0.3979(3) 0.5933(4) 0.0960(4)
H47A H 0.4227 0.5866 0.0594
C46A C 0.3503(4) 0.5983(5) 0.0694(6)
C47A C 0.45820(18) 0.5962(3) 0.2042(3)
C48A C 0.49501(13) 0.62410(18) 0.1641(2)
H48A H 0.4880 0.6419 0.1154
C49A C 0.2880(3) 0.6295(4) 0.2608(6)
H49A H 0.2977 0.6311 0.3146
C50A C 0.3379(6) 0.5954(6) -0.0157(6)
H50A H 0.3063 0.6051 -0.0316
C51A C 0.54134(14) 0.62604(19) 0.1944(2)
H51A H 0.5654 0.6458 0.1668
H52? H 0.7812 0.7974 0.2692
H53? H 0.8663 0.6374 0.0873
H54? H 0.9028 0.5965 0.1343
C52? C 0.4831(4) 0.8365(6) 0.4723(8)
C53? C 0.4384(5) 0.8156(6) 0.4917(8)
H55? H 0.4344 0.7953 0.5392
C54? C 0.3994(4) 0.8244(6) 0.4417(9)
H56? H 0.3688 0.8101 0.4549
C55? C 0.4052(4) 0.8541(7) 0.3722(9)
C56? C 0.4500(5) 0.8750(7) 0.3528(8)
H57? H 0.4539 0.8953 0.3053
C57? C 0.4889(4) 0.8662(6) 0.4028(9)
H58? H 0.5195 0.8805 0.3896
C58? C 0.8185(10) 0.7064(12) 0.227(2)
H59? H 0.8256 0.7066 0.2849
C59? C 0.9022(11) 0.6822(13) 0.189(2)
H60? H 0.9042 0.6764 0.2472
H61? H 0.9332 0.6953 0.1686
N7? N 0.7824(9) 0.7346(10) 0.2014(15)
C60? C 0.8630(11) 0.7149(13) 0.166(2)
H62? H 0.8527 0.7042 0.1118
H63? H 0.8726 0.7544 0.1647
N8? N 0.6386(5) 0.5848(6) 0.5462(6)
C61? C 0.6951(4) 0.6195(5) 0.3596(6)
H64? H 0.7265 0.6247 0.3805
C62? C 0.6416(2) 0.6187(3) 0.2489(5)
H65? H 0.6358 0.6235 0.1940
C63? C 0.6032(3) 0.6050(3) 0.2984(5)
C64? C 0.6581(4) 0.6061(5) 0.4108(6)
C65? C 0.55283(18) 0.5998(2) 0.2638(3)
C66? C 0.6684(5) 0.6005(6) 0.4951(6)
H66? H 0.6999 0.6093 0.5129
C67? C 0.6118(3) 0.5984(4) 0.3787(4)
H67? H 0.5862 0.5885 0.4124
C68? C 0.6875(3) 0.6254(4) 0.2782(5)
C69? C 0.51900(16) 0.5691(2) 0.3016(3)
H68? H 0.5273 0.5488 0.3477
N9? N 0.7700(3) 0.6421(5) 0.2486(8)
C70? C 0.7266(3) 0.6373(4) 0.2241(7)
H69? H 0.7197 0.6416 0.1695
C71? C 0.52806(15) 0.5677(2) 0.2277(3)
H70? H 0.5514 0.5466 0.2004
loop_
_geom_bond_atom_site_label_1
_geom_bond_atom_site_label_2
_geom_bond_site_symmetry_1
_geom_bond_site_symmetry_2
N1 C21 1_555 1_555
N2 C15 1_555 1_555
N3 C22 1_555 1_555
N4 C34 1_555 1_555
N5 C14 1_555 1_555
N6 C40 1_555 1_555
C1 C2 1_555 1_555
C2 H1 1_555 1_555
C3 C2 1_555 1_555
C4 C3 1_555 1_555
H2 C4 1_555 1_555
C5 C4 1_555 1_555
C6 C1 1_555 1_555
H3 C6 1_555 1_555
C7 C5 1_555 1_555
C8 C7 1_555 1_555
H4 C8 1_555 1_555
C9 C8 1_555 1_555
H5 C9 1_555 1_555
C10 C9 1_555 1_555
C11 C10 1_555 1_555
H6 C11 1_555 1_555
C12 C7 1_555 1_555
H7 C12 1_555 1_555
C13 C10 1_555 1_555
C14 C1 1_555 1_555
H8 C14 1_555 1_555
C15 C3 1_555 1_555
H9 C15 1_555 1_555
C16 H10 1_555 1_555
C17 C16 1_555 1_555
C18 C17 1_555 1_555
H11 C18 1_555 1_555
C19 H12 1_555 1_555
C20 C16 1_555 1_555
C21 C17 1_555 1_555
H13 C21 1_555 1_555
C22 C20 1_555 1_555
H14 C22 1_555 1_555
C23 N1 1_555 1_555
H15 C23 1_555 1_555
C24 C23 1_555 1_555
H16 C24 1_555 1_555
H17 C24 1_555 1_555
C25 C24 1_555 1_555
H18 C25 1_555 1_555
H19 C25 1_555 1_555
C26 C25 1_555 1_555
H20 C26 1_555 1_555
H21 C26 1_555 1_555
C27 C26 1_555 1_555
H22 C27 1_555 1_555
H23 C27 1_555 1_555
C28 N2 1_555 1_555
H24 C28 1_555 1_555
C29 N3 1_555 1_555
H25 C29 1_555 1_555
C30 C29 1_555 1_555
H26 C30 1_555 1_555
H27 C30 1_555 1_555
C31 C30 1_555 1_555
H28 C31 1_555 1_555
H29 C31 1_555 1_555
C32 C31 1_555 1_555
H30 C32 1_555 1_555
H31 C32 1_555 1_555
C33 C32 1_555 1_555
H32 C33 1_555 1_555
H33 C33 1_555 1_555
C34 C29 1_555 1_555
H34 C34 1_555 1_555
C35 N5 1_555 1_555
H35 C35 1_555 1_555
C36 C35 1_555 1_555
H36 C36 1_555 1_555
H37 C36 1_555 1_555
C37 C36 1_555 1_555
H38 C37 1_555 1_555
H39 C37 1_555 1_555
C38 C37 1_555 1_555
H40 C38 1_555 1_555
H41 C38 1_555 1_555
C39 C38 1_555 1_555
H42 C39 1_555 1_555
H43 C39 1_555 1_555
C40 C35 1_555 1_555
H44 C40 1_555 1_555
C41 H45 1_555 1_555
C42 C41 1_555 1_555
C43 C42 1_555 1_555
H46 C43 1_555 1_555
C44 C43 1_555 1_555
C45 C44 1_555 1_555
H47 C45 1_555 1_555
C46 C41 1_555 1_555
C47 C44 1_555 1_555
C48 C47 1_555 1_555
H48 C48 1_555 1_555
C49 N4 1_555 1_555
H49 C49 1_555 1_555
C50 N6 1_555 1_555
H50 C50 1_555 1_555
C51 C48 1_555 1_555
H51 C51 1_555 1_555
N1A C21A 1_555 1_555
N2A C15A 1_555 1_555
N3A C22A 1_555 1_555
N4A C34A 1_555 1_555
N5A C14A 1_555 1_555
N6A C40A 1_555 1_555
C1A C2A 1_555 1_555
C2A H1A 1_555 1_555
C3A C2A 1_555 1_555
C4A C3A 1_555 1_555
H2A C4A 1_555 1_555
C5A C4A 1_555 1_555
C6A C1A 1_555 1_555
H3A C6A 1_555 1_555
C7A C5A 1_555 1_555
C8A C7A 1_555 1_555
H4A C8A 1_555 1_555
C9A C8A 1_555 1_555
H5A C9A 1_555 1_555
C10A C9A 1_555 1_555
C11A C10A 1_555 1_555
H6A C11A 1_555 1_555
C12A C7A 1_555 1_555
H7A C12A 1_555 1_555
C13A C18 1_555 1_555
C14A C1A 1_555 1_555
H8A C14A 1_555 1_555
C15A C3A 1_555 1_555
H9A C15A 1_555 1_555
C16A H10A 1_555 1_555
C17A C16A 1_555 1_555
C18A C13 1_555 1_555
H11A C18A 1_555 1_555
C19A C13 1_555 1_555
H12A C19A 1_555 1_555
C20A C16A 1_555 1_555
C21A C17A 1_555 1_555
H13A C21A 1_555 1_555
C22A C20A 1_555 1_555
H14A C22A 1_555 1_555
C23A N1A 1_555 1_555
H15A C23A 1_555 1_555
C24A C23A 1_555 1_555
H16A C24A 1_555 1_555
H17A C24A 1_555 1_555
C25A C24A 1_555 1_555
H18A C25A 1_555 1_555
H19A C25A 1_555 1_555
C26A C25A 1_555 1_555
H20A C26A 1_555 1_555
H21A C26A 1_555 1_555
C27A C26A 1_555 1_555
H22A C27A 1_555 1_555
H23A C27A 1_555 1_555
C28A N2A 1_555 1_555
H24A C28A 1_555 1_555
C29A N3A 1_555 1_555
H25A C29A 1_555 1_555
C30A C29A 1_555 1_555
H26A C30A 1_555 1_555
H27A C30A 1_555 1_555
C31A C30A 1_555 1_555
H28A C31A 1_555 1_555
H29A C31A 1_555 1_555
C32A C31A 1_555 1_555
H30A C32A 1_555 1_555
H31A C32A 1_555 1_555
C33A C32A 1_555 1_555
H32A C33A 1_555 1_555
H33A C33A 1_555 1_555
C34A C29A 1_555 1_555
H34A C34A 1_555 1_555
C35A N5A 1_555 1_555
H35A C35A 1_555 1_555
C36A C35A 1_555 1_555
H36A C36A 1_555 1_555
H37A C36A 1_555 1_555
C37A C36A 1_555 1_555
H38A C37A 1_555 1_555
H39A C37A 1_555 1_555
C38A C37A 1_555 1_555
H40A C38A 1_555 1_555
H41A C38A 1_555 1_555
C39A C38A 1_555 1_555
H42A C39A 1_555 1_555
H43A C39A 1_555 1_555
C40A C35A 1_555 1_555
H44A C40A 1_555 1_555
C41A H45A 1_555 1_555
C42A C41A 1_555 1_555
C43A C42A 1_555 1_555
H46A C43A 1_555 1_555
C44A C43A 1_555 1_555
C45A C44A 1_555 1_555
H47A C45A 1_555 1_555
C46A C41A 1_555 1_555
C47A C51 1_555 1_555
C48A C47A 1_555 1_555
H48A C48A 1_555 1_555
C49A N4A 1_555 1_555
H49A C49A 1_555 1_555
C50A N6A 1_555 1_555
H50A C50A 1_555 1_555
C51A C47 1_555 1_555
H51A C51A 1_555 1_555
C5 C6 1_555 1_555
C11 C12 1_555 1_555
C19 C20 1_555 1_555
C19 C13A 1_555 1_555
C23 C28 1_555 1_555
C27 C28 1_555 1_555
C33 C34 1_555 1_555
C39 C40 1_555 1_555
C42 C49 1_555 1_555
C45 C46 1_555 1_555
C46 C50 1_555 1_555
C5A C6A 1_555 1_555
C10A C13A 1_555 1_555
C11A C12A 1_555 1_555
C17A C18A 1_555 1_555
C19A C20A 1_555 1_555
C23A C28A 1_555 1_555
C27A C28A 1_555 1_555
C33A C34A 1_555 1_555
C39A C40A 1_555 1_555
C42A C49A 1_555 1_555
C44A C47A 1_555 1_555
C45A C46A 1_555 1_555
C46A C50A 1_555 1_555
C48A C51A 1_555 1_555

#END
