
#######################################################################
#
#                 Cambridge Crystallographic Data Centre
#                                CCDC 
#
#######################################################################
#
# If this CIF has been generated from an entry in the Cambridge 
# Structural Database, then it will include bibliographic, chemical, 
# crystal, experimental, refinement or atomic coordinate data resulting 
# from the CCDC's data processing and validation procedures.
#
#######################################################################

data_ABINEH
_chemical_name_common            
'TCC2-S TCC3-R dichloromethane 1,4-dioxane solvate'
_chemical_formula_moiety         
'C102 H102 N12,C114 H102 N12,17(C1 H2 Cl2),17(C4 H8 O2)'
_chemical_name_systematic        
'(S)-5,7,11,13,19,21,25,27,30,32,36,38-dodecaaza-6,12,20,26,31,37(1,2)-hexacyclohexana-1,3,9,15,17,23(1,3,5),2,16,24(1,4)-nonabenzenatetracyclo[15.11.5.5^3,15^.1^9,23^]nonatriacontaphane-4,7,10,13,18,21,24,27,29,32,35,38-dodecane (R)-3,5,15,17,21,23,33,35,43,45,48,50-dodecaaza-4,16,22,34,44,49(1,2)-hexacyclohexana-1,7,13,19,25,31(1,3,5),10,28,39(1,4)-nonabenzenatetracyclo[17.17.5.5^7,31^.5^13,25^]henpentacontaphane-2,5,14,17,20,23,32,35,42,45,47,50-dodecaene-8,11,26,29,37,40-hexayne dichloromethane 1,4-dioxane solvate'
_symmetry_cell_setting           trigonal
_symmetry_space_group_name_H-M   'P 3'
_symmetry_Int_Tables_number      143
_space_group_name_Hall           'P 3'
loop_
_symmetry_equiv_pos_site_id
_symmetry_equiv_pos_as_xyz
1 x,y,z
2 -y,x-y,z
3 -x+y,-x,z
_cell_length_a                   16.532(3)
_cell_length_b                   16.532(3)
_cell_length_c                   37.422(6)
_cell_angle_alpha                90
_cell_angle_beta                 90
_cell_angle_gamma                120
_cell_volume                     8857.44
_exptl_crystal_colour            colorless
_exptl_crystal_description       needle
_cell_formula_units_Z            1
loop_
_atom_site_label
_atom_site_type_symbol
_atom_site_fract_x
_atom_site_fract_y
_atom_site_fract_z
C35 C 0.1467(6) 0.3666(7) 0.13085(14)
C36 C 0.0801(5) 0.3889(7) 0.11967(15)
H34 H 0.0352 0.3866 0.1361
C37 C 0.0791(5) 0.4148(7) 0.08440(17)
C38 C 0.1448(6) 0.4183(7) 0.06030(14)
C39 C 0.2114(5) 0.3960(6) 0.07149(17)
C40 C 0.2124(5) 0.3701(7) 0.10676(19)
H35 H 0.2579 0.3548 0.1144
C41 C 0.1482(9) 0.3551(13) 0.1680(3)
C42 C 0.1608(15) 0.3470(17) 0.2001(4)
C43 C 0.1780(7) 0.3398(11) 0.31135(16)
C44 C 0.1006(6) 0.3380(9) 0.29598(19)
H36 H 0.0538 0.3379 0.3107
C45 C 0.0917(7) 0.3363(9) 0.2590(2)
H37 H 0.0388 0.3351 0.2485
C46 C 0.1602(7) 0.3365(9) 0.23742(16)
C47 C 0.2376(7) 0.3383(9) 0.2528(2)
H38 H 0.2844 0.3384 0.2380
C48 C 0.2465(7) 0.3399(10) 0.2897(2)
H39 H 0.2995 0.3411 0.3003
C49 C 0.1884(13) 0.351(2) 0.3484(3)
C50 C 0.2067(11) 0.3561(12) 0.3814(3)
C51 C 0.2193(6) 0.3697(8) 0.41866(13)
C52 C 0.1574(5) 0.3735(7) 0.44285(17)
H40 H 0.0967 0.3588 0.4353
C53 C 0.1844(5) 0.3987(7) 0.47815(15)
C54 C 0.2732(5) 0.4202(7) 0.48926(13)
H41 H 0.2916 0.4375 0.5134
C55 C 0.3350(4) 0.4165(7) 0.46507(18)
C56 C 0.3080(5) 0.3912(8) 0.42976(16)
H42 H 0.3503 0.3886 0.4132
N5 N 0.4596(9) 0.4724(9) 0.5077(3)
C57 C 0.4335(11) 0.4437(14) 0.4777(4)
H43 H 0.4749 0.4380 0.4617
C58 C 0.5571(8) 0.4982(8) 0.5169(3)
H44 H 0.5863 0.4894 0.4949
C59 C 0.6089(8) 0.5910(8) 0.5265(3)
H45 H 0.5748 0.6012 0.5465
C60 C 0.7037(8) 0.6193(9) 0.5398(3)
C61 C 0.5548(9) 0.4288(9) 0.5458(4)
C62 C 0.6493(4) 0.4528(4) 0.55967(19)
C63 C 0.7049(10) 0.5604(10) 0.5700(5)
H46 H 0.5159 0.4278 0.5661
H47 H 0.5246 0.3652 0.5355
H48 H 0.7340 0.6852 0.5477
H49 H 0.7411 0.6160 0.5198
H50 H 0.6762 0.5709 0.5915
H51 H 0.7703 0.5790 0.5759
H52 H 0.6840 0.4398 0.5411
H53 H 0.6426 0.4143 0.5809
H54 H 0.1441 0.4360 0.0362
C64 C 0.2809(8) 0.4022(7) 0.0444(3)
N6 N 0.3488(8) 0.3841(8) 0.0523(3)
H55 H 0.2763 0.4198 0.0207
C65 C 0.4070(8) 0.3916(9) 0.0227(3)
H56 H 0.3996 0.4280 0.0030
C66 C 0.3769(10) 0.2949(9) 0.0104(3)
C67 C 0.4454(9) 0.2970(10) -0.0188(5)
C68 C 0.5736(9) 0.4481(9) 0.0030(4)
C69 C 0.5096(8) 0.4420(7) 0.0359(3)
C70 C 0.5443(4) 0.3479(4) -0.00775(19)
H57 H 0.4279 0.2320 -0.0249
H58 H 0.4382 0.3266 -0.0406
H59 H 0.5840 0.3487 -0.0277
H60 H 0.5534 0.3153 0.0127
H61 H 0.5645 0.4814 -0.0173
H62 H 0.6403 0.4823 0.0099
H63 H 0.5197 0.4134 0.0578
N7 N 0.5248(8) 0.5373(8) 0.0418(3)
C71 C 0.5600(11) 0.5709(10) 0.0743(4)
H64 H 0.5684 0.5322 0.0908
H65 H 0.3129 0.2660 0.0005
H66 H 0.3759 0.2566 0.0309
H67 H 0.5741 0.7199 0.5275
N8 N 0.6198(6) 0.6574(6) 0.4971(3)
C72 C 0.5960(9) 0.7186(9) 0.5042(3)
C35A C 0.6334(7) 0.7801(9) 0.13085(14)
C36A C 0.6111(7) 0.6912(9) 0.11967(15)
H34A H 0.6134 0.6486 0.1361
C37A C 0.5852(7) 0.6643(9) 0.08440(17)
C38A C 0.5817(7) 0.7265(9) 0.06030(14)
C39A C 0.6040(6) 0.8154(8) 0.07149(17)
C40A C 0.6299(7) 0.8423(9) 0.10676(19)
H35A H 0.6452 0.9031 0.1144
C41A C 0.6449(13) 0.7931(16) 0.1680(3)
C42A C 0.6530(17) 0.8138(23) 0.2001(4)
C43A C 0.6602(11) 0.8382(13) 0.31135(16)
C44A C 0.6620(9) 0.7626(11) 0.29598(19)
H36A H 0.6621 0.7159 0.3107
C45A C 0.6637(9) 0.7554(11) 0.2590(2)
H37A H 0.6649 0.7037 0.2485
C46A C 0.6635(9) 0.8237(11) 0.23742(16)
C47A C 0.6617(9) 0.8993(11) 0.2528(2)
H38A H 0.6616 0.9460 0.2380
C48A C 0.6601(10) 0.9066(12) 0.2897(2)
H39A H 0.6589 0.9584 0.3003
C49A C 0.649(2) 0.8374(24) 0.3484(3)
C50A C 0.6439(12) 0.8506(16) 0.3814(3)
C51A C 0.6303(8) 0.8496(10) 0.41866(13)
C52A C 0.6265(7) 0.7839(9) 0.44285(17)
H40A H 0.6412 0.7379 0.4353
C53A C 0.6013(7) 0.7857(9) 0.47815(15)
C54A C 0.5798(7) 0.8530(9) 0.48926(13)
H41A H 0.5625 0.8541 0.5134
C55A C 0.5835(7) 0.9185(8) 0.46507(18)
C56A C 0.6088(8) 0.9168(9) 0.42976(16)
H42A H 0.6114 0.9617 0.4132
N5A N 0.5276(9) 0.9872(13) 0.5077(3)
C57A C 0.5563(14) 0.9898(18) 0.4777(4)
H43A H 0.5620 1.0369 0.4617
C58A C 0.5018(8) 1.0589(11) 0.5169(3)
H44A H 0.5106 1.0969 0.4949
C59A C 0.4090(8) 1.0179(11) 0.5265(3)
H45A H 0.3988 0.9736 0.5465
C60A C 0.3807(9) 1.0844(12) 0.5398(3)
C61A C 0.5712(9) 1.1260(13) 0.5458(4)
C62A C 0.5472(4) 1.1965(6) 0.55967(19)
C63A C 0.4396(10) 1.1445(14) 0.5700(5)
H46A H 0.5722 1.0881 0.5661
H47A H 0.6348 1.1594 0.5355
H48A H 0.3148 1.0488 0.5477
H49A H 0.3840 1.1251 0.5198
H50A H 0.4291 1.1053 0.5915
H51A H 0.4210 1.1913 0.5759
H52A H 0.5602 1.2442 0.5411
H53A H 0.5857 1.2283 0.5809
H54A H 0.5640 0.7081 0.0362
C64A C 0.5978(7) 0.8787(11) 0.0444(3)
N6A N 0.6159(8) 0.9647(11) 0.0523(3)
H55A H 0.5802 0.8565 0.0207
C65A C 0.6084(9) 1.0154(12) 0.0227(3)
H56A H 0.5720 0.9716 0.0030
C66A C 0.7051(9) 1.0820(13) 0.0104(3)
C67A C 0.7030(10) 1.1484(13) -0.0188(5)
C68A C 0.5519(9) 1.1255(13) 0.0030(4)
C69A C 0.5580(7) 1.0676(11) 0.0359(3)
C70A C 0.6521(4) 1.1964(6) -0.00775(19)
H57A H 0.7680 1.1959 -0.0249
H58A H 0.6734 1.1116 -0.0406
H59A H 0.6513 1.2353 -0.0277
H60A H 0.6847 1.2381 0.0127
H61A H 0.5186 1.0831 -0.0173
H62A H 0.5177 1.1580 0.0099
H63A H 0.5866 1.1063 0.0578
N7A N 0.4627(8) 0.9875(11) 0.0418(3)
C71A C 0.4291(10) 0.9891(15) 0.0743(4)
H64A H 0.4678 1.0362 0.0908
H65A H 0.7340 1.0469 0.0005
H66A H 0.7434 1.1193 0.0309
H67A H 0.2801 0.8542 0.5275
N8A N 0.3426(6) 0.9624(8) 0.4971(3)
C72A C 0.2814(9) 0.8774(13) 0.5042(3)
C35B C 0.2199(9) 0.8533(6) 0.13085(14)
C36B C 0.3088(9) 0.9199(5) 0.11967(15)
H34B H 0.3514 0.9648 0.1361
C37B C 0.3357(9) 0.9209(5) 0.08440(17)
C38B C 0.2735(9) 0.8552(6) 0.06030(14)
C39B C 0.1846(8) 0.7886(5) 0.07149(17)
C40B C 0.1577(9) 0.7876(5) 0.10676(19)
H35B H 0.0969 0.7421 0.1144
C41B C 0.2069(16) 0.8518(9) 0.1680(3)
C42B C 0.1862(23) 0.8392(15) 0.2001(4)
C43B C 0.1618(13) 0.8220(7) 0.31135(16)
C44B C 0.2374(11) 0.8994(6) 0.29598(19)
H36B H 0.2841 0.9462 0.3107
C45B C 0.2446(11) 0.9083(7) 0.2590(2)
H37B H 0.2963 0.9612 0.2485
C46B C 0.1763(11) 0.8398(7) 0.23742(16)
C47B C 0.1007(11) 0.7624(7) 0.2528(2)
H38B H 0.0540 0.7156 0.2380
C48B C 0.0934(12) 0.7535(7) 0.2897(2)
H39B H 0.0416 0.7005 0.3003
C49B C 0.1626(24) 0.8116(13) 0.3484(3)
C50B C 0.1494(16) 0.7933(11) 0.3814(3)
C51B C 0.1504(10) 0.7807(6) 0.41866(13)
C52B C 0.2161(9) 0.8426(5) 0.44285(17)
H40B H 0.2621 0.9033 0.4353
C53B C 0.2143(9) 0.8156(5) 0.47815(15)
C54B C 0.1470(9) 0.7268(5) 0.48926(13)
H41B H 0.1459 0.7084 0.5134
C55B C 0.0815(8) 0.6650(4) 0.46507(18)
C56B C 0.0832(9) 0.6920(5) 0.42976(16)
H42B H 0.0383 0.6497 0.4132
N5B N 0.0128(13) 0.5404(9) 0.5077(3)
C57B C 0.0102(18) 0.5665(11) 0.4777(4)
H43B H -0.0369 0.5251 0.4617
C58B C -0.0589(11) 0.4429(8) 0.5169(3)
H44B H -0.0969 0.4137 0.4949
C59B C -0.0179(11) 0.3911(8) 0.5265(3)
H45B H 0.0264 0.4252 0.5465
C60B C -0.0844(12) 0.2963(8) 0.5398(3)
C61B C -0.1260(13) 0.4452(9) 0.5458(4)
C62B C -0.1965(6) 0.3507(4) 0.55967(19)
C63B C -0.1445(14) 0.2951(10) 0.5700(5)
H46B H -0.0881 0.4841 0.5661
H47B H -0.1594 0.4754 0.5355
H48B H -0.0488 0.2660 0.5477
H49B H -0.1251 0.2589 0.5198
H50B H -0.1053 0.3238 0.5915
H51B H -0.1913 0.2297 0.5759
H52B H -0.2442 0.3160 0.5411
H53B H -0.2283 0.3574 0.5809
H54B H 0.2919 0.8559 0.0362
C64B C 0.1213(11) 0.7191(8) 0.0444(3)
N6B N 0.0353(11) 0.6512(8) 0.0523(3)
H55B H 0.1435 0.7237 0.0207
C65B C -0.0154(12) 0.5930(8) 0.0227(3)
H56B H 0.0284 0.6004 0.0030
C66B C -0.0820(13) 0.6231(10) 0.0104(3)
C67B C -0.1484(13) 0.5546(9) -0.0188(5)
C68B C -0.1255(13) 0.4264(9) 0.0030(4)
C69B C -0.0676(11) 0.4904(8) 0.0359(3)
C70B C -0.1964(6) 0.4557(4) -0.00775(19)
H57B H -0.1959 0.5721 -0.0249
H58B H -0.1116 0.5618 -0.0406
H59B H -0.2353 0.4160 -0.0277
H60B H -0.2381 0.4466 0.0127
H61B H -0.0831 0.4355 -0.0173
H62B H -0.1580 0.3597 0.0099
H63B H -0.1063 0.4803 0.0578
N7B N 0.0125(11) 0.4752(8) 0.0418(3)
C71B C 0.0109(15) 0.4400(11) 0.0743(4)
H64B H -0.0362 0.4316 0.0908
H65B H -0.0469 0.6871 0.0005
H66B H -0.1193 0.6241 0.0309
H67B H 0.1458 0.4259 0.5275
N8B N 0.0376(8) 0.3802(6) 0.4971(3)
C72B C 0.1226(13) 0.4040(9) 0.5042(3)
N1 N 0.6605(5) 0.7936(6) 0.6081(2)
C1 C 0.3789(9) 0.4590(8) 0.6106(3)
H1 H 0.3800 0.4844 0.5877
N2 N 0.6308(7) 0.9473(7) 0.6179(3)
C2 C 0.4472(9) 0.5194(9) 0.6393(3)
N3 N 0.6277(6) 0.6825(6) 0.9316(2)
C3 C 0.5201(8) 0.6038(8) 0.6270(3)
H2 H 0.5270 0.6169 0.6021
N4 N 0.6583(6) 0.8682(7) 0.9417(3)
C4 C 0.5848(8) 0.6710(8) 0.6516(3)
C5 C 0.5790(8) 0.6456(9) 0.6882(3)
H3 H 0.6247 0.6863 0.7048
C6 C 0.5041(10) 0.5585(10) 0.6994(3)
C7 C 0.4392(10) 0.4990(10) 0.6738(3)
H4 H 0.3874 0.4418 0.6816
C8 C 0.6590(8) 0.7646(8) 0.6413(3)
H5 H 0.7051 0.8039 0.6581
C9 C 0.4525(7) 0.5044(11) 0.81134(18)
C10 C 0.5431(7) 0.5455(12) 0.7982(2)
H6 H 0.5938 0.5611 0.8140
C11 C 0.5596(6) 0.5638(12) 0.7618(2)
H7 H 0.6216 0.5919 0.7528
C12 C 0.4855(7) 0.5409(11) 0.73867(19)
C13 C 0.3949(6) 0.4998(12) 0.7519(2)
H8 H 0.3442 0.4842 0.7360
C14 C 0.3784(6) 0.4815(12) 0.7882(2)
H9 H 0.3164 0.4534 0.7972
C15 C 0.4472(9) 0.4988(9) 0.8517(3)
C16 C 0.5035(9) 0.5597(9) 0.8749(3)
H10 H 0.5601 0.6110 0.8665
C17 C 0.4852(10) 0.5536(8) 0.9115(3)
C18 C 0.3956(8) 0.4838(8) 0.9233(3)
H11 H 0.3795 0.4819 0.9477
C19 C 0.3282(8) 0.4158(8) 0.8990(3)
C20 C 0.3556(9) 0.4282(10) 0.8633(3)
H12 H 0.3120 0.3885 0.8459
C21 C 0.5405(9) 0.6200(8) 0.9386(3)
H13 H 0.5142 0.6188 0.9613
C22 C 0.2341(9) 0.3474(9) 0.9110(3)
H14 H 0.1905 0.3060 0.8939
C23 C 0.7312(7) 0.8855(7) 0.6009(3)
H15 H 0.7683 0.9147 0.6230
C24 C 0.7960(8) 0.8885(8) 0.5709(4)
H16 H 0.8270 0.8530 0.5780
H17 H 0.7596 0.8602 0.5489
C25 C 0.8573(17) 0.9746(17) 0.5654(7)
H18 H 0.9065 0.9772 0.5495
H19 H 0.8871 1.0037 0.5884
C26 C 0.8137(11) 1.0372(10) 0.5469(6)
H20 H 0.8639 1.0998 0.5394
H21 H 0.7733 1.0045 0.5261
C27 C 0.7578(9) 1.0432(8) 0.5778(4)
H22 H 0.7275 1.0793 0.5706
H23 H 0.7995 1.0751 0.5983
C28 C 0.6798(8) 0.9386(8) 0.5889(3)
H24 H 0.6368 0.9059 0.5685
C29 C 0.6821(8) 0.7423(8) 0.9609(3)
H25 H 0.6377 0.7299 0.9811
C30 C 0.7239(7) 0.8387(8) 0.9526(3)
H26 H 0.7614 0.8464 0.9306
C31 C 0.7534(10) 0.7156(10) 0.9740(4)
H27 H 0.7945 0.7205 0.9539
C32 C 0.7962(9) 0.9049(9) 0.9799(4)
H28 H 0.8238 0.9698 0.9710
C33 C 0.8653(16) 0.8870(16) 0.9865(7)
H29 H 0.9118 0.9346 1.0029
C34 C 0.8154(10) 0.7798(10) 1.0056(5)
H30 H 0.8629 0.7635 1.0131
H31 H 0.8971 0.8876 0.9640
H32 H 0.7637 0.9009 1.0026
H33 H 0.7767 0.7756 1.0265
N1A N 0.2064(6) 0.8669(8) 0.6081(2)
C1A C 0.5410(8) 0.9199(12) 0.6106(3)
H1A H 0.5156 0.8956 0.5877
N2A N 0.0527(7) 0.6835(10) 0.6179(3)
C2A C 0.4806(9) 0.9278(13) 0.6393(3)
N3A N 0.3175(6) 0.9452(8) 0.9316(2)
C3A C 0.3962(8) 0.9163(11) 0.6270(3)
H2A H 0.3831 0.9101 0.6021
N4A N 0.1318(7) 0.7901(9) 0.9417(3)
C4A C 0.3290(8) 0.9138(11) 0.6516(3)
C5A C 0.3544(9) 0.9334(12) 0.6882(3)
H3A H 0.3137 0.9384 0.7048
C6A C 0.4415(10) 0.9456(14) 0.6994(3)
C7A C 0.5010(10) 0.9402(14) 0.6738(3)
H4A H 0.5582 0.9456 0.6816
C8A C 0.2354(8) 0.8944(11) 0.6413(3)
H5A H 0.1961 0.9012 0.6581
C9A C 0.4956(11) 0.9481(13) 0.81134(18)
C10A C 0.4545(12) 0.9976(14) 0.7982(2)
H6A H 0.4389 1.0327 0.8140
C11A C 0.4362(12) 0.9958(13) 0.7618(2)
H7A H 0.4081 1.0297 0.7528
C12A C 0.4591(11) 0.9446(13) 0.73867(19)
C13A C 0.5002(12) 0.8951(13) 0.7519(2)
H8A H 0.5158 0.8600 0.7360
C14A C 0.5185(12) 0.8969(13) 0.7882(2)
H9A H 0.5466 0.8630 0.7972
C15A C 0.5012(9) 0.9484(13) 0.8517(3)
C16A C 0.4403(9) 0.9438(13) 0.8749(3)
H10A H 0.3890 0.9491 0.8665
C17A C 0.4464(8) 0.9316(13) 0.9115(3)
C18A C 0.5162(8) 0.9118(11) 0.9233(3)
H11A H 0.5181 0.8976 0.9477
C19A C 0.5842(8) 0.9124(11) 0.8990(3)
C20A C 0.5718(10) 0.9274(13) 0.8633(3)
H12A H 0.6115 0.9235 0.8459
C21A C 0.3800(8) 0.9205(12) 0.9386(3)
H13A H 0.3812 0.8954 0.9613
C22A C 0.6526(9) 0.8867(13) 0.9110(3)
H14A H 0.6940 0.8845 0.8939
C23A C 0.1145(7) 0.8457(10) 0.6009(3)
H15A H 0.0853 0.8536 0.6230
C24A C 0.1115(8) 0.9075(11) 0.5709(4)
H16A H 0.1470 0.9740 0.5780
H17A H 0.1398 0.8994 0.5489
C25A C 0.0254(17) 0.8827(24) 0.5654(7)
H18A H 0.0228 0.9293 0.5495
H19A H -0.0037 0.8834 0.5884
C26A C -0.0372(10) 0.7765(15) 0.5469(6)
H20A H -0.0998 0.7641 0.5394
H21A H -0.0045 0.7688 0.5261
C27A C -0.0432(8) 0.7146(12) 0.5778(4)
H22A H -0.0793 0.6482 0.5706
H23A H -0.0751 0.7244 0.5983
C28A C 0.0614(8) 0.7412(11) 0.5889(3)
H24A H 0.0941 0.7309 0.5685
C29A C 0.2577(8) 0.9398(11) 0.9609(3)
H25A H 0.2701 0.9078 0.9811
C30A C 0.1613(8) 0.8852(11) 0.9526(3)
H26A H 0.1536 0.9150 0.9306
C31A C 0.2844(10) 1.0378(14) 0.9740(4)
H27A H 0.2795 1.0740 0.9539
C32A C 0.0951(9) 0.8913(13) 0.9799(4)
H28A H 0.0302 0.8540 0.9710
C33A C 0.1130(16) 0.9783(23) 0.9865(7)
H29A H 0.0654 0.9772 1.0029
C34A C 0.2202(10) 1.0356(14) 1.0056(5)
H30A H 0.2365 1.0994 1.0131
H31A H 0.1124 1.0095 0.9640
H32A H 0.0991 0.8628 1.0026
H33A H 0.2244 1.0011 1.0265
N1B N 0.1331(8) 0.3395(5) 0.6081(2)
C1B C 0.0801(12) 0.6211(9) 0.6106(3)
H1B H 0.1044 0.6200 0.5877
N2B N 0.3165(10) 0.3692(7) 0.6179(3)
C2B C 0.0722(13) 0.5528(9) 0.6393(3)
N3B N 0.0548(8) 0.3723(6) 0.9316(2)
C3B C 0.0837(11) 0.4799(8) 0.6270(3)
H2B H 0.0899 0.4730 0.6021
N4B N 0.2099(9) 0.3417(6) 0.9417(3)
C4B C 0.0862(11) 0.4152(8) 0.6516(3)
C5B C 0.0666(12) 0.4210(8) 0.6882(3)
H3B H 0.0616 0.3753 0.7048
C6B C 0.0544(14) 0.4959(10) 0.6994(3)
C7B C 0.0598(14) 0.5608(10) 0.6738(3)
H4B H 0.0544 0.6126 0.6816
C8B C 0.1056(11) 0.3410(8) 0.6413(3)
H5B H 0.0988 0.2949 0.6581
C9B C 0.0519(13) 0.5475(7) 0.81134(18)
C10B C 0.0024(14) 0.4569(7) 0.7982(2)
H6B H -0.0327 0.4062 0.8140
C11B C 0.0042(13) 0.4404(6) 0.7618(2)
H7B H -0.0297 0.3784 0.7528
C12B C 0.0554(13) 0.5145(7) 0.73867(19)
C13B C 0.1049(13) 0.6051(6) 0.7519(2)
H8B H 0.1400 0.6558 0.7360
C14B C 0.1031(13) 0.6216(6) 0.7882(2)
H9B H 0.1370 0.6836 0.7972
C15B C 0.0516(13) 0.5528(9) 0.8517(3)
C16B C 0.0562(13) 0.4965(9) 0.8749(3)
H10B H 0.0509 0.4399 0.8665
C17B C 0.0684(13) 0.5148(10) 0.9115(3)
C18B C 0.0882(11) 0.6044(8) 0.9233(3)
H11B H 0.1024 0.6205 0.9477
C19B C 0.0876(11) 0.6718(8) 0.8990(3)
C20B C 0.0726(13) 0.6444(9) 0.8633(3)
H12B H 0.0765 0.6880 0.8459
C21B C 0.0795(12) 0.4595(9) 0.9386(3)
H13B H 0.1046 0.4858 0.9613
C22B C 0.1133(13) 0.7659(9) 0.9110(3)
H14B H 0.1155 0.8095 0.8939
C23B C 0.1543(10) 0.2688(7) 0.6009(3)
H15B H 0.1464 0.2317 0.6230
C24B C 0.0925(11) 0.2040(8) 0.5709(4)
H16B H 0.0260 0.1730 0.5780
H17B H 0.1006 0.2404 0.5489
C25B C 0.1173(24) 0.1427(17) 0.5654(7)
H18B H 0.0707 0.0935 0.5495
H19B H 0.1166 0.1129 0.5884
C26B C 0.2235(15) 0.1863(11) 0.5469(6)
H20B H 0.2359 0.1361 0.5394
H21B H 0.2312 0.2267 0.5261
C27B C 0.2854(12) 0.2422(9) 0.5778(4)
H22B H 0.3518 0.2725 0.5706
H23B H 0.2756 0.2005 0.5983
C28B C 0.2588(11) 0.3202(8) 0.5889(3)
H24B H 0.2691 0.3632 0.5685
C29B C 0.0602(11) 0.3179(8) 0.9609(3)
H25B H 0.0922 0.3623 0.9811
C30B C 0.1148(11) 0.2761(7) 0.9526(3)
H26B H 0.0850 0.2386 0.9306
C31B C -0.0378(14) 0.2466(10) 0.9740(4)
H27B H -0.0740 0.2055 0.9539
C32B C 0.1087(13) 0.2038(9) 0.9799(4)
H28B H 0.1460 0.1762 0.9710
C33B C 0.0217(23) 0.1347(16) 0.9865(7)
H29B H 0.0228 0.0882 1.0029
C34B C -0.0356(14) 0.1846(10) 1.0056(5)
H30B H -0.0994 0.1371 1.0131
H31B H -0.0095 0.1029 0.9640
H32B H 0.1372 0.2363 1.0026
H33B H -0.0011 0.2233 1.0265
N9? N 0.4636(7) 0.4725(7) 0.6073(2)
C73? C 0.1190(9) 0.4057(9) 0.6117(3)
H68? H 0.1434 0.4255 0.5883
N10? N 0.6139(6) 0.6499(6) 0.6174(2)
C74? C 0.1814(10) 0.3999(11) 0.6389(3)
N11? N 0.3465(6) 0.3849(7) 0.9305(2)
C75? C 0.2727(8) 0.4221(8) 0.6269(3)
H69? H 0.2897 0.4370 0.6025
N12? N 0.5346(7) 0.5399(6) 0.9420(2)
C76? C 0.3371(8) 0.4216(9) 0.6515(3)
C77? C 0.3163(9) 0.4063(9) 0.6867(3)
H70? H 0.3601 0.4057 0.7031
C78? C 0.2265(11) 0.3906(15) 0.6993(3)
C79? C 0.1598(9) 0.3839(10) 0.6726(3)
H71? H 0.0985 0.3674 0.6800
C80? C 0.4264(8) 0.4386(10) 0.6405(3)
H72? H 0.4624 0.4258 0.6569
C81? C 0.1731(7) 0.3719(14) 0.81231(18)
C82? C 0.2636(7) 0.4094(14) 0.7993(2)
H73? H 0.3150 0.4354 0.8154
C83? C 0.2789(7) 0.4089(14) 0.7628(2)
H74? H 0.3408 0.4345 0.7539
C84? C 0.2037(8) 0.3709(14) 0.73931(19)
C85? C 0.1132(7) 0.3334(14) 0.7523(2)
H75? H 0.0618 0.3074 0.7362
C86? C 0.0979(6) 0.3339(14) 0.7888(2)
H76? H 0.0360 0.3083 0.7977
C87? C 0.1629(6) 0.3834(10) 0.8508(3)
C88? C 0.0927(11) 0.3999(13) 0.8618(3)
H77? H 0.0512 0.4007 0.8444
C89? C 0.0799(9) 0.4159(11) 0.8984(3)
C90? C 0.1491(8) 0.4171(10) 0.9237(3)
H78? H 0.1440 0.4275 0.9484
C91? C 0.2160(9) 0.4045(11) 0.9132(3)
C92? C 0.2289(10) 0.3893(12) 0.8768(3)
H79? H 0.2808 0.3833 0.8698
C93? C 0.2897(8) 0.4112(8) 0.9389(3)
H80? H 0.2933 0.4362 0.9620
C94? C 0.0109(8) 0.4416(9) 0.9095(3)
H81? H -0.0315 0.4409 0.8922
C95? C 0.5554(7) 0.4933(7) 0.6001(3)
H82? H 0.5831 0.4828 0.6222
C96? C 0.5528(8) 0.4262(8) 0.5693(3)
H83? H 0.5189 0.3605 0.5777
H84? H 0.5197 0.4316 0.5482
H85? H 0.6487 0.4106 0.5408
H86? H 0.6819 0.4468 0.5808
C97? C 0.7034(10) 0.5585(10) 0.5456(5)
H87? H 0.7685 0.5771 0.5393
H88? H 0.6721 0.5648 0.5241
C98? C 0.7022(8) 0.6176(8) 0.5742(4)
H89? H 0.7316 0.6823 0.5650
H90? H 0.7425 0.6174 0.5937
C99? C 0.6077(8) 0.5935(8) 0.5905(3)
H91? H 0.5712 0.6024 0.5711
C100? C 0.4086(8) 0.3939(9) 0.9621(3)
H92? H 0.3982 0.4277 0.9821
C101? C 0.3776(9) 0.2946(8) 0.9731(3)
H93? H 0.3846 0.2597 0.9530
H94? H 0.3112 0.2621 0.9805
C102? C 0.4452(11) 0.3008(9) 1.0071(4)
H95? H 0.4407 0.3381 1.0269
H96? H 0.4266 0.2376 1.0162
C103? C 0.5747(10) 0.4464(10) 0.9802(4)
H97? H 0.6398 0.4762 0.9714
H98? H 0.5732 0.4830 1.0008
C104? C 0.5110(7) 0.4481(7) 0.9501(3)
H99? H 0.5188 0.4180 0.9283
C105? C 0.1120(8) 0.2062(8) 0.0038(4)
H100? H 0.1415 0.2431 -0.0180
H101? H 0.1474 0.1756 0.0116
C106? C 0.0126(15) 0.1357(15) -0.0029(6)
H102? H -0.0185 0.1062 0.0199
H103? H 0.0088 0.0863 -0.0189
C107? C -0.0393(10) 0.1865(11) -0.0212(6)
H104? H -0.0041 0.2252 -0.0419
H105? H -0.1040 0.1409 -0.0285
C108? C -0.0371(9) 0.2454(10) 0.0101(4)
H106? H -0.0705 0.2788 0.0030
H107? H -0.0723 0.2032 0.0301
H108? H 0.5875 0.3495 0.0109
H109? H 0.5468 0.3113 -0.0282
N13? N 0.6280(7) 0.9506(7) 0.4963(3)
C109? C 0.7321(7) 0.8895(8) 0.5164(3)
H110? H 0.7710 0.9199 0.4947
C110? C 0.6832(7) 0.9424(8) 0.5282(3)
H111? H 0.6400 0.9093 0.5485
N14? N 0.6550(7) 0.8629(10) 1.0432(3)
N15? N 0.6291(7) 0.6783(10) 1.0519(3)
N16? N 0.2092(8) 0.8651(11) 1.5073(2)
C111? C 0.5222(6) 0.9670(8) 1.13171(14)
C112? C 0.5868(5) 0.9429(7) 1.11961(15)
H112? H 0.6324 0.9445 1.1355
C113? C 0.5848(5) 0.9164(6) 1.08422(17)
C114? C 0.5181(6) 0.9140(8) 1.06094(13)
H113? H 0.5167 0.8958 1.0368
C115? C 0.4535(5) 0.9381(7) 1.07304(16)
C116? C 0.4555(6) 0.9646(8) 1.10842(18)
H114? H 0.4114 0.9812 1.1167
C117? C 0.5136(8) 0.9773(13) 1.1693(3)
C118? C 0.5096(13) 0.9861(18) 1.1985(4)
C119? C 0.4929(7) 1.0005(10) 1.31149(16)
C120? C 0.5682(6) 0.9984(9) 1.2960(2)
H115? H 0.6150 0.9982 1.3107
C121? C 0.5751(7) 0.9967(10) 1.2590(2)
H116? H 0.6266 0.9952 1.2484
C122? C 0.5068(7) 0.9972(10) 1.23754(16)
C123? C 0.4314(6) 0.9992(8) 1.25304(19)
H117? H 0.3847 0.9995 1.2384
C124? C 0.4245(6) 1.0009(8) 1.29002(19)
H118? H 0.3730 1.0024 1.3006
C125? C 0.4807(10) 0.9878(16) 1.3505(3)
C126? C 0.4648(11) 0.9764(14) 1.3820(3)
C127? C 0.4453(6) 0.9620(8) 1.41802(13)
C128? C 0.5079(5) 0.9595(8) 1.44216(17)
H119? H 0.5682 0.9734 1.4344
C129? C 0.4822(5) 0.9365(7) 1.47771(16)
C130? C 0.3940(5) 0.9162(8) 1.48911(14)
H120? H 0.3765 0.9006 1.5134
C131? C 0.3314(5) 0.9188(8) 1.46497(18)
C132? C 0.3571(5) 0.9417(7) 1.42942(16)
H121? H 0.3143 0.9434 1.4129
C133? C 0.6635(10) 0.8937(14) 1.0740(4)
H122? H 0.7123 0.9025 1.0897
C134? C 0.7296(7) 0.8392(10) 1.0343(3)
H123? H 0.7684 0.8482 1.0561
C135? C 0.6852(7) 0.7415(11) 1.0232(3)
H124? H 0.6421 0.7327 1.0029
C136? C 0.5452(9) 0.6111(13) 1.0460(3)
H125? H 0.5215 0.6034 1.0224
C137? C 0.2269(9) 0.8868(13) 1.4758(3)
H126? H 0.1820 0.8845 1.4594
C138? C 0.5429(8) 0.9306(12) 1.5048(3)
H127? H 0.5208 0.9123 1.5285
H128? H 0.7200 0.6498 0.9821
C139? C 0.7513(8) 1.0409(8) 0.5383(3)
H129? H 0.7178 1.0739 0.5455
H130? H 0.7924 1.0745 0.5178
C140? C 0.8663(11) 0.9902(12) 0.5562(5)
H131? H 0.9120 0.9908 0.5734
H132? H 0.9006 1.0250 0.5346
C141? C 0.8151(11) 1.0364(11) 0.5728(5)
H133? H 0.7744 0.9984 0.5927
C142? C 0.7932(8) 0.8872(9) 0.5460(5)
H134? H 0.8257 0.8539 0.5378
H135? H 0.7546 0.8540 0.5670
H136? H 0.8597 1.0998 0.5817
loop_
_geom_bond_atom_site_label_1
_geom_bond_atom_site_label_2
_geom_bond_site_symmetry_1
_geom_bond_site_symmetry_2
N1 C8 1_555 1_555
C1 H1 1_555 1_555
N2 C28 1_555 1_555
C2 C1 1_555 1_555
N3 C21 1_555 1_555
C3 C2 1_555 1_555
H2 C3 1_555 1_555
N4 C30 1_555 1_555
C4 C3 1_555 1_555
C5 C4 1_555 1_555
H3 C5 1_555 1_555
C6 C5 1_555 1_555
C7 C2 1_555 1_555
H4 C7 1_555 1_555
C8 C4 1_555 1_555
H5 C8 1_555 1_555
C9 C10 1_555 1_555
C10 H6 1_555 1_555
C11 C10 1_555 1_555
H7 C11 1_555 1_555
C12 C6 1_555 1_555
C13 C12 1_555 1_555
H8 C13 1_555 1_555
C14 C9 1_555 1_555
H9 C14 1_555 1_555
C15 C9 1_555 1_555
C16 C15 1_555 1_555
H10 C16 1_555 1_555
C17 C16 1_555 1_555
C18 C17 1_555 1_555
H11 C18 1_555 1_555
C19 C18 1_555 1_555
C20 C15 1_555 1_555
H12 C20 1_555 1_555
C21 C17 1_555 1_555
H13 C21 1_555 1_555
C22 C19 1_555 1_555
H14 C22 1_555 1_555
C23 N1 1_555 1_555
H15 C23 1_555 1_555
C24 C23 1_555 1_555
H16 C24 1_555 1_555
H17 C24 1_555 1_555
C25 C24 1_555 1_555
H18 C25 1_555 1_555
H19 C25 1_555 1_555
C26 C25 1_555 1_555
H20 C26 1_555 1_555
H21 C26 1_555 1_555
C27 C26 1_555 1_555
H22 C27 1_555 1_555
H23 C27 1_555 1_555
C28 C23 1_555 1_555
H24 C28 1_555 1_555
C29 N3 1_555 1_555
H25 C29 1_555 1_555
C30 C29 1_555 1_555
H26 C30 1_555 1_555
C31 C29 1_555 1_555
H27 C31 1_555 1_555
C32 C30 1_555 1_555
H28 C32 1_555 1_555
C33 C32 1_555 1_555
H29 C33 1_555 1_555
C34 C31 1_555 1_555
H30 C34 1_555 1_555
H31 C33 1_555 1_555
H32 C32 1_555 1_555
H33 C34 1_555 1_555
C35 C36 1_555 1_555
C36 H34 1_555 1_555
C37 C36 1_555 1_555
C38 C37 1_555 1_555
C39 C38 1_555 1_555
C40 C35 1_555 1_555
H35 C40 1_555 1_555
C41 C35 1_555 1_555
C42 C41 1_555 1_555
C43 C44 1_555 1_555
C44 H36 1_555 1_555
C45 C44 1_555 1_555
H37 C45 1_555 1_555
C46 C42 1_555 1_555
C47 C46 1_555 1_555
H38 C47 1_555 1_555
C48 C43 1_555 1_555
H39 C48 1_555 1_555
C49 C43 1_555 1_555
C50 C49 1_555 1_555
C51 C50 1_555 1_555
C52 C51 1_555 1_555
H40 C52 1_555 1_555
C53 C52 1_555 1_555
C54 C53 1_555 1_555
H41 C54 1_555 1_555
C55 C54 1_555 1_555
C56 C51 1_555 1_555
H42 C56 1_555 1_555
N5 C57 1_555 1_555
C57 C55 1_555 1_555
H43 C57 1_555 1_555
C58 N5 1_555 1_555
H44 C58 1_555 1_555
C59 C58 1_555 1_555
H45 C59 1_555 1_555
C60 C59 1_555 1_555
C61 C58 1_555 1_555
C62 C61 1_555 1_555
C63 C60 1_555 1_555
H46 C61 1_555 1_555
H47 C61 1_555 1_555
H48 C60 1_555 1_555
H49 C60 1_555 1_555
H50 C63 1_555 1_555
H51 C63 1_555 1_555
H52 C62 1_555 1_555
H53 C62 1_555 1_555
H54 C38 1_555 1_555
C64 C39 1_555 1_555
N6 C64 1_555 1_555
H55 C64 1_555 1_555
C65 N6 1_555 1_555
H56 C65 1_555 1_555
C66 C65 1_555 1_555
C67 C66 1_555 1_555
C68 C69 1_555 1_555
C69 C65 1_555 1_555
C70 C67 1_555 1_555
H57 C67 1_555 1_555
H58 C67 1_555 1_555
H59 C70 1_555 1_555
H60 C70 1_555 1_555
H61 C68 1_555 1_555
H62 C68 1_555 1_555
H63 C69 1_555 1_555
N7 C69 1_555 1_555
C71 N7 1_555 1_555
H64 C71 1_555 1_555
H65 C66 1_555 1_555
H66 C66 1_555 1_555
H67 C72 1_555 1_555
N8 C59 1_555 1_555
C72 N8 1_555 1_555
N1A C8A 1_555 1_555
C1A N2 1_555 1_555
H1A C1A 1_555 1_555
N2A C28A 1_555 1_555
C2A C1A 1_555 1_555
N3A C21A 1_555 1_555
C3A C2A 1_555 1_555
H2A C3A 1_555 1_555
N4A C30A 1_555 1_555
C4A C3A 1_555 1_555
C5A C4A 1_555 1_555
H3A C5A 1_555 1_555
C6A C5A 1_555 1_555
C7A C2A 1_555 1_555
H4A C7A 1_555 1_555
C8A C4A 1_555 1_555
H5A C8A 1_555 1_555
C9A C10A 1_555 1_555
C10A H6A 1_555 1_555
C11A C10A 1_555 1_555
H7A C11A 1_555 1_555
C12A C6A 1_555 1_555
C13A C12A 1_555 1_555
H8A C13A 1_555 1_555
C14A C9A 1_555 1_555
H9A C14A 1_555 1_555
C15A C9A 1_555 1_555
C16A C15A 1_555 1_555
H10A C16A 1_555 1_555
C17A C16A 1_555 1_555
C18A C17A 1_555 1_555
H11A C18A 1_555 1_555
C19A C18A 1_555 1_555
C20A C15A 1_555 1_555
H12A C20A 1_555 1_555
C21A C17A 1_555 1_555
H13A C21A 1_555 1_555
C22A N4 1_555 1_555
H14A C22A 1_555 1_555
C23A N1A 1_555 1_555
H15A C23A 1_555 1_555
C24A C23A 1_555 1_555
H16A C24A 1_555 1_555
H17A C24A 1_555 1_555
C25A C24A 1_555 1_555
H18A C25A 1_555 1_555
H19A C25A 1_555 1_555
C26A C25A 1_555 1_555
H20A C26A 1_555 1_555
H21A C26A 1_555 1_555
C27A C26A 1_555 1_555
H22A C27A 1_555 1_555
H23A C27A 1_555 1_555
C28A C23A 1_555 1_555
H24A C28A 1_555 1_555
C29A N3A 1_555 1_555
H25A C29A 1_555 1_555
C30A C29A 1_555 1_555
H26A C30A 1_555 1_555
C31A C29A 1_555 1_555
H27A C31A 1_555 1_555
C32A C30A 1_555 1_555
H28A C32A 1_555 1_555
C33A C32A 1_555 1_555
H29A C33A 1_555 1_555
C34A C31A 1_555 1_555
H30A C34A 1_555 1_555
H31A C33A 1_555 1_555
H32A C32A 1_555 1_555
H33A C34A 1_555 1_555
N1B C8B 1_555 1_555
C1B N2A 1_555 1_555
H1B C1B 1_555 1_555
N2B C1 1_555 1_555
C2B C1B 1_555 1_555
N3B C21B 1_555 1_555
C3B C2B 1_555 1_555
H2B C3B 1_555 1_555
N4B C22 1_555 1_555
C4B C3B 1_555 1_555
C5B C4B 1_555 1_555
H3B C5B 1_555 1_555
C6B C5B 1_555 1_555
C7B C2B 1_555 1_555
H4B C7B 1_555 1_555
C8B C4B 1_555 1_555
H5B C8B 1_555 1_555
C9B C10B 1_555 1_555
C10B H6B 1_555 1_555
C11B C10B 1_555 1_555
H7B C11B 1_555 1_555
C12B C6B 1_555 1_555
C13B C12B 1_555 1_555
H8B C13B 1_555 1_555
C14B C9B 1_555 1_555
H9B C14B 1_555 1_555
C15B C9B 1_555 1_555
C16B C15B 1_555 1_555
H10B C16B 1_555 1_555
C17B C16B 1_555 1_555
C18B C17B 1_555 1_555
H11B C18B 1_555 1_555
C19B C18B 1_555 1_555
C20B C15B 1_555 1_555
H12B C20B 1_555 1_555
C21B C17B 1_555 1_555
H13B C21B 1_555 1_555
C22B N4A 1_555 1_555
H14B C22B 1_555 1_555
C23B N1B 1_555 1_555
H15B C23B 1_555 1_555
C24B C23B 1_555 1_555
H16B C24B 1_555 1_555
H17B C24B 1_555 1_555
C25B C24B 1_555 1_555
H18B C25B 1_555 1_555
H19B C25B 1_555 1_555
C26B C25B 1_555 1_555
H20B C26B 1_555 1_555
H21B C26B 1_555 1_555
C27B C26B 1_555 1_555
H22B C27B 1_555 1_555
H23B C27B 1_555 1_555
C28B N2B 1_555 1_555
H24B C28B 1_555 1_555
C29B N3B 1_555 1_555
H25B C29B 1_555 1_555
C30B N4B 1_555 1_555
H26B C30B 1_555 1_555
C31B C29B 1_555 1_555
H27B C31B 1_555 1_555
C32B C30B 1_555 1_555
H28B C32B 1_555 1_555
C33B C32B 1_555 1_555
H29B C33B 1_555 1_555
C34B C31B 1_555 1_555
H30B C34B 1_555 1_555
H31B C33B 1_555 1_555
H32B C32B 1_555 1_555
H33B C34B 1_555 1_555
C35A C36A 1_555 1_555
C36A H34A 1_555 1_555
C37A C71 1_555 1_555
C38A C37A 1_555 1_555
C39A C38A 1_555 1_555
C40A C35A 1_555 1_555
H35A C40A 1_555 1_555
C41A C35A 1_555 1_555
C42A C41A 1_555 1_555
C43A C44A 1_555 1_555
C44A H36A 1_555 1_555
C45A C44A 1_555 1_555
H37A C45A 1_555 1_555
C46A C42A 1_555 1_555
C47A C46A 1_555 1_555
H38A C47A 1_555 1_555
C48A C43A 1_555 1_555
H39A C48A 1_555 1_555
C49A C43A 1_555 1_555
C50A C49A 1_555 1_555
C51A C50A 1_555 1_555
C52A C51A 1_555 1_555
H40A C52A 1_555 1_555
C53A C72 1_555 1_555
C54A C53A 1_555 1_555
H41A C54A 1_555 1_555
C55A C54A 1_555 1_555
C56A C51A 1_555 1_555
H42A C56A 1_555 1_555
N5A C57A 1_555 1_555
C57A C55A 1_555 1_555
H43A C57A 1_555 1_555
C58A N5A 1_555 1_555
H44A C58A 1_555 1_555
C59A C58A 1_555 1_555
H45A C59A 1_555 1_555
C60A C59A 1_555 1_555
C61A C58A 1_555 1_555
C62A C61A 1_555 1_555
C63A C60A 1_555 1_555
H46A C61A 1_555 1_555
H47A C61A 1_555 1_555
H48A C60A 1_555 1_555
H49A C60A 1_555 1_555
H50A C63A 1_555 1_555
H51A C63A 1_555 1_555
H52A C62A 1_555 1_555
H53A C62A 1_555 1_555
H54A C38A 1_555 1_555
C64A C39A 1_555 1_555
N6A C64A 1_555 1_555
H55A C64A 1_555 1_555
C65A N6A 1_555 1_555
H56A C65A 1_555 1_555
C66A C65A 1_555 1_555
C67A C66A 1_555 1_555
C68A C69A 1_555 1_555
C69A C65A 1_555 1_555
C70A C67A 1_555 1_555
H57A C67A 1_555 1_555
H58A C67A 1_555 1_555
H59A C70A 1_555 1_555
H60A C70A 1_555 1_555
H61A C68A 1_555 1_555
H62A C68A 1_555 1_555
H63A C69A 1_555 1_555
N7A C69A 1_555 1_555
C71A N7A 1_555 1_555
H64A C71A 1_555 1_555
H65A C66A 1_555 1_555
H66A C66A 1_555 1_555
H67A C72A 1_555 1_555
N8A C59A 1_555 1_555
C72A N8A 1_555 1_555
C35B C36B 1_555 1_555
C36B H34B 1_555 1_555
C37B C71A 1_555 1_555
C38B C37B 1_555 1_555
C39B C38B 1_555 1_555
C40B C35B 1_555 1_555
H35B C40B 1_555 1_555
C41B C35B 1_555 1_555
C42B C41B 1_555 1_555
C43B C44B 1_555 1_555
C44B H36B 1_555 1_555
C45B C44B 1_555 1_555
H37B C45B 1_555 1_555
C46B C42B 1_555 1_555
C47B C46B 1_555 1_555
H38B C47B 1_555 1_555
C48B C43B 1_555 1_555
H39B C48B 1_555 1_555
C49B C43B 1_555 1_555
C50B C49B 1_555 1_555
C51B C50B 1_555 1_555
C52B C51B 1_555 1_555
H40B C52B 1_555 1_555
C53B C72A 1_555 1_555
C54B C53B 1_555 1_555
H41B C54B 1_555 1_555
C55B C54B 1_555 1_555
C56B C51B 1_555 1_555
H42B C56B 1_555 1_555
N5B C57B 1_555 1_555
C57B C55B 1_555 1_555
H43B C57B 1_555 1_555
C58B N5B 1_555 1_555
H44B C58B 1_555 1_555
C59B C58B 1_555 1_555
H45B C59B 1_555 1_555
C60B C59B 1_555 1_555
C61B C58B 1_555 1_555
C62B C61B 1_555 1_555
C63B C60B 1_555 1_555
H46B C61B 1_555 1_555
H47B C61B 1_555 1_555
H48B C60B 1_555 1_555
H49B C60B 1_555 1_555
H50B C63B 1_555 1_555
H51B C63B 1_555 1_555
H52B C62B 1_555 1_555
H53B C62B 1_555 1_555
H54B C38B 1_555 1_555
C64B C39B 1_555 1_555
N6B C64B 1_555 1_555
H55B C64B 1_555 1_555
C65B N6B 1_555 1_555
H56B C65B 1_555 1_555
C66B C65B 1_555 1_555
C67B C66B 1_555 1_555
C68B C69B 1_555 1_555
C69B C65B 1_555 1_555
C70B C67B 1_555 1_555
H57B C67B 1_555 1_555
H58B C67B 1_555 1_555
H59B C70B 1_555 1_555
H60B C70B 1_555 1_555
H61B C68B 1_555 1_555
H62B C68B 1_555 1_555
H63B C69B 1_555 1_555
N7B C69B 1_555 1_555
C71B C37 1_555 1_555
H64B C71B 1_555 1_555
H65B C66B 1_555 1_555
H66B C66B 1_555 1_555
H67B C72B 1_555 1_555
N8B C59B 1_555 1_555
C72B C53 1_555 1_555
C6 C7 1_555 1_555
C11 C12 1_555 1_555
C13 C14 1_555 1_555
C19 C20 1_555 1_555
C27 C28 1_555 1_555
C33 C34 1_555 1_555
C39 C40 1_555 1_555
C45 C46 1_555 1_555
C47 C48 1_555 1_555
C55 C56 1_555 1_555
C62 C63 1_555 1_555
C68 C70 1_555 1_555
C6A C7A 1_555 1_555
C11A C12A 1_555 1_555
C13A C14A 1_555 1_555
C19A C20A 1_555 1_555
C19A C22A 1_555 1_555
C27A C28A 1_555 1_555
C33A C34A 1_555 1_555
C6B C7B 1_555 1_555
C11B C12B 1_555 1_555
C13B C14B 1_555 1_555
C19B C20B 1_555 1_555
C19B C22B 1_555 1_555
C23B C28B 1_555 1_555
C27B C28B 1_555 1_555
C29B C30B 1_555 1_555
C33B C34B 1_555 1_555
C36A C37A 1_555 1_555
C39A C40A 1_555 1_555
C45A C46A 1_555 1_555
C47A C48A 1_555 1_555
C52A C53A 1_555 1_555
C55A C56A 1_555 1_555
C62A C63A 1_555 1_555
C68A C70A 1_555 1_555
C36B C37B 1_555 1_555
C39B C40B 1_555 1_555
C45B C46B 1_555 1_555
C47B C48B 1_555 1_555
C52B C53B 1_555 1_555
C55B C56B 1_555 1_555
C62B C63B 1_555 1_555
C68B C70B 1_555 1_555
N7B C71B 1_555 1_555
N8B C72B 1_555 1_555

#END
