
#######################################################################
#
#                 Cambridge Crystallographic Data Centre
#                                CCDC 
#
#######################################################################
#
# If this CIF has been generated from an entry in the Cambridge 
# Structural Database, then it will include bibliographic, chemical, 
# crystal, experimental, refinement or atomic coordinate data resulting 
# from the CCDC's data processing and validation procedures.
#
#######################################################################

data_ABINIL
_chemical_formula_moiety         'C240 H252 N24 O21'
_symmetry_cell_setting           rhombohedral
_symmetry_space_group_name_H-M   'R -3'
_symmetry_Int_Tables_number      148
_space_group_name_Hall           '-R 3'
loop_
_symmetry_equiv_pos_site_id
_symmetry_equiv_pos_as_xyz
1 x,y,z
2 -y,x-y,z
3 -x+y,-x,z
4 2/3+x,1/3+y,1/3+z
5 2/3-y,1/3+x-y,1/3+z
6 2/3-x+y,1/3-x,1/3+z
7 1/3+x,2/3+y,2/3+z
8 1/3-y,2/3+x-y,2/3+z
9 1/3-x+y,2/3-x,2/3+z
10 -x,-y,-z
11 y,-x+y,-z
12 x-y,x,-z
13 1/3-x,2/3-y,2/3-z
14 1/3+y,2/3-x+y,2/3-z
15 1/3+x-y,2/3+x,2/3-z
16 2/3-x,1/3-y,1/3-z
17 2/3+y,1/3-x+y,1/3-z
18 2/3+x-y,1/3+x,1/3-z
_cell_length_a                   22.553(4)
_cell_length_b                   22.553(4)
_cell_length_c                   83.972(18)
_cell_angle_alpha                90
_cell_angle_beta                 90
_cell_angle_gamma                120
_cell_volume                     36989.1
loop_
_atom_site_label
_atom_site_type_symbol
_atom_site_fract_x
_atom_site_fract_y
_atom_site_fract_z
C1 C 0.5430(3) 0.7958(3) 0.62650(6)
C2 C 0.5209(3) 0.7412(3) 0.63678(6)
H1 H 0.5136 0.7482 0.6476
C3 C 0.5085(3) 0.6764(3) 0.63237(5)
C4 C 0.5221(3) 0.6677(3) 0.61711(5)
H2 H 0.5161 0.6246 0.6139
C5 C 0.5452(3) 0.7213(3) 0.60573(6)
C6 C 0.5545(3) 0.7832(3) 0.61058(6)
H3 H 0.5692 0.8191 0.6030
C7 C 0.5545(3) 0.7097(3) 0.58906(6)
C8 C 0.5592(3) 0.7019(3) 0.57526(6)
C9 C 0.5595(3) 0.6918(3) 0.55833(5)
C10 C 0.5340(5) 0.6260(3) 0.55188(7)
H4 H 0.5220 0.5885 0.5588
C11 C 0.5261(5) 0.6147(3) 0.53597(6)
H5 H 0.5080 0.5694 0.5320
C12 C 0.5434(3) 0.6667(3) 0.52575(6)
C13 C 0.5728(4) 0.7326(3) 0.53120(6)
H6 H 0.5874 0.7697 0.5239
C14 C 0.5810(3) 0.7446(3) 0.54752(6)
H7 H 0.6019 0.7904 0.5513
C15 C 0.5311(3) 0.6542(3) 0.50873(6)
C16 C 0.5174(4) 0.6444(3) 0.49469(6)
C17 C 0.4998(3) 0.6326(3) 0.47827(6)
C18 C 0.4507(4) 0.5651(4) 0.47317(5)
H8 H 0.4324 0.5279 0.4805
C19 C 0.4302(3) 0.5550(3) 0.45715(6)
C20 C 0.4565(3) 0.6082(3) 0.44649(6)
H9 H 0.4415 0.6001 0.4357
C21 C 0.5057(4) 0.6746(3) 0.45136(6)
C22 C 0.5267(3) 0.6855(3) 0.46745(6)
H10 H 0.5599 0.7302 0.4709
C23 C 0.5524(3) 0.8606(3) 0.63087(6)
H11 H 0.5630 0.8940 0.6228
C24 C 0.4843(3) 0.6215(3) 0.64393(6)
H12 H 0.4791 0.6311 0.6547
C25 C 0.5351(4) 0.7295(3) 0.43968(6)
H13 H 0.5218 0.7192 0.4288
C26 C 0.3770(3) 0.4843(3) 0.45222(6)
H14 H 0.3591 0.4493 0.4601
C27 C 0.3041(3) 0.3986(3) 0.43568(6)
H15 H 0.2973 0.3724 0.4458
C28 C 0.3269(4) 0.3670(3) 0.42252(6)
H16 H 0.3330 0.3920 0.4124
H17 H 0.3715 0.3714 0.4254
C29 C 0.2749(5) 0.2931(4) 0.42024(8)
H18 H 0.2704 0.2673 0.4301
H19 H 0.2896 0.2735 0.4116
C30 C 0.2053(4) 0.2868(4) 0.41596(8)
H20 H 0.2090 0.3077 0.4054
H21 H 0.1701 0.2377 0.4152
C31 C 0.1822(4) 0.3216(4) 0.42818(7)
H22 H 0.1403 0.3206 0.4243
H23 H 0.1709 0.2959 0.4383
C32 C 0.2365(3) 0.3942(3) 0.43109(7)
H24 H 0.2434 0.4215 0.4212
C33 C 0.4495(3) 0.5102(3) 0.65324(5)
H25 H 0.4381 0.5284 0.6629
C34 C 0.5100(3) 0.5002(4) 0.65691(6)
H26 H 0.5495 0.5442 0.6604
H27 H 0.5235 0.4852 0.6472
C35 C 0.4911(3) 0.4462(3) 0.67009(7)
H28 H 0.5300 0.4383 0.6720
H29 H 0.4815 0.4629 0.6801
C36 C 0.4280(3) 0.3790(3) 0.66513(7)
H30 H 0.4387 0.3604 0.6556
H31 H 0.4148 0.3450 0.6738
C37 C 0.3697(3) 0.3911(3) 0.66156(7)
H32 H 0.3575 0.4073 0.6713
H33 H 0.3292 0.3474 0.6583
C38 C 0.3880(3) 0.4435(3) 0.64847(6)
H34 H 0.3988 0.4263 0.6385
N1 N 0.4696(3) 0.5605(2) 0.64028(4)
N2 N 0.3290(2) 0.4531(3) 0.64552(5)
N3 N 0.3551(2) 0.4688(2) 0.43834(4)
N4 N 0.2131(3) 0.4208(3) 0.44364(5)
C1A C 0.2042(3) 0.7472(4) 0.62650(6)
C2A C 0.2588(3) 0.7797(4) 0.63678(6)
H1A H 0.2518 0.7654 0.6476
C3A C 0.3236(3) 0.8321(4) 0.63237(5)
C4A C 0.3323(3) 0.8544(4) 0.61711(5)
H2A H 0.3754 0.8915 0.6139
C5A C 0.2787(3) 0.8239(4) 0.60573(6)
C6A C 0.2168(3) 0.7713(4) 0.61058(6)
H3A H 0.1809 0.7501 0.6030
C7A C 0.2903(3) 0.8448(4) 0.58906(6)
C8A C 0.2981(3) 0.8573(4) 0.57526(6)
C9A C 0.3082(3) 0.8677(4) 0.55833(5)
C10A C 0.3740(3) 0.9080(6) 0.55188(7)
H4A H 0.4115 0.9335 0.5588
C11A C 0.3853(3) 0.9114(6) 0.53597(6)
H5A H 0.4306 0.9386 0.5320
C12A C 0.3333(3) 0.8767(4) 0.52575(6)
C13A C 0.2674(3) 0.8402(5) 0.53120(6)
H6A H 0.2303 0.8177 0.5239
C14A C 0.2554(3) 0.8364(4) 0.54752(6)
H7A H 0.2096 0.8115 0.5513
C15A C 0.3458(3) 0.8769(4) 0.50873(6)
C16A C 0.3556(3) 0.8730(5) 0.49469(6)
C17A C 0.3674(3) 0.8672(4) 0.47827(6)
C18A C 0.4349(4) 0.8856(6) 0.47317(5)
H8A H 0.4721 0.9045 0.4805
C19A C 0.4450(3) 0.8752(4) 0.45715(6)
C20A C 0.3918(3) 0.8483(4) 0.44649(6)
H9A H 0.3999 0.8414 0.4357
C21A C 0.3254(3) 0.8311(5) 0.45136(6)
C22A C 0.3145(3) 0.8412(4) 0.46745(6)
H10A H 0.2698 0.8297 0.4709
C23A C 0.1394(3) 0.6918(4) 0.63087(6)
H11A H 0.1060 0.6690 0.6228
C24A C 0.3785(3) 0.8628(4) 0.64393(6)
H12A H 0.3689 0.8480 0.6547
C25A C 0.2705(3) 0.8056(5) 0.43968(6)
H13A H 0.2808 0.8026 0.4288
C26A C 0.5157(3) 0.8927(4) 0.45222(6)
H14A H 0.5507 0.9098 0.4601
C27A C 0.6014(3) 0.9055(4) 0.43568(6)
H15A H 0.6276 0.9249 0.4458
C28A C 0.6330(3) 0.9599(5) 0.42252(6)
H16A H 0.6080 0.9410 0.4124
H17A H 0.6286 1.0001 0.4254
C29A C 0.7069(4) 0.9818(6) 0.42024(8)
H18A H 0.7327 1.0031 0.4301
H19A H 0.7265 1.0161 0.4116
C30A C 0.7132(4) 0.9185(6) 0.41596(8)
H20A H 0.6923 0.9013 0.4054
H21A H 0.7623 0.9324 0.4152
C31A C 0.6784(4) 0.8606(6) 0.42818(7)
H22A H 0.6794 0.8197 0.4243
H23A H 0.7041 0.8750 0.4383
C32A C 0.6058(3) 0.8423(4) 0.43109(7)
H24A H 0.5785 0.8219 0.4212
C33A C 0.4898(3) 0.9393(4) 0.65324(5)
H25A H 0.4716 0.9097 0.6629
C34A C 0.4998(4) 1.0098(5) 0.65691(6)
H26A H 0.4558 1.0053 0.6604
H27A H 0.5148 1.0383 0.6472
C35A C 0.5538(3) 1.0449(4) 0.67009(7)
H28A H 0.5617 1.0917 0.6720
H29A H 0.5371 1.0186 0.6801
C36A C 0.6210(3) 1.0490(4) 0.66513(7)
H30A H 0.6396 1.0783 0.6556
H31A H 0.6550 1.0698 0.6738
C37A C 0.6089(3) 0.9786(4) 0.66156(7)
H32A H 0.5927 0.9502 0.6713
H33A H 0.6526 0.9818 0.6583
C38A C 0.5565(3) 0.9445(4) 0.64847(6)
H34A H 0.5737 0.9725 0.6385
N1A N 0.4395(2) 0.9091(4) 0.64028(4)
N2A N 0.5469(3) 0.8759(4) 0.64552(5)
N3A N 0.5312(2) 0.8863(3) 0.43834(4)
N4A N 0.5792(3) 0.7923(4) 0.44364(5)
C1B C 0.2528(4) 0.4570(3) 0.62650(6)
C2B C 0.2203(4) 0.4791(3) 0.63678(6)
H1B H 0.2346 0.4864 0.6476
C3B C 0.1679(4) 0.4915(3) 0.63237(5)
C4B C 0.1456(4) 0.4779(3) 0.61711(5)
H2B H 0.1085 0.4839 0.6139
C5B C 0.1761(4) 0.4548(3) 0.60573(6)
C6B C 0.2287(4) 0.4455(3) 0.61058(6)
H3B H 0.2499 0.4308 0.6030
C7B C 0.1552(4) 0.4455(3) 0.58906(6)
C8B C 0.1427(4) 0.4408(3) 0.57526(6)
C9B C 0.1323(4) 0.4405(3) 0.55833(5)
C10B C 0.0920(6) 0.4660(5) 0.55188(7)
H4B H 0.0665 0.4780 0.5588
C11B C 0.0886(6) 0.4739(5) 0.53597(6)
H5B H 0.0614 0.4920 0.5320
C12B C 0.1233(4) 0.4566(3) 0.52575(6)
C13B C 0.1598(5) 0.4272(4) 0.53120(6)
H6B H 0.1823 0.4126 0.5239
C14B C 0.1636(4) 0.4190(3) 0.54752(6)
H7B H 0.1885 0.3981 0.5513
C15B C 0.1231(4) 0.4689(3) 0.50873(6)
C16B C 0.1270(5) 0.4826(4) 0.49469(6)
C17B C 0.1328(4) 0.5002(3) 0.47827(6)
C18B C 0.1144(6) 0.5493(4) 0.47317(5)
H8B H 0.0955 0.5676 0.4805
C19B C 0.1248(4) 0.5698(3) 0.45715(6)
C20B C 0.1517(4) 0.5435(3) 0.44649(6)
H9B H 0.1586 0.5585 0.4357
C21B C 0.1689(5) 0.4943(4) 0.45136(6)
C22B C 0.1588(4) 0.4733(3) 0.46745(6)
H10B H 0.1703 0.4401 0.4709
C23B C 0.3082(4) 0.4476(3) 0.63087(6)
H11B H 0.3310 0.4370 0.6228
C24B C 0.1372(4) 0.5157(3) 0.64393(6)
H12B H 0.1520 0.5209 0.6547
C25B C 0.1944(5) 0.4649(4) 0.43968(6)
H13B H 0.1974 0.4782 0.4288
C26B C 0.1073(4) 0.6230(3) 0.45222(6)
H14B H 0.0902 0.6409 0.4601
C27B C 0.0945(4) 0.6959(3) 0.43568(6)
H15B H 0.0751 0.7027 0.4458
C28B C 0.0401(5) 0.6731(4) 0.42252(6)
H16B H 0.0590 0.6670 0.4124
H17B H -0.0001 0.6285 0.4254
C29B C 0.0182(6) 0.7251(5) 0.42024(8)
H18B H -0.0031 0.7296 0.4301
H19B H -0.0161 0.7104 0.4116
C30B C 0.0815(6) 0.7947(4) 0.41596(8)
H20B H 0.0987 0.7910 0.4054
H21B H 0.0676 0.8299 0.4152
C31B C 0.1394(6) 0.8178(4) 0.42818(7)
H22B H 0.1803 0.8597 0.4243
H23B H 0.1250 0.8291 0.4383
C32B C 0.1577(4) 0.7635(3) 0.43109(7)
H24B H 0.1781 0.7566 0.4212
C33B C 0.0607(4) 0.5505(3) 0.65324(5)
H25B H 0.0903 0.5619 0.6629
C34B C -0.0098(5) 0.4900(3) 0.65691(6)
H26B H -0.0053 0.4505 0.6604
H27B H -0.0383 0.4765 0.6472
C35B C -0.0449(4) 0.5089(3) 0.67009(7)
H28B H -0.0917 0.4700 0.6720
H29B H -0.0186 0.5185 0.6801
C36B C -0.0490(4) 0.5720(3) 0.66513(7)
H30B H -0.0783 0.5613 0.6556
H31B H -0.0698 0.5852 0.6738
C37B C 0.0214(4) 0.6303(3) 0.66156(7)
H32B H 0.0498 0.6425 0.6713
H33B H 0.0182 0.6708 0.6583
C38B C 0.0555(4) 0.6120(3) 0.64847(6)
H34B H 0.0275 0.6012 0.6385
N1B N 0.0909(4) 0.5304(3) 0.64028(4)
N2B N 0.1241(4) 0.6710(2) 0.64552(5)
N3B N 0.1137(3) 0.6449(2) 0.43834(4)
N4B N 0.2077(4) 0.7869(3) 0.44364(5)
C39 C 0.1787(4) 0.1730(4) 0.71488(7)
C40 C 0.1872(4) 0.1191(4) 0.72010(6)
H35 H 0.1723 0.0995 0.7304
C41 C 0.2193(4) 0.0943(4) 0.70934(7)
C42 C 0.2368(4) 0.1195(4) 0.69407(6)
H36 H 0.2584 0.1028 0.6871
C43 C 0.2220(4) 0.1710(4) 0.68876(7)
C44 C 0.1962(4) 0.1990(4) 0.69875(6)
H37 H 0.1894 0.2353 0.6953
C45 C 0.2357(4) 0.1922(4) 0.67239(6)
C46 C 0.2382(4) 0.2038(4) 0.65800(7)
C47 C 0.2365(4) 0.2122(4) 0.64127(7)
C48 C 0.2423(4) 0.1655(4) 0.63130(6)
H38 H 0.2506 0.1315 0.6357
C49 C 0.2359(4) 0.1689(4) 0.61501(6)
H39 H 0.2407 0.1379 0.6082
C50 C 0.2222(3) 0.2188(4) 0.60835(6)
C51 C 0.2193(3) 0.2654(3) 0.61828(6)
H40 H 0.2127 0.3005 0.6139
C52 C 0.2262(3) 0.2620(3) 0.63504(6)
H41 H 0.2235 0.2943 0.6418
C53 C 0.2081(4) 0.2180(4) 0.59116(6)
C54 C 0.1946(4) 0.2147(4) 0.57788(6)
C55 C 0.1737(4) 0.2058(4) 0.56122(7)
C56 C 0.1990(4) 0.1771(4) 0.55017(6)
H42 H 0.2325 0.1657 0.5534
C57 C 0.1755(4) 0.1655(3) 0.53465(6)
C58 C 0.1297(3) 0.1836(3) 0.52996(6)
H43 H 0.1151 0.1766 0.5192
C59 C 0.1028(4) 0.2124(3) 0.54040(5)
C60 C 0.1255(4) 0.2231(3) 0.55621(6)
H44 H 0.1078 0.2423 0.5636
C61 C 0.1496(3) 0.2017(4) 0.72624(6)
H45 H 0.1409 0.1847 0.7368
C62 C 0.2310(4) 0.0379(3) 0.71473(7)
H46 H 0.2551 0.0237 0.7079
C63 C 0.0520(3) 0.2296(3) 0.53553(6)
H47 H 0.0370 0.2505 0.5431
C64 C 0.2026(3) 0.1350(3) 0.52336(7)
H48 H 0.1857 0.1272 0.5128
C65 C 0.1130(3) 0.2740(3) 0.73549(6)
H49 H 0.1055 0.2449 0.7451
C66 C 0.1668(4) 0.3463(3) 0.73915(7)
H50 H 0.1770 0.3746 0.7294
H51 H 0.2094 0.3474 0.7425
C67 C 0.1428(4) 0.3770(4) 0.75255(8)
H52 H 0.1381 0.3518 0.7626
H53 H 0.1785 0.4253 0.7543
C68 C 0.0756(4) 0.3740(3) 0.74904(8)
H54 H 0.0608 0.3896 0.7585
H55 H 0.0816 0.4048 0.7400
C69 C 0.0223(4) 0.3022(3) 0.74494(6)
H56 H -0.0204 0.3015 0.7419
H57 H 0.0123 0.2729 0.7545
C70 C 0.0448(3) 0.2726(3) 0.73130(6)
H58 H 0.0523 0.3009 0.7215
C71 C 0.2733(3) 0.0949(3) 0.51401(6)
H59 H 0.2468 0.0897 0.5041
C72 C 0.3482(3) 0.1450(3) 0.51109(7)
H60 H 0.3739 0.1517 0.5211
H61 H 0.3535 0.1898 0.5080
C73 C 0.3796(3) 0.1210(4) 0.49797(8)
H62 H 0.3573 0.1181 0.4876
H63 H 0.4291 0.1542 0.4969
C74 C 0.3689(3) 0.0513(3) 0.50251(7)
H64 H 0.3954 0.0556 0.5123
H65 H 0.3861 0.0341 0.4939
C75 C 0.2924(3) -0.0007(3) 0.50551(5)
H66 H 0.2660 -0.0074 0.4956
H67 H 0.2871 -0.0453 0.5087
C76 C 0.2646(3) 0.0254(3) 0.51863(6)
H68 H 0.2912 0.0312 0.5286
N5 N -0.0080(3) 0.2024(2) 0.72797(5)
N6 N 0.1355(3) 0.2484(3) 0.72258(5)
N7 N 0.2468(3) 0.1186(3) 0.52687(4)
N8 N 0.1925(2) -0.0259(2) 0.52157(5)
C39A C -0.1730(4) 0.0057(6) 0.71488(7)
C40A C -0.1191(4) 0.0681(6) 0.72010(6)
H35A H -0.0995 0.0728 0.7304
C41A C -0.0943(4) 0.1250(6) 0.70934(7)
C42A C -0.1195(4) 0.1173(6) 0.69407(6)
H36A H -0.1028 0.1556 0.6871
C43A C -0.1710(4) 0.0510(6) 0.68876(7)
C44A C -0.1990(4) -0.0028(6) 0.69875(6)
H37A H -0.2353 -0.0459 0.6953
C45A C -0.1922(4) 0.0435(6) 0.67239(6)
C46A C -0.2038(4) 0.0344(6) 0.65800(7)
C47A C -0.2122(4) 0.0243(6) 0.64127(7)
C48A C -0.1655(4) 0.0768(6) 0.63130(6)
H38A H -0.1315 0.1191 0.6357
C49A C -0.1689(4) 0.0670(6) 0.61501(6)
H39A H -0.1379 0.1028 0.6082
C50A C -0.2188(4) 0.0034(5) 0.60835(6)
C51A C -0.2654(3) -0.0461(4) 0.61828(6)
H40A H -0.3005 -0.0878 0.6139
C52A C -0.2620(3) -0.0358(4) 0.63504(6)
H41A H -0.2943 -0.0708 0.6418
C53A C -0.2180(4) -0.0099(6) 0.59116(6)
C54A C -0.2147(4) -0.0201(6) 0.57788(6)
C55A C -0.2058(4) -0.0321(6) 0.56122(7)
C56A C -0.1771(4) 0.0219(6) 0.55017(6)
H42A H -0.1657 0.0668 0.5534
C57A C -0.1655(3) 0.0100(5) 0.53465(6)
C58A C -0.1836(3) -0.0539(4) 0.52996(6)
H43A H -0.1766 -0.0615 0.5192
C59A C -0.2124(3) -0.1096(5) 0.54040(5)
C60A C -0.2231(3) -0.0976(5) 0.55621(6)
H44A H -0.2423 -0.1345 0.5636
C61A C -0.2017(4) -0.0521(5) 0.72624(6)
H45A H -0.1847 -0.0438 0.7368
C62A C -0.0379(3) 0.1931(5) 0.71473(7)
H46A H -0.0237 0.2314 0.7079
C63A C -0.2296(3) -0.1776(4) 0.53553(6)
H47A H -0.2505 -0.2135 0.5431
C64A C -0.1350(3) 0.0676(4) 0.52336(7)
H48A H -0.1272 0.0585 0.5128
C65A C -0.2740(3) -0.1610(4) 0.73549(6)
H49A H -0.2449 -0.1394 0.7451
C66A C -0.3463(3) -0.1795(5) 0.73915(7)
H50A H -0.3746 -0.1976 0.7294
H51A H -0.3474 -0.1380 0.7425
C67A C -0.3770(4) -0.2342(6) 0.75255(8)
H52A H -0.3518 -0.2137 0.7626
H53A H -0.4253 -0.2468 0.7543
C68A C -0.3740(3) -0.2984(5) 0.74904(8)
H54A H -0.3896 -0.3288 0.7585
H55A H -0.4048 -0.3232 0.7400
C69A C -0.3022(3) -0.2799(5) 0.74494(6)
H56A H -0.3015 -0.3219 0.7419
H57A H -0.2729 -0.2606 0.7545
C70A C -0.2726(3) -0.2278(4) 0.73130(6)
H58A H -0.3009 -0.2486 0.7215
C71A C -0.0949(3) 0.1784(4) 0.51401(6)
H59A H -0.0897 0.1571 0.5041
C72A C -0.1450(3) 0.2032(4) 0.51109(7)
H60A H -0.1517 0.2222 0.5211
H61A H -0.1898 0.1637 0.5080
C73A C -0.1210(4) 0.2586(5) 0.49797(8)
H62A H -0.1181 0.2392 0.4876
H63A H -0.1542 0.2749 0.4969
C74A C -0.0513(3) 0.3176(4) 0.50251(7)
H64A H -0.0556 0.3398 0.5123
H65A H -0.0341 0.3520 0.4939
C75A C 0.0007(3) 0.2931(4) 0.50551(5)
H66A H 0.0074 0.2734 0.4956
H67A H 0.0453 0.3324 0.5087
C76A C -0.0254(3) 0.2392(4) 0.51863(6)
H68A H -0.0312 0.2600 0.5286
N5A N -0.2024(2) -0.2104(4) 0.72797(5)
N6A N -0.2484(3) -0.1129(4) 0.72258(5)
N7A N -0.1186(3) 0.1282(4) 0.52687(4)
N8A N 0.0259(2) 0.2184(3) 0.52157(5)
C39B C -0.0057(6) -0.1787(4) 0.71488(7)
C40B C -0.0681(6) -0.1872(4) 0.72010(6)
H35B H -0.0728 -0.1723 0.7304
C41B C -0.1250(6) -0.2193(4) 0.70934(7)
C42B C -0.1173(6) -0.2368(4) 0.69407(6)
H36B H -0.1556 -0.2584 0.6871
C43B C -0.0510(6) -0.2220(4) 0.68876(7)
C44B C 0.0028(6) -0.1962(4) 0.69875(6)
H37B H 0.0459 -0.1894 0.6953
C45B C -0.0435(6) -0.2357(4) 0.67239(6)
C46B C -0.0344(6) -0.2382(4) 0.65800(7)
C47B C -0.0243(6) -0.2365(4) 0.64127(7)
C48B C -0.0768(6) -0.2423(4) 0.63130(6)
H38B H -0.1191 -0.2506 0.6357
C49B C -0.0670(6) -0.2359(4) 0.61501(6)
H39B H -0.1028 -0.2407 0.6082
C50B C -0.0034(5) -0.2222(3) 0.60835(6)
C51B C 0.0461(4) -0.2193(3) 0.61828(6)
H40B H 0.0878 -0.2127 0.6139
C52B C 0.0358(4) -0.2262(3) 0.63504(6)
H41B H 0.0708 -0.2235 0.6418
C53B C 0.0099(6) -0.2081(4) 0.59116(6)
C54B C 0.0201(6) -0.1946(4) 0.57788(6)
C55B C 0.0321(6) -0.1737(4) 0.56122(7)
C56B C -0.0219(6) -0.1990(4) 0.55017(6)
H42B H -0.0668 -0.2325 0.5534
C57B C -0.0100(5) -0.1755(4) 0.53465(6)
C58B C 0.0539(4) -0.1297(3) 0.52996(6)
H43B H 0.0615 -0.1151 0.5192
C59B C 0.1096(5) -0.1028(4) 0.54040(5)
C60B C 0.0976(5) -0.1255(4) 0.55621(6)
H44B H 0.1345 -0.1078 0.5636
C61B C 0.0521(5) -0.1496(3) 0.72624(6)
H45B H 0.0438 -0.1409 0.7368
C62B C -0.1931(5) -0.2310(4) 0.71473(7)
H46B H -0.2314 -0.2551 0.7079
C63B C 0.1776(4) -0.0520(3) 0.53553(6)
H47B H 0.2135 -0.0370 0.5431
C64B C -0.0676(4) -0.2026(3) 0.52336(7)
H48B H -0.0585 -0.1857 0.5128
C65B C 0.1610(4) -0.1130(3) 0.73549(6)
H49B H 0.1394 -0.1055 0.7451
C66B C 0.1795(5) -0.1668(4) 0.73915(7)
H50B H 0.1976 -0.1770 0.7294
H51B H 0.1380 -0.2094 0.7425
C67B C 0.2342(6) -0.1428(4) 0.75255(8)
H52B H 0.2137 -0.1381 0.7626
H53B H 0.2468 -0.1785 0.7543
C68B C 0.2984(5) -0.0756(4) 0.74904(8)
H54B H 0.3288 -0.0608 0.7585
H55B H 0.3232 -0.0816 0.7400
C69B C 0.2799(5) -0.0223(4) 0.74494(6)
H56B H 0.3219 0.0204 0.7419
H57B H 0.2606 -0.0123 0.7545
C70B C 0.2278(4) -0.0448(3) 0.73130(6)
H58B H 0.2486 -0.0523 0.7215
C71B C -0.1784(4) -0.2733(3) 0.51401(6)
H59B H -0.1571 -0.2468 0.5041
C72B C -0.2032(4) -0.3482(3) 0.51109(7)
H60B H -0.2222 -0.3739 0.5211
H61B H -0.1637 -0.3535 0.5080
C73B C -0.2586(5) -0.3796(3) 0.49797(8)
H62B H -0.2392 -0.3573 0.4876
H63B H -0.2749 -0.4291 0.4969
C74B C -0.3176(4) -0.3689(3) 0.50251(7)
H64B H -0.3398 -0.3954 0.5123
H65B H -0.3520 -0.3861 0.4939
C75B C -0.2931(4) -0.2924(3) 0.50551(5)
H66B H -0.2734 -0.2660 0.4956
H67B H -0.3324 -0.2871 0.5087
C76B C -0.2392(4) -0.2646(3) 0.51863(6)
H68B H -0.2600 -0.2912 0.5286
N5B N 0.2104(4) 0.0080(3) 0.72797(5)
N6B N 0.1129(4) -0.1355(3) 0.72258(5)
N7B N -0.1282(4) -0.2468(3) 0.52687(4)
N8B N -0.2184(3) -0.1925(2) 0.52157(5)
C77 C 0.7138(5) 0.7061(5) 0.62543(8)
H69 H 0.6699 0.6912 0.6307
H70 H 0.7062 0.6800 0.6156
H71 H 0.7438 0.6983 0.6325
C78 C 0.7477(5) 0.7828(5) 0.62146(10)
H72 H 0.7157 0.7896 0.6147
H73 H 0.7532 0.8079 0.6315
C79 C 0.8384(9) 0.8802(7) 0.6078(2)
H74 H 0.8063 0.8811 0.5999
H75 H 0.8427 0.9115 0.6166
C80 C 0.9019(8) 0.9059(7) 0.6006(2)
H76 H 0.9175 0.9524 0.5968
H77 H 0.9349 0.9070 0.6084
H78 H 0.8984 0.8765 0.5917
O1 O 0.8085(4) 0.8120(4) 0.61416(8)
C81 C 0.3320(8) 0.5630(8) 0.56672(16)
H79 H 0.3286 0.6047 0.5667
H80 H 0.2932 0.5268 0.5726
H81 H 0.3749 0.5724 0.5718
C82 C 0.3308(8) 0.5402(7) 0.54984(17)
H82 H 0.2879 0.5323 0.5447
H83 H 0.3694 0.5778 0.5440
C83 C 0.3524(9) 0.4418(8) 0.53880(17)
H84 H 0.4020 0.4718 0.5368
H85 H 0.3295 0.4386 0.5285
C84 C 0.3438(8) 0.3754(7) 0.54121(17)
H86 H 0.3620 0.3629 0.5320
H87 H 0.3685 0.3756 0.5508
H88 H 0.2950 0.3420 0.5425
O2 O 0.3354(6) 0.4785(5) 0.54808(12)
O3 O 0.8938(4) 0.9034(4) 0.64593(9)
O4 O 0.8766(6) 0.9169(4) 0.67995(7)
O5 O 0.9877(7) 0.9454(7) 0.67377(15)
O6 O 0.3347(16) 0.5773(16) 0.5234(4)
O7 O 0.6667 0.3333 0.4663(7)
O8 O -0.0000 0.0000 0.5218(3)
O9 O 0.3333 0.6667 0.6451(4)
O10 O 0.9233(9) 0.8992(9) 0.57430(18)
O11 O 0.3333 0.6667 0.5056(17)
O12 O 0.3641(11) 0.5831(11) 0.5937(2)
C85? C 0.6667 0.3333 0.5334(2)
C86? C 0.6667 0.3333 0.5508(2)
H89? H 0.6669 0.3769 0.5524
H90? H 0.6181 0.2980 0.5524
C87? C 0.6667 0.3333 0.5810(3)
H91? H 0.6357 0.2857 0.5845
H92? H 0.6379 0.3547 0.5796
C88? C 0.7142(15) 0.370(2) 0.5948(3)
H93? H 0.7619 0.3900 0.5912
H94? H 0.7056 0.3370 0.6034
H95? H 0.7061 0.4061 0.5987
O13? O 0.6907(13) 0.3292(19) 0.5654(2)
H96? H 0.6293 0.3397 0.5295
O14? O -0.0000 0.0000 0.5079(5)
O15? O -0.0466(16) -0.0493(16) 0.5085(3)
O16? O 0.3301(15) 0.5764(16) 0.5053(3)
O17? O 0.3199(6) 0.3049(6) 0.54171(14)
O18? O 0.3333 0.6667 0.6588(4)
O19? O 0.3361(16) 0.6366(13) 0.6132(2)
O20? O 0.9096(13) 0.9041(13) 0.6630(3)
O21? O 0.9719(9) 0.9631(8) 0.55525(15)
loop_
_geom_bond_atom_site_label_1
_geom_bond_atom_site_label_2
_geom_bond_site_symmetry_1
_geom_bond_site_symmetry_2
C1 C2 1_555 1_555
C2 H1 1_555 1_555
C3 C2 1_555 1_555
C4 C3 1_555 1_555
H2 C4 1_555 1_555
C5 C4 1_555 1_555
C6 C1 1_555 1_555
H3 C6 1_555 1_555
C7 C5 1_555 1_555
C8 C7 1_555 1_555
C9 C8 1_555 1_555
C10 C9 1_555 1_555
H4 C10 1_555 1_555
C11 C10 1_555 1_555
H5 C11 1_555 1_555
C12 C11 1_555 1_555
C13 C12 1_555 1_555
H6 C13 1_555 1_555
C14 C9 1_555 1_555
H7 C14 1_555 1_555
C15 C12 1_555 1_555
C16 C15 1_555 1_555
C17 C16 1_555 1_555
C18 C17 1_555 1_555
H8 C18 1_555 1_555
C19 C18 1_555 1_555
C20 C19 1_555 1_555
H9 C20 1_555 1_555
C21 C20 1_555 1_555
C22 C17 1_555 1_555
H10 C22 1_555 1_555
C23 C1 1_555 1_555
H11 C23 1_555 1_555
C24 C3 1_555 1_555
H12 C24 1_555 1_555
C25 C21 1_555 1_555
H13 C25 1_555 1_555
C26 C19 1_555 1_555
H14 C26 1_555 1_555
C27 H15 1_555 1_555
C28 C27 1_555 1_555
H16 C28 1_555 1_555
H17 C28 1_555 1_555
C29 C28 1_555 1_555
H18 C29 1_555 1_555
H19 C29 1_555 1_555
C30 C29 1_555 1_555
H20 C30 1_555 1_555
H21 C30 1_555 1_555
C31 C30 1_555 1_555
H22 C31 1_555 1_555
H23 C31 1_555 1_555
C32 C27 1_555 1_555
H24 C32 1_555 1_555
C33 H25 1_555 1_555
C34 C33 1_555 1_555
H26 C34 1_555 1_555
H27 C34 1_555 1_555
C35 C34 1_555 1_555
H28 C35 1_555 1_555
H29 C35 1_555 1_555
C36 C35 1_555 1_555
H30 C36 1_555 1_555
H31 C36 1_555 1_555
C37 C36 1_555 1_555
H32 C37 1_555 1_555
H33 C37 1_555 1_555
C38 C33 1_555 1_555
H34 C38 1_555 1_555
N1 C24 1_555 1_555
N2 C38 1_555 1_555
N3 C26 1_555 1_555
N4 C32 1_555 1_555
C39 C40 1_555 1_555
C40 H35 1_555 1_555
C41 C40 1_555 1_555
C42 C41 1_555 1_555
H36 C42 1_555 1_555
C43 C42 1_555 1_555
C44 C39 1_555 1_555
H37 C44 1_555 1_555
C45 C43 1_555 1_555
C46 C45 1_555 1_555
C47 C46 1_555 1_555
C48 C47 1_555 1_555
H38 C48 1_555 1_555
C49 C48 1_555 1_555
H39 C49 1_555 1_555
C50 C49 1_555 1_555
C51 C50 1_555 1_555
H40 C51 1_555 1_555
C52 C47 1_555 1_555
H41 C52 1_555 1_555
C53 C50 1_555 1_555
C54 C53 1_555 1_555
C55 C54 1_555 1_555
C56 C55 1_555 1_555
H42 C56 1_555 1_555
C57 C56 1_555 1_555
C58 C57 1_555 1_555
H43 C58 1_555 1_555
C59 C58 1_555 1_555
C60 C55 1_555 1_555
H44 C60 1_555 1_555
C61 C39 1_555 1_555
H45 C61 1_555 1_555
C62 C41 1_555 1_555
H46 C62 1_555 1_555
C63 C59 1_555 1_555
H47 C63 1_555 1_555
C64 C57 1_555 1_555
H48 C64 1_555 1_555
C65 H49 1_555 1_555
C66 C65 1_555 1_555
H50 C66 1_555 1_555
H51 C66 1_555 1_555
C67 C66 1_555 1_555
H52 C67 1_555 1_555
H53 C67 1_555 1_555
C68 C67 1_555 1_555
H54 C68 1_555 1_555
H55 C68 1_555 1_555
C69 C68 1_555 1_555
H56 C69 1_555 1_555
H57 C69 1_555 1_555
C70 C65 1_555 1_555
H58 C70 1_555 1_555
C71 H59 1_555 1_555
C72 C71 1_555 1_555
H60 C72 1_555 1_555
H61 C72 1_555 1_555
C73 C72 1_555 1_555
H62 C73 1_555 1_555
H63 C73 1_555 1_555
C74 C73 1_555 1_555
H64 C74 1_555 1_555
H65 C74 1_555 1_555
C75 C74 1_555 1_555
H66 C75 1_555 1_555
H67 C75 1_555 1_555
C76 C71 1_555 1_555
H68 C76 1_555 1_555
N5 C70 1_555 1_555
N6 C61 1_555 1_555
N7 C64 1_555 1_555
N8 C76 1_555 1_555
C77 H69 1_555 1_555
H70 C77 1_555 1_555
H71 C77 1_555 1_555
C78 C77 1_555 1_555
H72 C78 1_555 1_555
H73 C78 1_555 1_555
C79 H74 1_555 1_555
H75 C79 1_555 1_555
C80 C79 1_555 1_555
H76 C80 1_555 1_555
H77 C80 1_555 1_555
H78 C80 1_555 1_555
O1 C78 1_555 1_555
C81 H79 1_555 1_555
H80 C81 1_555 1_555
H81 C81 1_555 1_555
C82 C81 1_555 1_555
H82 C82 1_555 1_555
H83 C82 1_555 1_555
C83 H84 1_555 1_555
H85 C83 1_555 1_555
C84 C83 1_555 1_555
H86 C84 1_555 1_555
H87 C84 1_555 1_555
H88 C84 1_555 1_555
O2 C82 1_555 1_555
C1A C2A 1_555 1_555
C2A H1A 1_555 1_555
C3A C2A 1_555 1_555
C4A C3A 1_555 1_555
H2A C4A 1_555 1_555
C5A C4A 1_555 1_555
C6A C1A 1_555 1_555
H3A C6A 1_555 1_555
C7A C5A 1_555 1_555
C8A C7A 1_555 1_555
C9A C8A 1_555 1_555
C10A C9A 1_555 1_555
H4A C10A 1_555 1_555
C11A C10A 1_555 1_555
H5A C11A 1_555 1_555
C12A C11A 1_555 1_555
C13A C12A 1_555 1_555
H6A C13A 1_555 1_555
C14A C9A 1_555 1_555
H7A C14A 1_555 1_555
C15A C12A 1_555 1_555
C16A C15A 1_555 1_555
C17A C16A 1_555 1_555
C18A C17A 1_555 1_555
H8A C18A 1_555 1_555
C19A C18A 1_555 1_555
C20A C19A 1_555 1_555
H9A C20A 1_555 1_555
C21A C20A 1_555 1_555
C22A C17A 1_555 1_555
H10A C22A 1_555 1_555
C23A C1A 1_555 1_555
H11A C23A 1_555 1_555
C24A C3A 1_555 1_555
H12A C24A 1_555 1_555
C25A C21A 1_555 1_555
H13A C25A 1_555 1_555
C26A C19A 1_555 1_555
H14A C26A 1_555 1_555
C27A H15A 1_555 1_555
C28A C27A 1_555 1_555
H16A C28A 1_555 1_555
H17A C28A 1_555 1_555
C29A C28A 1_555 1_555
H18A C29A 1_555 1_555
H19A C29A 1_555 1_555
C30A C29A 1_555 1_555
H20A C30A 1_555 1_555
H21A C30A 1_555 1_555
C31A C30A 1_555 1_555
H22A C31A 1_555 1_555
H23A C31A 1_555 1_555
C32A C27A 1_555 1_555
H24A C32A 1_555 1_555
C33A H25A 1_555 1_555
C34A C33A 1_555 1_555
H26A C34A 1_555 1_555
H27A C34A 1_555 1_555
C35A C34A 1_555 1_555
H28A C35A 1_555 1_555
H29A C35A 1_555 1_555
C36A C35A 1_555 1_555
H30A C36A 1_555 1_555
H31A C36A 1_555 1_555
C37A C36A 1_555 1_555
H32A C37A 1_555 1_555
H33A C37A 1_555 1_555
C38A C33A 1_555 1_555
H34A C38A 1_555 1_555
N1A C24A 1_555 1_555
N2A C23 1_555 1_555
N3A C26A 1_555 1_555
N4A C25 1_555 1_555
C1B C2B 1_555 1_555
C2B H1B 1_555 1_555
C3B C2B 1_555 1_555
C4B C3B 1_555 1_555
H2B C4B 1_555 1_555
C5B C4B 1_555 1_555
C6B C1B 1_555 1_555
H3B C6B 1_555 1_555
C7B C5B 1_555 1_555
C8B C7B 1_555 1_555
C9B C8B 1_555 1_555
C10B C9B 1_555 1_555
H4B C10B 1_555 1_555
C11B C10B 1_555 1_555
H5B C11B 1_555 1_555
C12B C11B 1_555 1_555
C13B C12B 1_555 1_555
H6B C13B 1_555 1_555
C14B C9B 1_555 1_555
H7B C14B 1_555 1_555
C15B C12B 1_555 1_555
C16B C15B 1_555 1_555
C17B C16B 1_555 1_555
C18B C17B 1_555 1_555
H8B C18B 1_555 1_555
C19B C18B 1_555 1_555
C20B C19B 1_555 1_555
H9B C20B 1_555 1_555
C21B C20B 1_555 1_555
C22B C17B 1_555 1_555
H10B C22B 1_555 1_555
C23B N2 1_555 1_555
H11B C23B 1_555 1_555
C24B C3B 1_555 1_555
H12B C24B 1_555 1_555
C25B N4 1_555 1_555
H13B C25B 1_555 1_555
C26B C19B 1_555 1_555
H14B C26B 1_555 1_555
C27B H15B 1_555 1_555
C28B C27B 1_555 1_555
H16B C28B 1_555 1_555
H17B C28B 1_555 1_555
C29B C28B 1_555 1_555
H18B C29B 1_555 1_555
H19B C29B 1_555 1_555
C30B C29B 1_555 1_555
H20B C30B 1_555 1_555
H21B C30B 1_555 1_555
C31B C30B 1_555 1_555
H22B C31B 1_555 1_555
H23B C31B 1_555 1_555
C32B C27B 1_555 1_555
H24B C32B 1_555 1_555
C33B H25B 1_555 1_555
C34B C33B 1_555 1_555
H26B C34B 1_555 1_555
H27B C34B 1_555 1_555
C35B C34B 1_555 1_555
H28B C35B 1_555 1_555
H29B C35B 1_555 1_555
C36B C35B 1_555 1_555
H30B C36B 1_555 1_555
H31B C36B 1_555 1_555
C37B C36B 1_555 1_555
H32B C37B 1_555 1_555
H33B C37B 1_555 1_555
C38B C33B 1_555 1_555
H34B C38B 1_555 1_555
N1B C24B 1_555 1_555
N2B C23A 1_555 1_555
N3B C26B 1_555 1_555
N4B C25A 1_555 1_555
C39A C40A 1_555 1_555
C40A H35A 1_555 1_555
C41A C40A 1_555 1_555
C42A C41A 1_555 1_555
H36A C42A 1_555 1_555
C43A C42A 1_555 1_555
C44A C39A 1_555 1_555
H37A C44A 1_555 1_555
C45A C43A 1_555 1_555
C46A C45A 1_555 1_555
C47A C46A 1_555 1_555
C48A C47A 1_555 1_555
H38A C48A 1_555 1_555
C49A C48A 1_555 1_555
H39A C49A 1_555 1_555
C50A C49A 1_555 1_555
C51A C50A 1_555 1_555
H40A C51A 1_555 1_555
C52A C47A 1_555 1_555
H41A C52A 1_555 1_555
C53A C50A 1_555 1_555
C54A C53A 1_555 1_555
C55A C54A 1_555 1_555
C56A C55A 1_555 1_555
H42A C56A 1_555 1_555
C57A C56A 1_555 1_555
C58A C57A 1_555 1_555
H43A C58A 1_555 1_555
C59A C58A 1_555 1_555
C60A C55A 1_555 1_555
H44A C60A 1_555 1_555
C61A C39A 1_555 1_555
H45A C61A 1_555 1_555
C62A N5 1_555 1_555
H46A C62A 1_555 1_555
C63A C59A 1_555 1_555
H47A C63A 1_555 1_555
C64A C57A 1_555 1_555
H48A C64A 1_555 1_555
C65A H49A 1_555 1_555
C66A C65A 1_555 1_555
H50A C66A 1_555 1_555
H51A C66A 1_555 1_555
C67A C66A 1_555 1_555
H52A C67A 1_555 1_555
H53A C67A 1_555 1_555
C68A C67A 1_555 1_555
H54A C68A 1_555 1_555
H55A C68A 1_555 1_555
C69A C68A 1_555 1_555
H56A C69A 1_555 1_555
H57A C69A 1_555 1_555
C70A C65A 1_555 1_555
H58A C70A 1_555 1_555
C71A H59A 1_555 1_555
C72A C71A 1_555 1_555
H60A C72A 1_555 1_555
H61A C72A 1_555 1_555
C73A C72A 1_555 1_555
H62A C73A 1_555 1_555
H63A C73A 1_555 1_555
C74A C73A 1_555 1_555
H64A C74A 1_555 1_555
H65A C74A 1_555 1_555
C75A C74A 1_555 1_555
H66A C75A 1_555 1_555
H67A C75A 1_555 1_555
C76A C71A 1_555 1_555
H68A C76A 1_555 1_555
N5A C70A 1_555 1_555
N6A C61A 1_555 1_555
N7A C64A 1_555 1_555
N8A C63 1_555 1_555
C39B C40B 1_555 1_555
C40B H35B 1_555 1_555
C41B C40B 1_555 1_555
C42B C41B 1_555 1_555
H36B C42B 1_555 1_555
C43B C42B 1_555 1_555
C44B C39B 1_555 1_555
H37B C44B 1_555 1_555
C45B C43B 1_555 1_555
C46B C45B 1_555 1_555
C47B C46B 1_555 1_555
C48B C47B 1_555 1_555
H38B C48B 1_555 1_555
C49B C48B 1_555 1_555
H39B C49B 1_555 1_555
C50B C49B 1_555 1_555
C51B C50B 1_555 1_555
H40B C51B 1_555 1_555
C52B C47B 1_555 1_555
H41B C52B 1_555 1_555
C53B C50B 1_555 1_555
C54B C53B 1_555 1_555
C55B C54B 1_555 1_555
C56B C55B 1_555 1_555
H42B C56B 1_555 1_555
C57B C56B 1_555 1_555
C58B C57B 1_555 1_555
H43B C58B 1_555 1_555
C59B C58B 1_555 1_555
C60B C55B 1_555 1_555
H44B C60B 1_555 1_555
C61B C39B 1_555 1_555
H45B C61B 1_555 1_555
C62B N5A 1_555 1_555
H46B C62B 1_555 1_555
C63B N8 1_555 1_555
H47B C63B 1_555 1_555
C64B C57B 1_555 1_555
H48B C64B 1_555 1_555
C65B H49B 1_555 1_555
C66B C65B 1_555 1_555
H50B C66B 1_555 1_555
H51B C66B 1_555 1_555
C67B C66B 1_555 1_555
H52B C67B 1_555 1_555
H53B C67B 1_555 1_555
C68B C67B 1_555 1_555
H54B C68B 1_555 1_555
H55B C68B 1_555 1_555
C69B C68B 1_555 1_555
H56B C69B 1_555 1_555
H57B C69B 1_555 1_555
C70B C65B 1_555 1_555
H58B C70B 1_555 1_555
C71B H59B 1_555 1_555
C72B C71B 1_555 1_555
H60B C72B 1_555 1_555
H61B C72B 1_555 1_555
C73B C72B 1_555 1_555
H62B C73B 1_555 1_555
H63B C73B 1_555 1_555
C74B C73B 1_555 1_555
H64B C74B 1_555 1_555
H65B C74B 1_555 1_555
C75B C74B 1_555 1_555
H66B C75B 1_555 1_555
H67B C75B 1_555 1_555
C76B C71B 1_555 1_555
H68B C76B 1_555 1_555
N5B C62 1_555 1_555
N6B C61B 1_555 1_555
N7B C64B 1_555 1_555
N8B C63A 1_555 1_555
C5 C6 1_555 1_555
C13 C14 1_555 1_555
C21 C22 1_555 1_555
C27 N3 1_555 1_555
C31 C32 1_555 1_555
C33 N1 1_555 1_555
C37 C38 1_555 1_555
C43 C44 1_555 1_555
C51 C52 1_555 1_555
C59 C60 1_555 1_555
C65 N6 1_555 1_555
C69 C70 1_555 1_555
C71 N7 1_555 1_555
C75 C76 1_555 1_555
C79 O1 1_555 1_555
C83 O2 1_555 1_555
C5A C6A 1_555 1_555
C13A C14A 1_555 1_555
C21A C22A 1_555 1_555
C27A N3A 1_555 1_555
C31A C32A 1_555 1_555
C32A N4A 1_555 1_555
C33A N1A 1_555 1_555
C37A C38A 1_555 1_555
C38A N2A 1_555 1_555
C1B C23B 1_555 1_555
C5B C6B 1_555 1_555
C13B C14B 1_555 1_555
C21B C22B 1_555 1_555
C21B C25B 1_555 1_555
C27B N3B 1_555 1_555
C31B C32B 1_555 1_555
C32B N4B 1_555 1_555
C33B N1B 1_555 1_555
C37B C38B 1_555 1_555
C38B N2B 1_555 1_555
C41A C62A 1_555 1_555
C43A C44A 1_555 1_555
C51A C52A 1_555 1_555
C59A C60A 1_555 1_555
C65A N6A 1_555 1_555
C69A C70A 1_555 1_555
C71A N7A 1_555 1_555
C75A C76A 1_555 1_555
C76A N8A 1_555 1_555
C41B C62B 1_555 1_555
C43B C44B 1_555 1_555
C51B C52B 1_555 1_555
C59B C60B 1_555 1_555
C59B C63B 1_555 1_555
C65B N6B 1_555 1_555
C69B C70B 1_555 1_555
C70B N5B 1_555 1_555
C71B N7B 1_555 1_555
C75B C76B 1_555 1_555
C76B N8B 1_555 1_555

#END
