
#######################################################################
#
#                 Cambridge Crystallographic Data Centre
#                                CCDC 
#
#######################################################################
#
# If this CIF has been generated from an entry in the Cambridge 
# Structural Database, then it will include bibliographic, chemical, 
# crystal, experimental, refinement or atomic coordinate data resulting 
# from the CCDC's data processing and validation procedures.
#
#######################################################################

data_ABIPEJ
_chemical_formula_moiety         'C114 H104 N12 O1.25'
_symmetry_cell_setting           rhombohedral
_symmetry_space_group_name_H-M   'R -3 c'
_symmetry_Int_Tables_number      167
_space_group_name_Hall           '-R 3 2"c'
loop_
_symmetry_equiv_pos_site_id
_symmetry_equiv_pos_as_xyz
1 x,y,z
2 -y,x-y,z
3 -x+y,-x,z
4 x-y,-y,1/2-z
5 -x,-x+y,1/2-z
6 y,x,1/2-z
7 2/3+x,1/3+y,1/3+z
8 2/3-y,1/3+x-y,1/3+z
9 2/3-x+y,1/3-x,1/3+z
10 2/3+x-y,1/3-y,5/6-z
11 2/3-x,1/3-x+y,5/6-z
12 2/3+y,1/3+x,5/6-z
13 1/3+x,2/3+y,2/3+z
14 1/3-y,2/3+x-y,2/3+z
15 1/3-x+y,2/3-x,2/3+z
16 1/3+x-y,2/3-y,1/6-z
17 1/3-x,2/3-x+y,1/6-z
18 1/3+y,2/3+x,1/6-z
19 -x,-y,-z
20 y,-x+y,-z
21 x-y,x,-z
22 -x+y,y,1/2+z
23 x,x-y,1/2+z
24 -y,-x,1/2+z
25 1/3-x,2/3-y,2/3-z
26 1/3+y,2/3-x+y,2/3-z
27 1/3+x-y,2/3+x,2/3-z
28 1/3-x+y,2/3+y,1/6+z
29 1/3+x,2/3+x-y,1/6+z
30 1/3-y,2/3-x,1/6+z
31 2/3-x,1/3-y,1/3-z
32 2/3+y,1/3-x+y,1/3-z
33 2/3+x-y,1/3+x,1/3-z
34 2/3-x+y,1/3+y,5/6+z
35 2/3+x,1/3+x-y,5/6+z
36 2/3-y,1/3-x,5/6+z
_cell_length_a                   22.347(5)
_cell_length_b                   22.347(5)
_cell_length_c                   42.123(10)
_cell_angle_alpha                90
_cell_angle_beta                 90
_cell_angle_gamma                120
_cell_volume                     18217.5
loop_
_atom_site_label
_atom_site_type_symbol
_atom_site_fract_x
_atom_site_fract_y
_atom_site_fract_z
C1 C 0.67905(10) 0.50810(10) 0.40167(4)
C2 C 0.69001(11) 0.52709(12) 0.43367(4)
H1 H 0.7340 0.5596 0.4406
C3 C 0.63581(11) 0.49787(12) 0.45524(4)
C4 C 0.56937(11) 0.45014(12) 0.44451(4)
H2 H 0.5329 0.4310 0.4589
C5 C 0.55719(10) 0.43094(11) 0.41285(4)
C6 C 0.61258(10) 0.45957(10) 0.39181(4)
H3 H 0.6051 0.4460 0.3706
C7 C 0.64665(12) 0.51299(12) 0.48859(5)
C8 C 0.65254(12) 0.52108(13) 0.51650(5)
C9 C 0.65965(12) 0.52841(12) 0.55038(4)
C10 C 0.72287(14) 0.5638(2) 0.56453(5)
H4 H 0.7622 0.5866 0.5519
C11 C 0.60367(14) 0.50344(19) 0.56955(5)
H5 H 0.5598 0.4831 0.5606
C12 C 0.73592(10) 0.53796(10) 0.37850(4)
H6 H 0.7262 0.5224 0.3576
C13 C 0.84781(10) 0.60901(9) 0.35965(4)
H7 H 0.8265 0.5819 0.3404
C14 C 0.87148(12) 0.68477(11) 0.35299(5)
H8 H 0.8320 0.6889 0.3465
H9 H 0.8900 0.7113 0.3723
C15 C 0.92630(14) 0.71457(12) 0.32716(6)
H10 H 0.9062 0.6917 0.3072
H11 H 0.9420 0.7634 0.3246
C16 C 0.98757(12) 0.70551(11) 0.33502(6)
H12 H 1.0118 0.7337 0.3533
H13 H 1.0194 0.7209 0.3172
C17 C 0.96391(11) 0.63018(10) 0.34221(5)
H14 H 1.0034 0.6260 0.3485
H15 H 0.9444 0.6028 0.3232
C18 C 0.91017(9) 0.60214(9) 0.36858(4)
H16 H 0.9309 0.6288 0.3880
C19 C 0.89370(11) 0.51354(10) 0.40263(4)
H17 H 0.9110 0.5483 0.4179
N1 N 0.79713(8) 0.58349(8) 0.38527(3)
N2 N 0.88865(8) 0.52953(7) 0.37462(3)
C1A C 0.49190(10) 0.17095(14) 0.40167(4)
C2A C 0.47291(12) 0.16292(16) 0.43367(4)
H1A H 0.4404 0.1744 0.4406
C3A C 0.50213(12) 0.13794(16) 0.45524(4)
C4A C 0.54986(12) 0.11923(16) 0.44451(4)
H2A H 0.5690 0.1019 0.4589
C5A C 0.56906(11) 0.12625(15) 0.41285(4)
C6A C 0.54043(10) 0.15301(14) 0.39181(4)
H3A H 0.5540 0.1591 0.3706
C7A C 0.48701(12) 0.13366(17) 0.48859(5)
C8A C 0.47892(13) 0.13146(18) 0.51650(5)
C9A C 0.47159(12) 0.13124(17) 0.55038(4)
C10A C 0.4362(2) 0.15907(24) 0.56453(5)
H4A H 0.4134 0.1756 0.5519
C11A C 0.49656(19) 0.10023(24) 0.56955(5)
H5A H 0.5169 0.0767 0.5606
C12A C 0.46204(10) 0.19796(14) 0.37850(4)
H6A H 0.4776 0.2038 0.3576
C13A C 0.39099(9) 0.23880(13) 0.35965(4)
H7A H 0.4181 0.2446 0.3404
C14A C 0.31523(11) 0.18671(16) 0.35299(5)
H8A H 0.3111 0.1431 0.3465
H9A H 0.2887 0.1787 0.3723
C15A C 0.28543(12) 0.21173(18) 0.32716(6)
H10A H 0.3083 0.2145 0.3072
H11A H 0.2366 0.1786 0.3246
C16A C 0.29449(11) 0.28206(16) 0.33502(6)
H12A H 0.2663 0.2781 0.3533
H13A H 0.2791 0.2985 0.3172
C17A C 0.36982(10) 0.33373(15) 0.34221(5)
H14A H 0.3740 0.3774 0.3485
H15A H 0.3972 0.3416 0.3232
C18A C 0.39786(9) 0.30803(13) 0.36858(4)
H16A H 0.3712 0.3021 0.3880
C19A C 0.48646(10) 0.38016(15) 0.40263(4)
H17A H 0.4517 0.3627 0.4179
N1A N 0.41651(8) 0.21364(11) 0.38527(3)
N2A N 0.47047(7) 0.35912(11) 0.37462(3)
C1B C 0.82905(14) 0.32095(10) 0.40167(4)
C2B C 0.83708(16) 0.30999(11) 0.43367(4)
H1B H 0.8256 0.2660 0.4406
C3B C 0.86206(16) 0.36419(11) 0.45524(4)
C4B C 0.88077(16) 0.43063(11) 0.44451(4)
H2B H 0.8981 0.4671 0.4589
C5B C 0.87375(15) 0.44281(10) 0.41285(4)
C6B C 0.84699(14) 0.38742(10) 0.39181(4)
H3B H 0.8409 0.3949 0.3706
C7B C 0.86634(17) 0.35335(12) 0.48859(5)
C8B C 0.86854(18) 0.34746(12) 0.51650(5)
C9B C 0.86876(17) 0.34035(12) 0.55038(4)
C10B C 0.84093(24) 0.27713(14) 0.56453(5)
H4B H 0.8244 0.2378 0.5519
C11B C 0.89977(24) 0.39633(14) 0.56955(5)
H5B H 0.9233 0.4402 0.5606
C12B C 0.80204(14) 0.26408(10) 0.37850(4)
H6B H 0.7962 0.2738 0.3576
C13B C 0.76120(13) 0.15219(10) 0.35965(4)
H7B H 0.7554 0.1735 0.3404
C14B C 0.81329(16) 0.12852(12) 0.35299(5)
H8B H 0.8569 0.1680 0.3465
H9B H 0.8213 0.1100 0.3723
C15B C 0.78827(18) 0.07370(14) 0.32716(6)
H10B H 0.7855 0.0938 0.3072
H11B H 0.8214 0.0580 0.3246
C16B C 0.71794(16) 0.01243(12) 0.33502(6)
H12B H 0.7219 -0.0118 0.3533
H13B H 0.7015 -0.0194 0.3172
C17B C 0.66627(15) 0.03609(11) 0.34221(5)
H14B H 0.6226 -0.0034 0.3485
H15B H 0.6584 0.0556 0.3232
C18B C 0.69197(13) 0.08983(9) 0.36858(4)
H16B H 0.6979 0.0691 0.3880
C19B C 0.61984(15) 0.10630(11) 0.40263(4)
H17B H 0.6373 0.0890 0.4179
N1B N 0.78636(11) 0.20287(8) 0.38527(3)
N2B N 0.64088(11) 0.11135(8) 0.37462(3)
C1P C 0.65428(10) 0.49572(14) 0.76500(4)
C2P C 0.64332(11) 0.50375(16) 0.73300(4)
H1P H 0.5993 0.4923 0.7261
C3P C 0.69752(11) 0.52873(16) 0.71143(4)
C4P C 0.76396(11) 0.54744(16) 0.72216(4)
H2P H 0.8004 0.5648 0.7078
C5P C 0.77614(10) 0.54042(15) 0.75382(4)
C6P C 0.72075(10) 0.51366(14) 0.77486(4)
H3P H 0.7282 0.5076 0.7961
C7P C 0.68668(12) 0.53301(17) 0.67808(5)
C8P C 0.68079(12) 0.53521(18) 0.65017(5)
C9P C 0.67368(12) 0.53543(17) 0.61629(4)
C10P C 0.61046(14) 0.50760(24) 0.60214(5)
H4P H 0.5711 0.4911 0.6148
C11P C 0.72966(14) 0.56644(24) 0.59712(5)
H5P H 0.7735 0.5900 0.6061
C12P C 0.59741(10) 0.46871(14) 0.78817(4)
H6P H 0.6071 0.4629 0.8091
C13P C 0.48552(10) 0.42787(13) 0.80702(4)
H7P H 0.5068 0.4221 0.8263
C14P C 0.46185(12) 0.47996(16) 0.81368(5)
H8P H 0.5013 0.5236 0.8202
H9P H 0.4433 0.4880 0.7944
C15P C 0.40703(14) 0.45494(18) 0.83951(6)
H10P H 0.4271 0.4522 0.8595
H11P H 0.3913 0.4881 0.8421
C16P C 0.34576(12) 0.38461(16) 0.83165(6)
H12P H 0.3215 0.3886 0.8134
H13P H 0.3139 0.3682 0.8495
C17P C 0.36942(11) 0.33294(15) 0.82446(5)
H14P H 0.3299 0.2893 0.8182
H15P H 0.3889 0.3251 0.8435
C18P C 0.42316(9) 0.35864(13) 0.79809(4)
H16P H 0.4024 0.3646 0.7787
C19P C 0.43963(11) 0.28651(15) 0.76404(4)
H17P H 0.4223 0.3040 0.7488
N1P N 0.53620(8) 0.45303(11) 0.78140(3)
N2P N 0.44468(8) 0.30755(11) 0.79205(3)
C1Q C 0.84143(10) 0.34572(10) 0.76500(4)
C2Q C 0.86042(12) 0.35668(11) 0.73300(4)
H1Q H 0.8929 0.4007 0.7261
C3Q C 0.83120(12) 0.30248(11) 0.71143(4)
C4Q C 0.78347(12) 0.23604(11) 0.72216(4)
H2Q H 0.7643 0.1996 0.7078
C5Q C 0.76427(11) 0.22386(10) 0.75382(4)
C6Q C 0.79290(10) 0.27925(10) 0.77486(4)
H3Q H 0.7793 0.2718 0.7961
C7Q C 0.84632(12) 0.31332(12) 0.67808(5)
C8Q C 0.85441(13) 0.31921(12) 0.65017(5)
C9Q C 0.86174(12) 0.32632(12) 0.61629(4)
C10Q C 0.8971(2) 0.38954(14) 0.60214(5)
H4Q H 0.9199 0.4289 0.6148
C11Q C 0.83677(19) 0.27034(14) 0.59712(5)
H5Q H 0.8164 0.2265 0.6061
C12Q C 0.87129(10) 0.40259(10) 0.78817(4)
H6Q H 0.8557 0.3929 0.8091
C13Q C 0.94234(9) 0.51448(10) 0.80702(4)
H7Q H 0.9152 0.4932 0.8263
C14Q C 1.01810(11) 0.53815(12) 0.81368(5)
H8Q H 1.0222 0.4987 0.8202
H9Q H 1.0446 0.5567 0.7944
C15Q C 1.04790(12) 0.59297(14) 0.83951(6)
H10Q H 1.0250 0.5729 0.8595
H11Q H 1.0967 0.6087 0.8421
C16Q C 1.03884(11) 0.65424(12) 0.83165(6)
H12Q H 1.0670 0.6785 0.8134
H13Q H 1.0542 0.6861 0.8495
C17Q C 0.96351(10) 0.63058(11) 0.82446(5)
H14Q H 0.9593 0.6701 0.8182
H15Q H 0.9361 0.6111 0.8435
C18Q C 0.93547(9) 0.57684(9) 0.79809(4)
H16Q H 0.9621 0.5976 0.7787
C19Q C 0.84687(10) 0.56037(11) 0.76404(4)
H17Q H 0.8816 0.5777 0.7488
N1Q N 0.91682(8) 0.46380(8) 0.78140(3)
N2Q N 0.86286(7) 0.55532(8) 0.79205(3)
C1O C 0.50428(14) 0.15857(10) 0.76500(4)
C2O C 0.49625(16) 0.13958(12) 0.73300(4)
H1O H 0.5077 0.1071 0.7261
C3O C 0.47127(16) 0.16880(12) 0.71143(4)
C4O C 0.45256(16) 0.21653(12) 0.72216(4)
H2O H 0.4352 0.2357 0.7078
C5O C 0.45958(15) 0.23573(11) 0.75382(4)
C6O C 0.48634(14) 0.20710(10) 0.77486(4)
H3O H 0.4924 0.2207 0.7961
C7O C 0.46699(17) 0.15368(12) 0.67808(5)
C8O C 0.46479(18) 0.14559(13) 0.65017(5)
C9O C 0.46457(17) 0.13826(12) 0.61629(4)
C10O C 0.49240(24) 0.1029(2) 0.60214(5)
H4O H 0.5089 0.0801 0.6148
C11O C 0.43356(24) 0.16323(19) 0.59712(5)
H5O H 0.4100 0.1836 0.6061
C12O C 0.53129(14) 0.12871(10) 0.78817(4)
H6O H 0.5371 0.1443 0.8091
C13O C 0.57213(13) 0.05766(9) 0.80702(4)
H7O H 0.5779 0.0848 0.8263
C14O C 0.52004(16) -0.01810(11) 0.81368(5)
H8O H 0.4764 -0.0222 0.8202
H9O H 0.5120 -0.0446 0.7944
C15O C 0.54506(18) -0.04790(12) 0.83951(6)
H10O H 0.5478 -0.0250 0.8595
H11O H 0.5119 -0.0967 0.8421
C16O C 0.61539(16) -0.03884(11) 0.83165(6)
H12O H 0.6114 -0.0670 0.8134
H13O H 0.6318 -0.0542 0.8495
C17O C 0.66706(15) 0.03649(10) 0.82446(5)
H14O H 0.7107 0.0407 0.8182
H15O H 0.6749 0.0639 0.8435
C18O C 0.64136(13) 0.06453(9) 0.79809(4)
H16O H 0.6354 0.0379 0.7787
C19O C 0.71349(15) 0.15313(10) 0.76404(4)
H17O H 0.6960 0.1184 0.7488
N1O N 0.54697(11) 0.08318(8) 0.78140(3)
N2O N 0.69245(11) 0.13714(7) 0.79205(3)
O1 O 0.6667 0.3333 0.4285(7)
O2? O 0.6667 0.3333 0.3452(12)
O3? O 0.6667 0.3333 0.3828(8)
O4? O 0.6667 0.3333 0.5230(18)
O5? O 0.6667 0.3333 0.560(2)
O6? O 0.6667 0.3333 0.4770(14)
loop_
_geom_bond_atom_site_label_1
_geom_bond_atom_site_label_2
_geom_bond_site_symmetry_1
_geom_bond_site_symmetry_2
C1 C2 1_555 1_555
C2 H1 1_555 1_555
C3 C2 1_555 1_555
C4 C3 1_555 1_555
H2 C4 1_555 1_555
C5 C4 1_555 1_555
C6 C1 1_555 1_555
H3 C6 1_555 1_555
C7 C3 1_555 1_555
C8 C7 1_555 1_555
C9 C8 1_555 1_555
C10 C9 1_555 1_555
H4 C10 1_555 1_555
C11 C9 1_555 1_555
H5 C11 1_555 1_555
C12 C1 1_555 1_555
H6 C12 1_555 1_555
C13 H7 1_555 1_555
C14 C13 1_555 1_555
H8 C14 1_555 1_555
H9 C14 1_555 1_555
C15 C14 1_555 1_555
H10 C15 1_555 1_555
H11 C15 1_555 1_555
C16 C15 1_555 1_555
H12 C16 1_555 1_555
H13 C16 1_555 1_555
C17 C16 1_555 1_555
H14 C17 1_555 1_555
H15 C17 1_555 1_555
C18 C13 1_555 1_555
H16 C18 1_555 1_555
C19 H17 1_555 1_555
N1 C12 1_555 1_555
N2 C18 1_555 1_555
C1A C2A 1_555 1_555
C2A H1A 1_555 1_555
C3A C2A 1_555 1_555
C4A C3A 1_555 1_555
H2A C4A 1_555 1_555
C5A C4A 1_555 1_555
C6A C1A 1_555 1_555
H3A C6A 1_555 1_555
C7A C3A 1_555 1_555
C8A C7A 1_555 1_555
C9A C8A 1_555 1_555
C10A C9A 1_555 1_555
H4A C10A 1_555 1_555
C11A C9A 1_555 1_555
H5A C11A 1_555 1_555
C12A C1A 1_555 1_555
H6A C12A 1_555 1_555
C13A H7A 1_555 1_555
C14A C13A 1_555 1_555
H8A C14A 1_555 1_555
H9A C14A 1_555 1_555
C15A C14A 1_555 1_555
H10A C15A 1_555 1_555
H11A C15A 1_555 1_555
C16A C15A 1_555 1_555
H12A C16A 1_555 1_555
H13A C16A 1_555 1_555
C17A C16A 1_555 1_555
H14A C17A 1_555 1_555
H15A C17A 1_555 1_555
C18A C13A 1_555 1_555
H16A C18A 1_555 1_555
C19A C5 1_555 1_555
H17A C19A 1_555 1_555
N1A C12A 1_555 1_555
N2A C18A 1_555 1_555
C1B C2B 1_555 1_555
C2B H1B 1_555 1_555
C3B C2B 1_555 1_555
C4B C3B 1_555 1_555
H2B C4B 1_555 1_555
C5B C19 1_555 1_555
C6B C1B 1_555 1_555
H3B C6B 1_555 1_555
C7B C3B 1_555 1_555
C8B C7B 1_555 1_555
C9B C8B 1_555 1_555
C10B C9B 1_555 1_555
H4B C10B 1_555 1_555
C11B C9B 1_555 1_555
H5B C11B 1_555 1_555
C12B C1B 1_555 1_555
H6B C12B 1_555 1_555
C13B H7B 1_555 1_555
C14B C13B 1_555 1_555
H8B C14B 1_555 1_555
H9B C14B 1_555 1_555
C15B C14B 1_555 1_555
H10B C15B 1_555 1_555
H11B C15B 1_555 1_555
C16B C15B 1_555 1_555
H12B C16B 1_555 1_555
H13B C16B 1_555 1_555
C17B C16B 1_555 1_555
H14B C17B 1_555 1_555
H15B C17B 1_555 1_555
C18B C13B 1_555 1_555
H16B C18B 1_555 1_555
C19B C5A 1_555 1_555
H17B C19B 1_555 1_555
N1B C12B 1_555 1_555
N2B C18B 1_555 1_555
C1P C2P 1_555 1_555
C2P H1P 1_555 1_555
C3P C2P 1_555 1_555
C4P C3P 1_555 1_555
H2P C4P 1_555 1_555
C5P C4P 1_555 1_555
C6P C1P 1_555 1_555
H3P C6P 1_555 1_555
C7P C3P 1_555 1_555
C8P C7P 1_555 1_555
C9P C8P 1_555 1_555
C10P C11 1_555 1_555
H4P C10P 1_555 1_555
C11P C10 1_555 1_555
H5P C11P 1_555 1_555
C12P C1P 1_555 1_555
H6P C12P 1_555 1_555
C13P H7P 1_555 1_555
C14P C13P 1_555 1_555
H8P C14P 1_555 1_555
H9P C14P 1_555 1_555
C15P C14P 1_555 1_555
H10P C15P 1_555 1_555
H11P C15P 1_555 1_555
C16P C15P 1_555 1_555
H12P C16P 1_555 1_555
H13P C16P 1_555 1_555
C17P C16P 1_555 1_555
H14P C17P 1_555 1_555
H15P C17P 1_555 1_555
C18P C13P 1_555 1_555
H16P C18P 1_555 1_555
C19P H17P 1_555 1_555
N1P C12P 1_555 1_555
N2P C18P 1_555 1_555
C1Q C2Q 1_555 1_555
C2Q H1Q 1_555 1_555
C3Q C2Q 1_555 1_555
C4Q C3Q 1_555 1_555
H2Q C4Q 1_555 1_555
C5Q C4Q 1_555 1_555
C6Q C1Q 1_555 1_555
H3Q C6Q 1_555 1_555
C7Q C3Q 1_555 1_555
C8Q C7Q 1_555 1_555
C9Q C8Q 1_555 1_555
C10Q C11B 1_555 1_555
H4Q C10Q 1_555 1_555
C11Q C10B 1_555 1_555
H5Q C11Q 1_555 1_555
C12Q C1Q 1_555 1_555
H6Q C12Q 1_555 1_555
C13Q H7Q 1_555 1_555
C14Q C13Q 1_555 1_555
H8Q C14Q 1_555 1_555
H9Q C14Q 1_555 1_555
C15Q C14Q 1_555 1_555
H10Q C15Q 1_555 1_555
H11Q C15Q 1_555 1_555
C16Q C15Q 1_555 1_555
H12Q C16Q 1_555 1_555
H13Q C16Q 1_555 1_555
C17Q C16Q 1_555 1_555
H14Q C17Q 1_555 1_555
H15Q C17Q 1_555 1_555
C18Q C13Q 1_555 1_555
H16Q C18Q 1_555 1_555
C19Q C5P 1_555 1_555
H17Q C19Q 1_555 1_555
N1Q C12Q 1_555 1_555
N2Q C18Q 1_555 1_555
C1O C2O 1_555 1_555
C2O H1O 1_555 1_555
C3O C2O 1_555 1_555
C4O C3O 1_555 1_555
H2O C4O 1_555 1_555
C5O C19P 1_555 1_555
C6O C1O 1_555 1_555
H3O C6O 1_555 1_555
C7O C3O 1_555 1_555
C8O C7O 1_555 1_555
C9O C8O 1_555 1_555
C10O C11A 1_555 1_555
H4O C10O 1_555 1_555
C11O C10A 1_555 1_555
H5O C11O 1_555 1_555
C12O C1O 1_555 1_555
H6O C12O 1_555 1_555
C13O H7O 1_555 1_555
C14O C13O 1_555 1_555
H8O C14O 1_555 1_555
H9O C14O 1_555 1_555
C15O C14O 1_555 1_555
H10O C15O 1_555 1_555
H11O C15O 1_555 1_555
C16O C15O 1_555 1_555
H12O C16O 1_555 1_555
H13O C16O 1_555 1_555
C17O C16O 1_555 1_555
H14O C17O 1_555 1_555
H15O C17O 1_555 1_555
C18O C13O 1_555 1_555
H16O C18O 1_555 1_555
C19O C5Q 1_555 1_555
H17O C19O 1_555 1_555
N1O C12O 1_555 1_555
N2O C18O 1_555 1_555
C5 C6 1_555 1_555
C13 N1 1_555 1_555
C17 C18 1_555 1_555
C19 N2 1_555 1_555
C5A C6A 1_555 1_555
C13A N1A 1_555 1_555
C17A C18A 1_555 1_555
C19A N2A 1_555 1_555
C4B C5B 1_555 1_555
C5B C6B 1_555 1_555
C13B N1B 1_555 1_555
C17B C18B 1_555 1_555
C19B N2B 1_555 1_555
C5P C6P 1_555 1_555
C9P C10P 1_555 1_555
C9P C11P 1_555 1_555
C13P N1P 1_555 1_555
C17P C18P 1_555 1_555
C19P N2P 1_555 1_555
C5Q C6Q 1_555 1_555
C9Q C10Q 1_555 1_555
C9Q C11Q 1_555 1_555
C13Q N1Q 1_555 1_555
C17Q C18Q 1_555 1_555
C19Q N2Q 1_555 1_555
C4O C5O 1_555 1_555
C5O C6O 1_555 1_555
C9O C10O 1_555 1_555
C9O C11O 1_555 1_555
C13O N1O 1_555 1_555
C17O C18O 1_555 1_555
C19O N2O 1_555 1_555

#END
