
#######################################################################
#
#                 Cambridge Crystallographic Data Centre
#                                CCDC 
#
#######################################################################
#
# If this CIF has been generated from an entry in the Cambridge 
# Structural Database, then it will include bibliographic, chemical, 
# crystal, experimental, refinement or atomic coordinate data resulting 
# from the CCDC's data processing and validation procedures.
#
#######################################################################

data_ABIPAF
_chemical_formula_moiety         'C114 H102 N12'
_symmetry_cell_setting           rhombohedral
_symmetry_space_group_name_H-M   'R -3 c'
_symmetry_Int_Tables_number      167
_space_group_name_Hall           '-R 3 2"c'
loop_
_symmetry_equiv_pos_site_id
_symmetry_equiv_pos_as_xyz
1 x,y,z
2 -y,x-y,z
3 -x+y,-x,z
4 x-y,-y,1/2-z
5 -x,-x+y,1/2-z
6 y,x,1/2-z
7 2/3+x,1/3+y,1/3+z
8 2/3-y,1/3+x-y,1/3+z
9 2/3-x+y,1/3-x,1/3+z
10 2/3+x-y,1/3-y,5/6-z
11 2/3-x,1/3-x+y,5/6-z
12 2/3+y,1/3+x,5/6-z
13 1/3+x,2/3+y,2/3+z
14 1/3-y,2/3+x-y,2/3+z
15 1/3-x+y,2/3-x,2/3+z
16 1/3+x-y,2/3-y,1/6-z
17 1/3-x,2/3-x+y,1/6-z
18 1/3+y,2/3+x,1/6-z
19 -x,-y,-z
20 y,-x+y,-z
21 x-y,x,-z
22 -x+y,y,1/2+z
23 x,x-y,1/2+z
24 -y,-x,1/2+z
25 1/3-x,2/3-y,2/3-z
26 1/3+y,2/3-x+y,2/3-z
27 1/3+x-y,2/3+x,2/3-z
28 1/3-x+y,2/3+y,1/6+z
29 1/3+x,2/3+x-y,1/6+z
30 1/3-y,2/3-x,1/6+z
31 2/3-x,1/3-y,1/3-z
32 2/3+y,1/3-x+y,1/3-z
33 2/3+x-y,1/3+x,1/3-z
34 2/3-x+y,1/3+y,5/6+z
35 2/3+x,1/3+x-y,5/6+z
36 2/3-y,1/3-x,5/6+z
_cell_length_a                   22.420(3)
_cell_length_b                   22.420(3)
_cell_length_c                   42.177(5)
_cell_angle_alpha                90
_cell_angle_beta                 90
_cell_angle_gamma                120
_cell_volume                     18360.2
loop_
_atom_site_label
_atom_site_type_symbol
_atom_site_fract_x
_atom_site_fract_y
_atom_site_fract_z
N1 N 0.2080(2) 0.41897(18) 0.61389(6)
N2 N 0.11397(16) 0.46970(16) 0.62394(7)
C1 C 0.3977(2) 0.4881(2) 0.42939(9)
H1 H 0.4428 0.5088 0.4381
C2 C 0.3415(2) 0.4620(2) 0.44953(8)
C3 C 0.2773(2) 0.4285(3) 0.43645(9)
H2 H 0.2379 0.4083 0.4498
C4 C 0.3505(2) 0.4717(2) 0.48350(9)
C5 C 0.3578(2) 0.4823(2) 0.51116(9)
C6 C 0.3680(2) 0.4990(2) 0.54444(8)
C7 C 0.4345(2) 0.5477(2) 0.55470(8)
H3 H 0.4716 0.5666 0.5400
C8 C 0.4461(2) 0.5684(2) 0.58633(8)
C9 C 0.3911(2) 0.5404(2) 0.60687(9)
H4 H 0.3986 0.5550 0.6284
C10 C 0.3252(2) 0.4921(2) 0.59746(8)
C11 C 0.3149(2) 0.4720(2) 0.56570(8)
H5 H 0.2700 0.4388 0.5587
C12 C 0.2693(2) 0.4639(2) 0.62056(8)
H6 H 0.2794 0.4803 0.6418
C13 C 0.1575(2) 0.3935(2) 0.63951(8)
H7 H 0.1787 0.4219 0.6589
C14 C 0.1363(2) 0.3187(2) 0.64663(9)
H8 H 0.1770 0.3161 0.6537
H9 H 0.1182 0.2909 0.6271
C15 C 0.0809(2) 0.2893(2) 0.67255(10)
H10 H 0.0663 0.2403 0.6760
H11 H 0.1007 0.3143 0.6926
C16 C 0.0195(2) 0.2953(2) 0.66405(9)
H12 H -0.0135 0.2788 0.6819
H13 H -0.0038 0.2660 0.6454
C17 C 0.0407(2) 0.3696(2) 0.65653(8)
H14 H 0.0599 0.3980 0.6758
H15 H -0.0003 0.3722 0.6500
C18 C 0.0942(2) 0.3982(2) 0.63022(8)
H16 H 0.0738 0.3705 0.6105
C19 C 0.1047(2) 0.4842(2) 0.59601(8)
H17 H 0.0855 0.4484 0.5807
N1A N 0.58103(18) 0.78903(27) 0.61389(6)
N2A N 0.53030(16) 0.64427(23) 0.62394(7)
C1A C 0.5119(2) 0.9096(3) 0.42939(9)
H1A H 0.4912 0.9340 0.4381
C2A C 0.5380(2) 0.8795(3) 0.44953(8)
C3A C 0.5715(3) 0.8488(4) 0.43645(9)
H2A H 0.5917 0.8296 0.4498
C4A C 0.5283(2) 0.8788(3) 0.48350(9)
C5A C 0.5177(2) 0.8755(3) 0.51116(9)
C6A C 0.5010(2) 0.8690(3) 0.54444(8)
C7A C 0.4523(2) 0.8868(3) 0.55470(8)
H3A H 0.4334 0.9050 0.5400
C8A C 0.4316(2) 0.8777(3) 0.58633(8)
C9A C 0.4596(2) 0.8507(3) 0.60687(9)
H4A H 0.4450 0.8436 0.6284
C10A C 0.5079(2) 0.8331(3) 0.59746(8)
C11A C 0.5280(2) 0.8429(3) 0.56570(8)
H5A H 0.5612 0.8312 0.5587
C12A C 0.5361(2) 0.8054(3) 0.62056(8)
H6A H 0.5197 0.7991 0.6418
C13A C 0.6065(2) 0.7640(3) 0.63951(8)
H7A H 0.5781 0.7568 0.6589
C14A C 0.6813(2) 0.8176(3) 0.64663(9)
H8A H 0.6839 0.8609 0.6537
H9A H 0.7091 0.8273 0.6271
C15A C 0.7107(2) 0.7916(3) 0.67255(10)
H10A H 0.7597 0.8260 0.6760
H11A H 0.6857 0.7864 0.6926
C16A C 0.7047(2) 0.7242(3) 0.66405(9)
H12A H 0.7212 0.7077 0.6819
H13A H 0.7340 0.7302 0.6454
C17A C 0.6304(2) 0.6711(3) 0.65653(8)
H14A H 0.6020 0.6619 0.6758
H15A H 0.6278 0.6275 0.6500
C18A C 0.6018(2) 0.6960(3) 0.63022(8)
H16A H 0.6295 0.7033 0.6105
C19A C 0.5158(2) 0.6205(3) 0.59601(8)
H17A H 0.5516 0.6371 0.5807
N1B N 0.21097(27) 0.7920(2) 0.61389(6)
N2B N 0.35573(23) 0.88603(16) 0.62394(7)
C1B C 0.0904(3) 0.6023(2) 0.42939(9)
H1B H 0.0660 0.5572 0.4381
C2B C 0.1205(3) 0.6585(2) 0.44953(8)
C3B C 0.1512(4) 0.7227(2) 0.43645(9)
H2B H 0.1704 0.7621 0.4498
C4B C 0.1212(3) 0.6495(2) 0.48350(9)
C5B C 0.1245(3) 0.6422(2) 0.51116(9)
C6B C 0.1310(3) 0.6320(2) 0.54444(8)
C7B C 0.1132(3) 0.5655(2) 0.55470(8)
H3B H 0.0950 0.5284 0.5400
C8B C 0.1223(3) 0.5539(2) 0.58633(8)
C9B C 0.1493(3) 0.6089(2) 0.60687(9)
H4B H 0.1564 0.6014 0.6284
C10B C 0.1669(3) 0.6748(2) 0.59746(8)
C11B C 0.1571(3) 0.6851(2) 0.56570(8)
H5B H 0.1688 0.7300 0.5587
C12B C 0.1946(3) 0.7307(2) 0.62056(8)
H6B H 0.2009 0.7206 0.6418
C13B C 0.2360(3) 0.8425(2) 0.63951(8)
H7B H 0.2432 0.8213 0.6589
C14B C 0.1824(3) 0.8637(2) 0.64663(9)
H8B H 0.1391 0.8230 0.6537
H9B H 0.1727 0.8818 0.6271
C15B C 0.2084(3) 0.9191(2) 0.67255(10)
H10B H 0.1740 0.9337 0.6760
H11B H 0.2136 0.8993 0.6926
C16B C 0.2758(3) 0.9805(2) 0.66405(9)
H12B H 0.2923 1.0135 0.6819
H13B H 0.2698 1.0038 0.6454
C17B C 0.3289(3) 0.9593(2) 0.65653(8)
H14B H 0.3381 0.9401 0.6758
H15B H 0.3725 1.0003 0.6500
C18B C 0.3040(3) 0.9058(2) 0.63022(8)
H16B H 0.2967 0.9262 0.6105
C19B C 0.3795(3) 0.8953(2) 0.59601(8)
H17B H 0.3629 0.9145 0.5807
N1J N 0.4587(2) 0.54430(27) 0.21944(6)
N2J N 0.55270(16) 0.68906(23) 0.20939(7)
C1J C 0.2690(2) 0.4237(3) 0.40394(9)
H1J H 0.2239 0.3993 0.3952
C2J C 0.3252(2) 0.4538(3) 0.38380(8)
C3J C 0.3894(2) 0.4845(4) 0.39688(9)
H2J H 0.4288 0.5037 0.3835
C4J C 0.3162(2) 0.4545(3) 0.34983(9)
C5J C 0.3089(2) 0.4578(3) 0.32217(9)
C6J C 0.2987(2) 0.4643(3) 0.28889(8)
C7J C 0.2322(2) 0.4465(3) 0.27863(8)
H3J H 0.1951 0.4283 0.2933
C8J C 0.2206(2) 0.4556(3) 0.24700(8)
C9J C 0.2756(2) 0.4826(3) 0.22646(9)
H4J H 0.2681 0.4897 0.2049
C10J C 0.3415(2) 0.5002(3) 0.23587(8)
C11J C 0.3518(2) 0.4904(3) 0.26763(8)
H5J H 0.3967 0.5021 0.2746
C12J C 0.3974(2) 0.5279(3) 0.21277(8)
H6J H 0.3873 0.5342 0.1915
C13J C 0.5092(2) 0.5693(3) 0.19382(8)
H7J H 0.4880 0.5765 0.1744
C14J C 0.5304(2) 0.5157(3) 0.18670(9)
H8J H 0.4897 0.4724 0.1796
H9J H 0.5485 0.5060 0.2062
C15J C 0.5858(2) 0.5417(3) 0.16078(10)
H10J H 0.6004 0.5073 0.1573
H11J H 0.5660 0.5469 0.1407
C16J C 0.6472(2) 0.6091(3) 0.16928(9)
H12J H 0.6802 0.6256 0.1514
H13J H 0.6705 0.6031 0.1879
C17J C 0.6260(2) 0.6622(3) 0.17680(8)
H14J H 0.6068 0.6714 0.1575
H15J H 0.6670 0.7058 0.1833
C18J C 0.5725(2) 0.6373(3) 0.20311(8)
H16J H 0.5929 0.6300 0.2228
C19J C 0.5620(2) 0.7128(3) 0.23732(8)
H17J H 0.5812 0.6962 0.2526
N1K N 0.08564(18) 0.5413(2) 0.21944(6)
N2K N 0.13637(16) 0.44730(16) 0.20939(7)
C1K C 0.1548(2) 0.7310(2) 0.40394(9)
H1K H 0.1755 0.7761 0.3952
C2K C 0.1287(2) 0.6748(2) 0.38380(8)
C3K C 0.0952(3) 0.6106(2) 0.39688(9)
H2K H 0.0750 0.5712 0.3835
C4K C 0.1384(2) 0.6838(2) 0.34983(9)
C5K C 0.1490(2) 0.6911(2) 0.32217(9)
C6K C 0.1657(2) 0.7013(2) 0.28889(8)
C7K C 0.2144(2) 0.7678(2) 0.27863(8)
H3K H 0.2333 0.8049 0.2933
C8K C 0.2351(2) 0.7794(2) 0.24700(8)
C9K C 0.2071(2) 0.7244(2) 0.22646(9)
H4K H 0.2217 0.7319 0.2049
C10K C 0.1588(2) 0.6585(2) 0.23587(8)
C11K C 0.1387(2) 0.6482(2) 0.26763(8)
H5K H 0.1055 0.6033 0.2746
C12K C 0.1306(2) 0.6026(2) 0.21277(8)
H6K H 0.1470 0.6127 0.1915
C13K C 0.0602(2) 0.4908(2) 0.19382(8)
H7K H 0.0886 0.5120 0.1744
C14K C -0.0146(2) 0.4696(2) 0.18670(9)
H8K H -0.0172 0.5103 0.1796
H9K H -0.0424 0.4515 0.2062
C15K C -0.0440(2) 0.4142(2) 0.16078(10)
H10K H -0.0930 0.3996 0.1573
H11K H -0.0190 0.4340 0.1407
C16K C -0.0380(2) 0.3528(2) 0.16928(9)
H12K H -0.0545 0.3198 0.1514
H13K H -0.0673 0.3295 0.1879
C17K C 0.0363(2) 0.3740(2) 0.17680(8)
H14K H 0.0647 0.3932 0.1575
H15K H 0.0389 0.3330 0.1833
C18K C 0.0649(2) 0.4275(2) 0.20311(8)
H16K H 0.0372 0.4071 0.2228
C19K C 0.1509(2) 0.4380(2) 0.23732(8)
H17K H 0.1151 0.4188 0.2526
N1I N 0.45570(27) 0.91436(18) 0.21944(6)
N2I N 0.31094(23) 0.86363(16) 0.20939(7)
C1I C 0.5763(3) 0.8452(2) 0.40394(9)
H1I H 0.6007 0.8245 0.3952
C2I C 0.5462(3) 0.8713(2) 0.38380(8)
C3I C 0.5155(4) 0.9048(3) 0.39688(9)
H2I H 0.4963 0.9250 0.3835
C4I C 0.5455(3) 0.8616(2) 0.34983(9)
C5I C 0.5422(3) 0.8510(2) 0.32217(9)
C6I C 0.5357(3) 0.8343(2) 0.28889(8)
C7I C 0.5535(3) 0.7856(2) 0.27863(8)
H3I H 0.5717 0.7667 0.2933
C8I C 0.5444(3) 0.7649(2) 0.24700(8)
C9I C 0.5174(3) 0.7929(2) 0.22646(9)
H4I H 0.5103 0.7783 0.2049
C10I C 0.4998(3) 0.8412(2) 0.23587(8)
C11I C 0.5096(3) 0.8613(2) 0.26763(8)
H5I H 0.4979 0.8945 0.2746
C12I C 0.4721(3) 0.8694(2) 0.21277(8)
H6I H 0.4658 0.8530 0.1915
C13I C 0.4307(3) 0.9398(2) 0.19382(8)
H7I H 0.4235 0.9114 0.1744
C14I C 0.4843(3) 1.0146(2) 0.18670(9)
H8I H 0.5276 1.0172 0.1796
H9I H 0.4940 1.0424 0.2062
C15I C 0.4583(3) 1.0440(2) 0.16078(10)
H10I H 0.4927 1.0930 0.1573
H11I H 0.4531 1.0190 0.1407
C16I C 0.3909(3) 1.0380(2) 0.16928(9)
H12I H 0.3744 1.0545 0.1514
H13I H 0.3969 1.0673 0.1879
C17I C 0.3378(3) 0.9637(2) 0.17680(8)
H14I H 0.3286 0.9353 0.1575
H15I H 0.2942 0.9611 0.1833
C18I C 0.3627(3) 0.9351(2) 0.20311(8)
H16I H 0.3700 0.9628 0.2228
C19I C 0.2872(3) 0.8491(2) 0.23732(8)
H17I H 0.3038 0.8849 0.2526
loop_
_geom_bond_atom_site_label_1
_geom_bond_atom_site_label_2
_geom_bond_site_symmetry_1
_geom_bond_site_symmetry_2
N1 C12 1_555 1_555
N2 C18 1_555 1_555
C1 H1 1_555 1_555
C2 C1 1_555 1_555
C3 C2 1_555 1_555
H2 C3 1_555 1_555
C4 C2 1_555 1_555
C5 C4 1_555 1_555
C6 C5 1_555 1_555
C7 C6 1_555 1_555
H3 C7 1_555 1_555
C8 C7 1_555 1_555
C9 C8 1_555 1_555
H4 C9 1_555 1_555
C10 C9 1_555 1_555
C11 C6 1_555 1_555
H5 C11 1_555 1_555
C12 C10 1_555 1_555
H6 C12 1_555 1_555
C13 N1 1_555 1_555
H7 C13 1_555 1_555
C14 C13 1_555 1_555
H8 C14 1_555 1_555
H9 C14 1_555 1_555
C15 C14 1_555 1_555
H10 C15 1_555 1_555
H11 C15 1_555 1_555
C16 C15 1_555 1_555
H12 C16 1_555 1_555
H13 C16 1_555 1_555
C17 C16 1_555 1_555
H14 C17 1_555 1_555
H15 C17 1_555 1_555
C18 C13 1_555 1_555
H16 C18 1_555 1_555
C19 N2 1_555 1_555
H17 C19 1_555 1_555
N1A C12A 1_555 1_555
N2A C18A 1_555 1_555
C1A H1A 1_555 1_555
C2A C1A 1_555 1_555
C3A C2A 1_555 1_555
H2A C3A 1_555 1_555
C4A C2A 1_555 1_555
C5A C4A 1_555 1_555
C6A C5A 1_555 1_555
C7A C6A 1_555 1_555
H3A C7A 1_555 1_555
C8A C7A 1_555 1_555
C9A C8A 1_555 1_555
H4A C9A 1_555 1_555
C10A C9A 1_555 1_555
C11A C6A 1_555 1_555
H5A C11A 1_555 1_555
C12A C10A 1_555 1_555
H6A C12A 1_555 1_555
C13A N1A 1_555 1_555
H7A C13A 1_555 1_555
C14A C13A 1_555 1_555
H8A C14A 1_555 1_555
H9A C14A 1_555 1_555
C15A C14A 1_555 1_555
H10A C15A 1_555 1_555
H11A C15A 1_555 1_555
C16A C15A 1_555 1_555
H12A C16A 1_555 1_555
H13A C16A 1_555 1_555
C17A C16A 1_555 1_555
H14A C17A 1_555 1_555
H15A C17A 1_555 1_555
C18A C13A 1_555 1_555
H16A C18A 1_555 1_555
C19A C8 1_555 1_555
H17A C19A 1_555 1_555
N1B C12B 1_555 1_555
N2B C18B 1_555 1_555
C1B H1B 1_555 1_555
C2B C1B 1_555 1_555
C3B C2B 1_555 1_555
H2B C3B 1_555 1_555
C4B C2B 1_555 1_555
C5B C4B 1_555 1_555
C6B C5B 1_555 1_555
C7B C6B 1_555 1_555
H3B C7B 1_555 1_555
C8B C19 1_555 1_555
C9B C8B 1_555 1_555
H4B C9B 1_555 1_555
C10B C9B 1_555 1_555
C11B C6B 1_555 1_555
H5B C11B 1_555 1_555
C12B C10B 1_555 1_555
H6B C12B 1_555 1_555
C13B N1B 1_555 1_555
H7B C13B 1_555 1_555
C14B C13B 1_555 1_555
H8B C14B 1_555 1_555
H9B C14B 1_555 1_555
C15B C14B 1_555 1_555
H10B C15B 1_555 1_555
H11B C15B 1_555 1_555
C16B C15B 1_555 1_555
H12B C16B 1_555 1_555
H13B C16B 1_555 1_555
C17B C16B 1_555 1_555
H14B C17B 1_555 1_555
H15B C17B 1_555 1_555
C18B C13B 1_555 1_555
H16B C18B 1_555 1_555
C19B C8A 1_555 1_555
H17B C19B 1_555 1_555
N1J C12J 1_555 1_555
N2J C18J 1_555 1_555
C1J C3 1_555 1_555
H1J C1J 1_555 1_555
C2J C1J 1_555 1_555
C3J C1 1_555 1_555
H2J C3J 1_555 1_555
C4J C2J 1_555 1_555
C5J C4J 1_555 1_555
C6J C5J 1_555 1_555
C7J C6J 1_555 1_555
H3J C7J 1_555 1_555
C8J C7J 1_555 1_555
C9J C8J 1_555 1_555
H4J C9J 1_555 1_555
C10J C9J 1_555 1_555
C11J C6J 1_555 1_555
H5J C11J 1_555 1_555
C12J C10J 1_555 1_555
H6J C12J 1_555 1_555
C13J N1J 1_555 1_555
H7J C13J 1_555 1_555
C14J C13J 1_555 1_555
H8J C14J 1_555 1_555
H9J C14J 1_555 1_555
C15J C14J 1_555 1_555
H10J C15J 1_555 1_555
H11J C15J 1_555 1_555
C16J C15J 1_555 1_555
H12J C16J 1_555 1_555
H13J C16J 1_555 1_555
C17J C16J 1_555 1_555
H14J C17J 1_555 1_555
H15J C17J 1_555 1_555
C18J C13J 1_555 1_555
H16J C18J 1_555 1_555
C19J N2J 1_555 1_555
H17J C19J 1_555 1_555
N1K C12K 1_555 1_555
N2K C18K 1_555 1_555
C1K C3B 1_555 1_555
H1K C1K 1_555 1_555
C2K C1K 1_555 1_555
C3K C1B 1_555 1_555
H2K C3K 1_555 1_555
C4K C2K 1_555 1_555
C5K C4K 1_555 1_555
C6K C5K 1_555 1_555
C7K C6K 1_555 1_555
H3K C7K 1_555 1_555
C8K C7K 1_555 1_555
C9K C8K 1_555 1_555
H4K C9K 1_555 1_555
C10K C9K 1_555 1_555
C11K C6K 1_555 1_555
H5K C11K 1_555 1_555
C12K C10K 1_555 1_555
H6K C12K 1_555 1_555
C13K N1K 1_555 1_555
H7K C13K 1_555 1_555
C14K C13K 1_555 1_555
H8K C14K 1_555 1_555
H9K C14K 1_555 1_555
C15K C14K 1_555 1_555
H10K C15K 1_555 1_555
H11K C15K 1_555 1_555
C16K C15K 1_555 1_555
H12K C16K 1_555 1_555
H13K C16K 1_555 1_555
C17K C16K 1_555 1_555
H14K C17K 1_555 1_555
H15K C17K 1_555 1_555
C18K C13K 1_555 1_555
H16K C18K 1_555 1_555
C19K C8J 1_555 1_555
H17K C19K 1_555 1_555
N1I C12I 1_555 1_555
N2I C18I 1_555 1_555
C1I C3A 1_555 1_555
H1I C1I 1_555 1_555
C2I C1I 1_555 1_555
C3I C1A 1_555 1_555
H2I C3I 1_555 1_555
C4I C2I 1_555 1_555
C5I C4I 1_555 1_555
C6I C5I 1_555 1_555
C7I C6I 1_555 1_555
H3I C7I 1_555 1_555
C8I C19J 1_555 1_555
C9I C8I 1_555 1_555
H4I C9I 1_555 1_555
C10I C9I 1_555 1_555
C11I C6I 1_555 1_555
H5I C11I 1_555 1_555
C12I C10I 1_555 1_555
H6I C12I 1_555 1_555
C13I N1I 1_555 1_555
H7I C13I 1_555 1_555
C14I C13I 1_555 1_555
H8I C14I 1_555 1_555
H9I C14I 1_555 1_555
C15I C14I 1_555 1_555
H10I C15I 1_555 1_555
H11I C15I 1_555 1_555
C16I C15I 1_555 1_555
H12I C16I 1_555 1_555
H13I C16I 1_555 1_555
C17I C16I 1_555 1_555
H14I C17I 1_555 1_555
H15I C17I 1_555 1_555
C18I C13I 1_555 1_555
H16I C18I 1_555 1_555
C19I C8K 1_555 1_555
H17I C19I 1_555 1_555
C10 C11 1_555 1_555
C17 C18 1_555 1_555
N2A C19A 1_555 1_555
C10A C11A 1_555 1_555
C17A C18A 1_555 1_555
N2B C19B 1_555 1_555
C7B C8B 1_555 1_555
C10B C11B 1_555 1_555
C17B C18B 1_555 1_555
C2J C3J 1_555 1_555
C10J C11J 1_555 1_555
C17J C18J 1_555 1_555
N2K C19K 1_555 1_555
C2K C3K 1_555 1_555
C10K C11K 1_555 1_555
C17K C18K 1_555 1_555
N2I C19I 1_555 1_555
C2I C3I 1_555 1_555
C7I C8I 1_555 1_555
C10I C11I 1_555 1_555
C17I C18I 1_555 1_555

#END
