
#######################################################################
#
#                 Cambridge Crystallographic Data Centre
#                                CCDC 
#
#######################################################################
#
# If this CIF has been generated from an entry in the Cambridge 
# Structural Database, then it will include bibliographic, chemical, 
# crystal, experimental, refinement or atomic coordinate data resulting 
# from the CCDC's data processing and validation procedures.
#
#######################################################################

data_ABIQIO
_chemical_formula_moiety         'C162 H174 N24'
_symmetry_cell_setting           hexagonal
_symmetry_space_group_name_H-M   'P 63 2 2'
_symmetry_Int_Tables_number      182
_space_group_name_Hall           "P 6c 2'c"
loop_
_symmetry_equiv_pos_site_id
_symmetry_equiv_pos_as_xyz
1 x,y,z
2 x-y,x,1/2+z
3 -y,x-y,z
4 -x,-y,1/2+z
5 -x+y,-x,z
6 y,-x+y,1/2+z
7 x-y,-y,-z
8 -x,-x+y,-z
9 y,x,-z
10 -y,-x,1/2-z
11 -x+y,y,1/2-z
12 x,x-y,1/2-z
_cell_length_a                   17.397(2)
_cell_length_b                   17.397(2)
_cell_length_c                   57.414(7)
_cell_angle_alpha                90
_cell_angle_beta                 90
_cell_angle_gamma                120
_cell_volume                     15048.6
loop_
_atom_site_label
_atom_site_type_symbol
_atom_site_fract_x
_atom_site_fract_y
_atom_site_fract_z
N5 N 0.22850(17) 0.35985(15) 0.65659(4)
C25 C 0.1385(2) 0.28544(18) 0.65219(5)
H29 H 0.1157 0.2497 0.6668
N6 N 0.62615(16) 0.69900(17) 0.66402(4)
C26 C 0.4065(2) 0.5056(2) 0.66883(5)
H30 H 0.3895 0.5048 0.6531
C27 C 0.4880(2) 0.5717(2) 0.67579(5)
C28 C 0.2588(2) 0.3656(2) 0.67673(5)
H31 H 0.2239 0.3214 0.6879
C29 C 0.5100(2) 0.5731(2) 0.69937(5)
H32 H 0.5659 0.6193 0.7046
C30 C 0.5486(2) 0.6363(2) 0.65888(5)
H33 H 0.5291 0.6314 0.6432
C31 C 0.8497(2) 0.8997(2) 0.62769(6)
H34 H 0.8888 0.9152 0.6415
H35 H 0.8852 0.9389 0.6147
C32 C 0.3472(2) 0.4391(2) 0.68373(5)
C33 C 0.8169(2) 0.8033(3) 0.62102(6)
H36 H 0.8682 0.7944 0.6186
H37 H 0.7831 0.7893 0.6063
C34 C 0.7575(2) 0.7414(2) 0.64024(6)
H38 H 0.7931 0.7519 0.6546
H39 H 0.7345 0.6790 0.6354
C35 C 0.6794(2) 0.7559(2) 0.64547(5)
H40 H 0.6419 0.7421 0.6312
C36 C 0.3716(3) 0.4429(3) 0.70729(5)
H41 H 0.3317 0.3993 0.7179
C37 C 0.1418(2) 0.22622(19) 0.63308(5)
H42 H 0.1680 0.2619 0.6188
H43 H 0.1801 0.2023 0.6381
C38 C 0.4547(3) 0.5111(3) 0.71528(6)
C39 C 0.4723(3) 0.5197(3) 0.73950(5)
N5B N 0.64015(15) 0.86865(23) 0.65659(4)
C25B C 0.71456(18) 0.85306(27) 0.65219(5)
H29B H 0.7503 0.8660 0.6668
N6B N 0.30100(17) 0.92715(23) 0.66402(4)
C26B C 0.4944(2) 0.9009(3) 0.66883(5)
H30B H 0.4952 0.8847 0.6531
C27B C 0.4283(2) 0.9163(3) 0.67579(5)
C28B C 0.6344(2) 0.8932(3) 0.67673(5)
H31B H 0.6786 0.9025 0.6879
C29B C 0.4269(2) 0.9369(3) 0.69937(5)
H32B H 0.3807 0.9466 0.7046
C30B C 0.3637(2) 0.9123(3) 0.65888(5)
H33B H 0.3686 0.8977 0.6432
C31B C 0.1003(2) 0.9500(3) 0.62769(6)
H34B H 0.0848 0.9736 0.6415
H35B H 0.0611 0.9463 0.6147
C32B C 0.5609(2) 0.9081(3) 0.68373(5)
C33B C 0.1967(3) 1.0136(4) 0.62102(6)
H36B H 0.2056 1.0738 0.6186
H37B H 0.2107 0.9938 0.6063
C34B C 0.2586(2) 1.0161(3) 0.64024(6)
H38B H 0.2481 1.0412 0.6546
H39B H 0.3210 1.0555 0.6354
C35B C 0.2441(2) 0.9235(3) 0.64547(5)
H40B H 0.2579 0.8998 0.6312
C36B C 0.5571(3) 0.9287(4) 0.70729(5)
H41B H 0.6007 0.9324 0.7179
C37B C 0.77378(19) 0.91558(28) 0.63308(5)
H42B H 0.7381 0.9061 0.6188
H43B H 0.7977 0.9778 0.6381
C38B C 0.4889(3) 0.9436(4) 0.71528(6)
C39B C 0.4803(3) 0.9526(4) 0.73950(5)
N5D N 0.13135(23) 0.77150(17) 0.65659(4)
C25D C 0.14694(27) 0.8615(2) 0.65219(5)
H29D H 0.1340 0.8843 0.6668
N6D N 0.07285(23) 0.37385(16) 0.66402(4)
C26D C 0.0991(3) 0.5935(2) 0.66883(5)
H30D H 0.1153 0.6105 0.6531
C27D C 0.0837(3) 0.5120(2) 0.67579(5)
C28D C 0.1068(3) 0.7412(2) 0.67673(5)
H31D H 0.0975 0.7761 0.6879
C29D C 0.0631(3) 0.4900(2) 0.69937(5)
H32D H 0.0534 0.4341 0.7046
C30D C 0.0877(3) 0.4514(2) 0.65888(5)
H33D H 0.1023 0.4709 0.6432
C31D C 0.0500(3) 0.1503(2) 0.62769(6)
H34D H 0.0264 0.1112 0.6415
H35D H 0.0537 0.1148 0.6147
C32D C 0.0919(3) 0.6528(2) 0.68373(5)
C33D C -0.0136(4) 0.1831(2) 0.62102(6)
H36D H -0.0738 0.1318 0.6186
H37D H 0.0062 0.2169 0.6063
C34D C -0.0161(3) 0.2425(2) 0.64024(6)
H38D H -0.0412 0.2069 0.6546
H39D H -0.0555 0.2655 0.6354
C35D C 0.0765(3) 0.3206(2) 0.64547(5)
H40D H 0.1002 0.3581 0.6312
C36D C 0.0713(4) 0.6284(3) 0.70729(5)
H41D H 0.0676 0.6683 0.7179
C37D C 0.08442(28) 0.8582(2) 0.63308(5)
H42D H 0.0939 0.8320 0.6188
H43D H 0.0222 0.8199 0.6381
C38D C 0.0564(4) 0.5453(3) 0.71528(6)
C39D C 0.0474(4) 0.5277(3) 0.73950(5)
N5I N 0.64015(15) 0.77150(17) 0.84341(4)
C25I C 0.71456(18) 0.8615(2) 0.84781(5)
H29I H 0.7503 0.8843 0.8332
N6I N 0.30100(17) 0.37385(16) 0.83598(4)
C26I C 0.4944(2) 0.5935(2) 0.83117(5)
H30I H 0.4952 0.6105 0.8469
C27I C 0.4283(2) 0.5120(2) 0.82421(5)
C28I C 0.6344(2) 0.7412(2) 0.82327(5)
H31I H 0.6786 0.7761 0.8121
C29I C 0.4269(2) 0.4900(2) 0.80063(5)
H32I H 0.3807 0.4341 0.7954
C30I C 0.3637(2) 0.4514(2) 0.84112(5)
H33I H 0.3686 0.4709 0.8568
C31I C 0.1003(2) 0.1503(2) 0.87231(6)
H34I H 0.0848 0.1112 0.8585
H35I H 0.0611 0.1148 0.8853
C32I C 0.5609(2) 0.6528(2) 0.81627(5)
C33I C 0.1967(3) 0.1831(2) 0.87898(6)
H36I H 0.2056 0.1318 0.8814
H37I H 0.2107 0.2169 0.8937
C34I C 0.2586(2) 0.2425(2) 0.85976(6)
H38I H 0.2481 0.2069 0.8454
H39I H 0.3210 0.2655 0.8646
C35I C 0.2441(2) 0.3206(2) 0.85453(5)
H40I H 0.2579 0.3581 0.8688
C36I C 0.5571(3) 0.6284(3) 0.79271(5)
H41I H 0.6007 0.6683 0.7821
C37I C 0.77378(19) 0.8582(2) 0.86692(5)
H42I H 0.7381 0.8320 0.8812
H43I H 0.7977 0.8199 0.8619
C38I C 0.4889(3) 0.5453(3) 0.78472(6)
C39I C 0.4803(3) 0.5277(3) 0.76050(5)
N5J N 0.13135(23) 0.35985(15) 0.84341(4)
C25J C 0.14694(27) 0.28544(18) 0.84781(5)
H29J H 0.1340 0.2497 0.8332
N6J N 0.07285(23) 0.69900(17) 0.83598(4)
C26J C 0.0991(3) 0.5056(2) 0.83117(5)
H30J H 0.1153 0.5048 0.8469
C27J C 0.0837(3) 0.5717(2) 0.82421(5)
C28J C 0.1068(3) 0.3656(2) 0.82327(5)
H31J H 0.0975 0.3214 0.8121
C29J C 0.0631(3) 0.5731(2) 0.80063(5)
H32J H 0.0534 0.6193 0.7954
C30J C 0.0877(3) 0.6363(2) 0.84112(5)
H33J H 0.1023 0.6314 0.8568
C31J C 0.0500(3) 0.8997(2) 0.87231(6)
H34J H 0.0264 0.9152 0.8585
H35J H 0.0537 0.9389 0.8853
C32J C 0.0919(3) 0.4391(2) 0.81627(5)
C33J C -0.0136(4) 0.8033(3) 0.87898(6)
H36J H -0.0738 0.7944 0.8814
H37J H 0.0062 0.7893 0.8937
C34J C -0.0161(3) 0.7414(2) 0.85976(6)
H38J H -0.0412 0.7519 0.8454
H39J H -0.0555 0.6790 0.8646
C35J C 0.0765(3) 0.7559(2) 0.85453(5)
H40J H 0.1002 0.7421 0.8688
C36J C 0.0713(4) 0.4429(3) 0.79271(5)
H41J H 0.0676 0.3993 0.7821
C37J C 0.08442(28) 0.22622(19) 0.86692(5)
H42J H 0.0939 0.2619 0.8812
H43J H 0.0222 0.2023 0.8619
C38J C 0.0564(4) 0.5111(3) 0.78472(6)
C39J C 0.0474(4) 0.5197(3) 0.76050(5)
N5K N 0.22850(17) 0.86865(23) 0.84341(4)
C25K C 0.1385(2) 0.85306(27) 0.84781(5)
H29K H 0.1157 0.8660 0.8332
N6K N 0.62615(16) 0.92715(23) 0.83598(4)
C26K C 0.4065(2) 0.9009(3) 0.83117(5)
H30K H 0.3895 0.8847 0.8469
C27K C 0.4880(2) 0.9163(3) 0.82421(5)
C28K C 0.2588(2) 0.8932(3) 0.82327(5)
H31K H 0.2239 0.9025 0.8121
C29K C 0.5100(2) 0.9369(3) 0.80063(5)
H32K H 0.5659 0.9466 0.7954
C30K C 0.5486(2) 0.9123(3) 0.84112(5)
H33K H 0.5291 0.8977 0.8568
C31K C 0.8497(2) 0.9500(3) 0.87231(6)
H34K H 0.8888 0.9736 0.8585
H35K H 0.8852 0.9463 0.8853
C32K C 0.3472(2) 0.9081(3) 0.81627(5)
C33K C 0.8169(2) 1.0136(4) 0.87898(6)
H36K H 0.8682 1.0738 0.8814
H37K H 0.7831 0.9938 0.8937
C34K C 0.7575(2) 1.0161(3) 0.85976(6)
H38K H 0.7931 1.0412 0.8454
H39K H 0.7345 1.0555 0.8646
C35K C 0.6794(2) 0.9235(3) 0.85453(5)
H40K H 0.6419 0.8998 0.8688
C36K C 0.3716(3) 0.9287(4) 0.79271(5)
H41K H 0.3317 0.9324 0.7821
C37K C 0.1418(2) 0.91558(28) 0.86692(5)
H42K H 0.1680 0.9061 0.8812
H43K H 0.1801 0.9778 0.8619
C38K C 0.4547(3) 0.9436(4) 0.78472(6)
C39K C 0.4723(3) 0.9526(4) 0.76050(5)
N1 N 0.37769(14) 0.41608(15) 0.58878(3)
N2 N 0.22125(13) 0.42147(12) 0.45551(3)
N3 N 0.55040(15) 0.57628(13) 0.59359(4)
C1 C 0.17826(16) 0.43197(18) 0.58280(5)
H1 H 0.1760 0.4520 0.5980
C2 C 0.11365(17) 0.41943(18) 0.56643(4)
C3 C 0.27012(15) 0.57601(16) 0.45453(4)
C4 C 0.24619(17) 0.41515(19) 0.57682(4)
C5 C 0.11841(18) 0.39192(19) 0.54381(5)
H2 H 0.0750 0.3841 0.5326
C6 C 0.15587(18) 0.28425(18) 0.47739(4)
H3 H 0.2170 0.2927 0.4784
N4 N 0.13939(13) 0.32294(16) 0.49825(4)
C7 C 0.18634(18) 0.37612(18) 0.53785(4)
C8 C 0.31567(17) 0.42922(19) 0.59405(5)
H4 H 0.3128 0.4485 0.6093
C9 C 0.53573(17) 0.48634(16) 0.59726(5)
H5 H 0.5425 0.4619 0.5821
C10 C 0.14931(15) 0.32993(16) 0.45534(4)
H6 H 0.0910 0.3282 0.4550
C11 C 0.42754(16) 0.33533(18) 0.61318(5)
H7 H 0.3675 0.2992 0.6199
H8 H 0.4308 0.3051 0.5989
C12 C 0.1574(2) 0.28247(17) 0.43411(5)
H9 H 0.2190 0.2935 0.4332
H10 H 0.1467 0.3083 0.4200
C13 C 0.19315(17) 0.34280(19) 0.51476(4)
H11 H 0.2432 0.3357 0.5122
C14 C 0.24373(16) 0.63932(15) 0.45435(4)
H12 H 0.1822 0.6206 0.4541
C15 C 0.44247(16) 0.42672(17) 0.60680(4)
H13 H 0.4334 0.4550 0.6209
C16 C 0.60481(19) 0.49095(18) 0.61472(6)
H14 H 0.6649 0.5266 0.6080
H15 H 0.6022 0.5209 0.6291
C17 C 0.25078(17) 0.38909(19) 0.55438(4)
H16 H 0.2983 0.3799 0.5501
C18 C 0.20187(16) 0.48168(16) 0.45528(4)
H17 H 0.1411 0.4659 0.4556
C19 C 0.03991(16) 0.43643(17) 0.57259(5)
H18 H 0.0028 0.4374 0.5606
C20 C 0.49569(19) 0.3416(2) 0.63048(6)
H19 H 0.4856 0.2814 0.6339
H20 H 0.4897 0.3677 0.6452
C21 C 0.0935(3) 0.1822(2) 0.43403(6)
H21 H 0.0316 0.1702 0.4333
H22 H 0.1045 0.1556 0.4201
C22 C 0.58847(19) 0.39885(19) 0.62072(6)
H23 H 0.5956 0.3706 0.6066
H24 H 0.6328 0.4038 0.6323
C23 C 0.0900(3) 0.1866(2) 0.47657(6)
H25 H 0.0292 0.1776 0.4759
H26 H 0.0950 0.1582 0.4910
C24 C 0.1056(3) 0.1418(2) 0.45509(7)
H27 H 0.1664 0.1507 0.4555
H28 H 0.0628 0.0772 0.4552
N1B N 0.58392(15) 0.96161(21) 0.58878(3)
N2B N 0.57853(12) 0.79978(18) 0.45551(3)
N3B N 0.42372(13) 0.97412(20) 0.59359(4)
C1B C 0.56803(18) 0.74629(24) 0.58280(5)
H1B H 0.5480 0.7240 0.5980
C2B C 0.58057(18) 0.69422(25) 0.56643(4)
C3B C 0.42399(16) 0.69411(22) 0.45453(4)
C4B C 0.58485(19) 0.83104(25) 0.57682(4)
C5B C 0.60808(19) 0.72649(26) 0.54381(5)
H2B H 0.6159 0.6909 0.5326
C6B C 0.71575(18) 0.87162(25) 0.47739(4)
H3B H 0.7073 0.9243 0.4784
N4B N 0.67706(16) 0.81645(21) 0.49825(4)
C7B C 0.62388(18) 0.81022(25) 0.53785(4)
C8B C 0.57078(19) 0.88645(25) 0.59405(5)
H4B H 0.5515 0.8643 0.6093
C9B C 0.51366(16) 1.04939(23) 0.59726(5)
H5B H 0.5381 1.0806 0.5821
C10B C 0.67007(16) 0.81938(22) 0.45534(4)
H6B H 0.6718 0.7628 0.4550
C11B C 0.66467(18) 1.09221(24) 0.61318(5)
H7B H 0.7008 1.0683 0.6199
H8B H 0.6949 1.1257 0.5989
C12B C 0.71753(17) 0.87493(26) 0.43411(5)
H9B H 0.7065 0.9255 0.4332
H10B H 0.6917 0.8384 0.4200
C13B C 0.65720(19) 0.85035(25) 0.51476(4)
H11B H 0.6643 0.9075 0.5122
C14B C 0.36068(15) 0.60441(22) 0.45435(4)
H12B H 0.3794 0.5616 0.4541
C15B C 0.57328(17) 1.01575(23) 0.60680(4)
H13B H 0.5450 0.9784 0.6209
C16B C 0.50905(18) 1.11386(26) 0.61472(6)
H14B H 0.4734 1.1383 0.6080
H15B H 0.4791 1.0813 0.6291
C17B C 0.61091(19) 0.86169(25) 0.55438(4)
H16B H 0.6201 0.9184 0.5501
C18B C 0.51832(16) 0.72019(23) 0.45528(4)
H17B H 0.5341 0.6752 0.4556
C19B C 0.56357(17) 0.60348(23) 0.57259(5)
H18B H 0.5626 0.5654 0.5606
C20B C 0.6584(2) 1.15409(28) 0.63048(6)
H19B H 0.7186 1.2042 0.6339
H20B H 0.6323 1.1220 0.6452
C21B C 0.8178(2) 0.9113(4) 0.43403(6)
H21B H 0.8298 0.8614 0.4333
H22B H 0.8444 0.9489 0.4201
C22B C 0.60115(19) 1.18962(27) 0.62072(6)
H23B H 0.6294 1.2250 0.6066
H24B H 0.5962 1.2290 0.6323
C23B C 0.8134(2) 0.9034(4) 0.47657(6)
H25B H 0.8224 0.8516 0.4759
H26B H 0.8418 0.9368 0.4910
C24B C 0.8582(2) 0.9638(4) 0.45509(7)
H27B H 0.8493 1.0157 0.4555
H28B H 0.9228 0.9856 0.4552
N1D N 0.03839(21) 0.62231(14) 0.58878(3)
N2D N 0.20022(18) 0.77875(13) 0.45551(3)
N3D N 0.02588(20) 0.44960(15) 0.59359(4)
C1D C 0.25371(24) 0.82174(16) 0.58280(5)
H1D H 0.2760 0.8240 0.5980
C2D C 0.30578(25) 0.88635(17) 0.56643(4)
C3D C 0.30589(22) 0.72988(15) 0.45453(4)
C4D C 0.16896(25) 0.75381(17) 0.57682(4)
C5D C 0.27351(26) 0.88159(18) 0.54381(5)
H2D H 0.3091 0.9250 0.5326
C6D C 0.12838(25) 0.84413(18) 0.47739(4)
H3D H 0.0757 0.7830 0.4784
N4D N 0.18355(21) 0.86061(13) 0.49825(4)
C7D C 0.18978(25) 0.81366(18) 0.53785(4)
C8D C 0.11355(25) 0.68433(17) 0.59405(5)
H4D H 0.1357 0.6872 0.6093
C9D C -0.04939(23) 0.46427(17) 0.59726(5)
H5D H -0.0806 0.4575 0.5821
C10D C 0.18062(22) 0.85069(15) 0.45534(4)
H6D H 0.2372 0.9090 0.4550
C11D C -0.09221(24) 0.57246(16) 0.61318(5)
H7D H -0.0683 0.6325 0.6199
H8D H -0.1257 0.5692 0.5989
C12D C 0.12507(26) 0.8426(2) 0.43411(5)
H9D H 0.0745 0.7810 0.4332
H10D H 0.1616 0.8533 0.4200
C13D C 0.14965(25) 0.80685(17) 0.51476(4)
H11D H 0.0925 0.7568 0.5122
C14D C 0.39559(22) 0.75627(16) 0.45435(4)
H12D H 0.4384 0.8178 0.4541
C15D C -0.01575(23) 0.55753(16) 0.60680(4)
H13D H 0.0216 0.5666 0.6209
C16D C -0.11386(26) 0.39519(19) 0.61472(6)
H14D H -0.1383 0.3351 0.6080
H15D H -0.0813 0.3978 0.6291
C17D C 0.13831(25) 0.74922(17) 0.55438(4)
H16D H 0.0816 0.7017 0.5501
C18D C 0.27981(23) 0.79813(16) 0.45528(4)
H17D H 0.3248 0.8589 0.4556
C19D C 0.39652(23) 0.96009(16) 0.57259(5)
H18D H 0.4346 0.9972 0.5606
C20D C -0.15409(28) 0.50431(19) 0.63048(6)
H19D H -0.2042 0.5144 0.6339
H20D H -0.1220 0.5103 0.6452
C21D C 0.0887(4) 0.9065(3) 0.43403(6)
H21D H 0.1386 0.9684 0.4333
H22D H 0.0511 0.8955 0.4201
C22D C -0.18962(27) 0.41153(19) 0.62072(6)
H23D H -0.2250 0.4044 0.6066
H24D H -0.2290 0.3672 0.6323
C23D C 0.0966(4) 0.9100(3) 0.47657(6)
H25D H 0.1484 0.9708 0.4759
H26D H 0.0632 0.9050 0.4910
C24D C 0.0362(4) 0.8944(3) 0.45509(7)
H27D H -0.0157 0.8336 0.4555
H28D H 0.0144 0.9372 0.4552
loop_
_geom_bond_atom_site_label_1
_geom_bond_atom_site_label_2
_geom_bond_site_symmetry_1
_geom_bond_site_symmetry_2
N1 C8 1_555 1_555
N2 C10 1_555 1_555
N3 C9 1_555 1_555
C1 H1 1_555 1_555
C2 C1 1_555 1_555
C3 C14 1_555 1_555
C4 C1 1_555 1_555
C5 C2 1_555 1_555
H2 C5 1_555 1_555
C6 H3 1_555 1_555
N4 C6 1_555 1_555
C7 C5 1_555 1_555
C8 C4 1_555 1_555
H4 C8 1_555 1_555
C9 H5 1_555 1_555
C10 C6 1_555 1_555
H6 C10 1_555 1_555
C11 H7 1_555 1_555
H8 C11 1_555 1_555
C12 C10 1_555 1_555
H9 C12 1_555 1_555
H10 C12 1_555 1_555
C13 N4 1_555 1_555
H11 C13 1_555 1_555
C14 H12 1_555 1_555
C15 N1 1_555 1_555
H13 C15 1_555 1_555
C16 C9 1_555 1_555
H14 C16 1_555 1_555
H15 C16 1_555 1_555
C17 C4 1_555 1_555
H16 C17 1_555 1_555
C18 N2 1_555 1_555
H17 C18 1_555 1_555
C19 C2 1_555 1_555
H18 C19 1_555 1_555
C20 C11 1_555 1_555
H19 C20 1_555 1_555
H20 C20 1_555 1_555
C21 C12 1_555 1_555
H21 C21 1_555 1_555
H22 C21 1_555 1_555
C22 C16 1_555 1_555
H23 C22 1_555 1_555
H24 C22 1_555 1_555
C23 C6 1_555 1_555
H25 C23 1_555 1_555
H26 C23 1_555 1_555
C24 C21 1_555 1_555
H27 C24 1_555 1_555
H28 C24 1_555 1_555
N5 C25 1_555 1_555
C25 H29 1_555 1_555
N6 C30 1_555 1_555
C26 H30 1_555 1_555
C27 C26 1_555 1_555
C28 N5 1_555 1_555
H31 C28 1_555 1_555
C29 C27 1_555 1_555
H32 C29 1_555 1_555
C30 C27 1_555 1_555
H33 C30 1_555 1_555
C31 H34 1_555 1_555
H35 C31 1_555 1_555
C32 C26 1_555 1_555
C33 C31 1_555 1_555
H36 C33 1_555 1_555
H37 C33 1_555 1_555
C34 C33 1_555 1_555
H38 C34 1_555 1_555
H39 C34 1_555 1_555
C35 N6 1_555 1_555
H40 C35 1_555 1_555
C36 C32 1_555 1_555
H41 C36 1_555 1_555
C37 C25 1_555 1_555
H42 C37 1_555 1_555
H43 C37 1_555 1_555
C38 C29 1_555 1_555
C39 C38 1_555 1_555
N1B C8B 1_555 1_555
N2B C10B 1_555 1_555
N3B C9B 1_555 1_555
C1B H1B 1_555 1_555
C2B C1B 1_555 1_555
C3B C14B 1_555 1_555
C4B C1B 1_555 1_555
C5B C2B 1_555 1_555
H2B C5B 1_555 1_555
C6B H3B 1_555 1_555
N4B C6B 1_555 1_555
C7B C5B 1_555 1_555
C8B C4B 1_555 1_555
H4B C8B 1_555 1_555
C9B H5B 1_555 1_555
C10B C6B 1_555 1_555
H6B C10B 1_555 1_555
C11B H7B 1_555 1_555
H8B C11B 1_555 1_555
C12B C10B 1_555 1_555
H9B C12B 1_555 1_555
H10B C12B 1_555 1_555
C13B N4B 1_555 1_555
H11B C13B 1_555 1_555
C14B C3 1_555 1_555
H12B C14B 1_555 1_555
C15B N1B 1_555 1_555
H13B C15B 1_555 1_555
C16B C9B 1_555 1_555
H14B C16B 1_555 1_555
H15B C16B 1_555 1_555
C17B C4B 1_555 1_555
H16B C17B 1_555 1_555
C18B N2B 1_555 1_555
H17B C18B 1_555 1_555
C19B N3 1_555 1_555
H18B C19B 1_555 1_555
C20B C11B 1_555 1_555
H19B C20B 1_555 1_555
H20B C20B 1_555 1_555
C21B C12B 1_555 1_555
H21B C21B 1_555 1_555
H22B C21B 1_555 1_555
C22B C16B 1_555 1_555
H23B C22B 1_555 1_555
H24B C22B 1_555 1_555
C23B C6B 1_555 1_555
H25B C23B 1_555 1_555
H26B C23B 1_555 1_555
C24B C21B 1_555 1_555
H27B C24B 1_555 1_555
H28B C24B 1_555 1_555
N1D C8D 1_555 1_555
N2D C10D 1_555 1_555
N3D C19 1_555 1_555
C1D H1D 1_555 1_555
C2D C1D 1_555 1_555
C3D C14 1_555 1_555
C4D C1D 1_555 1_555
C5D C2D 1_555 1_555
H2D C5D 1_555 1_555
C6D H3D 1_555 1_555
N4D C6D 1_555 1_555
C7D C5D 1_555 1_555
C8D C4D 1_555 1_555
H4D C8D 1_555 1_555
C9D N3D 1_555 1_555
H5D C9D 1_555 1_555
C10D C6D 1_555 1_555
H6D C10D 1_555 1_555
C11D H7D 1_555 1_555
H8D C11D 1_555 1_555
C12D C10D 1_555 1_555
H9D C12D 1_555 1_555
H10D C12D 1_555 1_555
C13D N4D 1_555 1_555
H11D C13D 1_555 1_555
C14D C3B 1_555 1_555
H12D C14D 1_555 1_555
C15D N1D 1_555 1_555
H13D C15D 1_555 1_555
C16D C9D 1_555 1_555
H14D C16D 1_555 1_555
H15D C16D 1_555 1_555
C17D C4D 1_555 1_555
H16D C17D 1_555 1_555
C18D N2D 1_555 1_555
H17D C18D 1_555 1_555
C19D N3B 1_555 1_555
H18D C19D 1_555 1_555
C20D C11D 1_555 1_555
H19D C20D 1_555 1_555
H20D C20D 1_555 1_555
C21D C12D 1_555 1_555
H21D C21D 1_555 1_555
H22D C21D 1_555 1_555
C22D C16D 1_555 1_555
H23D C22D 1_555 1_555
H24D C22D 1_555 1_555
C23D C6D 1_555 1_555
H25D C23D 1_555 1_555
H26D C23D 1_555 1_555
C24D C21D 1_555 1_555
H27D C24D 1_555 1_555
H28D C24D 1_555 1_555
N5B C25B 1_555 1_555
C25B C35 1_555 1_555
H29B C25B 1_555 1_555
N6B C30B 1_555 1_555
C26B H30B 1_555 1_555
C27B C26B 1_555 1_555
C28B N5B 1_555 1_555
H31B C28B 1_555 1_555
C29B C27B 1_555 1_555
H32B C29B 1_555 1_555
C30B C27B 1_555 1_555
H33B C30B 1_555 1_555
C31B H34B 1_555 1_555
H35B C31B 1_555 1_555
C32B C26B 1_555 1_555
C33B C31B 1_555 1_555
H36B C33B 1_555 1_555
H37B C33B 1_555 1_555
C34B C33B 1_555 1_555
H38B C34B 1_555 1_555
H39B C34B 1_555 1_555
C35B N6B 1_555 1_555
H40B C35B 1_555 1_555
C36B C32B 1_555 1_555
H41B C36B 1_555 1_555
C37B C31 1_555 1_555
H42B C37B 1_555 1_555
H43B C37B 1_555 1_555
C38B C29B 1_555 1_555
C39B C38B 1_555 1_555
N5D C25D 1_555 1_555
C25D C35B 1_555 1_555
H29D C25D 1_555 1_555
N6D C30D 1_555 1_555
C26D H30D 1_555 1_555
C27D C26D 1_555 1_555
C28D N5D 1_555 1_555
H31D C28D 1_555 1_555
C29D C27D 1_555 1_555
H32D C29D 1_555 1_555
C30D C27D 1_555 1_555
H33D C30D 1_555 1_555
C31D C37 1_555 1_555
H34D C31D 1_555 1_555
H35D C31D 1_555 1_555
C32D C26D 1_555 1_555
C33D C31D 1_555 1_555
H36D C33D 1_555 1_555
H37D C33D 1_555 1_555
C34D C33D 1_555 1_555
H38D C34D 1_555 1_555
H39D C34D 1_555 1_555
C35D C25 1_555 1_555
H40D C35D 1_555 1_555
C36D C32D 1_555 1_555
H41D C36D 1_555 1_555
C37D C31B 1_555 1_555
H42D C37D 1_555 1_555
H43D C37D 1_555 1_555
C38D C29D 1_555 1_555
C39D C38D 1_555 1_555
N5I C25I 1_555 1_555
C25I H29I 1_555 1_555
N6I C30I 1_555 1_555
C26I H30I 1_555 1_555
C27I C26I 1_555 1_555
C28I N5I 1_555 1_555
H31I C28I 1_555 1_555
C29I C27I 1_555 1_555
H32I C29I 1_555 1_555
C30I C27I 1_555 1_555
H33I C30I 1_555 1_555
C31I H34I 1_555 1_555
H35I C31I 1_555 1_555
C32I C26I 1_555 1_555
C33I C31I 1_555 1_555
H36I C33I 1_555 1_555
H37I C33I 1_555 1_555
C34I C33I 1_555 1_555
H38I C34I 1_555 1_555
H39I C34I 1_555 1_555
C35I N6I 1_555 1_555
H40I C35I 1_555 1_555
C36I C32I 1_555 1_555
H41I C36I 1_555 1_555
C37I C25I 1_555 1_555
H42I C37I 1_555 1_555
H43I C37I 1_555 1_555
C38I C29I 1_555 1_555
C39I C39 1_555 1_555
N5J C25J 1_555 1_555
C25J C35I 1_555 1_555
H29J C25J 1_555 1_555
N6J C30J 1_555 1_555
C26J H30J 1_555 1_555
C27J C26J 1_555 1_555
C28J N5J 1_555 1_555
H31J C28J 1_555 1_555
C29J C27J 1_555 1_555
H32J C29J 1_555 1_555
C30J C27J 1_555 1_555
H33J C30J 1_555 1_555
C31J H34J 1_555 1_555
H35J C31J 1_555 1_555
C32J C26J 1_555 1_555
C33J C31J 1_555 1_555
H36J C33J 1_555 1_555
H37J C33J 1_555 1_555
C34J C33J 1_555 1_555
H38J C34J 1_555 1_555
H39J C34J 1_555 1_555
C35J N6J 1_555 1_555
H40J C35J 1_555 1_555
C36J C32J 1_555 1_555
H41J C36J 1_555 1_555
C37J C31I 1_555 1_555
H42J C37J 1_555 1_555
H43J C37J 1_555 1_555
C38J C29J 1_555 1_555
C39J C39D 1_555 1_555
N5K C25K 1_555 1_555
C25K C35J 1_555 1_555
H29K C25K 1_555 1_555
N6K C30K 1_555 1_555
C26K H30K 1_555 1_555
C27K C26K 1_555 1_555
C28K N5K 1_555 1_555
H31K C28K 1_555 1_555
C29K C27K 1_555 1_555
H32K C29K 1_555 1_555
C30K C27K 1_555 1_555
H33K C30K 1_555 1_555
C31K C37I 1_555 1_555
H34K C31K 1_555 1_555
H35K C31K 1_555 1_555
C32K C26K 1_555 1_555
C33K C31K 1_555 1_555
H36K C33K 1_555 1_555
H37K C33K 1_555 1_555
C34K C33K 1_555 1_555
H38K C34K 1_555 1_555
H39K C34K 1_555 1_555
C35K C25I 1_555 1_555
H40K C35K 1_555 1_555
C36K C32K 1_555 1_555
H41K C36K 1_555 1_555
C37K C31J 1_555 1_555
H42K C37K 1_555 1_555
H43K C37K 1_555 1_555
C38K C29K 1_555 1_555
C39K C39B 1_555 1_555
C3 C18 1_555 1_555
C7 C13 1_555 1_555
C7 C17 1_555 1_555
C9 C15 1_555 1_555
C11 C15 1_555 1_555
C20 C22 1_555 1_555
C23 C24 1_555 1_555
C28 C32 1_555 1_555
C34 C35 1_555 1_555
C36 C38 1_555 1_555
C2B C19B 1_555 1_555
C3B C18B 1_555 1_555
C7B C13B 1_555 1_555
C7B C17B 1_555 1_555
C9B C15B 1_555 1_555
C11B C15B 1_555 1_555
C20B C22B 1_555 1_555
C23B C24B 1_555 1_555
C2D C19D 1_555 1_555
C3D C14D 1_555 1_555
C3D C18D 1_555 1_555
C7D C13D 1_555 1_555
C7D C17D 1_555 1_555
C9D C15D 1_555 1_555
C11D C15D 1_555 1_555
C20D C22D 1_555 1_555
C23D C24D 1_555 1_555
C25B C37B 1_555 1_555
C28B C32B 1_555 1_555
C34B C35B 1_555 1_555
C36B C38B 1_555 1_555
C25D C37D 1_555 1_555
N6D C35D 1_555 1_555
C28D C32D 1_555 1_555
C34D C35D 1_555 1_555
C36D C38D 1_555 1_555
C28I C32I 1_555 1_555
C34I C35I 1_555 1_555
C36I C38I 1_555 1_555
C38I C39I 1_555 1_555
C25J C37J 1_555 1_555
C28J C32J 1_555 1_555
C34J C35J 1_555 1_555
C36J C38J 1_555 1_555
C38J C39J 1_555 1_555
C25K C37K 1_555 1_555
N6K C35K 1_555 1_555
C28K C32K 1_555 1_555
C34K C35K 1_555 1_555
C36K C38K 1_555 1_555
C38K C39K 1_555 1_555

#END
