
#######################################################################
#
#                 Cambridge Crystallographic Data Centre
#                                CCDC 
#
#######################################################################
#
# If this CIF has been generated from an entry in the Cambridge 
# Structural Database, then it will include bibliographic, chemical, 
# crystal, experimental, refinement or atomic coordinate data resulting 
# from the CCDC's data processing and validation procedures.
#
#######################################################################

data_ABIQEK
_chemical_formula_moiety         '2(C72 H84 N12),C90 H90 N12'
_chemical_name_systematic        
'bis(5,12,20,27,35,42,50,57,62,69,74,81-dodecaazatridecacyclo[29.29.10.10^16,46^.1^3,59^.1^14,18^.1^29,33^.1^44,48^.0^6,11^.0^21,26^.0^36,41^.0^51,56^.0^63,68^.0^75,80^]tetraoctaconta-1,3(71),4,12,14(84),15,17,19,27,29(83),30,32,34,42,44(72),45,47,49,57,59,61,69,73,81-tetracosaene) 6,13,17,24,31,38,43,50,54,61,66,73-dodecaaza-1,4,15,26,29,40-hexa(benzene-1,3,5-triyl)decacyclo[27.23.10.10^4,26^.2^15,40^.0^7,12^.0^18,23^.0^32,37^.0^44,49^.0^55,60^.0^67,72^]tetraheptaconta-5,13,16,24,30,38,42,50,53,61,65,73-dodecaene-2,27,63-triyne'
_symmetry_cell_setting           hexagonal
_symmetry_space_group_name_H-M   'P 63 2 2'
_symmetry_Int_Tables_number      182
_space_group_name_Hall           "P 6c 2'c"
loop_
_symmetry_equiv_pos_site_id
_symmetry_equiv_pos_as_xyz
1 x,y,z
2 x-y,x,1/2+z
3 -y,x-y,z
4 -x,-y,1/2+z
5 -x+y,-x,z
6 y,-x+y,1/2+z
7 x-y,-y,-z
8 -x,-x+y,-z
9 y,x,-z
10 -y,-x,1/2-z
11 -x+y,y,1/2-z
12 x,x-y,1/2-z
_cell_length_a                   17.496(4)
_cell_length_b                   17.496(4)
_cell_length_c                   58.072(13)
_cell_angle_alpha                90
_cell_angle_beta                 90
_cell_angle_gamma                120
_cell_volume                     15394.8
_exptl_crystal_colour            colorless
_exptl_crystal_description       hexagonal
_cell_formula_units_Z            2
_exptl_crystal_recrystallization_method 'dichloromethane/diethyl ether'
loop_
_atom_site_label
_atom_site_type_symbol
_atom_site_fract_x
_atom_site_fract_y
_atom_site_fract_z
N1 N 0.21979(14) 0.42320(14) 0.45625(4)
N2 N 0.14052(16) 0.32161(17) 0.49782(5)
N3 N 0.37898(18) 0.41994(17) 0.58691(4)
N4 N 0.54978(17) 0.57794(17) 0.59037(5)
C1 C 0.24451(17) 0.64073(16) 0.45797(5)
H1 H 0.1849 0.6236 0.4579
C2 C 0.26960(16) 0.57764(16) 0.45804(5)
C3 C 0.20167(16) 0.48288(17) 0.45779(5)
H2 H 0.1426 0.4675 0.4588
C4 C 0.14829(16) 0.33163(16) 0.45588(5)
H3 H 0.0914 0.3298 0.4561
C5 C 0.1562(2) 0.2890(2) 0.43388(5)
H4 H 0.2157 0.2988 0.4326
H5 H 0.1458 0.3168 0.4207
C6 C 0.0909(3) 0.1900(2) 0.43321(7)
H6 H 0.0311 0.1799 0.4327
H7 H 0.1007 0.1648 0.4194
C7 C 0.1016(3) 0.1459(2) 0.45397(9)
H8 H 0.1602 0.1529 0.4541
H9 H 0.0588 0.0833 0.4535
C8 C 0.0883(3) 0.1861(2) 0.47544(7)
H10 H 0.0941 0.1565 0.4889
H11 H 0.0292 0.1779 0.4754
C9 C 0.15565(18) 0.28443(18) 0.47679(5)
H12 H 0.2151 0.2921 0.4773
C10 C 0.1969(2) 0.3454(2) 0.51323(6)
H13 H 0.2473 0.3420 0.5101
C11 C 0.1905(2) 0.37861(19) 0.53605(5)
C12 C 0.12209(19) 0.3939(2) 0.54199(6)
H14 H 0.0793 0.3849 0.5311
C13 C 0.11702(19) 0.4224(2) 0.56386(6)
C14 C 0.18203(19) 0.4364(2) 0.57998(5)
H15 H 0.1791 0.4559 0.5947
C15 C 0.2502(2) 0.4219(2) 0.57456(5)
C16 C 0.2537(2) 0.3929(2) 0.55245(6)
H16 H 0.2996 0.3829 0.5486
C17 C 0.04424(19) 0.4376(2) 0.57013(7)
H17 H 0.0081 0.4380 0.5584
C18 C 0.3187(2) 0.4353(2) 0.59134(5)
H18 H 0.3167 0.4561 0.6059
C19 C 0.44344(19) 0.43287(19) 0.60453(5)
H19 H 0.4355 0.4627 0.6178
C20 C 0.4286(2) 0.3424(2) 0.61196(6)
H20 H 0.3708 0.3089 0.6190
H21 H 0.4297 0.3103 0.5985
C21 C 0.4982(3) 0.3505(3) 0.62888(7)
H22 H 0.4941 0.3782 0.6429
H23 H 0.4883 0.2923 0.6327
C22 C 0.5886(3) 0.4050(3) 0.61855(8)
H24 H 0.5940 0.3748 0.6052
H25 H 0.6328 0.4116 0.6297
C23 C 0.6049(2) 0.4954(2) 0.61151(7)
H26 H 0.6626 0.5281 0.6044
H27 H 0.6050 0.5275 0.6251
C24 C 0.5353(2) 0.4895(2) 0.59482(5)
H28 H 0.5402 0.4637 0.5803
N1B N 0.57680(14) 0.79659(20) 0.45625(4)
N2B N 0.67839(17) 0.81891(23) 0.49782(5)
N3B N 0.58006(17) 0.95904(25) 0.58691(4)
N4B N 0.42206(17) 0.97184(24) 0.59037(5)
C1B C 0.35927(16) 0.60378(23) 0.45797(5)
H1B H 0.3764 0.5613 0.4579
C2B C 0.42236(16) 0.69196(23) 0.45804(5)
C3B C 0.51712(17) 0.71879(23) 0.45779(5)
H2B H 0.5325 0.6751 0.4588
C4B C 0.66837(16) 0.81666(23) 0.45588(5)
H3B H 0.6702 0.7616 0.4561
C5B C 0.7110(2) 0.8672(3) 0.43388(5)
H4B H 0.7012 0.9169 0.4326
H5B H 0.6832 0.8290 0.4207
C6B C 0.8100(2) 0.9009(4) 0.43321(7)
H6B H 0.8201 0.8512 0.4327
H7B H 0.8352 0.9359 0.4194
C7B C 0.8541(2) 0.9557(4) 0.45397(9)
H8B H 0.8471 1.0073 0.4541
H9B H 0.9167 0.9755 0.4535
C8B C 0.8139(2) 0.9022(4) 0.47544(7)
H10B H 0.8435 0.9376 0.4889
H11B H 0.8221 0.8513 0.4754
C9B C 0.71557(18) 0.87122(25) 0.47679(5)
H12B H 0.7079 0.9230 0.4773
C10B C 0.6546(2) 0.8515(3) 0.51323(6)
H13B H 0.6580 0.9053 0.5101
C11B C 0.62139(19) 0.81189(28) 0.53605(5)
C12B C 0.6061(2) 0.72819(28) 0.54199(6)
H14B H 0.6151 0.6944 0.5311
C13B C 0.5776(2) 0.69462(28) 0.56386(6)
C14B C 0.5636(2) 0.74563(28) 0.57998(5)
H15B H 0.5441 0.7232 0.5947
C15B C 0.5781(2) 0.8283(3) 0.57456(5)
C16B C 0.6071(2) 0.8608(3) 0.55245(6)
H16B H 0.6171 0.9167 0.5486
C17B C 0.5624(2) 0.60664(28) 0.57013(7)
H17B H 0.5620 0.5701 0.5584
C18B C 0.5647(2) 0.8834(3) 0.59134(5)
H18B H 0.5439 0.8606 0.6059
C19B C 0.56713(19) 1.01057(27) 0.60453(5)
H19B H 0.5373 0.9728 0.6178
C20B C 0.6576(2) 1.0862(3) 0.61196(6)
H20B H 0.6911 1.0619 0.6190
H21B H 0.6897 1.1194 0.5985
C21B C 0.6495(3) 1.1477(4) 0.62888(7)
H22B H 0.6218 1.1159 0.6429
H23B H 0.7077 1.1960 0.6327
C22B C 0.5950(3) 1.1836(4) 0.61855(8)
H24B H 0.6252 1.2192 0.6052
H25B H 0.5884 1.2212 0.6297
C23B C 0.5046(2) 1.1095(3) 0.61151(7)
H26B H 0.4719 1.1345 0.6044
H27B H 0.4725 1.0775 0.6251
C24B C 0.5105(2) 1.0458(3) 0.59482(5)
H28B H 0.5363 1.0765 0.5803
N1D N 0.20341(20) 0.78021(14) 0.45625(4)
N2D N 0.18109(23) 0.85948(16) 0.49782(5)
N3D N 0.04096(25) 0.62102(18) 0.58691(4)
N4D N 0.02816(24) 0.45022(17) 0.59037(5)
C1D C 0.39622(23) 0.75549(17) 0.45797(5)
H1D H 0.4387 0.8151 0.4579
C2D C 0.30804(23) 0.73040(16) 0.45804(5)
C3D C 0.28121(23) 0.79833(16) 0.45779(5)
H2D H 0.3249 0.8574 0.4588
C4D C 0.18334(23) 0.85171(16) 0.45588(5)
H3D H 0.2384 0.9086 0.4561
C5D C 0.1328(3) 0.8438(2) 0.43388(5)
H4D H 0.0831 0.7843 0.4326
H5D H 0.1710 0.8542 0.4207
C6D C 0.0991(4) 0.9091(3) 0.43321(7)
H6D H 0.1488 0.9689 0.4327
H7D H 0.0641 0.8993 0.4194
C7D C 0.0443(4) 0.8984(3) 0.45397(9)
H8D H -0.0073 0.8398 0.4541
H9D H 0.0245 0.9412 0.4535
C8D C 0.0978(4) 0.9117(3) 0.47544(7)
H10D H 0.0624 0.9059 0.4889
H11D H 0.1487 0.9708 0.4754
C9D C 0.12878(25) 0.84435(18) 0.47679(5)
H12D H 0.0770 0.7849 0.4773
C10D C 0.1485(3) 0.8031(2) 0.51323(6)
H13D H 0.0947 0.7527 0.5101
C11D C 0.18811(28) 0.8095(2) 0.53605(5)
C12D C 0.27181(28) 0.87791(19) 0.54199(6)
H14D H 0.3056 0.9207 0.5311
C13D C 0.30538(28) 0.88298(19) 0.56386(6)
C14D C 0.25437(28) 0.81797(19) 0.57998(5)
H15D H 0.2768 0.8209 0.5947
C15D C 0.1717(3) 0.7498(2) 0.57456(5)
C16D C 0.1392(3) 0.7463(2) 0.55245(6)
H16D H 0.0833 0.7004 0.5486
C17D C 0.39336(28) 0.95576(19) 0.57013(7)
H17D H 0.4299 0.9919 0.5584
C18D C 0.1166(3) 0.6813(2) 0.59134(5)
H18D H 0.1394 0.6833 0.6059
C19D C -0.01057(27) 0.55656(19) 0.60453(5)
H19D H 0.0272 0.5645 0.6178
C20D C -0.0862(3) 0.5714(2) 0.61196(6)
H20D H -0.0619 0.6292 0.6190
H21D H -0.1194 0.5703 0.5985
C21D C -0.1477(4) 0.5018(3) 0.62888(7)
H22D H -0.1159 0.5059 0.6429
H23D H -0.1960 0.5117 0.6327
C22D C -0.1836(4) 0.4114(3) 0.61855(8)
H24D H -0.2192 0.4060 0.6052
H25D H -0.2212 0.3672 0.6297
C23D C -0.1095(3) 0.3951(2) 0.61151(7)
H26D H -0.1345 0.3374 0.6044
H27D H -0.0775 0.3950 0.6251
C24D C -0.0458(3) 0.4647(2) 0.59482(5)
H28D H -0.0765 0.4598 0.5803
N5 N 0.2249(2) 0.3612(2) 0.65639(6)
N6 N 0.6200(2) 0.6951(2) 0.66446(5)
C25 C 0.0748(3) 0.3230(2) 0.64597(6)
H29 H 0.0964 0.3577 0.6318
C26 C -0.0179(3) 0.2471(3) 0.64200(8)
H30 H -0.0561 0.2702 0.6377
H31 H -0.0404 0.2137 0.6561
C27 C -0.0189(4) 0.1868(3) 0.62308(9)
H32 H -0.0783 0.1373 0.6213
H33 H -0.0015 0.2189 0.6086
C28 C 0.0429(4) 0.1531(3) 0.62864(9)
H34 H 0.0437 0.1177 0.6159
H35 H 0.0215 0.1155 0.6421
C29 C 0.1370(3) 0.2285(3) 0.63319(8)
H36 H 0.1613 0.2627 0.6192
H37 H 0.1741 0.2044 0.6377
C30 C 0.1357(3) 0.2881(2) 0.65237(6)
H38 H 0.1139 0.2534 0.6666
C31 C 0.2504(3) 0.3767(3) 0.67699(7)
H39 H 0.2124 0.3392 0.6883
C32 C 0.3352(3) 0.4492(3) 0.68427(6)
C33 C 0.3980(3) 0.5090(3) 0.66905(6)
H40 H 0.3851 0.5031 0.6534
C34 C 0.4783(2) 0.5764(3) 0.67633(6)
C35 C 0.4968(3) 0.5869(3) 0.69967(7)
H41 H 0.5505 0.6329 0.7048
C36 C 0.4362(3) 0.5298(3) 0.71535(6)
C37 C 0.3557(3) 0.4605(3) 0.70755(7)
H42 H 0.3152 0.4213 0.7181
C38 C 0.4522(3) 0.5408(3) 0.74003(6)
C39 C 0.5428(3) 0.6374(3) 0.65948(6)
H43 H 0.5251 0.6327 0.6442
N5B N 0.6388(2) 0.8637(3) 0.65639(6)
N6B N 0.3049(2) 0.9249(3) 0.66446(5)
C25B C 0.6770(2) 0.7518(4) 0.64597(6)
H29B H 0.6423 0.7387 0.6318
C26B C 0.7529(3) 0.7350(4) 0.64200(8)
H30B H 0.7298 0.6737 0.6377
H31B H 0.7863 0.7459 0.6561
C27B C 0.8132(3) 0.7943(5) 0.62308(9)
H32B H 0.8627 0.7844 0.6213
H33B H 0.7811 0.7796 0.6086
C28B C 0.8469(3) 0.8898(5) 0.62864(9)
H34B H 0.8823 0.9260 0.6159
H35B H 0.8845 0.9060 0.6421
C29B C 0.7715(3) 0.9085(4) 0.63319(8)
H36B H 0.7373 0.8986 0.6192
H37B H 0.7956 0.9697 0.6377
C30B C 0.7119(2) 0.8476(4) 0.65237(6)
H38B H 0.7466 0.8605 0.6666
C31B C 0.6233(3) 0.8737(4) 0.67699(7)
H39B H 0.6608 0.8732 0.6883
C32B C 0.5508(3) 0.8860(4) 0.68427(6)
C33B C 0.4910(3) 0.8890(4) 0.66905(6)
H40B H 0.4969 0.8820 0.6534
C34B C 0.4236(3) 0.9019(4) 0.67633(6)
C35B C 0.4131(3) 0.9099(4) 0.69967(7)
H41B H 0.3671 0.9176 0.7048
C36B C 0.4702(3) 0.9064(4) 0.71535(6)
C37B C 0.5395(3) 0.8952(4) 0.70755(7)
H42B H 0.5787 0.8939 0.7181
C38B C 0.4592(3) 0.9114(4) 0.74003(6)
C39B C 0.3626(3) 0.9054(4) 0.65948(6)
H43B H 0.3673 0.8924 0.6442
N5D N 0.1363(3) 0.7751(2) 0.65639(6)
N6D N 0.0751(3) 0.3800(2) 0.66446(5)
C25D C 0.2482(4) 0.9252(3) 0.64597(6)
H29D H 0.2613 0.9036 0.6318
C26D C 0.2650(4) 1.0179(3) 0.64200(8)
H30D H 0.3263 1.0561 0.6377
H31D H 0.2541 1.0404 0.6561
C27D C 0.2057(5) 1.0189(4) 0.62308(9)
H32D H 0.2156 1.0783 0.6213
H33D H 0.2204 1.0015 0.6086
C28D C 0.1102(5) 0.9571(4) 0.62864(9)
H34D H 0.0740 0.9563 0.6159
H35D H 0.0940 0.9785 0.6421
C29D C 0.0915(4) 0.8630(3) 0.63319(8)
H36D H 0.1014 0.8387 0.6192
H37D H 0.0303 0.8259 0.6377
C30D C 0.1524(4) 0.8643(3) 0.65237(6)
H38D H 0.1395 0.8861 0.6666
C31D C 0.1263(4) 0.7496(3) 0.67699(7)
H39D H 0.1268 0.7876 0.6883
C32D C 0.1140(4) 0.6648(3) 0.68427(6)
C33D C 0.1110(4) 0.6020(3) 0.66905(6)
H40D H 0.1180 0.6149 0.6534
C34D C 0.0981(4) 0.5217(2) 0.67633(6)
C35D C 0.0901(4) 0.5032(3) 0.69967(7)
H41D H 0.0824 0.4495 0.7048
C36D C 0.0936(4) 0.5638(3) 0.71535(6)
C37D C 0.1048(4) 0.6443(3) 0.70755(7)
H42D H 0.1061 0.6848 0.7181
C38D C 0.0886(4) 0.5478(3) 0.74003(6)
C39D C 0.0946(4) 0.4572(3) 0.65948(6)
H43D H 0.1076 0.4749 0.6442
N5I N 0.6388(2) 0.7751(2) 0.84361(6)
N6I N 0.3049(2) 0.3800(2) 0.83554(5)
C25I C 0.6770(2) 0.9252(3) 0.85403(6)
H29I H 0.6423 0.9036 0.8682
C26I C 0.7529(3) 1.0179(3) 0.85800(8)
H30I H 0.7298 1.0561 0.8623
H31I H 0.7863 1.0404 0.8439
C27I C 0.8132(3) 1.0189(4) 0.87692(9)
H32I H 0.8627 1.0783 0.8787
H33I H 0.7811 1.0015 0.8914
C28I C 0.8469(3) 0.9571(4) 0.87136(9)
H34I H 0.8823 0.9563 0.8841
H35I H 0.8845 0.9785 0.8579
C29I C 0.7715(3) 0.8630(3) 0.86681(8)
H36I H 0.7373 0.8387 0.8808
H37I H 0.7956 0.8259 0.8623
C30I C 0.7119(2) 0.8643(3) 0.84763(6)
H38I H 0.7466 0.8861 0.8334
C31I C 0.6233(3) 0.7496(3) 0.82301(7)
H39I H 0.6608 0.7876 0.8117
C32I C 0.5508(3) 0.6648(3) 0.81573(6)
C33I C 0.4910(3) 0.6020(3) 0.83095(6)
H40I H 0.4969 0.6149 0.8466
C34I C 0.4236(3) 0.5217(2) 0.82367(6)
C35I C 0.4131(3) 0.5032(3) 0.80033(7)
H41I H 0.3671 0.4495 0.7952
C36I C 0.4702(3) 0.5638(3) 0.78465(6)
C37I C 0.5395(3) 0.6443(3) 0.79245(7)
H42I H 0.5787 0.6848 0.7819
C38I C 0.4592(3) 0.5478(3) 0.75997(6)
C39I C 0.3626(3) 0.4572(3) 0.84052(6)
H43I H 0.3673 0.4749 0.8558
N5J N 0.1363(3) 0.3612(2) 0.84361(6)
N6J N 0.0751(3) 0.6951(2) 0.83554(5)
C25J C 0.2482(4) 0.3230(2) 0.85403(6)
H29J H 0.2613 0.3577 0.8682
C26J C 0.2650(4) 0.2471(3) 0.85800(8)
H30J H 0.3263 0.2702 0.8623
H31J H 0.2541 0.2137 0.8439
C27J C 0.2057(5) 0.1868(3) 0.87692(9)
H32J H 0.2156 0.1373 0.8787
H33J H 0.2204 0.2189 0.8914
C28J C 0.1102(5) 0.1531(3) 0.87136(9)
H34J H 0.0740 0.1177 0.8841
H35J H 0.0940 0.1155 0.8579
C29J C 0.0915(4) 0.2285(3) 0.86681(8)
H36J H 0.1014 0.2627 0.8808
H37J H 0.0303 0.2044 0.8623
C30J C 0.1524(4) 0.2881(2) 0.84763(6)
H38J H 0.1395 0.2534 0.8334
C31J C 0.1263(4) 0.3767(3) 0.82301(7)
H39J H 0.1268 0.3392 0.8117
C32J C 0.1140(4) 0.4492(3) 0.81573(6)
C33J C 0.1110(4) 0.5090(3) 0.83095(6)
H40J H 0.1180 0.5031 0.8466
C34J C 0.0981(4) 0.5764(3) 0.82367(6)
C35J C 0.0901(4) 0.5869(3) 0.80033(7)
H41J H 0.0824 0.6329 0.7952
C36J C 0.0936(4) 0.5298(3) 0.78465(6)
C37J C 0.1048(4) 0.4605(3) 0.79245(7)
H42J H 0.1061 0.4213 0.7819
C38J C 0.0886(4) 0.5408(3) 0.75997(6)
C39J C 0.0946(4) 0.6374(3) 0.84052(6)
H43J H 0.1076 0.6327 0.8558
N5K N 0.2249(2) 0.8637(3) 0.84361(6)
N6K N 0.6200(2) 0.9249(3) 0.83554(5)
C25K C 0.0748(3) 0.7518(4) 0.85403(6)
H29K H 0.0964 0.7387 0.8682
C26K C -0.0179(3) 0.7350(4) 0.85800(8)
H30K H -0.0561 0.6737 0.8623
H31K H -0.0404 0.7459 0.8439
C27K C -0.0189(4) 0.7943(5) 0.87692(9)
H32K H -0.0783 0.7844 0.8787
H33K H -0.0015 0.7796 0.8914
C28K C 0.0429(4) 0.8898(5) 0.87136(9)
H34K H 0.0437 0.9260 0.8841
H35K H 0.0215 0.9060 0.8579
C29K C 0.1370(3) 0.9085(4) 0.86681(8)
H36K H 0.1613 0.8986 0.8808
H37K H 0.1741 0.9697 0.8623
C30K C 0.1357(3) 0.8476(4) 0.84763(6)
H38K H 0.1139 0.8605 0.8334
C31K C 0.2504(3) 0.8737(4) 0.82301(7)
H39K H 0.2124 0.8732 0.8117
C32K C 0.3352(3) 0.8860(4) 0.81573(6)
C33K C 0.3980(3) 0.8890(4) 0.83095(6)
H40K H 0.3851 0.8820 0.8466
C34K C 0.4783(2) 0.9019(4) 0.82367(6)
C35K C 0.4968(3) 0.9099(4) 0.80033(7)
H41K H 0.5505 0.9176 0.7952
C36K C 0.4362(3) 0.9064(4) 0.78465(6)
C37K C 0.3557(3) 0.8952(4) 0.79245(7)
H42K H 0.3152 0.8939 0.7819
C38K C 0.4522(3) 0.9114(4) 0.75997(6)
C39K C 0.5428(3) 0.9054(4) 0.84052(6)
H43K H 0.5251 0.8924 0.8558
loop_
_geom_bond_atom_site_label_1
_geom_bond_atom_site_label_2
_geom_bond_site_symmetry_1
_geom_bond_site_symmetry_2
N1 C3 1_555 1_555
N2 C9 1_555 1_555
N3 C18 1_555 1_555
N4 C24 1_555 1_555
C1 H1 1_555 1_555
C2 C1 1_555 1_555
C3 C2 1_555 1_555
H2 C3 1_555 1_555
C4 N1 1_555 1_555
H3 C4 1_555 1_555
C5 C4 1_555 1_555
H4 C5 1_555 1_555
H5 C5 1_555 1_555
C6 C5 1_555 1_555
H6 C6 1_555 1_555
H7 C6 1_555 1_555
C7 C6 1_555 1_555
H8 C7 1_555 1_555
H9 C7 1_555 1_555
C8 C7 1_555 1_555
H10 C8 1_555 1_555
H11 C8 1_555 1_555
C9 C4 1_555 1_555
H12 C9 1_555 1_555
C10 N2 1_555 1_555
H13 C10 1_555 1_555
C11 C10 1_555 1_555
C12 C11 1_555 1_555
H14 C12 1_555 1_555
C13 C12 1_555 1_555
C14 C13 1_555 1_555
H15 C14 1_555 1_555
C15 C14 1_555 1_555
C16 C11 1_555 1_555
H16 C16 1_555 1_555
C17 C13 1_555 1_555
H17 C17 1_555 1_555
C18 C15 1_555 1_555
H18 C18 1_555 1_555
C19 N3 1_555 1_555
H19 C19 1_555 1_555
C20 C19 1_555 1_555
H20 C20 1_555 1_555
H21 C20 1_555 1_555
C21 C20 1_555 1_555
H22 C21 1_555 1_555
H23 C21 1_555 1_555
C22 C21 1_555 1_555
H24 C22 1_555 1_555
H25 C22 1_555 1_555
C23 C22 1_555 1_555
H26 C23 1_555 1_555
H27 C23 1_555 1_555
C24 C19 1_555 1_555
H28 C24 1_555 1_555
N5 C30 1_555 1_555
N6 C39 1_555 1_555
C25 H29 1_555 1_555
C26 C25 1_555 1_555
H30 C26 1_555 1_555
H31 C26 1_555 1_555
C27 C26 1_555 1_555
H32 C27 1_555 1_555
H33 C27 1_555 1_555
C28 C27 1_555 1_555
H34 C28 1_555 1_555
H35 C28 1_555 1_555
C29 C28 1_555 1_555
H36 C29 1_555 1_555
H37 C29 1_555 1_555
C30 C25 1_555 1_555
H38 C30 1_555 1_555
C31 N5 1_555 1_555
H39 C31 1_555 1_555
C32 C31 1_555 1_555
C33 C32 1_555 1_555
H40 C33 1_555 1_555
C34 C33 1_555 1_555
C35 C34 1_555 1_555
H41 C35 1_555 1_555
C36 C35 1_555 1_555
C37 C32 1_555 1_555
H42 C37 1_555 1_555
C38 C36 1_555 1_555
C39 C34 1_555 1_555
H43 C39 1_555 1_555
N1B C3B 1_555 1_555
N2B C9B 1_555 1_555
N3B C18B 1_555 1_555
N4B C24B 1_555 1_555
C1B C2 1_555 1_555
H1B C1B 1_555 1_555
C2B C1B 1_555 1_555
C3B C2B 1_555 1_555
H2B C3B 1_555 1_555
C4B N1B 1_555 1_555
H3B C4B 1_555 1_555
C5B C4B 1_555 1_555
H4B C5B 1_555 1_555
H5B C5B 1_555 1_555
C6B C5B 1_555 1_555
H6B C6B 1_555 1_555
H7B C6B 1_555 1_555
C7B C6B 1_555 1_555
H8B C7B 1_555 1_555
H9B C7B 1_555 1_555
C8B C7B 1_555 1_555
H10B C8B 1_555 1_555
H11B C8B 1_555 1_555
C9B C4B 1_555 1_555
H12B C9B 1_555 1_555
C10B N2B 1_555 1_555
H13B C10B 1_555 1_555
C11B C10B 1_555 1_555
C12B C11B 1_555 1_555
H14B C12B 1_555 1_555
C13B C12B 1_555 1_555
C14B C13B 1_555 1_555
H15B C14B 1_555 1_555
C15B C14B 1_555 1_555
C16B C11B 1_555 1_555
H16B C16B 1_555 1_555
C17B N4 1_555 1_555
H17B C17B 1_555 1_555
C18B C15B 1_555 1_555
H18B C18B 1_555 1_555
C19B N3B 1_555 1_555
H19B C19B 1_555 1_555
C20B C19B 1_555 1_555
H20B C20B 1_555 1_555
H21B C20B 1_555 1_555
C21B C20B 1_555 1_555
H22B C21B 1_555 1_555
H23B C21B 1_555 1_555
C22B C21B 1_555 1_555
H24B C22B 1_555 1_555
H25B C22B 1_555 1_555
C23B C22B 1_555 1_555
H26B C23B 1_555 1_555
H27B C23B 1_555 1_555
C24B C19B 1_555 1_555
H28B C24B 1_555 1_555
N1D C3D 1_555 1_555
N2D C9D 1_555 1_555
N3D C18D 1_555 1_555
N4D C17 1_555 1_555
C1D C2B 1_555 1_555
H1D C1D 1_555 1_555
C2D C1 1_555 1_555
C3D C2D 1_555 1_555
H2D C3D 1_555 1_555
C4D N1D 1_555 1_555
H3D C4D 1_555 1_555
C5D C4D 1_555 1_555
H4D C5D 1_555 1_555
H5D C5D 1_555 1_555
C6D C5D 1_555 1_555
H6D C6D 1_555 1_555
H7D C6D 1_555 1_555
C7D C6D 1_555 1_555
H8D C7D 1_555 1_555
H9D C7D 1_555 1_555
C8D C7D 1_555 1_555
H10D C8D 1_555 1_555
H11D C8D 1_555 1_555
C9D C4D 1_555 1_555
H12D C9D 1_555 1_555
C10D N2D 1_555 1_555
H13D C10D 1_555 1_555
C11D C10D 1_555 1_555
C12D C11D 1_555 1_555
H14D C12D 1_555 1_555
C13D C12D 1_555 1_555
C14D C13D 1_555 1_555
H15D C14D 1_555 1_555
C15D C14D 1_555 1_555
C16D C11D 1_555 1_555
H16D C16D 1_555 1_555
C17D N4B 1_555 1_555
H17D C17D 1_555 1_555
C18D C15D 1_555 1_555
H18D C18D 1_555 1_555
C19D N3D 1_555 1_555
H19D C19D 1_555 1_555
C20D C19D 1_555 1_555
H20D C20D 1_555 1_555
H21D C20D 1_555 1_555
C21D C20D 1_555 1_555
H22D C21D 1_555 1_555
H23D C21D 1_555 1_555
C22D C21D 1_555 1_555
H24D C22D 1_555 1_555
H25D C22D 1_555 1_555
C23D C22D 1_555 1_555
H26D C23D 1_555 1_555
H27D C23D 1_555 1_555
C24D N4D 1_555 1_555
H28D C24D 1_555 1_555
N5B C30B 1_555 1_555
N6B C39B 1_555 1_555
C25B N6 1_555 1_555
H29B C25B 1_555 1_555
C26B C25B 1_555 1_555
H30B C26B 1_555 1_555
H31B C26B 1_555 1_555
C27B C26B 1_555 1_555
H32B C27B 1_555 1_555
H33B C27B 1_555 1_555
C28B C27B 1_555 1_555
H34B C28B 1_555 1_555
H35B C28B 1_555 1_555
C29B C28B 1_555 1_555
H36B C29B 1_555 1_555
H37B C29B 1_555 1_555
C30B C25B 1_555 1_555
H38B C30B 1_555 1_555
C31B N5B 1_555 1_555
H39B C31B 1_555 1_555
C32B C31B 1_555 1_555
C33B C32B 1_555 1_555
H40B C33B 1_555 1_555
C34B C33B 1_555 1_555
C35B C34B 1_555 1_555
H41B C35B 1_555 1_555
C36B C35B 1_555 1_555
C37B C32B 1_555 1_555
H42B C37B 1_555 1_555
C38B C36B 1_555 1_555
C39B C34B 1_555 1_555
H43B C39B 1_555 1_555
N5D C30D 1_555 1_555
N6D C25 1_555 1_555
C25D N6B 1_555 1_555
H29D C25D 1_555 1_555
C26D C25D 1_555 1_555
H30D C26D 1_555 1_555
H31D C26D 1_555 1_555
C27D C26D 1_555 1_555
H32D C27D 1_555 1_555
H33D C27D 1_555 1_555
C28D C27D 1_555 1_555
H34D C28D 1_555 1_555
H35D C28D 1_555 1_555
C29D C28D 1_555 1_555
H36D C29D 1_555 1_555
H37D C29D 1_555 1_555
C30D C25D 1_555 1_555
H38D C30D 1_555 1_555
C31D N5D 1_555 1_555
H39D C31D 1_555 1_555
C32D C31D 1_555 1_555
C33D C32D 1_555 1_555
H40D C33D 1_555 1_555
C34D C33D 1_555 1_555
C35D C34D 1_555 1_555
H41D C35D 1_555 1_555
C36D C35D 1_555 1_555
C37D C32D 1_555 1_555
H42D C37D 1_555 1_555
C38D C36D 1_555 1_555
C39D N6D 1_555 1_555
H43D C39D 1_555 1_555
N5I C30I 1_555 1_555
N6I C39I 1_555 1_555
C25I H29I 1_555 1_555
C26I C25I 1_555 1_555
H30I C26I 1_555 1_555
H31I C26I 1_555 1_555
C27I C26I 1_555 1_555
H32I C27I 1_555 1_555
H33I C27I 1_555 1_555
C28I C27I 1_555 1_555
H34I C28I 1_555 1_555
H35I C28I 1_555 1_555
C29I C28I 1_555 1_555
H36I C29I 1_555 1_555
H37I C29I 1_555 1_555
C30I C25I 1_555 1_555
H38I C30I 1_555 1_555
C31I N5I 1_555 1_555
H39I C31I 1_555 1_555
C32I C31I 1_555 1_555
C33I C32I 1_555 1_555
H40I C33I 1_555 1_555
C34I C33I 1_555 1_555
C35I C34I 1_555 1_555
H41I C35I 1_555 1_555
C36I C35I 1_555 1_555
C37I C32I 1_555 1_555
H42I C37I 1_555 1_555
C38I C38 1_555 1_555
C39I C34I 1_555 1_555
H43I C39I 1_555 1_555
N5J C30J 1_555 1_555
N6J C39J 1_555 1_555
C25J N6I 1_555 1_555
H29J C25J 1_555 1_555
C26J C25J 1_555 1_555
H30J C26J 1_555 1_555
H31J C26J 1_555 1_555
C27J C26J 1_555 1_555
H32J C27J 1_555 1_555
H33J C27J 1_555 1_555
C28J C27J 1_555 1_555
H34J C28J 1_555 1_555
H35J C28J 1_555 1_555
C29J C28J 1_555 1_555
H36J C29J 1_555 1_555
H37J C29J 1_555 1_555
C30J C25J 1_555 1_555
H38J C30J 1_555 1_555
C31J N5J 1_555 1_555
H39J C31J 1_555 1_555
C32J C31J 1_555 1_555
C33J C32J 1_555 1_555
H40J C33J 1_555 1_555
C34J C33J 1_555 1_555
C35J C34J 1_555 1_555
H41J C35J 1_555 1_555
C36J C35J 1_555 1_555
C37J C32J 1_555 1_555
H42J C37J 1_555 1_555
C38J C38D 1_555 1_555
C39J C34J 1_555 1_555
H43J C39J 1_555 1_555
N5K C30K 1_555 1_555
N6K C25I 1_555 1_555
C25K N6J 1_555 1_555
H29K C25K 1_555 1_555
C26K C25K 1_555 1_555
H30K C26K 1_555 1_555
H31K C26K 1_555 1_555
C27K C26K 1_555 1_555
H32K C27K 1_555 1_555
H33K C27K 1_555 1_555
C28K C27K 1_555 1_555
H34K C28K 1_555 1_555
H35K C28K 1_555 1_555
C29K C28K 1_555 1_555
H36K C29K 1_555 1_555
H37K C29K 1_555 1_555
C30K C25K 1_555 1_555
H38K C30K 1_555 1_555
C31K N5K 1_555 1_555
H39K C31K 1_555 1_555
C32K C31K 1_555 1_555
C33K C32K 1_555 1_555
H40K C33K 1_555 1_555
C34K C33K 1_555 1_555
C35K C34K 1_555 1_555
H41K C35K 1_555 1_555
C36K C35K 1_555 1_555
C37K C32K 1_555 1_555
H42K C37K 1_555 1_555
C38K C38B 1_555 1_555
C39K N6K 1_555 1_555
H43K C39K 1_555 1_555
C8 C9 1_555 1_555
C15 C16 1_555 1_555
C23 C24 1_555 1_555
C29 C30 1_555 1_555
C36 C37 1_555 1_555
C8B C9B 1_555 1_555
C13B C17B 1_555 1_555
C15B C16B 1_555 1_555
C23B C24B 1_555 1_555
C1D C2D 1_555 1_555
C8D C9D 1_555 1_555
C13D C17D 1_555 1_555
C15D C16D 1_555 1_555
C19D C24D 1_555 1_555
C23D C24D 1_555 1_555
C29B C30B 1_555 1_555
C36B C37B 1_555 1_555
C29D C30D 1_555 1_555
C34D C39D 1_555 1_555
C36D C37D 1_555 1_555
C29I C30I 1_555 1_555
C36I C37I 1_555 1_555
C36I C38I 1_555 1_555
C29J C30J 1_555 1_555
C36J C37J 1_555 1_555
C36J C38J 1_555 1_555
C29K C30K 1_555 1_555
C34K C39K 1_555 1_555
C36K C37K 1_555 1_555
C36K C38K 1_555 1_555

#END
