
#######################################################################
#
#                 Cambridge Crystallographic Data Centre
#                                CCDC 
#
#######################################################################
#
# If this CIF has been generated from an entry in the Cambridge 
# Structural Database, then it will include bibliographic, chemical, 
# crystal, experimental, refinement or atomic coordinate data resulting 
# from the CCDC's data processing and validation procedures.
#
#######################################################################

data_CAFJAX
_chemical_name_common            
'Galactosaminium cucurbit[7]uril dihydrogen phosphate phosphoric acid ethanol solvate nonahydrate'
_chemical_formula_moiety         
'C42 H42 N28 O14,C6 H14 N1 O5 1+,0.95(C2 H6 O1),H2 O4 P1 1-,9(H2 O1),1.2(H3 O4 P1)'
_chemical_name_systematic        
'2,4,5-trihydroxy-6-(hydroxymethyl)oxan-3-aminium cucurbit[7]uril dihydrogen phosphate phosphoric acid ethanol solvate nonahydrate'
_symmetry_cell_setting           tetragonal
_symmetry_space_group_name_H-M   'I 41'
_symmetry_Int_Tables_number      80
_space_group_name_Hall           'I 4bw'
loop_
_symmetry_equiv_pos_site_id
_symmetry_equiv_pos_as_xyz
1 x,y,z
2 1/2-x,1/2-y,1/2+z
3 -y,1/2+x,1/4+z
4 1/2+y,-x,3/4+z
5 1/2+x,1/2+y,1/2+z
6 -x,-y,z
7 1/2-y,x,3/4+z
8 y,1/2-x,1/4+z
_cell_length_a                   27.8088(7)
_cell_length_b                   27.8088(7)
_cell_length_c                   20.7762(6)
_cell_angle_alpha                90
_cell_angle_beta                 90
_cell_angle_gamma                90
_cell_volume                     16066.8
_exptl_crystal_colour            colorless
_exptl_crystal_description       block
_cell_formula_units_Z            8
loop_
_atom_site_label
_atom_site_type_symbol
_atom_site_fract_x
_atom_site_fract_y
_atom_site_fract_z
O1 O 0.20497(11) 0.66956(11) 0.16911(16)
O2 O 0.23209(12) 0.55838(13) 0.26878(19)
O3 O 0.31468(13) 0.46210(13) 0.2582(2)
O4 O 0.38207(14) 0.45555(14) 0.1062(3)
O5 O 0.39474(15) 0.53406(18) -0.0493(3)
O6 O 0.34159(15) 0.64238(18) -0.09792(19)
O7 O 0.25367(12) 0.69659(14) 0.00455(18)
O8 O 0.04653(11) 0.55172(12) 0.0376(2)
O9 O 0.06718(11) 0.44704(12) 0.1475(2)
O10 O 0.15524(13) 0.36132(13) 0.1111(2)
O11 O 0.23149(13) 0.33279(12) -0.0322(2)
O12 O 0.23930(15) 0.41087(14) -0.1686(3)
O13 O 0.17412(17) 0.52913(15) -0.2211(2)
O14 O 0.09347(12) 0.58673(11) -0.12279(17)
N1 N 0.13999(12) 0.67407(13) 0.1001(2)
N2 N 0.13315(13) 0.63049(13) 0.1875(2)
N3 N 0.15019(14) 0.55974(14) 0.2531(2)
N4 N 0.18474(14) 0.49159(15) 0.2826(2)
N5 N 0.24037(15) 0.42557(15) 0.2722(3)
N6 N 0.29510(13) 0.38994(14) 0.2109(2)
N7 N 0.34252(14) 0.38310(15) 0.1140(3)
N8 N 0.36806(16) 0.40762(19) 0.0182(3)
N9 N 0.37637(17) 0.45550(19) -0.0798(3)
N10 N 0.36464(17) 0.51488(19) -0.1483(3)
N11 N 0.32363(17) 0.58828(18) -0.1784(2)
N12 N 0.27347(16) 0.64801(16) -0.1587(2)
N13 N 0.21464(14) 0.68704(14) -0.0922(2)
N14 N 0.17057(13) 0.69707(13) -0.0050(2)
N15 N 0.07607(14) 0.62868(14) 0.0487(2)
N16 N 0.07144(12) 0.58233(13) 0.1349(2)
N17 N 0.08327(13) 0.51501(13) 0.2057(2)
N18 N 0.11843(14) 0.44706(14) 0.2347(2)
N19 N 0.17718(13) 0.38438(13) 0.2129(2)
N20 N 0.23118(13) 0.34795(15) 0.1529(2)
N21 N 0.28030(14) 0.33715(16) 0.0591(3)
N22 N 0.31163(16) 0.35489(17) -0.0374(3)
N23 N 0.31758(17) 0.40450(17) -0.1333(3)
N24 N 0.29705(19) 0.46887(18) -0.1903(3)
N25 N 0.25583(19) 0.54176(17) -0.2221(2)
N26 N 0.20725(18) 0.60429(16) -0.2113(2)
N27 N 0.14804(15) 0.64682(15) -0.1455(2)
N28 N 0.10747(14) 0.64980(14) -0.0550(2)
C1 C 0.16379(16) 0.65851(15) 0.1537(2)
C2 C 0.14465(18) 0.61156(16) 0.2503(2)
H1 H 0.1189 0.6211 0.2806
H2 H 0.1749 0.6266 0.2653
C3 C 0.19249(17) 0.53828(18) 0.2676(2)
C4 C 0.21964(19) 0.46187(19) 0.3143(3)
H3 H 0.2042 0.4457 0.3514
H4 H 0.2458 0.4825 0.3312
C5 C 0.28669(17) 0.42841(17) 0.2471(3)
C6 C 0.34152(16) 0.37910(19) 0.1824(3)
H5 H 0.3658 0.4012 0.2007
H6 H 0.3508 0.3459 0.1946
C7 C 0.36617(17) 0.4190(2) 0.0798(4)
C8 C 0.4002(2) 0.4321(3) -0.0247(4)
H7 H 0.4240 0.4087 -0.0413
H8 H 0.4180 0.4568 -0.0001
C9 C 0.38002(18) 0.5046(2) -0.0887(3)
C10 C 0.3686(2) 0.5620(2) -0.1763(3)
H9 H 0.3812 0.5588 -0.2206
H10 H 0.3923 0.5809 -0.1512
C11 C 0.3159(2) 0.6275(2) -0.1407(2)
C12 C 0.25656(19) 0.6925(2) -0.1324(3)
H11 H 0.2488 0.7147 -0.1682
H12 H 0.2826 0.7073 -0.1068
C13 C 0.21655(16) 0.69377(14) -0.0273(2)
C14 C 0.15926(16) 0.71272(15) 0.0600(2)
H13 H 0.1355 0.7391 0.0579
H14 H 0.1888 0.7256 0.0804
C15 C 0.08940(14) 0.66019(15) 0.1002(3)
H15 H 0.0678 0.6889 0.1025
C16 C 0.08526(15) 0.62923(15) 0.1602(2)
H16 H 0.0607 0.6421 0.1908
C17 C 0.10965(16) 0.52792(17) 0.2641(3)
H17 H 0.0878 0.5405 0.2984
C18 C 0.13331(17) 0.47940(18) 0.2840(3)
H18 H 0.1226 0.4686 0.3276
C19 C 0.21788(16) 0.38015(17) 0.2553(3)
H19 H 0.2100 0.3607 0.2944
C20 C 0.25548(16) 0.35466(15) 0.2125(3)
H20 H 0.2660 0.3234 0.2316
C21 C 0.33222(17) 0.34283(19) 0.0703(3)
H21 H 0.3474 0.3122 0.0855
C22 C 0.35132(18) 0.3580(2) 0.0065(3)
H22 H 0.3784 0.3368 -0.0075
C23 C 0.3623(2) 0.4315(2) -0.1378(3)
H23 H 0.3890 0.4114 -0.1556
C24 C 0.3490(2) 0.4730(2) -0.1835(3)
H24 H 0.3658 0.4701 -0.2259
C25 C 0.2881(2) 0.5833(2) -0.2283(3)
H25 H 0.3031 0.5846 -0.2721
C26 C 0.25416(19) 0.6266(2) -0.2168(2)
H26 H 0.2552 0.6497 -0.2536
C27 C 0.16579(18) 0.69082(17) -0.1168(3)
H27 H 0.1615 0.7192 -0.1458
C28 C 0.13540(17) 0.69465(15) -0.0556(2)
H28 H 0.1142 0.7237 -0.0561
C29 C 0.06321(15) 0.58434(15) 0.0704(3)
C30 C 0.04930(16) 0.54636(18) 0.1742(3)
H29 H 0.0276 0.5267 0.1470
H30 H 0.0294 0.5624 0.2073
C31 C 0.08734(14) 0.46754(16) 0.1914(3)
C32 C 0.12864(17) 0.39572(17) 0.2358(3)
H31 H 0.1049 0.3788 0.2085
H32 H 0.1250 0.3837 0.2804
C33 C 0.18465(17) 0.36446(15) 0.1547(3)
C34 C 0.24798(19) 0.31471(19) 0.1032(3)
H33 H 0.2644 0.2872 0.1240
H34 H 0.2199 0.3021 0.0793
C35 C 0.27029(18) 0.34022(16) -0.0063(3)
C36 C 0.3147(2) 0.3570(2) -0.1060(3)
H35 H 0.2861 0.3407 -0.1242
H36 H 0.3433 0.3386 -0.1198
C37 C 0.2810(2) 0.4272(2) -0.1643(3)
C38 C 0.2716(2) 0.4937(2) -0.2404(3)
H37 H 0.2431 0.4744 -0.2528
H38 H 0.2927 0.4962 -0.2787
C39 C 0.2094(2) 0.5565(2) -0.2172(3)
C40 C 0.1621(2) 0.63115(19) -0.2096(3)
H39 H 0.1652 0.6598 -0.2376
H40 H 0.1363 0.6107 -0.2276
C41 C 0.11487(16) 0.62415(16) -0.1094(2)
C42 C 0.06557(17) 0.64497(19) -0.0161(3)
H41 H 0.0434 0.6218 -0.0367
H42 H 0.0490 0.6764 -0.0138
O15 O 0.2004(2) 0.5599(3) -0.0836(3)
H43 H 0.2271 0.5738 -0.0870
O16 O 0.2368(3) 0.5792(2) 0.0319(4)
H44 H 0.2638 0.5920 0.0377
O17 O 0.3190(2) 0.53358(19) 0.0976(4)
H45 H 0.3423 0.5143 0.0958
O18 O 0.19965(19) 0.48546(19) 0.0899(2)
O19 O 0.1715(2) 0.43248(16) 0.0123(3)
H46 H 0.1757 0.4096 0.0380
N29 N 0.11824(18) 0.50365(17) -0.0485(3)
H47 H 0.0903 0.4984 -0.0267
H48 H 0.1259 0.4770 -0.0718
H49 H 0.1145 0.5292 -0.0754
C43 C 0.1574(2) 0.5139(2) -0.0020(3)
H50 H 0.1489 0.5439 0.0220
C44 C 0.2039(3) 0.5226(3) -0.0374(4)
H51 H 0.2129 0.4923 -0.0603
C45 C 0.2427(3) 0.5340(3) 0.0108(5)
H52 H 0.2740 0.5331 -0.0128
C46 C 0.2451(2) 0.4950(2) 0.0635(3)
H53 H 0.2578 0.4648 0.0438
C47 C 0.2776(3) 0.5091(3) 0.1200(4)
H54 H 0.2596 0.5300 0.1501
H55 H 0.2875 0.4798 0.1437
C48 C 0.1628(3) 0.4736(2) 0.0461(3)
H56 H 0.1320 0.4698 0.0702
P1 P 0.18235(18) 0.22839(19) 0.2230(3)
O20 O 0.1536(4) 0.1885(4) 0.2513(5)
O21 O 0.2008(5) 0.2620(5) 0.2720(7)
O22 O 0.1519(5) 0.2550(4) 0.1713(6)
O23 O 0.2244(5) 0.2075(7) 0.1839(9)
P2 P -0.0162(2) 0.5863(3) 0.3642(2)
O24 O 0.0157(5) 0.5957(8) 0.4217(5)
O25 O 0.0062(8) 0.6092(6) 0.3031(6)
O26 O -0.0253(6) 0.5338(4) 0.3496(11)
O27 O -0.0659(5) 0.6115(8) 0.3738(11)
P3 P 0.2402(3) -0.1120(3) 0.0856(3)
O29 O 0.2761(4) -0.1009(5) 0.1430(4)
O30 O 0.2113(7) -0.1606(7) 0.1006(10)
O31 O 0.2026(10) -0.0700(8) 0.0785(19)
O32 O 0.2697(10) -0.1196(14) 0.0220(8)
O37 O 0.298(2) -0.0863(12) -0.129(4)
O38 O 0.2110(4) 0.0592(5) -0.0506(5)
H57 H 0.1835 0.0689 -0.0400
C49 C 0.2536(8) -0.0202(8) -0.0383(15)
H58 H 0.2630 -0.0436 -0.0053
H59 H 0.2824 -0.0081 -0.0601
H60 H 0.2325 -0.0358 -0.0698
C50 C 0.2266(4) 0.0222(5) -0.0062(6)
H61 H 0.1981 0.0094 0.0167
H62 H 0.2480 0.0370 0.0264
O39 O 0.02736(13) 0.35880(14) 0.1247(2)
O40 O 0.14733(17) 0.44920(14) -0.1547(2)
O41 O 0.5000 0.5000 -0.1844(19)
O42 O 0.4680(3) 0.5666(4) 0.0177(6)
O43 O 0.0259(4) 0.4551(3) -0.0588(6)
O45 O 0.5000 0.5000 0.0924(7)
O46 O 0.2594(7) -0.1943(5) -0.0213(13)
O47 O 0.2622(12) 0.113(3) 0.173(3)
O49 O -0.1310(9) 0.5897(8) 0.458(2)
O28? O -0.0026(8) 0.6211(17) 0.3551(15)
P4? P 0.3525(4) -0.1004(7) -0.0709(4)
O33? O 0.3977(6) -0.1183(11) -0.0950(8)
O34? O 0.3100(10) -0.1400(12) -0.0807(19)
O35? O 0.3503(5) -0.0902(8) 0.0029(5)
O36? O 0.3330(14) -0.0533(11) -0.1024(11)
O44? O 0.0450(3) 0.4404(4) -0.0204(7)
O48? O 0.2209(3) 0.1213(7) 0.1493(10)
loop_
_geom_bond_atom_site_label_1
_geom_bond_atom_site_label_2
_geom_bond_site_symmetry_1
_geom_bond_site_symmetry_2
O1 C1 1_555 1_555
O2 C3 1_555 1_555
O3 C5 1_555 1_555
O4 C7 1_555 1_555
O5 C9 1_555 1_555
O6 C11 1_555 1_555
O7 C13 1_555 1_555
O8 C29 1_555 1_555
O9 C31 1_555 1_555
O10 C33 1_555 1_555
O11 C35 1_555 1_555
O12 C37 1_555 1_555
O13 C39 1_555 1_555
O14 C41 1_555 1_555
N1 C1 1_555 1_555
N2 C1 1_555 1_555
N3 C2 1_555 1_555
N4 C3 1_555 1_555
N5 C4 1_555 1_555
N6 C5 1_555 1_555
N7 C6 1_555 1_555
N8 C7 1_555 1_555
N9 C8 1_555 1_555
N10 C9 1_555 1_555
N11 C10 1_555 1_555
N12 C11 1_555 1_555
N13 C12 1_555 1_555
N14 C13 1_555 1_555
N15 C15 1_555 1_555
N16 C16 1_555 1_555
N17 C17 1_555 1_555
N18 C18 1_555 1_555
N19 C19 1_555 1_555
N20 C20 1_555 1_555
N21 C21 1_555 1_555
N22 C22 1_555 1_555
N23 C23 1_555 1_555
N24 C24 1_555 1_555
N25 C25 1_555 1_555
N26 C26 1_555 1_555
N27 C27 1_555 1_555
N28 C28 1_555 1_555
C2 N2 1_555 1_555
H1 C2 1_555 1_555
H2 C2 1_555 1_555
C3 N3 1_555 1_555
C4 N4 1_555 1_555
H3 C4 1_555 1_555
H4 C4 1_555 1_555
C5 N5 1_555 1_555
C6 N6 1_555 1_555
H5 C6 1_555 1_555
H6 C6 1_555 1_555
C7 N7 1_555 1_555
C8 N8 1_555 1_555
H7 C8 1_555 1_555
H8 C8 1_555 1_555
C9 N9 1_555 1_555
C10 N10 1_555 1_555
H9 C10 1_555 1_555
H10 C10 1_555 1_555
C11 N11 1_555 1_555
C12 N12 1_555 1_555
H11 C12 1_555 1_555
H12 C12 1_555 1_555
C13 N13 1_555 1_555
C14 N1 1_555 1_555
H13 C14 1_555 1_555
H14 C14 1_555 1_555
C15 N1 1_555 1_555
H15 C15 1_555 1_555
C16 N2 1_555 1_555
H16 C16 1_555 1_555
C17 N3 1_555 1_555
H17 C17 1_555 1_555
C18 N4 1_555 1_555
H18 C18 1_555 1_555
C19 N5 1_555 1_555
H19 C19 1_555 1_555
C20 N6 1_555 1_555
H20 C20 1_555 1_555
C21 N7 1_555 1_555
H21 C21 1_555 1_555
C22 N8 1_555 1_555
H22 C22 1_555 1_555
C23 N9 1_555 1_555
H23 C23 1_555 1_555
C24 N10 1_555 1_555
H24 C24 1_555 1_555
C25 N11 1_555 1_555
H25 C25 1_555 1_555
C26 N12 1_555 1_555
H26 C26 1_555 1_555
C27 N13 1_555 1_555
H27 C27 1_555 1_555
C28 N14 1_555 1_555
H28 C28 1_555 1_555
C29 N15 1_555 1_555
C30 N16 1_555 1_555
H29 C30 1_555 1_555
H30 C30 1_555 1_555
C31 N17 1_555 1_555
C32 N18 1_555 1_555
H31 C32 1_555 1_555
H32 C32 1_555 1_555
C33 N19 1_555 1_555
C34 N20 1_555 1_555
H33 C34 1_555 1_555
H34 C34 1_555 1_555
C35 N21 1_555 1_555
C36 N22 1_555 1_555
H35 C36 1_555 1_555
H36 C36 1_555 1_555
C37 N23 1_555 1_555
C38 N24 1_555 1_555
H37 C38 1_555 1_555
H38 C38 1_555 1_555
C39 N25 1_555 1_555
C40 N26 1_555 1_555
H39 C40 1_555 1_555
H40 C40 1_555 1_555
C41 N27 1_555 1_555
C42 N15 1_555 1_555
H41 C42 1_555 1_555
H42 C42 1_555 1_555
O15 H43 1_555 1_555
O16 H44 1_555 1_555
O17 H45 1_555 1_555
O18 C46 1_555 1_555
O19 H46 1_555 1_555
N29 H47 1_555 1_555
H48 N29 1_555 1_555
H49 N29 1_555 1_555
C43 N29 1_555 1_555
H50 C43 1_555 1_555
C44 O15 1_555 1_555
H51 C44 1_555 1_555
C45 O16 1_555 1_555
H52 C45 1_555 1_555
C46 C45 1_555 1_555
H53 C46 1_555 1_555
C47 O17 1_555 1_555
H54 C47 1_555 1_555
H55 C47 1_555 1_555
C48 O18 1_555 1_555
H56 C48 1_555 1_555
P1 O20 1_555 1_555
O21 P1 1_555 1_555
O22 P1 1_555 1_555
O23 P1 1_555 1_555
P2 O24 1_555 1_555
O25 P2 1_555 1_555
O26 P2 1_555 1_555
O27 P2 1_555 1_555
P3 O29 1_555 1_555
O30 P3 1_555 1_555
O31 P3 1_555 1_555
O32 P3 1_555 1_555
O38 H57 1_555 1_555
C49 H58 1_555 1_555
H59 C49 1_555 1_555
H60 C49 1_555 1_555
C50 O38 1_555 1_555
H61 C50 1_555 1_555
H62 C50 1_555 1_555
N14 C14 1_555 1_555
N16 C29 1_555 1_555
N17 C30 1_555 1_555
N18 C31 1_555 1_555
N19 C32 1_555 1_555
N20 C33 1_555 1_555
N21 C34 1_555 1_555
N22 C35 1_555 1_555
N23 C36 1_555 1_555
N24 C37 1_555 1_555
N25 C38 1_555 1_555
N26 C39 1_555 1_555
N27 C40 1_555 1_555
N28 C41 1_555 1_555
N28 C42 1_555 1_555
C15 C16 1_555 1_555
C17 C18 1_555 1_555
C19 C20 1_555 1_555
C21 C22 1_555 1_555
C23 C24 1_555 1_555
C25 C26 1_555 1_555
C27 C28 1_555 1_555
O19 C48 1_555 1_555
C43 C44 1_555 1_555
C43 C48 1_555 1_555
C44 C45 1_555 1_555
C46 C47 1_555 1_555
C49 C50 1_555 1_555

#END
