
#######################################################################
#
#                 Cambridge Crystallographic Data Centre
#                                CCDC 
#
#######################################################################
#
# If this CIF has been generated from an entry in the Cambridge 
# Structural Database, then it will include bibliographic, chemical, 
# crystal, experimental, refinement or atomic coordinate data resulting 
# from the CCDC's data processing and validation procedures.
#
#######################################################################

data_CAXFOZ
_chemical_formula_moiety         'C154 H182 N25 O7'
_symmetry_cell_setting           cubic
_symmetry_space_group_name_H-M   'F 2 3'
_symmetry_Int_Tables_number      196
_space_group_name_Hall           'F 2 2 3'
loop_
_symmetry_equiv_pos_site_id
_symmetry_equiv_pos_as_xyz
1 x,y,z
2 -x,-y,z
3 -x,y,-z
4 x,-y,-z
5 z,x,y
6 z,-x,-y
7 -z,-x,y
8 -z,x,-y
9 y,z,x
10 -y,z,-x
11 y,-z,-x
12 -y,-z,x
13 x,1/2+y,1/2+z
14 -x,1/2-y,1/2+z
15 -x,1/2+y,1/2-z
16 x,1/2-y,1/2-z
17 z,1/2+x,1/2+y
18 z,1/2-x,1/2-y
19 -z,1/2-x,1/2+y
20 -z,1/2+x,1/2-y
21 y,1/2+z,1/2+x
22 -y,1/2+z,1/2-x
23 y,1/2-z,1/2-x
24 -y,1/2-z,1/2+x
25 1/2+x,y,1/2+z
26 1/2-x,-y,1/2+z
27 1/2-x,y,1/2-z
28 1/2+x,-y,1/2-z
29 1/2+z,x,1/2+y
30 1/2+z,-x,1/2-y
31 1/2-z,-x,1/2+y
32 1/2-z,x,1/2-y
33 1/2+y,z,1/2+x
34 1/2-y,z,1/2-x
35 1/2+y,-z,1/2-x
36 1/2-y,-z,1/2+x
37 1/2+x,1/2+y,z
38 1/2-x,1/2-y,z
39 1/2-x,1/2+y,-z
40 1/2+x,1/2-y,-z
41 1/2+z,1/2+x,y
42 1/2+z,1/2-x,-y
43 1/2-z,1/2-x,y
44 1/2-z,1/2+x,-y
45 1/2+y,1/2+z,x
46 1/2-y,1/2+z,-x
47 1/2+y,1/2-z,-x
48 1/2-y,1/2-z,x
_cell_length_a                   24.1722(10)
_cell_length_b                   24.1722(10)
_cell_length_c                   24.1722(10)
_cell_angle_alpha                90
_cell_angle_beta                 90
_cell_angle_gamma                90
_cell_volume                     14123.7
loop_
_atom_site_label
_atom_site_type_symbol
_atom_site_fract_x
_atom_site_fract_y
_atom_site_fract_z
N1 N 0.7300(2) 0.5382(3) 0.5475(2)
C1 C 0.7763(3) 0.5292(3) 0.5106(3)
H1 H 0.771(3) 0.552(3) 0.473(3)
C2 C 0.6943(3) 0.5743(3) 0.5335(3)
H2 H 0.6994 0.5939 0.4999
C3 C 0.6325(3) 0.5546(3) 0.6130(3)
H3 H 0.6548 0.5235 0.6221
C4 C 0.6456(3) 0.5866(3) 0.5675(3)
C5 C 0.8327(3) 0.5353(4) 0.5406(4)
H4 H 0.8336 0.5715 0.5596
H5 H 0.8355 0.5062 0.5693
C6 C 0.8824(9) 0.5311(10) 0.5030(11)
H6 H 0.9166 0.5451 0.5208
H7 H 0.8765 0.5502 0.4673
N1C N 0.7300(2) 0.4618(3) 0.4525(2)
C1C C 0.7763(3) 0.4708(3) 0.4894(3)
H1C H 0.771(3) 0.448(3) 0.527(3)
C2C C 0.6943(3) 0.4257(3) 0.4665(3)
H2C H 0.6994 0.4061 0.5001
C3C C 0.6325(3) 0.4454(3) 0.3870(3)
H3C H 0.6548 0.4765 0.3779
C4C C 0.6456(3) 0.4134(3) 0.4325(3)
C5C C 0.8327(3) 0.4647(4) 0.4594(4)
H4C H 0.8336 0.4285 0.4404
H5C H 0.8355 0.4938 0.4307
C6C C 0.8824(9) 0.4689(10) 0.4970(11)
H6C H 0.9166 0.4549 0.4792
H7C H 0.8765 0.4498 0.5327
N1D N 0.5475(2) 0.7300(2) 0.5382(3)
C1D C 0.5106(3) 0.7763(3) 0.5292(3)
H1D H 0.473(3) 0.771(3) 0.552(3)
C2D C 0.5335(3) 0.6943(3) 0.5743(3)
H2D H 0.4999 0.6994 0.5939
C3D C 0.6130(3) 0.6325(3) 0.5546(3)
H3D H 0.6221 0.6548 0.5235
C4D C 0.5675(3) 0.6456(3) 0.5866(3)
C5D C 0.5406(4) 0.8327(3) 0.5353(4)
H4D H 0.5596 0.8336 0.5715
H5D H 0.5693 0.8355 0.5062
C6D C 0.5030(11) 0.8824(9) 0.5311(10)
H6D H 0.5208 0.9166 0.5451
H7D H 0.4673 0.8765 0.5502
N1H N 0.5382(3) 0.5475(2) 0.7300(2)
C1H C 0.5292(3) 0.5106(3) 0.7763(3)
H1H H 0.552(3) 0.473(3) 0.771(3)
C2H C 0.5743(3) 0.5335(3) 0.6943(3)
H2H H 0.5939 0.4999 0.6994
C3H C 0.5546(3) 0.6130(3) 0.6325(3)
H3H H 0.5235 0.6221 0.6548
C4H C 0.5866(3) 0.5675(3) 0.6456(3)
C5H C 0.5353(4) 0.5406(4) 0.8327(3)
H4H H 0.5715 0.5596 0.8336
H5H H 0.5062 0.5693 0.8355
C6H C 0.5311(10) 0.5030(11) 0.8824(9)
H6H H 0.5451 0.5208 0.9166
H7H H 0.5502 0.4673 0.8765
N1E N 0.5475(2) 0.2700(2) 0.4618(3)
C1E C 0.5106(3) 0.2237(3) 0.4708(3)
H1E H 0.473(3) 0.229(3) 0.448(3)
C2E C 0.5335(3) 0.3057(3) 0.4257(3)
H2E H 0.4999 0.3006 0.4061
C3E C 0.6130(3) 0.3675(3) 0.4454(3)
H3E H 0.6221 0.3452 0.4765
C4E C 0.5675(3) 0.3544(3) 0.4134(3)
C5E C 0.5406(4) 0.1673(3) 0.4647(4)
H4E H 0.5596 0.1664 0.4285
H5E H 0.5693 0.1645 0.4938
C6E C 0.5030(11) 0.1176(9) 0.4689(10)
H6E H 0.5208 0.0834 0.4549
H7E H 0.4673 0.1235 0.4498
N1F N 0.4525(2) 0.2700(2) 0.5382(3)
C1F C 0.4894(3) 0.2237(3) 0.5292(3)
H1F H 0.527(3) 0.229(3) 0.552(3)
C2F C 0.4665(3) 0.3057(3) 0.5743(3)
H2F H 0.5001 0.3006 0.5939
C3F C 0.3870(3) 0.3675(3) 0.5546(3)
H3F H 0.3779 0.3452 0.5235
C4F C 0.4325(3) 0.3544(3) 0.5866(3)
C5F C 0.4594(4) 0.1673(3) 0.5353(4)
H4F H 0.4404 0.1664 0.5715
H5F H 0.4307 0.1645 0.5062
C6F C 0.4970(11) 0.1176(9) 0.5311(10)
H6F H 0.4792 0.0834 0.5451
H7F H 0.5327 0.1235 0.5502
N1G N 0.4525(2) 0.7300(2) 0.4618(3)
C1G C 0.4894(3) 0.7763(3) 0.4708(3)
H1G H 0.527(3) 0.771(3) 0.448(3)
C2G C 0.4665(3) 0.6943(3) 0.4257(3)
H2G H 0.5001 0.6994 0.4061
C3G C 0.3870(3) 0.6325(3) 0.4454(3)
H3G H 0.3779 0.6548 0.4765
C4G C 0.4325(3) 0.6456(3) 0.4134(3)
C5G C 0.4594(4) 0.8327(3) 0.4647(4)
H4G H 0.4404 0.8336 0.4285
H5G H 0.4307 0.8355 0.4938
C6G C 0.4970(11) 0.8824(9) 0.4689(10)
H6G H 0.4792 0.9166 0.4549
H7G H 0.5327 0.8765 0.4498
N1I N 0.4618(3) 0.5475(2) 0.2700(2)
C1I C 0.4708(3) 0.5106(3) 0.2237(3)
H1I H 0.448(3) 0.473(3) 0.229(3)
C2I C 0.4257(3) 0.5335(3) 0.3057(3)
H2I H 0.4061 0.4999 0.3006
C3I C 0.4454(3) 0.6130(3) 0.3675(3)
H3I H 0.4765 0.6221 0.3452
C4I C 0.4134(3) 0.5675(3) 0.3544(3)
C5I C 0.4647(4) 0.5406(4) 0.1673(3)
H4I H 0.4285 0.5596 0.1664
H5I H 0.4938 0.5693 0.1645
C6I C 0.4689(10) 0.5030(11) 0.1176(9)
H6I H 0.4549 0.5208 0.0834
H7I H 0.4498 0.4673 0.1235
N1J N 0.5382(3) 0.4525(2) 0.2700(2)
C1J C 0.5292(3) 0.4894(3) 0.2237(3)
H1J H 0.552(3) 0.527(3) 0.229(3)
C2J C 0.5743(3) 0.4665(3) 0.3057(3)
H2J H 0.5939 0.5001 0.3006
C3J C 0.5546(3) 0.3870(3) 0.3675(3)
H3J H 0.5235 0.3779 0.3452
C4J C 0.5866(3) 0.4325(3) 0.3544(3)
C5J C 0.5353(4) 0.4594(4) 0.1673(3)
H4J H 0.5715 0.4404 0.1664
H5J H 0.5062 0.4307 0.1645
C6J C 0.5311(10) 0.4970(11) 0.1176(9)
H6J H 0.5451 0.4792 0.0834
H7J H 0.5502 0.5327 0.1235
N1K N 0.4618(3) 0.4525(2) 0.7300(2)
C1K C 0.4708(3) 0.4894(3) 0.7763(3)
H1K H 0.448(3) 0.527(3) 0.771(3)
C2K C 0.4257(3) 0.4665(3) 0.6943(3)
H2K H 0.4061 0.5001 0.6994
C3K C 0.4454(3) 0.3870(3) 0.6325(3)
H3K H 0.4765 0.3779 0.6548
C4K C 0.4134(3) 0.4325(3) 0.6456(3)
C5K C 0.4647(4) 0.4594(4) 0.8327(3)
H4K H 0.4285 0.4404 0.8336
H5K H 0.4938 0.4307 0.8355
C6K C 0.4689(10) 0.4970(11) 0.8824(9)
H6K H 0.4549 0.4792 0.9166
H7K H 0.4498 0.5327 0.8765
N1A N 0.2700(2) 0.4618(3) 0.5475(2)
C1A C 0.2237(3) 0.4708(3) 0.5106(3)
H1A H 0.229(3) 0.448(3) 0.473(3)
C2A C 0.3057(3) 0.4257(3) 0.5335(3)
H2A H 0.3006 0.4061 0.4999
C3A C 0.3675(3) 0.4454(3) 0.6130(3)
H3A H 0.3452 0.4765 0.6221
C4A C 0.3544(3) 0.4134(3) 0.5675(3)
C5A C 0.1673(3) 0.4647(4) 0.5406(4)
H4A H 0.1664 0.4285 0.5596
H5A H 0.1645 0.4938 0.5693
C6A C 0.1176(9) 0.4689(10) 0.5030(11)
H6A H 0.0834 0.4549 0.5208
H7A H 0.1235 0.4498 0.4673
N1B N 0.2700(2) 0.5382(3) 0.4525(2)
C1B C 0.2237(3) 0.5292(3) 0.4894(3)
H1B H 0.229(3) 0.552(3) 0.527(3)
C2B C 0.3057(3) 0.5743(3) 0.4665(3)
H2B H 0.3006 0.5939 0.5001
C3B C 0.3675(3) 0.5546(3) 0.3870(3)
H3B H 0.3452 0.5235 0.3779
C4B C 0.3544(3) 0.5866(3) 0.4325(3)
C5B C 0.1673(3) 0.5353(4) 0.4594(4)
H4B H 0.1664 0.5715 0.4404
H5B H 0.1645 0.5062 0.4307
C6B C 0.1176(9) 0.5311(10) 0.4970(11)
H6B H 0.0834 0.5451 0.4792
H7B H 0.1235 0.5502 0.5327
N2 N 0.7983(4) 0.7111(5) 0.4817(4)
C7 C 0.8187(5) 0.6628(5) 0.3968(5)
C8 C 0.7831(5) 0.6777(5) 0.4446(5)
H8 H 0.7475 0.6614 0.4474
C9 C 0.8047(5) 0.6175(4) 0.3649(5)
H9 H 0.7731 0.5960 0.3741
C10 C 0.7598(5) 0.7198(5) 0.5279(5)
H10 H 0.7274 0.6943 0.5244
H11 H 0.7981 0.6701 0.5827
H12 H 0.8244 0.7301 0.5795
C11 C 0.7687(12) 0.7213(12) 0.6282(13)
C12 C 0.7888(11) 0.7100(9) 0.5818(6)
N2IA N 0.7889(5) 0.5183(4) 0.2983(4)
C7IA C 0.8372(5) 0.6032(5) 0.3187(5)
C8IA C 0.8223(5) 0.5554(5) 0.2831(5)
H8IA H 0.8386 0.5526 0.2475
C9IA C 0.8825(4) 0.6351(5) 0.3047(5)
H9IA H 0.9040 0.6259 0.2731
C10IA C 0.7802(5) 0.4721(5) 0.2598(5)
H10IA H 0.8057 0.4756 0.2274
H11IA H 0.8299 0.4173 0.2981
H12IA H 0.7699 0.4205 0.3244
C11IA C 0.7787(12) 0.3718(13) 0.2687(12)
C12IA C 0.7900(9) 0.4182(6) 0.2888(11)
N2KA N 0.7017(4) 0.7889(5) 0.4817(4)
C7KA C 0.6813(5) 0.8372(5) 0.3968(5)
C8KA C 0.7169(5) 0.8223(5) 0.4446(5)
H8KA H 0.7525 0.8386 0.4474
C9KA C 0.6953(5) 0.8825(4) 0.3649(5)
H9KA H 0.7269 0.9040 0.3741
C10KA C 0.7402(5) 0.7802(5) 0.5279(5)
H10KA H 0.7726 0.8057 0.5244
H11KA H 0.7019 0.8299 0.5827
H12KA H 0.6756 0.7699 0.5795
C11KA C 0.7313(12) 0.7787(12) 0.6282(13)
C12KA C 0.7112(11) 0.7900(9) 0.5818(6)
N2OA N 0.9817(4) 0.7017(4) 0.2889(5)
C7OA C 0.8968(5) 0.6813(5) 0.3372(5)
C8OA C 0.9446(5) 0.7169(5) 0.3223(5)
H8OA H 0.9474 0.7525 0.3386
C9OA C 0.8649(5) 0.6953(5) 0.3825(4)
H9OA H 0.8741 0.7269 0.4040
C10OA C 1.0279(5) 0.7402(5) 0.2802(5)
H10OA H 1.0244 0.7726 0.3057
H11OA H 1.0827 0.7019 0.3299
H12OA H 1.0795 0.6756 0.2699
C11OA C 1.1282(13) 0.7313(12) 0.2787(12)
C12OA C 1.0818(6) 0.7112(11) 0.2900(9)
N2G N 0.5183(4) 0.7983(4) 0.2889(5)
C7G C 0.6032(5) 0.8187(5) 0.3372(5)
C8G C 0.5554(5) 0.7831(5) 0.3223(5)
H8G H 0.5526 0.7475 0.3386
C9G C 0.6351(5) 0.8047(5) 0.3825(4)
H9G H 0.6259 0.7731 0.4040
C10G C 0.4721(5) 0.7598(5) 0.2802(5)
H10G H 0.4756 0.7274 0.3057
H11G H 0.4173 0.7981 0.3299
H12G H 0.4205 0.8244 0.2699
C11G C 0.3718(13) 0.7687(12) 0.2787(12)
C12G C 0.4182(6) 0.7888(11) 0.2900(9)
N2J N 0.7111(5) 0.5183(4) 0.2017(4)
C7J C 0.6628(5) 0.6032(5) 0.1813(5)
C8J C 0.6777(5) 0.5554(5) 0.2169(5)
H8J H 0.6614 0.5526 0.2525
C9J C 0.6175(4) 0.6351(5) 0.1953(5)
H9J H 0.5960 0.6259 0.2269
C10J C 0.7198(5) 0.4721(5) 0.2402(5)
H10J H 0.6943 0.4756 0.2726
H11J H 0.6701 0.4173 0.2019
H12J H 0.7301 0.4205 0.1756
C11J C 0.7213(12) 0.3718(13) 0.2313(12)
C12J C 0.7100(9) 0.4182(6) 0.2112(11)
N2R N 0.5183(4) 0.7017(4) 0.2111(5)
C7R C 0.6032(5) 0.6813(5) 0.1628(5)
C8R C 0.5554(5) 0.7169(5) 0.1777(5)
H8R H 0.5526 0.7525 0.1614
C9R C 0.6351(5) 0.6953(5) 0.1175(4)
H9R H 0.6259 0.7269 0.0960
C10R C 0.4721(5) 0.7402(5) 0.2198(5)
H10R H 0.4756 0.7726 0.1943
H11R H 0.4173 0.7019 0.1701
H12R H 0.4205 0.6756 0.2301
C11R C 0.3718(13) 0.7313(12) 0.2213(12)
C12R C 0.4182(6) 0.7112(11) 0.2100(9)
N2T N 0.7111(5) 0.9817(4) 0.2983(4)
C7T C 0.6628(5) 0.8968(5) 0.3187(5)
C8T C 0.6777(5) 0.9446(5) 0.2831(5)
H8T H 0.6614 0.9474 0.2475
C9T C 0.6175(4) 0.8649(5) 0.3047(5)
H9T H 0.5960 0.8741 0.2731
C10T C 0.7198(5) 1.0279(5) 0.2598(5)
H10T H 0.6943 1.0244 0.2274
H11T H 0.6701 1.0827 0.2981
H12T H 0.7301 1.0795 0.3244
C11T C 0.7213(12) 1.1282(13) 0.2687(12)
C12T C 0.7100(9) 1.0818(6) 0.2888(11)
N2BA N 0.9817(4) 0.7983(4) 0.2111(5)
C7BA C 0.8968(5) 0.8187(5) 0.1628(5)
C8BA C 0.9446(5) 0.7831(5) 0.1777(5)
H8BA H 0.9474 0.7475 0.1614
C9BA C 0.8649(5) 0.8047(5) 0.1175(4)
H9BA H 0.8741 0.7731 0.0960
C10BA C 1.0279(5) 0.7598(5) 0.2198(5)
H10BA H 1.0244 0.7274 0.1943
H11BA H 1.0827 0.7981 0.1701
H12BA H 1.0795 0.8244 0.2301
C11BA C 1.1282(13) 0.7687(12) 0.2213(12)
C12BA C 1.0818(6) 0.7888(11) 0.2100(9)
N2SA N 0.7889(5) 0.9817(4) 0.2017(4)
C7SA C 0.8372(5) 0.8968(5) 0.1813(5)
C8SA C 0.8223(5) 0.9446(5) 0.2169(5)
H8SA H 0.8386 0.9474 0.2525
C9SA C 0.8825(4) 0.8649(5) 0.1953(5)
H9SA H 0.9040 0.8741 0.2269
C10SA C 0.7802(5) 1.0279(5) 0.2402(5)
H10SA H 0.8057 1.0244 0.2726
H11SA H 0.8299 1.0827 0.2019
H12SA H 0.7699 1.0795 0.1756
C11SA C 0.7787(12) 1.1282(13) 0.2313(12)
C12SA C 0.7900(9) 1.0818(6) 0.2112(11)
N2O N 0.7983(4) 0.7889(5) 0.0183(4)
C7O C 0.8187(5) 0.8372(5) 0.1032(5)
C8O C 0.7831(5) 0.8223(5) 0.0554(5)
H8O H 0.7475 0.8386 0.0526
C9O C 0.8047(5) 0.8825(4) 0.1351(5)
H9O H 0.7731 0.9040 0.1259
C10O C 0.7598(5) 0.7802(5) -0.0279(5)
H10O H 0.7274 0.8057 -0.0244
H11O H 0.7981 0.8299 -0.0827
H12O H 0.8244 0.7699 -0.0795
C11O C 0.7687(12) 0.7787(12) -0.1282(13)
C12O C 0.7888(11) 0.7900(9) -0.0818(6)
N2Z N 0.7017(4) 0.7111(5) 0.0183(4)
C7Z C 0.6813(5) 0.6628(5) 0.1032(5)
C8Z C 0.7169(5) 0.6777(5) 0.0554(5)
H8Z H 0.7525 0.6614 0.0526
C9Z C 0.6953(5) 0.6175(4) 0.1351(5)
H9Z H 0.7269 0.5960 0.1259
C10Z C 0.7402(5) 0.7198(5) -0.0279(5)
H10Z H 0.7726 0.6943 -0.0244
H11Z H 0.7019 0.6701 -0.0827
H12Z H 0.6756 0.7301 -0.0795
C11Z C 0.7313(12) 0.7213(12) -0.1282(13)
C12Z C 0.7112(11) 0.7100(9) -0.0818(6)
O1 O 0.873(3) 0.873(3) 0.373(3)
O2 O 0.5713(10) 0.5713(10) 0.4287(10)
O3 O 0.5485(18) 0.5485(18) 0.4515(18)
O4 O 0.7500 0.2500 0.7500
H13? H 0.8317 0.5192 0.5783
H14? H 0.8447 0.5744 0.5426
C13? C 0.8709(8) 0.5000 0.5000
H15? H 0.8949 0.5251 0.4782
H16? H 0.8949 0.5251 0.4782
N3? N 0.7890(6) 0.7960(6) 0.4792(5)
C14? C 0.8380(6) 0.8162(6) 0.3956(6)
C15? C 0.8048(7) 0.8621(6) 0.3819(6)
H17? H 0.7734 0.8701 0.4041
C16? C 0.8247(6) 0.7814(6) 0.4451(7)
H18? H 0.8440 0.7476 0.4506
C17? C 0.7757(12) 0.7565(14) 0.5294(12)
C18? C 0.8056(18) 0.7039(18) 0.544(2)
C19? C 0.7726(13) 0.7937(13) 0.5836(12)
C20? C 0.7757(12) 0.7565(14) 0.5294(12)
O5? O 0.795(2) 0.763(2) 0.512(2)
O6? O 0.841(5) 0.659(5) 0.341(5)
C21? C 0.7500 0.7500 0.6247(19)
O7? O 0.8721 0.6401 0.3839
C22? C 0.7888(11) 0.7100(9) 0.5818(6)
loop_
_geom_bond_atom_site_label_1
_geom_bond_atom_site_label_2
_geom_bond_site_symmetry_1
_geom_bond_site_symmetry_2
N1 C1 1_555 1_555
C1 H1 1_555 1_555
C2 N1 1_555 1_555
H2 C2 1_555 1_555
C3 H3 1_555 1_555
C4 C2 1_555 1_555
C5 C1 1_555 1_555
H4 C5 1_555 1_555
H5 C5 1_555 1_555
C6 C5 1_555 1_555
H6 C6 1_555 1_555
H7 C6 1_555 1_555
N2 C8 1_555 1_555
C7 C8 1_555 1_555
C8 H8 1_555 1_555
C9 C7 1_555 1_555
H9 C9 1_555 1_555
C10 N2 1_555 1_555
H10 C10 1_555 1_555
H11 C12 1_555 1_555
H12 C12 1_555 1_555
C11 C12 1_555 1_555
C12 C10 1_555 1_555
N1C C1C 1_555 1_555
C1C C1 1_555 1_555
H1C C1C 1_555 1_555
C2C N1C 1_555 1_555
H2C C2C 1_555 1_555
C3C H3C 1_555 1_555
C4C C2C 1_555 1_555
C5C C1C 1_555 1_555
H4C C5C 1_555 1_555
H5C C5C 1_555 1_555
C6C C6 1_555 1_555
H6C C6C 1_555 1_555
H7C C6C 1_555 1_555
N1D C1D 1_555 1_555
C1D H1D 1_555 1_555
C2D N1D 1_555 1_555
H2D C2D 1_555 1_555
C3D C4 1_555 1_555
H3D C3D 1_555 1_555
C4D C2D 1_555 1_555
C5D C1D 1_555 1_555
H4D C5D 1_555 1_555
H5D C5D 1_555 1_555
C6D C5D 1_555 1_555
H6D C6D 1_555 1_555
H7D C6D 1_555 1_555
N1H C1H 1_555 1_555
C1H H1H 1_555 1_555
C2H N1H 1_555 1_555
H2H C2H 1_555 1_555
C3H C4D 1_555 1_555
H3H C3H 1_555 1_555
C4H C3 1_555 1_555
C5H C1H 1_555 1_555
H4H C5H 1_555 1_555
H5H C5H 1_555 1_555
C6H C5H 1_555 1_555
H6H C6H 1_555 1_555
H7H C6H 1_555 1_555
N1E C1E 1_555 1_555
C1E H1E 1_555 1_555
C2E N1E 1_555 1_555
H2E C2E 1_555 1_555
C3E C4C 1_555 1_555
H3E C3E 1_555 1_555
C4E C2E 1_555 1_555
C5E C1E 1_555 1_555
H4E C5E 1_555 1_555
H5E C5E 1_555 1_555
C6E C5E 1_555 1_555
H6E C6E 1_555 1_555
H7E C6E 1_555 1_555
N1F C1F 1_555 1_555
C1F C1E 1_555 1_555
H1F C1F 1_555 1_555
C2F N1F 1_555 1_555
H2F C2F 1_555 1_555
C3F H3F 1_555 1_555
C4F C2F 1_555 1_555
C5F C1F 1_555 1_555
H4F C5F 1_555 1_555
H5F C5F 1_555 1_555
C6F C6E 1_555 1_555
H6F C6F 1_555 1_555
H7F C6F 1_555 1_555
N1G C1G 1_555 1_555
C1G C1D 1_555 1_555
H1G C1G 1_555 1_555
C2G N1G 1_555 1_555
H2G C2G 1_555 1_555
C3G H3G 1_555 1_555
C4G C2G 1_555 1_555
C5G C1G 1_555 1_555
H4G C5G 1_555 1_555
H5G C5G 1_555 1_555
C6G C6D 1_555 1_555
H6G C6G 1_555 1_555
H7G C6G 1_555 1_555
N1I C1I 1_555 1_555
C1I H1I 1_555 1_555
C2I N1I 1_555 1_555
H2I C2I 1_555 1_555
C3I C4G 1_555 1_555
H3I C3I 1_555 1_555
C4I C2I 1_555 1_555
C5I C1I 1_555 1_555
H4I C5I 1_555 1_555
H5I C5I 1_555 1_555
C6I C5I 1_555 1_555
H6I C6I 1_555 1_555
H7I C6I 1_555 1_555
N1J C1J 1_555 1_555
C1J C1I 1_555 1_555
H1J C1J 1_555 1_555
C2J N1J 1_555 1_555
H2J C2J 1_555 1_555
C3J C4E 1_555 1_555
H3J C3J 1_555 1_555
C4J C3C 1_555 1_555
C5J C1J 1_555 1_555
H4J C5J 1_555 1_555
H5J C5J 1_555 1_555
C6J C6I 1_555 1_555
H6J C6J 1_555 1_555
H7J C6J 1_555 1_555
N1K C1K 1_555 1_555
C1K C1H 1_555 1_555
H1K C1K 1_555 1_555
C2K N1K 1_555 1_555
H2K C2K 1_555 1_555
C3K C4F 1_555 1_555
H3K C3K 1_555 1_555
C4K C2K 1_555 1_555
C5K C1K 1_555 1_555
H4K C5K 1_555 1_555
H5K C5K 1_555 1_555
C6K C6H 1_555 1_555
H6K C6K 1_555 1_555
H7K C6K 1_555 1_555
N1A C1A 1_555 1_555
C1A H1A 1_555 1_555
C2A N1A 1_555 1_555
H2A C2A 1_555 1_555
C3A C4K 1_555 1_555
H3A C3A 1_555 1_555
C4A C3F 1_555 1_555
C5A C1A 1_555 1_555
H4A C5A 1_555 1_555
H5A C5A 1_555 1_555
C6A C5A 1_555 1_555
H6A C6A 1_555 1_555
H7A C6A 1_555 1_555
N1B C1B 1_555 1_555
C1B C1A 1_555 1_555
H1B C1B 1_555 1_555
C2B N1B 1_555 1_555
H2B C2B 1_555 1_555
C3B C4I 1_555 1_555
H3B C3B 1_555 1_555
C4B C3G 1_555 1_555
C5B C1B 1_555 1_555
H4B C5B 1_555 1_555
H5B C5B 1_555 1_555
C6B C6A 1_555 1_555
H6B C6B 1_555 1_555
H7B C6B 1_555 1_555
N2IA C8IA 1_555 1_555
C7IA C9 1_555 1_555
C8IA C7IA 1_555 1_555
H8IA C8IA 1_555 1_555
C9IA C7IA 1_555 1_555
H9IA C9IA 1_555 1_555
C10IA N2IA 1_555 1_555
H10IA C10IA 1_555 1_555
H11IA C12IA 1_555 1_555
H12IA C12IA 1_555 1_555
C11IA C12IA 1_555 1_555
C12IA C10IA 1_555 1_555
N2KA C8KA 1_555 1_555
C7KA C8KA 1_555 1_555
C8KA H8KA 1_555 1_555
C9KA C7KA 1_555 1_555
H9KA C9KA 1_555 1_555
C10KA C10 1_555 1_555
H10KA C10KA 1_555 1_555
H11KA C12KA 1_555 1_555
H12KA C12KA 1_555 1_555
C11KA C11 1_555 1_555
C12KA C10KA 1_555 1_555
N2OA C8OA 1_555 1_555
C7OA C9IA 1_555 1_555
C8OA C7OA 1_555 1_555
H8OA C8OA 1_555 1_555
C9OA C7 1_555 1_555
H9OA C9OA 1_555 1_555
C10OA N2OA 1_555 1_555
H10OA C10OA 1_555 1_555
H11OA C12OA 1_555 1_555
H12OA C12OA 1_555 1_555
C11OA C12OA 1_555 1_555
C12OA C10OA 1_555 1_555
N2G C8G 1_555 1_555
C7G C8G 1_555 1_555
C8G H8G 1_555 1_555
C9G C7KA 1_555 1_555
H9G C9G 1_555 1_555
C10G N2G 1_555 1_555
H10G C10G 1_555 1_555
H11G C12G 1_555 1_555
H12G C12G 1_555 1_555
C11G C12G 1_555 1_555
C12G C10G 1_555 1_555
N2J C8J 1_555 1_555
C7J C8J 1_555 1_555
C8J H8J 1_555 1_555
C9J C7J 1_555 1_555
H9J C9J 1_555 1_555
C10J C10IA 1_555 1_555
H10J C10J 1_555 1_555
H11J C12J 1_555 1_555
H12J C12J 1_555 1_555
C11J C11IA 1_555 1_555
C12J C10J 1_555 1_555
N2R C8R 1_555 1_555
C7R C9J 1_555 1_555
C8R C7R 1_555 1_555
H8R C8R 1_555 1_555
C9R C7R 1_555 1_555
H9R C9R 1_555 1_555
C10R C10G 1_555 1_555
H10R C10R 1_555 1_555
H11R C12R 1_555 1_555
H12R C12R 1_555 1_555
C11R C11G 1_555 1_555
C12R C10R 1_555 1_555
N2T C8T 1_555 1_555
C7T C9KA 1_555 1_555
C8T C7T 1_555 1_555
H8T C8T 1_555 1_555
C9T C7G 1_555 1_555
H9T C9T 1_555 1_555
C10T N2T 1_555 1_555
H10T C10T 1_555 1_555
H11T C12T 1_555 1_555
H12T C12T 1_555 1_555
C11T C12T 1_555 1_555
C12T C10T 1_555 1_555
N2BA C8BA 1_555 1_555
C7BA C8BA 1_555 1_555
C8BA H8BA 1_555 1_555
C9BA C7BA 1_555 1_555
H9BA C9BA 1_555 1_555
C10BA C10OA 1_555 1_555
H10BA C10BA 1_555 1_555
H11BA C12BA 1_555 1_555
H12BA C12BA 1_555 1_555
C11BA C11OA 1_555 1_555
C12BA C10BA 1_555 1_555
N2SA C8SA 1_555 1_555
C7SA C8SA 1_555 1_555
C8SA H8SA 1_555 1_555
C9SA C7BA 1_555 1_555
H9SA C9SA 1_555 1_555
C10SA C10T 1_555 1_555
H10SA C10SA 1_555 1_555
H11SA C12SA 1_555 1_555
H12SA C12SA 1_555 1_555
C11SA C11T 1_555 1_555
C12SA C10SA 1_555 1_555
N2O C8O 1_555 1_555
C7O C9BA 1_555 1_555
C8O C7O 1_555 1_555
H8O C8O 1_555 1_555
C9O C7SA 1_555 1_555
H9O C9O 1_555 1_555
C10O N2O 1_555 1_555
H10O C10O 1_555 1_555
H11O C12O 1_555 1_555
H12O C12O 1_555 1_555
C11O C12O 1_555 1_555
C12O C10O 1_555 1_555
N2Z C8Z 1_555 1_555
C7Z C9R 1_555 1_555
C8Z C7Z 1_555 1_555
H8Z C8Z 1_555 1_555
C9Z C7J 1_555 1_555
H9Z C9Z 1_555 1_555
C10Z C10O 1_555 1_555
H10Z C10Z 1_555 1_555
H11Z C12Z 1_555 1_555
H12Z C12Z 1_555 1_555
C11Z C11O 1_555 1_555
C12Z C10Z 1_555 1_555
C3 C4 1_555 1_555
C3C C4C 1_555 1_555
C5C C6C 1_555 1_555
C3D C4D 1_555 1_555
C2H C4H 1_555 1_555
C3H C4H 1_555 1_555
C3E C4E 1_555 1_555
C3F C4F 1_555 1_555
C5F C6F 1_555 1_555
C3G C4G 1_555 1_555
C5G C6G 1_555 1_555
C3I C4I 1_555 1_555
C2J C4J 1_555 1_555
C3J C4J 1_555 1_555
C5J C6J 1_555 1_555
C3K C4K 1_555 1_555
C5K C6K 1_555 1_555
C2A C4A 1_555 1_555
C3A C4A 1_555 1_555
C2B C4B 1_555 1_555
C3B C4B 1_555 1_555
C5B C6B 1_555 1_555
N2KA C10KA 1_555 1_555
C11KA C12KA 1_555 1_555
C7OA C9OA 1_555 1_555
C7G C9G 1_555 1_555
N2J C10J 1_555 1_555
C11J C12J 1_555 1_555
N2R C10R 1_555 1_555
C11R C12R 1_555 1_555
C7T C9T 1_555 1_555
N2BA C10BA 1_555 1_555
C11BA C12BA 1_555 1_555
N2SA C10SA 1_555 1_555
C7SA C9SA 1_555 1_555
C11SA C12SA 1_555 1_555
C7O C9O 1_555 1_555
N2Z C10Z 1_555 1_555
C7Z C9Z 1_555 1_555
C11Z C12Z 1_555 1_555

#END
