
#######################################################################
#
#                 Cambridge Crystallographic Data Centre
#                                CCDC 
#
#######################################################################
#
# If this CIF has been generated from an entry in the Cambridge 
# Structural Database, then it will include bibliographic, chemical, 
# crystal, experimental, refinement or atomic coordinate data resulting 
# from the CCDC's data processing and validation procedures.
#
#######################################################################

data_DEDTOY
_chemical_formula_moiety         'C67.582 H76.972 N12'
_symmetry_cell_setting           orthorhombic
_symmetry_space_group_name_H-M   'P 21 21 21'
_symmetry_Int_Tables_number      19
_space_group_name_Hall           'P 2ac 2ab'
loop_
_symmetry_equiv_pos_site_id
_symmetry_equiv_pos_as_xyz
1 x,y,z
2 1/2-x,-y,1/2+z
3 1/2+x,1/2-y,-z
4 -x,1/2+y,1/2-z
_cell_length_a                   11.1553(19)
_cell_length_b                   19.490(4)
_cell_length_c                   30.332(6)
_cell_angle_alpha                90
_cell_angle_beta                 90
_cell_angle_gamma                90
_cell_volume                     6594.69
loop_
_atom_site_label
_atom_site_type_symbol
_atom_site_fract_x
_atom_site_fract_y
_atom_site_fract_z
N1 N 0.2922(5) 0.4386(3) 0.6608(3)
N2 N 0.3133(5) 0.4893(3) 0.7506(2)
N3 N 0.7687(5) 0.6588(3) 0.81988(18)
N4 N 0.9979(4) 0.6569(3) 0.77024(17)
N5 N 0.7283(4) 0.9525(2) 0.59298(18)
N6 N 0.9584(4) 0.8765(3) 0.61647(16)
N7 N 0.2685(4) 0.8131(3) 0.78332(18)
N8 N 0.2699(4) 0.9270(3) 0.71913(19)
N9 N 0.2609(4) 0.8022(3) 0.52127(17)
N10 N 0.3222(4) 0.6548(3) 0.50445(19)
N11 N 0.7839(4) 0.4698(3) 0.5501(2)
N12 N 1.0007(4) 0.5542(2) 0.56917(18)
C1 C 0.4169(5) 0.7230(3) 0.7804(2)
C2 C 0.5338(5) 0.7055(3) 0.7910(2)
H1 H 0.5878 0.7401 0.8006
C3 C 0.5729(5) 0.6379(3) 0.7877(2)
C4 C 0.4945(6) 0.5886(3) 0.7740(2)
H2 H 0.5206 0.5423 0.7719
C5 C 0.3757(6) 0.6053(3) 0.7630(2)
C6 C 0.3394(5) 0.6719(3) 0.7664(2)
H3 H 0.2591 0.6835 0.7590
C7 C 0.3756(6) 0.7943(3) 0.7861(2)
H4 H 0.4342 0.8283 0.7924
C8 C 0.6940(6) 0.6172(4) 0.8029(2)
H5 H 0.7169 0.5706 0.7998
C9 C 0.2909(6) 0.5521(3) 0.7497(2)
H6 H 0.2140 0.5661 0.7397
C10 C 0.3298(5) 0.9034(3) 0.6446(2)
C11 C 0.3007(5) 0.8725(3) 0.6054(2)
H7 H 0.2242 0.8518 0.6021
C12 C 0.3825(5) 0.8712(3) 0.5700(2)
C13 C 0.4933(5) 0.9014(3) 0.5753(2)
H8 H 0.5483 0.9017 0.5514
C14 C 0.5261(5) 0.9319(3) 0.6156(2)
C15 C 0.4456(5) 0.9329(3) 0.6498(2)
H9 H 0.4672 0.9535 0.6770
C16 C 0.2460(6) 0.9012(3) 0.6814(3)
H10 H 0.1705 0.8796 0.6772
C17 C 0.3553(5) 0.8351(3) 0.5287(2)
H11 H 0.4136 0.8367 0.5059
C18 C 0.6489(6) 0.9587(3) 0.6220(2)
H12 H 0.6682 0.9813 0.6488
C19 C 1.0073(4) 0.7010(3) 0.69642(18)
C20 C 0.9977(4) 0.7599(3) 0.67148(18)
H13 H 0.9935 0.8033 0.6856
C21 C 0.9940(4) 0.7561(3) 0.62533(18)
C22 C 1.0011(4) 0.6931(3) 0.60510(19)
H14 H 1.0001 0.6903 0.5738
C23 C 1.0099(4) 0.6319(3) 0.63049(19)
C24 C 1.0140(4) 0.6375(3) 0.67622(19)
H15 H 1.0216 0.5973 0.6937
C25 C 1.0027(5) 0.7073(3) 0.74515(19)
H16 H 1.0034 0.7519 0.7578
C26 C 0.9765(4) 0.8189(3) 0.59900(19)
H17 H 0.9790 0.8158 0.5678
C27 C 1.0103(4) 0.5648(3) 0.6101(2)
H18 H 1.0182 0.5259 0.6289
C28 C 0.5815(6) 0.5124(4) 0.5542(3)
C29 C 0.5014(6) 0.5582(4) 0.5365(2)
H19 H 0.5251 0.5861 0.5123
C30 C 0.3836(6) 0.5643(4) 0.5538(2)
C31 C 0.3522(6) 0.5233(4) 0.5884(3)
H20 H 0.2729 0.5261 0.5996
C32 C 0.4320(6) 0.4773(4) 0.6078(3)
C33 C 0.5465(6) 0.4720(4) 0.5911(3)
H21 H 0.6022 0.4413 0.6042
C34 C 0.7019(6) 0.5082(4) 0.5355(2)
H22 H 0.7196 0.5362 0.5107
C35 C 0.2978(6) 0.6119(4) 0.5350(2)
H23 H 0.2182 0.6110 0.5460
C36 C 0.3960(7) 0.4364(4) 0.6447(3)
H24 H 0.4530 0.4063 0.6575
C37 C 0.2201(6) 0.4417(4) 0.7359(3)
H25 H 0.1500 0.4679 0.7251
H26 H 0.1938 0.4129 0.7610
C38 C 0.2680(7) 0.3965(4) 0.6995(3)
H27 H 0.3426 0.3736 0.7093
C39 C 1.0014(5) 0.4828(3) 0.5537(2)
H28 H 0.9999 0.4515 0.5795
H29 H 1.0761 0.4740 0.5371
C40 C 0.8948(6) 0.4683(4) 0.5247(3)
H30 H 0.8908 0.5031 0.5009
C41 C 0.2247(5) 0.6921(3) 0.4855(2)
H31 H 0.1539 0.6876 0.5049
H32 H 0.2040 0.6711 0.4567
C42 C 0.2502(6) 0.7661(4) 0.4785(2)
H33 H 0.3279 0.7706 0.4623
C43 C 0.1519(7) 0.7972(4) 0.4508(3)
H34 H 0.0753 0.7932 0.4664
H35 H 0.1470 0.7728 0.4226
H36 H 0.1697 0.8457 0.4454
C44 C 0.1824(5) 0.9188(3) 0.7539(2)
H37 H 0.1143 0.8909 0.7431
H38 H 0.1512 0.9643 0.7628
C45 C 0.2398(6) 0.8840(3) 0.7930(2)
H39 H 0.3141 0.9088 0.8011
C46 C 0.8456(5) 0.9829(3) 0.6016(2)
H40 H 0.8539 0.9921 0.6336
H41 H 0.8522 1.0271 0.5858
C47 C 0.9451(5) 0.9356(3) 0.5868(2)
H42 H 0.9277 0.9190 0.5566
C48 C 0.9875(6) 0.6697(4) 0.8173(2)
H43 H 0.9775 0.7195 0.8226
H44 H 1.0615 0.6545 0.8324
C49 C 0.8812(6) 0.6314(4) 0.8358(2)
H45 H 0.8871 0.5824 0.8274
C50 C 0.1570(10) 0.8851(7) 0.8331(4)
H46 H 0.0781 0.8671 0.8248
H47 H 0.1485 0.9323 0.8437
H48 H 0.1912 0.8565 0.8565
C51 C 1.0618(9) 0.9775(5) 0.5856(4)
H49 H 1.0810 0.9937 0.6154
H50 H 1.0515 1.0170 0.5659
H51 H 1.1273 0.9486 0.5747
C52 C 0.1821(14) 0.3424(8) 0.6905(8)
H52 H 0.1806 0.3102 0.7153
H53 H 0.2055 0.3179 0.6636
H54 H 0.1023 0.3624 0.6866
C53 C 0.883(2) 0.6363(17) 0.8882(7)
H55 H 0.9583 0.6178 0.8994
H56 H 0.8745 0.6844 0.8972
H57 H 0.8156 0.6097 0.9003
C54 C 0.9198(16) 0.3950(11) 0.5055(9)
H58 H 0.9528 0.3656 0.5288
H59 H 0.9774 0.3984 0.4812
H60 H 0.8447 0.3751 0.4946
C60 C 0.6357(6) 0.6330(5) 0.67097(13)
C61 C 0.6949(6) 0.6916(5) 0.67520(11)
H81 H 0.7786 0.6909 0.6811
C62 C 0.6372(7) 0.7532(6) 0.67116(16)
H82 H 0.6803 0.7950 0.6742
C63 C 0.5158(7) 0.7540(5) 0.66258(16)
H83 H 0.4756 0.7968 0.6598
C64 C 0.4539(6) 0.6959(4) 0.65815(14)
C65 C 0.5133(6) 0.6356(4) 0.66230(15)
H84 H 0.4701 0.5939 0.6592
C66 C 0.7017(9) 0.5683(6) 0.6756(2)
H85 H 0.7496 0.5601 0.6490
H86 H 0.6448 0.5305 0.6796
H87 H 0.7548 0.5709 0.7013
C67 C 0.3201(6) 0.6964(5) 0.6487(2)
H88 H 0.2803 0.7287 0.6686
H89 H 0.2874 0.6503 0.6532
H90 H 0.3065 0.7106 0.6181
C68 C 0.435(2) 0.7251(6) 0.9060(4)
C69 C 0.365(2) 0.7628(7) 0.9353(5)
H91 H 0.2804 0.7585 0.9349
C70 C 0.420(2) 0.8069(7) 0.9652(5)
H92 H 0.3723 0.8327 0.9853
C71 C 0.544(2) 0.8133(7) 0.9658(5)
H93 H 0.5812 0.8435 0.9863
C72 C 0.613(2) 0.7756(7) 0.9366(5)
C73 C 0.559(2) 0.7315(7) 0.9066(5)
H94 H 0.6064 0.7057 0.8866
C74 C 0.376(3) 0.6774(10) 0.8737(7)
H95 H 0.4379 0.6551 0.8557
H96 H 0.3304 0.6424 0.8897
H97 H 0.3221 0.7035 0.8545
C75 C 0.751(3) 0.7826(12) 0.9372(9)
H98 H 0.7741 0.8155 0.9601
H99 H 0.7869 0.7379 0.9436
H100 H 0.7786 0.7990 0.9085
H61? H 0.2084 0.3606 0.6921
H62? H 0.9042 0.4227 0.5108
H63? H 0.1845 0.8859 0.8184
H64? H 1.0215 0.9615 0.5859
H65? H 0.8828 0.6342 0.8684
C55? C 0.137(3) 0.9835(15) 0.7684(10)
H66? H 0.2034 1.0124 0.7784
H67? H 0.0807 0.9763 0.7928
H68? H 0.0952 1.0063 0.7440
C56? C 0.8558(17) 1.0425(8) 0.5655(7)
H69? H 0.8435 1.0231 0.5360
H70? H 0.9355 1.0635 0.5671
H71? H 0.7946 1.0775 0.5712
C57? C 0.1810(19) 0.3950(10) 0.7712(6)
H72? H 0.2504 0.3815 0.7890
H73? H 0.1444 0.3541 0.7581
H74? H 0.1223 0.4184 0.7899
C58? C 1.1045(10) 0.6540(7) 0.8407(4)
H75? H 1.1305 0.6074 0.8333
H76? H 1.0928 0.6576 0.8726
H77? H 1.1658 0.6869 0.8313
C59? C 1.1090(10) 0.4653(7) 0.5254(5)
H78? H 1.1192 0.5006 0.5027
H79? H 1.0965 0.4206 0.5114
H80? H 1.1810 0.4635 0.5439
H101? H 0.3975 0.6950 0.8856
H102? H 0.6982 0.7799 0.9370
C76? C 0.228(3) 0.7558(12) 0.9346(8)
H103? H 0.2048 0.7229 0.9118
H104? H 0.2002 0.7394 0.9634
H105? H 0.1920 0.8005 0.9283
C77? C 0.605(3) 0.8617(12) 0.9987(8)
H106? H 0.6917 0.8599 0.9946
H107? H 0.5763 0.9087 0.9937
H108? H 0.5846 0.8476 1.0288
loop_
_geom_bond_atom_site_label_1
_geom_bond_atom_site_label_2
_geom_bond_site_symmetry_1
_geom_bond_site_symmetry_2
N1 C36 1_555 1_555
N2 C9 1_555 1_555
N3 C8 1_555 1_555
N4 C25 1_555 1_555
N5 C18 1_555 1_555
N6 C26 1_555 1_555
N7 C7 1_555 1_555
N8 C16 1_555 1_555
N9 C17 1_555 1_555
N10 C35 1_555 1_555
N11 C34 1_555 1_555
N12 C27 1_555 1_555
C1 C2 1_555 1_555
C2 H1 1_555 1_555
C3 C2 1_555 1_555
C4 C3 1_555 1_555
H2 C4 1_555 1_555
C5 C4 1_555 1_555
C6 C1 1_555 1_555
H3 C6 1_555 1_555
C7 C1 1_555 1_555
H4 C7 1_555 1_555
C8 C3 1_555 1_555
H5 C8 1_555 1_555
C9 C5 1_555 1_555
H6 C9 1_555 1_555
C10 C11 1_555 1_555
C11 H7 1_555 1_555
C12 C11 1_555 1_555
C13 C12 1_555 1_555
H8 C13 1_555 1_555
C14 C13 1_555 1_555
C15 C10 1_555 1_555
H9 C15 1_555 1_555
C16 C10 1_555 1_555
H10 C16 1_555 1_555
C17 C12 1_555 1_555
H11 C17 1_555 1_555
C18 C14 1_555 1_555
H12 C18 1_555 1_555
C19 C20 1_555 1_555
C20 H13 1_555 1_555
C21 C20 1_555 1_555
C22 C21 1_555 1_555
H14 C22 1_555 1_555
C23 C22 1_555 1_555
C24 C19 1_555 1_555
H15 C24 1_555 1_555
C25 C19 1_555 1_555
H16 C25 1_555 1_555
C26 C21 1_555 1_555
H17 C26 1_555 1_555
C27 C23 1_555 1_555
H18 C27 1_555 1_555
C28 C29 1_555 1_555
C29 H19 1_555 1_555
C30 C29 1_555 1_555
C31 C30 1_555 1_555
H20 C31 1_555 1_555
C32 C31 1_555 1_555
C33 C28 1_555 1_555
H21 C33 1_555 1_555
C34 C28 1_555 1_555
H22 C34 1_555 1_555
C35 C30 1_555 1_555
H23 C35 1_555 1_555
C36 C32 1_555 1_555
H24 C36 1_555 1_555
C37 N2 1_555 1_555
H25 C37 1_555 1_555
H26 C37 1_555 1_555
C38 N1 1_555 1_555
H27 C38 1_555 1_555
C39 N12 1_555 1_555
H28 C39 1_555 1_555
H29 C39 1_555 1_555
C40 N11 1_555 1_555
H30 C40 1_555 1_555
C41 N10 1_555 1_555
H31 C41 1_555 1_555
H32 C41 1_555 1_555
C42 N9 1_555 1_555
H33 C42 1_555 1_555
C43 C42 1_555 1_555
H34 C43 1_555 1_555
H35 C43 1_555 1_555
H36 C43 1_555 1_555
C44 N8 1_555 1_555
H37 C44 1_555 1_555
H38 C44 1_555 1_555
C45 N7 1_555 1_555
H39 C45 1_555 1_555
C46 N5 1_555 1_555
H40 C46 1_555 1_555
H41 C46 1_555 1_555
C47 N6 1_555 1_555
H42 C47 1_555 1_555
C48 N4 1_555 1_555
H43 C48 1_555 1_555
H44 C48 1_555 1_555
C49 N3 1_555 1_555
H45 C49 1_555 1_555
C50 C45 1_555 1_555
H46 C50 1_555 1_555
H47 C50 1_555 1_555
H48 C50 1_555 1_555
C51 C47 1_555 1_555
H49 C51 1_555 1_555
H50 C51 1_555 1_555
H51 C51 1_555 1_555
C52 C38 1_555 1_555
H52 C52 1_555 1_555
H53 C52 1_555 1_555
H54 C52 1_555 1_555
C53 C49 1_555 1_555
H55 C53 1_555 1_555
H56 C53 1_555 1_555
H57 C53 1_555 1_555
C54 C40 1_555 1_555
H58 C54 1_555 1_555
H59 C54 1_555 1_555
H60 C54 1_555 1_555
C60 C61 1_555 1_555
C61 H81 1_555 1_555
C62 C61 1_555 1_555
H82 C62 1_555 1_555
C63 C62 1_555 1_555
H83 C63 1_555 1_555
C64 C63 1_555 1_555
C65 C60 1_555 1_555
H84 C65 1_555 1_555
C66 C60 1_555 1_555
H85 C66 1_555 1_555
H86 C66 1_555 1_555
H87 C66 1_555 1_555
C67 C64 1_555 1_555
H88 C67 1_555 1_555
H89 C67 1_555 1_555
H90 C67 1_555 1_555
C68 C69 1_555 1_555
C69 H91 1_555 1_555
C70 C69 1_555 1_555
H92 C70 1_555 1_555
C71 C70 1_555 1_555
H93 C71 1_555 1_555
C72 C71 1_555 1_555
C73 C68 1_555 1_555
H94 C73 1_555 1_555
C74 C68 1_555 1_555
H95 C74 1_555 1_555
H96 C74 1_555 1_555
H97 C74 1_555 1_555
C75 C72 1_555 1_555
H98 C75 1_555 1_555
H99 C75 1_555 1_555
H100 C75 1_555 1_555
C5 C6 1_555 1_555
C14 C15 1_555 1_555
C23 C24 1_555 1_555
C32 C33 1_555 1_555
C37 C38 1_555 1_555
C39 C40 1_555 1_555
C41 C42 1_555 1_555
C44 C45 1_555 1_555
C46 C47 1_555 1_555
C48 C49 1_555 1_555
C64 C65 1_555 1_555
C72 C73 1_555 1_555

#END
