
#######################################################################
#
#                 Cambridge Crystallographic Data Centre
#                                CCDC 
#
#######################################################################
#
# If this CIF has been generated from an entry in the Cambridge 
# Structural Database, then it will include bibliographic, chemical, 
# crystal, experimental, refinement or atomic coordinate data resulting 
# from the CCDC's data processing and validation procedures.
#
#######################################################################

data_DEDVAM
_chemical_formula_moiety         'C124 H142 N24 O15'
_symmetry_cell_setting           cubic
_symmetry_space_group_name_H-M   'P 21 3'
_symmetry_Int_Tables_number      198
_space_group_name_Hall           'P 2ac 2ab 3'
loop_
_symmetry_equiv_pos_site_id
_symmetry_equiv_pos_as_xyz
1 x,y,z
2 1/2-x,-y,1/2+z
3 -x,1/2+y,1/2-z
4 1/2+x,1/2-y,-z
5 z,x,y
6 1/2+z,1/2-x,-y
7 1/2-z,-x,1/2+y
8 -z,1/2+x,1/2-y
9 y,z,x
10 -y,1/2+z,1/2-x
11 1/2+y,1/2-z,-x
12 1/2-y,-z,1/2+x
_cell_length_a                   24.318(2)
_cell_length_b                   24.318(2)
_cell_length_c                   24.318(2)
_cell_angle_alpha                90
_cell_angle_beta                 90
_cell_angle_gamma                90
_cell_volume                     14380.8
loop_
_atom_site_label
_atom_site_type_symbol
_atom_site_fract_x
_atom_site_fract_y
_atom_site_fract_z
N1 N 0.6725(2) 0.3589(2) 0.6585(2)
N2 N 0.6971(2) 0.3250(2) 0.5445(2)
N3 N 0.95151(19) 0.2670(2) 0.49621(19)
N4 N 1.03079(18) 0.23784(19) 0.5826(2)
C1 C 0.6690(2) 0.2571(3) 0.7664(3)
H1 H 0.6371 0.2380 0.7544
C2 C 0.6860(3) 0.3027(3) 0.7373(3)
C3 C 0.6570(3) 0.3201(3) 0.6884(3)
H2 H 0.6244 0.3010 0.6784
C4 C 0.6381(3) 0.3718(3) 0.6097(3)
H3 H 0.6178 0.4065 0.6162
H4 H 0.6109 0.3421 0.6040
C5 C 0.6730(3) 0.3777(3) 0.5595(3)
C6 C 0.6348(5) 0.3991(5) 0.5156(5)
H5 H 0.6561 0.4087 0.4828
H6 H 0.6157 0.4319 0.5293
H7 H 0.6078 0.3707 0.5063
C7 C 0.7478(2) 0.3244(3) 0.5335(3)
H8 H 0.7681 0.3576 0.5364
C8 C 0.7765(2) 0.2740(2) 0.5164(2)
C9 C 0.7474(2) 0.2253(2) 0.5071(2)
H9 H 0.7086 0.2249 0.5112
C10 C 0.7742(2) 0.1788(2) 0.4923(2)
C11 C 0.8313(2) 0.1780(2) 0.4864(2)
H10 H 0.8497 0.1452 0.4759
C12 C 0.8610(2) 0.2261(2) 0.4961(2)
C13 C 0.8325(2) 0.2737(2) 0.5110(2)
H11 H 0.8525 0.3066 0.5176
C14 C 0.9214(2) 0.2253(3) 0.4896(2)
H12 H 0.9385 0.1915 0.4798
C15 C 1.0097(2) 0.2612(3) 0.4869(2)
H13 H 1.0210 0.2852 0.4561
H14 H 1.0181 0.2227 0.4768
C16 C 1.0417(2) 0.2767(3) 0.5384(2)
C17 C 1.1023(3) 0.2790(3) 0.5276(3)
H15 H 1.1217 0.2882 0.5617
H16 H 1.1099 0.3071 0.4997
H17 H 1.1149 0.2431 0.5142
C18 C 1.0176(2) 0.2582(2) 0.6283(2)
H18 H 1.0137 0.2970 0.6305
N1F N 0.8415(2) 0.3275(2) 0.8589(2)
N2F N 0.9555(2) 0.3029(2) 0.8250(2)
N3F N 1.00379(19) 0.04849(19) 0.7670(2)
N4F N 0.9174(2) -0.03079(18) 0.73784(19)
C1F C 0.7336(3) 0.3310(2) 0.7571(3)
H1F H 0.7456 0.3629 0.7380
C2F C 0.7627(3) 0.3140(3) 0.8027(3)
C3F C 0.8116(3) 0.3430(3) 0.8201(3)
H2F H 0.8216 0.3756 0.8010
C4F C 0.8903(3) 0.3619(3) 0.8718(3)
H3F H 0.8838 0.3822 0.9065
H4F H 0.8960 0.3891 0.8421
C5F C 0.9405(3) 0.3270(3) 0.8777(3)
C6F C 0.9844(5) 0.3652(5) 0.8991(5)
H5F H 1.0172 0.3439 0.9087
H6F H 0.9707 0.3843 0.9319
H7F H 0.9937 0.3922 0.8707
C7F C 0.9665(3) 0.2522(2) 0.8244(3)
H8F H 0.9636 0.2319 0.8576
C8F C 0.9836(2) 0.2235(2) 0.7740(2)
C9F C 0.9929(2) 0.2526(2) 0.7253(2)
H9F H 0.9888 0.2914 0.7249
C10F C 1.0077(2) 0.2258(2) 0.6788(2)
C11F C 1.0136(2) 0.1687(2) 0.6780(2)
H10F H 1.0241 0.1503 0.6452
C12F C 1.0039(2) 0.1390(2) 0.7261(2)
C13F C 0.9890(2) 0.1675(2) 0.7737(2)
H11F H 0.9824 0.1475 0.8066
C14F C 1.0104(2) 0.0786(2) 0.7253(3)
H12F H 1.0202 0.0615 0.6915
C15F C 1.0131(2) -0.0097(2) 0.7612(3)
H13F H 1.0439 -0.0210 0.7852
H14F H 1.0232 -0.0181 0.7227
C16F C 0.9616(2) -0.0417(2) 0.7767(3)
C17F C 0.9724(3) -0.1023(3) 0.7790(3)
H15F H 0.9383 -0.1217 0.7882
H16F H 1.0003 -0.1099 0.8071
H17F H 0.9858 -0.1149 0.7431
C18F C 0.8717(2) -0.0176(2) 0.7582(2)
H18F H 0.8695 -0.0137 0.7970
N1I N 0.6411(2) 0.1585(2) 0.8275(2)
N2I N 0.6750(2) 0.0445(2) 0.8029(2)
N3I N 0.7330(2) -0.00379(19) 0.54849(19)
N4I N 0.76216(19) 0.0826(2) 0.46921(18)
C1I C 0.7429(3) 0.2664(3) 0.8310(2)
H1I H 0.7620 0.2544 0.8629
C2I C 0.6973(3) 0.2373(3) 0.8140(3)
C3I C 0.6799(3) 0.1884(3) 0.8430(3)
H2I H 0.6990 0.1784 0.8756
C4I C 0.6282(3) 0.1097(3) 0.8619(3)
H3I H 0.5935 0.1162 0.8822
H4I H 0.6579 0.1040 0.8891
C5I C 0.6223(3) 0.0595(3) 0.8270(3)
C6I C 0.6009(5) 0.0156(5) 0.8652(5)
H5I H 0.5913 -0.0172 0.8439
H6I H 0.5681 0.0293 0.8843
H7I H 0.6293 0.0063 0.8922
C7I C 0.6756(3) 0.0335(3) 0.7522(2)
H8I H 0.6424 0.0364 0.7319
C8I C 0.7260(2) 0.0164(2) 0.7235(2)
C9I C 0.7747(2) 0.0071(2) 0.7526(2)
H9I H 0.7751 0.0112 0.7914
C10I C 0.8212(2) -0.0077(2) 0.7258(2)
C11I C 0.8220(2) -0.0136(2) 0.6687(2)
H10I H 0.8548 -0.0241 0.6503
C12I C 0.7739(2) -0.0039(2) 0.6390(2)
C13I C 0.7263(2) 0.0110(2) 0.6675(2)
H11I H 0.6934 0.0176 0.6475
C14I C 0.7747(3) -0.0104(2) 0.5786(2)
H12I H 0.8085 -0.0202 0.5615
C15I C 0.7388(3) -0.0131(2) 0.4903(2)
H13I H 0.7148 -0.0439 0.4790
H14I H 0.7773 -0.0232 0.4819
C16I C 0.7233(3) 0.0384(2) 0.4583(2)
C17I C 0.7210(3) 0.0276(3) 0.3977(3)
H15I H 0.7118 0.0617 0.3783
H16I H 0.6929 -0.0003 0.3901
H17I H 0.7569 0.0142 0.3851
C18I C 0.7418(2) 0.1283(2) 0.4824(2)
H18I H 0.7030 0.1305 0.4863
N5 N 0.9158(2) 0.4163(2) 0.6163(2)
N6 N 0.8038(2) 0.4450(2) 0.58791(19)
N7 N 0.7220(2) 0.5081(2) 0.3480(2)
N8 N 0.8008(2) 0.4740(2) 0.2620(2)
C19 C 1.0161(2) 0.4190(2) 0.5058(2)
H19 H 1.0043 0.3870 0.4867
C20 C 0.9871(2) 0.4370(2) 0.5519(2)
C21 C 0.9395(2) 0.4060(2) 0.5711(3)
H20 H 0.9256 0.3771 0.5488
C22 C 0.8683(3) 0.3828(2) 0.6317(2)
C23 C 0.8194(3) 0.4197(3) 0.6397(2)
C24 C 0.7975(3) 0.4956(3) 0.5870(3)
H21 H 0.8042 0.5162 0.6196
C25 C 0.7798(3) 0.5247(3) 0.5368(3)
C26 C 0.7747(3) 0.5811(3) 0.5363(3)
H22 H 0.7826 0.6014 0.5688
C27 C 0.7577(3) 0.6096(3) 0.4878(3)
C28 C 0.7457(3) 0.5787(3) 0.4415(3)
H23 H 0.7344 0.5970 0.4089
C29 C 0.7499(3) 0.5215(3) 0.4414(3)
C30 C 0.7668(3) 0.4951(3) 0.4899(3)
H24 H 0.7694 0.4562 0.4906
C31 C 0.7365(3) 0.4885(3) 0.3937(3)
H25 H 0.7388 0.4496 0.3971
C32 C 0.7076(3) 0.4697(3) 0.3040(3)
C33 C 0.7409(3) 0.4825(3) 0.2538(3)
C34 C 0.8316(3) 0.5142(3) 0.2529(3)
H26 H 0.8151 0.5480 0.2422
C35 C 0.7250(15) 0.4355(15) 0.2175(15)
H27 H 0.7570 0.4236 0.1961
H28 H 0.6956 0.4472 0.1925
H29 H 0.7118 0.4049 0.2402
H30 H 0.6679 0.4729 0.2954
H31 H 0.7150 0.4315 0.3161
H32 H 0.8762 0.3626 0.6662
H33 H 0.8605 0.3556 0.6025
C36 C 0.797(2) 0.3816(19) 0.669(2)
H34 H 0.7613 0.3944 0.6824
H35 H 0.8209 0.3725 0.6998
H36 H 0.7915 0.3488 0.6458
N5E N 1.1163(2) 0.5842(2) 0.5837(2)
N6E N 1.08791(19) 0.6962(2) 0.5550(2)
N7E N 0.8480(2) 0.7780(2) 0.4919(2)
N8E N 0.7620(2) 0.6992(2) 0.5260(2)
C19E C 1.0058(2) 0.4839(2) 0.5810(2)
H19E H 0.9867 0.4957 0.6130
C20E C 1.0519(2) 0.5129(2) 0.5630(2)
C21E C 1.0711(3) 0.5605(2) 0.5940(2)
H20E H 1.0488 0.5744 0.6229
C22E C 1.1317(2) 0.6317(3) 0.6172(2)
C23E C 1.1397(2) 0.6806(3) 0.5803(3)
C24E C 1.0870(3) 0.7025(3) 0.5044(3)
H21E H 1.1196 0.6958 0.4838
C25E C 1.0368(3) 0.7202(3) 0.4753(3)
C26E C 1.0363(3) 0.7253(3) 0.4189(3)
H22E H 1.0688 0.7174 0.3986
C27E C 0.9878(3) 0.7423(3) 0.3904(3)
C28E C 0.9415(3) 0.7543(3) 0.4213(3)
H23E H 0.9089 0.7656 0.4030
C29E C 0.9414(3) 0.7501(3) 0.4785(3)
C30E C 0.9899(3) 0.7332(3) 0.5049(3)
H24E H 0.9906 0.7306 0.5438
C31E C 0.8937(3) 0.7635(3) 0.5115(3)
H25E H 0.8971 0.7612 0.5504
C32E C 0.8040(3) 0.7924(3) 0.5303(3)
C33E C 0.7538(3) 0.7591(3) 0.5175(3)
C34E C 0.7529(3) 0.6684(3) 0.4858(3)
H26E H 0.7422 0.6849 0.4520
C35E C 0.7175(15) 0.7750(15) 0.5645(15)
H27E H 0.6961 0.7430 0.5764
H28E H 0.6925 0.8044 0.5528
H29E H 0.7402 0.7882 0.5951
H30E H 0.7954 0.8321 0.5271
H31E H 0.8161 0.7850 0.5685
H32E H 1.1662 0.6238 0.6374
H33E H 1.1025 0.6395 0.6444
C36E C 1.169(2) 0.703(2) 0.6184(19)
H34E H 1.1824 0.7387 0.6056
H35E H 1.1998 0.6791 0.6275
H36E H 1.1458 0.7085 0.6512
N5K N 1.0837(2) 0.3837(2) 0.4158(2)
N6K N 1.0550(2) 0.41209(19) 0.3038(2)
N7K N 0.9919(2) 0.6520(2) 0.2220(2)
N8K N 1.0260(2) 0.7380(2) 0.3008(2)
C19K C 1.0810(2) 0.4942(2) 0.5161(2)
H19K H 1.1130 0.5133 0.5043
C20K C 1.0630(2) 0.4481(2) 0.4871(2)
C21K C 1.0940(2) 0.4289(3) 0.4395(2)
H20K H 1.1229 0.4512 0.4256
C22K C 1.1172(2) 0.3683(2) 0.3683(3)
C23K C 1.0803(3) 0.3603(2) 0.3194(3)
C24K C 1.0044(3) 0.4130(3) 0.2975(3)
H21K H 0.9838 0.3804 0.3042
C25K C 0.9753(3) 0.4632(3) 0.2798(3)
C26K C 0.9189(3) 0.4637(3) 0.2747(3)
H22K H 0.8986 0.4312 0.2826
C27K C 0.8904(3) 0.5122(3) 0.2577(3)
C28K C 0.9213(3) 0.5585(3) 0.2457(3)
H23K H 0.9030 0.5911 0.2344
C29K C 0.9785(3) 0.5586(3) 0.2499(3)
C30K C 1.0049(3) 0.5101(3) 0.2668(3)
H24K H 1.0438 0.5094 0.2694
C31K C 1.0115(3) 0.6063(3) 0.2365(3)
H25K H 1.0504 0.6029 0.2388
C32K C 1.0303(3) 0.6960(3) 0.2076(3)
C33K C 1.0175(3) 0.7462(3) 0.2409(3)
C34K C 0.9858(3) 0.7471(3) 0.3316(3)
H26K H 0.9520 0.7578 0.3151
C35K C 1.0645(15) 0.7825(15) 0.2250(15)
H27K H 1.0764 0.8039 0.2570
H28K H 1.0528 0.8075 0.1956
H29K H 1.0951 0.7598 0.2118
H30K H 1.0271 0.7046 0.1679
H31K H 1.0685 0.6839 0.2150
H32K H 1.1374 0.3338 0.3762
H33K H 1.1444 0.3975 0.3605
C36K C 1.1184(19) 0.331(2) 0.297(2)
H34K H 1.1056 0.3176 0.2613
H35K H 1.1275 0.3002 0.3209
H36K H 1.1512 0.3542 0.2915
O1 O 0.8129(3) 0.3762(3) 0.4229(3)
O2 O 0.8995(3) 0.3435(3) 0.3510(3)
C37 C 0.8618(5) 0.4098(4) 0.4169(5)
H37 H 0.8693 0.4294 0.4518
H38 H 0.8558 0.4376 0.3878
C38 C 0.9097(4) 0.3744(4) 0.4022(4)
H39 H 0.9428 0.3977 0.3976
H40 H 0.9170 0.3483 0.4326
C39 C 0.8514(4) 0.3114(4) 0.3570(5)
H41 H 0.8575 0.2832 0.3857
H42 H 0.8435 0.2923 0.3219
C40 C 0.8024(4) 0.3468(4) 0.3728(5)
H43 H 0.7947 0.3733 0.3429
H44 H 0.7696 0.3232 0.3775
O3 O 0.4238(9) 0.4238(9) 0.4238(9)
O4 O 0.5089(11) 0.3788(11) 0.4554(11)
O5 O 0.7278(13) 0.6917(14) 0.6362(13)
H45? H 0.6503 0.3915 0.5287
H46? H 0.7027 0.4047 0.5666
C41? C 0.6093(13) 0.4245(13) 0.6076(13)
H47? H 0.5728 0.4205 0.6243
H48? H 0.6052 0.4360 0.5692
H49? H 0.6304 0.4522 0.6278
H50? H 1.0816 0.2770 0.5301
H51? H 1.0310 0.3142 0.5503
C42? C 1.028(3) 0.271(3) 0.432(3)
H52? H 1.0388 0.2361 0.4149
H53? H 1.0599 0.2959 0.4327
H54? H 0.9984 0.2879 0.4106
O6? O 0.4981(11) 0.4485(12) 0.4168(11)
O7? O 0.5517(12) 0.4807(12) 0.4182(12)
O8? O 0.8013(13) 0.2244(6) 0.6988(14)
O9? O 0.8743(8) 0.1633(11) 0.6560(12)
C43? C 0.7991(6) 0.2188(6) 0.6497(6)
C44? C 0.8606(7) 0.2139(7) 0.6533(7)
O10? O 0.9224(12) 0.5295(12) 0.3898(9)
O11? O 0.9552(10) 0.5578(12) 0.3789(9)
C45? C 0.8781(9) 0.5708(10) 0.3886(9)
C46? C 0.9591(15) 0.5290(13) 0.4302(9)
O12? O 0.5583(9) 0.5583(9) 0.5583(9)
C47? C 0.621(2) 0.558(2) 0.556(3)
C48? C 0.631(2) 0.564(2) 0.614(3)
O13? O 0.6270(10) 0.6270(10) 0.6270(10)
C49? C 0.754(2) 0.207(2) 0.299(2)
C50? C 0.689(3) 0.156(4) 0.337(4)
O14? O 0.748(3) 0.143(3) 0.312(3)
O15? O 0.729(3) 0.204(3) 0.340(3)
H55? H 0.7282 0.4588 0.2232
H56? H 0.7343 0.5212 0.2430
C51? C 0.6464(3) 0.4783(4) 0.2891(4)
H57? H 0.6233 0.4679 0.3205
H58? H 0.6369 0.4553 0.2573
H59? H 0.6400 0.5170 0.2801
C52? C 0.8802(3) 0.3522(3) 0.6858(4)
H60? H 0.9141 0.3307 0.6819
H61? H 0.8495 0.3275 0.6943
H62? H 0.8847 0.3789 0.7156
H63? H 0.7881 0.3979 0.6542
H64? H 0.8284 0.4486 0.6669
loop_
_geom_bond_atom_site_label_1
_geom_bond_atom_site_label_2
_geom_bond_site_symmetry_1
_geom_bond_site_symmetry_2
N1 C3 1_555 1_555
N2 C5 1_555 1_555
N3 C14 1_555 1_555
N4 C16 1_555 1_555
C1 H1 1_555 1_555
C2 C1 1_555 1_555
C3 C2 1_555 1_555
H2 C3 1_555 1_555
C4 N1 1_555 1_555
H3 C4 1_555 1_555
H4 C4 1_555 1_555
C5 C4 1_555 1_555
C6 C5 1_555 1_555
H5 C6 1_555 1_555
H6 C6 1_555 1_555
H7 C6 1_555 1_555
C7 N2 1_555 1_555
H8 C7 1_555 1_555
C8 C7 1_555 1_555
C9 C8 1_555 1_555
H9 C9 1_555 1_555
C10 C9 1_555 1_555
C11 C10 1_555 1_555
H10 C11 1_555 1_555
C12 C11 1_555 1_555
C13 C8 1_555 1_555
H11 C13 1_555 1_555
C14 C12 1_555 1_555
H12 C14 1_555 1_555
C15 N3 1_555 1_555
H13 C15 1_555 1_555
H14 C15 1_555 1_555
C16 C15 1_555 1_555
C17 C16 1_555 1_555
H15 C17 1_555 1_555
H16 C17 1_555 1_555
H17 C17 1_555 1_555
C18 N4 1_555 1_555
H18 C18 1_555 1_555
N5 C21 1_555 1_555
N6 C23 1_555 1_555
N7 C31 1_555 1_555
N8 C33 1_555 1_555
C19 H19 1_555 1_555
C20 C19 1_555 1_555
C21 C20 1_555 1_555
H20 C21 1_555 1_555
C22 N5 1_555 1_555
C23 C22 1_555 1_555
C24 N6 1_555 1_555
H21 C24 1_555 1_555
C25 C24 1_555 1_555
C26 C25 1_555 1_555
H22 C26 1_555 1_555
C27 C26 1_555 1_555
C28 C27 1_555 1_555
H23 C28 1_555 1_555
C29 C28 1_555 1_555
C30 C25 1_555 1_555
H24 C30 1_555 1_555
C31 C29 1_555 1_555
H25 C31 1_555 1_555
C32 N7 1_555 1_555
C33 C32 1_555 1_555
C34 N8 1_555 1_555
H26 C34 1_555 1_555
C35 C33 1_555 1_555
H27 C35 1_555 1_555
H28 C35 1_555 1_555
H29 C35 1_555 1_555
H30 C32 1_555 1_555
H31 C32 1_555 1_555
H32 C22 1_555 1_555
H33 C22 1_555 1_555
C36 C23 1_555 1_555
H34 C36 1_555 1_555
H35 C36 1_555 1_555
H36 C36 1_555 1_555
O1 C37 1_555 1_555
O2 C38 1_555 1_555
C37 H37 1_555 1_555
H38 C37 1_555 1_555
C38 C37 1_555 1_555
H39 C38 1_555 1_555
H40 C38 1_555 1_555
C39 O2 1_555 1_555
H41 C39 1_555 1_555
H42 C39 1_555 1_555
C40 O1 1_555 1_555
H43 C40 1_555 1_555
H44 C40 1_555 1_555
N1F C3F 1_555 1_555
N2F C5F 1_555 1_555
N3F C14F 1_555 1_555
N4F C16F 1_555 1_555
C1F C2 1_555 1_555
H1F C1F 1_555 1_555
C2F C1F 1_555 1_555
C3F C2F 1_555 1_555
H2F C3F 1_555 1_555
C4F N1F 1_555 1_555
H3F C4F 1_555 1_555
H4F C4F 1_555 1_555
C5F C4F 1_555 1_555
C6F C5F 1_555 1_555
H5F C6F 1_555 1_555
H6F C6F 1_555 1_555
H7F C6F 1_555 1_555
C7F N2F 1_555 1_555
H8F C7F 1_555 1_555
C8F C7F 1_555 1_555
C9F C8F 1_555 1_555
H9F C9F 1_555 1_555
C10F C18 1_555 1_555
C11F C10F 1_555 1_555
H10F C11F 1_555 1_555
C12F C11F 1_555 1_555
C13F C8F 1_555 1_555
H11F C13F 1_555 1_555
C14F C12F 1_555 1_555
H12F C14F 1_555 1_555
C15F N3F 1_555 1_555
H13F C15F 1_555 1_555
H14F C15F 1_555 1_555
C16F C15F 1_555 1_555
C17F C16F 1_555 1_555
H15F C17F 1_555 1_555
H16F C17F 1_555 1_555
H17F C17F 1_555 1_555
C18F N4F 1_555 1_555
H18F C18F 1_555 1_555
N1I C3I 1_555 1_555
N2I C5I 1_555 1_555
N3I C14I 1_555 1_555
N4I C16I 1_555 1_555
C1I C2F 1_555 1_555
H1I C1I 1_555 1_555
C2I C1 1_555 1_555
C3I C2I 1_555 1_555
H2I C3I 1_555 1_555
C4I N1I 1_555 1_555
H3I C4I 1_555 1_555
H4I C4I 1_555 1_555
C5I C4I 1_555 1_555
C6I C5I 1_555 1_555
H5I C6I 1_555 1_555
H6I C6I 1_555 1_555
H7I C6I 1_555 1_555
C7I N2I 1_555 1_555
H8I C7I 1_555 1_555
C8I C7I 1_555 1_555
C9I C8I 1_555 1_555
H9I C9I 1_555 1_555
C10I C18F 1_555 1_555
C11I C10I 1_555 1_555
H10I C11I 1_555 1_555
C12I C11I 1_555 1_555
C13I C8I 1_555 1_555
H11I C13I 1_555 1_555
C14I C12I 1_555 1_555
H12I C14I 1_555 1_555
C15I N3I 1_555 1_555
H13I C15I 1_555 1_555
H14I C15I 1_555 1_555
C16I C15I 1_555 1_555
C17I C16I 1_555 1_555
H15I C17I 1_555 1_555
H16I C17I 1_555 1_555
H17I C17I 1_555 1_555
C18I C10 1_555 1_555
H18I C18I 1_555 1_555
N5E C21E 1_555 1_555
N6E C23E 1_555 1_555
N7E C31E 1_555 1_555
N8E C33E 1_555 1_555
C19E C20 1_555 1_555
H19E C19E 1_555 1_555
C20E C19E 1_555 1_555
C21E C20E 1_555 1_555
H20E C21E 1_555 1_555
C22E N5E 1_555 1_555
C23E C22E 1_555 1_555
C24E N6E 1_555 1_555
H21E C24E 1_555 1_555
C25E C24E 1_555 1_555
C26E C25E 1_555 1_555
H22E C26E 1_555 1_555
C27E C26E 1_555 1_555
C28E C27E 1_555 1_555
H23E C28E 1_555 1_555
C29E C28E 1_555 1_555
C30E C25E 1_555 1_555
H24E C30E 1_555 1_555
C31E C29E 1_555 1_555
H25E C31E 1_555 1_555
C32E N7E 1_555 1_555
C33E C32E 1_555 1_555
C34E C27 1_555 1_555
H26E C34E 1_555 1_555
C35E C33E 1_555 1_555
H27E C35E 1_555 1_555
H28E C35E 1_555 1_555
H29E C35E 1_555 1_555
H30E C32E 1_555 1_555
H31E C32E 1_555 1_555
H32E C22E 1_555 1_555
H33E C22E 1_555 1_555
C36E C23E 1_555 1_555
H34E C36E 1_555 1_555
H35E C36E 1_555 1_555
H36E C36E 1_555 1_555
N5K C21K 1_555 1_555
N6K C23K 1_555 1_555
N7K C31K 1_555 1_555
N8K C33K 1_555 1_555
C19K C20E 1_555 1_555
H19K C19K 1_555 1_555
C20K C19 1_555 1_555
C21K C20K 1_555 1_555
H20K C21K 1_555 1_555
C22K N5K 1_555 1_555
C23K C22K 1_555 1_555
C24K N6K 1_555 1_555
H21K C24K 1_555 1_555
C25K C24K 1_555 1_555
C26K C25K 1_555 1_555
H22K C26K 1_555 1_555
C27K C34 1_555 1_555
C28K C27K 1_555 1_555
H23K C28K 1_555 1_555
C29K C28K 1_555 1_555
C30K C25K 1_555 1_555
H24K C30K 1_555 1_555
C31K C29K 1_555 1_555
H25K C31K 1_555 1_555
C32K N7K 1_555 1_555
C33K C32K 1_555 1_555
C34K C27E 1_555 1_555
H26K C34K 1_555 1_555
C35K C33K 1_555 1_555
H27K C35K 1_555 1_555
H28K C35K 1_555 1_555
H29K C35K 1_555 1_555
H30K C32K 1_555 1_555
H31K C32K 1_555 1_555
H32K C22K 1_555 1_555
H33K C22K 1_555 1_555
C36K C23K 1_555 1_555
H34K C36K 1_555 1_555
H35K C36K 1_555 1_555
H36K C36K 1_555 1_555
C12 C13 1_555 1_555
C29 C30 1_555 1_555
C39 C40 1_555 1_555
C9F C10F 1_555 1_555
C12F C13F 1_555 1_555
N4I C18I 1_555 1_555
C1I C2I 1_555 1_555
C9I C10I 1_555 1_555
C12I C13I 1_555 1_555
N8E C34E 1_555 1_555
C29E C30E 1_555 1_555
N8K C34K 1_555 1_555
C19K C20K 1_555 1_555
C26K C27K 1_555 1_555
C29K C30K 1_555 1_555

#END
