
#######################################################################
#
#                 Cambridge Crystallographic Data Centre
#                                CCDC 
#
#######################################################################
#
# If this CIF has been generated from an entry in the Cambridge 
# Structural Database, then it will include bibliographic, chemical, 
# crystal, experimental, refinement or atomic coordinate data resulting 
# from the CCDC's data processing and validation procedures.
#
#######################################################################

data_DENMUH
_chemical_formula_moiety         'C120 H156 N12'
_symmetry_cell_setting           tetragonal
_symmetry_space_group_name_H-M   'P 41 21 2'
_symmetry_Int_Tables_number      92
_space_group_name_Hall           'P 4abw 2nw'
loop_
_symmetry_equiv_pos_site_id
_symmetry_equiv_pos_as_xyz
1 x,y,z
2 -x,-y,1/2+z
3 1/2-y,1/2+x,1/4+z
4 1/2+y,1/2-x,3/4+z
5 1/2-x,1/2+y,1/4-z
6 1/2+x,1/2-y,3/4-z
7 y,x,-z
8 -y,-x,1/2-z
_cell_length_a                   15.72840(14)
_cell_length_b                   15.72840(14)
_cell_length_c                   55.3968(12)
_cell_angle_alpha                90
_cell_angle_beta                 90
_cell_angle_gamma                90
_cell_volume                     13704.2
loop_
_atom_site_label
_atom_site_type_symbol
_atom_site_fract_x
_atom_site_fract_y
_atom_site_fract_z
C1 C 0.8493(6) 0.5172(6) 0.74943(17)
C2 C 0.8572(7) 0.4749(7) 0.77178(16)
C3 C 0.8759(7) 0.3883(7) 0.77217(16)
C4 C 0.8859(6) 0.3438(6) 0.75027(16)
C5 C 0.8795(6) 0.3866(6) 0.72841(15)
C6 C 0.8608(7) 0.4744(7) 0.72813(16)
C7 C 0.8321(8) 0.6101(6) 0.74925(19)
H1 H 0.774786 0.628349 0.750713
N1 N 0.8876(6) 0.6648(6) 0.74733(18)
C8 C 0.8779(8) 0.3421(7) 0.79545(17)
H2 H 0.826377 0.318301 0.801329
N2 N 0.9427(6) 0.3328(6) 0.80759(14)
C9 C 0.8858(8) 0.3394(7) 0.70519(17)
H3 H 0.834756 0.316506 0.698688
N3 N 0.9519(6) 0.3276(6) 0.69372(15)
C10 C 0.8422(9) 0.5249(8) 0.79513(17)
H4 H 0.804644 0.573887 0.791631
H5 H 0.812586 0.487886 0.806885
C11 C 0.9210(9) 0.5560(8) 0.8060(2)
H6 H 0.907851 0.587406 0.820780
H7 H 0.957996 0.507740 0.809815
H8 H 0.950052 0.593769 0.794556
C12 C 0.9081(6) 0.2493(6) 0.75080(19)
H9 H 0.881050 0.222754 0.765056
H10 H 0.884727 0.221613 0.736190
C13 C 1.0015(7) 0.2342(7) 0.7518(2)
H11 H 1.012593 0.172910 0.752112
H12 H 1.028520 0.259321 0.737546
H13 H 1.024842 0.260462 0.766414
C14 C 0.8494(9) 0.5213(8) 0.70415(19)
H14 H 0.822813 0.482867 0.692195
H15 H 0.811298 0.570716 0.706501
C15 C 0.9338(10) 0.5512(10) 0.6948(2)
H16 H 0.925600 0.581151 0.679482
H17 H 0.959687 0.589888 0.706588
H18 H 0.971182 0.502192 0.692307
C16 C 0.5105(10) 0.5955(11) 0.6906(4)
C17 C 0.5584(9) 0.5488(10) 0.6738(3)
C18 C 0.5176(9) 0.4821(9) 0.6613(3)
C19 C 0.4333(10) 0.4589(11) 0.6668(4)
C20 C 0.3943(12) 0.4987(14) 0.6864(4)
C21 C 0.4292(10) 0.5704(12) 0.6976(3)
C22 C 0.5513(9) 0.6722(8) 0.7022(3)
H19 H 0.581700 0.665661 0.716855
N4 N 0.5462(8) 0.7397(8) 0.69330(18)
C23 C 0.5617(10) 0.4271(10) 0.6435(2)
H20 H 0.529207 0.404533 0.630505
N5 N 0.6342(8) 0.4099(7) 0.6444(2)
C24 C 0.3232(11) 0.4544(14) 0.6994(4)
H21 H 0.335558 0.437766 0.715474
N6 N 0.2608(8) 0.4388(11) 0.6931(2)
C25 C 0.6505(8) 0.5797(9) 0.6673(2)
H22 H 0.677237 0.610459 0.680876
H23 H 0.687376 0.531726 0.662359
C26 C 0.6325(10) 0.6366(12) 0.6469(2)
H24 H 0.685799 0.660992 0.640959
H25 H 0.604800 0.604528 0.633983
H26 H 0.594759 0.682502 0.652321
C27 C 0.3928(14) 0.3826(17) 0.6524(5)
H27 H 0.331732 0.393417 0.649387
H28 H 0.421824 0.375460 0.636673
C28 C 0.4033(19) 0.3078(16) 0.6669(8)
H29 H 0.378787 0.258839 0.658477
H30 H 0.463983 0.297849 0.669736
H31 H 0.374288 0.315728 0.682394
C29 C 0.3827(13) 0.6192(14) 0.7183(3)
H32 H 0.362946 0.578291 0.730690
H33 H 0.422663 0.659318 0.726101
C30 C 0.310(2) 0.666(2) 0.7087(7)
H34 H 0.281751 0.696012 0.721793
H35 H 0.330267 0.706546 0.696577
H36 H 0.270665 0.625676 0.701158
C31 C 0.7471(6) 0.1509(6) 0.66193(16)
C32 C 0.8301(7) 0.1744(6) 0.66880(14)
C33 C 0.8620(6) 0.2545(6) 0.66165(16)
C34 C 0.8113(7) 0.3102(7) 0.64802(17)
C35 C 0.7297(7) 0.2853(6) 0.64103(15)
C36 C 0.6972(6) 0.2059(6) 0.64814(16)
C37 C 0.7130(7) 0.0650(7) 0.66860(15)
H37 H 0.761186 0.024452 0.668717
H38 H 0.673598 0.046643 0.655685
C38 C 0.9489(7) 0.2800(7) 0.67047(16)
H39 H 0.983590 0.227859 0.672249
H40 H 0.976049 0.315432 0.657879
C39 C 0.6721(8) 0.3473(8) 0.62700(17)
H41 H 0.705774 0.377719 0.614618
H42 H 0.626301 0.315372 0.618733
C40 C 0.8836(7) 0.1147(7) 0.68429(16)
H43 H 0.918978 0.148998 0.695404
H44 H 0.845194 0.079142 0.694224
C41 C 0.9412(8) 0.0569(7) 0.66948(18)
H45 H 0.973866 0.020162 0.680339
H46 H 0.906503 0.021789 0.658693
H47 H 0.980328 0.091684 0.659874
C42 C 0.8458(8) 0.3956(7) 0.64066(16)
H48 H 0.885890 0.416093 0.653164
H49 H 0.798510 0.436934 0.639552
C43 C 0.8922(8) 0.3910(8) 0.61612(17)
H50 H 0.913852 0.447437 0.611862
H51 H 0.939673 0.350873 0.617259
H52 H 0.852358 0.371699 0.603658
C44 C 0.6054(7) 0.1828(8) 0.64131(17)
H53 H 0.581271 0.144954 0.653829
H54 H 0.570616 0.235248 0.640825
C45 C 0.6009(8) 0.1389(8) 0.61702(18)
H55 H 0.541620 0.125190 0.613262
H56 H 0.623832 0.176663 0.604537
H57 H 0.634481 0.086420 0.617534
C46 C 0.6349(7) 0.8029(6) 0.72771(16)
C47 C 0.7223(7) 0.7861(6) 0.72694(17)
C48 C 0.7698(6) 0.7766(6) 0.74818(17)
C49 C 0.7286(7) 0.7837(7) 0.77035(17)
C50 C 0.6420(7) 0.8046(7) 0.77134(17)
C51 C 0.5945(7) 0.8115(6) 0.74996(18)
C52 C 0.5837(8) 0.8173(7) 0.70435(18)
H58 H 0.537133 0.857737 0.707886
H59 H 0.621487 0.844433 0.692321
C53 C 0.8634(7) 0.7563(6) 0.7473(2)
H60 H 0.887428 0.782795 0.732647
H61 H 0.890835 0.783654 0.761410
C54 C 0.5974(8) 0.8143(7) 0.79529(18)
H62 H 0.638354 0.839945 0.806745
H63 H 0.550800 0.855947 0.793064
C55 C 0.7679(8) 0.7735(7) 0.70277(16)
H64 H 0.726970 0.752020 0.690626
H65 H 0.813501 0.730672 0.704658
C56 C 0.8066(9) 0.8582(8) 0.6939(2)
H66 H 0.835406 0.849036 0.678452
H67 H 0.761215 0.900289 0.691834
H68 H 0.847608 0.878975 0.705843
C57 C 0.7795(8) 0.7738(7) 0.79409(17)
H69 H 0.741464 0.751356 0.806824
H70 H 0.825733 0.731973 0.791589
C58 C 0.8174(10) 0.8569(8) 0.8025(2)
H71 H 0.848981 0.847649 0.817490
H72 H 0.856042 0.878734 0.790056
H73 H 0.771787 0.898114 0.805288
C59 C 0.5002(7) 0.8306(6) 0.7513(2)
H74 H 0.476619 0.805136 0.766237
H75 H 0.471197 0.803859 0.737387
C60 C 0.4820(8) 0.9256(7) 0.7513(3)
H76 H 0.420521 0.934950 0.752156
H77 H 0.509654 0.952094 0.765210
H78 H 0.504233 0.950818 0.736365
C1G C 0.4828(6) 0.1507(6) 0.75057(17)
C2G C 0.5251(7) 0.1428(7) 0.72822(16)
C3G C 0.6117(7) 0.1241(7) 0.72783(16)
C4G C 0.6562(6) 0.1141(6) 0.74973(16)
C5G C 0.6134(6) 0.1205(6) 0.77159(15)
C6G C 0.5256(7) 0.1392(7) 0.77187(16)
C7G C 0.3899(6) 0.1679(8) 0.75075(19)
H1G H 0.371651 0.225214 0.749287
N1G N 0.3352(6) 0.1124(6) 0.75267(18)
C8G C 0.6579(7) 0.1221(8) 0.70455(17)
H2G H 0.681699 0.173623 0.698671
N2G N 0.6672(6) 0.0573(6) 0.69241(14)
C9G C 0.6606(7) 0.1142(8) 0.79481(17)
H3G H 0.683494 0.165244 0.801312
N3G N 0.6724(6) 0.0481(6) 0.80628(15)
C10G C 0.4751(8) 0.1578(9) 0.70487(17)
H4G H 0.426113 0.195356 0.708369
H5G H 0.512114 0.187414 0.693115
C11G C 0.4440(8) 0.0790(9) 0.6940(2)
H6G H 0.412594 0.092149 0.679220
H7G H 0.492260 0.042004 0.690185
H8G H 0.406231 0.049948 0.705444
C12G C 0.7507(6) 0.0919(6) 0.74920(19)
H9G H 0.777246 0.118950 0.734944
H10G H 0.778387 0.115273 0.763810
C13G C 0.7658(7) -0.0015(7) 0.7482(2)
H11G H 0.827090 -0.012593 0.747888
H12G H 0.740679 -0.028520 0.762454
H13G H 0.739538 -0.024842 0.733586
C14G C 0.4787(8) 0.1506(9) 0.79585(19)
H14G H 0.517133 0.177187 0.807805
H15G H 0.429284 0.188702 0.793499
C15G C 0.4488(10) 0.0662(10) 0.8052(2)
H16G H 0.418849 0.074400 0.820518
H17G H 0.410112 0.040313 0.793412
H18G H 0.497808 0.028818 0.807693
C16G C 0.4045(11) 0.4895(10) 0.8094(4)
C17G C 0.4512(10) 0.4416(9) 0.8262(3)
C18G C 0.5179(9) 0.4824(9) 0.8387(3)
C19G C 0.5411(11) 0.5667(10) 0.8332(4)
C20G C 0.5013(14) 0.6057(12) 0.8136(4)
C21G C 0.4296(12) 0.5708(10) 0.8024(3)
C22G C 0.3278(8) 0.4487(9) 0.7978(3)
H19G H 0.334339 0.418300 0.783145
N4G N 0.2603(8) 0.4538(8) 0.80670(18)
C23G C 0.5729(10) 0.4383(10) 0.8565(2)
H20G H 0.595467 0.470793 0.869495
N5G N 0.5901(7) 0.3658(8) 0.8556(2)
C24G C 0.5456(14) 0.6768(11) 0.8006(4)
H21G H 0.562234 0.664442 0.784526
N6G N 0.5612(11) 0.7392(8) 0.8069(2)
C25G C 0.4203(9) 0.3495(8) 0.8327(2)
H22G H 0.389541 0.322763 0.819124
H23G H 0.468274 0.312624 0.837641
C26G C 0.3634(12) 0.3675(10) 0.8531(2)
H24G H 0.339008 0.314201 0.859041
H25G H 0.395472 0.395200 0.866017
H26G H 0.317498 0.405241 0.847679
C27G C 0.6174(17) 0.6072(14) 0.8476(5)
H27G H 0.606583 0.668268 0.850613
H28G H 0.624540 0.578176 0.863327
C28G C 0.6922(16) 0.5967(19) 0.8331(8)
H29G H 0.741161 0.621213 0.841523
H30G H 0.702151 0.536017 0.830264
H31G H 0.684272 0.625712 0.817606
C29G C 0.3808(14) 0.6173(13) 0.7817(3)
H32G H 0.421709 0.637054 0.769310
H33G H 0.340682 0.577337 0.773899
C30G C 0.334(2) 0.690(2) 0.7913(7)
H34G H 0.303988 0.718249 0.778207
H35G H 0.293454 0.669733 0.803423
H36G H 0.374324 0.729335 0.798842
C31G C 0.8491(6) 0.2529(6) 0.83807(16)
C32G C 0.8256(6) 0.1699(7) 0.83120(14)
C33G C 0.7455(6) 0.1380(6) 0.83835(16)
C34G C 0.6898(7) 0.1887(7) 0.85198(17)
C35G C 0.7147(6) 0.2703(7) 0.85897(15)
C36G C 0.7941(6) 0.3028(6) 0.85186(16)
C37G C 0.9350(7) 0.2870(7) 0.83140(15)
H37G H 0.975548 0.238814 0.831283
H38G H 0.953357 0.326402 0.844315
C38G C 0.7200(7) 0.0511(7) 0.82953(16)
H39G H 0.772141 0.016410 0.827751
H40G H 0.684568 0.023951 0.842121
C39G C 0.6527(8) 0.3279(8) 0.87300(17)
H41G H 0.622281 0.294226 0.885382
H42G H 0.684628 0.373699 0.881267
C40G C 0.8853(7) 0.1164(7) 0.81571(16)
H43G H 0.851002 0.081022 0.804596
H44G H 0.920858 0.154806 0.805776
C41G C 0.9431(7) 0.0588(8) 0.83052(18)
H45G H 0.979838 0.026134 0.819661
H46G H 0.978211 0.093497 0.841307
H47G H 0.908316 0.019672 0.840126
C42G C 0.6044(7) 0.1542(8) 0.85934(16)
H48G H 0.583907 0.114110 0.846836
H49G H 0.563066 0.201490 0.860448
C43G C 0.6090(8) 0.1078(8) 0.88388(17)
H50G H 0.552563 0.086148 0.888138
H51G H 0.649127 0.060327 0.882741
H52G H 0.628301 0.147642 0.896342
C44G C 0.8172(8) 0.3946(7) 0.85869(17)
H53G H 0.855046 0.418729 0.846171
H54G H 0.764752 0.429384 0.859175
C45G C 0.8611(8) 0.3991(8) 0.88298(18)
H55G H 0.874810 0.458380 0.886738
H56G H 0.823337 0.376168 0.895463
H57G H 0.913580 0.365519 0.882466
C46G C 0.1971(6) 0.3651(7) 0.77229(16)
C47G C 0.2139(6) 0.2777(7) 0.77306(17)
C48G C 0.2234(6) 0.2302(6) 0.75182(17)
C49G C 0.2163(7) 0.2714(7) 0.72965(17)
C50G C 0.1954(7) 0.3580(7) 0.72866(17)
C51G C 0.1885(6) 0.4055(7) 0.75004(18)
C52G C 0.1827(7) 0.4163(8) 0.79565(18)
H58G H 0.142263 0.462867 0.792114
H59G H 0.155567 0.378513 0.807679
C53G C 0.2437(6) 0.1366(7) 0.7527(2)
H60G H 0.217205 0.112572 0.767353
H61G H 0.216346 0.109165 0.738590
C54G C 0.1857(7) 0.4026(8) 0.70471(18)
H62G H 0.160055 0.361646 0.693255
H63G H 0.144053 0.449200 0.706936
C55G C 0.2265(7) 0.2321(8) 0.79723(16)
H64G H 0.247980 0.273030 0.809374
H65G H 0.269328 0.186499 0.795342
C56G C 0.1418(8) 0.1934(9) 0.8061(2)
H66G H 0.150964 0.164594 0.821548
H67G H 0.099711 0.238785 0.808166
H68G H 0.121025 0.152392 0.794157
C57G C 0.2262(7) 0.2205(8) 0.70591(17)
H69G H 0.248644 0.258536 0.693176
H70G H 0.268027 0.174267 0.708411
C58G C 0.1431(8) 0.1826(10) 0.6975(2)
H71G H 0.152351 0.151019 0.682510
H72G H 0.121266 0.143958 0.709944
H73G H 0.101886 0.228213 0.694712
C59G C 0.1694(6) 0.4998(7) 0.7487(2)
H74G H 0.194864 0.523381 0.733763
H75G H 0.196141 0.528803 0.762613
C60G C 0.0744(7) 0.5180(8) 0.7487(3)
H76G H 0.065050 0.579479 0.747844
H77G H 0.047906 0.490346 0.734790
H78G H 0.049182 0.495767 0.763635
loop_
_geom_bond_atom_site_label_1
_geom_bond_atom_site_label_2
_geom_bond_site_symmetry_1
_geom_bond_site_symmetry_2
C1 C2 1_555 1_555
C2 C3 1_555 1_555
C3 C4 1_555 1_555
C4 C5 1_555 1_555
C5 C6 1_555 1_555
C6 C1 1_555 1_555
C7 C1 1_555 1_555
H1 C7 1_555 1_555
N1 C7 1_555 1_555
C8 C3 1_555 1_555
H2 C8 1_555 1_555
N2 C8 1_555 1_555
C9 C5 1_555 1_555
H3 C9 1_555 1_555
N3 C9 1_555 1_555
C10 C2 1_555 1_555
H4 C10 1_555 1_555
H5 C10 1_555 1_555
C11 C10 1_555 1_555
H6 C11 1_555 1_555
H7 C11 1_555 1_555
H8 C11 1_555 1_555
C12 C4 1_555 1_555
H9 C12 1_555 1_555
H10 C12 1_555 1_555
C13 C12 1_555 1_555
H11 C13 1_555 1_555
H12 C13 1_555 1_555
H13 C13 1_555 1_555
C14 C6 1_555 1_555
H14 C14 1_555 1_555
H15 C14 1_555 1_555
C15 C14 1_555 1_555
H16 C15 1_555 1_555
H17 C15 1_555 1_555
H18 C15 1_555 1_555
C16 C17 1_555 1_555
C17 C18 1_555 1_555
C18 C19 1_555 1_555
C19 C20 1_555 1_555
C20 C21 1_555 1_555
C21 C16 1_555 1_555
C22 C16 1_555 1_555
H19 C22 1_555 1_555
N4 C22 1_555 1_555
C23 C18 1_555 1_555
H20 C23 1_555 1_555
N5 C23 1_555 1_555
C24 C20 1_555 1_555
H21 C24 1_555 1_555
N6 C24 1_555 1_555
C25 C17 1_555 1_555
H22 C25 1_555 1_555
H23 C25 1_555 1_555
C26 C25 1_555 1_555
H24 C26 1_555 1_555
H25 C26 1_555 1_555
H26 C26 1_555 1_555
C27 C19 1_555 1_555
H27 C27 1_555 1_555
H28 C27 1_555 1_555
C28 C27 1_555 1_555
H29 C28 1_555 1_555
H30 C28 1_555 1_555
H31 C28 1_555 1_555
C29 C21 1_555 1_555
H32 C29 1_555 1_555
H33 C29 1_555 1_555
C30 C29 1_555 1_555
H34 C30 1_555 1_555
H35 C30 1_555 1_555
H36 C30 1_555 1_555
C31 C32 1_555 1_555
C32 C33 1_555 1_555
C33 C34 1_555 1_555
C34 C35 1_555 1_555
C35 C36 1_555 1_555
C36 C31 1_555 1_555
C37 C31 1_555 1_555
H37 C37 1_555 1_555
H38 C37 1_555 1_555
C38 N3 1_555 1_555
H39 C38 1_555 1_555
H40 C38 1_555 1_555
C39 N5 1_555 1_555
H41 C39 1_555 1_555
H42 C39 1_555 1_555
C40 C32 1_555 1_555
H43 C40 1_555 1_555
H44 C40 1_555 1_555
C41 C40 1_555 1_555
H45 C41 1_555 1_555
H46 C41 1_555 1_555
H47 C41 1_555 1_555
C42 C34 1_555 1_555
H48 C42 1_555 1_555
H49 C42 1_555 1_555
C43 C42 1_555 1_555
H50 C43 1_555 1_555
H51 C43 1_555 1_555
H52 C43 1_555 1_555
C44 C36 1_555 1_555
H53 C44 1_555 1_555
H54 C44 1_555 1_555
C45 C44 1_555 1_555
H55 C45 1_555 1_555
H56 C45 1_555 1_555
H57 C45 1_555 1_555
C46 C47 1_555 1_555
C47 C48 1_555 1_555
C48 C49 1_555 1_555
C49 C50 1_555 1_555
C50 C51 1_555 1_555
C51 C46 1_555 1_555
C52 N4 1_555 1_555
H58 C52 1_555 1_555
H59 C52 1_555 1_555
C53 N1 1_555 1_555
H60 C53 1_555 1_555
H61 C53 1_555 1_555
C54 C50 1_555 1_555
H62 C54 1_555 1_555
H63 C54 1_555 1_555
C55 C47 1_555 1_555
H64 C55 1_555 1_555
H65 C55 1_555 1_555
C56 C55 1_555 1_555
H66 C56 1_555 1_555
H67 C56 1_555 1_555
H68 C56 1_555 1_555
C57 C49 1_555 1_555
H69 C57 1_555 1_555
H70 C57 1_555 1_555
C58 C57 1_555 1_555
H71 C58 1_555 1_555
H72 C58 1_555 1_555
H73 C58 1_555 1_555
C59 C51 1_555 1_555
H74 C59 1_555 1_555
H75 C59 1_555 1_555
C60 C59 1_555 1_555
H76 C60 1_555 1_555
H77 C60 1_555 1_555
H78 C60 1_555 1_555
C1G C2G 1_555 1_555
C2G C3G 1_555 1_555
C3G C4G 1_555 1_555
C4G C5G 1_555 1_555
C5G C6G 1_555 1_555
C6G C1G 1_555 1_555
C7G C1G 1_555 1_555
H1G C7G 1_555 1_555
N1G C7G 1_555 1_555
C8G C3G 1_555 1_555
H2G C8G 1_555 1_555
N2G C37 1_555 1_555
C9G C5G 1_555 1_555
H3G C9G 1_555 1_555
N3G C9G 1_555 1_555
C10G C2G 1_555 1_555
H4G C10G 1_555 1_555
H5G C10G 1_555 1_555
C11G C10G 1_555 1_555
H6G C11G 1_555 1_555
H7G C11G 1_555 1_555
H8G C11G 1_555 1_555
C12G C4G 1_555 1_555
H9G C12G 1_555 1_555
H10G C12G 1_555 1_555
C13G C12G 1_555 1_555
H11G C13G 1_555 1_555
H12G C13G 1_555 1_555
H13G C13G 1_555 1_555
C14G C6G 1_555 1_555
H14G C14G 1_555 1_555
H15G C14G 1_555 1_555
C15G C14G 1_555 1_555
H16G C15G 1_555 1_555
H17G C15G 1_555 1_555
H18G C15G 1_555 1_555
C16G C17G 1_555 1_555
C17G C18G 1_555 1_555
C18G C19G 1_555 1_555
C19G C20G 1_555 1_555
C20G C21G 1_555 1_555
C21G C16G 1_555 1_555
C22G C16G 1_555 1_555
H19G C22G 1_555 1_555
N4G C22G 1_555 1_555
C23G C18G 1_555 1_555
H20G C23G 1_555 1_555
N5G C23G 1_555 1_555
C24G C20G 1_555 1_555
H21G C24G 1_555 1_555
N6G C54 1_555 1_555
C25G C17G 1_555 1_555
H22G C25G 1_555 1_555
H23G C25G 1_555 1_555
C26G C25G 1_555 1_555
H24G C26G 1_555 1_555
H25G C26G 1_555 1_555
H26G C26G 1_555 1_555
C27G C19G 1_555 1_555
H27G C27G 1_555 1_555
H28G C27G 1_555 1_555
C28G C27G 1_555 1_555
H29G C28G 1_555 1_555
H30G C28G 1_555 1_555
H31G C28G 1_555 1_555
C29G C21G 1_555 1_555
H32G C29G 1_555 1_555
H33G C29G 1_555 1_555
C30G C29G 1_555 1_555
H34G C30G 1_555 1_555
H35G C30G 1_555 1_555
H36G C30G 1_555 1_555
C31G C32G 1_555 1_555
C32G C33G 1_555 1_555
C33G C34G 1_555 1_555
C34G C35G 1_555 1_555
C35G C36G 1_555 1_555
C36G C31G 1_555 1_555
C37G N2 1_555 1_555
H37G C37G 1_555 1_555
H38G C37G 1_555 1_555
C38G N3G 1_555 1_555
H39G C38G 1_555 1_555
H40G C38G 1_555 1_555
C39G N5G 1_555 1_555
H41G C39G 1_555 1_555
H42G C39G 1_555 1_555
C40G C32G 1_555 1_555
H43G C40G 1_555 1_555
H44G C40G 1_555 1_555
C41G C40G 1_555 1_555
H45G C41G 1_555 1_555
H46G C41G 1_555 1_555
H47G C41G 1_555 1_555
C42G C34G 1_555 1_555
H48G C42G 1_555 1_555
H49G C42G 1_555 1_555
C43G C42G 1_555 1_555
H50G C43G 1_555 1_555
H51G C43G 1_555 1_555
H52G C43G 1_555 1_555
C44G C36G 1_555 1_555
H53G C44G 1_555 1_555
H54G C44G 1_555 1_555
C45G C44G 1_555 1_555
H55G C45G 1_555 1_555
H56G C45G 1_555 1_555
H57G C45G 1_555 1_555
C46G C47G 1_555 1_555
C47G C48G 1_555 1_555
C48G C49G 1_555 1_555
C49G C50G 1_555 1_555
C50G C51G 1_555 1_555
C51G C46G 1_555 1_555
C52G N4G 1_555 1_555
H58G C52G 1_555 1_555
H59G C52G 1_555 1_555
C53G N1G 1_555 1_555
H60G C53G 1_555 1_555
H61G C53G 1_555 1_555
C54G N6 1_555 1_555
H62G C54G 1_555 1_555
H63G C54G 1_555 1_555
C55G C47G 1_555 1_555
H64G C55G 1_555 1_555
H65G C55G 1_555 1_555
C56G C55G 1_555 1_555
H66G C56G 1_555 1_555
H67G C56G 1_555 1_555
H68G C56G 1_555 1_555
C57G C49G 1_555 1_555
H69G C57G 1_555 1_555
H70G C57G 1_555 1_555
C58G C57G 1_555 1_555
H71G C58G 1_555 1_555
H72G C58G 1_555 1_555
H73G C58G 1_555 1_555
C59G C51G 1_555 1_555
H74G C59G 1_555 1_555
H75G C59G 1_555 1_555
C60G C59G 1_555 1_555
H76G C60G 1_555 1_555
H77G C60G 1_555 1_555
H78G C60G 1_555 1_555
C33 C38 1_555 1_555
C35 C39 1_555 1_555
C46 C52 1_555 1_555
C48 C53 1_555 1_555
C8G N2G 1_555 1_555
C24G N6G 1_555 1_555
C31G C37G 1_555 1_555
C33G C38G 1_555 1_555
C35G C39G 1_555 1_555
C46G C52G 1_555 1_555
C48G C53G 1_555 1_555
C50G C54G 1_555 1_555

#END
