data_image0
_cell_length_a       15.728
_cell_length_b       15.728
_cell_length_c       55.397
_cell_angle_alpha    90
_cell_angle_beta     90
_cell_angle_gamma    90

_symmetry_space_group_name_H-M    "P 1"
_symmetry_int_tables_number       1

loop_
  _symmetry_equiv_pos_as_xyz
  'x, y, z'

loop_
  _atom_site_label
  _atom_site_occupancy
  _atom_site_fract_x
  _atom_site_fract_y
  _atom_site_fract_z
  _atom_site_thermal_displace_type
  _atom_site_B_iso_or_equiv
  _atom_site_type_symbol
  C1       1.0000 0.56174  0.42714  0.64350  Biso   1.000  C
  N1       1.0000 0.63422  0.40991  0.64440  Biso   1.000  N
  C2       1.0000 0.51761  0.48213  0.66130  Biso   1.000  C
  H1       1.0000 0.52925  0.40457  0.63050  Biso   1.000  H
  C3       1.0000 0.67211  0.34728  0.62700  Biso   1.000  C
  C4       1.0000 0.55843  0.54883  0.67379  Biso   1.000  C
  C5       1.0000 0.43330  0.45893  0.66681  Biso   1.000  C
  C6       1.0000 0.72972  0.28529  0.64103  Biso   1.000  C
  H2       1.0000 0.70581  0.37773  0.61462  Biso   1.000  H
  H3       1.0000 0.62634  0.31536  0.61873  Biso   1.000  H
  C7       1.0000 0.51049  0.59550  0.69060  Biso   1.000  C
  C8       1.0000 0.65050  0.57973  0.66729  Biso   1.000  C
  C9       1.0000 0.39433  0.49873  0.68639  Biso   1.000  C
  C10      1.0000 0.39280  0.38263  0.65240  Biso   1.000  C
  C11      1.0000 0.69723  0.20587  0.64814  Biso   1.000  C
  C12      1.0000 0.81129  0.31021  0.64801  Biso   1.000  C
  C13      1.0000 0.42923  0.57038  0.69760  Biso   1.000  C
  C14      1.0000 0.55131  0.67224  0.70220  Biso   1.000  C
  H4       1.0000 0.67726  0.61050  0.68087  Biso   1.000  H
  H5       1.0000 0.68737  0.53173  0.66236  Biso   1.000  H
  C15      1.0000 0.63250  0.63664  0.64689  Biso   1.000  C
  C16      1.0000 0.32318  0.45441  0.69941  Biso   1.000  C
  H6       1.0000 0.33177  0.39344  0.64939  Biso   1.000  H
  H7       1.0000 0.42186  0.37545  0.63668  Biso   1.000  H
  C17      1.0000 0.40329  0.30780  0.66690  Biso   1.000  C
  C18      1.0000 0.60542  0.18280  0.64132  Biso   1.000  C
  C19      1.0000 0.74714  0.15088  0.66193  Biso   1.000  C
  C20      1.0000 0.86203  0.25451  0.66164  Biso   1.000  C
  C21      1.0000 0.84582  0.39560  0.64067  Biso   1.000  C
  C22      1.0000 0.38269  0.61921  0.71831  Biso   1.000  C
  H8       1.0000 0.58170  0.66569  0.71684  Biso   1.000  H
  N2       1.0000 0.54622  0.73970  0.69330  Biso   1.000  N
  H9       1.0000 0.68585  0.66099  0.64096  Biso   1.000  H
  H10      1.0000 0.60484  0.60453  0.63399  Biso   1.000  H
  H11      1.0000 0.59480  0.68254  0.65231  Biso   1.000  H
  H12      1.0000 0.33558  0.43775  0.71547  Biso   1.000  H
  N3       1.0000 0.26081  0.43884  0.69311  Biso   1.000  N
  H13      1.0000 0.37881  0.25884  0.65848  Biso   1.000  H
  H14      1.0000 0.46401  0.29788  0.66973  Biso   1.000  H
  H15      1.0000 0.37430  0.31574  0.68238  Biso   1.000  H
  C23      1.0000 0.60090  0.13892  0.61702  Biso   1.000  C
  H16      1.0000 0.58126  0.14496  0.65383  Biso   1.000  H
  H17      1.0000 0.57064  0.23525  0.64083  Biso   1.000  H
  C24      1.0000 0.83011  0.17440  0.66879  Biso   1.000  C
  C25      1.0000 0.71300  0.06498  0.66859  Biso   1.000  C
  C26      1.0000 0.94894  0.28001  0.67047  Biso   1.000  C
  H18      1.0000 0.88594  0.41607  0.65316  Biso   1.000  H
  H19      1.0000 0.79851  0.43693  0.63955  Biso   1.000  H
  C27      1.0000 0.89223  0.39102  0.61612  Biso   1.000  C
  H20      1.0000 0.36298  0.57833  0.73069  Biso   1.000  H
  H21      1.0000 0.42269  0.65933  0.72610  Biso   1.000  H
  C28      1.0000 0.31002  0.66601  0.70870  Biso   1.000  C
  C29      1.0000 0.58374  0.81733  0.70435  Biso   1.000  C
  C30      1.0000 0.18572  0.40259  0.70471  Biso   1.000  C
  H22      1.0000 0.54165  0.12519  0.61326  Biso   1.000  H
  H23      1.0000 0.62386  0.17669  0.60453  Biso   1.000  H
  H24      1.0000 0.63447  0.08641  0.61752  Biso   1.000  H
  C31      1.0000 0.88365  0.11470  0.68428  Biso   1.000  C
  N4       1.0000 0.66722  0.05729  0.69240  Biso   1.000  N
  H25      1.0000 0.76119  0.02448  0.66872  Biso   1.000  H
  H26      1.0000 0.67364  0.04667  0.65569  Biso   1.000  H
  N5       1.0000 0.95193  0.32763  0.69372  Biso   1.000  N
  H27      1.0000 0.98360  0.22787  0.67224  Biso   1.000  H
  H28      1.0000 0.97609  0.31542  0.65787  Biso   1.000  H
  H29      1.0000 0.91385  0.44742  0.61186  Biso   1.000  H
  H30      1.0000 0.93973  0.35090  0.61725  Biso   1.000  H
  H31      1.0000 0.85237  0.37169  0.60366  Biso   1.000  H
  H32      1.0000 0.28173  0.69602  0.72179  Biso   1.000  H
  H33      1.0000 0.33030  0.70657  0.69657  Biso   1.000  H
  H34      1.0000 0.27066  0.62570  0.70116  Biso   1.000  H
  C32      1.0000 0.63492  0.80290  0.72771  Biso   1.000  C
  H35      1.0000 0.53713  0.85777  0.70789  Biso   1.000  H
  H36      1.0000 0.62150  0.84448  0.69231  Biso   1.000  H
  C33      1.0000 0.19538  0.35802  0.72865  Biso   1.000  C
  H37      1.0000 0.16003  0.36165  0.69325  Biso   1.000  H
  H38      1.0000 0.14407  0.44920  0.70693  Biso   1.000  H
  H39      1.0000 0.91900  0.14903  0.69540  Biso   1.000  H
  H40      1.0000 0.84524  0.07916  0.69423  Biso   1.000  H
  C34      1.0000 0.94125  0.05690  0.66948  Biso   1.000  C
  C35      1.0000 0.65793  0.12208  0.70455  Biso   1.000  C
  C36      1.0000 0.88581  0.33939  0.70518  Biso   1.000  C
  C37      1.0000 0.72234  0.78611  0.72693  Biso   1.000  C
  C38      1.0000 0.59454  0.81155  0.74995  Biso   1.000  C
  C39      1.0000 0.21630  0.27143  0.72964  Biso   1.000  C
  C40      1.0000 0.18852  0.40552  0.75004  Biso   1.000  C
  H41      1.0000 0.97387  0.02016  0.68034  Biso   1.000  H
  H42      1.0000 0.90654  0.02181  0.65868  Biso   1.000  H
  H43      1.0000 0.98035  0.09168  0.65987  Biso   1.000  H
  C41      1.0000 0.61171  0.12411  0.72782  Biso   1.000  C
  H44      1.0000 0.68171  0.17364  0.69867  Biso   1.000  H
  C42      1.0000 0.87951  0.38664  0.72841  Biso   1.000  C
  H45      1.0000 0.83475  0.31651  0.69868  Biso   1.000  H
  C43      1.0000 0.76984  0.77664  0.74818  Biso   1.000  C
  C44      1.0000 0.76793  0.77352  0.70276  Biso   1.000  C
  C45      1.0000 0.64204  0.80462  0.77134  Biso   1.000  C
  C46      1.0000 0.50019  0.83062  0.75130  Biso   1.000  C
  C47      1.0000 0.22342  0.23023  0.75181  Biso   1.000  C
  C48      1.0000 0.22622  0.22050  0.70590  Biso   1.000  C
  C49      1.0000 0.19710  0.36508  0.77228  Biso   1.000  C
  C50      1.0000 0.16938  0.49981  0.74870  Biso   1.000  C
  C51      1.0000 0.52511  0.14280  0.72822  Biso   1.000  C
  C52      1.0000 0.65622  0.11413  0.74973  Biso   1.000  C
  C53      1.0000 0.88594  0.34378  0.75028  Biso   1.000  C
  C54      1.0000 0.86082  0.47444  0.72813  Biso   1.000  C
  C55      1.0000 0.86343  0.75629  0.74730  Biso   1.000  C
  C56      1.0000 0.72864  0.78370  0.77035  Biso   1.000  C
  H46      1.0000 0.72698  0.75203  0.69062  Biso   1.000  H
  H47      1.0000 0.81352  0.73067  0.70466  Biso   1.000  H
  C57      1.0000 0.80665  0.85821  0.69390  Biso   1.000  C
  C58      1.0000 0.59741  0.81434  0.79530  Biso   1.000  C
  H48      1.0000 0.47660  0.80519  0.76623  Biso   1.000  H
  H49      1.0000 0.47120  0.80385  0.73739  Biso   1.000  H
  C59      1.0000 0.48201  0.92561  0.75130  Biso   1.000  C
  C60      1.0000 0.24371  0.13657  0.75269  Biso   1.000  C
  C61      1.0000 0.21389  0.27772  0.77306  Biso   1.000  C
  H50      1.0000 0.24866  0.25852  0.69318  Biso   1.000  H
  H51      1.0000 0.26806  0.17428  0.70841  Biso   1.000  H
  C62      1.0000 0.14312  0.18260  0.69749  Biso   1.000  C
  C63      1.0000 0.18273  0.41633  0.79564  Biso   1.000  C
  H52      1.0000 0.19488  0.52340  0.73376  Biso   1.000  H
  H53      1.0000 0.19615  0.52880  0.76260  Biso   1.000  H
  C64      1.0000 0.07439  0.51799  0.74870  Biso   1.000  C
  C65      1.0000 0.48283  0.15069  0.75056  Biso   1.000  C
  C66      1.0000 0.47514  0.15781  0.70488  Biso   1.000  C
  C67      1.0000 0.61343  0.12049  0.77159  Biso   1.000  C
  C68      1.0000 0.75070  0.09187  0.74919  Biso   1.000  C
  C69      1.0000 0.87595  0.38829  0.77217  Biso   1.000  C
  C70      1.0000 0.90813  0.24930  0.75080  Biso   1.000  C
  C71      1.0000 0.84931  0.51723  0.74943  Biso   1.000  C
  C72      1.0000 0.84944  0.52130  0.70415  Biso   1.000  C
  N6       1.0000 0.88765  0.66480  0.74733  Biso   1.000  N
  H54      1.0000 0.88746  0.78281  0.73264  Biso   1.000  H
  H55      1.0000 0.89083  0.78370  0.76141  Biso   1.000  H
  C73      1.0000 0.77950  0.77384  0.79409  Biso   1.000  C
  H56      1.0000 0.83545  0.84906  0.67845  Biso   1.000  H
  H57      1.0000 0.76125  0.90031  0.69182  Biso   1.000  H
  H58      1.0000 0.84766  0.87901  0.70583  Biso   1.000  H
  N7       1.0000 0.56123  0.73919  0.80690  Biso   1.000  N
  H59      1.0000 0.63835  0.83997  0.80674  Biso   1.000  H
  H60      1.0000 0.55080  0.85599  0.79306  Biso   1.000  H
  H61      1.0000 0.42052  0.93496  0.75215  Biso   1.000  H
  H62      1.0000 0.50966  0.95212  0.76520  Biso   1.000  H
  H63      1.0000 0.50426  0.95085  0.73636  Biso   1.000  H
  N8       1.0000 0.33520  0.11241  0.75268  Biso   1.000  N
  H64      1.0000 0.21719  0.11260  0.76735  Biso   1.000  H
  H65      1.0000 0.21637  0.10917  0.73860  Biso   1.000  H
  C74      1.0000 0.22648  0.23213  0.79723  Biso   1.000  C
  H66      1.0000 0.15234  0.15100  0.68251  Biso   1.000  H
  H67      1.0000 0.12125  0.14395  0.70995  Biso   1.000  H
  H68      1.0000 0.10192  0.22819  0.69471  Biso   1.000  H
  N9       1.0000 0.26030  0.45384  0.80670  Biso   1.000  N
  H69      1.0000 0.14229  0.46287  0.79212  Biso   1.000  H
  H70      1.0000 0.15558  0.37850  0.80768  Biso   1.000  H
  H71      1.0000 0.06504  0.57948  0.74784  Biso   1.000  H
  H72      1.0000 0.04788  0.49034  0.73479  Biso   1.000  H
  H73      1.0000 0.04921  0.49580  0.76363  Biso   1.000  H
  C75      1.0000 0.52562  0.13918  0.77186  Biso   1.000  C
  C76      1.0000 0.38994  0.16792  0.75074  Biso   1.000  C
  H74      1.0000 0.42612  0.19538  0.70836  Biso   1.000  H
  H75      1.0000 0.51214  0.18744  0.69311  Biso   1.000  H
  C77      1.0000 0.44399  0.07903  0.69399  Biso   1.000  C
  C78      1.0000 0.66061  0.11419  0.79481  Biso   1.000  C
  H76      1.0000 0.77728  0.11896  0.73495  Biso   1.000  H
  H77      1.0000 0.77842  0.11527  0.76381  Biso   1.000  H
  C79      1.0000 0.76583  0.99854  0.74820  Biso   1.000  C
  C80      1.0000 0.85720  0.47489  0.77177  Biso   1.000  C
  C81      1.0000 0.87792  0.34213  0.79544  Biso   1.000  C
  H78      1.0000 0.88110  0.22279  0.76506  Biso   1.000  H
  H79      1.0000 0.88473  0.22164  0.73620  Biso   1.000  H
  C82      1.0000 0.00153  0.23423  0.75179  Biso   1.000  C
  C83      1.0000 0.83215  0.61012  0.74925  Biso   1.000  C
  H80      1.0000 0.82286  0.48290  0.69219  Biso   1.000  H
  H81      1.0000 0.81129  0.57070  0.70650  Biso   1.000  H
  C84      1.0000 0.93381  0.55118  0.69480  Biso   1.000  C
  H82      1.0000 0.74148  0.75140  0.80681  Biso   1.000  H
  H83      1.0000 0.82572  0.73201  0.79158  Biso   1.000  H
  C85      1.0000 0.81740  0.85694  0.80250  Biso   1.000  C
  C86      1.0000 0.54559  0.67682  0.80060  Biso   1.000  C
  H84      1.0000 0.24797  0.27302  0.80938  Biso   1.000  H
  H85      1.0000 0.26933  0.18648  0.79533  Biso   1.000  H
  C87      1.0000 0.14179  0.19341  0.80609  Biso   1.000  C
  C88      1.0000 0.32782  0.44869  0.79780  Biso   1.000  C
  C89      1.0000 0.47870  0.15062  0.79586  Biso   1.000  C
  H86      1.0000 0.37163  0.22520  0.74928  Biso   1.000  H
  H87      1.0000 0.41258  0.09213  0.67922  Biso   1.000  H
  H88      1.0000 0.49224  0.04203  0.69018  Biso   1.000  H
  H89      1.0000 0.40622  0.04997  0.70544  Biso   1.000  H
  H90      1.0000 0.68349  0.16525  0.80131  Biso   1.000  H
  N10      1.0000 0.67243  0.04813  0.80627  Biso   1.000  N
  H91      1.0000 0.82712  0.98741  0.74789  Biso   1.000  H
  H92      1.0000 0.74072  0.97152  0.76246  Biso   1.000  H
  H93      1.0000 0.73957  0.97520  0.73358  Biso   1.000  H
  C90      1.0000 0.84219  0.52492  0.79513  Biso   1.000  C
  H94      1.0000 0.82642  0.31829  0.80132  Biso   1.000  H
  N11      1.0000 0.94271  0.33278  0.80759  Biso   1.000  N
  H95      1.0000 0.01259  0.17294  0.75212  Biso   1.000  H
  H96      1.0000 0.02855  0.25935  0.73755  Biso   1.000  H
  H97      1.0000 0.02486  0.26049  0.76641  Biso   1.000  H
  H98      1.0000 0.77480  0.62837  0.75071  Biso   1.000  H
  H99      1.0000 0.92561  0.58119  0.67948  Biso   1.000  H
  H100     1.0000 0.95969  0.58990  0.70659  Biso   1.000  H
  H101     1.0000 0.97120  0.50223  0.69231  Biso   1.000  H
  H102     1.0000 0.84900  0.84766  0.81748  Biso   1.000  H
  H103     1.0000 0.85605  0.87875  0.79006  Biso   1.000  H
  H104     1.0000 0.77181  0.89814  0.80528  Biso   1.000  H
  C91      1.0000 0.50134  0.60573  0.81360  Biso   1.000  C
  H105     1.0000 0.56225  0.66448  0.78452  Biso   1.000  H
  H106     1.0000 0.15094  0.16461  0.82154  Biso   1.000  H
  H107     1.0000 0.09969  0.23881  0.80817  Biso   1.000  H
  H108     1.0000 0.12106  0.15240  0.79416  Biso   1.000  H
  C92      1.0000 0.40450  0.48951  0.80939  Biso   1.000  C
  H109     1.0000 0.33437  0.41830  0.78315  Biso   1.000  H
  H110     1.0000 0.51717  0.17720  0.80781  Biso   1.000  H
  H111     1.0000 0.42930  0.18871  0.79349  Biso   1.000  H
  C93      1.0000 0.44882  0.06619  0.80521  Biso   1.000  C
  C94      1.0000 0.71999  0.05112  0.82952  Biso   1.000  C
  H112     1.0000 0.80468  0.57388  0.79163  Biso   1.000  H
  H113     1.0000 0.81263  0.48792  0.80688  Biso   1.000  H
  C95      1.0000 0.92103  0.55601  0.80600  Biso   1.000  C
  C96      1.0000 0.93502  0.28700  0.83140  Biso   1.000  C
  C97      1.0000 0.42962  0.57083  0.80239  Biso   1.000  C
  C98      1.0000 0.54114  0.56670  0.83320  Biso   1.000  C
  C99      1.0000 0.45123  0.44163  0.82620  Biso   1.000  C
  H114     1.0000 0.41887  0.07439  0.82051  Biso   1.000  H
  H115     1.0000 0.41010  0.04031  0.79340  Biso   1.000  H
  H116     1.0000 0.49784  0.02880  0.80770  Biso   1.000  H
  C100     1.0000 0.74555  0.13803  0.83835  Biso   1.000  C
  H117     1.0000 0.77219  0.01640  0.82775  Biso   1.000  H
  H118     1.0000 0.68458  0.02397  0.84212  Biso   1.000  H
  H119     1.0000 0.90787  0.58742  0.82078  Biso   1.000  H
  H120     1.0000 0.95804  0.50776  0.80981  Biso   1.000  H
  H121     1.0000 0.95009  0.59378  0.79456  Biso   1.000  H
  C101     1.0000 0.84912  0.25292  0.83806  Biso   1.000  C
  H122     1.0000 0.97558  0.23881  0.83127  Biso   1.000  H
  H123     1.0000 0.95340  0.32642  0.84431  Biso   1.000  H
  C102     1.0000 0.38079  0.61731  0.78170  Biso   1.000  C
  C103     1.0000 0.51793  0.48239  0.83869  Biso   1.000  C
  C104     1.0000 0.61743  0.60720  0.84759  Biso   1.000  C
  C105     1.0000 0.42033  0.34950  0.83270  Biso   1.000  C
  C106     1.0000 0.82560  0.16989  0.83120  Biso   1.000  C
  C107     1.0000 0.68979  0.18871  0.85198  Biso   1.000  C
  C108     1.0000 0.79413  0.30284  0.85185  Biso   1.000  C
  H124     1.0000 0.42173  0.63708  0.76930  Biso   1.000  H
  H125     1.0000 0.34067  0.57738  0.77390  Biso   1.000  H
  C109     1.0000 0.33399  0.69004  0.79129  Biso   1.000  C
  C110     1.0000 0.57293  0.43833  0.85649  Biso   1.000  C
  H126     1.0000 0.60663  0.66830  0.85061  Biso   1.000  H
  H127     1.0000 0.62455  0.57820  0.86333  Biso   1.000  H
  C111     1.0000 0.69220  0.59671  0.83310  Biso   1.000  C
  H128     1.0000 0.38956  0.32280  0.81912  Biso   1.000  H
  H129     1.0000 0.46827  0.31263  0.83764  Biso   1.000  H
  C112     1.0000 0.36343  0.36750  0.85310  Biso   1.000  C
  C113     1.0000 0.88530  0.11642  0.81571  Biso   1.000  C
  C114     1.0000 0.71471  0.27028  0.85896  Biso   1.000  C
  C115     1.0000 0.60440  0.15418  0.85934  Biso   1.000  C
  C116     1.0000 0.81720  0.39458  0.85869  Biso   1.000  C
  H130     1.0000 0.30398  0.71827  0.77820  Biso   1.000  H
  H131     1.0000 0.29349  0.66976  0.80342  Biso   1.000  H
  H132     1.0000 0.37436  0.72934  0.79883  Biso   1.000  H
  N12      1.0000 0.59009  0.36578  0.85561  Biso   1.000  N
  H133     1.0000 0.59550  0.47082  0.86949  Biso   1.000  H
  H134     1.0000 0.74116  0.62125  0.84153  Biso   1.000  H
  H135     1.0000 0.70219  0.53605  0.83026  Biso   1.000  H
  H136     1.0000 0.68432  0.62570  0.81761  Biso   1.000  H
  H137     1.0000 0.33901  0.31422  0.85904  Biso   1.000  H
  H138     1.0000 0.39547  0.39522  0.86602  Biso   1.000  H
  H139     1.0000 0.31752  0.40526  0.84768  Biso   1.000  H
  H140     1.0000 0.85103  0.08100  0.80459  Biso   1.000  H
  H141     1.0000 0.92091  0.15482  0.80577  Biso   1.000  H
  C117     1.0000 0.94310  0.05881  0.83051  Biso   1.000  C
  C118     1.0000 0.65272  0.32789  0.87299  Biso   1.000  C
  H142     1.0000 0.58393  0.11413  0.84683  Biso   1.000  H
  H143     1.0000 0.56307  0.20149  0.86044  Biso   1.000  H
  C119     1.0000 0.60904  0.10783  0.88387  Biso   1.000  C
  H144     1.0000 0.85510  0.41874  0.84616  Biso   1.000  H
  H145     1.0000 0.76475  0.42943  0.85918  Biso   1.000  H
  C120     1.0000 0.86114  0.39910  0.88297  Biso   1.000  C
  H146     1.0000 0.97984  0.02613  0.81967  Biso   1.000  H
  H147     1.0000 0.97826  0.09353  0.84131  Biso   1.000  H
  H148     1.0000 0.90832  0.01965  0.84012  Biso   1.000  H
  H149     1.0000 0.62227  0.29425  0.88537  Biso   1.000  H
  H150     1.0000 0.68464  0.37373  0.88126  Biso   1.000  H
  H151     1.0000 0.55258  0.08615  0.88813  Biso   1.000  H
  H152     1.0000 0.64916  0.06034  0.88274  Biso   1.000  H
  H153     1.0000 0.62831  0.14763  0.89633  Biso   1.000  H
  H154     1.0000 0.87481  0.45842  0.88673  Biso   1.000  H
  H155     1.0000 0.82337  0.37621  0.89546  Biso   1.000  H
  H156     1.0000 0.91359  0.36553  0.88247  Biso   1.000  H
  C121     1.0000 0.55881  0.55690  0.58052  Biso   1.000  C
  C122     1.0000 0.61642  0.61470  0.56572  Biso   1.000  C
  H157     1.0000 0.52613  0.52016  0.56965  Biso   1.000  H
  H158     1.0000 0.59353  0.52181  0.59131  Biso   1.000  H
  H159     1.0000 0.51971  0.59168  0.59012  Biso   1.000  H
  C123     1.0000 0.66989  0.67440  0.58120  Biso   1.000  C
  H160     1.0000 0.58107  0.64903  0.55460  Biso   1.000  H
  H161     1.0000 0.65482  0.57916  0.55577  Biso   1.000  H
  C124     1.0000 0.63803  0.75451  0.58835  Biso   1.000  C
  C125     1.0000 0.75292  0.65094  0.58806  Biso   1.000  C
  C126     1.0000 0.55112  0.78001  0.57953  Biso   1.000  C
  C127     1.0000 0.68871  0.81021  0.60198  Biso   1.000  C
  C128     1.0000 0.78700  0.56504  0.58140  Biso   1.000  C
  C129     1.0000 0.80284  0.70594  0.60186  Biso   1.000  C
  N13      1.0000 0.54813  0.82763  0.55628  Biso   1.000  N
  H162     1.0000 0.51640  0.72787  0.57776  Biso   1.000  H
  H163     1.0000 0.52397  0.81542  0.59213  Biso   1.000  H
  C130     1.0000 0.77035  0.78535  0.60897  Biso   1.000  C
  C131     1.0000 0.65425  0.89560  0.60933  Biso   1.000  C
  N14      1.0000 0.83285  0.55729  0.55759  Biso   1.000  N
  H164     1.0000 0.73881  0.52448  0.58128  Biso   1.000  H
  H165     1.0000 0.82642  0.54667  0.59431  Biso   1.000  H
  C132     1.0000 0.89465  0.68280  0.60868  Biso   1.000  C
  C133     1.0000 0.61419  0.83939  0.54481  Biso   1.000  C
  C134     1.0000 0.82795  0.84734  0.62299  Biso   1.000  C
  H166     1.0000 0.61413  0.91614  0.59684  Biso   1.000  H
  H167     1.0000 0.70149  0.93693  0.61045  Biso   1.000  H
  C135     1.0000 0.60783  0.89102  0.63388  Biso   1.000  C
  C136     1.0000 0.84213  0.62214  0.54544  Biso   1.000  C
  H168     1.0000 0.91874  0.64496  0.59617  Biso   1.000  H
  H169     1.0000 0.92943  0.73525  0.60917  Biso   1.000  H
  C137     1.0000 0.89910  0.63892  0.63298  Biso   1.000  C
  C138     1.0000 0.62049  0.88664  0.52158  Biso   1.000  C
  H170     1.0000 0.66525  0.81651  0.55131  Biso   1.000  H
  N15      1.0000 0.86584  0.90991  0.60559  Biso   1.000  N
  H171     1.0000 0.79425  0.87773  0.63538  Biso   1.000  H
  H172     1.0000 0.87373  0.81536  0.63126  Biso   1.000  H
  H173     1.0000 0.58615  0.94748  0.63814  Biso   1.000  H
  H174     1.0000 0.56034  0.85090  0.63274  Biso   1.000  H
  H175     1.0000 0.64763  0.87169  0.64633  Biso   1.000  H
  C139     1.0000 0.88835  0.62411  0.52218  Biso   1.000  C
  H176     1.0000 0.81835  0.67364  0.55133  Biso   1.000  H
  H177     1.0000 0.95842  0.62519  0.63673  Biso   1.000  H
  H178     1.0000 0.87621  0.67669  0.64547  Biso   1.000  H
  H179     1.0000 0.86553  0.58641  0.63247  Biso   1.000  H
  C140     1.0000 0.61413  0.84385  0.49972  Biso   1.000  C
  C141     1.0000 0.63924  0.97444  0.52187  Biso   1.000  C
  C142     1.0000 0.93833  0.92714  0.60649  Biso   1.000  C
  C143     1.0000 0.84385  0.61413  0.50026  Biso   1.000  C
  C144     1.0000 0.97495  0.64280  0.52178  Biso   1.000  C
  C145     1.0000 0.62411  0.88835  0.47782  Biso   1.000  C
  C146     1.0000 0.59194  0.74930  0.49920  Biso   1.000  C
  C147     1.0000 0.65069  0.01723  0.50057  Biso   1.000  C
  C148     1.0000 0.65062  0.02130  0.54584  Biso   1.000  C
  C149     1.0000 0.98245  0.98213  0.58870  Biso   1.000  C
  H180     1.0000 0.97082  0.90457  0.61949  Biso   1.000  H
  C150     1.0000 0.88664  0.62049  0.47840  Biso   1.000  C
  C151     1.0000 0.74930  0.59194  0.50080  Biso   1.000  C
  C152     1.0000 0.01723  0.65069  0.49943  Biso   1.000  C
  C153     1.0000 0.02492  0.65781  0.54512  Biso   1.000  C
  C154     1.0000 0.62214  0.84213  0.45456  Biso   1.000  C
  C155     1.0000 0.64280  0.97495  0.47822  Biso   1.000  C
  H181     1.0000 0.61896  0.72279  0.48494  Biso   1.000  H
  H182     1.0000 0.61527  0.72164  0.51380  Biso   1.000  H
  C156     1.0000 0.49854  0.73423  0.49820  Biso   1.000  C
  C157     1.0000 0.66792  0.11012  0.50075  Biso   1.000  C
  H183     1.0000 0.67720  0.98290  0.55781  Biso   1.000  H
  H184     1.0000 0.68871  0.07070  0.54350  Biso   1.000  H
  C158     1.0000 0.56619  0.05118  0.55519  Biso   1.000  C
  C159     1.0000 0.94163  0.04883  0.57620  Biso   1.000  C
  C160     1.0000 0.06670  0.95893  0.58319  Biso   1.000  C
  C161     1.0000 0.83939  0.61419  0.45519  Biso   1.000  C
  C162     1.0000 0.97444  0.63924  0.47813  Biso   1.000  C
  H185     1.0000 0.72279  0.61896  0.51505  Biso   1.000  H
  H186     1.0000 0.72164  0.61527  0.48618  Biso   1.000  H
  C163     1.0000 0.73423  0.49854  0.50180  Biso   1.000  C
  C164     1.0000 0.11012  0.66792  0.49925  Biso   1.000  C
  H187     1.0000 0.98792  0.68744  0.55689  Biso   1.000  H
  H188     1.0000 0.07388  0.69538  0.54164  Biso   1.000  H
  C165     1.0000 0.05601  0.57903  0.55600  Biso   1.000  C
  N16      1.0000 0.55729  0.83285  0.44241  Biso   1.000  N
  H189     1.0000 0.67364  0.81835  0.44867  Biso   1.000  H
  C166     1.0000 0.65781  0.02492  0.45486  Biso   1.000  C
  H190     1.0000 0.48741  0.67294  0.49788  Biso   1.000  H
  H191     1.0000 0.47152  0.75935  0.51245  Biso   1.000  H
  H192     1.0000 0.47514  0.76049  0.48358  Biso   1.000  H
  H193     1.0000 0.72520  0.12837  0.49929  Biso   1.000  H
  N17      1.0000 0.61241  0.16480  0.50266  Biso   1.000  N
  H194     1.0000 0.57439  0.08113  0.57052  Biso   1.000  H
  H195     1.0000 0.54031  0.08990  0.54340  Biso   1.000  H
  H196     1.0000 0.52880  0.00216  0.55768  Biso   1.000  H
  C167     1.0000 0.98951  0.09550  0.55940  Biso   1.000  C
  C168     1.0000 0.84950  0.07973  0.58270  Biso   1.000  C
  C169     1.0000 0.10567  0.99873  0.56360  Biso   1.000  C
  C170     1.0000 0.10720  0.88263  0.59760  Biso   1.000  C
  N18      1.0000 0.82763  0.54813  0.44372  Biso   1.000  N
  H197     1.0000 0.81651  0.66525  0.44869  Biso   1.000  H
  C171     1.0000 0.02130  0.65062  0.45414  Biso   1.000  C
  H198     1.0000 0.67294  0.48741  0.50210  Biso   1.000  H
  H199     1.0000 0.75935  0.47152  0.48754  Biso   1.000  H
  H200     1.0000 0.76049  0.47514  0.51642  Biso   1.000  H
  H201     1.0000 0.12837  0.72520  0.50071  Biso   1.000  H
  N19      1.0000 0.16480  0.61241  0.49732  Biso   1.000  N
  H202     1.0000 0.08742  0.59219  0.57077  Biso   1.000  H
  H203     1.0000 0.00776  0.54203  0.55981  Biso   1.000  H
  H204     1.0000 0.09378  0.54997  0.54456  Biso   1.000  H
  C172     1.0000 0.56504  0.78700  0.41860  Biso   1.000  C
  H205     1.0000 0.68744  0.98792  0.44311  Biso   1.000  H
  H206     1.0000 0.69538  0.07388  0.45836  Biso   1.000  H
  C173     1.0000 0.57903  0.05601  0.44400  Biso   1.000  C
  C174     1.0000 0.63664  0.25629  0.50270  Biso   1.000  C
  C175     1.0000 0.94875  0.17218  0.54779  Biso   1.000  C
  C176     1.0000 0.07083  0.07038  0.55239  Biso   1.000  C
  H207     1.0000 0.82280  0.11044  0.56913  Biso   1.000  H
  H208     1.0000 0.81263  0.03173  0.58763  Biso   1.000  H
  C177     1.0000 0.86750  0.13657  0.60310  Biso   1.000  C
  C178     1.0000 0.17682  0.95441  0.55059  Biso   1.000  C
  H209     1.0000 0.16830  0.89344  0.60061  Biso   1.000  H
  H210     1.0000 0.07820  0.87551  0.61332  Biso   1.000  H
  C179     1.0000 0.09671  0.80780  0.58310  Biso   1.000  C
  C180     1.0000 0.78001  0.55112  0.42047  Biso   1.000  C
  H211     1.0000 0.98290  0.67720  0.44219  Biso   1.000  H
  H212     1.0000 0.07070  0.68871  0.45650  Biso   1.000  H
  C181     1.0000 0.05118  0.56619  0.44479  Biso   1.000  C
  C182     1.0000 0.25629  0.63664  0.49730  Biso   1.000  C
  C183     1.0000 0.65094  0.75292  0.41194  Biso   1.000  C
  H213     1.0000 0.52448  0.73881  0.41872  Biso   1.000  H
  H214     1.0000 0.54667  0.82642  0.40569  Biso   1.000  H
  H215     1.0000 0.59219  0.08742  0.42921  Biso   1.000  H
  H216     1.0000 0.54203  0.00776  0.44019  Biso   1.000  H
  H217     1.0000 0.54997  0.09378  0.45544  Biso   1.000  H
  C184     1.0000 0.73023  0.27658  0.50181  Biso   1.000  C
  H218     1.0000 0.61260  0.28281  0.51736  Biso   1.000  H
  H219     1.0000 0.60917  0.28363  0.48858  Biso   1.000  H
  N20      1.0000 0.95384  0.23970  0.55669  Biso   1.000  N
  H220     1.0000 0.91830  0.16569  0.53315  Biso   1.000  H
  C185     1.0000 0.11731  0.11921  0.53169  Biso   1.000  C
  H221     1.0000 0.81422  0.16099  0.60904  Biso   1.000  H
  H222     1.0000 0.89522  0.10453  0.61601  Biso   1.000  H
  H223     1.0000 0.90526  0.18248  0.59769  Biso   1.000  H
  N21      1.0000 0.23919  0.93884  0.55689  Biso   1.000  N
  H224     1.0000 0.16442  0.93782  0.53452  Biso   1.000  H
  H225     1.0000 0.12119  0.75884  0.59151  Biso   1.000  H
  H226     1.0000 0.03599  0.79788  0.58027  Biso   1.000  H
  H227     1.0000 0.12570  0.81574  0.56761  Biso   1.000  H
  C186     1.0000 0.75451  0.63803  0.41165  Biso   1.000  C
  H228     1.0000 0.72787  0.51640  0.42224  Biso   1.000  H
  H229     1.0000 0.81542  0.52397  0.40787  Biso   1.000  H
  H230     1.0000 0.08113  0.57439  0.42948  Biso   1.000  H
  H231     1.0000 0.08990  0.54031  0.45660  Biso   1.000  H
  H232     1.0000 0.00216  0.52880  0.44230  Biso   1.000  H
  C187     1.0000 0.27658  0.73023  0.49819  Biso   1.000  C
  H233     1.0000 0.28281  0.61260  0.48264  Biso   1.000  H
  H234     1.0000 0.28363  0.60917  0.51140  Biso   1.000  H
  C188     1.0000 0.67440  0.66989  0.41880  Biso   1.000  C
  C189     1.0000 0.70594  0.80284  0.39814  Biso   1.000  C
  C190     1.0000 0.77772  0.28611  0.52306  Biso   1.000  C
  C191     1.0000 0.77143  0.28370  0.47965  Biso   1.000  C
  C192     1.0000 0.91633  0.31733  0.54564  Biso   1.000  C
  H235     1.0000 0.13708  0.07827  0.51931  Biso   1.000  H
  H236     1.0000 0.07731  0.15933  0.52389  Biso   1.000  H
  C193     1.0000 0.18998  0.16601  0.54129  Biso   1.000  C
  C194     1.0000 0.31428  0.90259  0.54528  Biso   1.000  C
  C195     1.0000 0.81021  0.68871  0.39802  Biso   1.000  C
  C196     1.0000 0.28611  0.77772  0.47694  Biso   1.000  C
  C197     1.0000 0.28370  0.77143  0.52035  Biso   1.000  C
  C198     1.0000 0.61470  0.61642  0.43428  Biso   1.000  C
  C199     1.0000 0.78535  0.77035  0.39103  Biso   1.000  C
  C200     1.0000 0.68280  0.89465  0.39130  Biso   1.000  C
  C201     1.0000 0.86514  0.30290  0.52228  Biso   1.000  C
  C202     1.0000 0.73213  0.27352  0.54723  Biso   1.000  C
  C203     1.0000 0.85802  0.30462  0.47865  Biso   1.000  C
  C204     1.0000 0.72050  0.27378  0.45591  Biso   1.000  C
  H237     1.0000 0.96287  0.35777  0.54211  Biso   1.000  H
  H238     1.0000 0.87856  0.34442  0.55768  Biso   1.000  H
  H239     1.0000 0.21827  0.19602  0.52821  Biso   1.000  H
  H240     1.0000 0.16976  0.20657  0.55342  Biso   1.000  H
  H241     1.0000 0.22934  0.12570  0.54884  Biso   1.000  H
  C205     1.0000 0.30462  0.85802  0.52135  Biso   1.000  C
  H242     1.0000 0.33997  0.86165  0.55674  Biso   1.000  H
  H243     1.0000 0.35593  0.94920  0.54306  Biso   1.000  H
  C206     1.0000 0.89560  0.65425  0.39065  Biso   1.000  C
  C207     1.0000 0.30290  0.86514  0.47772  Biso   1.000  C
  C208     1.0000 0.27352  0.73213  0.45277  Biso   1.000  C
  C209     1.0000 0.27378  0.72050  0.54409  Biso   1.000  C
  C210     1.0000 0.55690  0.55881  0.41948  Biso   1.000  C
  H244     1.0000 0.64903  0.58107  0.44540  Biso   1.000  H
  H245     1.0000 0.57916  0.65482  0.44423  Biso   1.000  H
  C211     1.0000 0.84734  0.82795  0.37701  Biso   1.000  C
  H246     1.0000 0.64496  0.91874  0.40383  Biso   1.000  H
  H247     1.0000 0.73525  0.92943  0.39082  Biso   1.000  H
  C212     1.0000 0.63892  0.89910  0.36702  Biso   1.000  C
  C213     1.0000 0.90552  0.31148  0.50005  Biso   1.000  C
  H248     1.0000 0.77308  0.25203  0.55938  Biso   1.000  H
  H249     1.0000 0.68655  0.23067  0.54534  Biso   1.000  H
  C214     1.0000 0.69341  0.35821  0.55610  Biso   1.000  C
  C215     1.0000 0.90259  0.31428  0.45470  Biso   1.000  C
  H250     1.0000 0.75858  0.25134  0.44318  Biso   1.000  H
  H251     1.0000 0.67428  0.23201  0.45842  Biso   1.000  H
  C216     1.0000 0.68260  0.35688  0.44750  Biso   1.000  C
  C217     1.0000 0.31148  0.90552  0.49995  Biso   1.000  C
  H252     1.0000 0.91614  0.61413  0.40316  Biso   1.000  H
  H253     1.0000 0.93693  0.70149  0.38955  Biso   1.000  H
  C218     1.0000 0.89102  0.60783  0.36612  Biso   1.000  C
  C219     1.0000 0.31733  0.91633  0.45436  Biso   1.000  C
  H254     1.0000 0.25203  0.77308  0.44062  Biso   1.000  H
  H255     1.0000 0.23067  0.68655  0.45466  Biso   1.000  H
  C220     1.0000 0.35821  0.69341  0.44390  Biso   1.000  C
  H256     1.0000 0.25134  0.75858  0.55682  Biso   1.000  H
  H257     1.0000 0.23201  0.67428  0.54158  Biso   1.000  H
  C221     1.0000 0.35688  0.68260  0.55250  Biso   1.000  C
  H258     1.0000 0.52016  0.52613  0.43033  Biso   1.000  H
  H259     1.0000 0.52181  0.59353  0.40869  Biso   1.000  H
  H260     1.0000 0.59168  0.51971  0.40988  Biso   1.000  H
  N22      1.0000 0.90991  0.86584  0.39439  Biso   1.000  N
  H261     1.0000 0.87773  0.79425  0.36462  Biso   1.000  H
  H262     1.0000 0.81536  0.87373  0.36874  Biso   1.000  H
  H263     1.0000 0.62519  0.95842  0.36327  Biso   1.000  H
  H264     1.0000 0.67669  0.87621  0.35453  Biso   1.000  H
  H265     1.0000 0.58641  0.86553  0.36753  Biso   1.000  H
  C222     1.0000 0.99981  0.33062  0.49869  Biso   1.000  C
  H266     1.0000 0.66461  0.34906  0.57155  Biso   1.000  H
  H267     1.0000 0.73881  0.40031  0.55817  Biso   1.000  H
  H268     1.0000 0.65240  0.37901  0.54416  Biso   1.000  H
  N23      1.0000 0.93884  0.23919  0.44309  Biso   1.000  N
  H269     1.0000 0.86165  0.33997  0.44326  Biso   1.000  H
  H270     1.0000 0.94920  0.35593  0.45694  Biso   1.000  H
  H271     1.0000 0.65100  0.34766  0.43251  Biso   1.000  H
  H272     1.0000 0.64395  0.37875  0.45993  Biso   1.000  H
  H273     1.0000 0.72826  0.39814  0.44472  Biso   1.000  H
  C223     1.0000 0.33062  0.99981  0.50129  Biso   1.000  C
  H274     1.0000 0.94748  0.58615  0.36186  Biso   1.000  H
  H275     1.0000 0.85090  0.56034  0.36726  Biso   1.000  H
  H276     1.0000 0.87169  0.64763  0.35367  Biso   1.000  H
  N24      1.0000 0.23970  0.95384  0.44329  Biso   1.000  N
  H277     1.0000 0.35777  0.96287  0.45788  Biso   1.000  H
  H278     1.0000 0.34442  0.87856  0.44232  Biso   1.000  H
  H279     1.0000 0.34906  0.66461  0.42845  Biso   1.000  H
  H280     1.0000 0.40031  0.73881  0.44183  Biso   1.000  H
  H281     1.0000 0.37901  0.65240  0.45584  Biso   1.000  H
  H282     1.0000 0.34766  0.65100  0.56749  Biso   1.000  H
  H283     1.0000 0.37875  0.64395  0.54005  Biso   1.000  H
  H284     1.0000 0.39814  0.72826  0.55528  Biso   1.000  H
  C224     1.0000 0.92714  0.93833  0.39351  Biso   1.000  C
  H285     1.0000 0.02340  0.30512  0.48376  Biso   1.000  H
  H286     1.0000 0.02880  0.30385  0.51261  Biso   1.000  H
  C225     1.0000 0.01799  0.42561  0.49869  Biso   1.000  C
  C226     1.0000 0.95441  0.17682  0.44939  Biso   1.000  C
  H287     1.0000 0.30512  0.02340  0.51624  Biso   1.000  H
  H288     1.0000 0.30385  0.02880  0.48739  Biso   1.000  H
  C227     1.0000 0.42561  0.01799  0.50129  Biso   1.000  C
  C228     1.0000 0.17218  0.94875  0.45219  Biso   1.000  C
  C229     1.0000 0.98213  0.98245  0.41130  Biso   1.000  C
  H289     1.0000 0.90457  0.97082  0.38051  Biso   1.000  H
  H290     1.0000 0.99040  0.45212  0.48479  Biso   1.000  H
  H291     1.0000 0.99580  0.45085  0.51364  Biso   1.000  H
  H292     1.0000 0.07948  0.43496  0.49784  Biso   1.000  H
  C230     1.0000 0.99873  0.10567  0.43640  Biso   1.000  C
  H293     1.0000 0.93782  0.16442  0.46548  Biso   1.000  H
  H294     1.0000 0.45212  0.99040  0.51521  Biso   1.000  H
  H295     1.0000 0.45085  0.99580  0.48636  Biso   1.000  H
  H296     1.0000 0.43496  0.07948  0.50216  Biso   1.000  H
  C231     1.0000 0.09550  0.98951  0.44060  Biso   1.000  C
  H297     1.0000 0.16569  0.91830  0.46685  Biso   1.000  H
  C232     1.0000 0.95893  0.06670  0.41679  Biso   1.000  C
  C233     1.0000 0.04883  0.94163  0.42380  Biso   1.000  C
  C234     1.0000 0.07038  0.07083  0.44761  Biso   1.000  C
  C235     1.0000 0.88263  0.10720  0.40240  Biso   1.000  C
  C236     1.0000 0.07973  0.84950  0.41730  Biso   1.000  C
  C237     1.0000 0.11921  0.11731  0.46829  Biso   1.000  C
  H298     1.0000 0.89344  0.16830  0.39939  Biso   1.000  H
  H299     1.0000 0.87551  0.07820  0.38666  Biso   1.000  H
  C238     1.0000 0.80780  0.09671  0.41690  Biso   1.000  C
  H300     1.0000 0.11044  0.82280  0.43087  Biso   1.000  H
  H301     1.0000 0.03173  0.81263  0.41235  Biso   1.000  H
  C239     1.0000 0.13657  0.86750  0.39690  Biso   1.000  C
  H302     1.0000 0.07827  0.13708  0.48069  Biso   1.000  H
  H303     1.0000 0.15933  0.07731  0.47609  Biso   1.000  H
  C240     1.0000 0.16601  0.18998  0.45871  Biso   1.000  C
  H304     1.0000 0.75884  0.12119  0.40847  Biso   1.000  H
  H305     1.0000 0.79788  0.03599  0.41973  Biso   1.000  H
  H306     1.0000 0.81574  0.12570  0.43239  Biso   1.000  H
  H307     1.0000 0.16099  0.81422  0.39096  Biso   1.000  H
  H308     1.0000 0.10453  0.89522  0.38397  Biso   1.000  H
  H309     1.0000 0.18248  0.90526  0.40231  Biso   1.000  H
  H310     1.0000 0.19602  0.21827  0.47179  Biso   1.000  H
  H311     1.0000 0.20657  0.16976  0.44658  Biso   1.000  H
  H312     1.0000 0.12570  0.22934  0.45116  Biso   1.000  H
  C241     1.0000 0.34728  0.67211  0.37300  Biso   1.000  C
  N25      1.0000 0.40991  0.63422  0.35560  Biso   1.000  N
  C242     1.0000 0.28529  0.72972  0.35897  Biso   1.000  C
  H313     1.0000 0.37773  0.70581  0.38538  Biso   1.000  H
  H314     1.0000 0.31536  0.62634  0.38127  Biso   1.000  H
  C243     1.0000 0.42714  0.56174  0.35650  Biso   1.000  C
  C244     1.0000 0.20587  0.69723  0.35186  Biso   1.000  C
  C245     1.0000 0.31021  0.81129  0.35199  Biso   1.000  C
  C246     1.0000 0.48213  0.51761  0.33870  Biso   1.000  C
  H315     1.0000 0.40457  0.52925  0.36950  Biso   1.000  H
  C247     1.0000 0.15088  0.74714  0.33807  Biso   1.000  C
  C248     1.0000 0.18280  0.60542  0.35868  Biso   1.000  C
  C249     1.0000 0.25451  0.86203  0.33836  Biso   1.000  C
  C250     1.0000 0.39560  0.84582  0.35933  Biso   1.000  C
  C251     1.0000 0.45893  0.43330  0.33319  Biso   1.000  C
  C252     1.0000 0.54883  0.55843  0.32619  Biso   1.000  C
  C253     1.0000 0.06498  0.71300  0.33139  Biso   1.000  C
  C254     1.0000 0.17440  0.83011  0.33119  Biso   1.000  C
  H316     1.0000 0.14496  0.58126  0.34617  Biso   1.000  H
  H317     1.0000 0.23525  0.57064  0.35917  Biso   1.000  H
  C255     1.0000 0.13892  0.60090  0.38298  Biso   1.000  C
  C256     1.0000 0.28001  0.94894  0.32953  Biso   1.000  C
  H318     1.0000 0.41607  0.88594  0.34684  Biso   1.000  H
  H319     1.0000 0.43693  0.79851  0.36045  Biso   1.000  H
  C257     1.0000 0.39102  0.89223  0.38388  Biso   1.000  C
  C258     1.0000 0.49873  0.39433  0.31359  Biso   1.000  C
  C259     1.0000 0.38263  0.39280  0.34760  Biso   1.000  C
  C260     1.0000 0.59550  0.51049  0.30940  Biso   1.000  C
  C261     1.0000 0.57973  0.65050  0.33271  Biso   1.000  C
  N26      1.0000 0.05729  0.66722  0.30760  Biso   1.000  N
  H320     1.0000 0.02448  0.76119  0.33128  Biso   1.000  H
  H321     1.0000 0.04667  0.67364  0.34431  Biso   1.000  H
  C262     1.0000 0.11470  0.88365  0.31570  Biso   1.000  C
  H322     1.0000 0.12519  0.54165  0.38674  Biso   1.000  H
  H323     1.0000 0.17669  0.62386  0.39545  Biso   1.000  H
  H324     1.0000 0.08641  0.63447  0.38246  Biso   1.000  H
  N27      1.0000 0.32763  0.95193  0.30628  Biso   1.000  N
  H325     1.0000 0.22787  0.98360  0.32774  Biso   1.000  H
  H326     1.0000 0.31542  0.97609  0.34211  Biso   1.000  H
  H327     1.0000 0.44742  0.91385  0.38814  Biso   1.000  H
  H328     1.0000 0.35090  0.93973  0.38275  Biso   1.000  H
  H329     1.0000 0.37169  0.85237  0.39634  Biso   1.000  H
  C263     1.0000 0.45441  0.32318  0.30059  Biso   1.000  C
  C264     1.0000 0.57038  0.42923  0.30240  Biso   1.000  C
  H330     1.0000 0.39344  0.33177  0.35061  Biso   1.000  H
  H331     1.0000 0.37545  0.42186  0.36332  Biso   1.000  H
  C265     1.0000 0.30780  0.40329  0.33310  Biso   1.000  C
  C266     1.0000 0.67224  0.55131  0.29780  Biso   1.000  C
  H332     1.0000 0.61050  0.67726  0.31911  Biso   1.000  H
  H333     1.0000 0.53173  0.68737  0.33764  Biso   1.000  H
  C267     1.0000 0.63664  0.63250  0.35311  Biso   1.000  C
  C268     1.0000 0.12208  0.65793  0.29545  Biso   1.000  C
  H334     1.0000 0.14903  0.91900  0.30460  Biso   1.000  H
  H335     1.0000 0.07916  0.84524  0.30577  Biso   1.000  H
  C269     1.0000 0.05690  0.94125  0.33052  Biso   1.000  C
  C270     1.0000 0.33939  0.88581  0.29482  Biso   1.000  C
  N28      1.0000 0.43884  0.26081  0.30689  Biso   1.000  N
  H336     1.0000 0.43775  0.33558  0.28453  Biso   1.000  H
  C271     1.0000 0.61921  0.38269  0.28169  Biso   1.000  C
  H337     1.0000 0.25884  0.37881  0.34152  Biso   1.000  H
  H338     1.0000 0.29788  0.46401  0.33027  Biso   1.000  H
  H339     1.0000 0.31574  0.37430  0.31760  Biso   1.000  H
  H340     1.0000 0.66569  0.58170  0.28314  Biso   1.000  H
  N29      1.0000 0.73970  0.54622  0.30670  Biso   1.000  N
  H341     1.0000 0.66099  0.68585  0.35904  Biso   1.000  H
  H342     1.0000 0.60453  0.60484  0.36601  Biso   1.000  H
  H343     1.0000 0.68254  0.59480  0.34767  Biso   1.000  H
  C272     1.0000 0.12411  0.61171  0.27216  Biso   1.000  C
  H344     1.0000 0.17364  0.68171  0.30133  Biso   1.000  H
  H345     1.0000 0.02016  0.97387  0.31966  Biso   1.000  H
  H346     1.0000 0.02181  0.90654  0.34130  Biso   1.000  H
  H347     1.0000 0.09168  0.98035  0.34013  Biso   1.000  H
  C273     1.0000 0.38664  0.87951  0.27159  Biso   1.000  C
  H348     1.0000 0.31651  0.83475  0.30132  Biso   1.000  H
  C274     1.0000 0.40259  0.18572  0.29529  Biso   1.000  C
  H349     1.0000 0.57833  0.36298  0.26931  Biso   1.000  H
  H350     1.0000 0.65933  0.42269  0.27390  Biso   1.000  H
  C275     1.0000 0.66601  0.31002  0.29130  Biso   1.000  C
  C276     1.0000 0.81733  0.58374  0.29565  Biso   1.000  C
  C277     1.0000 0.14280  0.52511  0.27178  Biso   1.000  C
  C278     1.0000 0.11413  0.65622  0.25027  Biso   1.000  C
  C279     1.0000 0.34378  0.88594  0.24972  Biso   1.000  C
  C280     1.0000 0.47444  0.86082  0.27187  Biso   1.000  C
  C281     1.0000 0.35802  0.19538  0.27133  Biso   1.000  C
  H351     1.0000 0.36165  0.16003  0.30675  Biso   1.000  H
  H352     1.0000 0.44920  0.14407  0.29307  Biso   1.000  H
  H353     1.0000 0.69602  0.28173  0.27821  Biso   1.000  H
  H354     1.0000 0.70657  0.33030  0.30343  Biso   1.000  H
  H355     1.0000 0.62570  0.27066  0.29884  Biso   1.000  H
  C282     1.0000 0.80290  0.63492  0.27229  Biso   1.000  C
  H356     1.0000 0.85777  0.53713  0.29211  Biso   1.000  H
  H357     1.0000 0.84448  0.62150  0.30767  Biso   1.000  H
  C283     1.0000 0.15069  0.48283  0.24944  Biso   1.000  C
  C284     1.0000 0.15781  0.47514  0.29512  Biso   1.000  C
  C285     1.0000 0.12049  0.61343  0.22841  Biso   1.000  C
  C286     1.0000 0.09187  0.75070  0.25081  Biso   1.000  C
  C287     1.0000 0.38829  0.87595  0.22783  Biso   1.000  C
  C288     1.0000 0.24930  0.90813  0.24920  Biso   1.000  C
  C289     1.0000 0.51723  0.84931  0.25057  Biso   1.000  C
  C290     1.0000 0.52130  0.84944  0.29585  Biso   1.000  C
  C291     1.0000 0.27143  0.21630  0.27036  Biso   1.000  C
  C292     1.0000 0.40552  0.18852  0.24996  Biso   1.000  C
  C293     1.0000 0.81155  0.59454  0.25003  Biso   1.000  C
  C294     1.0000 0.78611  0.72234  0.27307  Biso   1.000  C
  C295     1.0000 0.16792  0.38994  0.24926  Biso   1.000  C
  C296     1.0000 0.13918  0.52562  0.22814  Biso   1.000  C
  H358     1.0000 0.19538  0.42612  0.29162  Biso   1.000  H
  H359     1.0000 0.18744  0.51214  0.30688  Biso   1.000  H
  C297     1.0000 0.07903  0.44399  0.30599  Biso   1.000  C
  C298     1.0000 0.11419  0.66061  0.20519  Biso   1.000  C
  H360     1.0000 0.11896  0.77728  0.26505  Biso   1.000  H
  H361     1.0000 0.11527  0.77842  0.23619  Biso   1.000  H
  C299     1.0000 0.99854  0.76583  0.25180  Biso   1.000  C
  C300     1.0000 0.34213  0.87792  0.20454  Biso   1.000  C
  C301     1.0000 0.47489  0.85720  0.22823  Biso   1.000  C
  H362     1.0000 0.22279  0.88110  0.23494  Biso   1.000  H
  H363     1.0000 0.22164  0.88473  0.26380  Biso   1.000  H
  C302     1.0000 0.23423  0.00153  0.24819  Biso   1.000  C
  C303     1.0000 0.61012  0.83215  0.25075  Biso   1.000  C
  H364     1.0000 0.48290  0.82286  0.30780  Biso   1.000  H
  H365     1.0000 0.57070  0.81129  0.29350  Biso   1.000  H
  C304     1.0000 0.55118  0.93381  0.30520  Biso   1.000  C
  C305     1.0000 0.23023  0.22342  0.24817  Biso   1.000  C
  C306     1.0000 0.22050  0.22622  0.29410  Biso   1.000  C
  C307     1.0000 0.36508  0.19710  0.22770  Biso   1.000  C
  C308     1.0000 0.49981  0.16938  0.25130  Biso   1.000  C
  C309     1.0000 0.80462  0.64204  0.22866  Biso   1.000  C
  C310     1.0000 0.83062  0.50019  0.24870  Biso   1.000  C
  C311     1.0000 0.77664  0.76984  0.25182  Biso   1.000  C
  C312     1.0000 0.77352  0.76793  0.29724  Biso   1.000  C
  N30      1.0000 0.11241  0.33520  0.24732  Biso   1.000  N
  H366     1.0000 0.22520  0.37163  0.25072  Biso   1.000  H
  C313     1.0000 0.15062  0.47870  0.20414  Biso   1.000  C
  H367     1.0000 0.09213  0.41258  0.32078  Biso   1.000  H
  H368     1.0000 0.04203  0.49224  0.30982  Biso   1.000  H
  H369     1.0000 0.04997  0.40622  0.29455  Biso   1.000  H
  H370     1.0000 0.16525  0.68349  0.19869  Biso   1.000  H
  N31      1.0000 0.04813  0.67243  0.19371  Biso   1.000  N
  H371     1.0000 0.98741  0.82712  0.25211  Biso   1.000  H
  H372     1.0000 0.97152  0.74072  0.23754  Biso   1.000  H
  H373     1.0000 0.97520  0.73957  0.26640  Biso   1.000  H
  N32      1.0000 0.33278  0.94271  0.19241  Biso   1.000  N
  H374     1.0000 0.31829  0.82642  0.19868  Biso   1.000  H
  C314     1.0000 0.52492  0.84219  0.20487  Biso   1.000  C
  H375     1.0000 0.17294  0.01259  0.24788  Biso   1.000  H
  H376     1.0000 0.25935  0.02855  0.26245  Biso   1.000  H
  H377     1.0000 0.26049  0.02486  0.23359  Biso   1.000  H
  N33      1.0000 0.66480  0.88765  0.25267  Biso   1.000  N
  H378     1.0000 0.62837  0.77480  0.24929  Biso   1.000  H
  H379     1.0000 0.58119  0.92561  0.32052  Biso   1.000  H
  H380     1.0000 0.58990  0.95969  0.29341  Biso   1.000  H
  H381     1.0000 0.50223  0.97120  0.30769  Biso   1.000  H
  C315     1.0000 0.27772  0.21389  0.22694  Biso   1.000  C
  C316     1.0000 0.13657  0.24371  0.24731  Biso   1.000  C
  H382     1.0000 0.25852  0.24866  0.30682  Biso   1.000  H
  H383     1.0000 0.17428  0.26806  0.29159  Biso   1.000  H
  C317     1.0000 0.18260  0.14312  0.30251  Biso   1.000  C
  C318     1.0000 0.41633  0.18273  0.20434  Biso   1.000  C
  H384     1.0000 0.52340  0.19488  0.26624  Biso   1.000  H
  H385     1.0000 0.52880  0.19615  0.23738  Biso   1.000  H
  C319     1.0000 0.51799  0.07439  0.25130  Biso   1.000  C
  C320     1.0000 0.81434  0.59741  0.20470  Biso   1.000  C
  C321     1.0000 0.78370  0.72864  0.22965  Biso   1.000  C
  H386     1.0000 0.80519  0.47660  0.23377  Biso   1.000  H
  H387     1.0000 0.80385  0.47120  0.26261  Biso   1.000  H
  C322     1.0000 0.92561  0.48201  0.24870  Biso   1.000  C
  C323     1.0000 0.75629  0.86343  0.25270  Biso   1.000  C
  H388     1.0000 0.75203  0.72698  0.30937  Biso   1.000  H
  H389     1.0000 0.73067  0.81352  0.29534  Biso   1.000  H
  C324     1.0000 0.85821  0.80665  0.30610  Biso   1.000  C
  H390     1.0000 0.17720  0.51717  0.19219  Biso   1.000  H
  H391     1.0000 0.18871  0.42930  0.20649  Biso   1.000  H
  C325     1.0000 0.06619  0.44882  0.19479  Biso   1.000  C
  C326     1.0000 0.05112  0.71999  0.17046  Biso   1.000  C
  C327     1.0000 0.28700  0.93502  0.16860  Biso   1.000  C
  H392     1.0000 0.57388  0.80468  0.20837  Biso   1.000  H
  H393     1.0000 0.48792  0.81263  0.19312  Biso   1.000  H
  C328     1.0000 0.55601  0.92103  0.19400  Biso   1.000  C
  C329     1.0000 0.23213  0.22648  0.20277  Biso   1.000  C
  H394     1.0000 0.11260  0.21719  0.23265  Biso   1.000  H
  H395     1.0000 0.10917  0.21637  0.26140  Biso   1.000  H
  H396     1.0000 0.15100  0.15234  0.31749  Biso   1.000  H
  H397     1.0000 0.14395  0.12125  0.29005  Biso   1.000  H
  H398     1.0000 0.22819  0.10192  0.30529  Biso   1.000  H
  N34      1.0000 0.45384  0.26030  0.19330  Biso   1.000  N
  H399     1.0000 0.46287  0.14229  0.20788  Biso   1.000  H
  H400     1.0000 0.37850  0.15558  0.19232  Biso   1.000  H
  H401     1.0000 0.57948  0.06504  0.25216  Biso   1.000  H
  H402     1.0000 0.49034  0.04788  0.26521  Biso   1.000  H
  H403     1.0000 0.49580  0.04921  0.23637  Biso   1.000  H
  N35      1.0000 0.73919  0.56123  0.19310  Biso   1.000  N
  H404     1.0000 0.83997  0.63835  0.19326  Biso   1.000  H
  H405     1.0000 0.85599  0.55080  0.20694  Biso   1.000  H
  C330     1.0000 0.77384  0.77950  0.20591  Biso   1.000  C
  H406     1.0000 0.93496  0.42052  0.24785  Biso   1.000  H
  H407     1.0000 0.95212  0.50966  0.23480  Biso   1.000  H
  H408     1.0000 0.95085  0.50426  0.26364  Biso   1.000  H
  H409     1.0000 0.78281  0.88746  0.26736  Biso   1.000  H
  H410     1.0000 0.78370  0.89083  0.23859  Biso   1.000  H
  H411     1.0000 0.84906  0.83545  0.32155  Biso   1.000  H
  H412     1.0000 0.90031  0.76125  0.30816  Biso   1.000  H
  H413     1.0000 0.87901  0.84766  0.29415  Biso   1.000  H
  H414     1.0000 0.07439  0.41887  0.17949  Biso   1.000  H
  H415     1.0000 0.04031  0.41010  0.20658  Biso   1.000  H
  H416     1.0000 0.02880  0.49784  0.19230  Biso   1.000  H
  C331     1.0000 0.13803  0.74555  0.16165  Biso   1.000  C
  H417     1.0000 0.01640  0.77219  0.17225  Biso   1.000  H
  H418     1.0000 0.02397  0.68458  0.15788  Biso   1.000  H
  C332     1.0000 0.25292  0.84912  0.16192  Biso   1.000  C
  H419     1.0000 0.23881  0.97558  0.16871  Biso   1.000  H
  H420     1.0000 0.32642  0.95340  0.15568  Biso   1.000  H
  H421     1.0000 0.58742  0.90787  0.17922  Biso   1.000  H
  H422     1.0000 0.50776  0.95804  0.19019  Biso   1.000  H
  H423     1.0000 0.59378  0.95009  0.20544  Biso   1.000  H
  H424     1.0000 0.27302  0.24797  0.19062  Biso   1.000  H
  H425     1.0000 0.18648  0.26933  0.20465  Biso   1.000  H
  C333     1.0000 0.19341  0.14179  0.19389  Biso   1.000  C
  C334     1.0000 0.44869  0.32782  0.20220  Biso   1.000  C
  C335     1.0000 0.67682  0.54559  0.19940  Biso   1.000  C
  H426     1.0000 0.75140  0.74148  0.19317  Biso   1.000  H
  H427     1.0000 0.73201  0.82572  0.20840  Biso   1.000  H
  C336     1.0000 0.85694  0.81740  0.19750  Biso   1.000  C
  C337     1.0000 0.16989  0.82560  0.16880  Biso   1.000  C
  C338     1.0000 0.18871  0.68979  0.14802  Biso   1.000  C
  C339     1.0000 0.30284  0.79413  0.14813  Biso   1.000  C
  H428     1.0000 0.16461  0.15094  0.17846  Biso   1.000  H
  H429     1.0000 0.23881  0.09969  0.19183  Biso   1.000  H
  H430     1.0000 0.15240  0.12106  0.20584  Biso   1.000  H
  C340     1.0000 0.48951  0.40450  0.19061  Biso   1.000  C
  H431     1.0000 0.41830  0.33437  0.21685  Biso   1.000  H
  C341     1.0000 0.60573  0.50134  0.18640  Biso   1.000  C
  H432     1.0000 0.66448  0.56225  0.21548  Biso   1.000  H
  H433     1.0000 0.84766  0.84900  0.18250  Biso   1.000  H
  H434     1.0000 0.87875  0.85605  0.20994  Biso   1.000  H
  H435     1.0000 0.89814  0.77181  0.19470  Biso   1.000  H
  C342     1.0000 0.11642  0.88530  0.18429  Biso   1.000  C
  C343     1.0000 0.27028  0.71471  0.14104  Biso   1.000  C
  C344     1.0000 0.15418  0.60440  0.14066  Biso   1.000  C
  C345     1.0000 0.39458  0.81720  0.14131  Biso   1.000  C
  C346     1.0000 0.44163  0.45123  0.17380  Biso   1.000  C
  C347     1.0000 0.57083  0.42962  0.19759  Biso   1.000  C
  C348     1.0000 0.56670  0.54114  0.16680  Biso   1.000  C
  H436     1.0000 0.08100  0.85103  0.19541  Biso   1.000  H
  H437     1.0000 0.15482  0.92091  0.19422  Biso   1.000  H
  C349     1.0000 0.05881  0.94310  0.16949  Biso   1.000  C
  C350     1.0000 0.32789  0.65272  0.12699  Biso   1.000  C
  H438     1.0000 0.11413  0.58393  0.15317  Biso   1.000  H
  H439     1.0000 0.20149  0.56307  0.13956  Biso   1.000  H
  C351     1.0000 0.10783  0.60904  0.11613  Biso   1.000  C
  H440     1.0000 0.41874  0.85510  0.15384  Biso   1.000  H
  H441     1.0000 0.42943  0.76475  0.14082  Biso   1.000  H
  C352     1.0000 0.39910  0.86114  0.11703  Biso   1.000  C
  C353     1.0000 0.48239  0.51793  0.16131  Biso   1.000  C
  C354     1.0000 0.34950  0.42033  0.16730  Biso   1.000  C
  C355     1.0000 0.61731  0.38079  0.21830  Biso   1.000  C
  C356     1.0000 0.60720  0.61743  0.15239  Biso   1.000  C
  H442     1.0000 0.02613  0.97984  0.18033  Biso   1.000  H
  H443     1.0000 0.09353  0.97826  0.15869  Biso   1.000  H
  H444     1.0000 0.01965  0.90832  0.15988  Biso   1.000  H
  N36      1.0000 0.36578  0.59009  0.14439  Biso   1.000  N
  H445     1.0000 0.29425  0.62227  0.11461  Biso   1.000  H
  H446     1.0000 0.37373  0.68464  0.11872  Biso   1.000  H
  H447     1.0000 0.08615  0.55258  0.11187  Biso   1.000  H
  H448     1.0000 0.06034  0.64916  0.11726  Biso   1.000  H
  H449     1.0000 0.14763  0.62831  0.10365  Biso   1.000  H
  H450     1.0000 0.45842  0.87481  0.11326  Biso   1.000  H
  H451     1.0000 0.37621  0.82337  0.10454  Biso   1.000  H
  H452     1.0000 0.36553  0.91359  0.11753  Biso   1.000  H
  C357     1.0000 0.43833  0.57293  0.14349  Biso   1.000  C
  H453     1.0000 0.32280  0.38956  0.18088  Biso   1.000  H
  H454     1.0000 0.31263  0.46827  0.16236  Biso   1.000  H
  C358     1.0000 0.36750  0.36343  0.14690  Biso   1.000  C
  H455     1.0000 0.63708  0.42173  0.23068  Biso   1.000  H
  H456     1.0000 0.57738  0.34067  0.22610  Biso   1.000  H
  C359     1.0000 0.69004  0.33399  0.20869  Biso   1.000  C
  H457     1.0000 0.66830  0.60663  0.14939  Biso   1.000  H
  H458     1.0000 0.57820  0.62455  0.13667  Biso   1.000  H
  C360     1.0000 0.59671  0.69220  0.16690  Biso   1.000  C
  H459     1.0000 0.47082  0.59550  0.13051  Biso   1.000  H
  H460     1.0000 0.31422  0.33901  0.14096  Biso   1.000  H
  H461     1.0000 0.39522  0.39547  0.13398  Biso   1.000  H
  H462     1.0000 0.40526  0.31752  0.15232  Biso   1.000  H
  H463     1.0000 0.71827  0.30398  0.22180  Biso   1.000  H
  H464     1.0000 0.66976  0.29349  0.19658  Biso   1.000  H
  H465     1.0000 0.72934  0.37436  0.20117  Biso   1.000  H
  H466     1.0000 0.62125  0.74116  0.15847  Biso   1.000  H
  H467     1.0000 0.53605  0.70219  0.16974  Biso   1.000  H
  H468     1.0000 0.62570  0.68432  0.18239  Biso   1.000  H
  C361     1.0000 0.10898  0.39223  0.86611  Biso   1.000  C
  C362     1.0000 0.10440  0.34582  0.89066  Biso   1.000  C
  H469     1.0000 0.05258  0.41385  0.86185  Biso   1.000  H
  H470     1.0000 0.14916  0.43966  0.86725  Biso   1.000  H
  H471     1.0000 0.12831  0.35237  0.85366  Biso   1.000  H
  C363     1.0000 0.18979  0.31129  0.89801  Biso   1.000  C
  H472     1.0000 0.08393  0.38587  0.90315  Biso   1.000  H
  H473     1.0000 0.06307  0.29851  0.88954  Biso   1.000  H
  C364     1.0000 0.24549  0.36203  0.91164  Biso   1.000  C
  C365     1.0000 0.21471  0.22972  0.89102  Biso   1.000  C
  C366     1.0000 0.32560  0.33011  0.91880  Biso   1.000  C
  C367     1.0000 0.21999  0.44888  0.92047  Biso   1.000  C
  C368     1.0000 0.29413  0.19723  0.89814  Biso   1.000  C
  C369     1.0000 0.15272  0.17211  0.87700  Biso   1.000  C
  C370     1.0000 0.34912  0.24708  0.91193  Biso   1.000  C
  C371     1.0000 0.38530  0.38358  0.93429  Biso   1.000  C
  N37      1.0000 0.17243  0.45193  0.94372  Biso   1.000  N
  H474     1.0000 0.27213  0.48360  0.92225  Biso   1.000  H
  H475     1.0000 0.18458  0.47603  0.90788  Biso   1.000  H
  C372     1.0000 0.31720  0.10542  0.89131  Biso   1.000  C
  N38      1.0000 0.09009  0.13422  0.89440  Biso   1.000  N
  H476     1.0000 0.12227  0.20575  0.86461  Biso   1.000  H
  H477     1.0000 0.18464  0.12634  0.86873  Biso   1.000  H
  C373     1.0000 0.43502  0.21300  0.91861  Biso   1.000  C
  H478     1.0000 0.35103  0.41900  0.94539  Biso   1.000  H
  H479     1.0000 0.42084  0.34518  0.94422  Biso   1.000  H
  C374     1.0000 0.44310  0.44119  0.91947  Biso   1.000  C
  C375     1.0000 0.16061  0.38581  0.95518  Biso   1.000  C
  H480     1.0000 0.35504  0.08126  0.90382  Biso   1.000  H
  H481     1.0000 0.26475  0.07064  0.89082  Biso   1.000  H
  C376     1.0000 0.36114  0.10090  0.86701  Biso   1.000  C
  C377     1.0000 0.07293  0.06167  0.89350  Biso   1.000  C
  N39      1.0000 0.44271  0.16722  0.94240  Biso   1.000  N
  H482     1.0000 0.47558  0.26119  0.91871  Biso   1.000  H
  H483     1.0000 0.45340  0.17358  0.90568  Biso   1.000  H
  H484     1.0000 0.47984  0.47387  0.93034  Biso   1.000  H
  H485     1.0000 0.47819  0.40654  0.90870  Biso   1.000  H
  H486     1.0000 0.40832  0.48035  0.90987  Biso   1.000  H
  C378     1.0000 0.11343  0.37951  0.97841  Biso   1.000  C
  H487     1.0000 0.18349  0.33475  0.94868  Biso   1.000  H
  H488     1.0000 0.37481  0.04165  0.86326  Biso   1.000  H
  H489     1.0000 0.32337  0.12386  0.85454  Biso   1.000  H
  H490     1.0000 0.41359  0.13447  0.86754  Biso   1.000  H
  C379     1.0000 0.01793  0.01761  0.91129  Biso   1.000  C
  H491     1.0000 0.09550  0.02918  0.88050  Biso   1.000  H
  C380     1.0000 0.37792  0.15793  0.95455  Biso   1.000  C
  C381     1.0000 0.02562  0.36082  0.97812  Biso   1.000  C
  C382     1.0000 0.15622  0.38594  0.00027  Biso   1.000  C
  C383     1.0000 0.95123  0.05843  0.92380  Biso   1.000  C
  C384     1.0000 0.04107  0.93330  0.91680  Biso   1.000  C
  C385     1.0000 0.37589  0.11171  0.97783  Biso   1.000  C
  H492     1.0000 0.32636  0.18171  0.94866  Biso   1.000  H
  C386     1.0000 0.98283  0.34931  0.99942  Biso   1.000  C
  C387     1.0000 0.97870  0.34944  0.95415  Biso   1.000  C
  C388     1.0000 0.11171  0.37589  0.02217  Biso   1.000  C
  C389     1.0000 0.25070  0.40813  0.00079  Biso   1.000  C
  C390     1.0000 0.90450  0.01049  0.94059  Biso   1.000  C
  C391     1.0000 0.92033  0.15050  0.91729  Biso   1.000  C
  C392     1.0000 0.00127  0.89433  0.93640  Biso   1.000  C
  C393     1.0000 0.11743  0.89280  0.90240  Biso   1.000  C
  C394     1.0000 0.35720  0.02511  0.97821  Biso   1.000  C
  C395     1.0000 0.38594  0.15622  0.99973  Biso   1.000  C
  C396     1.0000 0.88994  0.33208  0.99924  Biso   1.000  C
  C397     1.0000 0.02511  0.35720  0.02179  Biso   1.000  C
  H493     1.0000 0.01710  0.32280  0.94220  Biso   1.000  H
  H494     1.0000 0.92930  0.31129  0.95650  Biso   1.000  H
  C398     1.0000 0.94882  0.43381  0.94480  Biso   1.000  C
  C399     1.0000 0.15793  0.37792  0.04545  Biso   1.000  C
  H495     1.0000 0.27842  0.38473  0.98619  Biso   1.000  H
  H496     1.0000 0.27728  0.38104  0.01505  Biso   1.000  H
  C400     1.0000 0.26583  0.50153  0.00181  Biso   1.000  C
  C401     1.0000 0.92962  0.92923  0.94760  Biso   1.000  C
  C402     1.0000 0.82782  0.05131  0.95220  Biso   1.000  C
  H497     1.0000 0.88956  0.17726  0.93088  Biso   1.000  H
  H498     1.0000 0.96827  0.18737  0.91236  Biso   1.000  H
  C403     1.0000 0.86343  0.13250  0.89689  Biso   1.000  C
  C404     1.0000 0.04559  0.82325  0.94940  Biso   1.000  C
  H499     1.0000 0.10656  0.83177  0.89938  Biso   1.000  H
  H500     1.0000 0.12455  0.92186  0.88667  Biso   1.000  H
  C405     1.0000 0.19220  0.90329  0.91689  Biso   1.000  C
  C406     1.0000 0.34219  0.97514  0.95487  Biso   1.000  C
  C407     1.0000 0.34931  0.98283  0.00058  Biso   1.000  C
  C408     1.0000 0.40813  0.25070  0.99919  Biso   1.000  C
  C409     1.0000 0.37951  0.11343  0.02159  Biso   1.000  C
  N40      1.0000 0.83520  0.38759  0.99733  Biso   1.000  N
  H501     1.0000 0.87169  0.27480  0.00070  Biso   1.000  H
  C410     1.0000 0.97514  0.34219  0.04513  Biso   1.000  C
  H502     1.0000 0.91887  0.42561  0.92947  Biso   1.000  H
  H503     1.0000 0.91016  0.45969  0.95659  Biso   1.000  H
  H504     1.0000 0.99784  0.47120  0.94231  Biso   1.000  H
  H505     1.0000 0.18171  0.32636  0.05132  Biso   1.000  H
  N41      1.0000 0.16722  0.44271  0.05758  Biso   1.000  N
  H506     1.0000 0.24065  0.52855  0.98754  Biso   1.000  H
  H507     1.0000 0.32712  0.51259  0.00211  Biso   1.000  H
  H508     1.0000 0.23957  0.52486  0.01641  Biso   1.000  H
  C411     1.0000 0.88085  0.88269  0.96830  Biso   1.000  C
  H509     1.0000 0.83437  0.08170  0.96686  Biso   1.000  H
  N42      1.0000 0.76030  0.04622  0.94330  Biso   1.000  N
  H510     1.0000 0.83901  0.18578  0.89095  Biso   1.000  H
  H511     1.0000 0.89547  0.10478  0.88398  Biso   1.000  H
  H512     1.0000 0.81752  0.09474  0.90232  Biso   1.000  H
  H513     1.0000 0.06225  0.83558  0.96547  Biso   1.000  H
  N43      1.0000 0.06123  0.76081  0.94310  Biso   1.000  N
  H514     1.0000 0.24116  0.87881  0.90848  Biso   1.000  H
  H515     1.0000 0.20219  0.96401  0.91972  Biso   1.000  H
  H516     1.0000 0.18426  0.87430  0.93240  Biso   1.000  H
  H517     1.0000 0.31256  0.01214  0.94312  Biso   1.000  H
  H518     1.0000 0.30468  0.92612  0.95837  Biso   1.000  H
  C412     1.0000 0.42103  0.94405  0.94400  Biso   1.000  C
  C413     1.0000 0.33208  0.88994  0.00076  Biso   1.000  C
  C414     1.0000 0.36082  0.02562  0.02188  Biso   1.000  C
  H519     1.0000 0.38104  0.27728  0.98495  Biso   1.000  H
  C415     1.0000 0.50153  0.26583  0.99819  Biso   1.000  C
  H520     1.0000 0.38473  0.27842  0.01381  Biso   1.000  H
  C416     1.0000 0.38581  0.16061  0.04480  Biso   1.000  C
  C417     1.0000 0.74371  0.36343  0.99729  Biso   1.000  C
  H521     1.0000 0.92612  0.30468  0.04163  Biso   1.000  H
  C418     1.0000 0.94405  0.42103  0.05600  Biso   1.000  C
  H522     1.0000 0.01214  0.31256  0.05688  Biso   1.000  H
  C419     1.0000 0.21300  0.43502  0.08139  Biso   1.000  C
  H523     1.0000 0.92173  0.86298  0.98068  Biso   1.000  H
  H524     1.0000 0.84073  0.92269  0.97610  Biso   1.000  H
  C420     1.0000 0.83399  0.81002  0.95870  Biso   1.000  C
  C421     1.0000 0.68273  0.08367  0.95435  Biso   1.000  C
  C422     1.0000 0.09741  0.68572  0.95471  Biso   1.000  C
  H525     1.0000 0.40787  0.91264  0.92922  Biso   1.000  H
  H526     1.0000 0.45804  0.99231  0.94018  Biso   1.000  H
  H527     1.0000 0.45009  0.90628  0.95545  Biso   1.000  H
  H528     1.0000 0.27480  0.87169  0.99928  Biso   1.000  H
  N44      1.0000 0.38759  0.83520  0.00267  Biso   1.000  N
  C423     1.0000 0.34944  0.97870  0.04585  Biso   1.000  C
  H529     1.0000 0.51259  0.32712  0.99789  Biso   1.000  H
  H530     1.0000 0.52486  0.23957  0.98359  Biso   1.000  H
  H531     1.0000 0.52855  0.24065  0.01246  Biso   1.000  H
  H532     1.0000 0.33475  0.18349  0.05132  Biso   1.000  H
  N45      1.0000 0.45193  0.17243  0.05628  Biso   1.000  N
  C424     1.0000 0.72342  0.26984  0.99818  Biso   1.000  C
  H533     1.0000 0.71719  0.38746  0.98263  Biso   1.000  H
  H534     1.0000 0.71637  0.39083  0.01141  Biso   1.000  H
  H535     1.0000 0.91264  0.40787  0.07078  Biso   1.000  H
  H536     1.0000 0.99231  0.45804  0.05982  Biso   1.000  H
  H537     1.0000 0.90628  0.45009  0.04455  Biso   1.000  H
  C425     1.0000 0.24708  0.34912  0.08807  Biso   1.000  C
  H538     1.0000 0.26119  0.47558  0.08129  Biso   1.000  H
  H539     1.0000 0.17358  0.45340  0.09432  Biso   1.000  H
  H540     1.0000 0.80398  0.78179  0.97179  Biso   1.000  H
  H541     1.0000 0.79349  0.83030  0.94657  Biso   1.000  H
  H542     1.0000 0.87436  0.77066  0.95115  Biso   1.000  H
  C426     1.0000 0.69710  0.13492  0.97771  Biso   1.000  C
  H543     1.0000 0.64229  0.03713  0.95789  Biso   1.000  H
  H544     1.0000 0.65558  0.12150  0.94233  Biso   1.000  H
  C427     1.0000 0.14198  0.69545  0.97866  Biso   1.000  C
  H545     1.0000 0.13835  0.66010  0.94325  Biso   1.000  H
  H546     1.0000 0.05080  0.64407  0.95693  Biso   1.000  H
  C428     1.0000 0.36343  0.74371  0.00271  Biso   1.000  C
  H547     1.0000 0.31129  0.92930  0.04350  Biso   1.000  H
  C429     1.0000 0.43381  0.94882  0.05520  Biso   1.000  C
  H548     1.0000 0.32280  0.01710  0.05780  Biso   1.000  H
  C430     1.0000 0.44888  0.21999  0.07953  Biso   1.000  C
  C431     1.0000 0.71395  0.22228  0.97693  Biso   1.000  C
  C432     1.0000 0.71630  0.22864  0.02034  Biso   1.000  C
  C433     1.0000 0.33011  0.32560  0.08120  Biso   1.000  C
  C434     1.0000 0.19723  0.29413  0.10186  Biso   1.000  C
  C435     1.0000 0.68852  0.09448  0.99996  Biso   1.000  C
  C436     1.0000 0.22864  0.71630  0.97964  Biso   1.000  C
  C437     1.0000 0.09448  0.68852  0.00004  Biso   1.000  C
  H549     1.0000 0.39083  0.71637  0.98859  Biso   1.000  H
  C438     1.0000 0.26984  0.72342  0.00182  Biso   1.000  C
  H550     1.0000 0.38746  0.71719  0.01735  Biso   1.000  H
  H551     1.0000 0.42561  0.91887  0.07051  Biso   1.000  H
  H552     1.0000 0.45969  0.91016  0.04341  Biso   1.000  H
  H553     1.0000 0.47120  0.99784  0.05769  Biso   1.000  H
  C439     1.0000 0.36203  0.24549  0.08834  Biso   1.000  C
  H554     1.0000 0.48360  0.27213  0.07775  Biso   1.000  H
  H555     1.0000 0.47603  0.18458  0.09212  Biso   1.000  H
  C440     1.0000 0.72654  0.26793  0.95276  Biso   1.000  C
  C441     1.0000 0.69545  0.14198  0.02134  Biso   1.000  C
  C442     1.0000 0.72622  0.27950  0.04408  Biso   1.000  C
  C443     1.0000 0.38358  0.38530  0.06571  Biso   1.000  C
  C444     1.0000 0.22972  0.21471  0.10898  Biso   1.000  C
  C445     1.0000 0.10542  0.31720  0.10869  Biso   1.000  C
  C446     1.0000 0.66944  0.00019  0.00130  Biso   1.000  C
  C447     1.0000 0.27950  0.72622  0.95590  Biso   1.000  C
  C448     1.0000 0.00019  0.66944  0.99870  Biso   1.000  C
  C449     1.0000 0.13492  0.69710  0.02229  Biso   1.000  C
  C450     1.0000 0.22228  0.71395  0.02305  Biso   1.000  C
  C451     1.0000 0.31129  0.18979  0.10197  Biso   1.000  C
  H556     1.0000 0.74803  0.22698  0.94063  Biso   1.000  H
  H557     1.0000 0.76933  0.31352  0.95465  Biso   1.000  H
  C452     1.0000 0.64179  0.30659  0.94390  Biso   1.000  C
  C453     1.0000 0.68572  0.09741  0.04529  Biso   1.000  C
  H558     1.0000 0.74866  0.24148  0.05683  Biso   1.000  H
  H559     1.0000 0.76806  0.32572  0.04159  Biso   1.000  H
  C454     1.0000 0.64312  0.31740  0.05249  Biso   1.000  C
  H560     1.0000 0.41900  0.35103  0.05459  Biso   1.000  H
  H561     1.0000 0.34518  0.42084  0.05578  Biso   1.000  H
  C455     1.0000 0.44119  0.44310  0.08053  Biso   1.000  C
  C456     1.0000 0.17211  0.15272  0.12300  Biso   1.000  C
  H562     1.0000 0.08126  0.35504  0.09618  Biso   1.000  H
  H563     1.0000 0.07064  0.26475  0.10918  Biso   1.000  H
  C457     1.0000 0.10090  0.36114  0.13299  Biso   1.000  C
  H564     1.0000 0.69615  0.97120  0.98738  Biso   1.000  H
  H565     1.0000 0.69488  0.97667  0.01623  Biso   1.000  H
  C458     1.0000 0.57439  0.98201  0.00130  Biso   1.000  C
  H566     1.0000 0.24148  0.74866  0.94317  Biso   1.000  H
  H567     1.0000 0.32572  0.76806  0.95841  Biso   1.000  H
  C459     1.0000 0.31740  0.64312  0.94749  Biso   1.000  C
  H568     1.0000 0.97667  0.69488  0.98375  Biso   1.000  H
  C460     1.0000 0.98201  0.57439  0.99870  Biso   1.000  C
  H569     1.0000 0.97120  0.69615  0.01262  Biso   1.000  H
  C461     1.0000 0.08367  0.68273  0.04565  Biso   1.000  C
  C462     1.0000 0.26793  0.72654  0.04722  Biso   1.000  C
  C463     1.0000 0.34582  0.10440  0.10934  Biso   1.000  C
  H570     1.0000 0.65100  0.33539  0.92844  Biso   1.000  H
  H571     1.0000 0.59969  0.26119  0.94184  Biso   1.000  H
  H572     1.0000 0.62106  0.34760  0.95585  Biso   1.000  H
  N46      1.0000 0.76081  0.06123  0.05690  Biso   1.000  N
  H573     1.0000 0.66010  0.13835  0.05674  Biso   1.000  H
  H574     1.0000 0.64407  0.05080  0.04307  Biso   1.000  H
  H575     1.0000 0.65234  0.34900  0.06749  Biso   1.000  H
  H576     1.0000 0.62131  0.35605  0.04006  Biso   1.000  H
  H577     1.0000 0.60192  0.27181  0.05529  Biso   1.000  H
  H578     1.0000 0.47387  0.47984  0.06966  Biso   1.000  H
  H579     1.0000 0.40654  0.47819  0.09130  Biso   1.000  H
  H580     1.0000 0.48035  0.40832  0.09013  Biso   1.000  H
  N47      1.0000 0.13422  0.09009  0.10560  Biso   1.000  N
  H581     1.0000 0.20575  0.12227  0.13539  Biso   1.000  H
  H582     1.0000 0.12634  0.18464  0.13127  Biso   1.000  H
  H583     1.0000 0.04165  0.37481  0.13674  Biso   1.000  H
  H584     1.0000 0.12386  0.32337  0.14546  Biso   1.000  H
  H585     1.0000 0.13447  0.41359  0.13246  Biso   1.000  H
  H586     1.0000 0.56504  0.92052  0.00215  Biso   1.000  H
  H587     1.0000 0.54921  0.00426  0.98635  Biso   1.000  H
  H588     1.0000 0.54794  0.00966  0.01522  Biso   1.000  H
  H589     1.0000 0.34900  0.65234  0.93251  Biso   1.000  H
  H590     1.0000 0.35605  0.62131  0.95994  Biso   1.000  H
  H591     1.0000 0.27181  0.60192  0.94471  Biso   1.000  H
  H592     1.0000 0.92052  0.56504  0.99783  Biso   1.000  H
  H593     1.0000 0.00966  0.54794  0.98478  Biso   1.000  H
  H594     1.0000 0.00426  0.54921  0.01363  Biso   1.000  H
  N48      1.0000 0.04622  0.76030  0.05670  Biso   1.000  N
  H595     1.0000 0.03713  0.64229  0.04211  Biso   1.000  H
  H596     1.0000 0.12150  0.65558  0.05767  Biso   1.000  H
  H597     1.0000 0.22698  0.74803  0.05937  Biso   1.000  H
  H598     1.0000 0.31352  0.76933  0.04535  Biso   1.000  H
  C464     1.0000 0.30659  0.64179  0.05610  Biso   1.000  C
  H599     1.0000 0.38587  0.08393  0.09683  Biso   1.000  H
  H600     1.0000 0.29851  0.06307  0.11044  Biso   1.000  H
  C465     1.0000 0.39223  0.10898  0.13389  Biso   1.000  C
  C466     1.0000 0.82325  0.04559  0.05060  Biso   1.000  C
  C467     1.0000 0.06167  0.07293  0.10650  Biso   1.000  C
  C468     1.0000 0.05131  0.82782  0.04780  Biso   1.000  C
  H601     1.0000 0.33539  0.65100  0.07156  Biso   1.000  H
  H602     1.0000 0.26119  0.59969  0.05816  Biso   1.000  H
  H603     1.0000 0.34760  0.62106  0.04415  Biso   1.000  H
  H604     1.0000 0.41385  0.05258  0.13813  Biso   1.000  H
  H605     1.0000 0.43966  0.14916  0.13273  Biso   1.000  H
  H606     1.0000 0.35237  0.12831  0.14634  Biso   1.000  H
  C469     1.0000 0.89433  0.00127  0.06360  Biso   1.000  C
  H607     1.0000 0.83558  0.06225  0.03453  Biso   1.000  H
  C470     1.0000 0.01761  0.01793  0.08871  Biso   1.000  C
  H608     1.0000 0.02918  0.09550  0.11950  Biso   1.000  H
  C471     1.0000 0.01049  0.90450  0.05941  Biso   1.000  C
  H609     1.0000 0.08170  0.83437  0.03314  Biso   1.000  H
  C472     1.0000 0.92923  0.92962  0.05240  Biso   1.000  C
  C473     1.0000 0.93330  0.04107  0.08320  Biso   1.000  C
  C474     1.0000 0.05843  0.95123  0.07620  Biso   1.000  C
  C475     1.0000 0.88269  0.88085  0.03170  Biso   1.000  C
  C476     1.0000 0.89280  0.11743  0.09760  Biso   1.000  C
  C477     1.0000 0.15050  0.92033  0.08269  Biso   1.000  C
  H610     1.0000 0.86298  0.92173  0.01932  Biso   1.000  H
  H611     1.0000 0.92269  0.84073  0.02390  Biso   1.000  H
  C478     1.0000 0.81002  0.83399  0.04130  Biso   1.000  C
  H612     1.0000 0.83177  0.10656  0.10062  Biso   1.000  H
  H613     1.0000 0.92186  0.12455  0.11333  Biso   1.000  H
  C479     1.0000 0.90329  0.19220  0.08309  Biso   1.000  C
  H614     1.0000 0.17726  0.88956  0.06912  Biso   1.000  H
  H615     1.0000 0.18737  0.96827  0.08764  Biso   1.000  H
  C480     1.0000 0.13250  0.86343  0.10309  Biso   1.000  C
  H616     1.0000 0.78179  0.80398  0.02821  Biso   1.000  H
  H617     1.0000 0.83030  0.79349  0.05341  Biso   1.000  H
  H618     1.0000 0.77066  0.87436  0.04885  Biso   1.000  H
  H619     1.0000 0.87881  0.24116  0.09152  Biso   1.000  H
  H620     1.0000 0.96401  0.20219  0.08026  Biso   1.000  H
  H621     1.0000 0.87430  0.18426  0.06760  Biso   1.000  H
  H622     1.0000 0.18578  0.83901  0.10905  Biso   1.000  H
  H623     1.0000 0.10478  0.89547  0.11602  Biso   1.000  H
  H624     1.0000 0.09474  0.81752  0.09768  Biso   1.000  H
