
#######################################################################
#
#                 Cambridge Crystallographic Data Centre
#                                CCDC 
#
#######################################################################
#
# If this CIF has been generated from an entry in the Cambridge 
# Structural Database, then it will include bibliographic, chemical, 
# crystal, experimental, refinement or atomic coordinate data resulting 
# from the CCDC's data processing and validation procedures.
#
#######################################################################

data_GICGUX
_chemical_formula_moiety         'C180 H180 N24'
_symmetry_cell_setting           rhombohedral
_symmetry_space_group_name_H-M   'R 3'
_symmetry_Int_Tables_number      146
_space_group_name_Hall           'R 3'
loop_
_symmetry_equiv_pos_site_id
_symmetry_equiv_pos_as_xyz
1 x,y,z
2 -y,x-y,z
3 -x+y,-x,z
4 2/3+x,1/3+y,1/3+z
5 2/3-y,1/3+x-y,1/3+z
6 2/3-x+y,1/3-x,1/3+z
7 1/3+x,2/3+y,2/3+z
8 1/3-y,2/3+x-y,2/3+z
9 1/3-x+y,2/3-x,2/3+z
_cell_length_a                   38.524(7)
_cell_length_b                   38.524(7)
_cell_length_c                   18.607(4)
_cell_angle_alpha                90
_cell_angle_beta                 90
_cell_angle_gamma                120
_cell_volume                     23915
loop_
_atom_site_label
_atom_site_type_symbol
_atom_site_fract_x
_atom_site_fract_y
_atom_site_fract_z
N1 N 0.24193(14) 0.51988(15) -0.3104(2)
N2 N 0.32727(13) 0.54499(14) -0.3219(2)
N3 N 0.46950(13) 0.52098(15) 0.0872(3)
N4 N 0.42441(12) 0.46828(12) 0.2096(2)
N5 N 0.49303(14) 0.63117(14) 0.5354(2)
N6 N 0.42402(13) 0.55025(13) 0.5150(2)
N7 N 0.61206(15) 0.69689(13) 0.1503(3)
N8 N 0.61660(16) 0.73941(15) 0.2865(3)
C1 C 0.50167(11) 0.59144(8) 0.10123(18)
C2 C 0.53623(10) 0.62530(11) 0.12494(17)
H1 H 0.5538 0.6226 0.1574
C3 C 0.54511(9) 0.66306(9) 0.10110(19)
C4 C 0.51944(11) 0.66696(8) 0.0535(2)
H2 H 0.5255 0.6928 0.0372
C5 C 0.48489(10) 0.63310(11) 0.02982(18)
C6 C 0.47600(9) 0.59534(9) 0.05367(18)
H3 H 0.4524 0.5722 0.0375
C7 C 0.49490(18) 0.55080(15) 0.1201(3)
H4 H 0.5101 0.5479 0.1574
C8 C 0.58378(17) 0.69928(17) 0.1233(3)
H5 H 0.5868 0.7251 0.1164
C9 C 0.46292(17) 0.63690(16) -0.0279(3)
C10 C 0.44318(17) 0.63439(15) -0.0792(3)
C11 C 0.42268(10) 0.63238(10) -0.14748(15)
C12 C 0.38875(9) 0.59658(9) -0.16643(17)
H6 H 0.3768 0.5752 -0.1328
C13 C 0.37226(8) 0.59206(9) -0.23460(19)
C14 C 0.38970(10) 0.62333(11) -0.28383(15)
H7 H 0.3784 0.6202 -0.3304
C15 C 0.42364(11) 0.65912(9) -0.26488(17)
C16 C 0.44013(9) 0.66365(8) -0.19671(19)
H8 H 0.4633 0.6881 -0.1838
C17 C 0.34007(15) 0.55311(16) -0.2563(3)
H9 H 0.3278 0.5327 -0.2210
C18 C 0.3922(2) 0.46998(19) 0.2195(3)
H10 H 0.3733 0.4615 0.1815
C19 C 0.38313(10) 0.48427(10) 0.28649(15)
C20 C 0.34665(9) 0.48339(10) 0.28975(16)
H11 H 0.3286 0.4732 0.2504
C21 C 0.33662(8) 0.49740(10) 0.35062(19)
C22 C 0.36307(10) 0.51230(10) 0.40824(15)
H12 H 0.3562 0.5219 0.4498
C23 C 0.39955(9) 0.51318(11) 0.40498(16)
C24 C 0.40958(8) 0.49917(11) 0.34410(18)
H13 H 0.4345 0.4998 0.3419
C25 C 0.42916(14) 0.53229(14) 0.4652(3)
H14 H 0.4528 0.5304 0.4647
C26 C 0.29596(18) 0.49191(17) 0.3583(3)
C27 C 0.2647(2) 0.4894(2) 0.3734(4)
C28 C 0.48287(17) 0.65711(15) 0.5064(2)
H15 H 0.4603 0.6579 0.5248
C29 C 0.56081(11) 0.71417(11) 0.3605(2)
C30 C 0.55096(11) 0.74342(9) 0.34436(17)
H16 H 0.5661 0.7635 0.3097
C31 C 0.51893(11) 0.74334(10) 0.3789(2)
C32 C 0.49675(10) 0.71401(12) 0.4296(2)
H17 H 0.4749 0.7139 0.4532
C33 C 0.50660(12) 0.68476(10) 0.44580(18)
C34 C 0.53863(13) 0.68484(10) 0.4112(2)
H18 H 0.5454 0.6648 0.4223
C35 C 0.59494(18) 0.71363(19) 0.3273(4)
H19 H 0.6000 0.6925 0.3383
C36 C 0.64507(15) 0.73527(18) 0.1727(3)
H20 H 0.6414 0.7577 0.1548
C37 C 0.68350(17) 0.73725(18) 0.1377(4)
H21 H 0.6853 0.7136 0.1528
H22 H 0.6810 0.7366 0.0847
C38 C 0.72105(17) 0.77487(18) 0.1600(4)
H23 H 0.7198 0.7985 0.1429
H24 H 0.7446 0.7754 0.1373
C39 C 0.72613(16) 0.77705(19) 0.2412(4)
H25 H 0.7515 0.8012 0.2553
H26 H 0.7262 0.7530 0.2598
C40 C 0.68928(16) 0.7792(2) 0.2708(4)
H27 H 0.6924 0.7851 0.3229
H28 H 0.6869 0.8007 0.2460
C41 C 0.65198(17) 0.7384(2) 0.2567(4)
H29 H 0.6546 0.7157 0.2763
C42 C 0.46774(18) 0.60672(16) 0.5927(3)
H30 H 0.4447 0.6115 0.5990
C43 C 0.49395(16) 0.61989(16) 0.6608(3)
H31 H 0.5181 0.6175 0.6529
H32 H 0.5028 0.6483 0.6717
C44 C 0.46964(18) 0.59327(16) 0.7241(3)
H33 H 0.4461 0.5965 0.7329
H34 H 0.4864 0.6017 0.7680
C45 C 0.4553(2) 0.54811(17) 0.7077(3)
H35 H 0.4788 0.5448 0.6982
H36 H 0.4407 0.5313 0.7497
C46 C 0.42794(16) 0.53503(17) 0.6423(3)
H37 H 0.4040 0.5375 0.6523
H38 H 0.4188 0.5067 0.6309
C47 C 0.45238(16) 0.56304(15) 0.5757(3)
H39 H 0.4754 0.5589 0.5635
C48 C 0.43031(16) 0.45261(16) 0.1420(3)
H40 H 0.4089 0.4500 0.1084
C49 C 0.42320(17) 0.40938(17) 0.1544(3)
H41 H 0.4399 0.4097 0.1951
H42 H 0.3947 0.3912 0.1670
C50 C 0.43390(18) 0.39350(18) 0.0860(3)
H43 H 0.4352 0.3691 0.0980
H44 H 0.4129 0.3863 0.0491
C51 C 0.47314(18) 0.42477(17) 0.0573(3)
H45 H 0.4790 0.4142 0.0133
H46 H 0.4941 0.4296 0.0931
C52 C 0.4763(2) 0.46380(19) 0.0395(3)
H47 H 0.4561 0.4599 0.0029
H48 H 0.5032 0.4824 0.0198
C53 C 0.46928(17) 0.48159(16) 0.1089(3)
H49 H 0.4915 0.4881 0.1438
C54 C 0.29559(17) 0.50638(18) -0.3373(3)
H50 H 0.2889 0.4916 -0.2906
C55 C 0.30946(18) 0.48292(16) -0.3892(4)
H51 H 0.3200 0.4984 -0.4342
H52 H 0.3315 0.4809 -0.3660
C56 C 0.27480(18) 0.44007(17) -0.4077(4)
H53 H 0.2675 0.4232 -0.3640
H54 H 0.2844 0.4280 -0.4440
C57 C 0.23620(17) 0.43973(17) -0.4378(3)
H55 H 0.2419 0.4512 -0.4868
H56 H 0.2140 0.4116 -0.4412
C58 C 0.22274(17) 0.46352(16) -0.3906(3)
H57 H 0.2077 0.4466 -0.3490
H58 H 0.2040 0.4687 -0.4187
C59 C 0.25746(16) 0.50478(15) -0.3612(3)
H59 H 0.2654 0.5236 -0.4029
C60 C 0.24694(17) 0.55467(19) -0.3177(3)
H60 H 0.2592 0.5684 -0.3610
N1A N 0.48012(15) 0.72205(21) -0.3104(2)
N2A N 0.45501(14) 0.78228(19) -0.3219(2)
N3A N 0.47902(15) 0.94852(20) 0.0872(3)
N4A N 0.53172(12) 0.95613(17) 0.2096(2)
N5A N 0.36883(14) 0.86186(20) 0.5354(2)
N6A N 0.44975(13) 0.87377(18) 0.5150(2)
N7A N 0.30311(13) 0.91517(20) 0.1503(3)
N8A N 0.26059(15) 0.87719(22) 0.2865(3)
C1A C 0.40856(8) 0.91023(14) 0.10123(18)
C2A C 0.37470(11) 0.91093(15) 0.12494(17)
H1A H 0.3774 0.9312 0.1574
C3A C 0.33694(9) 0.88205(13) 0.10110(19)
C4A C 0.33304(8) 0.85248(14) 0.0535(2)
H2A H 0.3072 0.8327 0.0372
C5A C 0.36690(11) 0.85179(15) 0.02982(18)
C6A C 0.40466(9) 0.88066(13) 0.05367(18)
H3A H 0.4278 0.8802 0.0375
C7A C 0.44920(15) 0.94410(23) 0.1201(3)
H4A H 0.4521 0.9622 0.1574
C8A C 0.30072(17) 0.88450(24) 0.1233(3)
H5A H 0.2749 0.8617 0.1164
C9A C 0.36310(16) 0.82602(23) -0.0279(3)
C10A C 0.36561(15) 0.80879(23) -0.0792(3)
C11A C 0.36762(10) 0.79030(14) -0.14748(15)
C12A C 0.40342(9) 0.79217(13) -0.16643(17)
H6A H 0.4248 0.8016 -0.1328
C13A C 0.40794(9) 0.78020(12) -0.23460(19)
C14A C 0.37667(11) 0.76637(15) -0.28383(15)
H7A H 0.3798 0.7582 -0.3304
C15A C 0.34088(9) 0.76452(14) -0.26488(17)
C16A C 0.33635(8) 0.77648(12) -0.19671(19)
H8A H 0.3119 0.7752 -0.1838
C17A C 0.44689(16) 0.78696(22) -0.2563(3)
H9A H 0.4673 0.7951 -0.2210
C18A C 0.53002(19) 0.92222(28) 0.2195(3)
H10A H 0.5385 0.9118 0.1815
C19A C 0.51573(10) 0.89886(14) 0.28649(15)
C20A C 0.51661(10) 0.86326(13) 0.28975(16)
H11A H 0.5268 0.8554 0.2504
C21A C 0.50260(10) 0.83922(13) 0.35062(19)
C22A C 0.48770(10) 0.85077(14) 0.40824(15)
H12A H 0.4781 0.8343 0.4498
C23A C 0.48682(11) 0.88637(14) 0.40498(16)
C24A C 0.50083(11) 0.91041(14) 0.34410(18)
H13A H 0.5002 0.9347 0.3419
C25A C 0.46771(14) 0.89687(20) 0.4652(3)
H14A H 0.4696 0.9224 0.4647
C26A C 0.50809(17) 0.80405(25) 0.3583(3)
C27A C 0.5106(2) 0.7753(3) 0.3734(4)
C28A C 0.34289(15) 0.82576(23) 0.5064(2)
H15A H 0.3421 0.8024 0.5248
C29A C 0.28583(11) 0.84664(16) 0.3605(2)
C30A C 0.25658(9) 0.80754(14) 0.34436(17)
H16A H 0.2365 0.8026 0.3097
C31A C 0.25666(10) 0.77559(15) 0.3789(2)
C32A C 0.28599(12) 0.78274(16) 0.4296(2)
H17A H 0.2861 0.7610 0.4532
C33A C 0.31524(10) 0.82184(16) 0.44580(18)
C34A C 0.31516(10) 0.85379(16) 0.4112(2)
H18A H 0.3352 0.8806 0.4223
C35A C 0.28637(19) 0.88131(26) 0.3273(4)
H19A H 0.3075 0.9075 0.3383
C36A C 0.26473(18) 0.90980(23) 0.1727(3)
H20A H 0.2423 0.8837 0.1548
C37A C 0.26275(18) 0.94625(25) 0.1377(4)
H21A H 0.2864 0.9717 0.1528
H22A H 0.2634 0.9444 0.0847
C38A C 0.22513(18) 0.94618(25) 0.1600(4)
H23A H 0.2015 0.9213 0.1429
H24A H 0.2246 0.9692 0.1373
C39A C 0.22295(19) 0.94908(25) 0.2412(4)
H25A H 0.1988 0.9503 0.2553
H26A H 0.2470 0.9732 0.2598
C40A C 0.2208(2) 0.91008(26) 0.2708(4)
H27A H 0.2149 0.9073 0.3229
H28A H 0.1993 0.8862 0.2460
C41A C 0.2616(2) 0.91358(26) 0.2567(4)
H29A H 0.2843 0.9389 0.2763
C42A C 0.39328(16) 0.86102(24) 0.5927(3)
H30A H 0.3885 0.8332 0.5990
C43A C 0.38011(16) 0.87406(23) 0.6608(3)
H31A H 0.3825 0.9006 0.6529
H32A H 0.3517 0.8545 0.6717
C44A C 0.40673(16) 0.87637(24) 0.7241(3)
H33A H 0.4035 0.8496 0.7329
H34A H 0.3983 0.8847 0.7680
C45A C 0.45189(17) 0.90719(26) 0.7077(3)
H35A H 0.4552 0.9340 0.6982
H36A H 0.4687 0.9094 0.7497
C46A C 0.46497(17) 0.89291(23) 0.6423(3)
H37A H 0.4625 0.8665 0.6523
H38A H 0.4933 0.9121 0.6309
C47A C 0.43696(15) 0.88934(22) 0.5757(3)
H39A H 0.4411 0.9165 0.5635
C48A C 0.54739(16) 0.97770(23) 0.1420(3)
H40A H 0.5500 0.9589 0.1084
C49A C 0.59062(17) 1.01382(24) 0.1544(3)
H41A H 0.5903 1.0302 0.1951
H42A H 0.6088 1.0035 0.1670
C50A C 0.60650(18) 1.04040(25) 0.0860(3)
H43A H 0.6309 1.0661 0.0980
H44A H 0.6137 1.0266 0.0491
C51A C 0.57523(17) 1.04837(25) 0.0573(3)
H45A H 0.5858 1.0648 0.0133
H46A H 0.5704 1.0645 0.0931
C52A C 0.53620(19) 1.01250(28) 0.0395(3)
H47A H 0.5401 0.9962 0.0029
H48A H 0.5176 1.0208 0.0198
C53A C 0.51841(16) 0.98769(23) 0.1089(3)
H49A H 0.5119 1.0034 0.1438
C54A C 0.49362(18) 0.78921(25) -0.3373(3)
H50A H 0.5084 0.7973 -0.2906
C55A C 0.51708(16) 0.82654(24) -0.3892(4)
H51A H 0.5016 0.8216 -0.4342
H52A H 0.5191 0.8506 -0.3660
C56A C 0.55993(17) 0.83473(25) -0.4077(4)
H53A H 0.5768 0.8443 -0.3640
H54A H 0.5720 0.8564 -0.4440
C57A C 0.56027(17) 0.79647(24) -0.4378(3)
H55A H 0.5488 0.7907 -0.4868
H56A H 0.5884 0.8024 -0.4412
C58A C 0.53648(16) 0.75922(23) -0.3906(3)
H57A H 0.5534 0.7611 -0.3490
H58A H 0.5313 0.7353 -0.4187
C59A C 0.49522(15) 0.75268(22) -0.3612(3)
H59A H 0.4764 0.7418 -0.4029
C60A C 0.44533(19) 0.69227(25) -0.3177(3)
H60A H 0.4316 0.6908 -0.3610
N1B N 0.27795(21) 0.75807(14) -0.3104(2)
N2B N 0.21772(19) 0.67273(13) -0.3219(2)
N3B N 0.05148(20) 0.53050(13) 0.0872(3)
N4B N 0.04387(17) 0.57559(12) 0.2096(2)
N5B N 0.13814(20) 0.50697(14) 0.5354(2)
N6B N 0.12623(18) 0.57598(13) 0.5150(2)
N7B N 0.08483(20) 0.38794(15) 0.1503(3)
N8B N 0.12281(22) 0.38340(16) 0.2865(3)
C1B C 0.08977(14) 0.49833(11) 0.10123(18)
C2B C 0.08907(15) 0.46377(10) 0.12494(17)
H1B H 0.0688 0.4462 0.1574
C3B C 0.11795(13) 0.45489(9) 0.10110(19)
C4B C 0.14752(14) 0.48056(11) 0.0535(2)
H2B H 0.1673 0.4745 0.0372
C5B C 0.14821(15) 0.51511(10) 0.02982(18)
C6B C 0.11934(13) 0.52400(9) 0.05367(18)
H3B H 0.1198 0.5476 0.0375
C7B C 0.05590(23) 0.50510(18) 0.1201(3)
H4B H 0.0378 0.4899 0.1574
C8B C 0.11550(24) 0.41622(17) 0.1233(3)
H5B H 0.1383 0.4132 0.1164
C9B C 0.17398(23) 0.53708(17) -0.0279(3)
C10B C 0.19121(23) 0.55682(17) -0.0792(3)
C11B C 0.20970(14) 0.57732(10) -0.14748(15)
C12B C 0.20783(13) 0.61125(9) -0.16643(17)
H6B H 0.1984 0.6232 -0.1328
C13B C 0.21980(12) 0.62774(8) -0.23460(19)
C14B C 0.23363(15) 0.61030(10) -0.28383(15)
H7B H 0.2418 0.6216 -0.3304
C15B C 0.23548(14) 0.57636(11) -0.26488(17)
C16B C 0.22352(12) 0.55987(9) -0.19671(19)
H8B H 0.2248 0.5367 -0.1838
C17B C 0.21304(22) 0.65993(15) -0.2563(3)
H9B H 0.2049 0.6722 -0.2210
C18B C 0.07778(28) 0.6078(2) 0.2195(3)
H10B H 0.0882 0.6267 0.1815
C19B C 0.10114(14) 0.61687(10) 0.28649(15)
C20B C 0.13674(13) 0.65335(9) 0.28975(16)
H11B H 0.1446 0.6714 0.2504
C21B C 0.16078(13) 0.66338(8) 0.35062(19)
C22B C 0.14923(14) 0.63693(10) 0.40824(15)
H12B H 0.1657 0.6438 0.4498
C23B C 0.11363(14) 0.60045(9) 0.40498(16)
C24B C 0.08959(14) 0.59042(8) 0.34410(18)
H13B H 0.0653 0.5655 0.3419
C25B C 0.10313(20) 0.57084(14) 0.4652(3)
H14B H 0.0776 0.5472 0.4647
C26B C 0.19595(25) 0.70404(18) 0.3583(3)
C27B C 0.2247(3) 0.7353(2) 0.3734(4)
C28B C 0.17424(23) 0.51713(17) 0.5064(2)
H15B H 0.1976 0.5397 0.5248
C29B C 0.15336(16) 0.43919(11) 0.3605(2)
C30B C 0.19246(14) 0.44904(11) 0.34436(17)
H16B H 0.1974 0.4339 0.3097
C31B C 0.22441(15) 0.48107(11) 0.3789(2)
C32B C 0.21726(16) 0.50325(10) 0.4296(2)
H17B H 0.2390 0.5251 0.4532
C33B C 0.17816(16) 0.49340(12) 0.44580(18)
C34B C 0.14621(16) 0.46137(13) 0.4112(2)
H18B H 0.1194 0.4546 0.4223
C35B C 0.11869(26) 0.40506(18) 0.3273(4)
H19B H 0.0925 0.4000 0.3383
C36B C 0.09020(23) 0.35493(15) 0.1727(3)
H20B H 0.1163 0.3586 0.1548
C37B C 0.05375(25) 0.31650(17) 0.1377(4)
H21B H 0.0283 0.3147 0.1528
H22B H 0.0556 0.3190 0.0847
C38B C 0.05382(25) 0.27895(17) 0.1600(4)
H23B H 0.0787 0.2802 0.1429
H24B H 0.0308 0.2554 0.1373
C39B C 0.05092(25) 0.27387(16) 0.2412(4)
H25B H 0.0497 0.2485 0.2553
H26B H 0.0268 0.2738 0.2598
C40B C 0.08992(26) 0.31072(16) 0.2708(4)
H27B H 0.0927 0.3076 0.3229
H28B H 0.1138 0.3131 0.2460
C41B C 0.08642(26) 0.34802(17) 0.2567(4)
H29B H 0.0611 0.3454 0.2763
C42B C 0.13898(24) 0.53226(18) 0.5927(3)
H30B H 0.1668 0.5553 0.5990
C43B C 0.12594(23) 0.50605(16) 0.6608(3)
H31B H 0.0994 0.4819 0.6529
H32B H 0.1455 0.4972 0.6717
C44B C 0.12363(24) 0.53036(18) 0.7241(3)
H33B H 0.1504 0.5539 0.7329
H34B H 0.1153 0.5136 0.7680
C45B C 0.09281(26) 0.5447(2) 0.7077(3)
H35B H 0.0660 0.5212 0.6982
H36B H 0.0906 0.5593 0.7497
C46B C 0.10709(23) 0.57206(16) 0.6423(3)
H37B H 0.1335 0.5960 0.6523
H38B H 0.0879 0.5812 0.6309
C47B C 0.11066(22) 0.54762(16) 0.5757(3)
H39B H 0.0835 0.5246 0.5635
C48B C 0.02230(23) 0.56969(16) 0.1420(3)
H40B H 0.0411 0.5911 0.1084
C49B C -0.01382(24) 0.57680(17) 0.1544(3)
H41B H -0.0302 0.5601 0.1951
H42B H -0.0035 0.6053 0.1670
C50B C -0.04040(25) 0.56610(18) 0.0860(3)
H43B H -0.0661 0.5648 0.0980
H44B H -0.0266 0.5871 0.0491
C51B C -0.04837(25) 0.52686(18) 0.0573(3)
H45B H -0.0648 0.5210 0.0133
H46B H -0.0645 0.5059 0.0931
C52B C -0.01250(28) 0.5237(2) 0.0395(3)
H47B H 0.0038 0.5439 0.0029
H48B H -0.0208 0.4968 0.0198
C53B C 0.01231(23) 0.53072(17) 0.1089(3)
H49B H -0.0034 0.5085 0.1438
C54B C 0.21079(25) 0.70441(17) -0.3373(3)
H50B H 0.2027 0.7111 -0.2906
C55B C 0.17346(24) 0.69054(18) -0.3892(4)
H51B H 0.1784 0.6800 -0.4342
H52B H 0.1494 0.6685 -0.3660
C56B C 0.16527(25) 0.72520(18) -0.4077(4)
H53B H 0.1557 0.7325 -0.3640
H54B H 0.1436 0.7156 -0.4440
C57B C 0.20353(24) 0.76380(17) -0.4378(3)
H55B H 0.2093 0.7581 -0.4868
H56B H 0.1976 0.7860 -0.4412
C58B C 0.24078(23) 0.77726(17) -0.3906(3)
H57B H 0.2389 0.7923 -0.3490
H58B H 0.2647 0.7960 -0.4187
C59B C 0.24732(22) 0.74254(16) -0.3612(3)
H59B H 0.2582 0.7346 -0.4029
C60B C 0.30773(25) 0.75306(17) -0.3177(3)
H60B H 0.3092 0.7408 -0.3610
loop_
_geom_bond_atom_site_label_1
_geom_bond_atom_site_label_2
_geom_bond_site_symmetry_1
_geom_bond_site_symmetry_2
N1 C59 1_555 1_555
N2 C17 1_555 1_555
N3 C7 1_555 1_555
N4 C18 1_555 1_555
N5 C28 1_555 1_555
N6 C25 1_555 1_555
N7 C8 1_555 1_555
N8 C35 1_555 1_555
C1 C2 1_555 1_555
C2 H1 1_555 1_555
C3 C2 1_555 1_555
C4 C3 1_555 1_555
H2 C4 1_555 1_555
C5 C4 1_555 1_555
C6 C1 1_555 1_555
H3 C6 1_555 1_555
C7 C1 1_555 1_555
H4 C7 1_555 1_555
C8 C3 1_555 1_555
H5 C8 1_555 1_555
C9 C5 1_555 1_555
C10 C9 1_555 1_555
C11 C10 1_555 1_555
C12 C11 1_555 1_555
H6 C12 1_555 1_555
C13 C12 1_555 1_555
C14 C13 1_555 1_555
H7 C14 1_555 1_555
C15 C14 1_555 1_555
C16 C11 1_555 1_555
H8 C16 1_555 1_555
C17 C13 1_555 1_555
H9 C17 1_555 1_555
C18 H10 1_555 1_555
C19 C18 1_555 1_555
C20 C19 1_555 1_555
H11 C20 1_555 1_555
C21 C20 1_555 1_555
C22 C21 1_555 1_555
H12 C22 1_555 1_555
C23 C22 1_555 1_555
C24 C19 1_555 1_555
H13 C24 1_555 1_555
C25 C23 1_555 1_555
H14 C25 1_555 1_555
C26 C21 1_555 1_555
C27 C26 1_555 1_555
C28 H15 1_555 1_555
C29 C30 1_555 1_555
C30 H16 1_555 1_555
C31 C30 1_555 1_555
C32 C31 1_555 1_555
H17 C32 1_555 1_555
C33 C28 1_555 1_555
C34 C29 1_555 1_555
H18 C34 1_555 1_555
C35 C29 1_555 1_555
H19 C35 1_555 1_555
C36 N7 1_555 1_555
H20 C36 1_555 1_555
C37 C36 1_555 1_555
H21 C37 1_555 1_555
H22 C37 1_555 1_555
C38 C37 1_555 1_555
H23 C38 1_555 1_555
H24 C38 1_555 1_555
C39 C38 1_555 1_555
H25 C39 1_555 1_555
H26 C39 1_555 1_555
C40 C39 1_555 1_555
H27 C40 1_555 1_555
H28 C40 1_555 1_555
C41 N8 1_555 1_555
H29 C41 1_555 1_555
C42 N5 1_555 1_555
H30 C42 1_555 1_555
C43 C42 1_555 1_555
H31 C43 1_555 1_555
H32 C43 1_555 1_555
C44 C43 1_555 1_555
H33 C44 1_555 1_555
H34 C44 1_555 1_555
C45 C44 1_555 1_555
H35 C45 1_555 1_555
H36 C45 1_555 1_555
C46 C45 1_555 1_555
H37 C46 1_555 1_555
H38 C46 1_555 1_555
C47 N6 1_555 1_555
H39 C47 1_555 1_555
C48 N4 1_555 1_555
H40 C48 1_555 1_555
C49 C48 1_555 1_555
H41 C49 1_555 1_555
H42 C49 1_555 1_555
C50 C49 1_555 1_555
H43 C50 1_555 1_555
H44 C50 1_555 1_555
C51 C50 1_555 1_555
H45 C51 1_555 1_555
H46 C51 1_555 1_555
C52 C51 1_555 1_555
H47 C52 1_555 1_555
H48 C52 1_555 1_555
C53 N3 1_555 1_555
H49 C53 1_555 1_555
C54 N2 1_555 1_555
H50 C54 1_555 1_555
C55 C54 1_555 1_555
H51 C55 1_555 1_555
H52 C55 1_555 1_555
C56 C55 1_555 1_555
H53 C56 1_555 1_555
H54 C56 1_555 1_555
C57 C56 1_555 1_555
H55 C57 1_555 1_555
H56 C57 1_555 1_555
C58 C57 1_555 1_555
H57 C58 1_555 1_555
H58 C58 1_555 1_555
C59 C54 1_555 1_555
H59 C59 1_555 1_555
C60 N1 1_555 1_555
H60 C60 1_555 1_555
N1A C59A 1_555 1_555
N2A C17A 1_555 1_555
N3A C7A 1_555 1_555
N4A C18A 1_555 1_555
N5A C28A 1_555 1_555
N6A C25A 1_555 1_555
N7A C8A 1_555 1_555
N8A C35A 1_555 1_555
C1A C2A 1_555 1_555
C2A H1A 1_555 1_555
C3A C2A 1_555 1_555
C4A C3A 1_555 1_555
H2A C4A 1_555 1_555
C5A C4A 1_555 1_555
C6A C1A 1_555 1_555
H3A C6A 1_555 1_555
C7A C1A 1_555 1_555
H4A C7A 1_555 1_555
C8A C3A 1_555 1_555
H5A C8A 1_555 1_555
C9A C5A 1_555 1_555
C10A C9A 1_555 1_555
C11A C10A 1_555 1_555
C12A C11A 1_555 1_555
H6A C12A 1_555 1_555
C13A C12A 1_555 1_555
C14A C13A 1_555 1_555
H7A C14A 1_555 1_555
C15A C14A 1_555 1_555
C16A C11A 1_555 1_555
H8A C16A 1_555 1_555
C17A C13A 1_555 1_555
H9A C17A 1_555 1_555
C18A H10A 1_555 1_555
C19A C18A 1_555 1_555
C20A C19A 1_555 1_555
H11A C20A 1_555 1_555
C21A C20A 1_555 1_555
C22A C21A 1_555 1_555
H12A C22A 1_555 1_555
C23A C22A 1_555 1_555
C24A C19A 1_555 1_555
H13A C24A 1_555 1_555
C25A C23A 1_555 1_555
H14A C25A 1_555 1_555
C26A C21A 1_555 1_555
C27A C31 1_555 1_555
C28A H15A 1_555 1_555
C29A C30A 1_555 1_555
C30A H16A 1_555 1_555
C31A C30A 1_555 1_555
C32A C31A 1_555 1_555
H17A C32A 1_555 1_555
C33A C28A 1_555 1_555
C34A C29A 1_555 1_555
H18A C34A 1_555 1_555
C35A C29A 1_555 1_555
H19A C35A 1_555 1_555
C36A N7A 1_555 1_555
H20A C36A 1_555 1_555
C37A C36A 1_555 1_555
H21A C37A 1_555 1_555
H22A C37A 1_555 1_555
C38A C37A 1_555 1_555
H23A C38A 1_555 1_555
H24A C38A 1_555 1_555
C39A C38A 1_555 1_555
H25A C39A 1_555 1_555
H26A C39A 1_555 1_555
C40A C39A 1_555 1_555
H27A C40A 1_555 1_555
H28A C40A 1_555 1_555
C41A N8A 1_555 1_555
H29A C41A 1_555 1_555
C42A N5A 1_555 1_555
H30A C42A 1_555 1_555
C43A C42A 1_555 1_555
H31A C43A 1_555 1_555
H32A C43A 1_555 1_555
C44A C43A 1_555 1_555
H33A C44A 1_555 1_555
H34A C44A 1_555 1_555
C45A C44A 1_555 1_555
H35A C45A 1_555 1_555
H36A C45A 1_555 1_555
C46A C45A 1_555 1_555
H37A C46A 1_555 1_555
H38A C46A 1_555 1_555
C47A N6A 1_555 1_555
H39A C47A 1_555 1_555
C48A N4A 1_555 1_555
H40A C48A 1_555 1_555
C49A C48A 1_555 1_555
H41A C49A 1_555 1_555
H42A C49A 1_555 1_555
C50A C49A 1_555 1_555
H43A C50A 1_555 1_555
H44A C50A 1_555 1_555
C51A C50A 1_555 1_555
H45A C51A 1_555 1_555
H46A C51A 1_555 1_555
C52A C51A 1_555 1_555
H47A C52A 1_555 1_555
H48A C52A 1_555 1_555
C53A N3A 1_555 1_555
H49A C53A 1_555 1_555
C54A N2A 1_555 1_555
H50A C54A 1_555 1_555
C55A C54A 1_555 1_555
H51A C55A 1_555 1_555
H52A C55A 1_555 1_555
C56A C55A 1_555 1_555
H53A C56A 1_555 1_555
H54A C56A 1_555 1_555
C57A C56A 1_555 1_555
H55A C57A 1_555 1_555
H56A C57A 1_555 1_555
C58A C57A 1_555 1_555
H57A C58A 1_555 1_555
H58A C58A 1_555 1_555
C59A C54A 1_555 1_555
H59A C59A 1_555 1_555
C60A C15 1_555 1_555
H60A C60A 1_555 1_555
N1B C59B 1_555 1_555
N2B C17B 1_555 1_555
N3B C7B 1_555 1_555
N4B C18B 1_555 1_555
N5B C28B 1_555 1_555
N6B C25B 1_555 1_555
N7B C8B 1_555 1_555
N8B C35B 1_555 1_555
C1B C2B 1_555 1_555
C2B H1B 1_555 1_555
C3B C2B 1_555 1_555
C4B C3B 1_555 1_555
H2B C4B 1_555 1_555
C5B C4B 1_555 1_555
C6B C1B 1_555 1_555
H3B C6B 1_555 1_555
C7B C1B 1_555 1_555
H4B C7B 1_555 1_555
C8B C3B 1_555 1_555
H5B C8B 1_555 1_555
C9B C5B 1_555 1_555
C10B C9B 1_555 1_555
C11B C10B 1_555 1_555
C12B C11B 1_555 1_555
H6B C12B 1_555 1_555
C13B C12B 1_555 1_555
C14B C13B 1_555 1_555
H7B C14B 1_555 1_555
C15B C60 1_555 1_555
C16B C11B 1_555 1_555
H8B C16B 1_555 1_555
C17B C13B 1_555 1_555
H9B C17B 1_555 1_555
C18B H10B 1_555 1_555
C19B C18B 1_555 1_555
C20B C19B 1_555 1_555
H11B C20B 1_555 1_555
C21B C20B 1_555 1_555
C22B C21B 1_555 1_555
H12B C22B 1_555 1_555
C23B C22B 1_555 1_555
C24B C19B 1_555 1_555
H13B C24B 1_555 1_555
C25B C23B 1_555 1_555
H14B C25B 1_555 1_555
C26B C21B 1_555 1_555
C27B C31A 1_555 1_555
C28B H15B 1_555 1_555
C29B C30B 1_555 1_555
C30B H16B 1_555 1_555
C31B C27 1_555 1_555
C32B C31B 1_555 1_555
H17B C32B 1_555 1_555
C33B C28B 1_555 1_555
C34B C29B 1_555 1_555
H18B C34B 1_555 1_555
C35B C29B 1_555 1_555
H19B C35B 1_555 1_555
C36B N7B 1_555 1_555
H20B C36B 1_555 1_555
C37B C36B 1_555 1_555
H21B C37B 1_555 1_555
H22B C37B 1_555 1_555
C38B C37B 1_555 1_555
H23B C38B 1_555 1_555
H24B C38B 1_555 1_555
C39B C38B 1_555 1_555
H25B C39B 1_555 1_555
H26B C39B 1_555 1_555
C40B C39B 1_555 1_555
H27B C40B 1_555 1_555
H28B C40B 1_555 1_555
C41B N8B 1_555 1_555
H29B C41B 1_555 1_555
C42B N5B 1_555 1_555
H30B C42B 1_555 1_555
C43B C42B 1_555 1_555
H31B C43B 1_555 1_555
H32B C43B 1_555 1_555
C44B C43B 1_555 1_555
H33B C44B 1_555 1_555
H34B C44B 1_555 1_555
C45B C44B 1_555 1_555
H35B C45B 1_555 1_555
H36B C45B 1_555 1_555
C46B C45B 1_555 1_555
H37B C46B 1_555 1_555
H38B C46B 1_555 1_555
C47B N6B 1_555 1_555
H39B C47B 1_555 1_555
C48B N4B 1_555 1_555
H40B C48B 1_555 1_555
C49B C48B 1_555 1_555
H41B C49B 1_555 1_555
H42B C49B 1_555 1_555
C50B C49B 1_555 1_555
H43B C50B 1_555 1_555
H44B C50B 1_555 1_555
C51B C50B 1_555 1_555
H45B C51B 1_555 1_555
H46B C51B 1_555 1_555
C52B C51B 1_555 1_555
H47B C52B 1_555 1_555
H48B C52B 1_555 1_555
C53B N3B 1_555 1_555
H49B C53B 1_555 1_555
C54B N2B 1_555 1_555
H50B C54B 1_555 1_555
C55B C54B 1_555 1_555
H51B C55B 1_555 1_555
H52B C55B 1_555 1_555
C56B C55B 1_555 1_555
H53B C56B 1_555 1_555
H54B C56B 1_555 1_555
C57B C56B 1_555 1_555
H55B C57B 1_555 1_555
H56B C57B 1_555 1_555
C58B C57B 1_555 1_555
H57B C58B 1_555 1_555
H58B C58B 1_555 1_555
C59B C54B 1_555 1_555
H59B C59B 1_555 1_555
C60B C15A 1_555 1_555
H60B C60B 1_555 1_555
C5 C6 1_555 1_555
C15 C16 1_555 1_555
C23 C24 1_555 1_555
C32 C33 1_555 1_555
C33 C34 1_555 1_555
C36 C41 1_555 1_555
C40 C41 1_555 1_555
C42 C47 1_555 1_555
C46 C47 1_555 1_555
C48 C53 1_555 1_555
C52 C53 1_555 1_555
C58 C59 1_555 1_555
N1A C60A 1_555 1_555
C5A C6A 1_555 1_555
C15A C16A 1_555 1_555
C23A C24A 1_555 1_555
C26A C27A 1_555 1_555
C32A C33A 1_555 1_555
C33A C34A 1_555 1_555
C36A C41A 1_555 1_555
C40A C41A 1_555 1_555
C42A C47A 1_555 1_555
C46A C47A 1_555 1_555
C48A C53A 1_555 1_555
C52A C53A 1_555 1_555
C58A C59A 1_555 1_555
N1B C60B 1_555 1_555
C5B C6B 1_555 1_555
C14B C15B 1_555 1_555
C15B C16B 1_555 1_555
C23B C24B 1_555 1_555
C26B C27B 1_555 1_555
C30B C31B 1_555 1_555
C32B C33B 1_555 1_555
C33B C34B 1_555 1_555
C36B C41B 1_555 1_555
C40B C41B 1_555 1_555
C42B C47B 1_555 1_555
C46B C47B 1_555 1_555
C48B C53B 1_555 1_555
C52B C53B 1_555 1_555
C58B C59B 1_555 1_555

#END
