
#######################################################################
#
#                 Cambridge Crystallographic Data Centre
#                                CCDC 
#
#######################################################################
#
# If this CIF has been generated from an entry in the Cambridge 
# Structural Database, then it will include bibliographic, chemical, 
# crystal, experimental, refinement or atomic coordinate data resulting 
# from the CCDC's data processing and validation procedures.
#
#######################################################################

data_IFAJUX
_chemical_formula_moiety         'C65 H69 Cl3 N12'
_symmetry_cell_setting           orthorhombic
_symmetry_space_group_name_H-M   'P 21 21 21'
_symmetry_Int_Tables_number      19
_space_group_name_Hall           'P 2ac 2ab'
loop_
_symmetry_equiv_pos_site_id
_symmetry_equiv_pos_as_xyz
1 x,y,z
2 1/2-x,-y,1/2+z
3 -x,1/2+y,1/2-z
4 1/2+x,1/2-y,-z
_cell_length_a                   10.654(3)
_cell_length_b                   23.151(6)
_cell_length_c                   25.363(7)
_cell_angle_alpha                90
_cell_angle_beta                 90
_cell_angle_gamma                90
_cell_volume                     6255.8
loop_
_atom_site_label
_atom_site_type_symbol
_atom_site_fract_x
_atom_site_fract_y
_atom_site_fract_z
N1 N 0.4012(8) 0.2744(3) 0.5649(3)
N2 N 0.3766(7) 0.2552(3) 0.4487(3)
N3 N -0.1016(8) 0.3605(4) 0.6836(3)
N4 N -0.3228(7) 0.3998(3) 0.6225(3)
N5 N 0.3945(7) 0.5145(3) 0.6878(3)
N6 N 0.4267(8) 0.6176(3) 0.6215(3)
N7 N 0.4349(8) 0.4967(3) 0.3260(3)
N8 N 0.3981(7) 0.6121(3) 0.3712(4)
N9 N -0.0791(8) 0.3507(3) 0.3049(3)
N10 N -0.3016(7) 0.3759(3) 0.3688(3)
N11 N -0.3067(7) 0.6257(3) 0.4819(3)
N12 N -0.0876(7) 0.6936(3) 0.5059(3)
C1 C 0.2572(8) 0.3358(4) 0.6122(4)
C2 C 0.1390(9) 0.3424(4) 0.6318(4)
H1 H 0.0813 0.3113 0.6289
C3 C 0.1002(9) 0.3940(4) 0.6561(4)
C4 C 0.1874(8) 0.4376(4) 0.6620(4)
H2 H 0.1637 0.4728 0.6786
C5 C 0.3103(9) 0.4307(4) 0.6437(4)
C6 C 0.3446(9) 0.3803(4) 0.6182(4)
H3 H 0.4272 0.3760 0.6047
C7 C 0.2947(10) 0.2818(4) 0.5841(3)
H4 H 0.2345 0.2517 0.5806
C8 C -0.0262(9) 0.4016(4) 0.6757(4)
H5 H -0.0540 0.4397 0.6830
C9 C 0.4083(9) 0.4757(4) 0.6530(4)
H6 H 0.4827 0.4753 0.6324
C10 C 0.3228(8) 0.3351(4) 0.3926(4)
C11 C 0.3607(9) 0.3886(4) 0.3722(4)
H7 H 0.4408 0.4036 0.3813
C12 C 0.2830(9) 0.4197(4) 0.3392(4)
C13 C 0.1674(9) 0.3993(4) 0.3251(4)
H8 H 0.1154 0.4210 0.3021
C14 C 0.1253(9) 0.3451(4) 0.3454(4)
C15 C 0.2057(9) 0.3145(4) 0.3783(4)
H9 H 0.1791 0.2782 0.3916
C16 C 0.4061(10) 0.3038(4) 0.4271(4)
H10 H 0.4864 0.3198 0.4343
C17 C 0.3264(9) 0.4761(4) 0.3158(4)
H11 H 0.2718 0.4968 0.2931
C18 C 0.0007(9) 0.3230(4) 0.3315(4)
H12 H -0.0214 0.2854 0.3433
C19 C -0.3054(9) 0.4241(4) 0.5321(4)
C20 C -0.3063(8) 0.4074(4) 0.4805(4)
H13 H -0.3129 0.3674 0.4725
C21 C -0.2980(8) 0.4463(4) 0.4395(4)
C22 C -0.2953(8) 0.5055(4) 0.4510(4)
H14 H -0.2907 0.5329 0.4232
C23 C -0.2993(9) 0.5239(4) 0.5020(4)
C24 C -0.3022(8) 0.4847(4) 0.5428(4)
H15 H -0.3021 0.4980 0.5783
C25 C -0.3094(9) 0.3831(4) 0.5756(4)
H16 H -0.3016 0.3430 0.5684
C26 C -0.2966(8) 0.4294(4) 0.3839(4)
H17 H -0.2917 0.4588 0.3579
C27 C -0.3019(9) 0.5872(4) 0.5161(4)
H18 H -0.2999 0.5980 0.5523
C28 C 0.2749(9) 0.6320(4) 0.5531(4)
C29 C 0.1562(9) 0.6511(4) 0.5393(4)
H19 H 0.0987 0.6613 0.5664
C30 C 0.1186(9) 0.6560(4) 0.4869(4)
C31 C 0.2030(9) 0.6410(4) 0.4476(4)
H20 H 0.1788 0.6446 0.4117
C32 C 0.3224(8) 0.6207(4) 0.4599(4)
C33 C 0.3567(8) 0.6170(4) 0.5122(4)
H21 H 0.4387 0.6039 0.5208
C34 C 0.3147(10) 0.6292(4) 0.6083(4)
H22 H 0.2546 0.6363 0.6352
C35 C -0.0038(9) 0.6808(4) 0.4724(4)
H23 H -0.0208 0.6876 0.4361
C36 C 0.4154(9) 0.6061(4) 0.4195(4)
H24 H 0.4939 0.5910 0.4308
C37 C 0.4217(9) 0.2191(4) 0.5380(4)
H25 H 0.3418 0.1974 0.5363
H26 H 0.4828 0.1957 0.5582
C38 C 0.4708(9) 0.2288(4) 0.4827(4)
H27 H 0.5457 0.2540 0.4843
H28 H 0.4969 0.1913 0.4675
C39 C -0.2252(8) 0.3726(4) 0.7051(4)
H29 H -0.2313 0.4140 0.7146
H30 H -0.2387 0.3495 0.7374
C40 C -0.3241(9) 0.3579(4) 0.6648(4)
H31 H -0.3080 0.3188 0.6504
H32 H -0.4077 0.3576 0.6818
C41 C 0.4989(8) 0.5545(4) 0.6922(4)
H33 H 0.5675 0.5427 0.6682
H34 H 0.5318 0.5544 0.7287
C42 C 0.4532(9) 0.6153(4) 0.6776(4)
H35 H 0.3764 0.6247 0.6978
H36 H 0.5185 0.6441 0.6866
C43 C 0.4656(9) 0.5503(4) 0.2991(4)
H37 H 0.3919 0.5637 0.2787
H38 H 0.5353 0.5435 0.2740
C44 C 0.5035(9) 0.5963(4) 0.3379(4)
H39 H 0.5731 0.5818 0.3601
H40 H 0.5337 0.6308 0.3187
C45 C -0.1992(8) 0.3250(4) 0.2964(4)
H41 H -0.2053 0.2889 0.3171
H42 H -0.2082 0.3150 0.2587
C46 C -0.3037(9) 0.3653(4) 0.3123(4)
H43 H -0.2945 0.4024 0.2933
H44 H -0.3854 0.3482 0.3023
C47 C -0.3163(8) 0.6852(4) 0.5021(4)
H45 H -0.3209 0.6847 0.5411
H46 H -0.3935 0.7037 0.4884
C48 C -0.2023(8) 0.7188(4) 0.4845(4)
H47 H -0.1980 0.7189 0.4455
H48 H -0.2098 0.7594 0.4965
C49 C -0.0999(10) 0.7054(6) 0.6794(4)
C50 C -0.0512(11) 0.7467(5) 0.7141(5)
H49 H -0.0870 0.7843 0.7146
C51 C 0.0444(11) 0.7349(5) 0.7468(5)
H50 H 0.0744 0.7634 0.7706
C52 C 0.0995(10) 0.6801(5) 0.7453(4)
H51 H 0.1691 0.6709 0.7671
C53 C 0.0499(11) 0.6398(5) 0.7111(5)
H52 H 0.0857 0.6022 0.7103
C54 C -0.0481(11) 0.6517(5) 0.6787(4)
C55 C -0.2052(11) 0.7227(6) 0.6435(4)
H53 H -0.2693 0.6923 0.6433
H54 H -0.1728 0.7281 0.6077
H55 H -0.2425 0.7588 0.6560
C56 C -0.0980(13) 0.6059(6) 0.6433(5)
H56 H -0.0819 0.6166 0.6065
H57 H -0.1886 0.6018 0.6488
H58 H -0.0563 0.5692 0.6511
C57 C 0.0281(9) 0.6568(5) 0.2940(4)
C58 C -0.0168(12) 0.7118(5) 0.2835(5)
H59 H 0.0305 0.7375 0.2620
C59 C -0.1293(13) 0.7291(5) 0.3041(6)
H60 H -0.1591 0.7668 0.2959
C60 C -0.1995(11) 0.6952(7) 0.3354(5)
H61 H -0.2779 0.7079 0.3489
C61 C -0.1527(11) 0.6408(6) 0.3471(5)
H62 H -0.1983 0.6163 0.3703
C62 C -0.0415(11) 0.6217(4) 0.3258(5)
C63 C 0.1490(10) 0.6378(6) 0.2707(5)
H63 H 0.1349 0.6033 0.2490
H64 H 0.2085 0.6287 0.2989
H65 H 0.1832 0.6687 0.2486
C64 C 0.0051(14) 0.5604(5) 0.3387(7)
H66 H 0.0836 0.5628 0.3588
H67 H 0.0199 0.5392 0.3058
H68 H -0.0584 0.5402 0.3597
Cl1 Cl 0.2951(11) 0.4661(5) 0.4949(5)
Cl2 Cl 0.0684(12) 0.5111(4) 0.5389(6)
Cl3 Cl 0.0597(12) 0.4245(4) 0.4635(6)
C65 C 0.145(2) 0.4513(12) 0.5137(10)
H69 H 0.1483 0.4213 0.5420
Cl4? Cl 0.276(4) 0.4509(15) 0.5043(12)
Cl5? Cl 0.037(3) 0.4875(15) 0.5498(9)
Cl6? Cl 0.048(2) 0.4494(15) 0.4390(9)
C66? C 0.131(2) 0.4876(14) 0.4913(12)
H70? H 0.1483 0.5282 0.4801
loop_
_geom_bond_atom_site_label_1
_geom_bond_atom_site_label_2
_geom_bond_site_symmetry_1
_geom_bond_site_symmetry_2
N1 C7 1_555 1_555
N2 C16 1_555 1_555
N3 C8 1_555 1_555
N4 C25 1_555 1_555
N5 C9 1_555 1_555
N6 C34 1_555 1_555
N7 C17 1_555 1_555
N8 C36 1_555 1_555
N9 C18 1_555 1_555
N10 C26 1_555 1_555
N11 C27 1_555 1_555
N12 C35 1_555 1_555
C1 C2 1_555 1_555
C2 H1 1_555 1_555
C3 C2 1_555 1_555
C4 C3 1_555 1_555
H2 C4 1_555 1_555
C5 C4 1_555 1_555
C6 C1 1_555 1_555
H3 C6 1_555 1_555
C7 C1 1_555 1_555
H4 C7 1_555 1_555
C8 C3 1_555 1_555
H5 C8 1_555 1_555
C9 C5 1_555 1_555
H6 C9 1_555 1_555
C10 C11 1_555 1_555
C11 H7 1_555 1_555
C12 C11 1_555 1_555
C13 C12 1_555 1_555
H8 C13 1_555 1_555
C14 C13 1_555 1_555
C15 C10 1_555 1_555
H9 C15 1_555 1_555
C16 C10 1_555 1_555
H10 C16 1_555 1_555
C17 C12 1_555 1_555
H11 C17 1_555 1_555
C18 C14 1_555 1_555
H12 C18 1_555 1_555
C19 C20 1_555 1_555
C20 H13 1_555 1_555
C21 C20 1_555 1_555
C22 C21 1_555 1_555
H14 C22 1_555 1_555
C23 C22 1_555 1_555
C24 C19 1_555 1_555
H15 C24 1_555 1_555
C25 C19 1_555 1_555
H16 C25 1_555 1_555
C26 C21 1_555 1_555
H17 C26 1_555 1_555
C27 C23 1_555 1_555
H18 C27 1_555 1_555
C28 C29 1_555 1_555
C29 H19 1_555 1_555
C30 C29 1_555 1_555
C31 C30 1_555 1_555
H20 C31 1_555 1_555
C32 C31 1_555 1_555
C33 C28 1_555 1_555
H21 C33 1_555 1_555
C34 C28 1_555 1_555
H22 C34 1_555 1_555
C35 C30 1_555 1_555
H23 C35 1_555 1_555
C36 C32 1_555 1_555
H24 C36 1_555 1_555
C37 N1 1_555 1_555
H25 C37 1_555 1_555
H26 C37 1_555 1_555
C38 N2 1_555 1_555
H27 C38 1_555 1_555
H28 C38 1_555 1_555
C39 N3 1_555 1_555
H29 C39 1_555 1_555
H30 C39 1_555 1_555
C40 N4 1_555 1_555
H31 C40 1_555 1_555
H32 C40 1_555 1_555
C41 N5 1_555 1_555
H33 C41 1_555 1_555
H34 C41 1_555 1_555
C42 N6 1_555 1_555
H35 C42 1_555 1_555
H36 C42 1_555 1_555
C43 N7 1_555 1_555
H37 C43 1_555 1_555
H38 C43 1_555 1_555
C44 N8 1_555 1_555
H39 C44 1_555 1_555
H40 C44 1_555 1_555
C45 N9 1_555 1_555
H41 C45 1_555 1_555
H42 C45 1_555 1_555
C46 N10 1_555 1_555
H43 C46 1_555 1_555
H44 C46 1_555 1_555
C47 N11 1_555 1_555
H45 C47 1_555 1_555
H46 C47 1_555 1_555
C48 N12 1_555 1_555
H47 C48 1_555 1_555
H48 C48 1_555 1_555
C49 C50 1_555 1_555
C50 H49 1_555 1_555
C51 C50 1_555 1_555
H50 C51 1_555 1_555
C52 C51 1_555 1_555
H51 C52 1_555 1_555
C53 C52 1_555 1_555
H52 C53 1_555 1_555
C54 C49 1_555 1_555
C55 C49 1_555 1_555
H53 C55 1_555 1_555
H54 C55 1_555 1_555
H55 C55 1_555 1_555
C56 C54 1_555 1_555
H56 C56 1_555 1_555
H57 C56 1_555 1_555
H58 C56 1_555 1_555
C57 C58 1_555 1_555
C58 H59 1_555 1_555
C59 C58 1_555 1_555
H60 C59 1_555 1_555
C60 C59 1_555 1_555
H61 C60 1_555 1_555
C61 C60 1_555 1_555
H62 C61 1_555 1_555
C62 C57 1_555 1_555
C63 C57 1_555 1_555
H63 C63 1_555 1_555
H64 C63 1_555 1_555
H65 C63 1_555 1_555
C64 C62 1_555 1_555
H66 C64 1_555 1_555
H67 C64 1_555 1_555
H68 C64 1_555 1_555
Cl1 C65 1_555 1_555
Cl2 C65 1_555 1_555
Cl3 C65 1_555 1_555
C65 H69 1_555 1_555
C5 C6 1_555 1_555
C14 C15 1_555 1_555
C23 C24 1_555 1_555
C32 C33 1_555 1_555
C37 C38 1_555 1_555
C39 C40 1_555 1_555
C41 C42 1_555 1_555
C43 C44 1_555 1_555
C45 C46 1_555 1_555
C47 C48 1_555 1_555
C53 C54 1_555 1_555
C61 C62 1_555 1_555

#END
