
#######################################################################
#
#                 Cambridge Crystallographic Data Centre
#                                CCDC 
#
#######################################################################
#
# If this CIF has been generated from an entry in the Cambridge 
# Structural Database, then it will include bibliographic, chemical, 
# crystal, experimental, refinement or atomic coordinate data resulting 
# from the CCDC's data processing and validation procedures.
#
#######################################################################

data_IFAKIM
_chemical_formula_moiety         'C48 H48 N12,5.66(C1 H1 Cl3)'
_chemical_name_systematic        
'5,8,16,19,27,30,38,41,46,49,54,57-dodecaazaheptacyclo[21.21.6.6^12,34^.1^3,43^.1^10,14^.1^21,25^.1^32,36^]hexaconta-1,3(51),4,8,10(60),11,13,15,19,21(59),22,24,26,30,32(52),33,35,37,41,43,45,49,53,57-tetracosaene chloroform solvate'
_symmetry_cell_setting           triclinic
_symmetry_space_group_name_H-M   'P -1'
_symmetry_Int_Tables_number      2
_space_group_name_Hall           '-P 1'
loop_
_symmetry_equiv_pos_site_id
_symmetry_equiv_pos_as_xyz
1 x,y,z
2 -x,-y,-z
_cell_length_a                   17.1487(11)
_cell_length_b                   18.3913(11)
_cell_length_c                   24.7171(15)
_cell_angle_alpha                73.378(2)
_cell_angle_beta                 72.980(2)
_cell_angle_gamma                76.700(2)
_cell_volume                     7050.88
_exptl_crystal_colour            colorless
_exptl_crystal_description       block
_cell_formula_units_Z            4
loop_
_atom_site_label
_atom_site_type_symbol
_atom_site_fract_x
_atom_site_fract_y
_atom_site_fract_z
N1 N 1.11289(16) 0.58128(16) 0.51061(12)
N2 N 1.02117(17) 0.64757(16) 0.41994(11)
N3 N 0.7703(2) 0.95659(17) 0.47381(14)
N4 N 0.7035(2) 0.98845(17) 0.59349(15)
N5 N 0.55234(19) 0.55884(18) 0.57639(13)
N6 N 0.63150(18) 0.66406(17) 0.46892(12)
N7 N 0.73637(16) 0.36908(15) 0.77867(13)
N8 N 0.91379(16) 0.37346(14) 0.74203(12)
N9 N 1.02775(17) 0.67082(15) 0.75926(12)
N10 N 0.91103(19) 0.80861(18) 0.78253(14)
N11 N 0.52440(19) 0.78251(19) 0.84003(15)
N12 N 0.45878(18) 0.66069(16) 0.81927(13)
C1 C 1.03273(17) 0.54884(17) 0.61053(13)
C2 C 0.99323(18) 0.49062(17) 0.65168(13)
H1 H 0.9853 0.4487 0.6398
C3 C 0.96522(18) 0.49346(17) 0.71033(13)
C4 C 0.97836(18) 0.55463(17) 0.72741(13)
H2 H 0.9601 0.5566 0.7672
C5 C 1.01830(18) 0.61349(17) 0.68647(13)
C6 C 1.04441(18) 0.61059(17) 0.62799(13)
H3 H 1.0703 0.6508 0.5999
C7 C 1.06398(18) 0.54036(17) 0.54985(14)
H4 H 1.0463 0.5019 0.5396
C8 C 0.92539(18) 0.43155(17) 0.75461(13)
H5 H 0.9078 0.4353 0.7940
C9 C 1.03633(19) 0.67532(17) 0.70605(14)
H6 H 1.0547 0.7193 0.6780
C10 C 0.7749(2) 0.8243(2) 0.76879(16)
C11 C 0.6949(2) 0.8077(2) 0.79348(17)
H7 H 0.6824 0.7745 0.8311
C12 C 0.6331(2) 0.8394(2) 0.76341(17)
C13 C 0.6520(2) 0.8871(2) 0.70814(17)
H8 H 0.6100 0.9085 0.6875
C14 C 0.7321(2) 0.9041(2) 0.68234(17)
C15 C 0.7925(2) 0.8728(2) 0.71292(17)
H9 H 0.8468 0.8844 0.6958
C16 C 0.8401(2) 0.7897(2) 0.80017(17)
H10 H 0.8284 0.7514 0.8353
C17 C 0.5477(2) 0.8235(2) 0.78909(18)
H11 H 0.5082 0.8450 0.7664
C18 C 0.7536(2) 0.9565(2) 0.62437(18)
H12 H 0.8088 0.9665 0.6097
C19 C 0.7742(2) 0.82856(19) 0.46332(14)
C20 C 0.7252(2) 0.7756(2) 0.46811(14)
H13 H 0.6668 0.7887 0.4791
C21 C 0.7606(2) 0.70287(19) 0.45698(14)
C22 C 0.8461(2) 0.68460(19) 0.44145(14)
H14 H 0.8708 0.6357 0.4337
C23 C 0.8963(2) 0.73701(19) 0.43705(14)
C24 C 0.8603(2) 0.8089(2) 0.44750(14)
H15 H 0.8942 0.8451 0.4439
C25 C 0.7334(2) 0.9041(2) 0.47524(15)
H16 H 0.6747 0.9139 0.4847
C26 C 0.7093(2) 0.6471(2) 0.46104(14)
H17 H 0.7352 0.5965 0.4577
C27 C 0.9866(2) 0.7147(2) 0.42360(14)
H18 H 1.0200 0.7523 0.4175
C28 C 0.65038(18) 0.47023(17) 0.72670(14)
C29 C 0.61758(19) 0.50720(17) 0.77209(14)
H19 H 0.6363 0.4878 0.8069
C30 C 0.55726(19) 0.57264(17) 0.76701(14)
C31 C 0.53086(19) 0.60092(18) 0.71529(15)
H20 H 0.4903 0.6458 0.7113
C32 C 0.5632(2) 0.56422(18) 0.66982(15)
C33 C 0.62335(19) 0.49860(18) 0.67569(15)
H21 H 0.6459 0.4733 0.6446
C34 C 0.71257(18) 0.39976(17) 0.73236(14)
H22 H 0.7354 0.3768 0.7001
C35 C 0.5211(2) 0.60768(18) 0.81681(15)
H23 H 0.5456 0.5898 0.8491
C36 C 0.5323(2) 0.5943(2) 0.61646(16)
H24 H 0.4961 0.6420 0.6122
C37 C 0.7182(3) 1.0276(2) 0.48736(19)
H25 H 0.6593 1.0228 0.4953
H26 H 0.7299 1.0711 0.4533
C38 C 0.7335(3) 1.0439(2) 0.5394(2)
H27 H 0.7935 1.0422 0.5334
H28 H 0.7055 1.0963 0.5430
C39 C 0.87573(19) 0.31552(17) 0.79042(15)
H29 H 0.8599 0.3337 0.8268
H30 H 0.9158 0.2673 0.7955
C40 C 0.79946(19) 0.30030(17) 0.77852(16)
H31 H 0.8141 0.2871 0.7403
H32 H 0.7778 0.2564 0.8088
C41 C 0.9718(2) 0.7682(2) 0.81552(17)
H33 H 0.9483 0.7274 0.8481
H34 H 0.9873 0.8044 0.8320
C42 C 1.0478(2) 0.7329(2) 0.77575(16)
H35 H 1.0668 0.7727 0.7405
H36 H 1.0930 0.7128 0.7961
C43 C 0.4384(2) 0.7735(2) 0.8594(2)
H37 H 0.4093 0.8043 0.8290
H38 H 0.4126 0.7930 0.8951
C44 C 0.4289(2) 0.6891(2) 0.87219(18)
H39 H 0.4605 0.6578 0.9010
H40 H 0.3700 0.6837 0.8891
C45 C 0.5861(3) 0.6048(2) 0.47129(16)
H41 H 0.6243 0.5556 0.4703
H42 H 0.5626 0.6194 0.4368
C46 C 0.5171(2) 0.5942(2) 0.52604(16)
H43 H 0.4834 0.6447 0.5303
H44 H 0.4808 0.5611 0.5236
C47 C 1.1109(2) 0.6307(2) 0.40685(14)
H45 H 1.1333 0.6764 0.4055
H46 H 1.1326 0.6182 0.3683
C48 C 1.1383(2) 0.5632(2) 0.45330(14)
H47 H 1.1140 0.5183 0.4554
H48 H 1.1992 0.5493 0.4424
N13 N 0.36793(18) 0.35475(17) 1.02492(12)
N14 N 0.48375(19) 0.40902(18) 0.91337(13)
N15 N 0.66203(17) 0.22260(15) 0.71765(12)
N16 N 0.64475(16) 0.06023(15) 0.75665(13)
N17 N 0.36144(17) 0.50222(16) 0.67971(13)
N18 N 0.22040(18) 0.46196(15) 0.65807(13)
N19 N 0.34309(19) -0.00164(16) 1.07760(12)
N20 N 0.40372(18) -0.09658(15) 0.99016(12)
N21 N 0.30484(16) -0.01534(15) 0.74228(12)
N22 N 0.16237(17) 0.10735(15) 0.72287(12)
N23 N 0.03162(18) 0.25645(17) 1.02560(12)
N24 N -0.00461(16) 0.31636(16) 0.90821(12)
C49 C 0.37637(19) -0.03622(16) 0.87121(14)
H49 H 0.3303 -0.0553 0.8996
C50 C 0.44481(19) -0.03036(16) 0.88872(14)
C51 C 0.51167(19) -0.00092(16) 0.84689(14)
H50 H 0.5583 0.0033 0.8585
C52 C 0.51058(18) 0.02249(16) 0.78785(14)
C53 C 0.44209(19) 0.01524(17) 0.77129(14)
H51 H 0.4410 0.0306 0.7314
C54 C 0.37483(18) -0.01455(16) 0.81311(14)
C55 C 0.4519(2) -0.05608(17) 0.94945(14)
H52 H 0.4951 -0.0415 0.9588
C56 C 0.58126(19) 0.05329(17) 0.74335(15)
H53 H 0.5791 0.0683 0.7036
C57 C 0.30314(19) -0.02354(17) 0.79484(14)
H54 H 0.2545 -0.0359 0.8237
C58 C 0.1568(2) 0.23454(18) 0.73383(14)
C59 C 0.10502(19) 0.22265(18) 0.79017(14)
H55 H 0.0886 0.1737 0.8085
C60 C 0.07752(19) 0.28111(18) 0.81952(14)
C61 C 0.10202(19) 0.35325(17) 0.79198(14)
H56 H 0.0831 0.3938 0.8116
C62 C 0.15358(19) 0.36592(18) 0.73629(14)
C63 C 0.1814(2) 0.30609(18) 0.70737(14)
H57 H 0.2172 0.3143 0.6695
C64 C 0.1874(2) 0.17191(18) 0.70316(14)
H58 H 0.2275 0.1801 0.6671
C65 C 0.02200(19) 0.26714(18) 0.87804(14)
H59 H 0.0052 0.2181 0.8940
C66 C 0.17772(19) 0.44288(18) 0.70982(14)
H60 H 0.1604 0.4799 0.7327
C67 C 0.1697(2) 0.2423(2) 1.03694(14)
C68 C 0.2327(2) 0.2814(2) 1.03102(14)
H61 H 0.2240 0.3360 1.0201
C69 C 0.3093(2) 0.24168(19) 1.04084(14)
C70 C 0.3209(2) 0.16235(19) 1.05687(14)
H62 H 0.3724 0.1349 1.0643
C71 C 0.2580(2) 0.12150(19) 1.06244(14)
C72 C 0.1822(2) 0.1623(2) 1.05310(14)
H63 H 0.1387 0.1354 1.0578
C73 C 0.0901(2) 0.2871(2) 1.02598(15)
H64 H 0.0826 0.3415 1.0189
C74 C 0.3772(2) 0.2823(2) 1.03430(14)
H65 H 0.4299 0.2532 1.0372
C75 C 0.2723(2) 0.0370(2) 1.07650(15)
H66 H 0.2269 0.0107 1.0850
C76 C 0.4653(2) 0.39588(18) 0.82435(14)
C77 C 0.4272(2) 0.42998(18) 0.77935(15)
H67 H 0.3834 0.4720 0.7829
C78 C 0.45283(19) 0.40309(17) 0.72816(14)
C79 C 0.51605(19) 0.34068(18) 0.72352(14)
H68 H 0.5332 0.3219 0.6891
C80 C 0.55436(19) 0.30551(17) 0.76943(14)
C81 C 0.5286(2) 0.33317(18) 0.81966(14)
H69 H 0.5542 0.3092 0.8510
C82 C 0.4163(2) 0.44311(18) 0.67838(15)
H70 H 0.4345 0.4239 0.6442
C83 C 0.62551(19) 0.24305(17) 0.76448(14)
H71 H 0.6449 0.2168 0.7984
C84 C 0.4418(2) 0.42890(19) 0.87582(15)
H72 H 0.3934 0.4663 0.8808
C85 C 0.3516(2) -0.08539(19) 1.09214(15)
H73 H 0.2994 -0.1006 1.0929
H74 H 0.3624 -0.1064 1.1313
C86 C 0.4219(2) -0.11835(19) 1.04772(15)
H75 H 0.4729 -0.0994 1.0447
H76 H 0.4317 -0.1751 1.0609
C87 C -0.0430(2) 0.3087(2) 1.01419(16)
H77 H -0.0338 0.3625 1.0052
H78 H -0.0892 0.3005 1.0493
C88 C -0.0652(2) 0.2947(2) 0.96335(15)
H79 H -0.0689 0.2396 0.9710
H80 H -0.1202 0.3247 0.9600
C89 C 0.2318(2) -0.02535(18) 0.72790(15)
H81 H 0.1888 -0.0393 0.7641
H82 H 0.2464 -0.0675 0.7075
C90 C 0.1985(2) 0.04923(19) 0.68895(15)
H83 H 0.2439 0.0678 0.6559
H84 H 0.1561 0.0397 0.6730
C91 C 0.3318(2) 0.53865(19) 0.62735(16)
H85 H 0.3610 0.5101 0.5968
H86 H 0.3439 0.5919 0.6127
C92 C 0.2395(2) 0.54000(18) 0.63980(16)
H87 H 0.2103 0.5677 0.6708
H88 H 0.2198 0.5678 0.6043
C93 C 0.4561(3) 0.4478(2) 0.96110(16)
H89 H 0.4048 0.4848 0.9572
H90 H 0.4989 0.4767 0.9599
C94 C 0.4400(2) 0.3884(2) 1.01853(16)
H91 H 0.4889 0.3475 1.0198
H92 H 0.4308 0.4129 1.0511
C95 C 0.7319(2) 0.15974(19) 0.72030(16)
H93 H 0.7438 0.1463 0.7591
H94 H 0.7816 0.1761 0.6907
C96 C 0.7113(2) 0.08987(19) 0.70907(16)
H95 H 0.6943 0.1045 0.6719
H96 H 0.7608 0.0496 0.7059
C97 C 0.7380(3) 0.1878(3) 0.99210(19)
H97 H 0.7023 0.1468 1.0074
Cl1 Cl 0.81970(13) 0.16228(19) 0.93649(12)
Cl2 Cl 0.7618(2) 0.2064(3) 1.0515(2)
Cl3 Cl 0.6784(3) 0.27859(14) 0.95343(17)
C98 C 1.2199(4) 0.7122(3) 0.4930(2)
H98 H 1.1684 0.6888 0.5053
Cl4 Cl 1.2180(2) 0.77936(16) 0.43422(12)
Cl5 Cl 1.2313(6) 0.7405(7) 0.5510(5)
Cl6 Cl 1.31900(15) 0.63253(17) 0.46922(12)
Cl7 Cl 0.23541(9) 0.14345(11) 0.90138(7)
Cl8 Cl 0.31650(9) 0.25164(8) 0.80397(5)
Cl9 Cl 0.38535(11) 0.18545(12) 0.90288(7)
C99 C 0.3310(3) 0.1705(2) 0.85951(19)
H99 H 0.3639 0.1274 0.8413
Cl10 Cl 0.9491(2) 0.98415(17) 0.76907(15)
Cl11 Cl 0.91293(17) 1.09805(13) 0.83618(13)
Cl12 Cl 0.95922(12) 1.14506(12) 0.71096(10)
C100 C 0.9739(4) 1.0692(4) 0.7722(4)
H100 H 1.0333 1.0600 0.7732
Cl13 Cl 0.43949(8) 0.78873(10) 0.41330(9)
Cl14 Cl 0.54346(11) 0.90299(7) 0.39253(6)
Cl15 Cl 0.59354(9) 0.78503(8) 0.32956(6)
C101 C 0.5404(3) 0.8072(2) 0.39660(19)
H101 H 0.5683 0.7733 0.4274
Cl16 Cl 0.26454(15) 0.62084(12) 0.7984(2)
Cl17 Cl 0.2350(4) 0.7748(3) 0.8070(3)
Cl18 Cl 0.2958(2) 0.7418(3) 0.69467(15)
C102 C 0.2989(4) 0.7095(4) 0.7669(3)
H102 H 0.3569 0.7042 0.7699
Cl19 Cl 0.75059(9) 0.59074(9) 0.83681(6)
Cl20 Cl 0.87589(7) 0.52337(10) 0.89935(5)
Cl21 Cl 0.73173(11) 0.45173(8) 0.92493(9)
C103 C 0.7693(3) 0.5387(3) 0.9044(2)
H103 H 0.7399 0.5693 0.9342
Cl22 Cl 0.5796(4) 0.7914(3) 0.6205(3)
Cl23 Cl 0.44703(12) 0.91014(13) 0.65536(9)
Cl24 Cl 0.50246(13) 0.8917(2) 0.53881(9)
C104 C 0.5334(4) 0.8837(4) 0.6027(3)
H104 H 0.5745 0.9188 0.5940
Cl25 Cl 0.12441(11) 0.48938(7) 0.95910(6)
Cl26 Cl 0.08131(6) 0.53454(5) 0.84860(5)
Cl27 Cl 0.22005(7) 0.41527(7) 0.86777(6)
C105 C 0.1212(3) 0.4576(2) 0.89922(18)
H105 H 0.0839 0.4179 0.9134
Cl28 Cl 0.73836(10) 0.68195(9) 0.69844(6)
Cl29 Cl 0.85604(12) 0.74946(9) 0.59931(7)
C106 C 0.8217(3) 0.6637(2) 0.64138(17)
H106 H 0.8677 0.6295 0.6580
Cl30 Cl 0.79461(14) 0.61704(11) 0.59939(8)
Cl31 Cl 1.0166(5) 0.9085(5) 0.5542(4)
Cl32 Cl 1.1025(4) 0.9093(3) 0.6404(2)
Cl33 Cl 0.9700(4) 1.0338(5) 0.6102(4)
C107 C 1.0542(6) 0.9670(6) 0.5844(4)
H107 H 1.0957 0.9955 0.5530
H108? H 0.6840 0.1684 1.0053
Cl34? Cl 0.8283(3) 0.1078(3) 0.9806(3)
Cl35? Cl 0.7633(8) 0.2077(11) 1.0480(5)
Cl36? Cl 0.7413(6) 0.2509(4) 0.9395(3)
H109? H 1.1989 0.6620 0.5076
Cl37? Cl 1.1283(4) 0.8042(2) 0.4758(3)
Cl38? Cl 1.2574(6) 0.7337(7) 0.5439(4)
Cl39? Cl 1.2735(3) 0.7241(4) 0.42719(18)
Cl40? Cl 1.0092(8) 0.9965(8) 0.5374(5)
Cl41? Cl 1.0507(11) 0.9106(9) 0.6385(7)
Cl42? Cl 0.9780(8) 1.0545(8) 0.6390(6)
C108? C 0.9728(17) 0.9785(12) 0.6124(8)
H110? H 0.9175 0.9615 0.6267
Cl43? Cl 0.4519(6) 0.8181(5) 0.5566(3)
Cl44? Cl 0.4276(7) 0.9019(6) 0.6403(5)
Cl45? Cl 0.5796(7) 0.7871(4) 0.6285(5)
C109? C 0.5027(11) 0.8523(13) 0.5943(9)
H111? H 0.5330 0.8923 0.5642
Cl46? Cl 0.9845(5) 0.9560(3) 0.7931(3)
Cl47? Cl 1.0013(4) 1.0283(4) 0.8761(2)
Cl48? Cl 0.9118(3) 1.1113(3) 0.7918(4)
C110? C 0.9969(8) 1.0374(7) 0.8095(6)
H112? H 1.0493 1.0541 0.7829
Cl49? Cl 0.2892(4) 0.6418(3) 0.7450(3)
Cl50? Cl 0.2435(4) 0.6310(3) 0.8628(3)
Cl51? Cl 0.2459(9) 0.7834(6) 0.7909(7)
C111? C 0.2922(11) 0.6873(6) 0.7966(4)
H113? H 0.3513 0.6833 0.7967
Cl52? Cl 1.0105(5) 0.8707(5) 0.5937(4)
Cl53? Cl 1.1288(6) 0.8926(6) 0.6399(5)
C112? C 1.0218(10) 0.9181(10) 0.6429(9)
H114? H 0.9867 0.9017 0.6831
Cl54? Cl 0.9967(9) 1.0169(8) 0.6121(6)
Cl55? Cl 1.0561(3) 0.9146(3) 0.88452(17)
Cl56? Cl 0.9574(3) 0.9414(3) 0.9965(2)
Cl57? Cl 1.1022(5) 1.0138(4) 0.9354(3)
C113? C 1.0540(11) 0.9327(9) 0.9496(7)
H115? H 1.0889 0.8878 0.9696
loop_
_geom_bond_atom_site_label_1
_geom_bond_atom_site_label_2
_geom_bond_site_symmetry_1
_geom_bond_site_symmetry_2
N1 C7 1_555 1_555
N2 C27 1_555 1_555
N3 C25 1_555 1_555
N4 C18 1_555 1_555
N5 C36 1_555 1_555
N6 C26 1_555 1_555
N7 C34 1_555 1_555
N8 C8 1_555 1_555
N9 C9 1_555 1_555
N10 C16 1_555 1_555
N11 C17 1_555 1_555
N12 C35 1_555 1_555
C1 C2 1_555 1_555
C2 H1 1_555 1_555
C3 C2 1_555 1_555
C4 C3 1_555 1_555
H2 C4 1_555 1_555
C5 C4 1_555 1_555
C6 C1 1_555 1_555
H3 C6 1_555 1_555
C7 C1 1_555 1_555
H4 C7 1_555 1_555
C8 C3 1_555 1_555
H5 C8 1_555 1_555
C9 C5 1_555 1_555
H6 C9 1_555 1_555
C10 C11 1_555 1_555
C11 H7 1_555 1_555
C12 C11 1_555 1_555
C13 C12 1_555 1_555
H8 C13 1_555 1_555
C14 C13 1_555 1_555
C15 C10 1_555 1_555
H9 C15 1_555 1_555
C16 C10 1_555 1_555
H10 C16 1_555 1_555
C17 C12 1_555 1_555
H11 C17 1_555 1_555
C18 C14 1_555 1_555
H12 C18 1_555 1_555
C19 C20 1_555 1_555
C20 H13 1_555 1_555
C21 C20 1_555 1_555
C22 C21 1_555 1_555
H14 C22 1_555 1_555
C23 C22 1_555 1_555
C24 C19 1_555 1_555
H15 C24 1_555 1_555
C25 C19 1_555 1_555
H16 C25 1_555 1_555
C26 C21 1_555 1_555
H17 C26 1_555 1_555
C27 C23 1_555 1_555
H18 C27 1_555 1_555
C28 C29 1_555 1_555
C29 H19 1_555 1_555
C30 C29 1_555 1_555
C31 C30 1_555 1_555
H20 C31 1_555 1_555
C32 C31 1_555 1_555
C33 C28 1_555 1_555
H21 C33 1_555 1_555
C34 C28 1_555 1_555
H22 C34 1_555 1_555
C35 C30 1_555 1_555
H23 C35 1_555 1_555
C36 C32 1_555 1_555
H24 C36 1_555 1_555
C37 N3 1_555 1_555
H25 C37 1_555 1_555
H26 C37 1_555 1_555
C38 N4 1_555 1_555
H27 C38 1_555 1_555
H28 C38 1_555 1_555
C39 N8 1_555 1_555
H29 C39 1_555 1_555
H30 C39 1_555 1_555
C40 N7 1_555 1_555
H31 C40 1_555 1_555
H32 C40 1_555 1_555
C41 N10 1_555 1_555
H33 C41 1_555 1_555
H34 C41 1_555 1_555
C42 N9 1_555 1_555
H35 C42 1_555 1_555
H36 C42 1_555 1_555
C43 N11 1_555 1_555
H37 C43 1_555 1_555
H38 C43 1_555 1_555
C44 N12 1_555 1_555
H39 C44 1_555 1_555
H40 C44 1_555 1_555
C45 N6 1_555 1_555
H41 C45 1_555 1_555
H42 C45 1_555 1_555
C46 N5 1_555 1_555
H43 C46 1_555 1_555
H44 C46 1_555 1_555
C47 N2 1_555 1_555
H45 C47 1_555 1_555
H46 C47 1_555 1_555
C48 N1 1_555 1_555
H47 C48 1_555 1_555
H48 C48 1_555 1_555
N13 C74 1_555 1_555
N14 C84 1_555 1_555
N15 C83 1_555 1_555
N16 C56 1_555 1_555
N17 C82 1_555 1_555
N18 C66 1_555 1_555
N19 C75 1_555 1_555
N20 C55 1_555 1_555
N21 C57 1_555 1_555
N22 C64 1_555 1_555
N23 C73 1_555 1_555
N24 C65 1_555 1_555
C49 H49 1_555 1_555
C50 C49 1_555 1_555
C51 C50 1_555 1_555
H50 C51 1_555 1_555
C52 C51 1_555 1_555
C53 C52 1_555 1_555
H51 C53 1_555 1_555
C54 C49 1_555 1_555
C55 C50 1_555 1_555
H52 C55 1_555 1_555
C56 C52 1_555 1_555
H53 C56 1_555 1_555
C57 C54 1_555 1_555
H54 C57 1_555 1_555
C58 C59 1_555 1_555
C59 H55 1_555 1_555
C60 C59 1_555 1_555
C61 C60 1_555 1_555
H56 C61 1_555 1_555
C62 C61 1_555 1_555
C63 C58 1_555 1_555
H57 C63 1_555 1_555
C64 C58 1_555 1_555
H58 C64 1_555 1_555
C65 C60 1_555 1_555
H59 C65 1_555 1_555
C66 C62 1_555 1_555
H60 C66 1_555 1_555
C67 C68 1_555 1_555
C68 H61 1_555 1_555
C69 C68 1_555 1_555
C70 C69 1_555 1_555
H62 C70 1_555 1_555
C71 C70 1_555 1_555
C72 C67 1_555 1_555
H63 C72 1_555 1_555
C73 C67 1_555 1_555
H64 C73 1_555 1_555
C74 C69 1_555 1_555
H65 C74 1_555 1_555
C75 C71 1_555 1_555
H66 C75 1_555 1_555
C76 C77 1_555 1_555
C77 H67 1_555 1_555
C78 C77 1_555 1_555
C79 C78 1_555 1_555
H68 C79 1_555 1_555
C80 C79 1_555 1_555
C81 C76 1_555 1_555
H69 C81 1_555 1_555
C82 C78 1_555 1_555
H70 C82 1_555 1_555
C83 C80 1_555 1_555
H71 C83 1_555 1_555
C84 C76 1_555 1_555
H72 C84 1_555 1_555
C85 N19 1_555 1_555
H73 C85 1_555 1_555
H74 C85 1_555 1_555
C86 N20 1_555 1_555
H75 C86 1_555 1_555
H76 C86 1_555 1_555
C87 N23 1_555 1_555
H77 C87 1_555 1_555
H78 C87 1_555 1_555
C88 N24 1_555 1_555
H79 C88 1_555 1_555
H80 C88 1_555 1_555
C89 N21 1_555 1_555
H81 C89 1_555 1_555
H82 C89 1_555 1_555
C90 N22 1_555 1_555
H83 C90 1_555 1_555
H84 C90 1_555 1_555
C91 N17 1_555 1_555
H85 C91 1_555 1_555
H86 C91 1_555 1_555
C92 N18 1_555 1_555
H87 C92 1_555 1_555
H88 C92 1_555 1_555
C93 N14 1_555 1_555
H89 C93 1_555 1_555
H90 C93 1_555 1_555
C94 N13 1_555 1_555
H91 C94 1_555 1_555
H92 C94 1_555 1_555
C95 N15 1_555 1_555
H93 C95 1_555 1_555
H94 C95 1_555 1_555
C96 N16 1_555 1_555
H95 C96 1_555 1_555
H96 C96 1_555 1_555
C97 H97 1_555 1_555
Cl1 C97 1_555 1_555
Cl2 C97 1_555 1_555
Cl3 C97 1_555 1_555
C98 H98 1_555 1_555
Cl4 C98 1_555 1_555
Cl5 C98 1_555 1_555
Cl6 C98 1_555 1_555
Cl7 C99 1_555 1_555
Cl8 C99 1_555 1_555
Cl9 C99 1_555 1_555
C99 H99 1_555 1_555
Cl10 C100 1_555 1_555
Cl11 C100 1_555 1_555
Cl12 C100 1_555 1_555
C100 H100 1_555 1_555
Cl13 C101 1_555 1_555
Cl14 C101 1_555 1_555
Cl15 C101 1_555 1_555
C101 H101 1_555 1_555
Cl16 C102 1_555 1_555
Cl17 C102 1_555 1_555
Cl18 C102 1_555 1_555
C102 H102 1_555 1_555
Cl19 C103 1_555 1_555
Cl20 C103 1_555 1_555
Cl21 C103 1_555 1_555
C103 H103 1_555 1_555
Cl22 C104 1_555 1_555
Cl23 C104 1_555 1_555
Cl24 C104 1_555 1_555
C104 H104 1_555 1_555
Cl25 C105 1_555 1_555
Cl26 C105 1_555 1_555
Cl27 C105 1_555 1_555
C105 H105 1_555 1_555
Cl28 C106 1_555 1_555
Cl29 C106 1_555 1_555
C106 H106 1_555 1_555
Cl30 C106 1_555 1_555
Cl31 C107 1_555 1_555
Cl32 C107 1_555 1_555
Cl33 C107 1_555 1_555
C107 H107 1_555 1_555
C5 C6 1_555 1_555
C14 C15 1_555 1_555
C23 C24 1_555 1_555
C32 C33 1_555 1_555
C37 C38 1_555 1_555
C39 C40 1_555 1_555
C41 C42 1_555 1_555
C43 C44 1_555 1_555
C45 C46 1_555 1_555
C47 C48 1_555 1_555
C53 C54 1_555 1_555
C62 C63 1_555 1_555
C71 C72 1_555 1_555
C80 C81 1_555 1_555
C85 C86 1_555 1_555
C87 C88 1_555 1_555
C89 C90 1_555 1_555
C91 C92 1_555 1_555
C93 C94 1_555 1_555
C95 C96 1_555 1_555

#END
