
#######################################################################
#
#                 Cambridge Crystallographic Data Centre
#                                CCDC 
#
#######################################################################
#
# If this CIF has been generated from an entry in the Cambridge 
# Structural Database, then it will include bibliographic, chemical, 
# crystal, experimental, refinement or atomic coordinate data resulting 
# from the CCDC's data processing and validation procedures.
#
#######################################################################

data_IFAKEI
_chemical_formula_moiety         'C101 H106 Cl10 N24'
_symmetry_cell_setting           rhombohedral
_symmetry_space_group_name_H-M   'R 3'
_symmetry_Int_Tables_number      146
_space_group_name_Hall           'R 3'
loop_
_symmetry_equiv_pos_site_id
_symmetry_equiv_pos_as_xyz
1 x,y,z
2 -y,x-y,z
3 -x+y,-x,z
4 2/3+x,1/3+y,1/3+z
5 2/3-y,1/3+x-y,1/3+z
6 2/3-x+y,1/3-x,1/3+z
7 1/3+x,2/3+y,2/3+z
8 1/3-y,2/3+x-y,2/3+z
9 1/3-x+y,2/3-x,2/3+z
_cell_length_a                   21.3987(16)
_cell_length_b                   21.3987(16)
_cell_length_c                   21.3164(18)
_cell_angle_alpha                90
_cell_angle_beta                 90
_cell_angle_gamma                120
_cell_volume                     8453.16
loop_
_atom_site_label
_atom_site_type_symbol
_atom_site_fract_x
_atom_site_fract_y
_atom_site_fract_z
N1 N 0.3449(3) 0.4987(3) 0.1009(2)
N2 N 0.3835(3) 0.4415(3) 0.2124(2)
N3 N 0.5335(3) 0.6260(3) 0.4657(3)
N4 N 0.1917(3) 0.4067(3) 0.4534(2)
C1 C 0.3559(3) 0.4633(3) 0.3169(3)
C2 C 0.4267(3) 0.5155(3) 0.3332(3)
H1 H 0.4647 0.5299 0.3036
C3 C 0.4412(3) 0.5462(3) 0.3928(3)
C4 C 0.3856(3) 0.5251(3) 0.4366(3)
H2 H 0.3961 0.5459 0.4773
C5 C 0.3149(3) 0.4735(3) 0.4210(3)
C6 C 0.3010(3) 0.4431(3) 0.3609(3)
H3 H 0.2531 0.4079 0.3499
C7 C 0.3373(3) 0.4292(3) 0.2544(3)
H4 H 0.2880 0.3963 0.2454
C8 C 0.5164(3) 0.6024(3) 0.4095(3)
H5 H 0.5523 0.6212 0.3778
C9 C 0.2563(3) 0.4526(3) 0.4670(3)
H6 H 0.2673 0.4738 0.5076
C10 C 0.1373(3) 0.3876(3) 0.5024(3)
H7 H 0.1585 0.4211 0.5383
H8 H 0.1210 0.3380 0.5175
C11 C 0.3564(3) 0.4026(3) 0.1533(3)
H9 H 0.3030 0.3740 0.1545
H10 H 0.3748 0.3688 0.1474
C12 C 0.3804(3) 0.4553(3) 0.0988(3)
H11 H 0.4333 0.4875 0.1006
H12 H 0.3685 0.4283 0.0588
C13 C 0.3856(3) 0.5659(3) 0.1097(3)
H13 H 0.4358 0.5840 0.1155
C14 C 0.3585(3) 0.6172(3) 0.1114(3)
C15 C 0.2833(3) 0.5929(3) 0.1112(3)
H14 H 0.2496 0.5426 0.1109
C16 C 0.6081(3) 0.6818(3) 0.4763(3)
H15 H 0.6350 0.6931 0.4362
H16 H 0.6309 0.6638 0.5061
N1A N 0.5013(3) 0.8462(4) 0.1009(2)
N2A N 0.5585(3) 0.9420(4) 0.2124(2)
N3A N 0.3740(3) 0.9075(4) 0.4657(3)
N4A N 0.5933(3) 0.7850(4) 0.4534(2)
C1A C 0.5367(3) 0.8926(4) 0.3169(3)
C2A C 0.4845(3) 0.9112(4) 0.3332(3)
H1A H 0.4701 0.9348 0.3036
C3A C 0.4538(3) 0.8950(4) 0.3928(3)
C4A C 0.4749(3) 0.8605(4) 0.4366(3)
H2A H 0.4541 0.8502 0.4773
C5A C 0.5265(3) 0.8414(4) 0.4210(3)
C6A C 0.5569(3) 0.8579(4) 0.3609(3)
H3A H 0.5921 0.8452 0.3499
C7A C 0.5708(3) 0.9081(4) 0.2544(3)
H4A H 0.6037 0.8917 0.2454
C8A C 0.3976(3) 0.9140(4) 0.4095(3)
H5A H 0.3788 0.9311 0.3778
C9A C 0.5474(3) 0.8037(4) 0.4670(3)
H6A H 0.5262 0.7935 0.5076
C10A C 0.6124(3) 0.7497(4) 0.5024(3)
H7A H 0.5789 0.7374 0.5383
H8A H 0.6620 0.7830 0.5175
C11A C 0.5974(3) 0.9538(4) 0.1533(3)
H9A H 0.6260 0.9290 0.1545
H10A H 0.6312 1.0060 0.1474
C12A C 0.5447(3) 0.9251(4) 0.0988(3)
H11A H 0.5125 0.9458 0.1006
H12A H 0.5717 0.9402 0.0588
C13A C 0.4341(3) 0.8197(4) 0.1097(3)
H13A H 0.4160 0.8518 0.1155
C14A C 0.3828(3) 0.7413(4) 0.1114(3)
C15A C 0.4071(3) 0.6904(4) 0.1112(3)
H14A H 0.4574 0.7070 0.1109
C16A C 0.3182(3) 0.9263(4) 0.4763(3)
H15A H 0.3069 0.9419 0.4362
H16A H 0.3362 0.9671 0.5061
N1B N 0.1538(4) 0.6551(3) 0.1009(2)
N2B N 0.0580(4) 0.6165(3) 0.2124(2)
N3B N 0.0925(4) 0.4665(3) 0.4657(3)
N4B N 0.2150(4) 0.8083(3) 0.4534(2)
C1B C 0.1074(4) 0.6441(3) 0.3169(3)
C2B C 0.0888(4) 0.5733(3) 0.3332(3)
H1B H 0.0652 0.5353 0.3036
C3B C 0.1050(4) 0.5588(3) 0.3928(3)
C4B C 0.1395(4) 0.6144(3) 0.4366(3)
H2B H 0.1498 0.6039 0.4773
C5B C 0.1586(4) 0.6851(3) 0.4210(3)
C6B C 0.1421(4) 0.6990(3) 0.3609(3)
H3B H 0.1548 0.7469 0.3499
C7B C 0.0919(4) 0.6627(3) 0.2544(3)
H4B H 0.1083 0.7120 0.2454
C8B C 0.0860(4) 0.4836(3) 0.4095(3)
H5B H 0.0689 0.4477 0.3778
C9B C 0.1963(4) 0.7437(3) 0.4670(3)
H6B H 0.2065 0.7327 0.5076
C10B C 0.2503(4) 0.8627(3) 0.5024(3)
H7B H 0.2626 0.8415 0.5383
H8B H 0.2170 0.8790 0.5175
C11B C 0.0462(4) 0.6436(3) 0.1533(3)
H9B H 0.0710 0.6970 0.1545
H10B H -0.0060 0.6252 0.1474
C12B C 0.0749(4) 0.6196(3) 0.0988(3)
H11B H 0.0542 0.5667 0.1006
H12B H 0.0598 0.6315 0.0588
C13B C 0.1803(4) 0.6144(3) 0.1097(3)
H13B H 0.1482 0.5642 0.1155
C14B C 0.2587(4) 0.6415(3) 0.1114(3)
C15B C 0.3096(4) 0.7167(3) 0.1112(3)
H14B H 0.2930 0.7504 0.1109
C16B C 0.0737(4) 0.3919(3) 0.4763(3)
H15B H 0.0581 0.3650 0.4362
H16B H 0.0329 0.3691 0.5061
N5 N 0.6307(3) 0.5327(3) 0.6132(3)
N6 N 0.3993(3) 0.1917(3) 0.6026(3)
N7 N 0.3911(3) 0.2868(3) 0.3780(3)
N8 N 0.4762(3) 0.2920(3) 0.2694(2)
C17 C 0.4652(3) 0.3592(3) 0.4647(3)
C18 C 0.5168(4) 0.4281(3) 0.4831(3)
H17 H 0.5305 0.4671 0.4547
C19 C 0.5492(3) 0.4419(3) 0.5420(3)
C20 C 0.5284(3) 0.3832(3) 0.5833(3)
H18 H 0.5507 0.3910 0.6232
C21 C 0.4753(3) 0.3138(3) 0.5660(3)
C22 C 0.4436(3) 0.3015(3) 0.5062(3)
H19 H 0.4077 0.2542 0.4941
C23 C 0.4346(3) 0.3483(3) 0.4002(3)
H20 H 0.4483 0.3895 0.3747
C24 C 0.6036(4) 0.5155(3) 0.5591(3)
H21 H 0.6191 0.5521 0.5280
C25 C 0.4546(3) 0.2539(3) 0.6108(3)
H22 H 0.4836 0.2619 0.6470
C26 C 0.6318(4) 0.3731(4) 0.2742(3)
H23 H 0.6077 0.4003 0.2747
C27 C 0.5914(3) 0.2977(3) 0.2739(3)
C28 C 0.5116(3) 0.2596(3) 0.2751(3)
H24 H 0.4859 0.2087 0.2804
C29 C 0.3675(3) 0.2844(4) 0.3133(3)
H25 H 0.3844 0.3341 0.2983
H26 H 0.3141 0.2573 0.3116
C30 C 0.3970(3) 0.2484(4) 0.2712(3)
H27 H 0.3823 0.1995 0.2873
H28 H 0.3773 0.2434 0.2283
C31 C 0.6842(3) 0.6098(3) 0.6236(3)
H29 H 0.6643 0.6312 0.6531
H30 H 0.6951 0.6364 0.5835
C32 C 0.7534(3) 0.6157(3) 0.6511(3)
H31 H 0.7846 0.6649 0.6680
H32 H 0.7409 0.5809 0.6860
N5A N 0.4673(3) 0.0980(4) 0.6132(3)
N6A N 0.8083(3) 0.2076(4) 0.6026(3)
N7A N 0.7132(3) 0.1043(4) 0.3780(3)
N8A N 0.7080(3) 0.1842(4) 0.2694(2)
C17A C 0.6408(3) 0.1060(4) 0.4647(3)
C18A C 0.5719(3) 0.0887(5) 0.4831(3)
H17A H 0.5329 0.0634 0.4547
C19A C 0.5581(3) 0.1073(4) 0.5420(3)
C20A C 0.6168(3) 0.1452(4) 0.5833(3)
H18A H 0.6090 0.1597 0.6232
C21A C 0.6862(3) 0.1615(4) 0.5660(3)
C22A C 0.6985(3) 0.1421(4) 0.5062(3)
H19A H 0.7458 0.1535 0.4941
C23A C 0.6517(3) 0.0863(4) 0.4002(3)
H20A H 0.6105 0.0588 0.3747
C24A C 0.4845(3) 0.0881(5) 0.5591(3)
H21A H 0.4479 0.0670 0.5280
C25A C 0.7461(3) 0.2007(4) 0.6108(3)
H22A H 0.7381 0.2217 0.6470
C26A C 0.6269(4) 0.2587(6) 0.2742(3)
H23A H 0.5997 0.2074 0.2747
C27A C 0.7023(3) 0.2937(4) 0.2739(3)
C28A C 0.7404(3) 0.2520(4) 0.2751(3)
H24A H 0.7913 0.2772 0.2804
C29A C 0.7156(4) 0.0831(5) 0.3133(3)
H25A H 0.6659 0.0503 0.2983
H26A H 0.7427 0.0568 0.3116
C30A C 0.7516(4) 0.1486(5) 0.2712(3)
H27A H 0.8005 0.1828 0.2873
H28A H 0.7566 0.1339 0.2283
C31A C 0.3902(3) 0.0744(4) 0.6236(3)
H29A H 0.3688 0.0331 0.6531
H30A H 0.3636 0.0587 0.5835
C32A C 0.3843(3) 0.1377(4) 0.6511(3)
H31A H 0.3351 0.1197 0.6680
H32A H 0.4191 0.1600 0.6860
N5B N 0.9020(4) 0.3693(3) 0.6132(3)
N6B N 0.7924(4) 0.6007(3) 0.6026(3)
N7B N 0.8957(4) 0.6089(3) 0.3780(3)
N8B N 0.8158(4) 0.5238(3) 0.2694(2)
C17B C 0.8940(4) 0.5348(3) 0.4647(3)
C18B C 0.9113(5) 0.4832(4) 0.4831(3)
H17B H 0.9366 0.4695 0.4547
C19B C 0.8927(4) 0.4508(3) 0.5420(3)
C20B C 0.8548(4) 0.4716(3) 0.5833(3)
H18B H 0.8403 0.4493 0.6232
C21B C 0.8385(4) 0.5247(3) 0.5660(3)
C22B C 0.8579(4) 0.5564(3) 0.5062(3)
H19B H 0.8465 0.5923 0.4941
C23B C 0.9137(4) 0.5654(3) 0.4002(3)
H20B H 0.9412 0.5517 0.3747
C24B C 0.9119(5) 0.3964(4) 0.5591(3)
H21B H 0.9330 0.3809 0.5280
C25B C 0.7993(4) 0.5454(3) 0.6108(3)
H22B H 0.7783 0.5164 0.6470
C26B C 0.7413(6) 0.3682(4) 0.2742(3)
H23B H 0.7926 0.3923 0.2747
C27B C 0.7063(4) 0.4086(3) 0.2739(3)
C28B C 0.7480(4) 0.4884(3) 0.2751(3)
H24B H 0.7228 0.5141 0.2804
C29B C 0.9169(5) 0.6325(3) 0.3133(3)
H25B H 0.9497 0.6156 0.2983
H26B H 0.9432 0.6859 0.3116
C30B C 0.8514(5) 0.6030(3) 0.2712(3)
H27B H 0.8172 0.6177 0.2873
H28B H 0.8661 0.6227 0.2283
C31B C 0.9256(4) 0.3158(3) 0.6236(3)
H29B H 0.9669 0.3357 0.6531
H30B H 0.9413 0.3049 0.5835
C32B C 0.8623(4) 0.2466(3) 0.6511(3)
H31B H 0.8803 0.2154 0.6680
H32B H 0.8400 0.2591 0.6860
Cl1 Cl 0.0637(3) 0.2749(2) 0.0753(2)
Cl2 Cl 0.1336(4) 0.4065(3) 0.1480(4)
C33 C 0.1430(10) 0.3594(10) 0.0843(10)
H33 H 0.1846 0.3522 0.0916
H34 H 0.1522 0.3881 0.0454
Cl3? Cl 0.1293(3) 0.3970(3) 0.1172(3)
Cl4? Cl 0.1619(3) 0.4709(3) 0.2388(2)
C34? C 0.1834(7) 0.4194(7) 0.1862(6)
H35? H 0.2351 0.4477 0.1745
H36? H 0.1751 0.3746 0.2072
H37? H 0.0989 0.2366 0.0670
H38? H 0.0559 0.2345 0.1293
Cl5? Cl 0.0204(2) 0.1207(2) 0.09539(19)
Cl6? Cl -0.01168(19) 0.2256(2) 0.0409(2)
C35? C 0.0509(9) 0.2126(8) 0.0874(8)
Cl7? Cl 0.0141(6) 0.0582(6) 0.1585(6)
Cl8? Cl 0.0000 0.0000 0.2808(5)
C36? C 0.0000 0.0000 0.2083(18)
H39? H -0.0482 -0.0406 0.1972
H40? H 0.0345 -0.0163 0.1972
Cl9? Cl 0.3333 0.6667 0.4263(9)
Cl10? Cl 0.297(2) 0.656(2) 0.2927(14)
C37? C 0.356(5) 0.655(7) 0.3515(16)
H41? H 0.3549 0.6082 0.3496
H42? H 0.4056 0.6935 0.3424
loop_
_geom_bond_atom_site_label_1
_geom_bond_atom_site_label_2
_geom_bond_site_symmetry_1
_geom_bond_site_symmetry_2
N1 C12 1_555 1_555
N2 C7 1_555 1_555
N3 C8 1_555 1_555
N4 C9 1_555 1_555
C1 C2 1_555 1_555
C2 H1 1_555 1_555
C3 C2 1_555 1_555
C4 C3 1_555 1_555
H2 C4 1_555 1_555
C5 C4 1_555 1_555
C6 C1 1_555 1_555
H3 C6 1_555 1_555
C7 C1 1_555 1_555
H4 C7 1_555 1_555
C8 C3 1_555 1_555
H5 C8 1_555 1_555
C9 C5 1_555 1_555
H6 C9 1_555 1_555
C10 N4 1_555 1_555
H7 C10 1_555 1_555
H8 C10 1_555 1_555
C11 N2 1_555 1_555
H9 C11 1_555 1_555
H10 C11 1_555 1_555
C12 C11 1_555 1_555
H11 C12 1_555 1_555
H12 C12 1_555 1_555
C13 N1 1_555 1_555
H13 C13 1_555 1_555
C14 C13 1_555 1_555
C15 C14 1_555 1_555
H14 C15 1_555 1_555
C16 N3 1_555 1_555
H15 C16 1_555 1_555
H16 C16 1_555 1_555
N5 C24 1_555 1_555
N6 C25 1_555 1_555
N7 C23 1_555 1_555
N8 C28 1_555 1_555
C17 C18 1_555 1_555
C18 H17 1_555 1_555
C19 C18 1_555 1_555
C20 C19 1_555 1_555
H18 C20 1_555 1_555
C21 C20 1_555 1_555
C22 C17 1_555 1_555
H19 C22 1_555 1_555
C23 C17 1_555 1_555
H20 C23 1_555 1_555
C24 C19 1_555 1_555
H21 C24 1_555 1_555
C25 C21 1_555 1_555
H22 C25 1_555 1_555
C26 H23 1_555 1_555
C27 C26 1_555 1_555
C28 C27 1_555 1_555
H24 C28 1_555 1_555
C29 N7 1_555 1_555
H25 C29 1_555 1_555
H26 C29 1_555 1_555
C30 N8 1_555 1_555
H27 C30 1_555 1_555
H28 C30 1_555 1_555
C31 N5 1_555 1_555
H29 C31 1_555 1_555
H30 C31 1_555 1_555
C32 C31 1_555 1_555
H31 C32 1_555 1_555
H32 C32 1_555 1_555
Cl1 C33 1_555 1_555
Cl2 C33 1_555 1_555
C33 H33 1_555 1_555
H34 C33 1_555 1_555
N1A C12A 1_555 1_555
N2A C7A 1_555 1_555
N3A C8A 1_555 1_555
N4A C9A 1_555 1_555
C1A C2A 1_555 1_555
C2A H1A 1_555 1_555
C3A C2A 1_555 1_555
C4A C3A 1_555 1_555
H2A C4A 1_555 1_555
C5A C4A 1_555 1_555
C6A C1A 1_555 1_555
H3A C6A 1_555 1_555
C7A C1A 1_555 1_555
H4A C7A 1_555 1_555
C8A C3A 1_555 1_555
H5A C8A 1_555 1_555
C9A C5A 1_555 1_555
H6A C9A 1_555 1_555
C10A C16 1_555 1_555
H7A C10A 1_555 1_555
H8A C10A 1_555 1_555
C11A N2A 1_555 1_555
H9A C11A 1_555 1_555
H10A C11A 1_555 1_555
C12A C11A 1_555 1_555
H11A C12A 1_555 1_555
H12A C12A 1_555 1_555
C13A N1A 1_555 1_555
H13A C13A 1_555 1_555
C14A C13A 1_555 1_555
C15A C14 1_555 1_555
H14A C15A 1_555 1_555
C16A N3A 1_555 1_555
H15A C16A 1_555 1_555
H16A C16A 1_555 1_555
N1B C12B 1_555 1_555
N2B C7B 1_555 1_555
N3B C8B 1_555 1_555
N4B C9B 1_555 1_555
C1B C2B 1_555 1_555
C2B H1B 1_555 1_555
C3B C2B 1_555 1_555
C4B C3B 1_555 1_555
H2B C4B 1_555 1_555
C5B C4B 1_555 1_555
C6B C1B 1_555 1_555
H3B C6B 1_555 1_555
C7B C1B 1_555 1_555
H4B C7B 1_555 1_555
C8B C3B 1_555 1_555
H5B C8B 1_555 1_555
C9B C5B 1_555 1_555
H6B C9B 1_555 1_555
C10B C16A 1_555 1_555
H7B C10B 1_555 1_555
H8B C10B 1_555 1_555
C11B N2B 1_555 1_555
H9B C11B 1_555 1_555
H10B C11B 1_555 1_555
C12B C11B 1_555 1_555
H11B C12B 1_555 1_555
H12B C12B 1_555 1_555
C13B N1B 1_555 1_555
H13B C13B 1_555 1_555
C14B C15 1_555 1_555
C15B C14A 1_555 1_555
H14B C15B 1_555 1_555
C16B C10 1_555 1_555
H15B C16B 1_555 1_555
H16B C16B 1_555 1_555
N5A C24A 1_555 1_555
N6A C25A 1_555 1_555
N7A C23A 1_555 1_555
N8A C28A 1_555 1_555
C17A C18A 1_555 1_555
C18A H17A 1_555 1_555
C19A C18A 1_555 1_555
C20A C19A 1_555 1_555
H18A C20A 1_555 1_555
C21A C20A 1_555 1_555
C22A C17A 1_555 1_555
H19A C22A 1_555 1_555
C23A C17A 1_555 1_555
H20A C23A 1_555 1_555
C24A C19A 1_555 1_555
H21A C24A 1_555 1_555
C25A C21A 1_555 1_555
H22A C25A 1_555 1_555
C26A C27 1_555 1_555
H23A C26A 1_555 1_555
C27A C26A 1_555 1_555
C28A C27A 1_555 1_555
H24A C28A 1_555 1_555
C29A N7A 1_555 1_555
H25A C29A 1_555 1_555
H26A C29A 1_555 1_555
C30A N8A 1_555 1_555
H27A C30A 1_555 1_555
H28A C30A 1_555 1_555
C31A N5A 1_555 1_555
H29A C31A 1_555 1_555
H30A C31A 1_555 1_555
C32A N6 1_555 1_555
H31A C32A 1_555 1_555
H32A C32A 1_555 1_555
N5B C24B 1_555 1_555
N6B C32 1_555 1_555
N7B C23B 1_555 1_555
N8B C28B 1_555 1_555
C17B C18B 1_555 1_555
C18B H17B 1_555 1_555
C19B C18B 1_555 1_555
C20B C19B 1_555 1_555
H18B C20B 1_555 1_555
C21B C20B 1_555 1_555
C22B C17B 1_555 1_555
H19B C22B 1_555 1_555
C23B C17B 1_555 1_555
H20B C23B 1_555 1_555
C24B C19B 1_555 1_555
H21B C24B 1_555 1_555
C25B N6B 1_555 1_555
H22B C25B 1_555 1_555
C26B C27A 1_555 1_555
H23B C26B 1_555 1_555
C27B C26 1_555 1_555
C28B C27B 1_555 1_555
H24B C28B 1_555 1_555
C29B N7B 1_555 1_555
H25B C29B 1_555 1_555
H26B C29B 1_555 1_555
C30B N8B 1_555 1_555
H27B C30B 1_555 1_555
H28B C30B 1_555 1_555
C31B N5B 1_555 1_555
H29B C31B 1_555 1_555
H30B C31B 1_555 1_555
C32B N6A 1_555 1_555
H31B C32B 1_555 1_555
H32B C32B 1_555 1_555
C5 C6 1_555 1_555
C21 C22 1_555 1_555
C29 C30 1_555 1_555
N4A C10A 1_555 1_555
C5A C6A 1_555 1_555
C14A C15A 1_555 1_555
N3B C16B 1_555 1_555
N4B C10B 1_555 1_555
C5B C6B 1_555 1_555
C13B C14B 1_555 1_555
C14B C15B 1_555 1_555
C21A C22A 1_555 1_555
C29A C30A 1_555 1_555
C31A C32A 1_555 1_555
C21B C22B 1_555 1_555
C21B C25B 1_555 1_555
C26B C27B 1_555 1_555
C29B C30B 1_555 1_555
C31B C32B 1_555 1_555

#END
