
#######################################################################
#
#                 Cambridge Crystallographic Data Centre
#                                CCDC 
#
#######################################################################
#
# If this CIF has been generated from an entry in the Cambridge 
# Structural Database, then it will include bibliographic, chemical, 
# crystal, experimental, refinement or atomic coordinate data resulting 
# from the CCDC's data processing and validation procedures.
#
#######################################################################

data_IYEMIK
_chemical_formula_moiety         'C264 H192 N24'
_symmetry_cell_setting           trigonal
_symmetry_space_group_name_H-M   'P 3 2 1'
_symmetry_Int_Tables_number      150
_space_group_name_Hall           'P 3 2"'
loop_
_symmetry_equiv_pos_site_id
_symmetry_equiv_pos_as_xyz
1 x,y,z
2 -y,x-y,z
3 -x+y,-x,z
4 x-y,-y,-z
5 -x,-x+y,-z
6 y,x,-z
_cell_length_a                   31.0991(13)
_cell_length_b                   31.0991(13)
_cell_length_c                   26.2844(13)
_cell_angle_alpha                90
_cell_angle_beta                 90
_cell_angle_gamma                120
_cell_volume                     22015.3
loop_
_atom_site_label
_atom_site_type_symbol
_atom_site_fract_x
_atom_site_fract_y
_atom_site_fract_z
N1 N 0.4887(2) 0.5852(2) 0.4806(2)
N2 N 0.42807(17) 0.62868(18) 0.55048(16)
N3 N 0.5890(3) 0.6056(2) 0.2644(2)
N4 N 0.6302(3) 0.7048(2) 0.1905(2)
N5 N 0.3755(3) 0.4189(3) 0.3113(2)
N6 N 0.2742(2) 0.3752(2) 0.2346(2)
N7 N 0.2399(2) 0.4423(2) 0.0172(2)
N8 N 0.2900(3) 0.5335(3) -0.0713(2)
C1 C 0.44700(19) 0.50075(17) 0.32129(18)
C2 C 0.4919(2) 0.5358(2) 0.29998(13)
H1 H 0.5001 0.5314 0.2663
C3 C 0.52491(16) 0.57724(18) 0.3280(2)
C4 C 0.51292(18) 0.58364(16) 0.37727(19)
H2 H 0.5355 0.6120 0.3964
C5 C 0.4680(2) 0.5486(2) 0.39859(13)
C6 C 0.43501(16) 0.50715(18) 0.37060(19)
H3 H 0.4043 0.4832 0.3852
C7 C 0.5736(3) 0.6152(3) 0.3072(3)
H4 H 0.5933 0.6457 0.3245
C8 C 0.4131(3) 0.4560(3) 0.2918(3)
H5 H 0.4197 0.4550 0.2566
C9 C 0.4561(3) 0.5527(3) 0.4521(2)
H6 H 0.4238 0.5308 0.4651
C10 C 0.2204(2) 0.3972(2) 0.19305(16)
C11 C 0.24801(16) 0.4141(2) 0.14850(19)
H7 H 0.2802 0.4177 0.1467
C12 C 0.22853(19) 0.42572(18) 0.10655(15)
C13 C 0.1815(2) 0.4204(2) 0.10915(16)
H8 H 0.1682 0.4284 0.0805
C14 C 0.15390(16) 0.4035(2) 0.1537(2)
C15 C 0.17339(19) 0.3919(2) 0.19565(16)
H9 H 0.1545 0.3803 0.2261
C16 C 0.2560(3) 0.4416(3) 0.0596(3)
H10 H 0.2905 0.4527 0.0617
C17 C 0.2404(3) 0.3849(3) 0.2375(3)
H11 H 0.2268 0.3844 0.2700
C18 C 0.1054(3) 0.3968(3) 0.1558(3)
H12 H 0.0956 0.4125 0.1311
C19 C 0.3326(2) 0.62198(19) 0.5387(2)
H13 H 0.3321 0.5912 0.5377
C20 C 0.3783(2) 0.6662(2) 0.5395(2)
C21 C 0.4250(2) 0.6666(2) 0.5396(2)
H14 H 0.4545 0.6965 0.5311
C22 C 0.3547(5) 0.6379(5) -0.0721(3)
H15 H 0.3692 0.6173 -0.0729
C23 C 0.3038(5) 0.6171(3) -0.0715(3)
C24 C 0.2710(4) 0.5600(4) -0.0692(3)
H16 H 0.2360 0.5452 -0.0662
C25 C 0.4718(2) 0.5833(2) 0.5338(2)
H17 H 0.4360 0.5571 0.5362
C26 C 0.4769(2) 0.6327(2) 0.5484(2)
H18 H 0.4979 0.6583 0.5226
C27 C 0.5021(2) 0.5699(2) 0.5707(2)
H19 H 0.5033 0.5396 0.5600
C28 C 0.5028(2) 0.6489(3) 0.6032(2)
H20 H 0.5029 0.6790 0.6166
C29 C 0.5534(3) 0.6156(3) 0.5755(2)
C30 C 0.5967(3) 0.6152(3) 0.5638(2)
H21 H 0.5963 0.5860 0.5527
C31 C 0.6409(3) 0.6605(4) 0.5693(3)
H22 H 0.6711 0.6621 0.5596
C32 C 0.6429(3) 0.7016(4) 0.5874(3)
H23 H 0.6739 0.7313 0.5919
C33 C 0.5980(3) 0.6999(3) 0.5997(3)
H24 H 0.5985 0.7289 0.6117
C34 C 0.5549(3) 0.6578(3) 0.5946(2)
C35 C 0.4745(3) 0.5628(3) 0.6230(3)
C36 C 0.4506(3) 0.5198(3) 0.6485(3)
H25 H 0.4510 0.4912 0.6363
C37 C 0.4244(3) 0.5170(4) 0.6944(3)
H26 H 0.4074 0.4873 0.7137
C38 C 0.4256(3) 0.5614(4) 0.7094(3)
H27 H 0.4095 0.5615 0.7400
C39 C 0.4488(2) 0.6038(3) 0.6816(3)
H28 H 0.4482 0.6328 0.6920
C40 C 0.4737(2) 0.6037(3) 0.6371(3)
C41 C 0.6316(3) 0.6580(3) 0.1927(3)
H29 H 0.6005 0.6300 0.1781
C42 C 0.6383(3) 0.6468(3) 0.2482(3)
H30 H 0.6468 0.6767 0.2694
C43 C 0.6798(4) 0.6642(3) 0.1625(3)
H31 H 0.6800 0.6753 0.1267
C44 C 0.6810(3) 0.6357(3) 0.2518(3)
H32 H 0.6839 0.6245 0.2867
C45 C 0.7259(3) 0.6824(3) 0.2373(4)
C46 C 0.7662(4) 0.7106(4) 0.2690(3)
H33 H 0.7672 0.6990 0.3021
C47 C 0.8049(3) 0.7559(4) 0.2522(4)
H34 H 0.8324 0.7752 0.2739
C48 C 0.8033(3) 0.7730(3) 0.2038(4)
H35 H 0.8298 0.8040 0.1923
C49 C 0.7631(4) 0.7448(3) 0.1721(3)
H36 H 0.7620 0.7565 0.1390
C50 C 0.7244(3) 0.6995(3) 0.1889(3)
C51 C 0.6720(2) 0.5976(3) 0.2126(3)
C52 C 0.6644(2) 0.5502(3) 0.2213(3)
H37 H 0.6650 0.5396 0.2551
C53 C 0.6561(3) 0.5184(2) 0.1807(4)
H38 H 0.6510 0.4860 0.1867
C54 C 0.6554(3) 0.5339(3) 0.1313(3)
H39 H 0.6497 0.5122 0.1035
C55 C 0.6629(3) 0.5813(3) 0.1225(2)
H40 H 0.6624 0.5919 0.0888
C56 C 0.6712(3) 0.6131(2) 0.1632(3)
C57 C 0.2550(3) 0.4795(3) -0.0693(3)
H41 H 0.2209 0.4732 -0.0614
C58 C 0.2725(3) 0.4578(3) -0.0263(3)
H42 H 0.3062 0.4842 -0.0149
C59 C 0.2541(3) 0.4536(3) -0.1197(2)
H43 H 0.2452 0.4683 -0.1489
C60 C 0.2771(3) 0.4145(3) -0.0478(3)
H44 H 0.2863 0.3978 -0.0210
C61 C 0.3149(2) 0.4358(2) -0.08856(18)
C62 C 0.3608(2) 0.4383(3) -0.0887(2)
H45 H 0.3689 0.4226 -0.0624
C63 C 0.3948(2) 0.4639(3) -0.1271(2)
H46 H 0.4262 0.4657 -0.1272
C64 C 0.3829(2) 0.4869(2) -0.16550(19)
H47 H 0.4061 0.5044 -0.1918
C65 C 0.3369(3) 0.4843(2) -0.16541(19)
H48 H 0.3288 0.5001 -0.1916
C66 C 0.30294(19) 0.4588(2) -0.1269(2)
C67 C 0.2285(2) 0.3794(3) -0.0723(2)
C68 C 0.1970(3) 0.3300(3) -0.0594(2)
H49 H 0.2055 0.3154 -0.0323
C69 C 0.1530(3) 0.3019(2) -0.0860(3)
H50 H 0.1314 0.2681 -0.0772
C70 C 0.1404(2) 0.3233(3) -0.1256(3)
H51 H 0.1104 0.3041 -0.1438
C71 C 0.1719(3) 0.3727(3) -0.1385(2)
H52 H 0.1634 0.3873 -0.1655
C72 C 0.2159(2) 0.4008(2) -0.1118(3)
C73 C 0.3462(3) 0.3772(4) 0.2789(3)
H53 H 0.3575 0.3863 0.2429
C74 C 0.2914(3) 0.3627(3) 0.2831(3)
H54 H 0.2868 0.3806 0.3123
C75 C 0.3516(3) 0.3332(4) 0.2948(3)
H55 H 0.3873 0.3425 0.2975
C76 C 0.2591(3) 0.3062(4) 0.2909(2)
H56 H 0.2228 0.2944 0.2893
C77 C 0.3252(3) 0.3135(2) 0.3433(2)
C78 C 0.3460(2) 0.3075(3) 0.3876(3)
H57 H 0.3803 0.3174 0.3886
C79 C 0.3167(3) 0.2872(3) 0.4306(2)
H58 H 0.3309 0.2831 0.4610
C80 C 0.2666(3) 0.2727(3) 0.4292(2)
H59 H 0.2466 0.2588 0.4586
C81 C 0.2458(2) 0.2786(3) 0.3849(3)
H60 H 0.2115 0.2687 0.3839
C82 C 0.2751(3) 0.2990(3) 0.3419(2)
C83 C 0.3256(3) 0.2959(2) 0.2530(2)
C84 C 0.3456(2) 0.2772(3) 0.2180(3)
H61 H 0.3800 0.2876 0.2190
C85 C 0.3152(3) 0.2433(3) 0.1814(3)
H62 H 0.3289 0.2305 0.1575
C86 C 0.2649(3) 0.2280(3) 0.1799(3)
H63 H 0.2442 0.2048 0.1549
C87 C 0.2450(2) 0.2468(3) 0.2149(3)
H64 H 0.2106 0.2364 0.2138
C88 C 0.2753(3) 0.2807(3) 0.2514(2)
N1A N 0.4148(2) 0.9035(3) 0.4806(2)
N2A N 0.37132(18) 0.79939(25) 0.55048(16)
N3A N 0.3944(2) 0.9834(4) 0.2644(2)
N4A N 0.2952(2) 0.9254(4) 0.1905(2)
N5A N 0.5811(3) 0.9566(4) 0.3113(2)
N6A N 0.6248(2) 0.8990(3) 0.2346(2)
N7A N 0.5577(2) 0.7976(3) 0.0172(2)
N8A N 0.4665(3) 0.7565(4) -0.0713(2)
C1A C 0.49925(17) 0.94625(25) 0.32129(18)
C2A C 0.4642(2) 0.9561(3) 0.29998(13)
H1A H 0.4686 0.9687 0.2663
C3A C 0.42276(18) 0.94767(24) 0.3280(2)
C4A C 0.41636(16) 0.92928(24) 0.37727(19)
H2A H 0.3880 0.9235 0.3964
C5A C 0.4514(2) 0.9194(3) 0.39859(13)
C6A C 0.49285(18) 0.92786(24) 0.37060(19)
H3A H 0.5168 0.9211 0.3852
C7A C 0.3848(3) 0.9584(4) 0.3072(3)
H4A H 0.3543 0.9476 0.3245
C8A C 0.5440(3) 0.9571(4) 0.2918(3)
H5A H 0.5450 0.9647 0.2566
C9A C 0.4473(3) 0.9034(4) 0.4521(2)
H6A H 0.4692 0.8930 0.4651
C10A C 0.6028(2) 0.8232(3) 0.19305(16)
C11A C 0.5859(2) 0.83391(26) 0.14850(19)
H7A H 0.5823 0.8625 0.1467
C12A C 0.57428(18) 0.80281(26) 0.10655(15)
C13A C 0.5796(2) 0.7611(3) 0.10915(16)
H8A H 0.5716 0.7398 0.0805
C14A C 0.5965(2) 0.75040(26) 0.1537(2)
C15A C 0.6081(2) 0.78149(28) 0.19565(16)
H9A H 0.6197 0.7742 0.2261
C16A C 0.5584(3) 0.8144(4) 0.0596(3)
H10A H 0.5473 0.8378 0.0617
C17A C 0.6151(3) 0.8555(4) 0.2375(3)
H11A H 0.6156 0.8424 0.2700
C18A C 0.6032(3) 0.7086(4) 0.1558(3)
H12A H 0.5875 0.6831 0.1311
C19A C 0.37802(19) 0.71062(28) 0.5387(2)
H13A H 0.4088 0.7409 0.5377
C20A C 0.3338(2) 0.7121(3) 0.5395(2)
C21A C 0.3334(2) 0.7584(3) 0.5396(2)
H14A H 0.3035 0.7580 0.5311
C22A C 0.3621(5) 0.7168(7) -0.0721(3)
H15A H 0.3827 0.7519 -0.0729
C23A C 0.3829(3) 0.6867(6) -0.0715(3)
C24A C 0.4400(4) 0.7110(6) -0.0692(3)
H16A H 0.4548 0.6908 -0.0662
C25A C 0.4167(2) 0.8885(3) 0.5338(2)
H17A H 0.4429 0.8789 0.5362
C26A C 0.3673(2) 0.8442(3) 0.5484(2)
H18A H 0.3417 0.8396 0.5226
C27A C 0.4301(2) 0.9322(3) 0.5707(2)
H19A H 0.4604 0.9637 0.5600
C28A C 0.3511(3) 0.8539(4) 0.6032(2)
H20A H 0.3210 0.8239 0.6166
C29A C 0.3844(3) 0.9378(4) 0.5755(2)
C30A C 0.3848(3) 0.9815(4) 0.5638(2)
H21A H 0.4140 1.0103 0.5527
C31A C 0.3395(4) 0.9804(5) 0.5693(3)
H22A H 0.3379 1.0090 0.5596
C32A C 0.2984(4) 0.9413(5) 0.5874(3)
H23A H 0.2687 0.9426 0.5919
C33A C 0.3001(3) 0.8981(4) 0.5997(3)
H24A H 0.2711 0.8696 0.6117
C34A C 0.3422(3) 0.8971(4) 0.5946(2)
C35A C 0.4372(3) 0.9117(4) 0.6230(3)
C36A C 0.4802(3) 0.9308(4) 0.6485(3)
H25A H 0.5088 0.9598 0.6363
C37A C 0.4830(4) 0.9074(5) 0.6944(3)
H26A H 0.5127 0.9201 0.7137
C38A C 0.4386(4) 0.8642(5) 0.7094(3)
H27A H 0.4385 0.8480 0.7400
C39A C 0.3962(3) 0.8450(4) 0.6816(3)
H28A H 0.3672 0.8154 0.6920
C40A C 0.3963(3) 0.8700(4) 0.6371(3)
C41A C 0.3420(3) 0.9736(4) 0.1927(3)
H29A H 0.3700 0.9705 0.1781
C42A C 0.3532(3) 0.9915(4) 0.2482(3)
H30A H 0.3233 0.9701 0.2694
C43A C 0.3358(3) 1.0156(5) 0.1625(3)
H31A H 0.3247 1.0047 0.1267
C44A C 0.3643(3) 1.0453(4) 0.2518(3)
H32A H 0.3755 1.0594 0.2867
C45A C 0.3176(3) 1.0435(4) 0.2373(4)
C46A C 0.2894(4) 1.0556(6) 0.2690(3)
H33A H 0.3010 1.0682 0.3021
C47A C 0.2441(4) 1.0490(5) 0.2522(4)
H34A H 0.2248 1.0572 0.2739
C48A C 0.2270(3) 1.0303(4) 0.2038(4)
H35A H 0.1960 1.0258 0.1923
C49A C 0.2552(3) 1.0183(5) 0.1721(3)
H36A H 0.2435 1.0055 0.1390
C50A C 0.3005(3) 1.0249(4) 0.1889(3)
C51A C 0.4024(3) 1.0744(4) 0.2126(3)
C52A C 0.4498(3) 1.1142(4) 0.2213(3)
H37A H 0.4604 1.1254 0.2551
C53A C 0.4816(2) 1.1377(4) 0.1807(4)
H38A H 0.5140 1.1650 0.1867
C54A C 0.4661(3) 1.1215(4) 0.1313(3)
H39A H 0.4878 1.1375 0.1035
C55A C 0.4187(3) 1.0816(4) 0.1225(2)
H40A H 0.4081 1.0705 0.0888
C56A C 0.3869(2) 1.0581(4) 0.1632(3)
C57A C 0.5205(3) 0.7755(4) -0.0693(3)
H41A H 0.5268 0.7477 -0.0614
C58A C 0.5422(3) 0.8147(4) -0.0263(3)
H42A H 0.5158 0.8220 -0.0149
C59A C 0.5464(3) 0.8005(4) -0.1197(2)
H43A H 0.5317 0.7769 -0.1489
C60A C 0.5855(3) 0.8626(4) -0.0478(3)
H44A H 0.6022 0.8885 -0.0210
C61A C 0.5642(2) 0.8791(3) -0.08856(18)
C62A C 0.5617(3) 0.9225(4) -0.0887(2)
H45A H 0.5774 0.9463 -0.0624
C63A C 0.5361(3) 0.9309(4) -0.1271(2)
H46A H 0.5343 0.9605 -0.1272
C64A C 0.5131(2) 0.8960(3) -0.16550(19)
H47A H 0.4956 0.9017 -0.1918
C65A C 0.5157(2) 0.8526(4) -0.16541(19)
H48A H 0.4999 0.8287 -0.1916
C66A C 0.5412(2) 0.84414(28) -0.1269(2)
C67A C 0.6206(3) 0.8491(4) -0.0723(2)
C68A C 0.6700(3) 0.8670(4) -0.0594(2)
H49A H 0.6846 0.8901 -0.0323
C69A C 0.6981(2) 0.8511(4) -0.0860(3)
H50A H 0.7319 0.8633 -0.0772
C70A C 0.6767(3) 0.8171(4) -0.1256(3)
H51A H 0.6959 0.8063 -0.1438
C71A C 0.6273(3) 0.7992(4) -0.1385(2)
H52A H 0.6127 0.7761 -0.1655
C72A C 0.5992(2) 0.8151(3) -0.1118(3)
C73A C 0.6228(4) 0.9690(5) 0.2789(3)
H53A H 0.6137 0.9712 0.2429
C74A C 0.6373(3) 0.9287(4) 0.2831(3)
H54A H 0.6194 0.9062 0.3123
C75A C 0.6668(4) 1.0184(5) 0.2948(3)
H55A H 0.6575 1.0448 0.2975
C76A C 0.6938(4) 0.9529(5) 0.2909(2)
H56A H 0.7056 0.9284 0.2893
C77A C 0.6865(2) 1.0117(4) 0.3433(2)
C78A C 0.6925(3) 1.0385(4) 0.3876(3)
H57A H 0.6826 1.0629 0.3886
C79A C 0.7128(3) 1.0295(4) 0.4306(2)
H58A H 0.7169 1.0478 0.4610
C80A C 0.7273(3) 0.9939(4) 0.4292(2)
H59A H 0.7412 0.9878 0.4586
C81A C 0.7214(3) 0.9672(4) 0.3849(3)
H60A H 0.7313 0.9428 0.3839
C82A C 0.7010(3) 0.9761(4) 0.3419(2)
C83A C 0.7041(2) 1.0297(4) 0.2530(2)
C84A C 0.7228(3) 1.0684(4) 0.2180(3)
H61A H 0.7124 1.0924 0.2190
C85A C 0.7567(3) 1.0719(4) 0.1814(3)
H62A H 0.7695 1.0984 0.1575
C86A C 0.7720(3) 1.0369(4) 0.1799(3)
H63A H 0.7952 1.0394 0.1549
C87A C 0.7532(3) 0.9982(4) 0.2149(3)
H64A H 0.7636 0.9742 0.2138
C88A C 0.7193(3) 0.9946(4) 0.2514(2)
N1B N 0.0965(3) 0.5113(2) 0.4806(2)
N2B N 0.20061(25) 0.57193(17) 0.55048(16)
N3B N 0.0166(4) 0.4110(3) 0.2644(2)
N4B N 0.0746(4) 0.3698(3) 0.1905(2)
N5B N 0.0434(4) 0.6245(3) 0.3113(2)
N6B N 0.1010(3) 0.7258(2) 0.2346(2)
N7B N 0.2024(3) 0.7601(2) 0.0172(2)
N8B N 0.2435(4) 0.7100(3) -0.0713(2)
C1B C 0.05375(25) 0.55300(19) 0.32129(18)
C2B C 0.0439(3) 0.5081(2) 0.29998(13)
H1B H 0.0313 0.4999 0.2663
C3B C 0.05233(24) 0.47509(16) 0.3280(2)
C4B C 0.07072(24) 0.48708(18) 0.37727(19)
H2B H 0.0765 0.4645 0.3964
C5B C 0.0806(3) 0.5320(2) 0.39859(13)
C6B C 0.07214(24) 0.56499(16) 0.37060(19)
H3B H 0.0789 0.5957 0.3852
C7B C 0.0416(4) 0.4264(3) 0.3072(3)
H4B H 0.0524 0.4067 0.3245
C8B C 0.0429(4) 0.5869(3) 0.2918(3)
H5B H 0.0353 0.5803 0.2566
C9B C 0.0966(4) 0.5439(3) 0.4521(2)
H6B H 0.1070 0.5762 0.4651
C10B C 0.1768(3) 0.7796(2) 0.19305(16)
C11B C 0.16609(26) 0.75199(16) 0.14850(19)
H7B H 0.1375 0.7198 0.1467
C12B C 0.19719(26) 0.77147(19) 0.10655(15)
C13B C 0.2389(3) 0.8185(2) 0.10915(16)
H8B H 0.2602 0.8318 0.0805
C14B C 0.24960(26) 0.84610(16) 0.1537(2)
C15B C 0.21851(28) 0.82661(19) 0.19565(16)
H9B H 0.2258 0.8455 0.2261
C16B C 0.1856(4) 0.7440(3) 0.0596(3)
H10B H 0.1622 0.7095 0.0617
C17B C 0.1445(4) 0.7596(3) 0.2375(3)
H11B H 0.1576 0.7732 0.2700
C18B C 0.2914(4) 0.8946(3) 0.1558(3)
H12B H 0.3169 0.9044 0.1311
C19B C 0.28938(28) 0.6674(2) 0.5387(2)
H13B H 0.2591 0.6679 0.5377
C20B C 0.2879(3) 0.6217(2) 0.5395(2)
C21B C 0.2416(3) 0.5750(2) 0.5396(2)
H14B H 0.2420 0.5455 0.5311
C22B C 0.2832(7) 0.6453(5) -0.0721(3)
H15B H 0.2481 0.6308 -0.0729
C23B C 0.3133(6) 0.6962(5) -0.0715(3)
C24B C 0.2890(6) 0.7290(4) -0.0692(3)
H16B H 0.3092 0.7640 -0.0662
C25B C 0.1115(3) 0.5282(2) 0.5338(2)
H17B H 0.1211 0.5640 0.5362
C26B C 0.1558(3) 0.5231(2) 0.5484(2)
H18B H 0.1604 0.5021 0.5226
C27B C 0.0678(3) 0.4979(2) 0.5707(2)
H19B H 0.0363 0.4967 0.5600
C28B C 0.1461(4) 0.4972(2) 0.6032(2)
H20B H 0.1761 0.4971 0.6166
C29B C 0.0622(4) 0.4466(3) 0.5755(2)
C30B C 0.0185(4) 0.4033(3) 0.5638(2)
H21B H -0.0103 0.4037 0.5527
C31B C 0.0196(5) 0.3591(3) 0.5693(3)
H22B H -0.0090 0.3289 0.5596
C32B C 0.0587(5) 0.3571(3) 0.5874(3)
H23B H 0.0574 0.3261 0.5919
C33B C 0.1019(4) 0.4020(3) 0.5997(3)
H24B H 0.1304 0.4015 0.6117
C34B C 0.1029(4) 0.4451(3) 0.5946(2)
C35B C 0.0883(4) 0.5255(3) 0.6230(3)
C36B C 0.0692(4) 0.5494(3) 0.6485(3)
H25B H 0.0402 0.5490 0.6363
C37B C 0.0926(5) 0.5756(3) 0.6944(3)
H26B H 0.0799 0.5926 0.7137
C38B C 0.1358(5) 0.5744(3) 0.7094(3)
H27B H 0.1520 0.5905 0.7400
C39B C 0.1550(4) 0.5512(2) 0.6816(3)
H28B H 0.1846 0.5518 0.6920
C40B C 0.1300(4) 0.5263(2) 0.6371(3)
C41B C 0.0264(4) 0.3684(3) 0.1927(3)
H29B H 0.0295 0.3995 0.1781
C42B C 0.0085(4) 0.3617(3) 0.2482(3)
H30B H 0.0299 0.3532 0.2694
C43B C -0.0156(5) 0.3202(4) 0.1625(3)
H31B H -0.0047 0.3200 0.1267
C44B C -0.0453(4) 0.3190(3) 0.2518(3)
H32B H -0.0594 0.3161 0.2867
C45B C -0.0435(4) 0.2741(3) 0.2373(4)
C46B C -0.0556(6) 0.2338(4) 0.2690(3)
H33B H -0.0682 0.2328 0.3021
C47B C -0.0490(5) 0.1951(3) 0.2522(4)
H34B H -0.0572 0.1676 0.2739
C48B C -0.0303(4) 0.1967(3) 0.2038(4)
H35B H -0.0258 0.1702 0.1923
C49B C -0.0183(5) 0.2369(4) 0.1721(3)
H36B H -0.0055 0.2380 0.1390
C50B C -0.0249(4) 0.2756(3) 0.1889(3)
C51B C -0.0744(4) 0.3280(2) 0.2126(3)
C52B C -0.1142(4) 0.3356(2) 0.2213(3)
H37B H -0.1254 0.3350 0.2551
C53B C -0.1377(4) 0.3439(3) 0.1807(4)
H38B H -0.1650 0.3490 0.1867
C54B C -0.1215(4) 0.3446(3) 0.1313(3)
H39B H -0.1375 0.3503 0.1035
C55B C -0.0816(4) 0.3371(3) 0.1225(2)
H40B H -0.0705 0.3376 0.0888
C56B C -0.0581(4) 0.3288(3) 0.1632(3)
C57B C 0.2245(4) 0.7450(3) -0.0693(3)
H41B H 0.2523 0.7791 -0.0614
C58B C 0.1853(4) 0.7275(3) -0.0263(3)
H42B H 0.1780 0.6938 -0.0149
C59B C 0.1995(4) 0.7459(3) -0.1197(2)
H43B H 0.2231 0.7548 -0.1489
C60B C 0.1374(4) 0.7229(3) -0.0478(3)
H44B H 0.1115 0.7137 -0.0210
C61B C 0.1209(3) 0.6851(2) -0.08856(18)
C62B C 0.0775(4) 0.6392(2) -0.0887(2)
H45B H 0.0537 0.6311 -0.0624
C63B C 0.0691(4) 0.6052(2) -0.1271(2)
H46B H 0.0395 0.5738 -0.1272
C64B C 0.1040(3) 0.6171(2) -0.16550(19)
H47B H 0.0983 0.5939 -0.1918
C65B C 0.1474(4) 0.6631(3) -0.16541(19)
H48B H 0.1713 0.6712 -0.1916
C66B C 0.15586(28) 0.69706(19) -0.1269(2)
C67B C 0.1509(4) 0.7715(2) -0.0723(2)
C68B C 0.1330(4) 0.8030(3) -0.0594(2)
H49B H 0.1099 0.7945 -0.0323
C69B C 0.1489(4) 0.8470(3) -0.0860(3)
H50B H 0.1367 0.8686 -0.0772
C70B C 0.1829(4) 0.8596(2) -0.1256(3)
H51B H 0.1937 0.8896 -0.1438
C71B C 0.2008(4) 0.8281(3) -0.1385(2)
H52B H 0.2239 0.8366 -0.1655
C72B C 0.1849(3) 0.7841(2) -0.1118(3)
C73B C 0.0310(5) 0.6538(3) 0.2789(3)
H53B H 0.0288 0.6425 0.2429
C74B C 0.0713(4) 0.7086(3) 0.2831(3)
H54B H 0.0938 0.7132 0.3123
C75B C -0.0184(5) 0.6484(3) 0.2948(3)
H55B H -0.0448 0.6127 0.2975
C76B C 0.0471(5) 0.7409(3) 0.2909(2)
H56B H 0.0716 0.7772 0.2893
C77B C -0.0117(4) 0.6748(3) 0.3433(2)
C78B C -0.0385(4) 0.6540(2) 0.3876(3)
H57B H -0.0629 0.6197 0.3886
C79B C -0.0295(4) 0.6833(3) 0.4306(2)
H58B H -0.0478 0.6691 0.4610
C80B C 0.0061(4) 0.7334(3) 0.4292(2)
H59B H 0.0122 0.7534 0.4586
C81B C 0.0328(4) 0.7542(2) 0.3849(3)
H60B H 0.0572 0.7885 0.3839
C82B C 0.0239(4) 0.7249(3) 0.3419(2)
C83B C -0.0297(4) 0.6744(3) 0.2530(2)
C84B C -0.0684(4) 0.6544(2) 0.2180(3)
H61B H -0.0924 0.6200 0.2190
C85B C -0.0719(4) 0.6848(3) 0.1814(3)
H62B H -0.0984 0.6711 0.1575
C86B C -0.0369(4) 0.7351(3) 0.1799(3)
H63B H -0.0394 0.7558 0.1549
C87B C 0.0018(4) 0.7550(2) 0.2149(3)
H64B H 0.0258 0.7894 0.2138
C88B C 0.0054(4) 0.7247(3) 0.2514(2)
loop_
_geom_bond_atom_site_label_1
_geom_bond_atom_site_label_2
_geom_bond_site_symmetry_1
_geom_bond_site_symmetry_2
N1 C9 1_555 1_555
N2 C21 1_555 1_555
N3 C7 1_555 1_555
N4 C41 1_555 1_555
N5 C8 1_555 1_555
N6 C17 1_555 1_555
N7 C16 1_555 1_555
N8 C24 1_555 1_555
C1 C2 1_555 1_555
C2 H1 1_555 1_555
C3 C2 1_555 1_555
C4 C3 1_555 1_555
H2 C4 1_555 1_555
C5 C4 1_555 1_555
C6 C1 1_555 1_555
H3 C6 1_555 1_555
C7 C3 1_555 1_555
H4 C7 1_555 1_555
C8 C1 1_555 1_555
H5 C8 1_555 1_555
C9 C5 1_555 1_555
H6 C9 1_555 1_555
C10 C11 1_555 1_555
C11 H7 1_555 1_555
C12 C11 1_555 1_555
C13 C12 1_555 1_555
H8 C13 1_555 1_555
C14 C13 1_555 1_555
C15 C10 1_555 1_555
H9 C15 1_555 1_555
C16 C12 1_555 1_555
H10 C16 1_555 1_555
C17 C10 1_555 1_555
H11 C17 1_555 1_555
C18 C14 1_555 1_555
H12 C18 1_555 1_555
C19 H13 1_555 1_555
C20 C19 1_555 1_555
C21 C20 1_555 1_555
H14 C21 1_555 1_555
C22 H15 1_555 1_555
C23 C22 1_555 1_555
C24 C23 1_555 1_555
H16 C24 1_555 1_555
C25 N1 1_555 1_555
H17 C25 1_555 1_555
C26 N2 1_555 1_555
H18 C26 1_555 1_555
C27 C25 1_555 1_555
H19 C27 1_555 1_555
C28 C26 1_555 1_555
H20 C28 1_555 1_555
C29 C27 1_555 1_555
C30 C29 1_555 1_555
H21 C30 1_555 1_555
C31 C30 1_555 1_555
H22 C31 1_555 1_555
C32 C31 1_555 1_555
H23 C32 1_555 1_555
C33 C32 1_555 1_555
H24 C33 1_555 1_555
C34 C28 1_555 1_555
C35 C27 1_555 1_555
C36 C35 1_555 1_555
H25 C36 1_555 1_555
C37 C36 1_555 1_555
H26 C37 1_555 1_555
C38 C37 1_555 1_555
H27 C38 1_555 1_555
C39 C38 1_555 1_555
H28 C39 1_555 1_555
C40 C28 1_555 1_555
C41 H29 1_555 1_555
C42 N3 1_555 1_555
H30 C42 1_555 1_555
C43 C41 1_555 1_555
H31 C43 1_555 1_555
C44 C42 1_555 1_555
H32 C44 1_555 1_555
C45 C44 1_555 1_555
C46 C45 1_555 1_555
H33 C46 1_555 1_555
C47 C46 1_555 1_555
H34 C47 1_555 1_555
C48 C47 1_555 1_555
H35 C48 1_555 1_555
C49 C48 1_555 1_555
H36 C49 1_555 1_555
C50 C43 1_555 1_555
C51 C44 1_555 1_555
C52 C51 1_555 1_555
H37 C52 1_555 1_555
C53 C52 1_555 1_555
H38 C53 1_555 1_555
C54 C53 1_555 1_555
H39 C54 1_555 1_555
C55 C54 1_555 1_555
H40 C55 1_555 1_555
C56 C43 1_555 1_555
C57 N8 1_555 1_555
H41 C57 1_555 1_555
C58 N7 1_555 1_555
H42 C58 1_555 1_555
C59 C57 1_555 1_555
H43 C59 1_555 1_555
C60 C58 1_555 1_555
H44 C60 1_555 1_555
C61 C60 1_555 1_555
C62 C61 1_555 1_555
H45 C62 1_555 1_555
C63 C62 1_555 1_555
H46 C63 1_555 1_555
C64 C63 1_555 1_555
H47 C64 1_555 1_555
C65 C64 1_555 1_555
H48 C65 1_555 1_555
C66 C59 1_555 1_555
C67 C60 1_555 1_555
C68 C67 1_555 1_555
H49 C68 1_555 1_555
C69 C68 1_555 1_555
H50 C69 1_555 1_555
C70 C69 1_555 1_555
H51 C70 1_555 1_555
C71 C70 1_555 1_555
H52 C71 1_555 1_555
C72 C59 1_555 1_555
C73 N5 1_555 1_555
H53 C73 1_555 1_555
C74 N6 1_555 1_555
H54 C74 1_555 1_555
C75 C73 1_555 1_555
H55 C75 1_555 1_555
C76 C74 1_555 1_555
H56 C76 1_555 1_555
C77 C75 1_555 1_555
C78 C77 1_555 1_555
H57 C78 1_555 1_555
C79 C78 1_555 1_555
H58 C79 1_555 1_555
C80 C79 1_555 1_555
H59 C80 1_555 1_555
C81 C80 1_555 1_555
H60 C81 1_555 1_555
C82 C76 1_555 1_555
C83 C75 1_555 1_555
C84 C83 1_555 1_555
H61 C84 1_555 1_555
C85 C84 1_555 1_555
H62 C85 1_555 1_555
C86 C85 1_555 1_555
H63 C86 1_555 1_555
C87 C86 1_555 1_555
H64 C87 1_555 1_555
C88 C76 1_555 1_555
N1A C9A 1_555 1_555
N2A C21A 1_555 1_555
N3A C7A 1_555 1_555
N4A C41A 1_555 1_555
N5A C8A 1_555 1_555
N6A C17A 1_555 1_555
N7A C16A 1_555 1_555
N8A C24A 1_555 1_555
C1A C2A 1_555 1_555
C2A H1A 1_555 1_555
C3A C2A 1_555 1_555
C4A C3A 1_555 1_555
H2A C4A 1_555 1_555
C5A C4A 1_555 1_555
C6A C1A 1_555 1_555
H3A C6A 1_555 1_555
C7A C3A 1_555 1_555
H4A C7A 1_555 1_555
C8A C1A 1_555 1_555
H5A C8A 1_555 1_555
C9A C5A 1_555 1_555
H6A C9A 1_555 1_555
C10A C11A 1_555 1_555
C11A H7A 1_555 1_555
C12A C11A 1_555 1_555
C13A C12A 1_555 1_555
H8A C13A 1_555 1_555
C14A C13A 1_555 1_555
C15A C10A 1_555 1_555
H9A C15A 1_555 1_555
C16A C12A 1_555 1_555
H10A C16A 1_555 1_555
C17A C10A 1_555 1_555
H11A C17A 1_555 1_555
C18A N4 1_555 1_555
H12A C18A 1_555 1_555
C19A C20 1_555 1_555
H13A C19A 1_555 1_555
C20A C19A 1_555 1_555
C21A C20A 1_555 1_555
H14A C21A 1_555 1_555
C22A H15A 1_555 1_555
C23A C22 1_555 1_555
C24A C23A 1_555 1_555
H16A C24A 1_555 1_555
C25A N1A 1_555 1_555
H17A C25A 1_555 1_555
C26A N2A 1_555 1_555
H18A C26A 1_555 1_555
C27A C25A 1_555 1_555
H19A C27A 1_555 1_555
C28A C26A 1_555 1_555
H20A C28A 1_555 1_555
C29A C27A 1_555 1_555
C30A C29A 1_555 1_555
H21A C30A 1_555 1_555
C31A C30A 1_555 1_555
H22A C31A 1_555 1_555
C32A C31A 1_555 1_555
H23A C32A 1_555 1_555
C33A C32A 1_555 1_555
H24A C33A 1_555 1_555
C34A C28A 1_555 1_555
C35A C27A 1_555 1_555
C36A C35A 1_555 1_555
H25A C36A 1_555 1_555
C37A C36A 1_555 1_555
H26A C37A 1_555 1_555
C38A C37A 1_555 1_555
H27A C38A 1_555 1_555
C39A C38A 1_555 1_555
H28A C39A 1_555 1_555
C40A C28A 1_555 1_555
C41A H29A 1_555 1_555
C42A N3A 1_555 1_555
H30A C42A 1_555 1_555
C43A C41A 1_555 1_555
H31A C43A 1_555 1_555
C44A C42A 1_555 1_555
H32A C44A 1_555 1_555
C45A C44A 1_555 1_555
C46A C45A 1_555 1_555
H33A C46A 1_555 1_555
C47A C46A 1_555 1_555
H34A C47A 1_555 1_555
C48A C47A 1_555 1_555
H35A C48A 1_555 1_555
C49A C48A 1_555 1_555
H36A C49A 1_555 1_555
C50A C43A 1_555 1_555
C51A C44A 1_555 1_555
C52A C51A 1_555 1_555
H37A C52A 1_555 1_555
C53A C52A 1_555 1_555
H38A C53A 1_555 1_555
C54A C53A 1_555 1_555
H39A C54A 1_555 1_555
C55A C54A 1_555 1_555
H40A C55A 1_555 1_555
C56A C43A 1_555 1_555
C57A N8A 1_555 1_555
H41A C57A 1_555 1_555
C58A N7A 1_555 1_555
H42A C58A 1_555 1_555
C59A C57A 1_555 1_555
H43A C59A 1_555 1_555
C60A C58A 1_555 1_555
H44A C60A 1_555 1_555
C61A C60A 1_555 1_555
C62A C61A 1_555 1_555
H45A C62A 1_555 1_555
C63A C62A 1_555 1_555
H46A C63A 1_555 1_555
C64A C63A 1_555 1_555
H47A C64A 1_555 1_555
C65A C64A 1_555 1_555
H48A C65A 1_555 1_555
C66A C59A 1_555 1_555
C67A C60A 1_555 1_555
C68A C67A 1_555 1_555
H49A C68A 1_555 1_555
C69A C68A 1_555 1_555
H50A C69A 1_555 1_555
C70A C69A 1_555 1_555
H51A C70A 1_555 1_555
C71A C70A 1_555 1_555
H52A C71A 1_555 1_555
C72A C59A 1_555 1_555
C73A N5A 1_555 1_555
H53A C73A 1_555 1_555
C74A N6A 1_555 1_555
H54A C74A 1_555 1_555
C75A C73A 1_555 1_555
H55A C75A 1_555 1_555
C76A C74A 1_555 1_555
H56A C76A 1_555 1_555
C77A C75A 1_555 1_555
C78A C77A 1_555 1_555
H57A C78A 1_555 1_555
C79A C78A 1_555 1_555
H58A C79A 1_555 1_555
C80A C79A 1_555 1_555
H59A C80A 1_555 1_555
C81A C80A 1_555 1_555
H60A C81A 1_555 1_555
C82A C76A 1_555 1_555
C83A C75A 1_555 1_555
C84A C83A 1_555 1_555
H61A C84A 1_555 1_555
C85A C84A 1_555 1_555
H62A C85A 1_555 1_555
C86A C85A 1_555 1_555
H63A C86A 1_555 1_555
C87A C86A 1_555 1_555
H64A C87A 1_555 1_555
C88A C76A 1_555 1_555
N1B C9B 1_555 1_555
N2B C21B 1_555 1_555
N3B C7B 1_555 1_555
N4B C18 1_555 1_555
N5B C8B 1_555 1_555
N6B C17B 1_555 1_555
N7B C16B 1_555 1_555
N8B C24B 1_555 1_555
C1B C2B 1_555 1_555
C2B H1B 1_555 1_555
C3B C2B 1_555 1_555
C4B C3B 1_555 1_555
H2B C4B 1_555 1_555
C5B C4B 1_555 1_555
C6B C1B 1_555 1_555
H3B C6B 1_555 1_555
C7B C3B 1_555 1_555
H4B C7B 1_555 1_555
C8B C1B 1_555 1_555
H5B C8B 1_555 1_555
C9B C5B 1_555 1_555
H6B C9B 1_555 1_555
C10B C11B 1_555 1_555
C11B H7B 1_555 1_555
C12B C11B 1_555 1_555
C13B C12B 1_555 1_555
H8B C13B 1_555 1_555
C14B C13B 1_555 1_555
C15B C10B 1_555 1_555
H9B C15B 1_555 1_555
C16B C12B 1_555 1_555
H10B C16B 1_555 1_555
C17B C10B 1_555 1_555
H11B C17B 1_555 1_555
C18B N4A 1_555 1_555
H12B C18B 1_555 1_555
C19B C20A 1_555 1_555
H13B C19B 1_555 1_555
C20B C19 1_555 1_555
C21B C20B 1_555 1_555
H14B C21B 1_555 1_555
C22B C23 1_555 1_555
H15B C22B 1_555 1_555
C23B C22A 1_555 1_555
C24B C23B 1_555 1_555
H16B C24B 1_555 1_555
C25B N1B 1_555 1_555
H17B C25B 1_555 1_555
C26B N2B 1_555 1_555
H18B C26B 1_555 1_555
C27B C25B 1_555 1_555
H19B C27B 1_555 1_555
C28B C26B 1_555 1_555
H20B C28B 1_555 1_555
C29B C27B 1_555 1_555
C30B C29B 1_555 1_555
H21B C30B 1_555 1_555
C31B C30B 1_555 1_555
H22B C31B 1_555 1_555
C32B C31B 1_555 1_555
H23B C32B 1_555 1_555
C33B C32B 1_555 1_555
H24B C33B 1_555 1_555
C34B C28B 1_555 1_555
C35B C27B 1_555 1_555
C36B C35B 1_555 1_555
H25B C36B 1_555 1_555
C37B C36B 1_555 1_555
H26B C37B 1_555 1_555
C38B C37B 1_555 1_555
H27B C38B 1_555 1_555
C39B C38B 1_555 1_555
H28B C39B 1_555 1_555
C40B C28B 1_555 1_555
C41B N4B 1_555 1_555
H29B C41B 1_555 1_555
C42B N3B 1_555 1_555
H30B C42B 1_555 1_555
C43B C41B 1_555 1_555
H31B C43B 1_555 1_555
C44B C42B 1_555 1_555
H32B C44B 1_555 1_555
C45B C44B 1_555 1_555
C46B C45B 1_555 1_555
H33B C46B 1_555 1_555
C47B C46B 1_555 1_555
H34B C47B 1_555 1_555
C48B C47B 1_555 1_555
H35B C48B 1_555 1_555
C49B C48B 1_555 1_555
H36B C49B 1_555 1_555
C50B C43B 1_555 1_555
C51B C44B 1_555 1_555
C52B C51B 1_555 1_555
H37B C52B 1_555 1_555
C53B C52B 1_555 1_555
H38B C53B 1_555 1_555
C54B C53B 1_555 1_555
H39B C54B 1_555 1_555
C55B C54B 1_555 1_555
H40B C55B 1_555 1_555
C56B C43B 1_555 1_555
C57B N8B 1_555 1_555
H41B C57B 1_555 1_555
C58B N7B 1_555 1_555
H42B C58B 1_555 1_555
C59B C57B 1_555 1_555
H43B C59B 1_555 1_555
C60B C58B 1_555 1_555
H44B C60B 1_555 1_555
C61B C60B 1_555 1_555
C62B C61B 1_555 1_555
H45B C62B 1_555 1_555
C63B C62B 1_555 1_555
H46B C63B 1_555 1_555
C64B C63B 1_555 1_555
H47B C64B 1_555 1_555
C65B C64B 1_555 1_555
H48B C65B 1_555 1_555
C66B C59B 1_555 1_555
C67B C60B 1_555 1_555
C68B C67B 1_555 1_555
H49B C68B 1_555 1_555
C69B C68B 1_555 1_555
H50B C69B 1_555 1_555
C70B C69B 1_555 1_555
H51B C70B 1_555 1_555
C71B C70B 1_555 1_555
H52B C71B 1_555 1_555
C72B C59B 1_555 1_555
C73B N5B 1_555 1_555
H53B C73B 1_555 1_555
C74B N6B 1_555 1_555
H54B C74B 1_555 1_555
C75B C73B 1_555 1_555
H55B C75B 1_555 1_555
C76B C74B 1_555 1_555
H56B C76B 1_555 1_555
C77B C75B 1_555 1_555
C78B C77B 1_555 1_555
H57B C78B 1_555 1_555
C79B C78B 1_555 1_555
H58B C79B 1_555 1_555
C80B C79B 1_555 1_555
H59B C80B 1_555 1_555
C81B C80B 1_555 1_555
H60B C81B 1_555 1_555
C82B C76B 1_555 1_555
C83B C75B 1_555 1_555
C84B C83B 1_555 1_555
H61B C84B 1_555 1_555
C85B C84B 1_555 1_555
H62B C85B 1_555 1_555
C86B C85B 1_555 1_555
H63B C86B 1_555 1_555
C87B C86B 1_555 1_555
H64B C87B 1_555 1_555
C88B C76B 1_555 1_555
C5 C6 1_555 1_555
C14 C15 1_555 1_555
C25 C26 1_555 1_555
C29 C34 1_555 1_555
C33 C34 1_555 1_555
C35 C40 1_555 1_555
C39 C40 1_555 1_555
C41 C42 1_555 1_555
C45 C50 1_555 1_555
C49 C50 1_555 1_555
C51 C56 1_555 1_555
C55 C56 1_555 1_555
C57 C58 1_555 1_555
C61 C66 1_555 1_555
C65 C66 1_555 1_555
C67 C72 1_555 1_555
C71 C72 1_555 1_555
C73 C74 1_555 1_555
C77 C82 1_555 1_555
C81 C82 1_555 1_555
C83 C88 1_555 1_555
C87 C88 1_555 1_555
C5A C6A 1_555 1_555
C14A C15A 1_555 1_555
C14A C18A 1_555 1_555
C22A C23A 1_555 1_555
C25A C26A 1_555 1_555
C29A C34A 1_555 1_555
C33A C34A 1_555 1_555
C35A C40A 1_555 1_555
C39A C40A 1_555 1_555
C41A C42A 1_555 1_555
C45A C50A 1_555 1_555
C49A C50A 1_555 1_555
C51A C56A 1_555 1_555
C55A C56A 1_555 1_555
C57A C58A 1_555 1_555
C61A C66A 1_555 1_555
C65A C66A 1_555 1_555
C67A C72A 1_555 1_555
C71A C72A 1_555 1_555
C73A C74A 1_555 1_555
C77A C82A 1_555 1_555
C81A C82A 1_555 1_555
C83A C88A 1_555 1_555
C87A C88A 1_555 1_555
C5B C6B 1_555 1_555
C14B C15B 1_555 1_555
C14B C18B 1_555 1_555
C19B C20B 1_555 1_555
C22B C23B 1_555 1_555
C25B C26B 1_555 1_555
C29B C34B 1_555 1_555
C33B C34B 1_555 1_555
C35B C40B 1_555 1_555
C39B C40B 1_555 1_555
C41B C42B 1_555 1_555
C45B C50B 1_555 1_555
C49B C50B 1_555 1_555
C51B C56B 1_555 1_555
C55B C56B 1_555 1_555
C57B C58B 1_555 1_555
C61B C66B 1_555 1_555
C65B C66B 1_555 1_555
C67B C72B 1_555 1_555
C71B C72B 1_555 1_555
C73B C74B 1_555 1_555
C77B C82B 1_555 1_555
C81B C82B 1_555 1_555
C83B C88B 1_555 1_555
C87B C88B 1_555 1_555

#END
