
#######################################################################
#
#                 Cambridge Crystallographic Data Centre
#                                CCDC 
#
#######################################################################
#
# If this CIF has been generated from an entry in the Cambridge 
# Structural Database, then it will include bibliographic, chemical, 
# crystal, experimental, refinement or atomic coordinate data resulting 
# from the CCDC's data processing and validation procedures.
#
#######################################################################

data_PAWSIS
_chemical_formula_moiety         'C56 H87 N1 O43'
_symmetry_cell_setting           orthorhombic
_symmetry_space_group_name_H-M   'P 21 21 21'
_symmetry_Int_Tables_number      19
_space_group_name_Hall           'P 2ac 2ab'
loop_
_symmetry_equiv_pos_site_id
_symmetry_equiv_pos_as_xyz
1 x,y,z
2 1/2-x,-y,1/2+z
3 1/2+x,1/2-y,-z
4 -x,1/2+y,1/2-z
_cell_length_a                   11.9905(8)
_cell_length_b                   16.4042(11)
_cell_length_c                   37.700(3)
_cell_angle_alpha                90
_cell_angle_beta                 90
_cell_angle_gamma                90
_cell_volume                     7415.38
loop_
_atom_site_label
_atom_site_type_symbol
_atom_site_fract_x
_atom_site_fract_y
_atom_site_fract_z
O1 O -0.2041(4) -0.0933(2) 0.05563(13)
O2 O -0.3420(4) 0.0287(3) -0.01346(14)
O3 O -0.0468(4) 0.0330(3) 0.04295(13)
H1 H -0.0770 0.0380 0.0629
O4 O -0.0672(4) 0.1187(3) -0.02224(14)
H2 H -0.0249 0.1408 -0.0073
O5 O -0.4705(5) -0.0245(4) 0.05075(17)
H3 H -0.4770 0.0241 0.0442
O6 O -0.2041(3) 0.0085(2) -0.05678(13)
O7 O -0.2969(5) -0.0670(4) -0.14274(16)
O8 O -0.2039(6) 0.1524(4) -0.0998(2)
H4 H -0.1625 0.1842 -0.1113
O9 O -0.1627(6) 0.1211(4) -0.17290(18)
H5 H -0.1351 0.0946 -0.1898
O10 O -0.3043(7) -0.2120(4) -0.1029(2)
H6 H -0.3559 -0.2199 -0.1176
O11 O -0.1209(5) -0.0497(4) -0.16793(14)
O12 O -0.1001(7) -0.2103(4) -0.23645(17)
O13 O 0.0963(5) -0.0338(3) -0.19326(13)
H7 H 0.1186 -0.0209 -0.2136
O14 O 0.1926(5) -0.1817(3) -0.21642(16)
H8 H 0.1916 -0.2298 -0.2088
O15 O -0.3061(9) -0.1155(7) -0.2376(3)
H9 H -0.2558 -0.1121 -0.2530
O16 O 0.0278(5) -0.2899(3) -0.20589(12)
O17 O -0.0050(5) -0.5117(3) -0.21773(12)
O18 O 0.2496(6) -0.3449(3) -0.20503(16)
H10 H 0.2916 -0.3699 -0.2192
O19 O 0.2778(6) -0.5116(3) -0.18212(15)
H11 H 0.2767 -0.5628 -0.1811
O20 O -0.1329(6) -0.4030(4) -0.26378(16)
H12 H -0.1950 -0.3977 -0.2738
O21 O 0.0642(5) -0.5413(3) -0.16195(11)
O22 O -0.0845(4) -0.6998(3) -0.11188(13)
O23 O 0.2365(4) -0.6165(3) -0.12557(13)
H13 H 0.2777 -0.5963 -0.1098
O24 O 0.1744(4) -0.6876(3) -0.05988(12)
H14 H 0.1348 -0.6974 -0.0420
O25 O -0.2692(8) -0.6154(8) -0.1500(4)
H15 H -0.2908 -0.6528 -0.1364
O26 O -0.0469(3) -0.6448(2) -0.05614(11)
O27 O -0.2707(3) -0.6406(3) 0.00986(13)
O28 O 0.0441(4) -0.7393(2) -0.00003(13)
H16 H 0.1073 -0.7173 0.0001
O29 O -0.0438(4) -0.6943(3) 0.06911(12)
H17 H -0.0402 -0.7405 0.0787
O30 O -0.3318(4) -0.7032(4) -0.05586(15)
H18 H -0.3161 -0.7311 -0.0379
O31 O -0.1705(4) -0.5635(3) 0.05076(13)
O32 O -0.3273(4) -0.4380(3) 0.11379(12)
O33 O -0.0272(4) -0.5582(3) 0.11108(16)
H19 H -0.0337 -0.5970 0.0967
O34 O -0.0508(5) -0.4109(4) 0.15198(17)
H20 H -0.0234 -0.3794 0.1367
O35 O -0.4386(4) -0.5778(3) 0.07840(13)
H21 H -0.4167 -0.5795 0.0996
O36 O -0.1994(4) -0.3343(2) 0.10705(12)
O37 O -0.3148(4) -0.1276(3) 0.10392(12)
O38 O -0.0163(5) -0.2391(3) 0.12777(18)
H22 H -0.0366 -0.2445 0.1490
O39 O -0.0205(4) -0.0768(3) 0.09782(17)
H23 H -0.0356 -0.0271 0.0954
O40 O -0.4962(4) -0.3194(3) 0.04524(14)
O41 O -0.5981(6) -0.1199(4) 0.12234(15)
N1 N -0.5167(5) -0.2204(3) 0.08872(14)
C1 C -0.2321(5) -0.0223(3) 0.03528(19)
H24 H -0.2635 0.0204 0.0513
C2 C -0.1278(5) 0.0096(4) 0.0177(2)
H25 H -0.0960 -0.0335 0.0020
C3 C -0.1594(6) 0.0837(4) -0.0046(2)
H26 H -0.1904 0.1259 0.0118
C4 C -0.2487(6) 0.0626(4) -0.0307(2)
H27 H -0.2728 0.1139 -0.0428
C5 C -0.3182(5) -0.0436(4) 0.0066(2)
H28 H -0.2867 -0.0862 -0.0095
C6 C -0.4292(6) -0.0732(5) 0.0217(2)
H29 H -0.4854 -0.0732 0.0024
H30 H -0.4202 -0.1302 0.0299
C7 C -0.2554(5) 0.0135(4) -0.0904(2)
H31 H -0.3347 0.0313 -0.0877
C8 C -0.1928(7) 0.0728(5) -0.1134(2)
H32 H -0.1120 0.0579 -0.1124
C9 C -0.2296(7) 0.0686(5) -0.1519(2)
H33 H -0.3082 0.0889 -0.1531
C10 C -0.2286(7) -0.0195(5) -0.1660(2)
H34 H -0.2622 -0.0202 -0.1903
C11 C -0.2505(6) -0.0718(4) -0.10666(19)
H35 H -0.1709 -0.0896 -0.1081
C12 C -0.3158(8) -0.1355(5) -0.0882(2)
H36 H -0.2919 -0.1377 -0.0631
H37 H -0.3956 -0.1200 -0.0886
C13 C -0.0893(7) -0.0920(5) -0.1991(2)
H38 H -0.1023 -0.0561 -0.2201
C14 C 0.0363(8) -0.1073(4) -0.19510(19)
H39 H 0.0484 -0.1375 -0.1724
C15 C 0.0848(8) -0.1574(5) -0.2248(2)
H40 H 0.0883 -0.1225 -0.2465
C16 C 0.0103(8) -0.2321(5) -0.2331(2)
H41 H 0.0356 -0.2564 -0.2561
C17 C -0.1494(10) -0.1764(5) -0.2053(3)
H42 H -0.1334 -0.2131 -0.1848
C18 C -0.2729(10) -0.1723(7) -0.2108(4)
H43 H -0.3003 -0.2271 -0.2174
H44 H -0.3088 -0.1569 -0.1882
C19 C 0.0548(8) -0.3730(4) -0.21594(18)
H45 H 0.0715 -0.3749 -0.2419
C20 C 0.1567(8) -0.3963(5) -0.19573(19)
H46 H 0.1415 -0.3911 -0.1697
C21 C 0.1897(8) -0.4842(4) -0.20399(18)
H47 H 0.2137 -0.4877 -0.2294
C22 C 0.0870(8) -0.5397(4) -0.19836(17)
H48 H 0.1058 -0.5961 -0.2064
C23 C -0.0416(7) -0.4305(4) -0.20787(18)
H49 H -0.0561 -0.4296 -0.1818
C24 C -0.1492(8) -0.4135(5) -0.2269(2)
H50 H -0.2015 -0.4592 -0.2229
H51 H -0.1834 -0.3635 -0.2170
C25 C 0.0448(6) -0.6175(4) -0.14452(17)
H52 H 0.0634 -0.6631 -0.1611
C26 C 0.1255(5) -0.6185(4) -0.11331(17)
H53 H 0.1118 -0.5690 -0.0985
C27 C 0.1092(6) -0.6932(3) -0.09046(16)
H54 H 0.1339 -0.7421 -0.1042
C28 C -0.0134(5) -0.7039(3) -0.08099(16)
H55 H -0.0229 -0.7588 -0.0699
C29 C -0.0745(6) -0.6267(5) -0.1320(2)
H56 H -0.0950 -0.5790 -0.1168
C30 C -0.1554(11) -0.6333(9) -0.1622(3)
H57 H -0.1343 -0.5944 -0.1812
H58 H -0.1527 -0.6891 -0.1723
C31 C -0.1103(5) -0.6738(3) -0.02625(17)
H59 H -0.1382 -0.7299 -0.0317
C32 C -0.0410(5) -0.6777(3) 0.00621(16)
H60 H -0.0041 -0.6237 0.0100
C33 C -0.1077(5) -0.6992(3) 0.03834(17)
H61 H -0.1352 -0.7564 0.0357
C34 C -0.2090(5) -0.6423(4) 0.0414(2)
H62 H -0.2582 -0.6629 0.0608
C35 C -0.2100(5) -0.6179(4) -0.0211(2)
H63 H -0.1833 -0.5604 -0.0185
C36 C -0.2935(6) -0.6221(5) -0.0510(2)
H64 H -0.3576 -0.5862 -0.0456
H65 H -0.2584 -0.6025 -0.0732
C37 C -0.2079(5) -0.5340(4) 0.08458(18)
H66 H -0.2374 -0.5807 0.0988
C38 C -0.1065(5) -0.4981(4) 0.10321(19)
H67 H -0.0712 -0.4573 0.0870
C39 C -0.1413(6) -0.4547(4) 0.1368(2)
H68 H -0.1666 -0.4966 0.1543
C40 C -0.2373(6) -0.3967(4) 0.13002(18)
H69 H -0.2625 -0.3723 0.1530
C41 C -0.2993(5) -0.4705(4) 0.07996(17)
H70 H -0.2695 -0.4253 0.0649
C42 C -0.4030(5) -0.5035(4) 0.06254(19)
H71 H -0.4635 -0.4627 0.0645
H72 H -0.3881 -0.5128 0.0370
C43 C -0.2172(6) -0.2503(4) 0.11727(18)
H73 H -0.2294 -0.2464 0.1434
C44 C -0.1074(6) -0.2091(4) 0.1071(2)
H74 H -0.0919 -0.2213 0.0815
C45 C -0.1152(6) -0.1183(4) 0.1114(2)
H75 H -0.1215 -0.1058 0.1373
C46 C -0.2209(5) -0.0861(4) 0.09267(19)
H76 H -0.2301 -0.0271 0.0986
C47 C -0.3129(5) -0.2131(4) 0.09777(17)
H77 H -0.3047 -0.2238 0.0718
C48 C -0.4242(6) -0.2458(4) 0.11057(18)
H78 H -0.4211 -0.3061 0.1109
H79 H -0.4371 -0.2270 0.1352
C49 C -0.5467(5) -0.2600(3) 0.05644(16)
C50 C -0.6370(6) -0.2159(4) 0.0412(2)
C51 C -0.6968(6) -0.2286(4) 0.0092(2)
H80 H -0.6764 -0.2713 -0.0066
C52 C -0.7847(9) -0.1781(6) 0.0014(3)
H81 H -0.8234 -0.1840 -0.0204
C53 C -0.8183(7) -0.1162(6) 0.0262(3)
H82 H -0.8825 -0.0842 0.0214
C54 C -0.7596(7) -0.1028(5) 0.0563(3)
H83 H -0.7784 -0.0590 0.0717
C55 C -0.6703(6) -0.1551(4) 0.0644(2)
C56 C -0.5946(7) -0.1596(4) 0.09560(19)
O42 O -0.5660(5) -0.6538(3) -0.09527(14)
H84 H -0.5283 -0.6400 -0.0765
H85 H -0.5201 -0.6658 -0.1124
O43 O 0.0600(6) 0.1046(3) -0.15083(15)
H86 H 0.1200 0.1307 -0.1571
H87 H 0.0302 0.0815 -0.1693
loop_
_geom_bond_atom_site_label_1
_geom_bond_atom_site_label_2
_geom_bond_site_symmetry_1
_geom_bond_site_symmetry_2
O1 C1 1_555 1_555
O2 C4 1_555 1_555
O3 H1 1_555 1_555
O4 H2 1_555 1_555
O5 H3 1_555 1_555
O6 C4 1_555 1_555
O7 C10 1_555 1_555
O8 H4 1_555 1_555
O9 H5 1_555 1_555
O10 H6 1_555 1_555
O11 C10 1_555 1_555
O12 C16 1_555 1_555
O13 H7 1_555 1_555
O14 H8 1_555 1_555
O15 H9 1_555 1_555
O16 C16 1_555 1_555
O17 C22 1_555 1_555
O18 H10 1_555 1_555
O19 H11 1_555 1_555
O20 H12 1_555 1_555
O21 C22 1_555 1_555
O22 C28 1_555 1_555
O23 H13 1_555 1_555
O24 H14 1_555 1_555
O25 H15 1_555 1_555
O26 C28 1_555 1_555
O27 C34 1_555 1_555
O28 H16 1_555 1_555
O29 H17 1_555 1_555
O30 H18 1_555 1_555
O31 C34 1_555 1_555
O32 C40 1_555 1_555
O33 H19 1_555 1_555
O34 H20 1_555 1_555
O35 H21 1_555 1_555
O36 C40 1_555 1_555
O37 C46 1_555 1_555
O38 H22 1_555 1_555
O39 H23 1_555 1_555
O40 C49 1_555 1_555
O41 C56 1_555 1_555
N1 C48 1_555 1_555
C1 H24 1_555 1_555
C2 O3 1_555 1_555
H25 C2 1_555 1_555
C3 O4 1_555 1_555
H26 C3 1_555 1_555
C4 C3 1_555 1_555
H27 C4 1_555 1_555
C5 O2 1_555 1_555
H28 C5 1_555 1_555
C6 O5 1_555 1_555
H29 C6 1_555 1_555
H30 C6 1_555 1_555
C7 O6 1_555 1_555
H31 C7 1_555 1_555
C8 O8 1_555 1_555
H32 C8 1_555 1_555
C9 O9 1_555 1_555
H33 C9 1_555 1_555
C10 C9 1_555 1_555
H34 C10 1_555 1_555
C11 O7 1_555 1_555
H35 C11 1_555 1_555
C12 O10 1_555 1_555
H36 C12 1_555 1_555
H37 C12 1_555 1_555
C13 O11 1_555 1_555
H38 C13 1_555 1_555
C14 O13 1_555 1_555
H39 C14 1_555 1_555
C15 O14 1_555 1_555
H40 C15 1_555 1_555
C16 C15 1_555 1_555
H41 C16 1_555 1_555
C17 O12 1_555 1_555
H42 C17 1_555 1_555
C18 O15 1_555 1_555
H43 C18 1_555 1_555
H44 C18 1_555 1_555
C19 O16 1_555 1_555
H45 C19 1_555 1_555
C20 O18 1_555 1_555
H46 C20 1_555 1_555
C21 O19 1_555 1_555
H47 C21 1_555 1_555
C22 C21 1_555 1_555
H48 C22 1_555 1_555
C23 O17 1_555 1_555
H49 C23 1_555 1_555
C24 O20 1_555 1_555
H50 C24 1_555 1_555
H51 C24 1_555 1_555
C25 O21 1_555 1_555
H52 C25 1_555 1_555
C26 O23 1_555 1_555
H53 C26 1_555 1_555
C27 O24 1_555 1_555
H54 C27 1_555 1_555
C28 C27 1_555 1_555
H55 C28 1_555 1_555
C29 O22 1_555 1_555
H56 C29 1_555 1_555
C30 O25 1_555 1_555
H57 C30 1_555 1_555
H58 C30 1_555 1_555
C31 O26 1_555 1_555
H59 C31 1_555 1_555
C32 O28 1_555 1_555
H60 C32 1_555 1_555
C33 O29 1_555 1_555
H61 C33 1_555 1_555
C34 C33 1_555 1_555
H62 C34 1_555 1_555
C35 O27 1_555 1_555
H63 C35 1_555 1_555
C36 O30 1_555 1_555
H64 C36 1_555 1_555
H65 C36 1_555 1_555
C37 O31 1_555 1_555
H66 C37 1_555 1_555
C38 O33 1_555 1_555
H67 C38 1_555 1_555
C39 O34 1_555 1_555
H68 C39 1_555 1_555
C40 C39 1_555 1_555
H69 C40 1_555 1_555
C41 O32 1_555 1_555
H70 C41 1_555 1_555
C42 O35 1_555 1_555
H71 C42 1_555 1_555
H72 C42 1_555 1_555
C43 O36 1_555 1_555
H73 C43 1_555 1_555
C44 O38 1_555 1_555
H74 C44 1_555 1_555
C45 O39 1_555 1_555
H75 C45 1_555 1_555
C46 O1 1_555 1_555
H76 C46 1_555 1_555
C47 O37 1_555 1_555
H77 C47 1_555 1_555
C48 C47 1_555 1_555
H78 C48 1_555 1_555
H79 C48 1_555 1_555
C49 N1 1_555 1_555
C50 C49 1_555 1_555
C51 C50 1_555 1_555
H80 C51 1_555 1_555
C52 C51 1_555 1_555
H81 C52 1_555 1_555
C53 C52 1_555 1_555
H82 C53 1_555 1_555
C54 C53 1_555 1_555
H83 C54 1_555 1_555
C55 C50 1_555 1_555
C56 N1 1_555 1_555
O42 H84 1_555 1_555
H85 O42 1_555 1_555
O43 H86 1_555 1_555
H87 O43 1_555 1_555
C1 C2 1_555 1_555
C1 C5 1_555 1_555
C2 C3 1_555 1_555
C5 C6 1_555 1_555
C7 C8 1_555 1_555
C7 C11 1_555 1_555
C8 C9 1_555 1_555
C11 C12 1_555 1_555
C13 C14 1_555 1_555
C13 C17 1_555 1_555
C14 C15 1_555 1_555
C17 C18 1_555 1_555
C19 C20 1_555 1_555
C19 C23 1_555 1_555
C20 C21 1_555 1_555
C23 C24 1_555 1_555
C25 C26 1_555 1_555
C25 C29 1_555 1_555
C26 C27 1_555 1_555
C29 C30 1_555 1_555
C31 C32 1_555 1_555
C31 C35 1_555 1_555
C32 C33 1_555 1_555
C35 C36 1_555 1_555
C37 C38 1_555 1_555
C37 C41 1_555 1_555
C38 C39 1_555 1_555
C41 C42 1_555 1_555
C43 C44 1_555 1_555
C43 C47 1_555 1_555
C44 C45 1_555 1_555
C45 C46 1_555 1_555
C54 C55 1_555 1_555
C55 C56 1_555 1_555

#END
