
#######################################################################
#
#                 Cambridge Crystallographic Data Centre
#                                CCDC 
#
#######################################################################
#
# If this CIF has been generated from an entry in the Cambridge 
# Structural Database, then it will include bibliographic, chemical, 
# crystal, experimental, refinement or atomic coordinate data resulting 
# from the CCDC's data processing and validation procedures.
#
#######################################################################

data_PIFHUK
_chemical_formula_moiety         'C65 H67 Cl5 N6 O4 S6'
_symmetry_cell_setting           triclinic
_symmetry_space_group_name_H-M   'P -1'
_symmetry_Int_Tables_number      2
_space_group_name_Hall           '-P 1'
loop_
_symmetry_equiv_pos_site_id
_symmetry_equiv_pos_as_xyz
1 x,y,z
2 -x,-y,-z
_cell_length_a                   12.3943(9)
_cell_length_b                   12.4852(9)
_cell_length_c                   18.2566(12)
_cell_angle_alpha                94.0179(19)
_cell_angle_beta                 92.5322(19)
_cell_angle_gamma                91.790(2)
_cell_volume                     2813.76
loop_
_atom_site_label
_atom_site_type_symbol
_atom_site_fract_x
_atom_site_fract_y
_atom_site_fract_z
C1 C 0.0897(4) 0.1136(4) 0.4661(2)
C2 C 0.0758(4) 0.0278(4) 0.4114(2)
C3 C -0.0165(4) 0.0237(4) 0.3637(2)
C4 C -0.0906(4) 0.1050(4) 0.3676(2)
C5 C -0.0767(4) 0.1909(4) 0.4207(2)
C6 C 0.0162(4) 0.1955(4) 0.4697(2)
C7 C 0.1832(4) 0.1149(4) 0.5222(2)
H1 H 0.1567 0.1422 0.5701
H2 H 0.2034 0.0396 0.5272
C8 C 0.1603(4) -0.0559(4) 0.4042(3)
H3 H 0.2314 -0.0232 0.4193
H4 H 0.1608 -0.0849 0.3530
H5 H 0.1436 -0.1140 0.4357
C9 C -0.0373(4) -0.0739(4) 0.3098(2)
H6 H -0.0068 -0.1367 0.3326
H7 H -0.1164 -0.0873 0.3039
C10 C -0.1870(4) 0.1020(4) 0.3129(3)
H8 H -0.1681 0.0644 0.2665
H9 H -0.2066 0.1756 0.3040
H10 H -0.2483 0.0642 0.3329
C11 C -0.1600(4) 0.2754(4) 0.4288(3)
H11 H -0.2319 0.2399 0.4175
H12 H -0.1579 0.3027 0.4811
C12 C 0.0351(4) 0.2911(4) 0.5251(3)
H13 H -0.0047 0.2790 0.5691
H14 H 0.0097 0.3560 0.5035
H15 H 0.1124 0.3001 0.5384
C13 C 0.4064(4) 0.5791(4) 0.1335(2)
C14 C 0.3196(4) 0.5683(3) 0.0804(2)
C15 C 0.3108(4) 0.4775(4) 0.0310(2)
C16 C 0.3908(4) 0.4012(4) 0.0313(2)
C17 C 0.4777(4) 0.4117(4) 0.0841(2)
C18 C 0.4857(4) 0.5026(4) 0.1334(2)
C19 C 0.4118(5) 0.6745(4) 0.1903(3)
H16 H 0.4560 0.7329 0.1725
H17 H 0.4443 0.6529 0.2366
H18 H 0.3387 0.6992 0.1983
C20 C 0.2375(4) 0.6549(4) 0.0763(3)
H19 H 0.2759 0.7247 0.0901
H20 H 0.2120 0.6562 0.0242
C21 C 0.2129(4) 0.4628(4) -0.0229(2)
H21 H 0.1496 0.4930 0.0002
H22 H 0.1989 0.3860 -0.0363
H23 H 0.2273 0.4999 -0.0672
C22 C 0.3864(4) 0.3086(4) -0.0272(2)
H24 H 0.3578 0.3357 -0.0736
H25 H 0.4615 0.2873 -0.0352
C23 C 0.5589(4) 0.3253(4) 0.0876(3)
H26 H 0.5234 0.2554 0.0730
H27 H 0.5898 0.3249 0.1379
H28 H 0.6166 0.3393 0.0542
C24 C 0.5836(4) 0.5207(5) 0.1866(2)
H29 H 0.6456 0.4869 0.1629
H30 H 0.6002 0.5989 0.1925
C25 C -0.0747(4) 0.3767(4) 0.3411(2)
H31 H -0.0224 0.3228 0.3382
C26 C -0.0651(4) 0.4689(3) 0.2955(2)
C27 C -0.1434(4) 0.5455(3) 0.2945(2)
H32 H -0.2051 0.5378 0.3230
C28 C -0.1330(4) 0.6340(3) 0.2522(2)
C29 C -0.0420(4) 0.6433(3) 0.2101(2)
H33 H -0.0336 0.7036 0.1816
C30 C 0.0355(4) 0.5667(3) 0.2093(2)
C31 C 0.0243(4) 0.4790(3) 0.2519(2)
H34 H 0.0775 0.4258 0.2514
C32 C 0.1313(4) 0.5745(4) 0.1633(2)
H35 H 0.1854 0.5225 0.1659
C33 C -0.2164(4) 0.7164(4) 0.2521(3)
C34 C -0.2838(4) 0.7384(4) 0.3102(3)
H36 H -0.2817 0.6994 0.3530
C35 C -0.3172(18) 0.8504(18) 0.2137(8)
H37 H -0.3434 0.9014 0.1815
C36 C -0.2363(4) 0.7818(4) 0.1949(3)
H38 H -0.2000 0.7796 0.1501
C37 C 0.0581(4) 0.0104(4) 0.2189(2)
H39 H 0.0702 0.0697 0.2541
C38 C 0.1020(4) 0.0158(3) 0.1453(2)
C39 C 0.1622(4) 0.1061(4) 0.1286(2)
H40 H 0.1736 0.1647 0.1645
C40 C 0.2060(4) 0.1118(3) 0.0600(2)
C41 C 0.1871(4) 0.0263(3) 0.0072(2)
H41 H 0.2156 0.0304 -0.0400
C42 C 0.1272(4) -0.0650(3) 0.0223(2)
C43 C 0.0867(4) -0.0690(3) 0.0922(2)
H42 H 0.0475 -0.1317 0.1038
C44 C 0.1061(4) -0.1548(4) -0.0338(2)
C45 C 0.1599(5) -0.1685(4) -0.0990(3)
H43 H 0.2130 -0.1181 -0.1126
C46 C 0.0327(17) -0.3123(15) -0.0875(8)
H44 H -0.0128 -0.3753 -0.0929
C47 C 0.0311(4) -0.2390(4) -0.0278(2)
H45 H -0.0149 -0.2449 0.0121
C48 C 0.2718(4) 0.2069(3) 0.0447(2)
H46 H 0.2766 0.2670 0.0798
C49 C 0.2905(4) 0.2225(4) 0.4503(2)
H47 H 0.2328 0.2142 0.4141
C50 C 0.3869(4) 0.2879(4) 0.4355(2)
C51 C 0.3971(4) 0.3261(4) 0.3660(2)
H48 H 0.3418 0.3099 0.3288
C52 C 0.4881(4) 0.3878(4) 0.3508(2)
C53 C 0.5681(4) 0.4099(4) 0.4050(2)
H49 H 0.6309 0.4504 0.3943
C54 C 0.5591(4) 0.3742(4) 0.4750(2)
C55 C 0.4686(4) 0.3128(4) 0.4896(2)
H50 H 0.4621 0.2874 0.5371
C56 C 0.4963(4) 0.4285(4) 0.2770(2)
H51 H 0.4384 0.4140 0.2415
C57 C 0.6463(4) 0.3995(4) 0.5325(2)
C58 C 0.7281(4) 0.4773(4) 0.5278(2)
H52 H 0.7323 0.5200 0.4869
C59 C 0.749(2) 0.388(2) 0.6362(13)
H53 H 0.7727 0.3606 0.6814
C60 C 0.6584(4) 0.3473(5) 0.5970(3)
H54 H 0.6111 0.2923 0.6117
N1 N 0.3222(3) 0.2111(3) -0.0138(2)
N2 N -0.1517(3) 0.3681(3) 0.3843(2)
N3 N 0.2821(3) 0.1772(3) 0.5095(2)
N4 N 0.1414(3) 0.6496(3) 0.1208(2)
N5 N 0.0050(3) -0.0711(3) 0.2358(2)
N6 N 0.5782(3) 0.4817(4) 0.2603(2)
S1 S 0.1242(3) -0.2802(2) -0.15157(16)
S2 S -0.3682(3) 0.8380(3) 0.29932(16)
S3 S 0.8185(5) 0.4908(5) 0.5987(3)
C61 C 0.4337(9) 0.0495(9) 0.1782(6)
D1 D 0.3801 0.1031 0.1634
Cl1 Cl 0.3640(6) -0.0469(5) 0.2252(6)
Cl2 Cl 0.4769(7) -0.0144(5) 0.0985(4)
Cl3 Cl 0.5372(4) 0.1206(3) 0.2319(2)
O1 O 0.4441(15) -0.0353(15) 0.5496(7)
H55? H -0.2833 0.7060 0.3557
C62? C -0.3511(18) 0.8169(17) 0.2880(8)
H56? H -0.4056 0.8429 0.3189
H57? H -0.1948 0.7777 0.1524
H58? H 0.2227 -0.1292 -0.1110
C63? C 0.1060(18) -0.2493(14) -0.1431(8)
H59? H 0.1163 -0.2596 -0.1943
H60? H -0.0106 -0.2440 0.0144
H61? H 0.7338 0.5232 0.4887
C64? C 0.7997(16) 0.4785(17) 0.5878(8)
H62? H 0.8619 0.5252 0.5938
H63? H 0.6091 0.2926 0.6096
S4? S 0.0189(6) -0.3300(5) -0.0986(3)
S5? S -0.3351(6) 0.8672(6) 0.2037(3)
S6? S 0.7668(4) 0.3884(5) 0.6508(2)
O2? O 0.4405(19) -0.0700(19) 0.0322(14)
O3? O 0.4376(19) 0.1475(19) 0.2056(12)
O4? O 0.3544(14) 0.0195(19) 0.2737(9)
C65? C 0.4763(13) 0.0419(13) 0.5415(8)
D2? D 0.4256 0.1003 0.5543
Cl4? Cl 0.5457(8) -0.0073(9) 0.6159(6)
Cl5? Cl 0.4148(7) -0.0802(6) 0.5088(6)
loop_
_geom_bond_atom_site_label_1
_geom_bond_atom_site_label_2
_geom_bond_site_symmetry_1
_geom_bond_site_symmetry_2
C1 C2 1_555 1_555
C2 C3 1_555 1_555
C3 C4 1_555 1_555
C4 C5 1_555 1_555
C5 C6 1_555 1_555
C6 C1 1_555 1_555
C7 C1 1_555 1_555
H1 C7 1_555 1_555
H2 C7 1_555 1_555
C8 C2 1_555 1_555
H3 C8 1_555 1_555
H4 C8 1_555 1_555
H5 C8 1_555 1_555
C9 C3 1_555 1_555
H6 C9 1_555 1_555
H7 C9 1_555 1_555
C10 C4 1_555 1_555
H8 C10 1_555 1_555
H9 C10 1_555 1_555
H10 C10 1_555 1_555
C11 C5 1_555 1_555
H11 C11 1_555 1_555
H12 C11 1_555 1_555
C12 C6 1_555 1_555
H13 C12 1_555 1_555
H14 C12 1_555 1_555
H15 C12 1_555 1_555
C13 C14 1_555 1_555
C14 C15 1_555 1_555
C15 C16 1_555 1_555
C16 C17 1_555 1_555
C17 C18 1_555 1_555
C18 C13 1_555 1_555
C19 C13 1_555 1_555
H16 C19 1_555 1_555
H17 C19 1_555 1_555
H18 C19 1_555 1_555
C20 C14 1_555 1_555
H19 C20 1_555 1_555
H20 C20 1_555 1_555
C21 C15 1_555 1_555
H21 C21 1_555 1_555
H22 C21 1_555 1_555
H23 C21 1_555 1_555
C22 C16 1_555 1_555
H24 C22 1_555 1_555
H25 C22 1_555 1_555
C23 C17 1_555 1_555
H26 C23 1_555 1_555
H27 C23 1_555 1_555
H28 C23 1_555 1_555
C24 C18 1_555 1_555
H29 C24 1_555 1_555
H30 C24 1_555 1_555
C25 H31 1_555 1_555
C26 C25 1_555 1_555
C27 C26 1_555 1_555
H32 C27 1_555 1_555
C28 C27 1_555 1_555
C29 C28 1_555 1_555
H33 C29 1_555 1_555
C30 C29 1_555 1_555
C31 C26 1_555 1_555
H34 C31 1_555 1_555
C32 C30 1_555 1_555
H35 C32 1_555 1_555
C33 C28 1_555 1_555
C34 C33 1_555 1_555
H36 C34 1_555 1_555
C35 H37 1_555 1_555
C36 C33 1_555 1_555
H38 C36 1_555 1_555
C37 H39 1_555 1_555
C38 C37 1_555 1_555
C39 C38 1_555 1_555
H40 C39 1_555 1_555
C40 C39 1_555 1_555
C41 C40 1_555 1_555
H41 C41 1_555 1_555
C42 C41 1_555 1_555
C43 C38 1_555 1_555
H42 C43 1_555 1_555
C44 C42 1_555 1_555
C45 C44 1_555 1_555
H43 C45 1_555 1_555
C46 H44 1_555 1_555
C47 C44 1_555 1_555
H45 C47 1_555 1_555
C48 C40 1_555 1_555
H46 C48 1_555 1_555
C49 H47 1_555 1_555
C50 C49 1_555 1_555
C51 C50 1_555 1_555
H48 C51 1_555 1_555
C52 C51 1_555 1_555
C53 C52 1_555 1_555
H49 C53 1_555 1_555
C54 C53 1_555 1_555
C55 C50 1_555 1_555
H50 C55 1_555 1_555
C56 C52 1_555 1_555
H51 C56 1_555 1_555
C57 C54 1_555 1_555
C58 C57 1_555 1_555
H52 C58 1_555 1_555
C59 H53 1_555 1_555
C60 C57 1_555 1_555
H54 C60 1_555 1_555
N1 C22 1_555 1_555
N2 C11 1_555 1_555
N3 C7 1_555 1_555
N4 C20 1_555 1_555
N5 C9 1_555 1_555
N6 C24 1_555 1_555
S1 C45 1_555 1_555
S2 C34 1_555 1_555
S3 C58 1_555 1_555
C61 D1 1_555 1_555
Cl1 C61 1_555 1_555
Cl2 C61 1_555 1_555
Cl3 C61 1_555 1_555
C25 N2 1_555 1_555
C30 C31 1_555 1_555
C32 N4 1_555 1_555
C35 C36 1_555 1_555
C35 S2 1_555 1_555
C37 N5 1_555 1_555
C42 C43 1_555 1_555
C46 C47 1_555 1_555
C46 S1 1_555 1_555
C48 N1 1_555 1_555
C49 N3 1_555 1_555
C54 C55 1_555 1_555
C56 N6 1_555 1_555
C59 C60 1_555 1_555
C59 S3 1_555 1_555

#END
