
#######################################################################
#
#                 Cambridge Crystallographic Data Centre
#                                CCDC 
#
#######################################################################
#
# If this CIF has been generated from an entry in the Cambridge 
# Structural Database, then it will include bibliographic, chemical, 
# crystal, experimental, refinement or atomic coordinate data resulting 
# from the CCDC's data processing and validation procedures.
#
#######################################################################

data_PIFHIY
_chemical_formula_moiety         
'C156 H132 N12,6.675(C4 H8 O2),5.875(C1 H2 Cl2)'
_chemical_name_systematic        
'6,16,26,36(1,3,5)-tetrakis(2,4,6-trimethylbenzena)-1,11,21,31(1,3,5),2,10,12,20,22,30,32,40,41,48,49,53(1,4)-hexadecabenzena-4,8,14,18,24,28,34,38,43,46,51,55-dodecaazapentacyclo[24.14.4.4^6,21^.4^11,36^.4^16,31^]hexapentacontaphane-3,8,13,18,23,28,33,38,42,46,50,54-dodecaene ethyl acetate dichloromethane solvate'
_symmetry_cell_setting           monoclinic
_symmetry_space_group_name_H-M   'C 2/c'
_symmetry_Int_Tables_number      15
_space_group_name_Hall           '-C 2yn'
loop_
_symmetry_equiv_pos_site_id
_symmetry_equiv_pos_as_xyz
1 x,y,z
2 -x,y,1/2-z
3 1/2+x,1/2+y,z
4 1/2-x,1/2+y,1/2-z
5 -x,-y,-z
6 x,-y,1/2+z
7 1/2-x,1/2-y,-z
8 1/2+x,1/2-y,1/2+z
_cell_length_a                   33.688(8)
_cell_length_b                   33.545(8)
_cell_length_c                   33.801(8)
_cell_angle_alpha                90
_cell_angle_beta                 102.385(5)
_cell_angle_gamma                90
_cell_volume                     37308.4
_exptl_crystal_colour            colorless
_exptl_crystal_description       needle
_cell_formula_units_Z            8
loop_
_atom_site_label
_atom_site_type_symbol
_atom_site_fract_x
_atom_site_fract_y
_atom_site_fract_z
N7 N -0.2166(4) 0.7476(3) 0.1566(4)
N8 N 0.2689(3) 0.6163(3) 0.4713(3)
N9 N 0.1272(3) 0.7252(3) 0.4645(3)
N10 N -0.1692(4) 0.4420(3) 0.4183(4)
N11 N -0.0374(4) 0.3139(3) 0.4455(4)
N12 N 0.1760(3) 0.3194(3) 0.2000(4)
C79 C -0.1070(4) 0.3740(3) 0.4851(3)
H67 H -0.1075 0.4029 0.4807
H68 H -0.0788 0.3647 0.4920
H69 H -0.1203 0.3678 0.5075
C80 C 0.2073(2) 0.75195(19) 0.4341(2)
C81 C 0.1989(2) 0.7332(2) 0.4680(3)
C82 C 0.2229(3) 0.7015(2) 0.48568(19)
C83 C 0.2552(2) 0.68856(19) 0.4694(3)
C84 C 0.2636(2) 0.7074(2) 0.4355(3)
C85 C 0.2396(3) 0.7391(2) 0.41779(19)
C86 C 0.2473(4) 0.7607(4) 0.3821(3)
H70 H 0.2753 0.7552 0.3789
H71 H 0.2447 0.7897 0.3862
C87 C 0.1786(4) 0.7878(3) 0.4138(3)
H72 H 0.1671 0.7814 0.3854
H73 H 0.1946 0.8123 0.4153
H74 H 0.1566 0.7915 0.4283
C88 C 0.1649(4) 0.7485(3) 0.4862(4)
H75 H 0.1611 0.7775 0.4815
H76 H 0.1706 0.7433 0.5158
C89 C 0.2126(4) 0.6794(3) 0.5191(3)
H77 H 0.2142 0.6972 0.5424
H78 H 0.2317 0.6572 0.5266
H79 H 0.1849 0.6689 0.5109
C90 C 0.2833(4) 0.6561(3) 0.4896(4)
H80 H 0.3113 0.6613 0.4859
H81 H 0.2839 0.6557 0.5190
C91 C 0.2962(4) 0.6908(3) 0.4169(4)
H82 H 0.3227 0.6965 0.4345
H83 H 0.2947 0.7031 0.3904
H84 H 0.2926 0.6619 0.4137
C92 C -0.1647(3) 0.37041(19) 0.4236(3)
C93 C -0.1845(2) 0.3531(3) 0.3874(3)
C94 C -0.1693(3) 0.3184(2) 0.3738(2)
C95 C -0.1343(3) 0.30090(19) 0.3965(3)
C96 C -0.1145(2) 0.3182(3) 0.4327(3)
C97 C -0.1297(3) 0.3530(2) 0.4463(2)
C98 C -0.1817(4) 0.4070(3) 0.4400(4)
H85 H -0.2117 0.4053 0.4351
H86 H -0.1708 0.4094 0.4695
C99 C -0.2239(4) 0.3729(4) 0.3647(4)
H87 H -0.2467 0.3636 0.3760
H88 H -0.2287 0.3658 0.3359
H89 H -0.2214 0.4019 0.3676
C100 C -0.1895(4) 0.2996(4) 0.3343(4)
H90 H -0.1826 0.2709 0.3348
H91 H -0.2194 0.3020 0.3306
C101 C -0.1150(4) 0.2642(3) 0.3809(4)
H92 H -0.1338 0.2416 0.3785
H93 H -0.0896 0.2575 0.4000
H94 H -0.1092 0.2702 0.3543
C102 C -0.0756(4) 0.2979(4) 0.4583(4)
H95 H -0.0738 0.3035 0.4874
H96 H -0.0774 0.2687 0.4543
C103 C 0.0954(4) 0.7459(4) 0.4494(4)
H97 H 0.0961 0.7742 0.4515
C104 C 0.0573(2) 0.7250(2) 0.4287(2)
C105 C 0.0219(3) 0.74721(17) 0.4171(3)
H98 H 0.0224 0.7752 0.4216
C106 C -0.0142(2) 0.7286(2) 0.3988(3)
H99 H -0.0384 0.7438 0.3909
C107 C -0.0150(2) 0.6876(2) 0.3922(2)
C108 C 0.0204(3) 0.66538(17) 0.4038(2)
H100 H 0.0199 0.6374 0.3993
C109 C 0.0566(2) 0.6840(2) 0.4221(2)
H101 H 0.0807 0.6688 0.4300
C110 C -0.05316(19) 0.6683(2) 0.3730(2)
C111 C -0.0622(2) 0.6315(2) 0.3878(2)
H102 H -0.0439 0.6196 0.4100
C112 C -0.0982(2) 0.61212(18) 0.3703(2)
C113 C -0.12505(19) 0.6295(2) 0.3379(2)
H103 H -0.1496 0.6162 0.3260
C114 C -0.1160(2) 0.6662(2) 0.32306(19)
C115 C -0.0800(2) 0.68562(18) 0.3406(2)
H104 H -0.0738 0.7107 0.3304
C116 C -0.1979(3) 0.7145(3) 0.2189(2)
C117 C -0.1563(3) 0.7205(3) 0.2238(3)
H105 H -0.1460 0.7351 0.2041
C118 C -0.1297(2) 0.7051(3) 0.2576(3)
H106 H -0.1013 0.7092 0.2609
C119 C -0.1447(3) 0.6837(3) 0.2864(2)
C120 C -0.1863(3) 0.6778(3) 0.2815(3)
H107 H -0.1966 0.6632 0.3013
C121 C -0.2129(2) 0.6931(3) 0.2478(3)
H108 H -0.2413 0.6890 0.2444
C122 C -0.1334(3) 0.5032(2) 0.4201(3)
C123 C -0.1113(3) 0.5319(3) 0.4453(2)
H109 H -0.1042 0.5277 0.4737
C124 C -0.0995(2) 0.5669(2) 0.4289(2)
H110 H -0.0844 0.5865 0.4460
C125 C -0.1099(3) 0.5731(2) 0.3873(3)
C126 C -0.1320(3) 0.5444(3) 0.3621(2)
H111 H -0.1391 0.5487 0.3337
C127 C -0.1437(2) 0.5095(2) 0.3785(3)
H112 H -0.1588 0.4899 0.3613
C128 C -0.1464(4) 0.4691(4) 0.4393(5)
H113 H -0.1383 0.4662 0.4678
C129 C -0.2258(5) 0.7307(4) 0.1836(4)
H114 H -0.2540 0.7273 0.1824
C130 C 0.2025(5) 0.3327(4) 0.2293(4)
H115 H 0.2303 0.3299 0.2280
C131 C 0.1935(3) 0.3518(3) 0.2643(2)
C132 C 0.1540(3) 0.3554(3) 0.2700(2)
H116 H 0.1317 0.3480 0.2490
C133 C 0.1471(2) 0.3698(3) 0.3065(3)
H117 H 0.1202 0.3723 0.3104
C134 C 0.1798(3) 0.3807(2) 0.3373(2)
C135 C 0.2193(3) 0.3771(3) 0.3316(2)
H118 H 0.2416 0.3845 0.3526
C136 C 0.2261(2) 0.3627(3) 0.2951(3)
H119 H 0.2531 0.3602 0.2912
C137 C 0.1289(2) 0.3964(2) 0.4258(3)
C138 C 0.1515(3) 0.4281(2) 0.4453(2)
H120 H 0.1451 0.4392 0.4690
C139 C 0.1836(2) 0.4435(2) 0.4302(2)
C140 C 0.1930(2) 0.4272(2) 0.3955(2)
H121 H 0.2149 0.4378 0.3852
C141 C 0.1704(3) 0.3955(2) 0.3760(2)
C142 C 0.1383(2) 0.3801(2) 0.3911(3)
H122 H 0.1228 0.3584 0.3777
C143 C 0.2440(2) 0.55108(19) 0.4777(3)
C144 C 0.2341(3) 0.5445(2) 0.4362(2)
H123 H 0.2404 0.5640 0.4181
C145 C 0.2148(2) 0.5093(2) 0.42102(18)
H124 H 0.2080 0.5048 0.3926
C146 C 0.2055(2) 0.48074(19) 0.4474(3)
C147 C 0.2154(3) 0.4874(2) 0.4890(2)
H125 H 0.2091 0.4678 0.5070
C148 C 0.2347(3) 0.5225(2) 0.50412(18)
H126 H 0.2415 0.5270 0.5325
C149 C 0.2605(4) 0.5897(4) 0.4932(4)
H127 H 0.2649 0.5945 0.5215
C150 C 0.0253(2) 0.3451(3) 0.4605(3)
C151 C 0.0586(3) 0.3554(3) 0.4908(2)
H128 H 0.0581 0.3508 0.5184
C152 C 0.0927(2) 0.3726(3) 0.4807(3)
H129 H 0.1154 0.3796 0.5013
C153 C 0.0935(2) 0.3794(2) 0.4403(3)
C154 C 0.0602(3) 0.3691(3) 0.4100(2)
H130 H 0.0607 0.3737 0.3824
C155 C 0.0261(2) 0.3519(3) 0.4201(3)
H131 H 0.0034 0.3449 0.3994
C156 C -0.0092(4) 0.3279(4) 0.4719(5)
H132 H -0.0106 0.3270 0.4996
N7A N 0.2166(4) 0.7476(3) 0.3434(4)
N8A N -0.2689(3) 0.6163(3) 0.0287(3)
N9A N -0.1272(3) 0.7252(3) 0.0355(3)
N10A N 0.1692(4) 0.4420(3) 0.0817(4)
N11A N 0.0374(4) 0.3139(3) 0.0545(4)
N12A N -0.1760(3) 0.3194(3) 0.3000(4)
C79A C 0.1070(4) 0.3740(3) 0.0149(3)
H67A H 0.1075 0.4029 0.0193
H68A H 0.0788 0.3647 0.0080
H69A H 0.1203 0.3678 -0.0075
C80A C -0.2073(2) 0.75195(19) 0.0659(2)
C81A C -0.1989(2) 0.7332(2) 0.0320(3)
C82A C -0.2229(3) 0.7015(2) 0.01432(19)
C83A C -0.2552(2) 0.68856(19) 0.0306(3)
C84A C -0.2636(2) 0.7074(2) 0.0645(3)
C85A C -0.2396(3) 0.7391(2) 0.08221(19)
C86A C -0.2473(4) 0.7607(4) 0.1179(3)
H70A H -0.2753 0.7552 0.1211
H71A H -0.2447 0.7897 0.1138
C87A C -0.1786(4) 0.7878(3) 0.0862(3)
H72A H -0.1671 0.7814 0.1146
H73A H -0.1946 0.8123 0.0847
H74A H -0.1566 0.7915 0.0717
C88A C -0.1649(4) 0.7485(3) 0.0138(4)
H75A H -0.1611 0.7775 0.0185
H76A H -0.1706 0.7433 -0.0158
C89A C -0.2126(4) 0.6794(3) -0.0191(3)
H77A H -0.2142 0.6972 -0.0424
H78A H -0.2317 0.6572 -0.0266
H79A H -0.1849 0.6689 -0.0109
C90A C -0.2833(4) 0.6561(3) 0.0104(4)
H80A H -0.3113 0.6613 0.0141
H81A H -0.2839 0.6557 -0.0190
C91A C -0.2962(4) 0.6908(3) 0.0831(4)
H82A H -0.3227 0.6965 0.0655
H83A H -0.2947 0.7031 0.1096
H84A H -0.2926 0.6619 0.0863
C92A C 0.1647(3) 0.37041(19) 0.0764(3)
C93A C 0.1845(2) 0.3531(3) 0.1126(3)
C94A C 0.1693(3) 0.3184(2) 0.1262(2)
C95A C 0.1343(3) 0.30090(19) 0.1035(3)
C96A C 0.1145(2) 0.3182(3) 0.0673(3)
C97A C 0.1297(3) 0.3530(2) 0.0537(2)
C98A C 0.1817(4) 0.4070(3) 0.0600(4)
H85A H 0.2117 0.4053 0.0649
H86A H 0.1708 0.4094 0.0305
C99A C 0.2239(4) 0.3729(4) 0.1353(4)
H87A H 0.2467 0.3636 0.1240
H88A H 0.2287 0.3658 0.1641
H89A H 0.2214 0.4019 0.1324
C100A C 0.1895(4) 0.2996(4) 0.1657(4)
H90A H 0.1826 0.2709 0.1652
H91A H 0.2194 0.3020 0.1694
C101A C 0.1150(4) 0.2642(3) 0.1191(4)
H92A H 0.1338 0.2416 0.1215
H93A H 0.0896 0.2575 0.1000
H94A H 0.1092 0.2702 0.1457
C102A C 0.0756(4) 0.2979(4) 0.0417(4)
H95A H 0.0738 0.3035 0.0126
H96A H 0.0774 0.2687 0.0457
C103A C -0.0954(4) 0.7459(4) 0.0506(4)
H97A H -0.0961 0.7742 0.0485
C104A C -0.0573(2) 0.7250(2) 0.0713(2)
C105A C -0.0219(3) 0.74721(17) 0.0829(3)
H98A H -0.0224 0.7752 0.0784
C106A C 0.0142(2) 0.7286(2) 0.1012(3)
H99A H 0.0384 0.7438 0.1091
C107A C 0.0150(2) 0.6876(2) 0.1078(2)
C108A C -0.0204(3) 0.66538(17) 0.0962(2)
H100A H -0.0199 0.6374 0.1007
C109A C -0.0566(2) 0.6840(2) 0.0779(2)
H101A H -0.0807 0.6688 0.0700
C110A C 0.05316(19) 0.6683(2) 0.1270(2)
C111A C 0.0622(2) 0.6315(2) 0.1122(2)
H102A H 0.0439 0.6196 0.0900
C112A C 0.0982(2) 0.61212(18) 0.1297(2)
C113A C 0.12505(19) 0.6295(2) 0.1621(2)
H103A H 0.1496 0.6162 0.1740
C114A C 0.1160(2) 0.6662(2) 0.17694(19)
C115A C 0.0800(2) 0.68562(18) 0.1594(2)
H104A H 0.0738 0.7107 0.1696
C116A C 0.1979(3) 0.7145(3) 0.2811(2)
C117A C 0.1563(3) 0.7205(3) 0.2762(3)
H105A H 0.1460 0.7351 0.2959
C118A C 0.1297(2) 0.7051(3) 0.2424(3)
H106A H 0.1013 0.7092 0.2391
C119A C 0.1447(3) 0.6837(3) 0.2136(2)
C120A C 0.1863(3) 0.6778(3) 0.2185(3)
H107A H 0.1966 0.6632 0.1987
C121A C 0.2129(2) 0.6931(3) 0.2522(3)
H108A H 0.2413 0.6890 0.2556
C122A C 0.1334(3) 0.5032(2) 0.0799(3)
C123A C 0.1113(3) 0.5319(3) 0.0547(2)
H109A H 0.1042 0.5277 0.0263
C124A C 0.0995(2) 0.5669(2) 0.0711(2)
H110A H 0.0844 0.5865 0.0540
C125A C 0.1099(3) 0.5731(2) 0.1127(3)
C126A C 0.1320(3) 0.5444(3) 0.1379(2)
H111A H 0.1391 0.5487 0.1663
C127A C 0.1437(2) 0.5095(2) 0.1215(3)
H112A H 0.1588 0.4899 0.1387
C128A C 0.1464(4) 0.4691(4) 0.0607(5)
H113A H 0.1383 0.4662 0.0322
C129A C 0.2258(5) 0.7307(4) 0.3164(4)
H114A H 0.2540 0.7273 0.3176
C130A C -0.2025(5) 0.3327(4) 0.2707(4)
H115A H -0.2303 0.3299 0.2720
C131A C -0.1935(3) 0.3518(3) 0.2357(2)
C132A C -0.1540(3) 0.3554(3) 0.2300(2)
H116A H -0.1317 0.3480 0.2510
C133A C -0.1471(2) 0.3698(3) 0.1935(3)
H117A H -0.1202 0.3723 0.1896
C134A C -0.1798(3) 0.3807(2) 0.1627(2)
C135A C -0.2193(3) 0.3771(3) 0.1684(2)
H118A H -0.2416 0.3845 0.1474
C136A C -0.2261(2) 0.3627(3) 0.2049(3)
H119A H -0.2531 0.3602 0.2088
C137A C -0.1289(2) 0.3964(2) 0.0742(3)
C138A C -0.1515(3) 0.4281(2) 0.0547(2)
H120A H -0.1451 0.4392 0.0310
C139A C -0.1836(2) 0.4435(2) 0.0698(2)
C140A C -0.1930(2) 0.4272(2) 0.1045(2)
H121A H -0.2149 0.4378 0.1148
C141A C -0.1704(3) 0.3955(2) 0.1240(2)
C142A C -0.1383(2) 0.3801(2) 0.1089(3)
H122A H -0.1228 0.3584 0.1223
C143A C -0.2440(2) 0.55108(19) 0.0223(3)
C144A C -0.2341(3) 0.5445(2) 0.0638(2)
H123A H -0.2404 0.5640 0.0819
C145A C -0.2148(2) 0.5093(2) 0.07898(18)
H124A H -0.2080 0.5048 0.1074
C146A C -0.2055(2) 0.48074(19) 0.0526(3)
C147A C -0.2154(3) 0.4874(2) 0.0110(2)
H125A H -0.2091 0.4678 -0.0070
C148A C -0.2347(3) 0.5225(2) -0.00412(18)
H126A H -0.2415 0.5270 -0.0325
C149A C -0.2605(4) 0.5897(4) 0.0068(4)
H127A H -0.2649 0.5945 -0.0215
C150A C -0.0253(2) 0.3451(3) 0.0395(3)
C151A C -0.0586(3) 0.3554(3) 0.0092(2)
H128A H -0.0581 0.3508 -0.0184
C152A C -0.0927(2) 0.3726(3) 0.0193(3)
H129A H -0.1154 0.3796 -0.0013
C153A C -0.0935(2) 0.3794(2) 0.0597(3)
C154A C -0.0602(3) 0.3691(3) 0.0900(2)
H130A H -0.0607 0.3737 0.1176
C155A C -0.0261(2) 0.3519(3) 0.0799(3)
H131A H -0.0034 0.3449 0.1006
C156A C 0.0092(4) 0.3279(4) 0.0281(5)
H132A H 0.0106 0.3270 0.0004
O1 O 0.0054(4) 0.5845(4) 0.4653(4)
O2 O 0.0549(6) 0.5408(5) 0.4711(6)
C157 C 0.0227(6) 0.5477(6) 0.5292(5)
H133 H 0.0396 0.5664 0.5478
H134 H 0.0338 0.5207 0.5343
H135 H -0.0051 0.5484 0.5336
C158 C 0.0225(6) 0.5594(6) 0.4862(6)
C159 C 0.0632(8) 0.5523(8) 0.4326(7)
H136 H 0.0632 0.5817 0.4312
H137 H 0.0405 0.5427 0.4110
C160 C 0.1035(11) 0.5370(13) 0.4230(13)
H138 H 0.1243 0.5579 0.4294
H139 H 0.0992 0.5301 0.3942
H140 H 0.1127 0.5133 0.4394
N1 N 0.3826(3) 0.4732(3) 0.4866(3)
N2 N 0.3238(3) 0.3501(3) 0.3638(3)
N3 N 0.2646(5) 0.7305(5) 0.1666(5)
N4 N 0.2143(6) 0.6079(5) 0.0502(5)
N5 N 0.5103(4) 0.3337(3) 0.0349(3)
N6 N 0.6508(5) 0.7194(4) 0.4620(4)
C1 C 0.3747(3) 0.4010(2) 0.4836(3)
C2 C 0.3459(2) 0.3839(3) 0.4525(3)
C3 C 0.3544(3) 0.3481(3) 0.4353(2)
C4 C 0.3916(3) 0.3294(2) 0.4491(2)
C5 C 0.4203(2) 0.3465(3) 0.4802(3)
C6 C 0.4119(3) 0.3823(3) 0.4974(2)
C7 C 0.3058(4) 0.4069(4) 0.4361(4)
H1 H 0.3017 0.4269 0.4560
H2 H 0.2830 0.3882 0.4312
H3 H 0.3074 0.4202 0.4107
C8 C 0.3658(4) 0.4397(4) 0.5042(4)
H4 H 0.3361 0.4432 0.5007
H5 H 0.3779 0.4383 0.5335
C9 C 0.4450(4) 0.4072(4) 0.5267(4)
H6 H 0.4439 0.4349 0.5176
H7 H 0.4719 0.3961 0.5268
H8 H 0.4399 0.4060 0.5542
C10 C 0.4619(4) 0.3258(4) 0.4941(4)
H9 H 0.4750 0.3354 0.5214
H10 H 0.4576 0.2967 0.4959
C11 C 0.4010(4) 0.2920(4) 0.4287(4)
H11 H 0.3924 0.2689 0.4425
H12 H 0.4303 0.2905 0.4300
H13 H 0.3864 0.2923 0.4004
C12 C 0.3240(4) 0.3310(4) 0.4015(4)
H14 H 0.3299 0.3023 0.3991
H15 H 0.2967 0.3333 0.4077
C13 C 0.2736(3) 0.7482(3) 0.0767(4)
C14 C 0.2441(4) 0.7346(3) 0.0967(2)
C15 C 0.2210(3) 0.7012(4) 0.0823(3)
C16 C 0.2273(3) 0.6814(2) 0.0481(4)
C17 C 0.2567(4) 0.6950(3) 0.0282(2)
C18 C 0.2799(3) 0.7283(4) 0.0425(4)
C19 C 0.2398(5) 0.7542(5) 0.1345(4)
H16 H 0.2497 0.7821 0.1355
H17 H 0.2111 0.7543 0.1370
C20 C 0.1905(5) 0.6890(5) 0.1088(5)
H18 H 0.2053 0.6761 0.1337
H19 H 0.1705 0.6704 0.0937
H20 H 0.1766 0.7128 0.1159
C21 C 0.2010(5) 0.6465(5) 0.0338(5)
H21 H 0.1739 0.6518 0.0398
H22 H 0.1973 0.6451 0.0040
C22 C 0.2664(5) 0.6706(5) -0.0055(4)
H23 H 0.2523 0.6449 -0.0068
H24 H 0.2958 0.6660 -0.0005
H25 H 0.2575 0.6848 -0.0312
C23 C 0.3089(5) 0.7407(5) 0.0196(5)
H26 H 0.3126 0.7700 0.0214
H27 H 0.2995 0.7333 -0.0092
C24 C 0.3003(5) 0.7827(4) 0.0917(5)
H28 H 0.2836 0.8054 0.0962
H29 H 0.3161 0.7899 0.0715
H30 H 0.3189 0.7755 0.1172
C25 C 0.3606(4) 0.5014(4) 0.4726(4)
H31 H 0.3337 0.5017 0.4768
C26 C 0.3732(3) 0.5344(2) 0.4498(2)
C27 C 0.3462(2) 0.5637(3) 0.4314(3)
H32 H 0.3188 0.5631 0.4343
C28 C 0.3594(3) 0.5937(2) 0.4090(2)
H33 H 0.3409 0.6137 0.3965
C29 C 0.3995(3) 0.5945(2) 0.4048(2)
C30 C 0.4265(2) 0.5652(3) 0.4231(3)
H34 H 0.4540 0.5657 0.4203
C31 C 0.4134(2) 0.5352(2) 0.4456(2)
H35 H 0.4318 0.5152 0.4581
C32 C 0.3995(2) 0.6755(2) 0.32619(19)
C33 C 0.4384(3) 0.6910(2) 0.3389(2)
H36 H 0.4469 0.7128 0.3249
C34 C 0.46481(19) 0.6745(2) 0.3722(3)
C35 C 0.4523(2) 0.6425(2) 0.3927(2)
H37 H 0.4704 0.6313 0.4154
C36 C 0.4134(3) 0.6271(2) 0.3799(2)
C37 C 0.38695(18) 0.6436(3) 0.3467(3)
H38 H 0.3603 0.6330 0.3380
C38 C 0.5810(2) 0.7238(3) 0.4280(3)
C39 C 0.5782(2) 0.6839(3) 0.4166(3)
H39 H 0.6016 0.6675 0.4223
C40 C 0.5410(3) 0.6682(2) 0.3968(3)
H40 H 0.5391 0.6409 0.3890
C41 C 0.5067(2) 0.6923(3) 0.3885(3)
C42 C 0.5095(2) 0.7322(3) 0.3999(3)
H41 H 0.4860 0.7487 0.3942
C43 C 0.5466(3) 0.7479(2) 0.4197(3)
H42 H 0.5485 0.7752 0.4275
C44 C 0.6215(4) 0.7403(5) 0.4493(5)
H43 H 0.6241 0.7684 0.4529
C45 C 0.3191(3) 0.7263(4) 0.2231(3)
C46 C 0.3522(4) 0.7481(3) 0.2436(3)
H44 H 0.3563 0.7747 0.2355
C47 C 0.3794(3) 0.7312(3) 0.2761(3)
H45 H 0.4020 0.7461 0.2901
C48 C 0.3734(3) 0.6924(3) 0.2880(2)
C49 C 0.3402(4) 0.6706(3) 0.2675(3)
H46 H 0.3361 0.6441 0.2757
C50 C 0.3131(3) 0.6875(3) 0.2351(3)
H47 H 0.2904 0.6726 0.2211
C51 C 0.2903(5) 0.7468(6) 0.1892(4)
H48 H 0.2933 0.7747 0.1860
C52 C 0.3321(4) 0.3324(4) 0.3333(4)
H49 H 0.3388 0.3050 0.3376
C53 C 0.3332(3) 0.3469(3) 0.29248(19)
C54 C 0.3329(3) 0.32204(19) 0.2595(3)
H50 H 0.3328 0.2939 0.2628
C55 C 0.3326(3) 0.3384(3) 0.2216(2)
H51 H 0.3324 0.3214 0.1991
C56 C 0.3327(3) 0.3795(3) 0.21677(19)
C57 C 0.3331(3) 0.40433(19) 0.2498(3)
H52 H 0.3332 0.4325 0.2464
C58 C 0.3334(3) 0.3880(3) 0.2876(2)
H53 H 0.3336 0.4050 0.3102
C59 C 0.3364(3) 0.3979(2) 0.17666(18)
C60 C 0.3602(2) 0.37990(18) 0.1529(2)
H54 H 0.3741 0.3557 0.1615
C61 C 0.3638(2) 0.3973(2) 0.1165(2)
C62 C 0.3435(3) 0.4327(2) 0.10386(18)
H55 H 0.3459 0.4446 0.0790
C63 C 0.3197(2) 0.45066(18) 0.1277(2)
C64 C 0.3161(2) 0.4333(2) 0.1641(2)
H56 H 0.2998 0.4456 0.1803
C65 C 0.2624(3) 0.5616(2) 0.0858(3)
C66 C 0.3029(3) 0.5545(2) 0.0852(3)
H57 H 0.3183 0.5742 0.0749
C67 C 0.3209(2) 0.5186(3) 0.0997(3)
H58 H 0.3486 0.5137 0.0993
C68 C 0.2984(3) 0.4898(2) 0.1149(3)
C69 C 0.2579(3) 0.4970(3) 0.1155(3)
H59 H 0.2426 0.4773 0.1258
C70 C 0.2399(2) 0.5329(3) 0.1009(3)
H60 H 0.2122 0.5377 0.1013
C71 C 0.2408(7) 0.5981(5) 0.0662(6)
H61 H 0.2593 0.6199 0.0707
C72 C 0.4473(3) 0.3587(2) 0.0452(3)
C73 C 0.4093(3) 0.3731(2) 0.02623(18)
H62 H 0.4022 0.3752 -0.0025
C74 C 0.3815(2) 0.3845(2) 0.0492(3)
H63 H 0.3556 0.3944 0.0362
C75 C 0.3918(3) 0.3815(2) 0.0912(3)
C76 C 0.4299(3) 0.3671(2) 0.11017(18)
H64 H 0.4369 0.3651 0.1389
C77 C 0.4576(2) 0.3558(2) 0.0872(3)
H65 H 0.4835 0.3459 0.1002
C78 C 0.4753(4) 0.3495(4) 0.0184(4)
H66 H 0.4681 0.3548 -0.0098
N1A N 0.6174(3) 0.4732(3) 0.0134(3)
N2A N 0.6762(3) 0.3501(3) 0.1362(3)
N3A N 0.7354(5) 0.7305(5) 0.3334(5)
N4A N 0.7857(6) 0.6079(5) 0.4498(5)
N5A N 0.4897(4) 0.3337(3) 0.4651(3)
N6A N 0.3492(5) 0.7194(4) 0.0380(4)
C1A C 0.6253(3) 0.4010(2) 0.0164(3)
C2A C 0.6541(2) 0.3839(3) 0.0475(3)
C3A C 0.6456(3) 0.3481(3) 0.0647(2)
C4A C 0.6084(3) 0.3294(2) 0.0509(2)
C5A C 0.5797(2) 0.3465(3) 0.0198(3)
C6A C 0.5881(3) 0.3823(3) 0.0026(2)
C7A C 0.6942(4) 0.4069(4) 0.0639(4)
H1A H 0.6983 0.4269 0.0440
H2A H 0.7170 0.3882 0.0688
H3A H 0.6926 0.4202 0.0893
C8A C 0.6342(4) 0.4397(4) -0.0042(4)
H4A H 0.6639 0.4432 -0.0007
H5A H 0.6221 0.4383 -0.0335
C9A C 0.5550(4) 0.4072(4) -0.0267(4)
H6A H 0.5561 0.4349 -0.0176
H7A H 0.5281 0.3961 -0.0268
H8A H 0.5601 0.4060 -0.0542
C10A C 0.5381(4) 0.3258(4) 0.0059(4)
H9A H 0.5250 0.3354 -0.0214
H10A H 0.5424 0.2967 0.0041
C11A C 0.5990(4) 0.2920(4) 0.0713(4)
H11A H 0.6076 0.2689 0.0575
H12A H 0.5697 0.2905 0.0700
H13A H 0.6136 0.2923 0.0996
C12A C 0.6760(4) 0.3310(4) 0.0985(4)
H14A H 0.6701 0.3023 0.1009
H15A H 0.7033 0.3333 0.0923
C13A C 0.7264(3) 0.7482(3) 0.4233(4)
C14A C 0.7559(4) 0.7346(3) 0.4033(2)
C15A C 0.7790(3) 0.7012(4) 0.4177(3)
C16A C 0.7727(3) 0.6814(2) 0.4519(4)
C17A C 0.7433(4) 0.6950(3) 0.4718(2)
C18A C 0.7201(3) 0.7283(4) 0.4575(4)
C19A C 0.7602(5) 0.7542(5) 0.3655(4)
H16A H 0.7503 0.7821 0.3645
H17A H 0.7889 0.7543 0.3630
C20A C 0.8095(5) 0.6890(5) 0.3912(5)
H18A H 0.7947 0.6761 0.3663
H19A H 0.8295 0.6704 0.4063
H20A H 0.8234 0.7128 0.3841
C21A C 0.7990(5) 0.6465(5) 0.4662(5)
H21A H 0.8261 0.6518 0.4602
H22A H 0.8027 0.6451 0.4960
C22A C 0.7336(5) 0.6706(5) 0.5055(4)
H23A H 0.7477 0.6449 0.5068
H24A H 0.7042 0.6660 0.5005
H25A H 0.7425 0.6848 0.5312
C23A C 0.6911(5) 0.7407(5) 0.4804(5)
H26A H 0.6874 0.7700 0.4786
H27A H 0.7005 0.7333 0.5092
C24A C 0.6997(5) 0.7827(4) 0.4083(5)
H28A H 0.7164 0.8054 0.4038
H29A H 0.6839 0.7899 0.4285
H30A H 0.6811 0.7755 0.3828
C25A C 0.6394(4) 0.5014(4) 0.0274(4)
H31A H 0.6663 0.5017 0.0232
C26A C 0.6268(3) 0.5344(2) 0.0502(2)
C27A C 0.6538(2) 0.5637(3) 0.0686(3)
H32A H 0.6812 0.5631 0.0657
C28A C 0.6406(3) 0.5937(2) 0.0910(2)
H33A H 0.6591 0.6137 0.1035
C29A C 0.6005(3) 0.5945(2) 0.0952(2)
C30A C 0.5735(2) 0.5652(3) 0.0769(3)
H34A H 0.5460 0.5657 0.0797
C31A C 0.5866(2) 0.5352(2) 0.0544(2)
H35A H 0.5682 0.5152 0.0419
C32A C 0.6005(2) 0.6755(2) 0.17381(19)
C33A C 0.5616(3) 0.6910(2) 0.1611(2)
H36A H 0.5531 0.7128 0.1751
C34A C 0.53519(19) 0.6745(2) 0.1278(3)
C35A C 0.5477(2) 0.6425(2) 0.1073(2)
H37A H 0.5296 0.6313 0.0846
C36A C 0.5866(3) 0.6271(2) 0.1201(2)
C37A C 0.61305(18) 0.6436(3) 0.1533(3)
H38A H 0.6397 0.6330 0.1620
C38A C 0.4190(2) 0.7238(3) 0.0720(3)
C39A C 0.4218(2) 0.6839(3) 0.0834(3)
H39A H 0.3984 0.6675 0.0777
C40A C 0.4590(3) 0.6682(2) 0.1032(3)
H40A H 0.4609 0.6409 0.1110
C41A C 0.4933(2) 0.6923(3) 0.1115(3)
C42A C 0.4905(2) 0.7322(3) 0.1001(3)
H41A H 0.5140 0.7487 0.1058
C43A C 0.4534(3) 0.7479(2) 0.0803(3)
H42A H 0.4515 0.7752 0.0725
C44A C 0.3785(4) 0.7403(5) 0.0507(5)
H43A H 0.3759 0.7684 0.0471
C45A C 0.6809(3) 0.7263(4) 0.2769(3)
C46A C 0.6478(4) 0.7481(3) 0.2564(3)
H44A H 0.6437 0.7747 0.2645
C47A C 0.6206(3) 0.7312(3) 0.2239(3)
H45A H 0.5980 0.7461 0.2099
C48A C 0.6266(3) 0.6924(3) 0.2120(2)
C49A C 0.6598(4) 0.6706(3) 0.2325(3)
H46A H 0.6639 0.6441 0.2243
C50A C 0.6869(3) 0.6875(3) 0.2649(3)
H47A H 0.7096 0.6726 0.2789
C51A C 0.7097(5) 0.7468(6) 0.3108(4)
H48A H 0.7067 0.7747 0.3140
C52A C 0.6679(4) 0.3324(4) 0.1667(4)
H49A H 0.6612 0.3050 0.1624
C53A C 0.6668(3) 0.3469(3) 0.20752(19)
C54A C 0.6671(3) 0.32204(19) 0.2405(3)
H50A H 0.6672 0.2939 0.2372
C55A C 0.6674(3) 0.3384(3) 0.2784(2)
H51A H 0.6676 0.3214 0.3009
C56A C 0.6673(3) 0.3795(3) 0.28323(19)
C57A C 0.6669(3) 0.40433(19) 0.2502(3)
H52A H 0.6668 0.4325 0.2536
C58A C 0.6666(3) 0.3880(3) 0.2124(2)
H53A H 0.6664 0.4050 0.1898
C59A C 0.6636(3) 0.3979(2) 0.32334(18)
C60A C 0.6398(2) 0.37990(18) 0.3471(2)
H54A H 0.6259 0.3557 0.3385
C61A C 0.6362(2) 0.3973(2) 0.3835(2)
C62A C 0.6565(3) 0.4327(2) 0.39614(18)
H55A H 0.6541 0.4446 0.4210
C63A C 0.6803(2) 0.45066(18) 0.3723(2)
C64A C 0.6839(2) 0.4333(2) 0.3359(2)
H56A H 0.7002 0.4456 0.3197
C65A C 0.7376(3) 0.5616(2) 0.4142(3)
C66A C 0.6971(3) 0.5545(2) 0.4148(3)
H57A H 0.6817 0.5742 0.4251
C67A C 0.6791(2) 0.5186(3) 0.4003(3)
H58A H 0.6514 0.5137 0.4007
C68A C 0.7016(3) 0.4898(2) 0.3851(3)
C69A C 0.7421(3) 0.4970(3) 0.3845(3)
H59A H 0.7574 0.4773 0.3742
C70A C 0.7601(2) 0.5329(3) 0.3991(3)
H60A H 0.7878 0.5377 0.3987
C71A C 0.7592(7) 0.5981(5) 0.4338(6)
H61A H 0.7407 0.6199 0.4293
C72A C 0.5527(3) 0.3587(2) 0.4548(3)
C73A C 0.5907(3) 0.3731(2) 0.47377(18)
H62A H 0.5978 0.3752 0.5025
C74A C 0.6185(2) 0.3845(2) 0.4508(3)
H63A H 0.6444 0.3944 0.4638
C75A C 0.6082(3) 0.3815(2) 0.4088(3)
C76A C 0.5701(3) 0.3671(2) 0.38983(18)
H64A H 0.5631 0.3651 0.3611
C77A C 0.5424(2) 0.3558(2) 0.4128(3)
H65A H 0.5165 0.3459 0.3998
C78A C 0.5247(4) 0.3495(4) 0.4816(4)
H66A H 0.5319 0.3548 0.5098
loop_
_geom_bond_atom_site_label_1
_geom_bond_atom_site_label_2
_geom_bond_site_symmetry_1
_geom_bond_site_symmetry_2
N1 C8 1_555 1_555
N2 C12 1_555 1_555
N3 C19 1_555 1_555
N4 C21 1_555 1_555
N5 C78 1_555 1_555
N6 C44 1_555 1_555
C1 C2 1_555 1_555
C2 C3 1_555 1_555
C3 C4 1_555 1_555
C4 C5 1_555 1_555
C5 C6 1_555 1_555
C6 C1 1_555 1_555
C7 C2 1_555 1_555
H1 C7 1_555 1_555
H2 C7 1_555 1_555
H3 C7 1_555 1_555
C8 C1 1_555 1_555
H4 C8 1_555 1_555
H5 C8 1_555 1_555
C9 C6 1_555 1_555
H6 C9 1_555 1_555
H7 C9 1_555 1_555
H8 C9 1_555 1_555
C10 C5 1_555 1_555
H9 C10 1_555 1_555
H10 C10 1_555 1_555
C11 C4 1_555 1_555
H11 C11 1_555 1_555
H12 C11 1_555 1_555
H13 C11 1_555 1_555
C12 C3 1_555 1_555
H14 C12 1_555 1_555
H15 C12 1_555 1_555
C13 C14 1_555 1_555
C14 C15 1_555 1_555
C15 C16 1_555 1_555
C16 C17 1_555 1_555
C17 C18 1_555 1_555
C18 C13 1_555 1_555
C19 C14 1_555 1_555
H16 C19 1_555 1_555
H17 C19 1_555 1_555
C20 C15 1_555 1_555
H18 C20 1_555 1_555
H19 C20 1_555 1_555
H20 C20 1_555 1_555
C21 C16 1_555 1_555
H21 C21 1_555 1_555
H22 C21 1_555 1_555
C22 C17 1_555 1_555
H23 C22 1_555 1_555
H24 C22 1_555 1_555
H25 C22 1_555 1_555
C23 C18 1_555 1_555
H26 C23 1_555 1_555
H27 C23 1_555 1_555
C24 C13 1_555 1_555
H28 C24 1_555 1_555
H29 C24 1_555 1_555
H30 C24 1_555 1_555
C25 N1 1_555 1_555
H31 C25 1_555 1_555
C26 C25 1_555 1_555
C27 C26 1_555 1_555
H32 C27 1_555 1_555
C28 C27 1_555 1_555
H33 C28 1_555 1_555
C29 C28 1_555 1_555
C30 C29 1_555 1_555
H34 C30 1_555 1_555
C31 C26 1_555 1_555
H35 C31 1_555 1_555
C32 C33 1_555 1_555
C33 H36 1_555 1_555
C34 C33 1_555 1_555
C35 C34 1_555 1_555
H37 C35 1_555 1_555
C36 C29 1_555 1_555
C37 C32 1_555 1_555
H38 C37 1_555 1_555
C38 C39 1_555 1_555
C39 H39 1_555 1_555
C40 C39 1_555 1_555
H40 C40 1_555 1_555
C41 C34 1_555 1_555
C42 C41 1_555 1_555
H41 C42 1_555 1_555
C43 C38 1_555 1_555
H42 C43 1_555 1_555
C44 C38 1_555 1_555
H43 C44 1_555 1_555
C45 C46 1_555 1_555
C46 H44 1_555 1_555
C47 C46 1_555 1_555
H45 C47 1_555 1_555
C48 C32 1_555 1_555
C49 C48 1_555 1_555
H46 C49 1_555 1_555
C50 C45 1_555 1_555
H47 C50 1_555 1_555
C51 N3 1_555 1_555
H48 C51 1_555 1_555
C52 N2 1_555 1_555
H49 C52 1_555 1_555
C53 C52 1_555 1_555
C54 C53 1_555 1_555
H50 C54 1_555 1_555
C55 C54 1_555 1_555
H51 C55 1_555 1_555
C56 C55 1_555 1_555
C57 C56 1_555 1_555
H52 C57 1_555 1_555
C58 C53 1_555 1_555
H53 C58 1_555 1_555
C59 C56 1_555 1_555
C60 C59 1_555 1_555
H54 C60 1_555 1_555
C61 C60 1_555 1_555
C62 C61 1_555 1_555
H55 C62 1_555 1_555
C63 C62 1_555 1_555
C64 C59 1_555 1_555
H56 C64 1_555 1_555
C65 C66 1_555 1_555
C66 H57 1_555 1_555
C67 C66 1_555 1_555
H58 C67 1_555 1_555
C68 C63 1_555 1_555
C69 C68 1_555 1_555
H59 C69 1_555 1_555
C70 C65 1_555 1_555
H60 C70 1_555 1_555
C71 N4 1_555 1_555
H61 C71 1_555 1_555
C72 C73 1_555 1_555
C73 H62 1_555 1_555
C74 C73 1_555 1_555
H63 C74 1_555 1_555
C75 C61 1_555 1_555
C76 C75 1_555 1_555
H64 C76 1_555 1_555
C77 C72 1_555 1_555
H65 C77 1_555 1_555
C78 C72 1_555 1_555
H66 C78 1_555 1_555
N7 C129 1_555 1_555
N8 C90 1_555 1_555
N9 C88 1_555 1_555
N10 C98 1_555 1_555
N11 C102 1_555 1_555
N12 C130 1_555 1_555
C79 H67 1_555 1_555
H68 C79 1_555 1_555
H69 C79 1_555 1_555
C80 C81 1_555 1_555
C81 C82 1_555 1_555
C82 C83 1_555 1_555
C83 C84 1_555 1_555
C84 C85 1_555 1_555
C85 C80 1_555 1_555
C86 C85 1_555 1_555
H70 C86 1_555 1_555
H71 C86 1_555 1_555
C87 C80 1_555 1_555
H72 C87 1_555 1_555
H73 C87 1_555 1_555
H74 C87 1_555 1_555
C88 C81 1_555 1_555
H75 C88 1_555 1_555
H76 C88 1_555 1_555
C89 C82 1_555 1_555
H77 C89 1_555 1_555
H78 C89 1_555 1_555
H79 C89 1_555 1_555
C90 C83 1_555 1_555
H80 C90 1_555 1_555
H81 C90 1_555 1_555
C91 C84 1_555 1_555
H82 C91 1_555 1_555
H83 C91 1_555 1_555
H84 C91 1_555 1_555
C92 C93 1_555 1_555
C93 C94 1_555 1_555
C94 C95 1_555 1_555
C95 C96 1_555 1_555
C96 C97 1_555 1_555
C97 C79 1_555 1_555
C98 C92 1_555 1_555
H85 C98 1_555 1_555
H86 C98 1_555 1_555
C99 C93 1_555 1_555
H87 C99 1_555 1_555
H88 C99 1_555 1_555
H89 C99 1_555 1_555
C100 C94 1_555 1_555
H90 C100 1_555 1_555
H91 C100 1_555 1_555
C101 C95 1_555 1_555
H92 C101 1_555 1_555
H93 C101 1_555 1_555
H94 C101 1_555 1_555
C102 C96 1_555 1_555
H95 C102 1_555 1_555
H96 C102 1_555 1_555
C103 N9 1_555 1_555
H97 C103 1_555 1_555
C104 C103 1_555 1_555
C105 C104 1_555 1_555
H98 C105 1_555 1_555
C106 C105 1_555 1_555
H99 C106 1_555 1_555
C107 C106 1_555 1_555
C108 C107 1_555 1_555
H100 C108 1_555 1_555
C109 C104 1_555 1_555
H101 C109 1_555 1_555
C110 C107 1_555 1_555
C111 C110 1_555 1_555
H102 C111 1_555 1_555
C112 C111 1_555 1_555
C113 C112 1_555 1_555
H103 C113 1_555 1_555
C114 C113 1_555 1_555
C115 C110 1_555 1_555
H104 C115 1_555 1_555
C116 C117 1_555 1_555
C117 H105 1_555 1_555
C118 C117 1_555 1_555
H106 C118 1_555 1_555
C119 C114 1_555 1_555
C120 C119 1_555 1_555
H107 C120 1_555 1_555
C121 C116 1_555 1_555
H108 C121 1_555 1_555
C122 C123 1_555 1_555
C123 H109 1_555 1_555
C124 C123 1_555 1_555
H110 C124 1_555 1_555
C125 C112 1_555 1_555
C126 C125 1_555 1_555
H111 C126 1_555 1_555
C127 C122 1_555 1_555
H112 C127 1_555 1_555
C128 N10 1_555 1_555
H113 C128 1_555 1_555
C129 C116 1_555 1_555
H114 C129 1_555 1_555
C130 H115 1_555 1_555
C131 C130 1_555 1_555
C132 C131 1_555 1_555
H116 C132 1_555 1_555
C133 C132 1_555 1_555
H117 C133 1_555 1_555
C134 C133 1_555 1_555
C135 C134 1_555 1_555
H118 C135 1_555 1_555
C136 C131 1_555 1_555
H119 C136 1_555 1_555
C137 C138 1_555 1_555
C138 H120 1_555 1_555
C139 C138 1_555 1_555
C140 C139 1_555 1_555
H121 C140 1_555 1_555
C141 C134 1_555 1_555
C142 C137 1_555 1_555
H122 C142 1_555 1_555
C143 C144 1_555 1_555
C144 H123 1_555 1_555
C145 C144 1_555 1_555
H124 C145 1_555 1_555
C146 C139 1_555 1_555
C147 C146 1_555 1_555
H125 C147 1_555 1_555
C148 C143 1_555 1_555
H126 C148 1_555 1_555
C149 N8 1_555 1_555
H127 C149 1_555 1_555
C150 C151 1_555 1_555
C151 H128 1_555 1_555
C152 C151 1_555 1_555
H129 C152 1_555 1_555
C153 C137 1_555 1_555
C154 C153 1_555 1_555
H130 C154 1_555 1_555
C155 C150 1_555 1_555
H131 C155 1_555 1_555
C156 N11 1_555 1_555
H132 C156 1_555 1_555
O1 C158 1_555 1_555
O2 C158 1_555 1_555
C157 H133 1_555 1_555
H134 C157 1_555 1_555
H135 C157 1_555 1_555
C158 C157 1_555 1_555
C159 O2 1_555 1_555
H136 C159 1_555 1_555
H137 C159 1_555 1_555
C160 C159 1_555 1_555
H138 C160 1_555 1_555
H139 C160 1_555 1_555
H140 C160 1_555 1_555
N1A C8A 1_555 1_555
N2A C12A 1_555 1_555
N3A C19A 1_555 1_555
N4A C21A 1_555 1_555
N5A C10 1_555 1_555
N6A C23 1_555 1_555
C1A C2A 1_555 1_555
C2A C3A 1_555 1_555
C3A C4A 1_555 1_555
C4A C5A 1_555 1_555
C5A C6A 1_555 1_555
C6A C1A 1_555 1_555
C7A C2A 1_555 1_555
H1A C7A 1_555 1_555
H2A C7A 1_555 1_555
H3A C7A 1_555 1_555
C8A C1A 1_555 1_555
H4A C8A 1_555 1_555
H5A C8A 1_555 1_555
C9A C6A 1_555 1_555
H6A C9A 1_555 1_555
H7A C9A 1_555 1_555
H8A C9A 1_555 1_555
C10A N5 1_555 1_555
H9A C10A 1_555 1_555
H10A C10A 1_555 1_555
C11A C4A 1_555 1_555
H11A C11A 1_555 1_555
H12A C11A 1_555 1_555
H13A C11A 1_555 1_555
C12A C3A 1_555 1_555
H14A C12A 1_555 1_555
H15A C12A 1_555 1_555
C13A C14A 1_555 1_555
C14A C15A 1_555 1_555
C15A C16A 1_555 1_555
C16A C17A 1_555 1_555
C17A C18A 1_555 1_555
C18A C13A 1_555 1_555
C19A C14A 1_555 1_555
H16A C19A 1_555 1_555
H17A C19A 1_555 1_555
C20A C15A 1_555 1_555
H18A C20A 1_555 1_555
H19A C20A 1_555 1_555
H20A C20A 1_555 1_555
C21A C16A 1_555 1_555
H21A C21A 1_555 1_555
H22A C21A 1_555 1_555
C22A C17A 1_555 1_555
H23A C22A 1_555 1_555
H24A C22A 1_555 1_555
H25A C22A 1_555 1_555
C23A N6 1_555 1_555
H26A C23A 1_555 1_555
H27A C23A 1_555 1_555
C24A C13A 1_555 1_555
H28A C24A 1_555 1_555
H29A C24A 1_555 1_555
H30A C24A 1_555 1_555
C25A N1A 1_555 1_555
H31A C25A 1_555 1_555
C26A C25A 1_555 1_555
C27A C26A 1_555 1_555
H32A C27A 1_555 1_555
C28A C27A 1_555 1_555
H33A C28A 1_555 1_555
C29A C28A 1_555 1_555
C30A C29A 1_555 1_555
H34A C30A 1_555 1_555
C31A C26A 1_555 1_555
H35A C31A 1_555 1_555
C32A C33A 1_555 1_555
C33A H36A 1_555 1_555
C34A C33A 1_555 1_555
C35A C34A 1_555 1_555
H37A C35A 1_555 1_555
C36A C29A 1_555 1_555
C37A C32A 1_555 1_555
H38A C37A 1_555 1_555
C38A C39A 1_555 1_555
C39A H39A 1_555 1_555
C40A C39A 1_555 1_555
H40A C40A 1_555 1_555
C41A C34A 1_555 1_555
C42A C41A 1_555 1_555
H41A C42A 1_555 1_555
C43A C38A 1_555 1_555
H42A C43A 1_555 1_555
C44A N6A 1_555 1_555
H43A C44A 1_555 1_555
C45A C46A 1_555 1_555
C46A H44A 1_555 1_555
C47A C46A 1_555 1_555
H45A C47A 1_555 1_555
C48A C32A 1_555 1_555
C49A C48A 1_555 1_555
H46A C49A 1_555 1_555
C50A C45A 1_555 1_555
H47A C50A 1_555 1_555
C51A N3A 1_555 1_555
H48A C51A 1_555 1_555
C52A N2A 1_555 1_555
H49A C52A 1_555 1_555
C53A C52A 1_555 1_555
C54A C53A 1_555 1_555
H50A C54A 1_555 1_555
C55A C54A 1_555 1_555
H51A C55A 1_555 1_555
C56A C55A 1_555 1_555
C57A C56A 1_555 1_555
H52A C57A 1_555 1_555
C58A C53A 1_555 1_555
H53A C58A 1_555 1_555
C59A C56A 1_555 1_555
C60A C59A 1_555 1_555
H54A C60A 1_555 1_555
C61A C60A 1_555 1_555
C62A C61A 1_555 1_555
H55A C62A 1_555 1_555
C63A C62A 1_555 1_555
C64A C59A 1_555 1_555
H56A C64A 1_555 1_555
C65A C66A 1_555 1_555
C66A H57A 1_555 1_555
C67A C66A 1_555 1_555
H58A C67A 1_555 1_555
C68A C63A 1_555 1_555
C69A C68A 1_555 1_555
H59A C69A 1_555 1_555
C70A C65A 1_555 1_555
H60A C70A 1_555 1_555
C71A N4A 1_555 1_555
H61A C71A 1_555 1_555
C72A C73A 1_555 1_555
C73A H62A 1_555 1_555
C74A C73A 1_555 1_555
H63A C74A 1_555 1_555
C75A C61A 1_555 1_555
C76A C75A 1_555 1_555
H64A C76A 1_555 1_555
C77A C72A 1_555 1_555
H65A C77A 1_555 1_555
C78A N5A 1_555 1_555
H66A C78A 1_555 1_555
N7A C86 1_555 1_555
N8A C90A 1_555 1_555
N9A C88A 1_555 1_555
N10A C98A 1_555 1_555
N11A C102A 1_555 1_555
N12A C100 1_555 1_555
C79A H67A 1_555 1_555
H68A C79A 1_555 1_555
H69A C79A 1_555 1_555
C80A C81A 1_555 1_555
C81A C82A 1_555 1_555
C82A C83A 1_555 1_555
C83A C84A 1_555 1_555
C84A C85A 1_555 1_555
C85A C80A 1_555 1_555
C86A N7 1_555 1_555
H70A C86A 1_555 1_555
H71A C86A 1_555 1_555
C87A C80A 1_555 1_555
H72A C87A 1_555 1_555
H73A C87A 1_555 1_555
H74A C87A 1_555 1_555
C88A C81A 1_555 1_555
H75A C88A 1_555 1_555
H76A C88A 1_555 1_555
C89A C82A 1_555 1_555
H77A C89A 1_555 1_555
H78A C89A 1_555 1_555
H79A C89A 1_555 1_555
C90A C83A 1_555 1_555
H80A C90A 1_555 1_555
H81A C90A 1_555 1_555
C91A C84A 1_555 1_555
H82A C91A 1_555 1_555
H83A C91A 1_555 1_555
H84A C91A 1_555 1_555
C92A C93A 1_555 1_555
C93A C94A 1_555 1_555
C94A C95A 1_555 1_555
C95A C96A 1_555 1_555
C96A C97A 1_555 1_555
C97A C79A 1_555 1_555
C98A C92A 1_555 1_555
H85A C98A 1_555 1_555
H86A C98A 1_555 1_555
C99A C93A 1_555 1_555
H87A C99A 1_555 1_555
H88A C99A 1_555 1_555
H89A C99A 1_555 1_555
C100A N12 1_555 1_555
H90A C100A 1_555 1_555
H91A C100A 1_555 1_555
C101A C95A 1_555 1_555
H92A C101A 1_555 1_555
H93A C101A 1_555 1_555
H94A C101A 1_555 1_555
C102A C96A 1_555 1_555
H95A C102A 1_555 1_555
H96A C102A 1_555 1_555
C103A N9A 1_555 1_555
H97A C103A 1_555 1_555
C104A C103A 1_555 1_555
C105A C104A 1_555 1_555
H98A C105A 1_555 1_555
C106A C105A 1_555 1_555
H99A C106A 1_555 1_555
C107A C106A 1_555 1_555
C108A C107A 1_555 1_555
H100A C108A 1_555 1_555
C109A C104A 1_555 1_555
H101A C109A 1_555 1_555
C110A C107A 1_555 1_555
C111A C110A 1_555 1_555
H102A C111A 1_555 1_555
C112A C111A 1_555 1_555
C113A C112A 1_555 1_555
H103A C113A 1_555 1_555
C114A C113A 1_555 1_555
C115A C110A 1_555 1_555
H104A C115A 1_555 1_555
C116A C117A 1_555 1_555
C117A H105A 1_555 1_555
C118A C117A 1_555 1_555
H106A C118A 1_555 1_555
C119A C114A 1_555 1_555
C120A C119A 1_555 1_555
H107A C120A 1_555 1_555
C121A C116A 1_555 1_555
H108A C121A 1_555 1_555
C122A C123A 1_555 1_555
C123A H109A 1_555 1_555
C124A C123A 1_555 1_555
H110A C124A 1_555 1_555
C125A C112A 1_555 1_555
C126A C125A 1_555 1_555
H111A C126A 1_555 1_555
C127A C122A 1_555 1_555
H112A C127A 1_555 1_555
C128A N10A 1_555 1_555
H113A C128A 1_555 1_555
C129A N7A 1_555 1_555
H114A C129A 1_555 1_555
C130A N12A 1_555 1_555
H115A C130A 1_555 1_555
C131A C130A 1_555 1_555
C132A C131A 1_555 1_555
H116A C132A 1_555 1_555
C133A C132A 1_555 1_555
H117A C133A 1_555 1_555
C134A C133A 1_555 1_555
C135A C134A 1_555 1_555
H118A C135A 1_555 1_555
C136A C131A 1_555 1_555
H119A C136A 1_555 1_555
C137A C138A 1_555 1_555
C138A H120A 1_555 1_555
C139A C138A 1_555 1_555
C140A C139A 1_555 1_555
H121A C140A 1_555 1_555
C141A C134A 1_555 1_555
C142A C137A 1_555 1_555
H122A C142A 1_555 1_555
C143A C144A 1_555 1_555
C144A H123A 1_555 1_555
C145A C144A 1_555 1_555
H124A C145A 1_555 1_555
C146A C139A 1_555 1_555
C147A C146A 1_555 1_555
H125A C147A 1_555 1_555
C148A C143A 1_555 1_555
H126A C148A 1_555 1_555
C149A N8A 1_555 1_555
H127A C149A 1_555 1_555
C150A C151A 1_555 1_555
C151A H128A 1_555 1_555
C152A C151A 1_555 1_555
H129A C152A 1_555 1_555
C153A C137A 1_555 1_555
C154A C153A 1_555 1_555
H130A C154A 1_555 1_555
C155A C150A 1_555 1_555
H131A C155A 1_555 1_555
C156A N11A 1_555 1_555
H132A C156A 1_555 1_555
C30 C31 1_555 1_555
C35 C36 1_555 1_555
C36 C37 1_555 1_555
C40 C41 1_555 1_555
C42 C43 1_555 1_555
C45 C51 1_555 1_555
C47 C48 1_555 1_555
C49 C50 1_555 1_555
C57 C58 1_555 1_555
C63 C64 1_555 1_555
C65 C71 1_555 1_555
C67 C68 1_555 1_555
C69 C70 1_555 1_555
C74 C75 1_555 1_555
C76 C77 1_555 1_555
C92 C97 1_555 1_555
C108 C109 1_555 1_555
C114 C115 1_555 1_555
C118 C119 1_555 1_555
C120 C121 1_555 1_555
C122 C128 1_555 1_555
C124 C125 1_555 1_555
C126 C127 1_555 1_555
C135 C136 1_555 1_555
C140 C141 1_555 1_555
C141 C142 1_555 1_555
C143 C149 1_555 1_555
C145 C146 1_555 1_555
C147 C148 1_555 1_555
C150 C156 1_555 1_555
C152 C153 1_555 1_555
C154 C155 1_555 1_555
C5A C10A 1_555 1_555
C18A C23A 1_555 1_555
C30A C31A 1_555 1_555
C35A C36A 1_555 1_555
C36A C37A 1_555 1_555
C38A C44A 1_555 1_555
C40A C41A 1_555 1_555
C42A C43A 1_555 1_555
C45A C51A 1_555 1_555
C47A C48A 1_555 1_555
C49A C50A 1_555 1_555
C57A C58A 1_555 1_555
C63A C64A 1_555 1_555
C65A C71A 1_555 1_555
C67A C68A 1_555 1_555
C69A C70A 1_555 1_555
C72A C78A 1_555 1_555
C74A C75A 1_555 1_555
C76A C77A 1_555 1_555
C85A C86A 1_555 1_555
C92A C97A 1_555 1_555
C94A C100A 1_555 1_555
C108A C109A 1_555 1_555
C114A C115A 1_555 1_555
C116A C129A 1_555 1_555
C118A C119A 1_555 1_555
C120A C121A 1_555 1_555
C122A C128A 1_555 1_555
C124A C125A 1_555 1_555
C126A C127A 1_555 1_555
C135A C136A 1_555 1_555
C140A C141A 1_555 1_555
C141A C142A 1_555 1_555
C143A C149A 1_555 1_555
C145A C146A 1_555 1_555
C147A C148A 1_555 1_555
C150A C156A 1_555 1_555
C152A C153A 1_555 1_555
C154A C155A 1_555 1_555

#END
