
#######################################################################
#
#                 Cambridge Crystallographic Data Centre
#                                CCDC 
#
#######################################################################
#
# If this CIF has been generated from an entry in the Cambridge 
# Structural Database, then it will include bibliographic, chemical, 
# crystal, experimental, refinement or atomic coordinate data resulting 
# from the CCDC's data processing and validation procedures.
#
#######################################################################

data_PIFJEW
_chemical_formula_moiety         
'C240 H288 N24 O24,6(C1 H4 O1),3.67(C1 H2 Cl2),1.5(H2 O1)'
_chemical_name_systematic        
'1,9,17,25,33,41,49,57(1,3,5)-octakis(2,4,6-triethylbenzena)-5,13,21,29,37,45,53,61,68,75,82,8(1,4)-dodecakis(2,5-dimethoxybenzena)-3,7,11,15,19,23,27,31,35,39,43,47,51,55,59,63,66,70,73,77,80,84,87,91-tetracosaazapentacyclo[47.15.7.7^9,25^.7^17,33^.7^41,57^]dononacontaphane-3,6,11,14,19,22,27,30,35,38,43,46,51,54,59,62,66,69,73,76,80,83,87,90-tetracosaene dichloromethane methanol solvate sesquihydrate'
_symmetry_cell_setting           triclinic
_symmetry_space_group_name_H-M   'P -1'
_symmetry_Int_Tables_number      2
_space_group_name_Hall           '-P 1'
loop_
_symmetry_equiv_pos_site_id
_symmetry_equiv_pos_as_xyz
1 x,y,z
2 -x,-y,-z
_cell_length_a                   18.078(2)
_cell_length_b                   18.632(2)
_cell_length_c                   20.282(2)
_cell_angle_alpha                109.669(3)
_cell_angle_beta                 95.102(3)
_cell_angle_gamma                104.266(3)
_cell_volume                     6123.03
_exptl_crystal_colour            'light yellow'
_exptl_crystal_description       plate
_cell_formula_units_Z            1
loop_
_atom_site_label
_atom_site_type_symbol
_atom_site_fract_x
_atom_site_fract_y
_atom_site_fract_z
Cl5 Cl 0.2257(4) 0.3149(7) 0.0754(5)
Cl6 Cl 0.2956(12) 0.3810(8) 0.2050(9)
C2 C 0.2188(9) 0.3420(10) 0.1477(10)
H5 H 0.1871 0.2961 0.1570
H6 H 0.1892 0.3814 0.1550
O2 O 0.4879(3) 0.4188(3) 0.0730(3)
O3 O 0.3911(3) 0.6861(4) 0.1087(4)
O4 O 0.6878(5) 1.0927(5) 0.4547(6)
O5 O 0.8998(5) 0.9571(6) 0.5424(6)
O6 O 0.8004(6) 0.3475(6) 0.3172(6)
O7 O 0.5970(5) 0.4816(5) 0.4666(5)
O8 O 0.2974(13) 0.3882(14) 0.4336(12)
O9 O 0.0543(10) 0.2219(10) 0.4621(9)
O10 O 0.5525(8) 0.7637(5) 0.6729(6)
O11 O 0.3834(5) 0.6352(4) 0.8405(5)
O12 O 0.1136(5) -0.0566(5) -0.0943(5)
O13 O 0.1049(5) 0.1686(5) 0.1588(5)
N1 N 0.4389(6) 0.8974(5) 0.7878(7)
N2 N 0.7018(7) 1.0956(7) 0.6523(8)
N3 N 0.5037(5) 0.5020(4) 0.7242(4)
N4 N 0.6329(6) 0.2850(6) 0.4883(5)
N5 N 0.2773(7) 0.2328(7) 0.4792(6)
N6 N 0.0285(7) 0.3916(7) 0.3009(6)
N7 N 0.2235(4) 0.4891(4) 0.0831(4)
N8 N -0.0167(5) 0.1701(5) -0.0140(5)
N9 N 0.6501(4) 0.6230(5) 0.0993(4)
N10 N 0.8189(5) 0.5686(6) 0.3333(5)
N11 N 0.8511(6) 0.9076(6) 0.3366(7)
N12 N 0.2233(6) -0.0632(5) 0.0802(6)
C4 C 0.5291(6) 0.2735(6) 0.5660(6)
C5 C 0.4535(7) 0.2286(6) 0.5322(6)
C6 C 0.3922(6) 0.2476(6) 0.5622(5)
C7 C 0.4061(6) 0.3125(6) 0.6279(5)
C8 C 0.4812(6) 0.3571(5) 0.6601(5)
C9 C 0.5426(6) 0.3375(5) 0.6285(5)
C10 C 0.5964(7) 0.2486(6) 0.5361(6)
H9 H 0.6374 0.2595 0.5769
H10 H 0.5783 0.1901 0.5100
C11 C 0.4383(8) 0.1541(7) 0.4647(7)
H11 H 0.4777 0.1633 0.4352
H12 H 0.3864 0.1427 0.4363
C12 C 0.4421(10) 0.0807(8) 0.4857(9)
H13 H 0.4240 0.0316 0.4430
H14 H 0.4088 0.0767 0.5207
H15 H 0.4958 0.0881 0.5064
C13 C 0.3070(6) 0.1960(7) 0.5264(6)
H16 H 0.3055 0.1406 0.4982
H17 H 0.2746 0.1949 0.5631
C14 C 0.3407(6) 0.3287(7) 0.6650(6)
H18 H 0.2930 0.3145 0.6294
H19 H 0.3538 0.3861 0.6950
C15 C 0.3267(7) 0.2773(8) 0.7124(7)
H20 H 0.3183 0.2211 0.6830
H21 H 0.2809 0.2832 0.7336
H22 H 0.3723 0.2954 0.7504
C16 C 0.4968(6) 0.4251(5) 0.7317(5)
H23 H 0.4538 0.4138 0.7573
H24 H 0.5454 0.4285 0.7608
C17 C 0.6252(6) 0.3847(6) 0.6672(6)
H25 H 0.6269 0.4401 0.6955
H26 H 0.6593 0.3865 0.6318
C18 C 0.6563(7) 0.3468(8) 0.7176(7)
H27 H 0.6679 0.2982 0.6891
H28 H 0.6167 0.3335 0.7451
H29 H 0.7037 0.3849 0.7503
C19 C 0.5377(6) 1.0298(6) 0.8018(7)
C20 C 0.5567(7) 1.0556(6) 0.7447(7)
C21 C 0.6303(7) 1.1032(6) 0.7530(7)
C22 C 0.6866(7) 1.1226(6) 0.8122(7)
C23 C 0.6678(7) 1.0974(6) 0.8660(7)
C24 C 0.5936(7) 1.0510(6) 0.8618(7)
C25 C 0.4541(6) 0.9819(6) 0.7970(8)
H30 H 0.4365 1.0091 0.8411
H31 H 0.4211 0.9845 0.7567
C26 C 0.4969(7) 1.0348(8) 0.6804(7)
H32 H 0.4618 0.9807 0.6694
H33 H 0.5233 1.0332 0.6394
C27 C 0.4468(7) 1.0941(7) 0.6882(7)
H34 H 0.4103 1.0774 0.6434
H35 H 0.4810 1.1480 0.6994
H36 H 0.4178 1.0937 0.7267
C28 C 0.6532(8) 1.1362(8) 0.6953(8)
H37 H 0.6054 1.1307 0.6637
H38 H 0.6815 1.1938 0.7184
C29 C 0.7698(7) 1.1742(6) 0.8174(8)
H39 H 0.7816 1.1641 0.7689
H40 H 0.8075 1.1590 0.8444
C30 C 0.7788(7) 1.2639(6) 0.8548(9)
H41 H 0.7383 1.2780 0.8308
H42 H 0.8300 1.2954 0.8527
H43 H 0.7737 1.2752 0.9048
C31 C 0.7299(7) 1.1237(7) 0.9331(7)
H44 H 0.7050 1.1252 0.9748
H45 H 0.7647 1.1778 0.9428
C32 C 0.5723(8) 1.0266(7) 0.9234(7)
H46 H 0.6174 1.0164 0.9460
H47 H 0.5289 0.9765 0.9050
C33 C 0.5483(11) 1.0912(8) 0.9796(9)
H48 H 0.4981 1.0943 0.9600
H49 H 0.5877 1.1428 0.9926
H50 H 0.5437 1.0777 1.0220
C34 C 0.8576(5) 0.6489(6) 0.2586(5)
C35 C 0.8868(6) 0.7308(6) 0.2913(6)
C36 C 0.8677(6) 0.7795(6) 0.2553(6)
C37 C 0.8160(6) 0.7430(6) 0.1893(6)
C38 C 0.7858(5) 0.6604(6) 0.1581(5)
C39 C 0.8068(5) 0.6127(5) 0.1929(5)
C40 C 0.8805(6) 0.5958(6) 0.2939(6)
H51 H 0.9304 0.6254 0.3278
H52 H 0.8880 0.5487 0.2573
C41 C 0.9389(7) 0.7691(7) 0.3655(7)
H53 H 0.9245 0.7341 0.3926
H54 H 0.9303 0.8208 0.3916
C42 C 1.0258(7) 0.7826(9) 0.3606(8)
H55 H 1.0365 0.8026 0.3225
H56 H 1.0382 0.7320 0.3502
H57 H 1.0578 0.8216 0.4061
C43 C 0.9022(6) 0.8710(6) 0.2913(7)
H58 H 0.9537 0.8839 0.3210
H59 H 0.9098 0.8940 0.2541
C44 C 0.7878(6) 0.7962(6) 0.1550(6)
H60 H 0.7423 0.8122 0.1630
C45 C 0.8386(9) 0.8193(10) 0.1091(9)
H61 H 0.8922 0.8430 0.1356
H62 H 0.8222 0.8584 0.0936
H63 H 0.8355 0.7721 0.0673
C46 C 0.7282(5) 0.6197(6) 0.0870(5)
H64 H 0.7442 0.6469 0.0540
H65 H 0.7279 0.5634 0.0649
C47 C 0.7743(5) 0.5216(5) 0.1596(5)
H66 H 0.7206 0.5069 0.1332
H67 H 0.7719 0.5000 0.1980
C48 C 0.8238(6) 0.4834(6) 0.1084(6)
H68 H 0.8233 0.5016 0.0684
H69 H 0.8024 0.4252 0.0904
H70 H 0.8774 0.4991 0.1339
C49 C 0.0865(5) 0.4429(6) 0.0992(6)
C50 C 0.0466(5) 0.3698(6) 0.0443(6)
C51 C -0.0107(5) 0.3141(6) 0.0570(6)
C52 C -0.0284(5) 0.3308(6) 0.1259(6)
C53 C 0.0110(5) 0.4031(6) 0.1787(6)
C54 C 0.0692(5) 0.4581(6) 0.1670(6)
C55 C 0.1456(5) 0.5029(6) 0.0815(6)
H71 H 0.1264 0.5009 0.0335
H72 H 0.1511 0.5570 0.1161
C56 C 0.0679(5) 0.3502(6) -0.0307(5)
H73 H 0.1231 0.3789 -0.0261
H74 H 0.0614 0.2923 -0.0525
C57 C 0.0176(6) 0.3735(7) -0.0792(6)
H75 H 0.0385 0.3691 -0.1229
H76 H 0.0174 0.4286 -0.0546
H77 H -0.0357 0.3379 -0.0914
C58 C -0.0528(6) 0.2352(6) -0.0033(6)
H78 H -0.1059 0.2164 0.0054
H79 H -0.0581 0.2451 -0.0482
C59 C -0.0909(5) 0.2678(6) 0.1403(6)
H80 H -0.0779 0.2728 0.1904
H81 H -0.0912 0.2138 0.1091
C60 C -0.1725(5) 0.2779(7) 0.1265(7)
H82 H -0.1852 0.2735 0.0771
H83 H -0.1729 0.3304 0.1589
H84 H -0.2110 0.2362 0.1349
C61 C -0.0096(6) 0.4227(7) 0.2536(6)
H85 H 0.0041 0.4814 0.2773
H86 H -0.0666 0.4012 0.2481
C62 C 0.0858(6) 0.6048(6) 0.2373(6)
H87 H 0.0903 0.6212 0.1963
H88 H 0.1153 0.6495 0.2809
H89 H 0.0310 0.5891 0.2412
C63 C 0.1183(6) 0.5345(6) 0.2271(6)
H90 H 0.1714 0.5487 0.2171
H91 H 0.1222 0.5246 0.2721
C64 C 0.2132(8) 0.2435(9) 0.4851(8)
H92 H 0.1856 0.2268 0.5176
C65 C 0.1785(6) 0.2819(6) 0.4428(5)
C66 C 0.2231(4) 0.3305(6) 0.4130(6)
C67 C 0.1871(5) 0.3622(6) 0.3708(6)
H93 H 0.2176 0.3955 0.3504
C68 C 0.1067(6) 0.3452(6) 0.3585(5)
C69 C 0.0622(4) 0.2966(6) 0.3883(6)
H94 H 0.0072 0.2850 0.3798
C70 C 0.0981(6) 0.2649(6) 0.4305(5)
C71 C 0.314(2) 0.448(2) 0.3926(18)
H95 H 0.3223 0.4198 0.3447
H96 H 0.3610 0.4924 0.4189
H97 H 0.2699 0.4689 0.3889
C72 C -0.0346(9) 0.1976(13) 0.4385(12)
H98 H -0.0599 0.1668 0.4653
H99 H -0.0515 0.2456 0.4477
H100 H -0.0490 0.1651 0.3874
C73 C 0.0931(11) 0.4087(15) 0.331(2)
H101 H 0.1320 0.4567 0.3379
C74 C 0.0313(6) 0.1739(6) 0.0376(7)
H102 H 0.0419 0.2177 0.0817
C75 C 0.0711(6) 0.1119(6) 0.0311(7)
C76 C 0.1102(7) 0.1132(7) 0.0948(7)
C77 C 0.1502(6) 0.0580(7) 0.0913(7)
H103 H 0.1775 0.0588 0.1340
C78 C 0.1512(6) 0.0017(6) 0.0267(7)
C79 C 0.1111(6) 0.0017(7) -0.0349(7)
C80 C 0.0717(6) 0.0574(6) -0.0306(7)
H104 H 0.0443 0.0566 -0.0732
C81 C 0.1969(6) -0.0548(6) 0.0230(8)
H105 H 0.2069 -0.0848 -0.0216
C82 C 0.1491(10) 0.1712(10) 0.2243(8)
H106 H 0.2047 0.1860 0.2231
H107 H 0.1332 0.1186 0.2278
H108 H 0.1388 0.2108 0.2656
C83 C 0.0727(9) -0.0597(9) -0.1625(8)
H109 H 0.0865 -0.0978 -0.2025
H110 H 0.0882 -0.0067 -0.1652
H111 H 0.0164 -0.0767 -0.1647
C84 C 0.2792(5) 0.5483(6) 0.0925(5)
H112 H 0.2675 0.5970 0.0996
C85 C 0.3616(5) 0.5511(5) 0.0937(4)
C86 C 0.3837(5) 0.4823(5) 0.0852(4)
H113 H 0.3465 0.4343 0.0810
C87 C 0.4615(5) 0.4853(5) 0.0830(5)
C88 C 0.5161(5) 0.5541(5) 0.0887(4)
C89 C 0.4940(5) 0.6227(5) 0.0983(5)
H114 H 0.5316 0.6711 0.1041
C90 C 0.4162(5) 0.6203(5) 0.0996(5)
C91 C 0.5992(5) 0.5583(6) 0.0830(5)
H115 H 0.6131 0.5102 0.0665
C92 C 0.4323(5) 0.3465(5) 0.0633(6)
H116 H 0.3942 0.3300 0.0195
H117 H 0.4057 0.3538 0.1040
H118 H 0.4582 0.3052 0.0595
C93 C 0.4472(6) 0.7579(6) 0.1150(7)
H119 H 0.4653 0.7510 0.0698
H120 H 0.4913 0.7706 0.1530
H121 H 0.4235 0.8016 0.1266
C94 C 0.8048(7) 0.4973(8) 0.3233(7)
H122 H 0.8314 0.4670 0.2919
C95 C 0.6541(4) 0.3779(4) 0.4304(4)
C96 C 0.7039(5) 0.3419(4) 0.3923(4)
H123 H 0.7060 0.2910 0.3910
C97 C 0.7506(4) 0.3803(4) 0.3561(4)
C98 C 0.7475(4) 0.4548(4) 0.3580(4)
C99 C 0.6977(4) 0.4908(3) 0.3961(4)
H124 H 0.6955 0.5417 0.3974
C100 C 0.6509(4) 0.4524(4) 0.4323(4)
C101 C 0.6134(7) 0.3420(7) 0.4763(6)
H125 H 0.5732 0.3605 0.4968
C102 C 0.8052(12) 0.2706(10) 0.3173(12)
H126 H 0.8446 0.2549 0.2901
H127 H 0.7546 0.2304 0.2954
H128 H 0.8196 0.2748 0.3665
C103 C 0.5786(8) 0.5481(7) 0.4561(7)
H129 H 0.5640 0.5358 0.4049
H130 H 0.6240 0.5954 0.4766
H131 H 0.5351 0.5584 0.4796
C104 C 0.8815(8) 0.9458(8) 0.4030(9)
H132 H 0.9328 0.9477 0.4206
C105 C 0.8361(7) 0.9866(7) 0.4517(9)
C106 C 0.7827(7) 1.0177(7) 0.4273(8)
H133 H 0.7743 1.0123 0.3788
C107 C 0.7403(7) 1.0578(7) 0.4748(9)
C108 C 0.7479(7) 1.0616(7) 0.5448(9)
C109 C 0.8024(7) 1.0266(7) 0.5677(8)
H134 H 0.8092 1.0280 0.6151
C110 C 0.8447(7) 0.9913(7) 0.5212(9)
C111 C 0.7017(8) 1.0995(8) 0.5923(9)
H135 H 0.6709 1.1279 0.5773
C112 C 0.7002(9) 1.1186(9) 0.3962(9)
H136 H 0.7238 1.0833 0.3629
H137 H 0.7349 1.1733 0.4144
H138 H 0.6503 1.1168 0.3715
C113 C 0.9074(9) 0.9590(9) 0.6128(9)
H139 H 0.8572 0.9314 0.6203
H140 H 0.9243 1.0145 0.6464
H141 H 0.9460 0.9324 0.6206
C114 C 0.4637(4) 0.6233(3) 0.7560(4)
C115 C 0.5081(4) 0.6538(4) 0.7137(4)
H142 H 0.5355 0.6228 0.6840
C116 C 0.5124(5) 0.7297(4) 0.7147(4)
C117 C 0.4723(5) 0.7751(3) 0.7581(4)
C118 C 0.4278(4) 0.7446(4) 0.8005(4)
H143 H 0.4004 0.7757 0.8301
C119 C 0.4235(4) 0.6687(4) 0.7994(4)
C120 C 0.5976(13) 0.7225(9) 0.6334(11)
H144 H 0.5640 0.6719 0.5978
H145 H 0.6339 0.7118 0.6651
H146 H 0.6268 0.7545 0.6094
C121 C 0.3628(9) 0.6869(8) 0.9009(8)
H147 H 0.3203 0.7048 0.8849
H148 H 0.4079 0.7332 0.9271
H149 H 0.3460 0.6582 0.9321
C122 C 0.4610(6) 0.5423(6) 0.7564(5)
H150 H 0.4261 0.5200 0.7816
C123 C 0.4832(7) 0.8595(6) 0.7618(7)
H151 H 0.5250 0.8838 0.7437
O2A O 0.5121(3) 0.5812(3) 0.9270(3)
O3A O 0.6089(3) 0.3139(4) 0.8913(4)
O4A O 0.3122(5) -0.0927(5) 0.5453(6)
O5A O 0.1002(5) 0.0429(6) 0.4576(6)
O6A O 0.1996(6) 0.6525(6) 0.6828(6)
O7A O 0.4030(5) 0.5184(5) 0.5334(5)
O8A O 0.7026(13) 0.6118(14) 0.5664(12)
O9A O 0.9457(10) 0.7781(10) 0.5379(9)
O10A O 0.4475(8) 0.2363(5) 0.3271(6)
O11A O 0.6166(5) 0.3648(4) 0.1595(5)
O12A O 0.8864(5) 1.0566(5) 1.0943(5)
O13A O 0.8951(5) 0.8314(5) 0.8412(5)
N1A N 0.5611(6) 0.1026(5) 0.2122(7)
N2A N 0.2982(7) -0.0956(7) 0.3477(8)
N3A N 0.4963(5) 0.4980(4) 0.2758(4)
N4A N 0.3671(6) 0.7150(6) 0.5117(5)
N5A N 0.7227(7) 0.7672(7) 0.5208(6)
N6A N 0.9715(7) 0.6084(7) 0.6991(6)
N7A N 0.7765(4) 0.5109(4) 0.9169(4)
N8A N 1.0167(5) 0.8299(5) 1.0140(5)
N9A N 0.3499(4) 0.3770(5) 0.9007(4)
N10A N 0.1811(5) 0.4314(6) 0.6667(5)
N11A N 0.1489(6) 0.0924(6) 0.6634(7)
N12A N 0.7767(6) 1.0632(5) 0.9198(6)
C4A C 0.4709(6) 0.7265(6) 0.4340(6)
C5A C 0.5465(7) 0.7714(6) 0.4678(6)
C6A C 0.6078(6) 0.7524(6) 0.4378(5)
C7A C 0.5939(6) 0.6875(6) 0.3721(5)
C8A C 0.5188(6) 0.6429(5) 0.3399(5)
C9A C 0.4574(6) 0.6625(5) 0.3715(5)
C10A C 0.4036(7) 0.7514(6) 0.4639(6)
H9A H 0.3626 0.7405 0.4231
H10A H 0.4217 0.8099 0.4900
C11A C 0.5617(8) 0.8459(7) 0.5353(7)
H11A H 0.5223 0.8367 0.5648
H12A H 0.6136 0.8573 0.5637
C12A C 0.5579(10) 0.9193(8) 0.5143(9)
H13A H 0.5760 0.9684 0.5570
H14A H 0.5912 0.9233 0.4793
H15A H 0.5042 0.9119 0.4936
C13A C 0.6930(6) 0.8040(7) 0.4736(6)
H16A H 0.6945 0.8594 0.5018
H17A H 0.7254 0.8051 0.4369
C14A C 0.6593(6) 0.6713(7) 0.3350(6)
H18A H 0.7070 0.6855 0.3706
H19A H 0.6462 0.6139 0.3050
C15A C 0.6733(7) 0.7227(8) 0.2876(7)
H20A H 0.6817 0.7789 0.3170
H21A H 0.7191 0.7168 0.2664
H22A H 0.6277 0.7046 0.2496
C16A C 0.5032(6) 0.5749(5) 0.2683(5)
H23A H 0.5462 0.5862 0.2427
H24A H 0.4546 0.5715 0.2392
C17A C 0.3748(6) 0.6153(6) 0.3328(6)
H25A H 0.3731 0.5599 0.3045
H26A H 0.3407 0.6135 0.3682
C18A C 0.3437(7) 0.6532(8) 0.2824(7)
H27A H 0.3321 0.7018 0.3109
H28A H 0.3833 0.6665 0.2549
H29A H 0.2963 0.6151 0.2497
C19A C 0.4623(6) -0.0298(6) 0.1982(7)
C20A C 0.4433(7) -0.0556(6) 0.2553(7)
C21A C 0.3697(7) -0.1032(6) 0.2470(7)
C22A C 0.3134(7) -0.1226(6) 0.1878(7)
C23A C 0.3322(7) -0.0974(6) 0.1340(7)
C24A C 0.4064(7) -0.0510(6) 0.1382(7)
C25A C 0.5459(6) 0.0181(6) 0.2030(8)
H30A H 0.5635 -0.0091 0.1589
H31A H 0.5789 0.0155 0.2433
C26A C 0.5031(7) -0.0348(8) 0.3196(7)
H32A H 0.5382 0.0193 0.3306
H33A H 0.4767 -0.0332 0.3606
C27A C 0.5532(7) -0.0941(7) 0.3118(7)
H34A H 0.5897 -0.0774 0.3566
H35A H 0.5190 -0.1480 0.3006
H36A H 0.5822 -0.0937 0.2733
C28A C 0.3468(8) -0.1362(8) 0.3047(8)
H37A H 0.3946 -0.1307 0.3363
H38A H 0.3185 -0.1938 0.2816
C29A C 0.2302(7) -0.1742(6) 0.1826(8)
H39A H 0.2184 -0.1641 0.2311
H40A H 0.1925 -0.1590 0.1556
C30A C 0.2212(7) -0.2639(6) 0.1452(9)
H41A H 0.2617 -0.2780 0.1692
H42A H 0.1700 -0.2954 0.1473
H43A H 0.2263 -0.2752 0.0952
C31A C 0.2701(7) -0.1237(7) 0.0669(7)
H44A H 0.2950 -0.1252 0.0252
H45A H 0.2353 -0.1778 0.0572
C32A C 0.4277(8) -0.0266(7) 0.0766(7)
H46A H 0.3826 -0.0164 0.0540
H47A H 0.4711 0.0235 0.0950
C33A C 0.4517(11) -0.0912(8) 0.0204(9)
H48A H 0.5019 -0.0943 0.0400
H49A H 0.4123 -0.1428 0.0074
H50A H 0.4563 -0.0777 -0.0220
C34A C 0.1424(5) 0.3511(6) 0.7414(5)
C35A C 0.1132(6) 0.2692(6) 0.7087(6)
C36A C 0.1323(6) 0.2205(6) 0.7447(6)
C37A C 0.1840(6) 0.2570(6) 0.8107(6)
C38A C 0.2142(5) 0.3396(6) 0.8419(5)
C39A C 0.1932(5) 0.3873(5) 0.8071(5)
C40A C 0.1195(6) 0.4042(6) 0.7061(6)
H51A H 0.0696 0.3746 0.6722
H52A H 0.1120 0.4513 0.7427
C41A C 0.0611(7) 0.2309(7) 0.6345(7)
H53A H 0.0755 0.2659 0.6074
H54A H 0.0697 0.1792 0.6084
C42A C -0.0258(7) 0.2174(9) 0.6394(8)
H55A H -0.0365 0.1974 0.6775
H56A H -0.0382 0.2680 0.6498
H57A H -0.0578 0.1784 0.5939
C43A C 0.0978(6) 0.1290(6) 0.7087(7)
H58A H 0.0463 0.1161 0.6790
H59A H 0.0902 0.1060 0.7459
C44A C 0.2122(6) 0.2038(6) 0.8450(6)
H60A H 0.2577 0.1878 0.8370
C45A C 0.1614(9) 0.1807(10) 0.8909(9)
H61A H 0.1078 0.1570 0.8644
H62A H 0.1778 0.1416 0.9064
H63A H 0.1645 0.2279 0.9327
C46A C 0.2718(5) 0.3803(6) 0.9130(5)
H64A H 0.2558 0.3531 0.9460
H65A H 0.2721 0.4366 0.9351
C47A C 0.2257(5) 0.4784(5) 0.8404(5)
H66A H 0.2794 0.4931 0.8668
H67A H 0.2281 0.5000 0.8020
C48A C 0.1762(6) 0.5166(6) 0.8916(6)
H68A H 0.1767 0.4984 0.9316
H69A H 0.1976 0.5748 0.9096
H70A H 0.1226 0.5009 0.8661
C49A C 0.9135(5) 0.5571(6) 0.9008(6)
C50A C 0.9534(5) 0.6302(6) 0.9557(6)
C51A C 1.0107(5) 0.6859(6) 0.9430(6)
C52A C 1.0284(5) 0.6692(6) 0.8741(6)
C53A C 0.9890(5) 0.5969(6) 0.8213(6)
C54A C 0.9308(5) 0.5419(6) 0.8330(6)
C55A C 0.8544(5) 0.4971(6) 0.9185(6)
H71A H 0.8736 0.4991 0.9665
H72A H 0.8489 0.4430 0.8839
C56A C 0.9321(5) 0.6498(6) 1.0307(5)
H73A H 0.8769 0.6211 1.0261
H74A H 0.9386 0.7077 1.0525
C57A C 0.9824(6) 0.6265(7) 1.0792(6)
H75A H 0.9615 0.6309 1.1229
H76A H 0.9826 0.5714 1.0546
H77A H 1.0357 0.6621 1.0914
C58A C 1.0528(6) 0.7648(6) 1.0033(6)
H78A H 1.1059 0.7836 0.9946
H79A H 1.0581 0.7549 1.0482
C59A C 1.0909(5) 0.7322(6) 0.8597(6)
H80A H 1.0779 0.7272 0.8096
H81A H 1.0912 0.7862 0.8909
C60A C 1.1725(5) 0.7221(7) 0.8735(7)
H82A H 1.1852 0.7265 0.9229
H83A H 1.1729 0.6696 0.8411
H84A H 1.2110 0.7638 0.8651
C61A C 1.0096(6) 0.5773(7) 0.7464(6)
H85A H 0.9959 0.5186 0.7227
H86A H 1.0666 0.5988 0.7519
C62A C 0.9142(6) 0.3952(6) 0.7627(6)
H87A H 0.9097 0.3788 0.8037
H88A H 0.8847 0.3505 0.7191
H89A H 0.9690 0.4109 0.7588
C63A C 0.8817(6) 0.4655(6) 0.7729(6)
H90A H 0.8286 0.4513 0.7829
H91A H 0.8778 0.4754 0.7279
C64A C 0.7868(8) 0.7565(9) 0.5149(8)
H92A H 0.8144 0.7732 0.4824
C65A C 0.8215(6) 0.7181(6) 0.5572(5)
C66A C 0.7769(4) 0.6695(6) 0.5870(6)
C67A C 0.8129(5) 0.6378(6) 0.6292(6)
H93A H 0.7824 0.6045 0.6496
C68A C 0.8933(6) 0.6548(6) 0.6415(5)
C69A C 0.9378(4) 0.7034(6) 0.6117(6)
H94A H 0.9928 0.7150 0.6202
C70A C 0.9019(6) 0.7351(6) 0.5695(5)
C71A C 0.686(2) 0.552(2) 0.6074(18)
H95A H 0.6777 0.5802 0.6553
H96A H 0.6390 0.5076 0.5811
H97A H 0.7301 0.5311 0.6111
C72A C 1.0346(9) 0.8024(13) 0.5615(12)
H98A H 1.0599 0.8332 0.5347
H99A H 1.0515 0.7544 0.5523
H100A H 1.0490 0.8349 0.6126
C73A C 0.9069(11) 0.5913(15) 0.669(2)
H101A H 0.8680 0.5433 0.6621
C74A C 0.9687(6) 0.8261(6) 0.9624(7)
H102A H 0.9581 0.7823 0.9183
C75A C 0.9289(6) 0.8881(6) 0.9689(7)
C76A C 0.8898(7) 0.8868(7) 0.9052(7)
C77A C 0.8498(6) 0.9420(7) 0.9087(7)
H103A H 0.8225 0.9412 0.8660
C78A C 0.8488(6) 0.9983(6) 0.9733(7)
C79A C 0.8889(6) 0.9983(7) 1.0349(7)
C80A C 0.9283(6) 0.9426(6) 1.0306(7)
H104A H 0.9557 0.9434 1.0732
C81A C 0.8031(6) 1.0548(6) 0.9770(8)
H105A H 0.7931 1.0848 1.0216
C82A C 0.8509(10) 0.8288(10) 0.7757(8)
H106A H 0.7953 0.8140 0.7769
H107A H 0.8668 0.8814 0.7722
H108A H 0.8612 0.7892 0.7344
C83A C 0.9273(9) 1.0597(9) 1.1625(8)
H109A H 0.9135 1.0978 1.2025
H110A H 0.9118 1.0067 1.1652
H111A H 0.9836 1.0767 1.1647
C84A C 0.7208(5) 0.4517(6) 0.9075(5)
H112A H 0.7325 0.4030 0.9004
C85A C 0.6384(5) 0.4489(5) 0.9063(4)
C86A C 0.6163(5) 0.5177(5) 0.9148(4)
H113A H 0.6535 0.5657 0.9190
C87A C 0.5385(5) 0.5147(5) 0.9170(5)
C88A C 0.4839(5) 0.4459(5) 0.9113(4)
C89A C 0.5060(5) 0.3773(5) 0.9017(5)
H114A H 0.4684 0.3289 0.8959
C90A C 0.5838(5) 0.3797(5) 0.9004(5)
C91A C 0.4008(5) 0.4417(6) 0.9170(5)
H115A H 0.3869 0.4898 0.9335
C92A C 0.5677(5) 0.6535(5) 0.9367(6)
H116A H 0.6058 0.6700 0.9805
H117A H 0.5943 0.6462 0.8960
H118A H 0.5418 0.6948 0.9405
C93A C 0.5528(6) 0.2421(6) 0.8850(7)
H119A H 0.5347 0.2490 0.9302
H120A H 0.5087 0.2294 0.8470
H121A H 0.5765 0.1984 0.8734
C94A C 0.1952(7) 0.5027(8) 0.6767(7)
H122A H 0.1686 0.5330 0.7081
C95A C 0.3459(4) 0.6221(4) 0.5696(4)
C96A C 0.2961(5) 0.6581(4) 0.6077(4)
H123A H 0.2940 0.7090 0.6090
C97A C 0.2494(4) 0.6197(4) 0.6439(4)
C98A C 0.2525(4) 0.5452(4) 0.6420(4)
C99A C 0.3023(4) 0.5092(3) 0.6039(4)
H124A H 0.3045 0.4583 0.6026
C100A C 0.3491(4) 0.5476(4) 0.5677(4)
C101A C 0.3866(7) 0.6580(7) 0.5237(6)
H125A H 0.4268 0.6395 0.5032
C102A C 0.1948(12) 0.7294(10) 0.6827(12)
H126A H 0.1554 0.7451 0.7099
H127A H 0.2454 0.7696 0.7046
H128A H 0.1804 0.7252 0.6335
C103A C 0.4214(8) 0.4519(7) 0.5439(7)
H129A H 0.4360 0.4642 0.5951
H130A H 0.3760 0.4046 0.5234
H131A H 0.4649 0.4416 0.5204
C104A C 0.1185(8) 0.0542(8) 0.5970(9)
H132A H 0.0672 0.0523 0.5794
C105A C 0.1639(7) 0.0134(7) 0.5483(9)
C106A C 0.2173(7) -0.0177(7) 0.5727(8)
H133A H 0.2257 -0.0123 0.6212
C107A C 0.2597(7) -0.0578(7) 0.5252(9)
C108A C 0.2521(7) -0.0616(7) 0.4552(9)
C109A C 0.1976(7) -0.0266(7) 0.4323(8)
H134A H 0.1908 -0.0280 0.3849
C110A C 0.1553(7) 0.0087(7) 0.4788(9)
C111A C 0.2983(8) -0.0995(8) 0.4077(9)
H135A H 0.3291 -0.1279 0.4227
C112A C 0.2998(9) -0.1186(9) 0.6038(9)
H136A H 0.2762 -0.0833 0.6371
H137A H 0.2651 -0.1733 0.5856
H138A H 0.3497 -0.1168 0.6285
C113A C 0.0926(9) 0.0410(9) 0.3872(9)
H139A H 0.1428 0.0686 0.3797
H140A H 0.0757 -0.0145 0.3536
H141A H 0.0540 0.0676 0.3794
C114A C 0.5363(4) 0.3767(3) 0.2440(4)
C115A C 0.4919(4) 0.3462(4) 0.2863(4)
H142A H 0.4645 0.3772 0.3160
C116A C 0.4876(5) 0.2703(4) 0.2853(4)
C117A C 0.5277(5) 0.2249(3) 0.2419(4)
C118A C 0.5722(4) 0.2554(4) 0.1995(4)
H143A H 0.5996 0.2243 0.1699
C119A C 0.5765(4) 0.3313(4) 0.2006(4)
C120A C 0.4024(13) 0.2775(9) 0.3666(11)
H144A H 0.4360 0.3281 0.4022
H145A H 0.3661 0.2882 0.3349
H146A H 0.3732 0.2455 0.3906
C121A C 0.6372(9) 0.3131(8) 0.0991(8)
H147A H 0.6797 0.2952 0.1151
H148A H 0.5921 0.2668 0.0729
H149A H 0.6540 0.3418 0.0679
C122A C 0.5390(6) 0.4577(6) 0.2436(5)
H150A H 0.5739 0.4800 0.2184
C123A C 0.5168(7) 0.1405(6) 0.2382(7)
H151A H 0.4750 0.1162 0.2563
C127 C 0.7876(7) 0.9888(8) 0.7621(8)
H165 H 0.8302 0.9711 0.7419
H166 H 0.7916 0.9917 0.8114
H167 H 0.7906 1.0417 0.7610
O16 O 0.7143(9) 0.9330(8) 0.7205(11)
H168 H 0.6833 0.9581 0.7142
O19 O 0.0452(10) 0.8387(10) 0.2002(10)
H173 H 0.0649 0.8110 0.1689
C128 C 0.048(4) 0.913(2) 0.190(3)
H174 H 0.0753 0.9151 0.1507
H175 H 0.0762 0.9579 0.2338
H176 H -0.0047 0.9150 0.1786
O21 O 0.0166(10) 0.4344(12) 0.5489(9)
H181 H -0.0311 0.4218 0.5324
C130 C 0.0553(19) 0.5094(18) 0.545(2)
H182 H 0.0182 0.5268 0.5204
H183 H 0.0978 0.5036 0.5187
H184 H 0.0764 0.5492 0.5934
O22 O 0.6848(11) 0.1074(12) 0.1331(13)
H185 H 0.7069 0.1308 0.1115
C131 C 0.7278(16) 0.0777(17) 0.1580(16)
H186 H 0.7118 0.0199 0.1315
H187 H 0.7246 0.0885 0.2083
H188 H 0.7814 0.1008 0.1542
Cl1 Cl 0.3401(7) 0.1393(6) -0.0348(6)
Cl2 Cl 0.3720(10) 0.1649(10) 0.0993(8)
C1 C 0.2980(10) 0.1710(14) 0.0419(5)
H1 H 0.2943 0.2260 0.0541
H2 H 0.2468 0.1339 0.0382
Cl3? Cl 0.3433(14) 0.1099(13) -0.0133(9)
Cl4? Cl 0.3458(5) 0.1921(6) 0.1288(5)
H3? H 0.2420 0.1435 0.0351
H4? H 0.3038 0.2207 0.0323
Cl7? Cl 0.1769(12) 0.5658(13) 0.4241(10)
Cl8? Cl 0.1783(12) 0.7140(14) 0.4414(13)
C3? C 0.120(3) 0.629(2) 0.450(4)
H7? H 0.1133 0.6393 0.5001
H8? H 0.0689 0.6086 0.4184
O1? O 0.1745(14) 0.6552(17) 0.4586(14)
O14? O -0.0199(13) 0.2384(16) 0.3819(15)
O15? O 0.2358(12) 0.4011(13) 0.3278(11)
H152? H 0.8016 0.7946 0.1106
C124? C 0.740(3) 0.851(3) 0.187(3)
H153? H 0.6895 0.8189 0.1897
H154? H 0.7322 0.8803 0.1560
H155? H 0.7673 0.8883 0.2343
H156? H 0.2780 0.3421 0.4214
H157? H 0.0677 0.2316 0.4509
C125? C 0.3138(19) 0.395(2) 0.3215(19)
H158? H 0.3106 0.3428 0.2865
H159? H 0.3418 0.4022 0.3679
H160? H 0.3415 0.4370 0.3057
H161? H -0.0885 0.1635 0.4265
H162? H 0.0008 0.1653 0.4379
H163? H -0.0253 0.2390 0.4861
C126? C 0.0782(13) 0.3584(15) 0.2938(9)
H164? H 0.0975 0.3422 0.2508
H169? H 0.7809 0.9354 0.7629
H170? H 0.7626 1.0183 0.7986
H171? H 0.8431 1.0173 0.7717
O17? O 0.7527(19) 0.9825(19) 0.6936(12)
H172? H 0.7050 0.9710 0.6893
O18? O 0.759(2) 0.024(4) 0.233(3)
O20? O 0.061(3) 0.9281(17) 0.1742(19)
H177? H 0.0962 0.9472 0.1549
C129? C 0.0425(12) 0.9882(14) 0.2223(13)
H178? H -0.0142 0.9750 0.2173
H179? H 0.0624 1.0375 0.2137
H180? H 0.0655 0.9955 0.2705
loop_
_geom_bond_atom_site_label_1
_geom_bond_atom_site_label_2
_geom_bond_site_symmetry_1
_geom_bond_site_symmetry_2
Cl1 C1 1_555 1_555
Cl2 C1 1_555 1_555
C1 H1 1_555 1_555
H2 C1 1_555 1_555
Cl5 C2 1_555 1_555
Cl6 C2 1_555 1_555
C2 H5 1_555 1_555
H6 C2 1_555 1_555
O2 C87 1_555 1_555
O3 C90 1_555 1_555
O4 C107 1_555 1_555
O5 C110 1_555 1_555
O6 C97 1_555 1_555
O7 C100 1_555 1_555
O8 C66 1_555 1_555
O9 C70 1_555 1_555
O10 C116 1_555 1_555
O11 C119 1_555 1_555
O12 C79 1_555 1_555
O13 C76 1_555 1_555
N1 C25 1_555 1_555
N2 C28 1_555 1_555
N3 C16 1_555 1_555
N4 C10 1_555 1_555
N5 C13 1_555 1_555
N6 C61 1_555 1_555
N7 C55 1_555 1_555
N8 C58 1_555 1_555
N9 C46 1_555 1_555
N10 C40 1_555 1_555
N11 C43 1_555 1_555
N12 C81 1_555 1_555
C4 C5 1_555 1_555
C5 C6 1_555 1_555
C6 C7 1_555 1_555
C7 C8 1_555 1_555
C8 C9 1_555 1_555
C9 C4 1_555 1_555
C10 C4 1_555 1_555
H9 C10 1_555 1_555
H10 C10 1_555 1_555
C11 C5 1_555 1_555
H11 C11 1_555 1_555
H12 C11 1_555 1_555
C12 C11 1_555 1_555
H13 C12 1_555 1_555
H14 C12 1_555 1_555
H15 C12 1_555 1_555
C13 C6 1_555 1_555
H16 C13 1_555 1_555
H17 C13 1_555 1_555
C14 C7 1_555 1_555
H18 C14 1_555 1_555
H19 C14 1_555 1_555
C15 C14 1_555 1_555
H20 C15 1_555 1_555
H21 C15 1_555 1_555
H22 C15 1_555 1_555
C16 C8 1_555 1_555
H23 C16 1_555 1_555
H24 C16 1_555 1_555
C17 C9 1_555 1_555
H25 C17 1_555 1_555
H26 C17 1_555 1_555
C18 C17 1_555 1_555
H27 C18 1_555 1_555
H28 C18 1_555 1_555
H29 C18 1_555 1_555
C19 C20 1_555 1_555
C20 C21 1_555 1_555
C21 C22 1_555 1_555
C22 C23 1_555 1_555
C23 C24 1_555 1_555
C24 C19 1_555 1_555
C25 C19 1_555 1_555
H30 C25 1_555 1_555
H31 C25 1_555 1_555
C26 C20 1_555 1_555
H32 C26 1_555 1_555
H33 C26 1_555 1_555
C27 C26 1_555 1_555
H34 C27 1_555 1_555
H35 C27 1_555 1_555
H36 C27 1_555 1_555
C28 C21 1_555 1_555
H37 C28 1_555 1_555
H38 C28 1_555 1_555
C29 C22 1_555 1_555
H39 C29 1_555 1_555
H40 C29 1_555 1_555
C30 C29 1_555 1_555
H41 C30 1_555 1_555
H42 C30 1_555 1_555
H43 C30 1_555 1_555
C31 C23 1_555 1_555
H44 C31 1_555 1_555
H45 C31 1_555 1_555
C32 C24 1_555 1_555
H46 C32 1_555 1_555
H47 C32 1_555 1_555
C33 C32 1_555 1_555
H48 C33 1_555 1_555
H49 C33 1_555 1_555
H50 C33 1_555 1_555
C34 C35 1_555 1_555
C35 C36 1_555 1_555
C36 C37 1_555 1_555
C37 C38 1_555 1_555
C38 C39 1_555 1_555
C39 C34 1_555 1_555
C40 C34 1_555 1_555
H51 C40 1_555 1_555
H52 C40 1_555 1_555
C41 C35 1_555 1_555
H53 C41 1_555 1_555
H54 C41 1_555 1_555
C42 C41 1_555 1_555
H55 C42 1_555 1_555
H56 C42 1_555 1_555
H57 C42 1_555 1_555
C43 C36 1_555 1_555
H58 C43 1_555 1_555
H59 C43 1_555 1_555
C44 C37 1_555 1_555
H60 C44 1_555 1_555
C45 C44 1_555 1_555
H61 C45 1_555 1_555
H62 C45 1_555 1_555
H63 C45 1_555 1_555
C46 C38 1_555 1_555
H64 C46 1_555 1_555
H65 C46 1_555 1_555
C47 C39 1_555 1_555
H66 C47 1_555 1_555
H67 C47 1_555 1_555
C48 C47 1_555 1_555
H68 C48 1_555 1_555
H69 C48 1_555 1_555
H70 C48 1_555 1_555
C49 C50 1_555 1_555
C50 C51 1_555 1_555
C51 C52 1_555 1_555
C52 C53 1_555 1_555
C53 C54 1_555 1_555
C54 C49 1_555 1_555
C55 C49 1_555 1_555
H71 C55 1_555 1_555
H72 C55 1_555 1_555
C56 C50 1_555 1_555
H73 C56 1_555 1_555
H74 C56 1_555 1_555
C57 C56 1_555 1_555
H75 C57 1_555 1_555
H76 C57 1_555 1_555
H77 C57 1_555 1_555
C58 C51 1_555 1_555
H78 C58 1_555 1_555
H79 C58 1_555 1_555
C59 C52 1_555 1_555
H80 C59 1_555 1_555
H81 C59 1_555 1_555
C60 C59 1_555 1_555
H82 C60 1_555 1_555
H83 C60 1_555 1_555
H84 C60 1_555 1_555
C61 C53 1_555 1_555
H85 C61 1_555 1_555
H86 C61 1_555 1_555
C62 H87 1_555 1_555
H88 C62 1_555 1_555
H89 C62 1_555 1_555
C63 C54 1_555 1_555
H90 C63 1_555 1_555
H91 C63 1_555 1_555
C64 N5 1_555 1_555
H92 C64 1_555 1_555
C65 C64 1_555 1_555
C66 C65 1_555 1_555
C67 C66 1_555 1_555
H93 C67 1_555 1_555
C68 C67 1_555 1_555
C69 C68 1_555 1_555
H94 C69 1_555 1_555
C70 C65 1_555 1_555
C71 O8 1_555 1_555
H95 C71 1_555 1_555
H96 C71 1_555 1_555
H97 C71 1_555 1_555
C72 O9 1_555 1_555
H98 C72 1_555 1_555
H99 C72 1_555 1_555
H100 C72 1_555 1_555
C73 N6 1_555 1_555
H101 C73 1_555 1_555
C74 N8 1_555 1_555
H102 C74 1_555 1_555
C75 C74 1_555 1_555
C76 C75 1_555 1_555
C77 C76 1_555 1_555
H103 C77 1_555 1_555
C78 C77 1_555 1_555
C79 C78 1_555 1_555
C80 C75 1_555 1_555
H104 C80 1_555 1_555
C81 C78 1_555 1_555
H105 C81 1_555 1_555
C82 O13 1_555 1_555
H106 C82 1_555 1_555
H107 C82 1_555 1_555
H108 C82 1_555 1_555
C83 O12 1_555 1_555
H109 C83 1_555 1_555
H110 C83 1_555 1_555
H111 C83 1_555 1_555
C84 N7 1_555 1_555
H112 C84 1_555 1_555
C85 C84 1_555 1_555
C86 C85 1_555 1_555
H113 C86 1_555 1_555
C87 C86 1_555 1_555
C88 C87 1_555 1_555
C89 C88 1_555 1_555
H114 C89 1_555 1_555
C90 C85 1_555 1_555
C91 N9 1_555 1_555
H115 C91 1_555 1_555
C92 O2 1_555 1_555
H116 C92 1_555 1_555
H117 C92 1_555 1_555
H118 C92 1_555 1_555
C93 O3 1_555 1_555
H119 C93 1_555 1_555
H120 C93 1_555 1_555
H121 C93 1_555 1_555
C94 N10 1_555 1_555
H122 C94 1_555 1_555
C95 C96 1_555 1_555
C96 H123 1_555 1_555
C97 C96 1_555 1_555
C98 C94 1_555 1_555
C99 C98 1_555 1_555
H124 C99 1_555 1_555
C100 C95 1_555 1_555
C101 N4 1_555 1_555
H125 C101 1_555 1_555
C102 O6 1_555 1_555
H126 C102 1_555 1_555
H127 C102 1_555 1_555
H128 C102 1_555 1_555
C103 O7 1_555 1_555
H129 C103 1_555 1_555
H130 C103 1_555 1_555
H131 C103 1_555 1_555
C104 N11 1_555 1_555
H132 C104 1_555 1_555
C105 C104 1_555 1_555
C106 C105 1_555 1_555
H133 C106 1_555 1_555
C107 C106 1_555 1_555
C108 C107 1_555 1_555
C109 C108 1_555 1_555
H134 C109 1_555 1_555
C110 C105 1_555 1_555
C111 N2 1_555 1_555
H135 C111 1_555 1_555
C112 O4 1_555 1_555
H136 C112 1_555 1_555
H137 C112 1_555 1_555
H138 C112 1_555 1_555
C113 O5 1_555 1_555
H139 C113 1_555 1_555
H140 C113 1_555 1_555
H141 C113 1_555 1_555
C114 C115 1_555 1_555
C115 H142 1_555 1_555
C116 C115 1_555 1_555
C117 C116 1_555 1_555
C118 C117 1_555 1_555
H143 C118 1_555 1_555
C119 C114 1_555 1_555
C120 O10 1_555 1_555
H144 C120 1_555 1_555
H145 C120 1_555 1_555
H146 C120 1_555 1_555
C121 O11 1_555 1_555
H147 C121 1_555 1_555
H148 C121 1_555 1_555
H149 C121 1_555 1_555
C122 N3 1_555 1_555
H150 C122 1_555 1_555
C123 N1 1_555 1_555
H151 C123 1_555 1_555
C127 H165 1_555 1_555
H166 C127 1_555 1_555
H167 C127 1_555 1_555
O16 C127 1_555 1_555
H168 O16 1_555 1_555
O19 H173 1_555 1_555
C128 O19 1_555 1_555
H174 C128 1_555 1_555
H175 C128 1_555 1_555
H176 C128 1_555 1_555
O21 H181 1_555 1_555
C130 O21 1_555 1_555
H182 C130 1_555 1_555
H183 C130 1_555 1_555
H184 C130 1_555 1_555
O22 H185 1_555 1_555
C131 O22 1_555 1_555
H186 C131 1_555 1_555
H187 C131 1_555 1_555
H188 C131 1_555 1_555
O2A C87A 1_555 1_555
O3A C90A 1_555 1_555
O4A C107A 1_555 1_555
O5A C110A 1_555 1_555
O6A C97A 1_555 1_555
O7A C100A 1_555 1_555
O8A C66A 1_555 1_555
O9A C70A 1_555 1_555
O10A C116A 1_555 1_555
O11A C119A 1_555 1_555
O12A C79A 1_555 1_555
O13A C76A 1_555 1_555
N1A C25A 1_555 1_555
N2A C28A 1_555 1_555
N3A C16A 1_555 1_555
N4A C10A 1_555 1_555
N5A C13A 1_555 1_555
N6A C61A 1_555 1_555
N7A C55A 1_555 1_555
N8A C58A 1_555 1_555
N9A C46A 1_555 1_555
N10A C40A 1_555 1_555
N11A C43A 1_555 1_555
N12A C31 1_555 1_555
C4A C5A 1_555 1_555
C5A C6A 1_555 1_555
C6A C7A 1_555 1_555
C7A C8A 1_555 1_555
C8A C9A 1_555 1_555
C9A C4A 1_555 1_555
C10A C4A 1_555 1_555
H9A C10A 1_555 1_555
H10A C10A 1_555 1_555
C11A C5A 1_555 1_555
H11A C11A 1_555 1_555
H12A C11A 1_555 1_555
C12A C11A 1_555 1_555
H13A C12A 1_555 1_555
H14A C12A 1_555 1_555
H15A C12A 1_555 1_555
C13A C6A 1_555 1_555
H16A C13A 1_555 1_555
H17A C13A 1_555 1_555
C14A C7A 1_555 1_555
H18A C14A 1_555 1_555
H19A C14A 1_555 1_555
C15A C14A 1_555 1_555
H20A C15A 1_555 1_555
H21A C15A 1_555 1_555
H22A C15A 1_555 1_555
C16A C8A 1_555 1_555
H23A C16A 1_555 1_555
H24A C16A 1_555 1_555
C17A C9A 1_555 1_555
H25A C17A 1_555 1_555
H26A C17A 1_555 1_555
C18A C17A 1_555 1_555
H27A C18A 1_555 1_555
H28A C18A 1_555 1_555
H29A C18A 1_555 1_555
C19A C20A 1_555 1_555
C20A C21A 1_555 1_555
C21A C22A 1_555 1_555
C22A C23A 1_555 1_555
C23A C24A 1_555 1_555
C24A C19A 1_555 1_555
C25A C19A 1_555 1_555
H30A C25A 1_555 1_555
H31A C25A 1_555 1_555
C26A C20A 1_555 1_555
H32A C26A 1_555 1_555
H33A C26A 1_555 1_555
C27A C26A 1_555 1_555
H34A C27A 1_555 1_555
H35A C27A 1_555 1_555
H36A C27A 1_555 1_555
C28A C21A 1_555 1_555
H37A C28A 1_555 1_555
H38A C28A 1_555 1_555
C29A C22A 1_555 1_555
H39A C29A 1_555 1_555
H40A C29A 1_555 1_555
C30A C29A 1_555 1_555
H41A C30A 1_555 1_555
H42A C30A 1_555 1_555
H43A C30A 1_555 1_555
C31A N12 1_555 1_555
H44A C31A 1_555 1_555
H45A C31A 1_555 1_555
C32A C24A 1_555 1_555
H46A C32A 1_555 1_555
H47A C32A 1_555 1_555
C33A C32A 1_555 1_555
H48A C33A 1_555 1_555
H49A C33A 1_555 1_555
H50A C33A 1_555 1_555
C34A C35A 1_555 1_555
C35A C36A 1_555 1_555
C36A C37A 1_555 1_555
C37A C38A 1_555 1_555
C38A C39A 1_555 1_555
C39A C34A 1_555 1_555
C40A C34A 1_555 1_555
H51A C40A 1_555 1_555
H52A C40A 1_555 1_555
C41A C35A 1_555 1_555
H53A C41A 1_555 1_555
H54A C41A 1_555 1_555
C42A C41A 1_555 1_555
H55A C42A 1_555 1_555
H56A C42A 1_555 1_555
H57A C42A 1_555 1_555
C43A C36A 1_555 1_555
H58A C43A 1_555 1_555
H59A C43A 1_555 1_555
C44A C37A 1_555 1_555
H60A C44A 1_555 1_555
C45A C44A 1_555 1_555
H61A C45A 1_555 1_555
H62A C45A 1_555 1_555
H63A C45A 1_555 1_555
C46A C38A 1_555 1_555
H64A C46A 1_555 1_555
H65A C46A 1_555 1_555
C47A C39A 1_555 1_555
H66A C47A 1_555 1_555
H67A C47A 1_555 1_555
C48A C47A 1_555 1_555
H68A C48A 1_555 1_555
H69A C48A 1_555 1_555
H70A C48A 1_555 1_555
C49A C50A 1_555 1_555
C50A C51A 1_555 1_555
C51A C52A 1_555 1_555
C52A C53A 1_555 1_555
C53A C54A 1_555 1_555
C54A C49A 1_555 1_555
C55A C49A 1_555 1_555
H71A C55A 1_555 1_555
H72A C55A 1_555 1_555
C56A C50A 1_555 1_555
H73A C56A 1_555 1_555
H74A C56A 1_555 1_555
C57A C56A 1_555 1_555
H75A C57A 1_555 1_555
H76A C57A 1_555 1_555
H77A C57A 1_555 1_555
C58A C51A 1_555 1_555
H78A C58A 1_555 1_555
H79A C58A 1_555 1_555
C59A C52A 1_555 1_555
H80A C59A 1_555 1_555
H81A C59A 1_555 1_555
C60A C59A 1_555 1_555
H82A C60A 1_555 1_555
H83A C60A 1_555 1_555
H84A C60A 1_555 1_555
C61A C53A 1_555 1_555
H85A C61A 1_555 1_555
H86A C61A 1_555 1_555
C62A H87A 1_555 1_555
H88A C62A 1_555 1_555
H89A C62A 1_555 1_555
C63A C54A 1_555 1_555
H90A C63A 1_555 1_555
H91A C63A 1_555 1_555
C64A N5A 1_555 1_555
H92A C64A 1_555 1_555
C65A C64A 1_555 1_555
C66A C65A 1_555 1_555
C67A C66A 1_555 1_555
H93A C67A 1_555 1_555
C68A C67A 1_555 1_555
C69A C68A 1_555 1_555
H94A C69A 1_555 1_555
C70A C65A 1_555 1_555
C71A O8A 1_555 1_555
H95A C71A 1_555 1_555
H96A C71A 1_555 1_555
H97A C71A 1_555 1_555
C72A O9A 1_555 1_555
H98A C72A 1_555 1_555
H99A C72A 1_555 1_555
H100A C72A 1_555 1_555
C73A N6A 1_555 1_555
H101A C73A 1_555 1_555
C74A N8A 1_555 1_555
H102A C74A 1_555 1_555
C75A C74A 1_555 1_555
C76A C75A 1_555 1_555
C77A C76A 1_555 1_555
H103A C77A 1_555 1_555
C78A C77A 1_555 1_555
C79A C78A 1_555 1_555
C80A C75A 1_555 1_555
H104A C80A 1_555 1_555
C81A N12A 1_555 1_555
H105A C81A 1_555 1_555
C82A O13A 1_555 1_555
H106A C82A 1_555 1_555
H107A C82A 1_555 1_555
H108A C82A 1_555 1_555
C83A O12A 1_555 1_555
H109A C83A 1_555 1_555
H110A C83A 1_555 1_555
H111A C83A 1_555 1_555
C84A N7A 1_555 1_555
H112A C84A 1_555 1_555
C85A C84A 1_555 1_555
C86A C85A 1_555 1_555
H113A C86A 1_555 1_555
C87A C86A 1_555 1_555
C88A C87A 1_555 1_555
C89A C88A 1_555 1_555
H114A C89A 1_555 1_555
C90A C85A 1_555 1_555
C91A N9A 1_555 1_555
H115A C91A 1_555 1_555
C92A O2A 1_555 1_555
H116A C92A 1_555 1_555
H117A C92A 1_555 1_555
H118A C92A 1_555 1_555
C93A O3A 1_555 1_555
H119A C93A 1_555 1_555
H120A C93A 1_555 1_555
H121A C93A 1_555 1_555
C94A N10A 1_555 1_555
H122A C94A 1_555 1_555
C95A C96A 1_555 1_555
C96A H123A 1_555 1_555
C97A C96A 1_555 1_555
C98A C94A 1_555 1_555
C99A C98A 1_555 1_555
H124A C99A 1_555 1_555
C100A C95A 1_555 1_555
C101A N4A 1_555 1_555
H125A C101A 1_555 1_555
C102A O6A 1_555 1_555
H126A C102A 1_555 1_555
H127A C102A 1_555 1_555
H128A C102A 1_555 1_555
C103A O7A 1_555 1_555
H129A C103A 1_555 1_555
H130A C103A 1_555 1_555
H131A C103A 1_555 1_555
C104A N11A 1_555 1_555
H132A C104A 1_555 1_555
C105A C104A 1_555 1_555
C106A C105A 1_555 1_555
H133A C106A 1_555 1_555
C107A C106A 1_555 1_555
C108A C107A 1_555 1_555
C109A C108A 1_555 1_555
H134A C109A 1_555 1_555
C110A C105A 1_555 1_555
C111A N2A 1_555 1_555
H135A C111A 1_555 1_555
C112A O4A 1_555 1_555
H136A C112A 1_555 1_555
H137A C112A 1_555 1_555
H138A C112A 1_555 1_555
C113A O5A 1_555 1_555
H139A C113A 1_555 1_555
H140A C113A 1_555 1_555
H141A C113A 1_555 1_555
C114A C115A 1_555 1_555
C115A H142A 1_555 1_555
C116A C115A 1_555 1_555
C117A C116A 1_555 1_555
C118A C117A 1_555 1_555
H143A C118A 1_555 1_555
C119A C114A 1_555 1_555
C120A O10A 1_555 1_555
H144A C120A 1_555 1_555
H145A C120A 1_555 1_555
H146A C120A 1_555 1_555
C121A O11A 1_555 1_555
H147A C121A 1_555 1_555
H148A C121A 1_555 1_555
H149A C121A 1_555 1_555
C122A N3A 1_555 1_555
H150A C122A 1_555 1_555
C123A N1A 1_555 1_555
H151A C123A 1_555 1_555
C62 C63 1_555 1_555
C68 C73 1_555 1_555
C69 C70 1_555 1_555
C79 C80 1_555 1_555
C88 C91 1_555 1_555
C89 C90 1_555 1_555
C95 C101 1_555 1_555
C97 C98 1_555 1_555
C99 C100 1_555 1_555
C108 C111 1_555 1_555
C109 C110 1_555 1_555
C114 C122 1_555 1_555
C117 C123 1_555 1_555
C118 C119 1_555 1_555
C23A C31A 1_555 1_555
C62A C63A 1_555 1_555
C68A C73A 1_555 1_555
C69A C70A 1_555 1_555
C78A C81A 1_555 1_555
C79A C80A 1_555 1_555
C88A C91A 1_555 1_555
C89A C90A 1_555 1_555
C95A C101A 1_555 1_555
C97A C98A 1_555 1_555
C99A C100A 1_555 1_555
C108A C111A 1_555 1_555
C109A C110A 1_555 1_555
C114A C122A 1_555 1_555
C117A C123A 1_555 1_555
C118A C119A 1_555 1_555

#END
