
#######################################################################
#
#                 Cambridge Crystallographic Data Centre
#                                CCDC 
#
#######################################################################
#
# If this CIF has been generated from an entry in the Cambridge 
# Structural Database, then it will include bibliographic, chemical, 
# crystal, experimental, refinement or atomic coordinate data resulting 
# from the CCDC's data processing and validation procedures.
#
#######################################################################

data_PIFKOH
_chemical_formula_moiety         'C69.579 H67.579 Cl1.737 N9 O5.8'
_symmetry_cell_setting           monoclinic
_symmetry_space_group_name_H-M   'C 2/c'
_symmetry_Int_Tables_number      15
_space_group_name_Hall           '-C 2yn'
loop_
_symmetry_equiv_pos_site_id
_symmetry_equiv_pos_as_xyz
1 x,y,z
2 -x,y,1/2-z
3 1/2+x,1/2+y,z
4 1/2-x,1/2+y,1/2-z
5 -x,-y,-z
6 x,-y,1/2+z
7 1/2-x,1/2-y,-z
8 1/2+x,1/2-y,1/2+z
_cell_length_a                   21.536(3)
_cell_length_b                   15.147(2)
_cell_length_c                   27.037(5)
_cell_angle_alpha                90
_cell_angle_beta                 109.508(2)
_cell_angle_gamma                90
_cell_volume                     8313.33
loop_
_atom_site_label
_atom_site_type_symbol
_atom_site_fract_x
_atom_site_fract_y
_atom_site_fract_z
Cl1 Cl 0.25548(19) 0.2212(3) 0.44793(16)
Cl2 Cl 0.15916(16) 0.2367(2) 0.34288(18)
Cl3 Cl 0.1938(2) 0.0648(3) 0.3917(3)
C39 C 0.2213(5) 0.1739(8) 0.3888(5)
D1 D 0.2577 0.1689 0.3737
O1 O 0.5325(2) 1.6356(3) 0.72626(17)
N1 N 0.2643(2) 0.7075(3) 0.70378(19)
N2 N 0.5059(2) 0.7100(3) 0.5749(2)
N3 N 0.6217(2) 1.0721(3) 0.6863(2)
N4 N 0.5000 1.5985(5) 0.7500
N5 N 0.1145(3) 0.5691(5) 0.3685(2)
C1 C 0.61739(15) 0.8759(2) 0.62295(12)
C2 C 0.66109(17) 0.92078(15) 0.66511(15)
C3 C 0.70433(15) 0.8739(2) 0.70663(12)
C4 C 0.70386(15) 0.7822(2) 0.70597(11)
C5 C 0.66016(17) 0.73726(15) 0.66381(13)
C6 C 0.61692(15) 0.7841(2) 0.62229(11)
C7 C 0.5686(3) 0.9268(4) 0.5774(3)
H1 H 0.5568 0.9829 0.5908
H2 H 0.5279 0.8916 0.5626
C8 C 0.5978(4) 0.9471(6) 0.5335(3)
H3 H 0.5667 0.9834 0.5064
H4 H 0.6058 0.8917 0.5179
H5 H 0.6395 0.9791 0.5484
C9 C 0.5715(3) 0.7347(4) 0.5749(2)
H6 H 0.5659 0.7716 0.5435
H7 H 0.5943 0.6800 0.5706
C10 C 0.6579(3) 0.6369(4) 0.6647(3)
H8 H 0.6121 0.6172 0.6464
H9 H 0.6707 0.6167 0.7016
C11 C 0.7035(4) 0.5936(5) 0.6387(3)
H10 H 0.6923 0.6152 0.6026
H11 H 0.6978 0.5294 0.6383
H12 H 0.7493 0.6085 0.6584
C12 C 0.7534(3) 0.7306(4) 0.7518(3)
H13 H 0.7645 0.6753 0.7372
H14 H 0.7943 0.7660 0.7646
C13 C 0.7520(3) 0.9218(5) 0.7537(3)
H15 H 0.7596 0.8852 0.7855
H16 H 0.7320 0.9782 0.7591
C14 C 0.8181(3) 0.9405(5) 0.7461(4)
H17 H 0.8106 0.9756 0.7141
H18 H 0.8392 0.8846 0.7428
H19 H 0.8466 0.9734 0.7764
C15 C 0.6640(3) 1.0213(4) 0.6640(3)
H20 H 0.7101 1.0391 0.6827
H21 H 0.6534 1.0396 0.6270
C16 C 0.4879(3) 0.7278(4) 0.6133(2)
H22 H 0.5180 0.7554 0.6434
C17 C 0.3202(3) 0.7254(4) 0.7017(2)
H23 H 0.3515 0.7528 0.7312
C18 C 0.5848(2) 1.0335(3) 0.7076(2)
H24 H 0.5853 0.9708 0.7092
C19 C 0.5417(2) 1.0816(3) 0.7297(2)
C20 C 0.5000 1.0387(5) 0.7500
H25 H 0.5000 0.9759 0.7500
C21 C 0.5000 1.2213(5) 0.7500
C22 C 0.5415(2) 1.1749(3) 0.7297(2)
H26 H 0.5700 1.2061 0.7157
C23 C 0.5000 1.3242(4) 0.7500
C24 C 0.5065(3) 1.3658(4) 0.7083(3)
H27 H 0.5103 1.3337 0.6792
C25 C 0.5075(3) 1.4581(4) 0.7089(3)
H28 H 0.5134 1.4897 0.6805
C26 C 0.5000 1.5023(5) 0.7500
O2 O 0.0558(5) 0.5748(9) 0.3621(5)
O3 O 0.1421(12) 0.540(2) 0.3393(8)
C27 C 0.42076(13) 0.7064(3) 0.61245(14)
C28 C 0.40309(14) 0.7233(2) 0.65651(11)
H29 H 0.4346 0.7470 0.6873
C29 C 0.33938(16) 0.7056(2) 0.65558(12)
C30 C 0.29334(12) 0.6710(3) 0.61058(14)
H30 H 0.2498 0.6589 0.6099
C31 C 0.31101(15) 0.6541(3) 0.56652(11)
C32 C 0.37472(17) 0.6719(3) 0.56745(11)
H31 H 0.3868 0.6603 0.5373
C33 C 0.2545(4) 0.6252(9) 0.5190(3)
C34 C 0.1883(5) 0.6451(6) 0.5085(3)
H32 H 0.1747 0.6753 0.5338
C35 C 0.1422(4) 0.6206(7) 0.4608(4)
H33 H 0.0969 0.6342 0.4535
C36 C 0.1622(5) 0.5763(9) 0.4236(3)
C37 C 0.2284(6) 0.5565(9) 0.4342(4)
H34 H 0.2421 0.5262 0.4088
C38 C 0.2746(4) 0.5810(9) 0.4819(4)
H35 H 0.3198 0.5674 0.4891
O1A O 0.4675(2) 1.6356(3) 0.77374(17)
N1A N 0.7357(2) 0.7075(3) 0.79622(19)
N2A N 0.4941(2) 0.7100(3) 0.9251(2)
N3A N 0.3783(2) 1.0721(3) 0.8137(2)
N5A N 0.8855(3) 0.5691(5) 1.1315(2)
C1A C 0.38261(15) 0.8759(2) 0.87705(12)
C2A C 0.33891(17) 0.92078(15) 0.83489(15)
C3A C 0.29567(15) 0.8739(2) 0.79337(12)
C4A C 0.29614(15) 0.7822(2) 0.79403(11)
C5A C 0.33984(17) 0.73726(15) 0.83619(13)
C6A C 0.38308(15) 0.7841(2) 0.87771(11)
C7A C 0.4314(3) 0.9268(4) 0.9226(3)
H1A H 0.4432 0.9829 0.9092
H2A H 0.4721 0.8916 0.9374
C8A C 0.4022(4) 0.9471(6) 0.9665(3)
H3A H 0.4333 0.9834 0.9936
H4A H 0.3942 0.8917 0.9821
H5A H 0.3605 0.9791 0.9516
C9A C 0.4285(3) 0.7347(4) 0.9251(2)
H6A H 0.4341 0.7716 0.9565
H7A H 0.4057 0.6800 0.9294
C10A C 0.3421(3) 0.6369(4) 0.8353(3)
H8A H 0.3879 0.6172 0.8536
H9A H 0.3293 0.6167 0.7984
C11A C 0.2965(4) 0.5936(5) 0.8613(3)
H10A H 0.3077 0.6152 0.8974
H11A H 0.3022 0.5294 0.8617
H12A H 0.2507 0.6085 0.8416
C12A C 0.2466(3) 0.7306(4) 0.7482(3)
H13A H 0.2355 0.6753 0.7628
H14A H 0.2057 0.7660 0.7354
C13A C 0.2480(3) 0.9218(5) 0.7463(3)
H15A H 0.2404 0.8852 0.7145
H16A H 0.2680 0.9782 0.7409
C14A C 0.1819(3) 0.9405(5) 0.7539(4)
H17A H 0.1894 0.9756 0.7859
H18A H 0.1608 0.8846 0.7572
H19A H 0.1534 0.9734 0.7236
C15A C 0.3360(3) 1.0213(4) 0.8360(3)
H20A H 0.2899 1.0391 0.8173
H21A H 0.3466 1.0396 0.8730
C16A C 0.5121(3) 0.7278(4) 0.8867(2)
H22A H 0.4820 0.7554 0.8566
C17A C 0.6798(3) 0.7254(4) 0.7983(2)
H23A H 0.6485 0.7528 0.7688
C18A C 0.4152(2) 1.0335(3) 0.7924(2)
H24A H 0.4147 0.9708 0.7908
C19A C 0.4583(2) 1.0816(3) 0.7703(2)
C22A C 0.4585(2) 1.1749(3) 0.7703(2)
H26A H 0.4300 1.2061 0.7843
C24A C 0.4935(3) 1.3658(4) 0.7917(3)
H27A H 0.4897 1.3337 0.8208
C25A C 0.4925(3) 1.4581(4) 0.7911(3)
H28A H 0.4866 1.4897 0.8195
O2A O 0.9442(5) 0.5748(9) 1.1379(5)
O3A O 0.8579(12) 0.540(2) 1.1607(8)
C27A C 0.57924(13) 0.7064(3) 0.88755(14)
C28A C 0.59691(14) 0.7233(2) 0.84349(11)
H29A H 0.5654 0.7470 0.8127
C29A C 0.66062(16) 0.7056(2) 0.84442(12)
C30A C 0.70666(12) 0.6710(3) 0.88942(14)
H30A H 0.7502 0.6589 0.8901
C31A C 0.68899(15) 0.6541(3) 0.93348(11)
C32A C 0.62528(17) 0.6719(3) 0.93255(11)
H31A H 0.6132 0.6603 0.9627
C33A C 0.7455(4) 0.6252(9) 0.9810(3)
C34A C 0.8117(5) 0.6451(6) 0.9915(3)
H32A H 0.8253 0.6753 0.9662
C35A C 0.8578(4) 0.6206(7) 1.0392(4)
H33A H 0.9031 0.6342 1.0465
C36A C 0.8378(5) 0.5763(9) 1.0764(3)
C37A C 0.7716(6) 0.5565(9) 1.0658(4)
H34A H 0.7579 0.5262 1.0912
C38A C 0.7254(4) 0.5810(9) 1.0181(4)
H35A H 0.6802 0.5674 1.0109
O4? O 0.0612(7) 0.5628(19) 0.3785(8)
O5? O 0.1324(8) 0.5629(11) 0.3291(6)
C40? C 0.2637(6) 0.6244(11) 0.5125(3)
C41? C 0.1986(7) 0.6146(13) 0.5102(4)
H36? H 0.1875 0.6193 0.5412
C42? C 0.1498(5) 0.5978(14) 0.4624(5)
H37? H 0.1053 0.5911 0.4608
C43? C 0.1661(6) 0.5908(11) 0.4169(4)
C44? C 0.2312(6) 0.6007(9) 0.4193(3)
H38? H 0.2423 0.5959 0.3882
C45? C 0.2800(5) 0.6174(10) 0.4670(4)
H39? H 0.3245 0.6241 0.4686
O6? O 0.1511(11) 0.243(2) 0.3786(15)
O7? O 0.204(3) 0.099(3) 0.4188(15)
loop_
_geom_bond_atom_site_label_1
_geom_bond_atom_site_label_2
_geom_bond_site_symmetry_1
_geom_bond_site_symmetry_2
O1 N4 1_555 1_555
N1 C17 1_555 1_555
N2 C9 1_555 1_555
N3 C15 1_555 1_555
N4 C26 1_555 1_555
N5 O2 1_555 1_555
C1 C2 1_555 1_555
C2 C3 1_555 1_555
C3 C4 1_555 1_555
C4 C5 1_555 1_555
C5 C6 1_555 1_555
C6 C1 1_555 1_555
C7 C1 1_555 1_555
H1 C7 1_555 1_555
H2 C7 1_555 1_555
C8 C7 1_555 1_555
H3 C8 1_555 1_555
H4 C8 1_555 1_555
H5 C8 1_555 1_555
C9 C6 1_555 1_555
H6 C9 1_555 1_555
H7 C9 1_555 1_555
C10 C5 1_555 1_555
H8 C10 1_555 1_555
H9 C10 1_555 1_555
C11 C10 1_555 1_555
H10 C11 1_555 1_555
H11 C11 1_555 1_555
H12 C11 1_555 1_555
C12 C4 1_555 1_555
H13 C12 1_555 1_555
H14 C12 1_555 1_555
C13 C3 1_555 1_555
H15 C13 1_555 1_555
H16 C13 1_555 1_555
C14 C13 1_555 1_555
H17 C14 1_555 1_555
H18 C14 1_555 1_555
H19 C14 1_555 1_555
C15 C2 1_555 1_555
H20 C15 1_555 1_555
H21 C15 1_555 1_555
C16 N2 1_555 1_555
H22 C16 1_555 1_555
C17 H23 1_555 1_555
C18 N3 1_555 1_555
H24 C18 1_555 1_555
C19 C18 1_555 1_555
C20 C19 1_555 1_555
H25 C20 1_555 1_555
C21 C22 1_555 1_555
C22 C19 1_555 1_555
H26 C22 1_555 1_555
C23 C21 1_555 1_555
C24 C23 1_555 1_555
H27 C24 1_555 1_555
C25 C24 1_555 1_555
H28 C25 1_555 1_555
C26 C25 1_555 1_555
O3 N5 1_555 1_555
C27 C16 1_555 1_555
C28 C27 1_555 1_555
H29 C28 1_555 1_555
C29 C17 1_555 1_555
C30 C29 1_555 1_555
H30 C30 1_555 1_555
C31 C30 1_555 1_555
C32 C27 1_555 1_555
H31 C32 1_555 1_555
C33 C31 1_555 1_555
C34 C33 1_555 1_555
H32 C34 1_555 1_555
C35 C34 1_555 1_555
H33 C35 1_555 1_555
C36 N5 1_555 1_555
C37 C36 1_555 1_555
H34 C37 1_555 1_555
C38 C33 1_555 1_555
H35 C38 1_555 1_555
Cl1 C39 1_555 1_555
Cl2 C39 1_555 1_555
Cl3 C39 1_555 1_555
C39 D1 1_555 1_555
O1A N4 1_555 1_555
N1A C12 1_555 1_555
N2A C9A 1_555 1_555
N3A C15A 1_555 1_555
N5A O2A 1_555 1_555
C1A C2A 1_555 1_555
C2A C3A 1_555 1_555
C3A C4A 1_555 1_555
C4A C5A 1_555 1_555
C5A C6A 1_555 1_555
C6A C1A 1_555 1_555
C7A C1A 1_555 1_555
H1A C7A 1_555 1_555
H2A C7A 1_555 1_555
C8A C7A 1_555 1_555
H3A C8A 1_555 1_555
H4A C8A 1_555 1_555
H5A C8A 1_555 1_555
C9A C6A 1_555 1_555
H6A C9A 1_555 1_555
H7A C9A 1_555 1_555
C10A C5A 1_555 1_555
H8A C10A 1_555 1_555
H9A C10A 1_555 1_555
C11A C10A 1_555 1_555
H10A C11A 1_555 1_555
H11A C11A 1_555 1_555
H12A C11A 1_555 1_555
C12A N1 1_555 1_555
H13A C12A 1_555 1_555
H14A C12A 1_555 1_555
C13A C3A 1_555 1_555
H15A C13A 1_555 1_555
H16A C13A 1_555 1_555
C14A C13A 1_555 1_555
H17A C14A 1_555 1_555
H18A C14A 1_555 1_555
H19A C14A 1_555 1_555
C15A C2A 1_555 1_555
H20A C15A 1_555 1_555
H21A C15A 1_555 1_555
C16A N2A 1_555 1_555
H22A C16A 1_555 1_555
C17A N1A 1_555 1_555
H23A C17A 1_555 1_555
C18A N3A 1_555 1_555
H24A C18A 1_555 1_555
C19A C20 1_555 1_555
C22A C21 1_555 1_555
H26A C22A 1_555 1_555
C24A C23 1_555 1_555
H27A C24A 1_555 1_555
C25A C26 1_555 1_555
H28A C25A 1_555 1_555
O3A N5A 1_555 1_555
C27A C16A 1_555 1_555
C28A C27A 1_555 1_555
H29A C28A 1_555 1_555
C29A C17A 1_555 1_555
C30A C29A 1_555 1_555
H30A C30A 1_555 1_555
C31A C30A 1_555 1_555
C32A C27A 1_555 1_555
H31A C32A 1_555 1_555
C33A C31A 1_555 1_555
C34A C33A 1_555 1_555
H32A C34A 1_555 1_555
C35A C34A 1_555 1_555
H33A C35A 1_555 1_555
C36A N5A 1_555 1_555
C37A C36A 1_555 1_555
H34A C37A 1_555 1_555
C38A C33A 1_555 1_555
H35A C38A 1_555 1_555
C28 C29 1_555 1_555
C31 C32 1_555 1_555
C35 C36 1_555 1_555
C37 C38 1_555 1_555
C4A C12A 1_555 1_555
C18A C19A 1_555 1_555
C19A C22A 1_555 1_555
C24A C25A 1_555 1_555
C28A C29A 1_555 1_555
C31A C32A 1_555 1_555
C35A C36A 1_555 1_555
C37A C38A 1_555 1_555

#END
