
#######################################################################
#
#                 Cambridge Crystallographic Data Centre
#                                CCDC 
#
#######################################################################
#
# If this CIF has been generated from an entry in the Cambridge 
# Structural Database, then it will include bibliographic, chemical, 
# crystal, experimental, refinement or atomic coordinate data resulting 
# from the CCDC's data processing and validation procedures.
#
#######################################################################

data_PIFKUN
_chemical_formula_moiety         'C71.627 H72.104 Cl14.0185 N6.477 S3'
_symmetry_cell_setting           triclinic
_symmetry_space_group_name_H-M   'P -1'
_symmetry_Int_Tables_number      2
_space_group_name_Hall           '-P 1'
loop_
_symmetry_equiv_pos_site_id
_symmetry_equiv_pos_as_xyz
1 x,y,z
2 -x,-y,-z
_cell_length_a                   13.6116(5)
_cell_length_b                   15.8683(6)
_cell_length_c                   20.3799(8)
_cell_angle_alpha                100.2965(16)
_cell_angle_beta                 98.7148(16)
_cell_angle_gamma                113.3470(14)
_cell_volume                     3854.07
loop_
_atom_site_label
_atom_site_type_symbol
_atom_site_fract_x
_atom_site_fract_y
_atom_site_fract_z
S1 S 0.45524(8) 0.89631(6) 0.92166(5)
N1 N 0.2861(2) 0.40442(19) 0.85068(15)
N2 N 0.4880(2) 0.11662(19) 0.91240(15)
N3 N 0.2322(2) 0.0447(2) 0.61569(15)
N4 N 0.8031(2) 0.68661(19) 0.78045(16)
N5 N 0.9945(2) 0.38428(19) 0.82703(15)
N6 N 0.7269(2) 0.3383(2) 0.53388(15)
C1 C 0.1918(2) 0.1720(2) 0.75795(17)
C2 C 0.2315(2) 0.2250(2) 0.82688(17)
C3 C 0.2930(2) 0.2003(2) 0.87507(17)
C4 C 0.3092(2) 0.1185(2) 0.85458(17)
C5 C 0.2687(3) 0.0642(2) 0.78582(18)
C6 C 0.2094(3) 0.0905(2) 0.73760(17)
C7 C 0.1297(3) 0.2015(2) 0.70583(19)
H1 H 0.1446 0.1837 0.6606
H2 H 0.1578 0.2715 0.7196
C8 C 0.0044(3) 0.1556(3) 0.6984(2)
H3 H -0.0315 0.1751 0.6625
H4 H -0.0113 0.1763 0.7422
H5 H -0.0239 0.0862 0.6856
C9 C 0.2066(3) 0.3092(2) 0.85026(18)
H6 H 0.1348 0.2960 0.8205
H7 H 0.1965 0.3113 0.8975
C10 C 0.3404(3) 0.2607(3) 0.94871(18)
H8 H 0.3567 0.3275 0.9495
H9 H 0.4108 0.2587 0.9673
C11 C 0.2617(4) 0.2272(3) 0.9954(2)
H10 H 0.1882 0.2195 0.9736
H11 H 0.2900 0.2747 1.0400
H12 H 0.2568 0.1663 1.0023
C12 C 0.3696(3) 0.0877(2) 0.90652(18)
H13 H 0.3605 0.1122 0.9523
H14 H 0.3323 0.0173 0.8955
C13 C 0.2887(3) -0.0233(2) 0.7643(2)
H15 H 0.3600 -0.0129 0.7931
H16 H 0.2941 -0.0321 0.7159
C14 C 0.1969(4) -0.1135(3) 0.7712(2)
H17 H 0.1274 -0.1276 0.7394
H18 H 0.1884 -0.1039 0.8185
H19 H 0.2161 -0.1669 0.7602
C15 C 0.1615(3) 0.0283(2) 0.66435(18)
H20 H 0.1367 -0.0387 0.6662
H21 H 0.0949 0.0356 0.6451
C16 C 0.9121(2) 0.6012(2) 0.73001(17)
C17 C 0.8655(2) 0.5537(2) 0.65995(17)
C18 C 0.8799(3) 0.4732(2) 0.63210(17)
C19 C 0.9380(3) 0.4387(2) 0.67417(17)
C20 C 0.9845(2) 0.4865(2) 0.74407(16)
C21 C 0.9695(2) 0.5668(2) 0.77236(16)
C22 C 0.9034(3) 0.6925(2) 0.75862(19)
H22 H 0.9672 0.7310 0.7987
H23 H 0.9122 0.7285 0.7232
C23 C 0.8030(3) 0.5911(3) 0.6141(2)
H24 H 0.7685 0.6237 0.6420
H25 H 0.7432 0.5368 0.5781
C24 C 0.8785(4) 0.6610(3) 0.5793(2)
H26 H 0.8343 0.6819 0.5495
H27 H 0.9131 0.6292 0.5518
H28 H 0.9358 0.7164 0.6147
C25 C 0.8343(3) 0.4230(2) 0.55590(18)
H29 H 0.8281 0.4700 0.5315
H30 H 0.8895 0.4041 0.5399
C26 C 0.9519(3) 0.3508(2) 0.64414(19)
H31 H 0.8871 0.3083 0.6055
H32 H 0.9539 0.3160 0.6798
C27 C 1.0579(3) 0.3741(3) 0.6180(2)
H33 H 1.0558 0.4075 0.5821
H34 H 1.0626 0.3150 0.5990
H35 H 1.1225 0.4147 0.6562
C28 C 1.0517(3) 0.4524(2) 0.78964(18)
H36 H 1.0878 0.4231 0.7606
H37 H 1.1111 0.5091 0.8240
C29 C 1.0182(3) 0.6169(2) 0.84836(17)
H38 H 1.0182 0.5694 0.8740
H39 H 0.9709 0.6454 0.8652
C30 C 1.1363(3) 0.6950(2) 0.86325(19)
H40 H 1.1360 0.7446 0.8407
H41 H 1.1831 0.6675 0.8455
H42 H 1.1653 0.7228 0.9130
C31 C 0.3710(3) 0.4147(2) 0.82858(18)
H43 H 0.3821 0.3599 0.8125
C32 C 0.4536(3) 0.5080(2) 0.82667(19)
C33 C 0.4381(3) 0.5901(2) 0.84456(18)
H44 H 0.3735 0.5862 0.8588
C34 C 0.5165(3) 0.6781(2) 0.84179(18)
C35 C 0.6106(3) 0.6820(2) 0.82050(18)
H45 H 0.6642 0.7414 0.8183
C36 C 0.6277(3) 0.6010(2) 0.80238(18)
C37 C 0.5485(3) 0.5139(2) 0.80541(18)
H46 H 0.5592 0.4581 0.7929
C38 C 0.5030(3) 0.7667(2) 0.86150(18)
C39 C 0.4506(3) 0.7852(2) 0.9104(2)
H47 H 0.4156 0.7414 0.9353
C40 C 0.5475(3) 0.8453(2) 0.83271(19)
H48 H 0.5872 0.8457 0.7982
C41 C 0.5267(3) 0.9205(2) 0.86026(18)
H49 H 0.5493 0.9783 0.8468
C42 C 0.5403(3) 0.1747(2) 0.88067(17)
H50 H 0.5031 0.1997 0.8523
C43 C 0.6595(3) 0.2031(2) 0.88805(16)
C44 C 0.7193(3) 0.2657(2) 0.85268(17)
H51 H 0.6831 0.2905 0.8234
C45 C 0.8315(3) 0.2916(2) 0.86023(16)
C46 C 0.8843(3) 0.2546(2) 0.90297(17)
H52 H 0.9608 0.2719 0.9076
C47 C 0.8263(3) 0.1925(2) 0.93902(17)
C48 C 0.7137(3) 0.1677(2) 0.93111(17)
H53 H 0.6735 0.1258 0.9556
C49 C 0.7288(3) 0.6071(2) 0.78060(18)
H54 H 0.7380 0.5509 0.7666
C50 C 0.8927(3) 0.3587(2) 0.82264(16)
H55 H 0.8543 0.3831 0.7945
C51 C 0.8803(3) 0.1541(2) 0.98557(17)
C52 C 0.8250(3) 0.0693(3) 1.0043(2)
H56 H 0.7481 0.0295 0.9870
C53 C 0.9919(3) 0.1976(2) 1.01796(18)
H57 H 1.0429 0.2562 1.0129
C54 C 0.3312(3) 0.1059(3) 0.63513(19)
H58 H 0.3608 0.1416 0.6819
C55 C 0.4022(3) 0.1230(3) 0.58606(18)
C56 C 0.5023(3) 0.2044(3) 0.60427(18)
H59 H 0.5260 0.2470 0.6488
C57 C 0.5674(3) 0.2237(3) 0.55749(18)
C58 C 0.5334(3) 0.1603(3) 0.49283(18)
H60 H 0.5780 0.1737 0.4610
C59 C 0.4345(3) 0.0770(2) 0.47397(18)
C60 C 0.3695(3) 0.0596(2) 0.52114(18)
H61 H 0.3017 0.0037 0.5089
C61 C 0.6729(3) 0.3108(3) 0.57739(19)
H62 H 0.7008 0.3471 0.6241
C62 C 0.4000(3) 0.0093(3) 0.40510(19)
C63 C 0.4661(3) 0.0137(3) 0.3599(2)
H63 H 0.5406 0.0601 0.3702
C64 C 0.2958(4) -0.0686(3) 0.3777(2)
H64 H 0.2381 -0.0844 0.4009
S2 S 0.40331(14) -0.07065(11) 0.28434(7)
C65 C 0.2876(17) -0.1188(17) 0.3135(10)
H65 H 0.2239 -0.1749 0.2878
S3 S 1.0270(2) 0.13301(17) 1.06822(15)
C66 C 0.8921(12) 0.0498(14) 1.0495(11)
H66 H 0.8673 -0.0033 1.0684
C67 C 0.627(4) 0.778(3) 0.6589(16)
N7 N 0.634(3) 0.699(3) 0.5344(15)
H67 H 0.6582 0.7535 0.6935
H68 H 0.6696 0.8467 0.6691
H69 H 0.5500 0.7629 0.6601
C68 C 0.630(3) 0.732(3) 0.5893(15)
Cl1 Cl 0.16447(13) 0.10854(11) 0.42286(7)
Cl2 Cl 0.24839(11) 0.24995(8) 0.55367(7)
Cl3 Cl 0.01343(18) 0.12275(11) 0.50528(9)
C69 C 0.1480(5) 0.1344(4) 0.5072(3)
D1 D 0.1596 0.0876 0.5306
Cl4 Cl 0.79178(8) 0.19462(7) 0.41006(5)
Cl5 Cl 0.86647(8) 0.36940(7) 0.36716(5)
Cl6 Cl 0.64196(8) 0.22609(7) 0.31039(5)
C70 C 0.7537(3) 0.2801(2) 0.38371(18)
D2 D 0.7303 0.3102 0.4219
H70? H 0.7480 0.0293 0.9880
H71? H 1.0430 0.2542 1.0104
H72? H 0.5353 0.0654 0.3644
H73? H 0.2398 -0.0814 0.4023
S4? S 0.9114(3) 0.0481(4) 1.0587(3)
C71? C 1.0208(13) 0.1514(11) 1.0615(9)
H74? H 1.0929 0.1737 1.0899
S5? S 0.2756(12) -0.1360(13) 0.3016(7)
C72? C 0.4147(17) -0.0713(15) 0.3052(11)
H75? H 0.4521 -0.0905 0.2741
Cl7? Cl 0.6099(6) 0.4606(5) 0.9773(4)
Cl8? Cl 0.5978(5) 0.4220(4) 0.9645(4)
Cl9? Cl 0.7795(2) 0.40253(18) 1.02386(12)
Cl10? Cl 0.8162(2) 0.54646(15) 0.95006(13)
C73? C 0.7455(6) 0.4915(4) 1.0065(4)
D3? D 0.7711 0.5414 1.0510
Cl11? Cl 0.3272(6) 0.3521(5) 0.6355(4)
Cl12? Cl 0.3463(6) 0.5320(5) 0.6306(5)
C74? C 0.3729(9) 0.4389(9) 0.5912(9)
D4? D 0.3402 0.4149 0.5404
N8? N -0.031(2) 0.115(2) 0.5175(15)
C75? C 0.0475(16) 0.1227(14) 0.4967(10)
C76? C 0.1337(19) 0.1080(19) 0.4678(15)
H76? H 0.1082 0.0862 0.4175
H77? H 0.1495 0.0601 0.4855
H78? H 0.2009 0.1681 0.4811
Cl13? Cl 0.5128(3) 0.4678(2) 0.61446(19)
Cl14? Cl 0.97163(11) 0.94563(10) 0.76478(8)
Cl15? Cl 0.74000(14) 0.8927(2) 0.71198(9)
Cl16? Cl 0.84194(13) 0.98315(13) 0.85432(10)
C77? C 0.8400(4) 0.9039(3) 0.7816(2)
D5? D 0.8206 0.8403 0.7910
Cl17? Cl 0.897(3) 0.908(2) 0.7118(16)
Cl18? Cl 0.989(2) 1.062(2) 0.8438(15)
C78? C 0.875(3) 0.977(4) 0.780(3)
D6? D 0.8455 0.9282 0.8054
Cl19? Cl 0.770(3) 1.014(3) 0.771(2)
Cl20? Cl 0.5539(7) 0.6632(6) 0.6239(4)
Cl21? Cl 0.3358(8) 0.5295(7) 0.5780(5)
Cl22? Cl 0.5277(5) 0.6440(4) 0.5794(3)
Cl23? Cl 0.3260(3) 0.5192(2) 0.5999(3)
Cl24? Cl 0.5122(7) 0.4651(6) 0.6090(5)
C79? C 0.4695(9) 0.5595(7) 0.6277(5)
D7? D 0.4788 0.5702 0.6786
Cl25? Cl 0.7539(4) 0.5573(3) 0.9591(2)
Cl26? Cl 0.7155(9) 0.3970(4) 1.0162(4)
Cl27? Cl 0.9288(4) 0.5038(3) 0.99478(19)
C80? C 0.8109(16) 0.5068(10) 1.0162(7)
D8? D 0.8336 0.5494 1.0638
loop_
_geom_bond_atom_site_label_1
_geom_bond_atom_site_label_2
_geom_bond_site_symmetry_1
_geom_bond_site_symmetry_2
S1 C39 1_555 1_555
N1 C9 1_555 1_555
N2 C12 1_555 1_555
N3 C15 1_555 1_555
N4 C22 1_555 1_555
N5 C28 1_555 1_555
N6 C25 1_555 1_555
C1 C2 1_555 1_555
C2 C3 1_555 1_555
C3 C4 1_555 1_555
C4 C5 1_555 1_555
C5 C6 1_555 1_555
C6 C1 1_555 1_555
C7 C1 1_555 1_555
H1 C7 1_555 1_555
H2 C7 1_555 1_555
C8 C7 1_555 1_555
H3 C8 1_555 1_555
H4 C8 1_555 1_555
H5 C8 1_555 1_555
C9 C2 1_555 1_555
H6 C9 1_555 1_555
H7 C9 1_555 1_555
C10 C3 1_555 1_555
H8 C10 1_555 1_555
H9 C10 1_555 1_555
C11 C10 1_555 1_555
H10 C11 1_555 1_555
H11 C11 1_555 1_555
H12 C11 1_555 1_555
C12 C4 1_555 1_555
H13 C12 1_555 1_555
H14 C12 1_555 1_555
C13 C5 1_555 1_555
H15 C13 1_555 1_555
H16 C13 1_555 1_555
C14 C13 1_555 1_555
H17 C14 1_555 1_555
H18 C14 1_555 1_555
H19 C14 1_555 1_555
C15 C6 1_555 1_555
H20 C15 1_555 1_555
H21 C15 1_555 1_555
C16 C17 1_555 1_555
C17 C18 1_555 1_555
C18 C19 1_555 1_555
C19 C20 1_555 1_555
C20 C21 1_555 1_555
C21 C16 1_555 1_555
C22 C16 1_555 1_555
H22 C22 1_555 1_555
H23 C22 1_555 1_555
C23 C17 1_555 1_555
H24 C23 1_555 1_555
H25 C23 1_555 1_555
C24 C23 1_555 1_555
H26 C24 1_555 1_555
H27 C24 1_555 1_555
H28 C24 1_555 1_555
C25 C18 1_555 1_555
H29 C25 1_555 1_555
H30 C25 1_555 1_555
C26 C19 1_555 1_555
H31 C26 1_555 1_555
H32 C26 1_555 1_555
C27 C26 1_555 1_555
H33 C27 1_555 1_555
H34 C27 1_555 1_555
H35 C27 1_555 1_555
C28 C20 1_555 1_555
H36 C28 1_555 1_555
H37 C28 1_555 1_555
C29 C21 1_555 1_555
H38 C29 1_555 1_555
H39 C29 1_555 1_555
C30 C29 1_555 1_555
H40 C30 1_555 1_555
H41 C30 1_555 1_555
H42 C30 1_555 1_555
C31 N1 1_555 1_555
H43 C31 1_555 1_555
C32 C31 1_555 1_555
C33 C32 1_555 1_555
H44 C33 1_555 1_555
C34 C33 1_555 1_555
C35 C34 1_555 1_555
H45 C35 1_555 1_555
C36 C35 1_555 1_555
C37 C32 1_555 1_555
H46 C37 1_555 1_555
C38 C34 1_555 1_555
C39 C38 1_555 1_555
H47 C39 1_555 1_555
C40 C38 1_555 1_555
H48 C40 1_555 1_555
C41 S1 1_555 1_555
H49 C41 1_555 1_555
C42 N2 1_555 1_555
H50 C42 1_555 1_555
C43 C42 1_555 1_555
C44 C43 1_555 1_555
H51 C44 1_555 1_555
C45 C44 1_555 1_555
C46 C45 1_555 1_555
H52 C46 1_555 1_555
C47 C46 1_555 1_555
C48 C43 1_555 1_555
H53 C48 1_555 1_555
C49 N4 1_555 1_555
H54 C49 1_555 1_555
C50 N5 1_555 1_555
H55 C50 1_555 1_555
C51 C47 1_555 1_555
C52 C51 1_555 1_555
H56 C52 1_555 1_555
C53 C51 1_555 1_555
H57 C53 1_555 1_555
C54 N3 1_555 1_555
H58 C54 1_555 1_555
C55 C54 1_555 1_555
C56 C55 1_555 1_555
H59 C56 1_555 1_555
C57 C56 1_555 1_555
C58 C57 1_555 1_555
H60 C58 1_555 1_555
C59 C58 1_555 1_555
C60 C55 1_555 1_555
H61 C60 1_555 1_555
C61 N6 1_555 1_555
H62 C61 1_555 1_555
C62 C59 1_555 1_555
C63 C62 1_555 1_555
H63 C63 1_555 1_555
C64 C62 1_555 1_555
H64 C64 1_555 1_555
S2 C63 1_555 1_555
C65 C64 1_555 1_555
H65 C65 1_555 1_555
S3 C53 1_555 1_555
C66 C52 1_555 1_555
H66 C66 1_555 1_555
C67 H67 1_555 1_555
N7 C68 1_555 1_555
H68 C67 1_555 1_555
H69 C67 1_555 1_555
C68 C67 1_555 1_555
Cl1 C69 1_555 1_555
Cl2 C69 1_555 1_555
Cl3 C69 1_555 1_555
C69 D1 1_555 1_555
Cl4 C70 1_555 1_555
Cl5 C70 1_555 1_555
Cl6 C70 1_555 1_555
C70 D2 1_555 1_555
C36 C37 1_555 1_555
C36 C49 1_555 1_555
C40 C41 1_555 1_555
C45 C50 1_555 1_555
C47 C48 1_555 1_555
C57 C61 1_555 1_555
C59 C60 1_555 1_555
S2 C65 1_555 1_555
S3 C66 1_555 1_555

#END
