
#######################################################################
#
#                 Cambridge Crystallographic Data Centre
#                                CCDC 
#
#######################################################################
#
# If this CIF has been generated from an entry in the Cambridge 
# Structural Database, then it will include bibliographic, chemical, 
# crystal, experimental, refinement or atomic coordinate data resulting 
# from the CCDC's data processing and validation procedures.
#
#######################################################################

data_PIFKAT
_chemical_formula_moiety         
'C108 H108 N12 S12,7.12(C1 H2 Cl2),0.25(H2 O1),5.12(C2 H3 N1)'
_chemical_name_systematic        
'5,13,21,29,36,43(2,5)-hexakis(thieno[2,3-b]thiophene)-1,9,17,25(1,3,5)-tetrakis(2,4,6-triethylbenzena)-3,7,11,15,19,23,27,31,34,38,41,45-dodecaazatricyclo[15.15.7.7^9,25^]hexatetracontaphane-3,6,11,14,19,22,27,30,34,37,41,44-dodecaene acetonitrile dichloromethane solvate hydrate'
_symmetry_cell_setting           monoclinic
_symmetry_space_group_name_H-M   'P 21/n'
_symmetry_Int_Tables_number      14
_space_group_name_Hall           '-P 2yn'
loop_
_symmetry_equiv_pos_site_id
_symmetry_equiv_pos_as_xyz
1 x,y,z
2 1/2-x,1/2+y,1/2-z
3 -x,-y,-z
4 1/2+x,1/2-y,1/2+z
_cell_length_a                   18.776(9)
_cell_length_b                   31.091(14)
_cell_length_c                   26.235(11)
_cell_angle_alpha                90
_cell_angle_beta                 95.934(12)
_cell_angle_gamma                90
_cell_volume                     15233
_exptl_crystal_colour            yellow
_exptl_crystal_description       block
_cell_formula_units_Z            4
loop_
_atom_site_label
_atom_site_type_symbol
_atom_site_fract_x
_atom_site_fract_y
_atom_site_fract_z
O1 O 0.7778(13) 0.5453(8) 0.4846(9)
C109 C 0.3748(4) 0.5138(3) 0.3330(3)
H109 H 0.3619 0.5310 0.3016
H110 H 0.4010 0.4878 0.3238
Cl1 Cl 0.4278(2) 0.54477(10) 0.37997(10)
Cl2 Cl 0.3009(5) 0.5004(3) 0.3612(4)
C110 C 0.6634(3) 0.53309(19) -0.0240(2)
H111 H 0.6820 0.5270 0.0120
H112 H 0.6537 0.5643 -0.0271
Cl3 Cl 0.58324(10) 0.50473(6) -0.03897(6)
Cl4 Cl 0.72927(10) 0.51880(5) -0.06503(6)
C1 C 1.0748(3) 0.82634(18) 0.54256(18)
C2 C 1.0743(3) 0.78160(19) 0.54413(18)
C3 C 1.0211(3) 0.76089(18) 0.56918(19)
C4 C 0.9681(3) 0.78442(18) 0.59027(18)
C5 C 0.9682(3) 0.82993(18) 0.58700(18)
C6 C 1.0216(3) 0.85159(17) 0.56260(18)
C7 C 1.1361(3) 0.84956(19) 0.5201(2)
H1 H 1.1458 0.8765 0.5398
H2 H 1.1794 0.8313 0.5264
C8 C 1.1308(3) 0.7554(2) 0.5209(2)
H3 H 1.1089 0.7280 0.5077
H4 H 1.1462 0.7713 0.4913
C9 C 1.1965(4) 0.7449(2) 0.5573(3)
H5 H 1.2275 0.7252 0.5405
H6 H 1.1818 0.7313 0.5882
H7 H 1.2227 0.7715 0.5667
C10 C 1.0222(4) 0.71207(19) 0.5739(2)
H8 H 1.0724 0.7019 0.5755
H9 H 1.0033 0.7037 0.6064
C11 C 0.9100(3) 0.76186(19) 0.6175(2)
H10 H 0.8661 0.7797 0.6145
H11 H 0.8982 0.7338 0.6009
C12 C 0.9354(4) 0.7547(2) 0.6741(2)
H12 H 0.9771 0.7355 0.6771
H13 H 0.8967 0.7416 0.6912
H14 H 0.9487 0.7823 0.6903
C13 C 0.9089(3) 0.85510(19) 0.6078(2)
H15 H 0.8995 0.8432 0.6414
H16 H 0.9237 0.8855 0.6127
C14 C 1.0221(3) 0.89957(18) 0.5577(2)
H17 H 0.9721 0.9102 0.5542
H18 H 1.0436 0.9074 0.5261
C15 C 1.0641(3) 0.92202(18) 0.6037(2)
H19 H 1.0631 0.9532 0.5983
H20 H 1.1138 0.9119 0.6072
H21 H 1.0420 0.9152 0.6350
C16 C 0.2856(3) 0.8111(2) 0.3262(2)
C17 C 0.2603(4) 0.7955(2) 0.2789(3)
C18 C 0.2613(4) 0.8213(3) 0.2351(3)
C19 C 0.2856(4) 0.8641(3) 0.2401(2)
C20 C 0.3091(3) 0.8814(2) 0.2880(2)
C21 C 0.3096(3) 0.8544(2) 0.3318(2)
C22 C 0.2944(3) 0.7819(2) 0.3722(2)
H22 H 0.3361 0.7916 0.3956
H23 H 0.3046 0.7523 0.3608
C23 C 0.2274(4) 0.7808(2) 0.4022(3)
H24 H 0.1862 0.7701 0.3797
H25 H 0.2173 0.8098 0.4140
H26 H 0.2364 0.7616 0.4319
C24 C 0.2292(4) 0.7503(2) 0.2744(3)
H27 H 0.2114 0.7420 0.3072
H28 H 0.1882 0.7497 0.2474
C25 C 0.2439(5) 0.8002(3) 0.1786(3)
H29 H 0.2710 0.8151 0.1534
H30 H 0.2566 0.7693 0.1792
C26 C 0.1671(5) 0.8060(4) 0.1660(4)
H31 H 0.1540 0.7981 0.1301
H32 H 0.1546 0.8362 0.1711
H33 H 0.1412 0.7877 0.1882
C27 C 0.2830(4) 0.8948(3) 0.1938(3)
H34 H 0.2451 0.8845 0.1675
H35 H 0.2683 0.9236 0.2051
C28 C 0.3373(3) 0.9271(2) 0.2929(2)
H36 H 0.3597 0.9345 0.2615
H37 H 0.3751 0.9285 0.3221
C29 C 0.2785(4) 0.9611(2) 0.3011(3)
H38 H 0.2437 0.9622 0.2707
H39 H 0.3009 0.9894 0.3069
H40 H 0.2542 0.9531 0.3310
C30 C 0.3335(3) 0.8726(2) 0.3841(2)
H41 H 0.3233 0.9039 0.3841
H42 H 0.3057 0.8589 0.4097
C31 C 0.6937(5) 0.4416(2) 0.2355(3)
C32 C 0.7645(6) 0.4442(2) 0.2337(3)
C33 C 0.7921(5) 0.4473(2) 0.1901(3)
C34 C 0.7475(4) 0.44818(19) 0.1434(2)
C35 C 0.6735(4) 0.44600(18) 0.1415(2)
C36 C 0.6437(4) 0.4424(2) 0.1886(3)
C37 C 0.6577(7) 0.4384(3) 0.2871(3)
H43 H 0.6085 0.4502 0.2822
H44 H 0.6857 0.4552 0.3143
C38 C 0.6553(6) 0.3891(3) 0.3034(4)
H45 H 0.6099 0.3763 0.2890
H46 H 0.6592 0.3869 0.3409
H47 H 0.6952 0.3736 0.2905
C39 C 0.8123(6) 0.4402(2) 0.2857(3)
H48 H 0.7897 0.4201 0.3086
H49 H 0.8597 0.4284 0.2798
C40 C 0.8725(5) 0.4514(3) 0.1922(3)
H50 H 0.8904 0.4674 0.2236
H51 H 0.8846 0.4684 0.1624
C41 C 0.9121(5) 0.4065(3) 0.1922(4)
H52 H 0.9040 0.3936 0.1580
H53 H 0.8932 0.3873 0.2172
H54 H 0.9635 0.4107 0.2013
C42 C 0.7833(4) 0.4518(2) 0.0950(2)
H55 H 0.8317 0.4389 0.1003
H56 H 0.7552 0.4357 0.0672
C43 C 0.6271(4) 0.4464(2) 0.0904(2)
H57 H 0.6518 0.4629 0.0651
H58 H 0.5813 0.4612 0.0946
C44 C 0.6114(4) 0.4012(2) 0.0699(2)
H59 H 0.5805 0.4028 0.0375
H60 H 0.5872 0.3847 0.0949
H61 H 0.6565 0.3869 0.0642
C45 C 0.5655(4) 0.4397(2) 0.1896(3)
H62 H 0.5409 0.4363 0.1546
H63 H 0.5524 0.4154 0.2111
C46 C 0.8766(5) 0.8611(2) -0.0207(2)
C47 C 0.9426(5) 0.8404(2) -0.0096(2)
C48 C 0.9980(4) 0.8600(2) 0.0236(2)
C49 C 0.9820(5) 0.9013(2) 0.0451(2)
C50 C 0.9182(5) 0.9212(2) 0.0341(2)
C51 C 0.8645(4) 0.9012(2) 0.0001(2)
C52 C 0.8171(4) 0.8387(2) -0.0558(2)
H64 H 0.7698 0.8481 -0.0463
H65 H 0.8207 0.8072 -0.0508
C53 C 0.8227(5) 0.8496(3) -0.1140(2)
H66 H 0.7839 0.8351 -0.1353
H67 H 0.8690 0.8396 -0.1237
H68 H 0.8187 0.8807 -0.1191
C54 C 0.9584(5) 0.7973(2) -0.0344(3)
H69 H 0.9424 0.7985 -0.0715
H70 H 1.0107 0.7921 -0.0303
C55 C 1.0689(5) 0.8389(3) 0.0352(3)
H71 H 1.0621 0.8074 0.0360
H72 H 1.0900 0.8481 0.0697
C56 C 1.1214(6) 0.8502(4) -0.0048(4)
H73 H 1.1001 0.8419 -0.0390
H74 H 1.1664 0.8346 0.0035
H75 H 1.1308 0.8812 -0.0040
C57 C 1.0434(4) 0.9250(2) 0.0769(2)
H76 H 1.0878 0.9196 0.0606
H77 H 1.0334 0.9562 0.0739
C58 C 0.9010(5) 0.9633(2) 0.0590(3)
H78 H 0.8494 0.9634 0.0638
H79 H 0.9280 0.9643 0.0934
C59 C 0.9173(6) 1.0036(3) 0.0307(3)
H80 H 0.8856 1.0054 -0.0014
H81 H 0.9673 1.0030 0.0229
H82 H 0.9096 1.0288 0.0520
C60 C 0.7992(5) 0.9259(3) -0.0168(3)
H83 H 0.8130 0.9566 -0.0174
H84 H 0.7840 0.9175 -0.0527
C61 C 0.8502(4) 0.5111(2) 0.0790(3)
H85 H 0.8899 0.4925 0.0873
C62 C 0.8644(4) 0.5565(2) 0.0655(3)
C63 C 0.9298(4) 0.5759(2) 0.0661(3)
H86 H 0.9742 0.5619 0.0754
C64 C 0.9228(4) 0.6207(2) 0.0504(3)
C65 C 0.8523(3) 0.6319(2) 0.0409(2)
C66 C 0.9694(4) 0.6544(2) 0.0406(3)
H87 H 1.0201 0.6525 0.0454
C67 C 0.9326(4) 0.6903(2) 0.0234(2)
C68 C 0.9623(4) 0.7313(2) 0.0042(2)
H88 H 1.0126 0.7341 0.0036
C69 C 0.7347(4) 0.8979(2) 0.0501(3)
H89 H 0.7741 0.8799 0.0614
C70 C 0.6703(4) 0.8979(2) 0.0759(3)
C71 C 0.6529(4) 0.8724(2) 0.1149(2)
H90 H 0.6830 0.8507 0.1310
C72 C 0.5826(4) 0.8826(2) 0.1283(2)
C73 C 0.5498(4) 0.9146(2) 0.0975(2)
C74 C 0.5350(4) 0.8674(2) 0.1638(2)
H91 H 0.5475 0.8459 0.1888
C75 C 0.4712(5) 0.8868(2) 0.1577(2)
C76 C 0.4082(4) 0.8790(3) 0.1848(3)
H92 H 0.4095 0.8595 0.2127
C77 C 0.8052(3) 0.8856(2) 0.5658(2)
H93 H 0.8205 0.9113 0.5832
C78 C 0.7371(3) 0.88546(19) 0.5322(2)
C79 C 0.6853(3) 0.91531(19) 0.5282(2)
H94 H 0.6883 0.9419 0.5462
C80 C 0.6243(3) 0.90240(19) 0.4934(2)
C81 C 0.6356(3) 0.8620(2) 0.4735(2)
C82 C 0.5560(3) 0.9194(2) 0.4743(2)
H95 H 0.5391 0.9469 0.4834
C83 C 0.5178(3) 0.89198(19) 0.4417(2)
C84 C 0.4435(3) 0.8956(2) 0.4216(2)
H96 H 0.4196 0.9221 0.4259
C85 C 1.0157(2) 0.66706(11) 0.50562(9)
H97 H 1.0665 0.6684 0.5108
C86 C 0.8878(5) 0.4981(2) 0.3194(2)
H98 H 0.9263 0.4850 0.3043
C87 C 0.98095(16) 0.63618(9) 0.46675(7)
C88 C 1.0020(7) 0.5989(2) 0.4464(3)
H99 H 1.0483 0.5880 0.4575
C89 C 0.9570(8) 0.5749(4) 0.4087(3)
C90 C 0.8979(8) 0.6008(4) 0.4040(3)
C91 C 0.9619(9) 0.5351(4) 0.3796(4)
H100 H 1.0012 0.5157 0.3810
C92 C 0.8979(7) 0.5317(4) 0.3499(4)
C93 C 1.0794(3) 0.84191(17) 0.4342(2)
H101 H 1.0476 0.8218 0.4471
C94 C 1.0743(3) 0.85146(17) 0.3801(2)
C95 C 1.0322(3) 0.83386(19) 0.3408(2)
H102 H 0.9985 0.8117 0.3451
C96 C 1.0430(3) 0.85180(17) 0.2921(2)
C97 C 1.0964(3) 0.88263(18) 0.29767(19)
C98 C 1.0144(4) 0.84781(19) 0.2395(2)
H103 H 0.9799 0.8268 0.2276
C99 C 1.0415(3) 0.87701(18) 0.2086(2)
C100 C 1.0249(4) 0.8851(2) 0.1533(2)
H104 H 0.9897 0.8685 0.1335
C101 C 0.4908(6) 0.4905(4) 0.1852(5)
H105 H 0.4747 0.4751 0.1550
C102 C 0.4469(7) 0.5279(4) 0.2009(7)
C103 C 0.3804(7) 0.5414(5) 0.1837(7)
H106 H 0.3491 0.5267 0.1588
C104 C 0.3633(7) 0.5811(5) 0.2082(7)
C105 C 0.4206(7) 0.5972(4) 0.2382(6)
C106 C 0.3037(7) 0.6106(5) 0.2046(6)
H107 H 0.2606 0.6064 0.1829
C107 C 0.3168(7) 0.6454(5) 0.2363(7)
C108 C 0.2699(8) 0.6839(5) 0.2371(7)
H108 H 0.2243 0.6824 0.2178
N1 N 0.8426(2) 0.85278(16) 0.57175(16)
N2 N 0.9800(3) 0.69097(16) 0.53122(18)
N3 N 1.1276(2) 0.86093(14) 0.46489(16)
N4 N 0.4095(3) 0.86582(17) 0.39895(18)
N5 N 0.3505(4) 0.8999(2) 0.1689(2)
N6 N 0.2852(11) 0.7185(9) 0.2613(18)
N7 N 0.8213(4) 0.4836(2) 0.3108(2)
N8 N 0.5483(7) 0.4791(4) 0.2109(5)
N9 N 0.7890(3) 0.49642(17) 0.07991(17)
N10 N 0.7366(4) 0.9229(2) 0.0113(2)
N11 N 0.9222(3) 0.76175(19) -0.01122(19)
N12 N 1.0589(3) 0.91491(17) 0.13282(18)
S1 S 0.46455(13) 0.92558(7) 0.10962(8)
S2 S 0.60382(13) 0.93351(7) 0.05359(8)
S3 S 0.56388(9) 0.84440(5) 0.43170(6)
S4 S 0.71629(9) 0.83949(5) 0.49501(6)
S5 S 1.13249(8) 0.89014(5) 0.35928(5)
S6 S 1.10811(9) 0.90891(5) 0.24077(6)
S7 S 0.84144(10) 0.68436(6) 0.02004(7)
S8 S 0.79426(9) 0.59098(6) 0.05071(7)
S9 S 0.4934(4) 0.5635(3) 0.2432(3)
S10 S 0.4038(5) 0.6463(3) 0.2655(4)
S11 S 0.9106(6) 0.6439(4) 0.4307(4)
S12 S 0.8410(5) 0.5751(3) 0.3598(3)
H113? H 0.2020 0.7450 0.3041
H114? H 0.1949 0.7488 0.2431
H115? H 0.5554 0.4184 0.2159
H116? H 0.5443 0.4286 0.1560
H117? H 1.0665 0.6687 0.5086
C111? C 0.9751(5) 0.6349(2) 0.4691(2)
C112? C 1.0169(8) 0.6081(3) 0.4426(3)
H118? H 1.0676 0.6066 0.4439
C113? C 0.9632(9) 0.5829(3) 0.4124(4)
C114? C 0.8896(9) 0.5906(3) 0.4171(3)
C115? C 0.9653(7) 0.5480(4) 0.3752(4)
H119? H 1.0080 0.5362 0.3645
C116? C 0.8978(7) 0.5347(3) 0.3580(3)
H120? H 0.9262 0.4867 0.3027
C117? C 0.9053(2) 0.67263(19) 0.5344(5)
H121? H 0.8751 0.6807 0.5596
C118? C 0.88499(16) 0.63988(14) 0.4924(4)
C119? C 0.8449(4) 0.6038(3) 0.4973(8)
H122? H 0.8255 0.5955 0.5279
C120? C 0.8359(6) 0.5798(5) 0.4493(7)
C121? C 0.8682(6) 0.5973(5) 0.4098(7)
C122? C 0.7993(7) 0.5400(5) 0.4326(7)
H123? H 0.7737 0.5230 0.4547
C123? C 0.8050(6) 0.5291(4) 0.3825(7)
C124? C 0.7800(7) 0.4932(6) 0.3447(6)
H124? H 0.7357 0.4788 0.3465
C125? C 0.4651(6) 0.4917(4) 0.1827(5)
H125? H 0.4407 0.4717 0.1596
C126? C 0.4240(8) 0.5332(5) 0.1946(8)
C127? C 0.3540(8) 0.5454(5) 0.1844(7)
H126? H 0.3187 0.5278 0.1662
C128? C 0.3389(9) 0.5874(5) 0.2037(7)
C129? C 0.3961(7) 0.6039(4) 0.2334(7)
C130? C 0.2768(9) 0.6144(5) 0.2030(9)
H127? H 0.2298 0.6074 0.1886
C131? C 0.2971(8) 0.6515(5) 0.2264(8)
C132? C 0.2502(10) 0.6863(6) 0.2448(10)
H128? H 0.1997 0.6867 0.2365
N13? N 0.2833(7) 0.7151(5) 0.2720(10)
N14? N 0.5275(7) 0.4821(4) 0.2006(5)
S13? S 0.4695(5) 0.5723(3) 0.2339(4)
S14? S 0.3810(6) 0.6540(3) 0.2591(4)
S15? S 0.8561(7) 0.5679(4) 0.3541(5)
S16? S 0.8242(4) 0.55980(18) 0.3812(2)
S17? S 0.8812(3) 0.63271(18) 0.4614(2)
H129? H 0.3787 0.4832 0.3433
H130? H 0.3959 0.5166 0.3001
Cl5? Cl 0.2818(5) 0.5271(4) 0.3218(5)
S18? S 0.8958(4) 0.6468(3) 0.4392(3)
loop_
_geom_bond_atom_site_label_1
_geom_bond_atom_site_label_2
_geom_bond_site_symmetry_1
_geom_bond_site_symmetry_2
C1 C2 1_555 1_555
C2 C3 1_555 1_555
C3 C4 1_555 1_555
C4 C5 1_555 1_555
C5 C6 1_555 1_555
C6 C1 1_555 1_555
C7 C1 1_555 1_555
H1 C7 1_555 1_555
H2 C7 1_555 1_555
C8 C2 1_555 1_555
H3 C8 1_555 1_555
H4 C8 1_555 1_555
C9 C8 1_555 1_555
H5 C9 1_555 1_555
H6 C9 1_555 1_555
H7 C9 1_555 1_555
C10 C3 1_555 1_555
H8 C10 1_555 1_555
H9 C10 1_555 1_555
C11 C4 1_555 1_555
H10 C11 1_555 1_555
H11 C11 1_555 1_555
C12 C11 1_555 1_555
H12 C12 1_555 1_555
H13 C12 1_555 1_555
H14 C12 1_555 1_555
C13 C5 1_555 1_555
H15 C13 1_555 1_555
H16 C13 1_555 1_555
C14 C6 1_555 1_555
H17 C14 1_555 1_555
H18 C14 1_555 1_555
C15 C14 1_555 1_555
H19 C15 1_555 1_555
H20 C15 1_555 1_555
H21 C15 1_555 1_555
C16 C17 1_555 1_555
C17 C18 1_555 1_555
C18 C19 1_555 1_555
C19 C20 1_555 1_555
C20 C21 1_555 1_555
C21 C16 1_555 1_555
C22 C16 1_555 1_555
H22 C22 1_555 1_555
H23 C22 1_555 1_555
C23 C22 1_555 1_555
H24 C23 1_555 1_555
H25 C23 1_555 1_555
H26 C23 1_555 1_555
C24 C17 1_555 1_555
H27 C24 1_555 1_555
H28 C24 1_555 1_555
C25 C18 1_555 1_555
H29 C25 1_555 1_555
H30 C25 1_555 1_555
C26 C25 1_555 1_555
H31 C26 1_555 1_555
H32 C26 1_555 1_555
H33 C26 1_555 1_555
C27 C19 1_555 1_555
H34 C27 1_555 1_555
H35 C27 1_555 1_555
C28 C20 1_555 1_555
H36 C28 1_555 1_555
H37 C28 1_555 1_555
C29 C28 1_555 1_555
H38 C29 1_555 1_555
H39 C29 1_555 1_555
H40 C29 1_555 1_555
C30 C21 1_555 1_555
H41 C30 1_555 1_555
H42 C30 1_555 1_555
C31 C32 1_555 1_555
C32 C33 1_555 1_555
C33 C34 1_555 1_555
C34 C35 1_555 1_555
C35 C36 1_555 1_555
C36 C31 1_555 1_555
C37 C31 1_555 1_555
H43 C37 1_555 1_555
H44 C37 1_555 1_555
C38 C37 1_555 1_555
H45 C38 1_555 1_555
H46 C38 1_555 1_555
H47 C38 1_555 1_555
C39 C32 1_555 1_555
H48 C39 1_555 1_555
H49 C39 1_555 1_555
C40 C33 1_555 1_555
H50 C40 1_555 1_555
H51 C40 1_555 1_555
C41 C40 1_555 1_555
H52 C41 1_555 1_555
H53 C41 1_555 1_555
H54 C41 1_555 1_555
C42 C34 1_555 1_555
H55 C42 1_555 1_555
H56 C42 1_555 1_555
C43 C35 1_555 1_555
H57 C43 1_555 1_555
H58 C43 1_555 1_555
C44 C43 1_555 1_555
H59 C44 1_555 1_555
H60 C44 1_555 1_555
H61 C44 1_555 1_555
C45 C36 1_555 1_555
H62 C45 1_555 1_555
H63 C45 1_555 1_555
C46 C47 1_555 1_555
C47 C48 1_555 1_555
C48 C49 1_555 1_555
C49 C50 1_555 1_555
C50 C51 1_555 1_555
C51 C46 1_555 1_555
C52 C46 1_555 1_555
H64 C52 1_555 1_555
H65 C52 1_555 1_555
C53 C52 1_555 1_555
H66 C53 1_555 1_555
H67 C53 1_555 1_555
H68 C53 1_555 1_555
C54 C47 1_555 1_555
H69 C54 1_555 1_555
H70 C54 1_555 1_555
C55 C48 1_555 1_555
H71 C55 1_555 1_555
H72 C55 1_555 1_555
C56 C55 1_555 1_555
H73 C56 1_555 1_555
H74 C56 1_555 1_555
H75 C56 1_555 1_555
C57 C49 1_555 1_555
H76 C57 1_555 1_555
H77 C57 1_555 1_555
C58 C50 1_555 1_555
H78 C58 1_555 1_555
H79 C58 1_555 1_555
C59 C58 1_555 1_555
H80 C59 1_555 1_555
H81 C59 1_555 1_555
H82 C59 1_555 1_555
C60 C51 1_555 1_555
H83 C60 1_555 1_555
H84 C60 1_555 1_555
C61 H85 1_555 1_555
C62 C61 1_555 1_555
C63 C62 1_555 1_555
H86 C63 1_555 1_555
C64 C63 1_555 1_555
C65 C64 1_555 1_555
C66 C64 1_555 1_555
H87 C66 1_555 1_555
C67 C66 1_555 1_555
C68 C67 1_555 1_555
H88 C68 1_555 1_555
C69 H89 1_555 1_555
C70 C69 1_555 1_555
C71 C70 1_555 1_555
H90 C71 1_555 1_555
C72 C71 1_555 1_555
C73 C72 1_555 1_555
C74 C72 1_555 1_555
H91 C74 1_555 1_555
C75 C74 1_555 1_555
C76 C75 1_555 1_555
H92 C76 1_555 1_555
C77 H93 1_555 1_555
C78 C77 1_555 1_555
C79 C78 1_555 1_555
H94 C79 1_555 1_555
C80 C79 1_555 1_555
C81 C80 1_555 1_555
C82 C80 1_555 1_555
H95 C82 1_555 1_555
C83 C82 1_555 1_555
C84 C83 1_555 1_555
H96 C84 1_555 1_555
C85 H97 1_555 1_555
C86 H98 1_555 1_555
C87 C85 1_555 1_555
C88 C87 1_555 1_555
H99 C88 1_555 1_555
C89 C88 1_555 1_555
C90 C89 1_555 1_555
C91 C89 1_555 1_555
H100 C91 1_555 1_555
C92 C86 1_555 1_555
C93 H101 1_555 1_555
C94 C93 1_555 1_555
C95 C94 1_555 1_555
H102 C95 1_555 1_555
C96 C95 1_555 1_555
C97 C96 1_555 1_555
C98 C96 1_555 1_555
H103 C98 1_555 1_555
C99 C98 1_555 1_555
C100 C99 1_555 1_555
H104 C100 1_555 1_555
C101 H105 1_555 1_555
C102 C101 1_555 1_555
C103 C102 1_555 1_555
H106 C103 1_555 1_555
C104 C103 1_555 1_555
C105 C104 1_555 1_555
C106 C104 1_555 1_555
H107 C106 1_555 1_555
C107 C106 1_555 1_555
C108 C107 1_555 1_555
H108 C108 1_555 1_555
N1 C13 1_555 1_555
N2 C10 1_555 1_555
N3 C7 1_555 1_555
N4 C30 1_555 1_555
N5 C27 1_555 1_555
N6 C24 1_555 1_555
N7 C39 1_555 1_555
N8 C45 1_555 1_555
N9 C42 1_555 1_555
N10 C60 1_555 1_555
N11 C54 1_555 1_555
N12 C57 1_555 1_555
S1 C73 1_555 1_555
S2 C70 1_555 1_555
S3 C81 1_555 1_555
S4 C78 1_555 1_555
S5 C94 1_555 1_555
S6 C97 1_555 1_555
S7 C65 1_555 1_555
S8 C62 1_555 1_555
S9 C102 1_555 1_555
S10 C105 1_555 1_555
S11 C87 1_555 1_555
S12 C90 1_555 1_555
C109 H109 1_555 1_555
H110 C109 1_555 1_555
Cl1 C109 1_555 1_555
Cl2 C109 1_555 1_555
C110 H111 1_555 1_555
H112 C110 1_555 1_555
Cl3 C110 1_555 1_555
Cl4 C110 1_555 1_555
C61 N9 1_555 1_555
C65 S8 1_555 1_555
C67 S7 1_555 1_555
C68 N11 1_555 1_555
C69 N10 1_555 1_555
C73 S2 1_555 1_555
C75 S1 1_555 1_555
C76 N5 1_555 1_555
C77 N1 1_555 1_555
C81 S4 1_555 1_555
C83 S3 1_555 1_555
C84 N4 1_555 1_555
C85 N2 1_555 1_555
C86 N7 1_555 1_555
C90 S11 1_555 1_555
C91 C92 1_555 1_555
C92 S12 1_555 1_555
C93 N3 1_555 1_555
C97 S5 1_555 1_555
C99 S6 1_555 1_555
C100 N12 1_555 1_555
C101 N8 1_555 1_555
C105 S9 1_555 1_555
C107 S10 1_555 1_555
C108 N6 1_555 1_555

#END
