
#######################################################################
#
#                 Cambridge Crystallographic Data Centre
#                                CCDC 
#
#######################################################################
#
# If this CIF has been generated from an entry in the Cambridge 
# Structural Database, then it will include bibliographic, chemical, 
# crystal, experimental, refinement or atomic coordinate data resulting 
# from the CCDC's data processing and validation procedures.
#
#######################################################################

data_PIFTUW
_chemical_formula_moiety         'C96 H96 N12,4.5(C1 H2 Cl2),4.5(C6 H14)'
_chemical_name_systematic        
'2,15,17,30,32,45,47,60,73,76,89,92-dodecamethyl-5,12,20,27,35,42,50,57,62,69,78,85-dodecaazatridecacyclo[29.29.10.10^16,46^.2^7,10^.2^22,25^.2^37,40^.2^52,55^.2^64,67^.2^80,83^.1^3,59^.1^14,18^.1^29,33^.1^44,48^]hexanonaconta-1,3(73),5,7,9,11,14(92),15,17,20,22,24,26,29(89),30,32,35,37,39,41,44(76),45,47,50,52,54,56,59,62,64,66,68,71,74,78,80,82,84,87,90,93,95-dotetracontaene dichloromethane hexane solvate'
_symmetry_cell_setting           tetragonal
_symmetry_space_group_name_H-M   'P 41'
_symmetry_Int_Tables_number      76
_space_group_name_Hall           'P 4w'
loop_
_symmetry_equiv_pos_site_id
_symmetry_equiv_pos_as_xyz
1 x,y,z
2 -y,x,1/4+z
3 -x,-y,1/2+z
4 y,-x,3/4+z
_cell_length_a                   18.4998(8)
_cell_length_b                   18.4998(8)
_cell_length_c                   37.5158(18)
_cell_angle_alpha                90
_cell_angle_beta                 90
_cell_angle_gamma                90
_cell_volume                     12839.5
_exptl_crystal_colour            colorless
_exptl_crystal_description       block
_cell_formula_units_Z            4
_exptl_crystal_recrystallization_method dichloromethane/hexane
loop_
_atom_site_label
_atom_site_type_symbol
_atom_site_fract_x
_atom_site_fract_y
_atom_site_fract_z
N1 N 0.35923(19) 0.6184(2) 0.34698(10)
N2 N 0.56299(17) 0.34537(16) 0.34868(7)
N3 N 0.29678(16) 0.3739(2) 0.24112(9)
N4 N -0.23601(17) 0.2718(2) 0.37601(8)
N5 N -0.03436(16) 0.18307(18) 0.25648(8)
N6 N -0.10708(16) -0.04494(18) 0.38067(7)
N7 N 0.17957(18) -0.09786(15) 0.50456(8)
N8 N 0.4873(4) 0.0917(3) 0.49071(14)
N9 N 0.24383(19) 0.16800(16) 0.60629(8)
N10 N -0.1932(2) 0.6000(2) 0.48357(11)
N11 N 0.0366(2) 0.49323(17) 0.60871(9)
N12 N 0.1231(3) 0.7065(2) 0.48871(12)
C1 C 0.38553(18) 0.5088(2) 0.27714(9)
C2 C 0.40486(18) 0.4408(2) 0.26352(9)
C3 C 0.46235(19) 0.4026(2) 0.27856(9)
C4 C 0.50411(17) 0.4332(2) 0.30573(8)
C5 C 0.48540(17) 0.5016(2) 0.31946(9)
C6 C 0.42701(18) 0.5400(2) 0.30423(9)
C7 C 0.3191(2) 0.5462(3) 0.26265(11)
H1 H 0.3308 0.5692 0.2399
H2 H 0.3028 0.5829 0.2797
H3 H 0.2806 0.5105 0.2590
C8 C 0.3652(2) 0.4107(2) 0.23084(10)
H4 H 0.3542 0.4508 0.2142
H5 H 0.3970 0.3760 0.2183
C9 C 0.4804(2) 0.3273(2) 0.26546(11)
H6 H 0.5179 0.3303 0.2471
H7 H 0.4370 0.3049 0.2554
H8 H 0.4980 0.2981 0.2854
C10 C 0.57059(19) 0.3961(2) 0.31929(9)
H9 H 0.5927 0.3698 0.2991
H10 H 0.6054 0.4339 0.3267
C11 C 0.5291(2) 0.5320(2) 0.35027(10)
H11 H 0.4998 0.5673 0.3633
H12 H 0.5726 0.5556 0.3410
H13 H 0.5430 0.4926 0.3664
C12 C 0.4129(2) 0.6154(2) 0.31561(12)
H14 H 0.3930 0.6431 0.2953
H15 H 0.4590 0.6384 0.3228
C13 C 0.0294(3) 0.68337(19) 0.53457(13)
C14 C 0.0413(3) 0.64228(19) 0.56487(12)
C15 C -0.0151(3) 0.59921(19) 0.57843(10)
C16 C -0.0816(3) 0.59425(19) 0.56052(11)
C17 C -0.0923(3) 0.6381(2) 0.52973(11)
C18 C -0.0354(3) 0.68077(19) 0.51635(11)
C19 C 0.0867(3) 0.7348(2) 0.52039(14)
H16 H 0.0638 0.7816 0.5145
H17 H 0.1231 0.7437 0.5392
C20 C 0.1154(3) 0.6408(2) 0.58272(15)
H18 H 0.1207 0.5959 0.5963
H19 H 0.1198 0.6822 0.5989
H20 H 0.1532 0.6435 0.5645
C21 C -0.0079(3) 0.5597(2) 0.61323(11)
H21 H 0.0149 0.5917 0.6311
H22 H -0.0565 0.5463 0.6221
C22 C -0.1433(3) 0.5479(3) 0.57238(13)
H23 H -0.1735 0.5750 0.5892
H24 H -0.1245 0.5045 0.5841
H25 H -0.1723 0.5339 0.5516
C23 C -0.1655(3) 0.6479(3) 0.51300(13)
H26 H -0.1673 0.6980 0.5038
H27 H -0.2013 0.6451 0.5326
C24 C -0.0464(3) 0.7219(2) 0.48167(13)
H28 H -0.0512 0.7736 0.4868
H29 H -0.0903 0.7045 0.4699
H30 H -0.0047 0.7141 0.4660
C25 C 0.3058(2) 0.06302(19) 0.58051(10)
C26 C 0.3681(3) 0.0778(2) 0.56283(11)
C27 C 0.3893(3) 0.0345(2) 0.53473(11)
C28 C 0.3453(3) -0.0223(2) 0.52355(11)
C29 C 0.2806(2) -0.03837(18) 0.54177(9)
C30 C 0.2585(2) 0.00465(19) 0.57047(9)
C31 C 0.2867(3) 0.10571(19) 0.61434(10)
H31 H 0.2598 0.0740 0.6309
H32 H 0.3318 0.1211 0.6264
C32 C 0.4131(3) 0.1432(3) 0.57319(13)
H33 H 0.4479 0.1294 0.5917
H34 H 0.3813 0.1813 0.5824
H35 H 0.4391 0.1611 0.5522
C33 C 0.4627(3) 0.0437(3) 0.51850(15)
H36 H 0.4950 0.0538 0.5390
H37 H 0.4761 -0.0052 0.5101
C34 C 0.3678(3) -0.0694(3) 0.49181(13)
H38 H 0.3312 -0.0658 0.4730
H39 H 0.3721 -0.1198 0.4995
H40 H 0.4144 -0.0527 0.4826
C35 C 0.2362(2) -0.10577(19) 0.53187(11)
H41 H 0.2703 -0.1435 0.5236
H42 H 0.2130 -0.1240 0.5539
C36 C 0.1881(2) -0.0099(2) 0.58827(11)
H43 H 0.1965 -0.0354 0.6108
H44 H 0.1578 -0.0397 0.5727
H45 H 0.1634 0.0360 0.5931
C37 C -0.16854(19) 0.0463(2) 0.33842(9)
C38 C -0.12802(18) 0.0592(2) 0.30740(9)
C39 C -0.13698(18) 0.1278(2) 0.28983(9)
C40 C -0.18051(18) 0.1816(2) 0.30498(10)
C41 C -0.21823(18) 0.1648(3) 0.33688(10)
C42 C -0.21139(18) 0.1001(3) 0.35304(9)
C43 C -0.1635(2) -0.0303(2) 0.35423(10)
H46 H -0.2107 -0.0417 0.3653
H47 H -0.1566 -0.0645 0.3342
C44 C -0.0761(2) 0.0046(2) 0.29254(10)
H48 H -0.0407 0.0292 0.2774
H49 H -0.1027 -0.0311 0.2784
H50 H -0.0511 -0.0198 0.3122
C45 C -0.10106(19) 0.1395(2) 0.25448(10)
H51 H -0.0892 0.0918 0.2440
H52 H -0.1356 0.1638 0.2383
C46 C -0.1837(2) 0.2546(3) 0.28795(13)
H53 H -0.2247 0.2566 0.2715
H54 H -0.1388 0.2635 0.2748
H55 H -0.1897 0.2916 0.3064
C47 C -0.2711(2) 0.2207(3) 0.35147(11)
H56 H -0.2926 0.2479 0.3314
H57 H -0.3108 0.1956 0.3641
C48 C -0.2504(2) 0.0859(3) 0.38815(10)
H58 H -0.3011 0.0741 0.3834
H59 H -0.2478 0.1292 0.4032
H60 H -0.2273 0.0453 0.4005
C49 C 0.0172(3) 0.4367(2) 0.62465(11)
H61 H -0.0264 0.4372 0.6381
C50 C 0.0593(2) 0.37099(18) 0.62309(9)
C51 C 0.0393(3) 0.3115(2) 0.64469(12)
H62 H -0.0030 0.3140 0.6589
C52 C 0.0814(3) 0.2498(2) 0.64506(11)
H63 H 0.0680 0.2108 0.6601
C53 C 0.1438(2) 0.24333(19) 0.62370(10)
C54 C 0.1613(3) 0.3037(2) 0.60275(10)
H64 H 0.2032 0.3017 0.5882
C55 C 0.1210(2) 0.3640(2) 0.60257(10)
H65 H 0.1354 0.4032 0.5879
C56 C 0.1882(2) 0.17865(19) 0.62576(10)
H66 H 0.1751 0.1424 0.6425
C57 C 0.16558(19) -0.03849(19) 0.49136(9)
H67 H 0.1934 0.0022 0.4984
C58 C 0.10709(19) -0.02831(18) 0.46501(8)
C59 C 0.0677(2) -0.08837(19) 0.45269(7)
H68 H 0.0797 -0.1358 0.4604
C60 C 0.0104(2) -0.07688(19) 0.42870(8)
H69 H -0.0170 -0.1171 0.4206
C61 C -0.00701(18) -0.00855(19) 0.41662(9)
C62 C 0.0350(2) 0.0501(2) 0.42816(11)
H70 H 0.0247 0.0975 0.4198
C63 C 0.0924(2) 0.0387(2) 0.45201(12)
H71 H 0.1214 0.0785 0.4592
C64 C -0.06513(19) 0.0053(2) 0.39096(9)
H72 H -0.0716 0.0528 0.3819
C65 C 0.4466(4) 0.1231(2) 0.47349(13)
H73 H 0.3964 0.1170 0.4777
C66 C 0.49181(17) 0.27607(13) 0.39016(5)
C67 C 0.42225(16) 0.25662(17) 0.40037(8)
H74 H 0.3817 0.2780 0.3890
C68 C 0.41208(19) 0.20595(18) 0.42726(8)
H75 H 0.3645 0.1927 0.4342
C69 C 0.4715(2) 0.17472(13) 0.44394(6)
C70 C 0.5410(2) 0.19417(15) 0.43372(7)
H76 H 0.5816 0.1728 0.4451
C71 C 0.55119(15) 0.24485(16) 0.40683(7)
H77 H 0.5987 0.2581 0.3999
C72 C 0.5021(2) 0.3302(2) 0.36102(9)
H78 H 0.4609 0.3540 0.3515
C73 C 0.1844(4) 0.7238(2) 0.48655(15)
H79 H 0.2024 0.7546 0.5048
C74 C 0.2370(3) 0.7022(2) 0.45777(11)
C75 C 0.3005(4) 0.7407(3) 0.45407(16)
H80 H 0.3133 0.7765 0.4711
C76 C 0.3453(4) 0.7268(3) 0.42530(17)
H81 H 0.3878 0.7545 0.4213
C77 C 0.3259(3) 0.6707(3) 0.40233(12)
C78 C 0.2660(3) 0.6326(3) 0.40618(12)
H82 H 0.2542 0.5954 0.3897
C79 C 0.2199(3) 0.6483(3) 0.43525(12)
H83 H 0.1770 0.6210 0.4388
C80 C 0.3759(3) 0.6584(2) 0.37041(14)
H84 H 0.4208 0.6831 0.3693
C81 C 0.0209(2) 0.1569(2) 0.24170(9)
H85 H 0.0178 0.1103 0.2311
C82 C 0.08891(19) 0.1953(2) 0.24031(8)
C83 C 0.1476(2) 0.1662(2) 0.22190(9)
H86 H 0.1434 0.1198 0.2113
C84 C 0.2114(2) 0.2037(2) 0.21895(10)
H87 H 0.2507 0.1831 0.2062
C85 C 0.21894(19) 0.2702(2) 0.23416(9)
C86 C 0.1636(2) 0.2997(3) 0.25258(12)
H88 H 0.1693 0.3457 0.2635
C87 C 0.0965(2) 0.2621(3) 0.25565(12)
H89 H 0.0573 0.2832 0.2683
C88 C 0.2876(2) 0.3115(3) 0.22864(10)
H90 H 0.3255 0.2899 0.2153
C89 C -0.1532(3) 0.5463(2) 0.47639(11)
H91 H -0.1089 0.5389 0.4887
C90 C -0.1771(2) 0.4951(2) 0.44820(10)
C91 C -0.2394(3) 0.5072(3) 0.42878(11)
H92 H -0.2656 0.5509 0.4321
C92 C -0.2648(2) 0.4548(3) 0.40381(12)
H93 H -0.3082 0.4634 0.3910
C93 C -0.2274(2) 0.3928(2) 0.39832(9)
C94 C -0.1635(2) 0.3817(2) 0.41759(9)
H94 H -0.1360 0.3389 0.4140
C95 C -0.1403(2) 0.4329(2) 0.44181(10)
H95 H -0.0968 0.4242 0.4545
C96 C -0.2564(2) 0.3381(3) 0.37405(10)
H96 H -0.2909 0.3518 0.3566
loop_
_geom_bond_atom_site_label_1
_geom_bond_atom_site_label_2
_geom_bond_site_symmetry_1
_geom_bond_site_symmetry_2
N1 C12 1_555 1_555
N2 C10 1_555 1_555
N3 C8 1_555 1_555
N4 C47 1_555 1_555
N5 C45 1_555 1_555
N6 C43 1_555 1_555
N7 C35 1_555 1_555
N8 C33 1_555 1_555
N9 C31 1_555 1_555
N10 C23 1_555 1_555
N11 C21 1_555 1_555
N12 C19 1_555 1_555
C1 C2 1_555 1_555
C2 C3 1_555 1_555
C3 C4 1_555 1_555
C4 C5 1_555 1_555
C5 C6 1_555 1_555
C6 C1 1_555 1_555
C7 C1 1_555 1_555
H1 C7 1_555 1_555
H2 C7 1_555 1_555
H3 C7 1_555 1_555
C8 C2 1_555 1_555
H4 C8 1_555 1_555
H5 C8 1_555 1_555
C9 C3 1_555 1_555
H6 C9 1_555 1_555
H7 C9 1_555 1_555
H8 C9 1_555 1_555
C10 C4 1_555 1_555
H9 C10 1_555 1_555
H10 C10 1_555 1_555
C11 C5 1_555 1_555
H11 C11 1_555 1_555
H12 C11 1_555 1_555
H13 C11 1_555 1_555
C12 C6 1_555 1_555
H14 C12 1_555 1_555
H15 C12 1_555 1_555
C13 C14 1_555 1_555
C14 C15 1_555 1_555
C15 C16 1_555 1_555
C16 C17 1_555 1_555
C17 C18 1_555 1_555
C18 C13 1_555 1_555
C19 C13 1_555 1_555
H16 C19 1_555 1_555
H17 C19 1_555 1_555
C20 C14 1_555 1_555
H18 C20 1_555 1_555
H19 C20 1_555 1_555
H20 C20 1_555 1_555
C21 C15 1_555 1_555
H21 C21 1_555 1_555
H22 C21 1_555 1_555
C22 C16 1_555 1_555
H23 C22 1_555 1_555
H24 C22 1_555 1_555
H25 C22 1_555 1_555
C23 C17 1_555 1_555
H26 C23 1_555 1_555
H27 C23 1_555 1_555
C24 C18 1_555 1_555
H28 C24 1_555 1_555
H29 C24 1_555 1_555
H30 C24 1_555 1_555
C25 C26 1_555 1_555
C26 C27 1_555 1_555
C27 C28 1_555 1_555
C28 C29 1_555 1_555
C29 C30 1_555 1_555
C30 C25 1_555 1_555
C31 C25 1_555 1_555
H31 C31 1_555 1_555
H32 C31 1_555 1_555
C32 C26 1_555 1_555
H33 C32 1_555 1_555
H34 C32 1_555 1_555
H35 C32 1_555 1_555
C33 C27 1_555 1_555
H36 C33 1_555 1_555
H37 C33 1_555 1_555
C34 C28 1_555 1_555
H38 C34 1_555 1_555
H39 C34 1_555 1_555
H40 C34 1_555 1_555
C35 C29 1_555 1_555
H41 C35 1_555 1_555
H42 C35 1_555 1_555
C36 C30 1_555 1_555
H43 C36 1_555 1_555
H44 C36 1_555 1_555
H45 C36 1_555 1_555
C37 C38 1_555 1_555
C38 C39 1_555 1_555
C39 C40 1_555 1_555
C40 C41 1_555 1_555
C41 C42 1_555 1_555
C42 C37 1_555 1_555
C43 C37 1_555 1_555
H46 C43 1_555 1_555
H47 C43 1_555 1_555
C44 C38 1_555 1_555
H48 C44 1_555 1_555
H49 C44 1_555 1_555
H50 C44 1_555 1_555
C45 C39 1_555 1_555
H51 C45 1_555 1_555
H52 C45 1_555 1_555
C46 C40 1_555 1_555
H53 C46 1_555 1_555
H54 C46 1_555 1_555
H55 C46 1_555 1_555
C47 C41 1_555 1_555
H56 C47 1_555 1_555
H57 C47 1_555 1_555
C48 C42 1_555 1_555
H58 C48 1_555 1_555
H59 C48 1_555 1_555
H60 C48 1_555 1_555
C49 N11 1_555 1_555
H61 C49 1_555 1_555
C50 C49 1_555 1_555
C51 C50 1_555 1_555
H62 C51 1_555 1_555
C52 C51 1_555 1_555
H63 C52 1_555 1_555
C53 C52 1_555 1_555
C54 C53 1_555 1_555
H64 C54 1_555 1_555
C55 C50 1_555 1_555
H65 C55 1_555 1_555
C56 N9 1_555 1_555
H66 C56 1_555 1_555
C57 N7 1_555 1_555
H67 C57 1_555 1_555
C58 C57 1_555 1_555
C59 C58 1_555 1_555
H68 C59 1_555 1_555
C60 C59 1_555 1_555
H69 C60 1_555 1_555
C61 C60 1_555 1_555
C62 C61 1_555 1_555
H70 C62 1_555 1_555
C63 C58 1_555 1_555
H71 C63 1_555 1_555
C64 N6 1_555 1_555
H72 C64 1_555 1_555
C65 N8 1_555 1_555
H73 C65 1_555 1_555
C66 C67 1_555 1_555
C67 H74 1_555 1_555
C68 C67 1_555 1_555
H75 C68 1_555 1_555
C69 C65 1_555 1_555
C70 C69 1_555 1_555
H76 C70 1_555 1_555
C71 C66 1_555 1_555
H77 C71 1_555 1_555
C72 N2 1_555 1_555
H78 C72 1_555 1_555
C73 N12 1_555 1_555
H79 C73 1_555 1_555
C74 C73 1_555 1_555
C75 C74 1_555 1_555
H80 C75 1_555 1_555
C76 C75 1_555 1_555
H81 C76 1_555 1_555
C77 C76 1_555 1_555
C78 C77 1_555 1_555
H82 C78 1_555 1_555
C79 C74 1_555 1_555
H83 C79 1_555 1_555
C80 N1 1_555 1_555
H84 C80 1_555 1_555
C81 N5 1_555 1_555
H85 C81 1_555 1_555
C82 C81 1_555 1_555
C83 C82 1_555 1_555
H86 C83 1_555 1_555
C84 C83 1_555 1_555
H87 C84 1_555 1_555
C85 C84 1_555 1_555
C86 C85 1_555 1_555
H88 C86 1_555 1_555
C87 C82 1_555 1_555
H89 C87 1_555 1_555
C88 N3 1_555 1_555
H90 C88 1_555 1_555
C89 N10 1_555 1_555
H91 C89 1_555 1_555
C90 C89 1_555 1_555
C91 C90 1_555 1_555
H92 C91 1_555 1_555
C92 C91 1_555 1_555
H93 C92 1_555 1_555
C93 C92 1_555 1_555
C94 C93 1_555 1_555
H94 C94 1_555 1_555
C95 C90 1_555 1_555
H95 C95 1_555 1_555
C96 N4 1_555 1_555
H96 C96 1_555 1_555
C53 C56 1_555 1_555
C54 C55 1_555 1_555
C61 C64 1_555 1_555
C62 C63 1_555 1_555
C66 C72 1_555 1_555
C68 C69 1_555 1_555
C70 C71 1_555 1_555
C77 C80 1_555 1_555
C78 C79 1_555 1_555
C85 C88 1_555 1_555
C86 C87 1_555 1_555
C93 C96 1_555 1_555
C94 C95 1_555 1_555

#END
