
#######################################################################
#
#                 Cambridge Crystallographic Data Centre
#                                CCDC 
#
#######################################################################
#
# If this CIF has been generated from an entry in the Cambridge 
# Structural Database, then it will include bibliographic, chemical, 
# crystal, experimental, refinement or atomic coordinate data resulting 
# from the CCDC's data processing and validation procedures.
#
#######################################################################

data_PIFTOQ
_chemical_formula_moiety         
'C48 H48 N6,0.82(C4 H8 O2),0.2(H2 O1),0.18(C1 H2 Cl2)'
_chemical_name_systematic        
'2,16,18,32,45,47-hexamethyl-5,13,21,29,34,42-hexaazaheptacyclo[15.15.11.1^3,31^.1^7,11^.1^15,19^.1^23,27^.1^36,40^]octatetraconta-1,3(45),5,7(48),8,10,12,15(47),16,18,21,23(46),24,26,28,31,34,36(44),37,39,41-henicosaene dichloromethane ethyl acetate solvate hydrate'
_symmetry_cell_setting           triclinic
_symmetry_space_group_name_H-M   'P -1'
_symmetry_Int_Tables_number      2
_space_group_name_Hall           '-P 1'
loop_
_symmetry_equiv_pos_site_id
_symmetry_equiv_pos_as_xyz
1 x,y,z
2 -x,-y,-z
_cell_length_a                   11.9249(4)
_cell_length_b                   14.1652(5)
_cell_length_c                   14.5526(5)
_cell_angle_alpha                73.9550(10)
_cell_angle_beta                 70.5990(10)
_cell_angle_gamma                88.0330(10)
_cell_volume                     2223.81
_exptl_crystal_colour            colorless
_exptl_crystal_description       block
_cell_formula_units_Z            2
loop_
_atom_site_label
_atom_site_type_symbol
_atom_site_fract_x
_atom_site_fract_y
_atom_site_fract_z
O1 O 0.11348(12) 0.08789(11) 0.87864(11)
O2 O 0.16526(16) -0.04133(15) 0.81739(16)
C49 C 0.0914(2) 0.01233(16) 0.84421(16)
C50 C -0.02963(17) 0.01606(15) 0.83466(16)
H49 H -0.0897 0.0134 0.9006
H50 H -0.0446 -0.0402 0.8125
H51 H -0.0341 0.0774 0.7846
C51 C 0.2299(2) 0.0936(2) 0.8860(2)
H52 H 0.2915 0.1042 0.8182
H53 H 0.2438 0.0315 0.9315
C52 C 0.2359(2) 0.1787(2) 0.9281(2)
H54 H 0.2193 0.2393 0.8838
H55 H 0.3157 0.1859 0.9316
H56 H 0.1767 0.1661 0.9963
O3 O 0.2044(6) 0.5096(5) 0.3198(6)
H61 H 0.2149 0.5334 0.3642
H62 H 0.1373 0.5249 0.3133
N1 N 0.38374(11) 0.19292(9) 0.60950(10)
N2 N 0.46837(11) 0.77054(9) 0.05773(9)
N3 N 0.61267(11) 0.26188(9) 0.13854(9)
N4 N 0.24540(11) 0.70025(9) 0.52510(10)
N5 N 0.06995(11) 0.11353(10) 0.33176(10)
N6 N -0.01901(11) 0.57563(10) 0.27685(10)
C1 C 0.31606(12) 0.53799(11) 0.55362(11)
C2 C 0.68752(12) 0.46216(11) 0.02724(11)
H1 H 0.7416 0.4139 0.0102
C3 C 0.57591(12) 0.43291(11) 0.10238(10)
C4 C 0.52862(12) 0.60493(11) 0.07506(10)
C5 C 0.44367(13) 0.67933(11) 0.10197(11)
H2 H 0.3686 0.6584 0.1537
C6 C 0.49714(12) 0.50511(11) 0.12496(10)
H3 H 0.4207 0.4860 0.1752
C7 C 0.48269(12) 0.13600(10) 0.38438(11)
C8 C 0.64121(13) 0.63219(11) 0.00100(11)
H4 H 0.6640 0.6997 -0.0333
C9 C 0.38260(13) 0.11022(10) 0.47378(11)
C10 C 0.37148(13) 0.27483(11) 0.55143(11)
H5 H 0.3684 0.2773 0.4864
C11 C 0.27590(13) 0.80526(10) 0.18343(11)
C12 C 0.27118(13) 0.08686(10) 0.46947(11)
C13 C 0.18918(13) 0.77453(11) 0.36649(11)
C14 C 0.17080(13) 0.76509(11) 0.18140(11)
C15 C 0.47152(13) 0.13422(10) 0.29146(11)
C16 C 0.36143(13) 0.10742(10) 0.28755(11)
C17 C 0.08627(13) 0.73041(11) 0.36565(11)
C18 C 0.08956(13) 0.20517(11) 0.31247(11)
H6 H 0.1509 0.2291 0.3299
C19 C 0.32940(13) 0.45116(11) 0.52464(11)
H7 H 0.3160 0.4500 0.4641
C20 C 0.54269(12) 0.32810(11) 0.15881(11)
H8 H 0.4676 0.3102 0.2111
C21 C 0.36196(12) 0.36614(11) 0.58253(11)
C22 C 0.33884(13) 0.53980(11) 0.64135(11)
H9 H 0.3318 0.5988 0.6613
C23 C 0.02027(13) 0.37372(11) 0.26258(11)
H10 H 0.0663 0.3956 0.2958
C24 C 0.07636(13) 0.72748(11) 0.27291(11)
C25 C 0.28613(13) 0.80804(11) 0.27610(11)
C26 C 0.38268(13) 0.36899(12) 0.67063(12)
H11 H 0.4045 0.3114 0.7113
C27 C 0.26177(12) 0.08211(10) 0.37738(11)
C28 C 0.27280(13) 0.62435(11) 0.49432(11)
H12 H 0.2653 0.6231 0.4317
C29 C -0.04512(13) 0.44078(12) 0.21329(11)
C30 C 0.01819(13) 0.27577(11) 0.26312(11)
C31 C 0.71981(13) 0.56094(11) -0.02254(11)
H13 H 0.7961 0.5800 -0.0730
C32 C 0.14668(13) 0.04361(11) 0.37353(12)
H14 H 0.1675 -0.0047 0.3335
H15 H 0.0984 0.0069 0.4436
C33 C 0.39648(14) 0.10392(11) 0.57495(11)
H16 H 0.3372 0.0527 0.6275
H17 H 0.4763 0.0804 0.5723
C34 C 0.60084(13) 0.16686(12) 0.38838(13)
H18 H 0.5867 0.2006 0.4413
H19 H 0.6472 0.2115 0.3225
H20 H 0.6452 0.1085 0.4039
C35 C 0.37162(14) 0.45562(12) 0.69922(12)
H21 H 0.3867 0.4571 0.7590
C36 C 0.58096(13) 0.15798(11) 0.19633(11)
H22 H 0.6500 0.1309 0.2160
H23 H 0.5695 0.1223 0.1501
C37 C 0.19897(14) 0.78313(11) 0.46518(11)
H24 H 0.2506 0.8428 0.4493
H25 H 0.1187 0.7940 0.5086
C38 C 0.38037(13) 0.84233(11) 0.08624(11)
H26 H 0.3486 0.8685 0.0300
H27 H 0.4226 0.8981 0.0922
C39 C -0.05176(13) 0.54377(12) 0.21623(12)
H28 H -0.0824 0.5888 0.1700
C40 C -0.03498(13) 0.68038(12) 0.27199(12)
H29 H -0.1037 0.6863 0.3308
H30 H -0.0517 0.7148 0.2092
C41 C 0.40250(14) 0.84192(12) 0.28157(13)
H31 H 0.4681 0.8387 0.2206
H32 H 0.4165 0.7991 0.3418
H33 H 0.3981 0.9098 0.2859
C42 C 0.16163(14) 0.06838(12) 0.56406(12)
H34 H 0.1493 -0.0022 0.5991
H35 H 0.0918 0.0911 0.5449
H36 H 0.1729 0.1043 0.6093
C43 C 0.15968(14) 0.76038(13) 0.08198(12)
H37 H 0.1234 0.8195 0.0536
H38 H 0.1095 0.7019 0.0940
H39 H 0.2389 0.7568 0.0341
C44 C 0.34858(15) 0.10622(12) 0.18754(11)
H40 H 0.4054 0.1556 0.1318
H41 H 0.2673 0.1214 0.1889
H42 H 0.3647 0.0409 0.1773
C45 C -0.10906(14) 0.40841(13) 0.16209(13)
H43 H -0.1507 0.4540 0.1260
C46 C -0.01143(14) 0.68059(13) 0.46447(12)
H44 H 0.0202 0.6675 0.5206
H45 H -0.0399 0.6184 0.4603
H46 H -0.0776 0.7237 0.4763
C47 C -0.05089(14) 0.24403(13) 0.21429(13)
H47 H -0.0551 0.1765 0.2165
C48 C -0.11277(15) 0.31030(14) 0.16306(14)
H48 H -0.1576 0.2888 0.1287
Cl1? Cl 0.2766(6) 0.0258(5) 0.9003(5)
Cl2? Cl 0.1431(7) 0.2027(6) 0.9702(6)
C53? C 0.2684(16) 0.1428(19) 0.920(4)
H57? H 0.3184 0.1419 0.9624
H58? H 0.3117 0.1884 0.8525
Cl3? Cl 0.3083(12) 0.0667(10) 0.9302(10)
Cl4? Cl 0.1237(13) 0.0308(13) 0.8640(12)
C54? C 0.217(4) 0.1227(16) 0.862(4)
H59? H 0.2658 0.1573 0.7918
H60? H 0.1699 0.1712 0.8942
loop_
_geom_bond_atom_site_label_1
_geom_bond_atom_site_label_2
_geom_bond_site_symmetry_1
_geom_bond_site_symmetry_2
N1 C10 1_555 1_555
N2 C5 1_555 1_555
N3 C20 1_555 1_555
N4 C28 1_555 1_555
N5 C18 1_555 1_555
N6 C39 1_555 1_555
C1 C19 1_555 1_555
C2 H1 1_555 1_555
C3 C2 1_555 1_555
C4 C5 1_555 1_555
C5 H2 1_555 1_555
C6 C3 1_555 1_555
H3 C6 1_555 1_555
C7 C9 1_555 1_555
C8 C4 1_555 1_555
H4 C8 1_555 1_555
C9 C12 1_555 1_555
C10 H5 1_555 1_555
C11 C14 1_555 1_555
C12 C27 1_555 1_555
C13 C17 1_555 1_555
C14 C24 1_555 1_555
C15 C7 1_555 1_555
C16 C15 1_555 1_555
C17 C24 1_555 1_555
C18 H6 1_555 1_555
C19 H7 1_555 1_555
C20 C3 1_555 1_555
H8 C20 1_555 1_555
C21 C10 1_555 1_555
C22 C1 1_555 1_555
H9 C22 1_555 1_555
C23 H10 1_555 1_555
C24 C40 1_555 1_555
C25 C11 1_555 1_555
C26 C21 1_555 1_555
H11 C26 1_555 1_555
C27 C16 1_555 1_555
C28 C1 1_555 1_555
H12 C28 1_555 1_555
C29 C23 1_555 1_555
C30 C18 1_555 1_555
C31 C2 1_555 1_555
H13 C31 1_555 1_555
C32 N5 1_555 1_555
H14 C32 1_555 1_555
H15 C32 1_555 1_555
C33 N1 1_555 1_555
H16 C33 1_555 1_555
H17 C33 1_555 1_555
C34 C7 1_555 1_555
H18 C34 1_555 1_555
H19 C34 1_555 1_555
H20 C34 1_555 1_555
C35 C22 1_555 1_555
H21 C35 1_555 1_555
C36 N3 1_555 1_555
H22 C36 1_555 1_555
H23 C36 1_555 1_555
C37 N4 1_555 1_555
H24 C37 1_555 1_555
H25 C37 1_555 1_555
C38 N2 1_555 1_555
H26 C38 1_555 1_555
H27 C38 1_555 1_555
C39 C29 1_555 1_555
H28 C39 1_555 1_555
C40 N6 1_555 1_555
H29 C40 1_555 1_555
H30 C40 1_555 1_555
C41 C25 1_555 1_555
H31 C41 1_555 1_555
H32 C41 1_555 1_555
H33 C41 1_555 1_555
C42 C12 1_555 1_555
H34 C42 1_555 1_555
H35 C42 1_555 1_555
H36 C42 1_555 1_555
C43 C14 1_555 1_555
H37 C43 1_555 1_555
H38 C43 1_555 1_555
H39 C43 1_555 1_555
C44 C16 1_555 1_555
H40 C44 1_555 1_555
H41 C44 1_555 1_555
H42 C44 1_555 1_555
C45 C29 1_555 1_555
H43 C45 1_555 1_555
C46 C17 1_555 1_555
H44 C46 1_555 1_555
H45 C46 1_555 1_555
H46 C46 1_555 1_555
C47 C30 1_555 1_555
H47 C47 1_555 1_555
C48 C45 1_555 1_555
H48 C48 1_555 1_555
O1 C49 1_555 1_555
O2 C49 1_555 1_555
C49 C50 1_555 1_555
C50 H49 1_555 1_555
H50 C50 1_555 1_555
H51 C50 1_555 1_555
C51 O1 1_555 1_555
H52 C51 1_555 1_555
H53 C51 1_555 1_555
C52 C51 1_555 1_555
H54 C52 1_555 1_555
H55 C52 1_555 1_555
H56 C52 1_555 1_555
O3 H61 1_555 1_555
H62 O3 1_555 1_555
C4 C6 1_555 1_555
C8 C31 1_555 1_555
C9 C33 1_555 1_555
C11 C38 1_555 1_555
C13 C25 1_555 1_555
C13 C37 1_555 1_555
C15 C36 1_555 1_555
C19 C21 1_555 1_555
C23 C30 1_555 1_555
C26 C35 1_555 1_555
C27 C32 1_555 1_555
C47 C48 1_555 1_555

#END
