
#######################################################################
#
#                 Cambridge Crystallographic Data Centre
#                                CCDC 
#
#######################################################################
#
# If this CIF has been generated from an entry in the Cambridge 
# Structural Database, then it will include bibliographic, chemical, 
# crystal, experimental, refinement or atomic coordinate data resulting 
# from the CCDC's data processing and validation procedures.
#
#######################################################################

data_PIFVAE
_chemical_formula_moiety         'C96 H96 N12,1.16(H2 O1)'
_chemical_name_systematic        
'2,15,17,30,32,45,47,60,73,76,89,92-dodecamethyl-5,12,20,27,35,42,50,57,62,69,78,85-dodecaazatridecacyclo[29.29.10.10^16,46^.2^7,10^.2^22,25^.2^37,40^.2^52,55^.2^64,67^.2^80,83^.1^3,59^.1^14,18^.1^29,33^.1^44,48^]hexanonaconta-1,3(73),5,7,9,11,14(92),15,17,20,22,24,26,29(89),30,32,35,37,39,41,44(76),45,47,50,52,54,56,59,62,64,66,68,71,74,78,80,82,84,87,90,93,95-dotetracontaene hydrate'
_symmetry_cell_setting           trigonal
_symmetry_space_group_name_H-M   'P -3'
_symmetry_Int_Tables_number      147
_space_group_name_Hall           '-P 3'
loop_
_symmetry_equiv_pos_site_id
_symmetry_equiv_pos_as_xyz
1 x,y,z
2 -y,x-y,z
3 -x+y,-x,z
4 -x,-y,-z
5 y,-x+y,-z
6 x-y,x,-z
_cell_length_a                   19.5104(10)
_cell_length_b                   19.5104(10)
_cell_length_c                   14.1156(8)
_cell_angle_alpha                90
_cell_angle_beta                 90
_cell_angle_gamma                120
_cell_volume                     4653.31
_exptl_crystal_colour            colorless
_exptl_crystal_description       needle
_cell_formula_units_Z            2
loop_
_atom_site_label
_atom_site_type_symbol
_atom_site_fract_x
_atom_site_fract_y
_atom_site_fract_z
O1 O 0.6619(13) 0.1493(14) 0.662(3)
N1 N 1.0366(3) 0.5430(3) 0.7322(4)
N2 N 0.8642(3) 0.1176(3) 0.8455(4)
N3 N 1.0139(3) 0.7676(3) 0.4263(3)
N4 N 0.7896(3) 0.5536(3) 0.0320(4)
C1 C 1.0732(3) 0.7106(4) 0.6240(4)
C2 C 1.0621(3) 0.6800(3) 0.7166(4)
C3 C 1.0250(3) 0.7037(3) 0.7841(4)
C4 C 1.0034(3) 0.7591(4) 0.7617(4)
C5 C 1.0153(3) 0.7908(3) 0.6683(4)
C6 C 1.0517(3) 0.7660(4) 0.6009(4)
C7 C 1.1084(4) 0.6806(4) 0.5507(4)
H1 H 1.0912 0.6861 0.4874
H2 H 1.0906 0.6247 0.5630
H3 H 1.1663 0.7114 0.5544
C8 C 1.0942(3) 0.6281(3) 0.7451(4)
H4 H 1.1421 0.6421 0.7072
H5 H 1.1102 0.6380 0.8126
C9 C 1.0083(4) 0.6662(4) 0.8829(4)
H6 H 0.9978 0.6117 0.8780
H7 H 0.9621 0.6662 0.9101
H8 H 1.0544 0.6968 0.9237
C10 C 0.9903(4) 0.8502(4) 0.6447(5)
H9 H 1.0306 0.9026 0.6672
H10 H 0.9397 0.8349 0.6756
H11 H 0.9844 0.8518 0.5759
C11 C 1.0712(4) 0.8050(4) 0.5039(4)
H12 H 1.0806 0.8595 0.5118
H13 H 1.1219 0.8098 0.4832
C12 C 1.0325(4) 0.4988(4) 0.7977(5)
H14 H 1.0643 0.5225 0.8522
C13 C 0.9815(3) 0.4113(3) 0.7969(4)
C14 C 0.9889(4) 0.3677(4) 0.8677(4)
H15 H 1.0240 0.3941 0.9189
C15 C 0.9463(3) 0.2863(4) 0.8664(4)
H16 H 0.9523 0.2572 0.9166
C16 C 0.8947(3) 0.2463(4) 0.7926(4)
C17 C 0.8850(4) 0.2905(4) 0.7228(4)
H17 H 0.8478 0.2640 0.6735
C18 C 0.9279(4) 0.3719(4) 0.7230(4)
H18 H 0.9212 0.4012 0.6736
C19 C 0.8518(3) 0.1596(4) 0.7888(4)
H19 H 0.8126 0.1341 0.7412
C20 C 0.8196(4) 0.0316(4) 0.8357(4)
H20 H 0.7951 0.0090 0.8977
H21 H 0.8579 0.0136 0.8221
C21 C 0.9601(4) 0.6966(4) 0.4338(4)
H22 H 0.9533 0.6701 0.4925
C22 C 0.9069(3) 0.6531(4) 0.3538(4)
C23 C 0.9052(4) 0.6925(4) 0.2734(4)
H23 H 0.9341 0.7486 0.2714
C24 C 0.8606(3) 0.6495(4) 0.1947(4)
H24 H 0.8593 0.6765 0.1394
C25 C 0.8188(3) 0.5680(4) 0.1977(4)
C26 C 0.8170(3) 0.5281(4) 0.2800(4)
H25 H 0.7861 0.4721 0.2830
C27 C 0.8611(4) 0.5715(4) 0.3581(4)
H26 H 0.8596 0.5447 0.4149
C28 C 0.7794(3) 0.5212(4) 0.1100(4)
H27 H 0.7459 0.4655 0.1146
C29 C 0.7552(4) 0.5060(3) -0.0533(4)
H28 H 0.7989 0.5201 -0.0988
H29 H 0.7196 0.5227 -0.0819
C30 C 0.7088(3) 0.4159(3) -0.0452(3)
C31 C 0.7492(3) 0.3736(3) -0.0438(3)
C32 C 0.8391(3) 0.4176(4) -0.0427(4)
H30 H 0.8589 0.4251 -0.1079
H31 H 0.8576 0.3868 -0.0071
H32 H 0.8588 0.4693 -0.0125
N1A N 0.4570(3) 0.4936(4) 0.7322(4)
N2A N 0.8824(3) 0.7466(4) 0.8455(4)
N3A N 0.2324(3) 0.2463(4) 0.4263(3)
N4A N 0.4464(3) 0.2360(4) 0.0320(4)
C1A C 0.2894(4) 0.3626(5) 0.6240(4)
C2A C 0.3200(3) 0.3821(4) 0.7166(4)
C3A C 0.2963(3) 0.3213(4) 0.7841(4)
C4A C 0.2409(4) 0.2443(5) 0.7617(4)
C5A C 0.2092(3) 0.2245(4) 0.6683(4)
C6A C 0.2340(4) 0.2857(5) 0.6009(4)
C7A C 0.3194(4) 0.4278(6) 0.5507(4)
H1A H 0.3139 0.4051 0.4874
H2A H 0.3753 0.4659 0.5630
H3A H 0.2886 0.4549 0.5544
C8A C 0.3719(3) 0.4661(4) 0.7451(4)
H4A H 0.3579 0.5000 0.7072
H5A H 0.3620 0.4722 0.8126
C9A C 0.3338(4) 0.3421(6) 0.8829(4)
H6A H 0.3883 0.3861 0.8780
H7A H 0.3338 0.2959 0.9101
H8A H 0.3032 0.3576 0.9237
C10A C 0.1498(4) 0.1401(6) 0.6447(5)
H9A H 0.0974 0.1280 0.6672
H10A H 0.1651 0.1048 0.6756
H11A H 0.1482 0.1326 0.5759
C11A C 0.1950(4) 0.2662(6) 0.5039(4)
H12A H 0.1405 0.2211 0.5118
H13A H 0.1902 0.3121 0.4832
C12A C 0.5012(4) 0.5337(6) 0.7977(5)
H14A H 0.4775 0.5418 0.8522
C13A C 0.5887(3) 0.5702(4) 0.7969(4)
C14A C 0.6323(4) 0.6212(6) 0.8677(4)
H15A H 0.6059 0.6299 0.9189
C15A C 0.7137(4) 0.6600(5) 0.8664(4)
H16A H 0.7428 0.6951 0.9166
C16A C 0.7537(4) 0.6484(5) 0.7926(4)
C17A C 0.7095(4) 0.5945(6) 0.7228(4)
H17A H 0.7360 0.5838 0.6735
C18A C 0.6281(4) 0.5560(6) 0.7230(4)
H18A H 0.5988 0.5200 0.6736
C19A C 0.8404(4) 0.6922(5) 0.7888(4)
H19A H 0.8659 0.6785 0.7412
C20A C 0.9684(4) 0.7880(6) 0.8357(4)
H20A H 0.9910 0.7861 0.8977
H21A H 0.9864 0.8443 0.8221
C21A C 0.3034(4) 0.2635(6) 0.4338(4)
H22A H 0.3299 0.2832 0.4925
C22A C 0.3469(4) 0.2538(5) 0.3538(4)
C23A C 0.3075(4) 0.2127(6) 0.2734(4)
H23A H 0.2514 0.1855 0.2714
C24A C 0.3505(4) 0.2111(5) 0.1947(4)
H24A H 0.3235 0.1828 0.1394
C25A C 0.4320(4) 0.2508(5) 0.1977(4)
C26A C 0.4719(4) 0.2889(5) 0.2800(4)
H25A H 0.5279 0.3140 0.2830
C27A C 0.4285(4) 0.2896(6) 0.3581(4)
H26A H 0.4553 0.3149 0.4149
C28A C 0.4788(4) 0.2582(5) 0.1100(4)
H27A H 0.5345 0.2804 0.1146
C29A C 0.4940(3) 0.2492(5) -0.0533(4)
H28A H 0.4799 0.2788 -0.0988
H29A H 0.4773 0.1969 -0.0819
C30A C 0.5841(3) 0.2929(4) -0.0452(3)
C31A C 0.6264(3) 0.3756(4) -0.0438(3)
C32A C 0.5824(4) 0.4215(5) -0.0427(4)
H30A H 0.5749 0.4338 -0.1079
H31A H 0.6132 0.4708 -0.0071
H32A H 0.5307 0.3895 -0.0125
N1B N 0.5064(4) -0.0366(3) 0.7322(4)
N2B N 0.2534(4) 0.1358(3) 0.8455(4)
N3B N 0.7537(4) -0.0139(3) 0.4263(3)
N4B N 0.7640(4) 0.2104(3) 0.0320(4)
C1B C 0.6374(5) -0.0732(3) 0.6240(4)
C2B C 0.6179(4) -0.0621(3) 0.7166(4)
C3B C 0.6787(4) -0.0250(3) 0.7841(4)
C4B C 0.7557(5) -0.0034(3) 0.7617(4)
C5B C 0.7755(4) -0.0153(3) 0.6683(4)
C6B C 0.7143(5) -0.0517(3) 0.6009(4)
C7B C 0.5722(6) -0.1084(4) 0.5507(4)
H1B H 0.5949 -0.0912 0.4874
H2B H 0.5341 -0.0906 0.5630
H3B H 0.5451 -0.1663 0.5544
C8B C 0.5339(4) -0.0942(3) 0.7451(4)
H4B H 0.5000 -0.1421 0.7072
H5B H 0.5278 -0.1102 0.8126
C9B C 0.6579(6) -0.0083(4) 0.8829(4)
H6B H 0.6139 0.0022 0.8780
H7B H 0.7041 0.0379 0.9101
H8B H 0.6424 -0.0544 0.9237
C10B C 0.8599(6) 0.0097(4) 0.6447(5)
H9B H 0.8720 -0.0306 0.6672
H10B H 0.8952 0.0603 0.6756
H11B H 0.8674 0.0156 0.5759
C11B C 0.7338(6) -0.0712(4) 0.5039(4)
H12B H 0.7789 -0.0806 0.5118
H13B H 0.6879 -0.1219 0.4832
C12B C 0.4663(6) -0.0325(4) 0.7977(5)
H14B H 0.4582 -0.0643 0.8522
C13B C 0.4298(4) 0.0185(3) 0.7969(4)
C14B C 0.3788(6) 0.0111(4) 0.8677(4)
H15B H 0.3701 -0.0240 0.9189
C15B C 0.3400(5) 0.0537(3) 0.8664(4)
H16B H 0.3049 0.0477 0.9166
C16B C 0.3516(5) 0.1053(3) 0.7926(4)
C17B C 0.4055(6) 0.1150(4) 0.7228(4)
H17B H 0.4162 0.1522 0.6735
C18B C 0.4440(6) 0.0721(4) 0.7230(4)
H18B H 0.4800 0.0788 0.6736
C19B C 0.3078(5) 0.1482(3) 0.7888(4)
H19B H 0.3215 0.1874 0.7412
C20B C 0.2120(6) 0.1804(4) 0.8357(4)
H20B H 0.2139 0.2049 0.8977
H21B H 0.1557 0.1421 0.8221
C21B C 0.7365(6) 0.0399(4) 0.4338(4)
H22B H 0.7168 0.0467 0.4925
C22B C 0.7462(5) 0.0931(3) 0.3538(4)
C23B C 0.7873(6) 0.0948(4) 0.2734(4)
H23B H 0.8145 0.0659 0.2714
C24B C 0.7889(5) 0.1394(3) 0.1947(4)
H24B H 0.8172 0.1407 0.1394
C25B C 0.7492(5) 0.1812(3) 0.1977(4)
C26B C 0.7111(5) 0.1830(3) 0.2800(4)
H25B H 0.6860 0.2139 0.2830
C27B C 0.7104(6) 0.1389(4) 0.3581(4)
H26B H 0.6851 0.1404 0.4149
C28B C 0.7418(5) 0.2206(3) 0.1100(4)
H27B H 0.7196 0.2541 0.1146
C29B C 0.7508(5) 0.2448(4) -0.0533(4)
H28B H 0.7212 0.2011 -0.0988
H29B H 0.8031 0.2804 -0.0819
C30B C 0.7071(4) 0.2912(3) -0.0452(3)
C31B C 0.6244(4) 0.2508(3) -0.0438(3)
C32B C 0.5785(5) 0.1609(3) -0.0427(4)
H30B H 0.5662 0.1411 -0.1079
H31B H 0.5292 0.1424 -0.0071
H32B H 0.6105 0.1412 -0.0125
loop_
_geom_bond_atom_site_label_1
_geom_bond_atom_site_label_2
_geom_bond_site_symmetry_1
_geom_bond_site_symmetry_2
N1 C8 1_555 1_555
N2 C19 1_555 1_555
N3 C11 1_555 1_555
N4 C28 1_555 1_555
C1 C2 1_555 1_555
C2 C3 1_555 1_555
C3 C4 1_555 1_555
C4 C5 1_555 1_555
C5 C6 1_555 1_555
C6 C1 1_555 1_555
C7 C1 1_555 1_555
H1 C7 1_555 1_555
H2 C7 1_555 1_555
H3 C7 1_555 1_555
C8 C2 1_555 1_555
H4 C8 1_555 1_555
H5 C8 1_555 1_555
C9 C3 1_555 1_555
H6 C9 1_555 1_555
H7 C9 1_555 1_555
H8 C9 1_555 1_555
C10 C5 1_555 1_555
H9 C10 1_555 1_555
H10 C10 1_555 1_555
H11 C10 1_555 1_555
C11 C6 1_555 1_555
H12 C11 1_555 1_555
H13 C11 1_555 1_555
C12 N1 1_555 1_555
H14 C12 1_555 1_555
C13 C12 1_555 1_555
C14 C13 1_555 1_555
H15 C14 1_555 1_555
C15 C14 1_555 1_555
H16 C15 1_555 1_555
C16 C15 1_555 1_555
C17 C16 1_555 1_555
H17 C17 1_555 1_555
C18 C13 1_555 1_555
H18 C18 1_555 1_555
C19 C16 1_555 1_555
H19 C19 1_555 1_555
C20 N2 1_555 1_555
H20 C20 1_555 1_555
H21 C20 1_555 1_555
C21 N3 1_555 1_555
H22 C21 1_555 1_555
C22 C21 1_555 1_555
C23 C22 1_555 1_555
H23 C23 1_555 1_555
C24 C23 1_555 1_555
H24 C24 1_555 1_555
C25 C24 1_555 1_555
C26 C25 1_555 1_555
H25 C26 1_555 1_555
C27 C22 1_555 1_555
H26 C27 1_555 1_555
C28 C25 1_555 1_555
H27 C28 1_555 1_555
C29 N4 1_555 1_555
H28 C29 1_555 1_555
H29 C29 1_555 1_555
C30 C29 1_555 1_555
C31 C30 1_555 1_555
C32 C31 1_555 1_555
H30 C32 1_555 1_555
H31 C32 1_555 1_555
H32 C32 1_555 1_555
N1A C8A 1_555 1_555
N2A C19A 1_555 1_555
N3A C11A 1_555 1_555
N4A C28A 1_555 1_555
C1A C2A 1_555 1_555
C2A C3A 1_555 1_555
C3A C4A 1_555 1_555
C4A C5A 1_555 1_555
C5A C6A 1_555 1_555
C6A C1A 1_555 1_555
C7A C1A 1_555 1_555
H1A C7A 1_555 1_555
H2A C7A 1_555 1_555
H3A C7A 1_555 1_555
C8A C2A 1_555 1_555
H4A C8A 1_555 1_555
H5A C8A 1_555 1_555
C9A C3A 1_555 1_555
H6A C9A 1_555 1_555
H7A C9A 1_555 1_555
H8A C9A 1_555 1_555
C10A C5A 1_555 1_555
H9A C10A 1_555 1_555
H10A C10A 1_555 1_555
H11A C10A 1_555 1_555
C11A C6A 1_555 1_555
H12A C11A 1_555 1_555
H13A C11A 1_555 1_555
C12A N1A 1_555 1_555
H14A C12A 1_555 1_555
C13A C12A 1_555 1_555
C14A C13A 1_555 1_555
H15A C14A 1_555 1_555
C15A C14A 1_555 1_555
H16A C15A 1_555 1_555
C16A C15A 1_555 1_555
C17A C16A 1_555 1_555
H17A C17A 1_555 1_555
C18A C13A 1_555 1_555
H18A C18A 1_555 1_555
C19A C16A 1_555 1_555
H19A C19A 1_555 1_555
C20A C4 1_555 1_555
H20A C20A 1_555 1_555
H21A C20A 1_555 1_555
C21A N3A 1_555 1_555
H22A C21A 1_555 1_555
C22A C21A 1_555 1_555
C23A C22A 1_555 1_555
H23A C23A 1_555 1_555
C24A C23A 1_555 1_555
H24A C24A 1_555 1_555
C25A C24A 1_555 1_555
C26A C25A 1_555 1_555
H25A C26A 1_555 1_555
C27A C22A 1_555 1_555
H26A C27A 1_555 1_555
C28A C25A 1_555 1_555
H27A C28A 1_555 1_555
C29A N4A 1_555 1_555
H28A C29A 1_555 1_555
H29A C29A 1_555 1_555
C30A C29A 1_555 1_555
C31A C30 1_555 1_555
C32A C31A 1_555 1_555
H30A C32A 1_555 1_555
H31A C32A 1_555 1_555
H32A C32A 1_555 1_555
N1B C8B 1_555 1_555
N2B C19B 1_555 1_555
N3B C11B 1_555 1_555
N4B C28B 1_555 1_555
C1B C2B 1_555 1_555
C2B C3B 1_555 1_555
C3B C4B 1_555 1_555
C4B C20 1_555 1_555
C5B C4B 1_555 1_555
C6B C1B 1_555 1_555
C7B C1B 1_555 1_555
H1B C7B 1_555 1_555
H2B C7B 1_555 1_555
H3B C7B 1_555 1_555
C8B C2B 1_555 1_555
H4B C8B 1_555 1_555
H5B C8B 1_555 1_555
C9B C3B 1_555 1_555
H6B C9B 1_555 1_555
H7B C9B 1_555 1_555
H8B C9B 1_555 1_555
C10B C5B 1_555 1_555
H9B C10B 1_555 1_555
H10B C10B 1_555 1_555
H11B C10B 1_555 1_555
C11B C6B 1_555 1_555
H12B C11B 1_555 1_555
H13B C11B 1_555 1_555
C12B N1B 1_555 1_555
H14B C12B 1_555 1_555
C13B C12B 1_555 1_555
C14B C13B 1_555 1_555
H15B C14B 1_555 1_555
C15B C14B 1_555 1_555
H16B C15B 1_555 1_555
C16B C15B 1_555 1_555
C17B C16B 1_555 1_555
H17B C17B 1_555 1_555
C18B C13B 1_555 1_555
H18B C18B 1_555 1_555
C19B C16B 1_555 1_555
H19B C19B 1_555 1_555
C20B C4A 1_555 1_555
H20B C20B 1_555 1_555
H21B C20B 1_555 1_555
C21B N3B 1_555 1_555
H22B C21B 1_555 1_555
C22B C21B 1_555 1_555
C23B C22B 1_555 1_555
H23B C23B 1_555 1_555
C24B C23B 1_555 1_555
H24B C24B 1_555 1_555
C25B C24B 1_555 1_555
C26B C25B 1_555 1_555
H25B C26B 1_555 1_555
C27B C22B 1_555 1_555
H26B C27B 1_555 1_555
C28B C25B 1_555 1_555
H27B C28B 1_555 1_555
C29B N4B 1_555 1_555
H28B C29B 1_555 1_555
H29B C29B 1_555 1_555
C30B C31 1_555 1_555
C31B C30A 1_555 1_555
C32B C31B 1_555 1_555
H30B C32B 1_555 1_555
H31B C32B 1_555 1_555
H32B C32B 1_555 1_555
C17 C18 1_555 1_555
C26 C27 1_555 1_555
N2A C20A 1_555 1_555
C17A C18A 1_555 1_555
C26A C27A 1_555 1_555
C30A C31A 1_555 1_555
N2B C20B 1_555 1_555
C5B C6B 1_555 1_555
C17B C18B 1_555 1_555
C26B C27B 1_555 1_555
C29B C30B 1_555 1_555
C30B C31B 1_555 1_555

#END
