
#######################################################################
#
#                 Cambridge Crystallographic Data Centre
#                                CCDC 
#
#######################################################################
#
# If this CIF has been generated from an entry in the Cambridge 
# Structural Database, then it will include bibliographic, chemical, 
# crystal, experimental, refinement or atomic coordinate data resulting 
# from the CCDC's data processing and validation procedures.
#
#######################################################################

data_PIFVIM
_chemical_formula_moiety         
'C132 H120 N12,2.25(C6 H14),2.25(C1 H2 Cl2),2.25(H2 O1)'
_chemical_name_systematic        
'3,8,12,17,21,26,30,35,38,43,46,51-dodecaaza-1,10,19,28(1,3,5)-tetrakis(2,4,6-trimethylbenzena)-5,6,14,15,23,24,32,33,40,41,48,49(1,4)-dodecabenzenatricyclo[17.17.8.8^10,28^]dopentacontaphane-3,7,12,16,21,25,30,34,38,42,46,50-dodecaene dichloromethane hexane solvate hydrate'
_symmetry_cell_setting           triclinic
_symmetry_space_group_name_H-M   'P -1'
_symmetry_Int_Tables_number      2
_space_group_name_Hall           '-P 1'
loop_
_symmetry_equiv_pos_site_id
_symmetry_equiv_pos_as_xyz
1 x,y,z
2 -x,-y,-z
_cell_length_a                   18.8234(11)
_cell_length_b                   20.8419(12)
_cell_length_c                   22.4054(13)
_cell_angle_alpha                103.931(4)
_cell_angle_beta                 93.490(4)
_cell_angle_gamma                114.824(3)
_cell_volume                     7611.17
_exptl_crystal_colour            colorless
_exptl_crystal_description       block
_cell_formula_units_Z            2
loop_
_atom_site_label
_atom_site_type_symbol
_atom_site_fract_x
_atom_site_fract_y
_atom_site_fract_z
N1 N 0.8017(3) 0.2507(3) -0.1300(2)
N2 N 0.8751(3) 0.5731(3) -0.0489(3)
N3 N 0.5717(3) 0.7584(3) 0.5593(3)
C1 C 0.7284(4) 0.0280(4) 0.4287(3)
C2 C 0.6966(3) -0.0690(3) 0.3330(3)
C3 C 0.7884(5) 0.0935(4) 0.4823(4)
H1 H 0.7814 0.0798 0.5216
H2 H 0.8426 0.1019 0.4753
C4 C 0.7218(4) -0.1005(5) 0.2751(3)
H3 H 0.6830 -0.1527 0.2545
H4 H 0.7749 -0.0981 0.2857
C5 C 0.5157(4) -0.1186(4) 0.4097(4)
H5 H 0.5062 -0.1708 0.3966
H6 H 0.5224 -0.1038 0.4559
C6 C -0.0997(3) 0.0746(3) 0.1354(3)
C7 C -0.0943(3) 0.0675(3) 0.0723(4)
C8 C -0.0862(3) 0.1265(3) 0.0485(4)
C9 C -0.0792(3) 0.1929(3) 0.0884(4)
C10 C -0.0879(3) 0.1984(3) 0.1503(3)
C11 C -0.0961(3) 0.1399(3) 0.1760(3)
C12 C -0.1144(3) 0.0094(3) 0.1603(4)
H7 H -0.1341 0.0164 0.2002
H8 H -0.1554 -0.0367 0.1300
C13 C -0.0962(4) -0.0017(4) 0.0313(4)
H9 H -0.0762 -0.0247 0.0569
H10 H -0.0626 0.0105 0.0000
H11 H -0.1510 -0.0361 0.0101
C14 C -0.0895(4) 0.1168(4) -0.0198(4)
H12 H -0.1147 0.1464 -0.0314
H13 H -0.1254 0.0643 -0.0421
C15 C -0.0614(4) 0.2577(3) 0.0642(4)
H14 H -0.0531 0.2456 0.0210
H15 H -0.0132 0.3002 0.0903
H16 H -0.1062 0.2701 0.0655
C16 C -0.0922(4) 0.2649(3) 0.1915(4)
H17 H -0.1251 0.2786 0.1658
H18 H -0.1218 0.2490 0.2245
C17 C -0.0986(4) 0.1481(4) 0.2437(3)
H19 H -0.1541 0.1284 0.2496
H20 H -0.0701 0.2006 0.2676
H21 H -0.0733 0.1208 0.2585
C18 C 0.8440(4) 0.8386(4) 0.6149(4)
C19 C 0.8681(5) 0.9497(4) 0.5002(4)
H22 H 0.9241 0.9827 0.5210
H23 H 0.8411 0.9813 0.4992
C20 C 0.7591(3) 0.1819(3) -0.1420(3)
H24 H 0.7413 0.1537 -0.1848
C21 C 0.5146(4) 0.7683(5) 0.5339(4)
H25 H 0.5146 0.8152 0.5421
N4 N 0.5632(3) 0.3574(3) -0.2236(3)
N5 N 0.8675(8) 0.9109(5) 0.4325(4)
N6 N 0.9079(6) 0.7608(5) 0.6394(4)
N7 N -0.0195(5) 0.3319(5) 0.2224(5)
N8 N -0.0137(3) 0.1370(3) -0.0443(3)
N9 N -0.0382(8) 0.0033(9) 0.1708(7)
N10 N 0.4439(9) -0.1185(8) 0.3872(8)
N11 N 0.7833(6) 0.1631(4) 0.4908(5)
N12 N 0.7247(6) -0.0510(7) 0.2313(5)
C22 C 0.6489(4) -0.0067(4) 0.4365(3)
C23 C 0.7527(3) -0.0015(3) 0.3761(3)
C24 C 0.6192(3) -0.1040(3) 0.3421(3)
C25 C 0.5970(3) -0.0737(3) 0.3946(3)
C26 C 0.6208(5) 0.0285(5) 0.4926(4)
H26 H 0.6202 0.0046 0.5254
H27 H 0.5670 0.0220 0.4792
H28 H 0.6573 0.0814 0.5090
C27 C 0.8351(4) 0.0362(5) 0.3649(4)
H29 H 0.8556 0.0898 0.3823
H30 H 0.8349 0.0239 0.3198
H31 H 0.8692 0.0197 0.3852
C28 C 0.5590(4) -0.1744(4) 0.2931(4)
H32 H 0.5681 -0.1705 0.2513
H33 H 0.5050 -0.1812 0.2972
H34 H 0.5653 -0.2168 0.2994
C29 C 0.8029(3) 0.3438(3) -0.1800(3)
C30 C 0.7299(3) 0.3309(4) -0.2129(3)
C31 C 0.7115(4) 0.3884(4) -0.2117(4)
C32 C 0.7638(4) 0.4604(4) -0.1741(4)
C33 C 0.8376(4) 0.4732(4) -0.1430(4)
C34 C 0.8571(3) 0.4150(3) -0.1447(3)
C35 C 0.8233(3) 0.2805(3) -0.1837(3)
H35 H 0.7941 0.2409 -0.2233
H36 H 0.8811 0.2978 -0.1832
C36 C 0.6696(4) 0.2525(4) -0.2493(4)
H37 H 0.6751 0.2430 -0.2933
H38 H 0.6156 0.2466 -0.2460
H39 H 0.6791 0.2173 -0.2319
C37 C 0.6352(4) 0.3764(4) -0.2504(4)
H40 H 0.6464 0.4222 -0.2620
H41 H 0.6233 0.3367 -0.2897
C38 C 0.7419(4) 0.5237(4) -0.1679(5)
H42 H 0.7588 0.5464 -0.2014
H43 H 0.7686 0.5607 -0.1272
H44 H 0.6841 0.5047 -0.1712
C39 C 0.8964(4) 0.5526(4) -0.1082(4)
H45 H 0.9510 0.5572 -0.1021
H46 H 0.8952 0.5858 -0.1328
C40 C 0.9331(4) 0.4281(4) -0.1075(4)
H47 H 0.9239 0.3862 -0.0913
H48 H 0.9522 0.4735 -0.0726
H49 H 0.9732 0.4333 -0.1344
C41 C 0.7505(4) 0.8793(3) 0.5485(3)
C42 C 0.8289(4) 0.8998(4) 0.5406(4)
C43 C 0.8749(4) 0.8765(4) 0.5722(4)
C44 C 0.7649(4) 0.8190(4) 0.6229(4)
C45 C 0.7187(4) 0.8401(3) 0.5891(3)
C46 C 0.6988(4) 0.8994(5) 0.5098(4)
H50 H 0.6966 0.9439 0.5349
H51 H 0.6449 0.8584 0.4967
H52 H 0.7213 0.9089 0.4727
C47 C 0.9603(4) 0.8949(4) 0.5599(5)
H53 H 0.9987 0.9385 0.5931
H54 H 0.9650 0.9050 0.5194
H55 H 0.9713 0.8528 0.5593
C48 C 0.8967(6) 0.8250(5) 0.6566(4)
H56 H 0.9500 0.8677 0.6657
H57 H 0.8769 0.8264 0.6966
C49 C 0.7306(6) 0.7713(6) 0.6668(5)
H58 H 0.7489 0.7330 0.6610
H59 H 0.6723 0.7480 0.6569
H60 H 0.7488 0.8027 0.7103
C50 C 0.6360(4) 0.8261(4) 0.6021(4)
H61 H 0.6339 0.8231 0.6455
H62 H 0.6268 0.8688 0.5994
C51 C 0.0515(3) 0.1770(4) -0.0067(4)
H63 H 0.0513 0.1910 0.0368
C52 C 0.1280(3) 0.2026(3) -0.0288(4)
C53 C 0.1307(4) 0.1777(3) -0.0917(4)
H64 H 0.0829 0.1435 -0.1206
C54 C 0.2016(3) 0.2021(3) -0.1121(3)
H65 H 0.2025 0.1846 -0.1552
C55 C 0.2732(3) 0.2525(3) -0.0708(3)
C56 C 0.2702(4) 0.2763(4) -0.0087(4)
H66 H 0.3179 0.3101 0.0203
C57 C 0.1976(4) 0.2512(4) 0.0123(4)
H67 H 0.1965 0.2680 0.0554
C58 C 0.3478(3) 0.2799(3) -0.0953(3)
C59 C 0.3497(4) 0.2955(3) -0.1515(3)
H68 H 0.3020 0.2896 -0.1742
C60 C 0.4187(3) 0.3195(3) -0.1762(3)
H69 H 0.4183 0.3307 -0.2148
C61 C 0.4890(3) 0.3271(3) -0.1437(3)
C62 C 0.4885(4) 0.3134(3) -0.0864(3)
H70 H 0.5364 0.3199 -0.0635
C63 C 0.4193(4) 0.2902(4) -0.0619(4)
H71 H 0.4202 0.2813 -0.0223
C64 C 0.5625(4) 0.3488(4) -0.1702(4)
H72 H 0.6103 0.3566 -0.1462
C65 C 0.4497(8) -0.0733(9) 0.3592(9)
H73 H 0.5005 -0.0435 0.3513
C66 C 0.3797(3) -0.0635(5) 0.3370(5)
C67 C 0.3059(4) -0.1049(5) 0.3504(4)
H74 H 0.3002 -0.1401 0.3722
C68 C 0.2405(3) -0.0948(5) 0.3317(4)
H75 H 0.1901 -0.1231 0.3408
C69 C 0.2489(4) -0.0433(5) 0.2997(4)
C70 C 0.3227(5) -0.0019(5) 0.2864(4)
H76 H 0.3285 0.0333 0.2645
C71 C 0.3882(4) -0.0120(5) 0.3050(4)
H77 H 0.4386 0.0163 0.2959
C72 C 0.0450(3) -0.0172(5) 0.2411(3)
C73 C 0.0627(4) -0.0167(5) 0.3023(3)
H78 H 0.0295 -0.0106 0.3312
C74 C 0.1290(4) -0.0253(5) 0.3214(3)
H79 H 0.1411 -0.0250 0.3633
C75 C 0.1777(3) -0.0343(4) 0.2792(3)
C76 C 0.1600(4) -0.0347(5) 0.2179(3)
H80 H 0.1932 -0.0409 0.1891
C77 C 0.0937(4) -0.0262(5) 0.1988(3)
H81 H 0.0816 -0.0265 0.1570
C78 C -0.0242(6) -0.0065(6) 0.2217(6)
H82 H -0.0601 -0.0070 0.2498
C79 C 0.7365(5) 0.1445(3) -0.0987(3)
C80 C 0.7540(5) 0.1831(3) -0.0355(4)
H83 H 0.7762 0.2355 -0.0227
C81 C 0.7389(5) 0.1449(3) 0.0089(3)
H84 H 0.7509 0.1713 0.0521
C82 C 0.7064(5) 0.0682(3) -0.0098(4)
C83 C 0.6889(5) 0.0296(3) -0.0730(4)
H85 H 0.6666 -0.0228 -0.0858
C84 C 0.7040(5) 0.0678(3) -0.1174(3)
H86 H 0.6920 0.0414 -0.1606
C85 C 0.6878(4) -0.0490(3) 0.1294(3)
C86 C 0.6963(4) 0.0228(3) 0.1469(3)
H87 H 0.6991 0.0467 0.1894
C87 C 0.7008(4) 0.0598(3) 0.1021(3)
H88 H 0.7066 0.1089 0.1141
C88 C 0.6968(4) 0.0248(3) 0.0399(3)
C89 C 0.6882(4) -0.0471(3) 0.0224(3)
H89 H 0.6855 -0.0710 -0.0201
C90 C 0.6837(4) -0.0840(3) 0.0672(4)
H90 H 0.6779 -0.1332 0.0552
C91 C 0.6912(5) -0.0859(6) 0.1769(6)
H91 H 0.6666 -0.1384 0.1651
C92 C 0.0450(6) 0.3263(6) 0.2285(5)
H92 H 0.0474 0.2817 0.2087
C93 C 0.1178(6) 0.3937(6) 0.2687(5)
C94 C 0.1810(6) 0.3827(6) 0.2904(5)
H93 H 0.1802 0.3355 0.2772
C95 C 0.2467(6) 0.4436(6) 0.3327(5)
H94 H 0.2897 0.4366 0.3494
C96 C 0.2498(5) 0.5134(6) 0.3503(5)
C97 C 0.1872(6) 0.5243(7) 0.3262(5)
H95 H 0.1889 0.5720 0.3370
C98 C 0.1194(6) 0.4610(6) 0.2843(5)
H96 H 0.0757 0.4669 0.2676
C99 C 0.4453(4) 0.6953(4) 0.4880(4)
C100 C 0.4304(5) 0.6229(5) 0.4834(4)
H97 H 0.4632 0.6134 0.5104
C101 C 0.3674(5) 0.5644(4) 0.4393(4)
H98 H 0.3572 0.5149 0.4361
C102 C 0.3195(4) 0.5784(4) 0.3997(3)
C103 C 0.3344(4) 0.6508(4) 0.4043(3)
H99 H 0.3016 0.6603 0.3773
C104 C 0.3974(4) 0.7093(4) 0.4485(4)
H100 H 0.4076 0.7588 0.4516
C105 C 0.8538(7) 0.2176(5) 0.4962(6)
H101 H 0.9000 0.2098 0.4984
C106 C 0.8604(4) 0.2929(3) 0.4989(4)
C107 C 0.7931(3) 0.3033(3) 0.4878(4)
H102 H 0.7422 0.2619 0.4733
C108 C 0.8003(4) 0.3745(4) 0.4981(4)
H103 H 0.7544 0.3816 0.4905
C109 C 0.8748(4) 0.4351(3) 0.5193(4)
C110 C 0.9421(3) 0.4247(3) 0.5303(4)
H104 H 0.9930 0.4662 0.5449
C111 C 0.9349(3) 0.3536(3) 0.5201(4)
H105 H 0.9809 0.3464 0.5277
C112 C 0.8812(5) 0.6501(3) 0.5623(4)
C113 C 0.8265(5) 0.5944(4) 0.5112(4)
H106 H 0.7904 0.6038 0.4874
C114 C 0.8246(4) 0.5249(3) 0.4950(3)
H107 H 0.7872 0.4868 0.4601
C115 C 0.8774(4) 0.5112(3) 0.5299(3)
C116 C 0.9321(4) 0.5669(3) 0.5809(3)
H108 H 0.9682 0.5575 0.6047
C117 C 0.9341(4) 0.6364(3) 0.5971(3)
H109 H 0.9715 0.6745 0.6320
C118 C 0.8788(10) 0.7192(6) 0.5854(5)
H110 H 0.8532 0.7341 0.5576
C119 C 0.9347(6) 0.6138(5) 0.0002(5)
H111 H 0.9882 0.6241 -0.0031
C120 C 0.9160(7) 0.6381(6) 0.0518(8)
C121 C 0.8388(7) 0.6104(7) 0.0667(8)
H112 H 0.7959 0.5707 0.0361
C122 C 0.8238(8) 0.6389(7) 0.1239(8)
H113 H 0.7711 0.6179 0.1319
C123 C 0.8838(7) 0.6981(7) 0.1707(7)
C124 C 0.9622(8) 0.7275(9) 0.1570(8)
H114 H 1.0051 0.7691 0.1860
C125 C 0.9736(9) 0.6924(9) 0.0985(8)
H115 H 1.0268 0.7088 0.0915
C126 C 0.8665(7) 0.7331(6) 0.2312(6)
C127 C 0.8136(9) 0.6939(8) 0.2622(7)
H116 H 0.7854 0.6418 0.2445
C128 C 0.7980(10) 0.7259(8) 0.3189(8)
H117 H 0.7612 0.6965 0.3401
C129 C 0.8389(9) 0.8033(8) 0.3434(8)
C130 C 0.8928(8) 0.8429(8) 0.3098(8)
H118 H 0.9211 0.8952 0.3264
C131 C 0.9060(8) 0.8111(7) 0.2563(7)
H119 H 0.9419 0.8404 0.2346
C132 C 0.8319(7) 0.8412(5) 0.4053(6)
H120 H 0.7976 0.8111 0.4274
C133 C 0.5398(14) 0.1542(12) 0.1135(6)
H121 H 0.5864 0.2023 0.1221
H122 H 0.5490 0.1268 0.1405
H123 H 0.4929 0.1617 0.1218
C134 C 0.5257(8) 0.1103(7) 0.0449(5)
H124 H 0.5630 0.0878 0.0409
H125 H 0.4711 0.0692 0.0339
C135 C 0.5355(6) 0.1526(6) -0.0030(4)
H126 H 0.5892 0.1951 0.0082
H127 H 0.4958 0.1723 -0.0018
C136 C 0.5245(4) 0.1039(4) -0.0692(3)
H128 H 0.4707 0.0616 -0.0800
H129 H 0.5637 0.0837 -0.0698
C137 C 0.5344(4) 0.1440(4) -0.1200(4)
H130 H 0.4948 0.1635 -0.1208
H131 H 0.5882 0.1863 -0.1102
C138 C 0.5232(5) 0.0916(5) -0.1826(4)
H132 H 0.5211 0.1150 -0.2153
H133 H 0.4733 0.0466 -0.1896
H134 H 0.5678 0.0790 -0.1840
Cl1 Cl 0.3873(7) 0.4354(6) 0.5284(6)
Cl2 Cl 0.4255(5) 0.4150(5) 0.4085(5)
C139 C 0.3716(19) 0.3691(10) 0.4584(8)
H135 H 0.3143 0.3421 0.4397
H136 H 0.3900 0.3330 0.4657
Cl3 Cl 0.1383(3) 0.2055(3) 0.1683(2)
Cl4 Cl 0.2133(2) 0.1097(3) 0.1280(2)
C140 C 0.1263(6) 0.1214(6) 0.1211(6)
H137 H 0.1098 0.1173 0.0770
H138 H 0.0831 0.0811 0.1322
Cl5 Cl 0.5892(5) 0.5814(4) 0.3090(4)
Cl6 Cl 0.6134(3) 0.7208(3) 0.3897(3)
C141 C 0.5441(8) 0.6334(6) 0.3462(7)
H139 H 0.5084 0.6373 0.3144
H140 H 0.5113 0.6080 0.3739
Cl7 Cl 0.69525(14) 0.36480(18) 0.01026(15)
Cl8 Cl 0.86172(14) 0.41313(16) 0.04722(15)
C142 C 0.7868(3) 0.3947(4) -0.0129(4)
H141 H 0.7986 0.4401 -0.0254
H142 H 0.7851 0.3563 -0.0497
C143 C 0.0150(15) 0.6164(15) 0.2844(14)
H143 H 0.0475 0.5905 0.2705
H144 H -0.0054 0.6255 0.2470
C144 C -0.0916(18) 0.5139(17) 0.2373(14)
H145 H -0.0561 0.4904 0.2271
H146 H -0.0811 0.5492 0.2124
C145 C 0.0709(16) 0.6912(16) 0.3296(16)
H147 H 0.0530 0.6951 0.3704
H148 H 0.0675 0.7303 0.3135
C146 C -0.057(2) 0.563(2) 0.3046(15)
H149 H -0.0902 0.5855 0.3231
H150 H -0.0424 0.5381 0.3324
C147 C 0.1575(15) 0.705(2) 0.340(2)
H151 H 0.1716 0.6998 0.3806
H152 H 0.1920 0.7547 0.3381
H153 H 0.1644 0.6684 0.3068
C148 C -0.175(2) 0.452(3) 0.207(3)
H154 H -0.1769 0.4325 0.1622
H155 H -0.1886 0.4129 0.2268
H156 H -0.2139 0.4726 0.2119
C149 C 0.5052(14) 0.4949(13) 0.0291(9)
H157 H 0.4601 0.4477 0.0287
H158 H 0.5005 0.5349 0.0603
C150 C 0.5805(17) 0.4929(16) 0.0526(14)
H159 H 0.6245 0.5417 0.0555
H160 H 0.5871 0.4563 0.0189
C151 C 0.596(2) 0.4764(19) 0.1129(16)
H161 H 0.5732 0.4984 0.1449
H162 H 0.6538 0.4972 0.1272
H163 H 0.5719 0.4227 0.1057
C149A C 0.4948(14) 0.5051(13) -0.0291(9)
H157A H 0.5399 0.5523 -0.0287
H158A H 0.4995 0.4651 -0.0603
C150A C 0.4195(17) 0.5071(16) -0.0526(14)
H159A H 0.3755 0.4583 -0.0555
H160A H 0.4129 0.5437 -0.0189
C151A C 0.404(2) 0.5236(19) -0.1129(16)
H161A H 0.4268 0.5016 -0.1449
H162A H 0.3462 0.5028 -0.1272
H163A H 0.4281 0.5773 -0.1057
O1 O 0.5640(17) 0.3031(15) 0.3175(13)
O2 O 0.289(3) 0.248(3) 0.156(2)
H164? H 0.8402 0.0921 0.4880
H165? H 0.7681 0.0955 0.5221
H166? H 0.7808 -0.0761 0.2852
H167? H 0.7051 -0.1529 0.2733
H168? H 0.5214 -0.1123 0.4553
H169? H 0.4971 -0.1717 0.3879
H170? H -0.1557 0.0052 0.1865
H171? H -0.1376 -0.0357 0.1240
H172? H -0.1417 0.2475 0.2090
H173? H -0.0965 0.2955 0.1651
H174? H 0.8308 0.9688 0.4886
H175? H 0.9160 0.9927 0.5274
H176? H 0.7426 0.1513 -0.1841
H177? H 0.5242 0.8186 0.5466
H178? H 0.8768 0.8182 0.6957
H179? H 0.9524 0.8641 0.6666
N13? N 0.8924(12) 0.9227(6) 0.4434(7)
N14? N 0.885(3) 0.7427(16) 0.6052(11)
N15? N -0.0206(13) 0.3152(10) 0.2469(13)
N16? N -0.0475(9) 0.0076(9) 0.1975(8)
N17? N 0.4522(12) -0.0941(13) 0.3897(14)
N18? N 0.7947(16) 0.1604(11) 0.4572(14)
N19? N 0.7037(10) -0.1020(11) 0.2133(8)
C152? C 0.4651(14) -0.0506(14) 0.3556(13)
H180? H 0.5168 -0.0279 0.3460
C153? C 0.4001(5) -0.0343(6) 0.3299(6)
C154? C 0.3219(5) -0.0743(6) 0.3361(5)
H181? H 0.3091 -0.1122 0.3560
C155? C 0.2623(4) -0.0591(5) 0.3131(5)
H182? H 0.2088 -0.0865 0.3174
C156? C 0.2809(5) -0.0037(6) 0.2840(5)
C157? C 0.3591(6) 0.0364(6) 0.2778(5)
H183? H 0.3719 0.0743 0.2579
C158? C 0.4187(5) 0.0211(6) 0.3008(6)
H184? H 0.4722 0.0485 0.2966
C159? C 0.0881(4) 0.0329(5) 0.2123(5)
C160? C 0.0825(4) 0.0031(6) 0.2621(5)
H185? H 0.0356 -0.0102 0.2797
C161? C 0.1455(5) -0.0071(5) 0.2861(4)
H186? H 0.1416 -0.0275 0.3201
C162? C 0.2141(4) 0.0124(5) 0.2603(4)
C163? C 0.2198(4) 0.0421(5) 0.2105(4)
H187? H 0.2667 0.0555 0.1929
C164? C 0.1568(5) 0.0524(5) 0.1865(4)
H188? H 0.1607 0.0727 0.1525
C165? C 0.0174(8) 0.0384(7) 0.1830(8)
H189? H 0.0231 0.0656 0.1536
C166? C 0.7027(8) 0.0749(6) 0.0103(6)
C167? C 0.7324(8) 0.1512(6) 0.0254(5)
H190? H 0.7428 0.1798 0.0678
C168? C 0.7468(9) 0.1858(4) -0.0215(6)
H191? H 0.7670 0.2380 -0.0111
C169? C 0.7315(9) 0.1440(6) -0.0835(6)
C170? C 0.7019(8) 0.0676(6) -0.0986(5)
H192? H 0.6915 0.0390 -0.1410
C171? C 0.6875(7) 0.0330(4) -0.0517(6)
H193? H 0.6672 -0.0192 -0.0621
C172? C 0.6844(6) -0.0200(5) 0.1601(5)
C173? C 0.6816(6) 0.0473(5) 0.1697(4)
H194? H 0.6765 0.0719 0.2096
C174? C 0.6863(6) 0.0786(4) 0.1210(5)
H195? H 0.6844 0.1246 0.1276
C175? C 0.6938(6) 0.0426(5) 0.0626(4)
C176? C 0.6966(6) -0.0247(5) 0.0529(5)
H196? H 0.7017 -0.0493 0.0130
C177? C 0.6919(6) -0.0559(5) 0.1017(5)
H197? H 0.6938 -0.1019 0.0951
C178? C 0.6854(10) -0.0480(10) 0.2166(10)
H198? H 0.6726 -0.0262 0.2541
C179? C 0.0066(13) 0.3864(11) 0.2539(13)
H199? H -0.0224 0.4013 0.2287
C180? C 0.2193(8) 0.5544(6) 0.3765(8)
C181? C 0.1805(8) 0.5710(5) 0.3321(8)
H200? H 0.2019 0.6198 0.3286
C182? C 0.1103(8) 0.5162(6) 0.2929(7)
H201? H 0.0837 0.5275 0.2626
C183? C 0.0789(7) 0.4447(5) 0.2981(8)
C184? C 0.1177(8) 0.4281(5) 0.3425(8)
H202? H 0.0963 0.3793 0.3460
C185? C 0.1880(8) 0.4830(7) 0.3817(8)
H203? H 0.2145 0.4716 0.4120
C186? C 0.4413(8) 0.7217(8) 0.4914(9)
C187? C 0.4269(10) 0.6481(9) 0.4734(11)
H204? H 0.4658 0.6345 0.4874
C188? C 0.3556(10) 0.5942(7) 0.4350(10)
H205? H 0.3457 0.5439 0.4227
C189? C 0.2986(8) 0.6140(7) 0.4145(8)
C190? C 0.3130(8) 0.6877(7) 0.4325(8)
H206? H 0.2741 0.7013 0.4185
C191? C 0.3844(8) 0.7415(6) 0.4709(8)
H207? H 0.3942 0.7919 0.4832
C192? C 0.8472(18) 0.2085(15) 0.4212(15)
H208? H 0.8856 0.1949 0.4041
C193? C 0.8445(11) 0.2769(7) 0.4097(11)
C194? C 0.7851(10) 0.2916(9) 0.4343(12)
H209? H 0.7431 0.2546 0.4461
C195? C 0.7872(11) 0.3606(10) 0.4417(12)
H210? H 0.7466 0.3706 0.4585
C196? C 0.8486(11) 0.4148(7) 0.4244(10)
C197? C 0.9080(9) 0.4001(8) 0.3998(8)
H211? H 0.9500 0.4371 0.3880
C198? C 0.9060(9) 0.3311(9) 0.3924(9)
H212? H 0.9466 0.3211 0.3755
C199? C 0.8507(11) 0.4961(7) 0.4409(8)
C200? C 0.7814(9) 0.5049(7) 0.4382(9)
H213? H 0.7331 0.4658 0.4129
C201? C 0.7828(9) 0.5707(9) 0.4723(9)
H214? H 0.7354 0.5767 0.4704
C202? C 0.8534(10) 0.6278(7) 0.5092(7)
C203? C 0.9227(9) 0.6191(8) 0.5120(9)
H215? H 0.9710 0.6581 0.5372
C204? C 0.9213(9) 0.5533(9) 0.4778(11)
H216? H 0.9687 0.5473 0.4797
C205? C 0.8606(16) 0.7003(10) 0.5476(9)
H217? H 0.8413 0.7222 0.5222
C206? C 0.9230(9) 0.6097(4) 0.0091(4)
H218? H 0.9745 0.6125 0.0070
C207? C 0.9204(5) 0.64624(19) 0.0742(3)
C208? C 0.9835(5) 0.7088(2) 0.1147(3)
H219? H 1.0342 0.7284 0.1030
C209? C 0.9723(6) 0.74264(18) 0.1724(3)
H220? H 1.0154 0.7854 0.2001
C210? C 0.8981(7) 0.71393(19) 0.1896(4)
C211? C 0.8351(6) 0.6514(2) 0.1491(5)
H221? H 0.7844 0.6318 0.1609
C212? C 0.8462(5) 0.61753(19) 0.0914(4)
H222? H 0.8031 0.5748 0.0637
C213? C 0.8912(7) 0.7497(2) 0.2520(4)
C214? C 0.9273(7) 0.8263(2) 0.2757(4)
H223? H 0.9625 0.8558 0.2538
C215? C 0.9117(7) 0.8598(2) 0.3315(4)
H224? H 0.9363 0.9122 0.3477
C216? C 0.8601(9) 0.8166(3) 0.3636(5)
C217? C 0.8240(8) 0.7400(3) 0.3398(5)
H225? H 0.7887 0.7105 0.3618
C218? C 0.8396(6) 0.7065(2) 0.2840(4)
H226? H 0.8149 0.6541 0.2678
C219? C 0.8524(11) 0.8523(3) 0.4255(5)
H227? H 0.8204 0.8254 0.4506
C220? C 0.843(2) 0.3652(16) 0.334(2)
H228? H 0.8844 0.3915 0.3717
H229? H 0.8667 0.3709 0.2971
H230? H 0.8043 0.3858 0.3367
C221? C 0.799(2) 0.2823(15) 0.330(2)
H231? H 0.8468 0.2732 0.3337
H232? H 0.7861 0.2877 0.3722
C222? C 0.7367(16) 0.2018(13) 0.2987(12)
H233? H 0.6859 0.2032 0.2870
H234? H 0.7526 0.1838 0.2592
C223? C 0.7187(12) 0.1434(16) 0.3324(15)
H235? H 0.7328 0.1044 0.3103
H236? H 0.7493 0.1657 0.3757
C224? C 0.6304(11) 0.1115(11) 0.3326(8)
H237? H 0.6104 0.0575 0.3252
H238? H 0.6052 0.1182 0.2961
C225? C 0.5998(9) 0.1397(8) 0.3890(7)
H239? H 0.5415 0.1131 0.3812
H240? H 0.6216 0.1317 0.4258
H241? H 0.6164 0.1927 0.3965
O3? O 0.1302(18) 0.2752(17) 0.2043(15)
H242? H 0.0265 0.6971 0.3477
H243? H 0.0765 0.7160 0.2964
C226? C 0.133(3) 0.761(2) 0.378(2)
H244? H 0.1202 0.8023 0.3784
H245? H 0.1342 0.7536 0.4190
H246? H 0.1858 0.7732 0.3660
O4? O 0.380(4) 0.379(3) 0.204(3)
O5? O 0.619(3) 0.517(3) -0.011(3)
O6? O 0.3058(17) 0.3313(16) 0.5447(14)
O7? O 0.349(3) 0.397(3) 0.472(2)
O8? O 0.388(2) 0.301(2) 0.1582(18)
loop_
_geom_bond_atom_site_label_1
_geom_bond_atom_site_label_2
_geom_bond_site_symmetry_1
_geom_bond_site_symmetry_2
N1 C20 1_555 1_555
N2 C39 1_555 1_555
N3 C21 1_555 1_555
C1 C3 1_555 1_555
C2 C4 1_555 1_555
C3 H1 1_555 1_555
H2 C3 1_555 1_555
C4 H3 1_555 1_555
H4 C4 1_555 1_555
C5 H5 1_555 1_555
H6 C5 1_555 1_555
C6 C7 1_555 1_555
C7 C8 1_555 1_555
C8 C9 1_555 1_555
C9 C10 1_555 1_555
C10 C11 1_555 1_555
C11 C6 1_555 1_555
C12 C6 1_555 1_555
H7 C12 1_555 1_555
H8 C12 1_555 1_555
C13 C7 1_555 1_555
H9 C13 1_555 1_555
H10 C13 1_555 1_555
H11 C13 1_555 1_555
C14 C8 1_555 1_555
H12 C14 1_555 1_555
H13 C14 1_555 1_555
C15 C9 1_555 1_555
H14 C15 1_555 1_555
H15 C15 1_555 1_555
H16 C15 1_555 1_555
C16 C10 1_555 1_555
H17 C16 1_555 1_555
H18 C16 1_555 1_555
C17 C11 1_555 1_555
H19 C17 1_555 1_555
H20 C17 1_555 1_555
H21 C17 1_555 1_555
C18 C43 1_555 1_555
C19 H22 1_555 1_555
H23 C19 1_555 1_555
C20 H24 1_555 1_555
C21 H25 1_555 1_555
N4 C37 1_555 1_555
N5 C19 1_555 1_555
N6 C48 1_555 1_555
N7 C16 1_555 1_555
N8 C14 1_555 1_555
N9 C12 1_555 1_555
N10 C5 1_555 1_555
N11 C3 1_555 1_555
N12 C4 1_555 1_555
C22 C1 1_555 1_555
C23 C1 1_555 1_555
C24 C2 1_555 1_555
C25 C5 1_555 1_555
C26 C22 1_555 1_555
H26 C26 1_555 1_555
H27 C26 1_555 1_555
H28 C26 1_555 1_555
C27 C23 1_555 1_555
H29 C27 1_555 1_555
H30 C27 1_555 1_555
H31 C27 1_555 1_555
C28 C24 1_555 1_555
H32 C28 1_555 1_555
H33 C28 1_555 1_555
H34 C28 1_555 1_555
C29 C30 1_555 1_555
C30 C31 1_555 1_555
C31 C32 1_555 1_555
C32 C33 1_555 1_555
C33 C34 1_555 1_555
C34 C29 1_555 1_555
C35 N1 1_555 1_555
H35 C35 1_555 1_555
H36 C35 1_555 1_555
C36 C30 1_555 1_555
H37 C36 1_555 1_555
H38 C36 1_555 1_555
H39 C36 1_555 1_555
C37 C31 1_555 1_555
H40 C37 1_555 1_555
H41 C37 1_555 1_555
C38 C32 1_555 1_555
H42 C38 1_555 1_555
H43 C38 1_555 1_555
H44 C38 1_555 1_555
C39 C33 1_555 1_555
H45 C39 1_555 1_555
H46 C39 1_555 1_555
C40 C34 1_555 1_555
H47 C40 1_555 1_555
H48 C40 1_555 1_555
H49 C40 1_555 1_555
C41 C42 1_555 1_555
C42 C19 1_555 1_555
C43 C42 1_555 1_555
C44 C18 1_555 1_555
C45 C41 1_555 1_555
C46 C41 1_555 1_555
H50 C46 1_555 1_555
H51 C46 1_555 1_555
H52 C46 1_555 1_555
C47 C43 1_555 1_555
H53 C47 1_555 1_555
H54 C47 1_555 1_555
H55 C47 1_555 1_555
C48 C18 1_555 1_555
H56 C48 1_555 1_555
H57 C48 1_555 1_555
C49 C44 1_555 1_555
H58 C49 1_555 1_555
H59 C49 1_555 1_555
H60 C49 1_555 1_555
C50 N3 1_555 1_555
H61 C50 1_555 1_555
H62 C50 1_555 1_555
C51 N8 1_555 1_555
H63 C51 1_555 1_555
C52 C51 1_555 1_555
C53 C52 1_555 1_555
H64 C53 1_555 1_555
C54 C53 1_555 1_555
H65 C54 1_555 1_555
C55 C54 1_555 1_555
C56 C55 1_555 1_555
H66 C56 1_555 1_555
C57 C52 1_555 1_555
H67 C57 1_555 1_555
C58 C55 1_555 1_555
C59 C58 1_555 1_555
H68 C59 1_555 1_555
C60 C59 1_555 1_555
H69 C60 1_555 1_555
C61 C60 1_555 1_555
C62 C61 1_555 1_555
H70 C62 1_555 1_555
C63 C58 1_555 1_555
H71 C63 1_555 1_555
C64 N4 1_555 1_555
H72 C64 1_555 1_555
C65 N10 1_555 1_555
H73 C65 1_555 1_555
C66 C65 1_555 1_555
C67 C66 1_555 1_555
H74 C67 1_555 1_555
C68 C67 1_555 1_555
H75 C68 1_555 1_555
C69 C68 1_555 1_555
C70 C69 1_555 1_555
H76 C70 1_555 1_555
C71 C66 1_555 1_555
H77 C71 1_555 1_555
C72 C73 1_555 1_555
C73 H78 1_555 1_555
C74 C73 1_555 1_555
H79 C74 1_555 1_555
C75 C69 1_555 1_555
C76 C75 1_555 1_555
H80 C76 1_555 1_555
C77 C72 1_555 1_555
H81 C77 1_555 1_555
C78 N9 1_555 1_555
H82 C78 1_555 1_555
C79 C20 1_555 1_555
C80 C79 1_555 1_555
H83 C80 1_555 1_555
C81 C80 1_555 1_555
H84 C81 1_555 1_555
C82 C81 1_555 1_555
C83 C82 1_555 1_555
H85 C83 1_555 1_555
C84 C79 1_555 1_555
H86 C84 1_555 1_555
C85 C86 1_555 1_555
C86 H87 1_555 1_555
C87 C86 1_555 1_555
H88 C87 1_555 1_555
C88 C82 1_555 1_555
C89 C88 1_555 1_555
H89 C89 1_555 1_555
C90 C85 1_555 1_555
H90 C90 1_555 1_555
C91 N12 1_555 1_555
H91 C91 1_555 1_555
C92 N7 1_555 1_555
H92 C92 1_555 1_555
C93 C92 1_555 1_555
C94 C93 1_555 1_555
H93 C94 1_555 1_555
C95 C94 1_555 1_555
H94 C95 1_555 1_555
C96 C95 1_555 1_555
C97 C96 1_555 1_555
H95 C97 1_555 1_555
C98 C93 1_555 1_555
H96 C98 1_555 1_555
C99 C21 1_555 1_555
C100 C99 1_555 1_555
H97 C100 1_555 1_555
C101 C100 1_555 1_555
H98 C101 1_555 1_555
C102 C96 1_555 1_555
C103 C102 1_555 1_555
H99 C103 1_555 1_555
C104 C99 1_555 1_555
H100 C104 1_555 1_555
C105 N11 1_555 1_555
H101 C105 1_555 1_555
C106 C105 1_555 1_555
C107 C106 1_555 1_555
H102 C107 1_555 1_555
C108 C107 1_555 1_555
H103 C108 1_555 1_555
C109 C108 1_555 1_555
C110 C109 1_555 1_555
H104 C110 1_555 1_555
C111 C106 1_555 1_555
H105 C111 1_555 1_555
C112 C113 1_555 1_555
C113 H106 1_555 1_555
C114 C113 1_555 1_555
H107 C114 1_555 1_555
C115 C109 1_555 1_555
C116 C115 1_555 1_555
H108 C116 1_555 1_555
C117 C112 1_555 1_555
H109 C117 1_555 1_555
C118 N6 1_555 1_555
H110 C118 1_555 1_555
C119 N2 1_555 1_555
H111 C119 1_555 1_555
C120 C119 1_555 1_555
C121 C120 1_555 1_555
H112 C121 1_555 1_555
C122 C121 1_555 1_555
H113 C122 1_555 1_555
C123 C122 1_555 1_555
C124 C123 1_555 1_555
H114 C124 1_555 1_555
C125 C120 1_555 1_555
H115 C125 1_555 1_555
C126 C123 1_555 1_555
C127 C126 1_555 1_555
H116 C127 1_555 1_555
C128 C127 1_555 1_555
H117 C128 1_555 1_555
C129 C128 1_555 1_555
C130 C129 1_555 1_555
H118 C130 1_555 1_555
C131 C126 1_555 1_555
H119 C131 1_555 1_555
C132 N5 1_555 1_555
H120 C132 1_555 1_555
C133 H121 1_555 1_555
H122 C133 1_555 1_555
H123 C133 1_555 1_555
C134 C133 1_555 1_555
H124 C134 1_555 1_555
H125 C134 1_555 1_555
C135 C134 1_555 1_555
H126 C135 1_555 1_555
H127 C135 1_555 1_555
C136 C135 1_555 1_555
H128 C136 1_555 1_555
H129 C136 1_555 1_555
C137 C136 1_555 1_555
H130 C137 1_555 1_555
H131 C137 1_555 1_555
C138 C137 1_555 1_555
H132 C138 1_555 1_555
H133 C138 1_555 1_555
H134 C138 1_555 1_555
Cl1 C139 1_555 1_555
Cl2 C139 1_555 1_555
C139 H135 1_555 1_555
H136 C139 1_555 1_555
Cl3 C140 1_555 1_555
Cl4 C140 1_555 1_555
C140 H137 1_555 1_555
H138 C140 1_555 1_555
Cl5 C141 1_555 1_555
Cl6 C141 1_555 1_555
C141 H139 1_555 1_555
H140 C141 1_555 1_555
Cl7 C142 1_555 1_555
Cl8 C142 1_555 1_555
C142 H141 1_555 1_555
H142 C142 1_555 1_555
C143 H143 1_555 1_555
H144 C143 1_555 1_555
C144 H145 1_555 1_555
H146 C144 1_555 1_555
C145 C143 1_555 1_555
H147 C145 1_555 1_555
H148 C145 1_555 1_555
C146 C143 1_555 1_555
H149 C146 1_555 1_555
H150 C146 1_555 1_555
C147 C145 1_555 1_555
H151 C147 1_555 1_555
H152 C147 1_555 1_555
H153 C147 1_555 1_555
C148 C144 1_555 1_555
H154 C148 1_555 1_555
H155 C148 1_555 1_555
H156 C148 1_555 1_555
C149 H157 1_555 1_555
H158 C149 1_555 1_555
C150 C149 1_555 1_555
H159 C150 1_555 1_555
H160 C150 1_555 1_555
C151 C150 1_555 1_555
H161 C151 1_555 1_555
H162 C151 1_555 1_555
H163 C151 1_555 1_555
C149A C149 1_555 1_555
H157A C149A 1_555 1_555
H158A C149A 1_555 1_555
C150A C149A 1_555 1_555
H159A C150A 1_555 1_555
H160A C150A 1_555 1_555
C151A C150A 1_555 1_555
H161A C151A 1_555 1_555
H162A C151A 1_555 1_555
H163A C151A 1_555 1_555
C2 C23 1_555 1_555
C22 C25 1_555 1_555
C24 C25 1_555 1_555
C29 C35 1_555 1_555
C44 C45 1_555 1_555
C45 C50 1_555 1_555
C56 C57 1_555 1_555
C61 C64 1_555 1_555
C62 C63 1_555 1_555
C70 C71 1_555 1_555
C72 C78 1_555 1_555
C74 C75 1_555 1_555
C76 C77 1_555 1_555
C83 C84 1_555 1_555
C85 C91 1_555 1_555
C87 C88 1_555 1_555
C89 C90 1_555 1_555
C97 C98 1_555 1_555
C101 C102 1_555 1_555
C103 C104 1_555 1_555
C110 C111 1_555 1_555
C112 C118 1_555 1_555
C114 C115 1_555 1_555
C116 C117 1_555 1_555
C124 C125 1_555 1_555
C129 C132 1_555 1_555
C130 C131 1_555 1_555
C144 C146 1_555 1_555

#END
