
#######################################################################
#
#                 Cambridge Crystallographic Data Centre
#                                CCDC 
#
#######################################################################
#
# If this CIF has been generated from an entry in the Cambridge 
# Structural Database, then it will include bibliographic, chemical, 
# crystal, experimental, refinement or atomic coordinate data resulting 
# from the CCDC's data processing and validation procedures.
#
#######################################################################

data_PIFWAF
_chemical_formula_moiety         
'C132 H120 N16,7.75(C1 H2 Cl2),0.5(H2 O1),4.5(C6 H14)'
_chemical_name_systematic        
'2,10,12,20,22,30,32,40,41,48,49,53(1,4)-dodecabenzena-1,4,8,11,14,18,21,24,28,31,34,38,43,46,51,55-hexadecaaza-6,16,26,36(1,3,5)-tetrakis(2,4,6-trimethylbenzena)pentacyclo[24.14.4.4^6,21^.4^11,36^.4^16,31^]hexapentacontaphane-3,8,13,18,23,28,33,38,42,46,50,54-dodecaene dichloromethane hexane solvate hemihydrate'
_symmetry_cell_setting           triclinic
_symmetry_space_group_name_H-M   'P -1'
_symmetry_Int_Tables_number      2
_space_group_name_Hall           '-P 1'
loop_
_symmetry_equiv_pos_site_id
_symmetry_equiv_pos_as_xyz
1 x,y,z
2 -x,-y,-z
_cell_length_a                   15.989(4)
_cell_length_b                   17.472(5)
_cell_length_c                   31.697(8)
_cell_angle_alpha                94.735(3)
_cell_angle_beta                 102.180(3)
_cell_angle_gamma                109.008(3)
_cell_volume                     8073.22
_exptl_crystal_colour            colorless
_exptl_crystal_description       block
_cell_formula_units_Z            2
loop_
_atom_site_label
_atom_site_type_symbol
_atom_site_fract_x
_atom_site_fract_y
_atom_site_fract_z
Cl3 Cl 0.8868(3) 0.7488(2) 0.21270(13)
Cl4 Cl 0.8279(5) 0.7699(4) 0.1319(3)
C2 C 0.8915(4) 0.7309(3) 0.16247(17)
H3 H 0.9554 0.7553 0.1604
H4 H 0.8703 0.6710 0.1525
O1 O 0.7368(5) -0.0325(5) 0.5317(2)
Cl5 Cl 0.43041(13) -0.00459(10) 0.29263(5)
Cl6 Cl 0.3428(6) 0.0423(9) 0.2072(4)
C3 C 0.3518(3) 0.0060(2) 0.24843(16)
H5 H 0.3125 -0.0521 0.2373
H6 H 0.3149 0.0288 0.2637
N1 N 1.0410(2) 0.57536(16) 0.12833(8)
N2 N 0.82836(14) 0.23006(12) 0.02651(6)
N3 N 0.69361(17) 0.50209(13) 0.02220(7)
N4 N 1.01332(14) 0.05408(12) 0.35374(6)
N5 N 0.71478(13) 0.00184(13) 0.17030(6)
N6 N 0.29593(13) -0.17949(12) 0.17235(7)
N7 N 0.85895(14) 0.13603(12) 0.49576(7)
N8 N 1.18716(14) 0.36818(13) 0.44673(7)
N9 N 1.01169(18) 0.58273(15) 0.32650(7)
N10 N 0.79413(14) 0.82605(12) 0.35376(6)
N11 N 0.37291(14) 0.67809(14) 0.27249(6)
N12 N 0.55382(14) 0.63986(11) 0.44918(6)
N13 N 0.36257(16) 0.41054(14) 0.11727(7)
N14 N 0.07360(16) 0.05274(14) 0.11630(7)
N15 N 0.5264(4) 0.2597(3) 0.43023(14)
N16 N 0.1696(2) -0.00885(18) 0.29825(10)
C4 C 1.16624(18) 0.42932(16) 0.45689(9)
H7 H 1.1760 0.4499 0.4869
C5 C 1.14174(15) 0.24031(13) 0.47421(7)
C6 C 1.13618(15) 0.18129(14) 0.44024(7)
C7 C 1.06796(15) 0.10350(13) 0.43228(7)
C8 C 1.00386(15) 0.08597(13) 0.45722(7)
C9 C 1.01122(15) 0.14445(13) 0.49203(7)
C10 C 1.07862(15) 0.22283(14) 0.50002(7)
C11 C 1.21462(16) 0.32507(14) 0.48155(8)
H8 H 1.2207 0.3557 0.5104
H9 H 1.2744 0.3202 0.4810
C12 C 1.20079(17) 0.20060(16) 0.41106(9)
H10 H 1.1681 0.1731 0.3810
H11 H 1.2513 0.1812 0.4215
H12 H 1.2251 0.2600 0.4117
C13 C 1.06346(16) 0.04073(14) 0.39525(7)
H13 H 1.1261 0.0456 0.3936
H14 H 1.0323 -0.0152 0.4007
C14 C 0.92450(16) 0.00551(15) 0.44638(8)
H15 H 0.9333 -0.0282 0.4690
H16 H 0.9211 -0.0235 0.4179
H17 H 0.8676 0.0161 0.4452
C15 C 0.94122(16) 0.12315(15) 0.51892(8)
H18 H 0.9263 0.0652 0.5232
H19 H 0.9663 0.1584 0.5480
C16 C 1.0830(2) 0.28733(16) 0.53587(8)
H20 H 1.0244 0.2720 0.5438
H21 H 1.0956 0.3403 0.5256
H22 H 1.1318 0.2916 0.5615
C17 C 0.47566(16) 0.76941(15) 0.33786(7)
C18 C 0.56304(16) 0.80990(14) 0.33274(7)
C19 C 0.63995(15) 0.82247(13) 0.36717(7)
C20 C 0.62943(15) 0.79219(12) 0.40575(7)
C21 C 0.54211(16) 0.75050(13) 0.41031(7)
C22 C 0.46519(16) 0.73728(14) 0.37652(7)
C23 C 0.39247(17) 0.75598(17) 0.30074(8)
H23 H 0.3394 0.7540 0.3126
H24 H 0.4045 0.8017 0.2837
C24 C 0.57650(19) 0.84110(19) 0.29052(8)
H25 H 0.5804 0.8985 0.2930
H26 H 0.5246 0.8079 0.2662
H27 H 0.6331 0.8370 0.2851
C25 C 0.73418(16) 0.87070(14) 0.36296(8)
H28 H 0.7269 0.9036 0.3394
H29 H 0.7668 0.9099 0.3905
C26 C 0.71198(16) 0.80228(14) 0.44252(7)
H30 H 0.7136 0.8397 0.4677
H31 H 0.7678 0.8249 0.4326
H32 H 0.7079 0.7488 0.4510
C27 C 0.53337(17) 0.71560(13) 0.45212(7)
H33 H 0.5767 0.7556 0.4777
H34 H 0.4706 0.7040 0.4557
C28 C 0.37051(18) 0.68833(19) 0.38010(9)
H35 H 0.3747 0.6504 0.4009
H36 H 0.3333 0.6571 0.3513
H37 H 0.3421 0.7257 0.3904
C29 C 0.11467(15) -0.12504(14) 0.14232(7)
C30 C 0.07175(15) -0.07216(14) 0.15417(7)
C31 C 0.06756(15) -0.05703(14) 0.19786(7)
C32 C 0.10208(15) -0.09928(13) 0.22843(7)
C33 C 0.14403(15) -0.15324(13) 0.21687(7)
C34 C 0.15036(15) -0.16640(13) 0.17349(8)
C35 C 0.19739(16) -0.22377(14) 0.16094(8)
H38 H 0.1832 -0.2712 0.1766
H39 H 0.1752 -0.2446 0.1291
C36 C 0.12522(19) -0.13560(18) 0.09601(8)
H40 H 0.0746 -0.1836 0.0784
H41 H 0.1833 -0.1435 0.0965
H42 H 0.1245 -0.0865 0.0832
C37 C 0.02541(18) -0.03228(16) 0.12058(8)
H43 H 0.0102 -0.0666 0.0916
H44 H -0.0332 -0.0348 0.1271
C38 C 0.02636(17) 0.00440(15) 0.21136(8)
H45 H 0.0279 0.0427 0.1904
H46 H 0.0615 0.0349 0.2406
H47 H -0.0371 -0.0244 0.2119
C39 C 0.09470(17) -0.08388(15) 0.27522(7)
H48 H 0.0353 -0.0779 0.2753
H49 H 0.0985 -0.1308 0.2900
C40 C 0.18534(18) -0.19555(15) 0.25081(8)
H50 H 0.2103 -0.1589 0.2791
H51 H 0.2344 -0.2092 0.2418
H52 H 0.1381 -0.2459 0.2535
C41 C 0.89051(17) 0.37009(13) 0.01325(7)
C42 C 0.97011(17) 0.42337(14) 0.04319(7)
C43 C 0.97947(17) 0.50571(14) 0.05432(7)
C44 C 0.90733(19) 0.53306(14) 0.03722(7)
C45 C 0.82824(18) 0.47887(14) 0.00824(7)
C46 C 0.81931(17) 0.39709(14) -0.00370(7)
C47 C 0.88016(18) 0.28108(14) 0.00015(7)
H53 H 0.8481 0.2624 -0.0312
H54 H 0.9413 0.2762 0.0046
C48 C 1.04397(18) 0.39316(16) 0.06478(8)
H55 H 1.0911 0.4032 0.0484
H56 H 1.0175 0.3342 0.0651
H57 H 1.0714 0.4224 0.0949
C49 C 1.0644(2) 0.56457(16) 0.08605(7)
H58 H 1.1145 0.5422 0.0893
H59 H 1.0845 0.6178 0.0756
C50 C 0.9148(2) 0.62018(15) 0.05182(9)
H60 H 0.9355 0.6543 0.0304
H61 H 0.9589 0.6418 0.0804
H62 H 0.8549 0.6209 0.0541
C51 C 0.7499(2) 0.50804(17) -0.00942(8)
H63 H 0.7743 0.5656 -0.0141
H64 H 0.7121 0.4737 -0.0378
C52 C 0.73182(19) 0.33779(16) -0.03401(8)
H65 H 0.6798 0.3510 -0.0283
H66 H 0.7249 0.2817 -0.0290
H67 H 0.7339 0.3421 -0.0644
C53 C 1.1268(2) 0.46976(17) 0.42309(9)
C54 C 1.10239(19) 0.53599(16) 0.43472(8)
H68 H 1.1120 0.5561 0.4648
C55 C 1.0641(2) 0.57337(16) 0.40293(8)
H69 H 1.0484 0.6193 0.4114
C56 C 1.0486(2) 0.54409(17) 0.35903(8)
C57 C 1.0691(3) 0.4747(2) 0.34731(10)
H70 H 1.0562 0.4524 0.3173
C58 C 1.1076(3) 0.4390(2) 0.37873(10)
H71 H 1.1217 0.3922 0.3703
C59 C 0.83278(17) 0.18715(16) 0.51436(8)
H72 H 0.8650 0.2136 0.5434
C60 C 0.75394(16) 0.20703(15) 0.49245(8)
C61 C 0.73060(17) 0.26794(15) 0.51207(8)
H73 H 0.7654 0.2965 0.5405
C62 C 0.65772(16) 0.28814(15) 0.49124(8)
H74 H 0.6436 0.3311 0.5051
C63 C 0.60494(16) 0.24607(15) 0.45020(9)
C64 C 0.62980(17) 0.18657(15) 0.42937(9)
H75 H 0.5963 0.1595 0.4005
C65 C 0.70254(17) 0.16696(15) 0.45038(9)
H76 H 0.7182 0.1255 0.4361
C66 C 0.94775(15) -0.00734(14) 0.33054(7)
H77 H 0.9352 -0.0586 0.3406
C67 C 0.89024(15) -0.00293(14) 0.28881(7)
C68 C 0.82213(16) -0.07432(14) 0.26512(7)
H78 H 0.8141 -0.1246 0.2760
C69 C 0.76554(16) -0.07298(15) 0.22560(8)
H79 H 0.7201 -0.1225 0.2092
C70 C 0.77525(15) 0.00045(15) 0.20993(7)
C71 C 0.84383(17) 0.07191(14) 0.23357(8)
H80 H 0.8513 0.1224 0.2229
C72 C 0.90088(16) 0.07013(14) 0.27216(7)
H81 H 0.9482 0.1193 0.2877
C73 C 0.37410(18) 0.68139(17) 0.23277(8)
H82 H 0.3817 0.7322 0.2226
C74 C 0.36415(18) 0.60974(17) 0.20215(8)
C75 C 0.34380(18) 0.53178(17) 0.21353(8)
H83 H 0.3309 0.5238 0.2411
C76 C 0.34183(18) 0.46588(17) 0.18590(8)
H84 H 0.3279 0.4132 0.1944
C77 C 0.36051(18) 0.47681(16) 0.14495(8)
C78 C 0.3797(2) 0.55465(18) 0.13339(8)
H85 H 0.3919 0.5628 0.1057
C79 C 0.38127(19) 0.61978(17) 0.16112(8)
H86 H 0.3941 0.6723 0.1524
C80 C 0.49141(16) 0.57401(14) 0.45042(7)
H87 H 0.4353 0.5764 0.4548
C81 C 0.50258(16) 0.49410(14) 0.44542(7)
C82 C 0.58583(16) 0.48684(15) 0.44301(8)
H88 H 0.6372 0.5348 0.4448
C83 C 0.59443(17) 0.41052(16) 0.43801(9)
H89 H 0.6516 0.4063 0.4367
C84 C 0.51926(16) 0.33991(14) 0.43485(8)
C85 C 0.43661(16) 0.34694(14) 0.43762(8)
H90 H 0.3854 0.2992 0.4362
C86 C 0.42861(16) 0.42348(14) 0.44237(8)
H91 H 0.3713 0.4276 0.4436
C87 C 0.77010(16) 0.74944(14) 0.35262(7)
H92 H 0.7117 0.7196 0.3566
C88 C 0.83234(18) 0.70589(15) 0.34515(7)
C89 C 0.81249(19) 0.62496(15) 0.35101(8)
H93 H 0.7575 0.5969 0.3587
C90 C 0.8721(2) 0.58408(15) 0.34570(8)
H94 H 0.8580 0.5286 0.3501
C91 C 0.9517(2) 0.62399(16) 0.33403(8)
C92 C 0.9718(2) 0.70526(19) 0.32803(10)
H95 H 1.0266 0.7333 0.3201
C93 C 0.9125(2) 0.74565(18) 0.33348(10)
H96 H 0.9268 0.8012 0.3292
C94 C 0.86574(18) 0.18732(14) 0.04850(8)
H97 H 0.9238 0.1879 0.0454
C95 C 0.82387(16) 0.13704(14) 0.07838(7)
C96 C 0.87019(17) 0.09327(15) 0.10190(8)
H98 H 0.9276 0.0944 0.0976
C97 C 0.83308(17) 0.04773(15) 0.13176(8)
H99 H 0.8650 0.0173 0.1474
C98 C 0.75069(16) 0.04618(15) 0.13890(7)
C99 C 0.70401(17) 0.09058(16) 0.11542(8)
H100 H 0.6471 0.0902 0.1201
C100 C 0.73993(18) 0.13460(16) 0.08569(8)
H101 H 0.7072 0.1641 0.0697
C101 C 0.6098(2) 0.45865(16) 0.00886(8)
H102 H 0.5868 0.4323 -0.0208
C102 C 0.5469(2) 0.44730(16) 0.03714(8)
C103 C 0.4586(2) 0.39106(16) 0.02249(8)
H103 H 0.4392 0.3605 -0.0062
C104 C 0.3984(2) 0.37854(16) 0.04862(8)
H104 H 0.3385 0.3391 0.0380
C105 C 0.42518(19) 0.42367(16) 0.09063(8)
C106 C 0.5137(2) 0.47937(17) 0.10569(8)
H105 H 0.5332 0.5096 0.1345
C107 C 0.5734(2) 0.49129(16) 0.07935(9)
H106 H 0.6337 0.5301 0.0901
C108 C 1.0941(2) 0.56705(17) 0.16160(10)
H107 H 1.1476 0.5567 0.1588
C109 C 1.0743(2) 0.57322(18) 0.20477(10)
C110 C 1.1398(2) 0.5778(2) 0.24217(11)
H108 H 1.1980 0.5772 0.2400
C111 C 1.1208(2) 0.5831(2) 0.28275(10)
H109 H 1.1666 0.5871 0.3083
C112 C 1.0369(3) 0.5827(3) 0.28651(10)
C113 C 0.9714(2) 0.5792(2) 0.24920(10)
H110 H 0.9128 0.5786 0.2513
C114 C 0.9916(2) 0.5765(2) 0.20877(9)
H111 H 0.9477 0.5769 0.1835
C115 C 0.15823(19) 0.08201(18) 0.12959(9)
H112 H 0.1902 0.0488 0.1421
C116 C 0.2104(2) 0.16773(17) 0.12634(9)
C117 C 0.3038(2) 0.1917(2) 0.12950(12)
H113 H 0.3341 0.1534 0.1346
C118 C 0.3528(2) 0.27073(19) 0.12521(12)
H114 H 0.4159 0.2856 0.1259
C119 C 0.31108(19) 0.32833(17) 0.11987(8)
C120 C 0.21845(19) 0.30518(18) 0.11739(9)
H115 H 0.1888 0.3441 0.1135
C121 C 0.1686(2) 0.22492(19) 0.12061(9)
H116 H 0.1051 0.2096 0.1188
C122 C 0.33615(16) -0.17303(15) 0.14166(8)
H117 H 0.3012 -0.1982 0.1128
C123 C 0.43393(17) -0.12855(15) 0.14898(8)
C124 C 0.48795(16) -0.08962(15) 0.19097(8)
H118 H 0.4607 -0.0929 0.2150
C125 C 0.57963(16) -0.04686(16) 0.19784(7)
H119 H 0.6154 -0.0209 0.2265
C126 C 0.62120(16) -0.04126(15) 0.16264(8)
C127 C 0.56696(18) -0.08001(17) 0.12093(8)
H120 H 0.5937 -0.0772 0.0968
C128 C 0.47517(18) -0.12222(17) 0.11459(8)
H121 H 0.4391 -0.1477 0.0859
C129 C 0.2157(2) -0.01169(17) 0.33554(10)
H122 H 0.1985 -0.0606 0.3477
C130 C 0.2951(2) 0.05915(16) 0.36021(9)
C131 C 0.34357(19) 0.05522(16) 0.40149(9)
H123 H 0.3248 0.0065 0.4137
C132 C 0.41880(19) 0.12163(16) 0.42491(9)
H124 H 0.4505 0.1189 0.4534
C133 C 0.44773(19) 0.19229(18) 0.40671(10)
C134 C 0.3999(2) 0.19668(17) 0.36555(9)
H125 H 0.4195 0.2450 0.3530
C135 C 0.3241(2) 0.13124(17) 0.34292(9)
H126 H 0.2910 0.1351 0.3150
Cl7 Cl 0.5538(6) -0.0721(5) 0.4751(3)
Cl8 Cl 0.3467(6) -0.1227(5) 0.4119(5)
H127 H 0.4271 -0.0719 0.4790
H128 H 0.4264 -0.1602 0.4655
C136 C 0.44224(6) -0.10506(5) 0.45693(3)
Cl1 Cl 0.93874(8) 0.35540(8) 0.46416(4)
Cl2 Cl 0.84706(7) 0.46656(7) 0.43573(4)
C1 C 0.8714(4) 0.3833(4) 0.42021(19)
H1 H 0.9045 0.3945 0.3970
H2 H 0.8135 0.3366 0.4076
Cl9? Cl 0.8191(8) 0.6432(7) 0.1389(3)
O2? O 0.7333(6) 0.7323(6) 0.1311(3)
H129? H 0.8785 0.7739 0.1466
H130? H 0.9538 0.7328 0.1618
Cl10? Cl 0.40058(17) 0.09091(13) 0.22528(8)
H131? H 0.3288 -0.0441 0.2261
H132? H 0.2991 0.0118 0.2583
N17? N 1.0908(11) 0.5684(8) 0.1330(5)
N18? N 0.530(3) 0.2745(18) 0.4206(10)
N19? N 0.1825(15) -0.0316(11) 0.3108(7)
H133? H 0.0699 -0.1379 0.2843
H134? H 0.0490 -0.0569 0.2751
H135? H 1.1160 0.5582 0.0753
H136? H 1.0643 0.6200 0.0816
C137? C 1.0189(9) 0.5381(8) 0.1457(4)
H137? H 0.9633 0.5091 0.1244
C138? C 1.0174(9) 0.5459(7) 0.1922(3)
C139? C 1.0967(8) 0.5728(7) 0.2260(4)
H138? H 1.1546 0.5848 0.2196
C140? C 1.0913(8) 0.5823(8) 0.2692(3)
H139? H 1.1455 0.6007 0.2923
C141? C 1.0066(9) 0.5647(9) 0.2786(3)
C142? C 0.9273(8) 0.5378(9) 0.2448(3)
H140? H 0.8694 0.5258 0.2512
C143? C 0.9327(8) 0.5283(8) 0.2016(3)
H141? H 0.8785 0.5099 0.1785
C144? C 0.2364(12) 0.0294(10) 0.2989(6)
H142? H 0.2271 0.0355 0.2689
C145? C 0.3112(8) 0.0888(6) 0.3312(4)
C146? C 0.3446(10) 0.0757(7) 0.3731(4)
H143? H 0.3167 0.0250 0.3821
C147? C 0.4187(10) 0.1367(8) 0.4018(3)
H144? H 0.4415 0.1278 0.4305
C148? C 0.4594(8) 0.2109(7) 0.3886(4)
C149? C 0.4260(8) 0.2240(6) 0.3468(4)
H145? H 0.4538 0.2747 0.3377
C150? C 0.3519(8) 0.1630(7) 0.3180(3)
H146? H 0.3291 0.1719 0.2894
Cl11? Cl 0.64128(6) -0.03173(5) 0.47624(3)
C151? C 0.5351(3) -0.04987(19) 0.43752(12)
H147? H 0.5298 0.0033 0.4315
H148? H 0.5338 -0.0810 0.4097
Cl12? Cl 0.44224(6) -0.10506(5) 0.45693(3)
loop_
_geom_bond_atom_site_label_1
_geom_bond_atom_site_label_2
_geom_bond_site_symmetry_1
_geom_bond_site_symmetry_2
Cl1 C1 1_555 1_555
Cl2 C1 1_555 1_555
C1 H1 1_555 1_555
H2 C1 1_555 1_555
Cl3 C2 1_555 1_555
Cl4 C2 1_555 1_555
C2 H3 1_555 1_555
H4 C2 1_555 1_555
Cl5 C3 1_555 1_555
Cl6 C3 1_555 1_555
C3 H5 1_555 1_555
H6 C3 1_555 1_555
N1 C49 1_555 1_555
N2 C47 1_555 1_555
N3 C51 1_555 1_555
N4 C13 1_555 1_555
N5 C70 1_555 1_555
N6 C35 1_555 1_555
N7 C15 1_555 1_555
N8 C4 1_555 1_555
N9 C56 1_555 1_555
N10 C25 1_555 1_555
N11 C23 1_555 1_555
N12 C27 1_555 1_555
N13 C77 1_555 1_555
N14 C37 1_555 1_555
N15 C63 1_555 1_555
N16 C39 1_555 1_555
C4 H7 1_555 1_555
C5 C6 1_555 1_555
C6 C7 1_555 1_555
C7 C8 1_555 1_555
C8 C9 1_555 1_555
C9 C10 1_555 1_555
C10 C5 1_555 1_555
C11 N8 1_555 1_555
H8 C11 1_555 1_555
H9 C11 1_555 1_555
C12 C6 1_555 1_555
H10 C12 1_555 1_555
H11 C12 1_555 1_555
H12 C12 1_555 1_555
C13 C7 1_555 1_555
H13 C13 1_555 1_555
H14 C13 1_555 1_555
C14 C8 1_555 1_555
H15 C14 1_555 1_555
H16 C14 1_555 1_555
H17 C14 1_555 1_555
C15 C9 1_555 1_555
H18 C15 1_555 1_555
H19 C15 1_555 1_555
C16 C10 1_555 1_555
H20 C16 1_555 1_555
H21 C16 1_555 1_555
H22 C16 1_555 1_555
C17 C18 1_555 1_555
C18 C19 1_555 1_555
C19 C20 1_555 1_555
C20 C21 1_555 1_555
C21 C22 1_555 1_555
C22 C17 1_555 1_555
C23 C17 1_555 1_555
H23 C23 1_555 1_555
H24 C23 1_555 1_555
C24 C18 1_555 1_555
H25 C24 1_555 1_555
H26 C24 1_555 1_555
H27 C24 1_555 1_555
C25 C19 1_555 1_555
H28 C25 1_555 1_555
H29 C25 1_555 1_555
C26 C20 1_555 1_555
H30 C26 1_555 1_555
H31 C26 1_555 1_555
H32 C26 1_555 1_555
C27 C21 1_555 1_555
H33 C27 1_555 1_555
H34 C27 1_555 1_555
C28 C22 1_555 1_555
H35 C28 1_555 1_555
H36 C28 1_555 1_555
H37 C28 1_555 1_555
C29 C30 1_555 1_555
C30 C31 1_555 1_555
C31 C32 1_555 1_555
C32 C33 1_555 1_555
C33 C34 1_555 1_555
C34 C29 1_555 1_555
C35 C34 1_555 1_555
H38 C35 1_555 1_555
H39 C35 1_555 1_555
C36 C29 1_555 1_555
H40 C36 1_555 1_555
H41 C36 1_555 1_555
H42 C36 1_555 1_555
C37 C30 1_555 1_555
H43 C37 1_555 1_555
H44 C37 1_555 1_555
C38 C31 1_555 1_555
H45 C38 1_555 1_555
H46 C38 1_555 1_555
H47 C38 1_555 1_555
C39 C32 1_555 1_555
H48 C39 1_555 1_555
H49 C39 1_555 1_555
C40 C33 1_555 1_555
H50 C40 1_555 1_555
H51 C40 1_555 1_555
H52 C40 1_555 1_555
C41 C42 1_555 1_555
C42 C43 1_555 1_555
C43 C44 1_555 1_555
C44 C45 1_555 1_555
C45 C46 1_555 1_555
C46 C41 1_555 1_555
C47 C41 1_555 1_555
H53 C47 1_555 1_555
H54 C47 1_555 1_555
C48 C42 1_555 1_555
H55 C48 1_555 1_555
H56 C48 1_555 1_555
H57 C48 1_555 1_555
C49 C43 1_555 1_555
H58 C49 1_555 1_555
H59 C49 1_555 1_555
C50 C44 1_555 1_555
H60 C50 1_555 1_555
H61 C50 1_555 1_555
H62 C50 1_555 1_555
C51 C45 1_555 1_555
H63 C51 1_555 1_555
H64 C51 1_555 1_555
C52 C46 1_555 1_555
H65 C52 1_555 1_555
H66 C52 1_555 1_555
H67 C52 1_555 1_555
C53 C4 1_555 1_555
C54 C53 1_555 1_555
H68 C54 1_555 1_555
C55 C54 1_555 1_555
H69 C55 1_555 1_555
C56 C55 1_555 1_555
C57 C56 1_555 1_555
H70 C57 1_555 1_555
C58 C53 1_555 1_555
H71 C58 1_555 1_555
C59 N7 1_555 1_555
H72 C59 1_555 1_555
C60 C59 1_555 1_555
C61 C60 1_555 1_555
H73 C61 1_555 1_555
C62 C61 1_555 1_555
H74 C62 1_555 1_555
C63 C62 1_555 1_555
C64 C63 1_555 1_555
H75 C64 1_555 1_555
C65 C60 1_555 1_555
H76 C65 1_555 1_555
C66 N4 1_555 1_555
H77 C66 1_555 1_555
C67 C66 1_555 1_555
C68 C67 1_555 1_555
H78 C68 1_555 1_555
C69 C68 1_555 1_555
H79 C69 1_555 1_555
C70 C69 1_555 1_555
C71 C70 1_555 1_555
H80 C71 1_555 1_555
C72 C67 1_555 1_555
H81 C72 1_555 1_555
C73 N11 1_555 1_555
H82 C73 1_555 1_555
C74 C73 1_555 1_555
C75 C74 1_555 1_555
H83 C75 1_555 1_555
C76 C75 1_555 1_555
H84 C76 1_555 1_555
C77 C76 1_555 1_555
C78 C77 1_555 1_555
H85 C78 1_555 1_555
C79 C74 1_555 1_555
H86 C79 1_555 1_555
C80 N12 1_555 1_555
H87 C80 1_555 1_555
C81 C80 1_555 1_555
C82 C81 1_555 1_555
H88 C82 1_555 1_555
C83 C82 1_555 1_555
H89 C83 1_555 1_555
C84 N15 1_555 1_555
C85 C84 1_555 1_555
H90 C85 1_555 1_555
C86 C81 1_555 1_555
H91 C86 1_555 1_555
C87 N10 1_555 1_555
H92 C87 1_555 1_555
C88 C87 1_555 1_555
C89 C88 1_555 1_555
H93 C89 1_555 1_555
C90 C89 1_555 1_555
H94 C90 1_555 1_555
C91 N9 1_555 1_555
C92 C91 1_555 1_555
H95 C92 1_555 1_555
C93 C88 1_555 1_555
H96 C93 1_555 1_555
C94 N2 1_555 1_555
H97 C94 1_555 1_555
C95 C94 1_555 1_555
C96 C95 1_555 1_555
H98 C96 1_555 1_555
C97 C96 1_555 1_555
H99 C97 1_555 1_555
C98 N5 1_555 1_555
C99 C98 1_555 1_555
H100 C99 1_555 1_555
C100 C95 1_555 1_555
H101 C100 1_555 1_555
C101 N3 1_555 1_555
H102 C101 1_555 1_555
C102 C101 1_555 1_555
C103 C102 1_555 1_555
H103 C103 1_555 1_555
C104 C103 1_555 1_555
H104 C104 1_555 1_555
C105 N13 1_555 1_555
C106 C105 1_555 1_555
H105 C106 1_555 1_555
C107 C102 1_555 1_555
H106 C107 1_555 1_555
C108 N1 1_555 1_555
H107 C108 1_555 1_555
C109 C108 1_555 1_555
C110 C109 1_555 1_555
H108 C110 1_555 1_555
C111 C110 1_555 1_555
H109 C111 1_555 1_555
C112 N9 1_555 1_555
C113 C112 1_555 1_555
H110 C113 1_555 1_555
C114 C109 1_555 1_555
H111 C114 1_555 1_555
C115 N14 1_555 1_555
H112 C115 1_555 1_555
C116 C115 1_555 1_555
C117 C116 1_555 1_555
H113 C117 1_555 1_555
C118 C117 1_555 1_555
H114 C118 1_555 1_555
C119 N13 1_555 1_555
C120 C119 1_555 1_555
H115 C120 1_555 1_555
C121 C116 1_555 1_555
H116 C121 1_555 1_555
C122 N6 1_555 1_555
H117 C122 1_555 1_555
C123 C122 1_555 1_555
C124 C123 1_555 1_555
H118 C124 1_555 1_555
C125 C124 1_555 1_555
H119 C125 1_555 1_555
C126 N5 1_555 1_555
C127 C126 1_555 1_555
H120 C127 1_555 1_555
C128 C123 1_555 1_555
H121 C128 1_555 1_555
C129 N16 1_555 1_555
H122 C129 1_555 1_555
C130 C129 1_555 1_555
C131 C130 1_555 1_555
H123 C131 1_555 1_555
C132 C131 1_555 1_555
H124 C132 1_555 1_555
C133 N15 1_555 1_555
C134 C133 1_555 1_555
H125 C134 1_555 1_555
C135 C130 1_555 1_555
H126 C135 1_555 1_555
Cl7 C136 1_555 1_555
Cl8 C136 1_555 1_555
H127 C136 1_555 1_555
H128 C136 1_555 1_555
C5 C11 1_555 1_555
C57 C58 1_555 1_555
C64 C65 1_555 1_555
C71 C72 1_555 1_555
C78 C79 1_555 1_555
C83 C84 1_555 1_555
C85 C86 1_555 1_555
C90 C91 1_555 1_555
C92 C93 1_555 1_555
C97 C98 1_555 1_555
C99 C100 1_555 1_555
C104 C105 1_555 1_555
C106 C107 1_555 1_555
C111 C112 1_555 1_555
C113 C114 1_555 1_555
C118 C119 1_555 1_555
C120 C121 1_555 1_555
C125 C126 1_555 1_555
C127 C128 1_555 1_555
C132 C133 1_555 1_555
C134 C135 1_555 1_555

#END
