
#######################################################################
#
#                 Cambridge Crystallographic Data Centre
#                                CCDC 
#
#######################################################################
#
# If this CIF has been generated from an entry in the Cambridge 
# Structural Database, then it will include bibliographic, chemical, 
# crystal, experimental, refinement or atomic coordinate data resulting 
# from the CCDC's data processing and validation procedures.
#
#######################################################################

data_RELZOA
_chemical_formula_moiety         'C57 H110 N7 O31 1-'
_symmetry_cell_setting           monoclinic
_symmetry_space_group_name_H-M   'P 21/c'
_symmetry_Int_Tables_number      14
_space_group_name_Hall           '-P 2ybc'
loop_
_symmetry_equiv_pos_site_id
_symmetry_equiv_pos_as_xyz
1 x,y,z
2 -x,1/2+y,1/2-z
3 -x,-y,-z
4 x,1/2-y,1/2+z
_cell_length_a                   19.851(3)
_cell_length_b                   14.2576(19)
_cell_length_c                   23.979(3)
_cell_angle_alpha                90
_cell_angle_beta                 101.033(3)
_cell_angle_gamma                90
_cell_volume                     6661.28
loop_
_atom_site_label
_atom_site_type_symbol
_atom_site_fract_x
_atom_site_fract_y
_atom_site_fract_z
N1 N 0.47313(16) 0.4270(2) 0.15668(15)
H1 H 0.4614 0.4067 0.1206
H2 H 0.4343 0.4427 0.1685
N2 N 0.32381(17) 0.5350(2) -0.01043(15)
H3 H 0.3216 0.5099 0.0236
H4 H 0.3262 0.4874 -0.0346
N3 N 0.41830(16) 0.6035(2) 0.10195(14)
N4 N 0.17556(16) 0.0202(2) 0.21370(14)
H5 H 0.1874 0.0565 0.1886
N5 N 0.01207(16) 0.3265(2) 0.25645(13)
H6 H 0.0174 0.3571 0.2267
N6 N -0.02612(17) 0.1981(2) 0.01798(13)
H7 H 0.0172 0.2032 0.0309
N7 N 0.32644(16) 0.7447(2) 0.19752(14)
H8 H 0.3499 0.7967 0.1918
H9 H 0.3465 0.7204 0.2313
O1 O 0.09210(14) 0.46927(17) 0.25017(11)
O2 O 0.30163(14) 0.0854(2) 0.21795(12)
O3 O 0.20915(14) -0.0476(2) 0.30018(12)
O4 O 0.04169(16) 0.3194(2) 0.35242(12)
O5 O 0.02930(14) 0.37050(19) -0.00572(12)
O6 O -0.11417(15) 0.2461(2) -0.04969(13)
C1 C 0.13369(19) 0.5430(3) 0.24186(16)
C2 C -0.04913(18) 0.1869(3) 0.14839(16)
C3 C 0.0476(2) 0.3546(3) 0.30685(17)
C4 C 0.49110(19) 0.5780(3) 0.10891(18)
H10 H 0.5182 0.6350 0.1142
H11 H 0.4985 0.5486 0.0741
C5 C -0.01730(18) 0.1787(3) 0.20556(15)
C6 C 0.10754(19) -0.0234(3) 0.20126(17)
H12 H 0.0990 -0.0554 0.2349
H13 H 0.1064 -0.0698 0.1715
C7 C -0.03128(19) 0.1236(3) 0.10850(15)
C8 C 0.05158(18) 0.0488(3) 0.18248(15)
C9 C 0.17844(19) 0.5877(3) 0.28487(17)
H14 H 0.1824 0.5685 0.3224
C10 C 0.1268(2) 0.5726(3) 0.18619(16)
H15 H 0.0959 0.5428 0.1577
C11 C 0.21218(19) 0.6918(3) 0.21519(17)
C12 C 0.0842(2) 0.4224(3) -0.01587(17)
C13 C 0.1659(2) 0.6467(3) 0.17293(17)
H16 H 0.1611 0.6665 0.1354
C14 C 0.3898(2) 0.1958(3) 0.26281(18)
H17 H 0.3804 0.1860 0.2989
C15 C 0.01973(19) 0.0554(3) 0.12499(16)
C16 C 0.3327(2) 0.6755(3) 0.15216(17)
H18 H 0.3071 0.6971 0.1159
H19 H 0.3141 0.6154 0.1608
C17 C 0.21734(19) 0.6618(3) 0.27092(16)
H20 H 0.2476 0.6922 0.2996
C18 C 0.4079(2) 0.6648(3) 0.14902(17)
H21 H 0.4270 0.7262 0.1442
H22 H 0.4324 0.6390 0.1846
C19 C 0.0982(2) 0.4335(3) 0.30642(15)
H23 H 0.0892 0.4831 0.3317
H24 H 0.1445 0.4107 0.3199
C20 C 0.2197(2) 0.0062(3) 0.26192(17)
C21 C 0.03289(19) 0.1097(3) 0.22286(15)
C22 C -0.0532(2) 0.2486(3) -0.02663(16)
C23 C 0.2844(2) 0.0640(3) 0.27087(17)
H25 H 0.2777 0.1216 0.2907
H26 H 0.3216 0.0293 0.2941
C24 C 0.4213(2) 0.2227(3) 0.15590(19)
H27 H 0.4327 0.2299 0.1203
C25 C 0.3541(2) 0.1471(3) 0.21636(18)
C26 C -0.0352(2) 0.2470(3) 0.24906(17)
H28 H -0.0818 0.2694 0.2366
H29 H -0.0327 0.2152 0.2851
C27 C 0.4556(2) 0.2750(3) 0.20178(19)
C28 C 0.1141(2) 0.4803(3) 0.02785(19)
H30 H 0.0964 0.4828 0.0611
C29 C 0.5173(2) 0.5124(3) 0.15800(19)
H31 H 0.5638 0.4935 0.1564
H32 H 0.5184 0.5455 0.1935
C30 C 0.0662(2) 0.1023(3) 0.28448(16)
H33 H 0.0974 0.0501 0.2897
H34 H 0.0316 0.0930 0.3069
H35 H 0.0910 0.1590 0.2962
C31 C -0.0656(2) 0.1333(3) 0.04693(16)
H36 H -0.0684 0.0724 0.0286
H37 H -0.1119 0.1570 0.0444
C32 C 0.2546(2) 0.7726(3) 0.20088(18)
H38 H 0.2326 0.7990 0.1647
H39 H 0.2561 0.8209 0.2295
C33 C 0.0413(2) -0.0076(3) 0.08124(18)
H40 H 0.0896 -0.0202 0.0917
H41 H 0.0318 0.0227 0.0448
H42 H 0.0163 -0.0655 0.0793
C34 C 0.3990(2) 0.6547(3) 0.04777(17)
H43 H 0.4347 0.6998 0.0448
H44 H 0.3571 0.6894 0.0482
C35 C -0.1000(2) 0.2647(3) 0.12820(19)
H45 H -0.1459 0.2404 0.1234
H46 H -0.0921 0.2887 0.0926
H47 H -0.0942 0.3142 0.1558
C36 C 0.4398(2) 0.2599(3) 0.25442(18)
H48 H 0.4633 0.2935 0.2854
C37 C 0.3703(2) 0.1600(3) 0.16298(19)
H49 H 0.3468 0.1266 0.1320
C38 C 0.1699(2) 0.5344(3) 0.02262(19)
H50 H 0.1898 0.5731 0.0525
C39 C -0.0042(2) 0.3112(3) -0.04997(16)
H51 H 0.0293 0.2736 -0.0644
H52 H -0.0291 0.3487 -0.0809
C40 C 0.1099(2) 0.4193(3) -0.06536(17)
H53 H 0.0898 0.3803 -0.0951
C41 C 0.5074(2) 0.3481(3) 0.1931(2)
H54 H 0.5300 0.3726 0.2297
H55 H 0.5422 0.3196 0.1751
C42 C 0.3880(2) 0.5919(3) -0.00456(17)
H56 H 0.3858 0.6305 -0.0382
H57 H 0.4269 0.5500 -0.0022
C43 C 0.2591(2) 0.5891(3) -0.0314(2)
H58 H 0.2570 0.6067 -0.0707
H59 H 0.2594 0.6461 -0.0092
C44 C 0.1970(2) 0.5319(3) -0.02659(18)
C45 C 0.1658(2) 0.4746(3) -0.07042(18)
H60 H 0.1827 0.4731 -0.1040
O7 O 0.36521(15) 0.4580(2) 0.28018(13)
O8 O 0.19002(14) 0.1257(2) 0.11536(12)
O9 O 0.34683(14) 0.4510(2) 0.18569(13)
O10 O 0.12204(16) 0.1864(2) 0.03945(12)
C46 C 0.2283(2) 0.3403(3) 0.17741(17)
H61 H 0.2582 0.3022 0.1591
H62 H 0.2136 0.3938 0.1531
C47 C 0.2675(2) 0.3743(3) 0.23383(16)
H63 H 0.2809 0.3200 0.2578
H64 H 0.2367 0.4114 0.2517
C48 C 0.14723(19) 0.1847(3) 0.09234(16)
C49 C 0.1200(2) 0.2581(3) 0.12775(18)
H65 H 0.0762 0.2365 0.1351
H66 H 0.1114 0.3150 0.1053
C50 C 0.1656(2) 0.2828(3) 0.18438(17)
H67 H 0.1808 0.2254 0.2046
H68 H 0.1390 0.3180 0.2071
C51 C 0.3309(2) 0.4319(3) 0.23257(18)
O11 O 0.50092(18) 0.7131(2) 0.47900(15)
O12 O 0.5830(2) 0.7162(3) 0.5552(2)
C52 C 0.5300(3) 0.6803(3) 0.5263(2)
C53 C 0.4713(4) 0.5250(5) 0.5132(3)
H69 H 0.4370 0.5506 0.4828
H70 H 0.4490 0.4789 0.5333
C54 C 0.4976(4) 0.5987(4) 0.5515(3)
H71 H 0.5316 0.5722 0.5819
H72 H 0.4604 0.6226 0.5684
O11B O 0.49908(18) 0.2869(2) 0.52100(15)
O12B O 0.4170(2) 0.2838(3) 0.4448(2)
C52B C 0.4700(3) 0.3197(3) 0.4737(2)
C53B C 0.5287(4) 0.4750(5) 0.4868(3)
H69B H 0.5630 0.4494 0.5172
H70B H 0.5510 0.5211 0.4667
C54B C 0.5024(4) 0.4013(4) 0.4485(3)
H71B H 0.4684 0.4278 0.4181
H72B H 0.5396 0.3774 0.4316
O13 O 0.39115(15) 0.6492(2) 0.29372(12)
O14 O 0.44687(16) 0.3766(2) 0.04291(13)
O15 O 0.31624(16) 0.4001(2) 0.07156(14)
O16 O 0.24315(15) 0.8092(2) 0.04373(14)
O17 O 0.32300(18) 0.3737(2) 0.37049(14)
O18 O 0.50343(16) 0.5019(2) 0.29853(16)
O19 O 0.38253(18) 0.7087(2) 0.40102(13)
O20 O 0.27025(17) 0.9949(2) 0.07634(16)
O21 O 0.65678(18) 0.8866(2) 0.58214(14)
O22 O 0.37628(17) 0.9059(2) 0.15676(16)
O23 O 0.33723(18) 0.8678(3) 0.3370(2)
O24 O 0.26568(19) 0.6605(3) 0.43428(16)
O25 O 0.22950(19) 0.2262(3) 0.37345(16)
O26 O 0.1291(2) 0.4058(4) 0.44417(17)
O27 O 0.2517(3) 0.4717(4) 0.4365(3)
O28 O 0.3220(5) 0.1179(8) 0.0120(4)
O29 O 0.2379(3) 0.2693(4) 0.0040(2)
loop_
_geom_bond_atom_site_label_1
_geom_bond_atom_site_label_2
_geom_bond_site_symmetry_1
_geom_bond_site_symmetry_2
N1 H1 1_555 1_555
H2 N1 1_555 1_555
N2 H3 1_555 1_555
H4 N2 1_555 1_555
N3 C4 1_555 1_555
N4 H5 1_555 1_555
N5 H6 1_555 1_555
N6 H7 1_555 1_555
N7 H8 1_555 1_555
H9 N7 1_555 1_555
O1 C1 1_555 1_555
O2 C23 1_555 1_555
O3 C20 1_555 1_555
O4 C3 1_555 1_555
O5 C12 1_555 1_555
O6 C22 1_555 1_555
C1 C9 1_555 1_555
C2 C5 1_555 1_555
C3 N5 1_555 1_555
C4 H10 1_555 1_555
H11 C4 1_555 1_555
C5 C21 1_555 1_555
C6 N4 1_555 1_555
H12 C6 1_555 1_555
H13 C6 1_555 1_555
C7 C2 1_555 1_555
C8 C6 1_555 1_555
C9 H14 1_555 1_555
C10 C1 1_555 1_555
H15 C10 1_555 1_555
C11 C13 1_555 1_555
C12 C28 1_555 1_555
C13 C10 1_555 1_555
H16 C13 1_555 1_555
C14 H17 1_555 1_555
C15 C7 1_555 1_555
C16 N7 1_555 1_555
H18 C16 1_555 1_555
H19 C16 1_555 1_555
C17 C9 1_555 1_555
H20 C17 1_555 1_555
C18 N3 1_555 1_555
H21 C18 1_555 1_555
H22 C18 1_555 1_555
C19 O1 1_555 1_555
H23 C19 1_555 1_555
H24 C19 1_555 1_555
C20 N4 1_555 1_555
C21 C8 1_555 1_555
C22 N6 1_555 1_555
C23 C20 1_555 1_555
H25 C23 1_555 1_555
H26 C23 1_555 1_555
C24 H27 1_555 1_555
C25 O2 1_555 1_555
C26 N5 1_555 1_555
H28 C26 1_555 1_555
H29 C26 1_555 1_555
C27 C24 1_555 1_555
C28 H30 1_555 1_555
C29 N1 1_555 1_555
H31 C29 1_555 1_555
H32 C29 1_555 1_555
C30 C21 1_555 1_555
H33 C30 1_555 1_555
H34 C30 1_555 1_555
H35 C30 1_555 1_555
C31 N6 1_555 1_555
H36 C31 1_555 1_555
H37 C31 1_555 1_555
C32 N7 1_555 1_555
H38 C32 1_555 1_555
H39 C32 1_555 1_555
C33 C15 1_555 1_555
H40 C33 1_555 1_555
H41 C33 1_555 1_555
H42 C33 1_555 1_555
C34 N3 1_555 1_555
H43 C34 1_555 1_555
H44 C34 1_555 1_555
C35 C2 1_555 1_555
H45 C35 1_555 1_555
H46 C35 1_555 1_555
H47 C35 1_555 1_555
C36 C14 1_555 1_555
H48 C36 1_555 1_555
C37 C24 1_555 1_555
H49 C37 1_555 1_555
C38 C28 1_555 1_555
H50 C38 1_555 1_555
C39 O5 1_555 1_555
H51 C39 1_555 1_555
H52 C39 1_555 1_555
C40 C12 1_555 1_555
H53 C40 1_555 1_555
C41 N1 1_555 1_555
H54 C41 1_555 1_555
H55 C41 1_555 1_555
C42 N2 1_555 1_555
H56 C42 1_555 1_555
H57 C42 1_555 1_555
C43 N2 1_555 1_555
H58 C43 1_555 1_555
H59 C43 1_555 1_555
C44 C38 1_555 1_555
C45 C40 1_555 1_555
H60 C45 1_555 1_555
O7 C51 1_555 1_555
O8 C48 1_555 1_555
O9 C51 1_555 1_555
O10 C48 1_555 1_555
C46 H61 1_555 1_555
H62 C46 1_555 1_555
C47 C46 1_555 1_555
H63 C47 1_555 1_555
H64 C47 1_555 1_555
C48 C49 1_555 1_555
C49 H65 1_555 1_555
H66 C49 1_555 1_555
C50 C46 1_555 1_555
H67 C50 1_555 1_555
H68 C50 1_555 1_555
C51 C47 1_555 1_555
O11 C52 1_555 1_555
O12 C52 1_555 1_555
C52 C54 1_555 1_555
C53 H69 1_555 1_555
H70 C53 1_555 1_555
C54 C53 1_555 1_555
H71 C54 1_555 1_555
H72 C54 1_555 1_555
O11B C52B 1_555 1_555
O12B C52B 1_555 1_555
C52B C54B 1_555 1_555
C53B C53 1_555 1_555
H69B C53B 1_555 1_555
H70B C53B 1_555 1_555
C54B C53B 1_555 1_555
H71B C54B 1_555 1_555
H72B C54B 1_555 1_555
C3 C19 1_555 1_555
C4 C29 1_555 1_555
C5 C26 1_555 1_555
C7 C31 1_555 1_555
C8 C15 1_555 1_555
C11 C17 1_555 1_555
C11 C32 1_555 1_555
C14 C25 1_555 1_555
C16 C18 1_555 1_555
C22 C39 1_555 1_555
C25 C37 1_555 1_555
C27 C36 1_555 1_555
C27 C41 1_555 1_555
C34 C42 1_555 1_555
C43 C44 1_555 1_555
C44 C45 1_555 1_555
C49 C50 1_555 1_555

#END
