
#######################################################################
#
#                 Cambridge Crystallographic Data Centre
#                                CCDC 
#
#######################################################################
#
# If this CIF has been generated from an entry in the Cambridge 
# Structural Database, then it will include bibliographic, chemical, 
# crystal, experimental, refinement or atomic coordinate data resulting 
# from the CCDC's data processing and validation procedures.
#
#######################################################################

data_RELZIU
_chemical_formula_moiety         'C65 H105 N7 O33'
_symmetry_cell_setting           monoclinic
_symmetry_space_group_name_H-M   'C 2/c'
_symmetry_Int_Tables_number      15
_space_group_name_Hall           '-C 2yn'
loop_
_symmetry_equiv_pos_site_id
_symmetry_equiv_pos_as_xyz
1 x,y,z
2 -x,y,1/2-z
3 1/2+x,1/2+y,z
4 1/2-x,1/2+y,1/2-z
5 -x,-y,-z
6 x,-y,1/2+z
7 1/2-x,1/2-y,-z
8 1/2+x,1/2-y,1/2+z
_cell_length_a                   38.167(5)
_cell_length_b                   16.311(2)
_cell_length_c                   20.656(3)
_cell_angle_alpha                90
_cell_angle_beta                 109.581(4)
_cell_angle_gamma                90
_cell_volume                     12115.6
loop_
_atom_site_label
_atom_site_type_symbol
_atom_site_fract_x
_atom_site_fract_y
_atom_site_fract_z
N1 N 0.56041(8) 0.45151(17) 0.95732(15)
N2 N 0.61781(9) 0.42346(17) 0.88531(17)
H1 H 0.602248 0.407322 0.844684
H2 H 0.617206 0.386275 0.916446
N3 N 0.71222(9) -0.06784(17) 0.85720(14)
N4 N 0.61371(8) 0.39506(17) 1.09881(15)
H3 H 0.632575 0.425553 1.096410
H4 H 0.609427 0.355982 1.067028
N5 N 0.74673(8) -0.04706(17) 1.16173(15)
N6 N 0.52526(11) 0.28215(19) 0.90570(19)
H5 H 0.519417 0.250412 0.868543
H6 H 0.549859 0.288266 0.920979
N7 N 0.61228(8) -0.20674(18) 0.99125(16)
O1 O 0.72843(7) 0.13434(15) 0.85271(13)
O2 O 0.76567(7) -0.01127(15) 0.85112(13)
O3 O 0.71979(7) 0.08275(14) 1.20494(12)
O4 O 0.80604(7) -0.00810(14) 1.22193(13)
O5 O 0.56868(7) -0.08636(15) 1.00084(13)
O6 O 0.56380(8) -0.29569(16) 0.95524(16)
C1 C 0.56580(11) 0.5023(2) 0.90187(19)
H7 H 0.557830 0.557933 0.906042
H8 H 0.550187 0.481072 0.857776
C2 C 0.60545(11) 0.5039(2) 0.9035(2)
H9 H 0.608019 0.545181 0.871563
H10 H 0.621449 0.519485 0.949189
C3 C 0.65611(11) 0.4285(2) 0.8823(2)
H11 H 0.672087 0.453509 0.924459
H12 H 0.655753 0.464429 0.844676
C4 C 0.67308(10) 0.3470(2) 0.87279(19)
C5 C 0.65672(10) 0.2960(2) 0.8172(2)
H13 H 0.633815 0.310240 0.785351
C6 C 0.67404(10) 0.2236(2) 0.80807(18)
H14 H 0.662739 0.189427 0.770848
C7 C 0.70810(10) 0.2036(2) 0.85512(17)
C8 C 0.72546(10) 0.2555(2) 0.90953(18)
H15 H 0.748990 0.242840 0.939869
C9 C 0.70777(11) 0.3260(2) 0.91852(19)
H16 H 0.719229 0.359920 0.955780
C10 C 0.70919(10) 0.0677(2) 0.81055(18)
H17 H 0.708126 0.075238 0.763350
H18 H 0.684036 0.063121 0.811553
C11 C 0.73181(11) -0.0082(2) 0.84164(17)
C12 C 0.72878(11) -0.1457(2) 0.88852(19)
H19 H 0.755637 -0.142366 0.901754
H20 H 0.720348 -0.189547 0.855130
C13 C 0.57241(10) 0.4995(2) 1.02135(18)
H21 H 0.553332 0.539446 1.019860
H22 H 0.594892 0.529259 1.024261
C14 C 0.57981(10) 0.4474(2) 1.08512(19)
H23 H 0.582881 0.482800 1.124344
H24 H 0.558456 0.412421 1.079806
C15 C 0.62384(11) 0.3565(2) 1.16910(18)
H25 H 0.634916 0.397880 1.203607
H26 H 0.601332 0.337244 1.176124
C16 C 0.65054(10) 0.2858(2) 1.17898(17)
C17 C 0.68772(11) 0.2980(2) 1.18693(18)
H27 H 0.696509 0.351010 1.186053
C18 C 0.71210(10) 0.2321(2) 1.19621(17)
H28 H 0.736958 0.240860 1.201270
C19 C 0.69891(10) 0.1531(2) 1.19782(16)
C20 C 0.66225(10) 0.1400(2) 1.19211(18)
H29 H 0.653698 0.087124 1.194503
C21 C 0.63823(11) 0.2062(2) 1.18279(18)
H30 H 0.613561 0.197294 1.179025
C22 C 0.75768(10) 0.0896(2) 1.21077(19)
H31 H 0.772025 0.109924 1.256051
H32 H 0.760298 0.128141 1.176887
C23 C 0.77205(10) 0.0060(2) 1.19935(17)
C24 C 0.75764(11) -0.1289(2) 1.14424(18)
H33 H 0.756700 -0.168077 1.178927
H34 H 0.783026 -0.126752 1.144172
C25 C 0.52098(11) 0.4296(2) 0.9398(2)
H35 H 0.506062 0.478467 0.923910
H36 H 0.516684 0.410892 0.981041
C26 C 0.50789(14) 0.3639(2) 0.8852(2)
H37 H 0.481155 0.358203 0.872894
H38 H 0.513012 0.381913 0.844517
C27 C 0.51443(12) 0.2400(2) 0.9584(2)
H39 H 0.487538 0.241003 0.945417
H40 H 0.524578 0.269456 1.001430
C28 C 0.52762(11) 0.1520(2) 0.96896(19)
C29 C 0.56109(12) 0.1329(3) 1.0195(2)
H41 H 0.575198 0.174305 1.047090
C30 C 0.57366(12) 0.0528(2) 1.0290(2)
H42 H 0.596013 0.040412 1.063267
C31 C 0.55297(10) -0.0092(2) 0.98754(18)
C32 C 0.51957(10) 0.0083(2) 0.93742(19)
H43 H 0.505390 -0.033252 0.910110
C33 C 0.50734(11) 0.0898(2) 0.9283(2)
H44 H 0.485000 0.102202 0.894056
C34 C 0.54981(10) -0.1535(2) 0.95969(19)
H45 H 0.540939 -0.137725 0.911643
H46 H 0.528523 -0.169067 0.972602
C35 C 0.57613(11) -0.2249(2) 0.97008(19)
C36 C 0.64077(10) -0.2703(2) 0.9969(2)
H47 H 0.633258 -0.304849 0.956310
H48 H 0.643667 -0.304578 1.036733
C37 C 0.67702(10) -0.2282(2) 1.00378(18)
C38 C 0.68573(10) -0.2097(2) 0.94475(18)
C39 C 0.71805(10) -0.1653(2) 0.95139(18)
C40 C 0.74088(10) -0.1366(2) 1.01601(18)
C41 C 0.73229(10) -0.1571(2) 1.07469(17)
C42 C 0.70030(10) -0.2029(2) 1.06929(18)
C43 C 0.65939(11) -0.2345(2) 0.87494(19)
H49 H 0.664978 -0.203704 0.839989
H50 H 0.634268 -0.223486 0.872523
H51 H 0.662175 -0.291936 0.867945
C44 C 0.77378(10) -0.0812(2) 1.0222(2)
H52 H 0.778773 -0.047415 1.062279
H53 H 0.768165 -0.047116 0.982099
H54 H 0.795234 -0.114163 1.025993
C45 C 0.68970(13) -0.2221(2) 1.1320(2)
H55 H 0.697108 -0.277083 1.146868
H56 H 0.663269 -0.216858 1.120640
H57 H 0.702011 -0.184439 1.168205
C46 C 0.5351(2) 1.1911(4) 0.7593(4)
O7 O 0.53276(15) 1.2049(3) 0.6988(3)
O8 O 0.51309(15) 1.2214(3) 0.7866(3)
C47 C 0.5628(2) 1.1275(4) 0.7995(4)
H58 H 0.585222 1.130256 0.787510
H59 H 0.569372 1.137939 0.848405
C48 C 0.54514(19) 1.0430(4) 0.7824(4)
H60 H 0.537444 1.034440 0.733107
H61 H 0.523126 1.040469 0.795814
C49 C 0.5728(3) 0.9727(7) 0.8199(6)
H62 H 0.563647 0.919949 0.799561
H63 H 0.575408 0.971061 0.868259
C50 C 0.6112(3) 0.9933(8) 0.8107(5)
O9 O 0.6122(2) 0.9966(6) 0.7507(4)
O10 O 0.6416(4) 0.9840(9) 0.8617(7)
O11 O 0.53347(19) 0.8461(5) 0.6754(4)
C51 C 0.6660(5) -0.0051(10) 1.0268(7)
O12 O 0.6688(7) -0.0173(15) 1.0876(7)
O13 O 0.6415(2) -0.0420(4) 0.9765(4)
C52 C 0.6896(3) 0.0631(6) 1.0120(6)
H64 H 0.692662 0.053212 0.967937
H65 H 0.714060 0.062739 1.046989
C53 C 0.6713(3) 0.1483(6) 1.0111(7)
H66 H 0.665283 0.154159 1.052892
H67 H 0.689341 0.190298 1.011505
C54 C 0.6375(2) 0.1631(5) 0.9523(4)
H68 H 0.619939 0.119514 0.950870
H69 H 0.643819 0.159000 0.910668
C55 C 0.6182(2) 0.2440(4) 0.9512(4)
O14 O 0.59203(14) 0.2630(3) 0.8985(3)
O15 O 0.6309(3) 0.2887(6) 1.0040(6)
O16 O 0.65741(9) 0.4476(2) 0.65139(19)
O17 O 0.57960(9) 0.20417(19) 0.6356(2)
O18 O 0.59250(9) 0.36455(18) 0.64630(17)
O19 O 0.52860(12) 0.5602(3) 0.7214(2)
O20 O 0.57330(10) 0.4228(2) 0.75218(18)
O21 O 0.5636(2) 0.6892(5) 0.8154(3)
O22 O 0.48963(11) 0.6660(3) 0.8969(2)
O23 O 0.82506(10) 0.0635(3) 0.9492(2)
O24 O 0.63296(8) 1.0856(2) 0.66883(15)
C56? C 0.5296(2) 0.7987(7) 0.7243(5)
O25? O 0.5427(2) 0.7452(9) 0.6956(6)
O26? O 0.49575(19) 0.8041(5) 0.7202(3)
C57? C 0.5578(2) 0.8509(5) 0.7758(5)
H70? H 0.580955 0.849520 0.766021
H71? H 0.562520 0.828312 0.821315
C58? C 0.5453(2) 0.9393(6) 0.7750(5)
H72? H 0.522084 0.940449 0.784631
H73? H 0.540467 0.961618 0.729326
C59? C 0.5743(3) 0.9954(10) 0.8284(7)
H74? H 0.569057 1.053568 0.821490
H75? H 0.578836 0.980094 0.875885
C60? C 0.6050(3) 0.9644(6) 0.7992(4)
O27? O 0.5986(2) 0.9556(5) 0.7364(4)
O28? O 0.6376(4) 0.9631(10) 0.8450(7)
O29? O 0.5628(2) 1.2017(8) 0.7650(5)
C61? C 0.6628(6) -0.0122(12) 1.0107(9)
O30? O 0.6684(10) -0.024(2) 1.0726(8)
O31? O 0.6378(3) -0.0493(6) 0.9625(5)
C62? C 0.6887(4) 0.0466(7) 0.9911(7)
H76? H 0.714269 0.028751 1.012524
H77? H 0.683099 0.045432 0.941670
C63? C 0.6845(3) 0.1349(8) 1.0141(7)
H78? H 0.690818 0.135668 1.063654
H79? H 0.701964 0.170028 1.002451
C64? C 0.6463(4) 0.1689(6) 0.9823(8)
H80? H 0.638949 0.162347 0.932810
H81? H 0.629243 0.137007 0.997915
C65? C 0.6425(3) 0.2577(7) 0.9981(6)
O32? O 0.6120(2) 0.2926(6) 0.9842(5)
O33? O 0.67309(17) 0.2960(4) 1.0297(3)
loop_
_geom_bond_atom_site_label_1
_geom_bond_atom_site_label_2
_geom_bond_site_symmetry_1
_geom_bond_site_symmetry_2
N1 C1 1_555 1_555
N2 H1 1_555 1_555
H2 N2 1_555 1_555
N3 C11 1_555 1_555
N4 H3 1_555 1_555
H4 N4 1_555 1_555
N5 C23 1_555 1_555
N6 H5 1_555 1_555
H6 N6 1_555 1_555
N7 C35 1_555 1_555
O1 C7 1_555 1_555
O2 C11 1_555 1_555
O3 C19 1_555 1_555
O4 C23 1_555 1_555
O5 C31 1_555 1_555
O6 C35 1_555 1_555
C1 H7 1_555 1_555
H8 C1 1_555 1_555
C2 N2 1_555 1_555
H9 C2 1_555 1_555
H10 C2 1_555 1_555
C3 N2 1_555 1_555
H11 C3 1_555 1_555
H12 C3 1_555 1_555
C4 C3 1_555 1_555
C5 C4 1_555 1_555
H13 C5 1_555 1_555
C6 C5 1_555 1_555
H14 C6 1_555 1_555
C7 C6 1_555 1_555
C8 C7 1_555 1_555
H15 C8 1_555 1_555
C9 C4 1_555 1_555
H16 C9 1_555 1_555
C10 O1 1_555 1_555
H17 C10 1_555 1_555
H18 C10 1_555 1_555
C11 C10 1_555 1_555
C12 N3 1_555 1_555
H19 C12 1_555 1_555
H20 C12 1_555 1_555
C13 N1 1_555 1_555
H21 C13 1_555 1_555
H22 C13 1_555 1_555
C14 N4 1_555 1_555
H23 C14 1_555 1_555
H24 C14 1_555 1_555
C15 N4 1_555 1_555
H25 C15 1_555 1_555
H26 C15 1_555 1_555
C16 C15 1_555 1_555
C17 C16 1_555 1_555
H27 C17 1_555 1_555
C18 C17 1_555 1_555
H28 C18 1_555 1_555
C19 C18 1_555 1_555
C20 C19 1_555 1_555
H29 C20 1_555 1_555
C21 C16 1_555 1_555
H30 C21 1_555 1_555
C22 O3 1_555 1_555
H31 C22 1_555 1_555
H32 C22 1_555 1_555
C23 C22 1_555 1_555
C24 N5 1_555 1_555
H33 C24 1_555 1_555
H34 C24 1_555 1_555
C25 N1 1_555 1_555
H35 C25 1_555 1_555
H36 C25 1_555 1_555
C26 N6 1_555 1_555
H37 C26 1_555 1_555
H38 C26 1_555 1_555
C27 N6 1_555 1_555
H39 C27 1_555 1_555
H40 C27 1_555 1_555
C28 C27 1_555 1_555
C29 C28 1_555 1_555
H41 C29 1_555 1_555
C30 C29 1_555 1_555
H42 C30 1_555 1_555
C31 C30 1_555 1_555
C32 C31 1_555 1_555
H43 C32 1_555 1_555
C33 C28 1_555 1_555
H44 C33 1_555 1_555
C34 O5 1_555 1_555
H45 C34 1_555 1_555
H46 C34 1_555 1_555
C35 C34 1_555 1_555
C36 N7 1_555 1_555
H47 C36 1_555 1_555
H48 C36 1_555 1_555
C37 C36 1_555 1_555
C38 C37 1_555 1_555
C39 C12 1_555 1_555
C40 C39 1_555 1_555
C41 C24 1_555 1_555
C42 C37 1_555 1_555
C43 C38 1_555 1_555
H49 C43 1_555 1_555
H50 C43 1_555 1_555
H51 C43 1_555 1_555
C44 C40 1_555 1_555
H52 C44 1_555 1_555
H53 C44 1_555 1_555
H54 C44 1_555 1_555
C45 C42 1_555 1_555
H55 C45 1_555 1_555
H56 C45 1_555 1_555
H57 C45 1_555 1_555
C46 O7 1_555 1_555
O8 C46 1_555 1_555
C47 C46 1_555 1_555
H58 C47 1_555 1_555
H59 C47 1_555 1_555
C48 C47 1_555 1_555
H60 C48 1_555 1_555
H61 C48 1_555 1_555
C49 C48 1_555 1_555
H62 C49 1_555 1_555
H63 C49 1_555 1_555
C50 C49 1_555 1_555
O9 C50 1_555 1_555
O10 C50 1_555 1_555
C51 O12 1_555 1_555
O13 C51 1_555 1_555
C52 C51 1_555 1_555
H64 C52 1_555 1_555
H65 C52 1_555 1_555
C53 C52 1_555 1_555
H66 C53 1_555 1_555
H67 C53 1_555 1_555
C54 C53 1_555 1_555
H68 C54 1_555 1_555
H69 C54 1_555 1_555
C55 C54 1_555 1_555
O14 C55 1_555 1_555
O15 C55 1_555 1_555
C1 C2 1_555 1_555
C8 C9 1_555 1_555
C13 C14 1_555 1_555
C20 C21 1_555 1_555
C25 C26 1_555 1_555
C32 C33 1_555 1_555
C38 C39 1_555 1_555
C40 C41 1_555 1_555
C41 C42 1_555 1_555

#END
