
#######################################################################
#
#                 Cambridge Crystallographic Data Centre
#                                CCDC 
#
#######################################################################
#
# If this CIF has been generated from an entry in the Cambridge 
# Structural Database, then it will include bibliographic, chemical, 
# crystal, experimental, refinement or atomic coordinate data resulting 
# from the CCDC's data processing and validation procedures.
#
#######################################################################

data_RELZEQ
_chemical_formula_moiety         'C55 H85 N7 O24'
_symmetry_cell_setting           monoclinic
_symmetry_space_group_name_H-M   'P 21/c'
_symmetry_Int_Tables_number      14
_space_group_name_Hall           '-P 2ybc'
loop_
_symmetry_equiv_pos_site_id
_symmetry_equiv_pos_as_xyz
1 x,y,z
2 -x,1/2+y,1/2-z
3 -x,-y,-z
4 x,1/2-y,1/2+z
_cell_length_a                   11.8025(7)
_cell_length_b                   20.7261(13)
_cell_length_c                   24.3022(15)
_cell_angle_alpha                90
_cell_angle_beta                 99.226(2)
_cell_angle_gamma                90
_cell_volume                     5867.89
loop_
_atom_site_label
_atom_site_type_symbol
_atom_site_fract_x
_atom_site_fract_y
_atom_site_fract_z
C1 C 0.7160(4) 0.3015(2) 0.27923(19)
C2 C 0.4465(4) 0.4041(2) 0.09745(18)
H1 H 0.4226 0.4484 0.1017
H2 H 0.3780 0.3774 0.0922
C3 C 0.8947(4) 0.5201(2) 0.04579(18)
C4 C 1.2591(4) 0.3190(2) 0.16980(19)
C5 C 0.6346(4) 0.4426(2) -0.01237(19)
C6 C 0.6010(4) 0.3948(2) -0.05271(18)
C7 C 0.5387(4) 0.4227(2) 0.19371(19)
C8 C 0.8014(4) 0.2019(2) 0.3126(2)
H3 H 0.8068 0.1573 0.3094
C9 C 1.1102(4) 0.3998(2) 0.10157(19)
C10 C 0.7952(4) 0.1169(2) -0.01050(19)
C11 C 0.8606(4) 0.2993(3) 0.3606(2)
H4 H 0.9065 0.3210 0.3894
C12 C 1.2017(4) 0.2970(2) 0.1185(2)
H5 H 1.2139 0.2551 0.1070
C13 C 0.5028(4) 0.3994(2) 0.04545(19)
C14 C 1.3622(4) 0.1754(2) 0.26188(19)
H6 H 1.3618 0.1968 0.2974
H7 H 1.4407 0.1748 0.2546
C15 C 0.5181(4) 0.3491(2) -0.04328(19)
C16 C 0.6281(4) 0.4947(2) 0.08066(19)
H8 H 0.5679 0.5042 0.1017
H9 H 0.6489 0.5333 0.0629
H10 H 0.6938 0.4785 0.1052
C17 C 0.6188(4) 0.3979(2) 0.24384(19)
H11 H 0.6919 0.4201 0.2469
H12 H 0.5866 0.4067 0.2774
C18 C 1.1489(4) 0.0399(2) 0.2614(2)
H13 H 1.0712 0.0403 0.2696
H14 H 1.1934 0.0108 0.2878
C19 C 0.4846(4) 0.2959(2) -0.0856(2)
H15 H 0.4046 0.2846 -0.0864
H16 H 0.4939 0.3109 -0.1224
C20 C 1.2416(4) 0.3820(2) 0.18536(19)
H17 H 1.2799 0.3972 0.2193
C21 C 1.1832(4) 0.1268(2) 0.32660(18)
H18 H 1.2356 0.1623 0.3374
H19 H 1.2042 0.0919 0.3528
C22 C 1.1681(4) 0.4232(2) 0.15129(19)
H20 H 1.1583 0.4657 0.1619
C23 C 1.3406(4) 0.2767(2) 0.2079(2)
H21 H 1.4101 0.2705 0.1919
H22 H 1.3616 0.2982 0.2436
C24 C 0.7826(4) 0.3341(3) 0.32211(19)
H23 H 0.7759 0.3785 0.3255
C25 C 0.7792(4) 0.0531(3) 0.0011(2)
H24 H 0.7140 0.0314 -0.0162
C26 C 1.1268(4) 0.3370(2) 0.0846(2)
H25 H 1.0879 0.3220 0.0507
C27 C 0.7251(4) 0.2358(2) 0.2739(2)
H26 H 0.6803 0.2143 0.2446
C28 C 0.5869(4) 0.4444(2) 0.03683(18)
C29 C 0.9991(4) 0.4966(2) 0.08449(19)
H27 H 1.0615 0.5272 0.0851
H28 H 0.9819 0.4927 0.1221
C30 C 1.0467(5) 0.0152(2) 0.1050(2)
H29 H 1.0146 -0.0261 0.1135
H30 H 1.1145 0.0068 0.0882
C31 C 1.1457(5) 0.0122(2) 0.20296(19)
H31 H 1.2239 0.0075 0.1959
H32 H 1.1117 -0.0305 0.2016
C32 C 0.9479(4) 0.1959(3) 0.4002(2)
H33 H 0.9586 0.2205 0.4346
H34 H 0.9098 0.1559 0.4071
C33 C 0.7257(4) 0.4914(2) -0.02076(19)
H35 H 0.7352 0.4918 -0.0597
H36 H 0.7014 0.5340 -0.0112
C34 C 1.0622(4) 0.1485(2) 0.33056(19)
H37 H 1.0354 0.1787 0.3008
H38 H 1.0109 0.1116 0.3269
C35 C 0.8699(4) 0.2336(2) 0.3562(2)
C36 C 0.9761(4) 0.1152(3) 0.0502(2)
H39 H 1.0435 0.1360 0.0656
C37 C 0.3838(4) 0.2994(2) 0.0164(2)
H40 H 0.3074 0.3162 0.0071
H41 H 0.3977 0.2873 0.0550
H42 H 0.3919 0.2622 -0.0062
C38 C 0.4695(4) 0.3505(2) 0.00585(19)
C39 C 0.5362(4) 0.1828(2) -0.0954(2)
C40 C 0.6556(4) 0.3903(2) -0.1046(2)
H43 H 0.6124 0.4158 -0.1337
H44 H 0.6562 0.3462 -0.1164
H45 H 0.7329 0.4062 -0.0968
C41 C 0.8607(5) 0.0209(3) 0.0388(2)
H46 H 0.8484 -0.0220 0.0474
C42 C 0.6149(4) 0.1278(2) -0.0732(2)
H47 H 0.5790 0.1016 -0.0477
H48 H 0.6303 0.1006 -0.1036
C43 C 0.8939(4) 0.1484(3) 0.0139(2)
H49 H 0.9049 0.1917 0.0061
C44 C 1.3199(4) 0.1071(2) 0.26522(19)
H50 H 1.3311 0.0838 0.2319
H51 H 1.3645 0.0856 0.2970
C45 C 0.9596(4) 0.0512(2) 0.0639(2)
N1 N 0.5200(3) 0.38422(18) 0.14868(15)
H52 H 0.5523 0.3469 0.1501
N2 N 0.8349(3) 0.47583(19) 0.01367(15)
H53 H 0.8614 0.4372 0.0132
N3 N 0.5569(3) 0.23920(19) -0.07060(16)
H54 H 0.6153 0.2428 -0.0446
N4 N 1.0631(3) 0.18015(19) 0.38595(15)
H55 H 1.0998 0.1540 0.4126
H56 H 1.1039 0.2169 0.3867
N5 N 1.0805(4) 0.0522(2) 0.15804(16)
H57 H 1.1238 0.0862 0.1514
H58 H 1.0169 0.0674 0.1696
N6 N 1.2892(3) 0.21233(18) 0.21700(15)
H59 H 1.2191 0.2180 0.2263
H60 H 1.2810 0.1895 0.1851
O1 O 1.0316(3) 0.43587(15) 0.06548(12)
O2 O 0.4993(3) 0.47769(16) 0.19507(13)
O3 O 0.8653(3) 0.57749(16) 0.04743(13)
O4 O 0.7192(3) 0.15501(16) -0.04489(13)
O5 O 0.6359(3) 0.33099(15) 0.23903(13)
O6 O 0.4544(3) 0.17269(18) -0.13389(16)
N7 N 1.1970(3) 0.10504(18) 0.27080(15)
C46 C 0.9330(4) 0.3360(2) 0.19882(19)
C47 C 0.8797(4) 0.2998(2) 0.14786(18)
H61 H 0.8338 0.2646 0.1587
H62 H 0.9399 0.2813 0.1299
C48 C 1.0316(4) 0.3012(2) 0.23796(19)
C49 C 0.7791(4) 0.3123(2) 0.04939(19)
C50 C 0.8040(4) 0.3434(2) 0.10655(18)
H63 H 0.7324 0.3517 0.1200
H64 H 0.8424 0.3844 0.1038
O7 O 1.0548(3) 0.24470(16) 0.22498(13)
O8 O 0.8310(3) 0.32862(16) 0.01163(13)
O9 O 1.0804(3) 0.33351(16) 0.27829(14)
O10 O 0.9039(3) 0.38967(17) 0.20982(14)
O11 O 0.7018(3) 0.26583(15) 0.04240(13)
C51 C 0.5597(5) 0.1439(3) 0.0778(2)
H65 H 0.6376 0.1412 0.0700
H66 H 0.5124 0.1623 0.0452
C52 C 0.5169(5) 0.0760(3) 0.0870(2)
H67 H 0.5085 0.0533 0.0517
H68 H 0.5762 0.0539 0.1124
C53 C 0.5579(4) 0.1887(2) 0.1266(2)
C54 C 0.3087(5) 0.1160(3) 0.0904(3)
C55 C 0.4056(5) 0.0696(3) 0.1096(2)
O12 O 0.5950(3) 0.24662(17) 0.12239(13)
O13 O 0.2453(3) 0.13359(17) 0.12472(14)
O14 O 0.5172(3) 0.16905(17) 0.16787(14)
O15 O 0.3839(4) 0.02475(19) 0.13915(17)
O16 O 0.2971(4) 0.1317(2) 0.03896(17)
O17 O 0.1113(3) 0.03982(18) 0.80394(15)
O18 O 0.1646(3) 0.55299(17) 0.23140(15)
O19 O 0.0819(3) 0.63462(17) 0.31124(15)
O20 O 0.2243(4) 0.28253(19) 0.36137(17)
O21 O 0.1383(4) 0.2013(3) 0.9623(2)
O22 O 0.3492(5) 0.0577(2) 0.8342(3)
O23 O 0.3950(7) 0.0625(4) 0.9618(3)
O24 O 0.3997(4) 0.5607(3) 0.2627(2)
loop_
_geom_bond_atom_site_label_1
_geom_bond_atom_site_label_2
_geom_bond_site_symmetry_1
_geom_bond_site_symmetry_2
C1 C24 1_555 1_555
C2 H1 1_555 1_555
H2 C2 1_555 1_555
C3 C29 1_555 1_555
C4 C12 1_555 1_555
C5 C6 1_555 1_555
C6 C15 1_555 1_555
C7 C17 1_555 1_555
C8 H3 1_555 1_555
C9 C22 1_555 1_555
C10 C25 1_555 1_555
C11 H4 1_555 1_555
C12 H5 1_555 1_555
C13 C2 1_555 1_555
C14 H6 1_555 1_555
H7 C14 1_555 1_555
C15 C19 1_555 1_555
C16 H8 1_555 1_555
H9 C16 1_555 1_555
H10 C16 1_555 1_555
C17 H11 1_555 1_555
H12 C17 1_555 1_555
C18 H13 1_555 1_555
H14 C18 1_555 1_555
C19 H15 1_555 1_555
H16 C19 1_555 1_555
C20 C4 1_555 1_555
H17 C20 1_555 1_555
C21 H18 1_555 1_555
H19 C21 1_555 1_555
C22 C20 1_555 1_555
H20 C22 1_555 1_555
C23 C4 1_555 1_555
H21 C23 1_555 1_555
H22 C23 1_555 1_555
C24 C11 1_555 1_555
H23 C24 1_555 1_555
C25 H24 1_555 1_555
C26 C9 1_555 1_555
H25 C26 1_555 1_555
C27 C1 1_555 1_555
H26 C27 1_555 1_555
C28 C5 1_555 1_555
C29 H27 1_555 1_555
H28 C29 1_555 1_555
C30 H29 1_555 1_555
H30 C30 1_555 1_555
C31 C18 1_555 1_555
H31 C31 1_555 1_555
H32 C31 1_555 1_555
C32 H33 1_555 1_555
H34 C32 1_555 1_555
C33 C5 1_555 1_555
H35 C33 1_555 1_555
H36 C33 1_555 1_555
C34 C21 1_555 1_555
H37 C34 1_555 1_555
H38 C34 1_555 1_555
C35 C8 1_555 1_555
C36 H39 1_555 1_555
C37 H40 1_555 1_555
H41 C37 1_555 1_555
H42 C37 1_555 1_555
C38 C13 1_555 1_555
C39 C42 1_555 1_555
C40 C6 1_555 1_555
H43 C40 1_555 1_555
H44 C40 1_555 1_555
H45 C40 1_555 1_555
C41 C25 1_555 1_555
H46 C41 1_555 1_555
C42 H47 1_555 1_555
H48 C42 1_555 1_555
C43 C10 1_555 1_555
H49 C43 1_555 1_555
C44 C14 1_555 1_555
H50 C44 1_555 1_555
H51 C44 1_555 1_555
C45 C30 1_555 1_555
N1 C2 1_555 1_555
H52 N1 1_555 1_555
N2 C3 1_555 1_555
H53 N2 1_555 1_555
N3 C19 1_555 1_555
H54 N3 1_555 1_555
N4 C32 1_555 1_555
H55 N4 1_555 1_555
H56 N4 1_555 1_555
N5 C30 1_555 1_555
H57 N5 1_555 1_555
H58 N5 1_555 1_555
N6 C14 1_555 1_555
H59 N6 1_555 1_555
H60 N6 1_555 1_555
O1 C9 1_555 1_555
O2 C7 1_555 1_555
O3 C3 1_555 1_555
O4 C10 1_555 1_555
O5 C1 1_555 1_555
O6 C39 1_555 1_555
N7 C18 1_555 1_555
C46 C47 1_555 1_555
C47 H61 1_555 1_555
H62 C47 1_555 1_555
C48 C46 1_555 1_555
C49 C50 1_555 1_555
C50 C47 1_555 1_555
H63 C50 1_555 1_555
H64 C50 1_555 1_555
O7 C48 1_555 1_555
O8 C49 1_555 1_555
O9 C48 1_555 1_555
O10 C46 1_555 1_555
O11 C49 1_555 1_555
C51 H65 1_555 1_555
H66 C51 1_555 1_555
C52 C51 1_555 1_555
H67 C52 1_555 1_555
H68 C52 1_555 1_555
C53 C51 1_555 1_555
C54 C55 1_555 1_555
C55 C52 1_555 1_555
O12 C53 1_555 1_555
O13 C54 1_555 1_555
O14 C53 1_555 1_555
O15 C55 1_555 1_555
O16 C54 1_555 1_555
C7 N1 1_555 1_555
C8 C27 1_555 1_555
C11 C35 1_555 1_555
C12 C26 1_555 1_555
C13 C28 1_555 1_555
C15 C38 1_555 1_555
C16 C28 1_555 1_555
C17 O5 1_555 1_555
C21 N7 1_555 1_555
C23 N6 1_555 1_555
C29 O1 1_555 1_555
C31 N5 1_555 1_555
C32 C35 1_555 1_555
C33 N2 1_555 1_555
C34 N4 1_555 1_555
C36 C43 1_555 1_555
C36 C45 1_555 1_555
C37 C38 1_555 1_555
C39 N3 1_555 1_555
C41 C45 1_555 1_555
C42 O4 1_555 1_555
C44 N7 1_555 1_555

#END
