
#######################################################################
#
#                 Cambridge Crystallographic Data Centre
#                                CCDC 
#
#######################################################################
#
# If this CIF has been generated from an entry in the Cambridge 
# Structural Database, then it will include bibliographic, chemical, 
# crystal, experimental, refinement or atomic coordinate data resulting 
# from the CCDC's data processing and validation procedures.
#
#######################################################################

data_SAVYAS
_chemical_formula_moiety         'C109 H94 Cl3 N11'
_symmetry_cell_setting           monoclinic
_symmetry_space_group_name_H-M   'P 21/n'
_symmetry_Int_Tables_number      14
_space_group_name_Hall           '-P 2yn'
loop_
_symmetry_equiv_pos_site_id
_symmetry_equiv_pos_as_xyz
1 x,y,z
2 1/2-x,1/2+y,1/2-z
3 -x,-y,-z
4 1/2+x,1/2-y,1/2+z
_cell_length_a                   17.9406(12)
_cell_length_b                   22.5985(10)
_cell_length_c                   25.8411(13)
_cell_angle_alpha                90
_cell_angle_beta                 102.183(5)
_cell_angle_gamma                90
_cell_volume                     10240.8
loop_
_atom_site_label
_atom_site_type_symbol
_atom_site_fract_x
_atom_site_fract_y
_atom_site_fract_z
C1 C 0.2675(3) 0.5403(2) 0.88515(18)
C2 C 0.3438(3) 0.5444(2) 0.9106(2)
H1 H 0.3753 0.5720 0.8992
C3 C 0.3728(3) 0.5074(3) 0.9529(2)
H2 H 0.4239 0.5101 0.9700
C4 C 0.3257(4) 0.4661(2) 0.9699(2)
H3 H 0.3452 0.4413 0.9983
C5 C 0.2494(4) 0.4620(2) 0.9445(2)
H4 H 0.2179 0.4344 0.9558
C6 C 0.2204(3) 0.4990(3) 0.9021(2)
H5 H 0.1693 0.4963 0.8851
N1 N 0.7392(3) 0.7391(2) 0.6704(2)
N2 N 0.3459(3) 0.99810(19) 0.83436(17)
N3 N -0.1571(3) 0.9051(2) 0.98550(17)
N4 N -0.3206(3) 0.8939(2) 0.91957(17)
N5 N -0.2852(3) 0.9687(2) 0.82568(17)
N6 N 0.0339(3) 0.8165(2) 0.54589(17)
N7 N 0.6170(3) 0.7802(2) 0.5090(2)
N8 N 0.6168(3) 0.5937(2) 0.57395(19)
N9 N 0.2426(4) 0.5803(2) 0.8445(2)
N10 N -0.2923(4) 0.7728(3) 0.8683(2)
C7 C 0.7988(4) 0.7035(3) 0.5988(3)
H6 H 0.8089 0.7452 0.5942
H7 H 0.8431 0.6814 0.5939
C8 C 0.7879(4) 0.6937(3) 0.6553(3)
H8 H 0.7652 0.6551 0.6578
H9 H 0.8372 0.6943 0.6796
C9 C 0.6786(4) 0.7231(3) 0.6839(2)
H10 H 0.6674 0.6828 0.6824
C10 C 0.6247(4) 0.7629(3) 0.7017(2)
C11 C 0.5620(4) 0.7400(3) 0.7171(2)
H11 H 0.5527 0.6995 0.7154
C12 C 0.5121(4) 0.7785(3) 0.7355(2)
H12 H 0.4696 0.7628 0.7459
C13 C 0.5236(4) 0.8389(2) 0.7386(2)
C14 C 0.5868(4) 0.8596(3) 0.7218(2)
H13 H 0.5956 0.9002 0.7227
C15 C 0.6376(4) 0.8234(3) 0.7035(2)
H14 H 0.6797 0.8393 0.6927
C16 C 0.4720(3) 0.8780(2) 0.7609(2)
C17 C 0.4410(3) 0.8620(2) 0.8039(2)
H15 H 0.4487 0.8238 0.8173
C18 C 0.4001(3) 0.9005(2) 0.8271(2)
H16 H 0.3809 0.8876 0.8558
C19 C 0.3859(3) 0.9577(2) 0.8098(2)
C20 C 0.4162(4) 0.9742(3) 0.7653(2)
H17 H 0.4069 1.0122 0.7516
C21 C 0.4583(4) 0.9365(3) 0.7419(2)
H18 H 0.4782 0.9493 0.7134
C22 C 0.3738(4) 1.0564(2) 0.8442(2)
C23 C 0.4524(4) 1.0676(3) 0.8568(2)
H19 H 0.4872 1.0368 0.8584
C24 C 0.4774(4) 1.1245(3) 0.8666(3)
H20 H 0.5295 1.1317 0.8759
C25 C 0.4269(5) 1.1723(3) 0.8632(2)
H21 H 0.4448 1.2109 0.8688
C26 C 0.3502(5) 1.1604(3) 0.8513(2)
H22 H 0.3155 1.1912 0.8505
C27 C 0.3240(4) 1.1039(3) 0.8406(2)
H23 H 0.2717 1.0972 0.8306
C28 C 0.2783(3) 0.9792(2) 0.8510(2)
C29 C 0.2294(4) 0.9393(2) 0.8225(2)
H24 H 0.2410 0.9227 0.7921
C30 C 0.1632(3) 0.9231(2) 0.8376(2)
H25 H 0.1304 0.8965 0.8168
C31 C 0.1439(4) 0.9456(2) 0.8835(2)
C32 C 0.1951(4) 0.9872(2) 0.9113(2)
H26 H 0.1832 1.0052 0.9409
C33 C 0.2612(4) 1.0024(2) 0.8972(2)
H27 H 0.2950 1.0283 0.9182
C34 C 0.0736(3) 0.9287(3) 0.8991(2)
C35 C 0.0350(3) 0.9684(2) 0.9270(2)
H28 H 0.0540 1.0067 0.9334
C36 C -0.0297(3) 0.9527(2) 0.94521(19)
H29 H -0.0534 0.9799 0.9634
C37 C -0.0593(4) 0.8945(3) 0.9357(2)
C38 C -0.0221(4) 0.8547(2) 0.9071(2)
H30 H -0.0413 0.8167 0.8999
C39 C 0.0417(4) 0.8717(3) 0.8899(2)
H31 H 0.0651 0.8445 0.8715
C40 C -0.1268(4) 0.8755(3) 0.9539(2)
H32 H -0.1489 0.8395 0.9416
C41 C -0.2249(4) 0.8799(3) 1.0017(2)
H33 H -0.2187 0.8827 1.0398
H34 H -0.2299 0.8384 0.9919
C42 C -0.2949(4) 0.9126(3) 0.9752(2)
H35 H -0.3353 0.9054 0.9942
H36 H -0.2843 0.9547 0.9765
C43 C -0.3664(4) 0.9405(3) 0.8883(2)
H37 H -0.3994 0.9584 0.9092
H38 H -0.3985 0.9230 0.8571
C44 C -0.3171(4) 0.9874(3) 0.8715(2)
H39 H -0.3470 1.0231 0.8623
H40 H -0.2755 0.9967 0.9010
C45 C -0.2139(4) 0.9674(3) 0.8311(2)
H41 H -0.1838 0.9781 0.8636
C46 C -0.1760(4) 0.9496(2) 0.7883(2)
C47 C -0.0982(4) 0.9462(2) 0.7975(2)
H42 H -0.0696 0.9559 0.8308
C48 C -0.0606(4) 0.9280(2) 0.7573(2)
H43 H -0.0076 0.9265 0.7642
C49 C -0.1012(3) 0.9128(2) 0.7089(2)
C50 C -0.1805(4) 0.9160(3) 0.7003(2)
H44 H -0.2094 0.9052 0.6675
C51 C -0.2166(4) 0.9345(3) 0.7385(2)
H45 H -0.2695 0.9371 0.7310
C52 C -0.0645(3) 0.8890(2) 0.6672(2)
C53 C -0.0008(4) 0.9138(3) 0.6535(2)
H46 H 0.0204 0.9471 0.6721
C54 C 0.0336(4) 0.8923(3) 0.6140(2)
H47 H 0.0756 0.9111 0.6055
C55 C 0.0017(4) 0.8404(3) 0.58711(19)
C56 C -0.0585(4) 0.8129(3) 0.6014(2)
H48 H -0.0765 0.7773 0.5854
C57 C -0.0942(4) 0.8380(3) 0.6404(2)
H49 H -0.1374 0.8203 0.6480
C58 C -0.0180(4) 0.7883(3) 0.5031(2)
C59 C -0.0090(4) 0.7303(3) 0.4908(3)
H50 H 0.0297 0.7077 0.5110
C60 C -0.0589(4) 0.7055(3) 0.4471(3)
H51 H -0.0504 0.6670 0.4370
C61 C -0.1186(4) 0.7355(3) 0.4195(3)
H52 H -0.1514 0.7176 0.3912
C62 C -0.1315(4) 0.7942(3) 0.4334(2)
H53 H -0.1731 0.8153 0.4148
C63 C -0.0813(4) 0.8199(3) 0.4754(2)
H54 H -0.0895 0.8585 0.4853
C64 C 0.1122(4) 0.8131(3) 0.5483(2)
C65 C 0.1658(4) 0.8121(2) 0.5950(2)
H55 H 0.1499 0.8138 0.6270
C66 C 0.2437(4) 0.8084(2) 0.5955(2)
H56 H 0.2786 0.8076 0.6277
C67 C 0.2698(4) 0.8059(2) 0.5485(2)
C68 C 0.2146(4) 0.8066(2) 0.5018(2)
H57 H 0.2300 0.8048 0.4697
C69 C 0.1411(4) 0.8097(3) 0.5016(2)
H58 H 0.1067 0.8095 0.4691
C70 C 0.3521(4) 0.8046(2) 0.5489(2)
C71 C 0.4077(4) 0.8271(3) 0.5904(2)
H59 H 0.3923 0.8431 0.6196
C72 C 0.4846(4) 0.8266(3) 0.5900(3)
H60 H 0.5195 0.8440 0.6176
C73 C 0.5093(4) 0.8003(3) 0.5487(2)
C74 C 0.4551(4) 0.7767(3) 0.5057(2)
H61 H 0.4707 0.7597 0.4770
C75 C 0.3795(4) 0.7794(3) 0.5073(2)
H62 H 0.3444 0.7636 0.4790
C76 C 0.5916(4) 0.7991(3) 0.5475(3)
H63 H 0.6262 0.8131 0.5769
C77 C 0.7000(4) 0.7816(3) 0.5120(3)
H64 H 0.7251 0.8010 0.5444
H65 H 0.7107 0.8041 0.4824
C78 C 0.7302(4) 0.7199(3) 0.5106(3)
H66 H 0.6986 0.6990 0.4813
H67 H 0.7812 0.7221 0.5037
C79 C 0.7349(4) 0.6230(3) 0.5498(3)
H68 H 0.7577 0.6037 0.5828
H69 H 0.7664 0.6147 0.5245
C80 C 0.6546(4) 0.5977(3) 0.5290(2)
H70 H 0.6258 0.6233 0.5019
H71 H 0.6579 0.5588 0.5138
C81 C 0.5595(4) 0.6265(3) 0.5709(2)
H72 H 0.5454 0.6520 0.5422
C82 C 0.5135(4) 0.6251(3) 0.6131(2)
C83 C 0.5355(4) 0.5871(2) 0.6557(2)
H73 H 0.5796 0.5647 0.6585
C84 C 0.4932(4) 0.5823(3) 0.6938(2)
H74 H 0.5089 0.5569 0.7223
C85 C 0.4265(4) 0.6152(2) 0.6899(2)
C86 C 0.4056(4) 0.6539(3) 0.6485(2)
H75 H 0.3629 0.6778 0.6467
C87 C 0.4474(4) 0.6578(3) 0.6093(2)
H76 H 0.4310 0.6825 0.5803
C88 C 0.3783(3) 0.6064(3) 0.7310(2)
C89 C 0.3672(4) 0.5507(3) 0.7494(2)
H77 H 0.3909 0.5184 0.7373
C90 C 0.3211(4) 0.5418(3) 0.7856(2)
H78 H 0.3134 0.5037 0.7970
C91 C 0.2864(4) 0.5898(3) 0.8049(2)
C92 C 0.3012(4) 0.6455(3) 0.7877(2)
H79 H 0.2815 0.6781 0.8022
C93 C 0.3429(4) 0.6547(3) 0.7509(2)
H80 H 0.3484 0.6928 0.7386
C94 C 0.1730(5) 0.6112(3) 0.8398(3)
C95 C 0.1476(5) 0.6260(3) 0.8859(3)
H81 H 0.1770 0.6154 0.9187
C96 C 0.0790(5) 0.6563(3) 0.8836(3)
H82 H 0.0642 0.6665 0.9149
C97 C 0.0328(4) 0.6713(3) 0.8355(2)
C98 C 0.0586(4) 0.6566(3) 0.7891(2)
H83 H 0.0297 0.6674 0.7563
C99 C 0.1274(4) 0.6259(3) 0.7920(3)
H84 H 0.1422 0.6153 0.7609
C100 C -0.0416(4) 0.7016(3) 0.8331(2)
C101 C -0.0865(4) 0.6847(3) 0.8688(2)
H85 H -0.0697 0.6546 0.8930
C102 C -0.1550(4) 0.7117(3) 0.8686(2)
H86 H -0.1834 0.6994 0.8928
C103 C -0.1829(4) 0.7565(3) 0.8339(2)
C104 C -0.1369(4) 0.7733(3) 0.7970(2)
H87 H -0.1527 0.8036 0.7728
C105 C -0.0692(4) 0.7441(3) 0.7975(3)
H88 H -0.0414 0.7542 0.7723
C106 C -0.2537(4) 0.7866(3) 0.8344(2)
H89 H -0.2709 0.8162 0.8098
C107 C -0.3656(5) 0.8053(3) 0.8657(3)
H90 H -0.3735 0.8328 0.8362
H91 H -0.4075 0.7773 0.8595
C108 C -0.3661(4) 0.8386(3) 0.9155(2)
H92 H -0.4183 0.8484 0.9169
H93 H -0.3457 0.8136 0.9456
N11 N 0.7333(3) 0.6858(2) 0.55831(18)
C109 C 0.1756(4) 0.7701(3) 0.7634(3)
H94 H 0.1712 0.7289 0.7514
Cl1 Cl 0.18555(12) 0.77078(8) 0.83229(7)
Cl2 Cl 0.09344(12) 0.80826(8) 0.73145(7)
Cl3 Cl 0.25761(13) 0.80174(8) 0.74541(8)
loop_
_geom_bond_atom_site_label_1
_geom_bond_atom_site_label_2
_geom_bond_site_symmetry_1
_geom_bond_site_symmetry_2
C1 C2 1_555 1_555
C2 H1 1_555 1_555
C3 C2 1_555 1_555
H2 C3 1_555 1_555
C4 C3 1_555 1_555
H3 C4 1_555 1_555
C5 C4 1_555 1_555
H4 C5 1_555 1_555
C6 C1 1_555 1_555
H5 C6 1_555 1_555
N1 C8 1_555 1_555
N2 C19 1_555 1_555
N3 C40 1_555 1_555
N4 C42 1_555 1_555
N5 C44 1_555 1_555
N6 C55 1_555 1_555
N7 C76 1_555 1_555
N8 C80 1_555 1_555
N9 C1 1_555 1_555
N10 C106 1_555 1_555
C7 H6 1_555 1_555
H7 C7 1_555 1_555
C8 C7 1_555 1_555
H8 C8 1_555 1_555
H9 C8 1_555 1_555
C9 N1 1_555 1_555
H10 C9 1_555 1_555
C10 C9 1_555 1_555
C11 C10 1_555 1_555
H11 C11 1_555 1_555
C12 C11 1_555 1_555
H12 C12 1_555 1_555
C13 C12 1_555 1_555
C14 C13 1_555 1_555
H13 C14 1_555 1_555
C15 C10 1_555 1_555
H14 C15 1_555 1_555
C16 C13 1_555 1_555
C17 C16 1_555 1_555
H15 C17 1_555 1_555
C18 C17 1_555 1_555
H16 C18 1_555 1_555
C19 C18 1_555 1_555
C20 C19 1_555 1_555
H17 C20 1_555 1_555
C21 C16 1_555 1_555
H18 C21 1_555 1_555
C22 N2 1_555 1_555
C23 C22 1_555 1_555
H19 C23 1_555 1_555
C24 C23 1_555 1_555
H20 C24 1_555 1_555
C25 C24 1_555 1_555
H21 C25 1_555 1_555
C26 C25 1_555 1_555
H22 C26 1_555 1_555
C27 C22 1_555 1_555
H23 C27 1_555 1_555
C28 N2 1_555 1_555
C29 C28 1_555 1_555
H24 C29 1_555 1_555
C30 C29 1_555 1_555
H25 C30 1_555 1_555
C31 C30 1_555 1_555
C32 C31 1_555 1_555
H26 C32 1_555 1_555
C33 C28 1_555 1_555
H27 C33 1_555 1_555
C34 C31 1_555 1_555
C35 C34 1_555 1_555
H28 C35 1_555 1_555
C36 C35 1_555 1_555
H29 C36 1_555 1_555
C37 C36 1_555 1_555
C38 C37 1_555 1_555
H30 C38 1_555 1_555
C39 C34 1_555 1_555
H31 C39 1_555 1_555
C40 C37 1_555 1_555
H32 C40 1_555 1_555
C41 N3 1_555 1_555
H33 C41 1_555 1_555
H34 C41 1_555 1_555
C42 C41 1_555 1_555
H35 C42 1_555 1_555
H36 C42 1_555 1_555
C43 N4 1_555 1_555
H37 C43 1_555 1_555
H38 C43 1_555 1_555
C44 C43 1_555 1_555
H39 C44 1_555 1_555
H40 C44 1_555 1_555
C45 N5 1_555 1_555
H41 C45 1_555 1_555
C46 C45 1_555 1_555
C47 C46 1_555 1_555
H42 C47 1_555 1_555
C48 C47 1_555 1_555
H43 C48 1_555 1_555
C49 C48 1_555 1_555
C50 C49 1_555 1_555
H44 C50 1_555 1_555
C51 C46 1_555 1_555
H45 C51 1_555 1_555
C52 C49 1_555 1_555
C53 C52 1_555 1_555
H46 C53 1_555 1_555
C54 C53 1_555 1_555
H47 C54 1_555 1_555
C55 C54 1_555 1_555
C56 C55 1_555 1_555
H48 C56 1_555 1_555
C57 C52 1_555 1_555
H49 C57 1_555 1_555
C58 N6 1_555 1_555
C59 C58 1_555 1_555
H50 C59 1_555 1_555
C60 C59 1_555 1_555
H51 C60 1_555 1_555
C61 C60 1_555 1_555
H52 C61 1_555 1_555
C62 C61 1_555 1_555
H53 C62 1_555 1_555
C63 C58 1_555 1_555
H54 C63 1_555 1_555
C64 N6 1_555 1_555
C65 C64 1_555 1_555
H55 C65 1_555 1_555
C66 C65 1_555 1_555
H56 C66 1_555 1_555
C67 C66 1_555 1_555
C68 C67 1_555 1_555
H57 C68 1_555 1_555
C69 C64 1_555 1_555
H58 C69 1_555 1_555
C70 C67 1_555 1_555
C71 C70 1_555 1_555
H59 C71 1_555 1_555
C72 C71 1_555 1_555
H60 C72 1_555 1_555
C73 C72 1_555 1_555
C74 C73 1_555 1_555
H61 C74 1_555 1_555
C75 C70 1_555 1_555
H62 C75 1_555 1_555
C76 C73 1_555 1_555
H63 C76 1_555 1_555
C77 N7 1_555 1_555
H64 C77 1_555 1_555
H65 C77 1_555 1_555
C78 C77 1_555 1_555
H66 C78 1_555 1_555
H67 C78 1_555 1_555
C79 H68 1_555 1_555
H69 C79 1_555 1_555
C80 C79 1_555 1_555
H70 C80 1_555 1_555
H71 C80 1_555 1_555
C81 N8 1_555 1_555
H72 C81 1_555 1_555
C82 C81 1_555 1_555
C83 C82 1_555 1_555
H73 C83 1_555 1_555
C84 C83 1_555 1_555
H74 C84 1_555 1_555
C85 C84 1_555 1_555
C86 C85 1_555 1_555
H75 C86 1_555 1_555
C87 C82 1_555 1_555
H76 C87 1_555 1_555
C88 C85 1_555 1_555
C89 C88 1_555 1_555
H77 C89 1_555 1_555
C90 C89 1_555 1_555
H78 C90 1_555 1_555
C91 N9 1_555 1_555
C92 C91 1_555 1_555
H79 C92 1_555 1_555
C93 C88 1_555 1_555
H80 C93 1_555 1_555
C94 N9 1_555 1_555
C95 C94 1_555 1_555
H81 C95 1_555 1_555
C96 C95 1_555 1_555
H82 C96 1_555 1_555
C97 C96 1_555 1_555
C98 C97 1_555 1_555
H83 C98 1_555 1_555
C99 C94 1_555 1_555
H84 C99 1_555 1_555
C100 C97 1_555 1_555
C101 C100 1_555 1_555
H85 C101 1_555 1_555
C102 C101 1_555 1_555
H86 C102 1_555 1_555
C103 C102 1_555 1_555
C104 C103 1_555 1_555
H87 C104 1_555 1_555
C105 C100 1_555 1_555
H88 C105 1_555 1_555
C106 C103 1_555 1_555
H89 C106 1_555 1_555
C107 N10 1_555 1_555
H90 C107 1_555 1_555
H91 C107 1_555 1_555
C108 N4 1_555 1_555
H92 C108 1_555 1_555
H93 C108 1_555 1_555
N11 C7 1_555 1_555
C109 H94 1_555 1_555
Cl1 C109 1_555 1_555
Cl2 C109 1_555 1_555
Cl3 C109 1_555 1_555
C5 C6 1_555 1_555
C14 C15 1_555 1_555
C20 C21 1_555 1_555
C26 C27 1_555 1_555
C32 C33 1_555 1_555
C38 C39 1_555 1_555
C50 C51 1_555 1_555
C56 C57 1_555 1_555
C62 C63 1_555 1_555
C68 C69 1_555 1_555
C74 C75 1_555 1_555
C78 N11 1_555 1_555
C79 N11 1_555 1_555
C86 C87 1_555 1_555
C90 C91 1_555 1_555
C92 C93 1_555 1_555
C98 C99 1_555 1_555
C104 C105 1_555 1_555
C107 C108 1_555 1_555

#END
