
#######################################################################
#
#                 Cambridge Crystallographic Data Centre
#                                CCDC 
#
#######################################################################
#
# If this CIF has been generated from an entry in the Cambridge 
# Structural Database, then it will include bibliographic, chemical, 
# crystal, experimental, refinement or atomic coordinate data resulting 
# from the CCDC's data processing and validation procedures.
#
#######################################################################

data_SENNUX
_chemical_formula_moiety         'C249 H315 N36'
_symmetry_cell_setting           trigonal
_symmetry_space_group_name_H-M   'P 3'
_symmetry_Int_Tables_number      143
_space_group_name_Hall           'P 3'
loop_
_symmetry_equiv_pos_site_id
_symmetry_equiv_pos_as_xyz
1 x,y,z
2 -y,x-y,z
3 -x+y,-x,z
_cell_length_a                   25.343(2)
_cell_length_b                   25.343(2)
_cell_length_c                   11.3964(11)
_cell_angle_alpha                90
_cell_angle_beta                 90
_cell_angle_gamma                120
_cell_volume                     6338.91
loop_
_atom_site_label
_atom_site_type_symbol
_atom_site_fract_x
_atom_site_fract_y
_atom_site_fract_z
N1 N 0.8602(4) 0.8563(4) 0.3953(9)
N2 N 0.7820(4) 0.8012(4) 0.5908(9)
N3 N 0.9141(4) 0.7841(4) 1.0347(10)
N4 N 1.0450(4) 0.8458(5) 1.0456(9)
C1 C 0.8148(5) 0.8519(5) 0.7711(11)
C2 C 0.8124(5) 0.8896(5) 0.8597(11)
H1 H 0.7899 0.9089 0.8470
C3 C 0.8427(5) 0.8985(4) 0.9640(11)
C4 C 0.8723(4) 0.8658(4) 0.9863(11)
H2 H 0.8909 0.8696 1.0586
C5 C 0.8742(5) 0.8276(4) 0.9016(11)
C6 C 0.8457(4) 0.8215(4) 0.7957(11)
H3 H 0.8474 0.7960 0.7389
C7 C 0.8415(5) 0.9404(5) 1.0557(11)
C8 C 0.8895(7) 0.9631(6) 1.1487(15)
H4 H 0.9011 1.0044 1.1684
H5 H 0.9244 0.9617 1.1203
H6 H 0.8737 0.9380 1.2172
C9 C 0.9089(5) 0.7945(5) 0.9304(12)
C10 C 0.9360(6) 0.7770(7) 0.8243(14)
H7 H 0.9712 0.7751 0.8496
H8 H 0.9476 0.8071 0.7637
H9 H 0.9060 0.7379 0.7944
C11 C 0.7850(5) 0.8430(5) 0.6550(12)
C12 C 0.9388(4) 0.9793(5) 0.4393(10)
H10 H 0.8972 0.9652 0.4434
C13 C 0.9593(4) 0.9385(4) 0.4363(9)
C14 C 0.9121(5) 0.8706(5) 0.4346(11)
C15 C 0.9325(5) 0.8281(5) 0.4825(15)
H11 H 0.9744 0.8513 0.5065
H12 H 0.9077 0.8064 0.5488
H13 H 0.9284 0.7996 0.4228
C16 C 0.9460(5) 0.7521(5) 1.0699(13)
H14 H 0.9557 0.7354 1.0011
C17 C 0.9061(6) 0.7018(7) 1.1547(16)
H15 H 0.8696 0.6720 1.1140
H16 H 0.8937 0.7189 1.2178
C18 C 0.9381(8) 0.6697(8) 1.207(2)
H17 H 0.9115 0.6393 1.2633
H18 H 0.9475 0.6493 1.1453
C19 C 0.9958(8) 0.7160(8) 1.266(2)
H19 H 1.0173 0.6959 1.2948
H20 H 0.9854 0.7324 1.3338
C20 C 1.0399(6) 0.7707(7) 1.1828(17)
H21 H 1.0748 0.8007 1.2269
H22 H 1.0545 0.7556 1.1197
C21 C 1.0050(5) 0.7999(6) 1.1323(12)
H23 H 0.9949 0.8197 1.1952
C22 C 0.8105(5) 0.7937(5) 0.3931(11)
H24 H 0.8252 0.7673 0.4238
C23 C 0.7881(6) 0.7742(5) 0.2682(13)
H25 H 0.7762 0.8020 0.2351
H26 H 0.8209 0.7765 0.2208
C24 C 0.7351(8) 0.7109(7) 0.2644(17)
H27 H 0.7213 0.7003 0.1840
H28 H 0.7478 0.6827 0.2921
C25 C 0.6855(7) 0.7052(8) 0.3363(17)
H29 H 0.6524 0.6633 0.3335
H30 H 0.6707 0.7308 0.3040
C26 C 0.7042(6) 0.7235(6) 0.4672(15)
H31 H 0.6705 0.7224 0.5099
H32 H 0.7140 0.6949 0.5037
C27 C 0.7600(5) 0.7883(5) 0.4714(12)
H33 H 0.7479 0.8178 0.4465
C28 C 0.7476(13) 0.8742(12) 0.627(3)
H34 H 0.7747 0.9166 0.6104
H35 H 0.7222 0.8703 0.6924
H36 H 0.7225 0.8552 0.5591
N1A N 1.1437(4) 1.0039(6) 0.3953(9)
N2A N 1.1988(4) 0.9808(6) 0.5908(9)
N3A N 1.2159(4) 1.1300(6) 1.0347(10)
N4A N 1.1542(5) 1.1992(6) 1.0456(9)
C1A C 1.1481(5) 0.9629(7) 0.7711(11)
C2A C 1.1104(5) 0.9228(7) 0.8597(11)
H1A H 1.0911 0.8810 0.8470
C3A C 1.1015(4) 0.9442(6) 0.9640(11)
C4A C 1.1342(4) 1.0065(6) 0.9863(11)
H2A H 1.1304 1.0213 1.0586
C5A C 1.1724(4) 1.0466(6) 0.9016(11)
C6A C 1.1785(4) 1.0242(6) 0.7957(11)
H3A H 1.2040 1.0514 0.7389
C7A C 1.0596(5) 0.9011(7) 1.0557(11)
C8A C 1.0369(6) 0.9264(9) 1.1487(15)
H4A H 0.9956 0.8967 1.1684
H5A H 1.0383 0.9627 1.1203
H6A H 1.0620 0.9357 1.2172
C9A C 1.2055(5) 1.1144(7) 0.9304(12)
C10A C 1.2230(7) 1.1590(9) 0.8243(14)
H7A H 1.2249 1.1961 0.8496
H8A H 1.1929 1.1405 0.7637
H9A H 1.2621 1.1681 0.7944
C11A C 1.1570(5) 0.9420(7) 0.6550(12)
C12A C 1.0207(5) 0.9595(6) 0.4393(10)
H10A H 1.0348 0.9320 0.4434
C13A C 1.0615(4) 1.0208(6) 0.4363(9)
C14A C 1.1294(5) 1.0415(7) 0.4346(11)
C15A C 1.1719(5) 1.1044(7) 0.4825(15)
H11A H 1.1487 1.1231 0.5065
H12A H 1.1936 1.1013 0.5488
H13A H 1.2004 1.1288 0.4228
C16A C 1.2479(5) 1.1939(7) 1.0699(13)
H14A H 1.2646 1.2203 1.0011
C17A C 1.2982(7) 1.2043(9) 1.1547(16)
H15A H 1.3280 1.1976 1.1140
H16A H 1.2811 1.1748 1.2178
C18A C 1.3303(8) 1.2684(11) 1.207(2)
H17A H 1.3607 1.2722 1.2633
H18A H 1.3507 1.2982 1.1453
C19A C 1.2840(8) 1.2798(11) 1.266(2)
H19A H 1.3041 1.3214 1.2948
H20A H 1.2676 1.2530 1.3338
C20A C 1.2293(7) 1.2692(9) 1.1828(17)
H21A H 1.1993 1.2741 1.2269
H22A H 1.2444 1.2989 1.1197
C21A C 1.2001(6) 1.2051(8) 1.1323(12)
H23A H 1.1803 1.1752 1.1952
C22A C 1.2063(5) 1.0168(7) 0.3931(11)
H24A H 1.2327 1.0579 0.4238
C23A C 1.2258(5) 1.0139(8) 0.2682(13)
H25A H 1.1980 0.9742 0.2351
H26A H 1.2235 1.0444 0.2208
C24A C 1.2891(7) 1.0242(11) 0.2644(17)
H27A H 1.2997 1.0210 0.1840
H28A H 1.3173 1.0651 0.2921
C25A C 1.2948(8) 0.9803(11) 0.3363(17)
H29A H 1.3367 0.9891 0.3335
H30A H 1.2692 0.9399 0.3040
C26A C 1.2765(6) 0.9807(8) 0.4672(15)
H31A H 1.2776 0.9481 0.5099
H32A H 1.3051 1.0191 0.5037
C27A C 1.2117(5) 0.9717(7) 0.4714(12)
H33A H 1.1822 0.9301 0.4465
C28A C 1.1258(12) 0.8734(18) 0.627(3)
H34A H 1.0834 0.8581 0.6104
H35A H 1.1297 0.8519 0.6924
H36A H 1.1448 0.8673 0.5591
N1B N 0.9961(6) 1.1398(4) 0.3953(9)
N2B N 1.0192(6) 1.2180(4) 0.5908(9)
N3B N 0.8700(6) 1.0859(4) 1.0347(10)
N4B N 0.8008(6) 0.9550(4) 1.0456(9)
C1B C 1.0371(7) 1.1852(5) 0.7711(11)
C2B C 1.0772(7) 1.1876(5) 0.8597(11)
H1B H 1.1190 1.2101 0.8470
C3B C 1.0558(6) 1.1573(5) 0.9640(11)
C4B C 0.9935(6) 1.1277(4) 0.9863(11)
H2B H 0.9787 1.1091 1.0586
C5B C 0.9534(6) 1.1258(5) 0.9016(11)
C6B C 0.9758(6) 1.1543(4) 0.7957(11)
H3B H 0.9486 1.1526 0.7389
C7B C 1.0989(7) 1.1585(5) 1.0557(11)
C8B C 1.0736(9) 1.1105(7) 1.1487(15)
H4B H 1.1033 1.0989 1.1684
H5B H 1.0373 1.0756 1.1203
H6B H 1.0643 1.1263 1.2172
C9B C 0.8856(7) 1.0911(5) 0.9304(12)
C10B C 0.8410(9) 1.0640(6) 0.8243(14)
H7B H 0.8039 1.0288 0.8496
H8B H 0.8595 1.0524 0.7637
H9B H 0.8319 1.0940 0.7944
C11B C 1.0580(7) 1.2150(5) 0.6550(12)
C12B C 1.0405(6) 1.0612(4) 0.4393(10)
H10B H 1.0680 1.1028 0.4434
C13B C 0.9792(6) 1.0407(4) 0.4363(9)
C14B C 0.9585(7) 1.0879(5) 0.4346(11)
C15B C 0.8956(7) 1.0675(5) 0.4825(15)
H11B H 0.8769 1.0256 0.5065
H12B H 0.8987 1.0923 0.5488
H13B H 0.8712 1.0716 0.4228
C16B C 0.8061(7) 1.0540(5) 1.0699(13)
H14B H 0.7797 1.0443 1.0011
C17B C 0.7957(9) 1.0939(6) 1.1547(16)
H15B H 0.8024 1.1304 1.1140
H16B H 0.8252 1.1063 1.2178
C18B C 0.7316(11) 1.0619(8) 1.207(2)
H17B H 0.7278 1.0885 1.2633
H18B H 0.7018 1.0525 1.1453
C19B C 0.7202(11) 1.0042(8) 1.266(2)
H19B H 0.6786 0.9827 1.2948
H20B H 0.7470 1.0146 1.3338
C20B C 0.7308(9) 0.9601(6) 1.1828(17)
H21B H 0.7259 0.9252 1.2269
H22B H 0.7011 0.9455 1.1197
C21B C 0.7949(8) 0.9950(5) 1.1323(12)
H23B H 0.8248 1.0051 1.1952
C22B C 0.9832(7) 1.1895(5) 0.3931(11)
H24B H 0.9421 1.1748 0.4238
C23B C 0.9861(8) 1.2119(6) 0.2682(13)
H25B H 1.0258 1.2238 0.2351
H26B H 0.9556 1.1791 0.2208
C24B C 0.9758(11) 1.2649(8) 0.2644(17)
H27B H 0.9790 1.2787 0.1840
H28B H 0.9349 1.2522 0.2921
C25B C 1.0197(11) 1.3145(7) 0.3363(17)
H29B H 1.0109 1.3476 0.3335
H30B H 1.0601 1.3293 0.3040
C26B C 1.0193(8) 1.2958(6) 0.4672(15)
H31B H 1.0519 1.3295 0.5099
H32B H 0.9809 1.2860 0.5037
C27B C 1.0283(7) 1.2400(5) 0.4714(12)
H33B H 1.0699 1.2521 0.4465
C28B C 1.1266(18) 1.2524(13) 0.627(3)
H34B H 1.1419 1.2253 0.6104
H35B H 1.1481 1.2778 0.6924
H36B H 1.1327 1.2775 0.5591
N5 N 0.4160(4) 0.5103(4) 0.3650(9)
N6 N 0.4049(4) 0.5761(4) 0.1729(9)
N7 N 0.2565(4) 0.4573(4) 0.8255(9)
N8 N 0.1535(4) 0.4775(4) 0.8085(10)
C30 C 0.4517(4) 0.6039(5) 0.6797(10)
C31 C 0.4042(4) 0.5835(4) 0.7643(10)
H40 H 0.4117 0.6036 0.8360
C32 C 0.3477(4) 0.5346(4) 0.7417(9)
C33 C 0.3367(4) 0.5037(4) 0.6347(10)
H41 H 0.2987 0.4698 0.6202
C34 C 0.3814(5) 0.5229(5) 0.5511(11)
C35 C 0.4395(5) 0.5736(5) 0.5754(11)
H42 H 0.4700 0.5865 0.5190
C36 C 0.5120(5) 0.6577(6) 0.7094(13)
C37 C 0.2975(4) 0.5129(5) 0.8330(10)
C38 C 0.3038(5) 0.5588(5) 0.9232(13)
H43 H 0.2641 0.5485 0.9519
H44 H 0.3228 0.5986 0.8883
H45 H 0.3283 0.5586 0.9872
C39 C 0.3701(5) 0.4933(5) 0.4322(11)
C40 C 0.3063(6) 0.4497(7) 0.3994(15)
H46 H 0.2868 0.4717 0.3727
H47 H 0.2849 0.4255 0.4665
H48 H 0.3057 0.4236 0.3378
C41 C 0.3146(4) 0.6041(4) 0.2213(10)
H49 H 0.3027 0.5629 0.2215
C42 C 0.3782(4) 0.6494(5) 0.2212(10)
C43 C 0.4238(4) 0.6292(5) 0.2186(10)
C44 C 0.4866(6) 0.6720(6) 0.2616(17)
H50 H 0.4857 0.6770 0.3449
H51 H 0.5018 0.7108 0.2237
H52 H 0.5128 0.6558 0.2437
C45 C 0.4128(5) 0.4913(5) 0.2447(11)
H53 H 0.3700 0.4662 0.2217
C46 C 0.4455(7) 0.4542(7) 0.2304(13)
H54 H 0.4234 0.4160 0.2727
H55 H 0.4863 0.4768 0.2628
C47 C 0.4489(7) 0.4414(7) 0.0988(13)
H56 H 0.4694 0.4179 0.0897
H57 H 0.4080 0.4176 0.0672
C48 C 0.4823(8) 0.4990(8) 0.0339(15)
H58 H 0.4860 0.4905 -0.0477
H59 H 0.5230 0.5229 0.0662
C49 C 0.4491(6) 0.5352(6) 0.0418(12)
H60 H 0.4720 0.5734 0.0000
H61 H 0.4092 0.5123 0.0060
C50 C 0.4427(5) 0.5472(5) 0.1689(12)
H62 H 0.4831 0.5755 0.2008
C51 C 0.2072(5) 0.4334(5) 0.9115(11)
H63 H 0.2168 0.4626 0.9757
C52 C 0.1988(6) 0.3724(6) 0.9591(15)
H64 H 0.1939 0.3458 0.8937
H65 H 0.2350 0.3802 1.0020
C53 C 0.1442(7) 0.3410(7) 1.0385(16)
H66 H 0.1384 0.3013 1.0596
H67 H 0.1525 0.3645 1.1101
C54 C 0.0899(6) 0.3331(6) 0.9888(17)
H68 H 0.0586 0.3175 1.0489
H69 H 0.0770 0.3024 0.9279
C55 C 0.0937(5) 0.3913(5) 0.9349(14)
H70 H 0.0562 0.3807 0.8934
H71 H 0.0991 0.4199 0.9966
C56 C 0.1478(5) 0.4201(4) 0.8500(12)
H72 H 0.1400 0.3928 0.7833
C57 C 0.5479(13) 0.6994(14) 0.598(3)
H73 H 0.5478 0.7372 0.6022
H74 H 0.5282 0.6785 0.5271
H75 H 0.5892 0.7075 0.5987
N5A N 0.4897(4) 0.9057(6) 0.3650(9)
N6A N 0.4239(4) 0.8288(6) 0.1729(9)
N7A N 0.5427(4) 0.7992(6) 0.8255(9)
N8A N 0.5225(4) 0.6760(6) 0.8085(10)
C30A C 0.3961(5) 0.8478(6) 0.6797(10)
C31A C 0.4165(4) 0.8207(6) 0.7643(10)
H40A H 0.3964 0.8081 0.8360
C32A C 0.4654(4) 0.8131(6) 0.7417(9)
C33A C 0.4963(4) 0.8330(6) 0.6347(10)
H41A H 0.5302 0.8289 0.6202
C34A C 0.4771(5) 0.8585(7) 0.5511(11)
C35A C 0.4264(5) 0.8659(7) 0.5754(11)
H42A H 0.4135 0.8835 0.5190
C36A C 0.3423(6) 0.8543(8) 0.7094(13)
C37A C 0.4871(5) 0.7846(6) 0.8330(10)
C38A C 0.4412(5) 0.7450(7) 0.9232(13)
H43A H 0.4515 0.7156 0.9519
H44A H 0.4014 0.7242 0.8883
H45A H 0.4414 0.7697 0.9872
C39A C 0.5067(5) 0.8768(7) 0.4322(11)
C40A C 0.5503(7) 0.8566(9) 0.3994(15)
H46A H 0.5283 0.8151 0.3727
H47A H 0.5745 0.8594 0.4665
H48A H 0.5764 0.8821 0.3378
C41A C 0.3959(4) 0.7105(6) 0.2213(10)
H49A H 0.4371 0.7398 0.2215
C42A C 0.3506(5) 0.7288(6) 0.2212(10)
C43A C 0.3708(5) 0.7946(6) 0.2186(10)
C44A C 0.3280(6) 0.8146(8) 0.2616(17)
H50A H 0.3230 0.8087 0.3449
H51A H 0.2892 0.7910 0.2237
H52A H 0.3442 0.8570 0.2437
C45A C 0.5087(5) 0.9215(7) 0.2447(11)
H53A H 0.5338 0.9038 0.2217
C46A C 0.5458(7) 0.9913(10) 0.2304(13)
H54A H 0.5840 1.0074 0.2727
H55A H 0.5232 1.0095 0.2628
C47A C 0.5586(7) 1.0075(10) 0.0988(13)
H56A H 0.5821 1.0515 0.0897
H57A H 0.5824 0.9904 0.0672
C48A C 0.5010(8) 0.9833(11) 0.0339(15)
H58A H 0.5095 0.9955 -0.0477
H59A H 0.4771 1.0001 0.0662
C49A C 0.4648(6) 0.9139(8) 0.0418(12)
H60A H 0.4266 0.8986 0.0000
H61A H 0.4877 0.8969 0.0060
C50A C 0.4528(5) 0.8955(7) 0.1689(12)
H62A H 0.4245 0.9076 0.2008
C51A C 0.5666(5) 0.7738(7) 0.9115(11)
H63A H 0.5374 0.7542 0.9757
C52A C 0.6276(6) 0.8264(8) 0.9591(15)
H64A H 0.6542 0.8481 0.8937
H65A H 0.6198 0.8548 1.0020
C53A C 0.6590(7) 0.8032(10) 1.0385(16)
H66A H 0.6987 0.8371 1.0596
H67A H 0.6355 0.7880 1.1101
C54A C 0.6669(6) 0.7568(8) 0.9888(17)
H68A H 0.6825 0.7411 1.0489
H69A H 0.6976 0.7746 0.9279
C55A C 0.6087(5) 0.7024(7) 0.9349(14)
H70A H 0.6193 0.6755 0.8934
H71A H 0.5801 0.6792 0.9966
C56A C 0.5799(4) 0.7277(6) 0.8500(12)
H72A H 0.6072 0.7472 0.7833
C57A C 0.3006(14) 0.8485(19) 0.598(3)
H73A H 0.2628 0.8106 0.6022
H74A H 0.3215 0.8497 0.5271
H75A H 0.2925 0.8817 0.5987
N5B N 0.0943(6) 0.5840(4) 0.3650(9)
N6B N 0.1712(6) 0.5951(4) 0.1729(9)
N7B N 0.2008(6) 0.7435(4) 0.8255(9)
N8B N 0.3240(6) 0.8465(4) 0.8085(10)
C30B C 0.1522(6) 0.5483(4) 0.6797(10)
C31B C 0.1793(6) 0.5958(4) 0.7643(10)
H40B H 0.1919 0.5883 0.8360
C32B C 0.1869(6) 0.6523(4) 0.7417(9)
C33B C 0.1670(6) 0.6633(4) 0.6347(10)
H41B H 0.1711 0.7013 0.6202
C34B C 0.1415(7) 0.6186(5) 0.5511(11)
C35B C 0.1341(7) 0.5605(5) 0.5754(11)
H42B H 0.1165 0.5300 0.5190
C36B C 0.1457(8) 0.4880(5) 0.7094(13)
C37B C 0.2154(6) 0.7025(4) 0.8330(10)
C38B C 0.2550(7) 0.6962(5) 0.9232(13)
H43B H 0.2844 0.7359 0.9519
H44B H 0.2758 0.6772 0.8883
H45B H 0.2303 0.6717 0.9872
C39B C 0.1232(7) 0.6299(5) 0.4322(11)
C40B C 0.1434(9) 0.6937(6) 0.3994(15)
H46B H 0.1849 0.7132 0.3727
H47B H 0.1406 0.7151 0.4665
H48B H 0.1179 0.6943 0.3378
C41B C 0.2895(6) 0.6854(4) 0.2213(10)
H49B H 0.2602 0.6973 0.2215
C42B C 0.2712(6) 0.6218(4) 0.2212(10)
C43B C 0.2054(6) 0.5762(4) 0.2186(10)
C44B C 0.1854(8) 0.5134(6) 0.2616(17)
H50B H 0.1913 0.5143 0.3449
H51B H 0.2090 0.4982 0.2237
H52B H 0.1430 0.4872 0.2437
C45B C 0.0785(7) 0.5872(5) 0.2447(11)
H53B H 0.0962 0.6300 0.2217
C46B C 0.0087(10) 0.5545(7) 0.2304(13)
H54B H -0.0074 0.5766 0.2727
H55B H -0.0095 0.5137 0.2628
C47B C -0.0075(10) 0.5511(7) 0.0988(13)
H56B H -0.0515 0.5306 0.0897
H57B H 0.0096 0.5920 0.0672
C48B C 0.0167(11) 0.5177(8) 0.0339(15)
H58B H 0.0045 0.5140 -0.0477
H59B H -0.0001 0.4770 0.0662
C49B C 0.0861(8) 0.5509(6) 0.0418(12)
H60B H 0.1014 0.5280 0.0000
H61B H 0.1031 0.5908 0.0060
C50B C 0.1045(7) 0.5573(5) 0.1689(12)
H62B H 0.0924 0.5169 0.2008
C51B C 0.2262(7) 0.7928(5) 0.9115(11)
H63B H 0.2458 0.7832 0.9757
C52B C 0.1736(8) 0.8012(6) 0.9591(15)
H64B H 0.1519 0.8061 0.8937
H65B H 0.1452 0.7650 1.0020
C53B C 0.1968(10) 0.8558(7) 1.0385(16)
H66B H 0.1629 0.8616 1.0596
H67B H 0.2120 0.8475 1.1101
C54B C 0.2432(8) 0.9101(6) 0.9888(17)
H68B H 0.2589 0.9414 1.0489
H69B H 0.2254 0.9230 0.9279
C55B C 0.2976(7) 0.9063(5) 0.9349(14)
H70B H 0.3245 0.9438 0.8934
H71B H 0.3208 0.9009 0.9966
C56B C 0.2723(6) 0.8522(5) 0.8500(12)
H72B H 0.2528 0.8600 0.7833
C57B C 0.1515(19) 0.4521(13) 0.598(3)
H73B H 0.1894 0.4522 0.6022
H74B H 0.1503 0.4718 0.5271
H75B H 0.1183 0.4108 0.5987
N9 N 0.5431(5) 0.3656(4) 0.6416(10)
N10 N 0.4802(4) 0.3672(4) 0.4374(9)
N11 N 0.4603(4) 0.2280(4) -0.0243(9)
N12 N 0.4952(4) 0.1372(4) -0.0069(10)
C59 C 0.5842(5) 0.4270(4) 0.1312(10)
C60 C 0.5552(4) 0.4069(5) 0.2384(10)
H79 H 0.5641 0.4351 0.2981
C61 C 0.5140(5) 0.3469(5) 0.2595(10)
C62 C 0.4997(4) 0.3044(5) 0.1717(10)
H80 H 0.4711 0.2638 0.1853
C63 C 0.5280(4) 0.3222(5) 0.0630(10)
C64 C 0.5690(5) 0.3830(4) 0.0439(10)
H81 H 0.5872 0.3952 -0.0295
C65 C 0.6292(5) 0.4917(5) 0.1011(13)
C66 C 0.4825(5) 0.3285(5) 0.3762(11)
C67 C 0.4575(7) 0.2606(5) 0.4131(14)
H82 H 0.4644 0.2393 0.3509
H83 H 0.4781 0.2592 0.4827
H84 H 0.4145 0.2417 0.4283
C68 C 0.5125(5) 0.2756(5) -0.0318(11)
C69 C 0.5601(6) 0.2892(5) -0.1178(13)
H85 H 0.5607 0.2526 -0.1365
H86 H 0.5988 0.3187 -0.0859
H87 H 0.5521 0.3052 -0.1876
C70 C 0.6981(5) 0.3959(5) 0.5982(11)
H88 H 0.7189 0.4382 0.5991
C71 C 0.6338(5) 0.3635(5) 0.5975(11)
C72 C 0.5969(6) 0.3963(6) 0.6047(12)
C73 C 0.6285(7) 0.4608(6) 0.5604(17)
H89 H 0.6035 0.4651 0.5023
H90 H 0.6669 0.4703 0.5260
H91 H 0.6354 0.4880 0.6245
C74 C 0.4503(5) 0.3530(6) 0.5525(12)
H92 H 0.4310 0.3092 0.5688
C75 C 0.4045(6) 0.3731(8) 0.5559(14)
H93 H 0.3726 0.3496 0.4994
H94 H 0.4238 0.4156 0.5330
C76 C 0.3755(8) 0.3654(9) 0.6790(15)
H95 H 0.3465 0.3798 0.6779
H96 H 0.3541 0.3228 0.7013
C77 C 0.4263(8) 0.4025(10) 0.7668(19)
H97 H 0.4470 0.4453 0.7455
H98 H 0.4093 0.3982 0.8448
C78 C 0.4711(8) 0.3790(9) 0.7655(15)
H99 H 0.5019 0.3996 0.8255
H100 H 0.4498 0.3357 0.7823
C79 C 0.5012(6) 0.3906(6) 0.6458(13)
H101 H 0.5227 0.4341 0.6268
C80 C 0.4416(5) 0.1793(5) -0.1122(11)
H102 H 0.4725 0.1915 -0.1738
C81 C 0.3810(6) 0.1662(6) -0.1641(16)
H103 H 0.3859 0.2019 -0.2054
H104 H 0.3514 0.1564 -0.1020
C82 C 0.3586(6) 0.1122(6) -0.2494(16)
H105 H 0.3186 0.1016 -0.2789
H106 H 0.3862 0.1238 -0.3157
C83 C 0.3554(7) 0.0584(7) -0.1897(18)
H107 H 0.3242 0.0443 -0.1296
H108 H 0.3431 0.0258 -0.2466
C84 C 0.4125(6) 0.0699(5) -0.1353(16)
H109 H 0.4432 0.0799 -0.1953
H110 H 0.4063 0.0335 -0.0948
C85 C 0.4347(5) 0.1238(5) -0.0463(14)
H111 H 0.4064 0.1131 0.0199
C86 C 0.663(3) 0.528(3) 0.208(6)
H112 H 0.6992 0.5251 0.2193
H113 H 0.6376 0.5127 0.2758
H114 H 0.6749 0.5702 0.1964
N9A N 0.6344(4) 0.1775(6) 0.6416(10)
N10A N 0.6328(4) 0.1130(6) 0.4374(9)
N11A N 0.7720(4) 0.2323(6) -0.0243(9)
N12A N 0.8628(4) 0.3580(6) -0.0069(10)
C59A C 0.5730(4) 0.1572(6) 0.1312(10)
C60A C 0.5931(5) 0.1483(6) 0.2384(10)
H79A H 0.5649 0.1290 0.2981
C61A C 0.6531(5) 0.1671(7) 0.2595(10)
C62A C 0.6956(5) 0.1953(6) 0.1717(10)
H80A H 0.7362 0.2073 0.1853
C63A C 0.6778(5) 0.2058(6) 0.0630(10)
C64A C 0.6170(4) 0.1860(6) 0.0439(10)
H81A H 0.6048 0.1920 -0.0295
C65A C 0.5083(5) 0.1375(7) 0.1011(13)
C66A C 0.6715(5) 0.1540(7) 0.3762(11)
C67A C 0.7394(5) 0.1969(9) 0.4131(14)
H82A H 0.7607 0.2251 0.3509
H83A H 0.7408 0.2189 0.4827
H84A H 0.7583 0.1728 0.4283
C68A C 0.7244(5) 0.2369(7) -0.0318(11)
C69A C 0.7108(5) 0.2709(8) -0.1178(13)
H85A H 0.7474 0.3081 -0.1365
H86A H 0.6813 0.2801 -0.0859
H87A H 0.6948 0.2469 -0.1876
C70A C 0.6041(5) 0.3022(7) 0.5982(11)
H88A H 0.5618 0.2807 0.5991
C71A C 0.6365(5) 0.2703(7) 0.5975(11)
C72A C 0.6037(6) 0.2006(8) 0.6047(12)
C73A C 0.5392(6) 0.1677(9) 0.5604(17)
H89A H 0.5349 0.1384 0.5023
H90A H 0.5297 0.1966 0.5260
H91A H 0.5120 0.1474 0.6245
C74A C 0.6470(6) 0.0973(8) 0.5525(12)
H92A H 0.6908 0.1218 0.5688
C75A C 0.6269(8) 0.0314(10) 0.5559(14)
H93A H 0.6504 0.0230 0.4994
H94A H 0.5844 0.0082 0.5330
C76A C 0.6346(9) 0.0101(12) 0.6790(15)
H95A H 0.6202 -0.0333 0.6779
H96A H 0.6772 0.0313 0.7013
C77A C 0.5975(10) 0.0238(13) 0.7668(19)
H97A H 0.5547 0.0017 0.7455
H98A H 0.6018 0.0111 0.8448
C78A C 0.6210(9) 0.0921(12) 0.7655(15)
H99A H 0.6004 0.1023 0.8255
H100A H 0.6643 0.1141 0.7823
C79A C 0.6094(6) 0.1106(8) 0.6458(13)
H101A H 0.5659 0.0886 0.6268
C80A C 0.8207(5) 0.2623(7) -0.1122(11)
H102A H 0.8085 0.2810 -0.1738
C81A C 0.8338(6) 0.2148(8) -0.1641(16)
H103A H 0.7981 0.1840 -0.2054
H104A H 0.8436 0.1950 -0.1020
C82A C 0.8878(6) 0.2464(8) -0.2494(16)
H105A H 0.8984 0.2170 -0.2789
H106A H 0.8762 0.2624 -0.3157
C83A C 0.9416(7) 0.2970(10) -0.1897(18)
H107A H 0.9557 0.2799 -0.1296
H108A H 0.9742 0.3173 -0.2466
C84A C 0.9301(5) 0.3426(8) -0.1353(16)
H109A H 0.9201 0.3633 -0.1953
H110A H 0.9665 0.3728 -0.0948
C85A C 0.8762(5) 0.3109(7) -0.0463(14)
H111A H 0.8869 0.2933 0.0199
C86A C 0.472(3) 0.135(4) 0.208(6)
H112A H 0.4749 0.1741 0.2193
H113A H 0.4873 0.1249 0.2758
H114A H 0.4298 0.1047 0.1964
N9B N 0.8225(6) 0.4569(5) 0.6416(10)
N10B N 0.8870(6) 0.5198(4) 0.4374(9)
N11B N 0.7677(6) 0.5397(4) -0.0243(9)
N12B N 0.6420(6) 0.5048(4) -0.0069(10)
C59B C 0.8428(6) 0.4158(5) 0.1312(10)
C60B C 0.8517(6) 0.4448(4) 0.2384(10)
H79B H 0.8710 0.4359 0.2981
C61B C 0.8329(7) 0.4860(5) 0.2595(10)
C62B C 0.8047(6) 0.5003(4) 0.1717(10)
H80B H 0.7927 0.5289 0.1853
C63B C 0.7942(6) 0.4720(4) 0.0630(10)
C64B C 0.8140(6) 0.4310(5) 0.0439(10)
H81B H 0.8080 0.4128 -0.0295
C65B C 0.8625(7) 0.3708(5) 0.1011(13)
C66B C 0.8460(7) 0.5175(5) 0.3762(11)
C67B C 0.8031(9) 0.5425(7) 0.4131(14)
H82B H 0.7749 0.5356 0.3509
H83B H 0.7811 0.5219 0.4827
H84B H 0.8272 0.5855 0.4283
C68B C 0.7631(7) 0.4875(5) -0.0318(11)
C69B C 0.7291(8) 0.4399(6) -0.1178(13)
H85B H 0.6919 0.4393 -0.1365
H86B H 0.7199 0.4012 -0.0859
H87B H 0.7531 0.4479 -0.1876
C70B C 0.6978(7) 0.3019(5) 0.5982(11)
H88B H 0.7193 0.2811 0.5991
C71B C 0.7297(7) 0.3662(5) 0.5975(11)
C72B C 0.7994(8) 0.4031(6) 0.6047(12)
C73B C 0.8323(9) 0.3715(7) 0.5604(17)
H89B H 0.8616 0.3965 0.5023
H90B H 0.8034 0.3331 0.5260
H91B H 0.8526 0.3646 0.6245
C74B C 0.9027(8) 0.5497(5) 0.5525(12)
H92B H 0.8782 0.5690 0.5688
C75B C 0.9686(10) 0.5955(6) 0.5559(14)
H93B H 0.9770 0.6274 0.4994
H94B H 0.9918 0.5762 0.5330
C76B C 0.9899(12) 0.6245(8) 0.6790(15)
H95B H 1.0333 0.6535 0.6779
H96B H 0.9687 0.6459 0.7013
C77B C 0.9762(13) 0.5737(8) 0.7668(19)
H97B H 0.9983 0.5530 0.7455
H98B H 0.9889 0.5907 0.8448
C78B C 0.9079(12) 0.5289(8) 0.7655(15)
H99B H 0.8977 0.4981 0.8255
H100B H 0.8859 0.5502 0.7823
C79B C 0.8894(8) 0.4988(6) 0.6458(13)
H101B H 0.9114 0.4773 0.6268
C80B C 0.7377(7) 0.5584(5) -0.1122(11)
H102B H 0.7190 0.5275 -0.1738
C81B C 0.7852(8) 0.6190(6) -0.1641(16)
H103B H 0.8160 0.6141 -0.2054
H104B H 0.8050 0.6486 -0.1020
C82B C 0.7536(8) 0.6414(6) -0.2494(16)
H105B H 0.7830 0.6814 -0.2789
H106B H 0.7376 0.6138 -0.3157
C83B C 0.7030(10) 0.6446(7) -0.1897(18)
H107B H 0.7201 0.6758 -0.1296
H108B H 0.6827 0.6569 -0.2466
C84B C 0.6574(8) 0.5875(6) -0.1353(16)
H109B H 0.6367 0.5568 -0.1953
H110B H 0.6272 0.5937 -0.0948
C85B C 0.6891(7) 0.5653(5) -0.0463(14)
H111B H 0.7067 0.5936 0.0199
C86B C 0.865(4) 0.337(3) 0.208(6)
H112B H 0.8259 0.3008 0.2193
H113B H 0.8751 0.3624 0.2758
H114B H 0.8953 0.3251 0.1964
C29? C 0.7794(15) 0.8967(14) 0.610(3)
H37? H 0.7814 0.8976 0.5254
H38? H 0.8122 0.9340 0.6404
H39? H 0.7412 0.8922 0.6344
C58? C 0.5614(15) 0.6640(19) 0.612(4)
H76? H 0.5776 0.7026 0.5727
H77? H 0.5419 0.6317 0.5553
H78? H 0.5939 0.6613 0.6493
C87? C 0.647(3) 0.538(2) 0.203(5)
H115? H 0.6809 0.5412 0.2448
H116? H 0.6127 0.5245 0.2560
H117? H 0.6568 0.5773 0.1720
loop_
_geom_bond_atom_site_label_1
_geom_bond_atom_site_label_2
_geom_bond_site_symmetry_1
_geom_bond_site_symmetry_2
N1 C14 1_555 1_555
N2 C11 1_555 1_555
N3 C9 1_555 1_555
N4 C21 1_555 1_555
C1 C2 1_555 1_555
C2 H1 1_555 1_555
C3 C2 1_555 1_555
C4 C3 1_555 1_555
H2 C4 1_555 1_555
C5 C4 1_555 1_555
C6 C1 1_555 1_555
H3 C6 1_555 1_555
C7 C3 1_555 1_555
C8 C7 1_555 1_555
H4 C8 1_555 1_555
H5 C8 1_555 1_555
H6 C8 1_555 1_555
C9 C5 1_555 1_555
C10 C9 1_555 1_555
H7 C10 1_555 1_555
H8 C10 1_555 1_555
H9 C10 1_555 1_555
C11 C1 1_555 1_555
C12 H10 1_555 1_555
C13 C12 1_555 1_555
C14 C13 1_555 1_555
C15 C14 1_555 1_555
H11 C15 1_555 1_555
H12 C15 1_555 1_555
H13 C15 1_555 1_555
C16 N3 1_555 1_555
H14 C16 1_555 1_555
C17 C16 1_555 1_555
H15 C17 1_555 1_555
H16 C17 1_555 1_555
C18 C17 1_555 1_555
H17 C18 1_555 1_555
H18 C18 1_555 1_555
C19 C18 1_555 1_555
H19 C19 1_555 1_555
H20 C19 1_555 1_555
C20 C19 1_555 1_555
H21 C20 1_555 1_555
H22 C20 1_555 1_555
C21 C16 1_555 1_555
H23 C21 1_555 1_555
C22 N1 1_555 1_555
H24 C22 1_555 1_555
C23 C22 1_555 1_555
H25 C23 1_555 1_555
H26 C23 1_555 1_555
C24 C23 1_555 1_555
H27 C24 1_555 1_555
H28 C24 1_555 1_555
C25 C24 1_555 1_555
H29 C25 1_555 1_555
H30 C25 1_555 1_555
C26 C25 1_555 1_555
H31 C26 1_555 1_555
H32 C26 1_555 1_555
C27 N2 1_555 1_555
H33 C27 1_555 1_555
C28 C11 1_555 1_555
H34 C28 1_555 1_555
H35 C28 1_555 1_555
H36 C28 1_555 1_555
N5 C39 1_555 1_555
N6 C43 1_555 1_555
N7 C37 1_555 1_555
N8 C56 1_555 1_555
C30 C31 1_555 1_555
C31 H40 1_555 1_555
C32 C31 1_555 1_555
C33 C32 1_555 1_555
H41 C33 1_555 1_555
C34 C33 1_555 1_555
C35 C30 1_555 1_555
H42 C35 1_555 1_555
C36 C30 1_555 1_555
C37 C32 1_555 1_555
C38 C37 1_555 1_555
H43 C38 1_555 1_555
H44 C38 1_555 1_555
H45 C38 1_555 1_555
C39 C34 1_555 1_555
C40 C39 1_555 1_555
H46 C40 1_555 1_555
H47 C40 1_555 1_555
H48 C40 1_555 1_555
C41 H49 1_555 1_555
C42 C41 1_555 1_555
C43 C42 1_555 1_555
C44 C43 1_555 1_555
H50 C44 1_555 1_555
H51 C44 1_555 1_555
H52 C44 1_555 1_555
C45 N5 1_555 1_555
H53 C45 1_555 1_555
C46 C45 1_555 1_555
H54 C46 1_555 1_555
H55 C46 1_555 1_555
C47 C46 1_555 1_555
H56 C47 1_555 1_555
H57 C47 1_555 1_555
C48 C47 1_555 1_555
H58 C48 1_555 1_555
H59 C48 1_555 1_555
C49 C48 1_555 1_555
H60 C49 1_555 1_555
H61 C49 1_555 1_555
C50 N6 1_555 1_555
H62 C50 1_555 1_555
C51 N7 1_555 1_555
H63 C51 1_555 1_555
C52 C51 1_555 1_555
H64 C52 1_555 1_555
H65 C52 1_555 1_555
C53 C52 1_555 1_555
H66 C53 1_555 1_555
H67 C53 1_555 1_555
C54 C53 1_555 1_555
H68 C54 1_555 1_555
H69 C54 1_555 1_555
C55 C54 1_555 1_555
H70 C55 1_555 1_555
H71 C55 1_555 1_555
C56 C51 1_555 1_555
H72 C56 1_555 1_555
C57 C36 1_555 1_555
H73 C57 1_555 1_555
H74 C57 1_555 1_555
H75 C57 1_555 1_555
N9 C72 1_555 1_555
N10 C66 1_555 1_555
N11 C68 1_555 1_555
N12 C85 1_555 1_555
C59 C60 1_555 1_555
C60 H79 1_555 1_555
C61 C60 1_555 1_555
C62 C61 1_555 1_555
H80 C62 1_555 1_555
C63 C62 1_555 1_555
C64 C59 1_555 1_555
H81 C64 1_555 1_555
C65 C59 1_555 1_555
C66 C61 1_555 1_555
C67 C66 1_555 1_555
H82 C67 1_555 1_555
H83 C67 1_555 1_555
H84 C67 1_555 1_555
C68 C63 1_555 1_555
C69 C68 1_555 1_555
H85 C69 1_555 1_555
H86 C69 1_555 1_555
H87 C69 1_555 1_555
C70 H88 1_555 1_555
C71 C70 1_555 1_555
C72 C71 1_555 1_555
C73 C72 1_555 1_555
H89 C73 1_555 1_555
H90 C73 1_555 1_555
H91 C73 1_555 1_555
C74 N10 1_555 1_555
H92 C74 1_555 1_555
C75 C74 1_555 1_555
H93 C75 1_555 1_555
H94 C75 1_555 1_555
C76 C75 1_555 1_555
H95 C76 1_555 1_555
H96 C76 1_555 1_555
C77 C76 1_555 1_555
H97 C77 1_555 1_555
H98 C77 1_555 1_555
C78 C77 1_555 1_555
H99 C78 1_555 1_555
H100 C78 1_555 1_555
C79 N9 1_555 1_555
H101 C79 1_555 1_555
C80 N11 1_555 1_555
H102 C80 1_555 1_555
C81 C80 1_555 1_555
H103 C81 1_555 1_555
H104 C81 1_555 1_555
C82 C81 1_555 1_555
H105 C82 1_555 1_555
H106 C82 1_555 1_555
C83 C82 1_555 1_555
H107 C83 1_555 1_555
H108 C83 1_555 1_555
C84 C83 1_555 1_555
H109 C84 1_555 1_555
H110 C84 1_555 1_555
C85 C80 1_555 1_555
H111 C85 1_555 1_555
C86 C65 1_555 1_555
H112 C86 1_555 1_555
H113 C86 1_555 1_555
H114 C86 1_555 1_555
N1A C14A 1_555 1_555
N2A C11A 1_555 1_555
N3A C9A 1_555 1_555
N4A C21A 1_555 1_555
C1A C2A 1_555 1_555
C2A H1A 1_555 1_555
C3A C2A 1_555 1_555
C4A C3A 1_555 1_555
H2A C4A 1_555 1_555
C5A C4A 1_555 1_555
C6A C1A 1_555 1_555
H3A C6A 1_555 1_555
C7A N4 1_555 1_555
C8A C7A 1_555 1_555
H4A C8A 1_555 1_555
H5A C8A 1_555 1_555
H6A C8A 1_555 1_555
C9A C5A 1_555 1_555
C10A C9A 1_555 1_555
H7A C10A 1_555 1_555
H8A C10A 1_555 1_555
H9A C10A 1_555 1_555
C11A C1A 1_555 1_555
C12A C13 1_555 1_555
H10A C12A 1_555 1_555
C13A C12A 1_555 1_555
C14A C13A 1_555 1_555
C15A C14A 1_555 1_555
H11A C15A 1_555 1_555
H12A C15A 1_555 1_555
H13A C15A 1_555 1_555
C16A N3A 1_555 1_555
H14A C16A 1_555 1_555
C17A C16A 1_555 1_555
H15A C17A 1_555 1_555
H16A C17A 1_555 1_555
C18A C17A 1_555 1_555
H17A C18A 1_555 1_555
H18A C18A 1_555 1_555
C19A C18A 1_555 1_555
H19A C19A 1_555 1_555
H20A C19A 1_555 1_555
C20A C19A 1_555 1_555
H21A C20A 1_555 1_555
H22A C20A 1_555 1_555
C21A C16A 1_555 1_555
H23A C21A 1_555 1_555
C22A N1A 1_555 1_555
H24A C22A 1_555 1_555
C23A C22A 1_555 1_555
H25A C23A 1_555 1_555
H26A C23A 1_555 1_555
C24A C23A 1_555 1_555
H27A C24A 1_555 1_555
H28A C24A 1_555 1_555
C25A C24A 1_555 1_555
H29A C25A 1_555 1_555
H30A C25A 1_555 1_555
C26A C25A 1_555 1_555
H31A C26A 1_555 1_555
H32A C26A 1_555 1_555
C27A N2A 1_555 1_555
H33A C27A 1_555 1_555
C28A C11A 1_555 1_555
H34A C28A 1_555 1_555
H35A C28A 1_555 1_555
H36A C28A 1_555 1_555
N1B C14B 1_555 1_555
N2B C11B 1_555 1_555
N3B C9B 1_555 1_555
N4B C7 1_555 1_555
C1B C2B 1_555 1_555
C2B H1B 1_555 1_555
C3B C2B 1_555 1_555
C4B C3B 1_555 1_555
H2B C4B 1_555 1_555
C5B C4B 1_555 1_555
C6B C1B 1_555 1_555
H3B C6B 1_555 1_555
C7B N4A 1_555 1_555
C8B C7B 1_555 1_555
H4B C8B 1_555 1_555
H5B C8B 1_555 1_555
H6B C8B 1_555 1_555
C9B C5B 1_555 1_555
C10B C9B 1_555 1_555
H7B C10B 1_555 1_555
H8B C10B 1_555 1_555
H9B C10B 1_555 1_555
C11B C1B 1_555 1_555
C12B C13A 1_555 1_555
H10B C12B 1_555 1_555
C13B C12 1_555 1_555
C14B C13B 1_555 1_555
C15B C14B 1_555 1_555
H11B C15B 1_555 1_555
H12B C15B 1_555 1_555
H13B C15B 1_555 1_555
C16B N3B 1_555 1_555
H14B C16B 1_555 1_555
C17B C16B 1_555 1_555
H15B C17B 1_555 1_555
H16B C17B 1_555 1_555
C18B C17B 1_555 1_555
H17B C18B 1_555 1_555
H18B C18B 1_555 1_555
C19B C18B 1_555 1_555
H19B C19B 1_555 1_555
H20B C19B 1_555 1_555
C20B C19B 1_555 1_555
H21B C20B 1_555 1_555
H22B C20B 1_555 1_555
C21B N4B 1_555 1_555
H23B C21B 1_555 1_555
C22B N1B 1_555 1_555
H24B C22B 1_555 1_555
C23B C22B 1_555 1_555
H25B C23B 1_555 1_555
H26B C23B 1_555 1_555
C24B C23B 1_555 1_555
H27B C24B 1_555 1_555
H28B C24B 1_555 1_555
C25B C24B 1_555 1_555
H29B C25B 1_555 1_555
H30B C25B 1_555 1_555
C26B C25B 1_555 1_555
H31B C26B 1_555 1_555
H32B C26B 1_555 1_555
C27B N2B 1_555 1_555
H33B C27B 1_555 1_555
C28B C11B 1_555 1_555
H34B C28B 1_555 1_555
H35B C28B 1_555 1_555
H36B C28B 1_555 1_555
N5A C39A 1_555 1_555
N6A C43A 1_555 1_555
N7A C37A 1_555 1_555
N8A C36 1_555 1_555
C30A C31A 1_555 1_555
C31A H40A 1_555 1_555
C32A C31A 1_555 1_555
C33A C32A 1_555 1_555
H41A C33A 1_555 1_555
C34A C33A 1_555 1_555
C35A C30A 1_555 1_555
H42A C35A 1_555 1_555
C36A C30A 1_555 1_555
C37A C32A 1_555 1_555
C38A C37A 1_555 1_555
H43A C38A 1_555 1_555
H44A C38A 1_555 1_555
H45A C38A 1_555 1_555
C39A C34A 1_555 1_555
C40A C39A 1_555 1_555
H46A C40A 1_555 1_555
H47A C40A 1_555 1_555
H48A C40A 1_555 1_555
C41A C42 1_555 1_555
H49A C41A 1_555 1_555
C42A C41A 1_555 1_555
C43A C42A 1_555 1_555
C44A C43A 1_555 1_555
H50A C44A 1_555 1_555
H51A C44A 1_555 1_555
H52A C44A 1_555 1_555
C45A N5A 1_555 1_555
H53A C45A 1_555 1_555
C46A C45A 1_555 1_555
H54A C46A 1_555 1_555
H55A C46A 1_555 1_555
C47A C46A 1_555 1_555
H56A C47A 1_555 1_555
H57A C47A 1_555 1_555
C48A C47A 1_555 1_555
H58A C48A 1_555 1_555
H59A C48A 1_555 1_555
C49A C48A 1_555 1_555
H60A C49A 1_555 1_555
H61A C49A 1_555 1_555
C50A N6A 1_555 1_555
H62A C50A 1_555 1_555
C51A N7A 1_555 1_555
H63A C51A 1_555 1_555
C52A C51A 1_555 1_555
H64A C52A 1_555 1_555
H65A C52A 1_555 1_555
C53A C52A 1_555 1_555
H66A C53A 1_555 1_555
H67A C53A 1_555 1_555
C54A C53A 1_555 1_555
H68A C54A 1_555 1_555
H69A C54A 1_555 1_555
C55A C54A 1_555 1_555
H70A C55A 1_555 1_555
H71A C55A 1_555 1_555
C56A N8A 1_555 1_555
H72A C56A 1_555 1_555
C57A C36A 1_555 1_555
H73A C57A 1_555 1_555
H74A C57A 1_555 1_555
H75A C57A 1_555 1_555
N5B C39B 1_555 1_555
N6B C43B 1_555 1_555
N7B C37B 1_555 1_555
N8B C36A 1_555 1_555
C30B C31B 1_555 1_555
C31B H40B 1_555 1_555
C32B C31B 1_555 1_555
C33B C32B 1_555 1_555
H41B C33B 1_555 1_555
C34B C33B 1_555 1_555
C35B C30B 1_555 1_555
H42B C35B 1_555 1_555
C36B N8 1_555 1_555
C37B C32B 1_555 1_555
C38B C37B 1_555 1_555
H43B C38B 1_555 1_555
H44B C38B 1_555 1_555
H45B C38B 1_555 1_555
C39B C34B 1_555 1_555
C40B C39B 1_555 1_555
H46B C40B 1_555 1_555
H47B C40B 1_555 1_555
H48B C40B 1_555 1_555
C41B C42A 1_555 1_555
H49B C41B 1_555 1_555
C42B C41 1_555 1_555
C43B C42B 1_555 1_555
C44B C43B 1_555 1_555
H50B C44B 1_555 1_555
H51B C44B 1_555 1_555
H52B C44B 1_555 1_555
C45B N5B 1_555 1_555
H53B C45B 1_555 1_555
C46B C45B 1_555 1_555
H54B C46B 1_555 1_555
H55B C46B 1_555 1_555
C47B C46B 1_555 1_555
H56B C47B 1_555 1_555
H57B C47B 1_555 1_555
C48B C47B 1_555 1_555
H58B C48B 1_555 1_555
H59B C48B 1_555 1_555
C49B C48B 1_555 1_555
H60B C49B 1_555 1_555
H61B C49B 1_555 1_555
C50B N6B 1_555 1_555
H62B C50B 1_555 1_555
C51B N7B 1_555 1_555
H63B C51B 1_555 1_555
C52B C51B 1_555 1_555
H64B C52B 1_555 1_555
H65B C52B 1_555 1_555
C53B C52B 1_555 1_555
H66B C53B 1_555 1_555
H67B C53B 1_555 1_555
C54B C53B 1_555 1_555
H68B C54B 1_555 1_555
H69B C54B 1_555 1_555
C55B C54B 1_555 1_555
H70B C55B 1_555 1_555
H71B C55B 1_555 1_555
C56B N8B 1_555 1_555
H72B C56B 1_555 1_555
C57B C36B 1_555 1_555
H73B C57B 1_555 1_555
H74B C57B 1_555 1_555
H75B C57B 1_555 1_555
N9A C72A 1_555 1_555
N10A C66A 1_555 1_555
N11A C68A 1_555 1_555
N12A C85A 1_555 1_555
C59A C60A 1_555 1_555
C60A H79A 1_555 1_555
C61A C60A 1_555 1_555
C62A C61A 1_555 1_555
H80A C62A 1_555 1_555
C63A C62A 1_555 1_555
C64A C59A 1_555 1_555
H81A C64A 1_555 1_555
C65A N12 1_555 1_555
C66A C61A 1_555 1_555
C67A C66A 1_555 1_555
H82A C67A 1_555 1_555
H83A C67A 1_555 1_555
H84A C67A 1_555 1_555
C68A C63A 1_555 1_555
C69A C68A 1_555 1_555
H85A C69A 1_555 1_555
H86A C69A 1_555 1_555
H87A C69A 1_555 1_555
C70A C71 1_555 1_555
H88A C70A 1_555 1_555
C71A C70A 1_555 1_555
C72A C71A 1_555 1_555
C73A C72A 1_555 1_555
H89A C73A 1_555 1_555
H90A C73A 1_555 1_555
H91A C73A 1_555 1_555
C74A N10A 1_555 1_555
H92A C74A 1_555 1_555
C75A C74A 1_555 1_555
H93A C75A 1_555 1_555
H94A C75A 1_555 1_555
C76A C75A 1_555 1_555
H95A C76A 1_555 1_555
H96A C76A 1_555 1_555
C77A C76A 1_555 1_555
H97A C77A 1_555 1_555
H98A C77A 1_555 1_555
C78A C77A 1_555 1_555
H99A C78A 1_555 1_555
H100A C78A 1_555 1_555
C79A N9A 1_555 1_555
H101A C79A 1_555 1_555
C80A N11A 1_555 1_555
H102A C80A 1_555 1_555
C81A C80A 1_555 1_555
H103A C81A 1_555 1_555
H104A C81A 1_555 1_555
C82A C81A 1_555 1_555
H105A C82A 1_555 1_555
H106A C82A 1_555 1_555
C83A C82A 1_555 1_555
H107A C83A 1_555 1_555
H108A C83A 1_555 1_555
C84A C83A 1_555 1_555
H109A C84A 1_555 1_555
H110A C84A 1_555 1_555
C85A C80A 1_555 1_555
H111A C85A 1_555 1_555
C86A C65A 1_555 1_555
H112A C86A 1_555 1_555
H113A C86A 1_555 1_555
H114A C86A 1_555 1_555
N9B C72B 1_555 1_555
N10B C66B 1_555 1_555
N11B C68B 1_555 1_555
N12B C65 1_555 1_555
C59B C60B 1_555 1_555
C60B H79B 1_555 1_555
C61B C60B 1_555 1_555
C62B C61B 1_555 1_555
H80B C62B 1_555 1_555
C63B C62B 1_555 1_555
C64B C59B 1_555 1_555
H81B C64B 1_555 1_555
C65B N12A 1_555 1_555
C66B C61B 1_555 1_555
C67B C66B 1_555 1_555
H82B C67B 1_555 1_555
H83B C67B 1_555 1_555
H84B C67B 1_555 1_555
C68B C63B 1_555 1_555
C69B C68B 1_555 1_555
H85B C69B 1_555 1_555
H86B C69B 1_555 1_555
H87B C69B 1_555 1_555
C70B C71A 1_555 1_555
H88B C70B 1_555 1_555
C71B C70 1_555 1_555
C72B C71B 1_555 1_555
C73B C72B 1_555 1_555
H89B C73B 1_555 1_555
H90B C73B 1_555 1_555
H91B C73B 1_555 1_555
C74B N10B 1_555 1_555
H92B C74B 1_555 1_555
C75B C74B 1_555 1_555
H93B C75B 1_555 1_555
H94B C75B 1_555 1_555
C76B C75B 1_555 1_555
H95B C76B 1_555 1_555
H96B C76B 1_555 1_555
C77B C76B 1_555 1_555
H97B C77B 1_555 1_555
H98B C77B 1_555 1_555
C78B C77B 1_555 1_555
H99B C78B 1_555 1_555
H100B C78B 1_555 1_555
C79B N9B 1_555 1_555
H101B C79B 1_555 1_555
C80B N11B 1_555 1_555
H102B C80B 1_555 1_555
C81B C80B 1_555 1_555
H103B C81B 1_555 1_555
H104B C81B 1_555 1_555
C82B C81B 1_555 1_555
H105B C82B 1_555 1_555
H106B C82B 1_555 1_555
C83B C82B 1_555 1_555
H107B C83B 1_555 1_555
H108B C83B 1_555 1_555
C84B C83B 1_555 1_555
H109B C84B 1_555 1_555
H110B C84B 1_555 1_555
C85B N12B 1_555 1_555
H111B C85B 1_555 1_555
C86B C65B 1_555 1_555
H112B C86B 1_555 1_555
H113B C86B 1_555 1_555
H114B C86B 1_555 1_555
C5 C6 1_555 1_555
C20 C21 1_555 1_555
C22 C27 1_555 1_555
C26 C27 1_555 1_555
C34 C35 1_555 1_555
C45 C50 1_555 1_555
C49 C50 1_555 1_555
C55 C56 1_555 1_555
C63 C64 1_555 1_555
C74 C79 1_555 1_555
C78 C79 1_555 1_555
C84 C85 1_555 1_555
C3A C7A 1_555 1_555
C5A C6A 1_555 1_555
C20A C21A 1_555 1_555
C22A C27A 1_555 1_555
C26A C27A 1_555 1_555
C3B C7B 1_555 1_555
C5B C6B 1_555 1_555
C12B C13B 1_555 1_555
C16B C21B 1_555 1_555
C20B C21B 1_555 1_555
C22B C27B 1_555 1_555
C26B C27B 1_555 1_555
C34A C35A 1_555 1_555
C45A C50A 1_555 1_555
C49A C50A 1_555 1_555
C51A C56A 1_555 1_555
C55A C56A 1_555 1_555
C30B C36B 1_555 1_555
C34B C35B 1_555 1_555
C41B C42B 1_555 1_555
C45B C50B 1_555 1_555
C49B C50B 1_555 1_555
C51B C56B 1_555 1_555
C55B C56B 1_555 1_555
C59A C65A 1_555 1_555
C63A C64A 1_555 1_555
C74A C79A 1_555 1_555
C78A C79A 1_555 1_555
C84A C85A 1_555 1_555
C59B C65B 1_555 1_555
C63B C64B 1_555 1_555
C70B C71B 1_555 1_555
C74B C79B 1_555 1_555
C78B C79B 1_555 1_555
C80B C85B 1_555 1_555
C84B C85B 1_555 1_555

#END
