
#######################################################################
#
#                 Cambridge Crystallographic Data Centre
#                                CCDC 
#
#######################################################################
#
# If this CIF has been generated from an entry in the Cambridge 
# Structural Database, then it will include bibliographic, chemical, 
# crystal, experimental, refinement or atomic coordinate data resulting 
# from the CCDC's data processing and validation procedures.
#
#######################################################################

data_SENPIN
_chemical_formula_moiety         'C84.5 H107.5 Cl2.5 N12'
_symmetry_cell_setting           orthorhombic
_symmetry_space_group_name_H-M   'C 2 2 21'
_symmetry_Int_Tables_number      20
_space_group_name_Hall           'C 2n 2'
loop_
_symmetry_equiv_pos_site_id
_symmetry_equiv_pos_as_xyz
1 x,y,z
2 -x,-y,1/2+z
3 x,-y,-z
4 -x,y,1/2-z
5 1/2+x,1/2+y,z
6 1/2-x,1/2-y,1/2+z
7 1/2+x,1/2-y,-z
8 1/2-x,1/2+y,1/2-z
_cell_length_a                   17.0198(15)
_cell_length_b                   22.755(2)
_cell_length_c                   22.4114(19)
_cell_angle_alpha                90
_cell_angle_beta                 90
_cell_angle_gamma                90
_cell_volume                     8679.61
loop_
_atom_site_label
_atom_site_type_symbol
_atom_site_fract_x
_atom_site_fract_y
_atom_site_fract_z
N1 N 0.3563(4) 0.3413(3) 0.4744(3)
N2 N 0.5038(4) 0.1438(3) 0.3128(3)
N3 N 0.7190(4) 0.3324(3) 0.4268(3)
N4 N 0.7864(4) 0.4313(3) 0.3620(3)
N5 N 0.7457(4) 0.4242(3) 0.0829(3)
N6 N 0.5831(4) 0.6257(3) 0.2329(3)
C1 C 0.4795(5) 0.0917(3) 0.2803(3)
H1 H 0.4224 0.0919 0.2749
C2 C 0.4732(4) 0.3228(3) 0.4217(3)
C3 C 0.5045(6) 0.0365(3) 0.3149(4)
H2 H 0.5609 0.0372 0.3211
H3 H 0.4793 0.0364 0.3537
C4 C 0.5539(4) 0.3325(3) 0.4167(3)
H4 H 0.5760 0.3650 0.4354
C5 C 0.6016(4) 0.2953(3) 0.3847(3)
C6 C 0.5690(4) 0.2474(3) 0.3553(3)
H5 H 0.6009 0.2225 0.3330
C7 C 0.4880(4) 0.2363(3) 0.3592(3)
C8 C 0.4424(4) 0.2744(3) 0.3927(3)
H6 H 0.3888 0.2671 0.3959
C9 C 0.4211(5) 0.3626(3) 0.4564(4)
C10 C 0.6887(4) 0.3077(3) 0.3817(4)
C11 C 0.4562(5) 0.1837(4) 0.3278(3)
C12 C 0.4485(5) 0.4254(4) 0.4648(5)
H7 H 0.4835 0.4274 0.4983
H8 H 0.4039 0.4503 0.4718
H9 H 0.4754 0.4383 0.4295
C13 C 0.7298(5) 0.2903(4) 0.3253(4)
H10 H 0.7637 0.3217 0.3126
H11 H 0.6915 0.2826 0.2948
H12 H 0.7604 0.2556 0.3323
C14 C 0.3682(5) 0.1843(5) 0.3155(5)
H13 H 0.3426 0.1562 0.3409
H14 H 0.3589 0.1742 0.2745
H15 H 0.3477 0.2228 0.3234
C15 C 0.7214(5) 0.4847(4) 0.2871(4)
C16 C 0.6705(5) 0.5287(4) 0.2704(4)
H16 H 0.6504 0.5537 0.2995
C17 C 0.6481(5) 0.5369(3) 0.2107(3)
C18 C 0.6804(5) 0.4997(4) 0.1675(4)
H17 H 0.6665 0.5046 0.1277
C19 C 0.7337(5) 0.4550(4) 0.1832(3)
C20 C 0.7533(5) 0.4488(3) 0.2422(3)
H18 H 0.7891 0.4198 0.2529
C21 C 0.7420(5) 0.4733(4) 0.3512(4)
C22 C 0.5898(4) 0.5841(4) 0.1959(3)
C23 C 0.7657(5) 0.4149(4) 0.1376(4)
C24 C 0.5428(6) 0.5768(5) 0.1398(4)
H19 H 0.5755 0.5850 0.1059
H20 H 0.4992 0.6035 0.1403
H21 H 0.5237 0.5372 0.1374
C25 C 0.5306(5) 0.6750(3) 0.2239(4)
H22 H 0.5028 0.6699 0.1860
C26 C 0.5770(6) 0.7311(4) 0.2217(4)
H23 H 0.6077 0.7317 0.1852
H24 H 0.6134 0.7318 0.2550
C27 C 0.5264(7) 0.7861(4) 0.2240(5)
H25 H 0.5601 0.8204 0.2257
H26 H 0.4954 0.7886 0.1878
C28 C 0.2981(4) 0.3760(3) 0.5070(3)
H27 H 0.3213 0.4136 0.5191
C29 C 0.2721(5) 0.3422(4) 0.5621(4)
H28 H 0.2543 0.3034 0.5502
H29 H 0.3167 0.3372 0.5885
C30 C 0.2077(6) 0.3723(5) 0.5952(4)
H30 H 0.2257 0.4103 0.6091
H31 H 0.1930 0.3491 0.6298
C31 C 0.1364(6) 0.3801(5) 0.5545(4)
H32 H 0.0948 0.4005 0.5756
H33 H 0.1167 0.3421 0.5419
C32 C 0.1622(6) 0.4159(5) 0.5002(5)
H34 H 0.1177 0.4208 0.4736
H35 H 0.1788 0.4546 0.5133
C33 C 0.2291(5) 0.3870(4) 0.4662(3)
H36 H 0.2108 0.3493 0.4501
C34 C 0.8113(4) 0.4147(4) 0.4220(4)
H37 H 0.7779 0.4346 0.4514
C35 C 0.8963(5) 0.4338(5) 0.4309(4)
H38 H 0.9287 0.4173 0.3995
H39 H 0.8998 0.4763 0.4285
C36 C 0.9266(6) 0.4133(5) 0.4913(5)
H40 H 0.9811 0.4251 0.4956
H41 H 0.8966 0.4323 0.5226
C37 C 0.9205(6) 0.3484(5) 0.4983(5)
H42 H 0.9384 0.3372 0.5377
H43 H 0.9539 0.3292 0.4691
C38 C 0.8349(5) 0.3286(4) 0.4895(5)
H44 H 0.8320 0.2862 0.4927
H45 H 0.8026 0.3453 0.5209
C39 C 0.8035(4) 0.3473(4) 0.4300(4)
H46 H 0.8320 0.3271 0.3981
C40 C 0.4824(7) -0.0187(4) 0.2815(4)
H47 H 0.4256 -0.0215 0.2789
H48 H 0.5013 -0.0527 0.3033
C41 C 0.7250(14) 0.5239(10) 0.3934(9)
H49 H 0.7375 0.5124 0.4335
H50 H 0.6703 0.5341 0.3910
H51 H 0.7564 0.5572 0.3824
C42 C 0.8356(13) 0.3795(9) 0.1548(8)
H52 H 0.8755 0.4050 0.1705
H53 H 0.8555 0.3593 0.1204
H54 H 0.8209 0.3513 0.1847
N1C N 0.6437(4) 0.3413(3) 0.0256(3)
N2C N 0.4962(4) 0.1438(3) 0.1872(3)
N3C N 0.2810(4) 0.3324(3) 0.0732(3)
N4C N 0.2136(4) 0.4313(3) 0.1380(3)
N5C N 0.2543(4) 0.4242(3) 0.4171(3)
N6C N 0.4169(4) 0.6257(3) 0.2671(3)
C1C C 0.5205(5) 0.0917(3) 0.2197(3)
H1C H 0.5776 0.0919 0.2251
C2C C 0.5268(4) 0.3228(3) 0.0783(3)
C3C C 0.4955(6) 0.0365(3) 0.1851(4)
H2C H 0.4391 0.0372 0.1789
H3C H 0.5207 0.0364 0.1463
C4C C 0.4461(4) 0.3325(3) 0.0833(3)
H4C H 0.4240 0.3650 0.0646
C5C C 0.3984(4) 0.2953(3) 0.1153(3)
C6C C 0.4310(4) 0.2474(3) 0.1447(3)
H5C H 0.3991 0.2225 0.1670
C7C C 0.5120(4) 0.2363(3) 0.1408(3)
C8C C 0.5576(4) 0.2744(3) 0.1073(3)
H6C H 0.6112 0.2671 0.1041
C9C C 0.5789(5) 0.3626(3) 0.0436(4)
C10C C 0.3113(4) 0.3077(3) 0.1183(4)
C11C C 0.5438(5) 0.1837(4) 0.1722(3)
C12C C 0.5515(5) 0.4254(4) 0.0352(5)
H7C H 0.5165 0.4274 0.0017
H8C H 0.5961 0.4503 0.0282
H9C H 0.5246 0.4383 0.0705
C13C C 0.2702(5) 0.2903(4) 0.1747(4)
H10C H 0.2363 0.3217 0.1874
H11C H 0.3085 0.2826 0.2052
H12C H 0.2396 0.2556 0.1677
C14C C 0.6318(5) 0.1843(5) 0.1845(5)
H13C H 0.6574 0.1562 0.1591
H14C H 0.6411 0.1742 0.2255
H15C H 0.6523 0.2228 0.1766
C15C C 0.2786(5) 0.4847(4) 0.2129(4)
C16C C 0.3295(5) 0.5287(4) 0.2296(4)
H16C H 0.3496 0.5537 0.2005
C17C C 0.3519(5) 0.5369(3) 0.2893(3)
C18C C 0.3196(5) 0.4997(4) 0.3325(4)
H17C H 0.3335 0.5046 0.3723
C19C C 0.2663(5) 0.4550(4) 0.3168(3)
C20C C 0.2467(5) 0.4488(3) 0.2578(3)
H18C H 0.2109 0.4198 0.2471
C21C C 0.2580(5) 0.4733(4) 0.1488(4)
C22C C 0.4102(4) 0.5841(4) 0.3041(3)
C23C C 0.2343(5) 0.4149(4) 0.3624(4)
C24C C 0.4572(6) 0.5768(5) 0.3602(4)
H19C H 0.4245 0.5850 0.3941
H20C H 0.5008 0.6035 0.3597
H21C H 0.4763 0.5372 0.3626
C25C C 0.4694(5) 0.6750(3) 0.2761(4)
H22C H 0.4972 0.6699 0.3140
C26C C 0.4230(6) 0.7311(4) 0.2783(4)
H23C H 0.3923 0.7317 0.3148
H24C H 0.3866 0.7318 0.2450
C27C C 0.4736(7) 0.7861(4) 0.2760(5)
H25C H 0.4399 0.8204 0.2743
H26C H 0.5046 0.7886 0.3122
C28C C 0.7019(4) 0.3760(3) -0.0070(3)
H27C H 0.6787 0.4136 -0.0191
C29C C 0.7279(5) 0.3422(4) -0.0621(4)
H28C H 0.7457 0.3034 -0.0502
H29C H 0.6833 0.3372 -0.0885
C30C C 0.7923(6) 0.3723(5) -0.0952(4)
H30C H 0.7743 0.4103 -0.1091
H31C H 0.8070 0.3491 -0.1298
C31C C 0.8636(6) 0.3801(5) -0.0545(4)
H32C H 0.9052 0.4005 -0.0756
H33C H 0.8833 0.3421 -0.0419
C32C C 0.8378(6) 0.4159(5) -0.0002(5)
H34C H 0.8823 0.4208 0.0264
H35C H 0.8212 0.4546 -0.0133
C33C C 0.7709(5) 0.3870(4) 0.0338(3)
H36C H 0.7892 0.3493 0.0499
C34C C 0.1887(4) 0.4147(4) 0.0780(4)
H37C H 0.2221 0.4346 0.0486
C35C C 0.1037(5) 0.4338(5) 0.0691(4)
H38C H 0.0713 0.4173 0.1005
H39C H 0.1002 0.4763 0.0715
C36C C 0.0734(6) 0.4133(5) 0.0087(5)
H40C H 0.0189 0.4251 0.0044
H41C H 0.1034 0.4323 -0.0226
C37C C 0.0795(6) 0.3484(5) 0.0017(5)
H42C H 0.0616 0.3372 -0.0377
H43C H 0.0461 0.3292 0.0309
C38C C 0.1651(5) 0.3286(4) 0.0105(5)
H44C H 0.1680 0.2862 0.0073
H45C H 0.1974 0.3453 -0.0209
C39C C 0.1965(4) 0.3473(4) 0.0700(4)
H46C H 0.1680 0.3271 0.1019
C40C C 0.5176(7) -0.0187(4) 0.2185(4)
H47C H 0.5744 -0.0215 0.2211
H48C H 0.4987 -0.0527 0.1967
C41C C 0.2750(14) 0.5239(10) 0.1066(9)
H49C H 0.2625 0.5124 0.0665
H50C H 0.3297 0.5341 0.1090
H51C H 0.2436 0.5572 0.1176
C42C C 0.1644(13) 0.3795(9) 0.3452(8)
H52C H 0.1245 0.4050 0.3295
H53C H 0.1445 0.3593 0.3796
H54C H 0.1791 0.3513 0.3153
Cl1 Cl 0.6688(3) 0.3221(3) 0.6213(3)
C43 C 0.6438(9) 0.2889(9) 0.5561(6)
H55 H 0.6354 0.3191 0.5263
H56 H 0.6881 0.2653 0.5430
Cl2 Cl 0.5454(8) 0.2693(9) 0.5604(4)
C44? C 0.6825(16) 0.4963(12) 0.4021(11)
H57? H 0.7075 0.5266 0.4251
H58? H 0.6686 0.4642 0.4279
H59? H 0.6359 0.5117 0.3837
C45? C 0.7991(17) 0.3574(12) 0.1612(10)
H60? H 0.8215 0.3638 0.2000
H61? H 0.8390 0.3434 0.1345
H62? H 0.7578 0.3288 0.1641
H63? H 0.6760 0.2542 0.5499
H64? H 0.6521 0.3155 0.5229
Cl3? Cl 0.5634(10) 0.2453(9) 0.5577(11)
C46? C 0.5000 0.3466(10) 0.2500
H65? H 0.5007 0.3287 0.2107
H66? H 0.5201 0.3186 0.2789
Cl4? Cl 0.4074(8) 0.3696(10) 0.2687(9)
Cl5? Cl 0.5538(19) 0.4113(12) 0.251(2)
loop_
_geom_bond_atom_site_label_1
_geom_bond_atom_site_label_2
_geom_bond_site_symmetry_1
_geom_bond_site_symmetry_2
N1 C9 1_555 1_555
N2 C1 1_555 1_555
N3 C10 1_555 1_555
N4 C21 1_555 1_555
N5 C23 1_555 1_555
N6 C22 1_555 1_555
C1 H1 1_555 1_555
C2 C4 1_555 1_555
C3 C1 1_555 1_555
H2 C3 1_555 1_555
H3 C3 1_555 1_555
C4 H4 1_555 1_555
C5 C4 1_555 1_555
C6 C5 1_555 1_555
H5 C6 1_555 1_555
C7 C6 1_555 1_555
C8 C2 1_555 1_555
H6 C8 1_555 1_555
C9 C2 1_555 1_555
C10 C5 1_555 1_555
C11 N2 1_555 1_555
C12 C9 1_555 1_555
H7 C12 1_555 1_555
H8 C12 1_555 1_555
H9 C12 1_555 1_555
C13 C10 1_555 1_555
H10 C13 1_555 1_555
H11 C13 1_555 1_555
H12 C13 1_555 1_555
C14 C11 1_555 1_555
H13 C14 1_555 1_555
H14 C14 1_555 1_555
H15 C14 1_555 1_555
C15 C16 1_555 1_555
C16 H16 1_555 1_555
C17 C16 1_555 1_555
C18 C17 1_555 1_555
H17 C18 1_555 1_555
C19 C18 1_555 1_555
C20 C15 1_555 1_555
H18 C20 1_555 1_555
C21 C15 1_555 1_555
C22 C17 1_555 1_555
C23 C19 1_555 1_555
C24 C22 1_555 1_555
H19 C24 1_555 1_555
H20 C24 1_555 1_555
H21 C24 1_555 1_555
C25 N6 1_555 1_555
H22 C25 1_555 1_555
C26 C25 1_555 1_555
H23 C26 1_555 1_555
H24 C26 1_555 1_555
C27 C26 1_555 1_555
H25 C27 1_555 1_555
H26 C27 1_555 1_555
C28 N1 1_555 1_555
H27 C28 1_555 1_555
C29 C28 1_555 1_555
H28 C29 1_555 1_555
H29 C29 1_555 1_555
C30 C29 1_555 1_555
H30 C30 1_555 1_555
H31 C30 1_555 1_555
C31 C30 1_555 1_555
H32 C31 1_555 1_555
H33 C31 1_555 1_555
C32 C31 1_555 1_555
H34 C32 1_555 1_555
H35 C32 1_555 1_555
C33 C28 1_555 1_555
H36 C33 1_555 1_555
C34 N4 1_555 1_555
H37 C34 1_555 1_555
C35 C34 1_555 1_555
H38 C35 1_555 1_555
H39 C35 1_555 1_555
C36 C35 1_555 1_555
H40 C36 1_555 1_555
H41 C36 1_555 1_555
C37 C36 1_555 1_555
H42 C37 1_555 1_555
H43 C37 1_555 1_555
C38 C37 1_555 1_555
H44 C38 1_555 1_555
H45 C38 1_555 1_555
C39 N3 1_555 1_555
H46 C39 1_555 1_555
C40 C3 1_555 1_555
H47 C40 1_555 1_555
H48 C40 1_555 1_555
C41 C21 1_555 1_555
H49 C41 1_555 1_555
H50 C41 1_555 1_555
H51 C41 1_555 1_555
C42 C23 1_555 1_555
H52 C42 1_555 1_555
H53 C42 1_555 1_555
H54 C42 1_555 1_555
Cl1 C43 1_555 1_555
C43 H55 1_555 1_555
H56 C43 1_555 1_555
Cl2 C43 1_555 1_555
N1C C9C 1_555 1_555
N2C C1C 1_555 1_555
N3C C10C 1_555 1_555
N4C C21C 1_555 1_555
N5C C33 1_555 1_555
N6C C22C 1_555 1_555
C1C C1 1_555 1_555
H1C C1C 1_555 1_555
C2C C4C 1_555 1_555
C3C C1C 1_555 1_555
H2C C3C 1_555 1_555
H3C C3C 1_555 1_555
C4C H4C 1_555 1_555
C5C C4C 1_555 1_555
C6C C5C 1_555 1_555
H5C C6C 1_555 1_555
C7C C6C 1_555 1_555
C8C C2C 1_555 1_555
H6C C8C 1_555 1_555
C9C C2C 1_555 1_555
C10C C5C 1_555 1_555
C11C N2C 1_555 1_555
C12C C9C 1_555 1_555
H7C C12C 1_555 1_555
H8C C12C 1_555 1_555
H9C C12C 1_555 1_555
C13C C10C 1_555 1_555
H10C C13C 1_555 1_555
H11C C13C 1_555 1_555
H12C C13C 1_555 1_555
C14C C11C 1_555 1_555
H13C C14C 1_555 1_555
H14C C14C 1_555 1_555
H15C C14C 1_555 1_555
C15C C16C 1_555 1_555
C16C H16C 1_555 1_555
C17C C16C 1_555 1_555
C18C C17C 1_555 1_555
H17C C18C 1_555 1_555
C19C C18C 1_555 1_555
C20C C15C 1_555 1_555
H18C C20C 1_555 1_555
C21C C15C 1_555 1_555
C22C C17C 1_555 1_555
C23C N5C 1_555 1_555
C24C C22C 1_555 1_555
H19C C24C 1_555 1_555
H20C C24C 1_555 1_555
H21C C24C 1_555 1_555
C25C C25 1_555 1_555
H22C C25C 1_555 1_555
C26C C25C 1_555 1_555
H23C C26C 1_555 1_555
H24C C26C 1_555 1_555
C27C C27 1_555 1_555
H25C C27C 1_555 1_555
H26C C27C 1_555 1_555
C28C N1C 1_555 1_555
H27C C28C 1_555 1_555
C29C C28C 1_555 1_555
H28C C29C 1_555 1_555
H29C C29C 1_555 1_555
C30C C29C 1_555 1_555
H30C C30C 1_555 1_555
H31C C30C 1_555 1_555
C31C C30C 1_555 1_555
H32C C31C 1_555 1_555
H33C C31C 1_555 1_555
C32C C31C 1_555 1_555
H34C C32C 1_555 1_555
H35C C32C 1_555 1_555
C33C N5 1_555 1_555
H36C C33C 1_555 1_555
C34C N4C 1_555 1_555
H37C C34C 1_555 1_555
C35C C34C 1_555 1_555
H38C C35C 1_555 1_555
H39C C35C 1_555 1_555
C36C C35C 1_555 1_555
H40C C36C 1_555 1_555
H41C C36C 1_555 1_555
C37C C36C 1_555 1_555
H42C C37C 1_555 1_555
H43C C37C 1_555 1_555
C38C C37C 1_555 1_555
H44C C38C 1_555 1_555
H45C C38C 1_555 1_555
C39C N3C 1_555 1_555
H46C C39C 1_555 1_555
C40C C40 1_555 1_555
H47C C40C 1_555 1_555
H48C C40C 1_555 1_555
C41C C21C 1_555 1_555
H49C C41C 1_555 1_555
H50C C41C 1_555 1_555
H51C C41C 1_555 1_555
C42C C23C 1_555 1_555
H52C C42C 1_555 1_555
H53C C42C 1_555 1_555
H54C C42C 1_555 1_555
C7 C8 1_555 1_555
C7 C11 1_555 1_555
C19 C20 1_555 1_555
C32 C33 1_555 1_555
C34 C39 1_555 1_555
C38 C39 1_555 1_555
N6C C25C 1_555 1_555
C3C C40C 1_555 1_555
C7C C8C 1_555 1_555
C7C C11C 1_555 1_555
C19C C20C 1_555 1_555
C19C C23C 1_555 1_555
C26C C27C 1_555 1_555
C28C C33C 1_555 1_555
C32C C33C 1_555 1_555
C34C C39C 1_555 1_555
C38C C39C 1_555 1_555

#END
