
#######################################################################
#
#                 Cambridge Crystallographic Data Centre
#                                CCDC 
#
#######################################################################
#
# If this CIF has been generated from an entry in the Cambridge 
# Structural Database, then it will include bibliographic, chemical, 
# crystal, experimental, refinement or atomic coordinate data resulting 
# from the CCDC's data processing and validation procedures.
#
#######################################################################

data_SENPUZ
_chemical_formula_moiety         
'C84 H108 N12,2.9333(C1 H4 O1),1.943(C1 H2 Cl2)'
_chemical_name_systematic        
'4,13,19,28,34,43,49,58,61,70,73,82-dodecamethyl-5,12,20,27,35,42,50,57,62,69,74,81-dodecaazatridecacyclo[29.29.10.10^16,46^.1^3,59^.1^14,18^.1^29,33^.1^44,48^.0^6,11^.0^21,26^.0^36,41^.0^51,56^.0^63,68^.0^75,80^]tetraoctaconta-1,3(71),4,12,14(84),15,17,19,27,29(83),30,32,34,42,44(72),45,47,49,57,59,61,69,73,81-tetracosaene methanol dichloromethane solvate'
_symmetry_cell_setting           trigonal
_symmetry_space_group_name_H-M   'P 3'
_symmetry_Int_Tables_number      143
_space_group_name_Hall           'P 3'
loop_
_symmetry_equiv_pos_site_id
_symmetry_equiv_pos_as_xyz
1 x,y,z
2 -y,x-y,z
3 -x+y,-x,z
_cell_length_a                   26.1841(11)
_cell_length_b                   26.1841(11)
_cell_length_c                   11.1858(5)
_cell_angle_alpha                90
_cell_angle_beta                 90
_cell_angle_gamma                120
_cell_volume                     6641.6
_exptl_crystal_colour            colorless
_exptl_crystal_description       needle
_cell_formula_units_Z            3
loop_
_atom_site_label
_atom_site_type_symbol
_atom_site_fract_x
_atom_site_fract_y
_atom_site_fract_z
Cl1 Cl 0.3861(5) 0.0248(5) 0.5107(13)
Cl2 Cl 0.3279(3) 0.0630(3) 0.3469(8)
C1 C 0.3819(12) 0.0837(8) 0.455(3)
H1 H 0.4205 0.1123 0.4194
H2 H 0.3737 0.1036 0.5208
O1 O 0.2862(4) 0.0465(4) 0.8180(10)
H3 H 0.3078 0.0501 0.8765
C2 C 0.2636(9) -0.0122(8) 0.764(2)
H4 H 0.2292 -0.0216 0.7141
H5 H 0.2522 -0.0418 0.8271
H6 H 0.2944 -0.0122 0.7142
O2 O 0.3368(6) 0.0434(6) 1.0097(15)
H7 H 0.3730 0.0648 1.0231
C3 C 0.3162(7) -0.0118(6) 1.0643(17)
H8 H 0.3135 -0.0404 1.0045
H9 H 0.2771 -0.0252 1.0989
H10 H 0.3436 -0.0084 1.1276
O3 O 0.3352(8) 0.3312(8) 0.996(2)
H11 H 0.3355 0.3554 1.0461
C4 C 0.3843(8) 0.3626(9) 0.910(2)
H12 H 0.3814 0.3352 0.8472
H13 H 0.4220 0.3777 0.9520
H14 H 0.3819 0.3955 0.8746
N1 N 0.2271(3) -0.2849(4) -0.0477(8)
N2 N 0.1894(4) -0.2400(4) 0.1409(9)
N3 N 0.3465(4) -0.1524(4) 0.6059(8)
N4 N 0.4666(4) -0.1279(4) 0.5967(10)
C5 C 0.2315(5) -0.2456(6) 0.3259(10)
C6 C 0.1851(6) -0.3022(6) 0.3524(11)
H15 H 0.1553 -0.3232 0.2946
C7 C 0.1824(6) -0.3275(7) 0.4602(12)
C8 C 0.2245(5) -0.2977(6) 0.5424(11)
H16 H 0.2215 -0.3158 0.6178
C9 C 0.2726(5) -0.2414(5) 0.5219(10)
C10 C 0.2746(5) -0.2147(5) 0.4107(11)
H17 H 0.3054 -0.1757 0.3943
C11 C 0.2360(5) -0.2184(5) 0.2027(11)
C12 C 0.2938(5) -0.1718(5) 0.1656(12)
H18 H 0.2960 -0.1704 0.0781
H19 H 0.3241 -0.1797 0.1974
H20 H 0.3004 -0.1339 0.1962
C13 C 0.3204(5) -0.2085(5) 0.6138(12)
C14 C 0.3290(5) -0.2447(6) 0.7007(11)
H21 H 0.3659 -0.2204 0.7442
H22 H 0.3309 -0.2766 0.6594
H23 H 0.2959 -0.2614 0.7571
C15 C 0.4784(10) -0.1335(7) 0.4917(14)
C16 C 0.4808(18) -0.0948(16) 0.381(4)
H24 H 0.4912 -0.1089 0.3085
H25 H 0.4421 -0.0981 0.3695
H26 H 0.5105 -0.0535 0.3948
C17 C 0.3338(4) -0.2802(4) -0.0058(9)
H27 H 0.3338 -0.2440 -0.0071
C18 C 0.2793(4) -0.3339(4) -0.0048(9)
C19 C 0.2235(4) -0.3321(4) -0.0099(9)
C20 C 0.1680(5) -0.3860(5) 0.0354(12)
H28 H 0.1543 -0.4176 -0.0241
H29 H 0.1372 -0.3758 0.0490
H30 H 0.1766 -0.3994 0.1106
C21 C 0.1768(4) -0.2763(5) -0.0615(10)
H31 H 0.1402 -0.3120 -0.0329
C22 C 0.1702(5) -0.2649(5) -0.1922(11)
H32 H 0.2089 -0.2342 -0.2234
H33 H 0.1578 -0.3014 -0.2385
C23 C 0.1256(6) -0.2450(6) -0.2100(14)
H34 H 0.1237 -0.2372 -0.2960
H35 H 0.0862 -0.2770 -0.1853
C24 C 0.1407(8) -0.1902(7) -0.1396(13)
H36 H 0.1102 -0.1788 -0.1521
H37 H 0.1792 -0.1571 -0.1659
C25 C 0.1435(8) -0.2042(8) -0.0047(12)
H38 H 0.1535 -0.1688 0.0439
H39 H 0.1043 -0.2362 0.0213
C26 C 0.1896(5) -0.2229(5) 0.0163(10)
H40 H 0.2296 -0.1893 -0.0040
C27 C 0.3898(5) -0.1157(5) 0.6958(11)
H41 H 0.3896 -0.1414 0.7620
C28 C 0.3750(6) -0.0716(7) 0.7464(13)
H42 H 0.3718 -0.0484 0.6799
H43 H 0.3360 -0.0930 0.7860
C29 C 0.4189(7) -0.0307(6) 0.8335(15)
H44 H 0.4186 -0.0532 0.9049
H45 H 0.4076 -0.0015 0.8593
C30 C 0.4816(6) 0.0021(6) 0.7810(14)
H46 H 0.4840 0.0293 0.7170
H47 H 0.5103 0.0255 0.8442
C31 C 0.4960(7) -0.0432(6) 0.7305(13)
H48 H 0.5355 -0.0224 0.6930
H49 H 0.4976 -0.0674 0.7970
C32 C 0.4515(5) -0.0837(5) 0.6387(12)
H50 H 0.4514 -0.0598 0.5693
N1A N 0.2849(4) -0.4880(5) -0.0477(8)
N2A N 0.2400(4) -0.5706(6) 0.1409(9)
N3A N 0.1524(4) -0.5011(6) 0.6059(8)
N4A N 0.1279(4) -0.4055(6) 0.5967(10)
C5A C 0.2456(6) -0.5229(8) 0.3259(10)
C6A C 0.3022(6) -0.5127(8) 0.3524(11)
H15A H 0.3232 -0.5215 0.2946
C7A C 0.3275(7) -0.4901(9) 0.4602(12)
C8A C 0.2977(6) -0.4778(8) 0.5424(11)
H16A H 0.3158 -0.4627 0.6178
C9A C 0.2414(5) -0.4860(7) 0.5219(10)
C10A C 0.2147(5) -0.5107(7) 0.4107(11)
H17A H 0.1757 -0.5189 0.3943
C11A C 0.2184(5) -0.5456(7) 0.2027(11)
C12A C 0.1718(5) -0.5344(7) 0.1656(12)
H18A H 0.1704 -0.5336 0.0781
H19A H 0.1797 -0.4962 0.1974
H20A H 0.1339 -0.5657 0.1962
C13A C 0.2085(5) -0.4711(7) 0.6138(12)
C14A C 0.2447(6) -0.4263(8) 0.7007(11)
H21A H 0.2204 -0.4137 0.7442
H22A H 0.2766 -0.3925 0.6594
H23A H 0.2614 -0.4427 0.7571
C15A C 0.1335(7) -0.3881(12) 0.4917(14)
C16A C 0.0948(16) -0.4244(24) 0.381(4)
H24A H 0.1089 -0.3999 0.3085
H25A H 0.0981 -0.4598 0.3695
H26A H 0.0535 -0.4360 0.3948
C17A C 0.2802(4) -0.3860(6) -0.0058(9)
H27A H 0.2440 -0.4222 -0.0071
C18A C 0.3339(4) -0.3868(6) -0.0048(9)
C19A C 0.3321(4) -0.4444(6) -0.0099(9)
C20A C 0.3860(5) -0.4460(7) 0.0354(12)
H28A H 0.4176 -0.4281 -0.0241
H29A H 0.3758 -0.4870 0.0490
H30A H 0.3994 -0.4240 0.1106
C21A C 0.2763(5) -0.5469(6) -0.0615(10)
H31A H 0.3120 -0.5478 -0.0329
C22A C 0.2649(5) -0.5649(7) -0.1922(11)
H32A H 0.2342 -0.5569 -0.2234
H33A H 0.3014 -0.5408 -0.2385
C23A C 0.2450(6) -0.6294(8) -0.2100(14)
H34A H 0.2372 -0.6391 -0.2960
H35A H 0.2770 -0.6368 -0.1853
C24A C 0.1902(7) -0.6691(11) -0.1396(13)
H36A H 0.1788 -0.7110 -0.1521
H37A H 0.1571 -0.6637 -0.1659
C25A C 0.2042(8) -0.6523(11) -0.0047(12)
H38A H 0.1688 -0.6777 0.0439
H39A H 0.2362 -0.6595 0.0213
C26A C 0.2229(5) -0.5875(7) 0.0163(10)
H40A H 0.1893 -0.5811 -0.0040
C27A C 0.1157(5) -0.4945(7) 0.6958(11)
H41A H 0.1414 -0.4690 0.7620
C28A C 0.0716(7) -0.5534(9) 0.7464(13)
H42A H 0.0484 -0.5798 0.6799
H43A H 0.0930 -0.5710 0.7860
C29A C 0.0307(6) -0.5504(9) 0.8335(15)
H44A H 0.0532 -0.5282 0.9049
H45A H 0.0015 -0.5909 0.8593
C30A C -0.0021(6) -0.5205(8) 0.7810(14)
H46A H -0.0293 -0.5453 0.7170
H47A H -0.0255 -0.5152 0.8442
C31A C 0.0432(6) -0.4608(9) 0.7305(13)
H48A H 0.0224 -0.4421 0.6930
H49A H 0.0674 -0.4350 0.7970
C32A C 0.0837(5) -0.4648(7) 0.6387(12)
H50A H 0.0598 -0.4888 0.5693
N1B N 0.4880(5) -0.2271(3) -0.0477(8)
N2B N 0.5706(6) -0.1894(4) 0.1409(9)
N3B N 0.5011(6) -0.3465(4) 0.6059(8)
N4B N 0.4055(6) -0.4666(4) 0.5967(10)
C5B C 0.5229(8) -0.2315(5) 0.3259(10)
C6B C 0.5127(8) -0.1851(6) 0.3524(11)
H15B H 0.5215 -0.1553 0.2946
C7B C 0.4901(9) -0.1824(6) 0.4602(12)
C8B C 0.4778(8) -0.2245(5) 0.5424(11)
H16B H 0.4627 -0.2215 0.6178
C9B C 0.4860(7) -0.2726(5) 0.5219(10)
C10B C 0.5107(7) -0.2746(5) 0.4107(11)
H17B H 0.5189 -0.3054 0.3943
C11B C 0.5456(7) -0.2360(5) 0.2027(11)
C12B C 0.5344(7) -0.2938(5) 0.1656(12)
H18B H 0.5336 -0.2960 0.0781
H19B H 0.4962 -0.3241 0.1974
H20B H 0.5657 -0.3004 0.1962
C13B C 0.4711(7) -0.3204(5) 0.6138(12)
C14B C 0.4263(8) -0.3290(5) 0.7007(11)
H21B H 0.4137 -0.3659 0.7442
H22B H 0.3925 -0.3309 0.6594
H23B H 0.4427 -0.2959 0.7571
C15B C 0.3881(12) -0.4784(10) 0.4917(14)
C16B C 0.4244(24) -0.4808(18) 0.381(4)
H24B H 0.3999 -0.4912 0.3085
H25B H 0.4598 -0.4421 0.3695
H26B H 0.4360 -0.5105 0.3948
C17B C 0.3860(6) -0.3338(4) -0.0058(9)
H27B H 0.4222 -0.3338 -0.0071
C18B C 0.3868(6) -0.2793(4) -0.0048(9)
C19B C 0.4444(6) -0.2235(4) -0.0099(9)
C20B C 0.4460(7) -0.1680(5) 0.0354(12)
H28B H 0.4281 -0.1543 -0.0241
H29B H 0.4870 -0.1372 0.0490
H30B H 0.4240 -0.1766 0.1106
C21B C 0.5469(6) -0.1768(4) -0.0615(10)
H31B H 0.5478 -0.1402 -0.0329
C22B C 0.5649(7) -0.1702(5) -0.1922(11)
H32B H 0.5569 -0.2089 -0.2234
H33B H 0.5408 -0.1578 -0.2385
C23B C 0.6294(8) -0.1256(6) -0.2100(14)
H34B H 0.6391 -0.1237 -0.2960
H35B H 0.6368 -0.0862 -0.1853
C24B C 0.6691(11) -0.1407(8) -0.1396(13)
H36B H 0.7110 -0.1102 -0.1521
H37B H 0.6637 -0.1792 -0.1659
C25B C 0.6523(11) -0.1435(8) -0.0047(12)
H38B H 0.6777 -0.1535 0.0439
H39B H 0.6595 -0.1043 0.0213
C26B C 0.5875(7) -0.1896(5) 0.0163(10)
H40B H 0.5811 -0.2296 -0.0040
C27B C 0.4945(7) -0.3898(5) 0.6958(11)
H41B H 0.4690 -0.3896 0.7620
C28B C 0.5534(9) -0.3750(6) 0.7464(13)
H42B H 0.5798 -0.3718 0.6799
H43B H 0.5710 -0.3360 0.7860
C29B C 0.5504(9) -0.4189(7) 0.8335(15)
H44B H 0.5282 -0.4186 0.9049
H45B H 0.5909 -0.4076 0.8593
C30B C 0.5205(8) -0.4816(6) 0.7810(14)
H46B H 0.5453 -0.4840 0.7170
H47B H 0.5152 -0.5103 0.8442
C31B C 0.4608(9) -0.4960(7) 0.7305(13)
H48B H 0.4421 -0.5355 0.6930
H49B H 0.4350 -0.4976 0.7970
C32B C 0.4648(7) -0.4515(5) 0.6387(12)
H50B H 0.4888 -0.4514 0.5693
N5 N -0.0028(3) -0.1800(3) 0.7432(7)
N6 N 0.2050(3) 0.0806(3) 0.7361(7)
N7 N 0.1522(3) -0.0765(3) 1.2050(7)
N8 N 0.0918(3) -0.0659(4) 1.4044(8)
C33 C -0.0398(4) -0.0603(4) 1.3563(9)
H51 H -0.0675 -0.1014 1.3548
C34 C 0.0189(4) -0.0413(4) 1.3574(10)
C35 C 0.0420(4) -0.0837(4) 1.3603(9)
C36 C 0.0011(5) -0.1456(5) 1.3100(12)
H52 H -0.0331 -0.1466 1.2722
H53 H -0.0121 -0.1744 1.3751
H54 H 0.0225 -0.1552 1.2505
C37 C 0.1368(4) -0.0419(4) 1.0241(9)
C38 C 0.0896(4) -0.0965(4) 0.9943(9)
H55 H 0.0763 -0.1276 1.0509
C39 C 0.0610(4) -0.1076(4) 0.8847(9)
C40 C 0.0823(4) -0.0628(4) 0.7988(9)
H56 H 0.0645 -0.0702 0.7220
C41 C 0.1291(4) -0.0080(4) 0.8257(9)
C42 C 0.1560(4) 0.0037(4) 0.9351(9)
H57 H 0.1876 0.0422 0.9524
C43 C 0.1639(4) -0.0303(4) 1.1442(9)
C44 C 0.1996(5) 0.0321(4) 1.1812(11)
H58 H 0.2115 0.0340 1.2649
H59 H 0.1762 0.0516 1.1727
H60 H 0.2348 0.0520 1.1306
C45 C 0.0105(4) -0.1676(4) 0.8553(10)
C46 C -0.0253(5) -0.2061(5) 0.9572(11)
H61 H -0.0667 -0.2173 0.9463
H62 H -0.0107 -0.1844 1.0325
H63 H -0.0218 -0.2416 0.9594
C47 C 0.1485(4) 0.0405(4) 0.7333(9)
C48 C 0.1036(4) 0.0366(4) 0.6476(10)
H64 H 0.1174 0.0753 0.6107
H65 H 0.0665 0.0243 0.6898
H66 H 0.0973 0.0077 0.5854
C49 C 0.1745(4) -0.0721(4) 1.3281(9)
H67 H 0.2001 -0.0297 1.3507
C50 C 0.2095(4) -0.1040(5) 1.3359(10)
H68 H 0.2448 -0.0839 1.2842
H69 H 0.1850 -0.1449 1.3068
C51 C 0.2285(6) -0.1048(5) 1.4648(12)
H70 H 0.2509 -0.1259 1.4683
H71 H 0.2546 -0.0638 1.4924
C52 C 0.1761(5) -0.1344(5) 1.5449(10)
H72 H 0.1894 -0.1332 1.6283
H73 H 0.1517 -0.1763 1.5213
C53 C 0.1381(5) -0.1038(4) 1.5383(9)
H74 H 0.1021 -0.1261 1.5874
H75 H 0.1609 -0.0634 1.5712
C54 C 0.1209(5) -0.1011(4) 1.4098(9)
H76 H 0.0932 -0.1419 1.3806
C55 C -0.0506(4) -0.2364(4) 0.7081(9)
H77 H -0.0669 -0.2621 0.7801
C56 C -0.0268(5) -0.2648(5) 0.6191(11)
H78 H -0.0064 -0.2371 0.5524
H79 H 0.0023 -0.2723 0.6602
C57 C -0.0760(5) -0.3221(5) 0.5695(12)
H80 H -0.0925 -0.3516 0.6347
H81 H -0.0596 -0.3373 0.5083
C58 C 0.2291(4) 0.1309(4) 0.6501(9)
H82 H 0.2004 0.1202 0.5827
C59 C 0.2871(5) 0.1385(5) 0.5995(10)
H83 H 0.3146 0.1452 0.6661
H84 H 0.2791 0.1019 0.5577
C60 C 0.3155(5) 0.1898(6) 0.5133(11)
H85 H 0.2910 0.1802 0.4402
H86 H 0.3548 0.1965 0.4898
N5A N 0.1800(3) 0.1772(4) 0.7432(7)
N6A N -0.0806(3) 0.1244(4) 0.7361(7)
N7A N 0.0765(3) 0.2287(4) 1.2050(7)
N8A N 0.0659(4) 0.1577(5) 1.4044(8)
C33A C 0.0603(4) 0.0205(6) 1.3563(9)
H51A H 0.1014 0.0339 1.3548
C34A C 0.0413(4) 0.0602(6) 1.3574(10)
C35A C 0.0837(4) 0.1257(6) 1.3603(9)
C36A C 0.1456(5) 0.1467(7) 1.3100(12)
H52A H 0.1466 0.1135 1.2722
H53A H 0.1744 0.1623 1.3751
H54A H 0.1552 0.1777 1.2505
C37A C 0.0419(4) 0.1787(6) 1.0241(9)
C38A C 0.0965(4) 0.1861(6) 0.9943(9)
H55A H 0.1276 0.2039 1.0509
C39A C 0.1076(4) 0.1686(6) 0.8847(9)
C40A C 0.0628(4) 0.1451(6) 0.7988(9)
H56A H 0.0702 0.1347 0.7220
C41A C 0.0080(4) 0.1371(6) 0.8257(9)
C42A C -0.0037(4) 0.1523(6) 0.9351(9)
H57A H -0.0422 0.1454 0.9524
C43A C 0.0303(4) 0.1942(6) 1.1442(9)
C44A C -0.0321(4) 0.1675(6) 1.1812(11)
H58A H -0.0340 0.1775 1.2649
H59A H -0.0516 0.1246 1.1727
H60A H -0.0520 0.1828 1.1306
C45A C 0.1676(4) 0.1781(6) 0.8553(10)
C46A C 0.2061(5) 0.1808(7) 0.9572(11)
H61A H 0.2173 0.1506 0.9463
H62A H 0.1844 0.1737 1.0325
H63A H 0.2416 0.2198 0.9594
C47A C -0.0405(4) 0.1080(6) 0.7333(9)
C48A C -0.0366(4) 0.0670(6) 0.6476(10)
H64A H -0.0753 0.0421 0.6107
H65A H -0.0243 0.0422 0.6898
H66A H -0.0077 0.0896 0.5854
C49A C 0.0721(4) 0.2466(6) 1.3281(9)
H67A H 0.0297 0.2298 1.3507
C50A C 0.1040(5) 0.3135(6) 1.3359(10)
H68A H 0.0839 0.3287 1.2842
H69A H 0.1449 0.3299 1.3068
C51A C 0.1048(5) 0.3333(8) 1.4648(12)
H70A H 0.1259 0.3768 1.4683
H71A H 0.0638 0.3184 1.4924
C52A C 0.1344(5) 0.3105(7) 1.5449(10)
H72A H 0.1332 0.3226 1.6283
H73A H 0.1763 0.3280 1.5213
C53A C 0.1038(4) 0.2419(6) 1.5383(9)
H74A H 0.1261 0.2282 1.5874
H75A H 0.0634 0.2243 1.5712
C54A C 0.1011(4) 0.2220(6) 1.4098(9)
H76A H 0.1419 0.2351 1.3806
C55A C 0.2364(4) 0.1858(6) 0.7081(9)
H77A H 0.2621 0.1952 0.7801
C56A C 0.2648(5) 0.2380(7) 0.6191(11)
H78A H 0.2371 0.2307 0.5524
H79A H 0.2723 0.2746 0.6602
C57A C 0.3221(5) 0.2461(7) 0.5695(12)
H80A H 0.3516 0.2591 0.6347
H81A H 0.3373 0.2777 0.5083
C58A C -0.1309(4) 0.0982(6) 0.6501(9)
H82A H -0.1202 0.0802 0.5827
C59A C -0.1385(5) 0.1486(7) 0.5995(10)
H83A H -0.1452 0.1694 0.6661
H84A H -0.1019 0.1772 0.5577
C60A C -0.1898(6) 0.1257(8) 0.5133(11)
H85A H -0.1802 0.1108 0.4402
H86A H -0.1965 0.1583 0.4898
N5B N -0.1772(4) 0.0028(3) 0.7432(7)
N6B N -0.1244(4) -0.2050(3) 0.7361(7)
N7B N -0.2287(4) -0.1522(3) 1.2050(7)
N8B N -0.1577(5) -0.0918(3) 1.4044(8)
C33B C -0.0205(6) 0.0398(4) 1.3563(9)
H51B H -0.0339 0.0675 1.3548
C34B C -0.0602(6) -0.0189(4) 1.3574(10)
C35B C -0.1257(6) -0.0420(4) 1.3603(9)
C36B C -0.1467(7) -0.0011(5) 1.3100(12)
H52B H -0.1135 0.0331 1.2722
H53B H -0.1623 0.0121 1.3751
H54B H -0.1777 -0.0225 1.2505
C37B C -0.1787(6) -0.1368(4) 1.0241(9)
C38B C -0.1861(6) -0.0896(4) 0.9943(9)
H55B H -0.2039 -0.0763 1.0509
C39B C -0.1686(6) -0.0610(4) 0.8847(9)
C40B C -0.1451(6) -0.0823(4) 0.7988(9)
H56B H -0.1347 -0.0645 0.7220
C41B C -0.1371(6) -0.1291(4) 0.8257(9)
C42B C -0.1523(6) -0.1560(4) 0.9351(9)
H57B H -0.1454 -0.1876 0.9524
C43B C -0.1942(6) -0.1639(4) 1.1442(9)
C44B C -0.1675(6) -0.1996(5) 1.1812(11)
H58B H -0.1775 -0.2115 1.2649
H59B H -0.1246 -0.1762 1.1727
H60B H -0.1828 -0.2348 1.1306
C45B C -0.1781(6) -0.0105(4) 0.8553(10)
C46B C -0.1808(7) 0.0253(5) 0.9572(11)
H61B H -0.1506 0.0667 0.9463
H62B H -0.1737 0.0107 1.0325
H63B H -0.2198 0.0218 0.9594
C47B C -0.1080(6) -0.1485(4) 0.7333(9)
C48B C -0.0670(6) -0.1036(4) 0.6476(10)
H64B H -0.0421 -0.1174 0.6107
H65B H -0.0422 -0.0665 0.6898
H66B H -0.0896 -0.0973 0.5854
C49B C -0.2466(6) -0.1745(4) 1.3281(9)
H67B H -0.2298 -0.2001 1.3507
C50B C -0.3135(6) -0.2095(4) 1.3359(10)
H68B H -0.3287 -0.2448 1.2842
H69B H -0.3299 -0.1850 1.3068
C51B C -0.3333(8) -0.2285(6) 1.4648(12)
H70B H -0.3768 -0.2509 1.4683
H71B H -0.3184 -0.2546 1.4924
C52B C -0.3105(7) -0.1761(5) 1.5449(10)
H72B H -0.3226 -0.1894 1.6283
H73B H -0.3280 -0.1517 1.5213
C53B C -0.2419(6) -0.1381(5) 1.5383(9)
H74B H -0.2282 -0.1021 1.5874
H75B H -0.2243 -0.1609 1.5712
C54B C -0.2220(6) -0.1209(5) 1.4098(9)
H76B H -0.2351 -0.0932 1.3806
C55B C -0.1858(6) 0.0506(4) 0.7081(9)
H77B H -0.1952 0.0669 0.7801
C56B C -0.2380(7) 0.0268(5) 0.6191(11)
H78B H -0.2307 0.0064 0.5524
H79B H -0.2746 -0.0023 0.6602
C57B C -0.2461(7) 0.0760(5) 0.5695(12)
H80B H -0.2591 0.0925 0.6347
H81B H -0.2777 0.0596 0.5083
C58B C -0.0982(6) -0.2291(4) 0.6501(9)
H82B H -0.0802 -0.2004 0.5827
C59B C -0.1486(7) -0.2871(5) 0.5995(10)
H83B H -0.1694 -0.3146 0.6661
H84B H -0.1772 -0.2791 0.5577
C60B C -0.1257(8) -0.3155(5) 0.5133(11)
H85B H -0.1108 -0.2910 0.4402
H86B H -0.1583 -0.3548 0.4898
N9 N 0.5115(3) 0.2759(3) 1.0242(8)
N10 N 0.4292(3) 0.2275(3) 0.8303(7)
N11 N 0.5201(4) 0.3860(4) 0.3654(8)
N12 N 0.5106(4) 0.1470(4) 0.3586(8)
C61 C 0.4987(4) 0.3101(4) 0.5044(10)
C62 C 0.4768(4) 0.2840(4) 0.6146(10)
H87 H 0.4649 0.3031 0.6711
C63 C 0.4722(4) 0.2300(4) 0.6432(9)
C64 C 0.4916(4) 0.2019(4) 0.5600(9)
H88 H 0.4892 0.1653 0.5772
C65 C 0.5150(4) 0.2324(5) 0.4482(10)
C66 C 0.5185(4) 0.2840(5) 0.4239(10)
H89 H 0.5349 0.3030 0.3499
C67 C 0.5041(4) 0.3699(5) 0.4716(11)
C68 C 0.5082(18) 0.4065(15) 0.579(3)
H90 H 0.4919 0.3809 0.6488
H91 H 0.5496 0.4359 0.5935
H92 H 0.4858 0.4266 0.5634
C69 C 0.4512(4) 0.2032(4) 0.7632(9)
C70 C 0.4581(8) 0.1512(6) 0.7966(14)
H93 H 0.5001 0.1633 0.7987
H94 H 0.4380 0.1198 0.7373
H95 H 0.4407 0.1366 0.8756
C71 C 0.5358(5) 0.2037(5) 0.3589(10)
C72 C 0.5816(5) 0.2438(5) 0.2735(10)
H96 H 0.6075 0.2816 0.3127
H97 H 0.5627 0.2503 0.2041
H98 H 0.6049 0.2261 0.2472
C73 C 0.5243(5) 0.1179(5) 0.2628(10)
H99 H 0.5516 0.1483 0.2044
C74 C 0.4686(6) 0.0740(6) 0.1987(12)
H100 H 0.4402 0.0463 0.2580
H101 H 0.4505 0.0953 0.1606
C75 C 0.4795(6) 0.0394(7) 0.1049(13)
H102 H 0.4414 0.0095 0.0699
H103 H 0.5039 0.0663 0.0400
C76 C 0.6166(4) 0.2787(3) 0.9691(8)
H104 H 0.5819 0.2410 0.9677
C77 C 0.6121(4) 0.3292(4) 0.9702(9)
C78 C 0.5507(4) 0.3221(4) 0.9744(8)
C79 C 0.5436(5) 0.3708(5) 0.9198(13)
H105 H 0.5468 0.3699 0.8326
H106 H 0.5745 0.4090 0.9502
H107 H 0.5048 0.3653 0.9410
C80 C 0.4125(4) 0.2086(4) 0.9537(8)
H108 H 0.4192 0.1752 0.9742
C81 C 0.3487(4) 0.1914(5) 0.9722(10)
H109 H 0.3235 0.1560 0.9235
H110 H 0.3427 0.2237 0.9432
C82 C 0.3289(4) 0.1783(5) 1.1036(10)
H111 H 0.2873 0.1685 1.1107
H112 H 0.3317 0.1439 1.1319
C83 C 0.3673(5) 0.2310(6) 1.1784(10)
H113 H 0.3562 0.2216 1.2635
H114 H 0.3608 0.2639 1.1557
C84 C 0.4318(4) 0.2503(4) 1.1631(9)
H115 H 0.4558 0.2858 1.2126
H116 H 0.4389 0.2186 1.1918
C85 C 0.4505(4) 0.2638(4) 1.0366(9)
H117 H 0.4474 0.2984 1.0087
C86 C 0.5311(5) 0.4431(5) 0.3233(11)
H118 H 0.5289 0.4670 0.3908
C87 C 0.4836(6) 0.4321(6) 0.2247(12)
H119 H 0.4807 0.4018 0.1678
H120 H 0.4445 0.4171 0.2630
C88 C 0.5005(6) 0.4905(7) 0.1553(14)
H121 H 0.4718 0.4812 0.0896
H122 H 0.4966 0.5180 0.2104
N9A N 0.7241(3) 0.2356(4) 1.0242(8)
N10A N 0.7725(3) 0.2017(4) 0.8303(7)
N11A N 0.6140(4) 0.1341(6) 0.3654(8)
N12A N 0.8530(4) 0.3636(6) 0.3586(8)
C61A C 0.6899(4) 0.1886(6) 0.5044(10)
C62A C 0.7160(4) 0.1928(6) 0.6146(10)
H87A H 0.6969 0.1618 0.6711
C63A C 0.7700(4) 0.2422(6) 0.6432(9)
C64A C 0.7981(4) 0.2897(6) 0.5600(9)
H88A H 0.8347 0.3239 0.5772
C65A C 0.7676(5) 0.2826(6) 0.4482(10)
C66A C 0.7160(5) 0.2345(6) 0.4239(10)
H89A H 0.6970 0.2319 0.3499
C67A C 0.6301(5) 0.1342(6) 0.4716(11)
C68A C 0.5935(15) 0.1017(23) 0.579(3)
H90A H 0.6191 0.1110 0.6488
H91A H 0.5641 0.1137 0.5935
H92A H 0.5734 0.0592 0.5634
C69A C 0.7968(4) 0.2480(6) 0.7632(9)
C70A C 0.8488(6) 0.3069(10) 0.7966(14)
H93A H 0.8367 0.3368 0.7987
H94A H 0.8802 0.3182 0.7373
H95A H 0.8634 0.3041 0.8756
C71A C 0.7963(5) 0.3321(7) 0.3589(10)
C72A C 0.7562(5) 0.3378(7) 0.2735(10)
H96A H 0.7184 0.3259 0.3127
H97A H 0.7497 0.3124 0.2041
H98A H 0.7739 0.3788 0.2472
C73A C 0.8821(5) 0.4064(7) 0.2628(10)
H99A H 0.8517 0.4033 0.2044
C74A C 0.9260(6) 0.3946(8) 0.1987(12)
H100A H 0.9537 0.3939 0.2580
H101A H 0.9047 0.3552 0.1606
C75A C 0.9606(7) 0.4401(9) 0.1049(13)
H102A H 0.9905 0.4319 0.0699
H103A H 0.9337 0.4376 0.0400
C76A C 0.7213(3) 0.3379(5) 0.9691(8)
H104A H 0.7590 0.3409 0.9677
C77A C 0.6708(4) 0.2829(6) 0.9702(9)
C78A C 0.6779(4) 0.2286(6) 0.9744(8)
C79A C 0.6292(5) 0.1728(7) 0.9198(13)
H105A H 0.6301 0.1769 0.8326
H106A H 0.5910 0.1655 0.9502
H107A H 0.6347 0.1395 0.9410
C80A C 0.7914(4) 0.2039(6) 0.9537(8)
H108A H 0.8248 0.2440 0.9742
C81A C 0.8086(5) 0.1573(6) 0.9722(10)
H109A H 0.8440 0.1675 0.9235
H110A H 0.7763 0.1190 0.9432
C82A C 0.8217(5) 0.1506(6) 1.1036(10)
H111A H 0.8315 0.1188 1.1107
H112A H 0.8561 0.1878 1.1319
C83A C 0.7690(6) 0.1363(8) 1.1784(10)
H113A H 0.7784 0.1346 1.2635
H114A H 0.7361 0.0969 1.1557
C84A C 0.7497(4) 0.1815(6) 1.1631(9)
H115A H 0.7142 0.1700 1.2126
H116A H 0.7814 0.2203 1.1918
C85A C 0.7362(4) 0.1867(6) 1.0366(9)
H117A H 0.7016 0.1490 1.0087
C86A C 0.5569(5) 0.0880(7) 0.3233(11)
H118A H 0.5330 0.0619 0.3908
C87A C 0.5679(6) 0.0515(8) 0.2247(12)
H119A H 0.5982 0.0789 0.1678
H120A H 0.5829 0.0274 0.2630
C88A C 0.5095(7) 0.0100(9) 0.1553(14)
H121A H 0.5188 -0.0094 0.0896
H122A H 0.4820 -0.0214 0.2104
N9B N 0.7644(4) 0.4885(3) 1.0242(8)
N10B N 0.7983(4) 0.5708(3) 0.8303(7)
N11B N 0.8659(6) 0.4799(4) 0.3654(8)
N12B N 0.6364(6) 0.4894(4) 0.3586(8)
C61B C 0.8114(6) 0.5013(4) 0.5044(10)
C62B C 0.8072(6) 0.5232(4) 0.6146(10)
H87B H 0.8382 0.5351 0.6711
C63B C 0.7578(6) 0.5278(4) 0.6432(9)
C64B C 0.7103(6) 0.5084(4) 0.5600(9)
H88B H 0.6761 0.5108 0.5772
C65B C 0.7174(6) 0.4850(4) 0.4482(10)
C66B C 0.7655(6) 0.4815(4) 0.4239(10)
H89B H 0.7681 0.4651 0.3499
C67B C 0.8658(6) 0.4959(4) 0.4716(11)
C68B C 0.8983(23) 0.4918(18) 0.579(3)
H90B H 0.8890 0.5081 0.6488
H91B H 0.8863 0.4504 0.5935
H92B H 0.9408 0.5142 0.5634
C69B C 0.7520(6) 0.5488(4) 0.7632(9)
C70B C 0.6931(10) 0.5419(8) 0.7966(14)
H93B H 0.6632 0.4999 0.7987
H94B H 0.6818 0.5620 0.7373
H95B H 0.6959 0.5593 0.8756
C71B C 0.6679(7) 0.4642(5) 0.3589(10)
C72B C 0.6622(7) 0.4184(5) 0.2735(10)
H96B H 0.6741 0.3925 0.3127
H97B H 0.6876 0.4373 0.2041
H98B H 0.6212 0.3951 0.2472
C73B C 0.5936(7) 0.4757(5) 0.2628(10)
H99B H 0.5967 0.4484 0.2044
C74B C 0.6054(8) 0.5314(6) 0.1987(12)
H100B H 0.6061 0.5598 0.2580
H101B H 0.6448 0.5495 0.1606
C75B C 0.5599(9) 0.5205(6) 0.1049(13)
H102B H 0.5681 0.5586 0.0699
H103B H 0.5624 0.4961 0.0400
C76B C 0.6621(5) 0.3834(4) 0.9691(8)
H104B H 0.6591 0.4181 0.9677
C77B C 0.7171(6) 0.3879(4) 0.9702(9)
C78B C 0.7714(6) 0.4493(4) 0.9744(8)
C79B C 0.8272(7) 0.4564(5) 0.9198(13)
H105B H 0.8231 0.4532 0.8326
H106B H 0.8345 0.4255 0.9502
H107B H 0.8605 0.4952 0.9410
C80B C 0.7961(6) 0.5875(4) 0.9537(8)
H108B H 0.7560 0.5808 0.9742
C81B C 0.8427(6) 0.6513(4) 0.9722(10)
H109B H 0.8325 0.6765 0.9235
H110B H 0.8810 0.6573 0.9432
C82B C 0.8494(6) 0.6711(4) 1.1036(10)
H111B H 0.8812 0.7127 1.1107
H112B H 0.8122 0.6683 1.1319
C83B C 0.8637(8) 0.6327(5) 1.1784(10)
H113B H 0.8654 0.6438 1.2635
H114B H 0.9031 0.6392 1.1557
C84B C 0.8185(6) 0.5682(4) 1.1631(9)
H115B H 0.8300 0.5442 1.2126
H116B H 0.7797 0.5611 1.1918
C85B C 0.8133(6) 0.5495(4) 1.0366(9)
H117B H 0.8510 0.5526 1.0087
C86B C 0.9120(7) 0.4689(5) 0.3233(11)
H118B H 0.9381 0.4711 0.3908
C87B C 0.9485(8) 0.5164(6) 0.2247(12)
H119B H 0.9211 0.5193 0.1678
H120B H 0.9726 0.5555 0.2630
C88B C 0.9900(9) 0.4995(6) 0.1553(14)
H121B H 1.0094 0.5282 0.0896
H122B H 1.0214 0.5034 0.2104
Cl3? Cl 0.0102(5) 0.0422(4) 1.042(6)
Cl4? Cl 0.2765(7) 0.2878(6) 0.2777(17)
Cl5? Cl 0.3387(7) 0.3853(7) 0.4350(15)
Cl6? Cl 0.6228(3) 0.3096(4) 0.647(4)
C89? C 0.444(2) -0.1130(19) 0.374(4)
H123? H 0.4565 -0.1194 0.2957
H124? H 0.4008 -0.1374 0.3803
H125? H 0.4554 -0.0713 0.3824
C90? C 0.4803(13) 0.3938(11) 0.564(3)
H126? H 0.4722 0.3709 0.6380
H127? H 0.5093 0.4352 0.5804
H128? H 0.4437 0.3911 0.5349
Cl7? Cl 0.0862(4) 0.0653(5) 1.0535(16)
C91? C 0.0102(5) 0.0422(4) 1.042(6)
Cl8? Cl 0.3181(7) 0.3879(6) 0.1864(14)
C92? C 0.2859(10) 0.3551(8) 0.3220(16)
H129? H 0.3130 0.3723 0.3909
H130? H 0.2483 0.3542 0.3374
Cl9? Cl 0.3747(5) 0.6153(5) 0.3028(12)
Cl10? Cl 0.3616(9) 0.7077(9) 0.367(2)
C93? C 0.3242(12) 0.6405(12) 0.294(5)
H131? H 0.3158 0.6457 0.2097
H132? H 0.2867 0.6133 0.3347
Cl11? Cl 0.6172(4) 0.3728(4) 0.6609(11)
C94? C 0.6228(3) 0.3096(4) 0.647(4)
loop_
_geom_bond_atom_site_label_1
_geom_bond_atom_site_label_2
_geom_bond_site_symmetry_1
_geom_bond_site_symmetry_2
Cl1 C1 1_555 1_555
Cl2 C1 1_555 1_555
C1 H1 1_555 1_555
H2 C1 1_555 1_555
O1 H3 1_555 1_555
C2 O1 1_555 1_555
H4 C2 1_555 1_555
H5 C2 1_555 1_555
H6 C2 1_555 1_555
O2 H7 1_555 1_555
C3 O2 1_555 1_555
H8 C3 1_555 1_555
H9 C3 1_555 1_555
H10 C3 1_555 1_555
O3 H11 1_555 1_555
C4 O3 1_555 1_555
H12 C4 1_555 1_555
H13 C4 1_555 1_555
H14 C4 1_555 1_555
N1 C19 1_555 1_555
N2 C11 1_555 1_555
N3 C13 1_555 1_555
N4 C15 1_555 1_555
C5 C6 1_555 1_555
C6 H15 1_555 1_555
C7 C6 1_555 1_555
C8 C7 1_555 1_555
H16 C8 1_555 1_555
C9 C8 1_555 1_555
C10 C5 1_555 1_555
H17 C10 1_555 1_555
C11 C5 1_555 1_555
C12 C11 1_555 1_555
H18 C12 1_555 1_555
H19 C12 1_555 1_555
H20 C12 1_555 1_555
C13 C9 1_555 1_555
C14 C13 1_555 1_555
H21 C14 1_555 1_555
H22 C14 1_555 1_555
H23 C14 1_555 1_555
C15 C16 1_555 1_555
C16 H24 1_555 1_555
H25 C16 1_555 1_555
H26 C16 1_555 1_555
C17 H27 1_555 1_555
C18 C17 1_555 1_555
C19 C18 1_555 1_555
C20 C19 1_555 1_555
H28 C20 1_555 1_555
H29 C20 1_555 1_555
H30 C20 1_555 1_555
C21 N1 1_555 1_555
H31 C21 1_555 1_555
C22 C21 1_555 1_555
H32 C22 1_555 1_555
H33 C22 1_555 1_555
C23 C22 1_555 1_555
H34 C23 1_555 1_555
H35 C23 1_555 1_555
C24 C23 1_555 1_555
H36 C24 1_555 1_555
H37 C24 1_555 1_555
C25 C24 1_555 1_555
H38 C25 1_555 1_555
H39 C25 1_555 1_555
C26 N2 1_555 1_555
H40 C26 1_555 1_555
C27 N3 1_555 1_555
H41 C27 1_555 1_555
C28 C27 1_555 1_555
H42 C28 1_555 1_555
H43 C28 1_555 1_555
C29 C28 1_555 1_555
H44 C29 1_555 1_555
H45 C29 1_555 1_555
C30 C29 1_555 1_555
H46 C30 1_555 1_555
H47 C30 1_555 1_555
C31 C30 1_555 1_555
H48 C31 1_555 1_555
H49 C31 1_555 1_555
C32 N4 1_555 1_555
H50 C32 1_555 1_555
N5 C45 1_555 1_555
N6 C47 1_555 1_555
N7 C43 1_555 1_555
N8 C35 1_555 1_555
C33 H51 1_555 1_555
C34 C33 1_555 1_555
C35 C34 1_555 1_555
C36 C35 1_555 1_555
H52 C36 1_555 1_555
H53 C36 1_555 1_555
H54 C36 1_555 1_555
C37 C38 1_555 1_555
C38 H55 1_555 1_555
C39 C38 1_555 1_555
C40 C39 1_555 1_555
H56 C40 1_555 1_555
C41 C40 1_555 1_555
C42 C37 1_555 1_555
H57 C42 1_555 1_555
C43 C37 1_555 1_555
C44 C43 1_555 1_555
H58 C44 1_555 1_555
H59 C44 1_555 1_555
H60 C44 1_555 1_555
C45 C39 1_555 1_555
C46 C45 1_555 1_555
H61 C46 1_555 1_555
H62 C46 1_555 1_555
H63 C46 1_555 1_555
C47 C41 1_555 1_555
C48 C47 1_555 1_555
H64 C48 1_555 1_555
H65 C48 1_555 1_555
H66 C48 1_555 1_555
C49 N7 1_555 1_555
H67 C49 1_555 1_555
C50 C49 1_555 1_555
H68 C50 1_555 1_555
H69 C50 1_555 1_555
C51 C50 1_555 1_555
H70 C51 1_555 1_555
H71 C51 1_555 1_555
C52 C51 1_555 1_555
H72 C52 1_555 1_555
H73 C52 1_555 1_555
C53 C52 1_555 1_555
H74 C53 1_555 1_555
H75 C53 1_555 1_555
C54 N8 1_555 1_555
H76 C54 1_555 1_555
C55 N5 1_555 1_555
H77 C55 1_555 1_555
C56 C55 1_555 1_555
H78 C56 1_555 1_555
H79 C56 1_555 1_555
C57 C56 1_555 1_555
H80 C57 1_555 1_555
H81 C57 1_555 1_555
C58 N6 1_555 1_555
H82 C58 1_555 1_555
C59 C58 1_555 1_555
H83 C59 1_555 1_555
H84 C59 1_555 1_555
C60 C59 1_555 1_555
H85 C60 1_555 1_555
H86 C60 1_555 1_555
N9 C78 1_555 1_555
N10 C69 1_555 1_555
N11 C67 1_555 1_555
N12 C71 1_555 1_555
C61 C62 1_555 1_555
C62 H87 1_555 1_555
C63 C62 1_555 1_555
C64 C63 1_555 1_555
H88 C64 1_555 1_555
C65 C64 1_555 1_555
C66 C61 1_555 1_555
H89 C66 1_555 1_555
C67 C61 1_555 1_555
C68 C67 1_555 1_555
H90 C68 1_555 1_555
H91 C68 1_555 1_555
H92 C68 1_555 1_555
C69 C63 1_555 1_555
C70 C69 1_555 1_555
H93 C70 1_555 1_555
H94 C70 1_555 1_555
H95 C70 1_555 1_555
C71 C65 1_555 1_555
C72 C71 1_555 1_555
H96 C72 1_555 1_555
H97 C72 1_555 1_555
H98 C72 1_555 1_555
C73 N12 1_555 1_555
H99 C73 1_555 1_555
C74 C73 1_555 1_555
H100 C74 1_555 1_555
H101 C74 1_555 1_555
C75 C74 1_555 1_555
H102 C75 1_555 1_555
H103 C75 1_555 1_555
C76 H104 1_555 1_555
C77 C76 1_555 1_555
C78 C77 1_555 1_555
C79 C78 1_555 1_555
H105 C79 1_555 1_555
H106 C79 1_555 1_555
H107 C79 1_555 1_555
C80 N10 1_555 1_555
H108 C80 1_555 1_555
C81 C80 1_555 1_555
H109 C81 1_555 1_555
H110 C81 1_555 1_555
C82 C81 1_555 1_555
H111 C82 1_555 1_555
H112 C82 1_555 1_555
C83 C82 1_555 1_555
H113 C83 1_555 1_555
H114 C83 1_555 1_555
C84 C83 1_555 1_555
H115 C84 1_555 1_555
H116 C84 1_555 1_555
C85 N9 1_555 1_555
H117 C85 1_555 1_555
C86 N11 1_555 1_555
H118 C86 1_555 1_555
C87 C86 1_555 1_555
H119 C87 1_555 1_555
H120 C87 1_555 1_555
C88 C87 1_555 1_555
H121 C88 1_555 1_555
H122 C88 1_555 1_555
N1A C19A 1_555 1_555
N2A C11A 1_555 1_555
N3A C13A 1_555 1_555
N4A C15A 1_555 1_555
C5A C6A 1_555 1_555
C6A H15A 1_555 1_555
C7A C6A 1_555 1_555
C8A C7A 1_555 1_555
H16A C8A 1_555 1_555
C9A C8A 1_555 1_555
C10A C5A 1_555 1_555
H17A C10A 1_555 1_555
C11A C5A 1_555 1_555
C12A C11A 1_555 1_555
H18A C12A 1_555 1_555
H19A C12A 1_555 1_555
H20A C12A 1_555 1_555
C13A C9A 1_555 1_555
C14A C13A 1_555 1_555
H21A C14A 1_555 1_555
H22A C14A 1_555 1_555
H23A C14A 1_555 1_555
C15A C7 1_555 1_555
C16A C15A 1_555 1_555
H24A C16A 1_555 1_555
H25A C16A 1_555 1_555
H26A C16A 1_555 1_555
C17A C18 1_555 1_555
H27A C17A 1_555 1_555
C18A C17A 1_555 1_555
C19A C18A 1_555 1_555
C20A C19A 1_555 1_555
H28A C20A 1_555 1_555
H29A C20A 1_555 1_555
H30A C20A 1_555 1_555
C21A N1A 1_555 1_555
H31A C21A 1_555 1_555
C22A C21A 1_555 1_555
H32A C22A 1_555 1_555
H33A C22A 1_555 1_555
C23A C22A 1_555 1_555
H34A C23A 1_555 1_555
H35A C23A 1_555 1_555
C24A C23A 1_555 1_555
H36A C24A 1_555 1_555
H37A C24A 1_555 1_555
C25A C24A 1_555 1_555
H38A C25A 1_555 1_555
H39A C25A 1_555 1_555
C26A N2A 1_555 1_555
H40A C26A 1_555 1_555
C27A N3A 1_555 1_555
H41A C27A 1_555 1_555
C28A C27A 1_555 1_555
H42A C28A 1_555 1_555
H43A C28A 1_555 1_555
C29A C28A 1_555 1_555
H44A C29A 1_555 1_555
H45A C29A 1_555 1_555
C30A C29A 1_555 1_555
H46A C30A 1_555 1_555
H47A C30A 1_555 1_555
C31A C30A 1_555 1_555
H48A C31A 1_555 1_555
H49A C31A 1_555 1_555
C32A N4A 1_555 1_555
H50A C32A 1_555 1_555
N1B C19B 1_555 1_555
N2B C11B 1_555 1_555
N3B C13B 1_555 1_555
N4B C15B 1_555 1_555
C5B C6B 1_555 1_555
C6B H15B 1_555 1_555
C7B C15 1_555 1_555
C8B C7B 1_555 1_555
H16B C8B 1_555 1_555
C9B C8B 1_555 1_555
C10B C5B 1_555 1_555
H17B C10B 1_555 1_555
C11B C5B 1_555 1_555
C12B C11B 1_555 1_555
H18B C12B 1_555 1_555
H19B C12B 1_555 1_555
H20B C12B 1_555 1_555
C13B C9B 1_555 1_555
C14B C13B 1_555 1_555
H21B C14B 1_555 1_555
H22B C14B 1_555 1_555
H23B C14B 1_555 1_555
C15B C7A 1_555 1_555
C16B C15B 1_555 1_555
H24B C16B 1_555 1_555
H25B C16B 1_555 1_555
H26B C16B 1_555 1_555
C17B C18A 1_555 1_555
H27B C17B 1_555 1_555
C18B C17 1_555 1_555
C19B C18B 1_555 1_555
C20B C19B 1_555 1_555
H28B C20B 1_555 1_555
H29B C20B 1_555 1_555
H30B C20B 1_555 1_555
C21B N1B 1_555 1_555
H31B C21B 1_555 1_555
C22B C21B 1_555 1_555
H32B C22B 1_555 1_555
H33B C22B 1_555 1_555
C23B C22B 1_555 1_555
H34B C23B 1_555 1_555
H35B C23B 1_555 1_555
C24B C23B 1_555 1_555
H36B C24B 1_555 1_555
H37B C24B 1_555 1_555
C25B C24B 1_555 1_555
H38B C25B 1_555 1_555
H39B C25B 1_555 1_555
C26B N2B 1_555 1_555
H40B C26B 1_555 1_555
C27B N3B 1_555 1_555
H41B C27B 1_555 1_555
C28B C27B 1_555 1_555
H42B C28B 1_555 1_555
H43B C28B 1_555 1_555
C29B C28B 1_555 1_555
H44B C29B 1_555 1_555
H45B C29B 1_555 1_555
C30B C29B 1_555 1_555
H46B C30B 1_555 1_555
H47B C30B 1_555 1_555
C31B C30B 1_555 1_555
H48B C31B 1_555 1_555
H49B C31B 1_555 1_555
C32B N4B 1_555 1_555
H50B C32B 1_555 1_555
N5A C45A 1_555 1_555
N6A C47A 1_555 1_555
N7A C43A 1_555 1_555
N8A C35A 1_555 1_555
C33A C34 1_555 1_555
H51A C33A 1_555 1_555
C34A C33A 1_555 1_555
C35A C34A 1_555 1_555
C36A C35A 1_555 1_555
H52A C36A 1_555 1_555
H53A C36A 1_555 1_555
H54A C36A 1_555 1_555
C37A C38A 1_555 1_555
C38A H55A 1_555 1_555
C39A C38A 1_555 1_555
C40A C39A 1_555 1_555
H56A C40A 1_555 1_555
C41A C40A 1_555 1_555
C42A C37A 1_555 1_555
H57A C42A 1_555 1_555
C43A C37A 1_555 1_555
C44A C43A 1_555 1_555
H58A C44A 1_555 1_555
H59A C44A 1_555 1_555
H60A C44A 1_555 1_555
C45A C39A 1_555 1_555
C46A C45A 1_555 1_555
H61A C46A 1_555 1_555
H62A C46A 1_555 1_555
H63A C46A 1_555 1_555
C47A C41A 1_555 1_555
C48A C47A 1_555 1_555
H64A C48A 1_555 1_555
H65A C48A 1_555 1_555
H66A C48A 1_555 1_555
C49A N7A 1_555 1_555
H67A C49A 1_555 1_555
C50A C49A 1_555 1_555
H68A C50A 1_555 1_555
H69A C50A 1_555 1_555
C51A C50A 1_555 1_555
H70A C51A 1_555 1_555
H71A C51A 1_555 1_555
C52A C51A 1_555 1_555
H72A C52A 1_555 1_555
H73A C52A 1_555 1_555
C53A C52A 1_555 1_555
H74A C53A 1_555 1_555
H75A C53A 1_555 1_555
C54A N8A 1_555 1_555
H76A C54A 1_555 1_555
C55A C58 1_555 1_555
H77A C55A 1_555 1_555
C56A C55A 1_555 1_555
H78A C56A 1_555 1_555
H79A C56A 1_555 1_555
C57A C60 1_555 1_555
H80A C57A 1_555 1_555
H81A C57A 1_555 1_555
C58A N6A 1_555 1_555
H82A C58A 1_555 1_555
C59A C58A 1_555 1_555
H83A C59A 1_555 1_555
H84A C59A 1_555 1_555
C60A C59A 1_555 1_555
H85A C60A 1_555 1_555
H86A C60A 1_555 1_555
N5B C45B 1_555 1_555
N6B C47B 1_555 1_555
N7B C43B 1_555 1_555
N8B C35B 1_555 1_555
C33B C34A 1_555 1_555
H51B C33B 1_555 1_555
C34B C33 1_555 1_555
C35B C34B 1_555 1_555
C36B C35B 1_555 1_555
H52B C36B 1_555 1_555
H53B C36B 1_555 1_555
H54B C36B 1_555 1_555
C37B C38B 1_555 1_555
C38B H55B 1_555 1_555
C39B C38B 1_555 1_555
C40B C39B 1_555 1_555
H56B C40B 1_555 1_555
C41B C40B 1_555 1_555
C42B C37B 1_555 1_555
H57B C42B 1_555 1_555
C43B C37B 1_555 1_555
C44B C43B 1_555 1_555
H58B C44B 1_555 1_555
H59B C44B 1_555 1_555
H60B C44B 1_555 1_555
C45B C39B 1_555 1_555
C46B C45B 1_555 1_555
H61B C46B 1_555 1_555
H62B C46B 1_555 1_555
H63B C46B 1_555 1_555
C47B C41B 1_555 1_555
C48B C47B 1_555 1_555
H64B C48B 1_555 1_555
H65B C48B 1_555 1_555
H66B C48B 1_555 1_555
C49B N7B 1_555 1_555
H67B C49B 1_555 1_555
C50B C49B 1_555 1_555
H68B C50B 1_555 1_555
H69B C50B 1_555 1_555
C51B C50B 1_555 1_555
H70B C51B 1_555 1_555
H71B C51B 1_555 1_555
C52B C51B 1_555 1_555
H72B C52B 1_555 1_555
H73B C52B 1_555 1_555
C53B C52B 1_555 1_555
H74B C53B 1_555 1_555
H75B C53B 1_555 1_555
C54B N8B 1_555 1_555
H76B C54B 1_555 1_555
C55B C58A 1_555 1_555
H77B C55B 1_555 1_555
C56B C55B 1_555 1_555
H78B C56B 1_555 1_555
H79B C56B 1_555 1_555
C57B C60A 1_555 1_555
H80B C57B 1_555 1_555
H81B C57B 1_555 1_555
C58B C55 1_555 1_555
H82B C58B 1_555 1_555
C59B C58B 1_555 1_555
H83B C59B 1_555 1_555
H84B C59B 1_555 1_555
C60B C57 1_555 1_555
H85B C60B 1_555 1_555
H86B C60B 1_555 1_555
N9A C78A 1_555 1_555
N10A C69A 1_555 1_555
N11A C67A 1_555 1_555
N12A C71A 1_555 1_555
C61A C62A 1_555 1_555
C62A H87A 1_555 1_555
C63A C62A 1_555 1_555
C64A C63A 1_555 1_555
H88A C64A 1_555 1_555
C65A C64A 1_555 1_555
C66A C61A 1_555 1_555
H89A C66A 1_555 1_555
C67A C61A 1_555 1_555
C68A C67A 1_555 1_555
H90A C68A 1_555 1_555
H91A C68A 1_555 1_555
H92A C68A 1_555 1_555
C69A C63A 1_555 1_555
C70A C69A 1_555 1_555
H93A C70A 1_555 1_555
H94A C70A 1_555 1_555
H95A C70A 1_555 1_555
C71A C65A 1_555 1_555
C72A C71A 1_555 1_555
H96A C72A 1_555 1_555
H97A C72A 1_555 1_555
H98A C72A 1_555 1_555
C73A N12A 1_555 1_555
H99A C73A 1_555 1_555
C74A C73A 1_555 1_555
H100A C74A 1_555 1_555
H101A C74A 1_555 1_555
C75A C74A 1_555 1_555
H102A C75A 1_555 1_555
H103A C75A 1_555 1_555
C76A H104A 1_555 1_555
C77A C76 1_555 1_555
C78A C77A 1_555 1_555
C79A C78A 1_555 1_555
H105A C79A 1_555 1_555
H106A C79A 1_555 1_555
H107A C79A 1_555 1_555
C80A N10A 1_555 1_555
H108A C80A 1_555 1_555
C81A C80A 1_555 1_555
H109A C81A 1_555 1_555
H110A C81A 1_555 1_555
C82A C81A 1_555 1_555
H111A C82A 1_555 1_555
H112A C82A 1_555 1_555
C83A C82A 1_555 1_555
H113A C83A 1_555 1_555
H114A C83A 1_555 1_555
C84A C83A 1_555 1_555
H115A C84A 1_555 1_555
H116A C84A 1_555 1_555
C85A N9A 1_555 1_555
H117A C85A 1_555 1_555
C86A C73 1_555 1_555
H118A C86A 1_555 1_555
C87A C86A 1_555 1_555
H119A C87A 1_555 1_555
H120A C87A 1_555 1_555
C88A C75 1_555 1_555
H121A C88A 1_555 1_555
H122A C88A 1_555 1_555
N9B C78B 1_555 1_555
N10B C69B 1_555 1_555
N11B C67B 1_555 1_555
N12B C71B 1_555 1_555
C61B C62B 1_555 1_555
C62B H87B 1_555 1_555
C63B C62B 1_555 1_555
C64B C63B 1_555 1_555
H88B C64B 1_555 1_555
C65B C64B 1_555 1_555
C66B C61B 1_555 1_555
H89B C66B 1_555 1_555
C67B C61B 1_555 1_555
C68B C67B 1_555 1_555
H90B C68B 1_555 1_555
H91B C68B 1_555 1_555
H92B C68B 1_555 1_555
C69B C63B 1_555 1_555
C70B C69B 1_555 1_555
H93B C70B 1_555 1_555
H94B C70B 1_555 1_555
H95B C70B 1_555 1_555
C71B C65B 1_555 1_555
C72B C71B 1_555 1_555
H96B C72B 1_555 1_555
H97B C72B 1_555 1_555
H98B C72B 1_555 1_555
C73B C86 1_555 1_555
H99B C73B 1_555 1_555
C74B C73B 1_555 1_555
H100B C74B 1_555 1_555
H101B C74B 1_555 1_555
C75B C88 1_555 1_555
H102B C75B 1_555 1_555
H103B C75B 1_555 1_555
C76B C77 1_555 1_555
H104B C76B 1_555 1_555
C77B C76A 1_555 1_555
C78B C77B 1_555 1_555
C79B C78B 1_555 1_555
H105B C79B 1_555 1_555
H106B C79B 1_555 1_555
H107B C79B 1_555 1_555
C80B N10B 1_555 1_555
H108B C80B 1_555 1_555
C81B C80B 1_555 1_555
H109B C81B 1_555 1_555
H110B C81B 1_555 1_555
C82B C81B 1_555 1_555
H111B C82B 1_555 1_555
H112B C82B 1_555 1_555
C83B C82B 1_555 1_555
H113B C83B 1_555 1_555
H114B C83B 1_555 1_555
C84B C83B 1_555 1_555
H115B C84B 1_555 1_555
H116B C84B 1_555 1_555
C85B N9B 1_555 1_555
H117B C85B 1_555 1_555
C86B C73A 1_555 1_555
H118B C86B 1_555 1_555
C87B C86B 1_555 1_555
H119B C87B 1_555 1_555
H120B C87B 1_555 1_555
C88B C75A 1_555 1_555
H121B C88B 1_555 1_555
H122B C88B 1_555 1_555
C9 C10 1_555 1_555
C21 C26 1_555 1_555
C25 C26 1_555 1_555
C27 C32 1_555 1_555
C31 C32 1_555 1_555
C41 C42 1_555 1_555
C49 C54 1_555 1_555
C53 C54 1_555 1_555
C65 C66 1_555 1_555
C80 C85 1_555 1_555
C84 C85 1_555 1_555
C9A C10A 1_555 1_555
C21A C26A 1_555 1_555
C25A C26A 1_555 1_555
C27A C32A 1_555 1_555
C31A C32A 1_555 1_555
C6B C7B 1_555 1_555
C9B C10B 1_555 1_555
C17B C18B 1_555 1_555
C21B C26B 1_555 1_555
C25B C26B 1_555 1_555
C27B C32B 1_555 1_555
C31B C32B 1_555 1_555
N5A C55A 1_555 1_555
C41A C42A 1_555 1_555
C49A C54A 1_555 1_555
C53A C54A 1_555 1_555
C56A C57A 1_555 1_555
N5B C55B 1_555 1_555
N6B C58B 1_555 1_555
C33B C34B 1_555 1_555
C41B C42B 1_555 1_555
C49B C54B 1_555 1_555
C53B C54B 1_555 1_555
C56B C57B 1_555 1_555
C59B C60B 1_555 1_555
N11A C86A 1_555 1_555
C65A C66A 1_555 1_555
C76A C77A 1_555 1_555
C80A C85A 1_555 1_555
C84A C85A 1_555 1_555
C87A C88A 1_555 1_555
N11B C86B 1_555 1_555
N12B C73B 1_555 1_555
C65B C66B 1_555 1_555
C74B C75B 1_555 1_555
C76B C77B 1_555 1_555
C80B C85B 1_555 1_555
C84B C85B 1_555 1_555
C87B C88B 1_555 1_555

#END
