
#######################################################################
#
#                 Cambridge Crystallographic Data Centre
#                                CCDC 
#
#######################################################################
#
# If this CIF has been generated from an entry in the Cambridge 
# Structural Database, then it will include bibliographic, chemical, 
# crystal, experimental, refinement or atomic coordinate data resulting 
# from the CCDC's data processing and validation procedures.
#
#######################################################################

data_SENPUZ
_symmetry_cell_setting           trigonal
_symmetry_space_group_name_H-M   'P 3'
_symmetry_Int_Tables_number      143
_space_group_name_Hall           'P 3'
loop_
_symmetry_equiv_pos_site_id
_symmetry_equiv_pos_as_xyz
1 x,y,z
2 -y,x-y,z
3 -x+y,-x,z
_cell_length_a                   26.1841(11)
_cell_length_b                   26.1841(11)
_cell_length_c                   11.1858(5)
_cell_angle_alpha                90
_cell_angle_beta                 90
_cell_angle_gamma                120
_cell_volume                     6641.6
loop_
_atom_site_label
_atom_site_type_symbol
_atom_site_fract_x
_atom_site_fract_y
_atom_site_fract_z
Cl1 Cl 0.3861(5) 0.0248(5) 0.5107(13)
Cl2 Cl 0.3279(3) 0.0630(3) 0.3469(8)
C1 C 0.3819(12) 0.0837(8) 0.455(3)
H1 H 0.4205 0.1123 0.4194
H2 H 0.3737 0.1036 0.5208
O1 O 0.2862(4) 0.0465(4) 0.8180(10)
H3 H 0.3078 0.0501 0.8765
C2 C 0.2636(9) -0.0122(8) 0.764(2)
H4 H 0.2292 -0.0216 0.7141
H5 H 0.2522 -0.0418 0.8271
H6 H 0.2944 -0.0122 0.7142
O2 O 0.3368(6) 0.0434(6) 1.0097(15)
H7 H 0.3730 0.0648 1.0231
C3 C 0.3162(7) -0.0118(6) 1.0643(17)
H8 H 0.3135 -0.0404 1.0045
H9 H 0.2771 -0.0252 1.0989
H10 H 0.3436 -0.0084 1.1276
O3 O 0.3352(8) 0.3312(8) 0.996(2)
H11 H 0.3355 0.3554 1.0461
C4 C 0.3843(8) 0.3626(9) 0.910(2)
H12 H 0.3814 0.3352 0.8472
H13 H 0.4220 0.3777 0.9520
H14 H 0.3819 0.3955 0.8746
N1 N 0.2271(3) -0.2849(4) -0.0477(8)
N2 N 0.1894(4) -0.2400(4) 0.1409(9)
N3 N 0.3465(4) -0.1524(4) 0.6059(8)
N4 N 0.4666(4) -0.1279(4) 0.5967(10)
C5 C 0.2315(5) -0.2456(6) 0.3259(10)
C6 C 0.1851(6) -0.3022(6) 0.3524(11)
H15 H 0.1553 -0.3232 0.2946
C7 C 0.1824(6) -0.3275(7) 0.4602(12)
C8 C 0.2245(5) -0.2977(6) 0.5424(11)
H16 H 0.2215 -0.3158 0.6178
C9 C 0.2726(5) -0.2414(5) 0.5219(10)
C10 C 0.2746(5) -0.2147(5) 0.4107(11)
H17 H 0.3054 -0.1757 0.3943
C11 C 0.2360(5) -0.2184(5) 0.2027(11)
C12 C 0.2938(5) -0.1718(5) 0.1656(12)
H18 H 0.2960 -0.1704 0.0781
H19 H 0.3241 -0.1797 0.1974
H20 H 0.3004 -0.1339 0.1962
C13 C 0.3204(5) -0.2085(5) 0.6138(12)
C14 C 0.3290(5) -0.2447(6) 0.7007(11)
H21 H 0.3659 -0.2204 0.7442
H22 H 0.3309 -0.2766 0.6594
H23 H 0.2959 -0.2614 0.7571
C15 C 0.4784(10) -0.1335(7) 0.4917(14)
C16 C 0.4808(18) -0.0948(16) 0.381(4)
H26 H 0.5105 -0.0535 0.3948
C17 C 0.3338(4) -0.2802(4) -0.0058(9)
H27 H 0.3338 -0.2440 -0.0071
C18 C 0.2793(4) -0.3339(4) -0.0048(9)
C19 C 0.2235(4) -0.3321(4) -0.0099(9)
C20 C 0.1680(5) -0.3860(5) 0.0354(12)
H28 H 0.1543 -0.4176 -0.0241
H29 H 0.1372 -0.3758 0.0490
H30 H 0.1766 -0.3994 0.1106
C21 C 0.1768(4) -0.2763(5) -0.0615(10)
H31 H 0.1402 -0.3120 -0.0329
C22 C 0.1702(5) -0.2649(5) -0.1922(11)
H32 H 0.2089 -0.2342 -0.2234
H33 H 0.1578 -0.3014 -0.2385
C23 C 0.1256(6) -0.2450(6) -0.2100(14)
H34 H 0.1237 -0.2372 -0.2960
H35 H 0.0862 -0.2770 -0.1853
C24 C 0.1407(8) -0.1902(7) -0.1396(13)
H36 H 0.1102 -0.1788 -0.1521
H37 H 0.1792 -0.1571 -0.1659
C25 C 0.1435(8) -0.2042(8) -0.0047(12)
H38 H 0.1535 -0.1688 0.0439
H39 H 0.1043 -0.2362 0.0213
C26 C 0.1896(5) -0.2229(5) 0.0163(10)
H40 H 0.2296 -0.1893 -0.0040
C27 C 0.3898(5) -0.1157(5) 0.6958(11)
H41 H 0.3896 -0.1414 0.7620
C28 C 0.3750(6) -0.0716(7) 0.7464(13)
H42 H 0.3718 -0.0484 0.6799
H43 H 0.3360 -0.0930 0.7860
C29 C 0.4189(7) -0.0307(6) 0.8335(15)
H44 H 0.4186 -0.0532 0.9049
H45 H 0.4076 -0.0015 0.8593
C30 C 0.4816(6) 0.0021(6) 0.7810(14)
H46 H 0.4840 0.0293 0.7170
H47 H 0.5103 0.0255 0.8442
C31 C 0.4960(7) -0.0432(6) 0.7305(13)
H48 H 0.5355 -0.0224 0.6930
H49 H 0.4976 -0.0674 0.7970
C32 C 0.4515(5) -0.0837(5) 0.6387(12)
H50 H 0.4514 -0.0598 0.5693
H123? H 0.4565 -0.1194 0.2957
H125? H 0.4554 -0.0713 0.3824
H24A H 0.1089 -0.3999 0.3085
H25A H 0.0981 -0.4598 0.3695
N5 N -0.0028(3) -0.1800(3) 0.7432(7)
N6 N 0.2050(3) 0.0806(3) 0.7361(7)
N7 N 0.1522(3) -0.0765(3) 1.2050(7)
N8 N 0.0918(3) -0.0659(4) 1.4044(8)
C33 C -0.0398(4) -0.0603(4) 1.3563(9)
H51 H -0.0675 -0.1014 1.3548
C34 C 0.0189(4) -0.0413(4) 1.3574(10)
C35 C 0.0420(4) -0.0837(4) 1.3603(9)
C36 C 0.0011(5) -0.1456(5) 1.3100(12)
H52 H -0.0331 -0.1466 1.2722
H53 H -0.0121 -0.1744 1.3751
H54 H 0.0225 -0.1552 1.2505
C37 C 0.1368(4) -0.0419(4) 1.0241(9)
C38 C 0.0896(4) -0.0965(4) 0.9943(9)
H55 H 0.0763 -0.1276 1.0509
C39 C 0.0610(4) -0.1076(4) 0.8847(9)
C40 C 0.0823(4) -0.0628(4) 0.7988(9)
H56 H 0.0645 -0.0702 0.7220
C41 C 0.1291(4) -0.0080(4) 0.8257(9)
C42 C 0.1560(4) 0.0037(4) 0.9351(9)
H57 H 0.1876 0.0422 0.9524
C43 C 0.1639(4) -0.0303(4) 1.1442(9)
C44 C 0.1996(5) 0.0321(4) 1.1812(11)
H58 H 0.2115 0.0340 1.2649
H59 H 0.1762 0.0516 1.1727
H60 H 0.2348 0.0520 1.1306
C45 C 0.0105(4) -0.1676(4) 0.8553(10)
C46 C -0.0253(5) -0.2061(5) 0.9572(11)
H61 H -0.0667 -0.2173 0.9463
H62 H -0.0107 -0.1844 1.0325
H63 H -0.0218 -0.2416 0.9594
C47 C 0.1485(4) 0.0405(4) 0.7333(9)
C48 C 0.1036(4) 0.0366(4) 0.6476(10)
H64 H 0.1174 0.0753 0.6107
H65 H 0.0665 0.0243 0.6898
H66 H 0.0973 0.0077 0.5854
C49 C 0.1745(4) -0.0721(4) 1.3281(9)
H67 H 0.2001 -0.0297 1.3507
C50 C 0.2095(4) -0.1040(5) 1.3359(10)
H68 H 0.2448 -0.0839 1.2842
H69 H 0.1850 -0.1449 1.3068
C51 C 0.2285(6) -0.1048(5) 1.4648(12)
H70 H 0.2509 -0.1259 1.4683
H71 H 0.2546 -0.0638 1.4924
C52 C 0.1761(5) -0.1344(5) 1.5449(10)
H72 H 0.1894 -0.1332 1.6283
H73 H 0.1517 -0.1763 1.5213
C53 C 0.1381(5) -0.1038(4) 1.5383(9)
H74 H 0.1021 -0.1261 1.5874
H75 H 0.1609 -0.0634 1.5712
C54 C 0.1209(5) -0.1011(4) 1.4098(9)
H76 H 0.0932 -0.1419 1.3806
C55 C -0.0506(4) -0.2364(4) 0.7081(9)
H77 H -0.0669 -0.2621 0.7801
C56 C -0.0268(5) -0.2648(5) 0.6191(11)
H78 H -0.0064 -0.2371 0.5524
H79 H 0.0023 -0.2723 0.6602
C57 C -0.0760(5) -0.3221(5) 0.5695(12)
H80 H -0.0925 -0.3516 0.6347
H81 H -0.0596 -0.3373 0.5083
C58 C 0.2291(4) 0.1309(4) 0.6501(9)
H82 H 0.2004 0.1202 0.5827
C59 C 0.2871(5) 0.1385(5) 0.5995(10)
H83 H 0.3146 0.1452 0.6661
H84 H 0.2791 0.1019 0.5577
C60 C 0.3155(5) 0.1898(6) 0.5133(11)
H85 H 0.2910 0.1802 0.4402
H86 H 0.3548 0.1965 0.4898
N9 N 0.5115(3) 0.2759(3) 1.0242(8)
N10 N 0.4292(3) 0.2275(3) 0.8303(7)
N11 N 0.5201(4) 0.3860(4) 0.3654(8)
N12 N 0.5106(4) 0.1470(4) 0.3586(8)
C61 C 0.4987(4) 0.3101(4) 0.5044(10)
C62 C 0.4768(4) 0.2840(4) 0.6146(10)
H87 H 0.4649 0.3031 0.6711
C63 C 0.4722(4) 0.2300(4) 0.6432(9)
C64 C 0.4916(4) 0.2019(4) 0.5600(9)
H88 H 0.4892 0.1653 0.5772
C65 C 0.5150(4) 0.2324(5) 0.4482(10)
C66 C 0.5185(4) 0.2840(5) 0.4239(10)
H89 H 0.5349 0.3030 0.3499
C67 C 0.5041(4) 0.3699(5) 0.4716(11)
H92 H 0.4858 0.4266 0.5634
C69 C 0.4512(4) 0.2032(4) 0.7632(9)
C70 C 0.4581(8) 0.1512(6) 0.7966(14)
H93 H 0.5001 0.1633 0.7987
H94 H 0.4380 0.1198 0.7373
H95 H 0.4407 0.1366 0.8756
C71 C 0.5358(5) 0.2037(5) 0.3589(10)
C72 C 0.5816(5) 0.2438(5) 0.2735(10)
H96 H 0.6075 0.2816 0.3127
H97 H 0.5627 0.2503 0.2041
H98 H 0.6049 0.2261 0.2472
C73 C 0.5243(5) 0.1179(5) 0.2628(10)
H99 H 0.5516 0.1483 0.2044
C74 C 0.4686(6) 0.0740(6) 0.1987(12)
H100 H 0.4402 0.0463 0.2580
H101 H 0.4505 0.0953 0.1606
C75 C 0.4795(6) 0.0394(7) 0.1049(13)
H102 H 0.4414 0.0095 0.0699
H103 H 0.5039 0.0663 0.0400
C76 C 0.6166(4) 0.2787(3) 0.9691(8)
H104 H 0.5819 0.2410 0.9677
C77 C 0.6121(4) 0.3292(4) 0.9702(9)
C78 C 0.5507(4) 0.3221(4) 0.9744(8)
C79 C 0.5436(5) 0.3708(5) 0.9198(13)
H105 H 0.5468 0.3699 0.8326
H106 H 0.5745 0.4090 0.9502
H107 H 0.5048 0.3653 0.9410
C80 C 0.4125(4) 0.2086(4) 0.9537(8)
H108 H 0.4192 0.1752 0.9742
C81 C 0.3487(4) 0.1914(5) 0.9722(10)
H109 H 0.3235 0.1560 0.9235
H110 H 0.3427 0.2237 0.9432
C82 C 0.3289(4) 0.1783(5) 1.1036(10)
H111 H 0.2873 0.1685 1.1107
H112 H 0.3317 0.1439 1.1319
C83 C 0.3673(5) 0.2310(6) 1.1784(10)
H113 H 0.3562 0.2216 1.2635
H114 H 0.3608 0.2639 1.1557
C84 C 0.4318(4) 0.2503(4) 1.1631(9)
H115 H 0.4558 0.2858 1.2126
H116 H 0.4389 0.2186 1.1918
C85 C 0.4505(4) 0.2638(4) 1.0366(9)
H117 H 0.4474 0.2984 1.0087
C86 C 0.5311(5) 0.4431(5) 0.3233(11)
H118 H 0.5289 0.4670 0.3908
C87 C 0.4836(6) 0.4321(6) 0.2247(12)
H119 H 0.4807 0.4018 0.1678
H120 H 0.4445 0.4171 0.2630
C88 C 0.5005(6) 0.4905(7) 0.1553(14)
H121 H 0.4718 0.4812 0.0896
H122 H 0.4966 0.5180 0.2104
C90? C 0.4803(13) 0.3938(11) 0.564(3)
H126? H 0.4722 0.3709 0.6380
H128? H 0.4437 0.3911 0.5349
C68A C 0.5935(15) 0.1017(23) 0.579(3)
H90A H 0.6191 0.1110 0.6488
H91A H 0.5641 0.1137 0.5935
Cl4? Cl 0.2765(7) 0.2878(6) 0.2777(17)
Cl8? Cl 0.3181(7) 0.3879(6) 0.1864(14)
C92? C 0.2859(10) 0.3551(8) 0.3220(16)
H129? H 0.3130 0.3723 0.3909
H130? H 0.2483 0.3542 0.3374
Cl7? Cl 0.0862(4) 0.0653(5) 1.0535(16)
C91? C 0.0102(5) 0.0422(4) 1.042(6)
Cl9? Cl 0.3747(5) 0.6153(5) 0.3028(12)
Cl10? Cl 0.3616(9) 0.7077(9) 0.367(2)
C93? C 0.3242(12) 0.6405(12) 0.294(5)
H131? H 0.3158 0.6457 0.2097
H132? H 0.2867 0.6133 0.3347
Cl11? Cl 0.6172(4) 0.3728(4) 0.6609(11)
C94? C 0.6228(3) 0.3096(4) 0.647(4)

#END
