
#######################################################################
#
#                 Cambridge Crystallographic Data Centre
#                                CCDC 
#
#######################################################################
#
# If this CIF has been generated from an entry in the Cambridge 
# Structural Database, then it will include bibliographic, chemical, 
# crystal, experimental, refinement or atomic coordinate data resulting 
# from the CCDC's data processing and validation procedures.
#
#######################################################################

data_SENQEK
_chemical_formula_moiety         'C84 H108 N16'
_symmetry_cell_setting           monoclinic
_symmetry_space_group_name_H-M   'P 21'
_symmetry_Int_Tables_number      4
_space_group_name_Hall           'P 2yb'
loop_
_symmetry_equiv_pos_site_id
_symmetry_equiv_pos_as_xyz
1 x,y,z
2 -x,1/2+y,-z
_cell_length_a                   13.9132(17)
_cell_length_b                   21.809(3)
_cell_length_c                   14.0256(17)
_cell_angle_alpha                90
_cell_angle_beta                 105.482(3)
_cell_angle_gamma                90
_cell_volume                     4101.4
loop_
_atom_site_label
_atom_site_type_symbol
_atom_site_fract_x
_atom_site_fract_y
_atom_site_fract_z
N1 N 0.1493(8) 0.5728(4) 0.3611(6)
N2 N 0.1518(7) 0.7017(4) 0.3736(7)
N3 N 0.2099(7) 0.8784(4) 0.0446(7)
N4 N 0.1979(6) 0.8199(4) -0.1391(6)
N5 N 0.1662(7) 0.5335(4) -0.2061(6)
N6 N 0.1372(7) 0.4638(4) -0.0414(7)
N7 N 0.5100(8) 0.4128(4) 0.3087(8)
N8 N 0.6939(7) 0.4784(4) 0.3355(7)
N9 N 0.7354(7) 0.6370(5) -0.0241(7)
N10 N 0.5703(7) 0.6711(4) -0.1908(7)
N11 N 0.5669(7) 0.8214(4) 0.4161(6)
N12 N 0.7406(7) 0.7625(4) 0.3828(7)
C1 C 0.4109(9) 0.6931(5) -0.1673(8)
C2 C 0.3822(9) 0.6310(5) -0.1859(9)
H1 H 0.4306 0.6012 -0.1904
C3 C 0.2836(9) 0.6132(4) -0.1975(8)
C4 C 0.2148(8) 0.6584(5) -0.1899(8)
H2 H 0.1475 0.6465 -0.1976
C5 C 0.2399(8) 0.7191(5) -0.1719(8)
C6 C 0.3417(9) 0.7350(5) -0.1589(8)
H3 H 0.3618 0.7763 -0.1438
C7 C 0.5186(9) 0.7084(5) -0.1554(9)
C8 C 0.2553(10) 0.5465(4) -0.2113(9)
C9 C 0.1668(9) 0.7666(6) -0.1611(9)
C10 C 0.5567(8) 0.7698(5) -0.1062(9)
H4 H 0.6281 0.7665 -0.0732
H5 H 0.5204 0.7801 -0.0574
H6 H 0.5460 0.8020 -0.1567
C11 C 0.0578(9) 0.7465(6) -0.1868(13)
H7 H 0.0153 0.7821 -0.1855
H8 H 0.0488 0.7161 -0.1385
H9 H 0.0393 0.7283 -0.2531
C12 C 0.3100(9) 0.8228(5) 0.1788(8)
C13 C 0.2271(9) 0.7888(5) 0.1888(8)
H10 H 0.1652 0.7928 0.1400
C14 C 0.2338(8) 0.7495(5) 0.2683(8)
C15 C 0.3261(8) 0.7458(5) 0.3385(8)
H11 H 0.3326 0.7203 0.3947
C16 C 0.4102(9) 0.7787(5) 0.3284(9)
C17 C 0.4006(8) 0.8168(5) 0.2510(8)
H12 H 0.4565 0.8401 0.2453
C18 C 0.1485(8) 0.7144(4) 0.2858(9)
C19 C 0.5075(9) 0.7742(5) 0.4053(8)
C20 C 0.2986(9) 0.8610(5) 0.0887(8)
C21 C 0.0596(9) 0.7024(6) 0.1923(8)
H13 H 0.0163 0.7385 0.1790
H14 H 0.0213 0.6668 0.2043
H15 H 0.0857 0.6942 0.1352
C22 C 0.5303(9) 0.7146(5) 0.4610(9)
H16 H 0.5019 0.7153 0.5179
H17 H 0.6027 0.7091 0.4843
H18 H 0.5011 0.6805 0.4172
C23 C 0.3913(10) 0.8727(6) 0.0554(10)
H19 H 0.3731 0.8926 -0.0095
H20 H 0.4246 0.8336 0.0508
H21 H 0.4365 0.8994 0.1034
C24 C 0.7075(8) 0.6907(5) 0.2529(8)
C25 C 0.7030(8) 0.6444(5) 0.3192(8)
H22 H 0.7091 0.6545 0.3864
C26 C 0.6899(8) 0.5829(5) 0.2897(8)
C27 C 0.6862(8) 0.5689(5) 0.1905(9)
H23 H 0.6795 0.5275 0.1684
C28 C 0.6926(8) 0.6152(5) 0.1261(8)
C29 C 0.7036(8) 0.6760(5) 0.1555(8)
H24 H 0.7085 0.7072 0.1098
C30 C 0.7151(8) 0.7554(5) 0.2917(10)
C31 C 0.6872(8) 0.5331(5) 0.3622(8)
C32 C 0.6879(9) 0.6012(5) 0.0193(8)
C33 C 0.6213(9) 0.5481(5) -0.0269(9)
H25 H 0.6437 0.5107 0.0114
H26 H 0.6249 0.5421 -0.0951
H27 H 0.5524 0.5571 -0.0267
C34 C 0.3767(9) 0.4714(5) 0.2123(9)
C35 C 0.3566(8) 0.5015(5) 0.2934(8)
H28 H 0.4040 0.4994 0.3562
C36 C 0.2689(8) 0.5344(5) 0.2840(8)
C37 C 0.1998(8) 0.5381(5) 0.1923(8)
H29 H 0.1396 0.5602 0.1858
C38 C 0.2178(9) 0.5091(5) 0.1081(8)
C39 C 0.3071(9) 0.4762(5) 0.1248(9)
H30 H 0.3198 0.4554 0.0699
C40 C 0.4715(9) 0.4364(5) 0.2241(10)
C41 C 0.2434(9) 0.5624(5) 0.3713(8)
C42 C 0.1446(9) 0.5113(5) 0.0098(9)
C43 C 0.5105(9) 0.4349(5) 0.1352(8)
H31 H 0.4668 0.4096 0.0839
H32 H 0.5779 0.4175 0.1530
H33 H 0.5127 0.4767 0.1101
C44 C 0.0916(9) 0.5724(5) -0.0169(8)
H34 H 0.0426 0.5691 -0.0814
H35 H 0.1405 0.6042 -0.0199
H36 H 0.0575 0.5835 0.0335
C45 C 0.6834(9) 0.4265(5) 0.3977(8)
H37 H 0.6587 0.4411 0.4545
C46 C 0.7840(10) 0.3963(6) 0.4358(8)
H38 H 0.8299 0.4249 0.4808
H39 H 0.8121 0.3873 0.3795
C47 C 0.7766(10) 0.3360(4) 0.4918(9)
H40 H 0.8432 0.3166 0.5140
H41 H 0.7532 0.3451 0.5511
C48 C 0.7052(9) 0.2928(5) 0.4254(8)
H42 H 0.6994 0.2548 0.4622
H43 H 0.7313 0.2815 0.3686
C49 C 0.6004(9) 0.3225(5) 0.3865(8)
H44 H 0.5556 0.2940 0.3404
H45 H 0.5716 0.3304 0.4427
C50 C 0.6077(9) 0.3826(5) 0.3334(8)
H46 H 0.6272 0.3737 0.2712
C51 C 0.7455(9) 0.8219(5) 0.4335(8)
H47 H 0.7351 0.8561 0.3844
C52 C 0.8489(9) 0.8267(6) 0.5059(10)
H48 H 0.9005 0.8257 0.4691
H49 H 0.8602 0.7914 0.5520
C53 C 0.8571(10) 0.8869(6) 0.5646(11)
H50 H 0.8470 0.9225 0.5191
H51 H 0.9238 0.8904 0.6119
C54 C 0.7753(10) 0.8856(6) 0.6207(10)
H52 H 0.7869 0.8502 0.6665
H53 H 0.7797 0.9235 0.6606
C55 C 0.6707(9) 0.8808(6) 0.5495(9)
H54 H 0.6202 0.8797 0.5876
H55 H 0.6575 0.9171 0.5056
C56 C 0.6630(7) 0.8225(5) 0.4872(7)
H56 H 0.6701 0.7857 0.5311
C57 C 0.0717(8) 0.6658(5) 0.3982(8)
H57 H 0.0148 0.6601 0.3380
C58 C 0.0375(9) 0.7004(5) 0.4774(9)
H58 H 0.0109 0.7410 0.4514
H59 H 0.0951 0.7072 0.5355
C59 C -0.0428(9) 0.6646(5) 0.5087(9)
H60 H -0.1035 0.6625 0.4526
H61 H -0.0601 0.6863 0.5638
C60 C -0.0082(9) 0.5994(5) 0.5415(9)
H62 H 0.0449 0.6012 0.6045
H63 H -0.0648 0.5759 0.5534
C61 C 0.0314(9) 0.5665(5) 0.4635(9)
H64 H 0.0570 0.5256 0.4885
H65 H -0.0235 0.5606 0.4027
C62 C 0.1145(8) 0.6035(5) 0.4392(8)
H66 H 0.1711 0.6091 0.4998
C63 C 0.0710(9) 0.4600(5) -0.1399(9)
H67 H 0.0192 0.4929 -0.1493
C64 C 0.0199(10) 0.3960(6) -0.1547(9)
H68 H 0.0718 0.3637 -0.1393
H69 H -0.0218 0.3915 -0.1079
C65 C -0.0463(11) 0.3867(7) -0.2621(9)
H70 H -0.0770 0.3455 -0.2696
H71 H -0.1001 0.4178 -0.2782
C66 C 0.0223(10) 0.3938(5) -0.3300(10)
H72 H -0.0167 0.3880 -0.3996
H73 H 0.0747 0.3618 -0.3140
C67 C 0.0720(10) 0.4581(5) -0.3181(8)
H74 H 0.1160 0.4615 -0.3629
H75 H 0.0198 0.4900 -0.3372
C68 C 0.1322(9) 0.4687(5) -0.2132(8)
H76 H 0.1911 0.4406 -0.1966
C69 C 0.6741(8) 0.6810(5) -0.1872(8)
H77 H 0.6970 0.7214 -0.1553
C70 C 0.6842(9) 0.6803(6) -0.2912(8)
H78 H 0.6491 0.7164 -0.3269
H79 H 0.6506 0.6432 -0.3251
C71 C 0.7915(10) 0.6808(6) -0.2986(9)
H80 H 0.8248 0.7193 -0.2701
H81 H 0.7924 0.6787 -0.3689
C72 C 0.8473(9) 0.6256(5) -0.2420(9)
H82 H 0.8161 0.5870 -0.2724
H83 H 0.9176 0.6259 -0.2448
C73 C 0.8428(9) 0.6292(6) -0.1349(9)
H84 H 0.8791 0.5939 -0.0977
H85 H 0.8763 0.6672 -0.1045
C74 C 0.7359(9) 0.6289(5) -0.1273(9)
H86 H 0.7042 0.5888 -0.1520
C75 C 0.1289(8) 0.8705(4) -0.1260(8)
H87 H 0.0699 0.8534 -0.1071
C76 C 0.0962(9) 0.9062(6) -0.2233(10)
H88 H 0.1557 0.9222 -0.2410
H89 H 0.0606 0.8783 -0.2769
C77 C 0.0276(9) 0.9595(6) -0.2143(10)
H90 H 0.0056 0.9815 -0.2781
H91 H -0.0323 0.9438 -0.1968
C78 C 0.0855(9) 1.0027(5) -0.1338(9)
H92 H 0.1439 1.0193 -0.1529
H93 H 0.0423 1.0376 -0.1267
C79 C 0.1202(9) 0.9693(5) -0.0359(9)
H94 H 0.0616 0.9545 -0.0152
H95 H 0.1579 0.9979 0.0154
C80 C 0.1886(8) 0.9134(5) -0.0455(9)
H96 H 0.2513 0.9274 -0.0606
C81 C 0.3316(11) 0.5033(6) -0.2324(15)
H97 H 0.3609 0.5216 -0.2820
H98 H 0.2994 0.4644 -0.2575
H99 H 0.3841 0.4958 -0.1713
C82 C 0.6870(11) 0.8063(5) 0.2133(10)
H100 H 0.7405 0.8111 0.1805
H101 H 0.6777 0.8449 0.2453
H102 H 0.6249 0.7952 0.1643
C83 C 0.6687(15) 0.5514(6) 0.4566(10)
H103 H 0.6574 0.5148 0.4926
H104 H 0.6098 0.5780 0.4438
H105 H 0.7268 0.5738 0.4964
C84 C 0.3274(9) 0.5768(6) 0.4587(9)
H106 H 0.3431 0.5406 0.5014
H107 H 0.3086 0.6108 0.4956
H108 H 0.3860 0.5884 0.4366
N13 N 0.421(3) 0.644(2) 0.159(3)
N14 N 0.383(3) 0.6586(19) 0.085(3)
N15 N 0.555(4) 0.472(3) 0.693(4)
N16 N 0.616(4) 0.470(3) 0.658(4)
loop_
_geom_bond_atom_site_label_1
_geom_bond_atom_site_label_2
_geom_bond_site_symmetry_1
_geom_bond_site_symmetry_2
N1 C41 1_555 1_555
N2 C18 1_555 1_555
N3 C20 1_555 1_555
N4 C9 1_555 1_555
N5 C8 1_555 1_555
N6 C42 1_555 1_555
N7 C40 1_555 1_555
N8 C31 1_555 1_555
N9 C32 1_555 1_555
N10 C7 1_555 1_555
N11 C19 1_555 1_555
N12 C30 1_555 1_555
C1 C2 1_555 1_555
C2 H1 1_555 1_555
C3 C2 1_555 1_555
C4 C3 1_555 1_555
H2 C4 1_555 1_555
C5 C4 1_555 1_555
C6 C1 1_555 1_555
H3 C6 1_555 1_555
C7 C1 1_555 1_555
C8 C3 1_555 1_555
C9 C5 1_555 1_555
C10 C7 1_555 1_555
H4 C10 1_555 1_555
H5 C10 1_555 1_555
H6 C10 1_555 1_555
C11 C9 1_555 1_555
H7 C11 1_555 1_555
H8 C11 1_555 1_555
H9 C11 1_555 1_555
C12 C13 1_555 1_555
C13 H10 1_555 1_555
C14 C13 1_555 1_555
C15 C14 1_555 1_555
H11 C15 1_555 1_555
C16 C15 1_555 1_555
C17 C12 1_555 1_555
H12 C17 1_555 1_555
C18 C14 1_555 1_555
C19 C16 1_555 1_555
C20 C12 1_555 1_555
C21 C18 1_555 1_555
H13 C21 1_555 1_555
H14 C21 1_555 1_555
H15 C21 1_555 1_555
C22 C19 1_555 1_555
H16 C22 1_555 1_555
H17 C22 1_555 1_555
H18 C22 1_555 1_555
C23 C20 1_555 1_555
H19 C23 1_555 1_555
H20 C23 1_555 1_555
H21 C23 1_555 1_555
C24 C25 1_555 1_555
C25 H22 1_555 1_555
C26 C25 1_555 1_555
C27 C26 1_555 1_555
H23 C27 1_555 1_555
C28 C27 1_555 1_555
C29 C24 1_555 1_555
H24 C29 1_555 1_555
C30 C24 1_555 1_555
C31 C26 1_555 1_555
C32 C28 1_555 1_555
C33 C32 1_555 1_555
H25 C33 1_555 1_555
H26 C33 1_555 1_555
H27 C33 1_555 1_555
C34 C35 1_555 1_555
C35 H28 1_555 1_555
C36 C35 1_555 1_555
C37 C36 1_555 1_555
H29 C37 1_555 1_555
C38 C37 1_555 1_555
C39 C34 1_555 1_555
H30 C39 1_555 1_555
C40 C34 1_555 1_555
C41 C36 1_555 1_555
C42 C38 1_555 1_555
C43 C40 1_555 1_555
H31 C43 1_555 1_555
H32 C43 1_555 1_555
H33 C43 1_555 1_555
C44 C42 1_555 1_555
H34 C44 1_555 1_555
H35 C44 1_555 1_555
H36 C44 1_555 1_555
C45 N8 1_555 1_555
H37 C45 1_555 1_555
C46 C45 1_555 1_555
H38 C46 1_555 1_555
H39 C46 1_555 1_555
C47 C46 1_555 1_555
H40 C47 1_555 1_555
H41 C47 1_555 1_555
C48 C47 1_555 1_555
H42 C48 1_555 1_555
H43 C48 1_555 1_555
C49 C48 1_555 1_555
H44 C49 1_555 1_555
H45 C49 1_555 1_555
C50 N7 1_555 1_555
H46 C50 1_555 1_555
C51 N12 1_555 1_555
H47 C51 1_555 1_555
C52 C51 1_555 1_555
H48 C52 1_555 1_555
H49 C52 1_555 1_555
C53 C52 1_555 1_555
H50 C53 1_555 1_555
H51 C53 1_555 1_555
C54 C53 1_555 1_555
H52 C54 1_555 1_555
H53 C54 1_555 1_555
C55 C54 1_555 1_555
H54 C55 1_555 1_555
H55 C55 1_555 1_555
C56 N11 1_555 1_555
H56 C56 1_555 1_555
C57 N2 1_555 1_555
H57 C57 1_555 1_555
C58 C57 1_555 1_555
H58 C58 1_555 1_555
H59 C58 1_555 1_555
C59 C58 1_555 1_555
H60 C59 1_555 1_555
H61 C59 1_555 1_555
C60 C59 1_555 1_555
H62 C60 1_555 1_555
H63 C60 1_555 1_555
C61 C60 1_555 1_555
H64 C61 1_555 1_555
H65 C61 1_555 1_555
C62 N1 1_555 1_555
H66 C62 1_555 1_555
C63 N6 1_555 1_555
H67 C63 1_555 1_555
C64 C63 1_555 1_555
H68 C64 1_555 1_555
H69 C64 1_555 1_555
C65 C64 1_555 1_555
H70 C65 1_555 1_555
H71 C65 1_555 1_555
C66 C65 1_555 1_555
H72 C66 1_555 1_555
H73 C66 1_555 1_555
C67 C66 1_555 1_555
H74 C67 1_555 1_555
H75 C67 1_555 1_555
C68 N5 1_555 1_555
H76 C68 1_555 1_555
C69 N10 1_555 1_555
H77 C69 1_555 1_555
C70 C69 1_555 1_555
H78 C70 1_555 1_555
H79 C70 1_555 1_555
C71 C70 1_555 1_555
H80 C71 1_555 1_555
H81 C71 1_555 1_555
C72 C71 1_555 1_555
H82 C72 1_555 1_555
H83 C72 1_555 1_555
C73 C72 1_555 1_555
H84 C73 1_555 1_555
H85 C73 1_555 1_555
C74 N9 1_555 1_555
H86 C74 1_555 1_555
C75 N4 1_555 1_555
H87 C75 1_555 1_555
C76 C75 1_555 1_555
H88 C76 1_555 1_555
H89 C76 1_555 1_555
C77 C76 1_555 1_555
H90 C77 1_555 1_555
H91 C77 1_555 1_555
C78 C77 1_555 1_555
H92 C78 1_555 1_555
H93 C78 1_555 1_555
C79 C78 1_555 1_555
H94 C79 1_555 1_555
H95 C79 1_555 1_555
C80 N3 1_555 1_555
H96 C80 1_555 1_555
C81 C8 1_555 1_555
H97 C81 1_555 1_555
H98 C81 1_555 1_555
H99 C81 1_555 1_555
C82 C30 1_555 1_555
H100 C82 1_555 1_555
H101 C82 1_555 1_555
H102 C82 1_555 1_555
C83 C31 1_555 1_555
H103 C83 1_555 1_555
H104 C83 1_555 1_555
H105 C83 1_555 1_555
C84 C41 1_555 1_555
H106 C84 1_555 1_555
H107 C84 1_555 1_555
H108 C84 1_555 1_555
N13 N14 1_555 1_555
N15 N16 1_555 1_555
C5 C6 1_555 1_555
C16 C17 1_555 1_555
C28 C29 1_555 1_555
C38 C39 1_555 1_555
C45 C50 1_555 1_555
C49 C50 1_555 1_555
C51 C56 1_555 1_555
C55 C56 1_555 1_555
C57 C62 1_555 1_555
C61 C62 1_555 1_555
C63 C68 1_555 1_555
C67 C68 1_555 1_555
C69 C74 1_555 1_555
C73 C74 1_555 1_555
C75 C80 1_555 1_555
C79 C80 1_555 1_555

#END
