
#######################################################################
#
#                 Cambridge Crystallographic Data Centre
#                                CCDC 
#
#######################################################################
#
# If this CIF has been generated from an entry in the Cambridge 
# Structural Database, then it will include bibliographic, chemical, 
# crystal, experimental, refinement or atomic coordinate data resulting 
# from the CCDC's data processing and validation procedures.
#
#######################################################################

data_SENQAG
_chemical_formula_moiety         'C87 H118 Cl8 N12'
_symmetry_cell_setting           orthorhombic
_symmetry_space_group_name_H-M   'C 2 2 21'
_symmetry_Int_Tables_number      20
_space_group_name_Hall           'C 2n 2'
loop_
_symmetry_equiv_pos_site_id
_symmetry_equiv_pos_as_xyz
1 x,y,z
2 -x,-y,1/2+z
3 -x,y,1/2-z
4 x,-y,-z
5 1/2+x,1/2+y,z
6 1/2-x,1/2-y,1/2+z
7 1/2-x,1/2+y,1/2-z
8 1/2+x,1/2-y,-z
_cell_length_a                   16.9803(6)
_cell_length_b                   22.6887(9)
_cell_length_c                   21.8681(8)
_cell_angle_alpha                90
_cell_angle_beta                 90
_cell_angle_gamma                90
_cell_volume                     8424.92
loop_
_atom_site_label
_atom_site_type_symbol
_atom_site_fract_x
_atom_site_fract_y
_atom_site_fract_z
Cl3 Cl 0.59654(17) 0.37837(15) 0.73145(15)
C1 C 0.5000 0.3562(3) 0.7500
H1 H 0.5262 0.3319 0.7816
H1B H 0.4738 0.3319 0.7184
Cl3B Cl 0.40346(17) 0.37837(15) 0.76855(15)
Cl5 Cl 0.8323(2) 0.17621(14) 0.62570(13)
Cl6 Cl 0.93040(13) 0.25217(9) 0.55420(8)
C2 C 0.8521(3) 0.2157(2) 0.5564(2)
H3 H 0.8530 0.1870 0.5223
H4 H 0.8076 0.2430 0.5488
N1 N 0.78979(18) 0.43356(13) 0.86334(14)
N2 N 0.58410(17) 0.63071(13) 0.73175(14)
N3 N 0.74256(18) 0.42676(13) 0.57866(13)
N4 N 0.64007(18) 0.34117(13) 0.52262(14)
N5 N 0.49252(18) 0.14126(13) 0.68562(13)
N6 N 0.27766(19) 0.33346(13) 0.57351(14)
C3 C 0.9301(3) 0.4129(2) 0.9963(2)
H7 H 0.9858 0.4250 1.0010
H8 H 0.8994 0.4307 1.0300
C4 C 0.5240(2) 0.32395(16) 0.57941(16)
C5 C 0.4436(2) 0.33505(16) 0.58462(17)
H9 H 0.4218 0.3690 0.5656
C6 C 0.3945(2) 0.29706(16) 0.61736(17)
C7 C 0.4274(2) 0.24838(16) 0.64654(16)
H10 H 0.3946 0.2230 0.6699
C8 C 0.5079(2) 0.23623(15) 0.64201(16)
C9 C 0.5552(2) 0.27430(16) 0.60842(17)
H11 H 0.6100 0.2664 0.6051
C10 C 0.5767(2) 0.36398(16) 0.54389(17)
C11 C 0.5499(2) 0.42709(17) 0.53708(19)
H12 H 0.5955 0.4522 0.5284
H13 H 0.5247 0.4401 0.5751
H14 H 0.5121 0.4299 0.5033
C12 C 0.3082(2) 0.31006(15) 0.62086(16)
C13 C 0.2674(2) 0.29452(19) 0.67926(19)
H15 H 0.2209 0.3196 0.6843
H16 H 0.3035 0.3007 0.7137
H17 H 0.2512 0.2531 0.6780
C14 C 0.5408(2) 0.18267(17) 0.67355(16)
C15 C 0.6284(2) 0.1840(2) 0.68806(19)
H18 H 0.6388 0.1600 0.7244
H19 H 0.6448 0.2248 0.6958
H20 H 0.6581 0.1682 0.6533
C16 C 0.7358(2) 0.46092(15) 0.68135(16)
C17 C 0.7582(2) 0.45446(16) 0.74210(16)
H21 H 0.7965 0.4256 0.7526
C18 C 0.7252(2) 0.48987(16) 0.78825(17)
C19 C 0.6715(2) 0.53320(16) 0.77159(16)
H22 H 0.6505 0.5585 0.8021
C20 C 0.6477(2) 0.54042(15) 0.71043(16)
C21 C 0.6796(2) 0.50359(16) 0.66610(16)
H23 H 0.6629 0.5074 0.6248
C22 C 0.7689(2) 0.42071(16) 0.63295(16)
C23 C 0.8296(3) 0.3764(2) 0.6531(2)
H24 H 0.8044 0.3460 0.6782
H25 H 0.8704 0.3963 0.6771
H26 H 0.8536 0.3580 0.6170
C24 C 0.7450(2) 0.47721(18) 0.85354(17)
C25 C 0.7225(12) 0.5250(7) 0.8988(5)
H27 H 0.6656 0.5236 0.9064
H28 H 0.7366 0.5637 0.8821
H29 H 0.7507 0.5187 0.9374
C26 C 0.5879(2) 0.58669(16) 0.69535(16)
C27 C 0.5368(2) 0.57625(19) 0.63996(19)
H30 H 0.4897 0.6011 0.6425
H31 H 0.5212 0.5347 0.6385
H32 H 0.5664 0.5862 0.6029
C28 C 0.1939(2) 0.34845(17) 0.57024(17)
H33 H 0.1649 0.3291 0.6046
C29 C 0.1611(2) 0.32696(19) 0.50863(19)
H34 H 0.1935 0.3431 0.4749
H35 H 0.1641 0.2834 0.5068
C30 C 0.0758(3) 0.3464(2) 0.5004(2)
H36 H 0.0560 0.3326 0.4603
H37 H 0.0427 0.3286 0.5328
C31 C 0.5290(2) 0.67971(15) 0.72283(16)
H38 H 0.4994 0.6741 0.6837
C32 C 0.5765(2) 0.73645(16) 0.71986(19)
H39 H 0.6082 0.7364 0.6819
H40 H 0.6135 0.7375 0.7549
C33 C 0.5259(2) 0.79185(16) 0.72118(18)
H41 H 0.4922 0.7932 0.6843
H42 H 0.5602 0.8272 0.7211
C34 C 0.8136(2) 0.41559(16) 0.92476(17)
H43 H 0.7787 0.4348 0.9557
C35 C 0.8985(3) 0.4351(2) 0.9349(2)
H44 H 0.9013 0.4787 0.9339
H45 H 0.9319 0.4197 0.9014
C36 C 0.5183(2) 0.08824(15) 0.71759(16)
H46 H 0.5771 0.0880 0.7208
C37 C 0.4905(2) 0.03331(16) 0.68336(18)
H47 H 0.4324 0.0342 0.6796
H48 H 0.5131 0.0332 0.6416
C38 C 0.5153(2) -0.02273(16) 0.71689(19)
H49 H 0.5735 -0.0256 0.7171
H50 H 0.4944 -0.0576 0.6950
C39 C 0.7680(2) 0.38765(16) 0.52902(16)
H51 H 0.7873 0.3497 0.5468
C40 C 0.8343(3) 0.4165(2) 0.49300(19)
H52 H 0.8805 0.4222 0.5201
H53 H 0.8170 0.4558 0.4786
C41 C 0.8583(2) 0.37894(19) 0.43802(18)
H54 H 0.9008 0.3990 0.4151
H55 H 0.8787 0.3405 0.4524
C42 C 0.7887(2) 0.36922(18) 0.39670(17)
H56 H 0.8045 0.3442 0.3617
H57 H 0.7704 0.4075 0.3804
C43 C 0.7218(2) 0.33952(17) 0.43149(17)
H58 H 0.7389 0.2998 0.4446
H59 H 0.6760 0.3348 0.4039
C44 C 0.6968(2) 0.37519(16) 0.48787(16)
H60 H 0.6725 0.4132 0.4746
N1B N 0.21021(18) 0.43356(13) 0.63666(14)
N2B N 0.41590(17) 0.63071(13) 0.76825(14)
N3B N 0.25744(18) 0.42676(13) 0.92134(13)
N4B N 0.35993(18) 0.34117(13) 0.97738(14)
N5B N 0.50748(18) 0.14126(13) 0.81438(13)
N6B N 0.72234(19) 0.33346(13) 0.92649(14)
C3B C 0.0699(3) 0.4129(2) 0.5037(2)
H7B H 0.0142 0.4250 0.4990
H8B H 0.1006 0.4307 0.4700
C4B C 0.4760(2) 0.32395(16) 0.92059(16)
C5B C 0.5564(2) 0.33505(16) 0.91538(17)
H9B H 0.5782 0.3690 0.9344
C6B C 0.6055(2) 0.29706(16) 0.88264(17)
C7B C 0.5726(2) 0.24838(16) 0.85346(16)
H10B H 0.6054 0.2230 0.8301
C8B C 0.4921(2) 0.23623(15) 0.85799(16)
C9B C 0.4448(2) 0.27430(16) 0.89158(17)
H11B H 0.3900 0.2664 0.8949
C10B C 0.4233(2) 0.36398(16) 0.95611(17)
C11B C 0.4501(2) 0.42709(17) 0.96292(19)
H12B H 0.4045 0.4522 0.9716
H13B H 0.4753 0.4401 0.9249
H14B H 0.4879 0.4299 0.9967
C12B C 0.6918(2) 0.31006(15) 0.87914(16)
C13B C 0.7326(2) 0.29452(19) 0.82074(19)
H15B H 0.7791 0.3196 0.8157
H16B H 0.6965 0.3007 0.7863
H17B H 0.7488 0.2531 0.8220
C14B C 0.4592(2) 0.18267(17) 0.82645(16)
C15B C 0.3716(2) 0.1840(2) 0.81194(19)
H18B H 0.3612 0.1600 0.7756
H19B H 0.3552 0.2248 0.8042
H20B H 0.3419 0.1682 0.8467
C16B C 0.2642(2) 0.46092(15) 0.81865(16)
C17B C 0.2418(2) 0.45446(16) 0.75790(16)
H21B H 0.2035 0.4256 0.7474
C18B C 0.2748(2) 0.48987(16) 0.71175(17)
C19B C 0.3285(2) 0.53320(16) 0.72841(16)
H22B H 0.3495 0.5585 0.6979
C20B C 0.3523(2) 0.54042(15) 0.78957(16)
C21B C 0.3204(2) 0.50359(16) 0.83390(16)
H23B H 0.3371 0.5074 0.8752
C22B C 0.2311(2) 0.42071(16) 0.86705(16)
C23B C 0.1704(3) 0.3764(2) 0.8469(2)
H24B H 0.1956 0.3460 0.8218
H25B H 0.1296 0.3963 0.8229
H26B H 0.1464 0.3580 0.8830
C24B C 0.2550(2) 0.47721(18) 0.64646(17)
C25B C 0.2775(12) 0.5250(7) 0.6012(5)
H27B H 0.3344 0.5236 0.5936
H28B H 0.2634 0.5637 0.6179
H29B H 0.2493 0.5187 0.5626
C26B C 0.4121(2) 0.58669(16) 0.80465(16)
C27B C 0.4632(2) 0.57625(19) 0.86004(19)
H30B H 0.5103 0.6011 0.8575
H31B H 0.4788 0.5347 0.8615
H32B H 0.4336 0.5862 0.8971
C28B C 0.8061(2) 0.34845(17) 0.92976(17)
H33B H 0.8351 0.3291 0.8954
C29B C 0.8389(2) 0.32696(19) 0.99137(19)
H34B H 0.8065 0.3431 1.0251
H35B H 0.8359 0.2834 0.9932
C30B C 0.9242(3) 0.3464(2) 0.9996(2)
H36B H 0.9440 0.3326 1.0397
H37B H 0.9573 0.3286 0.9672
C31B C 0.4710(2) 0.67971(15) 0.77717(16)
H38B H 0.5006 0.6741 0.8163
C32B C 0.4235(2) 0.73645(16) 0.78014(19)
H39B H 0.3918 0.7364 0.8181
H40B H 0.3865 0.7375 0.7451
C33B C 0.4741(2) 0.79185(16) 0.77882(18)
H41B H 0.5078 0.7932 0.8157
H42B H 0.4398 0.8272 0.7789
C34B C 0.1864(2) 0.41559(16) 0.57524(17)
H43B H 0.2213 0.4348 0.5443
C35B C 0.1015(3) 0.4351(2) 0.5651(2)
H44B H 0.0987 0.4787 0.5661
H45B H 0.0681 0.4197 0.5986
C36B C 0.4817(2) 0.08824(15) 0.78241(16)
H46B H 0.4229 0.0880 0.7792
C37B C 0.5095(2) 0.03331(16) 0.81664(18)
H47B H 0.5676 0.0342 0.8204
H48B H 0.4869 0.0332 0.8584
C38B C 0.4847(2) -0.02273(16) 0.78311(19)
H49B H 0.4265 -0.0256 0.7829
H50B H 0.5056 -0.0576 0.8050
C39B C 0.2320(2) 0.38765(16) 0.97098(16)
H51B H 0.2127 0.3497 0.9532
C40B C 0.1657(3) 0.4165(2) 1.00700(19)
H52B H 0.1195 0.4222 0.9799
H53B H 0.1830 0.4558 1.0214
C41B C 0.1417(2) 0.37894(19) 1.06198(18)
H54B H 0.0992 0.3990 1.0849
H55B H 0.1213 0.3405 1.0476
C42B C 0.2113(2) 0.36922(18) 1.10330(17)
H56B H 0.1955 0.3442 1.1383
H57B H 0.2296 0.4075 1.1196
C43B C 0.2782(2) 0.33952(17) 1.06851(17)
H58B H 0.2611 0.2998 1.0554
H59B H 0.3240 0.3348 1.0961
C44B C 0.3032(2) 0.37519(16) 1.01213(16)
H60B H 0.3275 0.4132 1.0254
Cl1? Cl 0.5639(3) 0.4156(2) 0.7678(3)
Cl2? Cl 0.5528(8) 0.4127(6) 0.7237(7)
H2? H 0.5262 0.3319 0.7816
Cl4? Cl 0.8196(7) 0.2000(6) 0.6242(4)
Cl7? Cl 0.9685(3) 0.2147(3) 0.5594(2)
H5? H 0.8331 0.2551 0.5437
H6? H 0.8328 0.1863 0.5264
C45? C 0.689(2) 0.5000(18) 0.9045(7)
H61? H 0.6350 0.4866 0.8960
H62? H 0.6900 0.5432 0.9054
H63? H 0.7059 0.4846 0.9442
loop_
_geom_bond_atom_site_label_1
_geom_bond_atom_site_label_2
_geom_bond_site_symmetry_1
_geom_bond_site_symmetry_2
Cl3 C1 1_555 1_555
C1 H1 1_555 1_555
Cl5 C2 1_555 1_555
Cl6 C2 1_555 1_555
C2 H3 1_555 1_555
H4 C2 1_555 1_555
N1 C24 1_555 1_555
N2 C26 1_555 1_555
N3 C22 1_555 1_555
N4 C10 1_555 1_555
N5 C14 1_555 1_555
N6 C12 1_555 1_555
C3 H7 1_555 1_555
H8 C3 1_555 1_555
C4 C5 1_555 1_555
C5 H9 1_555 1_555
C6 C5 1_555 1_555
C7 C6 1_555 1_555
H10 C7 1_555 1_555
C8 C7 1_555 1_555
C9 C4 1_555 1_555
H11 C9 1_555 1_555
C10 C4 1_555 1_555
C11 C10 1_555 1_555
H12 C11 1_555 1_555
H13 C11 1_555 1_555
H14 C11 1_555 1_555
C12 C6 1_555 1_555
C13 C12 1_555 1_555
H15 C13 1_555 1_555
H16 C13 1_555 1_555
H17 C13 1_555 1_555
C14 C8 1_555 1_555
C15 C14 1_555 1_555
H18 C15 1_555 1_555
H19 C15 1_555 1_555
H20 C15 1_555 1_555
C16 C17 1_555 1_555
C17 H21 1_555 1_555
C18 C17 1_555 1_555
C19 C18 1_555 1_555
H22 C19 1_555 1_555
C20 C19 1_555 1_555
C21 C16 1_555 1_555
H23 C21 1_555 1_555
C22 C16 1_555 1_555
C23 C22 1_555 1_555
H24 C23 1_555 1_555
H25 C23 1_555 1_555
H26 C23 1_555 1_555
C24 C18 1_555 1_555
C25 C24 1_555 1_555
H27 C25 1_555 1_555
H28 C25 1_555 1_555
H29 C25 1_555 1_555
C26 C20 1_555 1_555
C27 C26 1_555 1_555
H30 C27 1_555 1_555
H31 C27 1_555 1_555
H32 C27 1_555 1_555
C28 N6 1_555 1_555
H33 C28 1_555 1_555
C29 C28 1_555 1_555
H34 C29 1_555 1_555
H35 C29 1_555 1_555
C30 C29 1_555 1_555
H36 C30 1_555 1_555
H37 C30 1_555 1_555
C31 N2 1_555 1_555
H38 C31 1_555 1_555
C32 C31 1_555 1_555
H39 C32 1_555 1_555
H40 C32 1_555 1_555
C33 C32 1_555 1_555
H41 C33 1_555 1_555
H42 C33 1_555 1_555
C34 N1 1_555 1_555
H43 C34 1_555 1_555
C35 C3 1_555 1_555
H44 C35 1_555 1_555
H45 C35 1_555 1_555
C36 N5 1_555 1_555
H46 C36 1_555 1_555
C37 C36 1_555 1_555
H47 C37 1_555 1_555
H48 C37 1_555 1_555
C38 C37 1_555 1_555
H49 C38 1_555 1_555
H50 C38 1_555 1_555
C39 N3 1_555 1_555
H51 C39 1_555 1_555
C40 C39 1_555 1_555
H52 C40 1_555 1_555
H53 C40 1_555 1_555
C41 C40 1_555 1_555
H54 C41 1_555 1_555
H55 C41 1_555 1_555
C42 C41 1_555 1_555
H56 C42 1_555 1_555
H57 C42 1_555 1_555
C43 C42 1_555 1_555
H58 C43 1_555 1_555
H59 C43 1_555 1_555
C44 N4 1_555 1_555
H60 C44 1_555 1_555
H1B C1 1_555 1_555
Cl3B C1 1_555 1_555
N1B C24B 1_555 1_555
N2B C26B 1_555 1_555
N3B C22B 1_555 1_555
N4B C10B 1_555 1_555
N5B C14B 1_555 1_555
N6B C12B 1_555 1_555
C3B C30 1_555 1_555
H7B C3B 1_555 1_555
H8B C3B 1_555 1_555
C4B C5B 1_555 1_555
C5B H9B 1_555 1_555
C6B C5B 1_555 1_555
C7B C6B 1_555 1_555
H10B C7B 1_555 1_555
C8B C7B 1_555 1_555
C9B C4B 1_555 1_555
H11B C9B 1_555 1_555
C10B C4B 1_555 1_555
C11B C10B 1_555 1_555
H12B C11B 1_555 1_555
H13B C11B 1_555 1_555
H14B C11B 1_555 1_555
C12B C6B 1_555 1_555
C13B C12B 1_555 1_555
H15B C13B 1_555 1_555
H16B C13B 1_555 1_555
H17B C13B 1_555 1_555
C14B C8B 1_555 1_555
C15B C14B 1_555 1_555
H18B C15B 1_555 1_555
H19B C15B 1_555 1_555
H20B C15B 1_555 1_555
C16B C17B 1_555 1_555
C17B H21B 1_555 1_555
C18B C17B 1_555 1_555
C19B C18B 1_555 1_555
H22B C19B 1_555 1_555
C20B C19B 1_555 1_555
C21B C16B 1_555 1_555
H23B C21B 1_555 1_555
C22B C16B 1_555 1_555
C23B C22B 1_555 1_555
H24B C23B 1_555 1_555
H25B C23B 1_555 1_555
H26B C23B 1_555 1_555
C24B C18B 1_555 1_555
C25B C24B 1_555 1_555
H27B C25B 1_555 1_555
H28B C25B 1_555 1_555
H29B C25B 1_555 1_555
C26B C20B 1_555 1_555
C27B C26B 1_555 1_555
H30B C27B 1_555 1_555
H31B C27B 1_555 1_555
H32B C27B 1_555 1_555
C28B C34 1_555 1_555
H33B C28B 1_555 1_555
C29B C28B 1_555 1_555
H34B C29B 1_555 1_555
H35B C29B 1_555 1_555
C30B C3 1_555 1_555
H36B C30B 1_555 1_555
H37B C30B 1_555 1_555
C31B C31 1_555 1_555
H38B C31B 1_555 1_555
C32B C31B 1_555 1_555
H39B C32B 1_555 1_555
H40B C32B 1_555 1_555
C33B C33 1_555 1_555
H41B C33B 1_555 1_555
H42B C33B 1_555 1_555
C34B C28 1_555 1_555
H43B C34B 1_555 1_555
C35B C3B 1_555 1_555
H44B C35B 1_555 1_555
H45B C35B 1_555 1_555
C36B C36 1_555 1_555
H46B C36B 1_555 1_555
C37B C36B 1_555 1_555
H47B C37B 1_555 1_555
H48B C37B 1_555 1_555
C38B C38 1_555 1_555
H49B C38B 1_555 1_555
H50B C38B 1_555 1_555
C39B N3B 1_555 1_555
H51B C39B 1_555 1_555
C40B C39B 1_555 1_555
H52B C40B 1_555 1_555
H53B C40B 1_555 1_555
C41B C40B 1_555 1_555
H54B C41B 1_555 1_555
H55B C41B 1_555 1_555
C42B C41B 1_555 1_555
H56B C42B 1_555 1_555
H57B C42B 1_555 1_555
C43B C42B 1_555 1_555
H58B C43B 1_555 1_555
H59B C43B 1_555 1_555
C44B N4B 1_555 1_555
H60B C44B 1_555 1_555
C8 C9 1_555 1_555
C20 C21 1_555 1_555
C34 C35 1_555 1_555
C39 C44 1_555 1_555
C43 C44 1_555 1_555
N1B C34B 1_555 1_555
N2B C31B 1_555 1_555
N5B C36B 1_555 1_555
N6B C28B 1_555 1_555
C8B C9B 1_555 1_555
C20B C21B 1_555 1_555
C29B C30B 1_555 1_555
C32B C33B 1_555 1_555
C34B C35B 1_555 1_555
C37B C38B 1_555 1_555
C39B C44B 1_555 1_555
C43B C44B 1_555 1_555

#END
