
#######################################################################
#
#                 Cambridge Crystallographic Data Centre
#                                CCDC 
#
#######################################################################
#
# If this CIF has been generated from an entry in the Cambridge 
# Structural Database, then it will include bibliographic, chemical, 
# crystal, experimental, refinement or atomic coordinate data resulting 
# from the CCDC's data processing and validation procedures.
#
#######################################################################

data_SENQOU
_chemical_formula_moiety         'C156 H184 N24 O2.5'
_symmetry_cell_setting           cubic
_symmetry_space_group_name_H-M   'F 2 3'
_symmetry_Int_Tables_number      196
_space_group_name_Hall           'F 2 2 3'
loop_
_symmetry_equiv_pos_site_id
_symmetry_equiv_pos_as_xyz
1 x,y,z
2 -x,-y,z
3 -x,y,-z
4 x,-y,-z
5 z,x,y
6 z,-x,-y
7 -z,-x,y
8 -z,x,-y
9 y,z,x
10 -y,z,-x
11 y,-z,-x
12 -y,-z,x
13 x,1/2+y,1/2+z
14 -x,1/2-y,1/2+z
15 -x,1/2+y,1/2-z
16 x,1/2-y,1/2-z
17 z,1/2+x,1/2+y
18 z,1/2-x,1/2-y
19 -z,1/2-x,1/2+y
20 -z,1/2+x,1/2-y
21 y,1/2+z,1/2+x
22 -y,1/2+z,1/2-x
23 y,1/2-z,1/2-x
24 -y,1/2-z,1/2+x
25 1/2+x,y,1/2+z
26 1/2-x,-y,1/2+z
27 1/2-x,y,1/2-z
28 1/2+x,-y,1/2-z
29 1/2+z,x,1/2+y
30 1/2+z,-x,1/2-y
31 1/2-z,-x,1/2+y
32 1/2-z,x,1/2-y
33 1/2+y,z,1/2+x
34 1/2-y,z,1/2-x
35 1/2+y,-z,1/2-x
36 1/2-y,-z,1/2+x
37 1/2+x,1/2+y,z
38 1/2-x,1/2-y,z
39 1/2-x,1/2+y,-z
40 1/2+x,1/2-y,-z
41 1/2+z,1/2+x,y
42 1/2+z,1/2-x,-y
43 1/2-z,1/2-x,y
44 1/2-z,1/2+x,-y
45 1/2+y,1/2+z,x
46 1/2-y,1/2+z,-x
47 1/2+y,1/2-z,-x
48 1/2-y,1/2-z,x
_cell_length_a                   24.607(5)
_cell_length_b                   24.607(5)
_cell_length_c                   24.607(5)
_cell_angle_alpha                90
_cell_angle_beta                 90
_cell_angle_gamma                90
_cell_volume                     14899.6
loop_
_atom_site_label
_atom_site_type_symbol
_atom_site_fract_x
_atom_site_fract_y
_atom_site_fract_z
C1 C 0.3956(4) 0.3682(4) 0.4469(4)
H1 H 0.3894 0.3435 0.4760
C2 C 0.3609(4) 0.4125(5) 0.4387(5)
C3 C 0.3154(4) 0.4252(5) 0.4784(4)
C4 C 0.3212(5) 0.4010(5) 0.5356(5)
H2 H 0.3011 0.4235 0.5616
H3 H 0.3596 0.4000 0.5459
H4 H 0.3064 0.3640 0.5360
C5 C 0.2310(4) 0.4701(4) 0.4962(4)
H5 H 0.2347 0.4516 0.5322
C6 C 0.1792(4) 0.4496(5) 0.4668(5)
H6 H 0.1790 0.4094 0.4656
H7 H 0.1783 0.4636 0.4291
C7 C 0.1285(5) 0.4709(6) 0.4994(7)
H8 H 0.1017 0.4484 0.5158
N1 N 0.2763(3) 0.4555(3) 0.4614(3)
C1C C 0.3956(4) 0.6318(4) 0.5531(4)
H1C H 0.3894 0.6565 0.5240
C2C C 0.3609(4) 0.5875(5) 0.5613(5)
C3C C 0.3154(4) 0.5748(5) 0.5216(4)
C4C C 0.3212(5) 0.5990(5) 0.4644(5)
H2C H 0.3011 0.5765 0.4384
H3C H 0.3596 0.6000 0.4541
H4C H 0.3064 0.6360 0.4640
C5C C 0.2310(4) 0.5299(4) 0.5038(4)
H5C H 0.2347 0.5484 0.4678
C6C C 0.1792(4) 0.5504(5) 0.5332(5)
H6C H 0.1790 0.5906 0.5344
H7C H 0.1783 0.5364 0.5709
C7C C 0.1285(5) 0.5291(6) 0.5006(7)
H8C H 0.1017 0.5516 0.4842
N1C N 0.2763(3) 0.5445(3) 0.5386(3)
C1D C 0.4469(4) 0.3956(4) 0.3682(4)
H1D H 0.4760 0.3894 0.3435
C2D C 0.4387(5) 0.3609(4) 0.4125(5)
C3D C 0.4784(4) 0.3154(4) 0.4252(5)
C4D C 0.5356(5) 0.3212(5) 0.4010(5)
H2D H 0.5616 0.3011 0.4235
H3D H 0.5459 0.3596 0.4000
H4D H 0.5360 0.3064 0.3640
C5D C 0.4962(4) 0.2310(4) 0.4701(4)
H5D H 0.5322 0.2347 0.4516
C6D C 0.4668(5) 0.1792(4) 0.4496(5)
H6D H 0.4656 0.1790 0.4094
H7D H 0.4291 0.1783 0.4636
C7D C 0.4994(7) 0.1285(5) 0.4709(6)
H8D H 0.5158 0.1017 0.4484
N1D N 0.4614(3) 0.2763(3) 0.4555(3)
C1G C 0.5531(4) 0.3956(4) 0.6318(4)
H1G H 0.5240 0.3894 0.6565
C2G C 0.5613(5) 0.3609(4) 0.5875(5)
C3G C 0.5216(4) 0.3154(4) 0.5748(5)
C4G C 0.4644(5) 0.3212(5) 0.5990(5)
H2G H 0.4384 0.3011 0.5765
H3G H 0.4541 0.3596 0.6000
H4G H 0.4640 0.3064 0.6360
C5G C 0.5038(4) 0.2310(4) 0.5299(4)
H5G H 0.4678 0.2347 0.5484
C6G C 0.5332(5) 0.1792(4) 0.5504(5)
H6G H 0.5344 0.1790 0.5906
H7G H 0.5709 0.1783 0.5364
C7G C 0.5006(7) 0.1285(5) 0.5291(6)
H8G H 0.4842 0.1017 0.5516
N1G N 0.5386(3) 0.2763(3) 0.5445(3)
C1H C 0.3682(4) 0.4469(4) 0.3956(4)
H1H H 0.3435 0.4760 0.3894
C2H C 0.4125(5) 0.4387(5) 0.3609(4)
C3H C 0.4252(5) 0.4784(4) 0.3154(4)
C4H C 0.4010(5) 0.5356(5) 0.3212(5)
H2H H 0.4235 0.5616 0.3011
H3H H 0.4000 0.5459 0.3596
H4H H 0.3640 0.5360 0.3064
C5H C 0.4701(4) 0.4962(4) 0.2310(4)
H5H H 0.4516 0.5322 0.2347
C6H C 0.4496(5) 0.4668(5) 0.1792(4)
H6H H 0.4094 0.4656 0.1790
H7H H 0.4636 0.4291 0.1783
C7H C 0.4709(6) 0.4994(7) 0.1285(5)
H8H H 0.4484 0.5158 0.1017
N1H N 0.4555(3) 0.4614(3) 0.2763(3)
C1J C 0.3682(4) 0.5531(4) 0.6044(4)
H1J H 0.3435 0.5240 0.6106
C2J C 0.4125(5) 0.5613(5) 0.6391(4)
C3J C 0.4252(5) 0.5216(4) 0.6846(4)
C4J C 0.4010(5) 0.4644(5) 0.6788(5)
H2J H 0.4235 0.4384 0.6989
H3J H 0.4000 0.4541 0.6404
H4J H 0.3640 0.4640 0.6936
C5J C 0.4701(4) 0.5038(4) 0.7690(4)
H5J H 0.4516 0.4678 0.7653
C6J C 0.4496(5) 0.5332(5) 0.8208(4)
H6J H 0.4094 0.5344 0.8210
H7J H 0.4636 0.5709 0.8217
C7J C 0.4709(6) 0.5006(7) 0.8715(5)
H8J H 0.4484 0.4842 0.8983
N1J N 0.4555(3) 0.5386(3) 0.7237(3)
C1B C 0.6044(4) 0.3682(4) 0.5531(4)
H1B H 0.6106 0.3435 0.5240
C2B C 0.6391(4) 0.4125(5) 0.5613(5)
C3B C 0.6846(4) 0.4252(5) 0.5216(4)
C4B C 0.6788(5) 0.4010(5) 0.4644(5)
H2B H 0.6989 0.4235 0.4384
H3B H 0.6404 0.4000 0.4541
H4B H 0.6936 0.3640 0.4640
C5B C 0.7690(4) 0.4701(4) 0.5038(4)
H5B H 0.7653 0.4516 0.4678
C6B C 0.8208(4) 0.4496(5) 0.5332(5)
H6B H 0.8210 0.4094 0.5344
H7B H 0.8217 0.4636 0.5709
C7B C 0.8715(5) 0.4709(6) 0.5006(7)
H8B H 0.8983 0.4484 0.4842
N1B N 0.7237(3) 0.4555(3) 0.5386(3)
C1E C 0.4469(4) 0.6044(4) 0.6318(4)
H1E H 0.4760 0.6106 0.6565
C2E C 0.4387(5) 0.6391(4) 0.5875(5)
C3E C 0.4784(4) 0.6846(4) 0.5748(5)
C4E C 0.5356(5) 0.6788(5) 0.5990(5)
H2E H 0.5616 0.6989 0.5765
H3E H 0.5459 0.6404 0.6000
H4E H 0.5360 0.6936 0.6360
C5E C 0.4962(4) 0.7690(4) 0.5299(4)
H5E H 0.5322 0.7653 0.5484
C6E C 0.4668(5) 0.8208(4) 0.5504(5)
H6E H 0.4656 0.8210 0.5906
H7E H 0.4291 0.8217 0.5364
C7E C 0.4994(7) 0.8715(5) 0.5291(6)
H8E H 0.5158 0.8983 0.5516
N1E N 0.4614(3) 0.7237(3) 0.5445(3)
C1F C 0.5531(4) 0.6044(4) 0.3682(4)
H1F H 0.5240 0.6106 0.3435
C2F C 0.5613(5) 0.6391(4) 0.4125(5)
C3F C 0.5216(4) 0.6846(4) 0.4252(5)
C4F C 0.4644(5) 0.6788(5) 0.4010(5)
H2F H 0.4384 0.6989 0.4235
H3F H 0.4541 0.6404 0.4000
H4F H 0.4640 0.6936 0.3640
C5F C 0.5038(4) 0.7690(4) 0.4701(4)
H5F H 0.4678 0.7653 0.4516
C6F C 0.5332(5) 0.8208(4) 0.4496(5)
H6F H 0.5344 0.8210 0.4094
H7F H 0.5709 0.8217 0.4636
C7F C 0.5006(7) 0.8715(5) 0.4709(6)
H8F H 0.4842 0.8983 0.4484
N1F N 0.5386(3) 0.7237(3) 0.4555(3)
C1I C 0.6318(4) 0.4469(4) 0.6044(4)
H1I H 0.6565 0.4760 0.6106
C2I C 0.5875(5) 0.4387(5) 0.6391(4)
C3I C 0.5748(5) 0.4784(4) 0.6846(4)
C4I C 0.5990(5) 0.5356(5) 0.6788(5)
H2I H 0.5765 0.5616 0.6989
H3I H 0.6000 0.5459 0.6404
H4I H 0.6360 0.5360 0.6936
C5I C 0.5299(4) 0.4962(4) 0.7690(4)
H5I H 0.5484 0.5322 0.7653
C6I C 0.5504(5) 0.4668(5) 0.8208(4)
H6I H 0.5906 0.4656 0.8210
H7I H 0.5364 0.4291 0.8217
C7I C 0.5291(6) 0.4994(7) 0.8715(5)
H8I H 0.5516 0.5158 0.8983
N1I N 0.5445(3) 0.4614(3) 0.7237(3)
C1K C 0.6318(4) 0.5531(4) 0.3956(4)
H1K H 0.6565 0.5240 0.3894
C2K C 0.5875(5) 0.5613(5) 0.3609(4)
C3K C 0.5748(5) 0.5216(4) 0.3154(4)
C4K C 0.5990(5) 0.4644(5) 0.3212(5)
H2K H 0.5765 0.4384 0.3011
H3K H 0.6000 0.4541 0.3596
H4K H 0.6360 0.4640 0.3064
C5K C 0.5299(4) 0.5038(4) 0.2310(4)
H5K H 0.5484 0.4678 0.2347
C6K C 0.5504(5) 0.5332(5) 0.1792(4)
H6K H 0.5906 0.5344 0.1790
H7K H 0.5364 0.5709 0.1783
C7K C 0.5291(6) 0.5006(7) 0.1285(5)
H8K H 0.5516 0.4842 0.1017
N1K N 0.5445(3) 0.5386(3) 0.2763(3)
C1A C 0.6044(4) 0.6318(4) 0.4469(4)
H1A H 0.6106 0.6565 0.4760
C2A C 0.6391(4) 0.5875(5) 0.4387(5)
C3A C 0.6846(4) 0.5748(5) 0.4784(4)
C4A C 0.6788(5) 0.5990(5) 0.5356(5)
H2A H 0.6989 0.5765 0.5616
H3A H 0.6404 0.6000 0.5459
H4A H 0.6936 0.6360 0.5360
C5A C 0.7690(4) 0.5299(4) 0.4962(4)
H5A H 0.7653 0.5484 0.5322
C6A C 0.8208(4) 0.5504(5) 0.4668(5)
H6A H 0.8210 0.5906 0.4656
H7A H 0.8217 0.5364 0.4291
C7A C 0.8715(5) 0.5291(6) 0.4994(7)
H8A H 0.8983 0.5516 0.5158
N1A N 0.7237(3) 0.5445(3) 0.4614(3)
C8 C 0.1922(5) 0.3643(5) 0.6172(5)
H9 H 0.2219 0.3740 0.5946
C9 C 0.1618(4) 0.3190(5) 0.6041(4)
C10 C 0.1733(5) 0.2843(4) 0.5543(4)
H10 H 0.1504 0.2544 0.5459
C11 C 0.2224(5) 0.2612(5) 0.4770(5)
H11 H 0.1966 0.2299 0.4788
C12 C 0.2078(8) 0.2945(6) 0.4254(5)
H12 H 0.1688 0.3044 0.4257
H13 H 0.2295 0.3283 0.4240
C13 C 0.2204(5) 0.2593(9) 0.3772(6)
H14 H 0.2129 0.2798 0.3434
H15 H 0.1964 0.2270 0.3777
N2 N 0.2124(4) 0.2951(3) 0.5249(3)
C8IA C 0.1357(5) 0.3828(5) 0.6922(5)
H9IA H 0.1260 0.4054 0.7219
C9IA C 0.1810(5) 0.3959(4) 0.6618(4)
C10IA C 0.2157(4) 0.4457(4) 0.6733(5)
H10IA H 0.2456 0.4541 0.6504
C11IA C 0.2388(5) 0.5230(5) 0.7224(5)
H11IA H 0.2701 0.5212 0.6966
C12IA C 0.2055(6) 0.5746(5) 0.7078(8)
H12IA H 0.1956 0.5743 0.6688
H13IA H 0.1717 0.5760 0.7295
C13IA C 0.2407(9) 0.6228(6) 0.7204(5)
H14IA H 0.2202 0.6566 0.7129
H15IA H 0.2730 0.6223 0.6964
N2IA N 0.2049(3) 0.4751(3) 0.7124(4)
C8KA C 0.3078(5) 0.1357(5) 0.6172(5)
H9KA H 0.2781 0.1260 0.5946
C9KA C 0.3382(4) 0.1810(5) 0.6041(4)
C10KA C 0.3267(5) 0.2157(4) 0.5543(4)
H10KA H 0.3496 0.2456 0.5459
C11KA C 0.2776(5) 0.2388(5) 0.4770(5)
H11KA H 0.3034 0.2701 0.4788
C12KA C 0.2922(8) 0.2055(6) 0.4254(5)
H12KA H 0.3312 0.1956 0.4257
H13KA H 0.2705 0.1717 0.4240
C13KA C 0.2796(5) 0.2407(9) 0.3772(6)
H14KA H 0.2871 0.2202 0.3434
H15KA H 0.3036 0.2730 0.3777
N2KA N 0.2876(4) 0.2049(3) 0.5249(3)
C8OA C 0.1172(5) 0.3078(5) 0.6357(5)
H9OA H 0.0946 0.2781 0.6260
C9OA C 0.1041(4) 0.3382(4) 0.6810(5)
C10OA C 0.0543(4) 0.3267(5) 0.7157(4)
H10OA H 0.0459 0.3496 0.7456
C11OA C -0.0230(5) 0.2776(5) 0.7388(5)
H11OA H -0.0212 0.3034 0.7701
C12OA C -0.0746(5) 0.2922(8) 0.7055(6)
H12OA H -0.0743 0.3312 0.6956
H13OA H -0.0760 0.2705 0.6717
C13OA C -0.1228(6) 0.2796(5) 0.7407(9)
H14OA H -0.1566 0.2871 0.7202
H15OA H -0.1223 0.3036 0.7730
N2OA N 0.0249(3) 0.2876(4) 0.7049(3)
C8G C 0.3828(5) 0.1922(5) 0.6357(5)
H9G H 0.4054 0.2219 0.6260
C9G C 0.3959(4) 0.1618(4) 0.6810(5)
C10G C 0.4457(4) 0.1733(5) 0.7157(4)
H10G H 0.4541 0.1504 0.7456
C11G C 0.5230(5) 0.2224(5) 0.7388(5)
H11G H 0.5212 0.1966 0.7701
C12G C 0.5746(5) 0.2078(8) 0.7055(6)
H12G H 0.5743 0.1688 0.6956
H13G H 0.5760 0.2295 0.6717
C13G C 0.6228(6) 0.2204(5) 0.7407(9)
H14G H 0.6566 0.2129 0.7202
H15G H 0.6223 0.1964 0.7730
N2G N 0.4751(3) 0.2124(4) 0.7049(3)
C8J C 0.3643(5) 0.3828(5) 0.8078(5)
H9J H 0.3740 0.4054 0.7781
C9J C 0.3190(5) 0.3959(4) 0.8382(4)
C10J C 0.2843(4) 0.4457(4) 0.8267(5)
H10J H 0.2544 0.4541 0.8496
C11J C 0.2612(5) 0.5230(5) 0.7776(5)
H11J H 0.2299 0.5212 0.8034
C12J C 0.2945(6) 0.5746(5) 0.7922(8)
H12J H 0.3044 0.5743 0.8312
H13J H 0.3283 0.5760 0.7705
C13J C 0.2593(9) 0.6228(6) 0.7796(5)
H14J H 0.2798 0.6566 0.7871
H15J H 0.2270 0.6223 0.8036
N2J N 0.2951(3) 0.4751(3) 0.7876(4)
C8R C 0.3828(5) 0.3078(5) 0.8643(5)
H9R H 0.4054 0.2781 0.8740
C9R C 0.3959(4) 0.3382(4) 0.8190(5)
C10R C 0.4457(4) 0.3267(5) 0.7843(4)
H10R H 0.4541 0.3496 0.7544
C11R C 0.5230(5) 0.2776(5) 0.7612(5)
H11R H 0.5212 0.3034 0.7299
C12R C 0.5746(5) 0.2922(8) 0.7945(6)
H12R H 0.5743 0.3312 0.8044
H13R H 0.5760 0.2705 0.8283
C13R C 0.6228(6) 0.2796(5) 0.7593(9)
H14R H 0.6566 0.2871 0.7798
H15R H 0.6223 0.3036 0.7270
N2R N 0.4751(3) 0.2876(4) 0.7951(3)
C8T C 0.3643(5) 0.1172(5) 0.6922(5)
H9T H 0.3740 0.0946 0.7219
C9T C 0.3190(5) 0.1041(4) 0.6618(4)
C10T C 0.2843(4) 0.0543(4) 0.6733(5)
H10T H 0.2544 0.0459 0.6504
C11T C 0.2612(5) -0.0230(5) 0.7224(5)
H11T H 0.2299 -0.0212 0.6966
C12T C 0.2945(6) -0.0746(5) 0.7078(8)
H12T H 0.3044 -0.0743 0.6688
H13T H 0.3283 -0.0760 0.7295
C13T C 0.2593(9) -0.1228(6) 0.7204(5)
H14T H 0.2798 -0.1566 0.7129
H15T H 0.2270 -0.1223 0.6964
N2T N 0.2951(3) 0.0249(3) 0.7124(4)
C8BA C 0.1172(5) 0.1922(5) 0.8643(5)
H9BA H 0.0946 0.2219 0.8740
C9BA C 0.1041(4) 0.1618(4) 0.8190(5)
C10BA C 0.0543(4) 0.1733(5) 0.7843(4)
H10BA H 0.0459 0.1504 0.7544
C11BA C -0.0230(5) 0.2224(5) 0.7612(5)
H11BA H -0.0212 0.1966 0.7299
C12BA C -0.0746(5) 0.2078(8) 0.7945(6)
H12BA H -0.0743 0.1688 0.8044
H13BA H -0.0760 0.2295 0.8283
C13BA C -0.1228(6) 0.2204(5) 0.7593(9)
H14BA H -0.1566 0.2129 0.7798
H15BA H -0.1223 0.1964 0.7270
N2BA N 0.0249(3) 0.2124(4) 0.7951(3)
C8SA C 0.1357(5) 0.1172(5) 0.8078(5)
H9SA H 0.1260 0.0946 0.7781
C9SA C 0.1810(5) 0.1041(4) 0.8382(4)
C10SA C 0.2157(4) 0.0543(4) 0.8267(5)
H10SA H 0.2456 0.0459 0.8496
C11SA C 0.2388(5) -0.0230(5) 0.7776(5)
H11SA H 0.2701 -0.0212 0.8034
C12SA C 0.2055(6) -0.0746(5) 0.7922(8)
H12SA H 0.1956 -0.0743 0.8312
H13SA H 0.1717 -0.0760 0.7705
C13SA C 0.2407(9) -0.1228(6) 0.7796(5)
H14SA H 0.2202 -0.1566 0.7871
H15SA H 0.2730 -0.1223 0.8036
N2SA N 0.2049(3) 0.0249(3) 0.7876(4)
C8O C 0.1922(5) 0.1357(5) 0.8828(5)
H9O H 0.2219 0.1260 0.9054
C9O C 0.1618(4) 0.1810(5) 0.8959(4)
C10O C 0.1733(5) 0.2157(4) 0.9457(4)
H10O H 0.1504 0.2456 0.9541
C11O C 0.2224(5) 0.2388(5) 1.0230(5)
H11O H 0.1966 0.2701 1.0212
C12O C 0.2078(8) 0.2055(6) 1.0746(5)
H12O H 0.1688 0.1956 1.0743
H13O H 0.2295 0.1717 1.0760
C13O C 0.2204(5) 0.2407(9) 1.1228(6)
H14O H 0.2129 0.2202 1.1566
H15O H 0.1964 0.2730 1.1223
N2O N 0.2124(4) 0.2049(3) 0.9751(3)
C8Z C 0.3078(5) 0.3643(5) 0.8828(5)
H9Z H 0.2781 0.3740 0.9054
C9Z C 0.3382(4) 0.3190(5) 0.8959(4)
C10Z C 0.3267(5) 0.2843(4) 0.9457(4)
H10Z H 0.3496 0.2544 0.9541
C11Z C 0.2776(5) 0.2612(5) 1.0230(5)
H11Z H 0.3034 0.2299 1.0212
C12Z C 0.2922(8) 0.2945(6) 1.0746(5)
H12Z H 0.3312 0.3044 1.0743
H13Z H 0.2705 0.3283 1.0760
C13Z C 0.2796(5) 0.2593(9) 1.1228(6)
H14Z H 0.2871 0.2798 1.1566
H15Z H 0.3036 0.2270 1.1223
N2Z N 0.2876(4) 0.2951(3) 0.9751(3)
O1 O 0.313(3) 0.2500 0.7500
O2 O 0.3306(6) 0.3306(6) 0.6694(6)
O3? O 0.5000 0.4581(12) 0.5000
O4? O 0.4576(11) 0.4576(11) 0.5424(11)
loop_
_geom_bond_atom_site_label_1
_geom_bond_atom_site_label_2
_geom_bond_site_symmetry_1
_geom_bond_site_symmetry_2
C1 H1 1_555 1_555
C2 C1 1_555 1_555
C3 C2 1_555 1_555
C4 C3 1_555 1_555
H2 C4 1_555 1_555
H3 C4 1_555 1_555
H4 C4 1_555 1_555
C5 H5 1_555 1_555
C6 C5 1_555 1_555
H6 C6 1_555 1_555
H7 C6 1_555 1_555
C7 C6 1_555 1_555
H8 C7 1_555 1_555
N1 C3 1_555 1_555
C8 H9 1_555 1_555
C9 C8 1_555 1_555
C10 C9 1_555 1_555
H10 C10 1_555 1_555
C11 H11 1_555 1_555
C12 C11 1_555 1_555
H12 C12 1_555 1_555
H13 C12 1_555 1_555
C13 C12 1_555 1_555
H14 C13 1_555 1_555
H15 C13 1_555 1_555
N2 C10 1_555 1_555
C1C H1C 1_555 1_555
C2C C1C 1_555 1_555
C3C C2C 1_555 1_555
C4C C3C 1_555 1_555
H2C C4C 1_555 1_555
H3C C4C 1_555 1_555
H4C C4C 1_555 1_555
C5C C5 1_555 1_555
H5C C5C 1_555 1_555
C6C C5C 1_555 1_555
H6C C6C 1_555 1_555
H7C C6C 1_555 1_555
C7C C7 1_555 1_555
H8C C7C 1_555 1_555
N1C C3C 1_555 1_555
C1D H1D 1_555 1_555
C2D C1 1_555 1_555
C3D C2D 1_555 1_555
C4D C3D 1_555 1_555
H2D C4D 1_555 1_555
H3D C4D 1_555 1_555
H4D C4D 1_555 1_555
C5D H5D 1_555 1_555
C6D C5D 1_555 1_555
H6D C6D 1_555 1_555
H7D C6D 1_555 1_555
C7D C6D 1_555 1_555
H8D C7D 1_555 1_555
N1D C3D 1_555 1_555
C1G H1G 1_555 1_555
C2G C1G 1_555 1_555
C3G C2G 1_555 1_555
C4G C3G 1_555 1_555
H2G C4G 1_555 1_555
H3G C4G 1_555 1_555
H4G C4G 1_555 1_555
C5G C5D 1_555 1_555
H5G C5G 1_555 1_555
C6G C5G 1_555 1_555
H6G C6G 1_555 1_555
H7G C6G 1_555 1_555
C7G C7D 1_555 1_555
H8G C7G 1_555 1_555
N1G C3G 1_555 1_555
C1H C2 1_555 1_555
H1H C1H 1_555 1_555
C2H C1D 1_555 1_555
C3H C2H 1_555 1_555
C4H C3H 1_555 1_555
H2H C4H 1_555 1_555
H3H C4H 1_555 1_555
H4H C4H 1_555 1_555
C5H H5H 1_555 1_555
C6H C5H 1_555 1_555
H6H C6H 1_555 1_555
H7H C6H 1_555 1_555
C7H C6H 1_555 1_555
H8H C7H 1_555 1_555
N1H C3H 1_555 1_555
C1J C2C 1_555 1_555
H1J C1J 1_555 1_555
C2J C1J 1_555 1_555
C3J C2J 1_555 1_555
C4J C3J 1_555 1_555
H2J C4J 1_555 1_555
H3J C4J 1_555 1_555
H4J C4J 1_555 1_555
C5J H5J 1_555 1_555
C6J C5J 1_555 1_555
H6J C6J 1_555 1_555
H7J C6J 1_555 1_555
C7J C6J 1_555 1_555
H8J C7J 1_555 1_555
N1J C3J 1_555 1_555
C1B C2G 1_555 1_555
H1B C1B 1_555 1_555
C2B C1B 1_555 1_555
C3B C2B 1_555 1_555
C4B C3B 1_555 1_555
H2B C4B 1_555 1_555
H3B C4B 1_555 1_555
H4B C4B 1_555 1_555
C5B H5B 1_555 1_555
C6B C5B 1_555 1_555
H6B C6B 1_555 1_555
H7B C6B 1_555 1_555
C7B C6B 1_555 1_555
H8B C7B 1_555 1_555
N1B C3B 1_555 1_555
C1E C2J 1_555 1_555
H1E C1E 1_555 1_555
C2E C1C 1_555 1_555
C3E C2E 1_555 1_555
C4E C3E 1_555 1_555
H2E C4E 1_555 1_555
H3E C4E 1_555 1_555
H4E C4E 1_555 1_555
C5E H5E 1_555 1_555
C6E C5E 1_555 1_555
H6E C6E 1_555 1_555
H7E C6E 1_555 1_555
C7E C6E 1_555 1_555
H8E C7E 1_555 1_555
N1E C3E 1_555 1_555
C1F H1F 1_555 1_555
C2F C1F 1_555 1_555
C3F C2F 1_555 1_555
C4F C3F 1_555 1_555
H2F C4F 1_555 1_555
H3F C4F 1_555 1_555
H4F C4F 1_555 1_555
C5F C5E 1_555 1_555
H5F C5F 1_555 1_555
C6F C5F 1_555 1_555
H6F C6F 1_555 1_555
H7F C6F 1_555 1_555
C7F C7E 1_555 1_555
H8F C7F 1_555 1_555
N1F C3F 1_555 1_555
C1I C2B 1_555 1_555
H1I C1I 1_555 1_555
C2I C1G 1_555 1_555
C3I C2I 1_555 1_555
C4I C3I 1_555 1_555
H2I C4I 1_555 1_555
H3I C4I 1_555 1_555
H4I C4I 1_555 1_555
C5I C5J 1_555 1_555
H5I C5I 1_555 1_555
C6I C5I 1_555 1_555
H6I C6I 1_555 1_555
H7I C6I 1_555 1_555
C7I C7J 1_555 1_555
H8I C7I 1_555 1_555
N1I C3I 1_555 1_555
C1K H1K 1_555 1_555
C2K C1F 1_555 1_555
C3K C2K 1_555 1_555
C4K C3K 1_555 1_555
H2K C4K 1_555 1_555
H3K C4K 1_555 1_555
H4K C4K 1_555 1_555
C5K C5H 1_555 1_555
H5K C5K 1_555 1_555
C6K C5K 1_555 1_555
H6K C6K 1_555 1_555
H7K C6K 1_555 1_555
C7K C7H 1_555 1_555
H8K C7K 1_555 1_555
N1K C3K 1_555 1_555
C1A C2F 1_555 1_555
H1A C1A 1_555 1_555
C2A C1K 1_555 1_555
C3A C2A 1_555 1_555
C4A C3A 1_555 1_555
H2A C4A 1_555 1_555
H3A C4A 1_555 1_555
H4A C4A 1_555 1_555
C5A C5B 1_555 1_555
H5A C5A 1_555 1_555
C6A C5A 1_555 1_555
H6A C6A 1_555 1_555
H7A C6A 1_555 1_555
C7A C7B 1_555 1_555
H8A C7A 1_555 1_555
N1A C3A 1_555 1_555
C8IA H9IA 1_555 1_555
C9IA C8 1_555 1_555
C10IA C9IA 1_555 1_555
H10IA C10IA 1_555 1_555
C11IA H11IA 1_555 1_555
C12IA C11IA 1_555 1_555
H12IA C12IA 1_555 1_555
H13IA C12IA 1_555 1_555
C13IA C12IA 1_555 1_555
H14IA C13IA 1_555 1_555
H15IA C13IA 1_555 1_555
N2IA C10IA 1_555 1_555
C8KA H9KA 1_555 1_555
C9KA C8KA 1_555 1_555
C10KA C9KA 1_555 1_555
H10KA C10KA 1_555 1_555
C11KA C11 1_555 1_555
H11KA C11KA 1_555 1_555
C12KA C11KA 1_555 1_555
H12KA C12KA 1_555 1_555
H13KA C12KA 1_555 1_555
C13KA C13 1_555 1_555
H14KA C13KA 1_555 1_555
H15KA C13KA 1_555 1_555
N2KA C10KA 1_555 1_555
C8OA C9 1_555 1_555
H9OA C8OA 1_555 1_555
C9OA C8IA 1_555 1_555
C10OA C9OA 1_555 1_555
H10OA C10OA 1_555 1_555
C11OA H11OA 1_555 1_555
C12OA C11OA 1_555 1_555
H12OA C12OA 1_555 1_555
H13OA C12OA 1_555 1_555
C13OA C12OA 1_555 1_555
H14OA C13OA 1_555 1_555
H15OA C13OA 1_555 1_555
N2OA C10OA 1_555 1_555
C8G C9KA 1_555 1_555
H9G C8G 1_555 1_555
C9G C8G 1_555 1_555
C10G C9G 1_555 1_555
H10G C10G 1_555 1_555
C11G H11G 1_555 1_555
C12G C11G 1_555 1_555
H12G C12G 1_555 1_555
H13G C12G 1_555 1_555
C13G C12G 1_555 1_555
H14G C13G 1_555 1_555
H15G C13G 1_555 1_555
N2G C10G 1_555 1_555
C8J H9J 1_555 1_555
C9J C8J 1_555 1_555
C10J C9J 1_555 1_555
H10J C10J 1_555 1_555
C11J C11IA 1_555 1_555
H11J C11J 1_555 1_555
C12J C11J 1_555 1_555
H12J C12J 1_555 1_555
H13J C12J 1_555 1_555
C13J C13IA 1_555 1_555
H14J C13J 1_555 1_555
H15J C13J 1_555 1_555
N2J C10J 1_555 1_555
C8R H9R 1_555 1_555
C9R C8J 1_555 1_555
C10R C9R 1_555 1_555
H10R C10R 1_555 1_555
C11R C11G 1_555 1_555
H11R C11R 1_555 1_555
C12R C11R 1_555 1_555
H12R C12R 1_555 1_555
H13R C12R 1_555 1_555
C13R C13G 1_555 1_555
H14R C13R 1_555 1_555
H15R C13R 1_555 1_555
N2R C10R 1_555 1_555
C8T C9G 1_555 1_555
H9T C8T 1_555 1_555
C9T C8KA 1_555 1_555
C10T C9T 1_555 1_555
H10T C10T 1_555 1_555
C11T H11T 1_555 1_555
C12T C11T 1_555 1_555
H12T C12T 1_555 1_555
H13T C12T 1_555 1_555
C13T C12T 1_555 1_555
H14T C13T 1_555 1_555
H15T C13T 1_555 1_555
N2T C10T 1_555 1_555
C8BA H9BA 1_555 1_555
C9BA C8BA 1_555 1_555
C10BA C9BA 1_555 1_555
H10BA C10BA 1_555 1_555
C11BA C11OA 1_555 1_555
H11BA C11BA 1_555 1_555
C12BA C11BA 1_555 1_555
H12BA C12BA 1_555 1_555
H13BA C12BA 1_555 1_555
C13BA C13OA 1_555 1_555
H14BA C13BA 1_555 1_555
H15BA C13BA 1_555 1_555
N2BA C10BA 1_555 1_555
C8SA C9BA 1_555 1_555
H9SA C8SA 1_555 1_555
C9SA C8SA 1_555 1_555
C10SA C9SA 1_555 1_555
H10SA C10SA 1_555 1_555
C11SA C11T 1_555 1_555
H11SA C11SA 1_555 1_555
C12SA C11SA 1_555 1_555
H12SA C12SA 1_555 1_555
H13SA C12SA 1_555 1_555
C13SA C13T 1_555 1_555
H14SA C13SA 1_555 1_555
H15SA C13SA 1_555 1_555
N2SA C10SA 1_555 1_555
C8O C9SA 1_555 1_555
H9O C8O 1_555 1_555
C9O C8BA 1_555 1_555
C10O C9O 1_555 1_555
H10O C10O 1_555 1_555
C11O H11O 1_555 1_555
C12O C11O 1_555 1_555
H12O C12O 1_555 1_555
H13O C12O 1_555 1_555
C13O C12O 1_555 1_555
H14O C13O 1_555 1_555
H15O C13O 1_555 1_555
N2O C10O 1_555 1_555
C8Z C9J 1_555 1_555
H9Z C8Z 1_555 1_555
C9Z C8R 1_555 1_555
C10Z C9Z 1_555 1_555
H10Z C10Z 1_555 1_555
C11Z C11O 1_555 1_555
H11Z C11Z 1_555 1_555
C12Z C11Z 1_555 1_555
H12Z C12Z 1_555 1_555
H13Z C12Z 1_555 1_555
C13Z C13O 1_555 1_555
H14Z C13Z 1_555 1_555
H15Z C13Z 1_555 1_555
N2Z C10Z 1_555 1_555
C5 N1 1_555 1_555
C11 N2 1_555 1_555
C5C N1C 1_555 1_555
C6C C7C 1_555 1_555
C1D C2D 1_555 1_555
C5D N1D 1_555 1_555
C5G N1G 1_555 1_555
C6G C7G 1_555 1_555
C1H C2H 1_555 1_555
C5H N1H 1_555 1_555
C5J N1J 1_555 1_555
C5B N1B 1_555 1_555
C1E C2E 1_555 1_555
C5E N1E 1_555 1_555
C5F N1F 1_555 1_555
C6F C7F 1_555 1_555
C1I C2I 1_555 1_555
C5I N1I 1_555 1_555
C6I C7I 1_555 1_555
C1K C2K 1_555 1_555
C5K N1K 1_555 1_555
C6K C7K 1_555 1_555
C1A C2A 1_555 1_555
C5A N1A 1_555 1_555
C6A C7A 1_555 1_555
C8IA C9IA 1_555 1_555
C11IA N2IA 1_555 1_555
C11KA N2KA 1_555 1_555
C12KA C13KA 1_555 1_555
C8OA C9OA 1_555 1_555
C11OA N2OA 1_555 1_555
C11G N2G 1_555 1_555
C11J N2J 1_555 1_555
C12J C13J 1_555 1_555
C8R C9R 1_555 1_555
C11R N2R 1_555 1_555
C12R C13R 1_555 1_555
C8T C9T 1_555 1_555
C11T N2T 1_555 1_555
C11BA N2BA 1_555 1_555
C12BA C13BA 1_555 1_555
C11SA N2SA 1_555 1_555
C12SA C13SA 1_555 1_555
C8O C9O 1_555 1_555
C11O N2O 1_555 1_555
C8Z C9Z 1_555 1_555
C11Z N2Z 1_555 1_555
C12Z C13Z 1_555 1_555

#END
