
#######################################################################
#
#                 Cambridge Crystallographic Data Centre
#                                CCDC 
#
#######################################################################
#
# If this CIF has been generated from an entry in the Cambridge 
# Structural Database, then it will include bibliographic, chemical, 
# crystal, experimental, refinement or atomic coordinate data resulting 
# from the CCDC's data processing and validation procedures.
#
#######################################################################

data_SENRAH
_chemical_formula_moiety         'C92 H132 Cl12 N12 O4'
_symmetry_cell_setting           monoclinic
_symmetry_space_group_name_H-M   'P 21/n'
_symmetry_Int_Tables_number      14
_space_group_name_Hall           '-P 2yn'
loop_
_symmetry_equiv_pos_site_id
_symmetry_equiv_pos_as_xyz
1 x,y,z
2 1/2-x,1/2+y,1/2-z
3 -x,-y,-z
4 1/2+x,1/2-y,1/2+z
_cell_length_a                   11.0937(4)
_cell_length_b                   50.914(2)
_cell_length_c                   15.9349(6)
_cell_angle_alpha                90
_cell_angle_beta                 94.880(2)
_cell_angle_gamma                90
_cell_volume                     8967.8
loop_
_atom_site_label
_atom_site_type_symbol
_atom_site_fract_x
_atom_site_fract_y
_atom_site_fract_z
Cl1 Cl 0.7151(2) 0.35685(5) 0.39863(16)
Cl2 Cl 0.6086(4) 0.37381(10) 0.2344(3)
C1 C 0.7033(8) 0.38141(17) 0.3239(5)
H1 H 0.7851 0.3853 0.3066
H2 H 0.6728 0.3975 0.3498
Cl3 Cl 0.2267(3) 0.48130(6) -0.11486(19)
C2 C 0.3548(6) 0.46441(18) -0.0734(7)
H3 H 0.4059 0.4758 -0.0346
H4 H 0.3317 0.4486 -0.0424
Cl4 Cl 0.431(3) 0.4558(5) -0.1594(14)
Cl5 Cl 0.9165(3) 0.29549(7) 0.7208(2)
Cl6 Cl 1.0490(3) 0.26457(6) 0.6081(2)
C3 C 0.9811(8) 0.26606(16) 0.7023(5)
H5 H 0.9182 0.2522 0.7019
H6 H 1.0428 0.2622 0.7492
O1 O 0.836(3) 0.3454(7) 0.751(2)
O2 O 0.558(3) 0.3451(6) 0.8226(19)
Cl7 Cl 0.5344(5) 0.40852(8) 0.8186(2)
Cl8 Cl 0.4377(8) 0.44519(12) 0.6975(3)
C4 C 0.5307(12) 0.4192(2) 0.7166(5)
H7 H 0.6135 0.4241 0.7040
H8 H 0.5035 0.4046 0.6785
N1 N 0.7941(4) 0.40316(9) -0.0350(3)
N2 N 0.8821(4) 0.26928(9) 0.3454(3)
N3 N 0.3648(4) 0.29446(10) 0.1517(3)
N4 N 1.0740(4) 0.42590(9) 0.4312(3)
N5 N 1.0713(4) 0.30655(9) 0.3417(3)
N6 N 0.4533(4) 0.31873(10) 0.5271(3)
N7 N 1.0130(4) 0.38818(10) 0.0593(3)
N8 N 0.4320(5) 0.37304(10) 0.5748(3)
N9 N 0.3337(4) 0.33592(10) 0.0221(3)
N10 N 0.3456(4) 0.45339(10) 0.1376(3)
C5 C 0.9827(4) 0.37123(11) 0.1929(3)
N11 N 0.3956(5) 0.46617(10) 0.3170(4)
N12 N 0.8881(5) 0.44558(10) 0.5269(4)
C6 C 0.9965(5) 0.34909(11) 0.2433(4)
H9 H 0.9928 0.3322 0.2176
C7 C 1.0159(5) 0.35095(11) 0.3309(4)
C8 C 1.0190(5) 0.37572(11) 0.3676(4)
H10 H 1.0307 0.3772 0.4271
C9 C 0.9855(5) 0.39595(11) 0.2317(4)
H11 H 0.9736 0.4113 0.1981
C10 C 0.4254(5) 0.41249(12) 0.0972(4)
C11 C 0.6881(5) 0.28693(11) 0.3099(4)
C12 C 0.9668(5) 0.36966(11) 0.0990(4)
C13 C 0.5927(5) 0.29304(11) 0.2508(4)
H12 H 0.5993 0.2893 0.1929
C14 C 1.0342(5) 0.32626(12) 0.3815(4)
C15 C 1.0024(5) 0.38926(12) -0.0329(4)
H13 H 0.9742 0.3719 -0.0566
C16 C 0.6746(5) 0.29158(11) 0.3953(4)
H14 H 0.7376 0.2866 0.4364
C17 C 0.4798(5) 0.31008(12) 0.3594(4)
H15 H 0.4099 0.3188 0.3759
C18 C 0.8073(5) 0.27666(11) 0.2854(4)
C19 C 1.0055(5) 0.39831(11) 0.3189(4)
C20 C 0.5708(5) 0.30332(11) 0.4209(4)
C21 C 1.0056(5) 0.26146(12) 0.3319(4)
H16 H 1.0185 0.2621 0.2706
C22 C 0.3830(5) 0.31056(11) 0.2134(4)
C23 C 0.6119(5) 0.40786(12) 0.0302(4)
C24 C 0.4873(5) 0.30461(11) 0.2755(4)
C25 C 0.3970(5) 0.38650(12) 0.0778(4)
H17 H 0.3235 0.3793 0.0941
C26 C 0.7303(5) 0.41823(12) 0.0067(4)
C27 C 0.3438(5) 0.42847(12) 0.1469(4)
C28 C 0.5329(5) 0.42318(12) 0.0725(4)
H18 H 0.5521 0.4410 0.0847
C29 C 1.0897(5) 0.28095(11) 0.3816(4)
H19 H 1.0688 0.2818 0.4413
C30 C 0.3065(5) 0.33403(12) 0.2314(4)
H20 H 0.2670 0.3408 0.1784
H21 H 0.3579 0.3477 0.2588
H22 H 0.2448 0.3288 0.2686
C31 C 0.9119(5) 0.41049(11) -0.0607(4)
H23 H 0.9378 0.4276 -0.0340
C32 C 1.0142(5) 0.42478(12) 0.3598(4)
C33 C 1.1273(5) 0.39585(12) -0.0620(4)
H24 H 1.1582 0.4122 -0.0339
H25 H 1.1846 0.3815 -0.0455
C34 C 0.5559(5) 0.31035(12) 0.5105(4)
C35 C 0.4663(6) 0.42286(11) 0.4172(4)
H26 H 0.3878 0.4221 0.3885
C36 C 0.5005(6) 0.40460(12) 0.4805(4)
C37 C 0.2681(5) 0.41319(12) 0.2042(4)
H27 H 0.2435 0.4248 0.2489
H28 H 0.3156 0.3985 0.2295
H29 H 0.1960 0.4064 0.1716
C38 C 0.4136(5) 0.38342(11) 0.5016(4)
C39 C 0.2570(5) 0.29737(12) 0.0919(4)
H30 H 0.1970 0.3091 0.1166
C40 C 0.2025(5) 0.27007(12) 0.0773(4)
H31 H 0.2642 0.2582 0.0564
H32 H 0.1796 0.2629 0.1316
C41 C 0.9048(5) 0.41322(13) -0.1565(4)
H33 H 0.8763 0.3965 -0.1827
H34 H 0.8454 0.4270 -0.1745
C42 C 0.4741(5) 0.37075(12) 0.0351(4)
C43 C 0.5486(6) 0.44241(12) 0.3963(4)
C44 C 0.5816(5) 0.38177(13) 0.0128(4)
H35 H 0.6360 0.3712 -0.0153
C45 C 1.0276(6) 0.42026(13) -0.1865(4)
H36 H 1.0211 0.4214 -0.2488
H37 H 1.0539 0.4376 -0.1636
C46 C 1.1202(5) 0.39953(13) -0.1573(4)
H38 H 1.2007 0.4048 -0.1741
H39 H 1.0981 0.3826 -0.1853
C47 C 0.5086(6) 0.46124(12) 0.3276(4)
C48 C 0.3532(6) 0.35234(12) 0.6016(4)
H40 H 0.2833 0.3501 0.5583
C49 C 0.4251(6) 0.32653(12) 0.6101(4)
H41 H 0.5017 0.3294 0.6468
C50 C 0.6166(6) 0.40590(13) 0.5225(4)
H42 H 0.6391 0.3937 0.5661
C51 C 0.7002(6) 0.42492(13) 0.5012(4)
C52 C 0.8988(6) 0.34589(13) 0.0622(4)
H43 H 0.8633 0.3500 0.0053
H44 H 0.8344 0.3412 0.0979
H45 H 0.9549 0.3311 0.0596
C53 C 1.2206(6) 0.45549(13) 0.5056(4)
H46 H 1.2660 0.4575 0.4551
H47 H 1.2544 0.4402 0.5379
C54 C 0.4427(5) 0.34258(13) 0.0197(4)
C55 C 0.6623(6) 0.44298(13) 0.4386(4)
H48 H 0.7172 0.4563 0.4245
C56 C 0.3170(6) 0.37653(13) 0.4340(4)
H49 H 0.2910 0.3583 0.4415
H50 H 0.3488 0.3784 0.3788
H51 H 0.2478 0.3883 0.4373
C57 C 1.0145(6) 0.44801(13) 0.5566(4)
H52 H 1.0415 0.4322 0.5903
C58 C 1.0874(6) 0.45054(12) 0.4783(4)
H53 H 1.0545 0.4654 0.4422
C59 C 0.2913(5) 0.30889(13) 0.0080(4)
H54 H 0.3565 0.2981 -0.0145
C60 C 1.0282(5) 0.23366(12) 0.3664(5)
H55 H 1.0083 0.2329 0.4258
H56 H 0.9750 0.2211 0.3335
C61 C 1.2223(5) 0.27279(13) 0.3788(4)
H57 H 1.2453 0.2743 0.3203
H58 H 1.2745 0.2849 0.4145
C62 C 0.3500(6) 0.48513(13) 0.2551(4)
H59 H 0.4190 0.4939 0.2297
C63 C 0.9509(6) 0.44722(12) 0.3124(4)
H60 H 0.9265 0.4604 0.3525
H61 H 0.8791 0.4406 0.2790
H62 H 1.0060 0.4552 0.2749
C64 C 0.8273(6) 0.42541(14) 0.5409(4)
C65 C 0.0920(6) 0.27058(14) 0.0144(4)
H63 H 0.0274 0.2811 0.0374
H64 H 0.0613 0.2525 0.0048
C66 C 1.0061(6) 0.32689(13) 0.4723(4)
H65 H 0.9642 0.3107 0.4858
H66 H 0.9542 0.3420 0.4815
H67 H 1.0816 0.3284 0.5087
C67 C 0.2701(6) 0.47113(13) 0.1866(5)
H68 H 0.2078 0.4605 0.2131
C68 C 0.1813(6) 0.30959(14) -0.0554(4)
H69 H 0.2055 0.3164 -0.1096
H70 H 0.1207 0.3218 -0.0350
C69 C 0.6037(6) 0.47281(14) 0.2767(5)
H71 H 0.5750 0.4724 0.2168
H72 H 0.6783 0.4625 0.2858
H73 H 0.6195 0.4910 0.2942
C70 C 1.2363(6) 0.48018(14) 0.5599(5)
H74 H 1.3230 0.4827 0.5783
H75 H 1.2083 0.4957 0.5262
C71 C 1.2439(6) 0.24473(14) 0.4095(5)
H76 H 1.3288 0.2397 0.4027
H77 H 1.2312 0.2437 0.4701
C72 C 1.0319(6) 0.47277(14) 0.6106(5)
H78 H 0.9974 0.4880 0.5783
H79 H 0.9875 0.4708 0.6615
C73 C 0.3503(7) 0.30498(14) 0.6476(5)
H80 H 0.2818 0.3003 0.6065
H81 H 0.4014 0.2891 0.6575
C74 C 0.1235(7) 0.28252(15) -0.0697(4)
H82 H 0.1803 0.2708 -0.0964
H83 H 0.0491 0.2841 -0.1084
C75 C 0.1389(6) 0.51197(14) 0.1734(5)
H84 H 0.1035 0.5252 0.1329
H85 H 0.0718 0.5036 0.2007
C76 C 0.8252(6) 0.27728(16) 0.1930(4)
H86 H 0.9114 0.2752 0.1852
H87 H 0.7966 0.2941 0.1691
H88 H 0.7794 0.2629 0.1644
C77 C 0.2075(7) 0.49030(14) 0.1240(5)
H89 H 0.1490 0.4808 0.0847
H90 H 0.2681 0.4988 0.0907
C78 C 0.3059(7) 0.36009(14) 0.6852(5)
H91 H 0.2586 0.3765 0.6779
H92 H 0.3750 0.3634 0.7275
C79 C 1.1644(6) 0.47797(15) 0.6368(5)
H93 H 1.1975 0.4635 0.6733
H94 H 1.1723 0.4945 0.6697
C80 C 0.3014(8) 0.31300(14) 0.7295(5)
H95 H 0.3693 0.3160 0.7729
H96 H 0.2503 0.2987 0.7494
C81 C 0.2774(8) 0.50566(14) 0.3008(5)
H97 H 0.2129 0.4968 0.3294
H98 H 0.3316 0.5147 0.3441
C82 C 1.1601(6) 0.22590(14) 0.3612(5)
H99 H 1.1735 0.2080 0.3842
H100 H 1.1784 0.2257 0.3015
C83 C 0.2219(7) 0.52537(15) 0.2389(5)
H101 H 0.1761 0.5386 0.2690
H102 H 0.2866 0.5346 0.2115
C84 C 0.6641(7) 0.30619(17) 0.5741(5)
H103 H 0.7263 0.3193 0.5650
H104 H 0.6970 0.2885 0.5672
H105 H 0.6387 0.3080 0.6312
C85 C 0.2259(8) 0.33831(15) 0.7168(6)
H106 H 0.1558 0.3352 0.6753
H107 H 0.1949 0.3436 0.7707
C86 C 0.8710(7) 0.40029(16) 0.5877(5)
H108 H 0.9596 0.4002 0.5951
H109 H 0.8427 0.3849 0.5548
H110 H 0.8385 0.3998 0.6430
C87 C 0.7490(16) 0.4480(2) 0.0199(15)
H111 H 0.7487 0.4522 0.0799
H112 H 0.6834 0.4576 -0.0118
H113 H 0.8267 0.4532 0.0000
C88 C 0.5501(9) 0.32340(19) 0.0164(10)
H114 H 0.6100 0.3269 0.0639
H115 H 0.5875 0.3259 -0.0366
H116 H 0.5210 0.3053 0.0198
C89? C 0.7239(19) 0.3584(6) 0.2918(7)
H117? H 0.6930 0.3422 0.2630
H118? H 0.8074 0.3619 0.2772
Cl9? Cl 0.628(3) 0.3853(5) 0.270(2)
Cl10? Cl 0.4787(4) 0.48540(15) -0.0761(4)
H119? H 0.3671 0.4485 -0.1072
H120? H 0.3450 0.4590 -0.0147
Cl11? Cl 0.693(4) 0.3510(9) 0.789(3)
C90? C 0.834(5) 0.3389(14) 0.825(4)
H121? H 0.8948 0.3532 0.8267
H122? H 0.8318 0.3316 0.8819
Cl12? Cl 0.874(3) 0.3146(7) 0.756(2)
C91? C 0.530(3) 0.3271(6) -0.030(3)
H123? H 0.5100 0.3084 -0.0281
H124? H 0.6130 0.3298 -0.0043
H125? H 0.5241 0.3332 -0.0881
C92? C 0.7765(14) 0.4433(3) 0.0519(13)
H126? H 0.7638 0.4420 0.1118
H127? H 0.7323 0.4585 0.0273
H128? H 0.8630 0.4454 0.0454
O3? O 0.950(3) 0.3051(6) 0.6742(18)
O4? O 0.666(4) 0.3534(8) 0.172(3)
loop_
_geom_bond_atom_site_label_1
_geom_bond_atom_site_label_2
_geom_bond_site_symmetry_1
_geom_bond_site_symmetry_2
Cl1 C1 1_555 1_555
Cl2 C1 1_555 1_555
C1 H1 1_555 1_555
H2 C1 1_555 1_555
Cl3 C2 1_555 1_555
C2 H3 1_555 1_555
H4 C2 1_555 1_555
Cl4 C2 1_555 1_555
Cl5 C3 1_555 1_555
Cl6 C3 1_555 1_555
C3 H5 1_555 1_555
H6 C3 1_555 1_555
Cl7 C4 1_555 1_555
Cl8 C4 1_555 1_555
C4 H7 1_555 1_555
H8 C4 1_555 1_555
N1 C26 1_555 1_555
N2 C18 1_555 1_555
N3 C22 1_555 1_555
N4 C32 1_555 1_555
N5 C14 1_555 1_555
N6 C34 1_555 1_555
N7 C12 1_555 1_555
N8 C38 1_555 1_555
N9 C54 1_555 1_555
N10 C27 1_555 1_555
C5 C6 1_555 1_555
N11 C47 1_555 1_555
N12 C57 1_555 1_555
C6 H9 1_555 1_555
C7 C6 1_555 1_555
C8 C7 1_555 1_555
H10 C8 1_555 1_555
C9 C5 1_555 1_555
H11 C9 1_555 1_555
C10 C25 1_555 1_555
C11 C13 1_555 1_555
C12 C5 1_555 1_555
C13 H12 1_555 1_555
C14 C7 1_555 1_555
C15 N7 1_555 1_555
H13 C15 1_555 1_555
C16 C11 1_555 1_555
H14 C16 1_555 1_555
C17 H15 1_555 1_555
C18 C11 1_555 1_555
C19 C8 1_555 1_555
C20 C16 1_555 1_555
C21 N2 1_555 1_555
H16 C21 1_555 1_555
C22 C24 1_555 1_555
C23 C26 1_555 1_555
C24 C13 1_555 1_555
C25 H17 1_555 1_555
C26 C87 1_555 1_555
C27 C10 1_555 1_555
C28 C10 1_555 1_555
H18 C28 1_555 1_555
C29 N5 1_555 1_555
H19 C29 1_555 1_555
C30 C22 1_555 1_555
H20 C30 1_555 1_555
H21 C30 1_555 1_555
H22 C30 1_555 1_555
C31 N1 1_555 1_555
H23 C31 1_555 1_555
C32 C19 1_555 1_555
C33 C15 1_555 1_555
H24 C33 1_555 1_555
H25 C33 1_555 1_555
C34 C20 1_555 1_555
C35 H26 1_555 1_555
C36 C35 1_555 1_555
C37 C27 1_555 1_555
H27 C37 1_555 1_555
H28 C37 1_555 1_555
H29 C37 1_555 1_555
C38 C36 1_555 1_555
C39 N3 1_555 1_555
H30 C39 1_555 1_555
C40 C39 1_555 1_555
H31 C40 1_555 1_555
H32 C40 1_555 1_555
C41 C31 1_555 1_555
H33 C41 1_555 1_555
H34 C41 1_555 1_555
C42 C25 1_555 1_555
C43 C35 1_555 1_555
C44 C23 1_555 1_555
H35 C44 1_555 1_555
C45 C41 1_555 1_555
H36 C45 1_555 1_555
H37 C45 1_555 1_555
C46 C33 1_555 1_555
H38 C46 1_555 1_555
H39 C46 1_555 1_555
C47 C43 1_555 1_555
C48 N8 1_555 1_555
H40 C48 1_555 1_555
C49 N6 1_555 1_555
H41 C49 1_555 1_555
C50 C36 1_555 1_555
H42 C50 1_555 1_555
C51 C50 1_555 1_555
C52 C12 1_555 1_555
H43 C52 1_555 1_555
H44 C52 1_555 1_555
H45 C52 1_555 1_555
C53 H46 1_555 1_555
H47 C53 1_555 1_555
C54 C42 1_555 1_555
C55 C43 1_555 1_555
H48 C55 1_555 1_555
C56 C38 1_555 1_555
H49 C56 1_555 1_555
H50 C56 1_555 1_555
H51 C56 1_555 1_555
C57 H52 1_555 1_555
C58 N4 1_555 1_555
H53 C58 1_555 1_555
C59 N9 1_555 1_555
H54 C59 1_555 1_555
C60 C21 1_555 1_555
H55 C60 1_555 1_555
H56 C60 1_555 1_555
C61 C29 1_555 1_555
H57 C61 1_555 1_555
H58 C61 1_555 1_555
C62 N11 1_555 1_555
H59 C62 1_555 1_555
C63 C32 1_555 1_555
H60 C63 1_555 1_555
H61 C63 1_555 1_555
H62 C63 1_555 1_555
C64 N12 1_555 1_555
C65 C40 1_555 1_555
H63 C65 1_555 1_555
H64 C65 1_555 1_555
C66 C14 1_555 1_555
H65 C66 1_555 1_555
H66 C66 1_555 1_555
H67 C66 1_555 1_555
C67 N10 1_555 1_555
H68 C67 1_555 1_555
C68 C59 1_555 1_555
H69 C68 1_555 1_555
H70 C68 1_555 1_555
C69 C47 1_555 1_555
H71 C69 1_555 1_555
H72 C69 1_555 1_555
H73 C69 1_555 1_555
C70 C53 1_555 1_555
H74 C70 1_555 1_555
H75 C70 1_555 1_555
C71 C61 1_555 1_555
H76 C71 1_555 1_555
H77 C71 1_555 1_555
C72 C57 1_555 1_555
H78 C72 1_555 1_555
H79 C72 1_555 1_555
C73 C49 1_555 1_555
H80 C73 1_555 1_555
H81 C73 1_555 1_555
C74 C65 1_555 1_555
H82 C74 1_555 1_555
H83 C74 1_555 1_555
C75 H84 1_555 1_555
H85 C75 1_555 1_555
C76 C18 1_555 1_555
H86 C76 1_555 1_555
H87 C76 1_555 1_555
H88 C76 1_555 1_555
C77 C67 1_555 1_555
H89 C77 1_555 1_555
H90 C77 1_555 1_555
C78 C48 1_555 1_555
H91 C78 1_555 1_555
H92 C78 1_555 1_555
C79 C70 1_555 1_555
H93 C79 1_555 1_555
H94 C79 1_555 1_555
C80 C73 1_555 1_555
H95 C80 1_555 1_555
H96 C80 1_555 1_555
C81 C62 1_555 1_555
H97 C81 1_555 1_555
H98 C81 1_555 1_555
C82 C60 1_555 1_555
H99 C82 1_555 1_555
H100 C82 1_555 1_555
C83 C75 1_555 1_555
H101 C83 1_555 1_555
H102 C83 1_555 1_555
C84 C34 1_555 1_555
H103 C84 1_555 1_555
H104 C84 1_555 1_555
H105 C84 1_555 1_555
C85 C78 1_555 1_555
H106 C85 1_555 1_555
H107 C85 1_555 1_555
C86 C64 1_555 1_555
H108 C86 1_555 1_555
H109 C86 1_555 1_555
H110 C86 1_555 1_555
C87 H111 1_555 1_555
H112 C87 1_555 1_555
H113 C87 1_555 1_555
C88 C54 1_555 1_555
H114 C88 1_555 1_555
H115 C88 1_555 1_555
H116 C88 1_555 1_555
C9 C19 1_555 1_555
C15 C31 1_555 1_555
C17 C20 1_555 1_555
C17 C24 1_555 1_555
C21 C29 1_555 1_555
C23 C28 1_555 1_555
C39 C59 1_555 1_555
C42 C44 1_555 1_555
C45 C46 1_555 1_555
C48 C49 1_555 1_555
C51 C55 1_555 1_555
C51 C64 1_555 1_555
C53 C58 1_555 1_555
C57 C58 1_555 1_555
C62 C67 1_555 1_555
C68 C74 1_555 1_555
C71 C82 1_555 1_555
C72 C79 1_555 1_555
C75 C77 1_555 1_555
C80 C85 1_555 1_555
C81 C83 1_555 1_555

#END
