
#######################################################################
#
#                 Cambridge Crystallographic Data Centre
#                                CCDC 
#
#######################################################################
#
# If this CIF has been generated from an entry in the Cambridge 
# Structural Database, then it will include bibliographic, chemical, 
# crystal, experimental, refinement or atomic coordinate data resulting 
# from the CCDC's data processing and validation procedures.
#
#######################################################################

data_SENREL
_chemical_formula_moiety         'C175.067 H232.533 Cl1.3332 N24 O2'
_symmetry_cell_setting           rhombohedral
_symmetry_space_group_name_H-M   'R 3'
_symmetry_Int_Tables_number      146
_space_group_name_Hall           'R 3'
loop_
_symmetry_equiv_pos_site_id
_symmetry_equiv_pos_as_xyz
1 x,y,z
2 -y,x-y,z
3 -x+y,-x,z
4 2/3+x,1/3+y,1/3+z
5 2/3-y,1/3+x-y,1/3+z
6 2/3-x+y,1/3-x,1/3+z
7 1/3+x,2/3+y,2/3+z
8 1/3-y,2/3+x-y,2/3+z
9 1/3-x+y,2/3-x,2/3+z
_cell_length_a                   26.5704(10)
_cell_length_b                   26.5704(10)
_cell_length_c                   22.5533(9)
_cell_angle_alpha                90
_cell_angle_beta                 90
_cell_angle_gamma                120
_cell_volume                     13789.1
loop_
_atom_site_label
_atom_site_type_symbol
_atom_site_fract_x
_atom_site_fract_y
_atom_site_fract_z
O2 O 0.6651(6) 0.6605(6) 0.5068(6)
C5 C 0.6328(5) 0.6485(5) 0.4173(5)
H11 H 0.6631 0.6825 0.3964
H12 H 0.5971 0.6306 0.3935
H13 H 0.6458 0.6204 0.4237
C6 C 0.6212(9) 0.6666(10) 0.4746(7)
H14 H 0.6289 0.7070 0.4742
H15 H 0.5814 0.6399 0.4893
C7 C 0.6554(8) 0.6825(8) 0.5573(7)
H16 H 0.6143 0.6609 0.5704
H17 H 0.6691 0.7246 0.5546
C8 C 0.6957(12) 0.6688(13) 0.5949(11)
H18 H 0.6863 0.6286 0.5876
H19 H 0.6902 0.6737 0.6371
H20 H 0.7363 0.6954 0.5839
N1 N 0.4198(2) 0.5964(2) 0.7580(2)
N2 N 0.4753(2) 0.5784(2) 0.6593(2)
N3 N 0.5343(2) 0.7341(2) 0.4300(2)
N4 N 0.51877(19) 0.83442(19) 0.4356(2)
C9 C 0.2929(4) 0.4613(4) 0.5422(3)
H21 H 0.2519 0.4405 0.5306
H22 H 0.2986 0.4882 0.5746
H23 H 0.3044 0.4334 0.5553
C10 C 0.3296(2) 0.4951(2) 0.4898(2)
C11 C 0.3841(2) 0.5518(2) 0.5019(2)
C12 C 0.4064(2) 0.5954(2) 0.4586(2)
H24 H 0.3870 0.5891 0.4216
C13 C 0.4571(2) 0.6481(2) 0.4697(2)
C14 C 0.4853(2) 0.6572(2) 0.5249(3)
H25 H 0.5196 0.6932 0.5326
C15 C 0.4635(2) 0.6141(2) 0.5684(2)
C16 C 0.4125(2) 0.5612(2) 0.5560(2)
H26 H 0.3973 0.5313 0.5851
C17 C 0.4809(2) 0.6958(2) 0.4247(2)
C18 C 0.4384(3) 0.6937(2) 0.3788(3)
H27 H 0.4039 0.6901 0.3987
H28 H 0.4269 0.6602 0.3527
H29 H 0.4569 0.7295 0.3553
C19 C 0.4910(2) 0.6231(3) 0.6282(3)
C20 C 0.5316(4) 0.6857(3) 0.6479(3)
H30 H 0.5290 0.6885 0.6910
H31 H 0.5201 0.7114 0.6284
H32 H 0.5716 0.6973 0.6369
C21 C 0.2910(2) 0.6078(2) 0.7417(2)
H33 H 0.2621 0.5678 0.7419
C22 C 0.3496(3) 0.6238(2) 0.7416(2)
C23 C 0.3682(3) 0.5791(3) 0.7428(3)
C24 C 0.3245(5) 0.5203(5) 0.7133(6)
H34 H 0.3166 0.5273 0.6725
H35 H 0.2881 0.5019 0.7359
H36 H 0.3411 0.4947 0.7127
C25 C 0.4966(3) 0.5814(3) 0.7196(2)
H37 H 0.5252 0.6225 0.7302
C26 C 0.5253(3) 0.5436(3) 0.7236(3)
H38 H 0.4979 0.5040 0.7089
H39 H 0.5602 0.5604 0.6981
C27 C 0.5423(3) 0.5400(3) 0.7869(3)
H40 H 0.5723 0.5792 0.8003
H41 H 0.5594 0.5143 0.7884
C28 C 0.4904(4) 0.5167(4) 0.8281(3)
H42 H 0.5032 0.5166 0.8693
H43 H 0.4620 0.4761 0.8170
C29 C 0.4612(4) 0.5545(3) 0.8245(3)
H44 H 0.4262 0.5376 0.8501
H45 H 0.4885 0.5942 0.8390
C30 C 0.4441(3) 0.5575(3) 0.7611(3)
H46 H 0.4141 0.5177 0.7476
C31 C 0.5626(2) 0.7824(2) 0.3890(2)
H47 H 0.5372 0.7752 0.3537
C32 C 0.6208(3) 0.7890(3) 0.3694(3)
H48 H 0.6444 0.7930 0.4050
H49 H 0.6135 0.7533 0.3482
C33 C 0.6548(3) 0.8412(3) 0.3293(3)
H50 H 0.6928 0.8447 0.3196
H51 H 0.6331 0.8353 0.2918
C34 C 0.6645(3) 0.8960(3) 0.3586(4)
H52 H 0.6840 0.9288 0.3304
H53 H 0.6902 0.9044 0.3934
C35 C 0.6070(3) 0.8904(3) 0.3784(3)
H54 H 0.5826 0.8853 0.3432
H55 H 0.6146 0.9265 0.3989
C36 C 0.5742(2) 0.8387(2) 0.4201(2)
H56 H 0.5977 0.8446 0.4568
N1A N 0.4036(2) 0.8234(3) 0.7580(2)
N2A N 0.4216(2) 0.8969(3) 0.6593(2)
N3A N 0.2659(2) 0.8002(3) 0.4300(2)
N4A N 0.16558(19) 0.68435(27) 0.4356(2)
C9A C 0.5387(4) 0.8316(6) 0.5422(3)
H21A H 0.5595 0.8114 0.5306
H22A H 0.5118 0.8104 0.5746
H23A H 0.5666 0.8710 0.5553
C10A C 0.5049(2) 0.8345(3) 0.4898(2)
C11A C 0.4482(2) 0.8323(3) 0.5019(2)
C12A C 0.4046(2) 0.8110(3) 0.4586(2)
H24A H 0.4109 0.7979 0.4216
C13A C 0.3519(2) 0.8090(3) 0.4697(2)
C14A C 0.3428(2) 0.8281(3) 0.5249(3)
H25A H 0.3068 0.8264 0.5326
C15A C 0.3859(2) 0.8494(3) 0.5684(2)
C16A C 0.4388(2) 0.8513(3) 0.5560(2)
H26A H 0.4687 0.8660 0.5851
C17A C 0.3042(2) 0.7851(3) 0.4247(2)
C18A C 0.3063(2) 0.7447(4) 0.3788(3)
H27A H 0.3099 0.7138 0.3987
H28A H 0.3398 0.7667 0.3527
H29A H 0.2705 0.7274 0.3553
C19A C 0.3769(3) 0.8679(4) 0.6282(3)
C20A C 0.3143(3) 0.8459(5) 0.6479(3)
H30A H 0.3115 0.8405 0.6910
H31A H 0.2886 0.8087 0.6284
H32A H 0.3027 0.8743 0.6369
C21A C 0.3922(2) 0.6832(3) 0.7417(2)
H33A H 0.4322 0.6943 0.7419
C22A C 0.3762(2) 0.7258(4) 0.7416(2)
C23A C 0.4209(3) 0.7891(4) 0.7428(3)
C24A C 0.4797(5) 0.8042(7) 0.7133(6)
H34A H 0.4727 0.7893 0.6725
H35A H 0.4981 0.7862 0.7359
H36A H 0.5053 0.8464 0.7127
C25A C 0.4186(3) 0.9152(4) 0.7196(2)
H37A H 0.3775 0.9027 0.7302
C26A C 0.4564(3) 0.9817(4) 0.7236(3)
H38A H 0.4960 0.9939 0.7089
H39A H 0.4396 0.9998 0.6981
C27A C 0.4600(3) 1.0023(4) 0.7869(3)
H40A H 0.4208 0.9931 0.8003
H41A H 0.4857 1.0451 0.7884
C28A C 0.4833(4) 0.9737(6) 0.8281(3)
H42A H 0.4834 0.9866 0.8693
H43A H 0.5239 0.9859 0.8170
C29A C 0.4455(3) 0.9067(5) 0.8245(3)
H44A H 0.4624 0.8886 0.8501
H45A H 0.4058 0.8943 0.8390
C30A C 0.4425(3) 0.8866(4) 0.7611(3)
H46A H 0.4823 0.8964 0.7476
C31A C 0.2176(2) 0.7802(3) 0.3890(2)
H47A H 0.2248 0.7620 0.3537
C32A C 0.2110(3) 0.8318(4) 0.3694(3)
H48A H 0.2070 0.8514 0.4050
H49A H 0.2467 0.8602 0.3482
C33A C 0.1588(3) 0.8136(4) 0.3293(3)
H50A H 0.1553 0.8481 0.3196
H51A H 0.1647 0.7978 0.2918
C34A C 0.1040(3) 0.7685(4) 0.3586(4)
H52A H 0.0712 0.7552 0.3304
H53A H 0.0956 0.7858 0.3934
C35A C 0.1096(3) 0.7166(4) 0.3784(3)
H54A H 0.1147 0.6973 0.3432
H55A H 0.0735 0.6881 0.3989
C36A C 0.1613(2) 0.7355(3) 0.4201(2)
H56A H 0.1554 0.7531 0.4568
N1B N 0.1766(3) 0.5802(2) 0.7580(2)
N2B N 0.1031(3) 0.5247(2) 0.6593(2)
N3B N 0.1998(3) 0.4657(2) 0.4300(2)
N4B N 0.31565(27) 0.48123(19) 0.4356(2)
C9B C 0.1684(6) 0.7071(4) 0.5422(3)
H21B H 0.1886 0.7481 0.5306
H22B H 0.1896 0.7014 0.5746
H23B H 0.1290 0.6956 0.5553
C10B C 0.1655(3) 0.6704(2) 0.4898(2)
C11B C 0.1677(3) 0.6159(2) 0.5019(2)
C12B C 0.1890(3) 0.5936(2) 0.4586(2)
H24B H 0.2021 0.6130 0.4216
C13B C 0.1910(3) 0.5429(2) 0.4697(2)
C14B C 0.1719(3) 0.5147(2) 0.5249(3)
H25B H 0.1736 0.4804 0.5326
C15B C 0.1506(3) 0.5365(2) 0.5684(2)
C16B C 0.1487(3) 0.5875(2) 0.5560(2)
H26B H 0.1340 0.6027 0.5851
C17B C 0.2149(3) 0.5191(2) 0.4247(2)
C18B C 0.2553(4) 0.5616(3) 0.3788(3)
H27B H 0.2862 0.5961 0.3987
H28B H 0.2333 0.5731 0.3527
H29B H 0.2726 0.5431 0.3553
C19B C 0.1321(4) 0.5090(2) 0.6282(3)
C20B C 0.1541(5) 0.4684(4) 0.6479(3)
H30B H 0.1595 0.4710 0.6910
H31B H 0.1913 0.4799 0.6284
H32B H 0.1257 0.4284 0.6369
C21B C 0.3168(3) 0.7090(2) 0.7417(2)
H33B H 0.3057 0.7379 0.7419
C22B C 0.2742(4) 0.6504(3) 0.7416(2)
C23B C 0.2109(4) 0.6318(3) 0.7428(3)
C24B C 0.1958(7) 0.6755(5) 0.7133(6)
H34B H 0.2107 0.6834 0.6725
H35B H 0.2138 0.7119 0.7359
H36B H 0.1536 0.6589 0.7127
C25B C 0.0848(4) 0.5034(3) 0.7196(2)
H37B H 0.0973 0.4748 0.7302
C26B C 0.0183(4) 0.4747(3) 0.7236(3)
H38B H 0.0061 0.5021 0.7089
H39B H 0.0002 0.4398 0.6981
C27B C -0.0023(4) 0.4577(3) 0.7869(3)
H40B H 0.0069 0.4277 0.8003
H41B H -0.0451 0.4406 0.7884
C28B C 0.0263(6) 0.5096(4) 0.8281(3)
H42B H 0.0134 0.4968 0.8693
H43B H 0.0141 0.5380 0.8170
C29B C 0.0933(5) 0.5388(4) 0.8245(3)
H44B H 0.1114 0.5738 0.8501
H45B H 0.1057 0.5115 0.8390
C30B C 0.1134(4) 0.5559(3) 0.7611(3)
H46B H 0.1036 0.5859 0.7476
C31B C 0.2198(3) 0.4374(2) 0.3890(2)
H47B H 0.2380 0.4628 0.3537
C32B C 0.1682(4) 0.3792(3) 0.3694(3)
H48B H 0.1486 0.3556 0.4050
H49B H 0.1398 0.3865 0.3482
C33B C 0.1864(4) 0.3452(3) 0.3293(3)
H50B H 0.1519 0.3072 0.3196
H51B H 0.2022 0.3669 0.2918
C34B C 0.2315(4) 0.3355(3) 0.3586(4)
H52B H 0.2448 0.3160 0.3304
H53B H 0.2142 0.3098 0.3934
C35B C 0.2834(4) 0.3930(3) 0.3784(3)
H54B H 0.3027 0.4174 0.3432
H55B H 0.3119 0.3854 0.3989
C36B C 0.2645(3) 0.4258(2) 0.4201(2)
H56B H 0.2469 0.4023 0.4568
N5 N 0.7825(2) 0.5695(2) 0.8304(2)
N6 N 0.75186(19) 0.48937(19) 0.92733(19)
N7 N 0.6211(3) 0.4841(3) 0.5992(2)
N8 N 0.5112(2) 0.3720(2) 0.6052(2)
C37 C 0.8788(3) 0.4834(4) 0.7118(3)
H57 H 0.8911 0.4552 0.7024
H58 H 0.8522 0.4695 0.7458
H59 H 0.9129 0.5209 0.7216
C38 C 0.8482(2) 0.4905(2) 0.6590(3)
C39 C 0.7965(3) 0.4973(2) 0.6716(2)
C40 C 0.7911(2) 0.5204(2) 0.7252(2)
H60 H 0.8208 0.5321 0.7542
C41 C 0.7429(3) 0.5267(3) 0.7371(3)
C42 C 0.6997(3) 0.5094(3) 0.6940(3)
H61 H 0.6669 0.5139 0.7013
C43 C 0.7040(3) 0.4854(3) 0.6401(3)
C44 C 0.7527(3) 0.4803(3) 0.6293(3)
H62 H 0.7562 0.4649 0.5925
C45 C 0.7372(3) 0.5476(3) 0.7974(3)
C46 C 0.6770(4) 0.5316(5) 0.8184(5)
H63 H 0.6768 0.5341 0.8617
H64 H 0.6493 0.4918 0.8059
H65 H 0.6658 0.5584 0.8011
C47 C 0.6544(3) 0.4627(3) 0.5963(3)
C48 C 0.6503(3) 0.4171(3) 0.5539(3)
H66 H 0.6124 0.3988 0.5340
H67 H 0.6544 0.3875 0.5758
H68 H 0.6813 0.4351 0.5243
C49 C 0.7233(2) 0.3436(2) 0.9040(2)
H69 H 0.7619 0.3503 0.9041
C50 C 0.7141(2) 0.3904(2) 0.9039(2)
C51 C 0.7631(2) 0.4522(2) 0.9060(2)
C52 C 0.8208(2) 0.4629(3) 0.8811(3)
H70 H 0.8391 0.4994 0.8586
H71 H 0.8141 0.4307 0.8549
H72 H 0.8463 0.4657 0.9138
C53 C 0.5725(3) 0.4663(3) 0.5572(3)
H73 H 0.5774 0.4455 0.5228
C54 C 0.5733(5) 0.5211(4) 0.5358(4)
H74 H 0.6109 0.5471 0.5163
H75 H 0.5692 0.5420 0.5701
C55 C 0.5234(5) 0.5053(4) 0.4918(4)
H76 H 0.5250 0.5411 0.4768
H77 H 0.5270 0.4839 0.4576
C56 C 0.4677(5) 0.4686(4) 0.5228(4)
H78 H 0.4351 0.4586 0.4952
H79 H 0.4641 0.4906 0.5564
C57 C 0.4643(3) 0.4126(4) 0.5460(3)
H80 H 0.4655 0.3895 0.5122
H81 H 0.4271 0.3890 0.5672
C58 C 0.5154(3) 0.4269(3) 0.5885(3)
H82 H 0.5120 0.4469 0.6246
C59 C 0.7812(2) 0.5870(2) 0.8909(2)
H83 H 0.7417 0.5803 0.9009
C60 C 0.8266(3) 0.6514(2) 0.8973(3)
H84 H 0.8153 0.6747 0.8723
H85 H 0.8646 0.6578 0.8828
C61 C 0.8330(3) 0.6720(2) 0.9617(3)
H86 H 0.8645 0.7130 0.9645
H87 H 0.7964 0.6698 0.9749
C62 C 0.8468(3) 0.6345(3) 1.0023(2)
H88 H 0.8482 0.6469 1.0439
H89 H 0.8855 0.6401 0.9920
C63 C 0.8011(2) 0.5699(2) 0.9966(2)
H90 H 0.8119 0.5465 1.0223
H91 H 0.7628 0.5635 1.0097
C64 C 0.7972(2) 0.5503(2) 0.9319(2)
H92 H 0.8353 0.5547 0.9193
N5A N 0.4305(2) 0.2130(3) 0.8304(2)
N6A N 0.51063(19) 0.26249(27) 0.92733(19)
N7A N 0.5159(3) 0.1370(4) 0.5992(2)
N8A N 0.6280(2) 0.1392(3) 0.6052(2)
C37A C 0.5166(4) 0.3954(5) 0.7118(3)
H57A H 0.5448 0.4359 0.7024
H58A H 0.5305 0.3827 0.7458
H59A H 0.4791 0.3920 0.7216
C38A C 0.5095(2) 0.3577(3) 0.6590(3)
C39A C 0.5027(2) 0.2992(4) 0.6716(2)
C40A C 0.4796(2) 0.2707(3) 0.7252(2)
H60A H 0.4679 0.2887 0.7542
C41A C 0.4733(3) 0.2162(4) 0.7371(3)
C42A C 0.4906(3) 0.1903(4) 0.6940(3)
H61A H 0.4861 0.1530 0.7013
C43A C 0.5146(3) 0.2186(4) 0.6401(3)
C44A C 0.5197(3) 0.2724(4) 0.6293(3)
H62A H 0.5351 0.2913 0.5925
C45A C 0.4524(3) 0.1896(4) 0.7974(3)
C46A C 0.4684(5) 0.1454(6) 0.8184(5)
H63A H 0.4659 0.1427 0.8617
H64A H 0.5082 0.1575 0.8059
H65A H 0.4416 0.1074 0.8011
C47A C 0.5373(3) 0.1917(4) 0.5963(3)
C48A C 0.5829(3) 0.2332(4) 0.5539(3)
H66A H 0.6012 0.2136 0.5340
H67A H 0.6125 0.2669 0.5758
H68A H 0.5649 0.2462 0.5243
C49A C 0.6564(2) 0.3797(3) 0.9040(2)
H69A H 0.6497 0.4116 0.9041
C50A C 0.6096(2) 0.3237(3) 0.9039(2)
C51A C 0.5478(2) 0.3109(3) 0.9060(2)
C52A C 0.5371(3) 0.3579(4) 0.8811(3)
H70A H 0.5006 0.3397 0.8586
H71A H 0.5693 0.3834 0.8549
H72A H 0.5343 0.3806 0.9138
C53A C 0.5337(3) 0.1062(4) 0.5572(3)
H73A H 0.5545 0.1319 0.5228
C54A C 0.4789(4) 0.0522(6) 0.5358(4)
H74A H 0.4529 0.0638 0.5163
H75A H 0.4580 0.0272 0.5701
C55A C 0.4947(4) 0.0181(6) 0.4918(4)
H76A H 0.4589 -0.0161 0.4768
H77A H 0.5161 0.0431 0.4576
C56A C 0.5314(4) -0.0009(6) 0.5228(4)
H78A H 0.5414 -0.0235 0.4952
H79A H 0.5094 -0.0265 0.5564
C57A C 0.5874(4) 0.0517(5) 0.5460(3)
H80A H 0.6105 0.0760 0.5122
H81A H 0.6110 0.0381 0.5672
C58A C 0.5731(3) 0.0885(4) 0.5885(3)
H82A H 0.5531 0.0651 0.6246
C59A C 0.4130(2) 0.1942(3) 0.8909(2)
H83A H 0.4197 0.1614 0.9009
C60A C 0.3486(2) 0.1752(4) 0.8973(3)
H84A H 0.3253 0.1406 0.8723
H85A H 0.3422 0.2068 0.8828
C61A C 0.3280(2) 0.1610(4) 0.9617(3)
H86A H 0.2870 0.1515 0.9645
H87A H 0.3302 0.1266 0.9749
C62A C 0.3655(3) 0.2123(4) 1.0023(2)
H88A H 0.3531 0.2013 1.0439
H89A H 0.3599 0.2454 0.9920
C63A C 0.4301(2) 0.2312(3) 0.9966(2)
H90A H 0.4535 0.2654 1.0223
H91A H 0.4365 0.1993 1.0097
C64A C 0.4497(2) 0.2469(3) 0.9319(2)
H92A H 0.4453 0.2806 0.9193
N5B N 0.7870(3) 0.2175(2) 0.8304(2)
N6B N 0.73751(27) 0.24814(19) 0.92733(19)
N7B N 0.8630(4) 0.3789(3) 0.5992(2)
N8B N 0.8608(3) 0.4888(2) 0.6052(2)
C37B C 0.6046(5) 0.1212(3) 0.7118(3)
H57B H 0.5641 0.1089 0.7024
H58B H 0.6173 0.1478 0.7458
H59B H 0.6080 0.0871 0.7216
C38B C 0.6423(3) 0.1518(2) 0.6590(3)
C39B C 0.7008(4) 0.2035(3) 0.6716(2)
C40B C 0.7293(3) 0.2089(2) 0.7252(2)
H60B H 0.7113 0.1792 0.7542
C41B C 0.7838(4) 0.2571(3) 0.7371(3)
C42B C 0.8097(4) 0.3003(3) 0.6940(3)
H61B H 0.8470 0.3331 0.7013
C43B C 0.7814(4) 0.2960(3) 0.6401(3)
C44B C 0.7276(4) 0.2473(3) 0.6293(3)
H62B H 0.7087 0.2438 0.5925
C45B C 0.8104(4) 0.2628(3) 0.7974(3)
C46B C 0.8546(6) 0.3230(4) 0.8184(5)
H63B H 0.8573 0.3232 0.8617
H64B H 0.8425 0.3507 0.8059
H65B H 0.8926 0.3342 0.8011
C47B C 0.8083(4) 0.3456(3) 0.5963(3)
C48B C 0.7668(4) 0.3497(3) 0.5539(3)
H66B H 0.7864 0.3876 0.5340
H67B H 0.7331 0.3456 0.5758
H68B H 0.7538 0.3187 0.5243
C49B C 0.6203(3) 0.2767(2) 0.9040(2)
H69B H 0.5884 0.2381 0.9041
C50B C 0.6763(3) 0.2859(2) 0.9039(2)
C51B C 0.6891(3) 0.2369(2) 0.9060(2)
C52B C 0.6421(4) 0.1792(2) 0.8811(3)
H70B H 0.6603 0.1609 0.8586
H71B H 0.6166 0.1859 0.8549
H72B H 0.6194 0.1537 0.9138
C53B C 0.8938(4) 0.4275(3) 0.5572(3)
H73B H 0.8681 0.4226 0.5228
C54B C 0.9478(6) 0.4267(5) 0.5358(4)
H74B H 0.9362 0.3891 0.5163
H75B H 0.9728 0.4308 0.5701
C55B C 0.9819(6) 0.4766(5) 0.4918(4)
H76B H 1.0161 0.4750 0.4768
H77B H 0.9569 0.4730 0.4576
C56B C 1.0009(6) 0.5323(5) 0.5228(4)
H78B H 1.0235 0.5649 0.4952
H79B H 1.0265 0.5359 0.5564
C57B C 0.9483(5) 0.5357(3) 0.5460(3)
H80B H 0.9240 0.5345 0.5122
H81B H 0.9619 0.5729 0.5672
C58B C 0.9115(4) 0.4846(3) 0.5885(3)
H82B H 0.9349 0.4880 0.6246
C59B C 0.8058(3) 0.2188(2) 0.8909(2)
H83B H 0.8386 0.2583 0.9009
C60B C 0.8248(4) 0.1734(3) 0.8973(3)
H84B H 0.8594 0.1847 0.8723
H85B H 0.7932 0.1354 0.8828
C61B C 0.8390(4) 0.1670(3) 0.9617(3)
H86B H 0.8485 0.1355 0.9645
H87B H 0.8734 0.2036 0.9749
C62B C 0.7877(4) 0.1532(3) 1.0023(2)
H88B H 0.7987 0.1518 1.0439
H89B H 0.7546 0.1145 0.9920
C63B C 0.7688(3) 0.1989(2) 0.9966(2)
H90B H 0.7346 0.1881 1.0223
H91B H 0.8007 0.2372 1.0097
C64B C 0.7531(3) 0.2028(2) 0.9319(2)
H92B H 0.7194 0.1647 0.9193
O1 O 0.3205(4) 0.2914(4) 0.4326(4)
C1 C 0.3730(5) 0.3114(5) 0.3467(4)
H1 H 0.3566 0.2694 0.3421
H2 H 0.4124 0.3318 0.3304
H3 H 0.3486 0.3235 0.3254
C2 C 0.3747(5) 0.3256(5) 0.4100(5)
H4 H 0.4031 0.3183 0.4310
H5 H 0.3866 0.3671 0.4148
C3 C 0.3350(6) 0.3082(6) 0.4928(6)
H6 H 0.3755 0.3166 0.4978
H7 H 0.3361 0.3458 0.4970
C4 C 0.3046(7) 0.2751(7) 0.5417(7)
H8 H 0.2911 0.2968 0.5657
H9 H 0.3301 0.2664 0.5656
H10 H 0.2710 0.2387 0.5282
C65? C 0.2909(6) 0.3006(6) 0.4844(6)
H93? H 0.3172 0.3395 0.5013
H94? H 0.2557 0.3006 0.4699
C66? C 0.2768(8) 0.2651(7) 0.5235(7)
H95? H 0.2356 0.2358 0.5190
H96? H 0.2829 0.2844 0.5620
H97? H 0.3003 0.2462 0.5212
C67? C 0.3238(7) 0.5167(6) 0.7424(10)
H98? H 0.3359 0.4956 0.7691
H99? H 0.3196 0.5014 0.7021
H100? H 0.2866 0.5119 0.7558
C68? C 0.6899(8) 0.5596(10) 0.8022(9)
H101? H 0.6916 0.5772 0.8409
H102? H 0.6528 0.5233 0.7982
H103? H 0.6933 0.5865 0.7706
Cl1? Cl 0.6419(3) 0.3895(3) 0.7498(3)
Cl2? Cl 0.6922(10) 0.3155(10) 0.7430(11)
C69? C 0.6846(7) 0.3678(7) 0.7042(7)
H104? H 0.6646 0.3516 0.6660
H105? H 0.7232 0.4018 0.6958
Cl3? Cl 0.2964(11) 0.6499(14) 0.5820(12)
Cl4? Cl 0.4282(3) 0.7189(3) 0.5948(3)
C70? C 0.3644(7) 0.6792(7) 0.5481(7)
H106? H 0.3663 0.7056 0.5162
H107? H 0.3670 0.6470 0.5290
loop_
_geom_bond_atom_site_label_1
_geom_bond_atom_site_label_2
_geom_bond_site_symmetry_1
_geom_bond_site_symmetry_2
O1 C2 1_555 1_555
C1 H1 1_555 1_555
H2 C1 1_555 1_555
H3 C1 1_555 1_555
C2 C1 1_555 1_555
H4 C2 1_555 1_555
H5 C2 1_555 1_555
C3 O1 1_555 1_555
H6 C3 1_555 1_555
H7 C3 1_555 1_555
C4 C3 1_555 1_555
H8 C4 1_555 1_555
H9 C4 1_555 1_555
H10 C4 1_555 1_555
O2 C6 1_555 1_555
C5 H11 1_555 1_555
H12 C5 1_555 1_555
H13 C5 1_555 1_555
C6 C5 1_555 1_555
H14 C6 1_555 1_555
H15 C6 1_555 1_555
C7 O2 1_555 1_555
H16 C7 1_555 1_555
H17 C7 1_555 1_555
C8 C7 1_555 1_555
H18 C8 1_555 1_555
H19 C8 1_555 1_555
H20 C8 1_555 1_555
N1 C23 1_555 1_555
N2 C19 1_555 1_555
N3 C17 1_555 1_555
N4 C36 1_555 1_555
C9 H21 1_555 1_555
H22 C9 1_555 1_555
H23 C9 1_555 1_555
C10 C9 1_555 1_555
C11 C10 1_555 1_555
C12 C11 1_555 1_555
H24 C12 1_555 1_555
C13 C12 1_555 1_555
C14 C13 1_555 1_555
H25 C14 1_555 1_555
C15 C14 1_555 1_555
C16 C11 1_555 1_555
H26 C16 1_555 1_555
C17 C13 1_555 1_555
C18 C17 1_555 1_555
H27 C18 1_555 1_555
H28 C18 1_555 1_555
H29 C18 1_555 1_555
C19 C15 1_555 1_555
C20 C19 1_555 1_555
H30 C20 1_555 1_555
H31 C20 1_555 1_555
H32 C20 1_555 1_555
C21 H33 1_555 1_555
C22 C21 1_555 1_555
C23 C22 1_555 1_555
C24 C23 1_555 1_555
H34 C24 1_555 1_555
H35 C24 1_555 1_555
H36 C24 1_555 1_555
C25 N2 1_555 1_555
H37 C25 1_555 1_555
C26 C25 1_555 1_555
H38 C26 1_555 1_555
H39 C26 1_555 1_555
C27 C26 1_555 1_555
H40 C27 1_555 1_555
H41 C27 1_555 1_555
C28 C27 1_555 1_555
H42 C28 1_555 1_555
H43 C28 1_555 1_555
C29 C28 1_555 1_555
H44 C29 1_555 1_555
H45 C29 1_555 1_555
C30 N1 1_555 1_555
H46 C30 1_555 1_555
C31 N3 1_555 1_555
H47 C31 1_555 1_555
C32 C31 1_555 1_555
H48 C32 1_555 1_555
H49 C32 1_555 1_555
C33 C32 1_555 1_555
H50 C33 1_555 1_555
H51 C33 1_555 1_555
C34 C33 1_555 1_555
H52 C34 1_555 1_555
H53 C34 1_555 1_555
C35 C34 1_555 1_555
H54 C35 1_555 1_555
H55 C35 1_555 1_555
C36 C31 1_555 1_555
H56 C36 1_555 1_555
N5 C45 1_555 1_555
N6 C51 1_555 1_555
N7 C47 1_555 1_555
N8 C58 1_555 1_555
C37 H57 1_555 1_555
H58 C37 1_555 1_555
H59 C37 1_555 1_555
C38 C37 1_555 1_555
C39 C38 1_555 1_555
C40 C39 1_555 1_555
H60 C40 1_555 1_555
C41 C40 1_555 1_555
C42 C41 1_555 1_555
H61 C42 1_555 1_555
C43 C42 1_555 1_555
C44 C39 1_555 1_555
H62 C44 1_555 1_555
C45 C41 1_555 1_555
C46 C45 1_555 1_555
H63 C46 1_555 1_555
H64 C46 1_555 1_555
H65 C46 1_555 1_555
C47 C43 1_555 1_555
C48 C47 1_555 1_555
H66 C48 1_555 1_555
H67 C48 1_555 1_555
H68 C48 1_555 1_555
C49 H69 1_555 1_555
C50 C49 1_555 1_555
C51 C50 1_555 1_555
C52 C51 1_555 1_555
H70 C52 1_555 1_555
H71 C52 1_555 1_555
H72 C52 1_555 1_555
C53 N7 1_555 1_555
H73 C53 1_555 1_555
C54 C53 1_555 1_555
H74 C54 1_555 1_555
H75 C54 1_555 1_555
C55 C54 1_555 1_555
H76 C55 1_555 1_555
H77 C55 1_555 1_555
C56 C55 1_555 1_555
H78 C56 1_555 1_555
H79 C56 1_555 1_555
C57 C56 1_555 1_555
H80 C57 1_555 1_555
H81 C57 1_555 1_555
C58 C53 1_555 1_555
H82 C58 1_555 1_555
C59 N5 1_555 1_555
H83 C59 1_555 1_555
C60 C59 1_555 1_555
H84 C60 1_555 1_555
H85 C60 1_555 1_555
C61 C60 1_555 1_555
H86 C61 1_555 1_555
H87 C61 1_555 1_555
C62 C61 1_555 1_555
H88 C62 1_555 1_555
H89 C62 1_555 1_555
C63 C62 1_555 1_555
H90 C63 1_555 1_555
H91 C63 1_555 1_555
C64 N6 1_555 1_555
H92 C64 1_555 1_555
N1A C23A 1_555 1_555
N2A C19A 1_555 1_555
N3A C17A 1_555 1_555
N4A C36A 1_555 1_555
C9A H21A 1_555 1_555
H22A C9A 1_555 1_555
H23A C9A 1_555 1_555
C10A N4 1_555 1_555
C11A C10A 1_555 1_555
C12A C11A 1_555 1_555
H24A C12A 1_555 1_555
C13A C12A 1_555 1_555
C14A C13A 1_555 1_555
H25A C14A 1_555 1_555
C15A C14A 1_555 1_555
C16A C11A 1_555 1_555
H26A C16A 1_555 1_555
C17A C13A 1_555 1_555
C18A C17A 1_555 1_555
H27A C18A 1_555 1_555
H28A C18A 1_555 1_555
H29A C18A 1_555 1_555
C19A C15A 1_555 1_555
C20A C19A 1_555 1_555
H30A C20A 1_555 1_555
H31A C20A 1_555 1_555
H32A C20A 1_555 1_555
C21A C22 1_555 1_555
H33A C21A 1_555 1_555
C22A C21A 1_555 1_555
C23A C22A 1_555 1_555
C24A C23A 1_555 1_555
H34A C24A 1_555 1_555
H35A C24A 1_555 1_555
H36A C24A 1_555 1_555
C25A N2A 1_555 1_555
H37A C25A 1_555 1_555
C26A C25A 1_555 1_555
H38A C26A 1_555 1_555
H39A C26A 1_555 1_555
C27A C26A 1_555 1_555
H40A C27A 1_555 1_555
H41A C27A 1_555 1_555
C28A C27A 1_555 1_555
H42A C28A 1_555 1_555
H43A C28A 1_555 1_555
C29A C28A 1_555 1_555
H44A C29A 1_555 1_555
H45A C29A 1_555 1_555
C30A N1A 1_555 1_555
H46A C30A 1_555 1_555
C31A N3A 1_555 1_555
H47A C31A 1_555 1_555
C32A C31A 1_555 1_555
H48A C32A 1_555 1_555
H49A C32A 1_555 1_555
C33A C32A 1_555 1_555
H50A C33A 1_555 1_555
H51A C33A 1_555 1_555
C34A C33A 1_555 1_555
H52A C34A 1_555 1_555
H53A C34A 1_555 1_555
C35A C34A 1_555 1_555
H54A C35A 1_555 1_555
H55A C35A 1_555 1_555
C36A C31A 1_555 1_555
H56A C36A 1_555 1_555
N1B C23B 1_555 1_555
N2B C19B 1_555 1_555
N3B C17B 1_555 1_555
N4B C10 1_555 1_555
C9B H21B 1_555 1_555
H22B C9B 1_555 1_555
H23B C9B 1_555 1_555
C10B N4A 1_555 1_555
C11B C10B 1_555 1_555
C12B C11B 1_555 1_555
H24B C12B 1_555 1_555
C13B C12B 1_555 1_555
C14B C13B 1_555 1_555
H25B C14B 1_555 1_555
C15B C14B 1_555 1_555
C16B C11B 1_555 1_555
H26B C16B 1_555 1_555
C17B C13B 1_555 1_555
C18B C17B 1_555 1_555
H27B C18B 1_555 1_555
H28B C18B 1_555 1_555
H29B C18B 1_555 1_555
C19B C15B 1_555 1_555
C20B C19B 1_555 1_555
H30B C20B 1_555 1_555
H31B C20B 1_555 1_555
H32B C20B 1_555 1_555
C21B C22A 1_555 1_555
H33B C21B 1_555 1_555
C22B C21 1_555 1_555
C23B C22B 1_555 1_555
C24B C23B 1_555 1_555
H34B C24B 1_555 1_555
H35B C24B 1_555 1_555
H36B C24B 1_555 1_555
C25B N2B 1_555 1_555
H37B C25B 1_555 1_555
C26B C25B 1_555 1_555
H38B C26B 1_555 1_555
H39B C26B 1_555 1_555
C27B C26B 1_555 1_555
H40B C27B 1_555 1_555
H41B C27B 1_555 1_555
C28B C27B 1_555 1_555
H42B C28B 1_555 1_555
H43B C28B 1_555 1_555
C29B C28B 1_555 1_555
H44B C29B 1_555 1_555
H45B C29B 1_555 1_555
C30B N1B 1_555 1_555
H46B C30B 1_555 1_555
C31B N3B 1_555 1_555
H47B C31B 1_555 1_555
C32B C31B 1_555 1_555
H48B C32B 1_555 1_555
H49B C32B 1_555 1_555
C33B C32B 1_555 1_555
H50B C33B 1_555 1_555
H51B C33B 1_555 1_555
C34B C33B 1_555 1_555
H52B C34B 1_555 1_555
H53B C34B 1_555 1_555
C35B C34B 1_555 1_555
H54B C35B 1_555 1_555
H55B C35B 1_555 1_555
C36B N4B 1_555 1_555
H56B C36B 1_555 1_555
N5A C45A 1_555 1_555
N6A C51A 1_555 1_555
N7A C47A 1_555 1_555
N8A C58A 1_555 1_555
C37A H57A 1_555 1_555
H58A C37A 1_555 1_555
H59A C37A 1_555 1_555
C38A N8 1_555 1_555
C39A C38A 1_555 1_555
C40A C39A 1_555 1_555
H60A C40A 1_555 1_555
C41A C40A 1_555 1_555
C42A C41A 1_555 1_555
H61A C42A 1_555 1_555
C43A C42A 1_555 1_555
C44A C39A 1_555 1_555
H62A C44A 1_555 1_555
C45A C41A 1_555 1_555
C46A C45A 1_555 1_555
H63A C46A 1_555 1_555
H64A C46A 1_555 1_555
H65A C46A 1_555 1_555
C47A C43A 1_555 1_555
C48A C47A 1_555 1_555
H66A C48A 1_555 1_555
H67A C48A 1_555 1_555
H68A C48A 1_555 1_555
C49A C50 1_555 1_555
H69A C49A 1_555 1_555
C50A C49A 1_555 1_555
C51A C50A 1_555 1_555
C52A C51A 1_555 1_555
H70A C52A 1_555 1_555
H71A C52A 1_555 1_555
H72A C52A 1_555 1_555
C53A N7A 1_555 1_555
H73A C53A 1_555 1_555
C54A C53A 1_555 1_555
H74A C54A 1_555 1_555
H75A C54A 1_555 1_555
C55A C54A 1_555 1_555
H76A C55A 1_555 1_555
H77A C55A 1_555 1_555
C56A C55A 1_555 1_555
H78A C56A 1_555 1_555
H79A C56A 1_555 1_555
C57A C56A 1_555 1_555
H80A C57A 1_555 1_555
H81A C57A 1_555 1_555
C58A C53A 1_555 1_555
H82A C58A 1_555 1_555
C59A N5A 1_555 1_555
H83A C59A 1_555 1_555
C60A C59A 1_555 1_555
H84A C60A 1_555 1_555
H85A C60A 1_555 1_555
C61A C60A 1_555 1_555
H86A C61A 1_555 1_555
H87A C61A 1_555 1_555
C62A C61A 1_555 1_555
H88A C62A 1_555 1_555
H89A C62A 1_555 1_555
C63A C62A 1_555 1_555
H90A C63A 1_555 1_555
H91A C63A 1_555 1_555
C64A N6A 1_555 1_555
H92A C64A 1_555 1_555
N5B C45B 1_555 1_555
N6B C51B 1_555 1_555
N7B C47B 1_555 1_555
N8B C38 1_555 1_555
C37B H57B 1_555 1_555
H58B C37B 1_555 1_555
H59B C37B 1_555 1_555
C38B N8A 1_555 1_555
C39B C38B 1_555 1_555
C40B C39B 1_555 1_555
H60B C40B 1_555 1_555
C41B C40B 1_555 1_555
C42B C41B 1_555 1_555
H61B C42B 1_555 1_555
C43B C42B 1_555 1_555
C44B C39B 1_555 1_555
H62B C44B 1_555 1_555
C45B C41B 1_555 1_555
C46B C45B 1_555 1_555
H63B C46B 1_555 1_555
H64B C46B 1_555 1_555
H65B C46B 1_555 1_555
C47B C43B 1_555 1_555
C48B C47B 1_555 1_555
H66B C48B 1_555 1_555
H67B C48B 1_555 1_555
H68B C48B 1_555 1_555
C49B C50A 1_555 1_555
H69B C49B 1_555 1_555
C50B C49 1_555 1_555
C51B C50B 1_555 1_555
C52B C51B 1_555 1_555
H70B C52B 1_555 1_555
H71B C52B 1_555 1_555
H72B C52B 1_555 1_555
C53B N7B 1_555 1_555
H73B C53B 1_555 1_555
C54B C53B 1_555 1_555
H74B C54B 1_555 1_555
H75B C54B 1_555 1_555
C55B C54B 1_555 1_555
H76B C55B 1_555 1_555
H77B C55B 1_555 1_555
C56B C55B 1_555 1_555
H78B C56B 1_555 1_555
H79B C56B 1_555 1_555
C57B C56B 1_555 1_555
H80B C57B 1_555 1_555
H81B C57B 1_555 1_555
C58B N8B 1_555 1_555
H82B C58B 1_555 1_555
C59B N5B 1_555 1_555
H83B C59B 1_555 1_555
C60B C59B 1_555 1_555
H84B C60B 1_555 1_555
H85B C60B 1_555 1_555
C61B C60B 1_555 1_555
H86B C61B 1_555 1_555
H87B C61B 1_555 1_555
C62B C61B 1_555 1_555
H88B C62B 1_555 1_555
H89B C62B 1_555 1_555
C63B C62B 1_555 1_555
H90B C63B 1_555 1_555
H91B C63B 1_555 1_555
C64B N6B 1_555 1_555
H92B C64B 1_555 1_555
C15 C16 1_555 1_555
C25 C30 1_555 1_555
C29 C30 1_555 1_555
C35 C36 1_555 1_555
C43 C44 1_555 1_555
C57 C58 1_555 1_555
C59 C64 1_555 1_555
C63 C64 1_555 1_555
C9A C10A 1_555 1_555
C15A C16A 1_555 1_555
C25A C30A 1_555 1_555
C29A C30A 1_555 1_555
C35A C36A 1_555 1_555
C9B C10B 1_555 1_555
C15B C16B 1_555 1_555
C21B C22B 1_555 1_555
C25B C30B 1_555 1_555
C29B C30B 1_555 1_555
C31B C36B 1_555 1_555
C35B C36B 1_555 1_555
C37A C38A 1_555 1_555
C43A C44A 1_555 1_555
C57A C58A 1_555 1_555
C59A C64A 1_555 1_555
C63A C64A 1_555 1_555
C37B C38B 1_555 1_555
C43B C44B 1_555 1_555
C49B C50B 1_555 1_555
C53B C58B 1_555 1_555
C57B C58B 1_555 1_555
C59B C64B 1_555 1_555
C63B C64B 1_555 1_555

#END
