
#######################################################################
#
#                 Cambridge Crystallographic Data Centre
#                                CCDC 
#
#######################################################################
#
# If this CIF has been generated from an entry in the Cambridge 
# Structural Database, then it will include bibliographic, chemical, 
# crystal, experimental, refinement or atomic coordinate data resulting 
# from the CCDC's data processing and validation procedures.
#
#######################################################################

data_TASPUB
_chemical_formula_moiety         'C70 H88 O12'
_symmetry_cell_setting           triclinic
_symmetry_space_group_name_H-M   'P -1'
_symmetry_Int_Tables_number      2
_space_group_name_Hall           '-P 1'
loop_
_symmetry_equiv_pos_site_id
_symmetry_equiv_pos_as_xyz
1 x,y,z
2 -x,-y,-z
_cell_length_a                   10.7372(9)
_cell_length_b                   11.7516(8)
_cell_length_c                   13.5410(11)
_cell_angle_alpha                95.142(6)
_cell_angle_beta                 94.750(7)
_cell_angle_gamma                102.165(6)
_cell_volume                     1654.41
loop_
_atom_site_label
_atom_site_type_symbol
_atom_site_fract_x
_atom_site_fract_y
_atom_site_fract_z
O1 O 0.5485(3) 0.8463(2) 0.3827(2)
O2 O 0.7639(3) 1.0254(3) 0.7643(2)
O3 O 0.7386(3) 0.8810(3) 0.1913(2)
O4 O 0.9348(3) 0.6044(2) 0.4464(3)
O5 O 0.5546(3) 0.6651(2) 0.6996(3)
O6 O 0.0753(3) 0.7044(2) 0.7989(3)
C1 C 0.5983(4) 0.8884(3) 0.4788(3)
C2 C 0.4239(4) 0.7721(4) 0.3676(4)
H1 H 0.3612 0.8142 0.3903
H2 H 0.4212 0.7047 0.4045
C3 C 0.7225(4) 0.9534(3) 0.4885(3)
C4 C 0.5329(4) 0.8684(3) 0.5625(3)
H3 H 0.4493 0.8243 0.5543
C5 C 0.3956(6) 0.7336(5) 0.2579(4)
H4 H 0.3947 0.8007 0.2225
H5 H 0.3136 0.6803 0.2452
H6 H 0.4606 0.6952 0.2358
C6 C 0.7804(4) 0.9985(3) 0.5841(3)
H7 H 0.8645 1.0416 0.5921
C7 C 0.7934(4) 0.9688(3) 0.3970(3)
H8 H 0.8737 1.0257 0.4146
H9 H 0.7426 0.9989 0.3472
C8 C 0.5896(4) 0.9124(3) 0.6570(3)
C9 C 0.7148(4) 0.9802(3) 0.6679(3)
C10 C 0.8207(4) 0.8538(3) 0.3532(3)
C11 C 0.5218(4) 0.8929(3) 0.7502(4)
H10 H 0.5854 0.8885 0.8041
H11 H 0.4877 0.9612 0.7678
C12 C 0.8727(4) 0.7850(3) 0.4156(3)
H12 H 0.8942 0.8128 0.4827
C13 C 0.7897(4) 0.8117(3) 0.2526(3)
C14 C 0.4141(4) 0.7857(3) 0.7447(3)
C15 C 0.8842(5) 1.1054(5) 0.7790(4)
H13 H 0.8831 1.1704 0.7398
H14 H 0.9513 1.0670 0.7594
C16 C 0.8939(4) 0.6774(3) 0.3826(4)
C17 C 0.8129(4) 0.7038(3) 0.2191(4)
H15 H 0.7922 0.6760 0.1520
C18 C 0.2936(4) 0.7968(3) 0.7711(3)
H16 H 0.2789 0.8710 0.7875
C19 C 0.4319(4) 0.6739(3) 0.7195(3)
C20 C 0.9066(6) 1.1482(6) 0.8889(5)
H17 H 0.9852 1.2064 0.9021
H18 H 0.9122 1.0836 0.9264
H19 H 0.8368 1.1816 0.9079
C21 C 0.8659(4) 0.6360(3) 0.2824(4)
C22 C 0.6847(5) 0.8271(5) 0.0922(4)
H20 H 0.6247 0.7538 0.0962
H21 H 0.7521 0.8111 0.0532
C23 C 0.1957(4) 0.6990(3) 0.7734(3)
C24 C 0.3339(4) 0.5756(3) 0.7209(4)
H22 H 0.3487 0.5015 0.7039
C25 C 1.0226(4) 0.6562(4) 0.5323(4)
H23 H 1.0243 0.5988 0.5794
H24 H 0.9936 0.7214 0.5648
C26 C 0.8919(4) 0.5199(3) 0.2438(4)
H25 H 0.9702 0.5102 0.2798
H26 H 0.9064 0.5219 0.1742
C27 C 0.6178(7) 0.9101(5) 0.0444(4)
H27 H 0.5735 0.8733 -0.0187
H28 H 0.6794 0.9790 0.0341
H29 H 0.5573 0.9317 0.0868
C28 C 0.2145(4) 0.5867(3) 0.7473(3)
C29 C 0.5653(5) 0.5723(5) 0.6300(5)
H30 H 0.5037 0.5661 0.5721
H31 H 0.5478 0.4991 0.6595
C30 C 1.1545(5) 0.6983(5) 0.5035(5)
H32 H 1.1529 0.7557 0.4575
H33 H 1.1839 0.6335 0.4726
H34 H 1.2113 0.7329 0.5619
C31 C 0.0474(5) 0.8162(4) 0.8197(4)
H35 H 0.0578 0.8595 0.7621
H36 H 0.1051 0.8605 0.8755
C32 C 0.6981(6) 0.5957(5) 0.5997(5)
H37 H 0.7028 0.5402 0.5443
H38 H 0.7573 0.5884 0.6546
H39 H 0.7196 0.6736 0.5805
C33 C -0.0892(5) 0.7974(5) 0.8446(5)
H40 H -0.1459 0.7590 0.7871
H41 H -0.1089 0.8716 0.8641
H42 H -0.0999 0.7495 0.8984
O1A O 0.4515(3) 0.1537(2) 0.6173(2)
O2A O 0.2361(3) -0.0254(3) 0.2357(2)
O3A O 0.2614(3) 0.1190(3) 0.8087(2)
O4A O 0.0652(3) 0.3956(2) 0.5536(3)
O5A O 0.4454(3) 0.3349(2) 0.3004(3)
O6A O 0.9247(3) 0.2956(2) 0.2011(3)
C1A C 0.4017(4) 0.1116(3) 0.5212(3)
C2A C 0.5761(4) 0.2279(4) 0.6324(4)
H1A H 0.6388 0.1858 0.6097
H2A H 0.5788 0.2953 0.5955
C3A C 0.2775(4) 0.0466(3) 0.5115(3)
C4A C 0.4671(4) 0.1316(3) 0.4375(3)
H3A H 0.5507 0.1757 0.4457
C5A C 0.6044(6) 0.2664(5) 0.7421(4)
H4A H 0.6053 0.1993 0.7775
H5A H 0.6864 0.3197 0.7548
H6A H 0.5394 0.3048 0.7642
C6A C 0.2196(4) 0.0015(3) 0.4159(3)
H7A H 0.1355 -0.0416 0.4079
C7A C 0.2066(4) 0.0312(3) 0.6030(3)
H8A H 0.1263 -0.0257 0.5854
H9A H 0.2574 0.0011 0.6528
C8A C 0.4104(4) 0.0876(3) 0.3430(3)
C9A C 0.2852(4) 0.0198(3) 0.3321(3)
C10A C 0.1793(4) 0.1462(3) 0.6468(3)
C11A C 0.4782(4) 0.1071(3) 0.2498(4)
H10A H 0.4146 0.1115 0.1959
H11A H 0.5123 0.0388 0.2322
C12A C 0.1273(4) 0.2150(3) 0.5844(3)
H12A H 0.1058 0.1872 0.5173
C13A C 0.2103(4) 0.1883(3) 0.7474(3)
C14A C 0.5859(4) 0.2143(3) 0.2553(3)
C15A C 0.1158(5) -0.1054(5) 0.2210(4)
H13A H 0.1169 -0.1704 0.2602
H14A H 0.0487 -0.0670 0.2406
C16A C 0.1061(4) 0.3226(3) 0.6174(4)
C17A C 0.1871(4) 0.2962(3) 0.7809(4)
H15A H 0.2078 0.3240 0.8480
C18A C 0.7064(4) 0.2032(3) 0.2289(3)
H16A H 0.7211 0.1290 0.2125
C19A C 0.5681(4) 0.3261(3) 0.2805(3)
C20A C 0.0934(6) -0.1482(6) 0.1111(5)
H17A H 0.0148 -0.2064 0.0979
H18A H 0.0878 -0.0836 0.0736
H19A H 0.1632 -0.1816 0.0921
C21A C 0.1341(4) 0.3640(3) 0.7176(4)
C22A C 0.3153(5) 0.1729(5) 0.9078(4)
H20A H 0.3753 0.2462 0.9038
H21A H 0.2479 0.1889 0.9468
C23A C 0.8043(4) 0.3010(3) 0.2266(3)
C24A C 0.6661(4) 0.4244(3) 0.2791(4)
H22A H 0.6513 0.4985 0.2961
C25A C -0.0226(4) 0.3438(4) 0.4677(4)
H23A H -0.0243 0.4012 0.4206
H24A H 0.0064 0.2786 0.4352
C26A C 0.1081(4) 0.4801(3) 0.7562(4)
H25A H 0.0298 0.4898 0.7202
H26A H 0.0936 0.4781 0.8258
C27A C 0.3822(7) 0.0899(5) 0.9556(4)
H27A H 0.4265 0.1267 1.0187
H28A H 0.3206 0.0210 0.9659
H29A H 0.4427 0.0683 0.9132
C28A C 0.7855(4) 0.4133(3) 0.2527(3)
C29A C 0.4347(5) 0.4277(5) 0.3700(5)
H30A H 0.4963 0.4339 0.4279
H31A H 0.4522 0.5009 0.3405
C30A C -0.1545(5) 0.3017(5) 0.4965(5)
H32A H -0.1529 0.2443 0.5425
H33A H -0.1839 0.3665 0.5274
H34A H -0.2113 0.2671 0.4381
C31A C 0.9526(5) 0.1838(4) 0.1803(4)
H35A H 0.9422 0.1405 0.2379
H36A H 0.8949 0.1395 0.1245
C32A C 0.3019(6) 0.4043(5) 0.4003(5)
H37A H 0.2972 0.4598 0.4557
H38A H 0.2427 0.4116 0.3454
H39A H 0.2804 0.3264 0.4195
C33A C 1.0892(5) 0.2026(5) 0.1554(5)
H40A H 1.1459 0.2410 0.2129
H41A H 1.1089 0.1284 0.1359
H42A H 1.0999 0.2505 0.1016
C34? C 0.4867(16) 0.5970(13) -0.0664(12)
H43? H 0.5097 0.6501 -0.1122
C35? C 0.5677(12) 0.5247(15) -0.0389(13)
C36? C 0.5332(12) 0.4454(12) 0.0295(12)
H44? H 0.5875 0.3970 0.0479
C37? C 0.4177(13) 0.4383(11) 0.0705(10)
H45? H 0.3947 0.3852 0.1163
C38? C 0.3367(10) 0.5106(13) 0.0431(11)
H46? H 0.2594 0.5059 0.0705
C39? C 0.3712(13) 0.5900(12) -0.0254(12)
H47? H 0.3169 0.6384 -0.0437
C40? C 0.7019(16) 0.5383(16) -0.0781(14)
H48? H 0.7331 0.5921 -0.1214
C41? C 0.772(2) 0.457(2) -0.039(2)
H49? H 0.7351 0.4052 0.0041
H50? H 0.8534 0.4562 -0.0568
loop_
_geom_bond_atom_site_label_1
_geom_bond_atom_site_label_2
_geom_bond_site_symmetry_1
_geom_bond_site_symmetry_2
O1 C1 1_555 1_555
O2 C9 1_555 1_555
O3 C13 1_555 1_555
O4 C16 1_555 1_555
O5 C19 1_555 1_555
O6 C23 1_555 1_555
C1 C3 1_555 1_555
C2 O1 1_555 1_555
H1 C2 1_555 1_555
H2 C2 1_555 1_555
C3 C6 1_555 1_555
C4 C1 1_555 1_555
H3 C4 1_555 1_555
C5 C2 1_555 1_555
H4 C5 1_555 1_555
H5 C5 1_555 1_555
H6 C5 1_555 1_555
C6 H7 1_555 1_555
C7 C3 1_555 1_555
H8 C7 1_555 1_555
H9 C7 1_555 1_555
C8 C4 1_555 1_555
C9 C6 1_555 1_555
C10 C7 1_555 1_555
C11 C8 1_555 1_555
H10 C11 1_555 1_555
H11 C11 1_555 1_555
C12 C10 1_555 1_555
H12 C12 1_555 1_555
C13 C10 1_555 1_555
C14 C11 1_555 1_555
C15 O2 1_555 1_555
H13 C15 1_555 1_555
H14 C15 1_555 1_555
C16 C12 1_555 1_555
C17 C13 1_555 1_555
H15 C17 1_555 1_555
C18 C14 1_555 1_555
H16 C18 1_555 1_555
C19 C14 1_555 1_555
C20 C15 1_555 1_555
H17 C20 1_555 1_555
H18 C20 1_555 1_555
H19 C20 1_555 1_555
C21 C16 1_555 1_555
C22 O3 1_555 1_555
H20 C22 1_555 1_555
H21 C22 1_555 1_555
C23 C18 1_555 1_555
C24 C19 1_555 1_555
H22 C24 1_555 1_555
C25 O4 1_555 1_555
H23 C25 1_555 1_555
H24 C25 1_555 1_555
C26 C21 1_555 1_555
H25 C26 1_555 1_555
H26 C26 1_555 1_555
C27 C22 1_555 1_555
H27 C27 1_555 1_555
H28 C27 1_555 1_555
H29 C27 1_555 1_555
C28 C23 1_555 1_555
C29 O5 1_555 1_555
H30 C29 1_555 1_555
H31 C29 1_555 1_555
C30 C25 1_555 1_555
H32 C30 1_555 1_555
H33 C30 1_555 1_555
H34 C30 1_555 1_555
C31 O6 1_555 1_555
H35 C31 1_555 1_555
H36 C31 1_555 1_555
C32 C29 1_555 1_555
H37 C32 1_555 1_555
H38 C32 1_555 1_555
H39 C32 1_555 1_555
C33 C31 1_555 1_555
H40 C33 1_555 1_555
H41 C33 1_555 1_555
H42 C33 1_555 1_555
O1A C1A 1_555 1_555
O2A C9A 1_555 1_555
O3A C13A 1_555 1_555
O4A C16A 1_555 1_555
O5A C19A 1_555 1_555
O6A C23A 1_555 1_555
C1A C3A 1_555 1_555
C2A O1A 1_555 1_555
H1A C2A 1_555 1_555
H2A C2A 1_555 1_555
C3A C6A 1_555 1_555
C4A C1A 1_555 1_555
H3A C4A 1_555 1_555
C5A C2A 1_555 1_555
H4A C5A 1_555 1_555
H5A C5A 1_555 1_555
H6A C5A 1_555 1_555
C6A H7A 1_555 1_555
C7A C3A 1_555 1_555
H8A C7A 1_555 1_555
H9A C7A 1_555 1_555
C8A C4A 1_555 1_555
C9A C6A 1_555 1_555
C10A C7A 1_555 1_555
C11A C8A 1_555 1_555
H10A C11A 1_555 1_555
H11A C11A 1_555 1_555
C12A C10A 1_555 1_555
H12A C12A 1_555 1_555
C13A C10A 1_555 1_555
C14A C11A 1_555 1_555
C15A O2A 1_555 1_555
H13A C15A 1_555 1_555
H14A C15A 1_555 1_555
C16A C12A 1_555 1_555
C17A C13A 1_555 1_555
H15A C17A 1_555 1_555
C18A C14A 1_555 1_555
H16A C18A 1_555 1_555
C19A C14A 1_555 1_555
C20A C15A 1_555 1_555
H17A C20A 1_555 1_555
H18A C20A 1_555 1_555
H19A C20A 1_555 1_555
C21A C16A 1_555 1_555
C22A O3A 1_555 1_555
H20A C22A 1_555 1_555
H21A C22A 1_555 1_555
C23A C18A 1_555 1_555
C24A C19A 1_555 1_555
H22A C24A 1_555 1_555
C25A O4A 1_555 1_555
H23A C25A 1_555 1_555
H24A C25A 1_555 1_555
C26A C28 1_555 1_555
H25A C26A 1_555 1_555
H26A C26A 1_555 1_555
C27A C22A 1_555 1_555
H27A C27A 1_555 1_555
H28A C27A 1_555 1_555
H29A C27A 1_555 1_555
C28A C26 1_555 1_555
C29A O5A 1_555 1_555
H30A C29A 1_555 1_555
H31A C29A 1_555 1_555
C30A C25A 1_555 1_555
H32A C30A 1_555 1_555
H33A C30A 1_555 1_555
H34A C30A 1_555 1_555
C31A O6A 1_555 1_555
H35A C31A 1_555 1_555
H36A C31A 1_555 1_555
C32A C29A 1_555 1_555
H37A C32A 1_555 1_555
H38A C32A 1_555 1_555
H39A C32A 1_555 1_555
C33A C31A 1_555 1_555
H40A C33A 1_555 1_555
H41A C33A 1_555 1_555
H42A C33A 1_555 1_555
C8 C9 1_555 1_555
C17 C21 1_555 1_555
C24 C28 1_555 1_555
C8A C9A 1_555 1_555
C17A C21A 1_555 1_555
C21A C26A 1_555 1_555
C23A C28A 1_555 1_555
C24A C28A 1_555 1_555

#END
