
#######################################################################
#
#                 Cambridge Crystallographic Data Centre
#                                CCDC 
#
#######################################################################
#
# If this CIF has been generated from an entry in the Cambridge 
# Structural Database, then it will include bibliographic, chemical, 
# crystal, experimental, refinement or atomic coordinate data resulting 
# from the CCDC's data processing and validation procedures.
#
#######################################################################

data_TASQEM
_chemical_formula_moiety         'C141 H189 O20'
_symmetry_cell_setting           monoclinic
_symmetry_space_group_name_H-M   'P 21/n'
_symmetry_Int_Tables_number      14
_space_group_name_Hall           '-P 2yn'
loop_
_symmetry_equiv_pos_site_id
_symmetry_equiv_pos_as_xyz
1 x,y,z
2 1/2-x,1/2+y,1/2-z
3 -x,-y,-z
4 1/2+x,1/2-y,1/2+z
_cell_length_a                   13.5000(8)
_cell_length_b                   20.6046(12)
_cell_length_c                   43.205(3)
_cell_angle_alpha                90
_cell_angle_beta                 96.4750(10)
_cell_angle_gamma                90
_cell_volume                     11941.3
loop_
_atom_site_label
_atom_site_type_symbol
_atom_site_fract_x
_atom_site_fract_y
_atom_site_fract_z
O1 O -0.04901(17) 0.86099(12) 0.62211(6)
O2 O 0.2400(2) 0.75823(13) 0.56286(6)
O3 O 0.56503(19) 0.86843(13) 0.63280(8)
O4 O 0.4039(2) 0.96852(13) 0.52585(7)
O5 O 0.2883(2) 0.76315(14) 0.69072(7)
O6 O -0.0824(2) 1.10443(13) 0.62908(7)
O7 O 0.1184(2) 0.96254(13) 0.72455(6)
O8 O 0.2116(2) 1.16473(15) 0.56335(8)
O9 O 0.5493(2) 1.10558(14) 0.63137(8)
O10 O 0.2708(2) 1.17706(17) 0.69151(8)
C1 C 0.0363(2) 0.83685(15) 0.63820(8)
C2 C 0.0517(2) 0.85174(15) 0.66980(8)
C3 C 0.1042(2) 0.79776(15) 0.62498(8)
H1 H 0.0925 0.7874 0.6037
C4 C -0.0216(3) 0.89498(16) 0.68470(8)
H2 H -0.0895 0.8854 0.6753
H3 H -0.0180 0.8848 0.7070
C5 C 0.1885(2) 0.77369(15) 0.64246(8)
C6 C 0.2041(3) 0.78908(16) 0.67383(8)
C7 C 0.3356(2) 0.77364(15) 0.61126(8)
C8 C 0.3220(3) 0.78670(16) 0.57964(9)
C9 C 0.2617(2) 0.73250(16) 0.62686(8)
H4 H 0.2248 0.7046 0.6112
H5 H 0.2984 0.7044 0.6425
C10 C 0.1350(3) 0.82804(16) 0.68716(8)
H6 H 0.1462 0.8381 0.7085
C11 C 0.4690(3) 0.85491(17) 0.58433(10)
C12 C 0.4454(3) 1.10073(17) 0.58427(10)
C13 C 0.4163(3) 0.80078(16) 0.62912(9)
H7 H 0.4265 0.7917 0.6506
C14 C 0.4829(3) 0.84107(17) 0.61612(10)
C15 C 0.0716(3) 0.99836(18) 0.70067(9)
C16 C -0.0008(3) 0.96667(17) 0.68083(9)
C17 C 0.3886(3) 0.82671(16) 0.56628(9)
H8 H 0.3791 0.8348 0.5447
C18 C 0.3218(3) 1.17055(16) 0.60948(11)
C19 C 0.4096(3) 1.06739(17) 0.55730(10)
H9 H 0.3650 1.0883 0.5422
C20 C 0.4383(3) 1.00351(18) 0.55207(10)
C21 C 0.1454(3) 1.16814(17) 0.61366(11)
H10 H 0.0796 1.1666 0.6039
C22 C 0.2233(3) 1.16779(17) 0.59529(10)
C23 C 0.1609(3) 1.17069(16) 0.64579(11)
C24 C 0.3368(3) 1.17436(17) 0.64152(10)
H11 H 0.4023 1.1772 0.6515
C25 C 0.5054(3) 0.97228(18) 0.57389(10)
C26 C 0.0429(3) 1.09883(17) 0.67106(9)
C27 C -0.0643(3) 0.85107(18) 0.58930(9)
H12 H -0.0674 0.8045 0.5846
H13 H -0.0093 0.8701 0.5794
C28 C -0.0529(3) 1.00238(17) 0.65727(9)
H14 H -0.1035 0.9821 0.6440
C29 C 0.5119(3) 1.06964(19) 0.60539(11)
C30 C -0.0323(3) 1.06797(18) 0.65278(9)
C31 C 0.2580(3) 1.17413(18) 0.65947(11)
C32 C 0.4085(3) 1.16937(17) 0.58990(10)
H15 H 0.4637 1.1948 0.6004
H16 H 0.3878 1.1900 0.5698
C33 C 0.5365(3) 0.90182(17) 0.56988(10)
H17 H 0.5349 0.8922 0.5476
H18 H 0.6051 0.8959 0.5795
C34 C 0.0936(3) 1.06423(18) 0.69542(10)
H19 H 0.1437 1.0850 0.7087
C35 C 0.0741(3) 1.16847(17) 0.66478(10)
H20 H 0.0175 1.1917 0.6536
H21 H 0.0923 1.1907 0.6847
C36 C 0.5422(3) 1.00651(19) 0.60039(11)
H22 H 0.5885 0.9865 0.6153
C37 C -0.1794(4) 1.0835(2) 0.61672(11)
H23 H -0.2199 1.0746 0.6337
H24 H -0.1748 1.0435 0.6047
C38 C 0.5769(3) 0.8607(2) 0.66551(13)
H25 H 0.5793 0.8144 0.6708
H26 H 0.5204 0.8803 0.6744
C39 C -0.2265(4) 1.1356(2) 0.59633(12)
H27 H -0.1860 1.1441 0.5796
H28 H -0.2316 1.1748 0.6085
H29 H -0.2925 1.1219 0.5876
C40 C 0.3432(4) 1.0008(2) 0.50177(11)
H30 H 0.3794 1.0374 0.4940
H31 H 0.2828 1.0175 0.5097
C41 C -0.1604(3) 0.8830(2) 0.57730(10)
H32 H -0.1734 0.8760 0.5550
H33 H -0.1559 0.9292 0.5816
H34 H -0.2141 0.8644 0.5875
C42 C 0.3159(4) 0.9525(2) 0.47605(11)
H35 H 0.2764 0.9738 0.4589
H36 H 0.2776 0.9174 0.4838
H37 H 0.3762 0.9351 0.4689
C43 C 0.1141(4) 1.1699(3) 0.54766(12)
H38 H 0.0864 1.2130 0.5511
H39 H 0.0705 1.1372 0.5554
C44 C 0.1725(4) 0.9945(2) 0.74962(11)
H40 H 0.1316 1.0284 0.7577
H41 H 0.2322 1.0147 0.7429
C45 C 0.2247(4) 0.7647(3) 0.53092(11)
H42 H 0.2825 0.7481 0.5215
H43 H 0.2156 0.8105 0.5253
C46 C 0.5790(5) 1.0732(3) 0.65923(14)
H44 H 0.6309 1.0414 0.6562
H45 H 0.5223 1.0503 0.6664
C47 C 0.2010(5) 0.9460(3) 0.77386(12)
H46 H 0.2491 0.9162 0.7667
H47 H 0.1424 0.9222 0.7783
H48 H 0.2304 0.9677 0.7926
C48 C 0.6718(4) 0.8929(3) 0.67852(15)
H49 H 0.7272 0.8738 0.6693
H50 H 0.6816 0.8869 0.7009
H51 H 0.6681 0.9389 0.6738
C49 C 0.3216(4) 0.7868(4) 0.71871(14)
H52 H 0.2698 0.7830 0.7328
H53 H 0.3384 0.8329 0.7170
C50 C 0.1214(5) 1.1597(4) 0.51411(16)
H54 H 0.0550 1.1585 0.5029
H55 H 0.1551 1.1189 0.5112
H56 H 0.1590 1.1950 0.5062
C51 C 0.1327(5) 0.7266(3) 0.51921(13)
H57 H 0.1187 0.7321 0.4968
H58 H 0.0765 0.7421 0.5293
H59 H 0.1436 0.6809 0.5240
C52 C 0.4132(5) 0.7489(4) 0.73155(14)
H60 H 0.4684 0.7600 0.7200
H61 H 0.3995 0.7028 0.7295
H62 H 0.4303 0.7597 0.7534
C53 C 0.3616(5) 1.1958(5) 0.70689(17)
H63 H 0.4131 1.1839 0.6936
H64 H 0.3734 1.1696 0.7259
C54 C 0.6176(5) 1.1218(3) 0.68222(16)
H65 H 0.6760 1.1424 0.6754
H66 H 0.6355 1.1009 0.7022
H67 H 0.5667 1.1543 0.6843
C55 C 0.3784(13) 1.2645(7) 0.7161(6)
H68 H 0.3743 1.2914 0.6975
H69 H 0.4439 1.2690 0.7276
H70 H 0.3279 1.2781 0.7290
O11 O 0.43792(17) 0.61167(12) 0.61122(6)
O12 O 1.05413(18) 0.61933(13) 0.63730(6)
O13 O 0.58027(19) 0.51314(12) 0.71753(6)
O14 O 0.75010(19) 0.71793(13) 0.68878(6)
O15 O 0.9069(2) 0.52043(12) 0.53022(6)
O16 O 0.7295(2) 0.71606(14) 0.56228(6)
O17 O 0.7610(2) 0.30217(14) 0.68696(6)
O18 O 0.4206(2) 0.36905(13) 0.61597(7)
O19 O 0.7186(2) 0.31649(15) 0.55828(7)
O20 O 1.0545(2) 0.37086(14) 0.63092(7)
C56 C 0.5167(2) 0.63803(15) 0.62992(8)
C57 C 0.9719(2) 0.64419(16) 0.61945(8)
C58 C 0.5871(2) 0.67865(15) 0.61893(8)
H71 H 0.5820 0.6884 0.5975
C59 C 0.9013(2) 0.68343(15) 0.63084(8)
H72 H 0.9086 0.6944 0.6521
C60 C 0.5233(2) 0.62357(15) 0.66148(8)
C61 C 0.9629(2) 0.62768(16) 0.58801(8)
C62 C 0.6644(2) 0.70514(15) 0.63860(8)
C63 C 0.8199(3) 0.70696(15) 0.61168(8)
C64 C 0.5430(3) 0.47622(17) 0.69213(8)
C65 C 0.6711(3) 0.69078(16) 0.67015(8)
C66 C 0.5299(3) 0.37663(16) 0.66226(9)
C67 C 0.6006(3) 0.65052(16) 0.68123(8)
H73 H 0.6053 0.6413 0.7026
C68 C 0.4486(3) 0.57793(16) 0.67375(9)
H74 H 0.3825 0.5859 0.6625
H75 H 0.4450 0.5873 0.6958
C69 C 0.8109(3) 0.69107(17) 0.58045(8)
C70 C 0.4755(2) 0.50682(16) 0.67022(8)
C71 C 0.9415(3) 0.48224(18) 0.55521(8)
C72 C 0.9128(3) 0.41782(18) 0.55840(8)
H76 H 0.8674 0.3990 0.5429
C73 C 0.6560(3) 0.30653(15) 0.63953(9)
C74 C 1.0375(3) 0.58216(17) 0.57527(9)
H77 H 1.0420 0.5927 0.5534
H78 H 1.1035 0.5889 0.5868
C75 C 0.5699(3) 0.41151(16) 0.68811(8)
H79 H 0.6157 0.3914 0.7031
C76 C 1.0081(3) 0.51127(17) 0.57787(9)
C77 C 0.5656(3) 0.30769(16) 0.65716(9)
H80 H 0.5820 0.2865 0.6774
H81 H 0.5116 0.2830 0.6455
C78 C 0.8229(3) 0.30919(16) 0.60563(9)
C79 C 0.8822(3) 0.65194(16) 0.56889(8)
H82 H 0.8754 0.6417 0.5476
C80 C 0.7420(2) 0.74744(16) 0.62533(8)
H83 H 0.7088 0.7757 0.6091
H84 H 0.7746 0.7751 0.6419
C81 C 0.4344(3) 0.47148(17) 0.64485(9)
H85 H 0.3881 0.4914 0.6299
C82 C 0.9496(3) 0.38100(17) 0.58398(9)
C83 C 0.6454(3) 0.31001(16) 0.60727(9)
H86 H 0.5809 0.3113 0.5965
C84 C 0.4605(3) 0.40633(17) 0.64082(9)
C85 C 0.9133(3) 0.31164(17) 0.58786(9)
H87 H 0.8965 0.2921 0.5673
H88 H 0.9672 0.2860 0.5990
C86 C 1.0460(3) 0.47430(18) 0.60320(9)
H89 H 1.0914 0.4932 0.6187
C87 C 1.0183(3) 0.40972(19) 0.60622(9)
C88 C 0.7274(3) 0.31161(17) 0.59045(9)
C89 C 0.7520(3) 0.30328(17) 0.65473(9)
C90 C 0.8334(3) 0.30466(17) 0.63771(9)
H90 H 0.8979 0.3024 0.6484
C91 C 1.0665(3) 0.6333(2) 0.66964(9)
H91 H 1.0087 0.6177 0.6793
H92 H 1.0724 0.6803 0.6730
C92 C 0.4303(3) 0.6243(2) 0.57865(9)
H93 H 0.4896 0.6081 0.5700
H94 H 0.4249 0.6711 0.5748
C93 C 0.6375(3) 0.48216(19) 0.74272(9)
H95 H 0.6974 0.4628 0.7358
H96 H 0.5985 0.4477 0.7512
C94 C 0.8311(3) 0.5434(2) 0.47987(10)
H97 H 0.7969 0.5244 0.4611
H98 H 0.8927 0.5633 0.4752
H99 H 0.7888 0.5761 0.4878
C95 C 0.6658(3) 0.5330(2) 0.76714(9)
H100 H 0.7066 0.5659 0.7587
H101 H 0.7031 0.5129 0.7851
H102 H 0.6059 0.5529 0.7733
C96 C 0.8539(3) 0.4916(2) 0.50387(9)
H103 H 0.7920 0.4722 0.5094
H104 H 0.8941 0.4573 0.4957
C97 C 0.7502(3) 0.7180(3) 0.72099(9)
H105 H 0.7519 0.6733 0.7288
H106 H 0.6895 0.7389 0.7266
C98 C 0.7234(4) 0.7106(3) 0.53048(11)
H107 H 0.7180 0.6648 0.5243
H108 H 0.7833 0.7288 0.5229
C99 C 0.8504(4) 0.2793(3) 0.70373(11)
H109 H 0.8529 0.2938 0.7254
H110 H 0.9072 0.2987 0.6949
C100 C 0.3393(3) 0.5904(2) 0.56378(11)
H111 H 0.3305 0.5999 0.5416
H112 H 0.2815 0.6053 0.5732
H113 H 0.3469 0.5440 0.5668
C101 C 0.6278(4) 0.3009(3) 0.54007(12)
H114 H 0.6294 0.3174 0.5189
H115 H 0.5725 0.3222 0.5489
C102 C 1.1589(3) 0.6000(3) 0.68370(11)
H116 H 1.2149 0.6138 0.6731
H117 H 1.1505 0.5534 0.6815
H118 H 1.1713 0.6111 0.7056
C103 C 0.8604(4) 0.2081(3) 0.70325(13)
H119 H 0.8589 0.1933 0.6819
H120 H 0.8058 0.1885 0.7127
H121 H 0.9232 0.1956 0.7149
C104 C 0.8399(4) 0.7542(3) 0.73513(12)
H122 H 0.8333 0.7997 0.7296
H123 H 0.8991 0.7365 0.7274
H124 H 0.8457 0.7498 0.7576
C105 C 0.6104(4) 0.2275(3) 0.53898(14)
H125 H 0.5484 0.2182 0.5262
H126 H 0.6068 0.2114 0.5599
H127 H 0.6651 0.2065 0.5302
C106 C 0.3431(5) 0.3917(3) 0.59574(14)
H128 H 0.3664 0.4267 0.5830
H129 H 0.2909 0.4091 0.6074
C107 C 0.3017(6) 0.3374(3) 0.57511(15)
H130 H 0.2435 0.3526 0.5619
H131 H 0.2829 0.3017 0.5878
H132 H 0.3518 0.3229 0.5623
C108 C 1.1248(5) 0.3952(3) 0.65369(14)
H133 H 1.0957 0.4295 0.6655
H134 H 1.1816 0.4133 0.6443
C109 C 0.6326(5) 0.7471(4) 0.51677(13)
H135 H 0.6255 0.7428 0.4943
H136 H 0.6397 0.7926 0.5223
H137 H 0.5740 0.7295 0.5248
C110 C 1.1579(7) 0.3388(3) 0.67467(19)
H138 H 1.1961 0.3086 0.6635
H139 H 1.0998 0.3170 0.6810
H140 H 1.1990 0.3547 0.6930
C111 C 0.1796(2) 0.97131(17) 0.58820(8)
C112 C 0.0948(3) 1.00561(16) 0.59383(8)
H141 H 0.0912 1.0250 0.6134
C113 C 0.0153(2) 1.01130(16) 0.57056(11)
H142 H -0.0420 1.0345 0.5744
C114 C 0.0207(2) 0.98269(19) 0.54166(9)
H143 H -0.0331 0.9865 0.5259
C115 C 0.1055(3) 0.94839(18) 0.53603(7)
H144 H 0.1091 0.9290 0.5165
C116 C 0.1849(2) 0.94270(16) 0.55930(9)
H145 H 0.2423 0.9195 0.5555
C117 C 0.2705(5) 0.9642(4) 0.61168(15)
H146 H 0.2989 0.9212 0.6089
H147 H 0.3198 0.9962 0.6065
C118 C 0.2587(6) 0.9716(4) 0.64391(15)
H148 H 0.2327 1.0145 0.6475
H149 H 0.3228 0.9662 0.6562
H150 H 0.2126 0.9390 0.6499
C119 C 0.8285(6) 0.5067(4) 0.6749(2)
C120 C 0.8934(8) 0.4544(4) 0.6800(2)
H151 H 0.8928 0.4211 0.6651
C121 C 0.9593(8) 0.4515(4) 0.7071(3)
H152 H 1.0032 0.4162 0.7106
C122 C 0.9602(7) 0.5007(5) 0.7291(2)
H153 H 1.0048 0.4987 0.7474
C123 C 0.8953(7) 0.5530(4) 0.7240(2)
H154 H 0.8959 0.5863 0.7389
C124 C 0.8294(6) 0.5559(4) 0.6969(2)
H155 H 0.7855 0.5912 0.6934
C125 C 0.7546(10) 0.5157(8) 0.6470(3)
H156 H 0.6975 0.4890 0.6512
H157 H 0.7326 0.5608 0.6484
C126 C 0.763(2) 0.5056(17) 0.6135(3)
H158 H 0.8146 0.5334 0.6071
H159 H 0.7790 0.4606 0.6099
H160? H 0.3820 1.2372 0.6983
H161? H 0.4123 1.1632 0.7036
H162? H 0.3675 0.4534 0.4660
C127? C 0.8392(16) 0.5320(12) 0.6919(4)
H163? H 0.8443 0.5792 0.6897
H164? H 0.7710 0.5233 0.6965
C128? C 0.3548(10) 1.2032(11) 0.7406(2)
H165? H 0.2945 1.2268 0.7436
H166? H 0.4124 1.2269 0.7501
H167? H 0.3530 1.1606 0.7501
C129? C 0.846(2) 0.5038(13) 0.6592(5)
H168? H 0.8047 0.5291 0.6438
H169? H 0.8235 0.4591 0.6585
H170? H 0.9149 0.5054 0.6546
C130? C 0.9055(7) 0.5150(6) 0.7211(2)
C131? C 0.9165(8) 0.4480(6) 0.7232(3)
H171? H 0.8764 0.4210 0.7094
C132? C 0.9868(10) 0.4211(4) 0.7455(3)
H172? H 0.9943 0.3758 0.7468
C133? C 1.0461(8) 0.4611(6) 0.7658(2)
H173? H 1.0937 0.4429 0.7809
C134? C 1.0351(8) 0.5281(6) 0.7638(3)
H174? H 1.0753 0.5552 0.7775
C135? C 0.9649(9) 0.5551(4) 0.7414(3)
H175? H 0.9574 0.6004 0.7401
C136? C 0.5831(15) 0.4621(11) 0.5613(3)
H176? H 0.5320 0.4586 0.5756
H177? H 0.6146 0.4193 0.5609
H178? H 0.7220 0.4837 0.5821
H179? H 0.6372 0.5246 0.5955
H180? H 0.6711 0.5423 0.5627
H181? H 0.6995 0.5162 0.6015
H182? H 0.7126 0.5159 0.5935
C137? C 0.5802(7) 0.5278(4) 0.5208(2)
C138? C 0.5494(6) 0.5515(5) 0.4925(2)
H183? H 0.5830 0.5884 0.4863
C139? C 0.4716(6) 0.5269(4) 0.4709(2)
H184? H 0.4553 0.5469 0.4514
C140? C 0.671(2) 0.5541(12) 0.5478(7)
H185? H 0.6610 0.5995 0.5533
H186? H 0.7370 0.5497 0.5403
C141? C 0.6616(16) 0.5078(11) 0.5764(4)
H187? H 0.6644 0.4622 0.5702
H188? H 0.5958 0.5147 0.5841
loop_
_geom_bond_atom_site_label_1
_geom_bond_atom_site_label_2
_geom_bond_site_symmetry_1
_geom_bond_site_symmetry_2
O1 C1 1_555 1_555
O2 C8 1_555 1_555
O3 C14 1_555 1_555
O4 C20 1_555 1_555
O5 C6 1_555 1_555
O6 C30 1_555 1_555
O7 C15 1_555 1_555
O8 C22 1_555 1_555
O9 C29 1_555 1_555
O10 C31 1_555 1_555
C1 C2 1_555 1_555
C2 C4 1_555 1_555
C3 C1 1_555 1_555
H1 C3 1_555 1_555
C4 H2 1_555 1_555
H3 C4 1_555 1_555
C5 C3 1_555 1_555
C6 C5 1_555 1_555
C7 C8 1_555 1_555
C8 C17 1_555 1_555
C9 C5 1_555 1_555
H4 C9 1_555 1_555
H5 C9 1_555 1_555
C10 C2 1_555 1_555
H6 C10 1_555 1_555
C11 C14 1_555 1_555
C12 C19 1_555 1_555
C13 C7 1_555 1_555
H7 C13 1_555 1_555
C14 C13 1_555 1_555
C15 C16 1_555 1_555
C16 C4 1_555 1_555
C17 C11 1_555 1_555
H8 C17 1_555 1_555
C18 C22 1_555 1_555
C19 H9 1_555 1_555
C20 C19 1_555 1_555
C21 H10 1_555 1_555
C22 C21 1_555 1_555
C23 C21 1_555 1_555
C24 C18 1_555 1_555
H11 C24 1_555 1_555
C25 C20 1_555 1_555
C26 C30 1_555 1_555
C27 O1 1_555 1_555
H12 C27 1_555 1_555
H13 C27 1_555 1_555
C28 C16 1_555 1_555
H14 C28 1_555 1_555
C29 C12 1_555 1_555
C30 C28 1_555 1_555
C31 C23 1_555 1_555
C32 C12 1_555 1_555
H15 C32 1_555 1_555
H16 C32 1_555 1_555
C33 C11 1_555 1_555
H17 C33 1_555 1_555
H18 C33 1_555 1_555
C34 C15 1_555 1_555
H19 C34 1_555 1_555
C35 C23 1_555 1_555
H20 C35 1_555 1_555
H21 C35 1_555 1_555
C36 C25 1_555 1_555
H22 C36 1_555 1_555
C37 O6 1_555 1_555
H23 C37 1_555 1_555
H24 C37 1_555 1_555
C38 O3 1_555 1_555
H25 C38 1_555 1_555
H26 C38 1_555 1_555
C39 C37 1_555 1_555
H27 C39 1_555 1_555
H28 C39 1_555 1_555
H29 C39 1_555 1_555
C40 O4 1_555 1_555
H30 C40 1_555 1_555
H31 C40 1_555 1_555
C41 C27 1_555 1_555
H32 C41 1_555 1_555
H33 C41 1_555 1_555
H34 C41 1_555 1_555
C42 C40 1_555 1_555
H35 C42 1_555 1_555
H36 C42 1_555 1_555
H37 C42 1_555 1_555
C43 O8 1_555 1_555
H38 C43 1_555 1_555
H39 C43 1_555 1_555
C44 O7 1_555 1_555
H40 C44 1_555 1_555
H41 C44 1_555 1_555
C45 O2 1_555 1_555
H42 C45 1_555 1_555
H43 C45 1_555 1_555
C46 O9 1_555 1_555
H44 C46 1_555 1_555
H45 C46 1_555 1_555
C47 C44 1_555 1_555
H46 C47 1_555 1_555
H47 C47 1_555 1_555
H48 C47 1_555 1_555
C48 C38 1_555 1_555
H49 C48 1_555 1_555
H50 C48 1_555 1_555
H51 C48 1_555 1_555
C49 O5 1_555 1_555
H52 C49 1_555 1_555
H53 C49 1_555 1_555
C50 C43 1_555 1_555
H54 C50 1_555 1_555
H55 C50 1_555 1_555
H56 C50 1_555 1_555
C51 C45 1_555 1_555
H57 C51 1_555 1_555
H58 C51 1_555 1_555
H59 C51 1_555 1_555
C52 C49 1_555 1_555
H60 C52 1_555 1_555
H61 C52 1_555 1_555
H62 C52 1_555 1_555
C53 O10 1_555 1_555
H63 C53 1_555 1_555
H64 C53 1_555 1_555
C54 C46 1_555 1_555
H65 C54 1_555 1_555
H66 C54 1_555 1_555
H67 C54 1_555 1_555
C55 C53 1_555 1_555
H68 C55 1_555 1_555
H69 C55 1_555 1_555
H70 C55 1_555 1_555
O11 C56 1_555 1_555
O12 C57 1_555 1_555
O13 C64 1_555 1_555
O14 C65 1_555 1_555
O15 C71 1_555 1_555
O16 C69 1_555 1_555
O17 C89 1_555 1_555
O18 C84 1_555 1_555
O19 C88 1_555 1_555
O20 C87 1_555 1_555
C56 C58 1_555 1_555
C57 C59 1_555 1_555
C58 H71 1_555 1_555
C59 H72 1_555 1_555
C60 C56 1_555 1_555
C61 C57 1_555 1_555
C62 C58 1_555 1_555
C63 C59 1_555 1_555
C64 C70 1_555 1_555
C65 C62 1_555 1_555
C66 C75 1_555 1_555
C67 C60 1_555 1_555
H73 C67 1_555 1_555
C68 C60 1_555 1_555
H74 C68 1_555 1_555
H75 C68 1_555 1_555
C69 C63 1_555 1_555
C70 C68 1_555 1_555
C71 C72 1_555 1_555
C72 H76 1_555 1_555
C73 C77 1_555 1_555
C74 C61 1_555 1_555
H77 C74 1_555 1_555
H78 C74 1_555 1_555
C75 C64 1_555 1_555
H79 C75 1_555 1_555
C76 C71 1_555 1_555
C77 C66 1_555 1_555
H80 C77 1_555 1_555
H81 C77 1_555 1_555
C78 C85 1_555 1_555
C79 C61 1_555 1_555
H82 C79 1_555 1_555
C80 C62 1_555 1_555
H83 C80 1_555 1_555
H84 C80 1_555 1_555
C81 C70 1_555 1_555
H85 C81 1_555 1_555
C82 C72 1_555 1_555
C83 C73 1_555 1_555
H86 C83 1_555 1_555
C84 C66 1_555 1_555
C85 C82 1_555 1_555
H87 C85 1_555 1_555
H88 C85 1_555 1_555
C86 C76 1_555 1_555
H89 C86 1_555 1_555
C87 C82 1_555 1_555
C88 C78 1_555 1_555
C89 C73 1_555 1_555
C90 C78 1_555 1_555
H90 C90 1_555 1_555
C91 O12 1_555 1_555
H91 C91 1_555 1_555
H92 C91 1_555 1_555
C92 O11 1_555 1_555
H93 C92 1_555 1_555
H94 C92 1_555 1_555
C93 O13 1_555 1_555
H95 C93 1_555 1_555
H96 C93 1_555 1_555
C94 H97 1_555 1_555
H98 C94 1_555 1_555
H99 C94 1_555 1_555
C95 C93 1_555 1_555
H100 C95 1_555 1_555
H101 C95 1_555 1_555
H102 C95 1_555 1_555
C96 O15 1_555 1_555
H103 C96 1_555 1_555
H104 C96 1_555 1_555
C97 O14 1_555 1_555
H105 C97 1_555 1_555
H106 C97 1_555 1_555
C98 O16 1_555 1_555
H107 C98 1_555 1_555
H108 C98 1_555 1_555
C99 O17 1_555 1_555
H109 C99 1_555 1_555
H110 C99 1_555 1_555
C100 C92 1_555 1_555
H111 C100 1_555 1_555
H112 C100 1_555 1_555
H113 C100 1_555 1_555
C101 O19 1_555 1_555
H114 C101 1_555 1_555
H115 C101 1_555 1_555
C102 C91 1_555 1_555
H116 C102 1_555 1_555
H117 C102 1_555 1_555
H118 C102 1_555 1_555
C103 C99 1_555 1_555
H119 C103 1_555 1_555
H120 C103 1_555 1_555
H121 C103 1_555 1_555
C104 C97 1_555 1_555
H122 C104 1_555 1_555
H123 C104 1_555 1_555
H124 C104 1_555 1_555
C105 C101 1_555 1_555
H125 C105 1_555 1_555
H126 C105 1_555 1_555
H127 C105 1_555 1_555
C106 O18 1_555 1_555
H128 C106 1_555 1_555
H129 C106 1_555 1_555
C107 C106 1_555 1_555
H130 C107 1_555 1_555
H131 C107 1_555 1_555
H132 C107 1_555 1_555
C108 O20 1_555 1_555
H133 C108 1_555 1_555
H134 C108 1_555 1_555
C109 C98 1_555 1_555
H135 C109 1_555 1_555
H136 C109 1_555 1_555
H137 C109 1_555 1_555
C110 C108 1_555 1_555
H138 C110 1_555 1_555
H139 C110 1_555 1_555
H140 C110 1_555 1_555
C111 C112 1_555 1_555
C112 H141 1_555 1_555
C113 C112 1_555 1_555
H142 C113 1_555 1_555
C114 C113 1_555 1_555
H143 C114 1_555 1_555
C115 C114 1_555 1_555
H144 C115 1_555 1_555
C116 C111 1_555 1_555
H145 C116 1_555 1_555
C117 C111 1_555 1_555
H146 C117 1_555 1_555
H147 C117 1_555 1_555
C118 C117 1_555 1_555
H148 C118 1_555 1_555
H149 C118 1_555 1_555
H150 C118 1_555 1_555
C119 C120 1_555 1_555
C120 H151 1_555 1_555
C121 C120 1_555 1_555
H152 C121 1_555 1_555
C122 C121 1_555 1_555
H153 C122 1_555 1_555
C123 C122 1_555 1_555
H154 C123 1_555 1_555
C124 C119 1_555 1_555
H155 C124 1_555 1_555
C125 C119 1_555 1_555
H156 C125 1_555 1_555
H157 C125 1_555 1_555
C126 C125 1_555 1_555
H158 C126 1_555 1_555
H159 C126 1_555 1_555
C6 C10 1_555 1_555
C7 C9 1_555 1_555
C18 C32 1_555 1_555
C24 C31 1_555 1_555
C25 C33 1_555 1_555
C26 C34 1_555 1_555
C26 C35 1_555 1_555
C29 C36 1_555 1_555
C63 C80 1_555 1_555
C65 C67 1_555 1_555
C69 C79 1_555 1_555
C74 C76 1_555 1_555
C81 C84 1_555 1_555
C83 C88 1_555 1_555
C86 C87 1_555 1_555
C89 C90 1_555 1_555
C94 C96 1_555 1_555
C115 C116 1_555 1_555
C123 C124 1_555 1_555

#END
