
#######################################################################
#
#                 Cambridge Crystallographic Data Centre
#                                CCDC 
#
#######################################################################
#
# If this CIF has been generated from an entry in the Cambridge 
# Structural Database, then it will include bibliographic, chemical, 
# crystal, experimental, refinement or atomic coordinate data resulting 
# from the CCDC's data processing and validation procedures.
#
#######################################################################

data_TASQIQ
_chemical_formula_moiety         'C126 H172 O24'
_symmetry_cell_setting           triclinic
_symmetry_space_group_name_H-M   'P -1'
_symmetry_Int_Tables_number      2
_space_group_name_Hall           '-P 1'
loop_
_symmetry_equiv_pos_site_id
_symmetry_equiv_pos_as_xyz
1 x,y,z
2 -x,-y,-z
_cell_length_a                   11.9397(9)
_cell_length_b                   21.1861(16)
_cell_length_c                   23.6062(17)
_cell_angle_alpha                89.286(2)
_cell_angle_beta                 87.831(2)
_cell_angle_gamma                81.840(2)
_cell_volume                     5906.48
loop_
_atom_site_label
_atom_site_type_symbol
_atom_site_fract_x
_atom_site_fract_y
_atom_site_fract_z
O1 O 0.67512(15) 0.56849(9) 0.67214(8)
O2 O 0.62332(16) 0.76646(9) 0.79807(8)
O3 O 0.55091(17) 0.97939(9) 0.68758(8)
O4 O 0.58545(14) 0.89476(8) 0.48542(7)
O5 O 0.66198(14) 0.65390(8) 0.47119(7)
O6 O 0.23014(14) 0.78132(8) 0.44212(8)
O7 O 0.28345(16) 0.57623(9) 0.55283(8)
O8 O 0.25728(16) 0.63871(9) 0.76747(8)
O9 O 0.19307(17) 0.87648(9) 0.78965(8)
O10 O 0.16011(16) 0.96223(9) 0.58568(8)
C1 C 0.5780(2) 0.57081(12) 0.64144(11)
C2 C 0.5790(2) 0.57278(11) 0.58257(11)
H1 H 0.6493 0.5718 0.5621
C3 C 0.4808(2) 0.57618(11) 0.55279(10)
C4 C 0.3795(2) 0.57535(12) 0.58391(11)
C5 C 0.3773(2) 0.57422(12) 0.64277(11)
H2 H 0.3070 0.5749 0.6631
C6 C 0.4763(2) 0.57217(11) 0.67252(10)
C7 C 0.4836(2) 0.58233(11) 0.48865(10)
H3 H 0.4238 0.5602 0.4733
H4 H 0.5576 0.5615 0.4731
C8 C 0.4653(2) 0.65190(11) 0.47015(10)
C9 C 0.5559(2) 0.68680(11) 0.46283(10)
C10 C 0.5358(2) 0.75128(11) 0.44887(10)
H5 H 0.5981 0.7743 0.4436
C11 C 0.4268(2) 0.78289(11) 0.44237(9)
C12 C 0.3366(2) 0.74767(12) 0.44903(10)
C13 C 0.3565(2) 0.68313(12) 0.46255(10)
H6 H 0.2943 0.6598 0.4667
C14 C 0.4061(2) 0.85398(11) 0.43058(10)
H7 H 0.3383 0.8639 0.4075
H8 H 0.4716 0.8663 0.4082
C15 C 0.3890(2) 0.89306(11) 0.48454(10)
C16 C 0.4807(2) 0.91296(11) 0.51056(10)
C17 C 0.4629(2) 0.95035(12) 0.55906(10)
H9 H 0.5258 0.9649 0.5756
C18 C 0.3557(2) 0.96677(12) 0.58369(10)
C19 C 0.2649(2) 0.94510(12) 0.55908(11)
C20 C 0.2812(2) 0.90937(11) 0.50939(10)
H10 H 0.2178 0.8960 0.4923
C21 C 0.3405(3) 1.00715(13) 0.63684(11)
H11 H 0.3953 1.0382 0.6352
H12 H 0.2633 1.0314 0.6386
C22 C 0.3586(2) 0.96608(12) 0.68967(11)
C23 C 0.4652(2) 0.95076(13) 0.71271(11)
C24 C 0.4797(2) 0.90785(13) 0.75773(11)
H13 H 0.5531 0.8967 0.7722
C25 C 0.3899(2) 0.88091(12) 0.78212(10)
C26 C 0.2820(2) 0.89981(13) 0.76134(11)
C27 C 0.2682(2) 0.94022(12) 0.71494(11)
H14 H 0.1951 0.9506 0.6999
C28 C 0.4102(3) 0.83148(13) 0.82882(11)
H15 H 0.3447 0.8367 0.8562
H16 H 0.4781 0.8386 0.8493
C29 C 0.4272(2) 0.76407(13) 0.80598(10)
C30 C 0.5342(2) 0.73288(13) 0.79037(10)
C31 C 0.5472(2) 0.67132(13) 0.76887(10)
H17 H 0.6211 0.6505 0.7592
C32 C 0.4547(2) 0.63949(12) 0.76122(10)
C33 C 0.3473(2) 0.67149(13) 0.77635(11)
C34 C 0.3348(2) 0.73247(13) 0.79852(11)
H18 H 0.2612 0.7531 0.8089
C35 C 0.4712(2) 0.57287(12) 0.73685(11)
H19 H 0.4081 0.5505 0.7508
H20 H 0.5424 0.5491 0.7508
C36 C 0.1364(2) 0.74669(13) 0.44122(12)
H21 H 0.1297 0.7226 0.4771
H22 H 0.1461 0.7161 0.4094
C37 C 0.0329(2) 0.79477(15) 0.43387(13)
H23 H 0.0407 0.8182 0.3982
H24 H 0.0243 0.8247 0.4656
H25 H -0.0340 0.7728 0.4330
C38 C 0.0806(3) 0.90811(15) 0.77933(13)
H26 H 0.0533 0.8921 0.7439
H27 H 0.0813 0.9546 0.7751
C39 C 0.0051(3) 0.89516(18) 0.82768(15)
H28 H -0.0731 0.9130 0.8197
H29 H 0.0282 0.9149 0.8619
H30 H 0.0099 0.8490 0.8336
C40 C 0.1467(2) 0.66907(15) 0.78457(14)
H31 H 0.1309 0.7117 0.7666
H32 H 0.1408 0.6743 0.8262
C41 C 0.0642(3) 0.62724(16) 0.76601(17)
H33 H 0.0729 0.6211 0.7249
H34 H -0.0131 0.6474 0.7757
H35 H 0.0788 0.5858 0.7853
C42 C 0.1860(2) 0.55735(16) 0.57993(15)
H36 H 0.1524 0.5899 0.6078
H37 H 0.2058 0.5163 0.6002
C43 C 0.1031(3) 0.55029(19) 0.53457(17)
H38 H 0.1384 0.5193 0.5065
H39 H 0.0816 0.5916 0.5160
H40 H 0.0355 0.5354 0.5518
C44 C 0.7807(3) 0.5623(2) 0.64163(15)
H41 H 0.7783 0.5951 0.6113
H42 H 0.7962 0.5198 0.6237
C45 C 0.8714(3) 0.5701(2) 0.68075(17)
H43 H 0.9443 0.5661 0.6596
H44 H 0.8743 0.5372 0.7104
H45 H 0.8559 0.6123 0.6982
C46 C 0.7347(2) 0.73628(14) 0.78428(13)
H46 H 0.7411 0.7232 0.7440
H47 H 0.7537 0.6979 0.8082
C47 C 0.8139(3) 0.78399(16) 0.79486(14)
H48 H 0.7969 0.8207 0.7694
H49 H 0.8923 0.7640 0.7877
H50 H 0.8039 0.7982 0.8343
C48 C 0.6553(3) 0.97426(16) 0.71519(14)
H51 H 0.6960 0.9303 0.7119
H52 H 0.6418 0.9844 0.7559
C49 C 0.7244(3) 1.02073(18) 0.68708(15)
H53 H 0.7330 1.0120 0.6464
H54 H 0.7992 1.0162 0.7036
H55 H 0.6859 1.0643 0.6930
C50 C 0.6813(2) 0.91095(13) 0.51378(12)
H56 H 0.6823 0.8936 0.5529
H57 H 0.6775 0.9579 0.5157
C51 C 0.7853(2) 0.88282(15) 0.48082(15)
H58 H 0.7823 0.8994 0.4419
H59 H 0.7895 0.8363 0.4803
H60 H 0.8523 0.8943 0.4986
C52 C 0.7571(2) 0.68628(14) 0.45952(13)
H61 H 0.7532 0.7242 0.4840
H62 H 0.7588 0.7005 0.4194
C53 C 0.8609(2) 0.63979(16) 0.47139(15)
H63 H 0.8632 0.6023 0.4472
H64 H 0.8586 0.6266 0.5113
H65 H 0.9286 0.6601 0.4634
C54 C 0.0639(5) 0.9576(5) 0.5564(3)
H66 H 0.0566 0.9122 0.5503
H67 H 0.0679 0.9790 0.5190
C55 C -0.0361(6) 0.9893(6) 0.5914(4)
H68 H -0.0356 0.9700 0.6294
H69 H -0.1063 0.9835 0.5732
H70 H -0.0314 1.0349 0.5945
O11 O -0.19324(15) 1.28616(8) 0.70605(8)
O12 O -0.18177(16) 1.47220(9) 0.84926(7)
O13 O -0.11728(14) 1.37603(8) 1.04099(7)
O14 O -0.07062(14) 1.12779(8) 1.02878(7)
O15 O -0.11440(15) 1.09177(9) 0.82821(7)
O16 O 0.24162(14) 1.15711(8) 0.72175(7)
O17 O 0.18550(15) 1.39760(8) 0.70340(7)
O18 O 0.24602(15) 1.44365(8) 0.91302(7)
O19 O 0.30505(14) 1.25164(9) 1.04512(8)
O20 O 0.31666(14) 1.04589(8) 0.91247(7)
C58 C 0.4347(3) 1.43711(17) 0.87863(16)
H76 H 0.4173 1.4184 0.8428
H77 H 0.5138 1.4225 0.8873
H78 H 0.4226 1.4837 0.8752
C59 C -0.0863(2) 1.25211(12) 0.70953(10)
C60 C 0.1087(2) 1.44935(11) 0.79084(10)
H79 H 0.1808 1.4599 0.7995
C61 C 0.0970(2) 1.41585(11) 0.74180(10)
C62 C -0.0072(2) 1.39823(11) 0.72881(10)
C63 C -0.0997(2) 1.41813(12) 0.76471(10)
H80 H -0.1720 1.4077 0.7561
C64 C -0.0885(2) 1.45306(12) 0.81317(10)
C65 C 0.0163(2) 1.46772(11) 0.82756(10)
C66 C -0.0177(2) 1.35551(11) 0.67853(10)
H81 H -0.0945 1.3657 0.6635
H82 H 0.0377 1.3640 0.6481
C67 C 0.0033(2) 1.28575(11) 0.69509(9)
C68 C 0.1129(2) 1.25377(11) 0.69825(10)
H83 H 0.1747 1.2757 0.6879
C69 C 0.1347(2) 1.19050(11) 0.71609(10)
C70 C 0.0444(2) 1.15672(11) 0.73013(9)
C71 C -0.0651(2) 1.18847(12) 0.72633(10)
H84 H -0.1271 1.1662 0.7354
C72 C 0.0659(2) 1.08713(11) 0.74862(10)
H85 H 0.0006 1.0661 0.7385
H86 H 0.1336 1.0658 0.7273
C73 C 0.0842(2) 1.07784(11) 0.81158(10)
C74 C 0.1924(2) 1.06483(11) 0.83233(10)
H87 H 0.2558 1.0608 0.8064
C75 C 0.2104(2) 1.05760(11) 0.89009(10)
C76 C 0.1186(2) 1.06299(11) 0.92890(10)
C77 C 0.0103(2) 1.07382(11) 0.90805(10)
H88 H -0.0530 1.0763 0.9339
C78 C -0.0081(2) 1.08116(11) 0.85047(10)
C79 C 0.1352(2) 1.05995(11) 0.99247(10)
H89 H 0.2108 1.0362 1.0001
H90 H 0.0774 1.0367 1.0111
C80 C 0.1256(2) 1.12670(11) 1.01712(9)
C81 C 0.2215(2) 1.15635(12) 1.02181(10)
H91 H 0.2938 1.1335 1.0120
C82 C 0.2136(2) 1.21895(12) 1.04055(10)
C83 C 0.1081(2) 1.25326(11) 1.05569(10)
C84 C 0.0126(2) 1.22296(11) 1.05214(10)
H92 H -0.0596 1.2454 1.0628
C85 C 0.0208(2) 1.16016(11) 1.03319(9)
C86 C 0.0974(2) 1.32225(11) 1.07383(10)
H93 H 0.1669 1.3292 1.0931
H94 H 0.0327 1.3314 1.1014
C87 C 0.0799(2) 1.36813(11) 1.02390(10)
C88 C 0.1722(2) 1.38453(11) 0.99260(10)
H95 H 0.2465 1.3671 1.0027
C89 C 0.1576(2) 1.42627(11) 0.94651(10)
C90 C 0.0496(2) 1.45342(11) 0.93167(10)
C91 C -0.0426(2) 1.43649(11) 0.96306(10)
H96 H -0.1170 1.4544 0.9532
C92 C -0.0287(2) 1.39415(11) 1.00833(10)
C93 C 0.0316(2) 1.50060(11) 0.88297(10)
H97 H 0.0977 1.5240 0.8788
H98 H -0.0362 1.5321 0.8917
C94 C 0.4092(2) 1.02075(14) 0.87557(11)
H99 H 0.4299 1.0544 0.8494
H100 H 0.3882 0.9856 0.8528
C95 C 0.5070(2) 0.99661(16) 0.91190(13)
H101 H 0.5715 0.9780 0.8877
H102 H 0.4849 0.9640 0.9382
H103 H 0.5283 1.0321 0.9334
C96 C 0.3362(2) 1.18791(14) 0.70473(12)
H104 H 0.3318 1.2294 0.7241
H105 H 0.3369 1.1957 0.6633
C97 C 0.4417(2) 1.14487(14) 0.72059(13)
H106 H 0.4435 1.1033 0.7026
H107 H 0.4421 1.1393 0.7619
H108 H 0.5084 1.1640 0.7077
C98 C 0.2903(2) 1.42058(13) 0.71164(11)
H109 H 0.3247 1.4020 0.7467
H110 H 0.2779 1.4676 0.7152
C99 C 0.3669(2) 1.40114(14) 0.66098(12)
H111 H 0.3315 1.4194 0.6265
H112 H 0.3797 1.3545 0.6583
H113 H 0.4395 1.4169 0.6651
C100 C 0.3581(2) 1.41662(14) 0.92572(13)
H114 H 0.3645 1.3695 0.9275
H115 H 0.3789 1.4322 0.9627
C101 C 0.4153(2) 1.21923(14) 1.03235(13)
H116 H 0.4214 1.2047 0.9925
H117 H 0.4320 1.1816 1.0575
C102 C 0.4968(2) 1.26592(15) 1.04166(14)
H118 H 0.4788 1.3031 1.0169
H119 H 0.5743 1.2455 1.0329
H120 H 0.4904 1.2796 1.0813
C103 C -0.2295(2) 1.40427(13) 1.02816(12)
H121 H -0.2480 1.3922 0.9896
H122 H -0.2363 1.4513 1.0299
C104 C -0.3087(3) 1.37985(16) 1.07172(14)
H123 H -0.3870 1.3972 1.0636
H124 H -0.2911 1.3933 1.1095
H125 H -0.2995 1.3332 1.0704
C105 C -0.1801(2) 1.15844(12) 1.04713(11)
H126 H -0.2013 1.1981 1.0251
H127 H -0.1807 1.1694 1.0878
C106 C -0.2612(2) 1.11174(13) 1.03736(12)
H128 H -0.2581 1.1006 0.9971
H129 H -0.3382 1.1311 1.0485
H130 H -0.2401 1.0732 1.0601
C107 C -0.2096(2) 1.09473(16) 0.86741(12)
H131 H -0.2063 1.1283 0.8959
H132 H -0.2092 1.0534 0.8875
C108 C -0.3149(3) 1.10980(18) 0.83413(14)
H133 H -0.3179 1.0760 0.8065
H134 H -0.3140 1.1506 0.8142
H135 H -0.3816 1.1127 0.8600
C109 C -0.2882(2) 1.25228(15) 0.71148(14)
H136 H -0.2915 1.2323 0.7495
H137 H -0.2821 1.2184 0.6826
C110 C -0.3922(3) 1.29975(16) 0.70308(15)
H138 H -0.3893 1.3179 0.6648
H139 H -0.3956 1.3339 0.7310
H140 H -0.4596 1.2784 0.7080
C111 C -0.3356(3) 1.54996(17) 0.87741(14)
H141 H -0.3875 1.5181 0.8775
H142 H -0.3771 1.5921 0.8688
H143 H -0.3027 1.5508 0.9148
C112 C -0.2429(6) 1.5331(4) 0.8333(2)
H144 H -0.2752 1.5304 0.7955
H145 H -0.1916 1.5660 0.8316
O21 O 0.6644(3) 0.77473(17) 0.61725(17)
C114 C 0.5888(3) 0.81621(19) 0.65140(17)
H151 H 0.5923 0.8611 0.6401
H152 H 0.6084 0.8108 0.6917
C115 C 0.4698(4) 0.79932(18) 0.64296(17)
H153 H 0.4321 0.7910 0.6798
H154 H 0.4224 0.8343 0.6232
C116 C 0.4889(4) 0.7411(2) 0.60793(19)
H155 H 0.4553 0.7488 0.5704
H156 H 0.4574 0.7054 0.6271
C117 C 0.6163(4) 0.7282(3) 0.6027(3)
H157 H 0.6431 0.6908 0.6266
H158 H 0.6391 0.7173 0.5629
O22 O 0.3007(4) 1.30303(15) 0.82668(15)
C118 C 0.1833(5) 1.29426(18) 0.84501(16)
H159 H 0.1384 1.2879 0.8117
H160 H 0.1458 1.3323 0.8657
C119 C 0.1920(4) 1.23575(18) 0.88352(17)
H161 H 0.1839 1.2480 0.9240
H162 H 0.1339 1.2085 0.8751
C120 C 0.3074(4) 1.20299(18) 0.86931(17)
H163 H 0.3408 1.1791 0.9024
H164 H 0.3070 1.1732 0.8373
C121 C 0.3684(4) 1.25508(18) 0.8537(2)
H165 H 0.3975 1.2722 0.8883
H166 H 0.4342 1.2392 0.8285
O23 O 0.2417(3) 0.74520(19) 1.06108(15)
C122 C 0.3193(4) 0.7124(2) 1.09558(18)
H167 H 0.3634 0.7422 1.1138
H168 H 0.3724 0.6813 1.0732
C123 C 0.2570(4) 0.6788(2) 1.13916(17)
H169 H 0.2896 0.6810 1.1769
H170 H 0.2574 0.6335 1.1291
C124 C 0.1408(5) 0.7150(3) 1.13795(19)
H171 H 0.0832 0.6867 1.1469
H172 H 0.1314 0.7502 1.1657
C125 C 0.1299(4) 0.7397(2) 1.08113(18)
H173 H 0.0956 0.7102 1.0571
H174 H 0.0819 0.7818 1.0810
C126 C 0.1548(6) 0.7878(3) 0.6492(3)
H175 H 0.1997 0.8193 0.6318
H176 H 0.1738 0.7811 0.6895
C127 C 0.1687(11) 0.7310(7) 0.6193(7)
H177 H 0.2141 0.6980 0.6423
H178 H 0.2135 0.7370 0.5840
O24 O 0.0684(12) 0.7070(7) 0.6044(7)
C128 C -0.0258(13) 0.7521(7) 0.6075(9)
H179 H -0.0892 0.7355 0.6283
H180 H -0.0501 0.7663 0.5693
C129 C 0.0164(12) 0.8089(9) 0.6415(11)
H181 H -0.0237 0.8145 0.6790
H182 H 0.0019 0.8494 0.6200
C56? C 0.0653(6) 0.9328(6) 0.5648(3)
H71? H 0.0815 0.8858 0.5678
H72? H 0.0525 0.9446 0.5246
C57? C -0.0377(6) 0.9579(6) 0.6017(4)
H73? H -0.0316 0.9376 0.6391
H74? H -0.1062 0.9481 0.5840
H75? H -0.0420 1.0042 0.6056
C113? C -0.2803(9) 1.5046(6) 0.8288(3)
H146? H -0.3321 1.4743 0.8186
H147? H -0.2637 1.5297 0.7946
H148? H -0.3551 1.5244 0.9102
H149? H -0.4042 1.5757 0.8639
H150? H -0.2818 1.5781 0.8884
H183? H 0.2125 0.7674 0.6752
H184? H 0.1710 0.8316 0.6410
C130? C 0.1637(9) 0.7512(6) 0.5951(5)
H185? H 0.2152 0.7104 0.5986
H186? H 0.1912 0.7763 0.5632
C131? C 0.0441(14) 0.7397(11) 0.5873(7)
H187? H 0.0406 0.6938 0.5820
H188? H 0.0121 0.7636 0.5539
C132? C -0.0222(12) 0.7646(7) 0.6436(7)
H189? H -0.0881 0.7964 0.6342
H190? H -0.0507 0.7286 0.6639
O25? O 0.0453(9) 0.7911(5) 0.6766(5)
loop_
_geom_bond_atom_site_label_1
_geom_bond_atom_site_label_2
_geom_bond_site_symmetry_1
_geom_bond_site_symmetry_2
O1 C1 1_555 1_555
O2 C30 1_555 1_555
O3 C23 1_555 1_555
O4 C16 1_555 1_555
O5 C9 1_555 1_555
O6 C12 1_555 1_555
O7 C4 1_555 1_555
O8 C33 1_555 1_555
O9 C26 1_555 1_555
O10 C19 1_555 1_555
C1 C2 1_555 1_555
C2 H1 1_555 1_555
C3 C2 1_555 1_555
C4 C3 1_555 1_555
C5 C4 1_555 1_555
H2 C5 1_555 1_555
C6 C1 1_555 1_555
C7 C3 1_555 1_555
H3 C7 1_555 1_555
H4 C7 1_555 1_555
C8 C7 1_555 1_555
C9 C8 1_555 1_555
C10 C9 1_555 1_555
H5 C10 1_555 1_555
C11 C10 1_555 1_555
C12 C11 1_555 1_555
C13 C8 1_555 1_555
H6 C13 1_555 1_555
C14 C11 1_555 1_555
H7 C14 1_555 1_555
H8 C14 1_555 1_555
C15 C14 1_555 1_555
C16 C15 1_555 1_555
C17 C16 1_555 1_555
H9 C17 1_555 1_555
C18 C17 1_555 1_555
C19 C18 1_555 1_555
C20 C15 1_555 1_555
H10 C20 1_555 1_555
C21 C18 1_555 1_555
H11 C21 1_555 1_555
H12 C21 1_555 1_555
C22 C21 1_555 1_555
C23 C22 1_555 1_555
C24 C23 1_555 1_555
H13 C24 1_555 1_555
C25 C24 1_555 1_555
C26 C25 1_555 1_555
C27 C22 1_555 1_555
H14 C27 1_555 1_555
C28 C25 1_555 1_555
H15 C28 1_555 1_555
H16 C28 1_555 1_555
C29 C28 1_555 1_555
C30 C29 1_555 1_555
C31 C30 1_555 1_555
H17 C31 1_555 1_555
C32 C31 1_555 1_555
C33 C32 1_555 1_555
C34 C29 1_555 1_555
H18 C34 1_555 1_555
C35 C6 1_555 1_555
H19 C35 1_555 1_555
H20 C35 1_555 1_555
C36 O6 1_555 1_555
H21 C36 1_555 1_555
H22 C36 1_555 1_555
C37 C36 1_555 1_555
H23 C37 1_555 1_555
H24 C37 1_555 1_555
H25 C37 1_555 1_555
C38 O9 1_555 1_555
H26 C38 1_555 1_555
H27 C38 1_555 1_555
C39 C38 1_555 1_555
H28 C39 1_555 1_555
H29 C39 1_555 1_555
H30 C39 1_555 1_555
C40 O8 1_555 1_555
H31 C40 1_555 1_555
H32 C40 1_555 1_555
C41 C40 1_555 1_555
H33 C41 1_555 1_555
H34 C41 1_555 1_555
H35 C41 1_555 1_555
C42 O7 1_555 1_555
H36 C42 1_555 1_555
H37 C42 1_555 1_555
C43 C42 1_555 1_555
H38 C43 1_555 1_555
H39 C43 1_555 1_555
H40 C43 1_555 1_555
C44 O1 1_555 1_555
H41 C44 1_555 1_555
H42 C44 1_555 1_555
C45 C44 1_555 1_555
H43 C45 1_555 1_555
H44 C45 1_555 1_555
H45 C45 1_555 1_555
C46 O2 1_555 1_555
H46 C46 1_555 1_555
H47 C46 1_555 1_555
C47 C46 1_555 1_555
H48 C47 1_555 1_555
H49 C47 1_555 1_555
H50 C47 1_555 1_555
C48 O3 1_555 1_555
H51 C48 1_555 1_555
H52 C48 1_555 1_555
C49 C48 1_555 1_555
H53 C49 1_555 1_555
H54 C49 1_555 1_555
H55 C49 1_555 1_555
C50 O4 1_555 1_555
H56 C50 1_555 1_555
H57 C50 1_555 1_555
C51 C50 1_555 1_555
H58 C51 1_555 1_555
H59 C51 1_555 1_555
H60 C51 1_555 1_555
C52 O5 1_555 1_555
H61 C52 1_555 1_555
H62 C52 1_555 1_555
C53 C52 1_555 1_555
H63 C53 1_555 1_555
H64 C53 1_555 1_555
H65 C53 1_555 1_555
C54 O10 1_555 1_555
H66 C54 1_555 1_555
H67 C54 1_555 1_555
C55 C54 1_555 1_555
H68 C55 1_555 1_555
H69 C55 1_555 1_555
H70 C55 1_555 1_555
O11 C59 1_555 1_555
O12 C64 1_555 1_555
O13 C92 1_555 1_555
O14 C85 1_555 1_555
O15 C78 1_555 1_555
O16 C69 1_555 1_555
O17 C61 1_555 1_555
O18 C89 1_555 1_555
O19 C82 1_555 1_555
O20 C75 1_555 1_555
C58 H76 1_555 1_555
H77 C58 1_555 1_555
H78 C58 1_555 1_555
C59 C67 1_555 1_555
C60 H79 1_555 1_555
C61 C60 1_555 1_555
C62 C61 1_555 1_555
C63 C62 1_555 1_555
H80 C63 1_555 1_555
C64 C63 1_555 1_555
C65 C60 1_555 1_555
C66 C62 1_555 1_555
H81 C66 1_555 1_555
H82 C66 1_555 1_555
C67 C66 1_555 1_555
C68 C67 1_555 1_555
H83 C68 1_555 1_555
C69 C68 1_555 1_555
C70 C69 1_555 1_555
C71 C59 1_555 1_555
H84 C71 1_555 1_555
C72 C70 1_555 1_555
H85 C72 1_555 1_555
H86 C72 1_555 1_555
C73 C72 1_555 1_555
C74 C73 1_555 1_555
H87 C74 1_555 1_555
C75 C74 1_555 1_555
C76 C75 1_555 1_555
C77 C76 1_555 1_555
H88 C77 1_555 1_555
C78 C73 1_555 1_555
C79 C76 1_555 1_555
H89 C79 1_555 1_555
H90 C79 1_555 1_555
C80 C79 1_555 1_555
C81 C80 1_555 1_555
H91 C81 1_555 1_555
C82 C81 1_555 1_555
C83 C82 1_555 1_555
C84 C83 1_555 1_555
H92 C84 1_555 1_555
C85 C80 1_555 1_555
C86 C83 1_555 1_555
H93 C86 1_555 1_555
H94 C86 1_555 1_555
C87 C86 1_555 1_555
C88 C87 1_555 1_555
H95 C88 1_555 1_555
C89 C88 1_555 1_555
C90 C89 1_555 1_555
C91 C90 1_555 1_555
H96 C91 1_555 1_555
C92 C87 1_555 1_555
C93 C65 1_555 1_555
H97 C93 1_555 1_555
H98 C93 1_555 1_555
C94 O20 1_555 1_555
H99 C94 1_555 1_555
H100 C94 1_555 1_555
C95 C94 1_555 1_555
H101 C95 1_555 1_555
H102 C95 1_555 1_555
H103 C95 1_555 1_555
C96 O16 1_555 1_555
H104 C96 1_555 1_555
H105 C96 1_555 1_555
C97 C96 1_555 1_555
H106 C97 1_555 1_555
H107 C97 1_555 1_555
H108 C97 1_555 1_555
C98 O17 1_555 1_555
H109 C98 1_555 1_555
H110 C98 1_555 1_555
C99 C98 1_555 1_555
H111 C99 1_555 1_555
H112 C99 1_555 1_555
H113 C99 1_555 1_555
C100 O18 1_555 1_555
H114 C100 1_555 1_555
H115 C100 1_555 1_555
C101 O19 1_555 1_555
H116 C101 1_555 1_555
H117 C101 1_555 1_555
C102 C101 1_555 1_555
H118 C102 1_555 1_555
H119 C102 1_555 1_555
H120 C102 1_555 1_555
C103 O13 1_555 1_555
H121 C103 1_555 1_555
H122 C103 1_555 1_555
C104 C103 1_555 1_555
H123 C104 1_555 1_555
H124 C104 1_555 1_555
H125 C104 1_555 1_555
C105 O14 1_555 1_555
H126 C105 1_555 1_555
H127 C105 1_555 1_555
C106 C105 1_555 1_555
H128 C106 1_555 1_555
H129 C106 1_555 1_555
H130 C106 1_555 1_555
C107 O15 1_555 1_555
H131 C107 1_555 1_555
H132 C107 1_555 1_555
C108 C107 1_555 1_555
H133 C108 1_555 1_555
H134 C108 1_555 1_555
H135 C108 1_555 1_555
C109 O11 1_555 1_555
H136 C109 1_555 1_555
H137 C109 1_555 1_555
C110 C109 1_555 1_555
H138 C110 1_555 1_555
H139 C110 1_555 1_555
H140 C110 1_555 1_555
C111 H141 1_555 1_555
H142 C111 1_555 1_555
H143 C111 1_555 1_555
C112 O12 1_555 1_555
H144 C112 1_555 1_555
H145 C112 1_555 1_555
O21 C114 1_555 1_555
C114 H151 1_555 1_555
H152 C114 1_555 1_555
C115 C114 1_555 1_555
H153 C115 1_555 1_555
H154 C115 1_555 1_555
C116 C115 1_555 1_555
H155 C116 1_555 1_555
H156 C116 1_555 1_555
C117 O21 1_555 1_555
H157 C117 1_555 1_555
H158 C117 1_555 1_555
O22 C118 1_555 1_555
C118 H159 1_555 1_555
H160 C118 1_555 1_555
C119 C118 1_555 1_555
H161 C119 1_555 1_555
H162 C119 1_555 1_555
C120 C119 1_555 1_555
H163 C120 1_555 1_555
H164 C120 1_555 1_555
C121 O22 1_555 1_555
H165 C121 1_555 1_555
H166 C121 1_555 1_555
O23 C122 1_555 1_555
C122 H167 1_555 1_555
H168 C122 1_555 1_555
C123 C122 1_555 1_555
H169 C123 1_555 1_555
H170 C123 1_555 1_555
C124 C123 1_555 1_555
H171 C124 1_555 1_555
H172 C124 1_555 1_555
C125 O23 1_555 1_555
H173 C125 1_555 1_555
H174 C125 1_555 1_555
C126 H175 1_555 1_555
H176 C126 1_555 1_555
C127 C126 1_555 1_555
H177 C127 1_555 1_555
H178 C127 1_555 1_555
O24 C127 1_555 1_555
C128 O24 1_555 1_555
H179 C128 1_555 1_555
H180 C128 1_555 1_555
C129 C126 1_555 1_555
H181 C129 1_555 1_555
H182 C129 1_555 1_555
C5 C6 1_555 1_555
C12 C13 1_555 1_555
C19 C20 1_555 1_555
C26 C27 1_555 1_555
C32 C35 1_555 1_555
C33 C34 1_555 1_555
C58 C100 1_555 1_555
C64 C65 1_555 1_555
C70 C71 1_555 1_555
C77 C78 1_555 1_555
C84 C85 1_555 1_555
C90 C93 1_555 1_555
C91 C92 1_555 1_555
C111 C112 1_555 1_555
C116 C117 1_555 1_555
C120 C121 1_555 1_555
C124 C125 1_555 1_555
C128 C129 1_555 1_555

#END
