
#######################################################################
#
#                 Cambridge Crystallographic Data Centre
#                                CCDC 
#
#######################################################################
#
# If this CIF has been generated from an entry in the Cambridge 
# Structural Database, then it will include bibliographic, chemical, 
# crystal, experimental, refinement or atomic coordinate data resulting 
# from the CCDC's data processing and validation procedures.
#
#######################################################################

data_TASQAI
_chemical_formula_moiety         'C79 H109 O12'
_symmetry_cell_setting           monoclinic
_symmetry_space_group_name_H-M   'P 21/n'
_symmetry_Int_Tables_number      14
_space_group_name_Hall           '-P 2yn'
loop_
_symmetry_equiv_pos_site_id
_symmetry_equiv_pos_as_xyz
1 x,y,z
2 1/2-x,1/2+y,1/2-z
3 -x,-y,-z
4 1/2+x,1/2-y,1/2+z
_cell_length_a                   11.6120(6)
_cell_length_b                   12.9629(6)
_cell_length_c                   22.2541(11)
_cell_angle_alpha                90
_cell_angle_beta                 91.391(3)
_cell_angle_gamma                90
_cell_volume                     3348.82
loop_
_atom_site_label
_atom_site_type_symbol
_atom_site_fract_x
_atom_site_fract_y
_atom_site_fract_z
C37 C 1.0579(5) 0.9780(4) 0.55512(19)
H53 H 1.0952 0.9624 0.5920
C38 C 0.9521(4) 0.9346(3) 0.53953(19)
H54 H 0.9183 0.8890 0.5668
C39 C 0.8936(4) 0.9548(3) 0.4857(2)
C40 C 0.7858(9) 0.9237(8) 0.4730(5)
H55 H 0.7736 0.8575 0.4932
H56 H 0.7788 0.9113 0.4296
C41 C 0.6956(9) 0.9927(9) 0.4897(5)
H57 H 0.6221 0.9657 0.4753
H58 H 0.7086 1.0599 0.4719
H59 H 0.6952 0.9992 0.5331
C37B C 0.9421(5) 1.0220(4) 0.44488(19)
H53B H 0.9048 1.0376 0.4080
C38B C 1.0479(4) 1.0654(3) 0.46047(19)
H54B H 1.0817 1.1110 0.4332
C39B C 1.1064(4) 1.0452(3) 0.5143(2)
C40B C 1.2142(9) 1.0763(8) 0.5270(5)
H55B H 1.2264 1.1425 0.5068
H56B H 1.2212 1.0887 0.5704
C41B C 1.3044(9) 1.0073(9) 0.5103(5)
H57B H 1.3779 1.0343 0.5247
H58B H 1.2914 0.9401 0.5281
H59B H 1.3048 1.0008 0.4669
O1 O 1.06563(11) 0.76204(11) 0.37411(6)
O2 O 0.64131(12) 0.60457(12) 0.43492(6)
O3 O 1.13029(18) 0.65863(16) 0.67077(8)
O4 O 0.68946(14) 0.71855(15) 0.58110(10)
O5 O 1.26702(11) 1.07092(10) 0.69154(6)
O6 O 0.83263(14) 0.94215(10) 0.75431(8)
C1 C 1.2557(2) 0.8206(3) 0.38889(15)
H1 H 1.2747 0.7839 0.3525
H2 H 1.3217 0.8202 0.4165
H3 H 1.2352 0.8913 0.3790
C2 C 1.15512(18) 0.7683(2) 0.41804(12)
H4 H 1.1771 0.6992 0.4319
H5 H 1.1300 0.8085 0.4527
C3 C 0.96123(15) 0.72356(13) 0.39115(8)
C4 C 0.87148(16) 0.73130(12) 0.34862(8)
C5 C 0.76416(17) 0.69290(13) 0.36367(8)
H6 H 0.7024 0.6986 0.3358
C6 C 0.74557(16) 0.64614(13) 0.41896(8)
C7 C 0.83579(15) 0.63670(12) 0.46098(8)
C8 C 0.94266(15) 0.67692(13) 0.44623(8)
H7 H 1.0041 0.6724 0.4744
C9 C 0.54642(19) 0.6137(2) 0.39381(11)
H8 H 0.5638 0.5791 0.3559
H9 H 0.5307 0.6866 0.3853
C10 C 0.4439(2) 0.5646(2) 0.42153(13)
H10 H 0.3779 0.5700 0.3941
H11 H 0.4271 0.5994 0.4589
H12 H 0.4601 0.4924 0.4296
C11 C 0.82113(18) 0.57908(13) 0.51990(8)
H13 H 0.7390 0.5653 0.5250
H14 H 0.8604 0.5124 0.5172
C12 C 1.2509(4) 0.6565(5) 0.5899(2)
H15 H 1.1861 0.6794 0.5650
H16 H 1.3003 0.6125 0.5664
H17 H 1.2944 0.7158 0.6042
C13 C 1.2109(3) 0.6015(3) 0.63849(18)
H18 H 1.2760 0.5833 0.6653
H19 H 1.1751 0.5374 0.6242
C14 C 1.0209(2) 0.67096(15) 0.64730(9)
C15 C 0.97782(19) 0.61930(14) 0.59683(8)
H20 H 1.0255 0.5722 0.5771
C16 C 0.86699(17) 0.63520(13) 0.57478(8)
C17 C 0.79792(18) 0.70445(14) 0.60541(10)
C18 C 0.8388(2) 0.75264(14) 0.65735(10)
H21 H 0.7897 0.7969 0.6783
C19 C 0.94985(19) 0.73711(12) 0.67907(8)
C20 C 0.9934(2) 0.78825(13) 0.73654(8)
H22 H 1.0626 0.7520 0.7511
H23 H 0.9347 0.7812 0.7672
C21 C 1.02174(19) 0.90189(13) 0.72905(7)
C22 C 0.93929(18) 0.97748(13) 0.73885(8)
C23 C 0.96847(18) 1.08146(13) 0.73326(8)
H24 H 0.9125 1.1320 0.7405
C24 C 1.07758(16) 1.11188(12) 0.71736(7)
C25 C 1.16005(16) 1.03574(13) 0.70713(8)
C26 C 1.13173(18) 0.93206(13) 0.71340(8)
H25 H 1.1881 0.8815 0.7069
C27 C 1.10896(17) 1.22550(12) 0.71363(8)
H26 H 1.0473 1.2655 0.7319
H27 H 1.1792 1.2367 0.7381
C28 C 1.4579(2) 1.0551(2) 0.66046(17)
H28 H 1.4371 1.0949 0.6249
H29 H 1.5183 1.0065 0.6509
H30 H 1.4852 1.1013 0.6920
C29 C 1.35436(19) 0.99733(17) 0.68141(13)
H31 H 1.3286 0.9476 0.6508
H32 H 1.3732 0.9598 0.7186
C30 C 0.7468(2) 1.01343(16) 0.77139(11)
H33 H 0.7277 1.0603 0.7380
H34 H 0.7741 1.0545 0.8059
C31 C 0.6437(2) 0.95160(19) 0.78764(14)
H35 H 0.6193 0.9095 0.7536
H36 H 0.5816 0.9977 0.7983
H37 H 0.6630 0.9075 0.8216
C32 C 0.6224(5) 0.7794(6) 0.6198(4)
H38 H 0.6540 0.8490 0.6250
H39 H 0.6131 0.7468 0.6591
C33 C 0.5126(7) 0.7792(9) 0.5829(7)
H40 H 0.5271 0.8067 0.5432
H41 H 0.4558 0.8217 0.6024
H42 H 0.4839 0.7092 0.5792
O1B O 0.93437(11) 1.23796(11) 0.62589(6)
O2B O 1.35869(12) 1.39543(12) 0.56508(6)
O3B O 0.86971(18) 1.34137(16) 0.32923(8)
O4B O 1.31054(14) 1.28145(15) 0.41890(10)
O5B O 0.73298(11) 0.92908(10) 0.30846(6)
O6B O 1.16737(14) 1.05785(10) 0.24569(8)
C1B C 0.7443(2) 1.1794(3) 0.61111(15)
H1B H 0.7253 1.2161 0.6475
H2B H 0.6783 1.1798 0.5835
H3B H 0.7648 1.1087 0.6210
C2B C 0.84488(18) 1.2317(2) 0.58196(12)
H4B H 0.8229 1.3008 0.5681
H5B H 0.8700 1.1915 0.5473
C3B C 1.03877(15) 1.27644(13) 0.60885(8)
C4B C 1.12852(16) 1.26870(12) 0.65138(8)
C5B C 1.23584(17) 1.30710(13) 0.63633(8)
H6B H 1.2976 1.3014 0.6642
C6B C 1.25443(16) 1.35386(13) 0.58104(8)
C7B C 1.16421(15) 1.36330(12) 0.53902(8)
C8B C 1.05734(15) 1.32308(13) 0.55377(8)
H7B H 0.9959 1.3276 0.5256
C9B C 1.45358(19) 1.3863(2) 0.60619(11)
H8B H 1.4362 1.4209 0.6441
H9B H 1.4693 1.3134 0.6147
C10B C 1.5561(2) 1.4354(2) 0.57847(13)
H10B H 1.6221 1.4300 0.6059
H11B H 1.5729 1.4006 0.5411
H12B H 1.5399 1.5076 0.5704
C11B C 1.17887(18) 1.42092(13) 0.48010(8)
H13B H 1.2610 1.4347 0.4750
H14B H 1.1396 1.4876 0.4828
C12B C 0.7491(4) 1.3435(5) 0.4101(2)
H15B H 0.8139 1.3206 0.4350
H16B H 0.6997 1.3875 0.4336
H17B H 0.7056 1.2842 0.3958
C13B C 0.7891(3) 1.3985(3) 0.36151(18)
H18B H 0.7240 1.4167 0.3347
H19B H 0.8249 1.4626 0.3758
C14B C 0.9791(2) 1.32904(15) 0.35270(9)
C15B C 1.02218(19) 1.38070(14) 0.40317(8)
H20B H 0.9745 1.4278 0.4229
C16B C 1.13301(17) 1.36480(13) 0.42522(8)
C17B C 1.20208(18) 1.29555(14) 0.39459(10)
C18B C 1.1612(2) 1.24736(14) 0.34265(10)
H21B H 1.2103 1.2031 0.3217
C19B C 1.05015(19) 1.26289(12) 0.32093(8)
C20B C 1.0066(2) 1.21175(13) 0.26346(8)
H22B H 0.9374 1.2480 0.2489
H23B H 1.0653 1.2188 0.2328
C21B C 0.97826(19) 1.09811(13) 0.27095(7)
C22B C 1.06071(18) 1.02252(13) 0.26115(8)
C23B C 1.03153(18) 0.91854(13) 0.26674(8)
H24B H 1.0875 0.8680 0.2595
C24B C 0.92242(16) 0.88812(12) 0.28264(7)
C25B C 0.83995(16) 0.96426(13) 0.29287(8)
C26B C 0.86827(18) 1.06794(13) 0.28660(8)
H25B H 0.8119 1.1185 0.2931
C27B C 0.89104(17) 0.77450(12) 0.28637(8)
H26B H 0.9527 0.7345 0.2681
H27B H 0.8208 0.7633 0.2619
C28B C 0.5421(2) 0.9449(2) 0.33954(17)
H28B H 0.5629 0.9051 0.3751
H29B H 0.4817 0.9935 0.3491
H30B H 0.5148 0.8987 0.3080
C29B C 0.64564(19) 1.00267(17) 0.31859(13)
H31B H 0.6714 1.0524 0.3492
H32B H 0.6268 1.0402 0.2814
C30B C 1.2532(2) 0.98657(16) 0.22861(11)
H33B H 1.2723 0.9397 0.2620
H34B H 1.2259 0.9455 0.1941
C31B C 1.3563(2) 1.04840(19) 0.21236(14)
H35B H 1.3807 1.0905 0.2464
H36B H 1.4184 1.0023 0.2017
H37B H 1.3370 1.0925 0.1784
C32B C 1.3776(5) 1.2206(6) 0.3802(4)
H38B H 1.3460 1.1510 0.3750
H39B H 1.3869 1.2532 0.3409
C33B C 1.4874(7) 1.2208(9) 0.4171(7)
H40B H 1.4729 1.1933 0.4568
H41B H 1.5442 1.1783 0.3976
H42B H 1.5161 1.2908 0.4208
H43? H 1.1821 0.5955 0.5969
H44? H 1.2138 0.5317 0.6553
C34? C 0.6213(6) 0.8138(6) 0.5876(3)
H45? H 0.6740 0.8729 0.5884
H46? H 0.5828 0.8118 0.6263
C35? C 0.5311(7) 0.8307(8) 0.5380(4)
H47? H 0.5685 0.8516 0.5015
H48? H 0.4780 0.8842 0.5501
H49? H 0.4890 0.7670 0.5308
C36? C 1.3377(12) 0.6441(17) 0.6371(8)
H50? H 1.3364 0.7156 0.6243
H51? H 1.3820 0.6036 0.6093
H52? H 1.3728 0.6394 0.6770
H60? H 0.8221 0.9235 0.4770
loop_
_geom_bond_atom_site_label_1
_geom_bond_atom_site_label_2
_geom_bond_site_symmetry_1
_geom_bond_site_symmetry_2
O1 C2 1_555 1_555
O2 C6 1_555 1_555
O3 C13 1_555 1_555
O4 C17 1_555 1_555
O5 C25 1_555 1_555
O6 C22 1_555 1_555
C1 H1 1_555 1_555
H2 C1 1_555 1_555
H3 C1 1_555 1_555
C2 C1 1_555 1_555
H4 C2 1_555 1_555
H5 C2 1_555 1_555
C3 O1 1_555 1_555
C4 C3 1_555 1_555
C5 C4 1_555 1_555
H6 C5 1_555 1_555
C6 C5 1_555 1_555
C7 C6 1_555 1_555
C8 C3 1_555 1_555
H7 C8 1_555 1_555
C9 O2 1_555 1_555
H8 C9 1_555 1_555
H9 C9 1_555 1_555
C10 C9 1_555 1_555
H10 C10 1_555 1_555
H11 C10 1_555 1_555
H12 C10 1_555 1_555
C11 C7 1_555 1_555
H13 C11 1_555 1_555
H14 C11 1_555 1_555
C12 H15 1_555 1_555
H16 C12 1_555 1_555
H17 C12 1_555 1_555
C13 C12 1_555 1_555
H18 C13 1_555 1_555
H19 C13 1_555 1_555
C14 O3 1_555 1_555
C15 C14 1_555 1_555
H20 C15 1_555 1_555
C16 C11 1_555 1_555
C17 C16 1_555 1_555
C18 C17 1_555 1_555
H21 C18 1_555 1_555
C19 C14 1_555 1_555
C20 C19 1_555 1_555
H22 C20 1_555 1_555
H23 C20 1_555 1_555
C21 C20 1_555 1_555
C22 C21 1_555 1_555
C23 C22 1_555 1_555
H24 C23 1_555 1_555
C24 C23 1_555 1_555
C25 C24 1_555 1_555
C26 C21 1_555 1_555
H25 C26 1_555 1_555
C27 C24 1_555 1_555
H26 C27 1_555 1_555
H27 C27 1_555 1_555
C28 H28 1_555 1_555
H29 C28 1_555 1_555
H30 C28 1_555 1_555
C29 O5 1_555 1_555
H31 C29 1_555 1_555
H32 C29 1_555 1_555
C30 O6 1_555 1_555
H33 C30 1_555 1_555
H34 C30 1_555 1_555
C31 C30 1_555 1_555
H35 C31 1_555 1_555
H36 C31 1_555 1_555
H37 C31 1_555 1_555
C32 O4 1_555 1_555
H38 C32 1_555 1_555
H39 C32 1_555 1_555
C33 C32 1_555 1_555
H40 C33 1_555 1_555
H41 C33 1_555 1_555
H42 C33 1_555 1_555
C37 H53 1_555 1_555
C38 C37 1_555 1_555
H54 C38 1_555 1_555
C39 C38 1_555 1_555
C40 C39 1_555 1_555
H55 C40 1_555 1_555
H56 C40 1_555 1_555
C41 C40 1_555 1_555
H57 C41 1_555 1_555
H58 C41 1_555 1_555
H59 C41 1_555 1_555
O1B C2B 1_555 1_555
O2B C6B 1_555 1_555
O3B C13B 1_555 1_555
O4B C17B 1_555 1_555
O5B C25B 1_555 1_555
O6B C22B 1_555 1_555
C1B H1B 1_555 1_555
H2B C1B 1_555 1_555
H3B C1B 1_555 1_555
C2B C1B 1_555 1_555
H4B C2B 1_555 1_555
H5B C2B 1_555 1_555
C3B O1B 1_555 1_555
C4B C27 1_555 1_555
C5B C4B 1_555 1_555
H6B C5B 1_555 1_555
C6B C5B 1_555 1_555
C7B C6B 1_555 1_555
C8B C3B 1_555 1_555
H7B C8B 1_555 1_555
C9B O2B 1_555 1_555
H8B C9B 1_555 1_555
H9B C9B 1_555 1_555
C10B C9B 1_555 1_555
H10B C10B 1_555 1_555
H11B C10B 1_555 1_555
H12B C10B 1_555 1_555
C11B C7B 1_555 1_555
H13B C11B 1_555 1_555
H14B C11B 1_555 1_555
C12B H15B 1_555 1_555
H16B C12B 1_555 1_555
H17B C12B 1_555 1_555
C13B C12B 1_555 1_555
H18B C13B 1_555 1_555
H19B C13B 1_555 1_555
C14B O3B 1_555 1_555
C15B C14B 1_555 1_555
H20B C15B 1_555 1_555
C16B C11B 1_555 1_555
C17B C16B 1_555 1_555
C18B C17B 1_555 1_555
H21B C18B 1_555 1_555
C19B C14B 1_555 1_555
C20B C19B 1_555 1_555
H22B C20B 1_555 1_555
H23B C20B 1_555 1_555
C21B C20B 1_555 1_555
C22B C21B 1_555 1_555
C23B C22B 1_555 1_555
H24B C23B 1_555 1_555
C24B C23B 1_555 1_555
C25B C24B 1_555 1_555
C26B C21B 1_555 1_555
H25B C26B 1_555 1_555
C27B C4 1_555 1_555
H26B C27B 1_555 1_555
H27B C27B 1_555 1_555
C28B H28B 1_555 1_555
H29B C28B 1_555 1_555
H30B C28B 1_555 1_555
C29B O5B 1_555 1_555
H31B C29B 1_555 1_555
H32B C29B 1_555 1_555
C30B O6B 1_555 1_555
H33B C30B 1_555 1_555
H34B C30B 1_555 1_555
C31B C30B 1_555 1_555
H35B C31B 1_555 1_555
H36B C31B 1_555 1_555
H37B C31B 1_555 1_555
C32B O4B 1_555 1_555
H38B C32B 1_555 1_555
H39B C32B 1_555 1_555
C33B C32B 1_555 1_555
H40B C33B 1_555 1_555
H41B C33B 1_555 1_555
H42B C33B 1_555 1_555
C37B C39 1_555 1_555
H53B C37B 1_555 1_555
C38B C37B 1_555 1_555
H54B C38B 1_555 1_555
C39B C37 1_555 1_555
C40B C39B 1_555 1_555
H55B C40B 1_555 1_555
H56B C40B 1_555 1_555
C41B C40B 1_555 1_555
H57B C41B 1_555 1_555
H58B C41B 1_555 1_555
H59B C41B 1_555 1_555
C7 C8 1_555 1_555
C15 C16 1_555 1_555
C18 C19 1_555 1_555
C25 C26 1_555 1_555
C28 C29 1_555 1_555
C3B C4B 1_555 1_555
C7B C8B 1_555 1_555
C15B C16B 1_555 1_555
C18B C19B 1_555 1_555
C24B C27B 1_555 1_555
C25B C26B 1_555 1_555
C28B C29B 1_555 1_555
C38B C39B 1_555 1_555

#END
