
#######################################################################
#
#                 Cambridge Crystallographic Data Centre
#                                CCDC 
#
#######################################################################
#
# If this CIF has been generated from an entry in the Cambridge 
# Structural Database, then it will include bibliographic, chemical, 
# crystal, experimental, refinement or atomic coordinate data resulting 
# from the CCDC's data processing and validation procedures.
#
#######################################################################

data_XAMQIO
_chemical_formula_moiety         'C29 H40 N6 O10'
_symmetry_cell_setting           orthorhombic
_symmetry_space_group_name_H-M   'I m m b'
_symmetry_Int_Tables_number      74
_space_group_name_Hall           '-I 2a 2a'
loop_
_symmetry_equiv_pos_site_id
_symmetry_equiv_pos_as_xyz
1 x,y,z
2 1/2-x,-y,z
3 1/2+x,-y,-z
4 -x,y,-z
5 1/2+x,1/2+y,1/2+z
6 -x,1/2-y,1/2+z
7 x,1/2-y,1/2-z
8 1/2-x,1/2+y,1/2-z
9 -x,-y,-z
10 1/2+x,y,-z
11 1/2-x,y,z
12 x,-y,z
13 1/2-x,1/2-y,1/2-z
14 x,1/2+y,1/2-z
15 -x,1/2+y,1/2+z
16 1/2+x,1/2-y,1/2+z
_cell_length_a                   22.752(4)
_cell_length_b                   12.9206(16)
_cell_length_c                   11.2524(13)
_cell_angle_alpha                90
_cell_angle_beta                 90
_cell_angle_gamma                90
_cell_volume                     3307.86
loop_
_atom_site_label
_atom_site_type_symbol
_atom_site_fract_x
_atom_site_fract_y
_atom_site_fract_z
O3 O 0.9210(19) 0.309(3) 0.611(2)
H10 H 0.9174 0.2658 0.6674
H11 H 0.9120 0.3540 0.6626
O4 O 1.0000 0.204(3) 0.5000
H12 H 1.028(8) 0.166(4) 0.53(6)
H12C H 0.972(8) 0.166(4) 0.47(6)
O5 O 0.9127(10) -0.0000 0.795(3)
O6 O 0.978(4) 0.0000 0.53(2)
O1 O 0.7500 0.1291(4) 0.2445(6)
C1 C 0.8034(7) 0.1370(5) 0.4229(9)
C2 C 0.7500 0.1344(6) 0.3559(10)
C3 C 0.8024(10) 0.1379(6) 0.5501(11)
C4 C 0.7500 0.1370(10) 0.6114(14)
O2 O 0.8494(8) 0.1397(7) 0.6103(10)
N1 N 0.8646(6) 0.1179(6) 0.2556(9)
H1 H 0.8344 0.1218 0.2100
N2 N 0.7500 0.1160(7) 0.8111(11)
C5 C 0.8572(9) 0.1263(7) 0.3680(14)
H2 H 0.8904 0.1250 0.4160
C6 C 0.9256(7) 0.0000 0.1298(16)
H3 H 0.8941 0.0000 0.0718
H4 H 0.9624 -0.0000 0.0862
C7 C 0.9219(8) 0.1023(11) 0.2021(16)
H5 H 0.9514 0.1011 0.2642
H6 H 0.9306 0.1600 0.1500
C8 C 0.7500 -0.0000 0.9778(13)
H7 H 0.7838 -0.0000 1.0304
C9 C 0.7500 0.0974(9) 0.9374(10)
C10 C 0.7210(14) 0.1261(9) 0.7344(14)
H8 H 0.682(5) 0.121(7) 0.769(12)
H9 H 0.767(4) 0.143(7) 0.970(9)
O1A O 0.7500 -0.1291(4) 0.2445(6)
C1A C 0.6966(7) -0.1370(5) 0.4229(9)
C2A C 0.7500 -0.1344(6) 0.3559(10)
C3A C 0.6976(10) -0.1379(6) 0.5501(11)
C4A C 0.7500 -0.1370(10) 0.6114(14)
O2A O 0.6506(8) -0.1397(7) 0.6103(10)
N1A N 0.6354(6) -0.1179(6) 0.2556(9)
H1A H 0.6656 -0.1218 0.2100
N2A N 0.7500 -0.1160(7) 0.8111(11)
C5A C 0.6428(9) -0.1263(7) 0.3680(14)
H2A H 0.6096 -0.1250 0.4160
C6A C 0.5744(7) 0.0000 0.1298(16)
H3A H 0.6059 0.0000 0.0718
H4A H 0.5376 -0.0000 0.0862
C7A C 0.5781(8) -0.1023(11) 0.2021(16)
H5A H 0.5486 -0.1011 0.2642
H6A H 0.5694 -0.1600 0.1500
H7A H 0.7162 -0.0000 1.0304
C9A C 0.7500 -0.0974(9) 0.9374(10)
C10A C 0.7790(14) -0.1261(9) 0.7344(14)
H8A H 0.818(5) -0.121(7) 0.769(12)
H9A H 0.733(4) -0.143(7) 0.970(9)
C1J C 0.6966(7) 0.1370(5) 0.4229(9)
C3J C 0.6976(10) 0.1379(6) 0.5501(11)
O2J O 0.6506(8) 0.1397(7) 0.6103(10)
N1J N 0.6354(6) 0.1179(6) 0.2556(9)
H1J H 0.6656 0.1218 0.2100
C5J C 0.6428(9) 0.1263(7) 0.3680(14)
H2J H 0.6096 0.1250 0.4160
C7J C 0.5781(8) 0.1023(11) 0.2021(16)
H5J H 0.5486 0.1011 0.2642
H6J H 0.5694 0.1600 0.1500
C10J C 0.7790(14) 0.1261(9) 0.7344(14)
H8J H 0.818(5) 0.121(7) 0.769(12)
H9J H 0.733(4) 0.143(7) 0.970(9)
C1K C 0.8034(7) -0.1370(5) 0.4229(9)
C3K C 0.8024(10) -0.1379(6) 0.5501(11)
O2K O 0.8494(8) -0.1397(7) 0.6103(10)
N1K N 0.8646(6) -0.1179(6) 0.2556(9)
H1K H 0.8344 -0.1218 0.2100
C5K C 0.8572(9) -0.1263(7) 0.3680(14)
H2K H 0.8904 -0.1250 0.4160
C7K C 0.9219(8) -0.1023(11) 0.2021(16)
H5K H 0.9514 -0.1011 0.2642
H6K H 0.9306 -0.1600 0.1500
C10K C 0.7210(14) -0.1261(9) 0.7344(14)
H8K H 0.682(5) -0.121(7) 0.769(12)
H9K H 0.767(4) -0.143(7) 0.970(9)
H13? H 0.7838 -0.0000 1.0304
H14? H 0.878(11) -0.0000 0.77(4)
loop_
_geom_bond_atom_site_label_1
_geom_bond_atom_site_label_2
_geom_bond_site_symmetry_1
_geom_bond_site_symmetry_2
O1 C2 1_555 1_555
C1 C2 1_555 1_555
C2 C1J 1_555 1_555
C3 C1 1_555 1_555
C4 C3 1_555 1_555
O2 C3 1_555 1_555
N1 H1 1_555 1_555
N2 C9 1_555 1_555
C5 C1 1_555 1_555
H2 C5 1_555 1_555
C6 H3 1_555 1_555
H4 C6 1_555 1_555
C7 N1 1_555 1_555
H5 C7 1_555 1_555
H6 C7 1_555 1_555
C8 H7 1_555 1_555
C9 C8 1_555 1_555
C10 C4 1_555 1_555
H8 C10 1_555 1_555
H9 C9 1_555 1_555
O3 H10 1_555 1_555
H11 O3 1_555 1_555
O4 H12 1_555 1_555
O1A C2A 1_555 1_555
C1A C2A 1_555 1_555
C2A C1K 1_555 1_555
C3A C1A 1_555 1_555
C4A C3A 1_555 1_555
O2A C3A 1_555 1_555
N1A H1A 1_555 1_555
N2A C9A 1_555 1_555
C5A C1A 1_555 1_555
H2A C5A 1_555 1_555
C6A H3A 1_555 1_555
H4A C6A 1_555 1_555
C7A N1A 1_555 1_555
H5A C7A 1_555 1_555
H6A C7A 1_555 1_555
H7A C8 1_555 1_555
C9A C8 1_555 1_555
C10A C4A 1_555 1_555
H8A C10A 1_555 1_555
H9A C9A 1_555 1_555
C1J C3J 1_555 1_555
C3J C4 1_555 1_555
O2J C3J 1_555 1_555
N1J H1J 1_555 1_555
C5J C1J 1_555 1_555
H2J C5J 1_555 1_555
C7J C6A 1_555 1_555
H5J C7J 1_555 1_555
H6J C7J 1_555 1_555
C10J C4 1_555 1_555
H8J C10J 1_555 1_555
H9J C9 1_555 1_555
C1K C3K 1_555 1_555
C3K C4A 1_555 1_555
O2K C3K 1_555 1_555
N1K H1K 1_555 1_555
C5K C1K 1_555 1_555
H2K C5K 1_555 1_555
C7K C6 1_555 1_555
H5K C7K 1_555 1_555
H6K C7K 1_555 1_555
C10K C4A 1_555 1_555
H8K C10K 1_555 1_555
H9K C9A 1_555 1_555
H12C O4 1_555 1_555
N1 C5 1_555 1_555
N2 C10 1_555 1_555
N2 C10J 1_555 1_555
C6 C7 1_555 1_555
C10 C10J 1_555 1_555
N1A C5A 1_555 1_555
N2A C10A 1_555 1_555
N2A C10K 1_555 1_555
C6A C7A 1_555 1_555
C10A C10K 1_555 1_555
N1J C5J 1_555 1_555
N1J C7J 1_555 1_555
N1K C5K 1_555 1_555
N1K C7K 1_555 1_555

#END
