
#######################################################################
#
#                 Cambridge Crystallographic Data Centre
#                                CCDC 
#
#######################################################################
#
# If this CIF has been generated from an entry in the Cambridge 
# Structural Database, then it will include bibliographic, chemical, 
# crystal, experimental, refinement or atomic coordinate data resulting 
# from the CCDC's data processing and validation procedures.
#
#######################################################################

data_XAMQEK
_chemical_formula_moiety         'C28 H36 N6 O8 S2'
_symmetry_cell_setting           monoclinic
_symmetry_space_group_name_H-M   'C 2/c'
_symmetry_Int_Tables_number      15
_space_group_name_Hall           '-C 2yn'
loop_
_symmetry_equiv_pos_site_id
_symmetry_equiv_pos_as_xyz
1 x,y,z
2 -x,y,1/2-z
3 1/2+x,1/2+y,z
4 1/2-x,1/2+y,1/2-z
5 -x,-y,-z
6 x,-y,1/2+z
7 1/2-x,1/2-y,-z
8 1/2+x,1/2-y,1/2+z
_cell_length_a                   18.165(3)
_cell_length_b                   10.8543(10)
_cell_length_c                   20.384(3)
_cell_angle_alpha                90
_cell_angle_beta                 109.934(17)
_cell_angle_gamma                90
_cell_volume                     3778.28
loop_
_atom_site_label
_atom_site_type_symbol
_atom_site_fract_x
_atom_site_fract_y
_atom_site_fract_z
S1 S 0.10687(8) 0.35395(14) 0.08220(7)
O1 O 0.1243(2) 0.3195(5) 0.15610(19)
C1 C 0.0044(4) 0.3445(8) 0.0398(3)
H1 H -0.0133 0.2634 0.0460
H2 H -0.0081 0.3607 -0.0091
H3 H -0.0211 0.4042 0.0595
C2 C 0.1335(6) 0.2265(10) 0.0411(4)
H4 H 0.1896 0.2218 0.0552
H5 H 0.1119 0.2363 -0.0086
H6 H 0.1136 0.1522 0.0544
S2 S -0.25912(10) 1.43382(18) 0.06342(9)
O2 O -0.2205(3) 1.3268(6) 0.1026(3)
C3 C -0.3528(5) 1.3891(9) 0.0086(4)
H7 H -0.3481 1.3258 -0.0226
H8 H -0.3795 1.4589 -0.0179
H9 H -0.3821 1.3581 0.0364
C4 C -0.2211(6) 1.4617(12) -0.0019(5)
H10 H -0.1696 1.4964 0.0179
H11 H -0.2543 1.5185 -0.0350
H12 H -0.2181 1.3858 -0.0251
O3 O -0.01121(19) 0.5840(3) 0.14577(19)
N1 N -0.20636(18) 0.6647(3) 0.19119(19)
H13 H -0.2323 0.7312 0.1758
O4 O 0.06300(18) 1.0001(3) 0.14467(18)
N2 N -0.0249(2) 1.1731(3) 0.17666(18)
H14 H 0.0090 1.1683 0.1559
O5 O -0.18041(17) 0.8982(3) 0.1645(2)
N3 N -0.13688(19) 0.6450(3) 0.33699(19)
H15 H -0.1050 0.5861 0.3559
C5 C -0.0704(2) 1.0773(4) 0.1735(2)
H16 H -0.1165 1.0925 0.1825
C6 C -0.0252(2) 0.6961(4) 0.1513(2)
C7 C -0.0575(2) 0.9565(4) 0.1584(2)
C8 C -0.1082(2) 0.7564(4) 0.3400(2)
H17 H -0.1434 0.8209 0.3353
C9 C 0.0153(2) 0.9195(4) 0.1502(2)
C10 C -0.1153(2) 0.8654(4) 0.1608(2)
C11 C -0.1418(2) 0.6481(4) 0.1786(2)
H18 H -0.1235 0.5675 0.1820
C12 C -0.0966(2) 0.7365(4) 0.1606(2)
C13 C 0.0321(2) 0.7889(4) 0.1505(2)
C14 C -0.0289(3) 1.2867(4) 0.2133(2)
H19 H -0.0814 1.2967 0.2146
H20 H -0.0181 1.3560 0.1879
C15 C -0.2380(2) 0.5788(4) 0.2295(3)
H21 H -0.2169 0.4973 0.2274
H22 H -0.2944 0.5745 0.2072
C16 C -0.2194(2) 0.6147(5) 0.3035(2)
H23 H -0.2509 0.6854 0.3060
H24 H -0.2329 0.5474 0.3286
O3A O 0.01121(19) 0.5840(3) 0.35423(19)
N1A N 0.20636(18) 0.6647(3) 0.30881(19)
H13A H 0.2323 0.7312 0.3242
O4A O -0.06300(18) 1.0001(3) 0.35533(18)
N2A N 0.0249(2) 1.1731(3) 0.32334(18)
H14A H -0.0090 1.1683 0.3441
O5A O 0.18041(17) 0.8982(3) 0.3355(2)
N3A N 0.13688(19) 0.6450(3) 0.16301(19)
H15A H 0.1050 0.5861 0.1441
C5A C 0.0704(2) 1.0773(4) 0.3265(2)
H16A H 0.1165 1.0925 0.3175
C6A C 0.0252(2) 0.6961(4) 0.3487(2)
C7A C 0.0575(2) 0.9565(4) 0.3416(2)
C8A C 0.1082(2) 0.7564(4) 0.1600(2)
H17A H 0.1434 0.8209 0.1647
C9A C -0.0153(2) 0.9195(4) 0.3498(2)
C10A C 0.1153(2) 0.8654(4) 0.3392(2)
C11A C 0.1418(2) 0.6481(4) 0.3214(2)
H18A H 0.1235 0.5675 0.3180
C12A C 0.0966(2) 0.7365(4) 0.3394(2)
C13A C -0.0321(2) 0.7889(4) 0.3495(2)
C14A C 0.0289(3) 1.2867(4) 0.2867(2)
H19A H 0.0814 1.2967 0.2854
H20A H 0.0181 1.3560 0.3121
C15A C 0.2380(2) 0.5788(4) 0.2705(3)
H21A H 0.2169 0.4973 0.2726
H22A H 0.2944 0.5745 0.2928
C16A C 0.2194(2) 0.6147(5) 0.1965(2)
H23A H 0.2509 0.6854 0.1940
H24A H 0.2329 0.5474 0.1714
loop_
_geom_bond_atom_site_label_1
_geom_bond_atom_site_label_2
_geom_bond_site_symmetry_1
_geom_bond_site_symmetry_2
S1 O1 1_555 1_555
C1 S1 1_555 1_555
H1 C1 1_555 1_555
H2 C1 1_555 1_555
H3 C1 1_555 1_555
C2 S1 1_555 1_555
H4 C2 1_555 1_555
H5 C2 1_555 1_555
H6 C2 1_555 1_555
S2 O2 1_555 1_555
C3 S2 1_555 1_555
H7 C3 1_555 1_555
H8 C3 1_555 1_555
H9 C3 1_555 1_555
C4 S2 1_555 1_555
H10 C4 1_555 1_555
H11 C4 1_555 1_555
H12 C4 1_555 1_555
O3 C6 1_555 1_555
N1 H13 1_555 1_555
O4 C9 1_555 1_555
N2 H14 1_555 1_555
O5 C10 1_555 1_555
N3 H15 1_555 1_555
C5 N2 1_555 1_555
H16 C5 1_555 1_555
C6 C12 1_555 1_555
C7 C5 1_555 1_555
C8 N3 1_555 1_555
H17 C8 1_555 1_555
C9 C7 1_555 1_555
C10 C7 1_555 1_555
C11 N1 1_555 1_555
H18 C11 1_555 1_555
C12 C10 1_555 1_555
C13 C6 1_555 1_555
C14 N2 1_555 1_555
H19 C14 1_555 1_555
H20 C14 1_555 1_555
C15 N1 1_555 1_555
H21 C15 1_555 1_555
H22 C15 1_555 1_555
C16 N3 1_555 1_555
H23 C16 1_555 1_555
H24 C16 1_555 1_555
O3A C6A 1_555 1_555
N1A H13A 1_555 1_555
O4A C9A 1_555 1_555
N2A H14A 1_555 1_555
O5A C10A 1_555 1_555
N3A H15A 1_555 1_555
C5A N2A 1_555 1_555
H16A C5A 1_555 1_555
C6A C12A 1_555 1_555
C7A C5A 1_555 1_555
C8A C13 1_555 1_555
H17A C8A 1_555 1_555
C9A C7A 1_555 1_555
C10A C7A 1_555 1_555
C11A N1A 1_555 1_555
H18A C11A 1_555 1_555
C12A C10A 1_555 1_555
C13A C8 1_555 1_555
C14A C14 1_555 1_555
H19A C14A 1_555 1_555
H20A C14A 1_555 1_555
C15A N1A 1_555 1_555
H21A C15A 1_555 1_555
H22A C15A 1_555 1_555
C16A N3A 1_555 1_555
H23A C16A 1_555 1_555
H24A C16A 1_555 1_555
C9 C13 1_555 1_555
C11 C12 1_555 1_555
C15 C16 1_555 1_555
N2A C14A 1_555 1_555
N3A C8A 1_555 1_555
C6A C13A 1_555 1_555
C9A C13A 1_555 1_555
C11A C12A 1_555 1_555
C15A C16A 1_555 1_555

#END
