
#######################################################################
#
#                 Cambridge Crystallographic Data Centre
#                                CCDC 
#
#######################################################################
#
# If this CIF has been generated from an entry in the Cambridge 
# Structural Database, then it will include bibliographic, chemical, 
# crystal, experimental, refinement or atomic coordinate data resulting 
# from the CCDC's data processing and validation procedures.
#
#######################################################################

data_XAMQUA
_chemical_formula_moiety         'C33 H42 N6 O6,3(C3 H7 N1 O1)'
_chemical_name_systematic        
'5,11,19,25,30,36-hexaazatetracyclo[13.13.9.1^3,27^.1^13,17^]nonatriaconta-1(29),3,12,15(37),17,26-hexaene-2,14,16,28,38,39-hexone N,N-dimethylformamide solvate'
_symmetry_cell_setting           hexagonal
_symmetry_space_group_name_H-M   'P 63/m'
_symmetry_Int_Tables_number      176
_space_group_name_Hall           '-P 6c'
loop_
_symmetry_equiv_pos_site_id
_symmetry_equiv_pos_as_xyz
1 x,y,z
2 x-y,x,1/2+z
3 -y,x-y,z
4 -x,-y,1/2+z
5 -x+y,-x,z
6 y,-x+y,1/2+z
7 -x,-y,-z
8 -x+y,-x,1/2-z
9 y,-x+y,-z
10 x,y,1/2-z
11 x-y,x,-z
12 -y,x-y,1/2-z
_cell_length_a                   14.666(2)
_cell_length_b                   14.666(2)
_cell_length_c                   12.2227(15)
_cell_angle_alpha                90
_cell_angle_beta                 90
_cell_angle_gamma                120
_cell_volume                     2276.78
_exptl_crystal_colour            colorless
_exptl_crystal_description       needle
_cell_formula_units_Z            2
loop_
_atom_site_label
_atom_site_type_symbol
_atom_site_fract_x
_atom_site_fract_y
_atom_site_fract_z
O1 O 0.4892(4) 0.3478(3) 0.5357(4)
N1 N 0.7595(4) 0.6221(4) 0.5385(4)
H1 H 0.8193 0.6246 0.5356
C1 C 0.6757(5) 0.4353(4) 0.5377(4)
C2 C 0.5713(5) 0.3419(5) 0.5379(5)
C3 C 0.6783(6) 0.5301(5) 0.5376(5)
C4 C 0.7638(6) 0.7238(5) 0.5438(5)
C5 C 0.8189(5) 0.7843(4) 0.6462(5)
H2 H 0.8216 0.8518 0.6456
H3 H 0.8907 0.7977 0.6465
C6 C 0.7631(8) 0.7245(8) 0.7500
H4 H 0.621(4) 0.537(4) 0.538(4)
H5 H 0.682(6) 0.712(5) 0.7500
H6 H 0.691(5) 0.712(4) 0.534(4)
H7 H 0.725(8) 0.652(9) 0.7500
H8 H 0.799(4) 0.763(4) 0.471(5)
O1B O 0.6522(3) 0.1414(5) 0.5357(4)
N1B N 0.3779(4) 0.1374(6) 0.5385(4)
H1B H 0.3754 0.1947 0.5356
C1B C 0.5647(4) 0.2404(6) 0.5377(4)
C2B C 0.6581(5) 0.2294(7) 0.5379(5)
C3B C 0.4699(5) 0.1482(8) 0.5376(5)
C4B C 0.2762(5) 0.0400(8) 0.5438(5)
C5B C 0.2157(4) 0.0346(6) 0.6462(5)
H2B H 0.1482 -0.0302 0.6456
H3B H 0.2023 0.0930 0.6465
C6B C 0.2755(8) 0.0386(11) 0.7500
H4B H 0.463(4) 0.084(6) 0.538(4)
H5B H 0.288(5) -0.030(8) 0.7500
H6B H 0.288(4) -0.021(6) 0.534(4)
H7B H 0.348(9) 0.073(12) 0.7500
H8B H 0.237(4) 0.036(6) 0.471(5)
O1D O 0.8586(5) 0.5108(4) 0.5357(4)
N1D N 0.8626(6) 0.2405(4) 0.5385(4)
H1D H 0.8053 0.1807 0.5356
C1D C 0.7596(6) 0.3243(5) 0.5377(4)
C2D C 0.7706(7) 0.4287(5) 0.5379(5)
C3D C 0.8518(8) 0.3217(6) 0.5376(5)
C4D C 0.9600(8) 0.2362(6) 0.5438(5)
C5D C 0.9654(6) 0.1811(5) 0.6462(5)
H2D H 1.0302 0.1784 0.6456
H3D H 0.9070 0.1093 0.6465
C6D C 0.9614(11) 0.2369(8) 0.7500
H4D H 0.916(6) 0.379(4) 0.538(4)
H5D H 1.030(8) 0.318(6) 0.7500
H6D H 1.021(6) 0.309(5) 0.534(4)
H7D H 0.927(12) 0.275(8) 0.7500
H8D H 0.964(6) 0.201(4) 0.471(5)
O1G O 0.8586(5) 0.5108(4) 0.9643(4)
N1G N 0.8626(6) 0.2405(4) 0.9615(4)
H1G H 0.8053 0.1807 0.9644
C1G C 0.7596(6) 0.3243(5) 0.9623(4)
C2G C 0.7706(7) 0.4287(5) 0.9621(5)
C3G C 0.8518(8) 0.3217(6) 0.9624(5)
C4G C 0.9600(8) 0.2362(6) 0.9562(5)
C5G C 0.9654(6) 0.1811(5) 0.8538(5)
H2G H 1.0302 0.1784 0.8544
H3G H 0.9070 0.1093 0.8535
H4G H 0.916(6) 0.379(4) 0.962(4)
H6G H 1.021(6) 0.309(5) 0.966(4)
H8G H 0.964(6) 0.201(4) 1.029(5)
O1I O 0.4892(4) 0.3478(3) 0.9643(4)
N1I N 0.7595(4) 0.6221(4) 0.9615(4)
H1I H 0.8193 0.6246 0.9644
C1I C 0.6757(5) 0.4353(4) 0.9623(4)
C2I C 0.5713(5) 0.3419(5) 0.9621(5)
C3I C 0.6783(6) 0.5301(5) 0.9624(5)
C4I C 0.7638(6) 0.7238(5) 0.9562(5)
C5I C 0.8189(5) 0.7843(4) 0.8538(5)
H2I H 0.8216 0.8518 0.8544
H3I H 0.8907 0.7977 0.8535
H4I H 0.621(4) 0.537(4) 0.962(4)
H6I H 0.691(5) 0.712(4) 0.966(4)
H8I H 0.799(4) 0.763(4) 1.029(5)
O1K O 0.6522(3) 0.1414(5) 0.9643(4)
N1K N 0.3779(4) 0.1374(6) 0.9615(4)
H1K H 0.3754 0.1947 0.9644
C1K C 0.5647(4) 0.2404(6) 0.9623(4)
C2K C 0.6581(5) 0.2294(7) 0.9621(5)
C3K C 0.4699(5) 0.1482(8) 0.9624(5)
C4K C 0.2762(5) 0.0400(8) 0.9562(5)
C5K C 0.2157(4) 0.0346(6) 0.8538(5)
H2K H 0.1482 -0.0302 0.8544
H3K H 0.2023 0.0930 0.8535
H4K H 0.463(4) 0.084(6) 0.962(4)
H6K H 0.288(4) -0.021(6) 0.966(4)
H8K H 0.237(4) 0.036(6) 1.029(5)
N2 N 0.3589(6) 0.4425(6) 0.7500
C7 C 0.4688(7) 0.5219(8) 0.7500
C8 C 0.2852(8) 0.4779(8) 0.7500
O2 O 0.2341(7) 0.2718(6) 0.7500
C9 C 0.3285(12) 0.3432(11) 0.7500
H9 H 0.3799 0.3238 0.7500
H10? H 0.4878 0.5548 0.8206
H11? H 0.4812 0.5739 0.6954
H12? H 0.5105 0.4898 0.7339
H13? H 0.2662 0.4829 0.6760
H14? H 0.3159 0.5459 0.7842
H15? H 0.2235 0.4290 0.7898
loop_
_geom_bond_atom_site_label_1
_geom_bond_atom_site_label_2
_geom_bond_site_symmetry_1
_geom_bond_site_symmetry_2
O1 C2 1_555 1_555
N1 H1 1_555 1_555
C1 C2 1_555 1_555
C2 C1B 1_555 1_555
C3 N1 1_555 1_555
C4 N1 1_555 1_555
C5 C4 1_555 1_555
H2 C5 1_555 1_555
H3 C5 1_555 1_555
C6 C5 1_555 1_555
H4 C3 1_555 1_555
H5 C6 1_555 1_555
H6 C4 1_555 1_555
H7 C6 1_555 1_555
H8 C4 1_555 1_555
N2 C7 1_555 1_555
C8 N2 1_555 1_555
O2 C9 1_555 1_555
C9 N2 1_555 1_555
H9 C9 1_555 1_555
O1B C2B 1_555 1_555
N1B H1B 1_555 1_555
C1B C2B 1_555 1_555
C2B C1D 1_555 1_555
C3B N1B 1_555 1_555
C4B N1B 1_555 1_555
C5B C4B 1_555 1_555
H2B C5B 1_555 1_555
H3B C5B 1_555 1_555
C6B C5B 1_555 1_555
H4B C3B 1_555 1_555
H5B C6B 1_555 1_555
H6B C4B 1_555 1_555
H7B C6B 1_555 1_555
H8B C4B 1_555 1_555
O1D C2D 1_555 1_555
N1D H1D 1_555 1_555
C1D C2D 1_555 1_555
C2D C1 1_555 1_555
C3D N1D 1_555 1_555
C4D N1D 1_555 1_555
C5D C4D 1_555 1_555
H2D C5D 1_555 1_555
H3D C5D 1_555 1_555
C6D C5D 1_555 1_555
H4D C3D 1_555 1_555
H5D C6D 1_555 1_555
H6D C4D 1_555 1_555
H7D C6D 1_555 1_555
H8D C4D 1_555 1_555
O1G C2G 1_555 1_555
N1G H1G 1_555 1_555
C1G C2G 1_555 1_555
C2G C1I 1_555 1_555
C3G N1G 1_555 1_555
C4G N1G 1_555 1_555
C5G C6D 1_555 1_555
H2G C5G 1_555 1_555
H3G C5G 1_555 1_555
H4G C3G 1_555 1_555
H6G C4G 1_555 1_555
H8G C4G 1_555 1_555
O1I C2I 1_555 1_555
N1I H1I 1_555 1_555
C1I C2I 1_555 1_555
C2I C1K 1_555 1_555
C3I N1I 1_555 1_555
C4I N1I 1_555 1_555
C5I C6 1_555 1_555
H2I C5I 1_555 1_555
H3I C5I 1_555 1_555
H4I C3I 1_555 1_555
H6I C4I 1_555 1_555
H8I C4I 1_555 1_555
O1K C2K 1_555 1_555
N1K H1K 1_555 1_555
C1K C2K 1_555 1_555
C2K C1G 1_555 1_555
C3K N1K 1_555 1_555
C4K N1K 1_555 1_555
C5K C6B 1_555 1_555
H2K C5K 1_555 1_555
H3K C5K 1_555 1_555
H4K C3K 1_555 1_555
H6K C4K 1_555 1_555
H8K C4K 1_555 1_555
C1 C3 1_555 1_555
C1B C3B 1_555 1_555
C1D C3D 1_555 1_555
C1G C3G 1_555 1_555
C4G C5G 1_555 1_555
C1I C3I 1_555 1_555
C4I C5I 1_555 1_555
C1K C3K 1_555 1_555
C4K C5K 1_555 1_555

#END
